# Generated by pormake.
# Topology ict, (4)-cn, num edge types: 1
# Building blocks:
#     Node 0, Type 0, BuildingBlock: QUQFOY_clean_sbu_3, # of connection points: 4
#     Node 1, Type 0, BuildingBlock: QUQFOY_clean_sbu_3, # of connection points: 4
#     Node 2, Type 0, BuildingBlock: QUQFOY_clean_sbu_3, # of connection points: 4
#     Node 3, Type 0, BuildingBlock: QUQFOY_clean_sbu_3, # of connection points: 4
#     Node 4, Type 0, BuildingBlock: QUQFOY_clean_sbu_3, # of connection points: 4
#     Node 5, Type 0, BuildingBlock: QUQFOY_clean_sbu_3, # of connection points: 4
#     Node 6, Type 0, BuildingBlock: QUQFOY_clean_sbu_3, # of connection points: 4
#     Node 7, Type 0, BuildingBlock: QUQFOY_clean_sbu_3, # of connection points: 4
#     Node 8, Type 0, BuildingBlock: QUQFOY_clean_sbu_3, # of connection points: 4
#     Node 9, Type 0, BuildingBlock: QUQFOY_clean_sbu_3, # of connection points: 4
#     Node 10, Type 0, BuildingBlock: QUQFOY_clean_sbu_3, # of connection points: 4
#     Node 11, Type 0, BuildingBlock: QUQFOY_clean_sbu_3, # of connection points: 4
#     Node 12, Type 0, BuildingBlock: QUQFOY_clean_sbu_3, # of connection points: 4
#     Node 13, Type 0, BuildingBlock: QUQFOY_clean_sbu_3, # of connection points: 4
#     Node 14, Type 0, BuildingBlock: QUQFOY_clean_sbu_3, # of connection points: 4
#     Node 15, Type 0, BuildingBlock: QUQFOY_clean_sbu_3, # of connection points: 4
#     Node 16, Type 0, BuildingBlock: QUQFOY_clean_sbu_3, # of connection points: 4
#     Node 17, Type 0, BuildingBlock: QUQFOY_clean_sbu_3, # of connection points: 4
#     Node 18, Type 0, BuildingBlock: QUQFOY_clean_sbu_3, # of connection points: 4
#     Node 19, Type 0, BuildingBlock: QUQFOY_clean_sbu_3, # of connection points: 4
#     Node 20, Type 0, BuildingBlock: QUQFOY_clean_sbu_3, # of connection points: 4
#     Node 21, Type 0, BuildingBlock: QUQFOY_clean_sbu_3, # of connection points: 4
#     Node 22, Type 0, BuildingBlock: QUQFOY_clean_sbu_3, # of connection points: 4
#     Node 23, Type 0, BuildingBlock: QUQFOY_clean_sbu_3, # of connection points: 4
#     Node 24, Type 0, BuildingBlock: QUQFOY_clean_sbu_3, # of connection points: 4
#     Node 25, Type 0, BuildingBlock: QUQFOY_clean_sbu_3, # of connection points: 4
#     Node 26, Type 0, BuildingBlock: QUQFOY_clean_sbu_3, # of connection points: 4
#     Node 27, Type 0, BuildingBlock: QUQFOY_clean_sbu_3, # of connection points: 4
#     Node 28, Type 0, BuildingBlock: QUQFOY_clean_sbu_3, # of connection points: 4
#     Node 29, Type 0, BuildingBlock: QUQFOY_clean_sbu_3, # of connection points: 4
#     Node 30, Type 0, BuildingBlock: QUQFOY_clean_sbu_3, # of connection points: 4
#     Node 31, Type 0, BuildingBlock: QUQFOY_clean_sbu_3, # of connection points: 4
#     Node 32, Type 0, BuildingBlock: QUQFOY_clean_sbu_3, # of connection points: 4
#     Node 33, Type 0, BuildingBlock: QUQFOY_clean_sbu_3, # of connection points: 4
#     Node 34, Type 0, BuildingBlock: QUQFOY_clean_sbu_3, # of connection points: 4
#     Node 35, Type 0, BuildingBlock: QUQFOY_clean_sbu_3, # of connection points: 4
#     Edge 36, Type (0, 0), BuildingBlock: MIFKUJ_clean_linker_0, # of connection points: 2
#     Edge 37, Type (0, 0), BuildingBlock: MIFKUJ_clean_linker_0, # of connection points: 2
#     Edge 38, Type (0, 0), BuildingBlock: MIFKUJ_clean_linker_0, # of connection points: 2
#     Edge 39, Type (0, 0), BuildingBlock: MIFKUJ_clean_linker_0, # of connection points: 2
#     Edge 40, Type (0, 0), BuildingBlock: MIFKUJ_clean_linker_0, # of connection points: 2
#     Edge 41, Type (0, 0), BuildingBlock: MIFKUJ_clean_linker_0, # of connection points: 2
#     Edge 42, Type (0, 0), BuildingBlock: MIFKUJ_clean_linker_0, # of connection points: 2
#     Edge 43, Type (0, 0), BuildingBlock: MIFKUJ_clean_linker_0, # of connection points: 2
#     Edge 44, Type (0, 0), BuildingBlock: MIFKUJ_clean_linker_0, # of connection points: 2
#     Edge 45, Type (0, 0), BuildingBlock: MIFKUJ_clean_linker_0, # of connection points: 2
#     Edge 46, Type (0, 0), BuildingBlock: MIFKUJ_clean_linker_0, # of connection points: 2
#     Edge 47, Type (0, 0), BuildingBlock: MIFKUJ_clean_linker_0, # of connection points: 2
#     Edge 48, Type (0, 0), BuildingBlock: MIFKUJ_clean_linker_0, # of connection points: 2
#     Edge 49, Type (0, 0), BuildingBlock: MIFKUJ_clean_linker_0, # of connection points: 2
#     Edge 50, Type (0, 0), BuildingBlock: MIFKUJ_clean_linker_0, # of connection points: 2
#     Edge 51, Type (0, 0), BuildingBlock: MIFKUJ_clean_linker_0, # of connection points: 2
#     Edge 52, Type (0, 0), BuildingBlock: MIFKUJ_clean_linker_0, # of connection points: 2
#     Edge 53, Type (0, 0), BuildingBlock: MIFKUJ_clean_linker_0, # of connection points: 2
#     Edge 54, Type (0, 0), BuildingBlock: MIFKUJ_clean_linker_0, # of connection points: 2
#     Edge 55, Type (0, 0), BuildingBlock: MIFKUJ_clean_linker_0, # of connection points: 2
#     Edge 56, Type (0, 0), BuildingBlock: MIFKUJ_clean_linker_0, # of connection points: 2
#     Edge 57, Type (0, 0), BuildingBlock: MIFKUJ_clean_linker_0, # of connection points: 2
#     Edge 58, Type (0, 0), BuildingBlock: MIFKUJ_clean_linker_0, # of connection points: 2
#     Edge 59, Type (0, 0), BuildingBlock: MIFKUJ_clean_linker_0, # of connection points: 2
#     Edge 60, Type (0, 0), BuildingBlock: MIFKUJ_clean_linker_0, # of connection points: 2
#     Edge 61, Type (0, 0), BuildingBlock: MIFKUJ_clean_linker_0, # of connection points: 2
#     Edge 62, Type (0, 0), BuildingBlock: MIFKUJ_clean_linker_0, # of connection points: 2
#     Edge 63, Type (0, 0), BuildingBlock: MIFKUJ_clean_linker_0, # of connection points: 2
#     Edge 64, Type (0, 0), BuildingBlock: MIFKUJ_clean_linker_0, # of connection points: 2
#     Edge 65, Type (0, 0), BuildingBlock: MIFKUJ_clean_linker_0, # of connection points: 2
#     Edge 66, Type (0, 0), BuildingBlock: MIFKUJ_clean_linker_0, # of connection points: 2
#     Edge 67, Type (0, 0), BuildingBlock: MIFKUJ_clean_linker_0, # of connection points: 2
#     Edge 68, Type (0, 0), BuildingBlock: MIFKUJ_clean_linker_0, # of connection points: 2
#     Edge 69, Type (0, 0), BuildingBlock: MIFKUJ_clean_linker_0, # of connection points: 2
#     Edge 70, Type (0, 0), BuildingBlock: MIFKUJ_clean_linker_0, # of connection points: 2
#     Edge 71, Type (0, 0), BuildingBlock: MIFKUJ_clean_linker_0, # of connection points: 2
#     Edge 72, Type (0, 0), BuildingBlock: MIFKUJ_clean_linker_0, # of connection points: 2
#     Edge 73, Type (0, 0), BuildingBlock: MIFKUJ_clean_linker_0, # of connection points: 2
#     Edge 74, Type (0, 0), BuildingBlock: MIFKUJ_clean_linker_0, # of connection points: 2
#     Edge 75, Type (0, 0), BuildingBlock: MIFKUJ_clean_linker_0, # of connection points: 2
#     Edge 76, Type (0, 0), BuildingBlock: MIFKUJ_clean_linker_0, # of connection points: 2
#     Edge 77, Type (0, 0), BuildingBlock: MIFKUJ_clean_linker_0, # of connection points: 2
#     Edge 78, Type (0, 0), BuildingBlock: MIFKUJ_clean_linker_0, # of connection points: 2
#     Edge 79, Type (0, 0), BuildingBlock: MIFKUJ_clean_linker_0, # of connection points: 2
#     Edge 80, Type (0, 0), BuildingBlock: MIFKUJ_clean_linker_0, # of connection points: 2
#     Edge 81, Type (0, 0), BuildingBlock: MIFKUJ_clean_linker_0, # of connection points: 2
#     Edge 82, Type (0, 0), BuildingBlock: MIFKUJ_clean_linker_0, # of connection points: 2
#     Edge 83, Type (0, 0), BuildingBlock: MIFKUJ_clean_linker_0, # of connection points: 2
#     Edge 84, Type (0, 0), BuildingBlock: MIFKUJ_clean_linker_0, # of connection points: 2
#     Edge 85, Type (0, 0), BuildingBlock: MIFKUJ_clean_linker_0, # of connection points: 2
#     Edge 86, Type (0, 0), BuildingBlock: MIFKUJ_clean_linker_0, # of connection points: 2
#     Edge 87, Type (0, 0), BuildingBlock: MIFKUJ_clean_linker_0, # of connection points: 2
#     Edge 88, Type (0, 0), BuildingBlock: MIFKUJ_clean_linker_0, # of connection points: 2
#     Edge 89, Type (0, 0), BuildingBlock: MIFKUJ_clean_linker_0, # of connection points: 2
#     Edge 90, Type (0, 0), BuildingBlock: MIFKUJ_clean_linker_0, # of connection points: 2
#     Edge 91, Type (0, 0), BuildingBlock: MIFKUJ_clean_linker_0, # of connection points: 2
#     Edge 92, Type (0, 0), BuildingBlock: MIFKUJ_clean_linker_0, # of connection points: 2
#     Edge 93, Type (0, 0), BuildingBlock: MIFKUJ_clean_linker_0, # of connection points: 2
#     Edge 94, Type (0, 0), BuildingBlock: MIFKUJ_clean_linker_0, # of connection points: 2
#     Edge 95, Type (0, 0), BuildingBlock: MIFKUJ_clean_linker_0, # of connection points: 2
#     Edge 96, Type (0, 0), BuildingBlock: MIFKUJ_clean_linker_0, # of connection points: 2
#     Edge 97, Type (0, 0), BuildingBlock: MIFKUJ_clean_linker_0, # of connection points: 2
#     Edge 98, Type (0, 0), BuildingBlock: MIFKUJ_clean_linker_0, # of connection points: 2
#     Edge 99, Type (0, 0), BuildingBlock: MIFKUJ_clean_linker_0, # of connection points: 2
#     Edge 100, Type (0, 0), BuildingBlock: MIFKUJ_clean_linker_0, # of connection points: 2
#     Edge 101, Type (0, 0), BuildingBlock: MIFKUJ_clean_linker_0, # of connection points: 2
#     Edge 102, Type (0, 0), BuildingBlock: MIFKUJ_clean_linker_0, # of connection points: 2
#     Edge 103, Type (0, 0), BuildingBlock: MIFKUJ_clean_linker_0, # of connection points: 2
#     Edge 104, Type (0, 0), BuildingBlock: MIFKUJ_clean_linker_0, # of connection points: 2
#     Edge 105, Type (0, 0), BuildingBlock: MIFKUJ_clean_linker_0, # of connection points: 2
#     Edge 106, Type (0, 0), BuildingBlock: MIFKUJ_clean_linker_0, # of connection points: 2
#     Edge 107, Type (0, 0), BuildingBlock: MIFKUJ_clean_linker_0, # of connection points: 2
# Relax obj value: 0.100
# Max RMSD: 0.124
# Mean RMSD: 0.124
data_MOF--net-ict--node1-QUQFOY_clean_sbu_3--edge1-MIFKUJ_clean_linker_0
_symmetry_space_group_name_H-M    P1
_symmetry_Int_Tables_number       1
_symmetry_cell_setting            triclinic
loop_
_symmetry_equiv_pos_as_xyz
'x, y, z'
_cell_length_a     85.782038
_cell_length_b     85.909477
_cell_length_c     48.476209
_cell_angle_alpha  89.997527
_cell_angle_beta   90.008823
_cell_angle_gamma 119.97675
loop_
_atom_site_label
_atom_site_type_symbol
_atom_site_fract_x
_atom_site_fract_y
_atom_site_fract_z
_atom_type_partial_charge
C0 C 0.18647 0.21922 0.02645 0.0
O1 O 0.18146 0.20334 0.03449 0.0
Cd2 Cd 0.20081 0.19216 0.04713 0.0
O3 O 0.20319 0.23072 0.0239 0.0
Cd4 Cd 0.23247 0.2311 0.03021 0.0
C5 C 0.22482 0.22236 0.09863 0.0
O6 O 0.22236 0.20149 0.01082 0.0
O7 O 0.24807 0.21331 0.03104 0.0
O8 O 0.2438 0.24911 0.98827 0.0
C9 C 0.23624 0.20056 0.01665 0.0
O10 O 0.21337 0.20643 0.09128 0.0
C11 C 0.2584 0.26122 -0.00118 0.0
O12 O 0.23341 0.23453 0.08068 0.0
O13 O 0.26068 0.25971 0.02436 0.0
C14 C 0.78001 0.97382 0.02644 0.0
O15 O 0.79617 0.98532 0.03242 0.0
Cd16 Cd 0.80691 0.01592 0.04391 0.0
O17 O 0.76792 0.97836 0.02542 0.0
Cd18 Cd 0.76654 0.0067 0.03164 0.0
C19 C 0.77877 0.00955 0.09876 0.0
O20 O 0.79501 0.02644 0.00876 0.0
O21 O 0.78327 0.03996 0.03027 0.0
O22 O 0.74514 -0.00347 0.99321 0.0
C23 C 0.79557 0.04107 0.01452 0.0
O24 O 0.79451 0.01453 0.08973 0.0
C25 C 0.73424 0.00048 0.00458 0.0
O26 O 0.76569 0.00511 0.08217 0.0
O27 O 0.73801 0.00667 0.02896 0.0
C28 C 0.02544 0.80444 0.04038 0.0
O29 O 0.01453 0.80952 0.04798 0.0
Cd30 Cd 0.98315 0.79012 0.05573 0.0
O31 O 0.01992 0.78782 0.036 0.0
Cd32 Cd 0.9905 0.75876 0.03776 0.0
C33 C 0.98496 0.7627 0.10604 0.0
O34 O 0.97244 0.77041 0.01693 0.0
O35 O 0.9574 0.74375 0.03381 0.0
O36 O 0.0007 0.74987 -0.00321 0.0
C37 C 0.95732 0.75634 0.02033 0.0
O38 O 0.9813 0.77477 0.09883 0.0
C39 C -0.00357 0.7343 0.00546 0.0
O40 O 0.98974 0.75501 0.08818 0.0
O41 O 0.98991 0.73027 0.02964 0.0
C42 C 0.21616 0.17885 0.45845 0.0
O43 O 0.20037 0.17422 0.45021 0.0
Cd44 Cd 0.18871 0.19371 0.44093 0.0
O45 O 0.22764 0.1954 0.46261 0.0
Cd46 Cd 0.2277 0.22465 0.45835 0.0
C47 C 0.21785 0.21961 0.38987 0.0
O48 O 0.19803 0.2142 0.47873 0.0
O49 O 0.21006 0.24028 0.45977 0.0
O50 O 0.24688 0.23643 0.49934 0.0
C51 C 0.1973 0.2283 0.47394 0.0
O52 O 0.20189 0.20816 0.39712 0.0
C53 C 0.25857 0.25096 0.48805 0.0
O54 O 0.23034 0.22697 0.40777 0.0
O55 O 0.25627 0.25288 0.46267 0.0
C56 C 0.81112 0.02699 0.46748 0.0
O57 O 0.8163 0.01612 0.46011 0.0
Cd58 Cd 0.7967 0.98586 0.44566 0.0
O59 O 0.79438 0.02189 0.46837 0.0
Cd60 Cd 0.76548 0.99336 0.45933 0.0
C61 C 0.77533 0.99347 0.39184 0.0
O62 O 0.77316 0.97176 0.47908 0.0
O63 O 0.74946 0.96052 0.45352 0.0
O64 O 0.75236 -0.00109 0.5002 0.0
C65 C 0.75938 0.95787 0.46996 0.0
O66 O 0.78593 0.98806 0.40002 0.0
C67 C 0.73847 -0.0028 0.48808 0.0
O68 O 0.76681 -0.00244 0.40919 0.0
O69 O 0.7374 0.99427 0.46228 0.0
C70 C 0.95721 0.76772 0.47227 0.0
O71 O 0.96813 0.78384 0.46535 0.0
Cd72 Cd -0.00222 0.79416 0.44836 0.0
O73 O 0.96203 0.75586 0.47228 0.0
Cd74 Cd 0.99065 0.75512 0.4645 0.0
C75 C 0.98954 0.7632 0.3966 0.0
O76 O 0.01103 0.78489 0.48311 0.0
O77 O 0.02404 0.77235 0.46236 0.0
O78 O 0.98274 0.73593 0.50524 0.0
C79 C 0.02557 0.7855 0.47636 0.0
O80 O 0.99426 0.77923 0.40379 0.0
C81 C 0.98602 0.72442 0.49438 0.0
O82 O 0.98655 0.75127 0.41467 0.0
O83 O 0.99098 0.72693 0.46932 0.0
C84 C 0.80756 0.7797 0.95858 0.0
O85 O 0.81288 0.79567 0.95065 0.0
Cd86 Cd 0.79395 0.808 0.9411 0.0
O87 O 0.79086 0.76876 0.96266 0.0
Cd88 Cd 0.76193 0.76932 0.96001 0.0
C89 C 0.7667 0.77808 0.89134 0.0
O90 O 0.77356 0.79941 0.97896 0.0
O91 O 0.74677 0.78731 0.96239 0.0
O92 O 0.75237 0.75123 0.00197 0.0
C93 C 0.75954 0.80045 0.97487 0.0
O94 O 0.77891 0.79385 0.89809 0.0
C95 C 0.73705 0.73953 0.99288 0.0
O96 O 0.75868 0.76597 0.9096 0.0
O97 O 0.7335 0.74132 0.96803 0.0
C98 C 0.21233 0.02711 0.96115 0.0
O99 O 0.19619 0.01639 0.95397 0.0
Cd100 Cd 0.18489 0.98562 0.94232 0.0
O101 O 0.22356 0.02156 0.96354 0.0
Cd102 Cd 0.22357 0.99256 0.95865 0.0
C103 C 0.21465 0.99116 0.89043 0.0
O104 O 0.19394 0.973 0.97871 0.0
O105 O 0.20617 0.95945 0.95846 0.0
O106 O 0.242 0.00117 0.00017 0.0
C107 C 0.1934 0.95834 0.97308 0.0
O108 O 0.19879 0.98696 0.89786 0.0
C109 C 0.25388 -0.00205 0.99066 0.0
O110 O 0.22686 0.99463 0.90829 0.0
O111 O 0.252 0.9927 0.96576 0.0
C112 C 0.96583 0.19424 0.9549 0.0
O113 O 0.97648 0.18929 0.94547 0.0
Cd114 Cd 0.00795 0.20838 0.93726 0.0
O115 O 0.9716 0.21069 0.96098 0.0
Cd116 Cd 0.00106 0.23951 0.95982 0.0
C117 C 0.00643 0.23782 0.89066 0.0
O118 O 0.01943 0.22723 0.9768 0.0
O119 O 0.03421 0.25446 0.96197 0.0
O120 O 0.99387 0.24876 0.00345 0.0
C121 C 0.03451 0.24134 0.97336 0.0
O122 O 0.01012 0.2255 0.896 0.0
C123 C -0.00387 0.26364 0.99452 0.0
O124 O 0.00158 0.24466 0.90979 0.0
O125 O 0.00015 0.26705 0.96917 0.0
C126 C 0.76751 0.79953 0.5243 0.0
O127 O 0.78367 0.80427 0.53038 0.0
Cd128 Cd 0.79273 0.78391 0.54651 0.0
O129 O 0.75532 0.78297 0.52498 0.0
Cd130 Cd 0.75392 0.75337 0.53336 0.0
C131 C 0.76263 0.76344 0.6003 0.0
O132 O 0.78266 0.7608 0.51244 0.0
O133 O 0.77168 0.73799 0.53964 0.0
O134 O 0.73489 0.74255 0.49251 0.0
C135 C 0.78343 0.74747 0.52182 0.0
O136 O 0.77865 0.77384 0.59193 0.0
C137 C 0.72352 0.72743 0.50254 0.0
O138 O 0.75003 0.75457 0.58311 0.0
O139 O 0.7259 0.72451 0.52745 0.0
C140 C 0.18221 0.95632 0.52645 0.0
O141 O 0.1776 0.96774 0.53314 0.0
Cd142 Cd 0.19722 -0.00124 0.54274 0.0
O143 O 0.19883 0.961 0.52427 0.0
Cd144 Cd 0.22834 0.98973 0.53034 0.0
C145 C 0.22024 0.99474 0.59755 0.0
O146 O 0.21932 0.00921 0.50717 0.0
O147 O 0.24478 0.02317 0.52791 0.0
O148 O 0.24108 0.98068 0.49239 0.0
C149 C 0.23325 0.02403 0.51265 0.0
O150 O 0.2095 -0.0003 0.58835 0.0
C151 C 0.25515 0.98364 0.50541 0.0
O152 O 0.22813 0.98932 0.58113 0.0
O153 O 0.25644 0.98887 0.53022 0.0
C154 C 0.03031 0.21914 0.54356 0.0
O155 O 0.01968 0.2051 0.55703 0.0
Cd156 Cd 0.98892 0.19546 0.56751 0.0
O157 O 0.02507 0.22985 0.53507 0.0
Cd158 Cd -0.0035 0.23094 0.53868 0.0
C159 C 0.99453 0.22988 0.60863 0.0
O160 O 0.97696 0.19965 0.52544 0.0
O161 O 0.96299 0.21317 0.53916 0.0
O162 O 0.00297 0.24652 0.49406 0.0
C163 C 0.96216 0.19934 0.52838 0.0
O164 O 0.98827 0.21301 0.60668 0.0
C165 C 0.0005 0.25909 0.50267 0.0
O166 O 0.00011 0.23985 0.58735 0.0
O167 O -0.00327 0.25876 0.52805 0.0
C168 C 0.85759 0.55351 0.35686 0.0
O169 O 0.85331 0.53786 0.36522 0.0
Cd170 Cd 0.87347 0.52755 0.37737 0.0
O171 O 0.87412 0.56556 0.354 0.0
Cd172 Cd 0.90417 0.56753 0.36069 0.0
C173 C 0.89639 0.55781 0.42915 0.0
O174 O 0.89484 0.53825 0.34077 0.0
O175 O 0.92102 0.55069 0.35929 0.0
O176 O 0.9156 0.58809 0.32108 0.0
C177 C 0.90894 0.53758 0.34576 0.0
O178 O 0.88565 0.54167 0.42182 0.0
C179 C 0.92982 0.59981 0.33311 0.0
O180 O 0.90433 0.57012 0.41118 0.0
O181 O 0.93186 0.59665 0.35803 0.0
C182 C 0.43685 0.29201 0.3547 0.0
O183 O 0.45352 0.30299 0.35771 0.0
Cd184 Cd 0.46455 0.3329 0.37344 0.0
O185 O 0.42535 0.29721 0.35711 0.0
Cd186 Cd 0.42626 0.32673 0.36287 0.0
C187 C 0.43641 0.32602 0.42917 0.0
O188 O 0.45484 0.34685 0.3404 0.0
O189 O 0.44522 0.35967 0.36831 0.0
O190 O 0.40707 0.31913 0.32242 0.0
C191 C 0.45644 0.36129 0.34991 0.0
O192 O 0.45193 0.33023 0.41991 0.0
C193 C 0.39601 0.32322 0.33278 0.0
O194 O 0.42366 0.32313 0.41273 0.0
O195 O 0.3986 0.3284 0.35776 0.0
C196 C 0.69735 0.14674 0.35706 0.0
O197 O 0.68628 0.15223 0.36116 0.0
Cd198 Cd 0.6555 0.13348 0.37376 0.0
O199 O 0.69218 0.12999 0.35765 0.0
Cd200 Cd 0.66276 0.10116 0.36238 0.0
C201 C 0.65914 0.11018 0.42915 0.0
O202 O 0.64329 0.1105 0.33957 0.0
O203 O 0.62961 0.08544 0.36164 0.0
O204 O 0.67072 0.08855 0.32329 0.0
C205 C 0.62855 0.09668 0.34598 0.0
O206 O 0.65547 0.12187 0.41991 0.0
C207 C 0.66774 0.07429 0.33564 0.0
O208 O 0.66309 0.10108 0.41278 0.0
O209 O 0.66307 0.07283 0.36079 0.0
C210 C 0.88731 0.52134 0.78973 0.0
O211 O 0.8714 0.51664 0.78204 0.0
Cd212 Cd 0.8599 0.53608 0.77193 0.0
O213 O 0.89893 0.53794 0.79308 0.0
Cd214 Cd 0.89931 0.56734 0.78868 0.0
C215 C 0.88924 0.56143 0.72041 0.0
O216 O 0.86982 0.55704 0.80894 0.0
O217 O 0.88171 0.58315 0.79021 0.0
O218 O 0.91804 0.57827 0.82997 0.0
C219 C 0.86884 0.57098 0.80401 0.0
O220 O 0.8734 0.54985 0.72802 0.0
C221 C 0.93002 0.59292 0.81937 0.0
O222 O 0.9018 0.5694 0.73805 0.0
O223 O 0.92811 0.59538 0.79405 0.0
C224 C 0.47561 0.36144 0.79043 0.0
O225 O 0.48103 0.35055 0.78437 0.0
Cd226 Cd 0.4621 0.31914 0.77642 0.0
O227 O 0.45884 0.35587 0.79323 0.0
Cd228 Cd 0.42996 0.3265 0.79035 0.0
C229 C 0.43672 0.32114 0.72294 0.0
O230 O 0.44075 0.30828 0.81315 0.0
O231 O 0.41473 0.29351 0.79389 0.0
O232 O 0.41971 0.33645 0.83 0.0
C233 C 0.42677 0.29325 0.80869 0.0
O234 O 0.44838 0.31729 0.73169 0.0
C235 C 0.40445 0.33232 0.82002 0.0
O236 O 0.42846 0.32598 0.73964 0.0
O237 O 0.40121 0.32603 0.79565 0.0
C238 C 0.62477 0.10583 0.79768 0.0
O239 O 0.63536 0.12211 0.79113 0.0
Cd240 Cd 0.66605 0.13454 0.77846 0.0
O241 O 0.63035 0.09456 0.79835 0.0
Cd242 Cd 0.65966 0.09534 0.79046 0.0
C243 C 0.66089 0.10695 0.72346 0.0
O244 O 0.67824 0.12411 0.81312 0.0
O245 O 0.69299 0.114 0.79098 0.0
O246 O 0.65056 0.07432 0.82905 0.0
C247 C 0.69335 0.12589 0.80684 0.0
O248 O 0.6653 0.12248 0.73274 0.0
C249 C 0.65618 0.06449 0.81857 0.0
O250 O 0.65704 0.09394 0.7399 0.0
O251 O 0.66269 0.06851 0.79438 0.0
C252 C 0.46866 0.10534 0.29534 0.0
O253 O 0.47201 0.12104 0.28894 0.0
Cd254 Cd 0.44961 0.12946 0.28277 0.0
O255 O 0.45247 0.09283 0.29927 0.0
Cd256 Cd 0.42189 0.08985 0.29833 0.0
C257 C 0.42473 0.10015 0.2309 0.0
O258 O 0.42961 0.11809 0.32122 0.0
O259 O 0.40451 0.10574 0.29909 0.0
O260 O 0.4143 0.07109 0.3394 0.0
C261 C 0.41508 0.11786 0.31562 0.0
O262 O 0.43475 0.11627 0.23904 0.0
C263 C 0.39939 0.05854 0.33046 0.0
O264 O 0.41905 0.08713 0.24792 0.0
O265 O 0.39511 0.06021 0.30599 0.0
C266 C 0.88995 0.3648 0.29294 0.0
O267 O 0.8738 0.3534 0.28682 0.0
Cd268 Cd 0.86295 0.32231 0.27833 0.0
O269 O 0.90174 0.35992 0.29494 0.0
Cd270 Cd 0.90155 0.3307 0.28956 0.0
C271 C 0.88919 0.32522 0.22303 0.0
O272 O 0.87362 0.31123 0.3146 0.0
O273 O 0.88302 0.29751 0.28827 0.0
O274 O 0.92241 0.33978 0.32835 0.0
C275 C 0.87227 0.29652 0.307 0.0
O276 O 0.8735 0.31976 0.23271 0.0
C277 C 0.93298 0.33522 0.31748 0.0
O278 O 0.90283 0.33183 0.23895 0.0
O279 O 0.9294 0.32923 0.29297 0.0
C280 C 0.63127 0.51264 0.29756 0.0
O281 O 0.64256 0.50765 0.29198 0.0
Cd282 Cd 0.67257 0.52726 0.27654 0.0
O283 O 0.63583 0.52924 0.29706 0.0
Cd284 Cd 0.66423 0.55875 0.29045 0.0
C285 C 0.66565 0.54981 0.22294 0.0
O286 O 0.68504 0.55037 0.31042 0.0
O287 O 0.69753 0.57559 0.28884 0.0
O288 O 0.65666 0.56974 0.33174 0.0
C289 C 0.6994 0.56439 0.30342 0.0
O290 O 0.67025 0.53861 0.2313 0.0
C291 C 0.65834 0.58391 0.32076 0.0
O292 O 0.66184 0.55863 0.24011 0.0
O293 O 0.66225 0.58617 0.29524 0.0
C294 C 0.43786 0.13648 0.87479 0.0
O295 O 0.45292 0.13983 0.88478 0.0
Cd296 Cd 0.46223 0.11815 0.89263 0.0
O297 O 0.42603 0.12044 0.86838 0.0
Cd298 Cd 0.42327 0.09011 0.87016 0.0
C299 C 0.42982 0.0914 0.93908 0.0
O300 O 0.45326 0.09983 0.85252 0.0
O301 O 0.43925 0.07277 0.86805 0.0
O302 O 0.40594 0.083 0.8275 0.0
C303 C 0.45296 0.08508 0.85589 0.0
O304 O 0.4465 0.10126 0.93373 0.0
C305 C 0.39355 0.06765 0.83531 0.0
O306 O 0.41799 0.08674 0.92019 0.0
O307 O 0.39458 0.06306 0.85986 0.0
C308 C 0.84789 0.2979 0.86278 0.0
O309 O 0.84408 0.30959 0.87132 0.0
Cd310 Cd 0.86532 0.34073 0.87905 0.0
O311 O 0.86416 0.30224 0.85778 0.0
Cd312 Cd 0.8943 0.32992 0.86057 0.0
C313 C 0.89049 0.33558 0.92896 0.0
O314 O 0.8852 0.35015 0.84058 0.0
O315 O 0.91185 0.36319 0.85789 0.0
O316 O 0.90253 0.31917 0.81958 0.0
C317 C 0.89987 0.3646 0.84463 0.0
O318 O 0.88066 0.34217 0.92206 0.0
C319 C 0.91744 0.32172 0.82901 0.0
O320 O 0.89601 0.32858 0.91106 0.0
O321 O 0.92137 0.3276 0.85355 0.0
C322 C 0.69526 0.54992 0.85693 0.0
O323 O 0.68406 0.53383 0.86364 0.0
Cd324 Cd 0.65328 0.52261 0.87508 0.0
O325 O 0.69034 0.56168 0.85526 0.0
Cd326 Cd 0.6617 0.56248 0.86165 0.0
C327 C 0.65904 0.55096 0.92919 0.0
O328 O 0.64189 0.53364 0.84001 0.0
O329 O 0.6284 0.54552 0.86133 0.0
O330 O 0.66951 0.58192 0.82125 0.0
C331 C 0.62723 0.53303 0.846 0.0
O332 O 0.65428 0.53524 0.92042 0.0
C333 C 0.6673 0.59393 0.8328 0.0
O334 O 0.66337 0.56389 0.91236 0.0
O335 O 0.66312 0.59167 0.85821 0.0
C336 C 0.51899 0.88781 0.69873 0.0
O337 O 0.51451 0.87259 0.70918 0.0
Cd338 Cd 0.53435 0.86091 0.717 0.0
O339 O 0.53533 0.8986 0.69214 0.0
Cd340 Cd 0.56424 0.89823 0.6953 0.0
C341 C 0.56263 0.89133 0.76407 0.0
O342 O 0.55276 0.86784 0.67695 0.0
O343 O 0.57933 0.88013 0.69442 0.0
O344 O 0.57429 0.91636 0.65316 0.0
C345 C 0.56695 0.86711 0.68118 0.0
O346 O 0.55188 0.87487 0.75846 0.0
C347 C 0.58971 0.92767 0.66245 0.0
O348 O 0.56783 0.90332 0.7454 0.0
O349 O 0.59297 0.92568 0.68734 0.0
C350 C 0.11077 0.62987 0.69571 0.0
O351 O 0.12628 0.64137 0.70449 0.0
Cd352 Cd 0.13634 0.67231 0.71418 0.0
O353 O 0.09889 0.63435 0.69115 0.0
Cd354 Cd 0.09683 0.66228 0.69499 0.0
C355 C 0.1054 0.66653 0.76372 0.0
O356 O 0.1265 0.68282 0.6763 0.0
O357 O 0.1128 0.69559 0.69416 0.0
O358 O 0.07833 0.65414 0.65331 0.0
C359 C 0.12633 0.69722 0.6811 0.0
O360 O 0.12183 0.67261 0.7573 0.0
C361 C 0.06556 0.65535 0.66438 0.0
O362 O 0.09319 0.66047 0.74528 0.0
O363 O 0.06714 0.65927 0.68986 0.0
C364 C 0.36253 0.47069 0.69156 0.0
O365 O 0.35119 0.47531 0.69875 0.0
Cd366 Cd 0.3207 0.45549 0.71113 0.0
O367 O 0.35786 0.45408 0.68969 0.0
Cd368 Cd 0.32927 0.42442 0.69595 0.0
C369 C 0.32718 0.43224 0.76381 0.0
O370 O 0.30886 0.43334 0.67583 0.0
O371 O 0.2959 0.40801 0.69704 0.0
O372 O 0.3375 0.41389 0.65472 0.0
C373 C 0.29434 0.41937 0.68238 0.0
O374 O 0.32229 0.44322 0.75554 0.0
C375 C 0.33422 0.39891 0.66478 0.0
O376 O 0.33154 0.42386 0.74658 0.0
O377 O 0.32939 0.39608 0.68991 0.0
C378 C 0.55222 0.85999 0.12141 0.0
O379 O 0.53689 0.85629 0.11216 0.0
Cd380 Cd 0.52773 0.87782 0.10275 0.0
O381 O 0.5642 0.87626 0.12629 0.0
Cd382 Cd 0.56654 0.90643 0.12271 0.0
C383 C 0.55924 0.90323 0.05397 0.0
O384 O 0.53693 0.89711 0.14196 0.0
O385 O 0.55018 0.92343 0.12367 0.0
O386 O 0.58447 0.91451 0.16485 0.0
C387 C 0.53708 0.9117 0.13765 0.0
O388 O 0.54275 0.893 0.06019 0.0
C389 C 0.59665 0.92976 0.15636 0.0
O390 O 0.57134 0.90906 0.07257 0.0
O391 O 0.59523 0.93389 0.1317 0.0
C392 C 0.14114 0.69378 0.11848 0.0
O393 O 0.14463 0.68175 0.11062 0.0
Cd394 Cd 0.12306 0.65054 0.10539 0.0
O395 O 0.125 0.68978 0.12384 0.0
Cd396 Cd 0.09465 0.66213 0.12298 0.0
C397 C 0.09665 0.65362 0.05532 0.0
O398 O 0.10417 0.64282 0.14484 0.0
O399 O 0.07735 0.62889 0.12842 0.0
O400 O 0.08704 0.67405 0.16321 0.0
C401 C 0.08958 0.62814 0.142 0.0
O402 O 0.1067 0.64741 0.06285 0.0
C403 C 0.07186 0.67098 0.15425 0.0
O404 O 0.09157 0.66142 0.07248 0.0
O405 O 0.06752 0.66438 0.13015 0.0
C406 C 0.29834 0.44405 0.12707 0.0
O407 O 0.30895 0.45984 0.11838 0.0
Cd408 Cd 0.33983 0.47143 0.10676 0.0
O409 O 0.3039 0.4329 0.13052 0.0
Cd410 Cd 0.33293 0.43294 0.12459 0.0
C411 C 0.33471 0.44143 0.05591 0.0
O412 O 0.35226 0.46277 0.14384 0.0
O413 O 0.36619 0.45066 0.12451 0.0
O414 O 0.32569 0.41422 0.1659 0.0
C415 C 0.36707 0.46353 0.13851 0.0
O416 O 0.33919 0.45745 0.0627 0.0
C417 C 0.32837 0.40235 0.15487 0.0
O418 O 0.33078 0.42943 0.07428 0.0
O419 O 0.33267 0.40446 0.12952 0.0
C420 C 0.1389 0.43708 0.64123 0.0
O421 O 0.14373 0.45331 0.63558 0.0
Cd422 Cd 0.12491 0.4657 0.62657 0.0
O423 O 0.12223 0.42524 0.64302 0.0
Cd424 Cd 0.0928 0.42483 0.63793 0.0
C425 C 0.10154 0.43909 0.57128 0.0
O426 O 0.1023 0.45321 0.66113 0.0
O427 O 0.07663 0.44204 0.6411 0.0
O428 O 0.07944 0.40307 0.67568 0.0
C429 C 0.08854 0.45447 0.65585 0.0
O430 O 0.11281 0.45449 0.58085 0.0
C431 C 0.06564 0.39198 0.66212 0.0
O432 O 0.09295 0.42567 0.58727 0.0
O433 O 0.06485 0.39589 0.63709 0.0
C434 C 0.54929 0.69481 0.63175 0.0
O435 O 0.53338 0.68339 0.62442 0.0
Cd436 Cd 0.52311 0.65288 0.61253 0.0
O437 O 0.56129 0.69022 0.63416 0.0
Cd438 Cd 0.56317 0.6621 0.62871 0.0
C439 C 0.5536 0.66055 0.56054 0.0
O440 O 0.53378 0.64165 0.64826 0.0
O441 O 0.5467 0.62867 0.62865 0.0
O442 O 0.58245 0.67147 0.66952 0.0
C443 C 0.53344 0.62713 0.64241 0.0
O444 O 0.53749 0.65511 0.56825 0.0
C445 C 0.59438 0.66852 0.65937 0.0
O446 O 0.56611 0.66493 0.57823 0.0
O447 O 0.5921 0.66312 0.63452 0.0
C448 C 0.29602 0.85319 0.62598 0.0
O449 O 0.30686 0.84834 0.61708 0.0
Cd450 Cd 0.33725 0.86792 0.60377 0.0
O451 O 0.30113 0.86984 0.62881 0.0
Cd452 Cd 0.32999 0.89897 0.62115 0.0
C453 C 0.33015 0.89133 0.55269 0.0
O454 O 0.34984 0.88908 0.64065 0.0
O455 O 0.36338 0.91448 0.61961 0.0
O456 O 0.32296 0.9113 0.66172 0.0
C457 C 0.36453 0.90301 0.63457 0.0
O458 O 0.33534 0.88032 0.55945 0.0
C459 C 0.32614 0.92585 0.65012 0.0
O460 O 0.32628 0.8994 0.57112 0.0
O461 O 0.33054 0.92761 0.62483 0.0
C462 C 0.11123 0.47783 0.20508 0.0
O463 O 0.12722 0.48305 0.21291 0.0
Cd464 Cd 0.13816 0.46358 0.22637 0.0
O465 O 0.09976 0.46109 0.20329 0.0
Cd466 Cd 0.09934 0.43203 0.21056 0.0
C467 C 0.10809 0.44066 0.27851 0.0
O468 O 0.12882 0.44171 0.19045 0.0
O469 O 0.11687 0.41628 0.21155 0.0
O470 O 0.08011 0.42152 0.16993 0.0
C471 C 0.1295 0.42773 0.19653 0.0
O472 O 0.12415 0.45166 0.27102 0.0
C473 C 0.06878 0.40636 0.17992 0.0
O474 O 0.09583 0.43215 0.26065 0.0
O475 O 0.07132 0.40331 0.20468 0.0
C476 C 0.51796 0.63523 0.19847 0.0
O477 O 0.51234 0.64572 0.20599 0.0
Cd478 Cd 0.53066 0.67682 0.21664 0.0
O479 O 0.53478 0.64107 0.19551 0.0
Cd480 Cd 0.56336 0.67066 0.20051 0.0
C481 C 0.55615 0.67352 0.2687 0.0
O482 O 0.55216 0.68916 0.18024 0.0
O483 O 0.57818 0.70377 0.19953 0.0
O484 O 0.57547 0.6639 0.15952 0.0
C485 C 0.56595 0.70419 0.18546 0.0
O486 O 0.54411 0.67713 0.26101 0.0
C487 C 0.59005 0.66683 0.1708 0.0
O488 O 0.56484 0.66982 0.25108 0.0
O489 O 0.59194 0.67092 0.19623 0.0
C490 C 0.36525 0.88955 0.19539 0.0
O491 O 0.35518 0.87337 0.2029 0.0
Cd492 Cd 0.32358 0.8591 0.2112 0.0
O493 O 0.35873 0.89986 0.19146 0.0
Cd494 Cd 0.32827 0.89707 0.19477 0.0
C495 C 0.32338 0.88635 0.26282 0.0
O496 O 0.31137 0.86741 0.17346 0.0
O497 O 0.29535 0.87759 0.19161 0.0
O498 O 0.33508 0.91674 0.15465 0.0
C499 C 0.29591 0.86542 0.17762 0.0
O500 O 0.32062 0.87098 0.25528 0.0
C501 C 0.33109 0.92751 0.16635 0.0
O502 O 0.32741 0.8988 0.24523 0.0
O503 O 0.3264 0.92443 0.1915 0.0
H504 H 0.36906 0.31972 0.8071 0.0
H505 H 0.34511 0.3158 0.83859 0.0
H506 H 0.38428 0.34246 0.90307 0.0
H507 H 0.40824 0.34617 0.87185 0.0
H508 H 0.35908 0.31022 0.91878 0.0
H509 H 0.3596 0.3604 0.87612 0.0
H510 H 0.35882 0.37906 0.83807 0.0
H511 H 0.30591 0.33724 0.81557 0.0
H512 H 0.30653 0.31806 0.85285 0.0
H513 H 0.2909 0.28903 0.01566 0.0
H514 H 0.31639 0.30897 0.9864 0.0
H515 H 0.28413 0.28478 0.91382 0.0
H516 H 0.2585 0.2651 0.9429 0.0
H517 H 0.30751 0.32037 0.90551 0.0
H518 H 0.30982 0.26874 0.94015 0.0
H519 H 0.30998 0.24868 0.97643 0.0
H520 H 0.35738 0.2927 0.01203 0.0
H521 H 0.35734 0.31306 0.97613 0.0
C522 C 0.37263 0.32514 0.82778 0.0
C523 C 0.39051 0.33304 0.83709 0.0
C524 C 0.35892 0.32299 0.84574 0.0
C525 C 0.36289 0.32884 0.87323 0.0
C526 C 0.3809 0.33781 0.88197 0.0
C527 C 0.39458 0.33991 0.86409 0.0
C528 C 0.34818 0.32325 0.89374 0.0
C529 C 0.34806 0.31288 0.9162 0.0
C530 C 0.3335 0.32623 0.88994 0.0
C531 C 0.33317 0.33771 0.86725 0.0
C532 C 0.34787 0.35508 0.8629 0.0
C533 C 0.34744 0.36578 0.84151 0.0
C534 C 0.33232 0.35938 0.82451 0.0
C535 C 0.31761 0.34221 0.82878 0.0
C536 C 0.318 0.3314 0.85002 0.0
C537 C 0.28912 0.28822 0.99349 0.0
C538 C 0.27277 0.2753 0.98158 0.0
C539 C 0.3037 0.29962 0.97679 0.0
C540 C 0.30226 0.29812 0.94792 0.0
C541 C 0.28556 0.28615 0.93604 0.0
C542 C 0.27094 0.27484 0.95271 0.0
C543 C 0.31851 0.30734 0.93021 0.0
C544 C 0.31882 0.31818 0.90828 0.0
C545 C 0.33336 0.30469 0.93418 0.0
C546 C 0.33344 0.29245 0.95569 0.0
C547 C 0.32019 0.27416 0.95584 0.0
C548 C 0.32027 0.26273 0.97631 0.0
C549 C 0.33365 0.26943 -0.00343 0.0
C550 C 0.347 0.28754 -0.00364 0.0
C551 C 0.34696 0.29903 0.97596 0.0
H552 H 0.33369 0.26056 0.0124 0.0
H553 H 0.332 0.36772 0.80804 0.0
H554 H 0.63826 0.04878 0.86631 0.0
H555 H 0.64504 0.03097 0.89853 0.0
H556 H 0.68403 0.03201 0.84138 0.0
H557 H 0.67706 0.04941 0.80878 0.0
H558 H 0.64959 -0.00301 0.89366 0.0
H559 H 0.72262 0.05233 0.88323 0.0
H560 H 0.7405 0.08418 0.86932 0.0
H561 H 0.6983 0.09344 0.89716 0.0
H562 H 0.68034 0.06176 0.91167 0.0
H563 H 0.72046 0.98426 0.95491 0.0
H564 H 0.69968 0.98851 0.92536 0.0
H565 H 0.69382 0.02035 0.98882 0.0
H566 H 0.71425 0.01591 0.01869 0.0
H567 H 0.70915 0.0378 0.93556 0.0
H568 H 0.65726 0.98619 0.97479 0.0
H569 H 0.63852 0.95443 0.98861 0.0
H570 H 0.63828 0.93772 0.9051 0.0
H571 H 0.65696 0.96939 0.89075 0.0
C572 C 0.64787 0.04473 0.86026 0.0
C573 C 0.65727 0.05064 0.83517 0.0
C574 C 0.65164 0.03448 0.8786 0.0
C575 C 0.6651 0.03033 0.87232 0.0
C576 C 0.67357 0.03508 0.84649 0.0
C577 C 0.66958 0.04504 0.82793 0.0
C578 C 0.67237 0.02379 0.89421 0.0
C579 C 0.6626 0.00582 0.90281 0.0
C580 C 0.68925 0.03548 0.90634 0.0
C581 C 0.70006 0.05464 0.89818 0.0
C582 C 0.71719 0.06119 0.88645 0.0
C583 C 0.72734 0.07921 0.87847 0.0
C584 C 0.72051 0.09081 0.88225 0.0
C585 C 0.70355 0.08443 0.89413 0.0
C586 C 0.69337 0.06644 0.90219 0.0
C587 C 0.71434 0.99174 0.96287 0.0
C588 C 0.71914 -7e-05 0.989 0.0
C589 C 0.70241 0.99406 0.94602 0.0
C590 C 0.69527 0.00473 0.95497 0.0
C591 C 0.69915 0.01198 0.98167 0.0
C592 C 0.71084 0.00945 -0.00133 0.0
C593 C 0.68644 0.01087 0.93501 0.0
C594 C 0.69608 0.02886 0.92653 0.0
C595 C 0.66948 -0.00083 0.92311 0.0
C596 C 0.6586 0.98014 0.93174 0.0
C597 C 0.65332 0.97573 0.95941 0.0
C598 C 0.64263 0.95776 0.96731 0.0
C599 C 0.63719 0.94408 0.94771 0.0
C600 C 0.64242 0.94834 0.9202 0.0
C601 C 0.65301 0.9663 0.91216 0.0
H602 H 0.62894 0.93018 0.95384 0.0
H603 H 0.72839 0.10475 0.87606 0.0
H604 H 0.01153 0.73991 0.95421 0.0
H605 H 0.00843 0.71707 0.92111 0.0
H606 H 0.9798 0.67571 0.98185 0.0
H607 H 0.98317 0.69852 0.01527 0.0
H608 H 0.00049 0.66741 0.94872 0.0
H609 H 0.95692 0.68711 0.93757 0.0
H610 H 0.94746 0.70963 0.93055 0.0
H611 H 0.97613 0.72533 0.85367 0.0
H612 H 0.98595 0.70304 0.86045 0.0
H613 H 0.93524 0.59224 0.87478 0.0
H614 H 0.95487 0.61753 0.90415 0.0
H615 H 0.97682 0.65129 0.83234 0.0
H616 H 0.95682 0.62604 0.80276 0.0
H617 H 0.96452 0.6657 0.86742 0.0
H618 H 0.00653 0.64429 0.87701 0.0
H619 H 0.01522 0.62118 0.88413 0.0
H620 H 0.98832 0.60762 0.96252 0.0
H621 H 0.9797 0.63083 0.956 0.0
C622 C 0.0049 0.72599 0.96072 0.0
C623 C -0.00267 0.72097 0.98721 0.0
C624 C 0.00315 0.71296 0.94178 0.0
C625 C 0.99357 0.69467 0.94886 0.0
C626 C 0.98719 0.68975 0.97593 0.0
C627 C 0.98906 0.7028 0.99498 0.0
C628 C 0.98832 0.68063 0.92736 0.0
C629 C 0.99267 0.66702 0.9309 0.0
C630 C 0.97834 0.68028 0.90386 0.0
C631 C 0.97234 0.69358 0.89967 0.0
C632 C 0.96131 0.69546 0.91927 0.0
C633 C 0.95587 0.70816 0.91533 0.0
C634 C 0.96124 0.71894 0.89172 0.0
C635 C 0.97201 0.717 0.87198 0.0
C636 C 0.97752 0.70433 0.87585 0.0
C637 C 0.94455 0.60492 0.86514 0.0
C638 C 0.94433 0.60718 0.83645 0.0
C639 C 0.95592 0.61937 0.882 0.0
C640 C 0.96745 0.63634 0.87049 0.0
C641 C 0.96806 0.63833 0.84168 0.0
C642 C 0.95662 0.62388 0.8248 0.0
C643 C 0.97665 0.65236 0.88867 0.0
C644 C 0.97285 0.6663 0.8847 0.0
C645 C 0.98707 0.65296 0.91171 0.0
C646 C 0.99241 0.6392 0.91595 0.0
C647 C 0.00245 0.63634 0.89573 0.0
C648 C 0.0074 0.62327 0.89969 0.0
C649 C 0.00224 0.61287 0.9237 0.0
C650 C 0.99224 0.61563 0.94389 0.0
C651 C 0.98744 0.62883 0.94018 0.0
H652 H 0.00607 0.60275 0.92672 0.0
H653 H 0.95701 0.72877 0.8887 0.0
H654 H 0.3454 0.40194 0.61132 0.0
H655 H 0.33974 0.37749 0.57977 0.0
H656 H 0.31635 0.33934 0.64631 0.0
H657 H 0.32226 0.36378 0.67816 0.0
H658 H 0.33465 0.3296 0.60937 0.0
H659 H 0.2898 0.34803 0.60685 0.0
H660 H 0.27936 0.36992 0.60173 0.0
H661 H 0.30113 0.38238 0.51972 0.0
H662 H 0.31192 0.36073 0.52453 0.0
H663 H 0.26561 0.25123 0.54314 0.0
H664 H 0.2859 0.2772 0.57114 0.0
H665 H 0.30437 0.31006 0.49793 0.0
H666 H 0.284 0.28418 0.46981 0.0
H667 H 0.29221 0.32401 0.53531 0.0
H668 H 0.33326 0.302 0.53568 0.0
H669 H 0.34354 0.28003 0.54124 0.0
H670 H 0.32866 0.27368 0.6268 0.0
H671 H 0.31806 0.29545 0.62169 0.0
C672 C 0.33943 0.3884 0.61941 0.0
C673 C 0.33402 0.38475 0.64715 0.0
C674 C 0.3362 0.37444 0.60133 0.0
C675 C 0.32731 0.35657 0.61059 0.0
C676 C 0.32318 0.35303 0.63872 0.0
C677 C 0.32651 0.36702 0.65688 0.0
C678 C 0.32037 0.34152 0.59055 0.0
C679 C 0.32531 0.32828 0.59322 0.0
C680 C 0.30846 0.34002 0.56916 0.0
C681 C 0.30185 0.35293 0.56617 0.0
C682 C 0.29247 0.35554 0.58781 0.0
C683 C 0.28648 0.36789 0.58495 0.0
C684 C 0.28963 0.37758 0.56045 0.0
C685 C 0.29873 0.37489 0.53871 0.0
C686 C 0.30479 0.36258 0.54148 0.0
C687 C 0.27429 0.26388 0.53291 0.0
C688 C 0.27305 0.26569 0.50428 0.0
C689 C 0.28597 0.27871 0.54895 0.0
C690 C 0.29668 0.29559 0.53664 0.0
C691 C 0.29622 0.29717 0.50786 0.0
C692 C 0.28457 0.28235 0.49182 0.0
C693 C 0.3064 0.31192 0.55403 0.0
C694 C 0.30183 0.3254 0.55104 0.0
C695 C 0.31856 0.31352 0.5751 0.0
C696 C 0.32472 0.30026 0.57823 0.0
C697 C 0.33201 0.29579 0.55562 0.0
C698 C 0.33794 0.2834 0.55871 0.0
C699 C 0.33672 0.27543 0.58434 0.0
C700 C 0.32958 0.27985 0.60695 0.0
C701 C 0.32364 0.29224 0.60398 0.0
H702 H 0.34133 0.26586 0.5867 0.0
H703 H 0.28497 0.38713 0.55827 0.0
H704 H 0.58621 0.93608 0.60924 0.0
H705 H 0.61047 0.95469 0.57716 0.0
H706 H 0.64941 0.96801 0.6423 0.0
H707 H 0.62521 0.94984 0.67462 0.0
H708 H 0.66001 0.99607 0.60766 0.0
H709 H 0.6382 0.93227 0.59985 0.0
H710 H 0.61508 0.90054 0.59265 0.0
H711 H 0.60347 0.91344 0.51244 0.0
H712 H 0.62638 0.94532 0.51935 0.0
H713 H 0.73681 0.00178 0.54351 0.0
H714 H 0.71057 -0.00332 0.57018 0.0
H715 H 0.68007 0.98689 0.49505 0.0
H716 H 0.70626 0.99171 0.46817 0.0
H717 H 0.66326 0.96 0.53027 0.0
H718 H 0.69003 0.02372 0.53621 0.0
H719 H 0.7145 0.05476 0.54438 0.0
H720 H 0.71831 0.04174 0.6287 0.0
H721 H 0.69397 0.01056 0.62099 0.0
C722 C 0.5999 0.94329 0.61687 0.0
C723 C 0.60383 0.94128 0.64435 0.0
C724 C 0.61376 0.9539 0.59851 0.0
C725 C 0.63178 0.96243 0.6072 0.0
C726 C 0.63561 0.96151 0.63511 0.0
C727 C 0.62175 0.95105 0.65354 0.0
C728 C 0.6467 0.9705 0.58686 0.0
C729 C 0.66076 0.98822 0.59072 0.0
C730 C 0.64753 0.96035 0.56448 0.0
C731 C 0.63382 0.94119 0.56025 0.0
C732 C 0.63062 0.92835 0.58077 0.0
C733 C 0.61757 0.91034 0.57673 0.0
C734 C 0.60777 0.90498 0.55214 0.0
C735 C 0.61104 0.91762 0.5315 0.0
C736 C 0.62405 0.93565 0.53546 0.0
C737 C 0.72464 -0.0011 0.53259 0.0
C738 C 0.72356 -0.00301 0.50373 0.0
C739 C 0.70966 0.99611 0.54788 0.0
C740 C 0.69336 0.99151 0.53462 0.0
C741 C 0.69252 0.99047 0.5057 0.0
C742 C 0.70751 0.99324 0.49037 0.0
C743 C 0.67675 0.98557 0.55112 0.0
C744 C 0.66237 0.96811 0.54669 0.0
C745 C 0.67578 0.99593 0.57307 0.0
C746 C 0.69024 0.01475 0.57795 0.0
C747 C 0.69615 0.02744 0.55646 0.0
C748 C 0.71 0.04506 0.56101 0.0
C749 C 0.71804 0.05018 0.58699 0.0
C750 C 0.71213 0.03773 0.60855 0.0
C751 C 0.69826 0.02009 0.60412 0.0
H752 H 0.72874 0.06384 0.59048 0.0
H753 H 0.59768 0.89103 0.54905 0.0
H754 H -0.00126 0.70213 0.47965 0.0
H755 H 0.00375 0.68238 0.50992 0.0
H756 H 0.97782 0.6939 0.57676 0.0
H757 H 0.97325 0.71413 0.54674 0.0
H758 H 0.00977 0.70117 0.59137 0.0
H759 H 0.96014 0.6497 0.55033 0.0
H760 H 0.94123 0.63043 0.51236 0.0
H761 H 0.98552 0.6254 0.48195 0.0
H762 H 0.00478 0.64486 0.51954 0.0
H763 H 0.03577 0.6559 0.68294 0.0
H764 H 0.01395 0.65942 0.65518 0.0
H765 H 0.03971 0.65605 0.58081 0.0
H766 H 0.06136 0.65215 0.60841 0.0
H767 H 0.003 0.64121 0.57368 0.0
H768 H 0.05327 0.69617 0.60915 0.0
H769 H 0.07309 0.7162 0.64581 0.0
H770 H 0.02778 0.71535 0.68503 0.0
H771 H 0.00766 0.6951 0.64875 0.0
C772 C 0.99371 0.70013 0.5006 0.0
C773 C 0.98583 0.70988 0.51094 0.0
C774 C -0.00355 0.68868 0.51787 0.0
C775 C 0.99111 0.68657 0.54565 0.0
C776 C 0.98208 0.69533 0.55542 0.0
C777 C 0.97949 0.70691 0.53825 0.0
C778 C -0.00253 0.67769 0.56531 0.0
C779 C 0.0078 0.68782 0.58788 0.0
C780 C 0.99543 0.66052 0.56035 0.0
C781 C 0.98392 0.64882 0.53768 0.0
C782 C 0.96588 0.64459 0.53543 0.0
C783 C 0.95509 0.63361 0.51399 0.0
C784 C 0.96217 0.62671 0.49472 0.0
C785 C 0.98006 0.63079 0.49685 0.0
C786 C 0.99092 0.64177 0.51825 0.0
C787 C 0.03654 0.65548 0.66068 0.0
C788 C 0.05048 0.65408 0.64785 0.0
C789 C 0.02404 0.65746 0.64484 0.0
C790 C 0.02543 0.65833 0.61596 0.0
C791 C 0.03842 0.65545 0.60307 0.0
C792 C 0.05085 0.65333 0.61889 0.0
C793 C 0.01521 0.66476 0.59948 0.0
C794 C 0.00442 0.6543 0.57747 0.0
C795 C 0.01686 0.68172 0.60475 0.0
C796 C 0.02895 0.69396 0.62646 0.0
C797 C 0.04753 0.70015 0.62571 0.0
C798 C 0.05881 0.71156 0.64639 0.0
C799 C 0.05169 0.717 0.66779 0.0
C800 C 0.03327 0.71109 0.66848 0.0
C801 C 0.02192 0.69965 0.64787 0.0
H802 H 0.06045 0.72583 0.68378 0.0
H803 H 0.9538 0.6182 0.47815 0.0
H804 H 0.6229 0.67329 0.18924 0.0
H805 H 0.64892 0.67906 0.16113 0.0
H806 H 0.61688 0.66768 0.08739 0.0
H807 H 0.59072 0.66159 0.11533 0.0
H808 H 0.64162 0.65632 0.08266 0.0
H809 H 0.64063 0.71002 0.11042 0.0
H810 H 0.63938 0.73083 0.14421 0.0
H811 H 0.68759 0.73798 0.18278 0.0
H812 H 0.68898 0.71699 0.14942 0.0
H813 H 0.70198 0.71516 0.98081 0.0
H814 H 0.6783 0.69621 0.01337 0.0
H815 H 0.71742 0.71366 0.07905 0.0
H816 H 0.74114 0.73284 0.04667 0.0
H817 H 0.69096 0.7195 0.09173 0.0
H818 H 0.69462 0.66947 0.05813 0.0
H819 H 0.69564 0.64881 0.02383 0.0
H820 H 0.64287 0.63493 0.99527 0.0
H821 H 0.64161 0.65569 0.02914 0.0
C822 C 0.62128 0.67163 0.16708 0.0
C823 C 0.60483 0.66726 0.15446 0.0
C824 C 0.63617 0.67494 0.15105 0.0
C825 C 0.6349 0.67411 0.12215 0.0
C826 C 0.61816 0.66844 0.10965 0.0
C827 C 0.60324 0.66505 0.12566 0.0
C828 C 0.65131 0.68117 0.10486 0.0
C829 C 0.65242 0.67013 0.08451 0.0
C830 C 0.66555 0.69909 0.10771 0.0
C831 C 0.66479 0.71178 0.12766 0.0
C832 C 0.65089 0.71593 0.12624 0.0
C833 C 0.65016 0.72777 0.14529 0.0
C834 C 0.66337 0.73568 0.16568 0.0
C835 C 0.67735 0.73181 0.16701 0.0
C836 C 0.67812 0.71995 0.14804 0.0
C837 C 0.70562 0.71465 0.00205 0.0
C838 C 0.7234 0.72566 0.01123 0.0
C839 C 0.69207 0.70371 0.02063 0.0
C840 C 0.69608 0.70348 0.04868 0.0
C841 C 0.71402 0.71364 0.05752 0.0
C842 C 0.72756 0.7246 0.03898 0.0
C843 C 0.68134 0.69472 0.0692 0.0
C844 C 0.68043 0.70554 0.09012 0.0
C845 C 0.66733 0.67665 0.0667 0.0
C846 C 0.66808 0.66426 0.04607 0.0
C847 C 0.68329 0.66214 0.04437 0.0
C848 C 0.6839 0.65038 0.02504 0.0
C849 C 0.66934 0.64059 0.00735 0.0
C850 C 0.65414 0.64253 0.00898 0.0
C851 C 0.65346 0.65427 0.02827 0.0
H852 H 0.66983 0.63147 0.99242 0.0
H853 H 0.66279 0.74485 0.18041 0.0
H854 H 0.33875 0.93612 0.11182 0.0
H855 H 0.33214 0.9561 0.08464 0.0
H856 H 0.3145 0.97103 0.15824 0.0
H857 H 0.32095 0.951 0.18554 0.0
H858 H 0.2891 0.95813 0.11914 0.0
H859 H 0.35125 0.00042 0.12426 0.0
H860 H 0.38396 0.0129 0.12038 0.0
H861 H 0.37904 0.00501 0.03269 0.0
H862 H 0.3462 0.99207 0.03602 0.0
H863 H 0.26092 0.00894 0.0443 0.0
H864 H 0.28059 0.00483 0.07626 0.0
H865 H 0.29844 0.98396 0.01008 0.0
H866 H 0.2789 0.98818 0.97784 0.0
H867 H 0.32585 0.00409 0.04911 0.0
H868 H 0.26398 0.95538 0.04641 0.0
H869 H 0.23107 0.94231 0.04931 0.0
H870 H 0.23621 0.96189 0.13223 0.0
H871 H 0.26921 0.97531 0.12966 0.0
C872 C 0.33384 0.94396 0.12233 0.0
C873 C 0.33017 0.94183 0.15078 0.0
C874 C 0.33016 0.95545 0.10677 0.0
C875 C 0.32283 0.96505 0.11943 0.0
C876 C 0.32015 0.96373 0.14808 0.0
C877 C 0.32385 0.95228 0.16365 0.0
C878 C 0.31574 0.97445 0.10237 0.0
C879 C 0.29728 0.96849 0.1043 0.0
C880 C 0.32633 0.98763 0.08248 0.0
C881 C 0.34612 0.9951 0.08044 0.0
C882 C 0.35705 0.00106 0.10416 0.0
C883 C 0.37566 0.00827 0.10206 0.0
C884 C 0.38357 0.00971 0.07631 0.0
C885 C 0.37289 0.00389 0.05262 0.0
C886 C 0.35426 -0.00338 0.05461 0.0
C887 C 0.26932 0.00385 0.03638 0.0
C888 C 0.26813 -0.00141 0.00864 0.0
C889 C 0.28059 0.00156 0.05468 0.0
C890 C 0.29075 0.99385 0.04559 0.0
C891 C 0.29069 0.98993 0.01748 0.0
C892 C 0.27944 0.99226 -0.00088 0.0
C893 C 0.29932 0.98754 0.06584 0.0
C894 C 0.3179 0.99398 0.06438 0.0
C895 C 0.2889 0.97466 0.0861 0.0
C896 C 0.26907 0.96654 0.08772 0.0
C897 C 0.2581 0.95703 0.06518 0.0
C898 C 0.23943 0.94954 0.06677 0.0
C899 C 0.23156 0.95131 0.09091 0.0
C900 C 0.24234 0.96055 0.11352 0.0
C901 C 0.26102 0.9681 0.11201 0.0
H902 H 0.2171 0.94549 0.09211 0.0
H903 H 0.39799 0.01537 0.07472 0.0
H904 H 0.05892 0.41011 0.12795 0.0
H905 H 0.03915 0.38613 0.09642 0.0
H906 H 0.02719 0.34694 0.16061 0.0
H907 H 0.04663 0.3709 0.19242 0.0
H908 H 0.04654 0.36147 0.0801 0.0
H909 H 0.98831 0.30884 0.14789 0.0
H910 H 0.96849 0.30781 0.18558 0.0
H911 H 0.97578 0.35891 0.16018 0.0
H912 H 0.99559 0.36022 0.12231 0.0
H913 H 0.99264 0.26182 0.05064 0.0
H914 H -0.00197 0.2863 0.08201 0.0
H915 H 0.00435 0.32027 0.01243 0.0
H916 H -0.00065 0.29599 0.98091 0.0
H917 H 0.98518 0.30937 0.09355 0.0
H918 H 0.04162 0.3605 0.02309 0.0
H919 H 0.06176 0.36115 0.98618 0.0
H920 H 0.05891 0.31336 0.01898 0.0
H921 H 0.03897 0.31258 0.05627 0.0
C922 C 0.05173 0.39643 0.13556 0.0
C923 C 0.05447 0.39236 0.16258 0.0
C924 C 0.04043 0.38274 0.11751 0.0
C925 C 0.03168 0.36473 0.12611 0.0
C926 C 0.03357 0.36074 0.15359 0.0
C927 C 0.04478 0.37446 0.17173 0.0
C928 C 0.02275 0.35009 0.10551 0.0
C929 C 0.03294 0.35033 0.08273 0.0
C930 C 0.00524 0.33524 0.1094 0.0
C931 C 0.99355 0.33468 0.13238 0.0
C932 C 0.9857 0.31987 0.15037 0.0
C933 C 0.97449 0.31925 0.17179 0.0
C934 C 0.97092 0.33331 0.17531 0.0
C935 C 0.97862 0.34806 0.1575 0.0
C936 C 0.98991 0.34879 0.13614 0.0
C937 C 0.99481 0.27438 0.042 0.0
C938 C -0.00409 0.2771 0.01329 0.0
C939 C -0.00222 0.28832 0.05998 0.0
C940 C 0.00189 0.30518 0.04954 0.0
C941 C 0.00145 0.30742 0.0209 0.0
C942 C -0.00139 0.29354 0.00291 0.0
C943 C 0.00901 0.32092 0.06824 0.0
C944 C -0.00139 0.32077 0.09073 0.0
C945 C 0.02643 0.33589 0.06432 0.0
C946 C 0.03863 0.33637 0.04222 0.0
C947 C 0.04534 0.35017 0.02244 0.0
C948 C 0.05672 0.35055 0.00146 0.0
C949 C 0.06155 0.33726 0.00017 0.0
C950 C 0.05509 0.3236 0.01993 0.0
C951 C 0.04374 0.32317 0.04098 0.0
H952 H 0.07034 0.33758 0.98389 0.0
H953 H 0.96215 0.33275 0.1918 0.0
H954 H 0.6527 0.58341 0.3762 0.0
H955 H 0.65633 0.60826 0.40495 0.0
H956 H 0.6656 0.64081 0.33234 0.0
H957 H 0.66238 0.61604 0.30338 0.0
H958 H 0.69189 0.65739 0.36773 0.0
H959 H 0.62786 0.62853 0.37481 0.0
H960 H 0.59716 0.60312 0.38217 0.0
H961 H 0.61125 0.59651 0.4646 0.0
H962 H 0.64206 0.62184 0.4577 0.0
H963 H 0.71283 0.73124 0.45119 0.0
H964 H 0.69408 0.70725 0.41891 0.0
H965 H 0.68434 0.66766 0.48142 0.0
H966 H 0.7027 0.69162 0.51408 0.0
H967 H 0.65511 0.65637 0.44745 0.0
H968 H 0.71947 0.68127 0.43797 0.0
H969 H 0.75073 0.70574 0.43121 0.0
H970 H 0.73625 0.71849 0.35309 0.0
H971 H 0.70483 0.69423 0.3596 0.0
C972 C 0.65513 0.59572 0.36626 0.0
C973 C 0.65744 0.59783 0.33753 0.0
C974 C 0.65706 0.6099 0.38275 0.0
C975 C 0.66112 0.6264 0.37083 0.0
C976 C 0.66243 0.62819 0.34199 0.0
C977 C 0.66059 0.61402 0.32547 0.0
C978 C 0.66644 0.64235 0.38863 0.0
C979 C 0.6836 0.65734 0.38467 0.0
C980 C 0.65588 0.64211 0.41126 0.0
C981 C 0.6373 0.62702 0.41566 0.0
C982 C 0.62444 0.6216 0.39445 0.0
C983 C 0.60701 0.60723 0.39856 0.0
C984 C 0.60229 0.59816 0.42379 0.0
C985 C 0.61495 0.60351 0.44503 0.0
C986 C 0.63238 0.61793 0.44108 0.0
C987 C 0.70634 0.71744 0.45828 0.0
C988 C 0.70948 0.71328 0.48502 0.0
C989 C 0.69563 0.70375 0.43981 0.0
C990 C 0.68815 0.68567 0.44759 0.0
C991 C 0.69004 0.68152 0.47496 0.0
C992 C 0.7006 0.69523 0.49357 0.0
C993 C 0.68054 0.67123 0.42649 0.0
C994 C 0.66311 0.65654 0.43 0.0
C995 C 0.69088 0.67161 0.40345 0.0
C996 C 0.70978 0.6861 0.39942 0.0
C997 C 0.72294 0.68938 0.41945 0.0
C998 C 0.74068 0.7032 0.41565 0.0
C999 C 0.74546 0.7137 0.39177 0.0
C1000 C 0.73252 0.71037 0.3716 0.0
C1001 C 0.71474 0.69659 0.37533 0.0
H1002 H 0.75921 0.72439 0.38887 0.0
H1003 H 0.58879 0.58704 0.42693 0.0
H1004 H 0.2561 0.97265 0.45272 0.0
H1005 H 0.28273 0.9774 0.42722 0.0
H1006 H 0.31488 -0.00177 0.5008 0.0
H1007 H 0.28834 0.99347 0.52646 0.0
H1008 H 0.32621 0.02236 0.4593 0.0
H1009 H 0.31223 0.96245 0.47142 0.0
H1010 H 0.29527 0.92937 0.47173 0.0
H1011 H 0.28917 0.92874 0.38379 0.0
H1012 H 0.30558 0.96187 0.38298 0.0
H1013 H 0.40505 0.05238 0.38375 0.0
H1014 H 0.38243 0.03213 0.41667 0.0
H1015 H 0.34259 0.01142 0.35203 0.0
H1016 H 0.36518 0.03159 0.31882 0.0
H1017 H 0.33797 0.98509 0.39368 0.0
H1018 H 0.3466 0.04545 0.38527 0.0
H1019 H 0.36511 0.07852 0.38535 0.0
H1020 H 0.38201 0.07732 0.46834 0.0
H1021 H 0.36378 0.0442 0.46857 0.0
C1022 C 0.26874 0.97777 0.46367 0.0
C1023 C 0.27018 0.98296 0.49149 0.0
C1024 C 0.28393 0.98035 0.4491 0.0
C1025 C 0.3008 0.9882 0.4621 0.0
C1026 C 0.30198 0.99212 0.49039 0.0
C1027 C 0.28679 0.98944 0.505 0.0
C1028 C 0.31741 0.99541 0.44524 0.0
C1029 C 0.32897 0.01409 0.44548 0.0
C1030 C 0.32081 0.98468 0.42673 0.0
C1031 C 0.31 0.96473 0.4272 0.0
C1032 C 0.30699 0.9553 0.45218 0.0
C1033 C 0.29754 0.93651 0.45243 0.0
C1034 C 0.29117 0.92695 0.42779 0.0
C1035 C 0.29409 0.93617 0.40287 0.0
C1036 C 0.30344 0.95496 0.40251 0.0
C1037 C 0.3916 0.04319 0.37634 0.0
C1038 C 0.38681 0.04381 0.34878 0.0
C1039 C 0.37871 0.03159 0.39518 0.0
C1040 C 0.36081 0.02048 0.38682 0.0
C1041 C 0.35635 0.0199 0.35885 0.0
C1042 C 0.36925 0.03151 0.33995 0.0
C1043 C 0.34635 0.01189 0.40769 0.0
C1044 C 0.33522 0.99313 0.40797 0.0
C1045 C 0.34323 0.02245 0.42683 0.0
C1046 C 0.35402 0.04236 0.42682 0.0
C1047 C 0.35437 0.05224 0.40345 0.0
C1048 C 0.3648 0.07098 0.40345 0.0
C1049 C 0.37477 0.08001 0.42681 0.0
C1050 C 0.3743 0.07031 0.45025 0.0
C1051 C 0.36393 0.05155 0.45033 0.0
H1052 H 0.38284 0.09453 0.42677 0.0
H1053 H 0.28403 0.91241 0.42801 0.0
H1054 H 0.95289 0.31948 0.30388 0.0
H1055 H 0.97137 0.31306 0.33517 0.0
H1056 H 0.96398 0.34358 0.39929 0.0
H1057 H 0.94524 0.34976 0.36838 0.0
H1058 H 0.00157 0.33059 0.3696 0.0
H1059 H 0.95114 0.31809 0.45689 0.0
H1060 H 0.91973 0.3112 0.46279 0.0
H1061 H 0.90597 0.28525 0.38367 0.0
H1062 H 0.9372 0.29175 0.37752 0.0
H1063 H -0.00415 0.28735 0.51597 0.0
H1064 H 0.99145 0.30695 0.48435 0.0
H1065 H 8e-05 0.28067 0.41503 0.0
H1066 H 0.00473 0.26114 0.44657 0.0
H1067 H 0.96422 0.29462 0.44872 0.0
H1068 H 0.01492 0.30947 0.3595 0.0
H1069 H 0.04574 0.31478 0.35335 0.0
H1070 H 0.05887 0.3344 0.43642 0.0
H1071 H 0.02824 0.32948 0.44296 0.0
C1072 C 0.95559 0.32522 0.32441 0.0
C1073 C 0.94733 0.33483 0.33386 0.0
C1074 C 0.96622 0.3216 0.34223 0.0
C1075 C 0.96876 0.32757 0.36968 0.0
C1076 C 0.96197 0.33864 0.37828 0.0
C1077 C 0.95124 0.34214 0.36059 0.0
C1078 C 0.97603 0.32007 0.39023 0.0
C1079 C 0.99344 0.32267 0.38687 0.0
C1080 C 0.96546 0.30991 0.41292 0.0
C1081 C 0.94655 0.30561 0.41663 0.0
C1082 C 0.94138 0.31086 0.44082 0.0
C1083 C 0.92362 0.30703 0.44419 0.0
C1084 C 0.91088 0.29786 0.42357 0.0
C1085 C 0.91586 0.29241 0.39959 0.0
C1086 C 0.93359 0.29618 0.39614 0.0
C1087 C -0.00283 0.28597 0.49402 0.0
C1088 C 0.00049 0.27259 0.48375 0.0
C1089 C 0.99464 0.29718 0.47597 0.0
C1090 C 0.99545 0.2953 0.44734 0.0
C1091 C -0.00037 0.28254 0.43705 0.0
C1092 C 0.00219 0.27131 0.45511 0.0
C1093 C 0.98986 0.30516 0.42834 0.0
C1094 C 0.97259 0.30283 0.43182 0.0
C1095 C 0.00055 0.31541 0.40578 0.0
C1096 C 0.01919 0.3189 0.4018 0.0
C1097 C 0.0244 0.31499 0.37642 0.0
C1098 C 0.04183 0.31789 0.37289 0.0
C1099 C 0.05421 0.32477 0.39456 0.0
C1100 C 0.04923 0.32892 0.41974 0.0
C1101 C 0.03182 0.32606 0.42337 0.0
H1102 H 0.0677 0.32703 0.39176 0.0
H1103 H 0.89715 0.29493 0.42621 0.0
H1104 H 0.07748 0.684 0.20687 0.0
H1105 H 0.05463 0.68118 0.23972 0.0
H1106 H 0.01434 0.65925 0.17578 0.0
H1107 H 0.03716 0.66214 0.14265 0.0
H1108 H 0.00839 0.68051 0.2161 0.0
H1109 H 0.02058 0.63103 0.21068 0.0
H1110 H 0.04051 0.618 0.21163 0.0
H1111 H 0.05737 0.63814 0.29378 0.0
H1112 H 0.03773 0.65153 0.29312 0.0
H1113 H 0.92926 0.61001 0.27974 0.0
H1114 H 0.9549 0.63221 0.25283 0.0
H1115 H 0.98838 0.64699 0.32541 0.0
H1116 H 0.96285 0.6249 0.35247 0.0
H1117 H 0.0001 0.63408 0.2846 0.0
H1118 H 0.98366 0.67846 0.29427 0.0
H1119 H 0.96578 0.69369 0.29386 0.0
H1120 H 0.95786 0.68524 0.20651 0.0
H1121 H 0.97544 0.66967 0.20641 0.0
C1122 C 0.06387 0.67903 0.19958 0.0
C1123 C 0.05905 0.67296 0.17229 0.0
C1124 C 0.05084 0.67748 0.21838 0.0
C1125 C 0.03277 0.66976 0.21024 0.0
C1126 C 0.02822 0.66524 0.18244 0.0
C1127 C 0.04126 0.6668 0.16358 0.0
C1128 C 0.01839 0.66363 0.2313 0.0
C1129 C 0.00645 0.67033 0.2311 0.0
C1130 C 0.01623 0.65067 0.2512 0.0
C1131 C 0.02787 0.64246 0.25172 0.0
C1132 C 0.02865 0.63279 0.22886 0.0
C1133 C 0.03987 0.62533 0.22935 0.0
C1134 C 0.05024 0.62729 0.25272 0.0
C1135 C 0.04936 0.63667 0.27567 0.0
C1136 C 0.03819 0.6442 0.27525 0.0
C1137 C 0.94196 0.61833 0.29014 0.0
C1138 C 0.94412 0.61548 0.31812 0.0
C1139 C 0.95657 0.63114 0.27477 0.0
C1140 C 0.97356 0.64125 0.28711 0.0
C1141 C 0.97537 0.63936 0.31551 0.0
C1142 C 0.96077 0.62666 0.33091 0.0
C1143 C 0.98982 0.65085 0.26959 0.0
C1144 C 0.00211 0.64458 0.27017 0.0
C1145 C 0.99224 0.66425 0.25027 0.0
C1146 C 0.98072 0.67265 0.25041 0.0
C1147 C 0.97784 0.67953 0.27503 0.0
C1148 C 0.96782 0.68831 0.27488 0.0
C1149 C 0.96062 0.69036 0.2502 0.0
C1150 C 0.96338 0.68357 0.22564 0.0
C1151 C 0.97339 0.67478 0.22567 0.0
H1152 H 0.953 0.6973 0.25009 0.0
H1153 H 0.05892 0.62151 0.25307 0.0
H1154 H 0.38638 0.31089 0.28017 0.0
H1155 H 0.36787 0.31707 0.24875 0.0
H1156 H 0.35606 0.34344 0.31446 0.0
H1157 H 0.37437 0.33707 0.34621 0.0
H1158 H 0.32706 0.32517 0.27764 0.0
H1159 H 0.39101 0.36792 0.27497 0.0
H1160 H 0.42301 0.37677 0.27015 0.0
H1161 H 0.41284 0.35409 0.18872 0.0
H1162 H 0.3807 0.34487 0.19324 0.0
H1163 H 0.32132 0.3957 0.20993 0.0
H1164 H 0.32581 0.37478 0.23832 0.0
H1165 H 0.33943 0.35509 0.16565 0.0
H1166 H 0.33517 0.37614 0.13715 0.0
H1167 H 0.36518 0.3662 0.20318 0.0
H1168 H 0.30177 0.32743 0.20325 0.0
H1169 H 0.26979 0.31855 0.20832 0.0
H1170 H 0.27845 0.33374 0.29375 0.0
H1171 H 0.31055 0.34293 0.28913 0.0
C1172 C 0.3795 0.31763 0.28813 0.0
C1173 C 0.38208 0.32377 0.31555 0.0
C1174 C 0.36892 0.32113 0.27015 0.0
C1175 C 0.36088 0.331 0.27918 0.0
C1176 C 0.36219 0.33584 0.30709 0.0
C1177 C 0.37272 0.33225 0.32517 0.0
C1178 C 0.35332 0.33835 0.25891 0.0
C1179 C 0.33535 0.33421 0.26139 0.0
C1180 C 0.36409 0.34983 0.23742 0.0
C1181 C 0.38343 0.35553 0.23457 0.0
C1182 C 0.39558 0.36471 0.25612 0.0
C1183 C 0.41374 0.3698 0.25343 0.0
C1184 C 0.41994 0.36595 0.22918 0.0
C1185 C 0.408 0.35703 0.20752 0.0
C1186 C 0.38982 0.35187 0.21013 0.0
C1187 C 0.3249 0.38665 0.19991 0.0
C1188 C 0.3281 0.38772 0.17133 0.0
C1189 C 0.32734 0.3746 0.21616 0.0
C1190 C 0.33292 0.36333 0.20411 0.0
C1191 C 0.33512 0.36367 0.17537 0.0
C1192 C 0.33269 0.37571 0.15911 0.0
C1193 C 0.33883 0.35312 0.22177 0.0
C1194 C 0.35665 0.35688 0.21899 0.0
C1195 C 0.32789 0.34136 0.24292 0.0
C1196 C 0.30862 0.33602 0.24577 0.0
C1197 C 0.2969 0.32905 0.22306 0.0
C1198 C 0.27874 0.32391 0.22587 0.0
C1199 C 0.2721 0.32562 0.25133 0.0
C1200 C 0.28361 0.33244 0.27404 0.0
C1201 C 0.30179 0.33759 0.27135 0.0
H1202 H 0.25803 0.32163 0.25346 0.0
H1203 H 0.43401 0.3699 0.22713 0.0
H1204 H 0.60277 0.92437 0.20987 0.0
H1205 H 0.62159 0.94735 0.24347 0.0
H1206 H 0.64037 0.98771 0.17967 0.0
H1207 H 0.62179 0.96477 0.14583 0.0
H1208 H 0.6669 0.9947 0.21866 0.0
H1209 H 0.60435 0.9796 0.21622 0.0
H1210 H 0.57159 0.95883 0.21863 0.0
H1211 H 0.57717 0.94347 0.30074 0.0
H1212 H 0.61003 0.96398 0.29862 0.0
H1213 H 0.67663 0.07357 0.28172 0.0
H1214 H 0.67141 0.0473 0.25506 0.0
H1215 H 0.6536 0.0148 0.32869 0.0
H1216 H 0.65864 0.04102 0.35551 0.0
H1217 H 0.62881 0.00133 0.28938 0.0
H1218 H 0.69113 0.02104 0.29461 0.0
H1219 H 0.72379 0.04196 0.29182 0.0
H1220 H 0.71915 0.04926 0.20519 0.0
H1221 H 0.68638 0.02855 0.20751 0.0
C1222 C 0.61123 0.93806 0.20283 0.0
C1223 C 0.61057 0.94282 0.17529 0.0
C1224 C 0.62198 0.95117 0.22207 0.0
C1225 C 0.63211 0.96927 0.21414 0.0
C1226 C 0.63262 0.97382 0.18623 0.0
C1227 C 0.62192 0.9607 0.16693 0.0
C1228 C 0.64017 0.98365 0.23523 0.0
C1229 C 0.65864 0.99623 0.23413 0.0
C1230 C 0.6294 0.98537 0.25577 0.0
C1231 C 0.60965 0.97314 0.25714 0.0
C1232 C 0.5986 0.97169 0.2347 0.0
C1233 C 0.58002 0.95998 0.23602 0.0
C1234 C 0.57231 0.9498 0.25979 0.0
C1235 C 0.58317 0.95134 0.28232 0.0
C1236 C 0.60177 0.963 0.28107 0.0
C1237 C 0.67201 0.06093 0.29239 0.0
C1238 C 0.66784 0.05933 0.32066 0.0
C1239 C 0.66915 0.04593 0.27713 0.0
C1240 C 0.66214 0.02907 0.28988 0.0
C1241 C 0.65902 0.02768 0.31844 0.0
C1242 C 0.66191 0.04269 0.33373 0.0
C1243 C 0.65562 0.01264 0.2728 0.0
C1244 C 0.6373 -0.00033 0.27445 0.0
C1245 C 0.66656 0.01069 0.2528 0.0
C1246 C 0.68625 0.02333 0.2513 0.0
C1247 C 0.69703 0.02723 0.27501 0.0
C1248 C 0.71558 0.03903 0.27349 0.0
C1249 C 0.72354 0.04698 0.24835 0.0
C1250 C 0.71296 0.04311 0.22466 0.0
C1251 C 0.6944 0.03132 0.22606 0.0
H1252 H 0.73791 0.05611 0.2472 0.0
H1253 H 0.55792 0.94074 0.26078 0.0
H1254 H 0.31741 0.92587 0.70432 0.0
H1255 H 0.32243 0.95174 0.73196 0.0
H1256 H 0.34065 0.98535 0.6595 0.0
H1257 H 0.33577 0.95954 0.63171 0.0
H1258 H 0.36497 -0.00147 0.70021 0.0
H1259 H 0.30256 0.97817 0.69177 0.0
H1260 H 0.27011 0.95603 0.69239 0.0
H1261 H 0.27316 0.94678 0.77875 0.0
H1262 H 0.30567 0.96874 0.77862 0.0
H1263 H 0.38828 0.07393 0.78181 0.0
H1264 H 0.37021 0.05146 0.74709 0.0
H1265 H 0.35043 0.01008 0.80936 0.0
H1266 H 0.36824 0.0325 0.84431 0.0
H1267 H 0.32472 0.00327 0.76904 0.0
H1268 H 0.38747 0.01929 0.77476 0.0
H1269 H 0.42019 0.04047 0.77426 0.0
H1270 H 0.41626 0.05701 0.69218 0.0
H1271 H 0.38345 0.03608 0.69238 0.0
C1272 C 0.32213 0.93868 0.69415 0.0
C1273 C 0.32636 0.9407 0.66589 0.0
C1274 C 0.32488 0.95344 0.70995 0.0
C1275 C 0.33186 0.97047 0.69777 0.0
C1276 C 0.33523 0.97232 0.66929 0.0
C1277 C 0.33242 0.95755 0.65345 0.0
C1278 C 0.33777 0.98659 0.71536 0.0
C1279 C 0.35604 -0.00021 0.71473 0.0
C1280 C 0.32622 0.98802 0.73476 0.0
C1281 C 0.3066 0.97501 0.73512 0.0
C1282 C 0.29634 0.97134 0.71087 0.0
C1283 C 0.27792 0.95883 0.71113 0.0
C1284 C 0.26959 0.94994 0.73555 0.0
C1285 C 0.27963 0.95365 0.75983 0.0
C1286 C 0.29805 0.96616 0.75969 0.0
C1287 C 0.37974 0.06012 0.78827 0.0
C1288 C 0.37993 0.05492 0.81571 0.0
C1289 C 0.36941 0.0473 0.76839 0.0
C1290 C 0.35926 0.02907 0.77558 0.0
C1291 C 0.35821 0.02407 0.80337 0.0
C1292 C 0.36847 0.0369 0.8233 0.0
C1293 C 0.35188 0.01502 0.75391 0.0
C1294 C 0.33347 0.00218 0.75397 0.0
C1295 C 0.36328 0.01383 0.73393 0.0
C1296 C 0.383 0.0263 0.73371 0.0
C1297 C 0.39358 0.02754 0.75669 0.0
C1298 C 0.41213 0.03949 0.75646 0.0
C1299 C 0.42029 0.05012 0.73324 0.0
C1300 C 0.40991 0.04879 0.71018 0.0
C1301 C 0.39134 0.0369 0.71033 0.0
H1302 H 0.43466 0.05936 0.73309 0.0
H1303 H 0.25535 0.9402 0.73566 0.0
H1304 H 0.06304 0.38104 0.71577 0.0
H1305 H 0.03578 0.35915 0.73984 0.0
H1306 H 0.00628 0.34585 0.66324 0.0
H1307 H 0.03345 0.36777 0.63904 0.0
H1308 H 0.99204 0.35752 0.70134 0.0
H1309 H 0.01126 0.31482 0.69755 0.0
H1310 H 0.03206 0.30305 0.70226 0.0
H1311 H 0.0334 0.31015 0.79001 0.0
H1312 H 0.01307 0.32254 0.78585 0.0
H1313 H 0.91249 0.30948 0.77591 0.0
H1314 H 0.93558 0.3117 0.74403 0.0
H1315 H 0.97475 0.332 0.80967 0.0
H1316 H 0.95168 0.32962 0.84181 0.0
H1317 H 0.98105 0.31103 0.77142 0.0
H1318 H 0.96957 0.36104 0.77246 0.0
H1319 H 0.95028 0.37469 0.76866 0.0
H1320 H 0.93544 0.3541 0.68629 0.0
H1321 H 0.95447 0.34011 0.68979 0.0
C1322 C 0.05087 0.37312 0.70391 0.0
C1323 C 0.05033 0.37633 0.67557 0.0
C1324 C 0.03531 0.36051 0.71768 0.0
C1325 C 0.01898 0.35087 0.70334 0.0
C1326 C 0.01874 0.35314 0.6747 0.0
C1327 C 0.03429 0.36571 0.66091 0.0
C1328 C 0.00183 0.34094 0.71883 0.0
C1329 C 0.98945 0.34699 0.7161 0.0
C1330 C -0.00136 0.3275 0.73859 0.0
C1331 C 0.01078 0.31988 0.74131 0.0
C1332 C 0.01616 0.31412 0.71785 0.0
C1333 C 0.02785 0.3073 0.72042 0.0
C1334 C 0.03416 0.306 0.74638 0.0
C1335 C 0.0286 0.31129 0.76988 0.0
C1336 C 0.01698 0.31822 0.76742 0.0
C1337 C 0.92591 0.314 0.78375 0.0
C1338 C 0.93035 0.3197 0.81126 0.0
C1339 C 0.93907 0.3152 0.7655 0.0
C1340 C 0.95692 0.32227 0.77441 0.0
C1341 C 0.96105 0.32651 0.80239 0.0
C1342 C 0.94787 0.32525 0.82069 0.0
C1343 C 0.97168 0.32794 0.75409 0.0
C1344 C 0.98356 0.32121 0.75607 0.0
C1345 C 0.97462 0.3409 0.73368 0.0
C1346 C 0.96324 0.34935 0.73151 0.0
C1347 C 0.96207 0.35931 0.75363 0.0
C1348 C 0.95121 0.36713 0.75152 0.0
C1349 C 0.94159 0.36521 0.72728 0.0
C1350 C 0.94286 0.35553 0.70508 0.0
C1351 C 0.95368 0.34766 0.70711 0.0
H1352 H 0.93319 0.37128 0.72568 0.0
H1353 H 0.04336 0.30089 0.74826 0.0
H1354 H 0.66304 0.62158 0.85181 0.0
H1355 H 0.65828 0.64266 0.82413 0.0
H1356 H 0.66701 0.62049 0.74976 0.0
H1357 H 0.67217 0.59968 0.77727 0.0
H1358 H 0.67942 0.6565 0.744 0.0
H1359 H 0.6251 0.60364 0.77507 0.0
H1360 H 0.60454 0.58245 0.81001 0.0
H1361 H 0.60064 0.62521 0.84917 0.0
H1362 H 0.62139 0.64671 0.81463 0.0
H1363 H 0.6186 0.65789 0.6458 0.0
H1364 H 0.63867 0.654 0.67715 0.0
H1365 H 0.62356 0.67742 0.74328 0.0
H1366 H 0.60317 0.681 0.71216 0.0
H1367 H 0.61734 0.64547 0.75698 0.0
H1368 H 0.66895 0.69779 0.72123 0.0
H1369 H 0.68951 0.71847 0.68579 0.0
H1370 H 0.69783 0.67656 0.65391 0.0
H1371 H 0.67728 0.65561 0.68911 0.0
C1372 C 0.66436 0.62147 0.8296 0.0
C1373 C 0.66768 0.60876 0.8167 0.0
C1374 C 0.66164 0.63353 0.81381 0.0
C1375 C 0.66195 0.6329 0.78486 0.0
C1376 C 0.66666 0.62119 0.77206 0.0
C1377 C 0.66951 0.60922 0.78783 0.0
C1378 C 0.65509 0.6426 0.76793 0.0
C1379 C 0.66586 0.65413 0.74677 0.0
C1380 C 0.63749 0.63972 0.77183 0.0
C1381 C 0.62495 0.6268 0.7925 0.0
C1382 C 0.61995 0.60854 0.79125 0.0
C1383 C 0.60826 0.59647 0.81096 0.0
C1384 C 0.60134 0.60249 0.83185 0.0
C1385 C 0.60605 0.62058 0.83302 0.0
C1386 C 0.61777 0.63271 0.81339 0.0
C1387 C 0.61989 0.66263 0.66684 0.0
C1388 C 0.6091 0.66951 0.67661 0.0
C1389 C 0.63151 0.66053 0.68472 0.0
C1390 C 0.63268 0.66544 0.71262 0.0
C1391 C 0.62287 0.67351 0.72186 0.0
C1392 C 0.61119 0.67552 0.70405 0.0
C1393 C 0.64162 0.65945 0.73283 0.0
C1394 C 0.63111 0.64835 0.75453 0.0
C1395 C 0.65937 0.66268 0.72922 0.0
C1396 C 0.67148 0.67511 0.70769 0.0
C1397 C 0.67505 0.69295 0.70651 0.0
C1398 C 0.68674 0.70473 0.68652 0.0
C1399 C 0.69492 0.69882 0.66756 0.0
C1400 C 0.69144 0.68111 0.66856 0.0
C1401 C 0.67981 0.66929 0.68858 0.0
H1402 H 0.704 0.70797 0.65213 0.0
H1403 H 0.59228 0.59313 0.84709 0.0
H1404 H 0.24432 0.0535 0.98291 0.0
H1405 H 0.25328 0.08504 0.99134 0.0
H1406 H 0.20225 0.07539 0.9595 0.0
H1407 H 0.19322 0.04406 0.95104 0.0
H1408 H 0.23088 0.10632 0.93861 0.0
H1409 H 0.20932 0.07725 0.02765 0.0
H1410 H 0.20953 0.0599 0.06805 0.0
H1411 H 0.26445 0.09969 0.08475 0.0
H1412 H 0.26463 0.11716 0.0442 0.0
H1413 H 0.21194 0.17126 0.98781 0.0
H1414 H 0.21313 0.14418 0.97718 0.0
H1415 H 0.26445 0.16618 0.01829 0.0
H1416 H 0.26324 0.19343 0.02944 0.0
H1417 H 0.2423 0.13172 0.03322 0.0
H1418 H 0.26252 0.16317 0.94856 0.0
H1419 H 0.26253 0.18076 0.90836 0.0
H1420 H 0.21131 0.1371 0.88283 0.0
H1421 H 0.21085 0.11934 0.9231 0.0
C1422 C 0.23503 0.05811 0.97769 0.0
C1423 C 0.21803 0.04623 0.96637 0.0
C1424 C 0.24016 0.07612 0.98256 0.0
C1425 C 0.2284 0.08252 0.9761 0.0
C1426 C 0.21155 0.07073 0.96456 0.0
C1427 C 0.20638 0.05278 0.95987 0.0
C1428 C 0.23333 0.10142 0.9815 0.0
C1429 C 0.23333 0.11188 0.95929 0.0
C1430 C 0.23719 0.10887 0.00835 0.0
C1431 C 0.23706 0.09838 0.03272 0.0
C1432 C 0.22149 0.08222 0.0398 0.0
C1433 C 0.22153 0.07238 0.06275 0.0
C1434 C 0.23702 0.07866 0.0789 0.0
C1435 C 0.25248 0.09482 0.07218 0.0
C1436 C 0.25252 0.1047 0.04923 0.0
C1437 C 0.22356 0.17043 0.99449 0.0
C1438 C 0.23751 0.1845 0.00944 0.0
C1439 C 0.22426 0.15496 0.98825 0.0
C1440 C 0.239 0.15324 -0.00341 0.0
C1441 C 0.253 0.16726 0.01155 0.0
C1442 C 0.2523 0.18282 0.01784 0.0
C1443 C 0.23923 0.13643 0.99041 0.0
C1444 C 0.24023 0.12635 0.01244 0.0
C1445 C 0.23639 0.12936 0.96333 0.0
C1446 C 0.23661 0.13995 0.93897 0.0
C1447 C 0.2512 0.15736 0.93448 0.0
C1448 C 0.25129 0.16736 0.91166 0.0
C1449 C 0.23692 0.16006 0.89308 0.0
C1450 C 0.22244 0.14274 0.89724 0.0
C1451 C 0.22226 0.13268 0.92005 0.0
H1452 H 0.23702 0.16783 0.87542 0.0
H1453 H 0.23702 0.07103 0.09666 0.0
H1454 H 0.94869 0.15912 0.93887 0.0
H1455 H 0.91754 0.13619 0.94712 0.0
H1456 H 0.9081 0.17509 0.98871 0.0
H1457 H 0.93952 0.19831 0.98067 0.0
H1458 H 0.895 0.14369 0.01781 0.0
H1459 H 0.89012 0.1605 0.92617 0.0
H1460 H 0.89834 0.1677 0.87721 0.0
H1461 H 0.88872 0.11426 0.86322 0.0
H1462 H 0.88069 0.1068 0.9122 0.0
H1463 H 0.8025 0.07486 0.02861 0.0
H1464 H 0.82913 0.10359 0.01665 0.0
H1465 H 0.85024 0.07541 0.97009 0.0
H1466 H 0.8237 0.04679 0.98167 0.0
H1467 H 0.85499 0.10494 0.94291 0.0
H1468 H 0.86456 0.08997 0.03543 0.0
H1469 H 0.85695 0.08262 0.08455 0.0
H1470 H 0.85809 0.1327 0.09667 0.0
H1471 H 0.86548 0.14023 0.04749 0.0
C1472 C 0.94003 0.16291 0.94966 0.0
C1473 C 0.94664 0.18059 0.95911 0.0
C1474 C 0.92216 0.14976 0.95421 0.0
C1475 C 0.91044 0.15397 0.96823 0.0
C1476 C 0.91692 0.1716 0.97772 0.0
C1477 C 0.93485 0.18484 0.97305 0.0
C1478 C 0.89168 0.13962 0.97387 0.0
C1479 C 0.88607 0.13547 0.00141 0.0
C1480 C 0.88016 0.12874 0.95248 0.0
C1481 C 0.8849 0.13313 0.92293 0.0
C1482 C 0.88988 0.15032 0.91271 0.0
C1483 C 0.89449 0.15444 0.88494 0.0
C1484 C 0.89408 0.14146 0.86713 0.0
C1485 C 0.88903 0.1243 0.87704 0.0
C1486 C 0.88442 0.12011 0.90481 0.0
C1487 C 0.81277 0.07482 0.01567 0.0
C1488 C 0.81106 0.05856 0.00623 0.0
C1489 C 0.82799 0.09123 0.00892 0.0
C1490 C 0.84175 0.09162 0.99269 0.0
C1491 C 0.83979 0.07543 0.98261 0.0
C1492 C 0.82463 0.05907 0.98936 0.0
C1493 C 0.85854 0.10874 0.98684 0.0
C1494 C 0.86378 0.11339 0.95927 0.0
C1495 C 0.86973 0.12006 0.00819 0.0
C1496 C 0.86534 0.11556 0.03774 0.0
C1497 C 0.86304 0.09934 0.04853 0.0
C1498 C 0.85879 0.09516 0.07638 0.0
C1499 C 0.85698 0.10716 0.0937 0.0
C1500 C 0.85946 0.1234 0.08321 0.0
C1501 C 0.86368 0.12763 0.05536 0.0
H1502 H 0.8537 0.1039 0.11526 0.0
H1503 H 0.89765 0.14468 0.84563 0.0
H1504 H 0.84349 0.79876 0.94732 0.0
H1505 H 0.86607 0.79007 0.95566 0.0
H1506 H 0.82528 0.73921 0.98855 0.0
H1507 H 0.80239 0.74788 0.98041 0.0
H1508 H 0.85536 0.75519 0.02121 0.0
H1509 H 0.84268 0.74018 0.92634 0.0
H1510 H 0.83768 0.74468 0.87762 0.0
H1511 H 0.89172 0.78904 0.87195 0.0
H1512 H 0.89698 0.78498 0.92077 0.0
H1513 H 0.92272 0.72929 0.02941 0.0
H1514 H 0.89484 0.72889 0.01685 0.0
H1515 H 0.92584 0.78123 0.97956 0.0
H1516 H 0.95366 0.78166 0.99177 0.0
H1517 H 0.89737 0.75896 0.9477 0.0
H1518 H 0.90829 0.7764 0.04391 0.0
H1519 H 0.91331 0.7724 0.09286 0.0
H1520 H 0.86236 0.72345 0.09577 0.0
H1521 H 0.85715 0.72705 0.04669 0.0
C1522 C 0.83922 0.78567 0.95624 0.0
C1523 C 0.82108 0.77401 0.96317 0.0
C1524 C 0.85217 0.78069 0.96085 0.0
C1525 C 0.84733 0.7639 0.97238 0.0
C1526 C 0.82927 0.75219 0.97948 0.0
C1527 C 0.81622 0.75716 0.97476 0.0
C1528 C 0.86141 0.75906 0.97778 0.0
C1529 C 0.8643 0.7556 0.00504 0.0
C1530 C 0.87324 0.75987 0.95674 0.0
C1531 C 0.87018 0.76233 0.9273 0.0
C1532 C 0.85346 0.75098 0.91477 0.0
C1533 C 0.85059 0.75344 0.88712 0.0
C1534 C 0.86437 0.76716 0.87171 0.0
C1535 C 0.88106 0.77842 0.88391 0.0
C1536 C 0.884 0.77603 0.91157 0.0
C1537 C 0.92358 0.74066 0.01839 0.0
C1538 C 0.94039 0.75556 0.01172 0.0
C1539 C 0.90764 0.74043 0.01131 0.0
C1540 C 0.90827 0.7551 -0.0025 0.0
C1541 C 0.92503 0.76976 0.9902 0.0
C1542 C 0.94093 0.77001 -0.0027 0.0
C1543 C 0.89158 0.75557 0.9912 0.0
C1544 C 0.88822 0.75822 0.96377 0.0
C1545 C 0.87933 0.75402 0.01207 0.0
C1546 C 0.88244 0.75188 0.04157 0.0
C1547 C 0.89823 0.76471 0.05493 0.0
C1548 C 0.9011 0.76253 0.08271 0.0
C1549 C 0.88819 0.74765 0.0974 0.0
C1550 C 0.87236 0.73495 0.08435 0.0
C1551 C 0.86944 0.73706 0.05657 0.0
H1552 H 0.89043 0.74599 0.1189 0.0
H1553 H 0.86211 0.76905 0.85031 0.0
H1554 H 0.16779 0.20389 0.50255 0.0
H1555 H 0.14062 0.20512 0.51305 0.0
H1556 H 0.16307 0.25667 0.47278 0.0
H1557 H 0.19054 0.25564 0.46245 0.0
H1558 H 0.14574 0.25586 0.52057 0.0
H1559 H 0.13236 0.22004 0.43954 0.0
H1560 H 0.13066 0.19589 0.40997 0.0
H1561 H 0.09494 0.15628 0.46791 0.0
H1562 H 0.09664 0.18022 0.49805 0.0
H1563 H 0.05761 0.24804 0.51631 0.0
H1564 H 0.08718 0.25233 0.50351 0.0
H1565 H 0.07384 0.20212 0.5427 0.0
H1566 H 0.04446 0.1977 0.55548 0.0
H1567 H 0.08711 0.20472 0.49063 0.0
H1568 H 0.10245 0.24135 0.57296 0.0
H1569 H 0.10435 0.26584 0.60191 0.0
H1570 H 0.13622 0.30441 0.5399 0.0
H1571 H 0.1343 0.2801 0.5104 0.0
C1572 C 0.16702 0.21554 0.49601 0.0
C1573 C 0.18126 0.2296 0.48146 0.0
C1574 C 0.15144 0.2162 0.50195 0.0
C1575 C 0.1497 0.23085 0.4933 0.0
C1576 C 0.16411 0.2452 0.47954 0.0
C1577 C 0.17976 0.24457 0.47359 0.0
C1578 C 0.13261 0.23085 0.49821 0.0
C1579 C 0.13293 0.24484 0.51364 0.0
C1580 C 0.11589 0.21641 0.4893 0.0
C1581 C 0.11475 0.20194 0.47117 0.0
C1582 C 0.12425 0.20619 0.44608 0.0
C1583 C 0.12327 0.19253 0.4292 0.0
C1584 C 0.11273 0.17456 0.43708 0.0
C1585 C 0.10311 0.17021 0.46184 0.0
C1586 C 0.10406 0.18381 0.47882 0.0
C1587 C 0.06103 0.23798 0.52235 0.0
C1588 C 0.04862 0.2225 0.53687 0.0
C1589 C 0.07794 0.24048 0.51508 0.0
C1590 C 0.0827 0.22754 0.52219 0.0
C1591 C 0.07042 0.21223 0.53693 0.0
C1592 C 0.05362 0.20977 0.5443 0.0
C1593 C 0.10018 0.22945 0.51365 0.0
C1594 C 0.09992 0.21583 0.49737 0.0
C1595 C 0.1169 0.24428 0.52162 0.0
C1596 C 0.11804 0.25888 0.53933 0.0
C1597 C 0.10972 0.25503 0.56538 0.0
C1598 C 0.11083 0.26889 0.58192 0.0
C1599 C 0.12035 0.28666 0.57271 0.0
C1600 C 0.12882 0.29063 0.54698 0.0
C1601 C 0.12773 0.27682 0.53035 0.0
H1602 H 0.1212 0.29737 0.58555 0.0
H1603 H 0.11199 0.16401 0.42398 0.0
H1604 H 0.73433 0.79712 0.52356 0.0
H1605 H 0.72769 0.8211 0.51224 0.0
H1606 H 0.78395 0.85728 0.4959 0.0
H1607 H 0.79072 0.83366 0.50739 0.0
H1608 H 0.74234 0.85569 0.53803 0.0
H1609 H 0.78618 0.88226 0.43945 0.0
H1610 H 0.79562 0.8704 0.40051 0.0
H1611 H 0.74811 0.81877 0.41015 0.0
H1612 H 0.73825 0.83039 0.44887 0.0
H1613 H 0.7757 0.94796 0.50895 0.0
H1614 H 0.77153 0.91799 0.51698 0.0
H1615 H 0.73216 0.89662 0.45168 0.0
H1616 H 0.73611 0.92655 0.44369 0.0
H1617 H 0.75856 0.8868 0.44746 0.0
H1618 H 0.71742 0.88582 0.51447 0.0
H1619 H 0.70742 0.8973 0.55318 0.0
H1620 H 0.74736 0.89654 0.60568 0.0
H1621 H 0.75778 0.8853 0.56715 0.0
C1622 C 0.74525 0.81016 0.5174 0.0
C1623 C 0.76305 0.8135 0.51642 0.0
C1624 C 0.74144 0.82384 0.51105 0.0
C1625 C 0.75532 0.8409 0.50309 0.0
C1626 C 0.77303 0.84416 0.50177 0.0
C1627 C 0.77687 0.83064 0.50846 0.0
C1628 C 0.75166 0.85564 0.49682 0.0
C1629 C 0.74572 0.86242 0.51817 0.0
C1630 C 0.75586 0.86422 0.47078 0.0
C1631 C 0.76154 0.85718 0.44721 0.0
C1632 C 0.77769 0.86841 0.43317 0.0
C1633 C 0.78313 0.86172 0.41115 0.0
C1634 C 0.77249 0.84383 0.4029 0.0
C1635 C 0.75637 0.83261 0.41661 0.0
C1636 C 0.75086 0.83923 0.43863 0.0
C1637 C 0.76605 0.93686 0.49644 0.0
C1638 C 0.75625 0.93961 0.47566 0.0
C1639 C 0.76363 0.91974 0.50113 0.0
C1640 C 0.75146 0.90509 0.48502 0.0
C1641 C 0.74158 0.90776 0.46437 0.0
C1642 C 0.74383 0.92484 0.45988 0.0
C1643 C 0.74981 0.88721 0.48895 0.0
C1644 C 0.75487 0.87991 0.46718 0.0
C1645 C 0.74472 0.87812 0.51456 0.0
C1646 C 0.73846 0.88483 0.53784 0.0
C1647 C 0.72417 0.88823 0.5342 0.0
C1648 C 0.7184 0.89467 0.55613 0.0
C1649 C 0.72677 0.89768 0.58186 0.0
C1650 C 0.74089 0.89421 0.58573 0.0
C1651 C 0.74672 0.88778 0.56386 0.0
H1652 H 0.72229 0.90267 0.59881 0.0
H1653 H 0.77673 0.83868 0.38587 0.0
H1654 H 0.05927 0.79093 0.46471 0.0
H1655 H 0.08823 0.81861 0.47152 0.0
H1656 H 0.06059 0.84433 0.5064 0.0
H1657 H 0.03177 0.8169 0.49973 0.0
H1658 H 0.08471 0.86461 0.46598 0.0
H1659 H 0.08312 0.83077 0.54706 0.0
H1660 H 0.08147 0.80483 0.57156 0.0
H1661 H 0.12921 0.81308 0.52998 0.0
H1662 H 0.131 0.83894 0.50493 0.0
H1663 H 0.14617 0.94181 0.53435 0.0
H1664 H 0.12225 0.91161 0.52351 0.0
H1665 H 0.16136 0.89777 0.49483 0.0
H1666 H 0.18572 0.92823 0.50606 0.0
H1667 H 0.13438 0.87052 0.5257 0.0
H1668 H 0.13797 0.90606 0.44821 0.0
H1669 H 0.14003 0.93214 0.42361 0.0
H1670 H 0.08894 0.92051 0.45687 0.0
H1671 H 0.08668 0.8945 0.48201 0.0
C1672 C 0.0594 0.80246 0.47399 0.0
C1673 C 0.04322 0.80174 0.4816 0.0
C1674 C 0.07595 0.81823 0.47793 0.0
C1675 C 0.07654 0.83351 0.48947 0.0
C1676 C 0.06042 0.83271 0.49737 0.0
C1677 C 0.04396 0.81699 0.49361 0.0
C1678 C 0.09378 0.85066 0.49256 0.0
C1679 C 0.09552 0.86592 0.47917 0.0
C1680 C 0.10818 0.85221 0.50887 0.0
C1681 C 0.10706 0.83663 0.52385 0.0
C1682 C 0.09316 0.82694 0.54293 0.0
C1683 C 0.09223 0.81228 0.55697 0.0
C1684 C 0.10519 0.80727 0.55226 0.0
C1685 C 0.11915 0.81695 0.53356 0.0
C1686 C 0.12014 0.83161 0.51944 0.0
C1687 C 0.14981 0.93242 0.52578 0.0
C1688 C 0.16791 0.93755 0.52083 0.0
C1689 C 0.13605 0.91512 0.51953 0.0
C1690 C 0.13998 0.90253 0.50788 0.0
C1691 C 0.15804 0.90733 0.50366 0.0
C1692 C 0.17192 0.92473 0.51003 0.0
C1693 C 0.12499 0.88456 0.49987 0.0
C1694 C 0.12368 0.86915 0.51218 0.0
C1695 C 0.11098 0.8828 0.48237 0.0
C1696 C 0.11221 0.89838 0.46714 0.0
C1697 C 0.12722 0.90912 0.45043 0.0
C1698 C 0.12842 0.92389 0.43637 0.0
C1699 C 0.11464 0.928 0.43871 0.0
C1700 C 0.09961 0.91732 0.45508 0.0
C1701 C 0.09835 0.90254 0.46921 0.0
H1702 H 0.11559 0.93944 0.42781 0.0
H1703 H 0.10446 0.79593 0.56317 0.0
H1704 H 0.74703 0.94479 0.01303 0.0
H1705 H 0.74023 0.91402 0.00294 0.0
H1706 H 0.79589 0.92982 0.01677 0.0
H1707 H 0.80281 0.96037 0.02651 0.0
H1708 H 0.78353 0.91058 0.97041 0.0
H1709 H 0.76362 0.90618 0.06491 0.0
H1710 H 0.74566 0.9087 0.10253 0.0
H1711 H 0.69691 0.87134 0.06093 0.0
H1712 H 0.71461 0.86879 0.02286 0.0
H1713 H 0.78698 0.83215 0.9941 0.0
H1714 H 0.78695 0.86024 0.00149 0.0
H1715 H 0.73121 0.83466 0.97708 0.0
H1716 H 0.7311 0.80635 0.96953 0.0
H1717 H 0.73971 0.85744 0.02422 0.0
H1718 H 0.76021 0.85981 0.93177 0.0
H1719 H 0.77864 0.85707 0.89515 0.0
H1720 H 0.8267 0.89838 0.93357 0.0
H1721 H 0.80857 0.90118 0.97069 0.0
C1722 C 0.7578 0.94169 0.01393 0.0
C1723 C 0.77547 0.95508 0.02056 0.0
C1724 C 0.75388 0.9241 0.00825 0.0
C1725 C 0.76756 0.91963 0.0092 0.0
C1726 C 0.78514 0.93298 0.0158 0.0
C1727 C 0.78906 0.95046 0.02146 0.0
C1728 C 0.76387 0.90117 0.00306 0.0
C1729 C 0.77401 0.89899 0.98229 0.0
C1730 C 0.75107 0.88596 0.01801 0.0
C1731 C 0.74043 0.88747 0.04088 0.0
C1732 C 0.74907 0.89863 0.06367 0.0
C1733 C 0.73894 0.90004 0.0851 0.0
C1734 C 0.72015 0.89023 0.08408 0.0
C1735 C 0.71146 0.87896 0.06166 0.0
C1736 C 0.72154 0.87752 0.04016 0.0
C1737 C 0.77466 0.83242 0.99047 0.0
C1738 C 0.75907 0.81707 0.98104 0.0
C1739 C 0.77468 0.8485 0.99465 0.0
C1740 C 0.75913 0.84955 0.98953 0.0
C1741 C 0.74334 0.83411 0.98106 0.0
C1742 C 0.74334 0.81799 0.97669 0.0
C1743 C 0.75976 0.86704 0.99216 0.0
C1744 C 0.74904 0.86901 0.01213 0.0
C1745 C 0.77207 0.88213 0.97655 0.0
C1746 C 0.78303 0.88061 0.95413 0.0
C1747 C 0.77472 0.86822 0.93253 0.0
C1748 C 0.78511 0.86667 0.91166 0.0
C1749 C 0.80383 0.87752 0.91206 0.0
C1750 C 0.81219 0.88998 0.9333 0.0
C1751 C 0.80187 0.89157 0.95424 0.0
H1752 H 0.81185 0.8763 0.89589 0.0
H1753 H 0.71233 0.89133 0.10069 0.0
H1754 H 0.16501 0.95249 0.00546 0.0
H1755 H 0.1392 0.92372 0.01866 0.0
H1756 H 0.16097 0.89575 0.97319 0.0
H1757 H 0.18691 0.92461 0.95969 0.0
H1758 H 0.12534 0.88225 0.96248 0.0
H1759 H 0.16202 0.89541 0.04197 0.0
H1760 H 0.18153 0.91393 0.08005 0.0
H1761 H 0.13786 0.91868 0.114 0.0
H1762 H 0.11816 0.90044 0.07586 0.0
H1763 H 0.05205 0.80025 0.01586 0.0
H1764 H 0.08316 0.82374 0.00635 0.0
H1765 H 0.07307 0.86302 0.04523 0.0
H1766 H 0.04222 0.8398 0.0549 0.0
H1767 H 0.1058 0.86747 0.05995 0.0
H1768 H 0.07124 0.85843 0.97593 0.0
H1769 H 0.05202 0.8404 0.93723 0.0
H1770 H 0.09242 0.82777 0.91199 0.0
H1771 H 0.11178 0.84556 0.95079 0.0
C1772 C 0.16438 0.94023 -0.00166 0.0
C1773 C 0.17801 0.94083 0.98154 0.0
C1774 C 0.14965 0.92378 0.00603 0.0
C1775 C 0.14826 0.90758 -0.00282 0.0
C1776 C 0.16182 0.9081 0.98032 0.0
C1777 C 0.17663 0.92459 0.97269 0.0
C1778 C 0.13227 0.89021 0.00489 0.0
C1779 C 0.12127 0.8788 0.98383 0.0
C1780 C 0.12689 0.88579 0.03273 0.0
C1781 C 0.13863 0.89664 0.05592 0.0
C1782 C 0.1566 0.90051 0.05744 0.0
C1783 C 0.1677 0.91094 0.07906 0.0
C1784 C 0.16095 0.9175 0.09941 0.0
C1785 C 0.14307 0.91359 0.09821 0.0
C1786 C 0.13193 0.90319 0.07661 0.0
C1787 C 0.05652 0.81386 0.02259 0.0
C1788 C 0.0446 0.81816 0.03597 0.0
C1789 C 0.07427 0.82727 0.01708 0.0
C1790 C 0.08038 0.84515 0.02492 0.0
C1791 C 0.06867 0.84931 0.03904 0.0
C1792 C 0.05097 0.83601 0.04441 0.0
C1793 C 0.09865 0.85984 0.01751 0.0
C1794 C 0.11008 0.87074 0.03865 0.0
C1795 C 0.10446 0.86376 0.98976 0.0
C1796 C 0.09285 0.85312 0.96643 0.0
C1797 C 0.07595 0.85168 0.96226 0.0
C1798 C 0.06505 0.84153 0.94028 0.0
C1799 C 0.07097 0.83289 0.92222 0.0
C1800 C 0.08783 0.83443 0.92604 0.0
C1801 C 0.09878 0.84455 0.948 0.0
H1802 H 0.06251 0.82504 0.90521 0.0
H1803 H 0.16956 0.92558 0.11612 0.0
H1804 H 0.15015 0.19801 0.03158 0.0
H1805 H 0.12693 0.20524 0.02006 0.0
H1806 H 0.16749 0.25843 0.99481 0.0
H1807 H 0.19111 0.25136 0.00667 0.0
H1808 H 0.14045 0.25862 0.02582 0.0
H1809 H 0.14437 0.22831 0.94625 0.0
H1810 H 0.14598 0.20449 0.92024 0.0
H1811 H 0.09381 0.16542 0.95048 0.0
H1812 H 0.09198 0.18895 0.977 0.0
H1813 H 0.06901 0.26904 0.96563 0.0
H1814 H 0.09703 0.26848 0.9727 0.0
H1815 H 0.0665 0.21357 0.00073 0.0
H1816 H 0.03855 0.21398 0.99355 0.0
H1817 H 0.09141 0.21794 0.96255 0.0
H1818 H 0.08924 0.24798 0.0458 0.0
H1819 H 0.08779 0.27183 0.072 0.0
H1820 H 0.13687 0.31169 0.03401 0.0
H1821 H 0.13848 0.28807 0.00729 0.0
C1822 C 0.15425 0.21129 0.02359 0.0
C1823 C 0.17255 0.22407 0.01987 0.0
C1824 C 0.1409 0.21537 0.01692 0.0
C1825 C 0.14546 0.23226 0.00615 0.0
C1826 C 0.1637 0.24527 0.00296 0.0
C1827 C 0.17716 0.24119 0.00968 0.0
C1828 C 0.13096 0.23602 -0.00176 0.0
C1829 C 0.12991 0.24997 0.01155 0.0
C1830 C 0.11712 0.22461 0.97984 0.0
C1831 C 0.11809 0.2104 0.96376 0.0
C1832 C 0.13329 0.21462 0.94751 0.0
C1833 C 0.13423 0.20117 0.93265 0.0
C1834 C 0.12002 0.18345 0.93374 0.0
C1835 C 0.10481 0.17915 0.94965 0.0
C1836 C 0.1038 0.19255 0.96457 0.0
C1837 C 0.06829 0.25689 0.97346 0.0
C1838 C 0.05156 0.24154 0.97897 0.0
C1839 C 0.08431 0.25661 0.97755 0.0
C1840 C 0.08384 0.24099 0.98729 0.0
C1841 C 0.06716 0.22575 0.9931 0.0
C1842 C 0.0512 0.22602 0.98907 0.0
C1843 C 0.10058 0.24015 0.9908 0.0
C1844 C 0.10207 0.22676 0.97652 0.0
C1845 C 0.1148 0.25211 0.00821 0.0
C1846 C 0.11386 0.26629 0.02431 0.0
C1847 C 0.09963 0.26184 0.04286 0.0
C1848 C 0.0988 0.27532 0.05784 0.0
C1849 C 0.11219 0.29327 0.0546 0.0
C1850 C 0.12648 0.29778 0.03645 0.0
C1851 C 0.12737 0.28436 0.0214 0.0
H1852 H 0.11153 0.30368 0.06622 0.0
H1853 H 0.12078 0.17305 0.92222 0.0
H1854 H 0.94734 0.78807 0.50193 0.0
H1855 H 0.91696 0.78154 0.51325 0.0
H1856 H 0.89509 0.7308 0.47038 0.0
H1857 H 0.92569 0.73687 0.46076 0.0
H1858 H 0.8929 0.77952 0.4836 0.0
H1859 H 0.85261 0.70153 0.49065 0.0
H1860 H 0.85714 0.6767 0.50611 0.0
H1861 H 0.89912 0.71258 0.56092 0.0
H1862 H 0.8947 0.73756 0.54605 0.0
H1863 H 0.80299 0.756 0.47464 0.0
H1864 H 0.831 0.75577 0.46664 0.0
H1865 H 0.82815 0.73532 0.54896 0.0
H1866 H 0.79946 0.73446 0.55631 0.0
H1867 H 0.84253 0.7219 0.51804 0.0
H1868 H 0.85392 0.78156 0.53245 0.0
H1869 H 0.85068 0.8082 0.5249 0.0
H1870 H 0.8694 0.81231 0.44161 0.0
H1871 H 0.87251 0.78554 0.44855 0.0
C1872 C 0.93603 0.7754 0.49532 0.0
C1873 C 0.9388 0.76296 0.48051 0.0
C1874 C 0.91864 0.77168 0.50169 0.0
C1875 C 0.90359 0.75564 0.49276 0.0
C1876 C 0.90639 0.74309 0.4781 0.0
C1877 C 0.92387 0.74659 0.47245 0.0
C1878 C 0.88514 0.75275 0.49743 0.0
C1879 C 0.88196 0.7669 0.49122 0.0
C1880 C 0.87077 0.73641 0.50777 0.0
C1881 C 0.87344 0.72145 0.517 0.0
C1882 C 0.86277 0.7041 0.50607 0.0
C1883 C 0.86532 0.69001 0.51471 0.0
C1884 C 0.87845 0.69308 0.53441 0.0
C1885 C 0.88901 0.71024 0.54558 0.0
C1886 C 0.8865 0.72437 0.53702 0.0
C1887 C 0.80822 0.75119 0.49084 0.0
C1888 C 0.79921 0.74542 0.51617 0.0
C1889 C 0.82428 0.75116 0.48634 0.0
C1890 C 0.83202 0.74604 0.50748 0.0
C1891 C 0.82254 0.73942 0.53236 0.0
C1892 C 0.80617 0.73897 0.53658 0.0
C1893 C 0.85046 0.74868 0.50424 0.0
C1894 C 0.85357 0.73449 0.51052 0.0
C1895 C 0.86503 0.76528 0.49519 0.0
C1896 C 0.86328 0.78145 0.49095 0.0
C1897 C 0.85724 0.78809 0.51247 0.0
C1898 C 0.85543 0.80321 0.50831 0.0
C1899 C 0.85979 0.81192 0.48277 0.0
C1900 C 0.866 0.80554 0.46137 0.0
C1901 C 0.8678 0.7904 0.46541 0.0
H1902 H 0.85838 0.82362 0.47958 0.0
H1903 H 0.88041 0.68215 0.54106 0.0
H1904 H 0.19572 0.14315 0.44698 0.0
H1905 H 0.20214 0.11926 0.45743 0.0
H1906 H 0.25334 0.15787 0.49233 0.0
H1907 H 0.24709 0.18219 0.48157 0.0
H1908 H 0.25557 0.1321 0.46063 0.0
H1909 H 0.21972 0.13293 0.53497 0.0
H1910 H 0.19423 0.13376 0.55698 0.0
H1911 H 0.15724 0.08341 0.51908 0.0
H1912 H 0.18249 0.0824 0.49649 0.0
H1913 H 0.2606 0.05817 0.52419 0.0
H1914 H 0.26102 0.08653 0.51555 0.0
H1915 H 0.20884 0.05731 0.47697 0.0
H1916 H 0.20829 0.02906 0.48553 0.0
H1917 H 0.21018 0.08079 0.51593 0.0
H1918 H 0.24633 0.0815 0.43886 0.0
H1919 H 0.272 0.081 0.4169 0.0
H1920 H 0.30884 0.12867 0.46121 0.0
H1921 H 0.28336 0.12932 0.48373 0.0
C1922 C 0.2084 0.14668 0.45682 0.0
C1923 C 0.22081 0.16462 0.4637 0.0
C1924 C 0.21203 0.13295 0.46283 0.0
C1925 C 0.22807 0.13673 0.47611 0.0
C1926 C 0.24083 0.15466 0.48221 0.0
C1927 C 0.23721 0.16852 0.4761 0.0
C1928 C 0.23103 0.1217 0.48404 0.0
C1929 C 0.24585 0.12103 0.47317 0.0
C1930 C 0.21825 0.10718 0.50019 0.0
C1931 C 0.20301 0.10766 0.51389 0.0
C1932 C 0.20614 0.12209 0.53117 0.0
C1933 C 0.19174 0.12258 0.54377 0.0
C1934 C 0.17413 0.10866 0.53939 0.0
C1935 C 0.17089 0.09419 0.52244 0.0
C1936 C 0.18525 0.09364 0.50976 0.0
C1937 C 0.2493 0.05783 0.51363 0.0
C1938 C 0.23437 0.04136 0.50565 0.0
C1939 C 0.24959 0.07404 0.50865 0.0
C1940 C 0.23496 0.07403 0.49561 0.0
C1941 C 0.22025 0.05763 0.48715 0.0
C1942 C 0.21998 0.04148 0.492 0.0
C1943 C 0.23441 0.0909 0.49182 0.0
C1944 C 0.22003 0.09194 0.50365 0.0
C1945 C 0.24765 0.10574 0.47671 0.0
C1946 C 0.26295 0.10533 0.46324 0.0
C1947 C 0.25991 0.09178 0.44413 0.0
C1948 C 0.27442 0.09149 0.43153 0.0
C1949 C 0.29204 0.10476 0.43773 0.0
C1950 C 0.29518 0.11838 0.45648 0.0
C1951 C 0.28071 0.11872 0.46915 0.0
H1952 H 0.30326 0.10452 0.42794 0.0
H1953 H 0.163 0.10907 0.54917 0.0
H1954 H 0.92781 0.19314 0.53664 0.0
H1955 H 0.89946 0.16565 0.52573 0.0
H1956 H 0.92931 0.14136 0.49409 0.0
H1957 H 0.95749 0.16863 0.50463 0.0
H1958 H 0.90211 0.13562 0.46006 0.0
H1959 H 0.91041 0.1313 0.55825 0.0
H1960 H 0.91432 0.14161 0.60656 0.0
H1961 H 0.86396 0.14093 0.60328 0.0
H1962 H 0.85988 0.13084 0.55481 0.0
H1963 H 0.8476 0.04258 0.46343 0.0
H1964 H 0.87025 0.07359 0.47316 0.0
H1965 H 0.8287 0.08529 0.49665 0.0
H1966 H 0.80571 0.05402 0.48698 0.0
H1967 H 0.85806 0.09981 0.53299 0.0
H1968 H 0.8479 0.09997 0.43655 0.0
H1969 H 0.84392 0.08906 0.38861 0.0
H1970 H 0.89766 0.09748 0.38841 0.0
H1971 H 0.90187 0.1082 0.43652 0.0
C1972 C 0.92829 0.18193 0.5273 0.0
C1973 C 0.94489 0.18303 0.52157 0.0
C1974 C 0.9121 0.16623 0.52116 0.0
C1975 C 0.91228 0.15141 0.50924 0.0
C1976 C 0.92884 0.15263 0.50322 0.0
C1977 C 0.94496 0.16823 0.50937 0.0
C1978 C 0.89535 0.13446 0.50308 0.0
C1979 C 0.89252 0.12777 0.47603 0.0
C1980 C 0.88251 0.12449 0.52371 0.0
C1981 C 0.88496 0.13054 0.55282 0.0
C1982 C 0.90025 0.1335 0.56777 0.0
C1983 C 0.90248 0.13927 0.59518 0.0
C1984 C 0.88943 0.14199 0.60795 0.0
C1985 C 0.87408 0.13887 0.59335 0.0
C1986 C 0.8718 0.13312 0.56591 0.0
C1987 C 0.84318 0.05167 0.47071 0.0
C1988 C 0.82479 0.04579 0.47429 0.0
C1989 C 0.85619 0.06944 0.47616 0.0
C1990 C 0.85114 0.0818 0.48526 0.0
C1991 C 0.83285 0.07597 0.48951 0.0
C1992 C 0.81975 0.05812 0.48391 0.0
C1993 C 0.8652 0.10075 0.49018 0.0
C1994 C 0.86748 0.10783 0.51692 0.0
C1995 C 0.87756 0.11111 0.46926 0.0
C1996 C 0.87516 0.10479 0.44023 0.0
C1997 C 0.85883 0.09938 0.42636 0.0
C1998 C 0.85654 0.09325 0.39914 0.0
C1999 C 0.87052 0.09255 0.38549 0.0
C2000 C 0.88684 0.09803 0.39901 0.0
C2001 C 0.88919 0.10416 0.42625 0.0
H2002 H 0.86872 0.08779 0.36441 0.0
H2003 H 0.89117 0.14645 0.62918 0.0
H2004 H 0.93689 0.53127 0.35565 0.0
H2005 H 0.93715 0.50312 0.34811 0.0
H2006 H 0.88325 0.47864 0.31539 0.0
H2007 H 0.88287 0.50651 0.32281 0.0
H2008 H 0.88686 0.45778 0.35463 0.0
H2009 H 0.91878 0.49143 0.27326 0.0
H2010 H 0.94323 0.51715 0.24858 0.0
H2011 H 0.98231 0.5075 0.28843 0.0
H2012 H 0.95809 0.48185 0.31365 0.0
H2013 H 0.86865 0.37967 0.28592 0.0
H2014 H 0.87551 0.41008 0.29674 0.0
H2015 H 0.92873 0.4234 0.32335 0.0
H2016 H 0.92204 0.39277 0.31212 0.0
H2017 H 0.92915 0.45071 0.29312 0.0
H2018 H 0.89748 0.41546 0.37106 0.0
H2019 H 0.87333 0.38965 0.39598 0.0
H2020 H 0.83437 0.40249 0.36422 0.0
H2021 H 0.85825 0.42823 0.33876 0.0
C2022 C 0.92516 0.51991 0.34667 0.0
C2023 C 0.90984 0.52111 0.3399 0.0
C2024 C 0.92535 0.50387 0.34233 0.0
C2025 C 0.91021 0.48879 0.33119 0.0
C2026 C 0.89505 0.49008 0.32411 0.0
C2027 C 0.89488 0.50606 0.32829 0.0
C2028 C 0.9097 0.47137 0.32759 0.0
C2029 C 0.89604 0.45622 0.34104 0.0
C2030 C 0.92211 0.46945 0.31072 0.0
C2031 C 0.93665 0.48487 0.2956 0.0
C2032 C 0.9326 0.4949 0.27696 0.0
C2033 C 0.94641 0.50944 0.26283 0.0
C2034 C 0.96432 0.514 0.26701 0.0
C2035 C 0.96844 0.50398 0.28527 0.0
C2036 C 0.95468 0.48944 0.29947 0.0
C2037 C 0.88186 0.38901 0.294 0.0
C2038 C 0.89474 0.38368 0.29838 0.0
C2039 C 0.88574 0.40642 0.30027 0.0
C2040 C 0.90251 0.41893 0.31135 0.0
C2041 C 0.91566 0.41392 0.31497 0.0
C2042 C 0.9118 0.39641 0.30859 0.0
C2043 C 0.90592 0.43705 0.31945 0.0
C2044 C 0.92013 0.45231 0.307 0.0
C2045 C 0.89408 0.43914 0.33743 0.0
C2046 C 0.87966 0.42372 0.35285 0.0
C2047 C 0.88374 0.41271 0.36923 0.0
C2048 C 0.8701 0.3981 0.38348 0.0
C2049 C 0.85232 0.39442 0.38165 0.0
C2050 C 0.84815 0.40536 0.36561 0.0
C2051 C 0.86174 0.41998 0.3513 0.0
H2052 H 0.84178 0.38309 0.39269 0.0
H2053 H 0.97499 0.52525 0.25604 0.0
H2054 H 0.59992 0.51226 0.28542 0.0
H2055 H 0.56918 0.48797 0.29461 0.0
H2056 H 0.59039 0.45831 0.33705 0.0
H2057 H 0.62092 0.48194 0.32621 0.0
H2058 H 0.56595 0.43659 0.30744 0.0
H2059 H 0.56916 0.48088 0.37029 0.0
H2060 H 0.57429 0.51052 0.38522 0.0
H2061 H 0.53223 0.50524 0.3312 0.0
H2062 H 0.52701 0.47565 0.31569 0.0
H2063 H 0.47367 0.39058 0.38353 0.0
H2064 H 0.50252 0.41786 0.37492 0.0
H2065 H 0.50353 0.39902 0.29272 0.0
H2066 H 0.47532 0.37127 0.30199 0.0
H2067 H 0.51664 0.44517 0.34341 0.0
H2068 H 0.54466 0.41015 0.27282 0.0
H2069 H 0.54095 0.38002 0.26588 0.0
H2070 H 0.52349 0.3662 0.34983 0.0
H2071 H 0.52733 0.39631 0.35737 0.0
C2072 C 0.59793 0.50057 0.29686 0.0
C2073 C 0.61273 0.49889 0.305 0.0
C2074 C 0.58037 0.48673 0.30228 0.0
C2075 C 0.57735 0.47127 0.31678 0.0
C2076 C 0.59225 0.46995 0.32562 0.0
C2077 C 0.60972 0.4835 0.31951 0.0
C2078 C 0.55879 0.456 0.32162 0.0
C2079 C 0.55523 0.43855 0.31538 0.0
C2080 C 0.54473 0.45835 0.33236 0.0
C2081 C 0.54783 0.47613 0.34163 0.0
C2082 C 0.5611 0.4861 0.36145 0.0
C2083 C 0.56401 0.50288 0.37004 0.0
C2084 C 0.55363 0.50978 0.35911 0.0
C2085 C 0.54028 0.49989 0.33961 0.0
C2086 C 0.53733 0.4831 0.33093 0.0
C2087 C 0.48002 0.39237 0.36357 0.0
C2088 C 0.47246 0.37875 0.34355 0.0
C2089 C 0.49648 0.40798 0.35862 0.0
C2090 C 0.50548 0.41036 0.33339 0.0
C2091 C 0.49719 0.39729 0.31267 0.0
C2092 C 0.48102 0.38148 0.3179 0.0
C2093 C 0.52395 0.42588 0.32934 0.0
C2094 C 0.52744 0.44331 0.33554 0.0
C2095 C 0.53823 0.42349 0.31978 0.0
C2096 C 0.5361 0.40542 0.31554 0.0
C2097 C 0.54009 0.4007 0.28982 0.0
C2098 C 0.53796 0.38362 0.28578 0.0
C2099 C 0.53193 0.37119 0.30737 0.0
C2100 C 0.5281 0.37582 0.33309 0.0
C2101 C 0.53024 0.39289 0.33725 0.0
H2102 H 0.53026 0.35797 0.30419 0.0
H2103 H 0.5559 0.52277 0.36578 0.0
H2104 H 0.46766 0.07479 0.31478 0.0
H2105 H 0.49315 0.06975 0.32125 0.0
H2106 H 0.52927 0.1228 0.2897 0.0
H2107 H 0.50403 0.12792 0.28305 0.0
H2108 H 0.5366 0.09776 0.26836 0.0
H2109 H 0.52537 0.11497 0.35816 0.0
H2110 H 0.50678 0.11199 0.3988 0.0
H2111 H 0.498 0.05892 0.41363 0.0
H2112 H 0.51636 0.0615 0.37282 0.0
H2113 H 0.62264 0.12062 0.31744 0.0
H2114 H 0.5938 0.11838 0.30667 0.0
H2115 H 0.56592 0.06641 0.34597 0.0
H2116 H 0.59484 0.06873 0.35734 0.0
H2117 H 0.55215 0.08649 0.36201 0.0
H2118 H 0.56612 0.07042 0.2753 0.0
H2119 H 0.58473 0.07328 0.23478 0.0
H2120 H 0.58812 0.12342 0.21367 0.0
H2121 H 0.56972 0.121 0.25429 0.0
C2122 C 0.48102 0.08534 0.3091 0.0
C2123 C 0.4838 0.1018 0.29852 0.0
C2124 C 0.49557 0.08246 0.31288 0.0
C2125 C 0.51312 0.09595 0.30612 0.0
C2126 C 0.51584 0.1122 0.29502 0.0
C2127 C 0.50138 0.11512 0.29136 0.0
C2128 C 0.52882 0.09351 0.31113 0.0
C2129 C 0.54007 0.0954 0.28885 0.0
C2130 C 0.53304 0.08988 0.33772 0.0
C2131 C 0.52204 0.08834 0.36227 0.0
C2132 C 0.51935 0.10261 0.36995 0.0
C2133 C 0.50888 0.101 0.39304 0.0
C2134 C 0.50117 0.08525 0.40874 0.0
C2135 C 0.50395 0.07109 0.40142 0.0
C2136 C 0.51439 0.07262 0.37833 0.0
C2137 C 0.61038 0.10865 0.32363 0.0
C2138 C 0.61102 0.09485 0.33823 0.0
C2139 C 0.59388 0.10734 0.31733 0.0
C2140 C 0.57766 0.09211 0.32519 0.0
C2141 C 0.57826 0.07825 0.33964 0.0
C2142 C 0.59478 0.07958 0.34606 0.0
C2143 C 0.56019 0.09111 0.3193 0.0
C2144 C 0.54858 0.08858 0.34142 0.0
C2145 C 0.55561 0.09409 0.29251 0.0
C2146 C 0.56664 0.09558 0.26798 0.0
C2147 C 0.57094 0.08212 0.26213 0.0
C2148 C 0.58143 0.08365 0.23912 0.0
C2149 C 0.58763 0.09854 0.22169 0.0
C2150 C 0.58331 0.1119 0.2272 0.0
C2151 C 0.57283 0.11044 0.25019 0.0
H2152 H 0.59576 0.0997 0.20389 0.0
H2153 H 0.49307 0.08404 0.42661 0.0
H2154 H 0.8621 0.59855 0.79422 0.0
H2155 H 0.83374 0.59841 0.80185 0.0
H2156 H 0.80996 0.54476 0.83509 0.0
H2157 H 0.83807 0.54477 0.82755 0.0
H2158 H 0.78902 0.54799 0.79522 0.0
H2159 H 0.82204 0.58005 0.87696 0.0
H2160 H 0.84753 0.60464 0.90184 0.0
H2161 H 0.8375 0.64329 0.86153 0.0
H2162 H 0.81208 0.61892 0.83611 0.0
H2163 H 0.7104 0.52883 0.86331 0.0
H2164 H 0.74092 0.53603 0.85234 0.0
H2165 H 0.75361 0.58899 0.82574 0.0
H2166 H 0.72287 0.58197 0.83715 0.0
H2167 H 0.78096 0.58979 0.8563 0.0
H2168 H 0.74627 0.55793 0.77801 0.0
H2169 H 0.72072 0.53363 0.75282 0.0
H2170 H 0.7341 0.49519 0.78497 0.0
H2171 H 0.75958 0.51922 0.81069 0.0
C2172 C 0.85086 0.58679 0.80336 0.0
C2173 C 0.85229 0.57164 0.81019 0.0
C2174 C 0.8347 0.58676 0.80775 0.0
C2175 C 0.81977 0.57157 0.81902 0.0
C2176 C 0.82131 0.55659 0.82627 0.0
C2177 C 0.83741 0.55664 0.82202 0.0
C2178 C 0.80221 0.57078 0.82239 0.0
C2179 C 0.78723 0.55705 0.80872 0.0
C2180 C 0.80004 0.58307 0.83912 0.0
C2181 C 0.81531 0.59769 0.85439 0.0
C2182 C 0.82538 0.59381 0.87321 0.0
C2183 C 0.83979 0.6077 0.88745 0.0
C2184 C 0.84417 0.62552 0.8832 0.0
C2185 C 0.83412 0.62948 0.86475 0.0
C2186 C 0.8197 0.61564 0.85044 0.0
C2187 C 0.71961 0.54204 0.85514 0.0
C2188 C 0.7141 0.55477 0.85088 0.0
C2189 C 0.73708 0.54611 0.84881 0.0
C2190 C 0.74944 0.56292 0.83775 0.0
C2191 C 0.74422 0.57589 0.83411 0.0
C2192 C 0.72666 0.57184 0.84057 0.0
C2193 C 0.76768 0.56659 0.82986 0.0
C2194 C 0.78278 0.58088 0.84251 0.0
C2195 C 0.77004 0.55489 0.81201 0.0
C2196 C 0.75478 0.54038 0.79642 0.0
C2197 C 0.74369 0.54428 0.77986 0.0
C2198 C 0.72923 0.53055 0.76547 0.0
C2199 C 0.72578 0.51288 0.76733 0.0
C2200 C 0.7368 0.50889 0.78355 0.0
C2201 C 0.75127 0.52257 0.79802 0.0
H2202 H 0.71457 0.50227 0.75617 0.0
H2203 H 0.85533 0.63625 0.89425 0.0
H2204 H 0.40801 0.13512 0.8515 0.0
H2205 H 0.40302 0.16032 0.84228 0.0
H2206 H 0.45478 0.19695 0.87775 0.0
H2207 H 0.45978 0.17194 0.88734 0.0
H2208 H 0.42961 0.20477 0.89461 0.0
H2209 H 0.44903 0.19215 0.80811 0.0
H2210 H 0.44745 0.17306 0.76898 0.0
H2211 H 0.39449 0.16321 0.74908 0.0
H2212 H 0.39568 0.18207 0.78834 0.0
H2213 H 0.45144 0.28902 0.83835 0.0
H2214 H 0.45004 0.26093 0.85158 0.0
H2215 H 0.39799 0.23084 0.81282 0.0
H2216 H 0.39939 0.25896 0.79917 0.0
H2217 H 0.41963 0.21787 0.79861 0.0
H2218 H 0.40158 0.23312 0.88276 0.0
H2219 H 0.40359 0.25257 0.9216 0.0
H2220 H 0.45409 0.25773 0.94597 0.0
H2221 H 0.45251 0.23851 0.90704 0.0
C2222 C 0.41829 0.14853 0.85746 0.0
C2223 C 0.43434 0.1515 0.87003 0.0
C2224 C 0.41544 0.16292 0.8521 0.0
C2225 C 0.42861 0.18054 0.85909 0.0
C2226 C 0.44443 0.18347 0.87219 0.0
C2227 C 0.44729 0.16913 0.87756 0.0
C2228 C 0.42624 0.19607 0.85228 0.0
C2229 C 0.42755 0.20772 0.8736 0.0
C2230 C 0.42306 0.19963 0.82497 0.0
C2231 C 0.42236 0.18834 0.80134 0.0
C2232 C 0.43699 0.18579 0.79552 0.0
C2233 C 0.43618 0.17503 0.7733 0.0
C2234 C 0.42085 0.16688 0.75661 0.0
C2235 C 0.40634 0.1695 0.76206 0.0
C2236 C 0.40707 0.18023 0.78428 0.0
C2237 C 0.43963 0.27643 0.83278 0.0
C2238 C 0.42552 0.27621 0.81772 0.0
C2239 C 0.43881 0.26038 0.84047 0.0
C2240 C 0.42381 0.24377 0.83346 0.0
C2241 C 0.40966 0.2435 0.81851 0.0
C2242 C 0.41047 0.25958 0.81078 0.0
C2243 C 0.4233 0.22676 0.84089 0.0
C2244 C 0.42145 0.21483 0.81969 0.0
C2245 C 0.42601 0.22295 0.86831 0.0
C2246 C 0.42698 0.23448 0.89183 0.0
C2247 C 0.41318 0.23851 0.89627 0.0
C2248 C 0.41423 0.24948 0.91833 0.0
C2249 C 0.42898 0.25641 0.93621 0.0
C2250 C 0.44268 0.25236 0.9321 0.0
C2251 C 0.4417 0.24141 0.91006 0.0
H2252 H 0.42977 0.2649 0.95327 0.0
H2253 H 0.42025 0.15856 0.73941 0.0
H2254 H 0.72788 0.13426 0.7945 0.0
H2255 H 0.75566 0.16251 0.80433 0.0
H2256 H 0.72482 0.18279 0.84542 0.0
H2257 H 0.69711 0.15477 0.83562 0.0
H2258 H 0.7483 0.20646 0.80768 0.0
H2259 H 0.74931 0.16943 0.8818 0.0
H2260 H 0.74883 0.14262 0.90102 0.0
H2261 H 0.79729 0.15571 0.85697 0.0
H2262 H 0.79788 0.18244 0.83707 0.0
H2263 H 0.81236 0.28358 0.87564 0.0
H2264 H 0.7878 0.25333 0.86623 0.0
H2265 H 0.82516 0.2395 0.82985 0.0
H2266 H 0.85004 0.26983 0.83963 0.0
H2267 H 0.80005 0.2121 0.86163 0.0
H2268 H 0.79991 0.24933 0.78866 0.0
H2269 H 0.80032 0.27571 0.7678 0.0
H2270 H 0.75038 0.26183 0.80782 0.0
H2271 H 0.74979 0.2355 0.82925 0.0
C2272 C 0.72705 0.1447 0.80581 0.0
C2273 C 0.71031 0.14233 0.81419 0.0
C2274 C 0.74293 0.16079 0.81146 0.0
C2275 C 0.74228 0.17472 0.82563 0.0
C2276 C 0.7256 0.17223 0.83439 0.0
C2277 C 0.70978 0.15618 0.82884 0.0
C2278 C 0.75881 0.19221 0.8305 0.0
C2279 C 0.75953 0.20771 0.81972 0.0
C2280 C 0.77371 0.19373 0.84537 0.0
C2281 C 0.77353 0.17783 0.8577 0.0
C2282 C 0.75979 0.16652 0.87603 0.0
C2283 C 0.7595 0.15135 0.88708 0.0
C2284 C 0.77299 0.14744 0.88016 0.0
C2285 C 0.78683 0.15874 0.86227 0.0
C2286 C 0.78715 0.17391 0.8511 0.0
C2287 C 0.81543 0.27414 0.86572 0.0
C2288 C 0.83317 0.27921 0.85814 0.0
C2289 C 0.80134 0.25683 0.86031 0.0
C2290 C 0.80461 0.24426 0.84692 0.0
C2291 C 0.82235 0.24904 0.84011 0.0
C2292 C 0.83653 0.26639 0.84564 0.0
C2293 C 0.78931 0.22638 0.83937 0.0
C2294 C 0.78885 0.21082 0.84947 0.0
C2295 C 0.77464 0.22473 0.8237 0.0
C2296 C 0.77489 0.24052 0.81074 0.0
C2297 C 0.78908 0.25198 0.79317 0.0
C2298 C 0.78934 0.26691 0.78122 0.0
C2299 C 0.77541 0.27047 0.78653 0.0
C2300 C 0.76117 0.25907 0.80374 0.0
C2301 C 0.76086 0.24412 0.81578 0.0
H2302 H 0.77563 0.28204 0.77725 0.0
H2303 H 0.77273 0.13567 0.8887 0.0
H2304 H 0.42602 0.13756 0.36268 0.0
H2305 H 0.42481 0.16473 0.37347 0.0
H2306 H 0.39913 0.16068 0.29502 0.0
H2307 H 0.39917 0.13281 0.28525 0.0
H2308 H 0.44123 0.19448 0.35256 0.0
H2309 H 0.37763 0.18398 0.29225 0.0
H2310 H 0.34678 0.15955 0.28241 0.0
H2311 H 0.34802 0.13115 0.35451 0.0
H2312 H 0.37877 0.15551 0.365 0.0
H2313 H 0.45423 0.27886 0.32434 0.0
H2314 H 0.44648 0.24755 0.31925 0.0
H2315 H 0.39913 0.23088 0.36936 0.0
H2316 H 0.40634 0.26229 0.37306 0.0
H2317 H 0.39155 0.2066 0.33284 0.0
H2318 H 0.43941 0.23582 0.39666 0.0
H2319 H 0.46873 0.25935 0.41454 0.0
H2320 H 0.49591 0.24797 0.35009 0.0
H2321 H 0.46673 0.22453 0.33158 0.0
C2322 C 0.41976 0.1423 0.34808 0.0
C2323 C 0.41265 0.13313 0.32321 0.0
C2324 C 0.41913 0.15787 0.35417 0.0
C2325 C 0.41181 0.16486 0.33516 0.0
C2326 C 0.40441 0.15543 0.31044 0.0
C2327 C 0.40455 0.13954 0.30475 0.0
C2328 C 0.41348 0.18277 0.34005 0.0
C2329 C 0.43026 0.19699 0.34843 0.0
C2330 C 0.39914 0.18618 0.33533 0.0
C2331 C 0.38058 0.17152 0.32926 0.0
C2332 C 0.37129 0.17256 0.30608 0.0
C2333 C 0.35383 0.15871 0.30037 0.0
C2334 C 0.34547 0.14379 0.31778 0.0
C2335 C 0.35454 0.14269 0.34098 0.0
C2336 C 0.372 0.1565 0.34679 0.0
C2337 C 0.44203 0.26848 0.33395 0.0
C2338 C 0.43097 0.27296 0.34932 0.0
C2339 C 0.43767 0.2506 0.3312 0.0
C2340 C 0.42252 0.23686 0.34466 0.0
C2341 C 0.41096 0.24123 0.35895 0.0
C2342 C 0.41508 0.25916 0.36108 0.0
C2343 C 0.41935 0.21817 0.34472 0.0
C2344 C 0.40237 0.2039 0.33724 0.0
C2345 C 0.43325 0.21449 0.3515 0.0
C2346 C 0.45087 0.22851 0.36262 0.0
C2347 C 0.45163 0.23841 0.3862 0.0
C2348 C 0.46823 0.25172 0.39645 0.0
C2349 C 0.48417 0.25518 0.38342 0.0
C2350 C 0.48355 0.24529 0.36015 0.0
C2351 C 0.46699 0.23197 0.34978 0.0
H2352 H 0.497 0.26549 0.39139 0.0
H2353 H 0.33195 0.13308 0.31332 0.0
H2354 H 0.85542 0.28806 0.35672 0.0
H2355 H 0.82822 0.26022 0.36967 0.0
H2356 H 0.82599 0.23895 0.28808 0.0
H2357 H 0.8539 0.26622 0.27598 0.0
H2358 H 0.79725 0.24778 0.35438 0.0
H2359 H 0.80133 0.19448 0.2842 0.0
H2360 H 0.82425 0.18728 0.26794 0.0
H2361 H 0.85783 0.21527 0.33722 0.0
H2362 H 0.83502 0.22243 0.35411 0.0
H2363 H 0.71034 0.17897 0.33159 0.0
H2364 H 0.74168 0.20224 0.32557 0.0
H2365 H 0.75886 0.1686 0.36611 0.0
H2366 H 0.72732 0.14475 0.37072 0.0
H2367 H 0.78149 0.18583 0.32802 0.0
H2368 H 0.75747 0.20416 0.40047 0.0
H2369 H 0.73594 0.21052 0.42453 0.0
H2370 H 0.74533 0.25122 0.36482 0.0
H2371 H 0.76673 0.24493 0.34017 0.0
C2372 C 0.84927 0.27724 0.34182 0.0
C2373 C 0.85673 0.27921 0.31543 0.0
C2374 C 0.83369 0.26135 0.34915 0.0
C2375 C 0.82497 0.24728 0.32998 0.0
C2376 C 0.83261 0.24926 0.30362 0.0
C2377 C 0.84852 0.26493 0.2966 0.0
C2378 C 0.80716 0.23132 0.33674 0.0
C2379 C 0.79395 0.23425 0.34878 0.0
C2380 C 0.80277 0.21349 0.33021 0.0
C2381 C 0.81651 0.20912 0.32029 0.0
C2382 C 0.81356 0.19903 0.29604 0.0
C2383 C 0.82655 0.19497 0.28669 0.0
C2384 C 0.8425 0.20086 0.30149 0.0
C2385 C 0.84549 0.21077 0.32572 0.0
C2386 C 0.83255 0.21486 0.33516 0.0
C2387 C 0.7208 0.17648 0.33904 0.0
C2388 C 0.71642 0.16014 0.35188 0.0
C2389 C 0.73873 0.18984 0.33576 0.0
C2390 C 0.75269 0.18745 0.34614 0.0
C2391 C 0.74836 0.17085 0.3581 0.0
C2392 C 0.73035 0.15724 0.36076 0.0
C2393 C 0.77165 0.20248 0.34491 0.0
C2394 C 0.78499 0.19937 0.33389 0.0
C2395 C 0.77645 0.22007 0.35359 0.0
C2396 C 0.76362 0.22398 0.36837 0.0
C2397 C 0.75486 0.21439 0.39238 0.0
C2398 C 0.74269 0.21799 0.40613 0.0
C2399 C 0.73925 0.23125 0.39618 0.0
C2400 C 0.748 0.24095 0.37249 0.0
C2401 C 0.76017 0.23739 0.35864 0.0
H2402 H 0.72981 0.23402 0.40686 0.0
H2403 H 0.85254 0.19771 0.29422 0.0
H2404 H 0.86049 0.5847 0.33585 0.0
H2405 H 0.83582 0.59022 0.3241 0.0
H2406 H 0.79725 0.53678 0.35152 0.0
H2407 H 0.82153 0.5311 0.3629 0.0
H2408 H 0.78789 0.54376 0.30261 0.0
H2409 H 0.80812 0.57412 0.3907 0.0
H2410 H 0.83041 0.59633 0.42287 0.0
H2411 H 0.83835 0.63918 0.36855 0.0
H2412 H 0.81625 0.61717 0.33587 0.0
H2413 H 0.70643 0.54029 0.32873 0.0
H2414 H 0.73558 0.54227 0.33504 0.0
H2415 H 0.76196 0.59457 0.29676 0.0
H2416 H 0.73267 0.59271 0.29032 0.0
H2417 H 0.78002 0.5921 0.34449 0.0
H2418 H 0.75681 0.56143 0.2591 0.0
H2419 H 0.73385 0.53891 0.22805 0.0
H2420 H 0.73135 0.49638 0.27783 0.0
H2421 H 0.7541 0.51864 0.30944 0.0
C2422 C 0.84675 0.57416 0.33942 0.0
C2423 C 0.84302 0.55744 0.35026 0.0
C2424 C 0.83268 0.57735 0.33277 0.0
C2425 C 0.81469 0.56391 0.33698 0.0
C2426 C 0.81101 0.54731 0.34794 0.0
C2427 C 0.82497 0.54412 0.35452 0.0
C2428 C 0.79945 0.5667 0.32972 0.0
C2429 C 0.78616 0.5543 0.31187 0.0
C2430 C 0.79745 0.58079 0.34108 0.0
C2431 C 0.81072 0.594 0.3607 0.0
C2432 C 0.81474 0.58827 0.38551 0.0
C2433 C 0.82731 0.60082 0.40385 0.0
C2434 C 0.83584 0.61915 0.39771 0.0
C2435 C 0.83177 0.62497 0.37325 0.0
C2436 C 0.81922 0.61247 0.35481 0.0
C2437 C 0.71841 0.55228 0.32179 0.0
C2438 C 0.71724 0.56628 0.30882 0.0
C2439 C 0.73506 0.55337 0.32536 0.0
C2440 C 0.75088 0.56847 0.31605 0.0
C2441 C 0.74988 0.58279 0.304 0.0
C2442 C 0.73316 0.58168 0.30027 0.0
C2443 C 0.76826 0.56877 0.3182 0.0
C2444 C 0.78194 0.58176 0.33492 0.0
C2445 C 0.77064 0.55518 0.30587 0.0
C2446 C 0.75708 0.54172 0.28675 0.0
C2447 C 0.75127 0.54727 0.26354 0.0
C2448 C 0.73831 0.53455 0.24582 0.0
C2449 C 0.73113 0.51623 0.25099 0.0
C2450 C 0.73693 0.51058 0.27385 0.0
C2451 C 0.74987 0.52325 0.29166 0.0
H2452 H 0.72108 0.5064 0.23725 0.0
H2453 H 0.84556 0.62885 0.41195 0.0
H2454 H 0.59728 0.07214 0.81206 0.0
H2455 H 0.56635 0.06372 0.82494 0.0
H2456 H 0.5789 0.1185 0.8126 0.0
H2457 H 0.60954 0.12701 0.79999 0.0
H2458 H 0.56153 0.10502 0.86094 0.0
H2459 H 0.55543 0.08623 0.76492 0.0
H2460 H 0.55761 0.0687 0.72634 0.0
H2461 H 0.52229 0.01959 0.76878 0.0
H2462 H 0.52009 0.03686 0.80779 0.0
H2463 H 0.48533 0.1112 0.83667 0.0
H2464 H 0.51262 0.10958 0.82993 0.0
H2465 H 0.48458 0.05395 0.85483 0.0
H2466 H 0.45696 0.05545 0.86179 0.0
H2467 H 0.50786 0.06192 0.80729 0.0
H2468 H 0.51035 0.0812 0.90012 0.0
H2469 H 0.50778 0.09915 0.93767 0.0
H2470 H 0.54992 0.14747 0.90118 0.0
H2471 H 0.55255 0.12985 0.86315 0.0
C2472 C 0.59341 0.08236 0.81206 0.0
C2473 C 0.60591 0.10025 0.80501 0.0
C2474 C 0.57575 0.07752 0.81937 0.0
C2475 C 0.57035 0.0905 0.81971 0.0
C2476 C 0.5828 0.10829 0.81262 0.0
C2477 C 0.60034 0.11311 0.80531 0.0
C2478 C 0.55185 0.08594 0.82753 0.0
C2479 C 0.5498 0.09559 0.84921 0.0
C2480 C 0.53647 0.07318 0.81284 0.0
C2481 C 0.53779 0.06283 0.7894 0.0
C2482 C 0.54826 0.0717 0.76613 0.0
C2483 C 0.54948 0.06181 0.74416 0.0
C2484 C 0.54015 0.04305 0.74515 0.0
C2485 C 0.52954 0.03413 0.76807 0.0
C2486 C 0.5283 0.04396 0.7901 0.0
C2487 C 0.48486 0.09856 0.84057 0.0
C2488 C 0.46902 0.08348 0.84999 0.0
C2489 C 0.5005 0.09768 0.83675 0.0
C2490 C 0.50064 0.08172 0.84222 0.0
C2491 C 0.48471 0.0664 0.85061 0.0
C2492 C 0.469 0.0673 0.85464 0.0
C2493 C 0.51776 0.08156 0.83992 0.0
C2494 C 0.51954 0.07102 0.81942 0.0
C2495 C 0.53295 0.09352 0.85568 0.0
C2496 C 0.53157 0.10419 0.87868 0.0
C2497 C 0.51899 0.09567 0.89999 0.0
C2498 C 0.51753 0.10578 0.92138 0.0
C2499 C 0.52867 0.12444 0.92179 0.0
C2500 C 0.54131 0.13302 0.90083 0.0
C2501 C 0.5428 0.12297 0.87937 0.0
H2502 H 0.52752 0.13225 0.93836 0.0
H2503 H 0.5411 0.03541 0.72812 0.0
H2504 H 0.866 0.48535 0.78173 0.0
H2505 H 0.8724 0.46156 0.79299 0.0
H2506 H 0.92525 0.5008 0.82177 0.0
H2507 H 0.91899 0.52503 0.81029 0.0
H2508 H 0.92493 0.4729 0.7902 0.0
H2509 H 0.89482 0.47874 0.86857 0.0
H2510 H 0.87147 0.48182 0.89353 0.0
H2511 H 0.83086 0.43053 0.86278 0.0
H2512 H 0.85394 0.42725 0.83728 0.0
H2513 H 0.92908 0.39816 0.8531 0.0
H2514 H 0.9309 0.42724 0.84507 0.0
H2515 H 0.87656 0.3999 0.81375 0.0
H2516 H 0.87462 0.37096 0.82172 0.0
H2517 H 0.88186 0.42497 0.85287 0.0
H2518 H 0.9119 0.42091 0.77082 0.0
H2519 H 0.9353 0.41799 0.74568 0.0
H2520 H 0.97637 0.4661 0.78426 0.0
H2521 H 0.95321 0.46915 0.80995 0.0
C2522 C 0.87905 0.48905 0.79037 0.0
C2523 C 0.89192 0.50715 0.79536 0.0
C2524 C 0.88266 0.47538 0.79683 0.0
C2525 C 0.89918 0.47939 0.80862 0.0
C2526 C 0.91238 0.49744 0.8128 0.0
C2527 C 0.90876 0.51124 0.8063 0.0
C2528 C 0.90211 0.46447 0.8171 0.0
C2529 C 0.91577 0.46259 0.80436 0.0
C2530 C 0.89006 0.45097 0.8354 0.0
C2531 C 0.87612 0.4528 0.85088 0.0
C2532 C 0.8809 0.46817 0.86697 0.0
C2533 C 0.86771 0.46994 0.88124 0.0
C2534 C 0.84969 0.45639 0.87971 0.0
C2535 C 0.84483 0.44101 0.86395 0.0
C2536 C 0.85796 0.43918 0.84961 0.0
C2537 C 0.91758 0.39838 0.8443 0.0
C2538 C 0.90168 0.38226 0.83815 0.0
C2539 C 0.91866 0.41499 0.83967 0.0
C2540 C 0.90385 0.41571 0.82884 0.0
C2541 C 0.88812 0.39964 0.82224 0.0
C2542 C 0.88705 0.3831 0.82674 0.0
C2543 C 0.90426 0.43305 0.82524 0.0
C2544 C 0.89122 0.43541 0.83906 0.0
C2545 C 0.91693 0.44695 0.80806 0.0
C2546 C 0.93084 0.44513 0.79257 0.0
C2547 C 0.92593 0.43077 0.77414 0.0
C2548 C 0.93915 0.42911 0.75975 0.0
C2549 C 0.95732 0.44182 0.76344 0.0
C2550 C 0.9623 0.45624 0.78147 0.0
C2551 C 0.94913 0.45795 0.79594 0.0
H2552 H 0.96753 0.44051 0.75228 0.0
H2553 H 0.8395 0.45779 0.89077 0.0
H2554 H 0.62151 0.50402 0.81557 0.0
H2555 H 0.59286 0.47757 0.8041 0.0
H2556 H 0.56453 0.50007 0.84679 0.0
H2557 H 0.59336 0.52664 0.85878 0.0
H2558 H 0.55151 0.46553 0.86067 0.0
H2559 H 0.5634 0.49778 0.77668 0.0
H2560 H 0.58118 0.51542 0.73667 0.0
H2561 H 0.58726 0.47112 0.70983 0.0
H2562 H 0.56973 0.45329 0.7499 0.0
H2563 H 0.47038 0.38824 0.81138 0.0
H2564 H 0.49323 0.41984 0.81888 0.0
H2565 H 0.53394 0.40963 0.78576 0.0
H2566 H 0.51138 0.37827 0.77819 0.0
H2567 H 0.53682 0.4409 0.76565 0.0
H2568 H 0.52908 0.41115 0.85421 0.0
H2569 H 0.51143 0.39371 0.8945 0.0
H2570 H 0.49717 0.43399 0.91224 0.0
H2571 H 0.51457 0.45155 0.87181 0.0
C2572 C 0.6092 0.50345 0.82238 0.0
C2573 C 0.60971 0.51744 0.83808 0.0
C2574 C 0.59281 0.48834 0.81566 0.0
C2575 C 0.57652 0.48694 0.82424 0.0
C2576 C 0.57694 0.50091 0.83985 0.0
C2577 C 0.5934 0.51609 0.84663 0.0
C2578 C 0.55924 0.47043 0.81786 0.0
C2579 C 0.54806 0.46035 0.83981 0.0
C2580 C 0.55481 0.46358 0.79067 0.0
C2581 C 0.56531 0.47422 0.76642 0.0
C2582 C 0.56862 0.49183 0.76236 0.0
C2583 C 0.57865 0.50187 0.73964 0.0
C2584 C 0.58537 0.49441 0.72074 0.0
C2585 C 0.58205 0.47688 0.72449 0.0
C2586 C 0.57204 0.46679 0.74718 0.0
C2587 C 0.48419 0.39277 0.80558 0.0
C2588 C 0.48906 0.3807 0.79432 0.0
C2589 C 0.49722 0.4108 0.80993 0.0
C2590 C 0.51528 0.41703 0.80298 0.0
C2591 C 0.52007 0.4051 0.79121 0.0
C2592 C 0.50714 0.38713 0.78704 0.0
C2593 C 0.5295 0.43582 0.80853 0.0
C2594 C 0.54008 0.4463 0.78641 0.0
C2595 C 0.53332 0.44307 0.83551 0.0
C2596 C 0.52292 0.43253 0.85981 0.0
C2597 C 0.52205 0.4162 0.86657 0.0
C2598 C 0.51212 0.40632 0.88945 0.0
C2599 C 0.50313 0.41271 0.90586 0.0
C2600 C 0.5041 0.42903 0.89947 0.0
C2601 C 0.514 0.43896 0.87659 0.0
H2602 H 0.49546 0.40504 0.92357 0.0
H2603 H 0.59313 0.5022 0.70317 0.0
H2604 H 0.52769 0.70926 0.62365 0.0
H2605 H 0.53488 0.74017 0.63085 0.0
H2606 H 0.58814 0.75421 0.65837 0.0
H2607 H 0.58103 0.72303 0.65126 0.0
H2608 H 0.57157 0.76824 0.6919 0.0
H2609 H 0.58395 0.76719 0.59628 0.0
H2610 H 0.57803 0.75543 0.54874 0.0
H2611 H 0.53183 0.7623 0.54433 0.0
H2612 H 0.53731 0.77385 0.59202 0.0
H2613 H 0.59467 0.86069 0.69127 0.0
H2614 H 0.59552 0.83313 0.68161 0.0
H2615 H 0.5423 0.80923 0.64632 0.0
H2616 H 0.54146 0.83673 0.65554 0.0
H2617 H 0.56391 0.80218 0.61532 0.0
H2618 H 0.54921 0.79947 0.71213 0.0
H2619 H 0.5542 0.81047 0.76011 0.0
H2620 H 0.60412 0.81021 0.76242 0.0
H2621 H 0.59952 0.79943 0.71429 0.0
C2622 C 0.54096 0.71885 0.63126 0.0
C2623 C 0.55381 0.71364 0.63679 0.0
C2624 C 0.54507 0.73657 0.63524 0.0
C2625 C 0.56212 0.74953 0.64478 0.0
C2626 C 0.57492 0.7444 0.65085 0.0
C2627 C 0.57085 0.72661 0.64673 0.0
C2628 C 0.56625 0.76835 0.64852 0.0
C2629 C 0.57029 0.77585 0.67506 0.0
C2630 C 0.56428 0.77812 0.6266 0.0
C2631 C 0.56099 0.77129 0.59782 0.0
C2632 C 0.57245 0.76608 0.58526 0.0
C2633 C 0.56919 0.75947 0.55826 0.0
C2634 C 0.55455 0.75809 0.54354 0.0
C2635 C 0.54317 0.76337 0.55576 0.0
C2636 C 0.54636 0.76997 0.58277 0.0
C2637 C 0.5832 0.84959 0.68132 0.0
C2638 C 0.56796 0.85085 0.67429 0.0
C2639 C 0.58368 0.83383 0.67591 0.0
C2640 C 0.56889 0.81905 0.66351 0.0
C2641 C 0.55387 0.82047 0.6559 0.0
C2642 C 0.55338 0.83619 0.66126 0.0
C2643 C 0.56878 0.80191 0.65885 0.0
C2644 C 0.56549 0.79472 0.63209 0.0
C2645 C 0.57138 0.79241 0.68059 0.0
C2646 C 0.57413 0.79886 0.70952 0.0
C2647 C 0.56132 0.8019 0.7228 0.0
C2648 C 0.56407 0.80808 0.75003 0.0
C2649 C 0.5795 0.8111 0.76428 0.0
C2650 C 0.59219 0.80791 0.75134 0.0
C2651 C 0.58952 0.80176 0.72409 0.0
H2652 H 0.58159 0.81587 0.78536 0.0
H2653 H 0.55204 0.75297 0.52264 0.0
H2654 H 0.13044 0.73069 0.68962 0.0
H2655 H 0.15782 0.75989 0.6827 0.0
H2656 H 0.18561 0.73292 0.6533 0.0
H2657 H 0.1585 0.70388 0.66007 0.0
H2658 H 0.20449 0.7581 0.69349 0.0
H2659 H 0.17189 0.75357 0.60909 0.0
H2660 H 0.14608 0.75062 0.58239 0.0
H2661 H 0.15245 0.7988 0.61968 0.0
H2662 H 0.17816 0.80189 0.6469 0.0
H2663 H 0.28159 0.81693 0.62249 0.0
H2664 H 0.25148 0.79353 0.63507 0.0
H2665 H 0.23782 0.83366 0.65861 0.0
H2666 H 0.26823 0.85748 0.64575 0.0
H2667 H 0.21056 0.80541 0.62842 0.0
H2668 H 0.24536 0.81223 0.70833 0.0
H2669 H 0.27129 0.81557 0.7351 0.0
H2670 H 0.26058 0.76358 0.70784 0.0
H2671 H 0.23474 0.76004 0.68055 0.0
C2672 C 0.14236 0.73102 0.6815 0.0
C2673 C 0.14233 0.71497 0.67548 0.0
C2674 C 0.15796 0.74769 0.67751 0.0
C2675 C 0.17373 0.74855 0.66752 0.0
C2676 C 0.1736 0.73255 0.66114 0.0
C2677 C 0.15806 0.71596 0.66495 0.0
C2678 C 0.19069 0.76594 0.66443 0.0
C2679 C 0.20583 0.76841 0.67918 0.0
C2680 C 0.19225 0.77971 0.64663 0.0
C2681 C 0.17679 0.77782 0.6303 0.0
C2682 C 0.16768 0.76343 0.6118 0.0
C2683 C 0.15309 0.76176 0.59653 0.0
C2684 C 0.14759 0.77448 0.59941 0.0
C2685 C 0.15669 0.78893 0.61752 0.0
C2686 C 0.17128 0.79065 0.63287 0.0
C2687 C 0.27227 0.82091 0.63032 0.0
C2688 C 0.27742 0.83915 0.63327 0.0
C2689 C 0.25503 0.80746 0.63759 0.0
C2690 C 0.2425 0.81185 0.64817 0.0
C2691 C 0.24735 0.83 0.65061 0.0
C2692 C 0.26472 0.84358 0.64333 0.0
C2693 C 0.22447 0.7972 0.65669 0.0
C2694 C 0.20914 0.79525 0.64311 0.0
C2695 C 0.22266 0.78391 0.67575 0.0
C2696 C 0.23815 0.78592 0.69226 0.0
C2697 C 0.2486 0.80156 0.70788 0.0
C2698 C 0.26328 0.80348 0.72317 0.0
C2699 C 0.2676 0.78981 0.72314 0.0
C2700 C 0.25722 0.77416 0.70785 0.0
C2701 C 0.24254 0.77218 0.69249 0.0
H2702 H 0.27897 0.79132 0.73499 0.0
H2703 H 0.1363 0.77317 0.58756 0.0
H2704 H 0.28791 0.4438 0.65673 0.0
H2705 H 0.25914 0.4428 0.65144 0.0
H2706 H 0.23195 0.39087 0.69085 0.0
H2707 H 0.26083 0.39173 0.69623 0.0
H2708 H 0.2132 0.3939 0.64423 0.0
H2709 H 0.2396 0.42471 0.7286 0.0
H2710 H 0.26395 0.44692 0.75821 0.0
H2711 H 0.26693 0.48988 0.70897 0.0
H2712 H 0.24279 0.46791 0.67879 0.0
H2713 H 0.13514 0.40504 0.65999 0.0
H2714 H 0.15928 0.39817 0.66878 0.0
H2715 H 0.19858 0.45124 0.64095 0.0
H2716 H 0.17487 0.45826 0.63264 0.0
H2717 H 0.2088 0.44374 0.6881 0.0
H2718 H 0.18498 0.41318 0.60102 0.0
H2719 H 0.16134 0.39125 0.57015 0.0
H2720 H 0.15368 0.34815 0.62365 0.0
H2721 H 0.17714 0.36987 0.65504 0.0
C2722 C 0.27582 0.43207 0.66408 0.0
C2723 C 0.27667 0.41792 0.67715 0.0
C2724 C 0.25939 0.43154 0.66107 0.0
C2725 C 0.24347 0.41686 0.67108 0.0
C2726 C 0.24411 0.40233 0.68307 0.0
C2727 C 0.26061 0.40288 0.6862 0.0
C2728 C 0.22645 0.41734 0.67013 0.0
C2729 C 0.21205 0.40459 0.6542 0.0
C2730 C 0.22507 0.43137 0.68302 0.0
C2731 C 0.23946 0.44465 0.70132 0.0
C2732 C 0.24553 0.43889 0.72397 0.0
C2733 C 0.25928 0.45144 0.74087 0.0
C2734 C 0.267 0.4698 0.73545 0.0
C2735 C 0.26095 0.47565 0.71314 0.0
C2736 C 0.24721 0.46316 0.69615 0.0
C2737 C 0.14893 0.41519 0.65567 0.0
C2738 C 0.15306 0.43223 0.64575 0.0
C2739 C 0.16269 0.41123 0.66062 0.0
C2740 C 0.18074 0.4242 0.65549 0.0
C2741 C 0.18478 0.44107 0.64525 0.0
C2742 C 0.17115 0.44504 0.64046 0.0
C2743 C 0.19572 0.42071 0.6613 0.0
C2744 C 0.20977 0.43288 0.67837 0.0
C2745 C 0.19675 0.40619 0.64938 0.0
C2746 C 0.18264 0.39316 0.63055 0.0
C2747 C 0.17814 0.39904 0.60633 0.0
C2748 C 0.1648 0.38665 0.58871 0.0
C2749 C 0.15597 0.36833 0.59498 0.0
C2750 C 0.1605 0.36235 0.61885 0.0
C2751 C 0.17382 0.37469 0.63656 0.0
H2752 H 0.14565 0.35875 0.58131 0.0
H2753 H 0.27765 0.47949 0.74855 0.0
H2754 H 0.38392 0.87276 0.2094 0.0
H2755 H 0.41556 0.88292 0.20146 0.0
H2756 H 0.42259 0.93149 0.16379 0.0
H2757 H 0.39061 0.92135 0.17163 0.0
H2758 H 0.43771 0.91507 0.13314 0.0
H2759 H 0.44049 0.9347 0.22542 0.0
H2760 H 0.43147 0.9325 0.27418 0.0
H2761 H 0.44322 0.88997 0.28699 0.0
H2762 H 0.45206 0.89171 0.23819 0.0
H2763 H 0.53086 0.93922 0.12444 0.0
H2764 H 0.50424 0.94153 0.13603 0.0
H2765 H 0.4819 0.89135 0.18031 0.0
H2766 H 0.50834 0.889 0.16903 0.0
H2767 H 0.47742 0.91617 0.20848 0.0
H2768 H 0.4689 0.89299 0.11483 0.0
H2769 H 0.47718 0.89429 0.06582 0.0
H2770 H 0.4759 0.94331 0.05584 0.0
H2771 H 0.46784 0.94241 0.10493 0.0
C2772 C 0.39214 0.88566 0.19952 0.0
C2773 C 0.3847 0.89624 0.19116 0.0
C2774 C 0.41029 0.89149 0.19515 0.0
C2775 C 0.42148 0.90806 0.18235 0.0
C2776 C 0.41418 0.9187 0.17385 0.0
C2777 C 0.39594 0.91291 0.17841 0.0
C2778 C 0.44059 0.91363 0.17706 0.0
C2779 C 0.44658 0.91579 0.14966 0.0
C2780 C 0.45207 0.91434 0.1986 0.0
C2781 C 0.44686 0.91329 0.22806 0.0
C2782 C 0.44104 0.92479 0.23857 0.0
C2783 C 0.43597 0.92364 0.26624 0.0
C2784 C 0.43675 0.91109 0.28366 0.0
C2785 C 0.44263 0.89969 0.27347 0.0
C2786 C 0.4477 0.90077 0.24581 0.0
C2787 C 0.52032 0.92876 0.13681 0.0
C2788 C 0.52164 0.91387 0.14568 0.0
C2789 C 0.50512 0.93008 0.14335 0.0
C2790 C 0.49104 0.91654 0.15887 0.0
C2791 C 0.49261 0.90196 0.16836 0.0
C2792 C 0.50771 0.9006 0.16178 0.0
C2793 C 0.47427 0.91697 0.16453 0.0
C2794 C 0.46873 0.91593 0.19203 0.0
C2795 C 0.46321 0.91725 0.14308 0.0
C2796 C 0.46801 0.91777 0.1136 0.0
C2797 C 0.47054 0.90413 0.10223 0.0
C2798 C 0.47516 0.90477 0.07444 0.0
C2799 C 0.47713 0.91891 0.05775 0.0
C2800 C 0.47442 0.9324 0.06881 0.0
C2801 C 0.46982 0.93182 0.09661 0.0
H2802 H 0.4807 0.91938 0.03623 0.0
H2803 H 0.43282 0.91022 0.30508 0.0
H2804 H 0.11556 0.62326 0.16563 0.0
H2805 H 0.11486 0.59497 0.17425 0.0
H2806 H 0.06031 0.56556 0.14413 0.0
H2807 H 0.06088 0.59401 0.13531 0.0
H2808 H 0.06704 0.55053 0.19285 0.0
H2809 H 0.09036 0.56919 0.10208 0.0
H2810 H 0.10963 0.59055 0.0663 0.0
H2811 H 0.15681 0.59786 0.1086 0.0
H2812 H 0.13783 0.57675 0.14489 0.0
H2813 H 0.07827 0.47234 0.18786 0.0
H2814 H 0.07051 0.4953 0.17518 0.0
H2815 H 0.12482 0.53688 0.19331 0.0
H2816 H 0.13271 0.51425 0.2057 0.0
H2817 H 0.11352 0.5425 0.14444 0.0
H2818 H 0.0903 0.52682 0.23775 0.0
H2819 H 0.07123 0.50609 0.27433 0.0
H2820 H 0.02387 0.4932 0.22727 0.0
H2821 H 0.0427 0.51369 0.19022 0.0
C2822 C 0.10333 0.6108 0.16103 0.0
C2823 C 0.08833 0.61087 0.14953 0.0
C2824 C 0.10297 0.59465 0.16594 0.0
C2825 C 0.08762 0.57822 0.15947 0.0
C2826 C 0.0723 0.57813 0.14915 0.0
C2827 C 0.07267 0.59437 0.14408 0.0
C2828 C 0.08817 0.56135 0.16247 0.0
C2829 C 0.07693 0.54854 0.18189 0.0
C2830 C 0.10117 0.55889 0.14826 0.0
C2831 C 0.11266 0.57147 0.12632 0.0
C2832 C 0.10485 0.57544 0.10387 0.0
C2833 C 0.11572 0.5875 0.08347 0.0
C2834 C 0.13443 0.59558 0.0852 0.0
C2835 C 0.14231 0.59159 0.10729 0.0
C2836 C 0.1315 0.57957 0.12777 0.0
C2837 C 0.08854 0.48638 0.18918 0.0
C2838 C 0.10612 0.49144 0.19778 0.0
C2839 C 0.08406 0.49947 0.18201 0.0
C2840 C 0.09709 0.51779 0.18339 0.0
C2841 C 0.11458 0.52281 0.192 0.0
C2842 C 0.11905 0.50982 0.19916 0.0
C2843 C 0.09285 0.53195 0.17559 0.0
C2844 C 0.10339 0.54427 0.1551 0.0
C2845 C 0.07921 0.53391 0.18882 0.0
C2846 C 0.06791 0.5216 0.21107 0.0
C2847 C 0.07583 0.51944 0.23509 0.0
C2848 C 0.06506 0.50776 0.25593 0.0
C2849 C 0.04635 0.49829 0.25308 0.0
C2850 C 0.03836 0.50051 0.22942 0.0
C2851 C 0.04907 0.51216 0.2085 0.0
H2852 H 0.03804 0.48926 0.26925 0.0
H2853 H 0.14283 0.60491 0.06939 0.0
H2854 H 0.48208 0.6179 0.20981 0.0
H2855 H 0.45983 0.58664 0.20103 0.0
H2856 H 0.50099 0.57758 0.16666 0.0
H2857 H 0.52359 0.60914 0.17539 0.0
H2858 H 0.47 0.56345 0.13433 0.0
H2859 H 0.4848 0.56035 0.22784 0.0
H2860 H 0.49086 0.56947 0.27666 0.0
H2861 H 0.43686 0.55946 0.28624 0.0
H2862 H 0.43054 0.55054 0.23735 0.0
H2863 H 0.40113 0.47047 0.12586 0.0
H2864 H 0.4297 0.4975 0.1373 0.0
H2865 H 0.40073 0.51953 0.17931 0.0
H2866 H 0.37227 0.49263 0.16824 0.0
H2867 H 0.4296 0.52455 0.20877 0.0
H2868 H 0.41671 0.53251 0.11401 0.0
H2869 H 0.41058 0.5241 0.06491 0.0
H2870 H 0.46106 0.52528 0.05785 0.0
H2871 H 0.46738 0.53347 0.10704 0.0
C2872 C 0.4865 0.60932 0.20044 0.0
C2873 C 0.50466 0.61606 0.19333 0.0
C2874 C 0.47374 0.59139 0.19557 0.0
C2875 C 0.47879 0.57974 0.18351 0.0
C2876 C 0.49685 0.58636 0.17613 0.0
C2877 C 0.50973 0.60436 0.18119 0.0
C2878 C 0.46487 0.56081 0.17806 0.0
C2879 C 0.46142 0.55475 0.15067 0.0
C2880 C 0.45355 0.54959 0.19935 0.0
C2881 C 0.45724 0.55486 0.22885 0.0
C2882 C 0.47425 0.56021 0.2403 0.0
C2883 C 0.47773 0.56533 0.268 0.0
C2884 C 0.46426 0.56507 0.28453 0.0
C2885 C 0.44728 0.55966 0.2734 0.0
C2886 C 0.44373 0.55454 0.24571 0.0
C2887 C 0.40088 0.48106 0.13764 0.0
C2888 C 0.38445 0.47946 0.14605 0.0
C2889 C 0.4172 0.49649 0.14409 0.0
C2890 C 0.41733 0.51058 0.15898 0.0
C2891 C 0.40095 0.50882 0.16785 0.0
C2892 C 0.38468 0.49345 0.1614 0.0
C2893 C 0.43438 0.52742 0.16497 0.0
C2894 C 0.43841 0.53308 0.1925 0.0
C2895 C 0.4462 0.53827 0.14381 0.0
C2896 C 0.44241 0.53337 0.11426 0.0
C2897 C 0.42643 0.53082 0.10204 0.0
C2898 C 0.42293 0.52613 0.07419 0.0
C2899 C 0.43539 0.5241 0.0583 0.0
C2900 C 0.4514 0.52682 0.0702 0.0
C2901 C 0.45495 0.53149 0.09806 0.0
H2902 H 0.43266 0.52047 0.03673 0.0
H2903 H 0.46698 0.56904 0.30597 0.0
H2904 H 0.07914 0.60114 0.67721 0.0
H2905 H 0.07274 0.57031 0.66938 0.0
H2906 H 0.12649 0.58539 0.6958 0.0
H2907 H 0.13307 0.61611 0.70332 0.0
H2908 H 0.11782 0.56585 0.6496 0.0
H2909 H 0.09002 0.56193 0.73793 0.0
H2910 H 0.06943 0.56504 0.77 0.0
H2911 H 0.02421 0.52871 0.72052 0.0
H2912 H 0.04458 0.52559 0.68793 0.0
H2913 H 0.11484 0.48495 0.68005 0.0
H2914 H 0.11571 0.51359 0.68574 0.0
H2915 H 0.0626 0.49081 0.65047 0.0
H2916 H 0.0616 0.46193 0.64464 0.0
H2917 H 0.06816 0.51317 0.69693 0.0
H2918 H 0.09599 0.51545 0.61046 0.0
H2919 H 0.11671 0.51201 0.57912 0.0
H2920 H 0.16196 0.55145 0.62541 0.0
H2921 H 0.14149 0.55492 0.65731 0.0
C2922 C 0.08959 0.59789 0.68135 0.0
C2923 C 0.10662 0.61112 0.69091 0.0
C2924 C 0.08588 0.58024 0.67697 0.0
C2925 C 0.0991 0.57552 0.68218 0.0
C2926 C 0.1161 0.58873 0.69158 0.0
C2927 C 0.11981 0.6063 0.69595 0.0
C2928 C 0.09549 0.55692 0.67767 0.0
C2929 C 0.10704 0.55437 0.66013 0.0
C2930 C 0.08109 0.54184 0.69074 0.0
C2931 C 0.06884 0.5437 0.71032 0.0
C2932 C 0.0757 0.55473 0.73376 0.0
C2933 C 0.06407 0.55647 0.75205 0.0
C2934 C 0.04553 0.54713 0.74725 0.0
C2935 C 0.03858 0.53598 0.72418 0.0
C2936 C 0.05016 0.53421 0.7058 0.0
C2937 C 0.10325 0.48593 0.67373 0.0
C2938 C 0.0882 0.47121 0.66167 0.0
C2939 C 0.1038 0.50233 0.67694 0.0
C2940 C 0.08932 0.50436 0.66818 0.0
C2941 C 0.07393 0.4895 0.65726 0.0
C2942 C 0.0734 0.47305 0.65389 0.0
C2943 C 0.09077 0.52227 0.66944 0.0
C2944 C 0.07881 0.52466 0.68623 0.0
C2945 C 0.10481 0.53725 0.6557 0.0
C2946 C 0.11719 0.53533 0.63641 0.0
C2947 C 0.11035 0.52329 0.61408 0.0
C2948 C 0.12205 0.52135 0.5962 0.0
C2949 C 0.14064 0.53148 0.6003 0.0
C2950 C 0.14756 0.5436 0.62227 0.0
C2951 C 0.13591 0.54557 0.64024 0.0
H2952 H 0.14967 0.52996 0.58644 0.0
H2953 H 0.03654 0.54848 0.76144 0.0
H2954 H 0.37636 0.50688 0.69481 0.0
H2955 H 0.4066 0.53062 0.68365 0.0
H2956 H 0.42164 0.49112 0.66257 0.0
H2957 H 0.39111 0.46696 0.67408 0.0
H2958 H 0.44789 0.51922 0.69327 0.0
H2959 H 0.41462 0.5127 0.61165 0.0
H2960 H 0.38921 0.50942 0.5835 0.0
H2961 H 0.39917 0.56119 0.61059 0.0
H2962 H 0.42448 0.56468 0.63924 0.0
H2963 H 0.52885 0.59353 0.63358 0.0
H2964 H 0.50117 0.5645 0.63992 0.0
H2965 H 0.47376 0.59197 0.66876 0.0
H2966 H 0.50121 0.62086 0.66267 0.0
H2967 H 0.45504 0.56677 0.6278 0.0
H2968 H 0.48622 0.57109 0.71348 0.0
H2969 H 0.51159 0.57401 0.74136 0.0
H2970 H 0.50583 0.52587 0.70484 0.0
H2971 H 0.48056 0.52281 0.67645 0.0
C2972 C 0.38601 0.50311 0.68781 0.0
C2973 C 0.38121 0.48495 0.68516 0.0
C2974 C 0.40333 0.51676 0.68134 0.0
C2975 C 0.41629 0.51265 0.67183 0.0
C2976 C 0.41178 0.49457 0.66972 0.0
C2977 C 0.39434 0.4808 0.67624 0.0
C2978 C 0.43444 0.52749 0.66417 0.0
C2979 C 0.44954 0.52943 0.6785 0.0
C2980 C 0.43657 0.54087 0.64504 0.0
C2981 C 0.4214 0.5389 0.62773 0.0
C2982 C 0.41132 0.52333 0.61176 0.0
C2983 C 0.39694 0.52145 0.59569 0.0
C2984 C 0.39256 0.53508 0.59529 0.0
C2985 C 0.40258 0.55064 0.61092 0.0
C2986 C 0.41696 0.55259 0.62705 0.0
C2987 C 0.51694 0.59334 0.64145 0.0
C2988 C 0.5172 0.60948 0.64757 0.0
C2989 C 0.50118 0.57677 0.6451 0.0
C2990 C 0.48543 0.57611 0.65478 0.0
C2991 C 0.48575 0.59219 0.66118 0.0
C2992 C 0.50149 0.60869 0.65778 0.0
C2993 C 0.46834 0.55881 0.65757 0.0
C2994 C 0.45345 0.55641 0.6422 0.0
C2995 C 0.46648 0.545 0.67555 0.0
C2996 C 0.48166 0.54685 0.69259 0.0
C2997 C 0.49048 0.56123 0.7112 0.0
C2998 C 0.50482 0.56289 0.72714 0.0
C2999 C 0.51036 0.55017 0.7248 0.0
C3000 C 0.50155 0.53574 0.70658 0.0
C3001 C 0.48721 0.53403 0.69057 0.0
H3002 H 0.52146 0.55147 0.73717 0.0
H3003 H 0.38142 0.53359 0.58283 0.0
H3004 H 0.37019 0.88055 0.66731 0.0
H3005 H 0.3988 0.88268 0.67931 0.0
H3006 H 0.42718 0.93145 0.63175 0.0
H3007 H 0.39842 0.92934 0.61941 0.0
H3008 H 0.43935 0.90822 0.62097 0.0
H3009 H 0.42897 0.9338 0.70093 0.0
H3010 H 0.41175 0.93596 0.74 0.0
H3011 H 0.40598 0.88726 0.77424 0.0
H3012 H 0.42294 0.88465 0.73516 0.0
H3013 H 0.52223 0.91734 0.67138 0.0
H3014 H 0.49836 0.92435 0.66159 0.0
H3015 H 0.46013 0.87633 0.7046 0.0
H3016 H 0.48377 0.86931 0.71462 0.0
H3017 H 0.45593 0.90467 0.71789 0.0
H3018 H 0.46269 0.87726 0.63474 0.0
H3019 H 0.47951 0.87475 0.59537 0.0
H3020 H 0.49203 0.92715 0.56726 0.0
H3021 H 0.47546 0.93005 0.6067 0.0
C3022 C 0.3825 0.8918 0.65948 0.0
C3023 C 0.38204 0.90479 0.64242 0.0
C3024 C 0.39887 0.89305 0.66649 0.0
C3025 C 0.41515 0.90734 0.6567 0.0
C3026 C 0.41477 0.92035 0.63961 0.0
C3027 C 0.39835 0.91914 0.63264 0.0
C3028 C 0.43241 0.90818 0.66369 0.0
C3029 C 0.44319 0.90785 0.64218 0.0
C3030 C 0.43731 0.90745 0.69135 0.0
C3031 C 0.42713 0.90898 0.71498 0.0
C3032 C 0.42392 0.92348 0.71668 0.0
C3033 C 0.41422 0.9248 0.73885 0.0
C3034 C 0.40775 0.91174 0.75957 0.0
C3035 C 0.411 0.89736 0.75818 0.0
C3036 C 0.42067 0.89597 0.73603 0.0
C3037 C 0.50876 0.90834 0.67889 0.0
C3038 C 0.50491 0.89271 0.69367 0.0
C3039 C 0.49513 0.91234 0.6732 0.0
C3040 C 0.47743 0.90078 0.68218 0.0
C3041 C 0.47368 0.88545 0.69749 0.0
C3042 C 0.48723 0.88142 0.70309 0.0
C3043 C 0.46257 0.90423 0.67518 0.0
C3044 C 0.45225 0.90537 0.6967 0.0
C3045 C 0.45811 0.90571 0.64755 0.0
C3046 C 0.46804 0.90396 0.62384 0.0
C3047 C 0.46916 0.88831 0.62029 0.0
C3048 C 0.47862 0.8868 0.59794 0.0
C3049 C 0.48689 0.90081 0.57887 0.0
C3050 C 0.48566 0.91633 0.58208 0.0
C3051 C 0.47623 0.91791 0.60442 0.0
H3052 H 0.4942 0.89962 0.56158 0.0
H3053 H 0.40025 0.91279 0.77672 0.0
H3054 H 0.15787 0.45037 0.16438 0.0
H3055 H 0.18395 0.44778 0.1516 0.0
H3056 H 0.16256 0.39811 0.19709 0.0
H3057 H 0.13632 0.40071 0.21027 0.0
H3058 H 0.19805 0.42034 0.20797 0.0
H3059 H 0.16199 0.39685 0.12778 0.0
H3060 H 0.14263 0.39561 0.08927 0.0
H3061 H 0.18587 0.44469 0.05646 0.0
H3062 H 0.20542 0.44638 0.095 0.0
H3063 H 0.27247 0.41338 0.15275 0.0
H3064 H 0.24144 0.40551 0.16365 0.0
H3065 H 0.25052 0.45491 0.12624 0.0
H3066 H 0.2813 0.46283 0.11524 0.0
H3067 H 0.21826 0.42616 0.11071 0.0
H3068 H 0.25221 0.45152 0.1952 0.0
H3069 H 0.27142 0.45283 0.23402 0.0
H3070 H 0.23162 0.39945 0.25842 0.0
H3071 H 0.21227 0.39775 0.21949 0.0
C3072 C 0.15863 0.43884 0.1716 0.0
C3073 C 0.14501 0.42573 0.18832 0.0
C3074 C 0.17351 0.43732 0.16414 0.0
C3075 C 0.17508 0.42262 0.17308 0.0
C3076 C 0.16156 0.40952 0.18987 0.0
C3077 C 0.14658 0.41101 0.19732 0.0
C3078 C 0.19125 0.42149 0.16551 0.0
C3079 C 0.20227 0.42118 0.18666 0.0
C3080 C 0.19683 0.42275 0.13773 0.0
C3081 C 0.18515 0.42179 0.11441 0.0
C3082 C 0.16734 0.40745 0.11247 0.0
C3083 C 0.15634 0.40666 0.09061 0.0
C3084 C 0.16301 0.42008 0.07045 0.0
C3085 C 0.18072 0.43431 0.07209 0.0
C3086 C 0.19178 0.43517 0.09392 0.0
C3087 C 0.26781 0.42252 0.14675 0.0
C3088 C 0.2794 0.43878 0.13323 0.0
C3089 C 0.25011 0.41802 0.15306 0.0
C3090 C 0.24372 0.42968 0.14585 0.0
C3091 C 0.25516 0.44571 0.13192 0.0
C3092 C 0.27281 0.45025 0.12578 0.0
C3093 C 0.22528 0.42562 0.15319 0.0
C3094 C 0.21383 0.42493 0.13197 0.0
C3095 C 0.2193 0.42338 0.18087 0.0
C3096 C 0.23091 0.42442 0.20425 0.0
C3097 C 0.24763 0.44001 0.2087 0.0
C3098 C 0.25852 0.44083 0.23075 0.0
C3099 C 0.25277 0.42621 0.24862 0.0
C3100 C 0.23608 0.41075 0.24453 0.0
C3101 C 0.22514 0.40985 0.22249 0.0
H3102 H 0.26122 0.42688 0.26568 0.0
H3103 H 0.15446 0.41944 0.05355 0.0
H3104 H 0.58274 0.86204 0.14348 0.0
H3105 H 0.58763 0.83702 0.15502 0.0
H3106 H 0.53477 0.79943 0.12409 0.0
H3107 H 0.5297 0.82416 0.11278 0.0
H3108 H 0.54043 0.78952 0.17393 0.0
H3109 H 0.57261 0.80948 0.0876 0.0
H3110 H 0.59538 0.83156 0.05584 0.0
H3111 H 0.63738 0.83974 0.11232 0.0
H3112 H 0.61482 0.81788 0.14461 0.0
H3113 H 0.54027 0.70847 0.15915 0.0
H3114 H 0.54065 0.7365 0.14924 0.0
H3115 H 0.59345 0.76663 0.1856 0.0
H3116 H 0.59325 0.73853 0.19545 0.0
H3117 H 0.59033 0.78209 0.13723 0.0
H3118 H 0.55843 0.76072 0.22214 0.0
H3119 H 0.53576 0.73849 0.25383 0.0
H3120 H 0.4934 0.73319 0.20051 0.0
H3121 H 0.51583 0.7552 0.16826 0.0
C3122 C 0.57221 0.84845 0.13899 0.0
C3123 C 0.55581 0.84513 0.12727 0.0
C3124 C 0.57504 0.83417 0.14553 0.0
C3125 C 0.56157 0.81636 0.14035 0.0
C3126 C 0.54532 0.81306 0.12837 0.0
C3127 C 0.54247 0.82726 0.12184 0.0
C3128 C 0.56399 0.80098 0.14805 0.0
C3129 C 0.55126 0.78783 0.1657 0.0
C3130 C 0.57846 0.79908 0.13805 0.0
C3131 C 0.59202 0.81221 0.11866 0.0
C3132 C 0.58669 0.81611 0.09336 0.0
C3133 C 0.59956 0.82856 0.07524 0.0
C3134 C 0.61781 0.83709 0.08209 0.0
C3135 C 0.62324 0.83315 0.10706 0.0
C3136 C 0.61042 0.82072 0.12527 0.0
C3137 C 0.55202 0.72104 0.16494 0.0
C3138 C 0.56668 0.72127 0.17828 0.0
C3139 C 0.55218 0.73706 0.15933 0.0
C3140 C 0.56697 0.75362 0.16704 0.0
C3141 C 0.58188 0.75398 0.17958 0.0
C3142 C 0.58172 0.73792 0.18526 0.0
C3143 C 0.56649 0.77045 0.1625 0.0
C3144 C 0.5796 0.78389 0.14561 0.0
C3145 C 0.55239 0.77267 0.17323 0.0
C3146 C 0.53883 0.75951 0.19267 0.0
C3147 C 0.54429 0.75472 0.21706 0.0
C3148 C 0.53148 0.74217 0.23514 0.0
C3149 C 0.51315 0.73441 0.22916 0.0
C3150 C 0.5076 0.73921 0.20511 0.0
C3151 C 0.52036 0.75173 0.18693 0.0
H3152 H 0.50325 0.7247 0.24318 0.0
H3153 H 0.62776 0.84672 0.06803 0.0
H3154 H 0.17652 0.70718 0.10536 0.0
H3155 H 0.20165 0.73719 0.11438 0.0
H3156 H 0.16528 0.7527 0.14974 0.0
H3157 H 0.13985 0.72262 0.1404 0.0
H3158 H 0.19085 0.77933 0.11744 0.0
H3159 H 0.18967 0.74191 0.19145 0.0
H3160 H 0.18866 0.71532 0.21261 0.0
H3161 H 0.23864 0.72839 0.17345 0.0
H3162 H 0.23983 0.75494 0.15173 0.0
H3163 H 0.26092 0.85665 0.18637 0.0
H3164 H 0.23371 0.82836 0.17493 0.0
H3165 H 0.2663 0.80835 0.13896 0.0
H3166 H 0.29352 0.83647 0.15058 0.0
H3167 H 0.24154 0.78426 0.17348 0.0
H3168 H 0.24229 0.82147 0.09869 0.0
H3169 H 0.24315 0.84803 0.0777 0.0
H3170 H 0.19396 0.83555 0.11895 0.0
H3171 H 0.19293 0.80903 0.1405 0.0
C3172 C 0.17378 0.71696 0.11493 0.0
C3173 C 0.15616 0.71242 0.12239 0.0
C3174 C 0.1882 0.73412 0.12014 0.0
C3175 C 0.18537 0.74708 0.13317 0.0
C3176 C 0.16775 0.74285 0.13978 0.0
C3177 C 0.15325 0.72565 0.13447 0.0
C3178 C 0.20095 0.76482 0.14053 0.0
C3179 C 0.20182 0.78046 0.13003 0.0
C3180 C 0.21537 0.76624 0.15662 0.0
C3181 C 0.21475 0.75033 0.16978 0.0
C3182 C 0.20038 0.73904 0.18719 0.0
C3183 C 0.19978 0.72399 0.19931 0.0
C3184 C 0.21355 0.72014 0.19433 0.0
C3185 C 0.22797 0.73137 0.17727 0.0
C3186 C 0.22862 0.74644 0.16507 0.0
C3187 C 0.26228 0.84627 0.17586 0.0
C3188 C 0.27937 0.84877 0.16943 0.0
C3189 C 0.24671 0.83014 0.16924 0.0
C3190 C 0.24797 0.81629 0.15595 0.0
C3191 C 0.26502 0.81886 0.14924 0.0
C3192 C 0.28056 0.83496 0.15584 0.0
C3193 C 0.23163 0.7988 0.15001 0.0
C3194 C 0.23056 0.78317 0.16093 0.0
C3195 C 0.21705 0.79744 0.13439 0.0
C3196 C 0.21764 0.81337 0.12144 0.0
C3197 C 0.23174 0.82447 0.10347 0.0
C3198 C 0.23224 0.8395 0.09144 0.0
C3199 C 0.21865 0.84351 0.09705 0.0
C3200 C 0.20449 0.83245 0.11466 0.0
C3201 C 0.20394 0.81741 0.12677 0.0
H3202 H 0.21906 0.85515 0.08771 0.0
H3203 H 0.21306 0.70848 0.20373 0.0
H3204 H 0.203 0.2025 0.1407 0.0
H3205 H 0.20671 0.20928 0.18981 0.0
H3206 H 0.25633 0.25843 0.1739 0.0
H3207 H 0.25261 0.25185 0.12413 0.0
H3208 H 0.25662 0.23498 0.21937 0.0
H3209 H 0.2258 0.26535 0.19067 0.0
H3210 H 0.20296 0.26908 0.16533 0.0
H3211 H 0.16088 0.22465 0.20959 0.0
H3212 H 0.18346 0.22047 0.2349 0.0
H3213 H 0.24924 0.24575 0.36601 0.0
H3214 H 0.25501 0.25302 0.31678 0.0
H3215 H 0.20108 0.2109 0.29774 0.0
H3216 H 0.19512 0.20386 0.34649 0.0
H3217 H 0.20891 0.2401 0.26935 0.0
H3218 H 0.23919 0.20608 0.29009 0.0
H3219 H 0.2615 0.2009 0.31429 0.0
H3220 H 0.3042 0.25142 0.28456 0.0
H3221 H 0.28209 0.25697 0.26042 0.0
C3222 C 0.21475 0.21476 0.1475 0.0
C3223 C 0.22751 0.22665 0.12846 0.0
C3224 C 0.21681 0.21863 0.17561 0.0
C3225 C 0.23172 0.23439 0.18539 0.0
C3226 C 0.24471 0.24622 0.16664 0.0
C3227 C 0.24253 0.24246 0.13829 0.0
C3228 C 0.23334 0.23809 0.21538 0.0
C3229 C 0.24651 0.2366 0.23037 0.0
C3230 C 0.22002 0.24002 0.22959 0.0
C3231 C 0.20634 0.24255 0.2146 0.0
C3232 C 0.21167 0.25629 0.19487 0.0
C3233 C 0.19877 0.2585 0.18053 0.0
C3234 C 0.18048 0.2471 0.18583 0.0
C3235 C 0.17505 0.23348 0.20552 0.0
C3236 C 0.1879 0.2312 0.2199 0.0
C3237 C 0.23863 0.23806 0.3513 0.0
C3238 C 0.22172 0.2242 0.36023 0.0
C3239 C 0.24196 0.24222 0.32318 0.0
C3240 C 0.2285 0.23246 0.30353 0.0
C3241 C 0.21165 0.2187 0.31249 0.0
C3242 C 0.20828 0.21464 0.34045 0.0
C3243 C 0.23168 0.23612 0.2735 0.0
C3244 C 0.21937 0.23902 0.25846 0.0
C3245 C 0.24575 0.23541 0.25931 0.0
C3246 C 0.25899 0.23204 0.27377 0.0
C3247 C 0.25333 0.21614 0.2889 0.0
C3248 C 0.26593 0.21313 0.30257 0.0
C3249 C 0.28425 0.22585 0.30104 0.0
C3250 C 0.29 0.24159 0.28578 0.0
C3251 C 0.27745 0.24468 0.2721 0.0
H3252 H 0.29399 0.22349 0.31163 0.0
H3253 H 0.17051 0.24883 0.1747 0.0
H3254 H 0.80057 0.00859 0.13866 0.0
H3255 H 0.79526 0.00518 0.18828 0.0
H3256 H 0.74497 0.00433 0.17726 0.0
H3257 H 0.75001 0.00742 0.12711 0.0
H3258 H 0.77102 0.02826 0.22311 0.0
H3259 H 0.73835 0.96759 0.18928 0.0
H3260 H 0.73444 0.94201 0.16102 0.0
H3261 H 0.77882 0.94246 0.20273 0.0
H3262 H 0.78318 0.96824 0.23095 0.0
H3263 H 0.75228 0.00226 0.36581 0.0
H3264 H 0.74865 0.00439 0.31605 0.0
H3265 H 0.78975 0.99053 0.30045 0.0
H3266 H 0.79321 0.98805 0.3498 0.0
H3267 H 0.76231 0.97232 0.26718 0.0
H3268 H 0.79799 0.034 0.29607 0.0
H3269 H 0.80489 0.06103 0.32306 0.0
H3270 H 0.75806 0.06025 0.29016 0.0
H3271 H 0.75065 0.03297 0.26329 0.0
C3272 C 0.78841 0.00778 0.14669 0.0
C3273 C 0.77568 0.00823 0.12892 0.0
C3274 C 0.7854 0.00581 0.17505 0.0
C3275 C 0.76972 0.00446 0.18629 0.0
C3276 C 0.75715 0.00536 0.16884 0.0
C3277 C 0.76002 0.00705 0.14027 0.0
C3278 C 0.76652 0.00158 0.21629 0.0
C3279 C 0.76866 0.0159 0.23284 0.0
C3280 C 0.76388 0.98558 0.22878 0.0
C3281 C 0.76117 0.96993 0.21209 0.0
C3282 C 0.74737 0.96233 0.19227 0.0
C3283 C 0.74505 0.94778 0.17629 0.0
C3284 C 0.75639 0.94064 0.18003 0.0
C3285 C 0.77005 0.94801 0.19984 0.0
C3286 C 0.77243 0.96257 0.21586 0.0
C3287 C 0.76054 -0.00033 0.35176 0.0
C3288 C 0.77305 0.995 0.36183 0.0
C3289 C 0.75848 0.00094 0.32333 0.0
C3290 C 0.76899 -0.00229 0.30451 0.0
C3291 C 0.78142 0.993 0.31456 0.0
C3292 C 0.78343 0.99165 0.34285 0.0
C3293 C 0.76725 -0.00081 0.27428 0.0
C3294 C 0.76422 0.98457 0.25761 0.0
C3295 C 0.76932 0.01502 0.26174 0.0
C3296 C 0.77363 0.03131 0.27798 0.0
C3297 C 0.78904 0.03948 0.29481 0.0
C3298 C 0.79306 0.05485 0.31005 0.0
C3299 C 0.78186 0.06229 0.30841 0.0
C3300 C 0.76665 0.0544 0.29147 0.0
C3301 C 0.76253 0.03898 0.27624 0.0
H3302 H 0.785 0.07421 0.32019 0.0
H3303 H 0.75458 0.92938 0.16762 0.0
H3304 H 0.99076 0.78409 0.3534 0.0
H3305 H 0.98656 0.77636 0.30462 0.0
H3306 H 0.97907 0.72397 0.32318 0.0
H3307 H 0.98327 0.73159 0.37247 0.0
H3308 H 0.00238 0.74152 0.27735 0.0
H3309 H 0.94317 0.72478 0.30664 0.0
H3310 H 0.92002 0.72836 0.33132 0.0
H3311 H 0.93274 0.77503 0.28274 0.0
H3312 H 0.95615 0.77189 0.25804 0.0
H3313 H 0.98406 0.73305 0.12971 0.0
H3314 H 0.98136 0.72549 0.17906 0.0
H3315 H 0.98118 0.77448 0.19815 0.0
H3316 H 0.9833 0.78174 0.14945 0.0
H3317 H 0.95584 0.74783 0.22594 0.0
H3318 H 0.0187 0.76807 0.20367 0.0
H3319 H 0.04312 0.76592 0.18042 0.0
H3320 H 0.02477 0.71405 0.2168 0.0
H3321 H 9e-05 0.7158 0.23994 0.0
C3322 C 0.98824 0.77091 0.34725 0.0
C3323 C 0.98727 0.75844 0.36691 0.0
C3324 C 0.98578 0.76649 0.31932 0.0
C3325 C 0.98229 0.74952 0.31037 0.0
C3326 C 0.98166 0.7371 0.32975 0.0
C3327 C 0.98401 0.74148 0.35787 0.0
C3328 C 0.97935 0.74511 0.2806 0.0
C3329 C 0.99196 0.74247 0.26604 0.0
C3330 C 0.96572 0.7463 0.26601 0.0
C3331 C 0.95146 0.74811 0.28053 0.0
C3332 C 0.94109 0.73586 0.30131 0.0
C3333 C 0.92792 0.73781 0.3153 0.0
C3334 C 0.92492 0.75192 0.30862 0.0
C3335 C 0.93507 0.76409 0.28788 0.0
C3336 C 0.94827 0.76221 0.27384 0.0
C3337 C 0.98345 0.74217 0.14451 0.0
C3338 C 0.98383 0.75797 0.13564 0.0
C3339 C 0.98193 0.73785 0.17267 0.0
C3340 C 0.98109 0.74943 0.19235 0.0
C3341 C 0.98163 0.76523 0.1834 0.0
C3342 C 0.98291 0.76941 0.15547 0.0
C3343 C 0.97967 0.74557 0.22241 0.0
C3344 C 0.96602 0.74643 0.23713 0.0
C3345 C 0.99246 0.74289 0.23704 0.0
C3346 C 0.00727 0.74187 0.223 0.0
C3347 C 0.01972 0.7561 0.20641 0.0
C3348 C 0.03365 0.75497 0.1933 0.0
C3349 C 0.0354 0.73979 0.19694 0.0
C3350 C 0.02329 0.72573 0.2138 0.0
C3351 C 0.00932 0.72677 0.22688 0.0
H3352 H 0.04621 0.73895 0.18682 0.0
H3353 H 0.91472 0.75341 0.31949 0.0
H3354 H 0.78643 0.7975 0.84733 0.0
H3355 H 0.77914 0.79156 0.79868 0.0
H3356 H 0.72914 0.74384 0.81917 0.0
H3357 H 0.73671 0.74943 0.86841 0.0
H3358 H 0.74383 0.73724 0.77665 0.0
H3359 H 0.72943 0.78219 0.79627 0.0
H3360 H 0.73298 0.81032 0.81564 0.0
H3361 H 0.7795 0.84103 0.76483 0.0
H3362 H 0.77641 0.8131 0.74543 0.0
H3363 H 0.73112 0.74036 0.62738 0.0
H3364 H 0.72518 0.73925 0.67717 0.0
H3365 H 0.77937 0.78259 0.6904 0.0
H3366 H 0.78543 0.78383 0.64122 0.0
H3367 H 0.75287 0.78761 0.71605 0.0
H3368 H 0.76722 0.73967 0.70131 0.0
H3369 H 0.76141 0.71044 0.68318 0.0
H3370 H 0.71099 0.68386 0.72632 0.0
H3371 H 0.71609 0.713 0.7437 0.0
C3372 C 0.77383 0.78575 0.84161 0.0
C3373 C 0.76208 0.77402 0.86179 0.0
C3374 C 0.76962 0.78242 0.81371 0.0
C3375 C 0.75335 0.76751 0.80522 0.0
C3376 C 0.74168 0.75552 0.82524 0.0
C3377 C 0.74603 0.75873 0.85334 0.0
C3378 C 0.74907 0.76451 0.77531 0.0
C3379 C 0.74537 0.74811 0.76343 0.0
C3380 C 0.75082 0.77859 0.75803 0.0
C3381 C 0.75271 0.79551 0.76945 0.0
C3382 C 0.74048 0.79494 0.78932 0.0
C3383 C 0.74241 0.81085 0.80031 0.0
C3384 C 0.75646 0.82745 0.79149 0.0
C3385 C 0.76861 0.82816 0.77162 0.0
C3386 C 0.76675 0.81229 0.76059 0.0
C3387 C 0.74176 0.74962 0.64093 0.0
C3388 C 0.75876 0.7622 0.63028 0.0
C3389 C 0.73834 0.74892 0.66933 0.0
C3390 C 0.75184 0.76083 0.68739 0.0
C3391 C 0.76875 0.77332 0.67678 0.0
C3392 C 0.77221 0.77396 0.64861 0.0
C3393 C 0.74871 0.76077 0.71745 0.0
C3394 C 0.75088 0.7766 0.72935 0.0
C3395 C 0.74512 0.74601 0.73463 0.0
C3396 C 0.74191 0.72859 0.72342 0.0
C3397 C 0.75472 0.72765 0.70649 0.0
C3398 C 0.75155 0.71108 0.69634 0.0
C3399 C 0.73576 0.69532 0.70338 0.0
C3400 C 0.72312 0.69609 0.72064 0.0
C3401 C 0.72611 0.71264 0.73054 0.0
H3402 H 0.73335 0.68249 0.6956 0.0
H3403 H 0.75794 0.83975 0.80003 0.0
H3404 H 0.20402 0.00369 0.6379 0.0
H3405 H 0.2088 0.00465 0.6874 0.0
H3406 H 0.24835 0.98822 0.67569 0.0
H3407 H 0.24339 0.9869 0.62566 0.0
H3408 H 0.22616 0.97023 0.71791 0.0
H3409 H 0.26199 0.03145 0.69323 0.0
H3410 H 0.26975 0.06003 0.67028 0.0
H3411 H 0.22793 0.06258 0.71517 0.0
H3412 H 0.21973 0.03387 0.7381 0.0
H3413 H 0.24262 0.9899 0.86498 0.0
H3414 H 0.24896 0.9919 0.81522 0.0
H3415 H 0.2028 -0.00208 0.79926 0.0
H3416 H 0.19619 0.99561 0.84851 0.0
H3417 H 0.23606 0.02362 0.7716 0.0
H3418 H 0.197 0.95912 0.7875 0.0
H3419 H 0.18947 0.93065 0.81072 0.0
H3420 H 0.23926 0.93555 0.78303 0.0
H3421 H 0.24717 0.96422 0.75984 0.0
C3422 C 0.2138 0.00033 0.64569 0.0
C3423 C 0.22339 0.9953 0.62771 0.0
C3424 C 0.21659 0.00098 0.67408 0.0
C3425 C 0.22919 -0.00314 0.68525 0.0
C3426 C 0.23866 0.99159 0.66749 0.0
C3427 C 0.23582 0.99087 0.63892 0.0
C3428 C 0.23189 -0.00233 0.71558 0.0
C3429 C 0.22879 0.98206 0.7296 0.0
C3430 C 0.23528 0.01308 0.73093 0.0
C3431 C 0.24019 0.03043 0.7173 0.0
C3432 C 0.25437 0.03804 0.69809 0.0
C3433 C 0.25885 0.05428 0.6851 0.0
C3434 C 0.24933 0.0631 0.69124 0.0
C3435 C 0.23531 0.05573 0.71044 0.0
C3436 C 0.23075 0.03948 0.72347 0.0
C3437 C 0.23386 0.99167 0.85083 0.0
C3438 C 0.21887 0.99253 0.86064 0.0
C3439 C 0.23749 0.99279 0.82249 0.0
C3440 C 0.22635 0.99509 0.8037 0.0
C3441 C 0.21157 0.99621 0.8135 0.0
C3442 C 0.20777 0.99478 0.84164 0.0
C3443 C 0.22967 0.99604 0.77365 0.0
C3444 C 0.23393 0.01199 0.75977 0.0
C3445 C 0.22751 0.98105 0.75849 0.0
C3446 C 0.22274 0.96382 0.77217 0.0
C3447 C 0.20639 0.95417 0.78651 0.0
C3448 C 0.20204 0.93801 0.79962 0.0
C3449 C 0.21391 0.93132 0.79837 0.0
C3450 C 0.23011 0.94077 0.78395 0.0
C3451 C 0.23452 0.95695 0.7708 0.0
H3452 H 0.21053 0.91881 0.80854 0.0
H3453 H 0.25282 0.07567 0.68116 0.0
H3454 H 0.97419 0.21365 0.65405 0.0
H3455 H 0.97838 0.22587 0.70069 0.0
H3456 H 0.02263 0.27623 0.67239 0.0
H3457 H 0.01821 0.2642 0.62534 0.0
H3458 H 0.03149 0.26176 0.71641 0.0
H3459 H 0.98899 0.27853 0.69635 0.0
H3460 H 0.96146 0.27718 0.67852 0.0
H3461 H 0.92937 0.23389 0.73409 0.0
H3462 H 0.95671 0.23489 0.75216 0.0
H3463 H 0.00145 0.26501 0.87039 0.0
H3464 H 0.00312 0.27427 0.82203 0.0
H3465 H 0.01527 0.23322 0.79745 0.0
H3466 H 0.01406 0.22426 0.84518 0.0
H3467 H 0.98359 0.25703 0.77909 0.0
H3468 H 0.04231 0.24461 0.74442 0.0
H3469 H 0.07147 0.25021 0.76271 0.0
H3470 H 0.07407 0.29144 0.8158 0.0
H3471 H 0.04506 0.2863 0.79757 0.0
C3472 C 0.98462 0.22743 0.65765 0.0
C3473 C -0.00405 0.23793 0.63612 0.0
C3474 C 0.9869 0.23445 0.68425 0.0
C3475 C 0.00072 0.25201 0.68995 0.0
C3476 C 0.01178 0.26272 0.66836 0.0
C3477 C 0.00925 0.25582 0.64154 0.0
C3478 C 0.00478 0.25799 0.71903 0.0
C3479 C 0.02112 0.26093 0.73014 0.0
C3480 C 0.99158 0.25779 0.7367 0.0
C3481 C 0.97496 0.25679 0.72561 0.0
C3482 C 0.97607 0.26865 0.70469 0.0
C3483 C 0.96049 0.26797 0.69456 0.0
C3484 C 0.94367 0.25545 0.70515 0.0
C3485 C 0.94241 0.2436 0.72592 0.0
C3486 C 0.95796 0.24425 0.73617 0.0
C3487 C 0.00462 0.25808 0.85466 0.0
C3488 C 0.00765 0.24391 0.86171 0.0
C3489 C 0.00557 0.26339 0.82706 0.0
C3490 C 0.00964 0.25466 0.80615 0.0
C3491 C 0.0126 0.24051 0.81324 0.0
C3492 C 0.01175 0.23528 0.84063 0.0
C3493 C 0.00968 0.25922 0.77659 0.0
C3494 C 0.99415 0.25829 0.76539 0.0
C3495 C 0.02385 0.26176 0.75876 0.0
C3496 C 0.04143 0.26502 0.76963 0.0
C3497 C 0.04915 0.25497 0.75984 0.0
C3498 C 0.06565 0.25804 0.77025 0.0
C3499 C 0.07461 0.27116 0.79043 0.0
C3500 C 0.0671 0.28126 0.80022 0.0
C3501 C 0.05061 0.27825 0.78988 0.0
H3502 H 0.08738 0.27351 0.79847 0.0
H3503 H 0.93161 0.25494 0.69728 0.0
H3504 H 0.92103 0.58958 0.45397 0.0
H3505 H 0.92386 0.59669 0.50349 0.0
H3506 H 0.88022 0.5434 0.52084 0.0
H3507 H 0.8773 0.53609 0.47193 0.0
H3508 H 0.87698 0.57208 0.54503 0.0
H3509 H 0.92211 0.55382 0.52988 0.0
H3510 H 0.9503 0.55745 0.51053 0.0
H3511 H 0.98024 0.60887 0.54997 0.0
H3512 H 0.95214 0.60593 0.56856 0.0
H3513 H 0.86822 0.54151 0.67773 0.0
H3514 H 0.87338 0.5476 0.6287 0.0
H3515 H 0.92324 0.59635 0.64589 0.0
H3516 H 0.91839 0.58996 0.69555 0.0
H3517 H 0.92775 0.57984 0.60375 0.0
H3518 H 0.88592 0.5983 0.62376 0.0
H3519 H 0.8591 0.59736 0.64394 0.0
H3520 H 0.82486 0.55022 0.59647 0.0
H3521 H 0.85147 0.5507 0.5763 0.0
C3522 C 0.9121 0.57936 0.46837 0.0
C3523 C 0.89892 0.56225 0.45896 0.0
C3524 C 0.91378 0.58346 0.49659 0.0
C3525 C 0.90226 0.57058 0.5157 0.0
C3526 C 0.88922 0.55354 0.50636 0.0
C3527 C 0.88762 0.54937 0.47836 0.0
C3528 C 0.90322 0.57461 0.54554 0.0
C3529 C 0.88807 0.57379 0.55793 0.0
C3530 C 0.91815 0.57789 0.56209 0.0
C3531 C 0.93495 0.57978 0.5502 0.0
C3532 C 0.93465 0.56607 0.53397 0.0
C3533 C 0.95063 0.568 0.52314 0.0
C3534 C 0.96704 0.58346 0.52879 0.0
C3535 C 0.96751 0.597 0.54535 0.0
C3536 C 0.95155 0.59523 0.55594 0.0
C3537 C 0.88028 0.55359 0.67121 0.0
C3538 C 0.89283 0.56533 0.6906 0.0
C3539 C 0.88317 0.55712 0.64309 0.0
C3540 C 0.89846 0.57269 0.63356 0.0
C3541 C 0.91125 0.58434 0.65278 0.0
C3542 C 0.90846 0.58067 0.68111 0.0
C3543 C 0.901 0.5762 0.60342 0.0
C3544 C 0.91682 0.57859 0.59092 0.0
C3545 C 0.88687 0.57487 0.58662 0.0
C3546 C 0.87074 0.57451 0.59857 0.0
C3547 C 0.87268 0.58766 0.61774 0.0
C3548 C 0.8575 0.58722 0.62917 0.0
C3549 C 0.84028 0.57373 0.62151 0.0
C3550 C 0.83821 0.56067 0.60237 0.0
C3551 C 0.85334 0.56104 0.59088 0.0
H3552 H 0.82855 0.57341 0.63039 0.0
H3553 H 0.9794 0.5849 0.5205 0.0
H3554 H 0.40752 0.32344 0.45762 0.0
H3555 H 0.40262 0.32061 0.50768 0.0
H3556 H 0.45301 0.32165 0.51872 0.0
H3557 H 0.45808 0.32458 0.46902 0.0
H3558 H 0.42398 0.29394 0.54807 0.0
H3559 H 0.45102 0.35838 0.53106 0.0
H3560 H 0.45192 0.38483 0.50951 0.0
H3561 H 0.40054 0.3702 0.54509 0.0
H3562 H 0.39925 0.34352 0.56658 0.0
H3563 H 0.45547 0.31627 0.68182 0.0
H3564 H 0.45012 0.31487 0.63246 0.0
H3565 H 0.40445 0.32214 0.64601 0.0
H3566 H 0.41004 0.32405 0.69591 0.0
H3567 H 0.42383 0.34221 0.60409 0.0
H3568 H 0.39826 0.28079 0.62695 0.0
H3569 H 0.39603 0.25379 0.64861 0.0
H3570 H 0.44168 0.26089 0.60197 0.0
H3571 H 0.44436 0.2881 0.5803 0.0
C3572 C 0.41754 0.32305 0.47073 0.0
C3573 C 0.43322 0.32428 0.45933 0.0
C3574 C 0.41473 0.32147 0.49929 0.0
C3575 C 0.42748 0.32095 0.51683 0.0
C3576 C 0.443 0.32199 0.50549 0.0
C3577 C 0.44591 0.32375 0.47707 0.0
C3578 C 0.42491 0.31942 0.54712 0.0
C3579 C 0.424 0.30449 0.56038 0.0
C3580 C 0.42412 0.33282 0.56299 0.0
C3581 C 0.42494 0.34886 0.55013 0.0
C3582 C 0.43985 0.36072 0.53408 0.0
C3583 C 0.44044 0.37577 0.52192 0.0
C3584 C 0.42627 0.37916 0.52585 0.0
C3585 C 0.41149 0.36754 0.54202 0.0
C3586 C 0.41083 0.35246 0.5542 0.0
C3587 C 0.44421 0.3175 0.67445 0.0
C3588 C 0.43311 0.32017 0.6929 0.0
C3589 C 0.4411 0.31658 0.64614 0.0
C3590 C 0.42664 0.318 0.63551 0.0
C3591 C 0.41561 0.32087 0.65377 0.0
C3592 C 0.41881 0.32195 0.68226 0.0
C3593 C 0.42366 0.31703 0.60523 0.0
C3594 C 0.42344 0.33143 0.59189 0.0
C3595 C 0.42313 0.30298 0.58922 0.0
C3596 C 0.42156 0.28656 0.6021 0.0
C3597 C 0.4079 0.27667 0.62143 0.0
C3598 C 0.40654 0.26132 0.6337 0.0
C3599 C 0.41872 0.25564 0.6267 0.0
C3600 C 0.43225 0.2653 0.60737 0.0
C3601 C 0.43368 0.28068 0.59505 0.0
H3602 H 0.41765 0.24375 0.63622 0.0
H3603 H 0.42676 0.39082 0.51643 0.0
H3604 H 0.65348 0.07634 0.69469 0.0
H3605 H 0.65098 0.07208 0.64446 0.0
H3606 H 0.66326 0.1269 0.63384 0.0
H3607 H 0.66571 0.13127 0.68354 0.0
H3608 H 0.63341 0.10246 0.60388 0.0
H3609 H 0.69563 0.11503 0.62129 0.0
H3610 H 0.71707 0.10764 0.64338 0.0
H3611 H 0.68864 0.05452 0.60885 0.0
H3612 H 0.66721 0.06169 0.5864 0.0
H3613 H 0.65961 0.13209 0.47015 0.0
H3614 H 0.65779 0.12683 0.51969 0.0
H3615 H 0.6548 0.07575 0.50613 0.0
H3616 H 0.65731 0.08128 0.45629 0.0
H3617 H 0.67524 0.09103 0.54833 0.0
H3618 H 0.6169 0.07833 0.52433 0.0
H3619 H 0.59318 0.08234 0.50254 0.0
H3620 H 0.60943 0.13008 0.5504 0.0
H3621 H 0.63343 0.12652 0.57221 0.0
C3622 C 0.6557 0.08749 0.68163 0.0
C3623 C 0.65979 0.10414 0.69318 0.0
C3624 C 0.6543 0.08504 0.65295 0.0
C3625 C 0.65697 0.0992 0.63547 0.0
C3626 C 0.66109 0.11579 0.64698 0.0
C3627 C 0.66255 0.11826 0.67545 0.0
C3628 C 0.65531 0.09701 0.60511 0.0
C3629 C 0.6426 0.10005 0.59166 0.0
C3630 C 0.66664 0.09291 0.58931 0.0
C3631 C 0.67979 0.08885 0.60235 0.0
C3632 C 0.69399 0.10179 0.61845 0.0
C3633 C 0.70617 0.09765 0.63095 0.0
C3634 C 0.70427 0.08063 0.62747 0.0
C3635 C 0.69021 0.06774 0.6114 0.0
C3636 C 0.67808 0.07184 0.59871 0.0
C3637 C 0.65857 0.11972 0.47765 0.0
C3638 C 0.65848 0.10704 0.45926 0.0
C3639 C 0.65741 0.11667 0.50602 0.0
C3640 C 0.6557 0.10068 0.51668 0.0
C3641 C 0.65598 0.08813 0.49841 0.0
C3642 C 0.65741 0.0913 0.46994 0.0
C3643 C 0.65391 0.09741 0.54693 0.0
C3644 C 0.66585 0.09321 0.56039 0.0
C3645 C 0.64149 0.09995 0.5628 0.0
C3646 C 0.62706 0.1022 0.54979 0.0
C3647 C 0.6155 0.08975 0.53008 0.0
C3648 C 0.60199 0.09194 0.51774 0.0
C3649 C 0.59981 0.10647 0.52505 0.0
C3650 C 0.61113 0.11883 0.54476 0.0
C3651 C 0.62468 0.11672 0.55715 0.0
H3652 H 0.58934 0.10814 0.51548 0.0
H3653 H 0.71367 0.07743 0.63722 0.0
H3654 H 0.43097 0.12489 0.19098 0.0
H3655 H 0.42663 0.12006 0.14147 0.0
H3656 H 0.40448 0.06308 0.15333 0.0
H3657 H 0.40862 0.06778 0.20335 0.0
H3658 H 0.44349 0.10839 0.11073 0.0
H3659 H 0.37436 0.04168 0.09326 0.0
H3660 H 0.34396 0.02579 0.11377 0.0
H3661 H 0.35331 0.0746 0.15251 0.0
H3662 H 0.38341 0.09095 0.13151 0.0
H3663 H 0.44645 0.08196 0.97766 0.0
H3664 H 0.44057 0.07864 0.02725 0.0
H3665 H 0.39593 0.08784 0.01565 0.0
H3666 H 0.40114 0.09005 0.96568 0.0
H3667 H 0.38892 0.06652 0.05779 0.0
H3668 H 0.43884 0.12282 0.03064 0.0
H3669 H 0.46765 0.14313 0.00768 0.0
H3670 H 0.49429 0.12204 0.05734 0.0
H3671 H 0.46557 0.10143 0.08035 0.0
C3672 C 0.42501 0.11127 0.1832 0.0
C3673 C 0.42036 0.09674 0.20114 0.0
C3674 C 0.4225 0.10854 0.15484 0.0
C3675 C 0.41532 0.09124 0.14367 0.0
C3676 C 0.40994 0.07655 0.16153 0.0
C3677 C 0.41239 0.07927 0.19008 0.0
C3678 C 0.41518 0.08902 0.11329 0.0
C3679 C 0.43152 0.09917 0.09926 0.0
C3680 C 0.39948 0.07728 0.09818 0.0
C3681 C 0.38142 0.06746 0.11134 0.0
C3682 C 0.36998 0.04902 0.10626 0.0
C3683 C 0.35276 0.03994 0.11788 0.0
C3684 C 0.34682 0.04912 0.1347 0.0
C3685 C 0.358 0.06746 0.13971 0.0
C3686 C 0.37516 0.07664 0.12795 0.0
C3687 C 0.43513 0.08285 0.98568 0.0
C3688 C 0.42438 0.08649 0.96803 0.0
C3689 C 0.43181 0.08101 0.01399 0.0
C3690 C 0.41816 0.08356 0.02529 0.0
C3691 C 0.4066 0.08594 0.00745 0.0
C3692 C 0.40961 0.08725 0.97894 0.0
C3693 C 0.41727 0.08566 0.05558 0.0
C3694 C 0.40083 0.07556 0.0695 0.0
C3695 C 0.43269 0.098 0.07065 0.0
C3696 C 0.45003 0.11047 0.05702 0.0
C3697 C 0.45082 0.12245 0.03655 0.0
C3698 C 0.46714 0.13401 0.02353 0.0
C3699 C 0.48278 0.13384 0.031 0.0
C3700 C 0.48216 0.12214 0.05155 0.0
C3701 C 0.46587 0.11052 0.0646 0.0
H3702 H 0.4954 0.14281 0.0209 0.0
H3703 H 0.33349 0.04206 0.14368 0.0
H3704 H 0.86295 0.30578 0.18556 0.0
H3705 H 0.86566 0.30563 0.13564 0.0
H3706 H 0.92284 0.34227 0.14184 0.0
H3707 H 0.92027 0.34213 0.19224 0.0
H3708 H 0.87403 0.33194 0.10338 0.0
H3709 H 0.9435 0.3363 0.08046 0.0
H3710 H 0.96205 0.32383 0.09736 0.0
H3711 H 0.91641 0.28198 0.13981 0.0
H3712 H 0.89732 0.29363 0.12202 0.0
H3713 H 0.89584 0.36053 0.96782 0.0
H3714 H 0.89897 0.35844 0.01755 0.0
H3715 H 0.8961 0.30719 0.00656 0.0
H3716 H 0.89407 0.30981 0.95651 0.0
H3717 H 0.91724 0.32315 0.04698 0.0
H3718 H 0.85825 0.31096 0.0241 0.0
H3719 H 0.83516 0.3163 0.00304 0.0
H3720 H 0.85349 0.36404 0.05181 0.0
H3721 H 0.87685 0.3591 0.07291 0.0
C3722 C 0.87616 0.3137 0.17641 0.0
C3723 C 0.89136 0.32415 0.19289 0.0
C3724 C 0.87769 0.31359 0.1478 0.0
C3725 C 0.89443 0.32401 0.1349 0.0
C3726 C 0.90979 0.33399 0.15131 0.0
C3727 C 0.90829 0.33397 0.18011 0.0
C3728 C 0.89532 0.32551 0.10432 0.0
C3729 C 0.88354 0.33002 0.09115 0.0
C3730 C 0.90744 0.32266 0.08818 0.0
C3731 C 0.91901 0.31608 0.10025 0.0
C3732 C 0.9374 0.32447 0.09346 0.0
C3733 C 0.94801 0.31749 0.10312 0.0
C3734 C 0.94047 0.30223 0.11988 0.0
C3735 C 0.92227 0.29388 0.12697 0.0
C3736 C 0.91153 0.30065 0.11705 0.0
C3737 C 0.89617 0.34896 0.97602 0.0
C3738 C 0.89453 0.33523 0.95844 0.0
C3739 C 0.89786 0.34772 0.00444 0.0
C3740 C 0.89722 0.3324 0.01594 0.0
C3741 C 0.89652 0.3191 -0.00176 0.0
C3742 C 0.89533 0.32058 0.96966 0.0
C3743 C 0.89616 0.32979 0.04635 0.0
C3744 C 0.90788 0.32515 0.05942 0.0
C3745 C 0.88347 0.33175 0.06245 0.0
C3746 C 0.8694 0.33475 0.04988 0.0
C3747 C 0.85743 0.32266 0.0302 0.0
C3748 C 0.84429 0.32561 0.01827 0.0
C3749 C 0.84289 0.34053 0.02603 0.0
C3750 C 0.8546 0.3525 0.04579 0.0
C3751 C 0.86779 0.34963 0.05776 0.0
H3752 H 0.83271 0.34279 0.01678 0.0
H3753 H 0.94867 0.29676 0.12717 0.0
H3754 H 0.66191 0.57611 0.19661 0.0
H3755 H 0.66205 0.58106 0.14679 0.0
H3756 H 0.66777 0.53466 0.13172 0.0
H3757 H 0.66809 0.52991 0.18114 0.0
H3758 H 0.69032 0.56147 0.10063 0.0
H3759 H 0.62699 0.53443 0.12385 0.0
H3760 H 0.60093 0.53258 0.14842 0.0
H3761 H 0.61318 0.58386 0.11547 0.0
H3762 H 0.63945 0.58611 0.09096 0.0
H3763 H 0.65757 0.52833 0.96967 0.0
H3764 H 0.66015 0.53341 0.01926 0.0
H3765 H 0.66534 0.58553 0.00729 0.0
H3766 H 0.66293 0.58064 0.95709 0.0
H3767 H 0.64034 0.56289 0.05136 0.0
H3768 H 0.70132 0.58712 0.02248 0.0
H3769 H 0.72635 0.58749 -0.00308 0.0
H3770 H 0.71777 0.54024 0.04021 0.0
H3771 H 0.69249 0.53941 0.06573 0.0
C3772 C 0.66313 0.56693 0.18265 0.0
C3773 C 0.66501 0.55262 0.19288 0.0
C3774 C 0.66317 0.56976 0.15418 0.0
C3775 C 0.66484 0.55818 0.13548 0.0
C3776 C 0.66657 0.54384 0.14572 0.0
C3777 C 0.66669 0.5411 0.17404 0.0
C3778 C 0.66505 0.5609 0.10518 0.0
C3779 C 0.67935 0.56173 0.08991 0.0
C3780 C 0.65107 0.56189 0.09116 0.0
C3781 C 0.6353 0.56054 0.10588 0.0
C3782 C 0.62421 0.54538 0.12204 0.0
C3783 C 0.60939 0.54424 0.13591 0.0
C3784 C 0.60544 0.55812 0.13358 0.0
C3785 C 0.61628 0.57314 0.1173 0.0
C3786 C 0.63113 0.57435 0.10342 0.0
C3787 C 0.65919 0.54088 0.97744 0.0
C3788 C 0.6601 0.55412 0.95936 0.0
C3789 C 0.66071 0.54376 0.00582 0.0
C3790 C 0.66306 0.55988 0.01685 0.0
C3791 C 0.66357 0.57302 -0.00092 0.0
C3792 C 0.66225 0.57022 0.97047 0.0
C3793 C 0.66524 0.56275 0.04703 0.0
C3794 C 0.65146 0.56302 0.06221 0.0
C3795 C 0.67963 0.56264 0.06104 0.0
C3796 C 0.69493 0.56315 0.04591 0.0
C3797 C 0.70468 0.57673 0.02641 0.0
C3798 C 0.71893 0.57703 0.01195 0.0
C3799 C 0.72363 0.56388 0.01691 0.0
C3800 C 0.71411 0.55042 0.03639 0.0
C3801 C 0.69984 0.55004 0.05089 0.0
H3802 H 0.73466 0.56414 0.00569 0.0
H3803 H 0.59396 0.55722 0.14433 0.0
H3804 H 0.53724 0.90033 0.01151 0.0
H3805 H 0.54394 0.90285 0.96236 0.0
H3806 H 0.59887 0.91755 0.98017 0.0
H3807 H 0.59235 0.91539 0.02981 0.0
H3808 H 0.59576 0.93543 0.93333 0.0
H3809 H 0.57146 0.87559 0.96702 0.0
H3810 H 0.55024 0.84848 0.99295 0.0
H3811 H 0.50667 0.84277 0.94216 0.0
H3812 H 0.52759 0.87001 0.91618 0.0
H3813 H 0.57023 0.8724 0.80101 0.0
H3814 H 0.57706 0.87877 0.84997 0.0
H3815 H 0.574 0.92723 0.84142 0.0
H3816 H 0.56831 0.92139 0.79192 0.0
H3817 H 0.55598 0.87784 0.88552 0.0
H3818 H 0.59444 0.95605 0.89629 0.0
H3819 H 0.61734 0.98261 0.87115 0.0
H3820 H 0.6368 0.95056 0.83279 0.0
H3821 H 0.61417 0.92382 0.85793 0.0
C3822 C 0.55084 0.90436 0.00507 0.0
C3823 C 0.56419 0.90734 0.02454 0.0
C3824 C 0.55465 0.90585 0.97695 0.0
C3825 C 0.5718 0.91004 0.96765 0.0
C3826 C 0.58554 0.91424 0.98696 0.0
C3827 C 0.58176 0.91293 0.01528 0.0
C3828 C 0.57453 0.90801 0.93796 0.0
C3829 C 0.58717 0.92288 0.92271 0.0
C3830 C 0.5637 0.89144 0.92443 0.0
C3831 C 0.55108 0.87491 0.93978 0.0
C3832 C 0.55733 0.86861 0.96149 0.0
C3833 C 0.54536 0.85322 0.97619 0.0
C3834 C 0.52712 0.84392 0.96924 0.0
C3835 C 0.52081 0.84998 0.94753 0.0
C3836 C 0.53272 0.86539 0.93279 0.0
C3837 C 0.57139 0.8846 0.80952 0.0
C3838 C 0.56865 0.89635 0.79283 0.0
C3839 C 0.57529 0.88825 0.8375 0.0
C3840 C 0.57605 0.90349 0.84958 0.0
C3841 C 0.57387 0.91558 0.83265 0.0
C3842 C 0.57048 0.91217 0.80439 0.0
C3843 C 0.57694 0.90543 0.88016 0.0
C3844 C 0.56485 0.89045 0.89579 0.0
C3845 C 0.58861 0.9218 0.89389 0.0
C3846 C 0.60244 0.93785 0.87883 0.0
C3847 C 0.60363 0.95465 0.88258 0.0
C3848 C 0.61655 0.96974 0.86827 0.0
C3849 C 0.62846 0.96826 0.85029 0.0
C3850 C 0.62749 0.95167 0.84658 0.0
C3851 C 0.61457 0.93652 0.8608 0.0
H3852 H 0.63851 0.97999 0.83935 0.0
H3853 H 0.51787 0.83201 0.98064 0.0
H3854 H 0.09034 0.67686 0.0252 0.0
H3855 H 0.08642 0.67668 0.97512 0.0
H3856 H 0.08714 0.62688 0.96948 0.0
H3857 H 0.09195 0.62753 0.01916 0.0
H3858 H 0.10905 0.64828 0.93498 0.0
H3859 H 0.04918 0.63125 0.95836 0.0
H3860 H 0.02513 0.63334 0.98272 0.0
H3861 H 0.03963 0.68278 0.9409 0.0
H3862 H 0.0644 0.6815 0.91723 0.0
H3863 H 0.07259 0.64507 0.78811 0.0
H3864 H 0.06607 0.64114 0.83772 0.0
H3865 H 0.12054 0.68265 0.8551 0.0
H3866 H 0.12728 0.68625 0.8059 0.0
H3867 H 0.06712 0.66103 0.8822 0.0
H3868 H 0.13759 0.66984 0.90535 0.0
H3869 H 0.16041 0.66507 0.88195 0.0
H3870 H 0.11948 0.62478 0.83026 0.0
H3871 H 0.0964 0.62912 0.85361 0.0
C3872 C 0.08936 0.66575 0.01326 0.0
C3873 C 0.09163 0.65231 0.02595 0.0
C3874 C 0.08704 0.6656 0.98465 0.0
C3875 C 0.08646 0.65174 0.96843 0.0
C3876 C 0.08771 0.6378 0.98145 0.0
C3877 C 0.09043 0.63817 0.00985 0.0
C3878 C 0.08641 0.65262 0.93779 0.0
C3879 C 0.09977 0.65096 0.92358 0.0
C3880 C 0.0741 0.65579 0.92266 0.0
C3881 C 0.05889 0.6564 0.93629 0.0
C3882 C 0.04744 0.64272 0.95459 0.0
C3883 C 0.03371 0.64379 0.96837 0.0
C3884 C 0.03094 0.65825 0.96351 0.0
C3885 C 0.04187 0.67165 0.94477 0.0
C3886 C 0.05582 0.67079 0.93125 0.0
C3887 C 0.08309 0.65351 0.80253 0.0
C3888 C 0.10055 0.66573 0.79316 0.0
C3889 C 0.07932 0.6513 0.83084 0.0
C3890 C 0.09292 0.66135 0.85008 0.0
C3891 C 0.10995 0.67448 0.84061 0.0
C3892 C 0.11379 0.67651 0.81248 0.0
C3893 C 0.09004 0.65719 0.87997 0.0
C3894 C 0.07622 0.65821 0.89388 0.0
C3895 C 0.10152 0.65285 0.89493 0.0
C3896 C 0.1153 0.64993 0.88109 0.0
C3897 C 0.13345 0.6599 0.88909 0.0
C3898 C 0.14644 0.65728 0.87582 0.0
C3899 C 0.14141 0.64467 0.85458 0.0
C3900 C 0.12337 0.63459 0.84665 0.0
C3901 C 0.11034 0.63713 0.85988 0.0
H3902 H 0.15148 0.64268 0.84431 0.0
H3903 H 0.02027 0.65902 0.9742 0.0
H3904 H 0.33603 0.46188 0.01207 0.0
H3905 H 0.33306 0.45409 0.96331 0.0
H3906 H 0.32788 0.40281 0.98329 0.0
H3907 H 0.3307 0.41044 0.03259 0.0
H3908 H 0.35224 0.42251 0.93723 0.0
H3909 H 0.29166 0.40054 0.96643 0.0
H3910 H 0.2671 0.40193 0.99059 0.0
H3911 H 0.27576 0.44677 0.94045 0.0
H3912 H 0.30058 0.44583 0.91626 0.0
H3913 H 0.33056 0.40581 0.79094 0.0
H3914 H 0.33035 0.40134 0.84107 0.0
H3915 H 0.32545 0.44841 0.85431 0.0
H3916 H 0.32524 0.45266 0.8049 0.0
H3917 H 0.30222 0.42201 0.88513 0.0
H3918 H 0.36542 0.4472 0.86142 0.0
H3919 H 0.39146 0.4477 0.83897 0.0
H3920 H 0.3792 0.39851 0.87978 0.0
H3921 H 0.35275 0.39742 0.90181 0.0
C3922 C 0.33433 0.44896 0.00622 0.0
C3923 C 0.33353 0.43675 0.02628 0.0
C3924 C 0.3326 0.44451 0.97832 0.0
C3925 C 0.33011 0.42783 0.96979 0.0
C3926 C 0.32975 0.41573 0.98956 0.0
C3927 C 0.3313 0.4201 0.01766 0.0
C3928 C 0.32758 0.42323 0.94009 0.0
C3929 C 0.3411 0.42195 0.92578 0.0
C3930 C 0.31311 0.42266 0.92533 0.0
C3931 C 0.29805 0.42316 0.93961 0.0
C3932 C 0.28841 0.41078 0.96067 0.0
C3933 C 0.27443 0.41147 0.97435 0.0
C3934 C 0.26989 0.42444 0.96708 0.0
C3935 C 0.2793 0.43672 0.94606 0.0
C3936 C 0.2933 0.4361 0.93232 0.0
C3937 C 0.32949 0.4152 0.80462 0.0
C3938 C 0.32781 0.42953 0.7939 0.0
C3939 C 0.3294 0.41265 0.83323 0.0
C3940 C 0.32786 0.42454 0.85148 0.0
C3941 C 0.32647 0.43895 0.84069 0.0
C3942 C 0.32639 0.44139 0.81233 0.0
C3943 C 0.3274 0.42224 0.88189 0.0
C3944 C 0.31318 0.4221 0.89646 0.0
C3945 C 0.34132 0.42165 0.89677 0.0
C3946 C 0.35694 0.42208 0.88291 0.0
C3947 C 0.36811 0.43634 0.86527 0.0
C3948 C 0.38296 0.43674 0.85264 0.0
C3949 C 0.38692 0.42309 0.85782 0.0
C3950 C 0.37606 0.40903 0.87567 0.0
C3951 C 0.3611 0.40847 0.88815 0.0
H3952 H 0.39845 0.42345 0.84809 0.0
H3953 H 0.25906 0.42496 0.9777 0.0
H3954 H 0.124 0.46083 0.53126 0.0
H3955 H 0.11938 0.45816 0.48164 0.0
H3956 H 0.06774 0.41031 0.49301 0.0
H3957 H 0.07267 0.41253 0.54311 0.0
H3958 H 0.08363 0.40576 0.45052 0.0
H3959 H 0.07085 0.4511 0.47581 0.0
H3960 H 0.07469 0.47832 0.49904 0.0
H3961 H 0.12373 0.51062 0.45432 0.0
H3962 H 0.12035 0.48357 0.43111 0.0
H3963 H 0.07586 0.41727 0.3033 0.0
H3964 H 0.06891 0.41431 0.35278 0.0
H3965 H 0.12337 0.45574 0.37032 0.0
H3966 H 0.13041 0.45885 0.32131 0.0
H3967 H 0.09741 0.46062 0.39755 0.0
H3968 H 0.11078 0.4114 0.38097 0.0
H3969 H 0.10424 0.38369 0.35614 0.0
H3970 H 0.04915 0.35841 0.38264 0.0
H3971 H 0.05545 0.3859 0.40784 0.0
C3972 C 0.11163 0.44973 0.52328 0.0
C3973 C 0.09863 0.43698 0.54113 0.0
C3974 C 0.10894 0.44827 0.49486 0.0
C3975 C 0.09297 0.43432 0.48357 0.0
C3976 C 0.08009 0.42129 0.50126 0.0
C3977 C 0.08292 0.42257 0.52985 0.0
C3978 C 0.09017 0.43346 0.45323 0.0
C3979 C 0.08626 0.41767 0.43902 0.0
C3980 C 0.0933 0.44886 0.43805 0.0
C3981 C 0.09537 0.46526 0.45179 0.0
C3982 C 0.08251 0.46399 0.47103 0.0
C3983 C 0.0846 0.4794 0.48419 0.0
C3984 C 0.09945 0.49619 0.47818 0.0
C3985 C 0.11222 0.49761 0.45895 0.0
C3986 C 0.11021 0.48224 0.44574 0.0
C3987 C 0.08635 0.42572 0.31772 0.0
C3988 C 0.1037 0.4383 0.30832 0.0
C3989 C 0.08236 0.42398 0.34595 0.0
C3990 C 0.09564 0.4348 0.36515 0.0
C3991 C 0.11291 0.44732 0.3558 0.0
C3992 C 0.11693 0.44901 0.32774 0.0
C3993 C 0.0919 0.43333 0.39514 0.0
C3994 C 0.09443 0.44867 0.40922 0.0
C3995 C 0.08706 0.41743 0.4101 0.0
C3996 C 0.08355 0.40068 0.39612 0.0
C3997 C 0.0973 0.39989 0.38155 0.0
C3998 C 0.09365 0.38422 0.36746 0.0
C3999 C 0.0763 0.36928 0.36783 0.0
C4000 C 0.0626 0.36993 0.38249 0.0
C4001 C 0.06622 0.38553 0.39676 0.0
H4002 H 0.07346 0.35723 0.35671 0.0
H4003 H 0.10105 0.5081 0.48841 0.0
H4004 H 0.53444 0.67131 0.3111 0.0
H4005 H 0.54006 0.67169 0.36027 0.0
H4006 H 0.59167 0.67639 0.34364 0.0
H4007 H 0.58577 0.67534 0.29387 0.0
H4008 H 0.57641 0.6543 0.38515 0.0
H4009 H 0.58882 0.71314 0.36632 0.0
H4010 H 0.58463 0.73728 0.3467 0.0
H4011 H 0.53629 0.71898 0.39409 0.0
H4012 H 0.54002 0.69456 0.4137 0.0
H4013 H 0.58577 0.66996 0.53474 0.0
H4014 H 0.5923 0.67471 0.48509 0.0
H4015 H 0.53734 0.66076 0.46942 0.0
H4016 H 0.53068 0.65593 0.51843 0.0
H4017 H 0.5634 0.69338 0.44478 0.0
H4018 H 0.55054 0.63084 0.45587 0.0
H4019 H 0.55736 0.60862 0.47637 0.0
H4020 H 0.61128 0.63796 0.44476 0.0
H4021 H 0.60475 0.66032 0.4241 0.0
C4022 C 0.54703 0.67247 0.3178 0.0
C4023 C 0.55974 0.67348 0.29856 0.0
C4024 C 0.55028 0.67279 0.34599 0.0
C4025 C 0.56651 0.67457 0.35572 0.0
C4026 C 0.57912 0.67518 0.33662 0.0
C4027 C 0.57574 0.67459 0.30822 0.0
C4028 C 0.56987 0.6755 0.38592 0.0
C4029 C 0.57395 0.66313 0.39813 0.0
C4030 C 0.56697 0.6872 0.40301 0.0
C4031 C 0.56467 0.70195 0.39141 0.0
C4032 C 0.57723 0.71419 0.37245 0.0
C4033 C 0.57495 0.72793 0.36133 0.0
C4034 C 0.5602 0.72965 0.36912 0.0
C4035 C 0.54772 0.71764 0.38808 0.0
C4036 C 0.54993 0.70386 0.39925 0.0
C4037 C 0.57507 0.66781 0.52067 0.0
C4038 C 0.55771 0.6626 0.53061 0.0
C4039 C 0.57883 0.67051 0.49235 0.0
C4040 C 0.5653 0.66814 0.47367 0.0
C4041 C 0.54798 0.66275 0.48354 0.0
C4042 C 0.5442 0.65993 0.51162 0.0
C4043 C 0.56887 0.67153 0.44377 0.0
C4044 C 0.56623 0.68485 0.43167 0.0
C4045 C 0.57352 0.66104 0.42692 0.0
C4046 C 0.57722 0.64732 0.43871 0.0
C4047 C 0.56386 0.63255 0.45338 0.0
C4048 C 0.56766 0.61992 0.46497 0.0
C4049 C 0.58475 0.62188 0.46192 0.0
C4050 C 0.59804 0.63642 0.44709 0.0
C4051 C 0.59428 0.64905 0.43538 0.0
H4052 H 0.58769 0.61214 0.47106 0.0
H4053 H 0.55845 0.7403 0.36048 0.0
H4054 H 0.32299 0.86611 0.30617 0.0
H4055 H 0.32035 0.87087 0.35491 0.0
H4056 H 0.31743 0.91842 0.33588 0.0
H4057 H 0.32071 0.91402 0.28659 0.0
H4058 H 0.33795 0.92454 0.37942 0.0
H4059 H 0.27928 0.87966 0.35691 0.0
H4060 H 0.25513 0.85199 0.33569 0.0
H4061 H 0.27063 0.82021 0.38445 0.0
H4062 H 0.29505 0.84769 0.40568 0.0
H4063 H 0.32204 0.91566 0.52927 0.0
H4064 H 0.31737 0.91898 0.4801 0.0
H4065 H 0.32839 0.87647 0.46041 0.0
H4066 H 0.33316 0.87313 0.50897 0.0
H4067 H 0.29662 0.87212 0.4367 0.0
H4068 H 0.3591 0.92059 0.45297 0.0
H4069 H 0.38147 0.94934 0.47396 0.0
H4070 H 0.35546 0.97572 0.43662 0.0
H4071 H 0.33291 0.9471 0.41553 0.0
C4072 C 0.32173 0.87756 0.31223 0.0
C4073 C 0.32192 0.8896 0.29245 0.0
C4074 C 0.32009 0.88022 0.34017 0.0
C4075 C 0.3182 0.89474 0.34907 0.0
C4076 C 0.3187 0.90702 0.32947 0.0
C4077 C 0.32057 0.90449 0.30135 0.0
C4078 C 0.31625 0.89705 0.37901 0.0
C4079 C 0.32863 0.91321 0.39192 0.0
C4080 C 0.30382 0.88244 0.39537 0.0
C4081 C 0.28904 0.86578 0.38285 0.0
C4082 C 0.27761 0.86678 0.36301 0.0
C4083 C 0.26386 0.85113 0.35099 0.0
C4084 C 0.26135 0.83436 0.35871 0.0
C4085 C 0.27257 0.83321 0.37851 0.0
C4086 C 0.28635 0.84883 0.3906 0.0
C4087 C 0.32352 0.90707 0.51442 0.0
C4088 C 0.32793 0.89409 0.52309 0.0
C4089 C 0.32084 0.909 0.48638 0.0
C4090 C 0.32243 0.8979 0.46669 0.0
C4091 C 0.32698 0.8851 0.47532 0.0
C4092 C 0.32978 0.88326 0.50313 0.0
C4093 C 0.31919 0.89907 0.43696 0.0
C4094 C 0.30562 0.88358 0.42412 0.0
C4095 C 0.33024 0.91442 0.42081 0.0
C4096 C 0.34404 0.93161 0.43323 0.0
C4097 C 0.35802 0.93247 0.4495 0.0
C4098 C 0.37079 0.94877 0.46132 0.0
C4099 C 0.36982 0.96433 0.45678 0.0
C4100 C 0.35615 0.96365 0.44025 0.0
C4101 C 0.34338 0.9474 0.42837 0.0
H4102 H 0.37971 0.97692 0.46596 0.0
H4103 H 0.25071 0.82225 0.34936 0.0
loop_
_geom_bond_atom_site_label_1
_geom_bond_atom_site_label_2
_geom_bond_distance
_geom_bond_site_symmetry_2
_ccdc_geom_bond_type
C0 O1 1.306 . S
C0 O3 1.160 . S
O1 C0 1.306 . S
O1 Cd2 2.228 . S
Cd2 O1 2.228 . S
Cd2 O6 2.273 . S
Cd2 O10 2.277 . S
O3 C0 1.160 . S
O3 Cd4 2.203 . S
Cd4 O3 2.203 . S
Cd4 O6 2.411 . S
Cd4 O7 2.333 . S
Cd4 O8 2.352 1_554 S
Cd4 O12 2.277 . S
Cd4 O13 2.356 . S
C5 O10 1.209 . S
C5 O12 1.226 . S
O6 Cd2 2.273 . S
O6 Cd4 2.411 . S
O6 C9 1.320 . S
O7 Cd4 2.333 . S
O7 C9 1.214 . S
O8 Cd4 2.352 1_556 S
O8 C11 1.258 1_556 S
C9 O6 1.320 . S
C9 O7 1.214 . S
O10 Cd2 2.277 . S
O10 C5 1.209 . S
C11 O8 1.258 1_554 S
C11 O13 1.282 . S
O12 Cd4 2.277 . S
O12 C5 1.226 . S
O13 Cd4 2.356 . S
O13 C11 1.282 . S
C14 O15 1.306 . S
C14 O17 1.160 . S
O15 C14 1.306 . S
O15 Cd16 2.228 1_565 S
Cd16 O15 2.228 1_545 S
Cd16 O20 2.273 . S
Cd16 O24 2.277 . S
O17 C14 1.160 . S
O17 Cd18 2.203 1_565 S
Cd18 O17 2.203 1_545 S
Cd18 O20 2.411 . S
Cd18 O21 2.333 . S
Cd18 O22 2.352 1_554 S
Cd18 O26 2.277 . S
Cd18 O27 2.356 . S
C19 O24 1.209 . S
C19 O26 1.226 . S
O20 Cd16 2.273 . S
O20 Cd18 2.411 . S
O20 C23 1.320 . S
O21 Cd18 2.333 . S
O21 C23 1.214 . S
O22 Cd18 2.352 1_556 S
O22 C25 1.258 1_556 S
C23 O20 1.320 . S
C23 O21 1.214 . S
O24 Cd16 2.277 . S
O24 C19 1.209 . S
C25 O22 1.258 1_554 S
C25 O27 1.282 . S
O26 Cd18 2.277 . S
O26 C19 1.226 . S
O27 Cd18 2.356 . S
O27 C25 1.282 . S
C28 O29 1.306 . S
C28 O31 1.160 . S
O29 C28 1.306 . S
O29 Cd30 2.228 1_455 S
Cd30 O29 2.228 1_655 S
Cd30 O34 2.273 . S
Cd30 O38 2.277 . S
O31 C28 1.160 . S
O31 Cd32 2.203 1_455 S
Cd32 O31 2.203 1_655 S
Cd32 O34 2.411 . S
Cd32 O35 2.333 . S
Cd32 O36 2.352 1_554 S
Cd32 O40 2.277 . S
Cd32 O41 2.356 . S
C33 O38 1.209 . S
C33 O40 1.226 . S
O34 Cd30 2.273 . S
O34 Cd32 2.411 . S
O34 C37 1.320 . S
O35 Cd32 2.333 . S
O35 C37 1.214 . S
O36 Cd32 2.352 1_556 S
O36 C39 1.258 1_556 S
C37 O34 1.320 . S
C37 O35 1.214 . S
O38 Cd30 2.277 . S
O38 C33 1.209 . S
C39 O36 1.258 1_554 S
C39 O41 1.282 . S
O40 Cd32 2.277 . S
O40 C33 1.226 . S
O41 Cd32 2.356 . S
O41 C39 1.282 . S
C42 O43 1.306 . S
C42 O45 1.160 . S
O43 C42 1.306 . S
O43 Cd44 2.228 . S
Cd44 O43 2.228 . S
Cd44 O48 2.273 . S
Cd44 O52 2.277 . S
O45 C42 1.160 . S
O45 Cd46 2.203 . S
Cd46 O45 2.203 . S
Cd46 O48 2.411 . S
Cd46 O49 2.333 . S
Cd46 O50 2.352 . S
Cd46 O54 2.277 . S
Cd46 O55 2.356 . S
C47 O52 1.209 . S
C47 O54 1.226 . S
O48 Cd44 2.273 . S
O48 Cd46 2.411 . S
O48 C51 1.320 . S
O49 Cd46 2.333 . S
O49 C51 1.214 . S
O50 Cd46 2.352 . S
O50 C53 1.258 . S
C51 O48 1.320 . S
C51 O49 1.214 . S
O52 Cd44 2.277 . S
O52 C47 1.209 . S
C53 O50 1.258 . S
C53 O55 1.282 . S
O54 Cd46 2.277 . S
O54 C47 1.226 . S
O55 Cd46 2.356 . S
O55 C53 1.282 . S
C56 O57 1.306 . S
C56 O59 1.160 . S
O57 C56 1.306 . S
O57 Cd58 2.228 1_545 S
Cd58 O57 2.228 1_565 S
Cd58 O62 2.273 . S
Cd58 O66 2.277 . S
O59 C56 1.160 . S
O59 Cd60 2.203 1_545 S
Cd60 O59 2.203 1_565 S
Cd60 O62 2.411 . S
Cd60 O63 2.333 . S
Cd60 O64 2.352 . S
Cd60 O68 2.277 . S
Cd60 O69 2.356 . S
C61 O66 1.209 . S
C61 O68 1.226 . S
O62 Cd58 2.273 . S
O62 Cd60 2.411 . S
O62 C65 1.320 . S
O63 Cd60 2.333 . S
O63 C65 1.214 . S
O64 Cd60 2.352 . S
O64 C67 1.258 . S
C65 O62 1.320 . S
C65 O63 1.214 . S
O66 Cd58 2.277 . S
O66 C61 1.209 . S
C67 O64 1.258 . S
C67 O69 1.282 . S
O68 Cd60 2.277 . S
O68 C61 1.226 . S
O69 Cd60 2.356 . S
O69 C67 1.282 . S
C70 O71 1.306 . S
C70 O73 1.160 . S
O71 C70 1.306 . S
O71 Cd72 2.228 1_655 S
Cd72 O71 2.228 1_455 S
Cd72 O76 2.273 . S
Cd72 O80 2.277 . S
O73 C70 1.160 . S
O73 Cd74 2.203 1_655 S
Cd74 O73 2.203 1_455 S
Cd74 O76 2.411 . S
Cd74 O77 2.333 . S
Cd74 O78 2.352 . S
Cd74 O82 2.277 . S
Cd74 O83 2.356 . S
C75 O80 1.209 . S
C75 O82 1.226 . S
O76 Cd72 2.273 . S
O76 Cd74 2.411 . S
O76 C79 1.320 . S
O77 Cd74 2.333 . S
O77 C79 1.214 . S
O78 Cd74 2.352 . S
O78 C81 1.258 . S
C79 O76 1.320 . S
C79 O77 1.214 . S
O80 Cd72 2.277 . S
O80 C75 1.209 . S
C81 O78 1.258 . S
C81 O83 1.282 . S
O82 Cd74 2.277 . S
O82 C75 1.226 . S
O83 Cd74 2.356 . S
O83 C81 1.282 . S
C84 O85 1.306 . S
C84 O87 1.160 . S
O85 C84 1.306 . S
O85 Cd86 2.228 . S
Cd86 O85 2.228 . S
Cd86 O90 2.273 . S
Cd86 O94 2.277 . S
O87 C84 1.160 . S
O87 Cd88 2.203 . S
Cd88 O87 2.203 . S
Cd88 O90 2.411 . S
Cd88 O91 2.333 . S
Cd88 O92 2.352 1_556 S
Cd88 O96 2.277 . S
Cd88 O97 2.356 . S
C89 O94 1.209 . S
C89 O96 1.226 . S
O90 Cd86 2.273 . S
O90 Cd88 2.411 . S
O90 C93 1.320 . S
O91 Cd88 2.333 . S
O91 C93 1.214 . S
O92 Cd88 2.352 1_554 S
O92 C95 1.258 1_554 S
C93 O90 1.320 . S
C93 O91 1.214 . S
O94 Cd86 2.277 . S
O94 C89 1.209 . S
C95 O92 1.258 1_556 S
C95 O97 1.282 . S
O96 Cd88 2.277 . S
O96 C89 1.226 . S
O97 Cd88 2.356 . S
O97 C95 1.282 . S
C98 O99 1.306 . S
C98 O101 1.160 . S
O99 C98 1.306 . S
O99 Cd100 2.228 1_545 S
Cd100 O99 2.228 1_565 S
Cd100 O104 2.273 . S
Cd100 O108 2.277 . S
O101 C98 1.160 . S
O101 Cd102 2.203 1_545 S
Cd102 O101 2.203 1_565 S
Cd102 O104 2.411 . S
Cd102 O105 2.333 . S
Cd102 O106 2.352 1_556 S
Cd102 O110 2.277 . S
Cd102 O111 2.356 . S
C103 O108 1.209 . S
C103 O110 1.226 . S
O104 Cd100 2.273 . S
O104 Cd102 2.411 . S
O104 C107 1.320 . S
O105 Cd102 2.333 . S
O105 C107 1.214 . S
O106 Cd102 2.352 1_554 S
O106 C109 1.258 1_554 S
C107 O104 1.320 . S
C107 O105 1.214 . S
O108 Cd100 2.277 . S
O108 C103 1.209 . S
C109 O106 1.258 1_556 S
C109 O111 1.282 . S
O110 Cd102 2.277 . S
O110 C103 1.226 . S
O111 Cd102 2.356 . S
O111 C109 1.282 . S
C112 O113 1.306 . S
C112 O115 1.160 . S
O113 C112 1.306 . S
O113 Cd114 2.228 1_655 S
Cd114 O113 2.228 1_455 S
Cd114 O118 2.273 . S
Cd114 O122 2.277 . S
O115 C112 1.160 . S
O115 Cd116 2.203 1_655 S
Cd116 O115 2.203 1_455 S
Cd116 O118 2.411 . S
Cd116 O119 2.333 . S
Cd116 O120 2.352 1_556 S
Cd116 O124 2.277 . S
Cd116 O125 2.356 . S
C117 O122 1.209 . S
C117 O124 1.226 . S
O118 Cd114 2.273 . S
O118 Cd116 2.411 . S
O118 C121 1.320 . S
O119 Cd116 2.333 . S
O119 C121 1.214 . S
O120 Cd116 2.352 1_554 S
O120 C123 1.258 1_554 S
C121 O118 1.320 . S
C121 O119 1.214 . S
O122 Cd114 2.277 . S
O122 C117 1.209 . S
C123 O120 1.258 1_556 S
C123 O125 1.282 . S
O124 Cd116 2.277 . S
O124 C117 1.226 . S
O125 Cd116 2.356 . S
O125 C123 1.282 . S
C126 O127 1.306 . S
C126 O129 1.160 . S
O127 C126 1.306 . S
O127 Cd128 2.228 . S
Cd128 O127 2.228 . S
Cd128 O132 2.273 . S
Cd128 O136 2.277 . S
O129 C126 1.160 . S
O129 Cd130 2.203 . S
Cd130 O129 2.203 . S
Cd130 O132 2.411 . S
Cd130 O133 2.333 . S
Cd130 O134 2.352 . S
Cd130 O138 2.277 . S
Cd130 O139 2.356 . S
C131 O136 1.209 . S
C131 O138 1.226 . S
O132 Cd128 2.273 . S
O132 Cd130 2.411 . S
O132 C135 1.320 . S
O133 Cd130 2.333 . S
O133 C135 1.214 . S
O134 Cd130 2.352 . S
O134 C137 1.258 . S
C135 O132 1.320 . S
C135 O133 1.214 . S
O136 Cd128 2.277 . S
O136 C131 1.209 . S
C137 O134 1.258 . S
C137 O139 1.282 . S
O138 Cd130 2.277 . S
O138 C131 1.226 . S
O139 Cd130 2.356 . S
O139 C137 1.282 . S
C140 O141 1.306 . S
C140 O143 1.160 . S
O141 C140 1.306 . S
O141 Cd142 2.228 1_565 S
Cd142 O141 2.228 1_545 S
Cd142 O146 2.273 . S
Cd142 O150 2.277 . S
O143 C140 1.160 . S
O143 Cd144 2.203 1_565 S
Cd144 O143 2.203 1_545 S
Cd144 O146 2.411 . S
Cd144 O147 2.333 . S
Cd144 O148 2.352 . S
Cd144 O152 2.277 . S
Cd144 O153 2.356 . S
C145 O150 1.209 . S
C145 O152 1.226 . S
O146 Cd142 2.273 . S
O146 Cd144 2.411 . S
O146 C149 1.320 . S
O147 Cd144 2.333 . S
O147 C149 1.214 . S
O148 Cd144 2.352 . S
O148 C151 1.258 . S
C149 O146 1.320 . S
C149 O147 1.214 . S
O150 Cd142 2.277 . S
O150 C145 1.209 . S
C151 O148 1.258 . S
C151 O153 1.282 . S
O152 Cd144 2.277 . S
O152 C145 1.226 . S
O153 Cd144 2.356 . S
O153 C151 1.282 . S
C154 O155 1.306 . S
C154 O157 1.160 . S
O155 C154 1.306 . S
O155 Cd156 2.228 1_455 S
Cd156 O155 2.228 1_655 S
Cd156 O160 2.273 . S
Cd156 O164 2.277 . S
O157 C154 1.160 . S
O157 Cd158 2.203 1_455 S
Cd158 O157 2.203 1_655 S
Cd158 O160 2.411 . S
Cd158 O161 2.333 . S
Cd158 O162 2.352 . S
Cd158 O166 2.277 . S
Cd158 O167 2.356 . S
C159 O164 1.209 . S
C159 O166 1.226 . S
O160 Cd156 2.273 . S
O160 Cd158 2.411 . S
O160 C163 1.320 . S
O161 Cd158 2.333 . S
O161 C163 1.214 . S
O162 Cd158 2.352 . S
O162 C165 1.258 . S
C163 O160 1.320 . S
C163 O161 1.214 . S
O164 Cd156 2.277 . S
O164 C159 1.209 . S
C165 O162 1.258 . S
C165 O167 1.282 . S
O166 Cd158 2.277 . S
O166 C159 1.226 . S
O167 Cd158 2.356 . S
O167 C165 1.282 . S
C168 O169 1.306 . S
C168 O171 1.160 . S
O169 C168 1.306 . S
O169 Cd170 2.228 . S
Cd170 O169 2.228 . S
Cd170 O174 2.273 . S
Cd170 O178 2.277 . S
O171 C168 1.160 . S
O171 Cd172 2.203 . S
Cd172 O171 2.203 . S
Cd172 O174 2.411 . S
Cd172 O175 2.333 . S
Cd172 O176 2.352 . S
Cd172 O180 2.277 . S
Cd172 O181 2.356 . S
C173 O178 1.209 . S
C173 O180 1.226 . S
O174 Cd170 2.273 . S
O174 Cd172 2.411 . S
O174 C177 1.320 . S
O175 Cd172 2.333 . S
O175 C177 1.214 . S
O176 Cd172 2.352 . S
O176 C179 1.258 . S
C177 O174 1.320 . S
C177 O175 1.214 . S
O178 Cd170 2.277 . S
O178 C173 1.209 . S
C179 O176 1.258 . S
C179 O181 1.282 . S
O180 Cd172 2.277 . S
O180 C173 1.226 . S
O181 Cd172 2.356 . S
O181 C179 1.282 . S
C182 O183 1.306 . S
C182 O185 1.160 . S
O183 C182 1.306 . S
O183 Cd184 2.228 . S
Cd184 O183 2.228 . S
Cd184 O188 2.273 . S
Cd184 O192 2.277 . S
O185 C182 1.160 . S
O185 Cd186 2.203 . S
Cd186 O185 2.203 . S
Cd186 O188 2.411 . S
Cd186 O189 2.333 . S
Cd186 O190 2.352 . S
Cd186 O194 2.277 . S
Cd186 O195 2.356 . S
C187 O192 1.209 . S
C187 O194 1.226 . S
O188 Cd184 2.273 . S
O188 Cd186 2.411 . S
O188 C191 1.320 . S
O189 Cd186 2.333 . S
O189 C191 1.214 . S
O190 Cd186 2.352 . S
O190 C193 1.258 . S
C191 O188 1.320 . S
C191 O189 1.214 . S
O192 Cd184 2.277 . S
O192 C187 1.209 . S
C193 O190 1.258 . S
C193 O195 1.282 . S
O194 Cd186 2.277 . S
O194 C187 1.226 . S
O195 Cd186 2.356 . S
O195 C193 1.282 . S
C196 O197 1.306 . S
C196 O199 1.160 . S
O197 C196 1.306 . S
O197 Cd198 2.228 . S
Cd198 O197 2.228 . S
Cd198 O202 2.273 . S
Cd198 O206 2.277 . S
O199 C196 1.160 . S
O199 Cd200 2.203 . S
Cd200 O199 2.203 . S
Cd200 O202 2.411 . S
Cd200 O203 2.333 . S
Cd200 O204 2.352 . S
Cd200 O208 2.277 . S
Cd200 O209 2.356 . S
C201 O206 1.209 . S
C201 O208 1.226 . S
O202 Cd198 2.273 . S
O202 Cd200 2.411 . S
O202 C205 1.320 . S
O203 Cd200 2.333 . S
O203 C205 1.214 . S
O204 Cd200 2.352 . S
O204 C207 1.258 . S
C205 O202 1.320 . S
C205 O203 1.214 . S
O206 Cd198 2.277 . S
O206 C201 1.209 . S
C207 O204 1.258 . S
C207 O209 1.282 . S
O208 Cd200 2.277 . S
O208 C201 1.226 . S
O209 Cd200 2.356 . S
O209 C207 1.282 . S
C210 O211 1.306 . S
C210 O213 1.160 . S
O211 C210 1.306 . S
O211 Cd212 2.228 . S
Cd212 O211 2.228 . S
Cd212 O216 2.273 . S
Cd212 O220 2.277 . S
O213 C210 1.160 . S
O213 Cd214 2.203 . S
Cd214 O213 2.203 . S
Cd214 O216 2.411 . S
Cd214 O217 2.333 . S
Cd214 O218 2.352 . S
Cd214 O222 2.277 . S
Cd214 O223 2.356 . S
C215 O220 1.209 . S
C215 O222 1.226 . S
O216 Cd212 2.273 . S
O216 Cd214 2.411 . S
O216 C219 1.320 . S
O217 Cd214 2.333 . S
O217 C219 1.214 . S
O218 Cd214 2.352 . S
O218 C221 1.258 . S
C219 O216 1.320 . S
C219 O217 1.214 . S
O220 Cd212 2.277 . S
O220 C215 1.209 . S
C221 O218 1.258 . S
C221 O223 1.282 . S
O222 Cd214 2.277 . S
O222 C215 1.226 . S
O223 Cd214 2.356 . S
O223 C221 1.282 . S
C224 O225 1.306 . S
C224 O227 1.160 . S
O225 C224 1.306 . S
O225 Cd226 2.228 . S
Cd226 O225 2.228 . S
Cd226 O230 2.273 . S
Cd226 O234 2.277 . S
O227 C224 1.160 . S
O227 Cd228 2.203 . S
Cd228 O227 2.203 . S
Cd228 O230 2.411 . S
Cd228 O231 2.333 . S
Cd228 O232 2.352 . S
Cd228 O236 2.277 . S
Cd228 O237 2.356 . S
C229 O234 1.209 . S
C229 O236 1.226 . S
O230 Cd226 2.273 . S
O230 Cd228 2.411 . S
O230 C233 1.320 . S
O231 Cd228 2.333 . S
O231 C233 1.214 . S
O232 Cd228 2.352 . S
O232 C235 1.258 . S
C233 O230 1.320 . S
C233 O231 1.214 . S
O234 Cd226 2.277 . S
O234 C229 1.209 . S
C235 O232 1.258 . S
C235 O237 1.282 . S
O236 Cd228 2.277 . S
O236 C229 1.226 . S
O237 Cd228 2.356 . S
O237 C235 1.282 . S
C238 O239 1.306 . S
C238 O241 1.160 . S
O239 C238 1.306 . S
O239 Cd240 2.228 . S
Cd240 O239 2.228 . S
Cd240 O244 2.273 . S
Cd240 O248 2.277 . S
O241 C238 1.160 . S
O241 Cd242 2.203 . S
Cd242 O241 2.203 . S
Cd242 O244 2.411 . S
Cd242 O245 2.333 . S
Cd242 O246 2.352 . S
Cd242 O250 2.277 . S
Cd242 O251 2.356 . S
C243 O248 1.209 . S
C243 O250 1.226 . S
O244 Cd240 2.273 . S
O244 Cd242 2.411 . S
O244 C247 1.320 . S
O245 Cd242 2.333 . S
O245 C247 1.214 . S
O246 Cd242 2.352 . S
O246 C249 1.258 . S
C247 O244 1.320 . S
C247 O245 1.214 . S
O248 Cd240 2.277 . S
O248 C243 1.209 . S
C249 O246 1.258 . S
C249 O251 1.282 . S
O250 Cd242 2.277 . S
O250 C243 1.226 . S
O251 Cd242 2.356 . S
O251 C249 1.282 . S
C252 O253 1.306 . S
C252 O255 1.160 . S
O253 C252 1.306 . S
O253 Cd254 2.228 . S
Cd254 O253 2.228 . S
Cd254 O258 2.273 . S
Cd254 O262 2.277 . S
O255 C252 1.160 . S
O255 Cd256 2.203 . S
Cd256 O255 2.203 . S
Cd256 O258 2.411 . S
Cd256 O259 2.333 . S
Cd256 O260 2.352 . S
Cd256 O264 2.277 . S
Cd256 O265 2.356 . S
C257 O262 1.209 . S
C257 O264 1.226 . S
O258 Cd254 2.273 . S
O258 Cd256 2.411 . S
O258 C261 1.320 . S
O259 Cd256 2.333 . S
O259 C261 1.214 . S
O260 Cd256 2.352 . S
O260 C263 1.258 . S
C261 O258 1.320 . S
C261 O259 1.214 . S
O262 Cd254 2.277 . S
O262 C257 1.209 . S
C263 O260 1.258 . S
C263 O265 1.282 . S
O264 Cd256 2.277 . S
O264 C257 1.226 . S
O265 Cd256 2.356 . S
O265 C263 1.282 . S
C266 O267 1.306 . S
C266 O269 1.160 . S
O267 C266 1.306 . S
O267 Cd268 2.228 . S
Cd268 O267 2.228 . S
Cd268 O272 2.273 . S
Cd268 O276 2.277 . S
O269 C266 1.160 . S
O269 Cd270 2.203 . S
Cd270 O269 2.203 . S
Cd270 O272 2.411 . S
Cd270 O273 2.333 . S
Cd270 O274 2.352 . S
Cd270 O278 2.277 . S
Cd270 O279 2.356 . S
C271 O276 1.209 . S
C271 O278 1.226 . S
O272 Cd268 2.273 . S
O272 Cd270 2.411 . S
O272 C275 1.320 . S
O273 Cd270 2.333 . S
O273 C275 1.214 . S
O274 Cd270 2.352 . S
O274 C277 1.258 . S
C275 O272 1.320 . S
C275 O273 1.214 . S
O276 Cd268 2.277 . S
O276 C271 1.209 . S
C277 O274 1.258 . S
C277 O279 1.282 . S
O278 Cd270 2.277 . S
O278 C271 1.226 . S
O279 Cd270 2.356 . S
O279 C277 1.282 . S
C280 O281 1.306 . S
C280 O283 1.160 . S
O281 C280 1.306 . S
O281 Cd282 2.228 . S
Cd282 O281 2.228 . S
Cd282 O286 2.273 . S
Cd282 O290 2.277 . S
O283 C280 1.160 . S
O283 Cd284 2.203 . S
Cd284 O283 2.203 . S
Cd284 O286 2.411 . S
Cd284 O287 2.333 . S
Cd284 O288 2.352 . S
Cd284 O292 2.277 . S
Cd284 O293 2.356 . S
C285 O290 1.209 . S
C285 O292 1.226 . S
O286 Cd282 2.273 . S
O286 Cd284 2.411 . S
O286 C289 1.320 . S
O287 Cd284 2.333 . S
O287 C289 1.214 . S
O288 Cd284 2.352 . S
O288 C291 1.258 . S
C289 O286 1.320 . S
C289 O287 1.214 . S
O290 Cd282 2.277 . S
O290 C285 1.209 . S
C291 O288 1.258 . S
C291 O293 1.282 . S
O292 Cd284 2.277 . S
O292 C285 1.226 . S
O293 Cd284 2.356 . S
O293 C291 1.282 . S
C294 O295 1.306 . S
C294 O297 1.160 . S
O295 C294 1.306 . S
O295 Cd296 2.228 . S
Cd296 O295 2.228 . S
Cd296 O300 2.273 . S
Cd296 O304 2.277 . S
O297 C294 1.160 . S
O297 Cd298 2.203 . S
Cd298 O297 2.203 . S
Cd298 O300 2.411 . S
Cd298 O301 2.333 . S
Cd298 O302 2.352 . S
Cd298 O306 2.277 . S
Cd298 O307 2.356 . S
C299 O304 1.209 . S
C299 O306 1.226 . S
O300 Cd296 2.273 . S
O300 Cd298 2.411 . S
O300 C303 1.320 . S
O301 Cd298 2.333 . S
O301 C303 1.214 . S
O302 Cd298 2.352 . S
O302 C305 1.258 . S
C303 O300 1.320 . S
C303 O301 1.214 . S
O304 Cd296 2.277 . S
O304 C299 1.209 . S
C305 O302 1.258 . S
C305 O307 1.282 . S
O306 Cd298 2.277 . S
O306 C299 1.226 . S
O307 Cd298 2.356 . S
O307 C305 1.282 . S
C308 O309 1.306 . S
C308 O311 1.160 . S
O309 C308 1.306 . S
O309 Cd310 2.228 . S
Cd310 O309 2.228 . S
Cd310 O314 2.273 . S
Cd310 O318 2.277 . S
O311 C308 1.160 . S
O311 Cd312 2.203 . S
Cd312 O311 2.203 . S
Cd312 O314 2.411 . S
Cd312 O315 2.333 . S
Cd312 O316 2.352 . S
Cd312 O320 2.277 . S
Cd312 O321 2.356 . S
C313 O318 1.209 . S
C313 O320 1.226 . S
O314 Cd310 2.273 . S
O314 Cd312 2.411 . S
O314 C317 1.320 . S
O315 Cd312 2.333 . S
O315 C317 1.214 . S
O316 Cd312 2.352 . S
O316 C319 1.258 . S
C317 O314 1.320 . S
C317 O315 1.214 . S
O318 Cd310 2.277 . S
O318 C313 1.209 . S
C319 O316 1.258 . S
C319 O321 1.282 . S
O320 Cd312 2.277 . S
O320 C313 1.226 . S
O321 Cd312 2.356 . S
O321 C319 1.282 . S
C322 O323 1.306 . S
C322 O325 1.160 . S
O323 C322 1.306 . S
O323 Cd324 2.228 . S
Cd324 O323 2.228 . S
Cd324 O328 2.273 . S
Cd324 O332 2.277 . S
O325 C322 1.160 . S
O325 Cd326 2.203 . S
Cd326 O325 2.203 . S
Cd326 O328 2.411 . S
Cd326 O329 2.333 . S
Cd326 O330 2.352 . S
Cd326 O334 2.277 . S
Cd326 O335 2.356 . S
C327 O332 1.209 . S
C327 O334 1.226 . S
O328 Cd324 2.273 . S
O328 Cd326 2.411 . S
O328 C331 1.320 . S
O329 Cd326 2.333 . S
O329 C331 1.214 . S
O330 Cd326 2.352 . S
O330 C333 1.258 . S
C331 O328 1.320 . S
C331 O329 1.214 . S
O332 Cd324 2.277 . S
O332 C327 1.209 . S
C333 O330 1.258 . S
C333 O335 1.282 . S
O334 Cd326 2.277 . S
O334 C327 1.226 . S
O335 Cd326 2.356 . S
O335 C333 1.282 . S
C336 O337 1.306 . S
C336 O339 1.160 . S
O337 C336 1.306 . S
O337 Cd338 2.228 . S
Cd338 O337 2.228 . S
Cd338 O342 2.273 . S
Cd338 O346 2.277 . S
O339 C336 1.160 . S
O339 Cd340 2.203 . S
Cd340 O339 2.203 . S
Cd340 O342 2.411 . S
Cd340 O343 2.333 . S
Cd340 O344 2.352 . S
Cd340 O348 2.277 . S
Cd340 O349 2.356 . S
C341 O346 1.209 . S
C341 O348 1.226 . S
O342 Cd338 2.273 . S
O342 Cd340 2.411 . S
O342 C345 1.320 . S
O343 Cd340 2.333 . S
O343 C345 1.214 . S
O344 Cd340 2.352 . S
O344 C347 1.258 . S
C345 O342 1.320 . S
C345 O343 1.214 . S
O346 Cd338 2.277 . S
O346 C341 1.209 . S
C347 O344 1.258 . S
C347 O349 1.282 . S
O348 Cd340 2.277 . S
O348 C341 1.226 . S
O349 Cd340 2.356 . S
O349 C347 1.282 . S
C350 O351 1.306 . S
C350 O353 1.160 . S
O351 C350 1.306 . S
O351 Cd352 2.228 . S
Cd352 O351 2.228 . S
Cd352 O356 2.273 . S
Cd352 O360 2.277 . S
O353 C350 1.160 . S
O353 Cd354 2.203 . S
Cd354 O353 2.203 . S
Cd354 O356 2.411 . S
Cd354 O357 2.333 . S
Cd354 O358 2.352 . S
Cd354 O362 2.277 . S
Cd354 O363 2.356 . S
C355 O360 1.209 . S
C355 O362 1.226 . S
O356 Cd352 2.273 . S
O356 Cd354 2.411 . S
O356 C359 1.320 . S
O357 Cd354 2.333 . S
O357 C359 1.214 . S
O358 Cd354 2.352 . S
O358 C361 1.258 . S
C359 O356 1.320 . S
C359 O357 1.214 . S
O360 Cd352 2.277 . S
O360 C355 1.209 . S
C361 O358 1.258 . S
C361 O363 1.282 . S
O362 Cd354 2.277 . S
O362 C355 1.226 . S
O363 Cd354 2.356 . S
O363 C361 1.282 . S
C364 O365 1.306 . S
C364 O367 1.160 . S
O365 C364 1.306 . S
O365 Cd366 2.228 . S
Cd366 O365 2.228 . S
Cd366 O370 2.273 . S
Cd366 O374 2.277 . S
O367 C364 1.160 . S
O367 Cd368 2.203 . S
Cd368 O367 2.203 . S
Cd368 O370 2.411 . S
Cd368 O371 2.333 . S
Cd368 O372 2.352 . S
Cd368 O376 2.277 . S
Cd368 O377 2.356 . S
C369 O374 1.209 . S
C369 O376 1.226 . S
O370 Cd366 2.273 . S
O370 Cd368 2.411 . S
O370 C373 1.320 . S
O371 Cd368 2.333 . S
O371 C373 1.214 . S
O372 Cd368 2.352 . S
O372 C375 1.258 . S
C373 O370 1.320 . S
C373 O371 1.214 . S
O374 Cd366 2.277 . S
O374 C369 1.209 . S
C375 O372 1.258 . S
C375 O377 1.282 . S
O376 Cd368 2.277 . S
O376 C369 1.226 . S
O377 Cd368 2.356 . S
O377 C375 1.282 . S
C378 O379 1.306 . S
C378 O381 1.160 . S
O379 C378 1.306 . S
O379 Cd380 2.228 . S
Cd380 O379 2.228 . S
Cd380 O384 2.273 . S
Cd380 O388 2.277 . S
O381 C378 1.160 . S
O381 Cd382 2.203 . S
Cd382 O381 2.203 . S
Cd382 O384 2.411 . S
Cd382 O385 2.333 . S
Cd382 O386 2.352 . S
Cd382 O390 2.277 . S
Cd382 O391 2.356 . S
C383 O388 1.209 . S
C383 O390 1.226 . S
O384 Cd380 2.273 . S
O384 Cd382 2.411 . S
O384 C387 1.320 . S
O385 Cd382 2.333 . S
O385 C387 1.214 . S
O386 Cd382 2.352 . S
O386 C389 1.258 . S
C387 O384 1.320 . S
C387 O385 1.214 . S
O388 Cd380 2.277 . S
O388 C383 1.209 . S
C389 O386 1.258 . S
C389 O391 1.282 . S
O390 Cd382 2.277 . S
O390 C383 1.226 . S
O391 Cd382 2.356 . S
O391 C389 1.282 . S
C392 O393 1.306 . S
C392 O395 1.160 . S
O393 C392 1.306 . S
O393 Cd394 2.228 . S
Cd394 O393 2.228 . S
Cd394 O398 2.273 . S
Cd394 O402 2.277 . S
O395 C392 1.160 . S
O395 Cd396 2.203 . S
Cd396 O395 2.203 . S
Cd396 O398 2.411 . S
Cd396 O399 2.333 . S
Cd396 O400 2.352 . S
Cd396 O404 2.277 . S
Cd396 O405 2.356 . S
C397 O402 1.209 . S
C397 O404 1.226 . S
O398 Cd394 2.273 . S
O398 Cd396 2.411 . S
O398 C401 1.320 . S
O399 Cd396 2.333 . S
O399 C401 1.214 . S
O400 Cd396 2.352 . S
O400 C403 1.258 . S
C401 O398 1.320 . S
C401 O399 1.214 . S
O402 Cd394 2.277 . S
O402 C397 1.209 . S
C403 O400 1.258 . S
C403 O405 1.282 . S
O404 Cd396 2.277 . S
O404 C397 1.226 . S
O405 Cd396 2.356 . S
O405 C403 1.282 . S
C406 O407 1.306 . S
C406 O409 1.160 . S
O407 C406 1.306 . S
O407 Cd408 2.228 . S
Cd408 O407 2.228 . S
Cd408 O412 2.273 . S
Cd408 O416 2.277 . S
O409 C406 1.160 . S
O409 Cd410 2.203 . S
Cd410 O409 2.203 . S
Cd410 O412 2.411 . S
Cd410 O413 2.333 . S
Cd410 O414 2.352 . S
Cd410 O418 2.277 . S
Cd410 O419 2.356 . S
C411 O416 1.209 . S
C411 O418 1.226 . S
O412 Cd408 2.273 . S
O412 Cd410 2.411 . S
O412 C415 1.320 . S
O413 Cd410 2.333 . S
O413 C415 1.214 . S
O414 Cd410 2.352 . S
O414 C417 1.258 . S
C415 O412 1.320 . S
C415 O413 1.214 . S
O416 Cd408 2.277 . S
O416 C411 1.209 . S
C417 O414 1.258 . S
C417 O419 1.282 . S
O418 Cd410 2.277 . S
O418 C411 1.226 . S
O419 Cd410 2.356 . S
O419 C417 1.282 . S
C420 O421 1.306 . S
C420 O423 1.160 . S
O421 C420 1.306 . S
O421 Cd422 2.228 . S
Cd422 O421 2.228 . S
Cd422 O426 2.273 . S
Cd422 O430 2.277 . S
O423 C420 1.160 . S
O423 Cd424 2.203 . S
Cd424 O423 2.203 . S
Cd424 O426 2.411 . S
Cd424 O427 2.333 . S
Cd424 O428 2.352 . S
Cd424 O432 2.277 . S
Cd424 O433 2.356 . S
C425 O430 1.209 . S
C425 O432 1.226 . S
O426 Cd422 2.273 . S
O426 Cd424 2.411 . S
O426 C429 1.320 . S
O427 Cd424 2.333 . S
O427 C429 1.214 . S
O428 Cd424 2.352 . S
O428 C431 1.258 . S
C429 O426 1.320 . S
C429 O427 1.214 . S
O430 Cd422 2.277 . S
O430 C425 1.209 . S
C431 O428 1.258 . S
C431 O433 1.282 . S
O432 Cd424 2.277 . S
O432 C425 1.226 . S
O433 Cd424 2.356 . S
O433 C431 1.282 . S
C434 O435 1.306 . S
C434 O437 1.160 . S
O435 C434 1.306 . S
O435 Cd436 2.228 . S
Cd436 O435 2.228 . S
Cd436 O440 2.273 . S
Cd436 O444 2.277 . S
O437 C434 1.160 . S
O437 Cd438 2.203 . S
Cd438 O437 2.203 . S
Cd438 O440 2.411 . S
Cd438 O441 2.333 . S
Cd438 O442 2.352 . S
Cd438 O446 2.277 . S
Cd438 O447 2.356 . S
C439 O444 1.209 . S
C439 O446 1.226 . S
O440 Cd436 2.273 . S
O440 Cd438 2.411 . S
O440 C443 1.320 . S
O441 Cd438 2.333 . S
O441 C443 1.214 . S
O442 Cd438 2.352 . S
O442 C445 1.258 . S
C443 O440 1.320 . S
C443 O441 1.214 . S
O444 Cd436 2.277 . S
O444 C439 1.209 . S
C445 O442 1.258 . S
C445 O447 1.282 . S
O446 Cd438 2.277 . S
O446 C439 1.226 . S
O447 Cd438 2.356 . S
O447 C445 1.282 . S
C448 O449 1.306 . S
C448 O451 1.160 . S
O449 C448 1.306 . S
O449 Cd450 2.228 . S
Cd450 O449 2.228 . S
Cd450 O454 2.273 . S
Cd450 O458 2.277 . S
O451 C448 1.160 . S
O451 Cd452 2.203 . S
Cd452 O451 2.203 . S
Cd452 O454 2.411 . S
Cd452 O455 2.333 . S
Cd452 O456 2.352 . S
Cd452 O460 2.277 . S
Cd452 O461 2.356 . S
C453 O458 1.209 . S
C453 O460 1.226 . S
O454 Cd450 2.273 . S
O454 Cd452 2.411 . S
O454 C457 1.320 . S
O455 Cd452 2.333 . S
O455 C457 1.214 . S
O456 Cd452 2.352 . S
O456 C459 1.258 . S
C457 O454 1.320 . S
C457 O455 1.214 . S
O458 Cd450 2.277 . S
O458 C453 1.209 . S
C459 O456 1.258 . S
C459 O461 1.282 . S
O460 Cd452 2.277 . S
O460 C453 1.226 . S
O461 Cd452 2.356 . S
O461 C459 1.282 . S
C462 O463 1.306 . S
C462 O465 1.160 . S
O463 C462 1.306 . S
O463 Cd464 2.228 . S
Cd464 O463 2.228 . S
Cd464 O468 2.273 . S
Cd464 O472 2.277 . S
O465 C462 1.160 . S
O465 Cd466 2.203 . S
Cd466 O465 2.203 . S
Cd466 O468 2.411 . S
Cd466 O469 2.333 . S
Cd466 O470 2.352 . S
Cd466 O474 2.277 . S
Cd466 O475 2.356 . S
C467 O472 1.209 . S
C467 O474 1.226 . S
O468 Cd464 2.273 . S
O468 Cd466 2.411 . S
O468 C471 1.320 . S
O469 Cd466 2.333 . S
O469 C471 1.214 . S
O470 Cd466 2.352 . S
O470 C473 1.258 . S
C471 O468 1.320 . S
C471 O469 1.214 . S
O472 Cd464 2.277 . S
O472 C467 1.209 . S
C473 O470 1.258 . S
C473 O475 1.282 . S
O474 Cd466 2.277 . S
O474 C467 1.226 . S
O475 Cd466 2.356 . S
O475 C473 1.282 . S
C476 O477 1.306 . S
C476 O479 1.160 . S
O477 C476 1.306 . S
O477 Cd478 2.228 . S
Cd478 O477 2.228 . S
Cd478 O482 2.273 . S
Cd478 O486 2.277 . S
O479 C476 1.160 . S
O479 Cd480 2.203 . S
Cd480 O479 2.203 . S
Cd480 O482 2.411 . S
Cd480 O483 2.333 . S
Cd480 O484 2.352 . S
Cd480 O488 2.277 . S
Cd480 O489 2.356 . S
C481 O486 1.209 . S
C481 O488 1.226 . S
O482 Cd478 2.273 . S
O482 Cd480 2.411 . S
O482 C485 1.320 . S
O483 Cd480 2.333 . S
O483 C485 1.214 . S
O484 Cd480 2.352 . S
O484 C487 1.258 . S
C485 O482 1.320 . S
C485 O483 1.214 . S
O486 Cd478 2.277 . S
O486 C481 1.209 . S
C487 O484 1.258 . S
C487 O489 1.282 . S
O488 Cd480 2.277 . S
O488 C481 1.226 . S
O489 Cd480 2.356 . S
O489 C487 1.282 . S
C490 O491 1.306 . S
C490 O493 1.160 . S
O491 C490 1.306 . S
O491 Cd492 2.228 . S
Cd492 O491 2.228 . S
Cd492 O496 2.273 . S
Cd492 O500 2.277 . S
O493 C490 1.160 . S
O493 Cd494 2.203 . S
Cd494 O493 2.203 . S
Cd494 O496 2.411 . S
Cd494 O497 2.333 . S
Cd494 O498 2.352 . S
Cd494 O502 2.277 . S
Cd494 O503 2.356 . S
C495 O500 1.209 . S
C495 O502 1.226 . S
O496 Cd492 2.273 . S
O496 Cd494 2.411 . S
O496 C499 1.320 . S
O497 Cd494 2.333 . S
O497 C499 1.214 . S
O498 Cd494 2.352 . S
O498 C501 1.258 . S
C499 O496 1.320 . S
C499 O497 1.214 . S
O500 Cd492 2.277 . S
O500 C495 1.209 . S
C501 O498 1.258 . S
C501 O503 1.282 . S
O502 Cd494 2.277 . S
O502 C495 1.226 . S
O503 Cd494 2.356 . S
O503 C501 1.282 . S
H504 C522 0.951 . S
H505 C524 0.951 . S
H506 C526 0.950 . S
H507 C527 0.950 . S
H508 C529 0.950 . S
H509 C532 0.950 . S
H510 C533 0.950 . S
H511 C535 0.950 . S
H512 C536 0.950 . S
H513 C537 0.951 1_554 S
H514 C539 0.951 . S
H515 C541 0.950 . S
H516 C542 0.950 . S
H517 C544 0.950 . S
H518 C547 0.950 . S
H519 C548 0.950 . S
H520 C550 0.950 . S
H521 C551 0.950 . S
C522 H504 0.951 . S
C522 C523 1.366 . S
C522 C524 1.388 . S
C523 C522 1.366 . S
C523 C527 1.385 . S
C524 H505 0.951 . S
C524 C522 1.388 . S
C524 C525 1.366 . S
C525 C524 1.366 . S
C525 C526 1.414 . S
C525 C528 1.499 . S
C526 H506 0.950 . S
C526 C525 1.414 . S
C526 C527 1.374 . S
C527 H507 0.950 . S
C527 C523 1.385 . S
C527 C526 1.374 . S
C528 C525 1.499 . S
C528 C529 1.373 . S
C528 C530 1.389 . S
C529 H508 0.950 . S
C529 C528 1.373 . S
C529 C545 1.377 . S
C530 C528 1.389 . S
C530 C531 1.524 . S
C530 C544 1.377 . S
C531 C530 1.524 . S
C531 C532 1.397 . S
C531 C536 1.363 . S
C532 H509 0.950 . S
C532 C531 1.397 . S
C532 C533 1.334 . S
C533 H510 0.950 . S
C533 C532 1.334 . S
C533 C534 1.287 . S
C534 C533 1.287 . S
C534 C535 1.524 . S
C534 H553 0.913 . S
C535 H511 0.950 . S
C535 C534 1.524 . S
C535 C536 1.415 . S
C536 H512 0.950 . S
C536 C531 1.363 . S
C536 C535 1.415 . S
C537 H513 0.951 1_556 S
C537 C538 1.366 . S
C537 C539 1.388 . S
C538 C537 1.366 . S
C538 C542 1.385 . S
C539 H514 0.951 . S
C539 C537 1.388 . S
C539 C540 1.366 . S
C540 C539 1.366 . S
C540 C541 1.414 . S
C540 C543 1.499 . S
C541 H515 0.950 . S
C541 C540 1.414 . S
C541 C542 1.374 . S
C542 H516 0.950 . S
C542 C538 1.385 . S
C542 C541 1.374 . S
C543 C540 1.499 . S
C543 C544 1.373 . S
C543 C545 1.389 . S
C544 H517 0.950 . S
C544 C530 1.377 . S
C544 C543 1.373 . S
C545 C529 1.377 . S
C545 C543 1.389 . S
C545 C546 1.524 . S
C546 C545 1.524 . S
C546 C547 1.397 . S
C546 C551 1.363 . S
C547 H518 0.950 . S
C547 C546 1.397 . S
C547 C548 1.334 1_556 S
C548 H519 0.950 . S
C548 C547 1.334 1_554 S
C548 C549 1.287 . S
C549 C548 1.287 . S
C549 C550 1.524 . S
C549 H552 0.999 . S
C550 H520 0.950 . S
C550 C549 1.524 . S
C550 C551 1.415 1_554 S
C551 H521 0.950 . S
C551 C546 1.363 . S
C551 C550 1.415 1_556 S
H552 C549 0.999 . S
H553 C534 0.913 . S
H554 C572 0.951 . S
H555 C574 0.951 . S
H556 C576 0.950 . S
H557 C577 0.950 . S
H558 C579 0.950 . S
H559 C582 0.950 . S
H560 C583 0.950 . S
H561 C585 0.950 . S
H562 C586 0.950 . S
H563 C587 0.951 . S
H564 C589 0.951 . S
H565 C591 0.950 . S
H566 C592 0.950 1_554 S
H567 C594 0.950 . S
H568 C597 0.950 . S
H569 C598 0.950 1_554 S
H570 C600 0.957 . S
H571 C601 0.950 . S
C572 H554 0.951 . S
C572 C573 1.366 . S
C572 C574 1.388 . S
C573 C572 1.366 . S
C573 C577 1.385 . S
C574 H555 0.951 . S
C574 C572 1.388 . S
C574 C575 1.366 . S
C575 C574 1.366 . S
C575 C576 1.414 . S
C575 C578 1.499 . S
C576 H556 0.950 . S
C576 C575 1.414 . S
C576 C577 1.374 . S
C577 H557 0.950 . S
C577 C573 1.385 . S
C577 C576 1.374 . S
C578 C575 1.499 . S
C578 C579 1.373 . S
C578 C580 1.389 . S
C579 H558 0.950 . S
C579 C578 1.373 . S
C579 C595 1.377 . S
C580 C578 1.389 . S
C580 C581 1.524 . S
C580 C594 1.377 . S
C581 C580 1.524 . S
C581 C582 1.397 . S
C581 C586 1.363 . S
C582 H559 0.950 . S
C582 C581 1.397 . S
C582 C583 1.334 . S
C583 H560 0.950 . S
C583 C582 1.334 . S
C583 C584 1.287 . S
C584 C583 1.287 . S
C584 C585 1.524 . S
C584 H603 0.913 . S
C585 H561 0.950 . S
C585 C584 1.524 . S
C585 C586 1.415 . S
C586 H562 0.950 . S
C586 C581 1.363 . S
C586 C585 1.415 . S
C587 H563 0.951 . S
C587 C588 1.366 . S
C587 C589 1.388 . S
C588 C587 1.366 . S
C588 C592 1.385 . S
C589 H564 0.951 . S
C589 C587 1.388 . S
C589 C590 1.366 . S
C590 C589 1.366 . S
C590 C591 1.414 . S
C590 C593 1.499 . S
C591 H565 0.950 . S
C591 C590 1.414 . S
C591 C592 1.374 . S
C592 H566 0.950 1_556 S
C592 C588 1.385 . S
C592 C591 1.374 . S
C593 C590 1.499 . S
C593 C594 1.373 . S
C593 C595 1.389 . S
C594 H567 0.950 . S
C594 C580 1.377 . S
C594 C593 1.373 . S
C595 C579 1.377 . S
C595 C593 1.389 . S
C595 C596 1.524 . S
C596 C595 1.524 . S
C596 C597 1.397 . S
C596 C601 1.363 . S
C597 H568 0.950 . S
C597 C596 1.397 . S
C597 C598 1.334 . S
C598 H569 0.950 1_556 S
C598 C597 1.334 . S
C598 C599 1.287 . S
C599 C598 1.287 . S
C599 C600 1.522 1_545 S
C599 H602 0.999 1_545 S
C600 H570 0.957 . S
C600 C599 1.522 1_565 S
C600 C601 1.409 1_565 S
C601 H571 0.950 . S
C601 C596 1.363 . S
C601 C600 1.409 1_545 S
H602 C599 0.999 1_565 S
H603 C584 0.913 . S
H604 C622 0.951 . S
H605 C624 0.951 . S
H606 C626 0.950 . S
H607 C627 0.953 1_554 S
H608 C629 0.950 . S
H609 C632 0.950 . S
H610 C633 0.950 . S
H611 C635 0.950 . S
H612 C636 0.950 . S
H613 C637 0.951 . S
H614 C639 0.951 . S
H615 C641 0.950 . S
H616 C642 0.950 . S
H617 C644 0.950 . S
H618 C647 0.950 . S
H619 C648 0.950 . S
H620 C650 0.950 . S
H621 C651 0.950 . S
C622 H604 0.951 . S
C622 C623 1.366 . S
C622 C624 1.388 . S
C623 C622 1.366 . S
C623 C627 1.383 . S
C624 H605 0.951 . S
C624 C622 1.388 . S
C624 C625 1.366 . S
C625 C624 1.366 . S
C625 C626 1.414 . S
C625 C628 1.499 . S
C626 H606 0.950 . S
C626 C625 1.414 . S
C626 C627 1.372 . S
C627 H607 0.953 1_556 S
C627 C623 1.383 . S
C627 C626 1.372 . S
C628 C625 1.499 . S
C628 C629 1.373 . S
C628 C630 1.389 . S
C629 H608 0.950 . S
C629 C628 1.373 . S
C629 C645 1.377 . S
C630 C628 1.389 . S
C630 C631 1.524 . S
C630 C644 1.377 . S
C631 C630 1.524 . S
C631 C632 1.397 . S
C631 C636 1.363 . S
C632 H609 0.950 . S
C632 C631 1.397 . S
C632 C633 1.334 . S
C633 H610 0.950 . S
C633 C632 1.334 . S
C633 C634 1.287 . S
C634 C633 1.287 . S
C634 C635 1.524 . S
C634 H653 0.913 . S
C635 H611 0.950 . S
C635 C634 1.524 . S
C635 C636 1.415 . S
C636 H612 0.950 . S
C636 C631 1.363 . S
C636 C635 1.415 . S
C637 H613 0.951 . S
C637 C638 1.366 . S
C637 C639 1.388 . S
C638 C637 1.366 . S
C638 C642 1.385 . S
C639 H614 0.951 . S
C639 C637 1.388 . S
C639 C640 1.366 . S
C640 C639 1.366 . S
C640 C641 1.414 . S
C640 C643 1.499 . S
C641 H615 0.950 . S
C641 C640 1.414 . S
C641 C642 1.374 . S
C642 H616 0.950 . S
C642 C638 1.385 . S
C642 C641 1.374 . S
C643 C640 1.499 . S
C643 C644 1.373 . S
C643 C645 1.389 . S
C644 H617 0.950 . S
C644 C630 1.377 . S
C644 C643 1.373 . S
C645 C629 1.377 . S
C645 C643 1.389 . S
C645 C646 1.524 . S
C646 C645 1.524 . S
C646 C647 1.397 . S
C646 C651 1.363 . S
C647 H618 0.950 . S
C647 C646 1.397 . S
C647 C648 1.334 . S
C648 H619 0.950 . S
C648 C647 1.334 . S
C648 C649 1.287 . S
C649 C648 1.287 . S
C649 C650 1.524 . S
C649 H652 0.999 . S
C650 H620 0.950 . S
C650 C649 1.524 . S
C650 C651 1.415 . S
C651 H621 0.950 . S
C651 C646 1.363 . S
C651 C650 1.415 . S
H652 C649 0.999 . S
H653 C634 0.913 . S
H654 C672 0.951 . S
H655 C674 0.951 . S
H656 C676 0.950 . S
H657 C677 0.950 . S
H658 C679 0.950 . S
H659 C682 0.950 . S
H660 C683 0.950 . S
H661 C685 0.950 . S
H662 C686 0.950 . S
H663 C687 0.951 . S
H664 C689 0.951 . S
H665 C691 0.950 . S
H666 C692 0.950 . S
H667 C694 0.950 . S
H668 C697 0.950 . S
H669 C698 0.950 . S
H670 C700 0.950 . S
H671 C701 0.950 . S
C672 H654 0.951 . S
C672 C673 1.366 . S
C672 C674 1.388 . S
C673 C672 1.366 . S
C673 C677 1.385 . S
C674 H655 0.951 . S
C674 C672 1.388 . S
C674 C675 1.366 . S
C675 C674 1.366 . S
C675 C676 1.414 . S
C675 C678 1.499 . S
C676 H656 0.950 . S
C676 C675 1.414 . S
C676 C677 1.374 . S
C677 H657 0.950 . S
C677 C673 1.385 . S
C677 C676 1.374 . S
C678 C675 1.499 . S
C678 C679 1.373 . S
C678 C680 1.389 . S
C679 H658 0.950 . S
C679 C678 1.373 . S
C679 C695 1.377 . S
C680 C678 1.389 . S
C680 C681 1.524 . S
C680 C694 1.377 . S
C681 C680 1.524 . S
C681 C682 1.397 . S
C681 C686 1.363 . S
C682 H659 0.950 . S
C682 C681 1.397 . S
C682 C683 1.334 . S
C683 H660 0.950 . S
C683 C682 1.334 . S
C683 C684 1.287 . S
C684 C683 1.287 . S
C684 C685 1.524 . S
C684 H703 0.913 . S
C685 H661 0.950 . S
C685 C684 1.524 . S
C685 C686 1.415 . S
C686 H662 0.950 . S
C686 C681 1.363 . S
C686 C685 1.415 . S
C687 H663 0.951 . S
C687 C688 1.366 . S
C687 C689 1.388 . S
C688 C687 1.366 . S
C688 C692 1.385 . S
C689 H664 0.951 . S
C689 C687 1.388 . S
C689 C690 1.366 . S
C690 C689 1.366 . S
C690 C691 1.414 . S
C690 C693 1.499 . S
C691 H665 0.950 . S
C691 C690 1.414 . S
C691 C692 1.374 . S
C692 H666 0.950 . S
C692 C688 1.385 . S
C692 C691 1.374 . S
C693 C690 1.499 . S
C693 C694 1.373 . S
C693 C695 1.389 . S
C694 H667 0.950 . S
C694 C680 1.377 . S
C694 C693 1.373 . S
C695 C679 1.377 . S
C695 C693 1.389 . S
C695 C696 1.524 . S
C696 C695 1.524 . S
C696 C697 1.397 . S
C696 C701 1.363 . S
C697 H668 0.950 . S
C697 C696 1.397 . S
C697 C698 1.334 . S
C698 H669 0.950 . S
C698 C697 1.334 . S
C698 C699 1.287 . S
C699 C698 1.287 . S
C699 C700 1.524 . S
C699 H702 0.999 . S
C700 H670 0.950 . S
C700 C699 1.524 . S
C700 C701 1.415 . S
C701 H671 0.950 . S
C701 C696 1.363 . S
C701 C700 1.415 . S
H702 C699 0.999 . S
H703 C684 0.913 . S
H704 C722 0.951 . S
H705 C724 0.951 . S
H706 C726 0.950 . S
H707 C727 0.950 . S
H708 C729 0.950 . S
H709 C732 0.950 . S
H710 C733 0.950 . S
H711 C735 0.950 . S
H712 C736 0.950 . S
H713 C737 0.951 . S
H714 C739 0.951 . S
H715 C741 0.950 . S
H716 C742 0.950 . S
H717 C744 0.950 . S
H718 C747 0.950 . S
H719 C748 0.950 . S
H720 C750 0.950 . S
H721 C751 0.950 . S
C722 H704 0.951 . S
C722 C723 1.366 . S
C722 C724 1.388 . S
C723 C722 1.366 . S
C723 C727 1.385 . S
C724 H705 0.951 . S
C724 C722 1.388 . S
C724 C725 1.366 . S
C725 C724 1.366 . S
C725 C726 1.414 . S
C725 C728 1.499 . S
C726 H706 0.950 . S
C726 C725 1.414 . S
C726 C727 1.374 . S
C727 H707 0.950 . S
C727 C723 1.385 . S
C727 C726 1.374 . S
C728 C725 1.499 . S
C728 C729 1.373 . S
C728 C730 1.389 . S
C729 H708 0.950 . S
C729 C728 1.373 . S
C729 C745 1.377 . S
C730 C728 1.389 . S
C730 C731 1.524 . S
C730 C744 1.377 . S
C731 C730 1.524 . S
C731 C732 1.397 . S
C731 C736 1.363 . S
C732 H709 0.950 . S
C732 C731 1.397 . S
C732 C733 1.334 . S
C733 H710 0.950 . S
C733 C732 1.334 . S
C733 C734 1.287 . S
C734 C733 1.287 . S
C734 C735 1.524 . S
C734 H753 0.913 . S
C735 H711 0.950 . S
C735 C734 1.524 . S
C735 C736 1.415 . S
C736 H712 0.950 . S
C736 C731 1.363 . S
C736 C735 1.415 . S
C737 H713 0.951 . S
C737 C738 1.366 . S
C737 C739 1.388 . S
C738 C737 1.366 . S
C738 C742 1.385 . S
C739 H714 0.951 . S
C739 C737 1.388 . S
C739 C740 1.366 . S
C740 C739 1.366 . S
C740 C741 1.414 . S
C740 C743 1.499 . S
C741 H715 0.950 . S
C741 C740 1.414 . S
C741 C742 1.374 . S
C742 H716 0.950 . S
C742 C738 1.385 . S
C742 C741 1.374 . S
C743 C740 1.499 . S
C743 C744 1.373 . S
C743 C745 1.389 . S
C744 H717 0.950 . S
C744 C730 1.377 . S
C744 C743 1.373 . S
C745 C729 1.377 . S
C745 C743 1.389 . S
C745 C746 1.524 . S
C746 C745 1.524 . S
C746 C747 1.397 . S
C746 C751 1.363 . S
C747 H718 0.950 . S
C747 C746 1.397 . S
C747 C748 1.334 . S
C748 H719 0.950 . S
C748 C747 1.334 . S
C748 C749 1.287 . S
C749 C748 1.287 . S
C749 C750 1.524 . S
C749 H752 0.999 . S
C750 H720 0.950 . S
C750 C749 1.524 . S
C750 C751 1.415 . S
C751 H721 0.950 . S
C751 C746 1.363 . S
C751 C750 1.415 . S
H752 C749 0.999 . S
H753 C734 0.913 . S
H754 C772 0.951 . S
H755 C774 0.951 . S
H756 C776 0.950 . S
H757 C777 0.950 . S
H758 C779 0.950 . S
H759 C782 0.950 . S
H760 C783 0.950 . S
H761 C785 0.950 . S
H762 C786 0.950 . S
H763 C787 0.951 . S
H764 C789 0.951 . S
H765 C791 0.950 . S
H766 C792 0.950 . S
H767 C794 0.950 . S
H768 C797 0.950 . S
H769 C798 0.950 . S
H770 C800 0.950 . S
H771 C801 0.950 . S
C772 H754 0.951 . S
C772 C773 1.366 . S
C772 C774 1.388 . S
C773 C772 1.366 . S
C773 C777 1.385 . S
C774 H755 0.951 . S
C774 C772 1.388 . S
C774 C775 1.366 . S
C775 C774 1.366 . S
C775 C776 1.414 . S
C775 C778 1.499 . S
C776 H756 0.950 . S
C776 C775 1.414 . S
C776 C777 1.374 . S
C777 H757 0.950 . S
C777 C773 1.385 . S
C777 C776 1.374 . S
C778 C775 1.499 . S
C778 C779 1.373 . S
C778 C780 1.389 . S
C779 H758 0.950 . S
C779 C778 1.373 . S
C779 C795 1.377 . S
C780 C778 1.389 . S
C780 C781 1.524 . S
C780 C794 1.377 . S
C781 C780 1.524 . S
C781 C782 1.397 . S
C781 C786 1.363 . S
C782 H759 0.950 . S
C782 C781 1.397 . S
C782 C783 1.334 . S
C783 H760 0.950 . S
C783 C782 1.334 . S
C783 C784 1.287 . S
C784 C783 1.287 . S
C784 C785 1.524 . S
C784 H803 0.913 . S
C785 H761 0.950 . S
C785 C784 1.524 . S
C785 C786 1.415 . S
C786 H762 0.950 . S
C786 C781 1.363 . S
C786 C785 1.415 . S
C787 H763 0.951 . S
C787 C788 1.366 . S
C787 C789 1.388 . S
C788 C787 1.366 . S
C788 C792 1.385 . S
C789 H764 0.951 . S
C789 C787 1.388 . S
C789 C790 1.366 . S
C790 C789 1.366 . S
C790 C791 1.414 . S
C790 C793 1.499 . S
C791 H765 0.950 . S
C791 C790 1.414 . S
C791 C792 1.374 . S
C792 H766 0.950 . S
C792 C788 1.385 . S
C792 C791 1.374 . S
C793 C790 1.499 . S
C793 C794 1.373 . S
C793 C795 1.389 . S
C794 H767 0.950 . S
C794 C780 1.377 . S
C794 C793 1.373 . S
C795 C779 1.377 . S
C795 C793 1.389 . S
C795 C796 1.524 . S
C796 C795 1.524 . S
C796 C797 1.397 . S
C796 C801 1.363 . S
C797 H768 0.950 . S
C797 C796 1.397 . S
C797 C798 1.334 . S
C798 H769 0.950 . S
C798 C797 1.334 . S
C798 C799 1.287 . S
C799 C798 1.287 . S
C799 C800 1.524 . S
C799 H802 0.999 . S
C800 H770 0.950 . S
C800 C799 1.524 . S
C800 C801 1.415 . S
C801 H771 0.950 . S
C801 C796 1.363 . S
C801 C800 1.415 . S
H802 C799 0.999 . S
H803 C784 0.913 . S
H804 C822 0.951 . S
H805 C824 0.951 . S
H806 C826 0.950 . S
H807 C827 0.950 . S
H808 C829 0.950 . S
H809 C832 0.950 . S
H810 C833 0.950 . S
H811 C835 0.950 . S
H812 C836 0.950 . S
H813 C837 0.951 1_556 S
H814 C839 0.951 . S
H815 C841 0.950 . S
H816 C842 0.950 . S
H817 C844 0.950 . S
H818 C847 0.950 . S
H819 C848 0.950 1_556 S
H820 C850 0.950 . S
H821 C851 0.950 . S
C822 H804 0.951 . S
C822 C823 1.366 . S
C822 C824 1.388 . S
C823 C822 1.366 . S
C823 C827 1.385 . S
C824 H805 0.951 . S
C824 C822 1.388 . S
C824 C825 1.366 . S
C825 C824 1.366 . S
C825 C826 1.414 . S
C825 C828 1.499 . S
C826 H806 0.950 . S
C826 C825 1.414 . S
C826 C827 1.374 . S
C827 H807 0.950 . S
C827 C823 1.385 . S
C827 C826 1.374 . S
C828 C825 1.499 . S
C828 C829 1.373 . S
C828 C830 1.389 . S
C829 H808 0.950 . S
C829 C828 1.373 . S
C829 C845 1.377 . S
C830 C828 1.389 . S
C830 C831 1.524 . S
C830 C844 1.377 . S
C831 C830 1.524 . S
C831 C832 1.397 . S
C831 C836 1.363 . S
C832 H809 0.950 . S
C832 C831 1.397 . S
C832 C833 1.334 . S
C833 H810 0.950 . S
C833 C832 1.334 . S
C833 C834 1.287 . S
C834 C833 1.287 . S
C834 C835 1.524 . S
C834 H853 0.913 . S
C835 H811 0.950 . S
C835 C834 1.524 . S
C835 C836 1.415 . S
C836 H812 0.950 . S
C836 C831 1.363 . S
C836 C835 1.415 . S
C837 H813 0.951 1_554 S
C837 C838 1.366 . S
C837 C839 1.388 . S
C838 C837 1.366 . S
C838 C842 1.385 . S
C839 H814 0.951 . S
C839 C837 1.388 . S
C839 C840 1.366 . S
C840 C839 1.366 . S
C840 C841 1.414 . S
C840 C843 1.499 . S
C841 H815 0.950 . S
C841 C840 1.414 . S
C841 C842 1.374 . S
C842 H816 0.950 . S
C842 C838 1.385 . S
C842 C841 1.374 . S
C843 C840 1.499 . S
C843 C844 1.373 . S
C843 C845 1.389 . S
C844 H817 0.950 . S
C844 C830 1.377 . S
C844 C843 1.373 . S
C845 C829 1.377 . S
C845 C843 1.389 . S
C845 C846 1.524 . S
C846 C845 1.524 . S
C846 C847 1.397 . S
C846 C851 1.363 . S
C847 H818 0.950 . S
C847 C846 1.397 . S
C847 C848 1.334 . S
C848 H819 0.950 1_554 S
C848 C847 1.334 . S
C848 C849 1.287 1_554 S
C849 C848 1.287 1_556 S
C849 C850 1.524 . S
C849 H852 0.999 . S
C850 H820 0.950 . S
C850 C849 1.524 . S
C850 C851 1.415 1_556 S
C851 H821 0.950 . S
C851 C846 1.363 . S
C851 C850 1.415 1_554 S
H852 C849 0.999 . S
H853 C834 0.913 . S
H854 C872 0.951 . S
H855 C874 0.951 . S
H856 C876 0.950 . S
H857 C877 0.950 . S
H858 C879 0.950 . S
H859 C882 0.950 . S
H860 C883 0.950 . S
H861 C885 0.950 . S
H862 C886 0.950 . S
H863 C887 0.951 . S
H864 C889 0.951 . S
H865 C891 0.950 . S
H866 C892 0.950 1_556 S
H867 C894 0.950 . S
H868 C897 0.950 . S
H869 C898 0.950 . S
H870 C900 0.950 . S
H871 C901 0.950 . S
C872 H854 0.951 . S
C872 C873 1.366 . S
C872 C874 1.388 . S
C873 C872 1.366 . S
C873 C877 1.385 . S
C874 H855 0.951 . S
C874 C872 1.388 . S
C874 C875 1.366 . S
C875 C874 1.366 . S
C875 C876 1.414 . S
C875 C878 1.499 . S
C876 H856 0.950 . S
C876 C875 1.414 . S
C876 C877 1.374 . S
C877 H857 0.950 . S
C877 C873 1.385 . S
C877 C876 1.374 . S
C878 C875 1.499 . S
C878 C879 1.373 . S
C878 C880 1.389 . S
C879 H858 0.950 . S
C879 C878 1.373 . S
C879 C895 1.377 . S
C880 C878 1.389 . S
C880 C881 1.524 . S
C880 C894 1.377 . S
C881 C880 1.524 . S
C881 C882 1.397 . S
C881 C886 1.363 . S
C882 H859 0.950 . S
C882 C881 1.397 . S
C882 C883 1.334 . S
C883 H860 0.950 . S
C883 C882 1.334 . S
C883 C884 1.287 . S
C884 C883 1.287 . S
C884 C885 1.524 . S
C884 H903 0.913 . S
C885 H861 0.950 . S
C885 C884 1.524 . S
C885 C886 1.415 . S
C886 H862 0.950 . S
C886 C881 1.363 . S
C886 C885 1.415 . S
C887 H863 0.951 . S
C887 C888 1.366 . S
C887 C889 1.388 . S
C888 C887 1.366 . S
C888 C892 1.385 . S
C889 H864 0.951 . S
C889 C887 1.388 . S
C889 C890 1.366 . S
C890 C889 1.366 . S
C890 C891 1.414 . S
C890 C893 1.499 . S
C891 H865 0.950 . S
C891 C890 1.414 . S
C891 C892 1.374 . S
C892 H866 0.950 1_554 S
C892 C888 1.385 . S
C892 C891 1.374 . S
C893 C890 1.499 . S
C893 C894 1.373 . S
C893 C895 1.389 . S
C894 H867 0.950 . S
C894 C880 1.377 . S
C894 C893 1.373 . S
C895 C879 1.377 . S
C895 C893 1.389 . S
C895 C896 1.524 . S
C896 C895 1.524 . S
C896 C897 1.397 . S
C896 C901 1.363 . S
C897 H868 0.950 . S
C897 C896 1.397 . S
C897 C898 1.334 . S
C898 H869 0.950 . S
C898 C897 1.334 . S
C898 C899 1.287 . S
C899 C898 1.287 . S
C899 C900 1.524 . S
C899 H902 0.999 . S
C900 H870 0.950 . S
C900 C899 1.524 . S
C900 C901 1.415 . S
C901 H871 0.950 . S
C901 C896 1.363 . S
C901 C900 1.415 . S
H902 C899 0.999 . S
H903 C884 0.913 . S
H904 C922 0.951 . S
H905 C924 0.951 . S
H906 C926 0.950 . S
H907 C927 0.950 . S
H908 C929 0.950 . S
H909 C932 0.950 . S
H910 C933 0.950 . S
H911 C935 0.950 1_655 S
H912 C936 0.950 . S
H913 C937 0.951 . S
H914 C939 0.951 . S
H915 C941 0.950 . S
H916 C942 0.950 . S
H917 C944 0.950 . S
H918 C947 0.950 . S
H919 C948 0.950 . S
H920 C950 0.950 . S
H921 C951 0.950 . S
C922 H904 0.951 . S
C922 C923 1.366 . S
C922 C924 1.388 . S
C923 C922 1.366 . S
C923 C927 1.385 . S
C924 H905 0.951 . S
C924 C922 1.388 . S
C924 C925 1.366 . S
C925 C924 1.366 . S
C925 C926 1.414 . S
C925 C928 1.499 . S
C926 H906 0.950 . S
C926 C925 1.414 . S
C926 C927 1.374 . S
C927 H907 0.950 . S
C927 C923 1.385 . S
C927 C926 1.374 . S
C928 C925 1.499 . S
C928 C929 1.373 . S
C928 C930 1.389 . S
C929 H908 0.950 . S
C929 C928 1.373 . S
C929 C945 1.377 . S
C930 C928 1.389 . S
C930 C931 1.524 . S
C930 C944 1.377 . S
C931 C930 1.524 . S
C931 C932 1.397 . S
C931 C936 1.363 . S
C932 H909 0.950 . S
C932 C931 1.397 . S
C932 C933 1.334 . S
C933 H910 0.950 . S
C933 C932 1.334 . S
C933 C934 1.287 . S
C934 C933 1.287 . S
C934 C935 1.524 . S
C934 H953 0.913 . S
C935 H911 0.950 1_455 S
C935 C934 1.524 . S
C935 C936 1.415 . S
C936 H912 0.950 . S
C936 C931 1.363 . S
C936 C935 1.415 . S
C937 H913 0.951 . S
C937 C938 1.366 . S
C937 C939 1.388 . S
C938 C937 1.366 . S
C938 C942 1.385 . S
C939 H914 0.951 . S
C939 C937 1.388 . S
C939 C940 1.366 . S
C940 C939 1.366 . S
C940 C941 1.414 . S
C940 C943 1.499 . S
C941 H915 0.950 . S
C941 C940 1.414 . S
C941 C942 1.374 . S
C942 H916 0.950 . S
C942 C938 1.385 . S
C942 C941 1.374 . S
C943 C940 1.499 . S
C943 C944 1.373 . S
C943 C945 1.389 . S
C944 H917 0.950 . S
C944 C930 1.377 . S
C944 C943 1.373 . S
C945 C929 1.377 . S
C945 C943 1.389 . S
C945 C946 1.524 . S
C946 C945 1.524 . S
C946 C947 1.397 . S
C946 C951 1.363 . S
C947 H918 0.950 . S
C947 C946 1.397 . S
C947 C948 1.334 1_554 S
C948 H919 0.950 . S
C948 C947 1.334 1_556 S
C948 C949 1.287 . S
C949 C948 1.287 . S
C949 C950 1.524 1_556 S
C949 H952 0.999 . S
C950 H920 0.950 . S
C950 C949 1.524 1_554 S
C950 C951 1.415 . S
C951 H921 0.950 . S
C951 C946 1.363 . S
C951 C950 1.415 . S
H952 C949 0.999 . S
H953 C934 0.913 . S
H954 C972 0.951 . S
H955 C974 0.951 . S
H956 C976 0.950 . S
H957 C977 0.950 . S
H958 C979 0.950 . S
H959 C982 0.950 . S
H960 C983 0.950 . S
H961 C985 0.950 . S
H962 C986 0.950 . S
H963 C987 0.951 . S
H964 C989 0.951 . S
H965 C991 0.950 . S
H966 C992 0.950 . S
H967 C994 0.950 . S
H968 C997 0.950 . S
H969 C998 0.950 . S
H970 C1000 0.950 . S
H971 C1001 0.950 . S
C972 H954 0.951 . S
C972 C973 1.366 . S
C972 C974 1.388 . S
C973 C972 1.366 . S
C973 C977 1.385 . S
C974 H955 0.951 . S
C974 C972 1.388 . S
C974 C975 1.366 . S
C975 C974 1.366 . S
C975 C976 1.414 . S
C975 C978 1.499 . S
C976 H956 0.950 . S
C976 C975 1.414 . S
C976 C977 1.374 . S
C977 H957 0.950 . S
C977 C973 1.385 . S
C977 C976 1.374 . S
C978 C975 1.499 . S
C978 C979 1.373 . S
C978 C980 1.389 . S
C979 H958 0.950 . S
C979 C978 1.373 . S
C979 C995 1.377 . S
C980 C978 1.389 . S
C980 C981 1.524 . S
C980 C994 1.377 . S
C981 C980 1.524 . S
C981 C982 1.397 . S
C981 C986 1.363 . S
C982 H959 0.950 . S
C982 C981 1.397 . S
C982 C983 1.334 . S
C983 H960 0.950 . S
C983 C982 1.334 . S
C983 C984 1.287 . S
C984 C983 1.287 . S
C984 C985 1.524 . S
C984 H1003 0.913 . S
C985 H961 0.950 . S
C985 C984 1.524 . S
C985 C986 1.415 . S
C986 H962 0.950 . S
C986 C981 1.363 . S
C986 C985 1.415 . S
C987 H963 0.951 . S
C987 C988 1.366 . S
C987 C989 1.388 . S
C988 C987 1.366 . S
C988 C992 1.385 . S
C989 H964 0.951 . S
C989 C987 1.388 . S
C989 C990 1.366 . S
C990 C989 1.366 . S
C990 C991 1.414 . S
C990 C993 1.499 . S
C991 H965 0.950 . S
C991 C990 1.414 . S
C991 C992 1.374 . S
C992 H966 0.950 . S
C992 C988 1.385 . S
C992 C991 1.374 . S
C993 C990 1.499 . S
C993 C994 1.373 . S
C993 C995 1.389 . S
C994 H967 0.950 . S
C994 C980 1.377 . S
C994 C993 1.373 . S
C995 C979 1.377 . S
C995 C993 1.389 . S
C995 C996 1.524 . S
C996 C995 1.524 . S
C996 C997 1.397 . S
C996 C1001 1.363 . S
C997 H968 0.950 . S
C997 C996 1.397 . S
C997 C998 1.334 . S
C998 H969 0.950 . S
C998 C997 1.334 . S
C998 C999 1.287 . S
C999 C998 1.287 . S
C999 C1000 1.524 . S
C999 H1002 0.999 . S
C1000 H970 0.950 . S
C1000 C999 1.524 . S
C1000 C1001 1.415 . S
C1001 H971 0.950 . S
C1001 C996 1.363 . S
C1001 C1000 1.415 . S
H1002 C999 0.999 . S
H1003 C984 0.913 . S
H1004 C1022 0.951 . S
H1005 C1024 0.951 . S
H1006 C1026 0.950 . S
H1007 C1027 0.950 . S
H1008 C1029 0.950 . S
H1009 C1032 0.950 . S
H1010 C1033 0.950 . S
H1011 C1035 0.950 . S
H1012 C1036 0.950 . S
H1013 C1037 0.951 . S
H1014 C1039 0.951 . S
H1015 C1041 0.950 . S
H1016 C1042 0.950 . S
H1017 C1044 0.950 . S
H1018 C1047 0.950 . S
H1019 C1048 0.950 . S
H1020 C1050 0.950 . S
H1021 C1051 0.950 . S
C1022 H1004 0.951 . S
C1022 C1023 1.366 . S
C1022 C1024 1.388 . S
C1023 C1022 1.366 . S
C1023 C1027 1.385 . S
C1024 H1005 0.951 . S
C1024 C1022 1.388 . S
C1024 C1025 1.366 . S
C1025 C1024 1.366 . S
C1025 C1026 1.414 . S
C1025 C1028 1.499 . S
C1026 H1006 0.950 . S
C1026 C1025 1.414 . S
C1026 C1027 1.374 . S
C1027 H1007 0.950 . S
C1027 C1023 1.385 . S
C1027 C1026 1.374 . S
C1028 C1025 1.499 . S
C1028 C1029 1.373 . S
C1028 C1030 1.389 . S
C1029 H1008 0.950 . S
C1029 C1028 1.373 . S
C1029 C1045 1.377 . S
C1030 C1028 1.389 . S
C1030 C1031 1.524 . S
C1030 C1044 1.377 . S
C1031 C1030 1.524 . S
C1031 C1032 1.397 . S
C1031 C1036 1.363 . S
C1032 H1009 0.950 . S
C1032 C1031 1.397 . S
C1032 C1033 1.334 1_545 S
C1033 H1010 0.950 . S
C1033 C1032 1.334 1_565 S
C1033 C1034 1.287 . S
C1034 C1033 1.287 . S
C1034 C1035 1.524 1_565 S
C1034 H1053 0.913 . S
C1035 H1011 0.950 . S
C1035 C1034 1.524 1_545 S
C1035 C1036 1.415 . S
C1036 H1012 0.950 . S
C1036 C1031 1.363 . S
C1036 C1035 1.415 . S
C1037 H1013 0.951 . S
C1037 C1038 1.366 . S
C1037 C1039 1.388 . S
C1038 C1037 1.366 . S
C1038 C1042 1.385 . S
C1039 H1014 0.951 . S
C1039 C1037 1.388 . S
C1039 C1040 1.366 . S
C1040 C1039 1.366 . S
C1040 C1041 1.414 . S
C1040 C1043 1.499 . S
C1041 H1015 0.950 . S
C1041 C1040 1.414 . S
C1041 C1042 1.374 . S
C1042 H1016 0.950 . S
C1042 C1038 1.385 . S
C1042 C1041 1.374 . S
C1043 C1040 1.499 . S
C1043 C1044 1.373 . S
C1043 C1045 1.389 . S
C1044 H1017 0.950 . S
C1044 C1030 1.377 . S
C1044 C1043 1.373 . S
C1045 C1029 1.377 . S
C1045 C1043 1.389 . S
C1045 C1046 1.524 . S
C1046 C1045 1.524 . S
C1046 C1047 1.397 . S
C1046 C1051 1.363 . S
C1047 H1018 0.950 . S
C1047 C1046 1.397 . S
C1047 C1048 1.334 . S
C1048 H1019 0.950 . S
C1048 C1047 1.334 . S
C1048 C1049 1.287 . S
C1049 C1048 1.287 . S
C1049 C1050 1.524 . S
C1049 H1052 0.999 . S
C1050 H1020 0.950 . S
C1050 C1049 1.524 . S
C1050 C1051 1.415 . S
C1051 H1021 0.950 . S
C1051 C1046 1.363 . S
C1051 C1050 1.415 . S
H1052 C1049 0.999 . S
H1053 C1034 0.913 . S
H1054 C1072 0.951 . S
H1055 C1074 0.951 . S
H1056 C1076 0.950 . S
H1057 C1077 0.950 . S
H1058 C1079 0.950 . S
H1059 C1082 0.950 . S
H1060 C1083 0.950 . S
H1061 C1085 0.950 . S
H1062 C1086 0.950 . S
H1063 C1087 0.951 . S
H1064 C1089 0.951 . S
H1065 C1091 0.950 . S
H1066 C1092 0.950 . S
H1067 C1094 0.950 . S
H1068 C1097 0.950 . S
H1069 C1098 0.950 . S
H1070 C1100 0.950 . S
H1071 C1101 0.950 . S
C1072 H1054 0.951 . S
C1072 C1073 1.366 . S
C1072 C1074 1.388 . S
C1073 C1072 1.366 . S
C1073 C1077 1.385 . S
C1074 H1055 0.951 . S
C1074 C1072 1.388 . S
C1074 C1075 1.366 . S
C1075 C1074 1.366 . S
C1075 C1076 1.414 . S
C1075 C1078 1.499 . S
C1076 H1056 0.950 . S
C1076 C1075 1.414 . S
C1076 C1077 1.374 . S
C1077 H1057 0.950 . S
C1077 C1073 1.385 . S
C1077 C1076 1.374 . S
C1078 C1075 1.499 . S
C1078 C1079 1.373 . S
C1078 C1080 1.389 . S
C1079 H1058 0.950 . S
C1079 C1078 1.373 . S
C1079 C1095 1.377 . S
C1080 C1078 1.389 . S
C1080 C1081 1.524 . S
C1080 C1094 1.377 . S
C1081 C1080 1.524 . S
C1081 C1082 1.397 . S
C1081 C1086 1.363 . S
C1082 H1059 0.950 . S
C1082 C1081 1.397 . S
C1082 C1083 1.334 . S
C1083 H1060 0.950 . S
C1083 C1082 1.334 . S
C1083 C1084 1.287 . S
C1084 C1083 1.287 . S
C1084 C1085 1.524 . S
C1084 H1103 0.913 . S
C1085 H1061 0.950 . S
C1085 C1084 1.524 . S
C1085 C1086 1.415 . S
C1086 H1062 0.950 . S
C1086 C1081 1.363 . S
C1086 C1085 1.415 . S
C1087 H1063 0.951 . S
C1087 C1088 1.366 . S
C1087 C1089 1.388 . S
C1088 C1087 1.366 . S
C1088 C1092 1.385 . S
C1089 H1064 0.951 . S
C1089 C1087 1.388 . S
C1089 C1090 1.366 . S
C1090 C1089 1.366 . S
C1090 C1091 1.414 . S
C1090 C1093 1.499 . S
C1091 H1065 0.950 . S
C1091 C1090 1.414 . S
C1091 C1092 1.374 . S
C1092 H1066 0.950 . S
C1092 C1088 1.385 . S
C1092 C1091 1.374 . S
C1093 C1090 1.499 . S
C1093 C1094 1.373 . S
C1093 C1095 1.389 . S
C1094 H1067 0.950 . S
C1094 C1080 1.377 . S
C1094 C1093 1.373 . S
C1095 C1079 1.377 . S
C1095 C1093 1.389 . S
C1095 C1096 1.524 . S
C1096 C1095 1.524 . S
C1096 C1097 1.397 . S
C1096 C1101 1.363 . S
C1097 H1068 0.950 . S
C1097 C1096 1.397 . S
C1097 C1098 1.334 . S
C1098 H1069 0.950 . S
C1098 C1097 1.334 . S
C1098 C1099 1.287 1_655 S
C1099 C1098 1.287 1_455 S
C1099 C1100 1.524 . S
C1099 H1102 0.999 . S
C1100 H1070 0.950 . S
C1100 C1099 1.524 . S
C1100 C1101 1.415 1_455 S
C1101 H1071 0.950 . S
C1101 C1096 1.363 . S
C1101 C1100 1.415 1_655 S
H1102 C1099 0.999 . S
H1103 C1084 0.913 . S
H1104 C1122 0.951 . S
H1105 C1124 0.951 . S
H1106 C1126 0.950 . S
H1107 C1127 0.950 . S
H1108 C1129 0.970 . S
H1109 C1132 0.950 . S
H1110 C1133 0.950 . S
H1111 C1135 0.950 . S
H1112 C1136 0.950 . S
H1113 C1137 0.951 . S
H1114 C1139 0.951 . S
H1115 C1141 0.950 . S
H1116 C1142 0.950 . S
H1117 C1144 0.970 . S
H1118 C1147 0.950 . S
H1119 C1148 0.950 . S
H1120 C1150 0.950 . S
H1121 C1151 0.950 . S
C1122 H1104 0.951 . S
C1122 C1123 1.366 . S
C1122 C1124 1.388 . S
C1123 C1122 1.366 . S
C1123 C1127 1.385 . S
C1124 H1105 0.951 . S
C1124 C1122 1.388 . S
C1124 C1125 1.366 . S
C1125 C1124 1.366 . S
C1125 C1126 1.414 . S
C1125 C1128 1.499 . S
C1126 H1106 0.950 . S
C1126 C1125 1.414 . S
C1126 C1127 1.374 . S
C1127 H1107 0.950 . S
C1127 C1123 1.385 . S
C1127 C1126 1.374 . S
C1128 C1125 1.499 . S
C1128 C1129 1.306 1_455 S
C1128 C1130 1.389 . S
C1129 H1108 0.970 . S
C1129 C1128 1.306 1_655 S
C1129 C1145 1.427 . S
C1130 C1128 1.389 . S
C1130 C1131 1.524 . S
C1130 C1144 1.428 . S
C1131 C1130 1.524 . S
C1131 C1132 1.397 . S
C1131 C1136 1.363 . S
C1132 H1109 0.950 . S
C1132 C1131 1.397 . S
C1132 C1133 1.334 . S
C1133 H1110 0.950 . S
C1133 C1132 1.334 . S
C1133 C1134 1.287 . S
C1134 C1133 1.287 . S
C1134 C1135 1.524 . S
C1134 H1153 0.913 . S
C1135 H1111 0.950 . S
C1135 C1134 1.524 . S
C1135 C1136 1.415 . S
C1136 H1112 0.950 . S
C1136 C1131 1.363 . S
C1136 C1135 1.415 . S
C1137 H1113 0.951 . S
C1137 C1138 1.366 . S
C1137 C1139 1.388 . S
C1138 C1137 1.366 . S
C1138 C1142 1.385 . S
C1139 H1114 0.951 . S
C1139 C1137 1.388 . S
C1139 C1140 1.366 . S
C1140 C1139 1.366 . S
C1140 C1141 1.414 . S
C1140 C1143 1.499 . S
C1141 H1115 0.950 . S
C1141 C1140 1.414 . S
C1141 C1142 1.374 . S
C1142 H1116 0.950 . S
C1142 C1138 1.385 . S
C1142 C1141 1.374 . S
C1143 C1140 1.499 . S
C1143 C1144 1.306 1_655 S
C1143 C1145 1.389 . S
C1144 H1117 0.970 . S
C1144 C1130 1.428 . S
C1144 C1143 1.306 1_455 S
C1145 C1129 1.427 . S
C1145 C1143 1.389 . S
C1145 C1146 1.524 . S
C1146 C1145 1.524 . S
C1146 C1147 1.397 . S
C1146 C1151 1.363 . S
C1147 H1118 0.950 . S
C1147 C1146 1.397 . S
C1147 C1148 1.334 . S
C1148 H1119 0.950 . S
C1148 C1147 1.334 . S
C1148 C1149 1.287 . S
C1149 C1148 1.287 . S
C1149 C1150 1.524 . S
C1149 H1152 0.999 . S
C1150 H1120 0.950 . S
C1150 C1149 1.524 . S
C1150 C1151 1.415 . S
C1151 H1121 0.950 . S
C1151 C1146 1.363 . S
C1151 C1150 1.415 . S
H1152 C1149 0.999 . S
H1153 C1134 0.913 . S
H1154 C1172 0.951 . S
H1155 C1174 0.951 . S
H1156 C1176 0.950 . S
H1157 C1177 0.950 . S
H1158 C1179 0.950 . S
H1159 C1182 0.950 . S
H1160 C1183 0.950 . S
H1161 C1185 0.950 . S
H1162 C1186 0.950 . S
H1163 C1187 0.951 . S
H1164 C1189 0.951 . S
H1165 C1191 0.950 . S
H1166 C1192 0.950 . S
H1167 C1194 0.950 . S
H1168 C1197 0.950 . S
H1169 C1198 0.950 . S
H1170 C1200 0.950 . S
H1171 C1201 0.950 . S
C1172 H1154 0.951 . S
C1172 C1173 1.366 . S
C1172 C1174 1.388 . S
C1173 C1172 1.366 . S
C1173 C1177 1.385 . S
C1174 H1155 0.951 . S
C1174 C1172 1.388 . S
C1174 C1175 1.366 . S
C1175 C1174 1.366 . S
C1175 C1176 1.414 . S
C1175 C1178 1.499 . S
C1176 H1156 0.950 . S
C1176 C1175 1.414 . S
C1176 C1177 1.374 . S
C1177 H1157 0.950 . S
C1177 C1173 1.385 . S
C1177 C1176 1.374 . S
C1178 C1175 1.499 . S
C1178 C1179 1.373 . S
C1178 C1180 1.389 . S
C1179 H1158 0.950 . S
C1179 C1178 1.373 . S
C1179 C1195 1.377 . S
C1180 C1178 1.389 . S
C1180 C1181 1.524 . S
C1180 C1194 1.377 . S
C1181 C1180 1.524 . S
C1181 C1182 1.397 . S
C1181 C1186 1.363 . S
C1182 H1159 0.950 . S
C1182 C1181 1.397 . S
C1182 C1183 1.334 . S
C1183 H1160 0.950 . S
C1183 C1182 1.334 . S
C1183 C1184 1.287 . S
C1184 C1183 1.287 . S
C1184 C1185 1.524 . S
C1184 H1203 0.913 . S
C1185 H1161 0.950 . S
C1185 C1184 1.524 . S
C1185 C1186 1.415 . S
C1186 H1162 0.950 . S
C1186 C1181 1.363 . S
C1186 C1185 1.415 . S
C1187 H1163 0.951 . S
C1187 C1188 1.366 . S
C1187 C1189 1.388 . S
C1188 C1187 1.366 . S
C1188 C1192 1.385 . S
C1189 H1164 0.951 . S
C1189 C1187 1.388 . S
C1189 C1190 1.366 . S
C1190 C1189 1.366 . S
C1190 C1191 1.414 . S
C1190 C1193 1.499 . S
C1191 H1165 0.950 . S
C1191 C1190 1.414 . S
C1191 C1192 1.374 . S
C1192 H1166 0.950 . S
C1192 C1188 1.385 . S
C1192 C1191 1.374 . S
C1193 C1190 1.499 . S
C1193 C1194 1.373 . S
C1193 C1195 1.389 . S
C1194 H1167 0.950 . S
C1194 C1180 1.377 . S
C1194 C1193 1.373 . S
C1195 C1179 1.377 . S
C1195 C1193 1.389 . S
C1195 C1196 1.524 . S
C1196 C1195 1.524 . S
C1196 C1197 1.397 . S
C1196 C1201 1.363 . S
C1197 H1168 0.950 . S
C1197 C1196 1.397 . S
C1197 C1198 1.334 . S
C1198 H1169 0.950 . S
C1198 C1197 1.334 . S
C1198 C1199 1.287 . S
C1199 C1198 1.287 . S
C1199 C1200 1.524 . S
C1199 H1202 0.999 . S
C1200 H1170 0.950 . S
C1200 C1199 1.524 . S
C1200 C1201 1.415 . S
C1201 H1171 0.950 . S
C1201 C1196 1.363 . S
C1201 C1200 1.415 . S
H1202 C1199 0.999 . S
H1203 C1184 0.913 . S
H1204 C1222 0.951 . S
H1205 C1224 0.951 . S
H1206 C1226 0.950 . S
H1207 C1227 0.950 . S
H1208 C1229 0.950 . S
H1209 C1232 0.950 . S
H1210 C1233 0.950 . S
H1211 C1235 0.950 . S
H1212 C1236 0.950 . S
H1213 C1237 0.951 . S
H1214 C1239 0.951 . S
H1215 C1241 0.950 . S
H1216 C1242 0.950 . S
H1217 C1244 0.950 . S
H1218 C1247 0.950 . S
H1219 C1248 0.950 . S
H1220 C1250 0.950 . S
H1221 C1251 0.950 . S
C1222 H1204 0.951 . S
C1222 C1223 1.366 . S
C1222 C1224 1.388 . S
C1223 C1222 1.366 . S
C1223 C1227 1.385 . S
C1224 H1205 0.951 . S
C1224 C1222 1.388 . S
C1224 C1225 1.366 . S
C1225 C1224 1.366 . S
C1225 C1226 1.414 . S
C1225 C1228 1.499 . S
C1226 H1206 0.950 . S
C1226 C1225 1.414 . S
C1226 C1227 1.374 . S
C1227 H1207 0.950 . S
C1227 C1223 1.385 . S
C1227 C1226 1.374 . S
C1228 C1225 1.499 . S
C1228 C1229 1.373 . S
C1228 C1230 1.389 . S
C1229 H1208 0.950 . S
C1229 C1228 1.373 . S
C1229 C1245 1.377 1_565 S
C1230 C1228 1.389 . S
C1230 C1231 1.524 . S
C1230 C1244 1.377 1_565 S
C1231 C1230 1.524 . S
C1231 C1232 1.397 . S
C1231 C1236 1.363 . S
C1232 H1209 0.950 . S
C1232 C1231 1.397 . S
C1232 C1233 1.334 . S
C1233 H1210 0.950 . S
C1233 C1232 1.334 . S
C1233 C1234 1.287 . S
C1234 C1233 1.287 . S
C1234 C1235 1.524 . S
C1234 H1253 0.913 . S
C1235 H1211 0.950 . S
C1235 C1234 1.524 . S
C1235 C1236 1.415 . S
C1236 H1212 0.950 . S
C1236 C1231 1.363 . S
C1236 C1235 1.415 . S
C1237 H1213 0.951 . S
C1237 C1238 1.366 . S
C1237 C1239 1.388 . S
C1238 C1237 1.366 . S
C1238 C1242 1.385 . S
C1239 H1214 0.951 . S
C1239 C1237 1.388 . S
C1239 C1240 1.366 . S
C1240 C1239 1.366 . S
C1240 C1241 1.414 . S
C1240 C1243 1.499 . S
C1241 H1215 0.950 . S
C1241 C1240 1.414 . S
C1241 C1242 1.374 . S
C1242 H1216 0.950 . S
C1242 C1238 1.385 . S
C1242 C1241 1.374 . S
C1243 C1240 1.499 . S
C1243 C1244 1.373 . S
C1243 C1245 1.389 . S
C1244 H1217 0.950 . S
C1244 C1230 1.377 1_545 S
C1244 C1243 1.373 . S
C1245 C1229 1.377 1_545 S
C1245 C1243 1.389 . S
C1245 C1246 1.524 . S
C1246 C1245 1.524 . S
C1246 C1247 1.397 . S
C1246 C1251 1.363 . S
C1247 H1218 0.950 . S
C1247 C1246 1.397 . S
C1247 C1248 1.334 . S
C1248 H1219 0.950 . S
C1248 C1247 1.334 . S
C1248 C1249 1.287 . S
C1249 C1248 1.287 . S
C1249 C1250 1.524 . S
C1249 H1252 0.999 . S
C1250 H1220 0.950 . S
C1250 C1249 1.524 . S
C1250 C1251 1.415 . S
C1251 H1221 0.950 . S
C1251 C1246 1.363 . S
C1251 C1250 1.415 . S
H1252 C1249 0.999 . S
H1253 C1234 0.913 . S
H1254 C1272 0.951 . S
H1255 C1274 0.951 . S
H1256 C1276 0.950 . S
H1257 C1277 0.950 . S
H1258 C1279 0.950 . S
H1259 C1282 0.950 . S
H1260 C1283 0.950 . S
H1261 C1285 0.950 . S
H1262 C1286 0.950 . S
H1263 C1287 0.951 . S
H1264 C1289 0.951 . S
H1265 C1291 0.950 . S
H1266 C1292 0.950 . S
H1267 C1294 0.950 . S
H1268 C1297 0.950 . S
H1269 C1298 0.950 . S
H1270 C1300 0.950 . S
H1271 C1301 0.950 . S
C1272 H1254 0.951 . S
C1272 C1273 1.366 . S
C1272 C1274 1.388 . S
C1273 C1272 1.366 . S
C1273 C1277 1.385 . S
C1274 H1255 0.951 . S
C1274 C1272 1.388 . S
C1274 C1275 1.366 . S
C1275 C1274 1.366 . S
C1275 C1276 1.414 . S
C1275 C1278 1.499 . S
C1276 H1256 0.950 . S
C1276 C1275 1.414 . S
C1276 C1277 1.374 . S
C1277 H1257 0.950 . S
C1277 C1273 1.385 . S
C1277 C1276 1.374 . S
C1278 C1275 1.499 . S
C1278 C1279 1.373 . S
C1278 C1280 1.389 . S
C1279 H1258 0.950 . S
C1279 C1278 1.373 . S
C1279 C1295 1.377 1_565 S
C1280 C1278 1.389 . S
C1280 C1281 1.524 . S
C1280 C1294 1.377 1_565 S
C1281 C1280 1.524 . S
C1281 C1282 1.397 . S
C1281 C1286 1.363 . S
C1282 H1259 0.950 . S
C1282 C1281 1.397 . S
C1282 C1283 1.334 . S
C1283 H1260 0.950 . S
C1283 C1282 1.334 . S
C1283 C1284 1.287 . S
C1284 C1283 1.287 . S
C1284 C1285 1.524 . S
C1284 H1303 0.913 . S
C1285 H1261 0.950 . S
C1285 C1284 1.524 . S
C1285 C1286 1.415 . S
C1286 H1262 0.950 . S
C1286 C1281 1.363 . S
C1286 C1285 1.415 . S
C1287 H1263 0.951 . S
C1287 C1288 1.366 . S
C1287 C1289 1.388 . S
C1288 C1287 1.366 . S
C1288 C1292 1.385 . S
C1289 H1264 0.951 . S
C1289 C1287 1.388 . S
C1289 C1290 1.366 . S
C1290 C1289 1.366 . S
C1290 C1291 1.414 . S
C1290 C1293 1.499 . S
C1291 H1265 0.950 . S
C1291 C1290 1.414 . S
C1291 C1292 1.374 . S
C1292 H1266 0.950 . S
C1292 C1288 1.385 . S
C1292 C1291 1.374 . S
C1293 C1290 1.499 . S
C1293 C1294 1.373 . S
C1293 C1295 1.389 . S
C1294 H1267 0.950 . S
C1294 C1280 1.377 1_545 S
C1294 C1293 1.373 . S
C1295 C1279 1.377 1_545 S
C1295 C1293 1.389 . S
C1295 C1296 1.524 . S
C1296 C1295 1.524 . S
C1296 C1297 1.397 . S
C1296 C1301 1.363 . S
C1297 H1268 0.950 . S
C1297 C1296 1.397 . S
C1297 C1298 1.334 . S
C1298 H1269 0.950 . S
C1298 C1297 1.334 . S
C1298 C1299 1.287 . S
C1299 C1298 1.287 . S
C1299 C1300 1.524 . S
C1299 H1302 0.999 . S
C1300 H1270 0.950 . S
C1300 C1299 1.524 . S
C1300 C1301 1.415 . S
C1301 H1271 0.950 . S
C1301 C1296 1.363 . S
C1301 C1300 1.415 . S
H1302 C1299 0.999 . S
H1303 C1284 0.913 . S
H1304 C1322 0.951 . S
H1305 C1324 0.951 . S
H1306 C1326 0.950 . S
H1307 C1327 0.950 . S
H1308 C1329 0.950 . S
H1309 C1332 0.950 . S
H1310 C1333 0.950 . S
H1311 C1335 0.950 . S
H1312 C1336 0.950 . S
H1313 C1337 0.951 . S
H1314 C1339 0.951 . S
H1315 C1341 0.950 . S
H1316 C1342 0.950 . S
H1317 C1344 0.950 . S
H1318 C1347 0.950 . S
H1319 C1348 0.950 . S
H1320 C1350 0.950 . S
H1321 C1351 0.950 . S
C1322 H1304 0.951 . S
C1322 C1323 1.366 . S
C1322 C1324 1.388 . S
C1323 C1322 1.366 . S
C1323 C1327 1.385 . S
C1324 H1305 0.951 . S
C1324 C1322 1.388 . S
C1324 C1325 1.366 . S
C1325 C1324 1.366 . S
C1325 C1326 1.414 . S
C1325 C1328 1.499 . S
C1326 H1306 0.950 . S
C1326 C1325 1.414 . S
C1326 C1327 1.374 . S
C1327 H1307 0.950 . S
C1327 C1323 1.385 . S
C1327 C1326 1.374 . S
C1328 C1325 1.499 . S
C1328 C1329 1.373 . S
C1328 C1330 1.389 . S
C1329 H1308 0.950 . S
C1329 C1328 1.373 . S
C1329 C1345 1.377 1_455 S
C1330 C1328 1.389 . S
C1330 C1331 1.524 . S
C1330 C1344 1.377 1_455 S
C1331 C1330 1.524 . S
C1331 C1332 1.397 . S
C1331 C1336 1.363 . S
C1332 H1309 0.950 . S
C1332 C1331 1.397 . S
C1332 C1333 1.334 . S
C1333 H1310 0.950 . S
C1333 C1332 1.334 . S
C1333 C1334 1.287 . S
C1334 C1333 1.287 . S
C1334 C1335 1.524 . S
C1334 H1353 0.913 . S
C1335 H1311 0.950 . S
C1335 C1334 1.524 . S
C1335 C1336 1.415 . S
C1336 H1312 0.950 . S
C1336 C1331 1.363 . S
C1336 C1335 1.415 . S
C1337 H1313 0.951 . S
C1337 C1338 1.366 . S
C1337 C1339 1.388 . S
C1338 C1337 1.366 . S
C1338 C1342 1.385 . S
C1339 H1314 0.951 . S
C1339 C1337 1.388 . S
C1339 C1340 1.366 . S
C1340 C1339 1.366 . S
C1340 C1341 1.414 . S
C1340 C1343 1.499 . S
C1341 H1315 0.950 . S
C1341 C1340 1.414 . S
C1341 C1342 1.374 . S
C1342 H1316 0.950 . S
C1342 C1338 1.385 . S
C1342 C1341 1.374 . S
C1343 C1340 1.499 . S
C1343 C1344 1.373 . S
C1343 C1345 1.389 . S
C1344 H1317 0.950 . S
C1344 C1330 1.377 1_655 S
C1344 C1343 1.373 . S
C1345 C1329 1.377 1_655 S
C1345 C1343 1.389 . S
C1345 C1346 1.524 . S
C1346 C1345 1.524 . S
C1346 C1347 1.397 . S
C1346 C1351 1.363 . S
C1347 H1318 0.950 . S
C1347 C1346 1.397 . S
C1347 C1348 1.334 . S
C1348 H1319 0.950 . S
C1348 C1347 1.334 . S
C1348 C1349 1.287 . S
C1349 C1348 1.287 . S
C1349 C1350 1.524 . S
C1349 H1352 0.999 . S
C1350 H1320 0.950 . S
C1350 C1349 1.524 . S
C1350 C1351 1.415 . S
C1351 H1321 0.950 . S
C1351 C1346 1.363 . S
C1351 C1350 1.415 . S
H1352 C1349 0.999 . S
H1353 C1334 0.913 . S
H1354 C1372 0.951 . S
H1355 C1374 0.951 . S
H1356 C1376 0.950 . S
H1357 C1377 0.950 . S
H1358 C1379 0.950 . S
H1359 C1382 0.950 . S
H1360 C1383 0.950 . S
H1361 C1385 0.950 . S
H1362 C1386 0.950 . S
H1363 C1387 0.951 . S
H1364 C1389 0.951 . S
H1365 C1391 0.950 . S
H1366 C1392 0.950 . S
H1367 C1394 0.950 . S
H1368 C1397 0.950 . S
H1369 C1398 0.950 . S
H1370 C1400 0.950 . S
H1371 C1401 0.950 . S
C1372 H1354 0.951 . S
C1372 C1373 1.366 . S
C1372 C1374 1.388 . S
C1373 C1372 1.366 . S
C1373 C1377 1.385 . S
C1374 H1355 0.951 . S
C1374 C1372 1.388 . S
C1374 C1375 1.366 . S
C1375 C1374 1.366 . S
C1375 C1376 1.414 . S
C1375 C1378 1.499 . S
C1376 H1356 0.950 . S
C1376 C1375 1.414 . S
C1376 C1377 1.374 . S
C1377 H1357 0.950 . S
C1377 C1373 1.385 . S
C1377 C1376 1.374 . S
C1378 C1375 1.499 . S
C1378 C1379 1.373 . S
C1378 C1380 1.389 . S
C1379 H1358 0.950 . S
C1379 C1378 1.373 . S
C1379 C1395 1.377 . S
C1380 C1378 1.389 . S
C1380 C1381 1.524 . S
C1380 C1394 1.377 . S
C1381 C1380 1.524 . S
C1381 C1382 1.397 . S
C1381 C1386 1.363 . S
C1382 H1359 0.950 . S
C1382 C1381 1.397 . S
C1382 C1383 1.334 . S
C1383 H1360 0.950 . S
C1383 C1382 1.334 . S
C1383 C1384 1.287 . S
C1384 C1383 1.287 . S
C1384 C1385 1.524 . S
C1384 H1403 0.913 . S
C1385 H1361 0.950 . S
C1385 C1384 1.524 . S
C1385 C1386 1.415 . S
C1386 H1362 0.950 . S
C1386 C1381 1.363 . S
C1386 C1385 1.415 . S
C1387 H1363 0.951 . S
C1387 C1388 1.366 . S
C1387 C1389 1.388 . S
C1388 C1387 1.366 . S
C1388 C1392 1.385 . S
C1389 H1364 0.951 . S
C1389 C1387 1.388 . S
C1389 C1390 1.366 . S
C1390 C1389 1.366 . S
C1390 C1391 1.414 . S
C1390 C1393 1.499 . S
C1391 H1365 0.950 . S
C1391 C1390 1.414 . S
C1391 C1392 1.374 . S
C1392 H1366 0.950 . S
C1392 C1388 1.385 . S
C1392 C1391 1.374 . S
C1393 C1390 1.499 . S
C1393 C1394 1.373 . S
C1393 C1395 1.389 . S
C1394 H1367 0.950 . S
C1394 C1380 1.377 . S
C1394 C1393 1.373 . S
C1395 C1379 1.377 . S
C1395 C1393 1.389 . S
C1395 C1396 1.524 . S
C1396 C1395 1.524 . S
C1396 C1397 1.397 . S
C1396 C1401 1.363 . S
C1397 H1368 0.950 . S
C1397 C1396 1.397 . S
C1397 C1398 1.334 . S
C1398 H1369 0.950 . S
C1398 C1397 1.334 . S
C1398 C1399 1.287 . S
C1399 C1398 1.287 . S
C1399 C1400 1.524 . S
C1399 H1402 0.999 . S
C1400 H1370 0.950 . S
C1400 C1399 1.524 . S
C1400 C1401 1.415 . S
C1401 H1371 0.950 . S
C1401 C1396 1.363 . S
C1401 C1400 1.415 . S
H1402 C1399 0.999 . S
H1403 C1384 0.913 . S
H1404 C1422 0.951 . S
H1405 C1424 0.951 1_554 S
H1406 C1426 0.950 . S
H1407 C1427 0.950 . S
H1408 C1429 0.950 . S
H1409 C1432 0.950 . S
H1410 C1433 0.950 . S
H1411 C1435 0.950 . S
H1412 C1436 0.950 . S
H1413 C1437 0.951 . S
H1414 C1439 0.951 . S
H1415 C1441 0.950 . S
H1416 C1442 0.950 . S
H1417 C1444 0.950 . S
H1418 C1447 0.950 . S
H1419 C1448 0.950 . S
H1420 C1450 0.950 . S
H1421 C1451 0.950 . S
C1422 H1404 0.951 . S
C1422 C1423 1.366 . S
C1422 C1424 1.388 . S
C1423 C1422 1.366 . S
C1423 C1427 1.385 . S
C1424 H1405 0.951 1_556 S
C1424 C1422 1.388 . S
C1424 C1425 1.366 . S
C1425 C1424 1.366 . S
C1425 C1426 1.414 . S
C1425 C1428 1.497 1_556 S
C1426 H1406 0.950 . S
C1426 C1425 1.414 . S
C1426 C1427 1.374 . S
C1427 H1407 0.950 . S
C1427 C1423 1.385 . S
C1427 C1426 1.374 . S
C1428 C1425 1.497 1_554 S
C1428 C1429 1.367 1_554 S
C1428 C1430 1.397 . S
C1429 H1408 0.950 . S
C1429 C1428 1.367 1_556 S
C1429 C1445 1.377 . S
C1430 C1428 1.397 . S
C1430 C1431 1.524 . S
C1430 C1444 1.377 . S
C1431 C1430 1.524 . S
C1431 C1432 1.397 . S
C1431 C1436 1.363 . S
C1432 H1409 0.950 . S
C1432 C1431 1.397 . S
C1432 C1433 1.334 . S
C1433 H1410 0.950 . S
C1433 C1432 1.334 . S
C1433 C1434 1.287 . S
C1434 C1433 1.287 . S
C1434 C1435 1.524 . S
C1434 H1453 0.913 . S
C1435 H1411 0.950 . S
C1435 C1434 1.524 . S
C1435 C1436 1.415 . S
C1436 H1412 0.950 . S
C1436 C1431 1.363 . S
C1436 C1435 1.415 . S
C1437 H1413 0.951 . S
C1437 C1438 1.366 . S
C1437 C1439 1.388 . S
C1438 C1437 1.366 . S
C1438 C1442 1.385 . S
C1439 H1414 0.951 . S
C1439 C1437 1.388 . S
C1439 C1440 1.366 . S
C1440 C1439 1.366 . S
C1440 C1441 1.414 . S
C1440 C1443 1.499 . S
C1441 H1415 0.950 . S
C1441 C1440 1.414 . S
C1441 C1442 1.374 . S
C1442 H1416 0.950 . S
C1442 C1438 1.385 . S
C1442 C1441 1.374 . S
C1443 C1440 1.499 . S
C1443 C1444 1.373 . S
C1443 C1445 1.389 1_554 S
C1444 H1417 0.950 . S
C1444 C1430 1.377 . S
C1444 C1443 1.373 . S
C1445 C1429 1.377 . S
C1445 C1443 1.389 1_556 S
C1445 C1446 1.524 . S
C1446 C1445 1.524 . S
C1446 C1447 1.397 . S
C1446 C1451 1.363 . S
C1447 H1418 0.950 . S
C1447 C1446 1.397 . S
C1447 C1448 1.334 . S
C1448 H1419 0.950 . S
C1448 C1447 1.334 . S
C1448 C1449 1.287 . S
C1449 C1448 1.287 . S
C1449 C1450 1.524 . S
C1449 H1452 0.999 . S
C1450 H1420 0.950 . S
C1450 C1449 1.524 . S
C1450 C1451 1.415 . S
C1451 H1421 0.950 . S
C1451 C1446 1.363 . S
C1451 C1450 1.415 . S
H1452 C1449 0.999 . S
H1453 C1434 0.913 . S
H1454 C1472 0.951 . S
H1455 C1474 0.951 . S
H1456 C1476 0.950 . S
H1457 C1477 0.949 . S
H1458 C1479 0.950 . S
H1459 C1482 0.950 . S
H1460 C1483 0.950 . S
H1461 C1485 0.950 . S
H1462 C1486 0.950 . S
H1463 C1487 0.951 . S
H1464 C1489 0.951 . S
H1465 C1491 0.950 1_556 S
H1466 C1492 0.950 . S
H1467 C1494 0.950 . S
H1468 C1497 0.950 . S
H1469 C1498 0.950 . S
H1470 C1500 0.950 . S
H1471 C1501 0.950 . S
C1472 H1454 0.951 . S
C1472 C1473 1.366 . S
C1472 C1474 1.388 . S
C1473 C1472 1.366 . S
C1473 C1477 1.385 1_556 S
C1474 H1455 0.951 . S
C1474 C1472 1.388 . S
C1474 C1475 1.366 . S
C1475 C1474 1.366 . S
C1475 C1476 1.414 1_556 S
C1475 C1478 1.499 . S
C1476 H1456 0.950 . S
C1476 C1475 1.414 1_554 S
C1476 C1477 1.373 . S
C1477 H1457 0.949 . S
C1477 C1473 1.385 1_554 S
C1477 C1476 1.373 . S
C1478 C1475 1.499 . S
C1478 C1479 1.373 1_556 S
C1478 C1480 1.389 . S
C1479 H1458 0.950 . S
C1479 C1478 1.373 1_554 S
C1479 C1495 1.377 . S
C1480 C1478 1.389 . S
C1480 C1481 1.524 . S
C1480 C1494 1.377 . S
C1481 C1480 1.524 . S
C1481 C1482 1.397 . S
C1481 C1486 1.363 . S
C1482 H1459 0.950 . S
C1482 C1481 1.397 . S
C1482 C1483 1.334 . S
C1483 H1460 0.950 . S
C1483 C1482 1.334 . S
C1483 C1484 1.287 . S
C1484 C1483 1.287 . S
C1484 C1485 1.524 . S
C1484 H1503 0.913 . S
C1485 H1461 0.950 . S
C1485 C1484 1.524 . S
C1485 C1486 1.415 . S
C1486 H1462 0.950 . S
C1486 C1481 1.363 . S
C1486 C1485 1.415 . S
C1487 H1463 0.951 . S
C1487 C1488 1.366 . S
C1487 C1489 1.388 . S
C1488 C1487 1.366 . S
C1488 C1492 1.385 . S
C1489 H1464 0.951 . S
C1489 C1487 1.388 . S
C1489 C1490 1.366 . S
C1490 C1489 1.366 . S
C1490 C1491 1.414 . S
C1490 C1493 1.499 . S
C1491 H1465 0.950 1_554 S
C1491 C1490 1.414 . S
C1491 C1492 1.374 . S
C1492 H1466 0.950 . S
C1492 C1488 1.385 . S
C1492 C1491 1.374 . S
C1493 C1490 1.499 . S
C1493 C1494 1.373 1_554 S
C1493 C1495 1.389 . S
C1494 H1467 0.950 . S
C1494 C1480 1.377 . S
C1494 C1493 1.373 1_556 S
C1495 C1479 1.377 . S
C1495 C1493 1.389 . S
C1495 C1496 1.524 . S
C1496 C1495 1.524 . S
C1496 C1497 1.397 . S
C1496 C1501 1.363 . S
C1497 H1468 0.950 . S
C1497 C1496 1.397 . S
C1497 C1498 1.334 . S
C1498 H1469 0.950 . S
C1498 C1497 1.334 . S
C1498 C1499 1.287 . S
C1499 C1498 1.287 . S
C1499 C1500 1.524 . S
C1499 H1502 0.999 . S
C1500 H1470 0.950 . S
C1500 C1499 1.524 . S
C1500 C1501 1.415 . S
C1501 H1471 0.950 . S
C1501 C1496 1.363 . S
C1501 C1500 1.415 . S
H1502 C1499 0.999 . S
H1503 C1484 0.913 . S
H1504 C1522 0.951 . S
H1505 C1524 0.951 . S
H1506 C1526 0.933 1_554 S
H1507 C1527 0.950 . S
H1508 C1529 0.950 . S
H1509 C1532 0.950 . S
H1510 C1533 0.950 . S
H1511 C1535 0.950 . S
H1512 C1536 0.950 . S
H1513 C1537 0.951 . S
H1514 C1539 0.951 . S
H1515 C1541 0.950 . S
H1516 C1542 0.950 . S
H1517 C1544 0.950 . S
H1518 C1547 0.950 . S
H1519 C1548 0.950 . S
H1520 C1550 0.950 . S
H1521 C1551 0.950 . S
C1522 H1504 0.951 . S
C1522 C1523 1.366 . S
C1522 C1524 1.388 . S
C1523 C1522 1.366 . S
C1523 C1527 1.385 . S
C1524 H1505 0.951 . S
C1524 C1522 1.388 . S
C1524 C1525 1.366 . S
C1525 C1524 1.366 . S
C1525 C1526 1.424 . S
C1525 C1528 1.499 . S
C1526 H1506 0.933 1_556 S
C1526 C1525 1.424 . S
C1526 C1527 1.382 . S
C1527 H1507 0.950 . S
C1527 C1523 1.385 . S
C1527 C1526 1.382 . S
C1528 C1525 1.499 . S
C1528 C1529 1.373 1_556 S
C1528 C1530 1.389 . S
C1529 H1508 0.950 . S
C1529 C1528 1.373 1_554 S
C1529 C1545 1.377 . S
C1530 C1528 1.389 . S
C1530 C1531 1.524 . S
C1530 C1544 1.377 . S
C1531 C1530 1.524 . S
C1531 C1532 1.397 . S
C1531 C1536 1.363 . S
C1532 H1509 0.950 . S
C1532 C1531 1.397 . S
C1532 C1533 1.334 . S
C1533 H1510 0.950 . S
C1533 C1532 1.334 . S
C1533 C1534 1.287 . S
C1534 C1533 1.287 . S
C1534 C1535 1.524 . S
C1534 H1553 0.913 . S
C1535 H1511 0.950 . S
C1535 C1534 1.524 . S
C1535 C1536 1.415 . S
C1536 H1512 0.950 . S
C1536 C1531 1.363 . S
C1536 C1535 1.415 . S
C1537 H1513 0.951 . S
C1537 C1538 1.366 . S
C1537 C1539 1.388 . S
C1538 C1537 1.366 . S
C1538 C1542 1.385 . S
C1539 H1514 0.951 . S
C1539 C1537 1.388 . S
C1539 C1540 1.366 . S
C1540 C1539 1.366 . S
C1540 C1541 1.414 . S
C1540 C1543 1.499 . S
C1541 H1515 0.950 . S
C1541 C1540 1.414 . S
C1541 C1542 1.374 . S
C1542 H1516 0.950 . S
C1542 C1538 1.385 . S
C1542 C1541 1.374 . S
C1543 C1540 1.499 . S
C1543 C1544 1.373 1_554 S
C1543 C1545 1.389 . S
C1544 H1517 0.950 . S
C1544 C1530 1.377 . S
C1544 C1543 1.373 1_556 S
C1545 C1529 1.377 . S
C1545 C1543 1.389 . S
C1545 C1546 1.524 . S
C1546 C1545 1.524 . S
C1546 C1547 1.397 . S
C1546 C1551 1.363 . S
C1547 H1518 0.950 . S
C1547 C1546 1.397 . S
C1547 C1548 1.334 . S
C1548 H1519 0.950 . S
C1548 C1547 1.334 . S
C1548 C1549 1.287 . S
C1549 C1548 1.287 . S
C1549 C1550 1.524 . S
C1549 H1552 0.999 . S
C1550 H1520 0.950 . S
C1550 C1549 1.524 . S
C1550 C1551 1.415 . S
C1551 H1521 0.950 . S
C1551 C1546 1.363 . S
C1551 C1550 1.415 . S
H1552 C1549 0.999 . S
H1553 C1534 0.913 . S
H1554 C1572 0.951 . S
H1555 C1574 0.951 . S
H1556 C1576 0.950 . S
H1557 C1577 0.950 . S
H1558 C1579 0.950 . S
H1559 C1582 0.950 . S
H1560 C1583 0.950 . S
H1561 C1585 0.950 . S
H1562 C1586 0.950 . S
H1563 C1587 0.951 . S
H1564 C1589 0.951 . S
H1565 C1591 0.950 . S
H1566 C1592 0.950 . S
H1567 C1594 0.950 . S
H1568 C1597 0.950 . S
H1569 C1598 0.950 . S
H1570 C1600 0.950 . S
H1571 C1601 0.950 . S
C1572 H1554 0.951 . S
C1572 C1573 1.366 . S
C1572 C1574 1.388 . S
C1573 C1572 1.366 . S
C1573 C1577 1.385 . S
C1574 H1555 0.951 . S
C1574 C1572 1.388 . S
C1574 C1575 1.366 . S
C1575 C1574 1.366 . S
C1575 C1576 1.414 . S
C1575 C1578 1.499 . S
C1576 H1556 0.950 . S
C1576 C1575 1.414 . S
C1576 C1577 1.374 . S
C1577 H1557 0.950 . S
C1577 C1573 1.385 . S
C1577 C1576 1.374 . S
C1578 C1575 1.499 . S
C1578 C1579 1.373 . S
C1578 C1580 1.389 . S
C1579 H1558 0.950 . S
C1579 C1578 1.373 . S
C1579 C1595 1.377 . S
C1580 C1578 1.389 . S
C1580 C1581 1.524 . S
C1580 C1594 1.377 . S
C1581 C1580 1.524 . S
C1581 C1582 1.397 . S
C1581 C1586 1.363 . S
C1582 H1559 0.950 . S
C1582 C1581 1.397 . S
C1582 C1583 1.334 . S
C1583 H1560 0.950 . S
C1583 C1582 1.334 . S
C1583 C1584 1.287 . S
C1584 C1583 1.287 . S
C1584 C1585 1.524 . S
C1584 H1603 0.913 . S
C1585 H1561 0.950 . S
C1585 C1584 1.524 . S
C1585 C1586 1.415 . S
C1586 H1562 0.950 . S
C1586 C1581 1.363 . S
C1586 C1585 1.415 . S
C1587 H1563 0.951 . S
C1587 C1588 1.366 . S
C1587 C1589 1.388 . S
C1588 C1587 1.366 . S
C1588 C1592 1.385 . S
C1589 H1564 0.951 . S
C1589 C1587 1.388 . S
C1589 C1590 1.366 . S
C1590 C1589 1.366 . S
C1590 C1591 1.414 . S
C1590 C1593 1.499 . S
C1591 H1565 0.950 . S
C1591 C1590 1.414 . S
C1591 C1592 1.374 . S
C1592 H1566 0.950 . S
C1592 C1588 1.385 . S
C1592 C1591 1.374 . S
C1593 C1590 1.499 . S
C1593 C1594 1.373 . S
C1593 C1595 1.389 . S
C1594 H1567 0.950 . S
C1594 C1580 1.377 . S
C1594 C1593 1.373 . S
C1595 C1579 1.377 . S
C1595 C1593 1.389 . S
C1595 C1596 1.524 . S
C1596 C1595 1.524 . S
C1596 C1597 1.397 . S
C1596 C1601 1.363 . S
C1597 H1568 0.950 . S
C1597 C1596 1.397 . S
C1597 C1598 1.334 . S
C1598 H1569 0.950 . S
C1598 C1597 1.334 . S
C1598 C1599 1.287 . S
C1599 C1598 1.287 . S
C1599 C1600 1.524 . S
C1599 H1602 0.999 . S
C1600 H1570 0.950 . S
C1600 C1599 1.524 . S
C1600 C1601 1.415 . S
C1601 H1571 0.950 . S
C1601 C1596 1.363 . S
C1601 C1600 1.415 . S
H1602 C1599 0.999 . S
H1603 C1584 0.913 . S
H1604 C1622 0.951 . S
H1605 C1624 0.951 . S
H1606 C1626 0.950 . S
H1607 C1627 0.950 . S
H1608 C1629 0.950 . S
H1609 C1632 0.950 . S
H1610 C1633 0.950 . S
H1611 C1635 0.950 . S
H1612 C1636 0.950 . S
H1613 C1637 0.951 . S
H1614 C1639 0.951 . S
H1615 C1641 0.950 . S
H1616 C1642 0.950 . S
H1617 C1644 0.950 . S
H1618 C1647 0.950 . S
H1619 C1648 0.950 . S
H1620 C1650 0.950 . S
H1621 C1651 0.950 . S
C1622 H1604 0.951 . S
C1622 C1623 1.366 . S
C1622 C1624 1.388 . S
C1623 C1622 1.366 . S
C1623 C1627 1.385 . S
C1624 H1605 0.951 . S
C1624 C1622 1.388 . S
C1624 C1625 1.366 . S
C1625 C1624 1.366 . S
C1625 C1626 1.414 . S
C1625 C1628 1.499 . S
C1626 H1606 0.950 . S
C1626 C1625 1.414 . S
C1626 C1627 1.374 . S
C1627 H1607 0.950 . S
C1627 C1623 1.385 . S
C1627 C1626 1.374 . S
C1628 C1625 1.499 . S
C1628 C1629 1.373 . S
C1628 C1630 1.389 . S
C1629 H1608 0.950 . S
C1629 C1628 1.373 . S
C1629 C1645 1.377 . S
C1630 C1628 1.389 . S
C1630 C1631 1.524 . S
C1630 C1644 1.377 . S
C1631 C1630 1.524 . S
C1631 C1632 1.397 . S
C1631 C1636 1.363 . S
C1632 H1609 0.950 . S
C1632 C1631 1.397 . S
C1632 C1633 1.334 . S
C1633 H1610 0.950 . S
C1633 C1632 1.334 . S
C1633 C1634 1.287 . S
C1634 C1633 1.287 . S
C1634 C1635 1.524 . S
C1634 H1653 0.913 . S
C1635 H1611 0.950 . S
C1635 C1634 1.524 . S
C1635 C1636 1.415 . S
C1636 H1612 0.950 . S
C1636 C1631 1.363 . S
C1636 C1635 1.415 . S
C1637 H1613 0.951 . S
C1637 C1638 1.366 . S
C1637 C1639 1.388 . S
C1638 C1637 1.366 . S
C1638 C1642 1.385 . S
C1639 H1614 0.951 . S
C1639 C1637 1.388 . S
C1639 C1640 1.366 . S
C1640 C1639 1.366 . S
C1640 C1641 1.414 . S
C1640 C1643 1.499 . S
C1641 H1615 0.950 . S
C1641 C1640 1.414 . S
C1641 C1642 1.374 . S
C1642 H1616 0.950 . S
C1642 C1638 1.385 . S
C1642 C1641 1.374 . S
C1643 C1640 1.499 . S
C1643 C1644 1.373 . S
C1643 C1645 1.389 . S
C1644 H1617 0.950 . S
C1644 C1630 1.377 . S
C1644 C1643 1.373 . S
C1645 C1629 1.377 . S
C1645 C1643 1.389 . S
C1645 C1646 1.524 . S
C1646 C1645 1.524 . S
C1646 C1647 1.397 . S
C1646 C1651 1.363 . S
C1647 H1618 0.950 . S
C1647 C1646 1.397 . S
C1647 C1648 1.334 . S
C1648 H1619 0.950 . S
C1648 C1647 1.334 . S
C1648 C1649 1.287 . S
C1649 C1648 1.287 . S
C1649 C1650 1.524 . S
C1649 H1652 0.999 . S
C1650 H1620 0.950 . S
C1650 C1649 1.524 . S
C1650 C1651 1.415 . S
C1651 H1621 0.950 . S
C1651 C1646 1.363 . S
C1651 C1650 1.415 . S
H1652 C1649 0.999 . S
H1653 C1634 0.913 . S
H1654 C1672 0.951 . S
H1655 C1674 0.951 . S
H1656 C1676 0.950 . S
H1657 C1677 0.950 . S
H1658 C1679 0.950 . S
H1659 C1682 0.950 . S
H1660 C1683 0.950 . S
H1661 C1685 0.950 . S
H1662 C1686 0.950 . S
H1663 C1687 0.951 . S
H1664 C1689 0.951 . S
H1665 C1691 0.950 . S
H1666 C1692 0.950 . S
H1667 C1694 0.950 . S
H1668 C1697 0.950 . S
H1669 C1698 0.950 . S
H1670 C1700 0.950 . S
H1671 C1701 0.950 . S
C1672 H1654 0.951 . S
C1672 C1673 1.366 . S
C1672 C1674 1.388 . S
C1673 C1672 1.366 . S
C1673 C1677 1.385 . S
C1674 H1655 0.951 . S
C1674 C1672 1.388 . S
C1674 C1675 1.366 . S
C1675 C1674 1.366 . S
C1675 C1676 1.414 . S
C1675 C1678 1.499 . S
C1676 H1656 0.950 . S
C1676 C1675 1.414 . S
C1676 C1677 1.374 . S
C1677 H1657 0.950 . S
C1677 C1673 1.385 . S
C1677 C1676 1.374 . S
C1678 C1675 1.499 . S
C1678 C1679 1.373 . S
C1678 C1680 1.389 . S
C1679 H1658 0.950 . S
C1679 C1678 1.373 . S
C1679 C1695 1.377 . S
C1680 C1678 1.389 . S
C1680 C1681 1.524 . S
C1680 C1694 1.377 . S
C1681 C1680 1.524 . S
C1681 C1682 1.397 . S
C1681 C1686 1.363 . S
C1682 H1659 0.950 . S
C1682 C1681 1.397 . S
C1682 C1683 1.334 . S
C1683 H1660 0.950 . S
C1683 C1682 1.334 . S
C1683 C1684 1.287 . S
C1684 C1683 1.287 . S
C1684 C1685 1.524 . S
C1684 H1703 0.913 . S
C1685 H1661 0.950 . S
C1685 C1684 1.524 . S
C1685 C1686 1.415 . S
C1686 H1662 0.950 . S
C1686 C1681 1.363 . S
C1686 C1685 1.415 . S
C1687 H1663 0.951 . S
C1687 C1688 1.366 . S
C1687 C1689 1.388 . S
C1688 C1687 1.366 . S
C1688 C1692 1.385 . S
C1689 H1664 0.951 . S
C1689 C1687 1.388 . S
C1689 C1690 1.366 . S
C1690 C1689 1.366 . S
C1690 C1691 1.414 . S
C1690 C1693 1.499 . S
C1691 H1665 0.950 . S
C1691 C1690 1.414 . S
C1691 C1692 1.374 . S
C1692 H1666 0.950 . S
C1692 C1688 1.385 . S
C1692 C1691 1.374 . S
C1693 C1690 1.499 . S
C1693 C1694 1.373 . S
C1693 C1695 1.389 . S
C1694 H1667 0.950 . S
C1694 C1680 1.377 . S
C1694 C1693 1.373 . S
C1695 C1679 1.377 . S
C1695 C1693 1.389 . S
C1695 C1696 1.524 . S
C1696 C1695 1.524 . S
C1696 C1697 1.397 . S
C1696 C1701 1.363 . S
C1697 H1668 0.950 . S
C1697 C1696 1.397 . S
C1697 C1698 1.334 . S
C1698 H1669 0.950 . S
C1698 C1697 1.334 . S
C1698 C1699 1.287 . S
C1699 C1698 1.287 . S
C1699 C1700 1.524 . S
C1699 H1702 0.999 . S
C1700 H1670 0.950 . S
C1700 C1699 1.524 . S
C1700 C1701 1.415 . S
C1701 H1671 0.950 . S
C1701 C1696 1.363 . S
C1701 C1700 1.415 . S
H1702 C1699 0.999 . S
H1703 C1684 0.913 . S
H1704 C1722 0.951 . S
H1705 C1724 0.951 1_556 S
H1706 C1726 0.950 . S
H1707 C1727 0.950 . S
H1708 C1729 0.950 . S
H1709 C1732 0.950 . S
H1710 C1733 0.950 . S
H1711 C1735 0.950 . S
H1712 C1736 0.950 . S
H1713 C1737 0.951 . S
H1714 C1739 0.951 . S
H1715 C1741 0.950 . S
H1716 C1742 0.950 . S
H1717 C1744 0.950 . S
H1718 C1747 0.950 . S
H1719 C1748 0.950 . S
H1720 C1750 0.950 . S
H1721 C1751 0.950 . S
C1722 H1704 0.951 . S
C1722 C1723 1.366 . S
C1722 C1724 1.388 . S
C1723 C1722 1.366 . S
C1723 C1727 1.385 . S
C1724 H1705 0.951 1_554 S
C1724 C1722 1.388 . S
C1724 C1725 1.366 . S
C1725 C1724 1.366 . S
C1725 C1726 1.414 . S
C1725 C1728 1.499 . S
C1726 H1706 0.950 . S
C1726 C1725 1.414 . S
C1726 C1727 1.374 . S
C1727 H1707 0.950 . S
C1727 C1723 1.385 . S
C1727 C1726 1.374 . S
C1728 C1725 1.499 . S
C1728 C1729 1.373 1_554 S
C1728 C1730 1.389 . S
C1729 H1708 0.950 . S
C1729 C1728 1.373 1_556 S
C1729 C1745 1.377 . S
C1730 C1728 1.389 . S
C1730 C1731 1.524 . S
C1730 C1744 1.377 . S
C1731 C1730 1.524 . S
C1731 C1732 1.397 . S
C1731 C1736 1.363 . S
C1732 H1709 0.950 . S
C1732 C1731 1.397 . S
C1732 C1733 1.334 . S
C1733 H1710 0.950 . S
C1733 C1732 1.334 . S
C1733 C1734 1.287 . S
C1734 C1733 1.287 . S
C1734 C1735 1.524 . S
C1734 H1753 0.913 . S
C1735 H1711 0.950 . S
C1735 C1734 1.524 . S
C1735 C1736 1.415 . S
C1736 H1712 0.950 . S
C1736 C1731 1.363 . S
C1736 C1735 1.415 . S
C1737 H1713 0.951 . S
C1737 C1738 1.366 . S
C1737 C1739 1.388 . S
C1738 C1737 1.366 . S
C1738 C1742 1.385 . S
C1739 H1714 0.951 . S
C1739 C1737 1.388 . S
C1739 C1740 1.366 . S
C1740 C1739 1.366 . S
C1740 C1741 1.414 . S
C1740 C1743 1.499 . S
C1741 H1715 0.950 . S
C1741 C1740 1.414 . S
C1741 C1742 1.374 . S
C1742 H1716 0.950 . S
C1742 C1738 1.385 . S
C1742 C1741 1.374 . S
C1743 C1740 1.499 . S
C1743 C1744 1.373 1_556 S
C1743 C1745 1.389 . S
C1744 H1717 0.950 . S
C1744 C1730 1.377 . S
C1744 C1743 1.373 1_554 S
C1745 C1729 1.377 . S
C1745 C1743 1.389 . S
C1745 C1746 1.524 . S
C1746 C1745 1.524 . S
C1746 C1747 1.397 . S
C1746 C1751 1.363 . S
C1747 H1718 0.950 . S
C1747 C1746 1.397 . S
C1747 C1748 1.334 . S
C1748 H1719 0.950 . S
C1748 C1747 1.334 . S
C1748 C1749 1.287 . S
C1749 C1748 1.287 . S
C1749 C1750 1.524 . S
C1749 H1752 0.999 . S
C1750 H1720 0.950 . S
C1750 C1749 1.524 . S
C1750 C1751 1.415 . S
C1751 H1721 0.950 . S
C1751 C1746 1.363 . S
C1751 C1750 1.415 . S
H1752 C1749 0.999 . S
H1753 C1734 0.913 . S
H1754 C1772 0.951 . S
H1755 C1774 0.951 . S
H1756 C1776 0.950 . S
H1757 C1777 0.950 . S
H1758 C1779 0.950 . S
H1759 C1782 0.950 . S
H1760 C1783 0.950 . S
H1761 C1785 0.950 . S
H1762 C1786 0.950 . S
H1763 C1787 0.951 . S
H1764 C1789 0.951 1_556 S
H1765 C1791 0.950 . S
H1766 C1792 0.950 . S
H1767 C1794 0.950 . S
H1768 C1797 0.950 . S
H1769 C1798 0.950 . S
H1770 C1800 0.950 . S
H1771 C1801 0.950 . S
C1772 H1754 0.951 . S
C1772 C1773 1.366 . S
C1772 C1774 1.388 . S
C1773 C1772 1.366 . S
C1773 C1777 1.385 . S
C1774 H1755 0.951 . S
C1774 C1772 1.388 . S
C1774 C1775 1.366 . S
C1775 C1774 1.366 . S
C1775 C1776 1.414 . S
C1775 C1778 1.499 . S
C1776 H1756 0.950 . S
C1776 C1775 1.414 . S
C1776 C1777 1.374 . S
C1777 H1757 0.950 . S
C1777 C1773 1.385 . S
C1777 C1776 1.374 . S
C1778 C1775 1.499 . S
C1778 C1779 1.373 . S
C1778 C1780 1.389 1_556 S
C1779 H1758 0.950 . S
C1779 C1778 1.373 . S
C1779 C1795 1.377 . S
C1780 C1778 1.389 1_554 S
C1780 C1781 1.524 . S
C1780 C1794 1.377 . S
C1781 C1780 1.524 . S
C1781 C1782 1.397 . S
C1781 C1786 1.363 . S
C1782 H1759 0.950 . S
C1782 C1781 1.397 . S
C1782 C1783 1.334 . S
C1783 H1760 0.950 . S
C1783 C1782 1.334 . S
C1783 C1784 1.287 . S
C1784 C1783 1.287 . S
C1784 C1785 1.524 . S
C1784 H1803 0.913 . S
C1785 H1761 0.950 . S
C1785 C1784 1.524 . S
C1785 C1786 1.415 . S
C1786 H1762 0.950 . S
C1786 C1781 1.363 . S
C1786 C1785 1.415 . S
C1787 H1763 0.951 . S
C1787 C1788 1.366 . S
C1787 C1789 1.388 . S
C1788 C1787 1.366 . S
C1788 C1792 1.385 . S
C1789 H1764 0.951 1_554 S
C1789 C1787 1.388 . S
C1789 C1790 1.366 . S
C1790 C1789 1.366 . S
C1790 C1791 1.414 . S
C1790 C1793 1.496 1_554 S
C1791 H1765 0.950 . S
C1791 C1790 1.414 . S
C1791 C1792 1.374 . S
C1792 H1766 0.950 . S
C1792 C1788 1.385 . S
C1792 C1791 1.374 . S
C1793 C1790 1.496 1_556 S
C1793 C1794 1.366 1_556 S
C1793 C1795 1.399 . S
C1794 H1767 0.950 . S
C1794 C1780 1.377 . S
C1794 C1793 1.366 1_554 S
C1795 C1779 1.377 . S
C1795 C1793 1.399 . S
C1795 C1796 1.524 . S
C1796 C1795 1.524 . S
C1796 C1797 1.397 . S
C1796 C1801 1.363 . S
C1797 H1768 0.950 . S
C1797 C1796 1.397 . S
C1797 C1798 1.334 . S
C1798 H1769 0.950 . S
C1798 C1797 1.334 . S
C1798 C1799 1.287 . S
C1799 C1798 1.287 . S
C1799 C1800 1.524 . S
C1799 H1802 0.999 . S
C1800 H1770 0.950 . S
C1800 C1799 1.524 . S
C1800 C1801 1.415 . S
C1801 H1771 0.950 . S
C1801 C1796 1.363 . S
C1801 C1800 1.415 . S
H1802 C1799 0.999 . S
H1803 C1784 0.913 . S
H1804 C1822 0.951 . S
H1805 C1824 0.951 . S
H1806 C1826 0.950 . S
H1807 C1827 0.950 . S
H1808 C1829 0.950 . S
H1809 C1832 0.925 1_556 S
H1810 C1833 0.950 1_556 S
H1811 C1835 0.950 . S
H1812 C1836 0.950 . S
H1813 C1837 0.951 . S
H1814 C1839 0.951 . S
H1815 C1841 0.936 1_554 S
H1816 C1842 0.950 1_554 S
H1817 C1844 0.951 . S
H1818 C1847 0.950 1_554 S
H1819 C1848 0.950 . S
H1820 C1850 0.950 . S
H1821 C1851 0.950 . S
C1822 H1804 0.951 . S
C1822 C1823 1.366 . S
C1822 C1824 1.388 . S
C1823 C1822 1.366 . S
C1823 C1827 1.385 1_554 S
C1824 H1805 0.951 . S
C1824 C1822 1.388 . S
C1824 C1825 1.366 . S
C1825 C1824 1.366 . S
C1825 C1826 1.414 1_554 S
C1825 C1828 1.495 1_554 S
C1826 H1806 0.950 . S
C1826 C1825 1.414 1_556 S
C1826 C1827 1.374 . S
C1827 H1807 0.950 . S
C1827 C1823 1.385 1_556 S
C1827 C1826 1.374 . S
C1828 C1825 1.495 1_556 S
C1828 C1829 1.380 . S
C1828 C1830 1.386 1_556 S
C1829 H1808 0.950 . S
C1829 C1828 1.380 . S
C1829 C1845 1.377 . S
C1830 C1828 1.386 1_554 S
C1830 C1831 1.524 . S
C1830 C1844 1.377 . S
C1831 C1830 1.524 . S
C1831 C1832 1.413 . S
C1831 C1836 1.363 . S
C1832 H1809 0.925 1_554 S
C1832 C1831 1.413 . S
C1832 C1833 1.342 . S
C1833 H1810 0.950 1_554 S
C1833 C1832 1.342 . S
C1833 C1834 1.287 . S
C1834 C1833 1.287 . S
C1834 C1835 1.524 . S
C1834 H1853 0.913 . S
C1835 H1811 0.950 . S
C1835 C1834 1.524 . S
C1835 C1836 1.415 . S
C1836 H1812 0.950 . S
C1836 C1831 1.363 . S
C1836 C1835 1.415 . S
C1837 H1813 0.951 . S
C1837 C1838 1.366 . S
C1837 C1839 1.388 . S
C1838 C1837 1.366 . S
C1838 C1842 1.385 . S
C1839 H1814 0.951 . S
C1839 C1837 1.388 . S
C1839 C1840 1.366 . S
C1840 C1839 1.366 . S
C1840 C1841 1.424 . S
C1840 C1843 1.499 . S
C1841 H1815 0.936 1_556 S
C1841 C1840 1.424 . S
C1841 C1842 1.378 . S
C1842 H1816 0.950 1_556 S
C1842 C1838 1.385 . S
C1842 C1841 1.378 . S
C1843 C1840 1.499 . S
C1843 C1844 1.372 1_556 S
C1843 C1845 1.389 . S
C1844 H1817 0.951 . S
C1844 C1830 1.377 . S
C1844 C1843 1.372 1_554 S
C1845 C1829 1.377 . S
C1845 C1843 1.389 . S
C1845 C1846 1.524 . S
C1846 C1845 1.524 . S
C1846 C1847 1.397 . S
C1846 C1851 1.363 . S
C1847 H1818 0.950 1_556 S
C1847 C1846 1.397 . S
C1847 C1848 1.334 . S
C1848 H1819 0.950 . S
C1848 C1847 1.334 . S
C1848 C1849 1.287 . S
C1849 C1848 1.287 . S
C1849 C1850 1.524 . S
C1849 H1852 0.999 . S
C1850 H1820 0.950 . S
C1850 C1849 1.524 . S
C1850 C1851 1.415 . S
C1851 H1821 0.950 . S
C1851 C1846 1.363 . S
C1851 C1850 1.415 . S
H1852 C1849 0.999 . S
H1853 C1834 0.913 . S
H1854 C1872 0.951 . S
H1855 C1874 0.951 . S
H1856 C1876 0.950 . S
H1857 C1877 0.950 . S
H1858 C1879 0.950 . S
H1859 C1882 0.950 . S
H1860 C1883 0.950 . S
H1861 C1885 0.950 . S
H1862 C1886 0.950 . S
H1863 C1887 0.951 . S
H1864 C1889 0.951 . S
H1865 C1891 0.950 . S
H1866 C1892 0.950 . S
H1867 C1894 0.950 . S
H1868 C1897 0.950 . S
H1869 C1898 0.950 . S
H1870 C1900 0.950 . S
H1871 C1901 0.950 . S
C1872 H1854 0.951 . S
C1872 C1873 1.366 . S
C1872 C1874 1.388 . S
C1873 C1872 1.366 . S
C1873 C1877 1.385 . S
C1874 H1855 0.951 . S
C1874 C1872 1.388 . S
C1874 C1875 1.366 . S
C1875 C1874 1.366 . S
C1875 C1876 1.414 . S
C1875 C1878 1.499 . S
C1876 H1856 0.950 . S
C1876 C1875 1.414 . S
C1876 C1877 1.374 . S
C1877 H1857 0.950 . S
C1877 C1873 1.385 . S
C1877 C1876 1.374 . S
C1878 C1875 1.499 . S
C1878 C1879 1.373 . S
C1878 C1880 1.389 . S
C1879 H1858 0.950 . S
C1879 C1878 1.373 . S
C1879 C1895 1.377 . S
C1880 C1878 1.389 . S
C1880 C1881 1.524 . S
C1880 C1894 1.377 . S
C1881 C1880 1.524 . S
C1881 C1882 1.397 . S
C1881 C1886 1.363 . S
C1882 H1859 0.950 . S
C1882 C1881 1.397 . S
C1882 C1883 1.334 . S
C1883 H1860 0.950 . S
C1883 C1882 1.334 . S
C1883 C1884 1.287 . S
C1884 C1883 1.287 . S
C1884 C1885 1.524 . S
C1884 H1903 0.913 . S
C1885 H1861 0.950 . S
C1885 C1884 1.524 . S
C1885 C1886 1.415 . S
C1886 H1862 0.950 . S
C1886 C1881 1.363 . S
C1886 C1885 1.415 . S
C1887 H1863 0.951 . S
C1887 C1888 1.366 . S
C1887 C1889 1.388 . S
C1888 C1887 1.366 . S
C1888 C1892 1.385 . S
C1889 H1864 0.951 . S
C1889 C1887 1.388 . S
C1889 C1890 1.366 . S
C1890 C1889 1.366 . S
C1890 C1891 1.414 . S
C1890 C1893 1.499 . S
C1891 H1865 0.950 . S
C1891 C1890 1.414 . S
C1891 C1892 1.374 . S
C1892 H1866 0.950 . S
C1892 C1888 1.385 . S
C1892 C1891 1.374 . S
C1893 C1890 1.499 . S
C1893 C1894 1.373 . S
C1893 C1895 1.389 . S
C1894 H1867 0.950 . S
C1894 C1880 1.377 . S
C1894 C1893 1.373 . S
C1895 C1879 1.377 . S
C1895 C1893 1.389 . S
C1895 C1896 1.524 . S
C1896 C1895 1.524 . S
C1896 C1897 1.397 . S
C1896 C1901 1.363 . S
C1897 H1868 0.950 . S
C1897 C1896 1.397 . S
C1897 C1898 1.334 . S
C1898 H1869 0.950 . S
C1898 C1897 1.334 . S
C1898 C1899 1.287 . S
C1899 C1898 1.287 . S
C1899 C1900 1.524 . S
C1899 H1902 0.999 . S
C1900 H1870 0.950 . S
C1900 C1899 1.524 . S
C1900 C1901 1.415 . S
C1901 H1871 0.950 . S
C1901 C1896 1.363 . S
C1901 C1900 1.415 . S
H1902 C1899 0.999 . S
H1903 C1884 0.913 . S
H1904 C1922 0.951 . S
H1905 C1924 0.951 . S
H1906 C1926 0.950 . S
H1907 C1927 0.950 . S
H1908 C1929 0.950 . S
H1909 C1932 0.950 . S
H1910 C1933 0.950 . S
H1911 C1935 0.950 . S
H1912 C1936 0.950 . S
H1913 C1937 0.951 . S
H1914 C1939 0.951 . S
H1915 C1941 0.950 . S
H1916 C1942 0.950 . S
H1917 C1944 0.950 . S
H1918 C1947 0.950 . S
H1919 C1948 0.950 . S
H1920 C1950 0.950 . S
H1921 C1951 0.950 . S
C1922 H1904 0.951 . S
C1922 C1923 1.366 . S
C1922 C1924 1.388 . S
C1923 C1922 1.366 . S
C1923 C1927 1.385 . S
C1924 H1905 0.951 . S
C1924 C1922 1.388 . S
C1924 C1925 1.366 . S
C1925 C1924 1.366 . S
C1925 C1926 1.414 . S
C1925 C1928 1.499 . S
C1926 H1906 0.950 . S
C1926 C1925 1.414 . S
C1926 C1927 1.374 . S
C1927 H1907 0.950 . S
C1927 C1923 1.385 . S
C1927 C1926 1.374 . S
C1928 C1925 1.499 . S
C1928 C1929 1.373 . S
C1928 C1930 1.389 . S
C1929 H1908 0.950 . S
C1929 C1928 1.373 . S
C1929 C1945 1.377 . S
C1930 C1928 1.389 . S
C1930 C1931 1.524 . S
C1930 C1944 1.377 . S
C1931 C1930 1.524 . S
C1931 C1932 1.397 . S
C1931 C1936 1.363 . S
C1932 H1909 0.950 . S
C1932 C1931 1.397 . S
C1932 C1933 1.334 . S
C1933 H1910 0.950 . S
C1933 C1932 1.334 . S
C1933 C1934 1.287 . S
C1934 C1933 1.287 . S
C1934 C1935 1.524 . S
C1934 H1953 0.913 . S
C1935 H1911 0.950 . S
C1935 C1934 1.524 . S
C1935 C1936 1.415 . S
C1936 H1912 0.950 . S
C1936 C1931 1.363 . S
C1936 C1935 1.415 . S
C1937 H1913 0.951 . S
C1937 C1938 1.366 . S
C1937 C1939 1.388 . S
C1938 C1937 1.366 . S
C1938 C1942 1.385 . S
C1939 H1914 0.951 . S
C1939 C1937 1.388 . S
C1939 C1940 1.366 . S
C1940 C1939 1.366 . S
C1940 C1941 1.414 . S
C1940 C1943 1.499 . S
C1941 H1915 0.950 . S
C1941 C1940 1.414 . S
C1941 C1942 1.374 . S
C1942 H1916 0.950 . S
C1942 C1938 1.385 . S
C1942 C1941 1.374 . S
C1943 C1940 1.499 . S
C1943 C1944 1.373 . S
C1943 C1945 1.389 . S
C1944 H1917 0.950 . S
C1944 C1930 1.377 . S
C1944 C1943 1.373 . S
C1945 C1929 1.377 . S
C1945 C1943 1.389 . S
C1945 C1946 1.524 . S
C1946 C1945 1.524 . S
C1946 C1947 1.397 . S
C1946 C1951 1.363 . S
C1947 H1918 0.950 . S
C1947 C1946 1.397 . S
C1947 C1948 1.334 . S
C1948 H1919 0.950 . S
C1948 C1947 1.334 . S
C1948 C1949 1.287 . S
C1949 C1948 1.287 . S
C1949 C1950 1.524 . S
C1949 H1952 0.999 . S
C1950 H1920 0.950 . S
C1950 C1949 1.524 . S
C1950 C1951 1.415 . S
C1951 H1921 0.950 . S
C1951 C1946 1.363 . S
C1951 C1950 1.415 . S
H1952 C1949 0.999 . S
H1953 C1934 0.913 . S
H1954 C1972 0.951 . S
H1955 C1974 0.951 . S
H1956 C1976 0.950 . S
H1957 C1977 0.950 . S
H1958 C1979 0.950 . S
H1959 C1982 0.950 . S
H1960 C1983 0.950 . S
H1961 C1985 0.950 . S
H1962 C1986 0.950 . S
H1963 C1987 0.951 . S
H1964 C1989 0.951 . S
H1965 C1991 0.950 . S
H1966 C1992 0.950 . S
H1967 C1994 0.950 . S
H1968 C1997 0.950 . S
H1969 C1998 0.950 . S
H1970 C2000 0.950 . S
H1971 C2001 0.950 . S
C1972 H1954 0.951 . S
C1972 C1973 1.366 . S
C1972 C1974 1.388 . S
C1973 C1972 1.366 . S
C1973 C1977 1.385 . S
C1974 H1955 0.951 . S
C1974 C1972 1.388 . S
C1974 C1975 1.366 . S
C1975 C1974 1.366 . S
C1975 C1976 1.414 . S
C1975 C1978 1.499 . S
C1976 H1956 0.950 . S
C1976 C1975 1.414 . S
C1976 C1977 1.374 . S
C1977 H1957 0.950 . S
C1977 C1973 1.385 . S
C1977 C1976 1.374 . S
C1978 C1975 1.499 . S
C1978 C1979 1.373 . S
C1978 C1980 1.389 . S
C1979 H1958 0.950 . S
C1979 C1978 1.373 . S
C1979 C1995 1.377 . S
C1980 C1978 1.389 . S
C1980 C1981 1.524 . S
C1980 C1994 1.377 . S
C1981 C1980 1.524 . S
C1981 C1982 1.397 . S
C1981 C1986 1.363 . S
C1982 H1959 0.950 . S
C1982 C1981 1.397 . S
C1982 C1983 1.334 . S
C1983 H1960 0.950 . S
C1983 C1982 1.334 . S
C1983 C1984 1.287 . S
C1984 C1983 1.287 . S
C1984 C1985 1.524 . S
C1984 H2003 0.913 . S
C1985 H1961 0.950 . S
C1985 C1984 1.524 . S
C1985 C1986 1.415 . S
C1986 H1962 0.950 . S
C1986 C1981 1.363 . S
C1986 C1985 1.415 . S
C1987 H1963 0.951 . S
C1987 C1988 1.366 . S
C1987 C1989 1.388 . S
C1988 C1987 1.366 . S
C1988 C1992 1.385 . S
C1989 H1964 0.951 . S
C1989 C1987 1.388 . S
C1989 C1990 1.366 . S
C1990 C1989 1.366 . S
C1990 C1991 1.414 . S
C1990 C1993 1.499 . S
C1991 H1965 0.950 . S
C1991 C1990 1.414 . S
C1991 C1992 1.374 . S
C1992 H1966 0.950 . S
C1992 C1988 1.385 . S
C1992 C1991 1.374 . S
C1993 C1990 1.499 . S
C1993 C1994 1.373 . S
C1993 C1995 1.389 . S
C1994 H1967 0.950 . S
C1994 C1980 1.377 . S
C1994 C1993 1.373 . S
C1995 C1979 1.377 . S
C1995 C1993 1.389 . S
C1995 C1996 1.524 . S
C1996 C1995 1.524 . S
C1996 C1997 1.397 . S
C1996 C2001 1.363 . S
C1997 H1968 0.950 . S
C1997 C1996 1.397 . S
C1997 C1998 1.334 . S
C1998 H1969 0.950 . S
C1998 C1997 1.334 . S
C1998 C1999 1.287 . S
C1999 C1998 1.287 . S
C1999 C2000 1.524 . S
C1999 H2002 0.999 . S
C2000 H1970 0.950 . S
C2000 C1999 1.524 . S
C2000 C2001 1.415 . S
C2001 H1971 0.950 . S
C2001 C1996 1.363 . S
C2001 C2000 1.415 . S
H2002 C1999 0.999 . S
H2003 C1984 0.913 . S
H2004 C2022 0.951 . S
H2005 C2024 0.951 . S
H2006 C2026 0.950 . S
H2007 C2027 0.950 . S
H2008 C2029 0.950 . S
H2009 C2032 0.950 . S
H2010 C2033 0.950 . S
H2011 C2035 0.950 . S
H2012 C2036 0.950 . S
H2013 C2037 0.951 . S
H2014 C2039 0.951 . S
H2015 C2041 0.950 . S
H2016 C2042 0.950 . S
H2017 C2044 0.950 . S
H2018 C2047 0.950 . S
H2019 C2048 0.950 . S
H2020 C2050 0.950 . S
H2021 C2051 0.950 . S
C2022 H2004 0.951 . S
C2022 C2023 1.366 . S
C2022 C2024 1.388 . S
C2023 C2022 1.366 . S
C2023 C2027 1.385 . S
C2024 H2005 0.951 . S
C2024 C2022 1.388 . S
C2024 C2025 1.366 . S
C2025 C2024 1.366 . S
C2025 C2026 1.414 . S
C2025 C2028 1.499 . S
C2026 H2006 0.950 . S
C2026 C2025 1.414 . S
C2026 C2027 1.374 . S
C2027 H2007 0.950 . S
C2027 C2023 1.385 . S
C2027 C2026 1.374 . S
C2028 C2025 1.499 . S
C2028 C2029 1.373 . S
C2028 C2030 1.389 . S
C2029 H2008 0.950 . S
C2029 C2028 1.373 . S
C2029 C2045 1.377 . S
C2030 C2028 1.389 . S
C2030 C2031 1.524 . S
C2030 C2044 1.377 . S
C2031 C2030 1.524 . S
C2031 C2032 1.397 . S
C2031 C2036 1.363 . S
C2032 H2009 0.950 . S
C2032 C2031 1.397 . S
C2032 C2033 1.334 . S
C2033 H2010 0.950 . S
C2033 C2032 1.334 . S
C2033 C2034 1.287 . S
C2034 C2033 1.287 . S
C2034 C2035 1.524 . S
C2034 H2053 0.913 . S
C2035 H2011 0.950 . S
C2035 C2034 1.524 . S
C2035 C2036 1.415 . S
C2036 H2012 0.950 . S
C2036 C2031 1.363 . S
C2036 C2035 1.415 . S
C2037 H2013 0.951 . S
C2037 C2038 1.366 . S
C2037 C2039 1.388 . S
C2038 C2037 1.366 . S
C2038 C2042 1.385 . S
C2039 H2014 0.951 . S
C2039 C2037 1.388 . S
C2039 C2040 1.366 . S
C2040 C2039 1.366 . S
C2040 C2041 1.414 . S
C2040 C2043 1.499 . S
C2041 H2015 0.950 . S
C2041 C2040 1.414 . S
C2041 C2042 1.374 . S
C2042 H2016 0.950 . S
C2042 C2038 1.385 . S
C2042 C2041 1.374 . S
C2043 C2040 1.499 . S
C2043 C2044 1.373 . S
C2043 C2045 1.389 . S
C2044 H2017 0.950 . S
C2044 C2030 1.377 . S
C2044 C2043 1.373 . S
C2045 C2029 1.377 . S
C2045 C2043 1.389 . S
C2045 C2046 1.524 . S
C2046 C2045 1.524 . S
C2046 C2047 1.397 . S
C2046 C2051 1.363 . S
C2047 H2018 0.950 . S
C2047 C2046 1.397 . S
C2047 C2048 1.334 . S
C2048 H2019 0.950 . S
C2048 C2047 1.334 . S
C2048 C2049 1.287 . S
C2049 C2048 1.287 . S
C2049 C2050 1.524 . S
C2049 H2052 0.999 . S
C2050 H2020 0.950 . S
C2050 C2049 1.524 . S
C2050 C2051 1.415 . S
C2051 H2021 0.950 . S
C2051 C2046 1.363 . S
C2051 C2050 1.415 . S
H2052 C2049 0.999 . S
H2053 C2034 0.913 . S
H2054 C2072 0.951 . S
H2055 C2074 0.951 . S
H2056 C2076 0.950 . S
H2057 C2077 0.950 . S
H2058 C2079 0.950 . S
H2059 C2082 0.950 . S
H2060 C2083 0.950 . S
H2061 C2085 0.950 . S
H2062 C2086 0.950 . S
H2063 C2087 0.951 . S
H2064 C2089 0.951 . S
H2065 C2091 0.950 . S
H2066 C2092 0.950 . S
H2067 C2094 0.950 . S
H2068 C2097 0.950 . S
H2069 C2098 0.950 . S
H2070 C2100 0.950 . S
H2071 C2101 0.950 . S
C2072 H2054 0.951 . S
C2072 C2073 1.366 . S
C2072 C2074 1.388 . S
C2073 C2072 1.366 . S
C2073 C2077 1.385 . S
C2074 H2055 0.951 . S
C2074 C2072 1.388 . S
C2074 C2075 1.366 . S
C2075 C2074 1.366 . S
C2075 C2076 1.414 . S
C2075 C2078 1.499 . S
C2076 H2056 0.950 . S
C2076 C2075 1.414 . S
C2076 C2077 1.374 . S
C2077 H2057 0.950 . S
C2077 C2073 1.385 . S
C2077 C2076 1.374 . S
C2078 C2075 1.499 . S
C2078 C2079 1.373 . S
C2078 C2080 1.389 . S
C2079 H2058 0.950 . S
C2079 C2078 1.373 . S
C2079 C2095 1.377 . S
C2080 C2078 1.389 . S
C2080 C2081 1.524 . S
C2080 C2094 1.377 . S
C2081 C2080 1.524 . S
C2081 C2082 1.397 . S
C2081 C2086 1.363 . S
C2082 H2059 0.950 . S
C2082 C2081 1.397 . S
C2082 C2083 1.334 . S
C2083 H2060 0.950 . S
C2083 C2082 1.334 . S
C2083 C2084 1.287 . S
C2084 C2083 1.287 . S
C2084 C2085 1.524 . S
C2084 H2103 0.913 . S
C2085 H2061 0.950 . S
C2085 C2084 1.524 . S
C2085 C2086 1.415 . S
C2086 H2062 0.950 . S
C2086 C2081 1.363 . S
C2086 C2085 1.415 . S
C2087 H2063 0.951 . S
C2087 C2088 1.366 . S
C2087 C2089 1.388 . S
C2088 C2087 1.366 . S
C2088 C2092 1.385 . S
C2089 H2064 0.951 . S
C2089 C2087 1.388 . S
C2089 C2090 1.366 . S
C2090 C2089 1.366 . S
C2090 C2091 1.414 . S
C2090 C2093 1.499 . S
C2091 H2065 0.950 . S
C2091 C2090 1.414 . S
C2091 C2092 1.374 . S
C2092 H2066 0.950 . S
C2092 C2088 1.385 . S
C2092 C2091 1.374 . S
C2093 C2090 1.499 . S
C2093 C2094 1.373 . S
C2093 C2095 1.389 . S
C2094 H2067 0.950 . S
C2094 C2080 1.377 . S
C2094 C2093 1.373 . S
C2095 C2079 1.377 . S
C2095 C2093 1.389 . S
C2095 C2096 1.524 . S
C2096 C2095 1.524 . S
C2096 C2097 1.397 . S
C2096 C2101 1.363 . S
C2097 H2068 0.950 . S
C2097 C2096 1.397 . S
C2097 C2098 1.334 . S
C2098 H2069 0.950 . S
C2098 C2097 1.334 . S
C2098 C2099 1.287 . S
C2099 C2098 1.287 . S
C2099 C2100 1.524 . S
C2099 H2102 0.999 . S
C2100 H2070 0.950 . S
C2100 C2099 1.524 . S
C2100 C2101 1.415 . S
C2101 H2071 0.950 . S
C2101 C2096 1.363 . S
C2101 C2100 1.415 . S
H2102 C2099 0.999 . S
H2103 C2084 0.913 . S
H2104 C2122 0.951 . S
H2105 C2124 0.951 . S
H2106 C2126 0.950 . S
H2107 C2127 0.950 . S
H2108 C2129 0.950 . S
H2109 C2132 0.950 . S
H2110 C2133 0.950 . S
H2111 C2135 0.950 . S
H2112 C2136 0.950 . S
H2113 C2137 0.951 . S
H2114 C2139 0.951 . S
H2115 C2141 0.950 . S
H2116 C2142 0.950 . S
H2117 C2144 0.950 . S
H2118 C2147 0.950 . S
H2119 C2148 0.950 . S
H2120 C2150 0.950 . S
H2121 C2151 0.950 . S
C2122 H2104 0.951 . S
C2122 C2123 1.366 . S
C2122 C2124 1.388 . S
C2123 C2122 1.366 . S
C2123 C2127 1.385 . S
C2124 H2105 0.951 . S
C2124 C2122 1.388 . S
C2124 C2125 1.366 . S
C2125 C2124 1.366 . S
C2125 C2126 1.414 . S
C2125 C2128 1.499 . S
C2126 H2106 0.950 . S
C2126 C2125 1.414 . S
C2126 C2127 1.374 . S
C2127 H2107 0.950 . S
C2127 C2123 1.385 . S
C2127 C2126 1.374 . S
C2128 C2125 1.499 . S
C2128 C2129 1.373 . S
C2128 C2130 1.389 . S
C2129 H2108 0.950 . S
C2129 C2128 1.373 . S
C2129 C2145 1.377 . S
C2130 C2128 1.389 . S
C2130 C2131 1.524 . S
C2130 C2144 1.377 . S
C2131 C2130 1.524 . S
C2131 C2132 1.397 . S
C2131 C2136 1.363 . S
C2132 H2109 0.950 . S
C2132 C2131 1.397 . S
C2132 C2133 1.334 . S
C2133 H2110 0.950 . S
C2133 C2132 1.334 . S
C2133 C2134 1.287 . S
C2134 C2133 1.287 . S
C2134 C2135 1.524 . S
C2134 H2153 0.913 . S
C2135 H2111 0.950 . S
C2135 C2134 1.524 . S
C2135 C2136 1.415 . S
C2136 H2112 0.950 . S
C2136 C2131 1.363 . S
C2136 C2135 1.415 . S
C2137 H2113 0.951 . S
C2137 C2138 1.366 . S
C2137 C2139 1.388 . S
C2138 C2137 1.366 . S
C2138 C2142 1.385 . S
C2139 H2114 0.951 . S
C2139 C2137 1.388 . S
C2139 C2140 1.366 . S
C2140 C2139 1.366 . S
C2140 C2141 1.414 . S
C2140 C2143 1.499 . S
C2141 H2115 0.950 . S
C2141 C2140 1.414 . S
C2141 C2142 1.374 . S
C2142 H2116 0.950 . S
C2142 C2138 1.385 . S
C2142 C2141 1.374 . S
C2143 C2140 1.499 . S
C2143 C2144 1.373 . S
C2143 C2145 1.389 . S
C2144 H2117 0.950 . S
C2144 C2130 1.377 . S
C2144 C2143 1.373 . S
C2145 C2129 1.377 . S
C2145 C2143 1.389 . S
C2145 C2146 1.524 . S
C2146 C2145 1.524 . S
C2146 C2147 1.397 . S
C2146 C2151 1.363 . S
C2147 H2118 0.950 . S
C2147 C2146 1.397 . S
C2147 C2148 1.334 . S
C2148 H2119 0.950 . S
C2148 C2147 1.334 . S
C2148 C2149 1.287 . S
C2149 C2148 1.287 . S
C2149 C2150 1.524 . S
C2149 H2152 0.999 . S
C2150 H2120 0.950 . S
C2150 C2149 1.524 . S
C2150 C2151 1.415 . S
C2151 H2121 0.950 . S
C2151 C2146 1.363 . S
C2151 C2150 1.415 . S
H2152 C2149 0.999 . S
H2153 C2134 0.913 . S
H2154 C2172 0.951 . S
H2155 C2174 0.951 . S
H2156 C2176 0.950 . S
H2157 C2177 0.950 . S
H2158 C2179 0.950 . S
H2159 C2182 0.950 . S
H2160 C2183 0.950 . S
H2161 C2185 0.950 . S
H2162 C2186 0.950 . S
H2163 C2187 0.951 . S
H2164 C2189 0.951 . S
H2165 C2191 0.950 . S
H2166 C2192 0.950 . S
H2167 C2194 0.950 . S
H2168 C2197 0.950 . S
H2169 C2198 0.950 . S
H2170 C2200 0.950 . S
H2171 C2201 0.950 . S
C2172 H2154 0.951 . S
C2172 C2173 1.366 . S
C2172 C2174 1.388 . S
C2173 C2172 1.366 . S
C2173 C2177 1.385 . S
C2174 H2155 0.951 . S
C2174 C2172 1.388 . S
C2174 C2175 1.366 . S
C2175 C2174 1.366 . S
C2175 C2176 1.414 . S
C2175 C2178 1.499 . S
C2176 H2156 0.950 . S
C2176 C2175 1.414 . S
C2176 C2177 1.374 . S
C2177 H2157 0.950 . S
C2177 C2173 1.385 . S
C2177 C2176 1.374 . S
C2178 C2175 1.499 . S
C2178 C2179 1.373 . S
C2178 C2180 1.389 . S
C2179 H2158 0.950 . S
C2179 C2178 1.373 . S
C2179 C2195 1.377 . S
C2180 C2178 1.389 . S
C2180 C2181 1.524 . S
C2180 C2194 1.377 . S
C2181 C2180 1.524 . S
C2181 C2182 1.397 . S
C2181 C2186 1.363 . S
C2182 H2159 0.950 . S
C2182 C2181 1.397 . S
C2182 C2183 1.334 . S
C2183 H2160 0.950 . S
C2183 C2182 1.334 . S
C2183 C2184 1.287 . S
C2184 C2183 1.287 . S
C2184 C2185 1.524 . S
C2184 H2203 0.913 . S
C2185 H2161 0.950 . S
C2185 C2184 1.524 . S
C2185 C2186 1.415 . S
C2186 H2162 0.950 . S
C2186 C2181 1.363 . S
C2186 C2185 1.415 . S
C2187 H2163 0.951 . S
C2187 C2188 1.366 . S
C2187 C2189 1.388 . S
C2188 C2187 1.366 . S
C2188 C2192 1.385 . S
C2189 H2164 0.951 . S
C2189 C2187 1.388 . S
C2189 C2190 1.366 . S
C2190 C2189 1.366 . S
C2190 C2191 1.414 . S
C2190 C2193 1.499 . S
C2191 H2165 0.950 . S
C2191 C2190 1.414 . S
C2191 C2192 1.374 . S
C2192 H2166 0.950 . S
C2192 C2188 1.385 . S
C2192 C2191 1.374 . S
C2193 C2190 1.499 . S
C2193 C2194 1.373 . S
C2193 C2195 1.389 . S
C2194 H2167 0.950 . S
C2194 C2180 1.377 . S
C2194 C2193 1.373 . S
C2195 C2179 1.377 . S
C2195 C2193 1.389 . S
C2195 C2196 1.524 . S
C2196 C2195 1.524 . S
C2196 C2197 1.397 . S
C2196 C2201 1.363 . S
C2197 H2168 0.950 . S
C2197 C2196 1.397 . S
C2197 C2198 1.334 . S
C2198 H2169 0.950 . S
C2198 C2197 1.334 . S
C2198 C2199 1.287 . S
C2199 C2198 1.287 . S
C2199 C2200 1.524 . S
C2199 H2202 0.999 . S
C2200 H2170 0.950 . S
C2200 C2199 1.524 . S
C2200 C2201 1.415 . S
C2201 H2171 0.950 . S
C2201 C2196 1.363 . S
C2201 C2200 1.415 . S
H2202 C2199 0.999 . S
H2203 C2184 0.913 . S
H2204 C2222 0.951 . S
H2205 C2224 0.951 . S
H2206 C2226 0.950 . S
H2207 C2227 0.950 . S
H2208 C2229 0.950 . S
H2209 C2232 0.950 . S
H2210 C2233 0.950 . S
H2211 C2235 0.950 . S
H2212 C2236 0.950 . S
H2213 C2237 0.951 . S
H2214 C2239 0.951 . S
H2215 C2241 0.950 . S
H2216 C2242 0.950 . S
H2217 C2244 0.950 . S
H2218 C2247 0.950 . S
H2219 C2248 0.950 . S
H2220 C2250 0.950 . S
H2221 C2251 0.950 . S
C2222 H2204 0.951 . S
C2222 C2223 1.366 . S
C2222 C2224 1.388 . S
C2223 C2222 1.366 . S
C2223 C2227 1.385 . S
C2224 H2205 0.951 . S
C2224 C2222 1.388 . S
C2224 C2225 1.366 . S
C2225 C2224 1.366 . S
C2225 C2226 1.414 . S
C2225 C2228 1.499 . S
C2226 H2206 0.950 . S
C2226 C2225 1.414 . S
C2226 C2227 1.374 . S
C2227 H2207 0.950 . S
C2227 C2223 1.385 . S
C2227 C2226 1.374 . S
C2228 C2225 1.499 . S
C2228 C2229 1.373 . S
C2228 C2230 1.389 . S
C2229 H2208 0.950 . S
C2229 C2228 1.373 . S
C2229 C2245 1.377 . S
C2230 C2228 1.389 . S
C2230 C2231 1.524 . S
C2230 C2244 1.377 . S
C2231 C2230 1.524 . S
C2231 C2232 1.397 . S
C2231 C2236 1.363 . S
C2232 H2209 0.950 . S
C2232 C2231 1.397 . S
C2232 C2233 1.334 . S
C2233 H2210 0.950 . S
C2233 C2232 1.334 . S
C2233 C2234 1.287 . S
C2234 C2233 1.287 . S
C2234 C2235 1.524 . S
C2234 H2253 0.913 . S
C2235 H2211 0.950 . S
C2235 C2234 1.524 . S
C2235 C2236 1.415 . S
C2236 H2212 0.950 . S
C2236 C2231 1.363 . S
C2236 C2235 1.415 . S
C2237 H2213 0.951 . S
C2237 C2238 1.366 . S
C2237 C2239 1.388 . S
C2238 C2237 1.366 . S
C2238 C2242 1.385 . S
C2239 H2214 0.951 . S
C2239 C2237 1.388 . S
C2239 C2240 1.366 . S
C2240 C2239 1.366 . S
C2240 C2241 1.414 . S
C2240 C2243 1.499 . S
C2241 H2215 0.950 . S
C2241 C2240 1.414 . S
C2241 C2242 1.374 . S
C2242 H2216 0.950 . S
C2242 C2238 1.385 . S
C2242 C2241 1.374 . S
C2243 C2240 1.499 . S
C2243 C2244 1.373 . S
C2243 C2245 1.389 . S
C2244 H2217 0.950 . S
C2244 C2230 1.377 . S
C2244 C2243 1.373 . S
C2245 C2229 1.377 . S
C2245 C2243 1.389 . S
C2245 C2246 1.524 . S
C2246 C2245 1.524 . S
C2246 C2247 1.397 . S
C2246 C2251 1.363 . S
C2247 H2218 0.950 . S
C2247 C2246 1.397 . S
C2247 C2248 1.334 . S
C2248 H2219 0.950 . S
C2248 C2247 1.334 . S
C2248 C2249 1.287 . S
C2249 C2248 1.287 . S
C2249 C2250 1.524 . S
C2249 H2252 0.999 . S
C2250 H2220 0.950 . S
C2250 C2249 1.524 . S
C2250 C2251 1.415 . S
C2251 H2221 0.950 . S
C2251 C2246 1.363 . S
C2251 C2250 1.415 . S
H2252 C2249 0.999 . S
H2253 C2234 0.913 . S
H2254 C2272 0.951 . S
H2255 C2274 0.951 . S
H2256 C2276 0.950 . S
H2257 C2277 0.950 . S
H2258 C2279 0.950 . S
H2259 C2282 0.950 . S
H2260 C2283 0.950 . S
H2261 C2285 0.950 . S
H2262 C2286 0.950 . S
H2263 C2287 0.951 . S
H2264 C2289 0.951 . S
H2265 C2291 0.950 . S
H2266 C2292 0.950 . S
H2267 C2294 0.950 . S
H2268 C2297 0.950 . S
H2269 C2298 0.950 . S
H2270 C2300 0.950 . S
H2271 C2301 0.950 . S
C2272 H2254 0.951 . S
C2272 C2273 1.366 . S
C2272 C2274 1.388 . S
C2273 C2272 1.366 . S
C2273 C2277 1.385 . S
C2274 H2255 0.951 . S
C2274 C2272 1.388 . S
C2274 C2275 1.366 . S
C2275 C2274 1.366 . S
C2275 C2276 1.414 . S
C2275 C2278 1.499 . S
C2276 H2256 0.950 . S
C2276 C2275 1.414 . S
C2276 C2277 1.374 . S
C2277 H2257 0.950 . S
C2277 C2273 1.385 . S
C2277 C2276 1.374 . S
C2278 C2275 1.499 . S
C2278 C2279 1.373 . S
C2278 C2280 1.389 . S
C2279 H2258 0.950 . S
C2279 C2278 1.373 . S
C2279 C2295 1.377 . S
C2280 C2278 1.389 . S
C2280 C2281 1.524 . S
C2280 C2294 1.377 . S
C2281 C2280 1.524 . S
C2281 C2282 1.397 . S
C2281 C2286 1.363 . S
C2282 H2259 0.950 . S
C2282 C2281 1.397 . S
C2282 C2283 1.334 . S
C2283 H2260 0.950 . S
C2283 C2282 1.334 . S
C2283 C2284 1.287 . S
C2284 C2283 1.287 . S
C2284 C2285 1.524 . S
C2284 H2303 0.913 . S
C2285 H2261 0.950 . S
C2285 C2284 1.524 . S
C2285 C2286 1.415 . S
C2286 H2262 0.950 . S
C2286 C2281 1.363 . S
C2286 C2285 1.415 . S
C2287 H2263 0.951 . S
C2287 C2288 1.366 . S
C2287 C2289 1.388 . S
C2288 C2287 1.366 . S
C2288 C2292 1.385 . S
C2289 H2264 0.951 . S
C2289 C2287 1.388 . S
C2289 C2290 1.366 . S
C2290 C2289 1.366 . S
C2290 C2291 1.414 . S
C2290 C2293 1.499 . S
C2291 H2265 0.950 . S
C2291 C2290 1.414 . S
C2291 C2292 1.374 . S
C2292 H2266 0.950 . S
C2292 C2288 1.385 . S
C2292 C2291 1.374 . S
C2293 C2290 1.499 . S
C2293 C2294 1.373 . S
C2293 C2295 1.389 . S
C2294 H2267 0.950 . S
C2294 C2280 1.377 . S
C2294 C2293 1.373 . S
C2295 C2279 1.377 . S
C2295 C2293 1.389 . S
C2295 C2296 1.524 . S
C2296 C2295 1.524 . S
C2296 C2297 1.397 . S
C2296 C2301 1.363 . S
C2297 H2268 0.950 . S
C2297 C2296 1.397 . S
C2297 C2298 1.334 . S
C2298 H2269 0.950 . S
C2298 C2297 1.334 . S
C2298 C2299 1.287 . S
C2299 C2298 1.287 . S
C2299 C2300 1.524 . S
C2299 H2302 0.999 . S
C2300 H2270 0.950 . S
C2300 C2299 1.524 . S
C2300 C2301 1.415 . S
C2301 H2271 0.950 . S
C2301 C2296 1.363 . S
C2301 C2300 1.415 . S
H2302 C2299 0.999 . S
H2303 C2284 0.913 . S
H2304 C2322 0.951 . S
H2305 C2324 0.951 . S
H2306 C2326 0.950 . S
H2307 C2327 0.950 . S
H2308 C2329 0.950 . S
H2309 C2332 0.950 . S
H2310 C2333 0.950 . S
H2311 C2335 0.950 . S
H2312 C2336 0.950 . S
H2313 C2337 0.951 . S
H2314 C2339 0.951 . S
H2315 C2341 0.950 . S
H2316 C2342 0.950 . S
H2317 C2344 0.950 . S
H2318 C2347 0.950 . S
H2319 C2348 0.950 . S
H2320 C2350 0.950 . S
H2321 C2351 0.950 . S
C2322 H2304 0.951 . S
C2322 C2323 1.366 . S
C2322 C2324 1.388 . S
C2323 C2322 1.366 . S
C2323 C2327 1.385 . S
C2324 H2305 0.951 . S
C2324 C2322 1.388 . S
C2324 C2325 1.366 . S
C2325 C2324 1.366 . S
C2325 C2326 1.414 . S
C2325 C2328 1.499 . S
C2326 H2306 0.950 . S
C2326 C2325 1.414 . S
C2326 C2327 1.374 . S
C2327 H2307 0.950 . S
C2327 C2323 1.385 . S
C2327 C2326 1.374 . S
C2328 C2325 1.499 . S
C2328 C2329 1.373 . S
C2328 C2330 1.389 . S
C2329 H2308 0.950 . S
C2329 C2328 1.373 . S
C2329 C2345 1.377 . S
C2330 C2328 1.389 . S
C2330 C2331 1.524 . S
C2330 C2344 1.377 . S
C2331 C2330 1.524 . S
C2331 C2332 1.397 . S
C2331 C2336 1.363 . S
C2332 H2309 0.950 . S
C2332 C2331 1.397 . S
C2332 C2333 1.334 . S
C2333 H2310 0.950 . S
C2333 C2332 1.334 . S
C2333 C2334 1.287 . S
C2334 C2333 1.287 . S
C2334 C2335 1.524 . S
C2334 H2353 0.913 . S
C2335 H2311 0.950 . S
C2335 C2334 1.524 . S
C2335 C2336 1.415 . S
C2336 H2312 0.950 . S
C2336 C2331 1.363 . S
C2336 C2335 1.415 . S
C2337 H2313 0.951 . S
C2337 C2338 1.366 . S
C2337 C2339 1.388 . S
C2338 C2337 1.366 . S
C2338 C2342 1.385 . S
C2339 H2314 0.951 . S
C2339 C2337 1.388 . S
C2339 C2340 1.366 . S
C2340 C2339 1.366 . S
C2340 C2341 1.414 . S
C2340 C2343 1.499 . S
C2341 H2315 0.950 . S
C2341 C2340 1.414 . S
C2341 C2342 1.374 . S
C2342 H2316 0.950 . S
C2342 C2338 1.385 . S
C2342 C2341 1.374 . S
C2343 C2340 1.499 . S
C2343 C2344 1.373 . S
C2343 C2345 1.389 . S
C2344 H2317 0.950 . S
C2344 C2330 1.377 . S
C2344 C2343 1.373 . S
C2345 C2329 1.377 . S
C2345 C2343 1.389 . S
C2345 C2346 1.524 . S
C2346 C2345 1.524 . S
C2346 C2347 1.397 . S
C2346 C2351 1.363 . S
C2347 H2318 0.950 . S
C2347 C2346 1.397 . S
C2347 C2348 1.334 . S
C2348 H2319 0.950 . S
C2348 C2347 1.334 . S
C2348 C2349 1.287 . S
C2349 C2348 1.287 . S
C2349 C2350 1.524 . S
C2349 H2352 0.999 . S
C2350 H2320 0.950 . S
C2350 C2349 1.524 . S
C2350 C2351 1.415 . S
C2351 H2321 0.950 . S
C2351 C2346 1.363 . S
C2351 C2350 1.415 . S
H2352 C2349 0.999 . S
H2353 C2334 0.913 . S
H2354 C2372 0.951 . S
H2355 C2374 0.951 . S
H2356 C2376 0.950 . S
H2357 C2377 0.950 . S
H2358 C2379 0.950 . S
H2359 C2382 0.950 . S
H2360 C2383 0.950 . S
H2361 C2385 0.950 . S
H2362 C2386 0.950 . S
H2363 C2387 0.951 . S
H2364 C2389 0.951 . S
H2365 C2391 0.950 . S
H2366 C2392 0.950 . S
H2367 C2394 0.950 . S
H2368 C2397 0.950 . S
H2369 C2398 0.950 . S
H2370 C2400 0.950 . S
H2371 C2401 0.950 . S
C2372 H2354 0.951 . S
C2372 C2373 1.366 . S
C2372 C2374 1.388 . S
C2373 C2372 1.366 . S
C2373 C2377 1.385 . S
C2374 H2355 0.951 . S
C2374 C2372 1.388 . S
C2374 C2375 1.366 . S
C2375 C2374 1.366 . S
C2375 C2376 1.414 . S
C2375 C2378 1.499 . S
C2376 H2356 0.950 . S
C2376 C2375 1.414 . S
C2376 C2377 1.374 . S
C2377 H2357 0.950 . S
C2377 C2373 1.385 . S
C2377 C2376 1.374 . S
C2378 C2375 1.499 . S
C2378 C2379 1.373 . S
C2378 C2380 1.389 . S
C2379 H2358 0.950 . S
C2379 C2378 1.373 . S
C2379 C2395 1.377 . S
C2380 C2378 1.389 . S
C2380 C2381 1.524 . S
C2380 C2394 1.377 . S
C2381 C2380 1.524 . S
C2381 C2382 1.397 . S
C2381 C2386 1.363 . S
C2382 H2359 0.950 . S
C2382 C2381 1.397 . S
C2382 C2383 1.334 . S
C2383 H2360 0.950 . S
C2383 C2382 1.334 . S
C2383 C2384 1.287 . S
C2384 C2383 1.287 . S
C2384 C2385 1.524 . S
C2384 H2403 0.913 . S
C2385 H2361 0.950 . S
C2385 C2384 1.524 . S
C2385 C2386 1.415 . S
C2386 H2362 0.950 . S
C2386 C2381 1.363 . S
C2386 C2385 1.415 . S
C2387 H2363 0.951 . S
C2387 C2388 1.366 . S
C2387 C2389 1.388 . S
C2388 C2387 1.366 . S
C2388 C2392 1.385 . S
C2389 H2364 0.951 . S
C2389 C2387 1.388 . S
C2389 C2390 1.366 . S
C2390 C2389 1.366 . S
C2390 C2391 1.414 . S
C2390 C2393 1.499 . S
C2391 H2365 0.950 . S
C2391 C2390 1.414 . S
C2391 C2392 1.374 . S
C2392 H2366 0.950 . S
C2392 C2388 1.385 . S
C2392 C2391 1.374 . S
C2393 C2390 1.499 . S
C2393 C2394 1.373 . S
C2393 C2395 1.389 . S
C2394 H2367 0.950 . S
C2394 C2380 1.377 . S
C2394 C2393 1.373 . S
C2395 C2379 1.377 . S
C2395 C2393 1.389 . S
C2395 C2396 1.524 . S
C2396 C2395 1.524 . S
C2396 C2397 1.397 . S
C2396 C2401 1.363 . S
C2397 H2368 0.950 . S
C2397 C2396 1.397 . S
C2397 C2398 1.334 . S
C2398 H2369 0.950 . S
C2398 C2397 1.334 . S
C2398 C2399 1.287 . S
C2399 C2398 1.287 . S
C2399 C2400 1.524 . S
C2399 H2402 0.999 . S
C2400 H2370 0.950 . S
C2400 C2399 1.524 . S
C2400 C2401 1.415 . S
C2401 H2371 0.950 . S
C2401 C2396 1.363 . S
C2401 C2400 1.415 . S
H2402 C2399 0.999 . S
H2403 C2384 0.913 . S
H2404 C2422 0.951 . S
H2405 C2424 0.951 . S
H2406 C2426 0.950 . S
H2407 C2427 0.950 . S
H2408 C2429 0.950 . S
H2409 C2432 0.950 . S
H2410 C2433 0.950 . S
H2411 C2435 0.950 . S
H2412 C2436 0.950 . S
H2413 C2437 0.951 . S
H2414 C2439 0.951 . S
H2415 C2441 0.950 . S
H2416 C2442 0.950 . S
H2417 C2444 0.950 . S
H2418 C2447 0.950 . S
H2419 C2448 0.950 . S
H2420 C2450 0.950 . S
H2421 C2451 0.950 . S
C2422 H2404 0.951 . S
C2422 C2423 1.366 . S
C2422 C2424 1.388 . S
C2423 C2422 1.366 . S
C2423 C2427 1.385 . S
C2424 H2405 0.951 . S
C2424 C2422 1.388 . S
C2424 C2425 1.366 . S
C2425 C2424 1.366 . S
C2425 C2426 1.414 . S
C2425 C2428 1.499 . S
C2426 H2406 0.950 . S
C2426 C2425 1.414 . S
C2426 C2427 1.374 . S
C2427 H2407 0.950 . S
C2427 C2423 1.385 . S
C2427 C2426 1.374 . S
C2428 C2425 1.499 . S
C2428 C2429 1.373 . S
C2428 C2430 1.389 . S
C2429 H2408 0.950 . S
C2429 C2428 1.373 . S
C2429 C2445 1.377 . S
C2430 C2428 1.389 . S
C2430 C2431 1.524 . S
C2430 C2444 1.377 . S
C2431 C2430 1.524 . S
C2431 C2432 1.397 . S
C2431 C2436 1.363 . S
C2432 H2409 0.950 . S
C2432 C2431 1.397 . S
C2432 C2433 1.334 . S
C2433 H2410 0.950 . S
C2433 C2432 1.334 . S
C2433 C2434 1.287 . S
C2434 C2433 1.287 . S
C2434 C2435 1.524 . S
C2434 H2453 0.913 . S
C2435 H2411 0.950 . S
C2435 C2434 1.524 . S
C2435 C2436 1.415 . S
C2436 H2412 0.950 . S
C2436 C2431 1.363 . S
C2436 C2435 1.415 . S
C2437 H2413 0.951 . S
C2437 C2438 1.366 . S
C2437 C2439 1.388 . S
C2438 C2437 1.366 . S
C2438 C2442 1.385 . S
C2439 H2414 0.951 . S
C2439 C2437 1.388 . S
C2439 C2440 1.366 . S
C2440 C2439 1.366 . S
C2440 C2441 1.414 . S
C2440 C2443 1.499 . S
C2441 H2415 0.950 . S
C2441 C2440 1.414 . S
C2441 C2442 1.374 . S
C2442 H2416 0.950 . S
C2442 C2438 1.385 . S
C2442 C2441 1.374 . S
C2443 C2440 1.499 . S
C2443 C2444 1.373 . S
C2443 C2445 1.389 . S
C2444 H2417 0.950 . S
C2444 C2430 1.377 . S
C2444 C2443 1.373 . S
C2445 C2429 1.377 . S
C2445 C2443 1.389 . S
C2445 C2446 1.524 . S
C2446 C2445 1.524 . S
C2446 C2447 1.397 . S
C2446 C2451 1.363 . S
C2447 H2418 0.950 . S
C2447 C2446 1.397 . S
C2447 C2448 1.334 . S
C2448 H2419 0.950 . S
C2448 C2447 1.334 . S
C2448 C2449 1.287 . S
C2449 C2448 1.287 . S
C2449 C2450 1.524 . S
C2449 H2452 0.999 . S
C2450 H2420 0.950 . S
C2450 C2449 1.524 . S
C2450 C2451 1.415 . S
C2451 H2421 0.950 . S
C2451 C2446 1.363 . S
C2451 C2450 1.415 . S
H2452 C2449 0.999 . S
H2453 C2434 0.913 . S
H2454 C2472 0.951 . S
H2455 C2474 0.951 . S
H2456 C2476 0.950 . S
H2457 C2477 0.950 . S
H2458 C2479 0.950 . S
H2459 C2482 0.950 . S
H2460 C2483 0.950 . S
H2461 C2485 0.950 . S
H2462 C2486 0.950 . S
H2463 C2487 0.951 . S
H2464 C2489 0.951 . S
H2465 C2491 0.950 . S
H2466 C2492 0.950 . S
H2467 C2494 0.950 . S
H2468 C2497 0.950 . S
H2469 C2498 0.950 . S
H2470 C2500 0.950 . S
H2471 C2501 0.950 . S
C2472 H2454 0.951 . S
C2472 C2473 1.366 . S
C2472 C2474 1.388 . S
C2473 C2472 1.366 . S
C2473 C2477 1.385 . S
C2474 H2455 0.951 . S
C2474 C2472 1.388 . S
C2474 C2475 1.366 . S
C2475 C2474 1.366 . S
C2475 C2476 1.414 . S
C2475 C2478 1.499 . S
C2476 H2456 0.950 . S
C2476 C2475 1.414 . S
C2476 C2477 1.374 . S
C2477 H2457 0.950 . S
C2477 C2473 1.385 . S
C2477 C2476 1.374 . S
C2478 C2475 1.499 . S
C2478 C2479 1.373 . S
C2478 C2480 1.389 . S
C2479 H2458 0.950 . S
C2479 C2478 1.373 . S
C2479 C2495 1.377 . S
C2480 C2478 1.389 . S
C2480 C2481 1.524 . S
C2480 C2494 1.377 . S
C2481 C2480 1.524 . S
C2481 C2482 1.397 . S
C2481 C2486 1.363 . S
C2482 H2459 0.950 . S
C2482 C2481 1.397 . S
C2482 C2483 1.334 . S
C2483 H2460 0.950 . S
C2483 C2482 1.334 . S
C2483 C2484 1.287 . S
C2484 C2483 1.287 . S
C2484 C2485 1.524 . S
C2484 H2503 0.913 . S
C2485 H2461 0.950 . S
C2485 C2484 1.524 . S
C2485 C2486 1.415 . S
C2486 H2462 0.950 . S
C2486 C2481 1.363 . S
C2486 C2485 1.415 . S
C2487 H2463 0.951 . S
C2487 C2488 1.366 . S
C2487 C2489 1.388 . S
C2488 C2487 1.366 . S
C2488 C2492 1.385 . S
C2489 H2464 0.951 . S
C2489 C2487 1.388 . S
C2489 C2490 1.366 . S
C2490 C2489 1.366 . S
C2490 C2491 1.414 . S
C2490 C2493 1.499 . S
C2491 H2465 0.950 . S
C2491 C2490 1.414 . S
C2491 C2492 1.374 . S
C2492 H2466 0.950 . S
C2492 C2488 1.385 . S
C2492 C2491 1.374 . S
C2493 C2490 1.499 . S
C2493 C2494 1.373 . S
C2493 C2495 1.389 . S
C2494 H2467 0.950 . S
C2494 C2480 1.377 . S
C2494 C2493 1.373 . S
C2495 C2479 1.377 . S
C2495 C2493 1.389 . S
C2495 C2496 1.524 . S
C2496 C2495 1.524 . S
C2496 C2497 1.397 . S
C2496 C2501 1.363 . S
C2497 H2468 0.950 . S
C2497 C2496 1.397 . S
C2497 C2498 1.334 . S
C2498 H2469 0.950 . S
C2498 C2497 1.334 . S
C2498 C2499 1.287 . S
C2499 C2498 1.287 . S
C2499 C2500 1.524 . S
C2499 H2502 0.999 . S
C2500 H2470 0.950 . S
C2500 C2499 1.524 . S
C2500 C2501 1.415 . S
C2501 H2471 0.950 . S
C2501 C2496 1.363 . S
C2501 C2500 1.415 . S
H2502 C2499 0.999 . S
H2503 C2484 0.913 . S
H2504 C2522 0.951 . S
H2505 C2524 0.951 . S
H2506 C2526 0.950 . S
H2507 C2527 0.950 . S
H2508 C2529 0.950 . S
H2509 C2532 0.950 . S
H2510 C2533 0.950 . S
H2511 C2535 0.950 . S
H2512 C2536 0.950 . S
H2513 C2537 0.951 . S
H2514 C2539 0.951 . S
H2515 C2541 0.950 . S
H2516 C2542 0.950 . S
H2517 C2544 0.950 . S
H2518 C2547 0.950 . S
H2519 C2548 0.950 . S
H2520 C2550 0.950 . S
H2521 C2551 0.950 . S
C2522 H2504 0.951 . S
C2522 C2523 1.366 . S
C2522 C2524 1.388 . S
C2523 C2522 1.366 . S
C2523 C2527 1.385 . S
C2524 H2505 0.951 . S
C2524 C2522 1.388 . S
C2524 C2525 1.366 . S
C2525 C2524 1.366 . S
C2525 C2526 1.414 . S
C2525 C2528 1.499 . S
C2526 H2506 0.950 . S
C2526 C2525 1.414 . S
C2526 C2527 1.374 . S
C2527 H2507 0.950 . S
C2527 C2523 1.385 . S
C2527 C2526 1.374 . S
C2528 C2525 1.499 . S
C2528 C2529 1.373 . S
C2528 C2530 1.389 . S
C2529 H2508 0.950 . S
C2529 C2528 1.373 . S
C2529 C2545 1.377 . S
C2530 C2528 1.389 . S
C2530 C2531 1.524 . S
C2530 C2544 1.377 . S
C2531 C2530 1.524 . S
C2531 C2532 1.397 . S
C2531 C2536 1.363 . S
C2532 H2509 0.950 . S
C2532 C2531 1.397 . S
C2532 C2533 1.334 . S
C2533 H2510 0.950 . S
C2533 C2532 1.334 . S
C2533 C2534 1.287 . S
C2534 C2533 1.287 . S
C2534 C2535 1.524 . S
C2534 H2553 0.913 . S
C2535 H2511 0.950 . S
C2535 C2534 1.524 . S
C2535 C2536 1.415 . S
C2536 H2512 0.950 . S
C2536 C2531 1.363 . S
C2536 C2535 1.415 . S
C2537 H2513 0.951 . S
C2537 C2538 1.366 . S
C2537 C2539 1.388 . S
C2538 C2537 1.366 . S
C2538 C2542 1.385 . S
C2539 H2514 0.951 . S
C2539 C2537 1.388 . S
C2539 C2540 1.366 . S
C2540 C2539 1.366 . S
C2540 C2541 1.414 . S
C2540 C2543 1.499 . S
C2541 H2515 0.950 . S
C2541 C2540 1.414 . S
C2541 C2542 1.374 . S
C2542 H2516 0.950 . S
C2542 C2538 1.385 . S
C2542 C2541 1.374 . S
C2543 C2540 1.499 . S
C2543 C2544 1.373 . S
C2543 C2545 1.389 . S
C2544 H2517 0.950 . S
C2544 C2530 1.377 . S
C2544 C2543 1.373 . S
C2545 C2529 1.377 . S
C2545 C2543 1.389 . S
C2545 C2546 1.524 . S
C2546 C2545 1.524 . S
C2546 C2547 1.397 . S
C2546 C2551 1.363 . S
C2547 H2518 0.950 . S
C2547 C2546 1.397 . S
C2547 C2548 1.334 . S
C2548 H2519 0.950 . S
C2548 C2547 1.334 . S
C2548 C2549 1.287 . S
C2549 C2548 1.287 . S
C2549 C2550 1.524 . S
C2549 H2552 0.999 . S
C2550 H2520 0.950 . S
C2550 C2549 1.524 . S
C2550 C2551 1.415 . S
C2551 H2521 0.950 . S
C2551 C2546 1.363 . S
C2551 C2550 1.415 . S
H2552 C2549 0.999 . S
H2553 C2534 0.913 . S
H2554 C2572 0.951 . S
H2555 C2574 0.951 . S
H2556 C2576 0.950 . S
H2557 C2577 0.950 . S
H2558 C2579 0.950 . S
H2559 C2582 0.950 . S
H2560 C2583 0.950 . S
H2561 C2585 0.950 . S
H2562 C2586 0.950 . S
H2563 C2587 0.951 . S
H2564 C2589 0.951 . S
H2565 C2591 0.950 . S
H2566 C2592 0.950 . S
H2567 C2594 0.950 . S
H2568 C2597 0.950 . S
H2569 C2598 0.950 . S
H2570 C2600 0.950 . S
H2571 C2601 0.950 . S
C2572 H2554 0.951 . S
C2572 C2573 1.366 . S
C2572 C2574 1.388 . S
C2573 C2572 1.366 . S
C2573 C2577 1.385 . S
C2574 H2555 0.951 . S
C2574 C2572 1.388 . S
C2574 C2575 1.366 . S
C2575 C2574 1.366 . S
C2575 C2576 1.414 . S
C2575 C2578 1.499 . S
C2576 H2556 0.950 . S
C2576 C2575 1.414 . S
C2576 C2577 1.374 . S
C2577 H2557 0.950 . S
C2577 C2573 1.385 . S
C2577 C2576 1.374 . S
C2578 C2575 1.499 . S
C2578 C2579 1.373 . S
C2578 C2580 1.389 . S
C2579 H2558 0.950 . S
C2579 C2578 1.373 . S
C2579 C2595 1.377 . S
C2580 C2578 1.389 . S
C2580 C2581 1.524 . S
C2580 C2594 1.377 . S
C2581 C2580 1.524 . S
C2581 C2582 1.397 . S
C2581 C2586 1.363 . S
C2582 H2559 0.950 . S
C2582 C2581 1.397 . S
C2582 C2583 1.334 . S
C2583 H2560 0.950 . S
C2583 C2582 1.334 . S
C2583 C2584 1.287 . S
C2584 C2583 1.287 . S
C2584 C2585 1.524 . S
C2584 H2603 0.913 . S
C2585 H2561 0.950 . S
C2585 C2584 1.524 . S
C2585 C2586 1.415 . S
C2586 H2562 0.950 . S
C2586 C2581 1.363 . S
C2586 C2585 1.415 . S
C2587 H2563 0.951 . S
C2587 C2588 1.366 . S
C2587 C2589 1.388 . S
C2588 C2587 1.366 . S
C2588 C2592 1.385 . S
C2589 H2564 0.951 . S
C2589 C2587 1.388 . S
C2589 C2590 1.366 . S
C2590 C2589 1.366 . S
C2590 C2591 1.414 . S
C2590 C2593 1.499 . S
C2591 H2565 0.950 . S
C2591 C2590 1.414 . S
C2591 C2592 1.374 . S
C2592 H2566 0.950 . S
C2592 C2588 1.385 . S
C2592 C2591 1.374 . S
C2593 C2590 1.499 . S
C2593 C2594 1.373 . S
C2593 C2595 1.389 . S
C2594 H2567 0.950 . S
C2594 C2580 1.377 . S
C2594 C2593 1.373 . S
C2595 C2579 1.377 . S
C2595 C2593 1.389 . S
C2595 C2596 1.524 . S
C2596 C2595 1.524 . S
C2596 C2597 1.397 . S
C2596 C2601 1.363 . S
C2597 H2568 0.950 . S
C2597 C2596 1.397 . S
C2597 C2598 1.334 . S
C2598 H2569 0.950 . S
C2598 C2597 1.334 . S
C2598 C2599 1.287 . S
C2599 C2598 1.287 . S
C2599 C2600 1.524 . S
C2599 H2602 0.999 . S
C2600 H2570 0.950 . S
C2600 C2599 1.524 . S
C2600 C2601 1.415 . S
C2601 H2571 0.950 . S
C2601 C2596 1.363 . S
C2601 C2600 1.415 . S
H2602 C2599 0.999 . S
H2603 C2584 0.913 . S
H2604 C2622 0.951 . S
H2605 C2624 0.951 . S
H2606 C2626 0.950 . S
H2607 C2627 0.950 . S
H2608 C2629 0.950 . S
H2609 C2632 0.950 . S
H2610 C2633 0.950 . S
H2611 C2635 0.950 . S
H2612 C2636 0.950 . S
H2613 C2637 0.951 . S
H2614 C2639 0.951 . S
H2615 C2641 0.950 . S
H2616 C2642 0.950 . S
H2617 C2644 0.950 . S
H2618 C2647 0.950 . S
H2619 C2648 0.950 . S
H2620 C2650 0.950 . S
H2621 C2651 0.950 . S
C2622 H2604 0.951 . S
C2622 C2623 1.366 . S
C2622 C2624 1.388 . S
C2623 C2622 1.366 . S
C2623 C2627 1.385 . S
C2624 H2605 0.951 . S
C2624 C2622 1.388 . S
C2624 C2625 1.366 . S
C2625 C2624 1.366 . S
C2625 C2626 1.414 . S
C2625 C2628 1.499 . S
C2626 H2606 0.950 . S
C2626 C2625 1.414 . S
C2626 C2627 1.374 . S
C2627 H2607 0.950 . S
C2627 C2623 1.385 . S
C2627 C2626 1.374 . S
C2628 C2625 1.499 . S
C2628 C2629 1.373 . S
C2628 C2630 1.389 . S
C2629 H2608 0.950 . S
C2629 C2628 1.373 . S
C2629 C2645 1.377 . S
C2630 C2628 1.389 . S
C2630 C2631 1.524 . S
C2630 C2644 1.377 . S
C2631 C2630 1.524 . S
C2631 C2632 1.397 . S
C2631 C2636 1.363 . S
C2632 H2609 0.950 . S
C2632 C2631 1.397 . S
C2632 C2633 1.334 . S
C2633 H2610 0.950 . S
C2633 C2632 1.334 . S
C2633 C2634 1.287 . S
C2634 C2633 1.287 . S
C2634 C2635 1.524 . S
C2634 H2653 0.913 . S
C2635 H2611 0.950 . S
C2635 C2634 1.524 . S
C2635 C2636 1.415 . S
C2636 H2612 0.950 . S
C2636 C2631 1.363 . S
C2636 C2635 1.415 . S
C2637 H2613 0.951 . S
C2637 C2638 1.366 . S
C2637 C2639 1.388 . S
C2638 C2637 1.366 . S
C2638 C2642 1.385 . S
C2639 H2614 0.951 . S
C2639 C2637 1.388 . S
C2639 C2640 1.366 . S
C2640 C2639 1.366 . S
C2640 C2641 1.414 . S
C2640 C2643 1.499 . S
C2641 H2615 0.950 . S
C2641 C2640 1.414 . S
C2641 C2642 1.374 . S
C2642 H2616 0.950 . S
C2642 C2638 1.385 . S
C2642 C2641 1.374 . S
C2643 C2640 1.499 . S
C2643 C2644 1.373 . S
C2643 C2645 1.389 . S
C2644 H2617 0.950 . S
C2644 C2630 1.377 . S
C2644 C2643 1.373 . S
C2645 C2629 1.377 . S
C2645 C2643 1.389 . S
C2645 C2646 1.524 . S
C2646 C2645 1.524 . S
C2646 C2647 1.397 . S
C2646 C2651 1.363 . S
C2647 H2618 0.950 . S
C2647 C2646 1.397 . S
C2647 C2648 1.334 . S
C2648 H2619 0.950 . S
C2648 C2647 1.334 . S
C2648 C2649 1.287 . S
C2649 C2648 1.287 . S
C2649 C2650 1.524 . S
C2649 H2652 0.999 . S
C2650 H2620 0.950 . S
C2650 C2649 1.524 . S
C2650 C2651 1.415 . S
C2651 H2621 0.950 . S
C2651 C2646 1.363 . S
C2651 C2650 1.415 . S
H2652 C2649 0.999 . S
H2653 C2634 0.913 . S
H2654 C2672 0.951 . S
H2655 C2674 0.951 . S
H2656 C2676 0.950 . S
H2657 C2677 0.950 . S
H2658 C2679 0.950 . S
H2659 C2682 0.950 . S
H2660 C2683 0.950 . S
H2661 C2685 0.950 . S
H2662 C2686 0.950 . S
H2663 C2687 0.951 . S
H2664 C2689 0.951 . S
H2665 C2691 0.950 . S
H2666 C2692 0.950 . S
H2667 C2694 0.950 . S
H2668 C2697 0.950 . S
H2669 C2698 0.950 . S
H2670 C2700 0.950 . S
H2671 C2701 0.950 . S
C2672 H2654 0.951 . S
C2672 C2673 1.366 . S
C2672 C2674 1.388 . S
C2673 C2672 1.366 . S
C2673 C2677 1.385 . S
C2674 H2655 0.951 . S
C2674 C2672 1.388 . S
C2674 C2675 1.366 . S
C2675 C2674 1.366 . S
C2675 C2676 1.414 . S
C2675 C2678 1.499 . S
C2676 H2656 0.950 . S
C2676 C2675 1.414 . S
C2676 C2677 1.374 . S
C2677 H2657 0.950 . S
C2677 C2673 1.385 . S
C2677 C2676 1.374 . S
C2678 C2675 1.499 . S
C2678 C2679 1.373 . S
C2678 C2680 1.389 . S
C2679 H2658 0.950 . S
C2679 C2678 1.373 . S
C2679 C2695 1.377 . S
C2680 C2678 1.389 . S
C2680 C2681 1.524 . S
C2680 C2694 1.377 . S
C2681 C2680 1.524 . S
C2681 C2682 1.397 . S
C2681 C2686 1.363 . S
C2682 H2659 0.950 . S
C2682 C2681 1.397 . S
C2682 C2683 1.334 . S
C2683 H2660 0.950 . S
C2683 C2682 1.334 . S
C2683 C2684 1.287 . S
C2684 C2683 1.287 . S
C2684 C2685 1.524 . S
C2684 H2703 0.913 . S
C2685 H2661 0.950 . S
C2685 C2684 1.524 . S
C2685 C2686 1.415 . S
C2686 H2662 0.950 . S
C2686 C2681 1.363 . S
C2686 C2685 1.415 . S
C2687 H2663 0.951 . S
C2687 C2688 1.366 . S
C2687 C2689 1.388 . S
C2688 C2687 1.366 . S
C2688 C2692 1.385 . S
C2689 H2664 0.951 . S
C2689 C2687 1.388 . S
C2689 C2690 1.366 . S
C2690 C2689 1.366 . S
C2690 C2691 1.414 . S
C2690 C2693 1.499 . S
C2691 H2665 0.950 . S
C2691 C2690 1.414 . S
C2691 C2692 1.374 . S
C2692 H2666 0.950 . S
C2692 C2688 1.385 . S
C2692 C2691 1.374 . S
C2693 C2690 1.499 . S
C2693 C2694 1.373 . S
C2693 C2695 1.389 . S
C2694 H2667 0.950 . S
C2694 C2680 1.377 . S
C2694 C2693 1.373 . S
C2695 C2679 1.377 . S
C2695 C2693 1.389 . S
C2695 C2696 1.524 . S
C2696 C2695 1.524 . S
C2696 C2697 1.397 . S
C2696 C2701 1.363 . S
C2697 H2668 0.950 . S
C2697 C2696 1.397 . S
C2697 C2698 1.334 . S
C2698 H2669 0.950 . S
C2698 C2697 1.334 . S
C2698 C2699 1.287 . S
C2699 C2698 1.287 . S
C2699 C2700 1.524 . S
C2699 H2702 0.999 . S
C2700 H2670 0.950 . S
C2700 C2699 1.524 . S
C2700 C2701 1.415 . S
C2701 H2671 0.950 . S
C2701 C2696 1.363 . S
C2701 C2700 1.415 . S
H2702 C2699 0.999 . S
H2703 C2684 0.913 . S
H2704 C2722 0.951 . S
H2705 C2724 0.951 . S
H2706 C2726 0.950 . S
H2707 C2727 0.950 . S
H2708 C2729 0.950 . S
H2709 C2732 0.950 . S
H2710 C2733 0.950 . S
H2711 C2735 0.950 . S
H2712 C2736 0.950 . S
H2713 C2737 0.951 . S
H2714 C2739 0.951 . S
H2715 C2741 0.950 . S
H2716 C2742 0.950 . S
H2717 C2744 0.950 . S
H2718 C2747 0.950 . S
H2719 C2748 0.950 . S
H2720 C2750 0.950 . S
H2721 C2751 0.950 . S
C2722 H2704 0.951 . S
C2722 C2723 1.366 . S
C2722 C2724 1.388 . S
C2723 C2722 1.366 . S
C2723 C2727 1.385 . S
C2724 H2705 0.951 . S
C2724 C2722 1.388 . S
C2724 C2725 1.366 . S
C2725 C2724 1.366 . S
C2725 C2726 1.414 . S
C2725 C2728 1.499 . S
C2726 H2706 0.950 . S
C2726 C2725 1.414 . S
C2726 C2727 1.374 . S
C2727 H2707 0.950 . S
C2727 C2723 1.385 . S
C2727 C2726 1.374 . S
C2728 C2725 1.499 . S
C2728 C2729 1.373 . S
C2728 C2730 1.389 . S
C2729 H2708 0.950 . S
C2729 C2728 1.373 . S
C2729 C2745 1.377 . S
C2730 C2728 1.389 . S
C2730 C2731 1.524 . S
C2730 C2744 1.377 . S
C2731 C2730 1.524 . S
C2731 C2732 1.397 . S
C2731 C2736 1.363 . S
C2732 H2709 0.950 . S
C2732 C2731 1.397 . S
C2732 C2733 1.334 . S
C2733 H2710 0.950 . S
C2733 C2732 1.334 . S
C2733 C2734 1.287 . S
C2734 C2733 1.287 . S
C2734 C2735 1.524 . S
C2734 H2753 0.913 . S
C2735 H2711 0.950 . S
C2735 C2734 1.524 . S
C2735 C2736 1.415 . S
C2736 H2712 0.950 . S
C2736 C2731 1.363 . S
C2736 C2735 1.415 . S
C2737 H2713 0.951 . S
C2737 C2738 1.366 . S
C2737 C2739 1.388 . S
C2738 C2737 1.366 . S
C2738 C2742 1.385 . S
C2739 H2714 0.951 . S
C2739 C2737 1.388 . S
C2739 C2740 1.366 . S
C2740 C2739 1.366 . S
C2740 C2741 1.414 . S
C2740 C2743 1.499 . S
C2741 H2715 0.950 . S
C2741 C2740 1.414 . S
C2741 C2742 1.374 . S
C2742 H2716 0.950 . S
C2742 C2738 1.385 . S
C2742 C2741 1.374 . S
C2743 C2740 1.499 . S
C2743 C2744 1.373 . S
C2743 C2745 1.389 . S
C2744 H2717 0.950 . S
C2744 C2730 1.377 . S
C2744 C2743 1.373 . S
C2745 C2729 1.377 . S
C2745 C2743 1.389 . S
C2745 C2746 1.524 . S
C2746 C2745 1.524 . S
C2746 C2747 1.397 . S
C2746 C2751 1.363 . S
C2747 H2718 0.950 . S
C2747 C2746 1.397 . S
C2747 C2748 1.334 . S
C2748 H2719 0.950 . S
C2748 C2747 1.334 . S
C2748 C2749 1.287 . S
C2749 C2748 1.287 . S
C2749 C2750 1.524 . S
C2749 H2752 0.999 . S
C2750 H2720 0.950 . S
C2750 C2749 1.524 . S
C2750 C2751 1.415 . S
C2751 H2721 0.950 . S
C2751 C2746 1.363 . S
C2751 C2750 1.415 . S
H2752 C2749 0.999 . S
H2753 C2734 0.913 . S
H2754 C2772 0.951 . S
H2755 C2774 0.951 . S
H2756 C2776 0.950 . S
H2757 C2777 0.950 . S
H2758 C2779 0.950 . S
H2759 C2782 0.950 . S
H2760 C2783 0.950 . S
H2761 C2785 0.950 . S
H2762 C2786 0.950 . S
H2763 C2787 0.951 . S
H2764 C2789 0.951 . S
H2765 C2791 0.950 . S
H2766 C2792 0.950 . S
H2767 C2794 0.950 . S
H2768 C2797 0.950 . S
H2769 C2798 0.950 . S
H2770 C2800 0.950 . S
H2771 C2801 0.950 . S
C2772 H2754 0.951 . S
C2772 C2773 1.366 . S
C2772 C2774 1.388 . S
C2773 C2772 1.366 . S
C2773 C2777 1.385 . S
C2774 H2755 0.951 . S
C2774 C2772 1.388 . S
C2774 C2775 1.366 . S
C2775 C2774 1.366 . S
C2775 C2776 1.414 . S
C2775 C2778 1.499 . S
C2776 H2756 0.950 . S
C2776 C2775 1.414 . S
C2776 C2777 1.374 . S
C2777 H2757 0.950 . S
C2777 C2773 1.385 . S
C2777 C2776 1.374 . S
C2778 C2775 1.499 . S
C2778 C2779 1.373 . S
C2778 C2780 1.389 . S
C2779 H2758 0.950 . S
C2779 C2778 1.373 . S
C2779 C2795 1.377 . S
C2780 C2778 1.389 . S
C2780 C2781 1.524 . S
C2780 C2794 1.377 . S
C2781 C2780 1.524 . S
C2781 C2782 1.397 . S
C2781 C2786 1.363 . S
C2782 H2759 0.950 . S
C2782 C2781 1.397 . S
C2782 C2783 1.334 . S
C2783 H2760 0.950 . S
C2783 C2782 1.334 . S
C2783 C2784 1.287 . S
C2784 C2783 1.287 . S
C2784 C2785 1.524 . S
C2784 H2803 0.913 . S
C2785 H2761 0.950 . S
C2785 C2784 1.524 . S
C2785 C2786 1.415 . S
C2786 H2762 0.950 . S
C2786 C2781 1.363 . S
C2786 C2785 1.415 . S
C2787 H2763 0.951 . S
C2787 C2788 1.366 . S
C2787 C2789 1.388 . S
C2788 C2787 1.366 . S
C2788 C2792 1.385 . S
C2789 H2764 0.951 . S
C2789 C2787 1.388 . S
C2789 C2790 1.366 . S
C2790 C2789 1.366 . S
C2790 C2791 1.414 . S
C2790 C2793 1.499 . S
C2791 H2765 0.950 . S
C2791 C2790 1.414 . S
C2791 C2792 1.374 . S
C2792 H2766 0.950 . S
C2792 C2788 1.385 . S
C2792 C2791 1.374 . S
C2793 C2790 1.499 . S
C2793 C2794 1.373 . S
C2793 C2795 1.389 . S
C2794 H2767 0.950 . S
C2794 C2780 1.377 . S
C2794 C2793 1.373 . S
C2795 C2779 1.377 . S
C2795 C2793 1.389 . S
C2795 C2796 1.524 . S
C2796 C2795 1.524 . S
C2796 C2797 1.397 . S
C2796 C2801 1.363 . S
C2797 H2768 0.950 . S
C2797 C2796 1.397 . S
C2797 C2798 1.334 . S
C2798 H2769 0.950 . S
C2798 C2797 1.334 . S
C2798 C2799 1.287 . S
C2799 C2798 1.287 . S
C2799 C2800 1.524 . S
C2799 H2802 0.999 . S
C2800 H2770 0.950 . S
C2800 C2799 1.524 . S
C2800 C2801 1.415 . S
C2801 H2771 0.950 . S
C2801 C2796 1.363 . S
C2801 C2800 1.415 . S
H2802 C2799 0.999 . S
H2803 C2784 0.913 . S
H2804 C2822 0.951 . S
H2805 C2824 0.951 . S
H2806 C2826 0.950 . S
H2807 C2827 0.950 . S
H2808 C2829 0.950 . S
H2809 C2832 0.950 . S
H2810 C2833 0.950 . S
H2811 C2835 0.950 . S
H2812 C2836 0.950 . S
H2813 C2837 0.951 . S
H2814 C2839 0.951 . S
H2815 C2841 0.950 . S
H2816 C2842 0.950 . S
H2817 C2844 0.950 . S
H2818 C2847 0.950 . S
H2819 C2848 0.950 . S
H2820 C2850 0.950 . S
H2821 C2851 0.950 . S
C2822 H2804 0.951 . S
C2822 C2823 1.366 . S
C2822 C2824 1.388 . S
C2823 C2822 1.366 . S
C2823 C2827 1.385 . S
C2824 H2805 0.951 . S
C2824 C2822 1.388 . S
C2824 C2825 1.366 . S
C2825 C2824 1.366 . S
C2825 C2826 1.414 . S
C2825 C2828 1.499 . S
C2826 H2806 0.950 . S
C2826 C2825 1.414 . S
C2826 C2827 1.374 . S
C2827 H2807 0.950 . S
C2827 C2823 1.385 . S
C2827 C2826 1.374 . S
C2828 C2825 1.499 . S
C2828 C2829 1.373 . S
C2828 C2830 1.389 . S
C2829 H2808 0.950 . S
C2829 C2828 1.373 . S
C2829 C2845 1.377 . S
C2830 C2828 1.389 . S
C2830 C2831 1.524 . S
C2830 C2844 1.377 . S
C2831 C2830 1.524 . S
C2831 C2832 1.397 . S
C2831 C2836 1.363 . S
C2832 H2809 0.950 . S
C2832 C2831 1.397 . S
C2832 C2833 1.334 . S
C2833 H2810 0.950 . S
C2833 C2832 1.334 . S
C2833 C2834 1.287 . S
C2834 C2833 1.287 . S
C2834 C2835 1.524 . S
C2834 H2853 0.913 . S
C2835 H2811 0.950 . S
C2835 C2834 1.524 . S
C2835 C2836 1.415 . S
C2836 H2812 0.950 . S
C2836 C2831 1.363 . S
C2836 C2835 1.415 . S
C2837 H2813 0.951 . S
C2837 C2838 1.366 . S
C2837 C2839 1.388 . S
C2838 C2837 1.366 . S
C2838 C2842 1.385 . S
C2839 H2814 0.951 . S
C2839 C2837 1.388 . S
C2839 C2840 1.366 . S
C2840 C2839 1.366 . S
C2840 C2841 1.414 . S
C2840 C2843 1.499 . S
C2841 H2815 0.950 . S
C2841 C2840 1.414 . S
C2841 C2842 1.374 . S
C2842 H2816 0.950 . S
C2842 C2838 1.385 . S
C2842 C2841 1.374 . S
C2843 C2840 1.499 . S
C2843 C2844 1.373 . S
C2843 C2845 1.389 . S
C2844 H2817 0.950 . S
C2844 C2830 1.377 . S
C2844 C2843 1.373 . S
C2845 C2829 1.377 . S
C2845 C2843 1.389 . S
C2845 C2846 1.524 . S
C2846 C2845 1.524 . S
C2846 C2847 1.397 . S
C2846 C2851 1.363 . S
C2847 H2818 0.950 . S
C2847 C2846 1.397 . S
C2847 C2848 1.334 . S
C2848 H2819 0.950 . S
C2848 C2847 1.334 . S
C2848 C2849 1.287 . S
C2849 C2848 1.287 . S
C2849 C2850 1.524 . S
C2849 H2852 0.999 . S
C2850 H2820 0.950 . S
C2850 C2849 1.524 . S
C2850 C2851 1.415 . S
C2851 H2821 0.950 . S
C2851 C2846 1.363 . S
C2851 C2850 1.415 . S
H2852 C2849 0.999 . S
H2853 C2834 0.913 . S
H2854 C2872 0.951 . S
H2855 C2874 0.951 . S
H2856 C2876 0.950 . S
H2857 C2877 0.950 . S
H2858 C2879 0.950 . S
H2859 C2882 0.950 . S
H2860 C2883 0.950 . S
H2861 C2885 0.950 . S
H2862 C2886 0.950 . S
H2863 C2887 0.951 . S
H2864 C2889 0.951 . S
H2865 C2891 0.950 . S
H2866 C2892 0.950 . S
H2867 C2894 0.950 . S
H2868 C2897 0.950 . S
H2869 C2898 0.950 . S
H2870 C2900 0.950 . S
H2871 C2901 0.950 . S
C2872 H2854 0.951 . S
C2872 C2873 1.366 . S
C2872 C2874 1.388 . S
C2873 C2872 1.366 . S
C2873 C2877 1.385 . S
C2874 H2855 0.951 . S
C2874 C2872 1.388 . S
C2874 C2875 1.366 . S
C2875 C2874 1.366 . S
C2875 C2876 1.414 . S
C2875 C2878 1.499 . S
C2876 H2856 0.950 . S
C2876 C2875 1.414 . S
C2876 C2877 1.374 . S
C2877 H2857 0.950 . S
C2877 C2873 1.385 . S
C2877 C2876 1.374 . S
C2878 C2875 1.499 . S
C2878 C2879 1.373 . S
C2878 C2880 1.389 . S
C2879 H2858 0.950 . S
C2879 C2878 1.373 . S
C2879 C2895 1.377 . S
C2880 C2878 1.389 . S
C2880 C2881 1.524 . S
C2880 C2894 1.377 . S
C2881 C2880 1.524 . S
C2881 C2882 1.397 . S
C2881 C2886 1.363 . S
C2882 H2859 0.950 . S
C2882 C2881 1.397 . S
C2882 C2883 1.334 . S
C2883 H2860 0.950 . S
C2883 C2882 1.334 . S
C2883 C2884 1.287 . S
C2884 C2883 1.287 . S
C2884 C2885 1.524 . S
C2884 H2903 0.913 . S
C2885 H2861 0.950 . S
C2885 C2884 1.524 . S
C2885 C2886 1.415 . S
C2886 H2862 0.950 . S
C2886 C2881 1.363 . S
C2886 C2885 1.415 . S
C2887 H2863 0.951 . S
C2887 C2888 1.366 . S
C2887 C2889 1.388 . S
C2888 C2887 1.366 . S
C2888 C2892 1.385 . S
C2889 H2864 0.951 . S
C2889 C2887 1.388 . S
C2889 C2890 1.366 . S
C2890 C2889 1.366 . S
C2890 C2891 1.414 . S
C2890 C2893 1.499 . S
C2891 H2865 0.950 . S
C2891 C2890 1.414 . S
C2891 C2892 1.374 . S
C2892 H2866 0.950 . S
C2892 C2888 1.385 . S
C2892 C2891 1.374 . S
C2893 C2890 1.499 . S
C2893 C2894 1.373 . S
C2893 C2895 1.389 . S
C2894 H2867 0.950 . S
C2894 C2880 1.377 . S
C2894 C2893 1.373 . S
C2895 C2879 1.377 . S
C2895 C2893 1.389 . S
C2895 C2896 1.524 . S
C2896 C2895 1.524 . S
C2896 C2897 1.397 . S
C2896 C2901 1.363 . S
C2897 H2868 0.950 . S
C2897 C2896 1.397 . S
C2897 C2898 1.334 . S
C2898 H2869 0.950 . S
C2898 C2897 1.334 . S
C2898 C2899 1.287 . S
C2899 C2898 1.287 . S
C2899 C2900 1.524 . S
C2899 H2902 0.999 . S
C2900 H2870 0.950 . S
C2900 C2899 1.524 . S
C2900 C2901 1.415 . S
C2901 H2871 0.950 . S
C2901 C2896 1.363 . S
C2901 C2900 1.415 . S
H2902 C2899 0.999 . S
H2903 C2884 0.913 . S
H2904 C2922 0.951 . S
H2905 C2924 0.951 . S
H2906 C2926 0.950 . S
H2907 C2927 0.950 . S
H2908 C2929 0.950 . S
H2909 C2932 0.950 . S
H2910 C2933 0.950 . S
H2911 C2935 0.950 . S
H2912 C2936 0.950 . S
H2913 C2937 0.951 . S
H2914 C2939 0.951 . S
H2915 C2941 0.950 . S
H2916 C2942 0.950 . S
H2917 C2944 0.950 . S
H2918 C2947 0.950 . S
H2919 C2948 0.950 . S
H2920 C2950 0.950 . S
H2921 C2951 0.950 . S
C2922 H2904 0.951 . S
C2922 C2923 1.366 . S
C2922 C2924 1.388 . S
C2923 C2922 1.366 . S
C2923 C2927 1.385 . S
C2924 H2905 0.951 . S
C2924 C2922 1.388 . S
C2924 C2925 1.366 . S
C2925 C2924 1.366 . S
C2925 C2926 1.414 . S
C2925 C2928 1.499 . S
C2926 H2906 0.950 . S
C2926 C2925 1.414 . S
C2926 C2927 1.374 . S
C2927 H2907 0.950 . S
C2927 C2923 1.385 . S
C2927 C2926 1.374 . S
C2928 C2925 1.499 . S
C2928 C2929 1.373 . S
C2928 C2930 1.389 . S
C2929 H2908 0.950 . S
C2929 C2928 1.373 . S
C2929 C2945 1.377 . S
C2930 C2928 1.389 . S
C2930 C2931 1.524 . S
C2930 C2944 1.377 . S
C2931 C2930 1.524 . S
C2931 C2932 1.397 . S
C2931 C2936 1.363 . S
C2932 H2909 0.950 . S
C2932 C2931 1.397 . S
C2932 C2933 1.334 . S
C2933 H2910 0.950 . S
C2933 C2932 1.334 . S
C2933 C2934 1.287 . S
C2934 C2933 1.287 . S
C2934 C2935 1.524 . S
C2934 H2953 0.913 . S
C2935 H2911 0.950 . S
C2935 C2934 1.524 . S
C2935 C2936 1.415 . S
C2936 H2912 0.950 . S
C2936 C2931 1.363 . S
C2936 C2935 1.415 . S
C2937 H2913 0.951 . S
C2937 C2938 1.366 . S
C2937 C2939 1.388 . S
C2938 C2937 1.366 . S
C2938 C2942 1.385 . S
C2939 H2914 0.951 . S
C2939 C2937 1.388 . S
C2939 C2940 1.366 . S
C2940 C2939 1.366 . S
C2940 C2941 1.414 . S
C2940 C2943 1.499 . S
C2941 H2915 0.950 . S
C2941 C2940 1.414 . S
C2941 C2942 1.374 . S
C2942 H2916 0.950 . S
C2942 C2938 1.385 . S
C2942 C2941 1.374 . S
C2943 C2940 1.499 . S
C2943 C2944 1.373 . S
C2943 C2945 1.389 . S
C2944 H2917 0.950 . S
C2944 C2930 1.377 . S
C2944 C2943 1.373 . S
C2945 C2929 1.377 . S
C2945 C2943 1.389 . S
C2945 C2946 1.524 . S
C2946 C2945 1.524 . S
C2946 C2947 1.397 . S
C2946 C2951 1.363 . S
C2947 H2918 0.950 . S
C2947 C2946 1.397 . S
C2947 C2948 1.334 . S
C2948 H2919 0.950 . S
C2948 C2947 1.334 . S
C2948 C2949 1.287 . S
C2949 C2948 1.287 . S
C2949 C2950 1.524 . S
C2949 H2952 0.999 . S
C2950 H2920 0.950 . S
C2950 C2949 1.524 . S
C2950 C2951 1.415 . S
C2951 H2921 0.950 . S
C2951 C2946 1.363 . S
C2951 C2950 1.415 . S
H2952 C2949 0.999 . S
H2953 C2934 0.913 . S
H2954 C2972 0.951 . S
H2955 C2974 0.951 . S
H2956 C2976 0.950 . S
H2957 C2977 0.950 . S
H2958 C2979 0.950 . S
H2959 C2982 0.950 . S
H2960 C2983 0.950 . S
H2961 C2985 0.950 . S
H2962 C2986 0.950 . S
H2963 C2987 0.951 . S
H2964 C2989 0.951 . S
H2965 C2991 0.950 . S
H2966 C2992 0.950 . S
H2967 C2994 0.950 . S
H2968 C2997 0.950 . S
H2969 C2998 0.950 . S
H2970 C3000 0.950 . S
H2971 C3001 0.950 . S
C2972 H2954 0.951 . S
C2972 C2973 1.366 . S
C2972 C2974 1.388 . S
C2973 C2972 1.366 . S
C2973 C2977 1.385 . S
C2974 H2955 0.951 . S
C2974 C2972 1.388 . S
C2974 C2975 1.366 . S
C2975 C2974 1.366 . S
C2975 C2976 1.414 . S
C2975 C2978 1.499 . S
C2976 H2956 0.950 . S
C2976 C2975 1.414 . S
C2976 C2977 1.374 . S
C2977 H2957 0.950 . S
C2977 C2973 1.385 . S
C2977 C2976 1.374 . S
C2978 C2975 1.499 . S
C2978 C2979 1.373 . S
C2978 C2980 1.389 . S
C2979 H2958 0.950 . S
C2979 C2978 1.373 . S
C2979 C2995 1.377 . S
C2980 C2978 1.389 . S
C2980 C2981 1.524 . S
C2980 C2994 1.377 . S
C2981 C2980 1.524 . S
C2981 C2982 1.397 . S
C2981 C2986 1.363 . S
C2982 H2959 0.950 . S
C2982 C2981 1.397 . S
C2982 C2983 1.334 . S
C2983 H2960 0.950 . S
C2983 C2982 1.334 . S
C2983 C2984 1.287 . S
C2984 C2983 1.287 . S
C2984 C2985 1.524 . S
C2984 H3003 0.913 . S
C2985 H2961 0.950 . S
C2985 C2984 1.524 . S
C2985 C2986 1.415 . S
C2986 H2962 0.950 . S
C2986 C2981 1.363 . S
C2986 C2985 1.415 . S
C2987 H2963 0.951 . S
C2987 C2988 1.366 . S
C2987 C2989 1.388 . S
C2988 C2987 1.366 . S
C2988 C2992 1.385 . S
C2989 H2964 0.951 . S
C2989 C2987 1.388 . S
C2989 C2990 1.366 . S
C2990 C2989 1.366 . S
C2990 C2991 1.414 . S
C2990 C2993 1.499 . S
C2991 H2965 0.950 . S
C2991 C2990 1.414 . S
C2991 C2992 1.374 . S
C2992 H2966 0.950 . S
C2992 C2988 1.385 . S
C2992 C2991 1.374 . S
C2993 C2990 1.499 . S
C2993 C2994 1.373 . S
C2993 C2995 1.389 . S
C2994 H2967 0.950 . S
C2994 C2980 1.377 . S
C2994 C2993 1.373 . S
C2995 C2979 1.377 . S
C2995 C2993 1.389 . S
C2995 C2996 1.524 . S
C2996 C2995 1.524 . S
C2996 C2997 1.397 . S
C2996 C3001 1.363 . S
C2997 H2968 0.950 . S
C2997 C2996 1.397 . S
C2997 C2998 1.334 . S
C2998 H2969 0.950 . S
C2998 C2997 1.334 . S
C2998 C2999 1.287 . S
C2999 C2998 1.287 . S
C2999 C3000 1.524 . S
C2999 H3002 0.999 . S
C3000 H2970 0.950 . S
C3000 C2999 1.524 . S
C3000 C3001 1.415 . S
C3001 H2971 0.950 . S
C3001 C2996 1.363 . S
C3001 C3000 1.415 . S
H3002 C2999 0.999 . S
H3003 C2984 0.913 . S
H3004 C3022 0.951 . S
H3005 C3024 0.951 . S
H3006 C3026 0.950 . S
H3007 C3027 0.950 . S
H3008 C3029 0.950 . S
H3009 C3032 0.950 . S
H3010 C3033 0.950 . S
H3011 C3035 0.950 . S
H3012 C3036 0.950 . S
H3013 C3037 0.951 . S
H3014 C3039 0.951 . S
H3015 C3041 0.950 . S
H3016 C3042 0.950 . S
H3017 C3044 0.950 . S
H3018 C3047 0.950 . S
H3019 C3048 0.950 . S
H3020 C3050 0.950 . S
H3021 C3051 0.950 . S
C3022 H3004 0.951 . S
C3022 C3023 1.366 . S
C3022 C3024 1.388 . S
C3023 C3022 1.366 . S
C3023 C3027 1.385 . S
C3024 H3005 0.951 . S
C3024 C3022 1.388 . S
C3024 C3025 1.366 . S
C3025 C3024 1.366 . S
C3025 C3026 1.414 . S
C3025 C3028 1.499 . S
C3026 H3006 0.950 . S
C3026 C3025 1.414 . S
C3026 C3027 1.374 . S
C3027 H3007 0.950 . S
C3027 C3023 1.385 . S
C3027 C3026 1.374 . S
C3028 C3025 1.499 . S
C3028 C3029 1.373 . S
C3028 C3030 1.389 . S
C3029 H3008 0.950 . S
C3029 C3028 1.373 . S
C3029 C3045 1.377 . S
C3030 C3028 1.389 . S
C3030 C3031 1.524 . S
C3030 C3044 1.377 . S
C3031 C3030 1.524 . S
C3031 C3032 1.397 . S
C3031 C3036 1.363 . S
C3032 H3009 0.950 . S
C3032 C3031 1.397 . S
C3032 C3033 1.334 . S
C3033 H3010 0.950 . S
C3033 C3032 1.334 . S
C3033 C3034 1.287 . S
C3034 C3033 1.287 . S
C3034 C3035 1.524 . S
C3034 H3053 0.913 . S
C3035 H3011 0.950 . S
C3035 C3034 1.524 . S
C3035 C3036 1.415 . S
C3036 H3012 0.950 . S
C3036 C3031 1.363 . S
C3036 C3035 1.415 . S
C3037 H3013 0.951 . S
C3037 C3038 1.366 . S
C3037 C3039 1.388 . S
C3038 C3037 1.366 . S
C3038 C3042 1.385 . S
C3039 H3014 0.951 . S
C3039 C3037 1.388 . S
C3039 C3040 1.366 . S
C3040 C3039 1.366 . S
C3040 C3041 1.414 . S
C3040 C3043 1.499 . S
C3041 H3015 0.950 . S
C3041 C3040 1.414 . S
C3041 C3042 1.374 . S
C3042 H3016 0.950 . S
C3042 C3038 1.385 . S
C3042 C3041 1.374 . S
C3043 C3040 1.499 . S
C3043 C3044 1.373 . S
C3043 C3045 1.389 . S
C3044 H3017 0.950 . S
C3044 C3030 1.377 . S
C3044 C3043 1.373 . S
C3045 C3029 1.377 . S
C3045 C3043 1.389 . S
C3045 C3046 1.524 . S
C3046 C3045 1.524 . S
C3046 C3047 1.397 . S
C3046 C3051 1.363 . S
C3047 H3018 0.950 . S
C3047 C3046 1.397 . S
C3047 C3048 1.334 . S
C3048 H3019 0.950 . S
C3048 C3047 1.334 . S
C3048 C3049 1.287 . S
C3049 C3048 1.287 . S
C3049 C3050 1.524 . S
C3049 H3052 0.999 . S
C3050 H3020 0.950 . S
C3050 C3049 1.524 . S
C3050 C3051 1.415 . S
C3051 H3021 0.950 . S
C3051 C3046 1.363 . S
C3051 C3050 1.415 . S
H3052 C3049 0.999 . S
H3053 C3034 0.913 . S
H3054 C3072 0.951 . S
H3055 C3074 0.951 . S
H3056 C3076 0.950 . S
H3057 C3077 0.950 . S
H3058 C3079 0.950 . S
H3059 C3082 0.950 . S
H3060 C3083 0.950 . S
H3061 C3085 0.950 . S
H3062 C3086 0.950 . S
H3063 C3087 0.951 . S
H3064 C3089 0.951 . S
H3065 C3091 0.950 . S
H3066 C3092 0.950 . S
H3067 C3094 0.950 . S
H3068 C3097 0.950 . S
H3069 C3098 0.950 . S
H3070 C3100 0.950 . S
H3071 C3101 0.950 . S
C3072 H3054 0.951 . S
C3072 C3073 1.366 . S
C3072 C3074 1.388 . S
C3073 C3072 1.366 . S
C3073 C3077 1.385 . S
C3074 H3055 0.951 . S
C3074 C3072 1.388 . S
C3074 C3075 1.366 . S
C3075 C3074 1.366 . S
C3075 C3076 1.414 . S
C3075 C3078 1.499 . S
C3076 H3056 0.950 . S
C3076 C3075 1.414 . S
C3076 C3077 1.374 . S
C3077 H3057 0.950 . S
C3077 C3073 1.385 . S
C3077 C3076 1.374 . S
C3078 C3075 1.499 . S
C3078 C3079 1.373 . S
C3078 C3080 1.389 . S
C3079 H3058 0.950 . S
C3079 C3078 1.373 . S
C3079 C3095 1.377 . S
C3080 C3078 1.389 . S
C3080 C3081 1.524 . S
C3080 C3094 1.377 . S
C3081 C3080 1.524 . S
C3081 C3082 1.397 . S
C3081 C3086 1.363 . S
C3082 H3059 0.950 . S
C3082 C3081 1.397 . S
C3082 C3083 1.334 . S
C3083 H3060 0.950 . S
C3083 C3082 1.334 . S
C3083 C3084 1.287 . S
C3084 C3083 1.287 . S
C3084 C3085 1.524 . S
C3084 H3103 0.913 . S
C3085 H3061 0.950 . S
C3085 C3084 1.524 . S
C3085 C3086 1.415 . S
C3086 H3062 0.950 . S
C3086 C3081 1.363 . S
C3086 C3085 1.415 . S
C3087 H3063 0.951 . S
C3087 C3088 1.366 . S
C3087 C3089 1.388 . S
C3088 C3087 1.366 . S
C3088 C3092 1.385 . S
C3089 H3064 0.951 . S
C3089 C3087 1.388 . S
C3089 C3090 1.366 . S
C3090 C3089 1.366 . S
C3090 C3091 1.414 . S
C3090 C3093 1.499 . S
C3091 H3065 0.950 . S
C3091 C3090 1.414 . S
C3091 C3092 1.374 . S
C3092 H3066 0.950 . S
C3092 C3088 1.385 . S
C3092 C3091 1.374 . S
C3093 C3090 1.499 . S
C3093 C3094 1.373 . S
C3093 C3095 1.389 . S
C3094 H3067 0.950 . S
C3094 C3080 1.377 . S
C3094 C3093 1.373 . S
C3095 C3079 1.377 . S
C3095 C3093 1.389 . S
C3095 C3096 1.524 . S
C3096 C3095 1.524 . S
C3096 C3097 1.397 . S
C3096 C3101 1.363 . S
C3097 H3068 0.950 . S
C3097 C3096 1.397 . S
C3097 C3098 1.334 . S
C3098 H3069 0.950 . S
C3098 C3097 1.334 . S
C3098 C3099 1.287 . S
C3099 C3098 1.287 . S
C3099 C3100 1.524 . S
C3099 H3102 0.999 . S
C3100 H3070 0.950 . S
C3100 C3099 1.524 . S
C3100 C3101 1.415 . S
C3101 H3071 0.950 . S
C3101 C3096 1.363 . S
C3101 C3100 1.415 . S
H3102 C3099 0.999 . S
H3103 C3084 0.913 . S
H3104 C3122 0.951 . S
H3105 C3124 0.951 . S
H3106 C3126 0.950 . S
H3107 C3127 0.950 . S
H3108 C3129 0.950 . S
H3109 C3132 0.950 . S
H3110 C3133 0.950 . S
H3111 C3135 0.950 . S
H3112 C3136 0.950 . S
H3113 C3137 0.951 . S
H3114 C3139 0.951 . S
H3115 C3141 0.950 . S
H3116 C3142 0.950 . S
H3117 C3144 0.950 . S
H3118 C3147 0.950 . S
H3119 C3148 0.950 . S
H3120 C3150 0.950 . S
H3121 C3151 0.950 . S
C3122 H3104 0.951 . S
C3122 C3123 1.366 . S
C3122 C3124 1.388 . S
C3123 C3122 1.366 . S
C3123 C3127 1.385 . S
C3124 H3105 0.951 . S
C3124 C3122 1.388 . S
C3124 C3125 1.366 . S
C3125 C3124 1.366 . S
C3125 C3126 1.414 . S
C3125 C3128 1.499 . S
C3126 H3106 0.950 . S
C3126 C3125 1.414 . S
C3126 C3127 1.374 . S
C3127 H3107 0.950 . S
C3127 C3123 1.385 . S
C3127 C3126 1.374 . S
C3128 C3125 1.499 . S
C3128 C3129 1.373 . S
C3128 C3130 1.389 . S
C3129 H3108 0.950 . S
C3129 C3128 1.373 . S
C3129 C3145 1.377 . S
C3130 C3128 1.389 . S
C3130 C3131 1.524 . S
C3130 C3144 1.377 . S
C3131 C3130 1.524 . S
C3131 C3132 1.397 . S
C3131 C3136 1.363 . S
C3132 H3109 0.950 . S
C3132 C3131 1.397 . S
C3132 C3133 1.334 . S
C3133 H3110 0.950 . S
C3133 C3132 1.334 . S
C3133 C3134 1.287 . S
C3134 C3133 1.287 . S
C3134 C3135 1.524 . S
C3134 H3153 0.913 . S
C3135 H3111 0.950 . S
C3135 C3134 1.524 . S
C3135 C3136 1.415 . S
C3136 H3112 0.950 . S
C3136 C3131 1.363 . S
C3136 C3135 1.415 . S
C3137 H3113 0.951 . S
C3137 C3138 1.366 . S
C3137 C3139 1.388 . S
C3138 C3137 1.366 . S
C3138 C3142 1.385 . S
C3139 H3114 0.951 . S
C3139 C3137 1.388 . S
C3139 C3140 1.366 . S
C3140 C3139 1.366 . S
C3140 C3141 1.414 . S
C3140 C3143 1.499 . S
C3141 H3115 0.950 . S
C3141 C3140 1.414 . S
C3141 C3142 1.374 . S
C3142 H3116 0.950 . S
C3142 C3138 1.385 . S
C3142 C3141 1.374 . S
C3143 C3140 1.499 . S
C3143 C3144 1.373 . S
C3143 C3145 1.389 . S
C3144 H3117 0.950 . S
C3144 C3130 1.377 . S
C3144 C3143 1.373 . S
C3145 C3129 1.377 . S
C3145 C3143 1.389 . S
C3145 C3146 1.524 . S
C3146 C3145 1.524 . S
C3146 C3147 1.397 . S
C3146 C3151 1.363 . S
C3147 H3118 0.950 . S
C3147 C3146 1.397 . S
C3147 C3148 1.334 . S
C3148 H3119 0.950 . S
C3148 C3147 1.334 . S
C3148 C3149 1.287 . S
C3149 C3148 1.287 . S
C3149 C3150 1.524 . S
C3149 H3152 0.999 . S
C3150 H3120 0.950 . S
C3150 C3149 1.524 . S
C3150 C3151 1.415 . S
C3151 H3121 0.950 . S
C3151 C3146 1.363 . S
C3151 C3150 1.415 . S
H3152 C3149 0.999 . S
H3153 C3134 0.913 . S
H3154 C3172 0.951 . S
H3155 C3174 0.951 . S
H3156 C3176 0.950 . S
H3157 C3177 0.950 . S
H3158 C3179 0.950 . S
H3159 C3182 0.950 . S
H3160 C3183 0.950 . S
H3161 C3185 0.950 . S
H3162 C3186 0.950 . S
H3163 C3187 0.951 . S
H3164 C3189 0.951 . S
H3165 C3191 0.950 . S
H3166 C3192 0.950 . S
H3167 C3194 0.950 . S
H3168 C3197 0.950 . S
H3169 C3198 0.950 . S
H3170 C3200 0.950 . S
H3171 C3201 0.950 . S
C3172 H3154 0.951 . S
C3172 C3173 1.366 . S
C3172 C3174 1.388 . S
C3173 C3172 1.366 . S
C3173 C3177 1.385 . S
C3174 H3155 0.951 . S
C3174 C3172 1.388 . S
C3174 C3175 1.366 . S
C3175 C3174 1.366 . S
C3175 C3176 1.414 . S
C3175 C3178 1.499 . S
C3176 H3156 0.950 . S
C3176 C3175 1.414 . S
C3176 C3177 1.374 . S
C3177 H3157 0.950 . S
C3177 C3173 1.385 . S
C3177 C3176 1.374 . S
C3178 C3175 1.499 . S
C3178 C3179 1.373 . S
C3178 C3180 1.389 . S
C3179 H3158 0.950 . S
C3179 C3178 1.373 . S
C3179 C3195 1.377 . S
C3180 C3178 1.389 . S
C3180 C3181 1.524 . S
C3180 C3194 1.377 . S
C3181 C3180 1.524 . S
C3181 C3182 1.397 . S
C3181 C3186 1.363 . S
C3182 H3159 0.950 . S
C3182 C3181 1.397 . S
C3182 C3183 1.334 . S
C3183 H3160 0.950 . S
C3183 C3182 1.334 . S
C3183 C3184 1.287 . S
C3184 C3183 1.287 . S
C3184 C3185 1.524 . S
C3184 H3203 0.913 . S
C3185 H3161 0.950 . S
C3185 C3184 1.524 . S
C3185 C3186 1.415 . S
C3186 H3162 0.950 . S
C3186 C3181 1.363 . S
C3186 C3185 1.415 . S
C3187 H3163 0.951 . S
C3187 C3188 1.366 . S
C3187 C3189 1.388 . S
C3188 C3187 1.366 . S
C3188 C3192 1.385 . S
C3189 H3164 0.951 . S
C3189 C3187 1.388 . S
C3189 C3190 1.366 . S
C3190 C3189 1.366 . S
C3190 C3191 1.414 . S
C3190 C3193 1.499 . S
C3191 H3165 0.950 . S
C3191 C3190 1.414 . S
C3191 C3192 1.374 . S
C3192 H3166 0.950 . S
C3192 C3188 1.385 . S
C3192 C3191 1.374 . S
C3193 C3190 1.499 . S
C3193 C3194 1.373 . S
C3193 C3195 1.389 . S
C3194 H3167 0.950 . S
C3194 C3180 1.377 . S
C3194 C3193 1.373 . S
C3195 C3179 1.377 . S
C3195 C3193 1.389 . S
C3195 C3196 1.524 . S
C3196 C3195 1.524 . S
C3196 C3197 1.397 . S
C3196 C3201 1.363 . S
C3197 H3168 0.950 . S
C3197 C3196 1.397 . S
C3197 C3198 1.334 . S
C3198 H3169 0.950 . S
C3198 C3197 1.334 . S
C3198 C3199 1.287 . S
C3199 C3198 1.287 . S
C3199 C3200 1.524 . S
C3199 H3202 0.999 . S
C3200 H3170 0.950 . S
C3200 C3199 1.524 . S
C3200 C3201 1.415 . S
C3201 H3171 0.950 . S
C3201 C3196 1.363 . S
C3201 C3200 1.415 . S
H3202 C3199 0.999 . S
H3203 C3184 0.913 . S
H3204 C3222 0.951 . S
H3205 C3224 0.951 . S
H3206 C3226 0.950 . S
H3207 C3227 0.950 . S
H3208 C3229 0.950 . S
H3209 C3232 0.950 . S
H3210 C3233 0.950 . S
H3211 C3235 0.950 . S
H3212 C3236 0.950 . S
H3213 C3237 0.951 . S
H3214 C3239 0.951 . S
H3215 C3241 0.950 . S
H3216 C3242 0.950 . S
H3217 C3244 0.950 . S
H3218 C3247 0.950 . S
H3219 C3248 0.950 . S
H3220 C3250 0.950 . S
H3221 C3251 0.950 . S
C3222 H3204 0.951 . S
C3222 C3223 1.366 . S
C3222 C3224 1.388 . S
C3223 C3222 1.366 . S
C3223 C3227 1.385 . S
C3224 H3205 0.951 . S
C3224 C3222 1.388 . S
C3224 C3225 1.366 . S
C3225 C3224 1.366 . S
C3225 C3226 1.414 . S
C3225 C3228 1.499 . S
C3226 H3206 0.950 . S
C3226 C3225 1.414 . S
C3226 C3227 1.374 . S
C3227 H3207 0.950 . S
C3227 C3223 1.385 . S
C3227 C3226 1.374 . S
C3228 C3225 1.499 . S
C3228 C3229 1.373 . S
C3228 C3230 1.389 . S
C3229 H3208 0.950 . S
C3229 C3228 1.373 . S
C3229 C3245 1.377 . S
C3230 C3228 1.389 . S
C3230 C3231 1.524 . S
C3230 C3244 1.377 . S
C3231 C3230 1.524 . S
C3231 C3232 1.397 . S
C3231 C3236 1.363 . S
C3232 H3209 0.950 . S
C3232 C3231 1.397 . S
C3232 C3233 1.334 . S
C3233 H3210 0.950 . S
C3233 C3232 1.334 . S
C3233 C3234 1.287 . S
C3234 C3233 1.287 . S
C3234 C3235 1.524 . S
C3234 H3253 0.913 . S
C3235 H3211 0.950 . S
C3235 C3234 1.524 . S
C3235 C3236 1.415 . S
C3236 H3212 0.950 . S
C3236 C3231 1.363 . S
C3236 C3235 1.415 . S
C3237 H3213 0.951 . S
C3237 C3238 1.366 . S
C3237 C3239 1.388 . S
C3238 C3237 1.366 . S
C3238 C3242 1.385 . S
C3239 H3214 0.951 . S
C3239 C3237 1.388 . S
C3239 C3240 1.366 . S
C3240 C3239 1.366 . S
C3240 C3241 1.414 . S
C3240 C3243 1.499 . S
C3241 H3215 0.950 . S
C3241 C3240 1.414 . S
C3241 C3242 1.374 . S
C3242 H3216 0.950 . S
C3242 C3238 1.385 . S
C3242 C3241 1.374 . S
C3243 C3240 1.499 . S
C3243 C3244 1.373 . S
C3243 C3245 1.389 . S
C3244 H3217 0.950 . S
C3244 C3230 1.377 . S
C3244 C3243 1.373 . S
C3245 C3229 1.377 . S
C3245 C3243 1.389 . S
C3245 C3246 1.524 . S
C3246 C3245 1.524 . S
C3246 C3247 1.397 . S
C3246 C3251 1.363 . S
C3247 H3218 0.950 . S
C3247 C3246 1.397 . S
C3247 C3248 1.334 . S
C3248 H3219 0.950 . S
C3248 C3247 1.334 . S
C3248 C3249 1.287 . S
C3249 C3248 1.287 . S
C3249 C3250 1.524 . S
C3249 H3252 0.999 . S
C3250 H3220 0.950 . S
C3250 C3249 1.524 . S
C3250 C3251 1.415 . S
C3251 H3221 0.950 . S
C3251 C3246 1.363 . S
C3251 C3250 1.415 . S
H3252 C3249 0.999 . S
H3253 C3234 0.913 . S
H3254 C3272 0.951 . S
H3255 C3274 0.951 . S
H3256 C3276 0.950 . S
H3257 C3277 0.950 . S
H3258 C3279 0.950 . S
H3259 C3282 0.950 . S
H3260 C3283 0.950 . S
H3261 C3285 0.950 . S
H3262 C3286 0.950 . S
H3263 C3287 0.951 . S
H3264 C3289 0.951 . S
H3265 C3291 0.950 . S
H3266 C3292 0.950 . S
H3267 C3294 0.950 . S
H3268 C3297 0.950 . S
H3269 C3298 0.950 . S
H3270 C3300 0.950 . S
H3271 C3301 0.950 . S
C3272 H3254 0.951 . S
C3272 C3273 1.366 . S
C3272 C3274 1.388 . S
C3273 C3272 1.366 . S
C3273 C3277 1.385 . S
C3274 H3255 0.951 . S
C3274 C3272 1.388 . S
C3274 C3275 1.366 . S
C3275 C3274 1.366 . S
C3275 C3276 1.414 . S
C3275 C3278 1.499 . S
C3276 H3256 0.950 . S
C3276 C3275 1.414 . S
C3276 C3277 1.374 . S
C3277 H3257 0.950 . S
C3277 C3273 1.385 . S
C3277 C3276 1.374 . S
C3278 C3275 1.499 . S
C3278 C3279 1.373 . S
C3278 C3280 1.389 1_545 S
C3279 H3258 0.950 . S
C3279 C3278 1.373 . S
C3279 C3295 1.377 . S
C3280 C3278 1.389 1_565 S
C3280 C3281 1.524 . S
C3280 C3294 1.377 . S
C3281 C3280 1.524 . S
C3281 C3282 1.397 . S
C3281 C3286 1.363 . S
C3282 H3259 0.950 . S
C3282 C3281 1.397 . S
C3282 C3283 1.334 . S
C3283 H3260 0.950 . S
C3283 C3282 1.334 . S
C3283 C3284 1.287 . S
C3284 C3283 1.287 . S
C3284 C3285 1.524 . S
C3284 H3303 0.913 . S
C3285 H3261 0.950 . S
C3285 C3284 1.524 . S
C3285 C3286 1.415 . S
C3286 H3262 0.950 . S
C3286 C3281 1.363 . S
C3286 C3285 1.415 . S
C3287 H3263 0.951 . S
C3287 C3288 1.366 . S
C3287 C3289 1.388 . S
C3288 C3287 1.366 . S
C3288 C3292 1.385 . S
C3289 H3264 0.951 . S
C3289 C3287 1.388 . S
C3289 C3290 1.366 . S
C3290 C3289 1.366 . S
C3290 C3291 1.414 . S
C3290 C3293 1.499 . S
C3291 H3265 0.950 . S
C3291 C3290 1.414 . S
C3291 C3292 1.374 . S
C3292 H3266 0.950 . S
C3292 C3288 1.385 . S
C3292 C3291 1.374 . S
C3293 C3290 1.499 . S
C3293 C3294 1.373 . S
C3293 C3295 1.389 1_565 S
C3294 H3267 0.950 . S
C3294 C3280 1.377 . S
C3294 C3293 1.373 . S
C3295 C3279 1.377 . S
C3295 C3293 1.389 1_545 S
C3295 C3296 1.524 . S
C3296 C3295 1.524 . S
C3296 C3297 1.397 . S
C3296 C3301 1.363 . S
C3297 H3268 0.950 . S
C3297 C3296 1.397 . S
C3297 C3298 1.334 . S
C3298 H3269 0.950 . S
C3298 C3297 1.334 . S
C3298 C3299 1.287 . S
C3299 C3298 1.287 . S
C3299 C3300 1.524 . S
C3299 H3302 0.999 . S
C3300 H3270 0.950 . S
C3300 C3299 1.524 . S
C3300 C3301 1.415 . S
C3301 H3271 0.950 . S
C3301 C3296 1.363 . S
C3301 C3300 1.415 . S
H3302 C3299 0.999 . S
H3303 C3284 0.913 . S
H3304 C3322 0.951 . S
H3305 C3324 0.951 . S
H3306 C3326 0.950 . S
H3307 C3327 0.950 . S
H3308 C3329 0.956 . S
H3309 C3332 0.950 . S
H3310 C3333 0.950 . S
H3311 C3335 0.950 . S
H3312 C3336 0.950 . S
H3313 C3337 0.951 . S
H3314 C3339 0.951 . S
H3315 C3341 0.950 . S
H3316 C3342 0.950 . S
H3317 C3344 0.956 . S
H3318 C3347 0.950 . S
H3319 C3348 0.950 . S
H3320 C3350 0.950 . S
H3321 C3351 0.950 . S
C3322 H3304 0.951 . S
C3322 C3323 1.366 . S
C3322 C3324 1.388 . S
C3323 C3322 1.366 . S
C3323 C3327 1.385 1_455 S
C3324 H3305 0.951 . S
C3324 C3322 1.388 . S
C3324 C3325 1.366 . S
C3325 C3324 1.366 . S
C3325 C3326 1.414 1_455 S
C3325 C3328 1.499 . S
C3326 H3306 0.950 . S
C3326 C3325 1.414 1_655 S
C3326 C3327 1.374 . S
C3327 H3307 0.950 . S
C3327 C3323 1.385 1_655 S
C3327 C3326 1.374 . S
C3328 C3325 1.499 . S
C3328 C3329 1.374 1_455 S
C3328 C3330 1.389 . S
C3329 H3308 0.956 . S
C3329 C3328 1.374 1_655 S
C3329 C3345 1.377 . S
C3330 C3328 1.389 . S
C3330 C3331 1.524 . S
C3330 C3344 1.377 . S
C3331 C3330 1.524 . S
C3331 C3332 1.397 1_455 S
C3331 C3336 1.363 . S
C3332 H3309 0.950 . S
C3332 C3331 1.397 1_655 S
C3332 C3333 1.334 . S
C3333 H3310 0.950 . S
C3333 C3332 1.334 . S
C3333 C3334 1.287 . S
C3334 C3333 1.287 . S
C3334 C3335 1.524 1_655 S
C3334 H3353 0.913 . S
C3335 H3311 0.950 . S
C3335 C3334 1.524 1_455 S
C3335 C3336 1.415 . S
C3336 H3312 0.950 . S
C3336 C3331 1.363 . S
C3336 C3335 1.415 . S
C3337 H3313 0.951 . S
C3337 C3338 1.366 . S
C3337 C3339 1.388 . S
C3338 C3337 1.366 . S
C3338 C3342 1.385 1_655 S
C3339 H3314 0.951 . S
C3339 C3337 1.388 . S
C3339 C3340 1.366 . S
C3340 C3339 1.366 . S
C3340 C3341 1.414 1_655 S
C3340 C3343 1.499 . S
C3341 H3315 0.950 . S
C3341 C3340 1.414 1_455 S
C3341 C3342 1.374 . S
C3342 H3316 0.950 . S
C3342 C3338 1.385 1_455 S
C3342 C3341 1.374 . S
C3343 C3340 1.499 . S
C3343 C3344 1.374 1_655 S
C3343 C3345 1.389 . S
C3344 H3317 0.956 . S
C3344 C3330 1.377 . S
C3344 C3343 1.374 1_455 S
C3345 C3329 1.377 . S
C3345 C3343 1.389 . S
C3345 C3346 1.524 . S
C3346 C3345 1.524 . S
C3346 C3347 1.397 1_655 S
C3346 C3351 1.363 . S
C3347 H3318 0.950 . S
C3347 C3346 1.397 1_455 S
C3347 C3348 1.334 . S
C3348 H3319 0.950 . S
C3348 C3347 1.334 . S
C3348 C3349 1.287 . S
C3349 C3348 1.287 . S
C3349 C3350 1.524 1_455 S
C3349 H3352 0.999 . S
C3350 H3320 0.950 . S
C3350 C3349 1.524 1_655 S
C3350 C3351 1.415 . S
C3351 H3321 0.950 . S
C3351 C3346 1.363 . S
C3351 C3350 1.415 . S
H3352 C3349 0.999 . S
H3353 C3334 0.913 . S
H3354 C3372 0.951 . S
H3355 C3374 0.951 . S
H3356 C3376 0.950 . S
H3357 C3377 0.950 . S
H3358 C3379 0.950 . S
H3359 C3382 0.950 . S
H3360 C3383 0.950 . S
H3361 C3385 0.950 . S
H3362 C3386 0.950 . S
H3363 C3387 0.951 . S
H3364 C3389 0.951 . S
H3365 C3391 0.950 . S
H3366 C3392 0.950 . S
H3367 C3394 0.950 . S
H3368 C3397 0.950 . S
H3369 C3398 0.950 . S
H3370 C3400 0.950 . S
H3371 C3401 0.950 . S
C3372 H3354 0.951 . S
C3372 C3373 1.366 . S
C3372 C3374 1.388 . S
C3373 C3372 1.366 . S
C3373 C3377 1.385 . S
C3374 H3355 0.951 . S
C3374 C3372 1.388 . S
C3374 C3375 1.366 . S
C3375 C3374 1.366 . S
C3375 C3376 1.414 . S
C3375 C3378 1.499 . S
C3376 H3356 0.950 . S
C3376 C3375 1.414 . S
C3376 C3377 1.374 . S
C3377 H3357 0.950 . S
C3377 C3373 1.385 . S
C3377 C3376 1.374 . S
C3378 C3375 1.499 . S
C3378 C3379 1.373 . S
C3378 C3380 1.389 . S
C3379 H3358 0.950 . S
C3379 C3378 1.373 . S
C3379 C3395 1.377 . S
C3380 C3378 1.389 . S
C3380 C3381 1.524 . S
C3380 C3394 1.377 . S
C3381 C3380 1.524 . S
C3381 C3382 1.397 . S
C3381 C3386 1.363 . S
C3382 H3359 0.950 . S
C3382 C3381 1.397 . S
C3382 C3383 1.334 . S
C3383 H3360 0.950 . S
C3383 C3382 1.334 . S
C3383 C3384 1.287 . S
C3384 C3383 1.287 . S
C3384 C3385 1.524 . S
C3384 H3403 0.913 . S
C3385 H3361 0.950 . S
C3385 C3384 1.524 . S
C3385 C3386 1.415 . S
C3386 H3362 0.950 . S
C3386 C3381 1.363 . S
C3386 C3385 1.415 . S
C3387 H3363 0.951 . S
C3387 C3388 1.366 . S
C3387 C3389 1.388 . S
C3388 C3387 1.366 . S
C3388 C3392 1.385 . S
C3389 H3364 0.951 . S
C3389 C3387 1.388 . S
C3389 C3390 1.366 . S
C3390 C3389 1.366 . S
C3390 C3391 1.414 . S
C3390 C3393 1.499 . S
C3391 H3365 0.950 . S
C3391 C3390 1.414 . S
C3391 C3392 1.374 . S
C3392 H3366 0.950 . S
C3392 C3388 1.385 . S
C3392 C3391 1.374 . S
C3393 C3390 1.499 . S
C3393 C3394 1.373 . S
C3393 C3395 1.389 . S
C3394 H3367 0.950 . S
C3394 C3380 1.377 . S
C3394 C3393 1.373 . S
C3395 C3379 1.377 . S
C3395 C3393 1.389 . S
C3395 C3396 1.524 . S
C3396 C3395 1.524 . S
C3396 C3397 1.397 . S
C3396 C3401 1.363 . S
C3397 H3368 0.950 . S
C3397 C3396 1.397 . S
C3397 C3398 1.334 . S
C3398 H3369 0.950 . S
C3398 C3397 1.334 . S
C3398 C3399 1.287 . S
C3399 C3398 1.287 . S
C3399 C3400 1.524 . S
C3399 H3402 0.999 . S
C3400 H3370 0.950 . S
C3400 C3399 1.524 . S
C3400 C3401 1.415 . S
C3401 H3371 0.950 . S
C3401 C3396 1.363 . S
C3401 C3400 1.415 . S
H3402 C3399 0.999 . S
H3403 C3384 0.913 . S
H3404 C3422 0.951 . S
H3405 C3424 0.951 . S
H3406 C3426 0.950 . S
H3407 C3427 0.950 . S
H3408 C3429 0.950 . S
H3409 C3432 0.950 . S
H3410 C3433 0.950 . S
H3411 C3435 0.950 . S
H3412 C3436 0.950 . S
H3413 C3437 0.951 . S
H3414 C3439 0.951 . S
H3415 C3441 0.950 . S
H3416 C3442 0.950 . S
H3417 C3444 0.950 . S
H3418 C3447 0.950 . S
H3419 C3448 0.950 . S
H3420 C3450 0.950 . S
H3421 C3451 0.950 . S
C3422 H3404 0.951 . S
C3422 C3423 1.366 . S
C3422 C3424 1.388 . S
C3423 C3422 1.366 . S
C3423 C3427 1.385 . S
C3424 H3405 0.951 . S
C3424 C3422 1.388 . S
C3424 C3425 1.366 . S
C3425 C3424 1.366 . S
C3425 C3426 1.414 . S
C3425 C3428 1.499 . S
C3426 H3406 0.950 . S
C3426 C3425 1.414 . S
C3426 C3427 1.374 . S
C3427 H3407 0.950 . S
C3427 C3423 1.385 . S
C3427 C3426 1.374 . S
C3428 C3425 1.499 . S
C3428 C3429 1.373 1_545 S
C3428 C3430 1.389 . S
C3429 H3408 0.950 . S
C3429 C3428 1.373 1_565 S
C3429 C3445 1.377 . S
C3430 C3428 1.389 . S
C3430 C3431 1.524 . S
C3430 C3444 1.377 . S
C3431 C3430 1.524 . S
C3431 C3432 1.397 . S
C3431 C3436 1.363 . S
C3432 H3409 0.950 . S
C3432 C3431 1.397 . S
C3432 C3433 1.334 . S
C3433 H3410 0.950 . S
C3433 C3432 1.334 . S
C3433 C3434 1.287 . S
C3434 C3433 1.287 . S
C3434 C3435 1.524 . S
C3434 H3453 0.913 . S
C3435 H3411 0.950 . S
C3435 C3434 1.524 . S
C3435 C3436 1.415 . S
C3436 H3412 0.950 . S
C3436 C3431 1.363 . S
C3436 C3435 1.415 . S
C3437 H3413 0.951 . S
C3437 C3438 1.366 . S
C3437 C3439 1.388 . S
C3438 C3437 1.366 . S
C3438 C3442 1.385 . S
C3439 H3414 0.951 . S
C3439 C3437 1.388 . S
C3439 C3440 1.366 . S
C3440 C3439 1.366 . S
C3440 C3441 1.414 . S
C3440 C3443 1.499 . S
C3441 H3415 0.950 . S
C3441 C3440 1.414 . S
C3441 C3442 1.374 . S
C3442 H3416 0.950 . S
C3442 C3438 1.385 . S
C3442 C3441 1.374 . S
C3443 C3440 1.499 . S
C3443 C3444 1.373 1_565 S
C3443 C3445 1.389 . S
C3444 H3417 0.950 . S
C3444 C3430 1.377 . S
C3444 C3443 1.373 1_545 S
C3445 C3429 1.377 . S
C3445 C3443 1.389 . S
C3445 C3446 1.524 . S
C3446 C3445 1.524 . S
C3446 C3447 1.397 . S
C3446 C3451 1.363 . S
C3447 H3418 0.950 . S
C3447 C3446 1.397 . S
C3447 C3448 1.334 . S
C3448 H3419 0.950 . S
C3448 C3447 1.334 . S
C3448 C3449 1.287 . S
C3449 C3448 1.287 . S
C3449 C3450 1.524 . S
C3449 H3452 0.999 . S
C3450 H3420 0.950 . S
C3450 C3449 1.524 . S
C3450 C3451 1.415 . S
C3451 H3421 0.950 . S
C3451 C3446 1.363 . S
C3451 C3450 1.415 . S
H3452 C3449 0.999 . S
H3453 C3434 0.913 . S
H3454 C3472 0.951 . S
H3455 C3474 0.951 . S
H3456 C3476 0.950 . S
H3457 C3477 0.950 . S
H3458 C3479 0.950 . S
H3459 C3482 0.950 . S
H3460 C3483 0.950 . S
H3461 C3485 0.950 . S
H3462 C3486 0.950 . S
H3463 C3487 0.951 . S
H3464 C3489 0.951 . S
H3465 C3491 0.950 . S
H3466 C3492 0.950 . S
H3467 C3494 0.950 . S
H3468 C3497 0.950 . S
H3469 C3498 0.950 . S
H3470 C3500 0.950 . S
H3471 C3501 0.950 . S
C3472 H3454 0.951 . S
C3472 C3473 1.366 . S
C3472 C3474 1.388 . S
C3473 C3472 1.366 . S
C3473 C3477 1.385 1_655 S
C3474 H3455 0.951 . S
C3474 C3472 1.388 . S
C3474 C3475 1.366 . S
C3475 C3474 1.366 . S
C3475 C3476 1.414 1_655 S
C3475 C3478 1.499 . S
C3476 H3456 0.950 . S
C3476 C3475 1.414 1_455 S
C3476 C3477 1.374 . S
C3477 H3457 0.950 . S
C3477 C3473 1.385 1_455 S
C3477 C3476 1.374 . S
C3478 C3475 1.499 . S
C3478 C3479 1.373 1_655 S
C3478 C3480 1.389 . S
C3479 H3458 0.950 . S
C3479 C3478 1.373 1_455 S
C3479 C3495 1.377 . S
C3480 C3478 1.389 . S
C3480 C3481 1.524 . S
C3480 C3494 1.377 . S
C3481 C3480 1.524 . S
C3481 C3482 1.397 . S
C3481 C3486 1.363 . S
C3482 H3459 0.950 . S
C3482 C3481 1.397 . S
C3482 C3483 1.334 . S
C3483 H3460 0.950 . S
C3483 C3482 1.334 . S
C3483 C3484 1.287 . S
C3484 C3483 1.287 . S
C3484 C3485 1.524 . S
C3484 H3503 0.913 . S
C3485 H3461 0.950 . S
C3485 C3484 1.524 . S
C3485 C3486 1.415 . S
C3486 H3462 0.950 . S
C3486 C3481 1.363 . S
C3486 C3485 1.415 . S
C3487 H3463 0.951 . S
C3487 C3488 1.366 . S
C3487 C3489 1.388 . S
C3488 C3487 1.366 . S
C3488 C3492 1.385 1_455 S
C3489 H3464 0.951 . S
C3489 C3487 1.388 . S
C3489 C3490 1.366 . S
C3490 C3489 1.366 . S
C3490 C3491 1.414 1_455 S
C3490 C3493 1.499 . S
C3491 H3465 0.950 . S
C3491 C3490 1.414 1_655 S
C3491 C3492 1.374 . S
C3492 H3466 0.950 . S
C3492 C3488 1.385 1_655 S
C3492 C3491 1.374 . S
C3493 C3490 1.499 . S
C3493 C3494 1.373 1_455 S
C3493 C3495 1.389 . S
C3494 H3467 0.950 . S
C3494 C3480 1.377 . S
C3494 C3493 1.373 1_655 S
C3495 C3479 1.377 . S
C3495 C3493 1.389 . S
C3495 C3496 1.524 . S
C3496 C3495 1.524 . S
C3496 C3497 1.397 . S
C3496 C3501 1.363 . S
C3497 H3468 0.950 . S
C3497 C3496 1.397 . S
C3497 C3498 1.334 . S
C3498 H3469 0.950 . S
C3498 C3497 1.334 . S
C3498 C3499 1.287 . S
C3499 C3498 1.287 . S
C3499 C3500 1.524 . S
C3499 H3502 0.999 . S
C3500 H3470 0.950 . S
C3500 C3499 1.524 . S
C3500 C3501 1.415 . S
C3501 H3471 0.950 . S
C3501 C3496 1.363 . S
C3501 C3500 1.415 . S
H3502 C3499 0.999 . S
H3503 C3484 0.913 . S
H3504 C3522 0.951 . S
H3505 C3524 0.951 . S
H3506 C3526 0.950 . S
H3507 C3527 0.950 . S
H3508 C3529 0.950 . S
H3509 C3532 0.950 . S
H3510 C3533 0.950 . S
H3511 C3535 0.950 . S
H3512 C3536 0.950 . S
H3513 C3537 0.951 . S
H3514 C3539 0.951 . S
H3515 C3541 0.950 . S
H3516 C3542 0.950 . S
H3517 C3544 0.950 . S
H3518 C3547 0.950 . S
H3519 C3548 0.950 . S
H3520 C3550 0.950 . S
H3521 C3551 0.950 . S
C3522 H3504 0.951 . S
C3522 C3523 1.366 . S
C3522 C3524 1.388 . S
C3523 C3522 1.366 . S
C3523 C3527 1.385 . S
C3524 H3505 0.951 . S
C3524 C3522 1.388 . S
C3524 C3525 1.366 . S
C3525 C3524 1.366 . S
C3525 C3526 1.414 . S
C3525 C3528 1.499 . S
C3526 H3506 0.950 . S
C3526 C3525 1.414 . S
C3526 C3527 1.374 . S
C3527 H3507 0.950 . S
C3527 C3523 1.385 . S
C3527 C3526 1.374 . S
C3528 C3525 1.499 . S
C3528 C3529 1.373 . S
C3528 C3530 1.389 . S
C3529 H3508 0.950 . S
C3529 C3528 1.373 . S
C3529 C3545 1.377 . S
C3530 C3528 1.389 . S
C3530 C3531 1.524 . S
C3530 C3544 1.377 . S
C3531 C3530 1.524 . S
C3531 C3532 1.397 . S
C3531 C3536 1.363 . S
C3532 H3509 0.950 . S
C3532 C3531 1.397 . S
C3532 C3533 1.334 . S
C3533 H3510 0.950 . S
C3533 C3532 1.334 . S
C3533 C3534 1.287 . S
C3534 C3533 1.287 . S
C3534 C3535 1.524 . S
C3534 H3553 0.913 . S
C3535 H3511 0.950 . S
C3535 C3534 1.524 . S
C3535 C3536 1.415 . S
C3536 H3512 0.950 . S
C3536 C3531 1.363 . S
C3536 C3535 1.415 . S
C3537 H3513 0.951 . S
C3537 C3538 1.366 . S
C3537 C3539 1.388 . S
C3538 C3537 1.366 . S
C3538 C3542 1.385 . S
C3539 H3514 0.951 . S
C3539 C3537 1.388 . S
C3539 C3540 1.366 . S
C3540 C3539 1.366 . S
C3540 C3541 1.414 . S
C3540 C3543 1.499 . S
C3541 H3515 0.950 . S
C3541 C3540 1.414 . S
C3541 C3542 1.374 . S
C3542 H3516 0.950 . S
C3542 C3538 1.385 . S
C3542 C3541 1.374 . S
C3543 C3540 1.499 . S
C3543 C3544 1.373 . S
C3543 C3545 1.389 . S
C3544 H3517 0.950 . S
C3544 C3530 1.377 . S
C3544 C3543 1.373 . S
C3545 C3529 1.377 . S
C3545 C3543 1.389 . S
C3545 C3546 1.524 . S
C3546 C3545 1.524 . S
C3546 C3547 1.397 . S
C3546 C3551 1.363 . S
C3547 H3518 0.950 . S
C3547 C3546 1.397 . S
C3547 C3548 1.334 . S
C3548 H3519 0.950 . S
C3548 C3547 1.334 . S
C3548 C3549 1.287 . S
C3549 C3548 1.287 . S
C3549 C3550 1.524 . S
C3549 H3552 0.999 . S
C3550 H3520 0.950 . S
C3550 C3549 1.524 . S
C3550 C3551 1.415 . S
C3551 H3521 0.950 . S
C3551 C3546 1.363 . S
C3551 C3550 1.415 . S
H3552 C3549 0.999 . S
H3553 C3534 0.913 . S
H3554 C3572 0.951 . S
H3555 C3574 0.951 . S
H3556 C3576 0.950 . S
H3557 C3577 0.950 . S
H3558 C3579 0.950 . S
H3559 C3582 0.950 . S
H3560 C3583 0.950 . S
H3561 C3585 0.950 . S
H3562 C3586 0.950 . S
H3563 C3587 0.951 . S
H3564 C3589 0.951 . S
H3565 C3591 0.950 . S
H3566 C3592 0.950 . S
H3567 C3594 0.950 . S
H3568 C3597 0.950 . S
H3569 C3598 0.950 . S
H3570 C3600 0.950 . S
H3571 C3601 0.950 . S
C3572 H3554 0.951 . S
C3572 C3573 1.366 . S
C3572 C3574 1.388 . S
C3573 C3572 1.366 . S
C3573 C3577 1.385 . S
C3574 H3555 0.951 . S
C3574 C3572 1.388 . S
C3574 C3575 1.366 . S
C3575 C3574 1.366 . S
C3575 C3576 1.414 . S
C3575 C3578 1.499 . S
C3576 H3556 0.950 . S
C3576 C3575 1.414 . S
C3576 C3577 1.374 . S
C3577 H3557 0.950 . S
C3577 C3573 1.385 . S
C3577 C3576 1.374 . S
C3578 C3575 1.499 . S
C3578 C3579 1.373 . S
C3578 C3580 1.389 . S
C3579 H3558 0.950 . S
C3579 C3578 1.373 . S
C3579 C3595 1.377 . S
C3580 C3578 1.389 . S
C3580 C3581 1.524 . S
C3580 C3594 1.377 . S
C3581 C3580 1.524 . S
C3581 C3582 1.397 . S
C3581 C3586 1.363 . S
C3582 H3559 0.950 . S
C3582 C3581 1.397 . S
C3582 C3583 1.334 . S
C3583 H3560 0.950 . S
C3583 C3582 1.334 . S
C3583 C3584 1.287 . S
C3584 C3583 1.287 . S
C3584 C3585 1.524 . S
C3584 H3603 0.913 . S
C3585 H3561 0.950 . S
C3585 C3584 1.524 . S
C3585 C3586 1.415 . S
C3586 H3562 0.950 . S
C3586 C3581 1.363 . S
C3586 C3585 1.415 . S
C3587 H3563 0.951 . S
C3587 C3588 1.366 . S
C3587 C3589 1.388 . S
C3588 C3587 1.366 . S
C3588 C3592 1.385 . S
C3589 H3564 0.951 . S
C3589 C3587 1.388 . S
C3589 C3590 1.366 . S
C3590 C3589 1.366 . S
C3590 C3591 1.414 . S
C3590 C3593 1.499 . S
C3591 H3565 0.950 . S
C3591 C3590 1.414 . S
C3591 C3592 1.374 . S
C3592 H3566 0.950 . S
C3592 C3588 1.385 . S
C3592 C3591 1.374 . S
C3593 C3590 1.499 . S
C3593 C3594 1.373 . S
C3593 C3595 1.389 . S
C3594 H3567 0.950 . S
C3594 C3580 1.377 . S
C3594 C3593 1.373 . S
C3595 C3579 1.377 . S
C3595 C3593 1.389 . S
C3595 C3596 1.524 . S
C3596 C3595 1.524 . S
C3596 C3597 1.397 . S
C3596 C3601 1.363 . S
C3597 H3568 0.950 . S
C3597 C3596 1.397 . S
C3597 C3598 1.334 . S
C3598 H3569 0.950 . S
C3598 C3597 1.334 . S
C3598 C3599 1.287 . S
C3599 C3598 1.287 . S
C3599 C3600 1.524 . S
C3599 H3602 0.999 . S
C3600 H3570 0.950 . S
C3600 C3599 1.524 . S
C3600 C3601 1.415 . S
C3601 H3571 0.950 . S
C3601 C3596 1.363 . S
C3601 C3600 1.415 . S
H3602 C3599 0.999 . S
H3603 C3584 0.913 . S
H3604 C3622 0.951 . S
H3605 C3624 0.951 . S
H3606 C3626 0.950 . S
H3607 C3627 0.950 . S
H3608 C3629 0.950 . S
H3609 C3632 0.950 . S
H3610 C3633 0.950 . S
H3611 C3635 0.950 . S
H3612 C3636 0.950 . S
H3613 C3637 0.951 . S
H3614 C3639 0.951 . S
H3615 C3641 0.950 . S
H3616 C3642 0.950 . S
H3617 C3644 0.950 . S
H3618 C3647 0.950 . S
H3619 C3648 0.950 . S
H3620 C3650 0.950 . S
H3621 C3651 0.950 . S
C3622 H3604 0.951 . S
C3622 C3623 1.366 . S
C3622 C3624 1.388 . S
C3623 C3622 1.366 . S
C3623 C3627 1.385 . S
C3624 H3605 0.951 . S
C3624 C3622 1.388 . S
C3624 C3625 1.366 . S
C3625 C3624 1.366 . S
C3625 C3626 1.414 . S
C3625 C3628 1.499 . S
C3626 H3606 0.950 . S
C3626 C3625 1.414 . S
C3626 C3627 1.374 . S
C3627 H3607 0.950 . S
C3627 C3623 1.385 . S
C3627 C3626 1.374 . S
C3628 C3625 1.499 . S
C3628 C3629 1.373 . S
C3628 C3630 1.389 . S
C3629 H3608 0.950 . S
C3629 C3628 1.373 . S
C3629 C3645 1.377 . S
C3630 C3628 1.389 . S
C3630 C3631 1.524 . S
C3630 C3644 1.377 . S
C3631 C3630 1.524 . S
C3631 C3632 1.397 . S
C3631 C3636 1.363 . S
C3632 H3609 0.950 . S
C3632 C3631 1.397 . S
C3632 C3633 1.334 . S
C3633 H3610 0.950 . S
C3633 C3632 1.334 . S
C3633 C3634 1.287 . S
C3634 C3633 1.287 . S
C3634 C3635 1.524 . S
C3634 H3653 0.913 . S
C3635 H3611 0.950 . S
C3635 C3634 1.524 . S
C3635 C3636 1.415 . S
C3636 H3612 0.950 . S
C3636 C3631 1.363 . S
C3636 C3635 1.415 . S
C3637 H3613 0.951 . S
C3637 C3638 1.366 . S
C3637 C3639 1.388 . S
C3638 C3637 1.366 . S
C3638 C3642 1.385 . S
C3639 H3614 0.951 . S
C3639 C3637 1.388 . S
C3639 C3640 1.366 . S
C3640 C3639 1.366 . S
C3640 C3641 1.414 . S
C3640 C3643 1.499 . S
C3641 H3615 0.950 . S
C3641 C3640 1.414 . S
C3641 C3642 1.374 . S
C3642 H3616 0.950 . S
C3642 C3638 1.385 . S
C3642 C3641 1.374 . S
C3643 C3640 1.499 . S
C3643 C3644 1.373 . S
C3643 C3645 1.389 . S
C3644 H3617 0.950 . S
C3644 C3630 1.377 . S
C3644 C3643 1.373 . S
C3645 C3629 1.377 . S
C3645 C3643 1.389 . S
C3645 C3646 1.524 . S
C3646 C3645 1.524 . S
C3646 C3647 1.397 . S
C3646 C3651 1.363 . S
C3647 H3618 0.950 . S
C3647 C3646 1.397 . S
C3647 C3648 1.334 . S
C3648 H3619 0.950 . S
C3648 C3647 1.334 . S
C3648 C3649 1.287 . S
C3649 C3648 1.287 . S
C3649 C3650 1.524 . S
C3649 H3652 0.999 . S
C3650 H3620 0.950 . S
C3650 C3649 1.524 . S
C3650 C3651 1.415 . S
C3651 H3621 0.950 . S
C3651 C3646 1.363 . S
C3651 C3650 1.415 . S
H3652 C3649 0.999 . S
H3653 C3634 0.913 . S
H3654 C3672 0.951 . S
H3655 C3674 0.951 . S
H3656 C3676 0.950 . S
H3657 C3677 0.950 . S
H3658 C3679 0.950 . S
H3659 C3682 0.950 . S
H3660 C3683 0.950 . S
H3661 C3685 0.950 . S
H3662 C3686 0.950 . S
H3663 C3687 0.951 . S
H3664 C3689 0.951 . S
H3665 C3691 0.950 . S
H3666 C3692 0.950 . S
H3667 C3694 0.950 . S
H3668 C3697 0.950 . S
H3669 C3698 0.950 . S
H3670 C3700 0.950 . S
H3671 C3701 0.950 . S
C3672 H3654 0.951 . S
C3672 C3673 1.366 . S
C3672 C3674 1.388 . S
C3673 C3672 1.366 . S
C3673 C3677 1.385 . S
C3674 H3655 0.951 . S
C3674 C3672 1.388 . S
C3674 C3675 1.366 . S
C3675 C3674 1.366 . S
C3675 C3676 1.414 . S
C3675 C3678 1.499 . S
C3676 H3656 0.950 . S
C3676 C3675 1.414 . S
C3676 C3677 1.374 . S
C3677 H3657 0.950 . S
C3677 C3673 1.385 . S
C3677 C3676 1.374 . S
C3678 C3675 1.499 . S
C3678 C3679 1.373 . S
C3678 C3680 1.389 . S
C3679 H3658 0.950 . S
C3679 C3678 1.373 . S
C3679 C3695 1.377 . S
C3680 C3678 1.389 . S
C3680 C3681 1.524 . S
C3680 C3694 1.377 . S
C3681 C3680 1.524 . S
C3681 C3682 1.397 . S
C3681 C3686 1.363 . S
C3682 H3659 0.950 . S
C3682 C3681 1.397 . S
C3682 C3683 1.334 . S
C3683 H3660 0.950 . S
C3683 C3682 1.334 . S
C3683 C3684 1.287 . S
C3684 C3683 1.287 . S
C3684 C3685 1.524 . S
C3684 H3703 0.913 . S
C3685 H3661 0.950 . S
C3685 C3684 1.524 . S
C3685 C3686 1.415 . S
C3686 H3662 0.950 . S
C3686 C3681 1.363 . S
C3686 C3685 1.415 . S
C3687 H3663 0.951 . S
C3687 C3688 1.366 . S
C3687 C3689 1.388 1_556 S
C3688 C3687 1.366 . S
C3688 C3692 1.385 . S
C3689 H3664 0.951 . S
C3689 C3687 1.388 1_554 S
C3689 C3690 1.366 . S
C3690 C3689 1.366 . S
C3690 C3691 1.414 . S
C3690 C3693 1.499 . S
C3691 H3665 0.950 . S
C3691 C3690 1.414 . S
C3691 C3692 1.374 1_554 S
C3692 H3666 0.950 . S
C3692 C3688 1.385 . S
C3692 C3691 1.374 1_556 S
C3693 C3690 1.499 . S
C3693 C3694 1.373 . S
C3693 C3695 1.389 . S
C3694 H3667 0.950 . S
C3694 C3680 1.377 . S
C3694 C3693 1.373 . S
C3695 C3679 1.377 . S
C3695 C3693 1.389 . S
C3695 C3696 1.524 . S
C3696 C3695 1.524 . S
C3696 C3697 1.397 . S
C3696 C3701 1.363 . S
C3697 H3668 0.950 . S
C3697 C3696 1.397 . S
C3697 C3698 1.334 . S
C3698 H3669 0.950 . S
C3698 C3697 1.334 . S
C3698 C3699 1.287 . S
C3699 C3698 1.287 . S
C3699 C3700 1.524 . S
C3699 H3702 0.999 . S
C3700 H3670 0.950 . S
C3700 C3699 1.524 . S
C3700 C3701 1.415 . S
C3701 H3671 0.950 . S
C3701 C3696 1.363 . S
C3701 C3700 1.415 . S
H3702 C3699 0.999 . S
H3703 C3684 0.913 . S
H3704 C3722 0.951 . S
H3705 C3724 0.951 . S
H3706 C3726 0.950 . S
H3707 C3727 0.950 . S
H3708 C3729 0.950 . S
H3709 C3732 0.950 . S
H3710 C3733 0.950 . S
H3711 C3735 0.950 . S
H3712 C3736 0.950 . S
H3713 C3737 0.951 . S
H3714 C3739 0.951 . S
H3715 C3741 0.950 . S
H3716 C3742 0.950 . S
H3717 C3744 0.950 . S
H3718 C3747 0.950 . S
H3719 C3748 0.950 . S
H3720 C3750 0.950 . S
H3721 C3751 0.950 . S
C3722 H3704 0.951 . S
C3722 C3723 1.366 . S
C3722 C3724 1.388 . S
C3723 C3722 1.366 . S
C3723 C3727 1.385 . S
C3724 H3705 0.951 . S
C3724 C3722 1.388 . S
C3724 C3725 1.366 . S
C3725 C3724 1.366 . S
C3725 C3726 1.414 . S
C3725 C3728 1.499 . S
C3726 H3706 0.950 . S
C3726 C3725 1.414 . S
C3726 C3727 1.374 . S
C3727 H3707 0.950 . S
C3727 C3723 1.385 . S
C3727 C3726 1.374 . S
C3728 C3725 1.499 . S
C3728 C3729 1.373 . S
C3728 C3730 1.389 . S
C3729 H3708 0.950 . S
C3729 C3728 1.373 . S
C3729 C3745 1.377 . S
C3730 C3728 1.389 . S
C3730 C3731 1.524 . S
C3730 C3744 1.377 . S
C3731 C3730 1.524 . S
C3731 C3732 1.397 . S
C3731 C3736 1.363 . S
C3732 H3709 0.950 . S
C3732 C3731 1.397 . S
C3732 C3733 1.334 . S
C3733 H3710 0.950 . S
C3733 C3732 1.334 . S
C3733 C3734 1.287 . S
C3734 C3733 1.287 . S
C3734 C3735 1.524 . S
C3734 H3753 0.913 . S
C3735 H3711 0.950 . S
C3735 C3734 1.524 . S
C3735 C3736 1.415 . S
C3736 H3712 0.950 . S
C3736 C3731 1.363 . S
C3736 C3735 1.415 . S
C3737 H3713 0.951 . S
C3737 C3738 1.366 . S
C3737 C3739 1.388 1_556 S
C3738 C3737 1.366 . S
C3738 C3742 1.385 . S
C3739 H3714 0.951 . S
C3739 C3737 1.388 1_554 S
C3739 C3740 1.366 . S
C3740 C3739 1.366 . S
C3740 C3741 1.414 . S
C3740 C3743 1.499 . S
C3741 H3715 0.950 . S
C3741 C3740 1.414 . S
C3741 C3742 1.374 1_554 S
C3742 H3716 0.950 . S
C3742 C3738 1.385 . S
C3742 C3741 1.374 1_556 S
C3743 C3740 1.499 . S
C3743 C3744 1.373 . S
C3743 C3745 1.389 . S
C3744 H3717 0.950 . S
C3744 C3730 1.377 . S
C3744 C3743 1.373 . S
C3745 C3729 1.377 . S
C3745 C3743 1.389 . S
C3745 C3746 1.524 . S
C3746 C3745 1.524 . S
C3746 C3747 1.397 . S
C3746 C3751 1.363 . S
C3747 H3718 0.950 . S
C3747 C3746 1.397 . S
C3747 C3748 1.334 . S
C3748 H3719 0.950 . S
C3748 C3747 1.334 . S
C3748 C3749 1.287 . S
C3749 C3748 1.287 . S
C3749 C3750 1.524 . S
C3749 H3752 0.999 . S
C3750 H3720 0.950 . S
C3750 C3749 1.524 . S
C3750 C3751 1.415 . S
C3751 H3721 0.950 . S
C3751 C3746 1.363 . S
C3751 C3750 1.415 . S
H3752 C3749 0.999 . S
H3753 C3734 0.913 . S
H3754 C3772 0.951 . S
H3755 C3774 0.951 . S
H3756 C3776 0.950 . S
H3757 C3777 0.950 . S
H3758 C3779 0.950 . S
H3759 C3782 0.950 . S
H3760 C3783 0.950 . S
H3761 C3785 0.950 . S
H3762 C3786 0.950 . S
H3763 C3787 0.951 . S
H3764 C3789 0.951 . S
H3765 C3791 0.950 . S
H3766 C3792 0.950 . S
H3767 C3794 0.950 . S
H3768 C3797 0.950 . S
H3769 C3798 0.950 . S
H3770 C3800 0.950 . S
H3771 C3801 0.950 . S
C3772 H3754 0.951 . S
C3772 C3773 1.366 . S
C3772 C3774 1.388 . S
C3773 C3772 1.366 . S
C3773 C3777 1.385 . S
C3774 H3755 0.951 . S
C3774 C3772 1.388 . S
C3774 C3775 1.366 . S
C3775 C3774 1.366 . S
C3775 C3776 1.414 . S
C3775 C3778 1.499 . S
C3776 H3756 0.950 . S
C3776 C3775 1.414 . S
C3776 C3777 1.374 . S
C3777 H3757 0.950 . S
C3777 C3773 1.385 . S
C3777 C3776 1.374 . S
C3778 C3775 1.499 . S
C3778 C3779 1.373 . S
C3778 C3780 1.389 . S
C3779 H3758 0.950 . S
C3779 C3778 1.373 . S
C3779 C3795 1.377 . S
C3780 C3778 1.389 . S
C3780 C3781 1.524 . S
C3780 C3794 1.377 . S
C3781 C3780 1.524 . S
C3781 C3782 1.397 . S
C3781 C3786 1.363 . S
C3782 H3759 0.950 . S
C3782 C3781 1.397 . S
C3782 C3783 1.334 . S
C3783 H3760 0.950 . S
C3783 C3782 1.334 . S
C3783 C3784 1.287 . S
C3784 C3783 1.287 . S
C3784 C3785 1.524 . S
C3784 H3803 0.913 . S
C3785 H3761 0.950 . S
C3785 C3784 1.524 . S
C3785 C3786 1.415 . S
C3786 H3762 0.950 . S
C3786 C3781 1.363 . S
C3786 C3785 1.415 . S
C3787 H3763 0.951 . S
C3787 C3788 1.366 . S
C3787 C3789 1.388 1_556 S
C3788 C3787 1.366 . S
C3788 C3792 1.385 . S
C3789 H3764 0.951 . S
C3789 C3787 1.388 1_554 S
C3789 C3790 1.366 . S
C3790 C3789 1.366 . S
C3790 C3791 1.414 . S
C3790 C3793 1.499 . S
C3791 H3765 0.950 . S
C3791 C3790 1.414 . S
C3791 C3792 1.374 1_554 S
C3792 H3766 0.950 . S
C3792 C3788 1.385 . S
C3792 C3791 1.374 1_556 S
C3793 C3790 1.499 . S
C3793 C3794 1.373 . S
C3793 C3795 1.389 . S
C3794 H3767 0.950 . S
C3794 C3780 1.377 . S
C3794 C3793 1.373 . S
C3795 C3779 1.377 . S
C3795 C3793 1.389 . S
C3795 C3796 1.524 . S
C3796 C3795 1.524 . S
C3796 C3797 1.397 . S
C3796 C3801 1.363 . S
C3797 H3768 0.950 . S
C3797 C3796 1.397 . S
C3797 C3798 1.334 . S
C3798 H3769 0.950 . S
C3798 C3797 1.334 . S
C3798 C3799 1.287 . S
C3799 C3798 1.287 . S
C3799 C3800 1.524 . S
C3799 H3802 0.999 . S
C3800 H3770 0.950 . S
C3800 C3799 1.524 . S
C3800 C3801 1.415 . S
C3801 H3771 0.950 . S
C3801 C3796 1.363 . S
C3801 C3800 1.415 . S
H3802 C3799 0.999 . S
H3803 C3784 0.913 . S
H3804 C3822 0.951 . S
H3805 C3824 0.951 . S
H3806 C3826 0.950 . S
H3807 C3827 0.950 . S
H3808 C3829 0.950 . S
H3809 C3832 0.950 . S
H3810 C3833 0.950 . S
H3811 C3835 0.950 . S
H3812 C3836 0.950 . S
H3813 C3837 0.951 . S
H3814 C3839 0.951 . S
H3815 C3841 0.950 . S
H3816 C3842 0.950 . S
H3817 C3844 0.950 . S
H3818 C3847 0.950 . S
H3819 C3848 0.950 . S
H3820 C3850 0.950 . S
H3821 C3851 0.950 . S
C3822 H3804 0.951 . S
C3822 C3823 1.366 . S
C3822 C3824 1.388 1_554 S
C3823 C3822 1.366 . S
C3823 C3827 1.385 . S
C3824 H3805 0.951 . S
C3824 C3822 1.388 1_556 S
C3824 C3825 1.366 . S
C3825 C3824 1.366 . S
C3825 C3826 1.414 . S
C3825 C3828 1.499 . S
C3826 H3806 0.950 . S
C3826 C3825 1.414 . S
C3826 C3827 1.374 1_556 S
C3827 H3807 0.950 . S
C3827 C3823 1.385 . S
C3827 C3826 1.374 1_554 S
C3828 C3825 1.499 . S
C3828 C3829 1.373 . S
C3828 C3830 1.389 . S
C3829 H3808 0.950 . S
C3829 C3828 1.373 . S
C3829 C3845 1.377 . S
C3830 C3828 1.389 . S
C3830 C3831 1.524 . S
C3830 C3844 1.377 . S
C3831 C3830 1.524 . S
C3831 C3832 1.397 . S
C3831 C3836 1.363 . S
C3832 H3809 0.950 . S
C3832 C3831 1.397 . S
C3832 C3833 1.334 . S
C3833 H3810 0.950 . S
C3833 C3832 1.334 . S
C3833 C3834 1.287 . S
C3834 C3833 1.287 . S
C3834 C3835 1.524 . S
C3834 H3853 0.913 . S
C3835 H3811 0.950 . S
C3835 C3834 1.524 . S
C3835 C3836 1.415 . S
C3836 H3812 0.950 . S
C3836 C3831 1.363 . S
C3836 C3835 1.415 . S
C3837 H3813 0.951 . S
C3837 C3838 1.366 . S
C3837 C3839 1.388 . S
C3838 C3837 1.366 . S
C3838 C3842 1.385 . S
C3839 H3814 0.951 . S
C3839 C3837 1.388 . S
C3839 C3840 1.366 . S
C3840 C3839 1.366 . S
C3840 C3841 1.414 . S
C3840 C3843 1.499 . S
C3841 H3815 0.950 . S
C3841 C3840 1.414 . S
C3841 C3842 1.374 . S
C3842 H3816 0.950 . S
C3842 C3838 1.385 . S
C3842 C3841 1.374 . S
C3843 C3840 1.499 . S
C3843 C3844 1.373 . S
C3843 C3845 1.389 . S
C3844 H3817 0.950 . S
C3844 C3830 1.377 . S
C3844 C3843 1.373 . S
C3845 C3829 1.377 . S
C3845 C3843 1.389 . S
C3845 C3846 1.524 . S
C3846 C3845 1.524 . S
C3846 C3847 1.397 . S
C3846 C3851 1.363 . S
C3847 H3818 0.950 . S
C3847 C3846 1.397 . S
C3847 C3848 1.334 . S
C3848 H3819 0.950 . S
C3848 C3847 1.334 . S
C3848 C3849 1.287 . S
C3849 C3848 1.287 . S
C3849 C3850 1.524 . S
C3849 H3852 0.999 . S
C3850 H3820 0.950 . S
C3850 C3849 1.524 . S
C3850 C3851 1.415 . S
C3851 H3821 0.950 . S
C3851 C3846 1.363 . S
C3851 C3850 1.415 . S
H3852 C3849 0.999 . S
H3853 C3834 0.913 . S
H3854 C3872 0.951 . S
H3855 C3874 0.951 . S
H3856 C3876 0.950 . S
H3857 C3877 0.950 . S
H3858 C3879 0.950 . S
H3859 C3882 0.950 . S
H3860 C3883 0.950 . S
H3861 C3885 0.950 . S
H3862 C3886 0.950 . S
H3863 C3887 0.951 . S
H3864 C3889 0.951 . S
H3865 C3891 0.950 . S
H3866 C3892 0.950 . S
H3867 C3894 0.950 . S
H3868 C3897 0.950 . S
H3869 C3898 0.950 . S
H3870 C3900 0.950 . S
H3871 C3901 0.950 . S
C3872 H3854 0.951 . S
C3872 C3873 1.366 . S
C3872 C3874 1.388 1_554 S
C3873 C3872 1.366 . S
C3873 C3877 1.385 . S
C3874 H3855 0.951 . S
C3874 C3872 1.388 1_556 S
C3874 C3875 1.366 . S
C3875 C3874 1.366 . S
C3875 C3876 1.414 . S
C3875 C3878 1.499 . S
C3876 H3856 0.950 . S
C3876 C3875 1.414 . S
C3876 C3877 1.374 1_556 S
C3877 H3857 0.950 . S
C3877 C3873 1.385 . S
C3877 C3876 1.374 1_554 S
C3878 C3875 1.499 . S
C3878 C3879 1.373 . S
C3878 C3880 1.389 . S
C3879 H3858 0.950 . S
C3879 C3878 1.373 . S
C3879 C3895 1.377 . S
C3880 C3878 1.389 . S
C3880 C3881 1.524 . S
C3880 C3894 1.377 . S
C3881 C3880 1.524 . S
C3881 C3882 1.397 . S
C3881 C3886 1.363 . S
C3882 H3859 0.950 . S
C3882 C3881 1.397 . S
C3882 C3883 1.334 . S
C3883 H3860 0.950 . S
C3883 C3882 1.334 . S
C3883 C3884 1.287 . S
C3884 C3883 1.287 . S
C3884 C3885 1.524 . S
C3884 H3903 0.913 . S
C3885 H3861 0.950 . S
C3885 C3884 1.524 . S
C3885 C3886 1.415 . S
C3886 H3862 0.950 . S
C3886 C3881 1.363 . S
C3886 C3885 1.415 . S
C3887 H3863 0.951 . S
C3887 C3888 1.366 . S
C3887 C3889 1.388 . S
C3888 C3887 1.366 . S
C3888 C3892 1.385 . S
C3889 H3864 0.951 . S
C3889 C3887 1.388 . S
C3889 C3890 1.366 . S
C3890 C3889 1.366 . S
C3890 C3891 1.414 . S
C3890 C3893 1.499 . S
C3891 H3865 0.950 . S
C3891 C3890 1.414 . S
C3891 C3892 1.374 . S
C3892 H3866 0.950 . S
C3892 C3888 1.385 . S
C3892 C3891 1.374 . S
C3893 C3890 1.499 . S
C3893 C3894 1.373 . S
C3893 C3895 1.389 . S
C3894 H3867 0.950 . S
C3894 C3880 1.377 . S
C3894 C3893 1.373 . S
C3895 C3879 1.377 . S
C3895 C3893 1.389 . S
C3895 C3896 1.524 . S
C3896 C3895 1.524 . S
C3896 C3897 1.397 . S
C3896 C3901 1.363 . S
C3897 H3868 0.950 . S
C3897 C3896 1.397 . S
C3897 C3898 1.334 . S
C3898 H3869 0.950 . S
C3898 C3897 1.334 . S
C3898 C3899 1.287 . S
C3899 C3898 1.287 . S
C3899 C3900 1.524 . S
C3899 H3902 0.999 . S
C3900 H3870 0.950 . S
C3900 C3899 1.524 . S
C3900 C3901 1.415 . S
C3901 H3871 0.950 . S
C3901 C3896 1.363 . S
C3901 C3900 1.415 . S
H3902 C3899 0.999 . S
H3903 C3884 0.913 . S
H3904 C3922 0.951 . S
H3905 C3924 0.951 . S
H3906 C3926 0.950 . S
H3907 C3927 0.950 . S
H3908 C3929 0.950 . S
H3909 C3932 0.950 . S
H3910 C3933 0.950 . S
H3911 C3935 0.950 . S
H3912 C3936 0.950 . S
H3913 C3937 0.951 . S
H3914 C3939 0.951 . S
H3915 C3941 0.950 . S
H3916 C3942 0.950 . S
H3917 C3944 0.950 . S
H3918 C3947 0.950 . S
H3919 C3948 0.950 . S
H3920 C3950 0.950 . S
H3921 C3951 0.950 . S
C3922 H3904 0.951 . S
C3922 C3923 1.366 . S
C3922 C3924 1.388 1_554 S
C3923 C3922 1.366 . S
C3923 C3927 1.385 . S
C3924 H3905 0.951 . S
C3924 C3922 1.388 1_556 S
C3924 C3925 1.366 . S
C3925 C3924 1.366 . S
C3925 C3926 1.414 . S
C3925 C3928 1.499 . S
C3926 H3906 0.950 . S
C3926 C3925 1.414 . S
C3926 C3927 1.374 1_556 S
C3927 H3907 0.950 . S
C3927 C3923 1.385 . S
C3927 C3926 1.374 1_554 S
C3928 C3925 1.499 . S
C3928 C3929 1.373 . S
C3928 C3930 1.389 . S
C3929 H3908 0.950 . S
C3929 C3928 1.373 . S
C3929 C3945 1.377 . S
C3930 C3928 1.389 . S
C3930 C3931 1.524 . S
C3930 C3944 1.377 . S
C3931 C3930 1.524 . S
C3931 C3932 1.397 . S
C3931 C3936 1.363 . S
C3932 H3909 0.950 . S
C3932 C3931 1.397 . S
C3932 C3933 1.334 . S
C3933 H3910 0.950 . S
C3933 C3932 1.334 . S
C3933 C3934 1.287 . S
C3934 C3933 1.287 . S
C3934 C3935 1.524 . S
C3934 H3953 0.913 . S
C3935 H3911 0.950 . S
C3935 C3934 1.524 . S
C3935 C3936 1.415 . S
C3936 H3912 0.950 . S
C3936 C3931 1.363 . S
C3936 C3935 1.415 . S
C3937 H3913 0.951 . S
C3937 C3938 1.366 . S
C3937 C3939 1.388 . S
C3938 C3937 1.366 . S
C3938 C3942 1.385 . S
C3939 H3914 0.951 . S
C3939 C3937 1.388 . S
C3939 C3940 1.366 . S
C3940 C3939 1.366 . S
C3940 C3941 1.414 . S
C3940 C3943 1.499 . S
C3941 H3915 0.950 . S
C3941 C3940 1.414 . S
C3941 C3942 1.374 . S
C3942 H3916 0.950 . S
C3942 C3938 1.385 . S
C3942 C3941 1.374 . S
C3943 C3940 1.499 . S
C3943 C3944 1.373 . S
C3943 C3945 1.389 . S
C3944 H3917 0.950 . S
C3944 C3930 1.377 . S
C3944 C3943 1.373 . S
C3945 C3929 1.377 . S
C3945 C3943 1.389 . S
C3945 C3946 1.524 . S
C3946 C3945 1.524 . S
C3946 C3947 1.397 . S
C3946 C3951 1.363 . S
C3947 H3918 0.950 . S
C3947 C3946 1.397 . S
C3947 C3948 1.334 . S
C3948 H3919 0.950 . S
C3948 C3947 1.334 . S
C3948 C3949 1.287 . S
C3949 C3948 1.287 . S
C3949 C3950 1.524 . S
C3949 H3952 0.999 . S
C3950 H3920 0.950 . S
C3950 C3949 1.524 . S
C3950 C3951 1.415 . S
C3951 H3921 0.950 . S
C3951 C3946 1.363 . S
C3951 C3950 1.415 . S
H3952 C3949 0.999 . S
H3953 C3934 0.913 . S
H3954 C3972 0.951 . S
H3955 C3974 0.951 . S
H3956 C3976 0.950 . S
H3957 C3977 0.950 . S
H3958 C3979 0.950 . S
H3959 C3982 0.950 . S
H3960 C3983 0.950 . S
H3961 C3985 0.950 . S
H3962 C3986 0.950 . S
H3963 C3987 0.951 . S
H3964 C3989 0.951 . S
H3965 C3991 0.950 . S
H3966 C3992 0.950 . S
H3967 C3994 0.950 . S
H3968 C3997 0.950 . S
H3969 C3998 0.950 . S
H3970 C4000 0.950 . S
H3971 C4001 0.950 . S
C3972 H3954 0.951 . S
C3972 C3973 1.366 . S
C3972 C3974 1.388 . S
C3973 C3972 1.366 . S
C3973 C3977 1.385 . S
C3974 H3955 0.951 . S
C3974 C3972 1.388 . S
C3974 C3975 1.366 . S
C3975 C3974 1.366 . S
C3975 C3976 1.414 . S
C3975 C3978 1.499 . S
C3976 H3956 0.950 . S
C3976 C3975 1.414 . S
C3976 C3977 1.374 . S
C3977 H3957 0.950 . S
C3977 C3973 1.385 . S
C3977 C3976 1.374 . S
C3978 C3975 1.499 . S
C3978 C3979 1.373 . S
C3978 C3980 1.389 . S
C3979 H3958 0.950 . S
C3979 C3978 1.373 . S
C3979 C3995 1.377 . S
C3980 C3978 1.389 . S
C3980 C3981 1.524 . S
C3980 C3994 1.377 . S
C3981 C3980 1.524 . S
C3981 C3982 1.397 . S
C3981 C3986 1.363 . S
C3982 H3959 0.950 . S
C3982 C3981 1.397 . S
C3982 C3983 1.334 . S
C3983 H3960 0.950 . S
C3983 C3982 1.334 . S
C3983 C3984 1.287 . S
C3984 C3983 1.287 . S
C3984 C3985 1.524 . S
C3984 H4003 0.913 . S
C3985 H3961 0.950 . S
C3985 C3984 1.524 . S
C3985 C3986 1.415 . S
C3986 H3962 0.950 . S
C3986 C3981 1.363 . S
C3986 C3985 1.415 . S
C3987 H3963 0.951 . S
C3987 C3988 1.366 . S
C3987 C3989 1.388 . S
C3988 C3987 1.366 . S
C3988 C3992 1.385 . S
C3989 H3964 0.951 . S
C3989 C3987 1.388 . S
C3989 C3990 1.366 . S
C3990 C3989 1.366 . S
C3990 C3991 1.414 . S
C3990 C3993 1.499 . S
C3991 H3965 0.950 . S
C3991 C3990 1.414 . S
C3991 C3992 1.374 . S
C3992 H3966 0.950 . S
C3992 C3988 1.385 . S
C3992 C3991 1.374 . S
C3993 C3990 1.499 . S
C3993 C3994 1.373 . S
C3993 C3995 1.389 . S
C3994 H3967 0.950 . S
C3994 C3980 1.377 . S
C3994 C3993 1.373 . S
C3995 C3979 1.377 . S
C3995 C3993 1.389 . S
C3995 C3996 1.524 . S
C3996 C3995 1.524 . S
C3996 C3997 1.397 . S
C3996 C4001 1.363 . S
C3997 H3968 0.950 . S
C3997 C3996 1.397 . S
C3997 C3998 1.334 . S
C3998 H3969 0.950 . S
C3998 C3997 1.334 . S
C3998 C3999 1.287 . S
C3999 C3998 1.287 . S
C3999 C4000 1.524 . S
C3999 H4002 0.999 . S
C4000 H3970 0.950 . S
C4000 C3999 1.524 . S
C4000 C4001 1.415 . S
C4001 H3971 0.950 . S
C4001 C3996 1.363 . S
C4001 C4000 1.415 . S
H4002 C3999 0.999 . S
H4003 C3984 0.913 . S
H4004 C4022 0.951 . S
H4005 C4024 0.951 . S
H4006 C4026 0.950 . S
H4007 C4027 0.950 . S
H4008 C4029 0.950 . S
H4009 C4032 0.950 . S
H4010 C4033 0.950 . S
H4011 C4035 0.950 . S
H4012 C4036 0.950 . S
H4013 C4037 0.951 . S
H4014 C4039 0.951 . S
H4015 C4041 0.950 . S
H4016 C4042 0.950 . S
H4017 C4044 0.950 . S
H4018 C4047 0.950 . S
H4019 C4048 0.950 . S
H4020 C4050 0.950 . S
H4021 C4051 0.950 . S
C4022 H4004 0.951 . S
C4022 C4023 1.366 . S
C4022 C4024 1.388 . S
C4023 C4022 1.366 . S
C4023 C4027 1.385 . S
C4024 H4005 0.951 . S
C4024 C4022 1.388 . S
C4024 C4025 1.366 . S
C4025 C4024 1.366 . S
C4025 C4026 1.414 . S
C4025 C4028 1.499 . S
C4026 H4006 0.950 . S
C4026 C4025 1.414 . S
C4026 C4027 1.374 . S
C4027 H4007 0.950 . S
C4027 C4023 1.385 . S
C4027 C4026 1.374 . S
C4028 C4025 1.499 . S
C4028 C4029 1.373 . S
C4028 C4030 1.389 . S
C4029 H4008 0.950 . S
C4029 C4028 1.373 . S
C4029 C4045 1.377 . S
C4030 C4028 1.389 . S
C4030 C4031 1.524 . S
C4030 C4044 1.377 . S
C4031 C4030 1.524 . S
C4031 C4032 1.397 . S
C4031 C4036 1.363 . S
C4032 H4009 0.950 . S
C4032 C4031 1.397 . S
C4032 C4033 1.334 . S
C4033 H4010 0.950 . S
C4033 C4032 1.334 . S
C4033 C4034 1.287 . S
C4034 C4033 1.287 . S
C4034 C4035 1.524 . S
C4034 H4053 0.913 . S
C4035 H4011 0.950 . S
C4035 C4034 1.524 . S
C4035 C4036 1.415 . S
C4036 H4012 0.950 . S
C4036 C4031 1.363 . S
C4036 C4035 1.415 . S
C4037 H4013 0.951 . S
C4037 C4038 1.366 . S
C4037 C4039 1.388 . S
C4038 C4037 1.366 . S
C4038 C4042 1.385 . S
C4039 H4014 0.951 . S
C4039 C4037 1.388 . S
C4039 C4040 1.366 . S
C4040 C4039 1.366 . S
C4040 C4041 1.414 . S
C4040 C4043 1.499 . S
C4041 H4015 0.950 . S
C4041 C4040 1.414 . S
C4041 C4042 1.374 . S
C4042 H4016 0.950 . S
C4042 C4038 1.385 . S
C4042 C4041 1.374 . S
C4043 C4040 1.499 . S
C4043 C4044 1.373 . S
C4043 C4045 1.389 . S
C4044 H4017 0.950 . S
C4044 C4030 1.377 . S
C4044 C4043 1.373 . S
C4045 C4029 1.377 . S
C4045 C4043 1.389 . S
C4045 C4046 1.524 . S
C4046 C4045 1.524 . S
C4046 C4047 1.397 . S
C4046 C4051 1.363 . S
C4047 H4018 0.950 . S
C4047 C4046 1.397 . S
C4047 C4048 1.334 . S
C4048 H4019 0.950 . S
C4048 C4047 1.334 . S
C4048 C4049 1.287 . S
C4049 C4048 1.287 . S
C4049 C4050 1.524 . S
C4049 H4052 0.999 . S
C4050 H4020 0.950 . S
C4050 C4049 1.524 . S
C4050 C4051 1.415 . S
C4051 H4021 0.950 . S
C4051 C4046 1.363 . S
C4051 C4050 1.415 . S
H4052 C4049 0.999 . S
H4053 C4034 0.913 . S
H4054 C4072 0.951 . S
H4055 C4074 0.951 . S
H4056 C4076 0.950 . S
H4057 C4077 0.950 . S
H4058 C4079 0.950 . S
H4059 C4082 0.950 . S
H4060 C4083 0.950 . S
H4061 C4085 0.950 . S
H4062 C4086 0.950 . S
H4063 C4087 0.951 . S
H4064 C4089 0.951 . S
H4065 C4091 0.950 . S
H4066 C4092 0.950 . S
H4067 C4094 0.950 . S
H4068 C4097 0.950 . S
H4069 C4098 0.950 . S
H4070 C4100 0.950 . S
H4071 C4101 0.950 . S
C4072 H4054 0.951 . S
C4072 C4073 1.366 . S
C4072 C4074 1.388 . S
C4073 C4072 1.366 . S
C4073 C4077 1.385 . S
C4074 H4055 0.951 . S
C4074 C4072 1.388 . S
C4074 C4075 1.366 . S
C4075 C4074 1.366 . S
C4075 C4076 1.414 . S
C4075 C4078 1.499 . S
C4076 H4056 0.950 . S
C4076 C4075 1.414 . S
C4076 C4077 1.374 . S
C4077 H4057 0.950 . S
C4077 C4073 1.385 . S
C4077 C4076 1.374 . S
C4078 C4075 1.499 . S
C4078 C4079 1.373 . S
C4078 C4080 1.389 . S
C4079 H4058 0.950 . S
C4079 C4078 1.373 . S
C4079 C4095 1.377 . S
C4080 C4078 1.389 . S
C4080 C4081 1.524 . S
C4080 C4094 1.377 . S
C4081 C4080 1.524 . S
C4081 C4082 1.397 . S
C4081 C4086 1.363 . S
C4082 H4059 0.950 . S
C4082 C4081 1.397 . S
C4082 C4083 1.334 . S
C4083 H4060 0.950 . S
C4083 C4082 1.334 . S
C4083 C4084 1.287 . S
C4084 C4083 1.287 . S
C4084 C4085 1.524 . S
C4084 H4103 0.913 . S
C4085 H4061 0.950 . S
C4085 C4084 1.524 . S
C4085 C4086 1.415 . S
C4086 H4062 0.950 . S
C4086 C4081 1.363 . S
C4086 C4085 1.415 . S
C4087 H4063 0.951 . S
C4087 C4088 1.366 . S
C4087 C4089 1.388 . S
C4088 C4087 1.366 . S
C4088 C4092 1.385 . S
C4089 H4064 0.951 . S
C4089 C4087 1.388 . S
C4089 C4090 1.366 . S
C4090 C4089 1.366 . S
C4090 C4091 1.414 . S
C4090 C4093 1.499 . S
C4091 H4065 0.950 . S
C4091 C4090 1.414 . S
C4091 C4092 1.374 . S
C4092 H4066 0.950 . S
C4092 C4088 1.385 . S
C4092 C4091 1.374 . S
C4093 C4090 1.499 . S
C4093 C4094 1.373 . S
C4093 C4095 1.389 . S
C4094 H4067 0.950 . S
C4094 C4080 1.377 . S
C4094 C4093 1.373 . S
C4095 C4079 1.377 . S
C4095 C4093 1.389 . S
C4095 C4096 1.524 . S
C4096 C4095 1.524 . S
C4096 C4097 1.397 . S
C4096 C4101 1.363 . S
C4097 H4068 0.950 . S
C4097 C4096 1.397 . S
C4097 C4098 1.334 . S
C4098 H4069 0.950 . S
C4098 C4097 1.334 . S
C4098 C4099 1.287 . S
C4099 C4098 1.287 . S
C4099 C4100 1.524 . S
C4099 H4102 0.999 . S
C4100 H4070 0.950 . S
C4100 C4099 1.524 . S
C4100 C4101 1.415 . S
C4101 H4071 0.950 . S
C4101 C4096 1.363 . S
C4101 C4100 1.415 . S
H4102 C4099 0.999 . S
H4103 C4084 0.913 . S
C523 C235 0.992 . S
C538 C11 0.993 1_556 S
C573 C249 0.992 . S
C588 C25 0.992 1_556 S
C623 C39 0.993 1_556 S
C638 C221 0.992 . S
C673 C375 0.992 . S
C688 C53 0.992 . S
C723 C347 0.992 . S
C738 C67 0.992 . S
C773 C81 0.992 . S
C788 C361 0.992 . S
C823 C487 0.993 . S
C838 C95 0.992 1_554 S
C873 C501 0.991 . S
C888 C109 0.992 1_554 S
C923 C473 0.992 . S
C938 C123 0.993 1_554 S
C973 C291 0.992 . S
C988 C137 0.992 . S
C1023 C151 0.992 . S
C1038 C263 0.992 . S
C1073 C277 0.992 . S
C1088 C165 0.991 . S
C1123 C403 0.993 . S
C1138 C179 0.992 . S
C1173 C193 0.992 . S
C1188 C417 0.992 . S
C1223 C389 0.993 . S
C1238 C207 0.992 . S
C1273 C459 0.992 . S
C1288 C305 0.993 . S
C1323 C431 0.992 . S
C1338 C319 0.993 . S
C1373 C333 0.992 . S
C1388 C445 0.992 . S
C1423 C98 1.525 . S
C1438 C9 1.538 . S
C1473 C112 1.525 . S
C1488 C23 1.538 . S
C1523 C84 1.525 . S
C1538 C37 1.537 . S
C1573 C51 1.538 . S
C1588 C154 1.525 . S
C1623 C126 1.525 . S
C1638 C65 1.538 . S
C1673 C79 1.538 . S
C1688 C140 1.525 . S
C1723 C14 1.525 . S
C1738 C93 1.538 . S
C1773 C107 1.538 . S
C1788 C28 1.525 . S
C1823 C0 1.525 . S
C1838 C121 1.538 . S
C1873 C70 1.525 . S
C1888 C135 1.538 . S
C1923 C42 1.525 . S
C1938 C149 1.538 . S
C1973 C163 1.538 . S
C1988 C56 1.525 . S
C2023 C177 1.538 . S
C2038 C266 1.525 . S
C2073 C280 1.525 . S
C2088 C191 1.538 . S
C2123 C252 1.524 . S
C2138 C205 1.538 . S
C2173 C219 1.538 . S
C2188 C322 1.525 . S
C2223 C294 1.524 . S
C2238 C233 1.538 . S
C2273 C247 1.538 . S
C2288 C308 1.525 . S
C2323 C261 1.538 . S
C2338 C182 1.525 . S
C2373 C275 1.538 . S
C2388 C196 1.525 . S
C2423 C168 1.524 . S
C2438 C289 1.537 . S
C2473 C238 1.525 . S
C2488 C303 1.538 . S
C2523 C210 1.525 . S
C2538 C317 1.538 . S
C2573 C331 1.538 . S
C2588 C224 1.525 . S
C2623 C434 1.525 . S
C2638 C345 1.537 . S
C2673 C359 1.538 . S
C2688 C448 1.525 . S
C2723 C373 1.537 . S
C2738 C420 1.524 . S
C2773 C490 1.525 . S
C2788 C387 1.538 . S
C2823 C401 1.537 . S
C2838 C462 1.525 . S
C2873 C476 1.525 . S
C2888 C415 1.538 . S
C2923 C350 1.525 . S
C2938 C429 1.538 . S
C2973 C364 1.525 . S
C2988 C443 1.538 . S
C3023 C457 1.538 . S
C3038 C336 1.525 . S
C3073 C471 1.538 . S
C3088 C406 1.525 . S
C3123 C378 1.525 . S
C3138 C485 1.537 . S
C3173 C392 1.525 . S
C3188 C499 1.538 . S
C3223 C5 1.609 . S
C3238 C47 1.609 . S
C3273 C19 1.609 . S
C3288 C61 1.609 . S
C3323 C75 1.609 . S
C3338 C33 1.609 . S
C3373 C89 1.609 . S
C3388 C131 1.609 . S
C3423 C145 1.609 . S
C3438 C103 1.609 . S
C3473 C159 1.609 . S
C3488 C117 1.609 . S
C3523 C173 1.609 . S
C3538 C215 1.609 . S
C3573 C187 1.609 . S
C3588 C229 1.609 . S
C3623 C243 1.609 . S
C3638 C201 1.609 . S
C3673 C257 1.609 . S
C3688 C299 1.609 . S
C3723 C271 1.609 . S
C3738 C313 1.609 . S
C3773 C285 1.609 . S
C3788 C327 1.609 . S
C3823 C383 1.609 . S
C3838 C341 1.609 . S
C3873 C397 1.609 . S
C3888 C355 1.609 . S
C3923 C411 1.609 . S
C3938 C369 1.609 . S
C3973 C425 1.609 . S
C3988 C467 1.609 . S
C4023 C481 1.609 . S
C4038 C439 1.609 . S
C4073 C495 1.609 . S
C4088 C453 1.609 . S
