# Generated by pormake.
# Topology wjo, (5)-cn, num edge types: 1
# Building blocks:
#     Node 0, Type 0, BuildingBlock: XOMCOT_clean_sbu_1, # of connection points: 5
#     Node 1, Type 0, BuildingBlock: XOMCOT_clean_sbu_1, # of connection points: 5
#     Node 2, Type 0, BuildingBlock: XOMCOT_clean_sbu_1, # of connection points: 5
#     Node 3, Type 0, BuildingBlock: XOMCOT_clean_sbu_1, # of connection points: 5
#     Node 4, Type 0, BuildingBlock: XOMCOT_clean_sbu_1, # of connection points: 5
#     Node 5, Type 0, BuildingBlock: XOMCOT_clean_sbu_1, # of connection points: 5
#     Node 6, Type 0, BuildingBlock: XOMCOT_clean_sbu_1, # of connection points: 5
#     Node 7, Type 0, BuildingBlock: XOMCOT_clean_sbu_1, # of connection points: 5
#     Node 8, Type 0, BuildingBlock: XOMCOT_clean_sbu_1, # of connection points: 5
#     Node 9, Type 0, BuildingBlock: XOMCOT_clean_sbu_1, # of connection points: 5
#     Node 10, Type 0, BuildingBlock: XOMCOT_clean_sbu_1, # of connection points: 5
#     Node 11, Type 0, BuildingBlock: XOMCOT_clean_sbu_1, # of connection points: 5
#     Edge 12, Type (0, 0), BuildingBlock: ZUJKAS_clean_linker_0, # of connection points: 2
#     Edge 13, Type (0, 0), BuildingBlock: ZUJKAS_clean_linker_0, # of connection points: 2
#     Edge 14, Type (0, 0), BuildingBlock: ZUJKAS_clean_linker_0, # of connection points: 2
#     Edge 15, Type (0, 0), BuildingBlock: ZUJKAS_clean_linker_0, # of connection points: 2
#     Edge 16, Type (0, 0), BuildingBlock: ZUJKAS_clean_linker_0, # of connection points: 2
#     Edge 17, Type (0, 0), BuildingBlock: ZUJKAS_clean_linker_0, # of connection points: 2
#     Edge 18, Type (0, 0), BuildingBlock: ZUJKAS_clean_linker_0, # of connection points: 2
#     Edge 19, Type (0, 0), BuildingBlock: ZUJKAS_clean_linker_0, # of connection points: 2
#     Edge 20, Type (0, 0), BuildingBlock: ZUJKAS_clean_linker_0, # of connection points: 2
#     Edge 21, Type (0, 0), BuildingBlock: ZUJKAS_clean_linker_0, # of connection points: 2
#     Edge 22, Type (0, 0), BuildingBlock: ZUJKAS_clean_linker_0, # of connection points: 2
#     Edge 23, Type (0, 0), BuildingBlock: ZUJKAS_clean_linker_0, # of connection points: 2
#     Edge 24, Type (0, 0), BuildingBlock: ZUJKAS_clean_linker_0, # of connection points: 2
#     Edge 25, Type (0, 0), BuildingBlock: ZUJKAS_clean_linker_0, # of connection points: 2
#     Edge 26, Type (0, 0), BuildingBlock: ZUJKAS_clean_linker_0, # of connection points: 2
#     Edge 27, Type (0, 0), BuildingBlock: ZUJKAS_clean_linker_0, # of connection points: 2
#     Edge 28, Type (0, 0), BuildingBlock: ZUJKAS_clean_linker_0, # of connection points: 2
#     Edge 29, Type (0, 0), BuildingBlock: ZUJKAS_clean_linker_0, # of connection points: 2
#     Edge 30, Type (0, 0), BuildingBlock: ZUJKAS_clean_linker_0, # of connection points: 2
#     Edge 31, Type (0, 0), BuildingBlock: ZUJKAS_clean_linker_0, # of connection points: 2
#     Edge 32, Type (0, 0), BuildingBlock: ZUJKAS_clean_linker_0, # of connection points: 2
#     Edge 33, Type (0, 0), BuildingBlock: ZUJKAS_clean_linker_0, # of connection points: 2
#     Edge 34, Type (0, 0), BuildingBlock: ZUJKAS_clean_linker_0, # of connection points: 2
#     Edge 35, Type (0, 0), BuildingBlock: ZUJKAS_clean_linker_0, # of connection points: 2
#     Edge 36, Type (0, 0), BuildingBlock: ZUJKAS_clean_linker_0, # of connection points: 2
#     Edge 37, Type (0, 0), BuildingBlock: ZUJKAS_clean_linker_0, # of connection points: 2
#     Edge 38, Type (0, 0), BuildingBlock: ZUJKAS_clean_linker_0, # of connection points: 2
#     Edge 39, Type (0, 0), BuildingBlock: ZUJKAS_clean_linker_0, # of connection points: 2
#     Edge 40, Type (0, 0), BuildingBlock: ZUJKAS_clean_linker_0, # of connection points: 2
#     Edge 41, Type (0, 0), BuildingBlock: ZUJKAS_clean_linker_0, # of connection points: 2
# Relax obj value: 0.387
# Max RMSD: 0.202
# Mean RMSD: 0.199
data_MOF--net-wjo--node1-XOMCOT_clean_sbu_1--edge1-ZUJKAS_clean_linker_0
_symmetry_space_group_name_H-M    P1
_symmetry_Int_Tables_number       1
_symmetry_cell_setting            triclinic
loop_
_symmetry_equiv_pos_as_xyz
'x, y, z'
_cell_length_a     60.021829
_cell_length_b     59.911293
_cell_length_c     35.556241
_cell_angle_alpha  89.999157
_cell_angle_beta   89.997808
_cell_angle_gamma 120.06766
loop_
_atom_site_label
_atom_site_type_symbol
_atom_site_fract_x
_atom_site_fract_y
_atom_site_fract_z
_atom_type_partial_charge
C0 C 0.23454 0.35146 0.90047 0.0
C1 C 0.23739 0.33298 0.88173 0.0
N2 N 0.24603 0.32193 0.90635 0.0
N3 N 0.24138 0.3521 0.93668 0.0
C4 C 0.24815 0.33381 0.93954 0.0
H5 H 0.22839 0.36405 0.88838 0.0
Co6 Co 0.24201 0.37549 0.97111 0.0
C7 C 0.269 0.37129 0.0381 0.0
O8 O 0.28196 0.39659 0.04063 0.0
N9 N 0.24147 0.39915 0.0057 0.0
C10 C 0.24267 0.43257 0.03512 0.0
C11 C 0.24753 0.42402 0.0019 0.0
C12 C 0.23187 0.39285 0.04098 0.0
N13 N 0.23293 0.4129 0.05982 0.0
O14 O 0.20717 0.35199 0.98392 0.0
H15 H 0.25448 0.43545 0.97671 0.0
H16 H 0.22471 0.37385 0.05288 0.0
O17 O 0.25284 0.36044 0.01131 0.0
C18 C 0.18948 0.35357 0.96665 0.0
O19 O 0.19583 0.37051 0.9394 0.0
N20 N 0.27632 0.39881 0.95658 0.0
C21 C 0.32608 0.43679 0.93678 0.0
C22 C 0.32164 0.41387 0.95402 0.0
C23 C 0.29655 0.39484 0.96283 0.0
C24 C 0.27993 0.41916 0.93505 0.0
C25 C 0.30471 0.43881 0.92574 0.0
H26 H 0.2936 0.37708 0.97503 0.0
H27 H 0.26347 0.42043 0.92566 0.0
H28 H 0.25551 0.32995 0.965 0.0
H29 H 0.23362 0.32824 0.85218 0.0
H30 H 0.24576 0.4517 0.04036 0.0
H31 H 0.33743 0.41073 0.96093 0.0
H32 H 0.30702 0.45571 0.91116 0.0
C33 C 0.88517 0.23275 0.06677 0.0
C34 C 0.90628 0.23488 0.0483 0.0
N35 N 0.92659 0.24585 0.07187 0.0
N36 N 0.89213 0.24235 0.10175 0.0
C37 C 0.91744 0.25009 0.10416 0.0
H38 H 0.86601 0.22505 0.05533 0.0
Co39 Co 0.86997 0.24469 0.13537 0.0
C40 C 0.90037 0.26912 0.20409 0.0
O41 O 0.88901 0.28296 0.2069 0.0
N42 N 0.84639 0.24608 0.16927 0.0
C43 C 0.8175 0.25249 0.19939 0.0
C44 C 0.83117 0.2567 0.16655 0.0
C45 C 0.84069 0.23467 0.20349 0.0
N46 N 0.82362 0.23867 0.2226 0.0
O47 O 0.85589 0.20914 0.14759 0.0
H48 H 0.82966 0.26684 0.14258 0.0
H49 H 0.84981 0.22445 0.21483 0.0
O50 O 0.89505 0.25361 0.17638 0.0
C51 C 0.83404 0.19345 0.13354 0.0
O52 O 0.82312 0.20241 0.11073 0.0
N53 N 0.88338 0.2794 0.12098 0.0
C54 C 0.89691 0.32948 0.10007 0.0
C55 C 0.91422 0.3247 0.12012 0.0
C56 C 0.90732 0.29941 0.12954 0.0
C57 C 0.86797 0.28335 0.09707 0.0
C58 C 0.87398 0.30829 0.08705 0.0
H59 H 0.92123 0.29619 0.14403 0.0
H60 H 0.8502 0.26704 0.08723 0.0
H61 H 0.92918 0.2595 0.12858 0.0
H62 H 0.90665 0.2289 0.01969 0.0
H63 H 0.80407 0.25905 0.20564 0.0
H64 H 0.9328 0.34037 0.12888 0.0
H65 H 0.86022 0.31087 0.0707 0.0
C66 C 0.65587 0.88529 0.23206 0.0
C67 C 0.67435 0.90745 0.21486 0.0
N68 N 0.68007 0.9275 0.23783 0.0
N69 N 0.65011 0.89131 0.26581 0.0
C70 C 0.6651 0.91719 0.26852 0.0
H71 H 0.64699 0.86601 0.22056 0.0
Co72 Co 0.62614 0.86742 0.29876 0.0
C73 C 0.62873 0.8966 0.36763 0.0
O74 O 0.60349 0.88331 0.37027 0.0
N75 N 0.60201 0.84236 0.33203 0.0
C76 C 0.56771 0.81163 0.36199 0.0
C77 C 0.57653 0.82529 0.32895 0.0
C78 C 0.60823 0.8378 0.36661 0.0
N79 N 0.58771 0.81977 0.38583 0.0
O80 O 0.6498 0.85623 0.31184 0.0
H81 H 0.5647 0.82273 0.30474 0.0
H82 H 0.62759 0.84811 0.3778 0.0
O83 O 0.63998 0.89261 0.34003 0.0
C84 C 0.64694 0.83624 0.29499 0.0
O85 O 0.6291 0.82562 0.26894 0.0
N86 N 0.60257 0.87777 0.28358 0.0
C87 C 0.56276 0.886 0.26103 0.0
C88 C 0.58341 0.9046 0.28236 0.0
C89 C 0.60349 0.9004 0.29257 0.0
C90 C 0.58452 0.86123 0.25886 0.0
C91 C 0.56409 0.86462 0.24786 0.0
H92 H 0.61943 0.91528 0.30811 0.0
H93 H 0.58538 0.8446 0.24895 0.0
H94 H 0.66515 0.92832 0.29249 0.0
H95 H 0.68245 0.90878 0.18719 0.0
H96 H 0.54793 0.79743 0.36826 0.0
H97 H 0.58371 0.92185 0.2922 0.0
H98 H 0.54925 0.85039 0.22976 0.0
C99 C 0.76839 0.65186 0.39384 0.0
C100 C 0.7646 0.66992 0.37558 0.0
N101 N 0.75252 0.67792 0.39934 0.0
N102 N 0.75873 0.64845 0.42888 0.0
C103 C 0.74923 0.66462 0.43151 0.0
H104 H 0.77731 0.64155 0.38222 0.0
Co105 Co 0.75849 0.62481 0.46244 0.0
C106 C 0.73328 0.62919 0.53171 0.0
O107 O 0.72088 0.60396 0.53536 0.0
N108 N 0.75919 0.60081 0.4962 0.0
C109 C 0.75527 0.56624 0.5258 0.0
C110 C 0.75042 0.57523 0.493 0.0
C111 C 0.77028 0.60695 0.53062 0.0
N112 N 0.76767 0.58626 0.54948 0.0
O113 O 0.79363 0.64827 0.47433 0.0
H114 H 0.7411 0.56348 0.46872 0.0
H115 H 0.77912 0.62621 0.5423 0.0
O116 O 0.74819 0.63971 0.5035 0.0
C117 C 0.8102 0.64378 0.45925 0.0
O118 O 0.80222 0.62421 0.43595 0.0
N119 N 0.72424 0.60147 0.44832 0.0
C120 C 0.67566 0.56188 0.42702 0.0
C121 C 0.67831 0.58282 0.44827 0.0
C122 C 0.70287 0.60281 0.45782 0.0
C123 C 0.72211 0.58317 0.42357 0.0
C124 C 0.69801 0.56284 0.41319 0.0
H125 H 0.70443 0.61904 0.47316 0.0
H126 H 0.73933 0.58376 0.41315 0.0
H127 H 0.73933 0.66602 0.45602 0.0
H128 H 0.77028 0.67661 0.34701 0.0
H129 H 0.75002 0.54648 0.53175 0.0
H130 H 0.66164 0.58344 0.45852 0.0
H131 H 0.69693 0.5478 0.39507 0.0
C132 C 0.11656 0.77324 0.56066 0.0
C133 C 0.09492 0.77021 0.54263 0.0
N134 N 0.07436 0.75564 0.56459 0.0
N135 N 0.10966 0.76078 0.59388 0.0
C136 C 0.08382 0.75016 0.59546 0.0
H137 H 0.13612 0.78393 0.55035 0.0
Co138 Co 0.13261 0.76049 0.62829 0.0
C139 C 0.10214 0.73497 0.69664 0.0
O140 O 0.11486 0.72251 0.70044 0.0
N141 N 0.15675 0.76123 0.66324 0.0
C142 C 0.1863 0.75709 0.6955 0.0
C143 C 0.17336 0.75221 0.66182 0.0
C144 C 0.16089 0.77243 0.69751 0.0
N145 N 0.17819 0.76961 0.71811 0.0
O146 O 0.1442 0.79571 0.63989 0.0
H147 H 0.17606 0.74245 0.63834 0.0
H148 H 0.15078 0.78199 0.70745 0.0
O149 O 0.10682 0.75007 0.66857 0.0
C150 C 0.1658 0.81211 0.62588 0.0
O151 O 0.1778 0.80384 0.60398 0.0
N152 N 0.12189 0.7262 0.61437 0.0
C153 C 0.11352 0.67763 0.59419 0.0
C154 C 0.0947 0.68016 0.61405 0.0
C155 C 0.09901 0.70471 0.6231 0.0
C156 C 0.13868 0.72418 0.59081 0.0
C157 C 0.13521 0.70008 0.58105 0.0
H158 H 0.08403 0.70617 0.63763 0.0
H159 H 0.15558 0.74148 0.58104 0.0
H160 H 0.07214 0.73895 0.61898 0.0
H161 H 0.09433 0.77784 0.51528 0.0
H162 H 0.19996 0.75107 0.70304 0.0
H163 H 0.07723 0.66339 0.62374 0.0
H164 H 0.14964 0.69908 0.56402 0.0
C165 C 0.34585 0.1183 0.7293 0.0
C166 C 0.32712 0.09709 0.71049 0.0
N167 N 0.31817 0.07661 0.73369 0.0
N168 N 0.34856 0.11123 0.7642 0.0
C169 C 0.33139 0.08571 0.76608 0.0
H170 H 0.35703 0.13761 0.71812 0.0
Co171 Co 0.37168 0.13356 0.79954 0.0
C172 C 0.36848 0.10045 0.86338 0.0
O173 O 0.39377 0.11293 0.86515 0.0
N174 N 0.39482 0.15719 0.83542 0.0
C175 C 0.42688 0.18992 0.8664 0.0
C176 C 0.4189 0.17771 0.83217 0.0
C177 C 0.38833 0.1583 0.87154 0.0
N178 N 0.40762 0.17746 0.89118 0.0
O179 O 0.34767 0.14393 0.81369 0.0
H180 H 0.43007 0.18427 0.80675 0.0
H181 H 0.3695 0.14544 0.88322 0.0
O182 O 0.35719 0.10647 0.83817 0.0
C183 C 0.35035 0.16403 0.79747 0.0
O184 O 0.36816 0.17505 0.77145 0.0
N185 N 0.39569 0.12388 0.78355 0.0
C186 C 0.43527 0.11454 0.76273 0.0
C187 C 0.41164 0.09451 0.77637 0.0
C188 C 0.39207 0.09954 0.78636 0.0
C189 C 0.41654 0.14224 0.76464 0.0
C190 C 0.43703 0.13848 0.75553 0.0
H191 H 0.3742 0.08382 0.79682 0.0
H192 H 0.4175 0.16016 0.75713 0.0
H193 H 0.32861 0.07391 0.7906 0.0
H194 H 0.3211 0.09659 0.68165 0.0
H195 H 0.44545 0.20656 0.87256 0.0
H196 H 0.40816 0.07508 0.77976 0.0
H197 H 0.45419 0.15461 0.74393 0.0
C198 C 0.6578 0.77283 0.92629 0.0
C199 C 0.67674 0.77005 0.94367 0.0
N200 N 0.68137 0.7541 0.92265 0.0
N201 N 0.65065 0.75883 0.89439 0.0
C202 C 0.66528 0.74756 0.89294 0.0
H203 H 0.64962 0.78422 0.93633 0.0
Co204 Co 0.62579 0.75694 0.86181 0.0
C205 C 0.63026 0.73182 0.79231 0.0
O206 O 0.60506 0.71897 0.78887 0.0
N207 N 0.60057 0.75594 0.82893 0.0
C208 C 0.56479 0.7495 0.80032 0.0
C209 C 0.5748 0.74541 0.83269 0.0
C210 C 0.60572 0.76717 0.79461 0.0
N211 N 0.58433 0.76314 0.77637 0.0
O212 O 0.64795 0.7922 0.84851 0.0
H213 H 0.56361 0.73528 0.85704 0.0
H214 H 0.62483 0.77713 0.78247 0.0
O215 O 0.64066 0.7468 0.82051 0.0
C216 C 0.64242 0.80829 0.8628 0.0
O217 O 0.62268 0.79975 0.88581 0.0
N218 N 0.60372 0.7227 0.87742 0.0
C219 C 0.56502 0.67432 0.90125 0.0
C220 C 0.58494 0.67668 0.8779 0.0
C221 C 0.60451 0.70115 0.867 0.0
C222 C 0.5865 0.72089 0.90389 0.0
C223 C 0.56667 0.69689 0.91569 0.0
H224 H 0.61989 0.70244 0.84984 0.0
H225 H 0.58737 0.73828 0.91432 0.0
H226 H 0.6643 0.73493 0.87046 0.0
H227 H 0.68597 0.77864 0.97014 0.0
H228 H 0.54469 0.74288 0.79482 0.0
H229 H 0.58499 0.65984 0.86697 0.0
H230 H 0.55242 0.69606 0.93521 0.0
C231 C 0.88383 0.65237 0.09929 0.0
C232 C 0.90519 0.67037 0.11857 0.0
N233 N 0.92581 0.67881 0.09578 0.0
N234 N 0.89094 0.64944 0.06457 0.0
C235 C 0.91661 0.66586 0.06314 0.0
H236 H 0.86438 0.64173 0.11003 0.0
Co237 Co 0.86851 0.62587 0.03001 0.0
C238 C 0.89946 0.63149 0.96209 0.0
O239 O 0.88734 0.60625 0.9587 0.0
N240 N 0.84479 0.60194 0.9951 0.0
C241 C 0.81545 0.56764 0.96348 0.0
C242 C 0.82846 0.57621 0.99702 0.0
C243 C 0.84044 0.60854 0.96064 0.0
N244 N 0.82323 0.58805 0.94045 0.0
O245 O 0.85611 0.64871 0.01801 0.0
H246 H 0.82591 0.56402 0.0208 0.0
H247 H 0.85023 0.62817 0.95033 0.0
O248 O 0.89433 0.64178 0.98985 0.0
C249 C 0.83451 0.64321 0.03226 0.0
O250 O 0.8231 0.62328 0.05498 0.0
N251 N 0.88009 0.60309 0.04428 0.0
C252 C 0.89039 0.56441 0.06566 0.0
C253 C 0.90878 0.58609 0.04579 0.0
C254 C 0.9035 0.60559 0.03617 0.0
C255 C 0.86363 0.58399 0.06782 0.0
C256 C 0.86807 0.56409 0.07816 0.0
H257 H 0.91819 0.62237 0.0218 0.0
H258 H 0.84634 0.58366 0.07732 0.0
H259 H 0.92849 0.66763 0.03919 0.0
H260 H 0.9055 0.67665 0.1472 0.0
H261 H 0.8019 0.54779 0.95635 0.0
H262 H 0.92671 0.58765 0.03663 0.0
H263 H 0.85394 0.5484 0.09524 0.0
C264 C 0.23452 0.88376 0.26893 0.0
C265 C 0.23845 0.90545 0.28782 0.0
N266 N 0.24818 0.92534 0.26342 0.0
N267 N 0.2417 0.88989 0.23281 0.0
C268 C 0.24984 0.91534 0.23017 0.0
H269 H 0.22748 0.86481 0.28094 0.0
Co270 Co 0.24157 0.86658 0.19858 0.0
C271 C 0.26712 0.89646 0.13 0.0
O272 O 0.27947 0.88359 0.1269 0.0
N273 N 0.24038 0.84189 0.16424 0.0
C274 C 0.24329 0.81094 0.13377 0.0
C275 C 0.24847 0.82454 0.16686 0.0
C276 C 0.22928 0.83744 0.12984 0.0
N277 N 0.23131 0.81921 0.11046 0.0
O278 O 0.20649 0.85506 0.18694 0.0
H279 H 0.25748 0.82149 0.19094 0.0
H280 H 0.22079 0.84826 0.11857 0.0
O281 O 0.25189 0.89202 0.15778 0.0
C282 C 0.18927 0.8358 0.20498 0.0
O283 O 0.19635 0.82574 0.23204 0.0
N284 N 0.276 0.87758 0.21209 0.0
C285 C 0.32556 0.88842 0.23084 0.0
C286 C 0.32162 0.90682 0.21229 0.0
C287 C 0.29663 0.90127 0.20401 0.0
C288 C 0.27927 0.86113 0.23479 0.0
C289 C 0.30391 0.86577 0.24366 0.0
H290 H 0.2941 0.91604 0.19077 0.0
H291 H 0.2626 0.84376 0.24488 0.0
H292 H 0.25787 0.9266 0.20488 0.0
H293 H 0.2347 0.90651 0.31735 0.0
H294 H 0.24797 0.79609 0.1274 0.0
H295 H 0.33772 0.92526 0.20392 0.0
H296 H 0.30588 0.85128 0.25911 0.0
C297 C 0.34787 0.23275 0.44111 0.0
C298 C 0.33026 0.23684 0.46002 0.0
N299 N 0.32059 0.24712 0.43579 0.0
N300 N 0.34934 0.24041 0.40516 0.0
C301 C 0.3324 0.24896 0.40264 0.0
H302 H 0.35936 0.22521 0.45296 0.0
Co303 Co 0.37239 0.24011 0.37099 0.0
C304 C 0.36829 0.26591 0.30246 0.0
O305 O 0.39351 0.27819 0.29932 0.0
N306 N 0.39572 0.23864 0.33678 0.0
C307 C 0.42889 0.2392 0.30778 0.0
C308 C 0.42061 0.24492 0.34053 0.0
C309 C 0.38916 0.22806 0.30205 0.0
N310 N 0.40906 0.2287 0.28347 0.0
O311 O 0.34858 0.20501 0.35935 0.0
H312 H 0.43223 0.25266 0.36538 0.0
H313 H 0.37011 0.2206 0.29029 0.0
O314 O 0.35743 0.25057 0.33016 0.0
C315 C 0.35121 0.18777 0.37624 0.0
O316 O 0.36891 0.19486 0.40249 0.0
N317 N 0.39609 0.27463 0.38433 0.0
C318 C 0.43515 0.3244 0.40211 0.0
C319 C 0.41261 0.32034 0.38418 0.0
C320 C 0.39302 0.29526 0.37637 0.0
C321 C 0.41607 0.27805 0.4065 0.0
C322 C 0.43623 0.30279 0.41487 0.0
H323 H 0.37561 0.29266 0.36352 0.0
H324 H 0.41674 0.26143 0.41685 0.0
H325 H 0.32953 0.25738 0.37749 0.0
H326 H 0.32517 0.23277 0.48943 0.0
H327 H 0.44799 0.24227 0.30256 0.0
H328 H 0.4102 0.33641 0.3759 0.0
H329 H 0.45283 0.30487 0.42996 0.0
C330 C 0.1143 0.34665 0.60621 0.0
C331 C 0.09242 0.32786 0.62353 0.0
N332 N 0.07256 0.31984 0.59929 0.0
N333 N 0.10837 0.35045 0.57119 0.0
C334 C 0.08284 0.33387 0.56772 0.0
H335 H 0.13335 0.35699 0.61838 0.0
Co336 Co 0.13206 0.37425 0.53797 0.0
C337 C 0.10282 0.36973 0.46827 0.0
O338 O 0.11532 0.39498 0.4649 0.0
N339 N 0.1571 0.39825 0.50463 0.0
C340 C 0.18948 0.43217 0.4763 0.0
C341 C 0.17513 0.4234 0.50872 0.0
C342 C 0.16178 0.39208 0.47009 0.0
N343 N 0.18091 0.41239 0.45188 0.0
O344 O 0.14403 0.351 0.52646 0.0
H345 H 0.17832 0.4349 0.53356 0.0
H346 H 0.1507 0.37299 0.4581 0.0
O347 O 0.1073 0.35923 0.49641 0.0
C348 C 0.16391 0.35394 0.54358 0.0
O349 O 0.17433 0.37177 0.56972 0.0
N350 N 0.12066 0.39743 0.55124 0.0
C351 C 0.11002 0.43646 0.56924 0.0
C352 C 0.0919 0.41434 0.54989 0.0
C353 C 0.09735 0.39475 0.54192 0.0
C354 C 0.13675 0.41693 0.57455 0.0
C355 C 0.13221 0.43706 0.58311 0.0
H356 H 0.08282 0.37769 0.52788 0.0
H357 H 0.1538 0.41736 0.58541 0.0
H358 H 0.07189 0.33255 0.54285 0.0
H359 H 0.09136 0.32064 0.65174 0.0
H360 H 0.20513 0.45156 0.47133 0.0
H361 H 0.07379 0.4123 0.54058 0.0
H362 H 0.14647 0.45334 0.59914 0.0
C363 C 0.7699 0.11654 0.76853 0.0
C364 C 0.76734 0.09497 0.78636 0.0
N365 N 0.75396 0.07452 0.7636 0.0
N366 N 0.7583 0.1097 0.7347 0.0
C367 C 0.74882 0.084 0.73245 0.0
H368 H 0.77943 0.13597 0.77959 0.0
Co369 Co 0.75687 0.13236 0.7007 0.0
C370 C 0.72864 0.10076 0.63474 0.0
O371 O 0.71567 0.11307 0.63297 0.0
N372 N 0.75654 0.15625 0.66605 0.0
C373 C 0.75349 0.18705 0.6353 0.0
C374 C 0.74913 0.17412 0.66889 0.0
C375 C 0.76626 0.1596 0.63083 0.0
N376 N 0.76413 0.17772 0.61125 0.0
O377 O 0.79161 0.14401 0.68671 0.0
H378 H 0.74127 0.17813 0.69347 0.0
H379 H 0.77477 0.14876 0.61974 0.0
O380 O 0.74528 0.10622 0.66082 0.0
C381 C 0.80848 0.16532 0.70095 0.0
O382 O 0.80102 0.17695 0.72497 0.0
N383 N 0.72296 0.12144 0.71678 0.0
C384 C 0.67406 0.11145 0.73882 0.0
C385 C 0.67753 0.09208 0.72222 0.0
C386 C 0.70213 0.09741 0.7116 0.0
C387 C 0.72055 0.13886 0.73831 0.0
C388 C 0.69631 0.13483 0.7482 0.0
H389 H 0.70417 0.08221 0.69885 0.0
H390 H 0.73757 0.15659 0.74646 0.0
H391 H 0.73839 0.07235 0.70845 0.0
H392 H 0.77419 0.09428 0.81426 0.0
H393 H 0.74878 0.20188 0.62902 0.0
H394 H 0.66147 0.07297 0.71691 0.0
H395 H 0.69536 0.15045 0.76181 0.0
H396 H 0.20415 0.45424 0.40604 0.0
H397 H 0.21401 0.45459 0.33928 0.0
H398 H 0.18457 0.37261 0.34272 0.0
H399 H 0.17533 0.37206 0.40972 0.0
H400 H 0.24503 0.43154 0.30215 0.0
H401 H 0.1424 0.38886 0.2591 0.0
H402 H 0.15444 0.40595 0.303 0.0
H403 H 0.14961 0.37407 0.29774 0.0
C404 C 0.20018 0.43633 0.39291 0.0
C405 C 0.1887 0.41307 0.41333 0.0
C406 C 0.2057 0.43658 0.35469 0.0
C407 C 0.19969 0.41358 0.33621 0.0
C408 C 0.18901 0.39048 0.35656 0.0
H409 H 0.20071 0.37215 0.10364 0.0
H410 H 0.19334 0.37279 0.17097 0.0
C411 C 0.18363 0.39022 0.39481 0.0
C412 C 0.20401 0.41363 0.29538 0.0
H413 H 0.17252 0.39629 0.21125 0.0
C414 C 0.22926 0.42392 0.28216 0.0
C415 C 0.18328 0.4035 0.26969 0.0
C416 C 0.15585 0.39255 0.28284 0.0
C417 C 0.23435 0.42401 0.24362 0.0
C418 C 0.21364 0.4142 0.21774 0.0
C419 C 0.18836 0.40388 0.23113 0.0
C420 C 0.21774 0.41411 0.17668 0.0
C421 C 0.26178 0.43395 0.23115 0.0
C422 C 0.23341 0.4372 0.15735 0.0
C423 C 0.23799 0.43689 0.11889 0.0
C424 C 0.22672 0.41347 0.09889 0.0
C425 C 0.2102 0.39048 0.11816 0.0
C426 C 0.20578 0.39081 0.15666 0.0
H427 H 0.27398 0.43382 0.25456 0.0
H428 H 0.26268 0.42224 0.20762 0.0
H429 H 0.2701 0.45415 0.22131 0.0
H430 H 0.2423 0.45548 0.17207 0.0
H431 H 0.25087 0.45495 0.10515 0.0
H432 H 0.81131 0.26478 0.27266 0.0
H433 H 0.80103 0.25459 0.33927 0.0
H434 H 0.80763 0.18655 0.32623 0.0
H435 H 0.81811 0.19677 0.25966 0.0
H436 H 0.762 0.21225 0.37446 0.0
H437 H 0.85679 0.22364 0.41264 0.0
H438 H 0.85103 0.23427 0.36808 0.0
H439 H 0.84075 0.20078 0.37554 0.0
C440 C 0.8103 0.24751 0.2839 0.0
C441 C 0.81571 0.23167 0.26104 0.0
C442 C 0.80456 0.24179 0.32197 0.0
C443 C 0.80413 0.22013 0.33783 0.0
C444 C 0.80859 0.20376 0.31478 0.0
H445 H 0.76759 0.14811 0.55631 0.0
H446 H 0.77774 0.15937 0.49013 0.0
C447 C 0.81449 0.20957 0.27677 0.0
C448 C 0.79896 0.21467 0.37848 0.0
H449 H 0.82413 0.20587 0.45952 0.0
C450 C 0.77563 0.21101 0.39312 0.0
C451 C 0.81688 0.21321 0.40275 0.0
C452 C 0.84287 0.21843 0.38909 0.0
C453 C 0.76949 0.20532 0.43129 0.0
C454 C 0.78722 0.20344 0.45532 0.0
C455 C 0.81059 0.20726 0.44082 0.0
C456 C 0.78164 0.19711 0.49559 0.0
C457 C 0.7439 0.20082 0.44559 0.0
C458 C 0.78088 0.21482 0.52055 0.0
C459 C 0.7754 0.2086 0.55858 0.0
C460 C 0.77058 0.18454 0.57227 0.0
C461 C 0.77162 0.16697 0.54703 0.0
C462 C 0.77722 0.17327 0.5091 0.0
H463 H 0.73063 0.19867 0.42229 0.0
H464 H 0.73452 0.18327 0.46347 0.0
H465 H 0.74704 0.21746 0.46318 0.0
H466 H 0.7846 0.23347 0.5106 0.0
H467 H 0.77513 0.22272 0.57725 0.0
H468 H 0.62111 0.84866 0.44089 0.0
H469 H 0.61934 0.83744 0.50706 0.0
H470 H 0.55048 0.7646 0.48673 0.0
H471 H 0.55239 0.77535 0.41988 0.0
H472 H 0.54928 0.79611 0.55007 0.0
H473 H 0.63356 0.78125 0.55294 0.0
H474 H 0.63882 0.81041 0.53055 0.0
H475 H 0.61671 0.77975 0.51005 0.0
C476 C 0.60586 0.83 0.4501 0.0
C477 C 0.58702 0.81278 0.42481 0.0
C478 C 0.60482 0.8237 0.48807 0.0
C479 C 0.58495 0.80012 0.50157 0.0
C480 C 0.56602 0.78288 0.47667 0.0
H481 H 0.54506 0.73643 0.72779 0.0
H482 H 0.54402 0.74554 0.661 0.0
C483 C 0.5671 0.78911 0.43855 0.0
C484 C 0.58366 0.79392 0.54199 0.0
H485 H 0.61583 0.78274 0.61176 0.0
C486 C 0.56367 0.79298 0.56363 0.0
C487 C 0.6026 0.79003 0.5594 0.0
C488 C 0.62407 0.79019 0.53709 0.0
C489 C 0.56249 0.78889 0.60264 0.0
C490 C 0.58151 0.78509 0.62013 0.0
C491 C 0.60133 0.78576 0.5983 0.0
C492 C 0.58132 0.78037 0.66104 0.0
C493 C 0.54136 0.78946 0.62487 0.0
C494 C 0.60275 0.79676 0.68313 0.0
C495 C 0.60344 0.79148 0.72123 0.0
C496 C 0.58273 0.7697 0.73792 0.0
C497 C 0.56109 0.75359 0.71589 0.0
C498 C 0.56047 0.75878 0.67772 0.0
H499 H 0.53293 0.79957 0.60934 0.0
H500 H 0.52574 0.7694 0.6302 0.0
H501 H 0.54862 0.79914 0.65243 0.0
H502 H 0.61905 0.81351 0.67078 0.0
H503 H 0.62026 0.80436 0.73759 0.0
H504 H 0.74311 0.54652 0.59822 0.0
H505 H 0.75221 0.54653 0.66525 0.0
H506 H 0.81609 0.62423 0.65569 0.0
H507 H 0.807 0.62438 0.58864 0.0
H508 H 0.79532 0.55345 0.70256 0.0
H509 H 0.77398 0.63071 0.74017 0.0
H510 H 0.76558 0.6147 0.69512 0.0
H511 H 0.79803 0.63996 0.70424 0.0
C512 C 0.75927 0.56349 0.61028 0.0
C513 C 0.77423 0.58553 0.58822 0.0
C514 C 0.76435 0.56352 0.64862 0.0
C515 C 0.78446 0.58557 0.66557 0.0
C516 C 0.80003 0.60727 0.64336 0.0
H517 H 0.85154 0.62332 0.88687 0.0
H518 H 0.84091 0.62212 0.82047 0.0
C519 C 0.79487 0.60731 0.60507 0.0
C520 C 0.78914 0.58582 0.70648 0.0
H521 H 0.79287 0.61771 0.78796 0.0
C522 C 0.79462 0.56738 0.72129 0.0
C523 C 0.78808 0.60396 0.73083 0.0
C524 C 0.78085 0.6233 0.71691 0.0
C525 C 0.79968 0.56699 0.75974 0.0
C526 C 0.79904 0.58538 0.78387 0.0
C527 C 0.79339 0.6037 0.7692 0.0
C528 C 0.80477 0.58626 0.8244 0.0
C529 C 0.80623 0.5473 0.77423 0.0
C530 C 0.78769 0.56666 0.84861 0.0
C531 C 0.79351 0.56742 0.88682 0.0
C532 C 0.81655 0.5878 0.90142 0.0
C533 C 0.83342 0.60756 0.87694 0.0
C534 C 0.82751 0.60684 0.83885 0.0
H535 H 0.81007 0.53724 0.75105 0.0
H536 H 0.8234 0.55663 0.79283 0.0
H537 H 0.78989 0.53265 0.79114 0.0
H538 H 0.76987 0.55079 0.83793 0.0
H539 H 0.77994 0.55209 0.90488 0.0
H540 H 0.14922 0.77628 0.77078 0.0
H541 H 0.15908 0.78581 0.83723 0.0
H542 H 0.23013 0.78532 0.82212 0.0
H543 H 0.22105 0.77706 0.755 0.0
H544 H 0.16506 0.75655 0.88953 0.0
H545 H 0.25442 0.85174 0.87963 0.0
H546 H 0.23326 0.83689 0.84002 0.0
H547 H 0.25586 0.82691 0.8534 0.0
C548 C 0.16727 0.77882 0.78119 0.0
C549 C 0.18447 0.77614 0.75724 0.0
C550 C 0.17275 0.78402 0.81939 0.0
C551 C 0.19549 0.78663 0.83456 0.0
C552 C 0.21271 0.78393 0.81087 0.0
H553 H 0.25525 0.80396 0.06092 0.0
H554 H 0.24551 0.79481 0.99396 0.0
C555 C 0.20734 0.7789 0.77255 0.0
C556 C 0.20054 0.79102 0.87546 0.0
H557 H 0.24401 0.83186 0.93998 0.0
C558 C 0.18225 0.77309 0.90056 0.0
C559 C 0.22297 0.81265 0.88977 0.0
C560 C 0.24264 0.83329 0.86434 0.0
C561 C 0.18599 0.77601 0.9396 0.0
C562 C 0.20852 0.79744 0.9538 0.0
C563 C 0.22681 0.81538 0.92882 0.0
C564 C 0.21343 0.80171 0.9946 0.0
C565 C 0.16605 0.75599 0.96543 0.0
C566 C 0.19852 0.80851 0.01699 0.0
C567 C 0.20403 0.81374 0.05523 0.0
C568 C 0.22452 0.81218 0.07169 0.0
C569 C 0.23913 0.80495 0.0492 0.0
C570 C 0.23372 0.79991 0.01093 0.0
H571 H 0.15219 0.73827 0.95002 0.0
H572 H 0.17542 0.75065 0.98782 0.0
H573 H 0.15509 0.76411 0.97927 0.0
H574 H 0.18291 0.8102 0.00473 0.0
H575 H 0.19234 0.81909 0.07191 0.0
H576 H 0.43375 0.22378 0.92605 0.0
H577 H 0.43474 0.23205 0.99378 0.0
H578 H 0.38288 0.15105 0.01346 0.0
H579 H 0.38204 0.1426 0.94602 0.0
H580 H 0.38974 0.21822 0.04267 0.0
H581 H 0.44679 0.17217 0.08394 0.0
H582 H 0.44639 0.1827 0.03645 0.0
H583 H 0.41954 0.15345 0.05387 0.0
C584 C 0.42269 0.20775 0.94486 0.0
C585 C 0.40781 0.18257 0.93076 0.0
C586 C 0.42318 0.2125 0.98343 0.0
C587 C 0.40908 0.1921 0.00847 0.0
C588 C 0.39408 0.16699 0.99452 0.0
H589 H 0.36822 0.19477 0.24134 0.0
H590 H 0.36837 0.18581 0.17434 0.0
C591 C 0.39343 0.16225 0.95599 0.0
C592 C 0.40978 0.19708 0.04925 0.0
H593 H 0.4297 0.18563 0.13332 0.0
C594 C 0.3985 0.21116 0.06254 0.0
C595 C 0.42139 0.18794 0.07488 0.0
C596 C 0.43442 0.17337 0.06172 0.0
C597 C 0.39817 0.21602 0.10106 0.0
C598 C 0.40933 0.20645 0.12676 0.0
C599 C 0.42099 0.19273 0.11343 0.0
C600 C 0.40941 0.21091 0.16761 0.0
C601 C 0.38614 0.23157 0.11407 0.0
C602 C 0.43255 0.22748 0.18604 0.0
C603 C 0.43254 0.23285 0.22427 0.0
C604 C 0.40937 0.22158 0.24479 0.0
C605 C 0.38633 0.20424 0.22634 0.0
C606 C 0.38636 0.199 0.18808 0.0
H607 H 0.38266 0.24152 0.09034 0.0
H608 H 0.36739 0.21853 0.12773 0.0
H609 H 0.39863 0.24621 0.13513 0.0
H610 H 0.45053 0.23678 0.17061 0.0
H611 H 0.45059 0.24646 0.23735 0.0
H612 H 0.26383 0.31491 0.84007 0.0
H613 H 0.27826 0.28419 0.8267 0.0
H614 H 0.26057 0.25582 0.94048 0.0
H615 H 0.24573 0.28644 0.95412 0.0
H616 H 0.31968 0.28215 0.87514 0.0
H617 H 0.22563 0.1905 0.86464 0.0
H618 H 0.22839 0.22143 0.85515 0.0
H619 H 0.23082 0.21264 0.90249 0.0
C620 C 0.26257 0.30188 0.86212 0.0
C621 C 0.25356 0.30308 0.89816 0.0
C622 C 0.27095 0.28444 0.85447 0.0
C623 C 0.27028 0.26771 0.88254 0.0
C624 C 0.26101 0.26851 0.91842 0.0
H625 H 0.32029 0.15338 0.8605 0.0
H626 H 0.30004 0.17751 0.88399 0.0
C627 C 0.25275 0.28611 0.92621 0.0
C628 C 0.28068 0.2505 0.87447 0.0
H629 H 0.26312 0.18838 0.85234 0.0
C630 C 0.30737 0.26161 0.87042 0.0
C631 C 0.2645 0.22374 0.86878 0.0
C632 C 0.23569 0.21118 0.87282 0.0
C633 C 0.31837 0.2467 0.85999 0.0
C634 C 0.30213 0.22011 0.85247 0.0
C635 C 0.27546 0.2088 0.85786 0.0
C636 C 0.31257 0.20421 0.83724 0.0
C637 C 0.3473 0.25958 0.85705 0.0
C638 C 0.32553 0.21073 0.80265 0.0
C639 C 0.33714 0.19713 0.78928 0.0
C640 C 0.33576 0.17652 0.81006 0.0
C641 C 0.3217 0.16919 0.84388 0.0
C642 C 0.31016 0.18296 0.85736 0.0
H643 H 0.35698 0.27748 0.8742 0.0
H644 H 0.35426 0.24643 0.86633 0.0
H645 H 0.35312 0.26498 0.82731 0.0
H646 H 0.32707 0.22668 0.78626 0.0
H647 H 0.34758 0.20307 0.76293 0.0
H648 H 0.14682 0.34733 0.93005 0.0
H649 H 0.10226 0.32434 0.95224 0.0
H650 H 0.12612 0.3023 0.05321 0.0
H651 H 0.17088 0.32522 0.03121 0.0
H652 H 0.07126 0.26839 0.9783 0.0
H653 H 0.08736 0.34267 0.08598 0.0
H654 H 0.10851 0.34986 0.04607 0.0
H655 H 0.10955 0.33073 0.08405 0.0
C656 C 0.14261 0.33746 0.95687 0.0
C657 C 0.16237 0.33815 0.97892 0.0
C658 C 0.11715 0.32431 0.96944 0.0
C659 C 0.11104 0.31185 0.00441 0.0
C660 C 0.13057 0.31198 0.02622 0.0
H661 H 0.96295 0.2496 0.12092 0.0
H662 H 0.00784 0.26289 0.10656 0.0
C663 C 0.15607 0.32497 0.01353 0.0
C664 C 0.08425 0.2994 0.01828 0.0
H665 H 0.04511 0.30824 0.07855 0.0
C666 C 0.0655 0.27691 0.00044 0.0
C667 C 0.07697 0.31053 0.04735 0.0
C668 C 0.09652 0.33485 0.06703 0.0
C669 C 0.03944 0.26544 0.01051 0.0
C670 C 0.03194 0.27725 0.0384 0.0
C671 C 0.05087 0.29927 0.0571 0.0
C672 C 0.00449 0.26804 0.04699 0.0
C673 C 0.02024 0.24077 0.99121 0.0
C674 C 0.9878 0.26682 0.01839 0.0
C675 C 0.96221 0.25921 0.02649 0.0
C676 C 0.95283 0.253 0.0635 0.0
C677 C 0.96963 0.25442 0.09219 0.0
C678 C 0.99524 0.26189 0.084 0.0
H679 H 0.02955 0.22992 0.98082 0.0
H680 H 0.00423 0.2281 0.01037 0.0
H681 H 0.01205 0.24549 0.96653 0.0
H682 H 0.9947 0.27227 0.98984 0.0
H683 H 0.94997 0.25886 0.0039 0.0
H684 H 0.78459 0.15734 0.11656 0.0
H685 H 0.76073 0.11248 0.13695 0.0
H686 H 0.82789 0.1221 0.19562 0.0
H687 H 0.85179 0.16742 0.17618 0.0
H688 H 0.76886 0.07331 0.12297 0.0
H689 H 0.77365 0.09077 0.27682 0.0
H690 H 0.78273 0.11622 0.24277 0.0
H691 H 0.80457 0.10493 0.25441 0.0
C692 C 0.79434 0.14998 0.13384 0.0
C693 C 0.82008 0.16599 0.14485 0.0
C694 C 0.78064 0.1243 0.14549 0.0
C695 C 0.79237 0.11401 0.1683 0.0
C696 C 0.81824 0.12978 0.17879 0.0
H697 H 0.72399 0.94752 0.19715 0.0
H698 H 0.75272 0.99294 0.18148 0.0
C699 C 0.83194 0.15562 0.1674 0.0
C700 C 0.77745 0.08661 0.18024 0.0
H701 H 0.75543 0.04725 0.25719 0.0
C702 C 0.76595 0.06761 0.15232 0.0
C703 C 0.77338 0.07924 0.21857 0.0
C704 C 0.78401 0.09885 0.24991 0.0
C705 C 0.75041 0.04146 0.1616 0.0
C706 C 0.74687 0.034 0.19989 0.0
C707 C 0.75839 0.05298 0.22785 0.0
C708 C 0.73052 0.00667 0.21145 0.0
C709 C 0.73728 0.02225 0.13025 0.0
C710 C 0.70913 0.99941 0.23487 0.0
C711 C 0.69286 0.97349 0.24423 0.0
C712 C 0.69766 0.95436 0.23022 0.0
C713 C 0.71953 0.96178 0.20771 0.0
C714 C 0.73593 0.98771 0.19869 0.0
H715 H 0.73617 0.03176 0.10406 0.0
H716 H 0.74844 0.01252 0.12388 0.0
H717 H 0.71747 0.0073 0.13841 0.0
H718 H 0.70464 0.01373 0.24516 0.0
H719 H 0.6761 0.96835 0.26144 0.0
H720 H 0.74672 0.70916 0.44876 0.0
H721 H 0.73064 0.73874 0.43485 0.0
H722 H 0.7224 0.71683 0.31802 0.0
H723 H 0.73819 0.68718 0.33162 0.0
H724 H 0.75191 0.78124 0.36989 0.0
H725 H 0.64915 0.70364 0.3624 0.0
H726 H 0.67279 0.70035 0.38959 0.0
H727 H 0.67245 0.69778 0.33932 0.0
C728 C 0.74141 0.7106 0.42015 0.0
C729 C 0.74371 0.6958 0.39129 0.0
C730 C 0.73241 0.7276 0.41225 0.0
C731 C 0.72534 0.72984 0.37547 0.0
C732 C 0.7278 0.71531 0.34658 0.0
H733 H 0.6504 0.79834 0.25802 0.0
H734 H 0.67123 0.77457 0.27938 0.0
C735 C 0.73695 0.69849 0.35438 0.0
C736 C 0.71475 0.74685 0.36703 0.0
H737 H 0.65901 0.74524 0.3428 0.0
C738 C 0.73158 0.77353 0.36429 0.0
C739 C 0.68827 0.73655 0.35971 0.0
C740 C 0.66946 0.70802 0.36306 0.0
C741 C 0.72267 0.79018 0.35301 0.0
C742 C 0.69618 0.77981 0.34506 0.0
C743 C 0.67932 0.75315 0.34877 0.0
C744 C 0.6855 0.79592 0.33133 0.0
C745 C 0.74181 0.81852 0.34831 0.0
C746 C 0.68682 0.81605 0.35327 0.0
C747 C 0.67508 0.82988 0.34093 0.0
C748 C 0.66153 0.82354 0.30668 0.0
C749 C 0.66063 0.80366 0.28457 0.0
C750 C 0.6725 0.79003 0.29676 0.0
H751 H 0.76189 0.82231 0.3466 0.0
H752 H 0.73759 0.82627 0.3226 0.0
H753 H 0.74051 0.82922 0.3729 0.0
H754 H 0.69629 0.82058 0.3804 0.0
H755 H 0.67588 0.84493 0.35876 0.0
H756 H 0.05623 0.78185 0.52531 0.0
H757 H 0.01125 0.76741 0.5101 0.0
H758 H 0.98762 0.69608 0.56924 0.0
H759 H 0.0325 0.71076 0.58523 0.0
H760 H 0.9788 0.72805 0.46902 0.0
H761 H 0.93777 0.71524 0.61185 0.0
H762 H 0.97202 0.73186 0.60342 0.0
H763 H 0.95392 0.69715 0.6058 0.0
C764 C 0.0414 0.76316 0.5352 0.0
C765 C 0.04785 0.74746 0.55655 0.0
C766 C 0.01571 0.75496 0.52663 0.0
C767 C 0.99596 0.73084 0.53909 0.0
C768 C 0.00239 0.7151 0.56031 0.0
H769 H 0.84876 0.6351 0.43771 0.0
H770 H 0.89376 0.65853 0.45686 0.0
C771 C 0.02806 0.72343 0.56928 0.0
C772 C 0.96886 0.72147 0.52782 0.0
H773 H 0.90745 0.69404 0.56168 0.0
C774 C 0.96325 0.72091 0.48936 0.0
C775 C 0.94856 0.7126 0.55432 0.0
C776 C 0.9534 0.7145 0.59615 0.0
C777 C 0.93788 0.71079 0.4766 0.0
C778 C 0.91744 0.70024 0.50291 0.0
C779 C 0.92309 0.70179 0.54147 0.0
C780 C 0.89009 0.68647 0.4909 0.0
C781 C 0.93328 0.71157 0.43501 0.0
C782 C 0.87279 0.6939 0.50453 0.0
C783 C 0.84682 0.68026 0.49397 0.0
C784 C 0.83774 0.65895 0.46965 0.0
C785 C 0.85514 0.65158 0.45615 0.0
C786 C 0.88096 0.66508 0.46689 0.0
H787 H 0.95041 0.72748 0.42091 0.0
H788 H 0.92954 0.69319 0.42194 0.0
H789 H 0.91645 0.71409 0.42965 0.0
H790 H 0.87938 0.71023 0.52334 0.0
H791 H 0.83388 0.68633 0.50501 0.0
H792 H 0.31795 0.03394 0.75885 0.0
H793 H 0.2881 0.98929 0.74075 0.0
H794 H 0.24626 0.01481 0.67113 0.0
H795 H 0.27658 0.05963 0.68845 0.0
H796 H 0.23731 0.95819 0.74852 0.0
H797 H 0.2618 0.97409 0.59669 0.0
H798 H 0.28001 0.99806 0.63186 0.0
H799 H 0.24992 0.99403 0.6151 0.0
C800 C 0.30227 0.02999 0.73992 0.0
C801 C 0.29969 0.05024 0.72478 0.0
C802 C 0.28525 0.00449 0.72953 0.0
C803 C 0.26522 0.99872 0.704 0.0
C804 C 0.26199 0.01884 0.69001 0.0
H805 H 0.14514 0.83712 0.66452 0.0
H806 H 0.16702 0.88265 0.68315 0.0
C807 C 0.27925 0.04441 0.69999 0.0
C808 C 0.24816 0.97168 0.69166 0.0
H809 H 0.22833 0.93276 0.61422 0.0
C810 C 0.23527 0.95261 0.71914 0.0
C811 C 0.24575 0.9644 0.65333 0.0
C812 C 0.26028 0.98366 0.62256 0.0
C813 C 0.22039 0.92643 0.70945 0.0
C814 C 0.21771 0.91922 0.67109 0.0
C815 C 0.23022 0.93835 0.64358 0.0
C816 C 0.20376 0.89184 0.65892 0.0
C817 C 0.2086 0.90671 0.74052 0.0
C818 C 0.21683 0.88211 0.63797 0.0
C819 C 0.20429 0.85634 0.62674 0.0
C820 C 0.1784 0.83966 0.63639 0.0
C821 C 0.16515 0.84947 0.6569 0.0
C822 C 0.17768 0.87542 0.6678 0.0
H823 H 0.21776 0.91475 0.76816 0.0
H824 H 0.18784 0.90041 0.74294 0.0
H825 H 0.21037 0.88949 0.73443 0.0
H826 H 0.23693 0.89441 0.63071 0.0
H827 H 0.21508 0.84943 0.61102 0.0
H828 H 0.78599 0.6319 0.05115 0.0
H829 H 0.76293 0.65351 0.03027 0.0
H830 H 0.82975 0.70841 0.96785 0.0
H831 H 0.85286 0.68637 0.98787 0.0
H832 H 0.77291 0.70212 0.04124 0.0
H833 H 0.77387 0.68339 0.88844 0.0
H834 H 0.78287 0.66767 0.92364 0.0
H835 H 0.80519 0.70027 0.90972 0.0
C836 C 0.79586 0.64858 0.03299 0.0
C837 C 0.82124 0.65735 0.02103 0.0
C838 C 0.78262 0.66092 0.02108 0.0
C839 C 0.79445 0.68232 0.99702 0.0
C840 C 0.82003 0.69156 0.98571 0.0
H841 H 0.72658 0.78013 0.96002 0.0
H842 H 0.75572 0.76428 0.97691 0.0
C843 C 0.83327 0.67907 0.99741 0.0
C844 C 0.77985 0.6949 0.98434 0.0
H845 H 0.75617 0.7093 0.90642 0.0
C846 C 0.76931 0.70377 0.01175 0.0
C847 C 0.77491 0.69671 0.94586 0.0
C848 C 0.78458 0.6863 0.91518 0.0
C849 C 0.75377 0.7142 0.00184 0.0
C850 C 0.74922 0.71646 0.96335 0.0
C851 C 0.75989 0.70775 0.93589 0.0
C852 C 0.73252 0.72681 0.95115 0.0
C853 C 0.74166 0.72182 0.03278 0.0
C854 C 0.71033 0.71141 0.92976 0.0
C855 C 0.6938 0.72053 0.91976 0.0
C856 C 0.69911 0.74521 0.93107 0.0
C857 C 0.72172 0.76085 0.95158 0.0
C858 C 0.73836 0.75181 0.96127 0.0
H859 H 0.74146 0.7126 0.05999 0.0
H860 H 0.75296 0.74303 0.03677 0.0
H861 H 0.72159 0.71645 0.02553 0.0
H862 H 0.70549 0.69208 0.92155 0.0
H863 H 0.67647 0.70798 0.90417 0.0
H864 H 0.96411 0.71041 0.04822 0.0
H865 H 0.00948 0.73948 0.06433 0.0
H866 H 0.99287 0.71671 0.18059 0.0
H867 H 0.94773 0.68748 0.16476 0.0
H868 H 0.03057 0.78161 0.12455 0.0
H869 H 0.05251 0.70264 0.14587 0.0
H870 H 0.02551 0.69857 0.11809 0.0
H871 H 0.02391 0.69861 0.16849 0.0
C872 C 0.97015 0.71154 0.07717 0.0
C873 C 0.95232 0.69658 0.1052 0.0
C874 C 0.996 0.72826 0.08634 0.0
C875 C 0.00444 0.73005 0.12357 0.0
C876 C 0.98668 0.71545 0.15165 0.0
H877 H 0.14751 0.80051 0.24444 0.0
H878 H 0.10275 0.77684 0.22356 0.0
C879 C 0.96086 0.6989 0.14259 0.0
C880 C 0.03191 0.74677 0.13326 0.0
H881 H 0.08455 0.74454 0.16407 0.0
C882 C 0.04252 0.77362 0.13295 0.0
C883 C 0.04727 0.73616 0.1442 0.0
C884 C 0.03689 0.70742 0.144 0.0
C885 C 0.06802 0.79021 0.14458 0.0
C886 C 0.08335 0.77956 0.15598 0.0
C887 C 0.07277 0.75268 0.15551 0.0
C888 C 0.11023 0.79572 0.16937 0.0
C889 C 0.07799 0.81885 0.14578 0.0
C890 C 0.12932 0.81441 0.14598 0.0
C891 C 0.15495 0.8282 0.15804 0.0
C892 C 0.16195 0.82321 0.19347 0.0
C893 C 0.14274 0.80476 0.21698 0.0
C894 C 0.11715 0.7912 0.20507 0.0
H895 H 0.06205 0.82322 0.14592 0.0
H896 H 0.09016 0.82775 0.17103 0.0
H897 H 0.08994 0.828 0.12046 0.0
H898 H 0.12456 0.81781 0.11798 0.0
H899 H 0.16939 0.84209 0.13911 0.0
H900 H 0.2497 0.96174 0.2163 0.0
H901 H 0.26554 0.00734 0.23108 0.0
H902 H 0.28215 0.99477 0.34449 0.0
H903 H 0.26669 0.9495 0.32999 0.0
H904 H 0.24776 0.02808 0.29728 0.0
H905 H 0.35121 0.05619 0.29745 0.0
H906 H 0.32696 0.02815 0.27267 0.0
H907 H 0.32986 0.02722 0.32281 0.0
C908 C 0.25682 0.96875 0.24431 0.0
C909 C 0.25692 0.952 0.27198 0.0
C910 C 0.26569 0.99471 0.25275 0.0
C911 C 0.27509 0.00433 0.28879 0.0
C912 C 0.27504 0.98766 0.31647 0.0
H913 H 0.34862 0.14605 0.41113 0.0
H914 H 0.32835 0.10178 0.38796 0.0
C915 C 0.26603 0.96176 0.30819 0.0
C916 C 0.28534 0.03186 0.29782 0.0
H917 H 0.34078 0.08656 0.32203 0.0
C918 C 0.26811 0.04104 0.3023 0.0
C919 C 0.31186 0.04854 0.30436 0.0
C920 C 0.33117 0.0397 0.29885 0.0
C921 C 0.27667 0.06635 0.31473 0.0
C922 C 0.30319 0.08289 0.32212 0.0
C923 C 0.32044 0.07382 0.31654 0.0
C924 C 0.31352 0.10939 0.33705 0.0
C925 C 0.25718 0.07482 0.32128 0.0
C926 C 0.31169 0.12834 0.31628 0.0
C927 C 0.32314 0.1537 0.32962 0.0
C928 C 0.33685 0.16056 0.36376 0.0
C929 C 0.33823 0.14142 0.38474 0.0
C930 C 0.32668 0.11611 0.37151 0.0
H931 H 0.23724 0.05816 0.3228 0.0
H932 H 0.26141 0.08611 0.34771 0.0
H933 H 0.25805 0.08735 0.29767 0.0
H934 H 0.30207 0.12371 0.28927 0.0
H935 H 0.32197 0.16808 0.31261 0.0
H936 H 0.28666 0.24997 0.38835 0.0
H937 H 0.2576 0.26652 0.4031 0.0
H938 H 0.28552 0.28115 0.51724 0.0
H939 H 0.31467 0.26499 0.50277 0.0
H940 H 0.21838 0.24864 0.46822 0.0
H941 H 0.2957 0.35162 0.47178 0.0
H942 H 0.29906 0.32725 0.44664 0.0
H943 H 0.30208 0.32935 0.49692 0.0
C944 C 0.28665 0.25679 0.41653 0.0
C945 C 0.30298 0.25616 0.44439 0.0
C946 C 0.26996 0.26608 0.42493 0.0
C947 C 0.26959 0.27514 0.46116 0.0
C948 C 0.28564 0.27431 0.48907 0.0
H949 H 0.20231 0.35109 0.58005 0.0
H950 H 0.22602 0.33021 0.55848 0.0
C951 C 0.30215 0.2649 0.4808 0.0
C952 C 0.25277 0.28587 0.47008 0.0
H953 H 0.25472 0.34188 0.49435 0.0
C954 C 0.22617 0.26904 0.4736 0.0
C955 C 0.26315 0.31246 0.47711 0.0
C956 C 0.29154 0.33135 0.4727 0.0
C957 C 0.20972 0.27804 0.48541 0.0
C958 C 0.22019 0.30464 0.4931 0.0
C959 C 0.24674 0.32149 0.48862 0.0
C960 C 0.20426 0.31546 0.50699 0.0
C961 C 0.1815 0.25891 0.49093 0.0
C962 C 0.18397 0.31392 0.48533 0.0
C963 C 0.1702 0.32569 0.49777 0.0
C964 C 0.17674 0.33947 0.53185 0.0
C965 C 0.19682 0.34065 0.55366 0.0
C966 C 0.21042 0.32875 0.54136 0.0
H967 H 0.17777 0.23881 0.49295 0.0
H968 H 0.17408 0.26338 0.51676 0.0
H969 H 0.17051 0.25994 0.46656 0.0
H970 H 0.17924 0.30425 0.45835 0.0
H971 H 0.15501 0.32468 0.48013 0.0
H972 H 0.04888 0.30381 0.66711 0.0
H973 H 0.00367 0.27291 0.67875 0.0
H974 H 0.98972 0.26249 0.55941 0.0
H975 H 0.03518 0.29301 0.54727 0.0
H976 H 0.95529 0.27332 0.60035 0.0
H977 H 0.96366 0.19349 0.66477 0.0
H978 H 0.98486 0.22462 0.68483 0.0
H979 H 0.98893 0.21843 0.63659 0.0
C980 C 0.03645 0.29467 0.64322 0.0
C981 C 0.04588 0.301 0.60619 0.0
C982 C 0.01054 0.27697 0.64999 0.0
C983 C 0.99347 0.26517 0.61995 0.0
C984 C 0.00267 0.27132 0.58297 0.0
H985 H 0.8307 0.14725 0.65111 0.0
H986 H 0.87531 0.16998 0.62824 0.0
C987 C 0.02866 0.28894 0.57613 0.0
C988 C 0.96574 0.2477 0.6274 0.0
H989 H 0.9236 0.19245 0.67361 0.0
C990 C 0.94829 0.25546 0.61593 0.0
C991 C 0.95667 0.22432 0.64739 0.0
C992 C 0.97445 0.21453 0.65885 0.0
C993 C 0.92214 0.24102 0.62548 0.0
C994 C 0.91334 0.21839 0.64724 0.0
C995 C 0.93052 0.20996 0.6572 0.0
C996 C 0.88668 0.20416 0.66171 0.0
C997 C 0.90416 0.25028 0.6128 0.0
C998 C 0.87862 0.21572 0.68861 0.0
C999 C 0.85335 0.20282 0.70185 0.0
C1000 C 0.83561 0.17808 0.68841 0.0
C1001 C 0.8439 0.1663 0.66198 0.0
C1002 C 0.86932 0.17922 0.64887 0.0
H1003 H 0.9124 0.26421 0.58914 0.0
H1004 H 0.88533 0.23382 0.6039 0.0
H1005 H 0.90063 0.2601 0.6366 0.0
H1006 H 0.89189 0.23483 0.69921 0.0
H1007 H 0.84765 0.21243 0.72227 0.0
H1008 H 0.71004 0.03264 0.74018 0.0
H1009 H 0.69491 0.98762 0.75627 0.0
H1010 H 0.76408 0.01098 0.82067 0.0
H1011 H 0.77904 0.05617 0.80524 0.0
H1012 H 0.714 0.95611 0.74363 0.0
H1013 H 0.70931 0.96962 0.8973 0.0
H1014 H 0.71438 0.9942 0.86357 0.0
H1015 H 0.74067 0.98965 0.87742 0.0
C1016 C 0.72211 0.02816 0.75754 0.0
C1017 C 0.74564 0.04793 0.7717 0.0
C1018 C 0.71342 0.00244 0.76679 0.0
C1019 C 0.72814 0.99595 0.79023 0.0
C1020 C 0.75207 0.01558 0.80338 0.0
H1021 H 0.68697 0.83383 0.8216 0.0
H1022 H 0.70994 0.87952 0.80378 0.0
C1023 C 0.76063 0.04137 0.79449 0.0
C1024 C 0.71809 0.96865 0.80124 0.0
H1025 H 0.70036 0.9284 0.87712 0.0
C1026 C 0.71107 0.95003 0.77281 0.0
C1027 C 0.71403 0.96073 0.83935 0.0
C1028 C 0.71975 0.97953 0.87118 0.0
C1029 C 0.69979 0.92367 0.78139 0.0
C1030 C 0.69606 0.91582 0.81951 0.0
C1031 C 0.70344 0.93449 0.84793 0.0
C1032 C 0.68282 0.88824 0.83066 0.0
C1033 C 0.69106 0.90446 0.74953 0.0
C1034 C 0.66043 0.87816 0.85263 0.0
C1035 C 0.64756 0.85229 0.86333 0.0
C1036 C 0.65675 0.83586 0.85216 0.0
C1037 C 0.67933 0.84598 0.83043 0.0
C1038 C 0.69237 0.87203 0.82001 0.0
H1039 H 0.68945 0.913 0.72264 0.0
H1040 H 0.70531 0.89804 0.74545 0.0
H1041 H 0.67212 0.88723 0.75589 0.0
H1042 H 0.65272 0.89031 0.86123 0.0
H1043 H 0.63021 0.84512 0.88001 0.0
H1044 H 0.30407 0.38894 0.09496 0.0
H1045 H 0.31336 0.3638 0.13948 0.0
H1046 H 0.25435 0.29335 0.08899 0.0
H1047 H 0.2452 0.3185 0.04347 0.0
H1048 H 0.28205 0.32779 0.19201 0.0
H1049 H 0.31749 0.28442 0.08609 0.0
H1050 H 0.31254 0.311 0.07496 0.0
H1051 H 0.28548 0.27891 0.07893 0.0
C1052 C 0.29303 0.3681 0.09317 0.0
C1053 C 0.274 0.35573 0.06547 0.0
C1054 C 0.29832 0.35375 0.11878 0.0
C1055 C 0.28473 0.32672 0.11733 0.0
C1056 C 0.26536 0.3142 0.09019 0.0
H1057 H 0.3161 0.24738 0.30239 0.0
H1058 H 0.29158 0.25771 0.25738 0.0
C1059 C 0.2601 0.3286 0.06432 0.0
C1060 C 0.29146 0.31209 0.14416 0.0
H1061 H 0.31984 0.27503 0.14958 0.0
C1062 C 0.28998 0.31594 0.18283 0.0
C1063 C 0.30191 0.29676 0.13197 0.0
C1064 C 0.30469 0.29259 0.09076 0.0
C1065 C 0.29971 0.30582 0.20962 0.0
C1066 C 0.31075 0.29105 0.19738 0.0
C1067 C 0.31121 0.28626 0.15881 0.0
C1068 C 0.32472 0.28313 0.22358 0.0
C1069 C 0.29943 0.31228 0.2506 0.0
C1070 C 0.35129 0.29344 0.21888 0.0
C1071 C 0.36525 0.28751 0.24428 0.0
C1072 C 0.35294 0.27108 0.27496 0.0
C1073 C 0.32617 0.26022 0.27917 0.0
C1074 C 0.31215 0.26617 0.25359 0.0
H1075 H 0.29435 0.32759 0.25457 0.0
H1076 H 0.28499 0.29478 0.26577 0.0
H1077 H 0.31852 0.31878 0.26368 0.0
H1078 H 0.36136 0.30655 0.19589 0.0
H1079 H 0.3858 0.2961 0.24001 0.0
H1080 H 0.93161 0.24773 0.20447 0.0
H1081 H 0.96536 0.25553 0.25033 0.0
H1082 H 0.94799 0.30708 0.31164 0.0
H1083 H 0.91425 0.29916 0.26676 0.0
H1084 H 0.00848 0.30129 0.26705 0.0
H1085 H 0.94968 0.26222 0.39533 0.0
H1086 H 0.93576 0.25511 0.34878 0.0
H1087 H 0.94266 0.28457 0.37218 0.0
C1088 C 0.93481 0.26048 0.228 0.0
C1089 C 0.92021 0.27279 0.23201 0.0
C1090 C 0.95407 0.26491 0.25414 0.0
C1091 C 0.95883 0.28147 0.28483 0.0
C1092 C 0.9442 0.29367 0.28881 0.0
H1093 H 0.08979 0.38625 0.40509 0.0
H1094 H 0.05596 0.36064 0.36004 0.0
C1095 C 0.92505 0.28929 0.26284 0.0
C1096 C 0.98022 0.28777 0.3114 0.0
H1097 H 0.99446 0.29477 0.40509 0.0
C1098 C 0.0054 0.29937 0.29722 0.0
C1099 C 0.97621 0.2848 0.35073 0.0
C1100 C 0.94957 0.27072 0.3676 0.0
C1101 C 0.02674 0.30982 0.32143 0.0
C1102 C 0.02275 0.30909 0.36075 0.0
C1103 C 0.99755 0.29573 0.37493 0.0
C1104 C 0.0442 0.32408 0.38732 0.0
C1105 C 0.05337 0.32208 0.30458 0.0
C1106 C 0.04845 0.31215 0.41831 0.0
C1107 C 0.06772 0.32686 0.44452 0.0
C1108 C 0.08288 0.35377 0.44029 0.0
C1109 C 0.07856 0.36557 0.40917 0.0
C1110 C 0.05936 0.35091 0.38311 0.0
H1111 H 0.05313 0.31324 0.277 0.0
H1112 H 0.06055 0.34289 0.29972 0.0
H1113 H 0.06705 0.32022 0.32356 0.0
H1114 H 0.03676 0.2915 0.42232 0.0
H1115 H 0.07051 0.3172 0.46827 0.0
H1116 H 0.61023 0.90953 0.4287 0.0
H1117 H 0.63413 0.94424 0.47347 0.0
H1118 H 0.70494 0.9645 0.4156 0.0
H1119 H 0.68099 0.9299 0.36988 0.0
H1120 H 0.67393 0.95329 0.52196 0.0
H1121 H 0.70429 0.0325 0.41739 0.0
H1122 H 0.67991 0.99969 0.40716 0.0
H1123 H 0.71331 0.0087 0.40716 0.0
C1124 C 0.63089 0.92132 0.42536 0.0
C1125 C 0.64367 0.91709 0.39548 0.0
C1126 C 0.64454 0.94111 0.45112 0.0
C1127 C 0.67125 0.95713 0.44762 0.0
C1128 C 0.68426 0.95262 0.41842 0.0
H1129 H 0.75069 0.07024 0.62993 0.0
H1130 H 0.74079 0.03583 0.58418 0.0
C1131 C 0.67056 0.93279 0.39244 0.0
C1132 C 0.685 0.97883 0.47432 0.0
H1133 H 0.71583 0.04449 0.48037 0.0
C1134 C 0.68341 0.97326 0.51292 0.0
C1135 C 0.69717 0.00482 0.46234 0.0
C1136 C 0.69869 0.01194 0.42131 0.0
C1137 C 0.69278 0.99297 0.53998 0.0
C1138 C 0.70447 0.01894 0.52802 0.0
C1139 C 0.70696 0.02454 0.48939 0.0
C1140 C 0.71166 0.04036 0.55496 0.0
C1141 C 0.68885 0.98577 0.58111 0.0
C1142 C 0.69903 0.05468 0.5531 0.0
C1143 C 0.70473 0.07435 0.57889 0.0
C1144 C 0.72324 0.08018 0.60714 0.0
C1145 C 0.73622 0.06611 0.60864 0.0
C1146 C 0.73052 0.04639 0.58265 0.0
H1147 H 0.67527 0.96485 0.58539 0.0
H1148 H 0.70758 0.99053 0.5939 0.0
H1149 H 0.68136 0.99684 0.59632 0.0
H1150 H 0.68442 0.05035 0.53194 0.0
H1151 H 0.69443 0.08485 0.57677 0.0
H1152 H 0.75333 0.68171 0.53185 0.0
H1153 H 0.7445 0.70717 0.57724 0.0
H1154 H 0.69365 0.63772 0.63822 0.0
H1155 H 0.70266 0.61236 0.59381 0.0
H1156 H 0.69885 0.704 0.59308 0.0
H1157 H 0.73701 0.68447 0.72247 0.0
H1158 H 0.74449 0.67764 0.67619 0.0
H1159 H 0.71492 0.65501 0.69921 0.0
C1160 C 0.74049 0.67193 0.55519 0.0
C1161 C 0.72876 0.64501 0.55927 0.0
C1162 C 0.73549 0.6865 0.58108 0.0
C1163 C 0.71884 0.67441 0.61157 0.0
C1164 C 0.70713 0.64757 0.61557 0.0
H1165 H 0.61378 0.70172 0.72963 0.0
H1166 H 0.63924 0.69278 0.68539 0.0
C1167 C 0.71213 0.63305 0.58987 0.0
C1168 C 0.71206 0.68929 0.6379 0.0
H1169 H 0.70458 0.69685 0.73134 0.0
C1170 C 0.70057 0.70287 0.6233 0.0
C1171 C 0.71477 0.68833 0.67731 0.0
C1172 C 0.72874 0.67581 0.69467 0.0
C1173 C 0.69007 0.71391 0.64713 0.0
C1174 C 0.69062 0.7108 0.68651 0.0
C1175 C 0.70377 0.69887 0.70113 0.0
C1176 C 0.67571 0.7176 0.71271 0.0
C1177 C 0.67803 0.72835 0.62981 0.0
C1178 C 0.68764 0.73405 0.74347 0.0
C1179 C 0.67301 0.73904 0.76924 0.0
C1180 C 0.64618 0.72745 0.76478 0.0
C1181 C 0.63439 0.71105 0.73388 0.0
C1182 C 0.64897 0.70609 0.70828 0.0
H1183 H 0.68694 0.73677 0.60219 0.0
H1184 H 0.65724 0.71476 0.62491 0.0
H1185 H 0.67996 0.74408 0.64849 0.0
H1186 H 0.70823 0.74291 0.74763 0.0
H1187 H 0.68265 0.75169 0.79282 0.0
H1188 H 0.08803 0.70408 0.75842 0.0
H1189 H 0.05358 0.69495 0.80269 0.0
H1190 H 0.0359 0.74668 0.74252 0.0
H1191 H 0.07025 0.75561 0.69721 0.0
H1192 H 0.04587 0.72713 0.84987 0.0
H1193 H 0.96671 0.67943 0.74507 0.0
H1194 H 0.99914 0.6867 0.73514 0.0
H1195 H 0.99132 0.71197 0.73479 0.0
C1196 C 0.07686 0.71356 0.75443 0.0
C1197 C 0.08174 0.73039 0.72404 0.0
C1198 C 0.05723 0.70839 0.77994 0.0
C1199 C 0.04201 0.71992 0.7757 0.0
C1200 C 0.04716 0.73726 0.74594 0.0
H1201 H 0.92919 0.68438 0.95949 0.0
H1202 H 0.96313 0.71029 0.91382 0.0
C1203 C 0.06684 0.7424 0.72019 0.0
C1204 C 0.02042 0.71287 0.80219 0.0
H1205 H 0.95486 0.67857 0.80809 0.0
C1206 C 0.02594 0.71686 0.84079 0.0
C1207 C 0.99448 0.6994 0.79014 0.0
C1208 C 0.98739 0.69389 0.74909 0.0
C1209 C 0.00625 0.70658 0.86783 0.0
C1210 C 0.98032 0.69236 0.8558 0.0
C1211 C 0.97477 0.68956 0.81715 0.0
C1212 C 0.95899 0.67742 0.88256 0.0
C1213 C 0.01342 0.70962 0.90896 0.0
C1214 C 0.94501 0.65047 0.87952 0.0
C1215 C 0.92559 0.63571 0.90519 0.0
C1216 C 0.9197 0.64758 0.93459 0.0
C1217 C 0.9334 0.67466 0.9373 0.0
C1218 C 0.95285 0.68948 0.91135 0.0
H1219 H 0.03434 0.71717 0.91321 0.0
H1220 H 0.00844 0.72336 0.92208 0.0
H1221 H 0.00255 0.69089 0.92387 0.0
H1222 H 0.94944 0.64076 0.85754 0.0
H1223 H 0.91539 0.61493 0.90212 0.0
H1224 H 0.29806 0.90987 0.06837 0.0
H1225 H 0.30797 0.94446 0.02381 0.0
H1226 H 0.25725 0.96374 0.08331 0.0
H1227 H 0.24746 0.9292 0.1288 0.0
H1228 H 0.27598 0.95286 0.97635 0.0
H1229 H 0.32577 0.03224 0.08049 0.0
H1230 H 0.31793 0.99956 0.09037 0.0
H1231 H 0.2932 0.00807 0.0914 0.0
C1232 C 0.28895 0.92141 0.07212 0.0
C1233 C 0.27213 0.91691 0.10236 0.0
C1234 C 0.29458 0.94113 0.04647 0.0
C1235 C 0.28356 0.95683 0.05046 0.0
C1236 C 0.26626 0.95208 0.08008 0.0
H1237 H 0.31591 0.0702 0.86893 0.0
H1238 H 0.29156 0.03575 0.9147 0.0
C1239 C 0.26062 0.93229 0.10593 0.0
C1240 C 0.29101 0.97846 0.02385 0.0
H1241 H 0.32595 0.0441 0.01755 0.0
C1242 C 0.28658 0.97284 0.98531 0.0
C1243 C 0.30498 0.00447 0.03574 0.0
C1244 C 0.31098 0.0116 0.07669 0.0
C1245 C 0.29667 0.99251 0.95818 0.0
C1246 C 0.3112 0.01849 0.97004 0.0
C1247 C 0.3147 0.02415 0.00863 0.0
C1248 C 0.32534 0.03982 0.94295 0.0
C1249 C 0.29294 0.98527 0.91706 0.0
C1250 C 0.35231 0.05383 0.94421 0.0
C1251 C 0.3662 0.07351 0.91839 0.0
C1252 C 0.35341 0.07964 0.89072 0.0
C1253 C 0.32633 0.06582 0.88976 0.0
C1254 C 0.31239 0.04609 0.91577 0.0
H1255 H 0.28527 0.9643 0.91275 0.0
H1256 H 0.27907 0.99031 0.90466 0.0
H1257 H 0.3114 0.99611 0.90153 0.0
H1258 H 0.36267 0.0493 0.96496 0.0
H1259 H 0.38702 0.08381 0.92008 0.0
H1260 H 0.51487 0.66256 0.90354 0.0
H1261 H 0.4766 0.62039 0.9123 0.0
H1262 H 0.52412 0.58558 0.92284 0.0
H1263 H 0.56279 0.62795 0.91462 0.0
H1264 H 0.48225 0.55992 0.87208 0.0
H1265 H 0.45062 0.5779 0.00967 0.0
H1266 H 0.45678 0.60211 0.975 0.0
H1267 H 0.4828 0.59803 0.99166 0.0
C1268 C 0.51731 0.64607 0.90853 0.0
C1269 C 0.54197 0.64872 0.90872 0.0
C1270 C 0.49537 0.62195 0.9134 0.0
C1271 C 0.49757 0.59995 0.91869 0.0
C1272 C 0.52207 0.60239 0.91891 0.0
H1273 H 0.36617 0.45333 0.98604 0.0
H1274 H 0.40913 0.49104 0.9806 0.0
C1275 C 0.54411 0.62659 0.91409 0.0
C1276 C 0.4741 0.57435 0.9226 0.0
H1277 H 0.41976 0.541 0.97548 0.0
C1278 C 0.46868 0.55563 0.89487 0.0
C1279 C 0.45661 0.56876 0.95257 0.0
C1280 C 0.46205 0.58765 0.98414 0.0
C1281 C 0.44573 0.53172 0.89565 0.0
C1282 C 0.42767 0.52663 0.92466 0.0
C1283 C 0.43352 0.54504 0.95305 0.0
C1284 C 0.40239 0.50251 0.92604 0.0
C1285 C 0.44105 0.51212 0.86551 0.0
C1286 C 0.38437 0.49634 0.89702 0.0
C1287 C 0.35979 0.47461 0.89986 0.0
C1288 C 0.35275 0.45874 0.93193 0.0
C1289 C 0.37105 0.46483 0.96066 0.0
C1290 C 0.39557 0.48651 0.95776 0.0
H1291 H 0.45932 0.51591 0.85202 0.0
H1292 H 0.43119 0.49226 0.87719 0.0
H1293 H 0.42857 0.51315 0.84337 0.0
H1294 H 0.38907 0.5087 0.87259 0.0
H1295 H 0.34626 0.47039 0.87711 0.0
H1296 H 0.91807 0.36909 0.15072 0.0
H1297 H 0.92183 0.41147 0.14539 0.0
H1298 H 0.88968 0.39262 0.0337 0.0
H1299 H 0.88669 0.35042 0.03817 0.0
H1300 H 0.93138 0.44406 0.04162 0.0
H1301 H 0.85678 0.41788 0.1521 0.0
H1302 H 0.88389 0.41476 0.16584 0.0
H1303 H 0.86261 0.3943 0.12957 0.0
C1304 C 0.91234 0.37412 0.12463 0.0
C1305 C 0.90187 0.35623 0.09495 0.0
C1306 C 0.91425 0.39826 0.12184 0.0
C1307 C 0.90557 0.40494 0.08946 0.0
C1308 C 0.89629 0.38771 0.05906 0.0
H1309 H 0.85387 0.51362 0.05963 0.0
H1310 H 0.85934 0.47613 0.06644 0.0
C1311 C 0.89442 0.36355 0.06178 0.0
C1312 C 0.90486 0.42927 0.08805 0.0
H1313 H 0.87631 0.46034 0.12839 0.0
C1314 C 0.91945 0.44773 0.06064 0.0
C1315 C 0.889 0.43377 0.11267 0.0
C1316 C 0.87198 0.41408 0.14152 0.0
C1317 C 0.91859 0.47064 0.05718 0.0
C1318 C 0.90296 0.47526 0.08212 0.0
C1319 C 0.88846 0.45682 0.10957 0.0
C1320 C 0.90007 0.49831 0.07878 0.0
C1321 C 0.93376 0.48934 0.02619 0.0
C1322 C 0.92111 0.52323 0.08408 0.0
C1323 C 0.91802 0.54479 0.08041 0.0
C1324 C 0.89378 0.54174 0.07165 0.0
C1325 C 0.87271 0.51667 0.067 0.0
C1326 C 0.87582 0.49521 0.07062 0.0
H1327 H 0.94033 0.48045 0.00468 0.0
H1328 H 0.92207 0.49654 0.01209 0.0
H1329 H 0.95102 0.50615 0.03841 0.0
H1330 H 0.93988 0.526 0.09116 0.0
H1331 H 0.93455 0.56381 0.08464 0.0
H1332 H 0.51256 0.84746 0.26317 0.0
H1333 H 0.47406 0.85101 0.25554 0.0
H1334 H 0.52134 0.93289 0.2373 0.0
H1335 H 0.56015 0.92951 0.24444 0.0
H1336 H 0.48153 0.91921 0.29043 0.0
H1337 H 0.44462 0.86316 0.1584 0.0
H1338 H 0.45169 0.84663 0.19445 0.0
H1339 H 0.47734 0.87573 0.1743 0.0
C1340 C 0.51485 0.86617 0.25675 0.0
C1341 C 0.53949 0.88818 0.25415 0.0
C1342 C 0.49279 0.86816 0.25251 0.0
C1343 C 0.49486 0.89215 0.24541 0.0
C1344 C 0.51936 0.91418 0.24269 0.0
H1345 H 0.36454 0.90882 0.17941 0.0
H1346 H 0.40681 0.91244 0.18392 0.0
C1347 C 0.5415 0.91222 0.24689 0.0
C1348 C 0.47137 0.89423 0.2422 0.0
H1349 H 0.41557 0.8718 0.19245 0.0
C1350 C 0.46718 0.90904 0.26884 0.0
C1351 C 0.45284 0.88114 0.21379 0.0
C1352 C 0.45689 0.86596 0.18337 0.0
C1353 C 0.44455 0.91051 0.26844 0.0
C1354 C 0.42555 0.89654 0.24096 0.0
C1355 C 0.43008 0.88231 0.21371 0.0
C1356 C 0.40072 0.89625 0.23987 0.0
C1357 C 0.44125 0.92711 0.29726 0.0
C1358 C 0.38331 0.88606 0.26997 0.0
C1359 C 0.35915 0.88416 0.26764 0.0
C1360 C 0.35191 0.89227 0.23504 0.0
C1361 C 0.36962 0.90281 0.2052 0.0
C1362 C 0.39373 0.90471 0.20758 0.0
H1363 H 0.46001 0.94172 0.30947 0.0
H1364 H 0.43175 0.93719 0.28475 0.0
H1365 H 0.42895 0.91471 0.32052 0.0
H1366 H 0.38815 0.879 0.29492 0.0
H1367 H 0.34606 0.87611 0.29122 0.0
H1368 H 0.46868 0.34533 0.46165 0.0
H1369 H 0.50788 0.38761 0.46445 0.0
H1370 H 0.49178 0.40565 0.35392 0.0
H1371 H 0.45314 0.36319 0.35029 0.0
H1372 H 0.54123 0.41469 0.36108 0.0
H1373 H 0.51724 0.45957 0.47902 0.0
H1374 H 0.51331 0.42855 0.49011 0.0
H1375 H 0.49321 0.4311 0.45487 0.0
C1376 C 0.47344 0.35831 0.43799 0.0
C1377 C 0.45771 0.35085 0.40577 0.0
C1378 C 0.49569 0.38259 0.43982 0.0
C1379 C 0.50255 0.39989 0.40959 0.0
C1380 C 0.48672 0.39266 0.37768 0.0
H1381 H 0.62959 0.55963 0.4118 0.0
H1382 H 0.58708 0.52091 0.40553 0.0
C1383 C 0.46452 0.36844 0.3758 0.0
C1384 C 0.52709 0.42482 0.41008 0.0
H1385 H 0.56111 0.48106 0.45902 0.0
C1386 C 0.54551 0.42929 0.38232 0.0
C1387 C 0.53249 0.44395 0.43754 0.0
C1388 C 0.51294 0.44073 0.46688 0.0
C1389 C 0.56948 0.45209 0.3819 0.0
C1390 C 0.57531 0.47073 0.41031 0.0
C1391 C 0.55663 0.46663 0.43743 0.0
C1392 C 0.60102 0.49418 0.41312 0.0
C1393 C 0.58834 0.45606 0.35097 0.0
C1394 C 0.62284 0.49192 0.4197 0.0
C1395 C 0.64705 0.51392 0.42344 0.0
C1396 C 0.64996 0.53868 0.42085 0.0
C1397 C 0.62801 0.54087 0.41421 0.0
C1398 C 0.60374 0.51879 0.4105 0.0
H1399 H 0.57855 0.44376 0.32614 0.0
H1400 H 0.59904 0.47654 0.34185 0.0
H1401 H 0.60249 0.4508 0.36158 0.0
H1402 H 0.62107 0.4731 0.42265 0.0
H1403 H 0.6634 0.51148 0.42942 0.0
H1404 H 0.07039 0.63137 0.57676 0.0
H1405 H 0.06695 0.58894 0.57201 0.0
H1406 H 0.14808 0.62345 0.59549 0.0
H1407 H 0.15168 0.66575 0.60052 0.0
H1408 H 0.13195 0.58914 0.53564 0.0
H1409 H 0.06907 0.54597 0.66058 0.0
H1410 H 0.05707 0.55918 0.62599 0.0
H1411 H 0.08602 0.58021 0.65138 0.0
C1412 C 0.08746 0.62989 0.58107 0.0
C1413 C 0.11131 0.65197 0.58901 0.0
C1414 C 0.08545 0.60564 0.57842 0.0
C1415 C 0.10719 0.60302 0.58395 0.0
C1416 C 0.13106 0.62505 0.59117 0.0
H1417 H 0.12153 0.46898 0.62989 0.0
H1418 H 0.11965 0.50884 0.63293 0.0
C1419 C 0.1331 0.64925 0.59377 0.0
C1420 C 0.10534 0.57744 0.58196 0.0
H1421 H 0.07828 0.51838 0.6244 0.0
C1422 C 0.12015 0.57363 0.55495 0.0
C1423 C 0.09021 0.55739 0.60757 0.0
C1424 C 0.07484 0.56084 0.63827 0.0
C1425 C 0.12023 0.55029 0.55275 0.0
C1426 C 0.1047 0.53006 0.57785 0.0
C1427 C 0.08996 0.53387 0.60499 0.0
C1428 C 0.10413 0.50505 0.57688 0.0
C1429 C 0.13744 0.54774 0.52421 0.0
C1430 C 0.09541 0.48943 0.54474 0.0
C1431 C 0.09666 0.4668 0.54277 0.0
C1432 C 0.10648 0.45922 0.57307 0.0
C1433 C 0.11425 0.47444 0.60584 0.0
C1434 C 0.11303 0.49712 0.60774 0.0
H1435 H 0.15259 0.56683 0.51362 0.0
H1436 H 0.14688 0.53751 0.53641 0.0
H1437 H 0.12566 0.53637 0.49985 0.0
H1438 H 0.0881 0.49501 0.52084 0.0
H1439 H 0.09074 0.45573 0.51696 0.0
H1440 H 0.62913 0.07897 0.70043 0.0
H1441 H 0.58736 0.07539 0.70661 0.0
H1442 H 0.61725 0.13436 0.79214 0.0
H1443 H 0.65807 0.13542 0.79036 0.0
H1444 H 0.57239 0.10359 0.80964 0.0
H1445 H 0.56824 0.12157 0.65816 0.0
H1446 H 0.56922 0.09249 0.66492 0.0
H1447 H 0.59621 0.12304 0.6792 0.0
C1448 C 0.62691 0.09071 0.72151 0.0
C1449 C 0.64769 0.10787 0.74444 0.0
C1450 C 0.60293 0.08908 0.72424 0.0
C1451 C 0.5993 0.10544 0.74856 0.0
C1452 C 0.61955 0.12181 0.77254 0.0
H1453 H 0.47726 0.1407 0.71507 0.0
H1454 H 0.51644 0.13854 0.71382 0.0
C1455 C 0.64325 0.12272 0.77096 0.0
C1456 C 0.57455 0.10558 0.74913 0.0
H1457 H 0.52957 0.10773 0.69281 0.0
C1458 C 0.5632 0.10477 0.78404 0.0
C1459 C 0.56263 0.10763 0.71587 0.0
C1460 C 0.57489 0.11154 0.67753 0.0
C1461 C 0.54056 0.10609 0.78673 0.0
C1462 C 0.52777 0.10644 0.75336 0.0
C1463 C 0.53904 0.1071 0.71844 0.0
C1464 C 0.50334 0.10722 0.75392 0.0
C1465 C 0.53143 0.10827 0.82542 0.0
C1466 C 0.48243 0.09002 0.77619 0.0
C1467 C 0.46036 0.09218 0.77873 0.0
C1468 C 0.45801 0.11082 0.75755 0.0
C1469 C 0.47834 0.12675 0.73311 0.0
C1470 C 0.50082 0.12525 0.7318 0.0
H1471 H 0.54761 0.11676 0.84587 0.0
H1472 H 0.52227 0.1204 0.82513 0.0
H1473 H 0.51727 0.08874 0.83577 0.0
H1474 H 0.48328 0.07514 0.79229 0.0
H1475 H 0.44557 0.07957 0.79824 0.0
loop_
_geom_bond_atom_site_label_1
_geom_bond_atom_site_label_2
_geom_bond_distance
_geom_bond_site_symmetry_2
_ccdc_geom_bond_type
C0 C1 1.351 . S
C0 N3 1.368 . S
C0 H5 0.931 . S
C1 C0 1.351 . S
C1 N2 1.373 . S
C1 H29 0.930 . S
N2 C1 1.373 . S
N2 C4 1.340 . S
N3 C0 1.368 . S
N3 C4 1.321 . S
N3 Co6 2.135 1_556 S
C4 N2 1.340 . S
C4 N3 1.321 . S
C4 H28 0.930 . S
H5 C0 0.931 . S
Co6 N3 2.135 1_554 S
Co6 N9 2.121 . S
Co6 O14 2.055 . S
Co6 O17 2.039 . S
Co6 N20 2.140 1_554 S
C7 O8 1.227 . S
C7 O17 1.265 . S
O8 C7 1.227 . S
N9 Co6 2.121 . S
N9 C11 1.375 . S
N9 C12 1.313 . S
C10 C11 1.338 . S
C10 N13 1.377 . S
C10 H30 0.930 . S
C11 N9 1.375 . S
C11 C10 1.338 . S
C11 H15 0.931 . S
C12 N9 1.313 . S
C12 N13 1.344 . S
C12 H16 0.930 . S
N13 C10 1.377 . S
N13 C12 1.344 . S
O14 Co6 2.055 . S
O14 C18 1.253 1_554 S
H15 C11 0.931 . S
H16 C12 0.930 . S
O17 Co6 2.039 . S
O17 C7 1.265 . S
C18 O14 1.253 1_556 S
C18 O19 1.227 . S
O19 C18 1.227 . S
N20 Co6 2.140 1_556 S
N20 C23 1.346 . S
N20 C24 1.345 . S
C21 C22 1.387 . S
C21 C25 1.391 . S
C22 C21 1.387 . S
C22 C23 1.369 . S
C22 H31 0.929 . S
C23 N20 1.346 . S
C23 C22 1.369 . S
C23 H26 0.928 . S
C24 N20 1.345 . S
C24 C25 1.371 . S
C24 H27 0.931 . S
C25 C21 1.391 . S
C25 C24 1.371 . S
C25 H32 0.930 . S
H26 C23 0.928 . S
H27 C24 0.931 . S
H28 C4 0.930 . S
H29 C1 0.930 . S
H30 C10 0.930 . S
H31 C22 0.929 . S
H32 C25 0.930 . S
C33 C34 1.351 . S
C33 N36 1.368 . S
C33 H38 0.931 . S
C34 C33 1.351 . S
C34 N35 1.373 . S
C34 H62 0.930 . S
N35 C34 1.373 . S
N35 C37 1.340 . S
N36 C33 1.368 . S
N36 C37 1.321 . S
N36 Co39 2.135 . S
C37 N35 1.340 . S
C37 N36 1.321 . S
C37 H61 0.930 . S
H38 C33 0.931 . S
Co39 N36 2.135 . S
Co39 N42 2.121 . S
Co39 O47 2.055 . S
Co39 O50 2.039 . S
Co39 N53 2.140 . S
C40 O41 1.227 . S
C40 O50 1.265 . S
O41 C40 1.227 . S
N42 Co39 2.121 . S
N42 C44 1.375 . S
N42 C45 1.313 . S
C43 C44 1.338 . S
C43 N46 1.377 . S
C43 H63 0.930 . S
C44 N42 1.375 . S
C44 C43 1.338 . S
C44 H48 0.931 . S
C45 N42 1.313 . S
C45 N46 1.344 . S
C45 H49 0.930 . S
N46 C43 1.377 . S
N46 C45 1.344 . S
O47 Co39 2.055 . S
O47 C51 1.253 . S
H48 C44 0.931 . S
H49 C45 0.930 . S
O50 Co39 2.039 . S
O50 C40 1.265 . S
C51 O47 1.253 . S
C51 O52 1.227 . S
O52 C51 1.227 . S
N53 Co39 2.140 . S
N53 C56 1.346 . S
N53 C57 1.345 . S
C54 C55 1.387 . S
C54 C58 1.391 . S
C55 C54 1.387 . S
C55 C56 1.369 . S
C55 H64 0.929 . S
C56 N53 1.346 . S
C56 C55 1.369 . S
C56 H59 0.928 . S
C57 N53 1.345 . S
C57 C58 1.371 . S
C57 H60 0.931 . S
C58 C54 1.391 . S
C58 C57 1.371 . S
C58 H65 0.930 . S
H59 C56 0.928 . S
H60 C57 0.931 . S
H61 C37 0.930 . S
H62 C34 0.930 . S
H63 C43 0.930 . S
H64 C55 0.929 . S
H65 C58 0.930 . S
C66 C67 1.351 . S
C66 N69 1.368 . S
C66 H71 0.931 . S
C67 C66 1.351 . S
C67 N68 1.373 . S
C67 H95 0.930 . S
N68 C67 1.373 . S
N68 C70 1.340 . S
N69 C66 1.368 . S
N69 C70 1.321 . S
N69 Co72 2.135 . S
C70 N68 1.340 . S
C70 N69 1.321 . S
C70 H94 0.930 . S
H71 C66 0.931 . S
Co72 N69 2.135 . S
Co72 N75 2.121 . S
Co72 O80 2.055 . S
Co72 O83 2.039 . S
Co72 N86 2.140 . S
C73 O74 1.227 . S
C73 O83 1.265 . S
O74 C73 1.227 . S
N75 Co72 2.121 . S
N75 C77 1.375 . S
N75 C78 1.313 . S
C76 C77 1.338 . S
C76 N79 1.377 . S
C76 H96 0.930 . S
C77 N75 1.375 . S
C77 C76 1.338 . S
C77 H81 0.931 . S
C78 N75 1.313 . S
C78 N79 1.344 . S
C78 H82 0.930 . S
N79 C76 1.377 . S
N79 C78 1.344 . S
O80 Co72 2.055 . S
O80 C84 1.253 . S
H81 C77 0.931 . S
H82 C78 0.930 . S
O83 Co72 2.039 . S
O83 C73 1.265 . S
C84 O80 1.253 . S
C84 O85 1.227 . S
O85 C84 1.227 . S
N86 Co72 2.140 . S
N86 C89 1.346 . S
N86 C90 1.345 . S
C87 C88 1.387 . S
C87 C91 1.391 . S
C88 C87 1.387 . S
C88 C89 1.369 . S
C88 H97 0.929 . S
C89 N86 1.346 . S
C89 C88 1.369 . S
C89 H92 0.928 . S
C90 N86 1.345 . S
C90 C91 1.371 . S
C90 H93 0.931 . S
C91 C87 1.391 . S
C91 C90 1.371 . S
C91 H98 0.930 . S
H92 C89 0.928 . S
H93 C90 0.931 . S
H94 C70 0.930 . S
H95 C67 0.930 . S
H96 C76 0.930 . S
H97 C88 0.929 . S
H98 C91 0.930 . S
C99 C100 1.351 . S
C99 N102 1.368 . S
C99 H104 0.931 . S
C100 C99 1.351 . S
C100 N101 1.373 . S
C100 H128 0.930 . S
N101 C100 1.373 . S
N101 C103 1.340 . S
N102 C99 1.368 . S
N102 C103 1.321 . S
N102 Co105 2.135 . S
C103 N101 1.340 . S
C103 N102 1.321 . S
C103 H127 0.930 . S
H104 C99 0.931 . S
Co105 N102 2.135 . S
Co105 N108 2.121 . S
Co105 O113 2.055 . S
Co105 O116 2.039 . S
Co105 N119 2.140 . S
C106 O107 1.227 . S
C106 O116 1.265 . S
O107 C106 1.227 . S
N108 Co105 2.121 . S
N108 C110 1.375 . S
N108 C111 1.313 . S
C109 C110 1.338 . S
C109 N112 1.377 . S
C109 H129 0.930 . S
C110 N108 1.375 . S
C110 C109 1.338 . S
C110 H114 0.931 . S
C111 N108 1.313 . S
C111 N112 1.344 . S
C111 H115 0.930 . S
N112 C109 1.377 . S
N112 C111 1.344 . S
O113 Co105 2.055 . S
O113 C117 1.253 . S
H114 C110 0.931 . S
H115 C111 0.930 . S
O116 Co105 2.039 . S
O116 C106 1.265 . S
C117 O113 1.253 . S
C117 O118 1.227 . S
O118 C117 1.227 . S
N119 Co105 2.140 . S
N119 C122 1.346 . S
N119 C123 1.345 . S
C120 C121 1.387 . S
C120 C124 1.391 . S
C121 C120 1.387 . S
C121 C122 1.369 . S
C121 H130 0.929 . S
C122 N119 1.346 . S
C122 C121 1.369 . S
C122 H125 0.928 . S
C123 N119 1.345 . S
C123 C124 1.371 . S
C123 H126 0.931 . S
C124 C120 1.391 . S
C124 C123 1.371 . S
C124 H131 0.930 . S
H125 C122 0.928 . S
H126 C123 0.931 . S
H127 C103 0.930 . S
H128 C100 0.930 . S
H129 C109 0.930 . S
H130 C121 0.929 . S
H131 C124 0.930 . S
C132 C133 1.351 . S
C132 N135 1.368 . S
C132 H137 0.931 . S
C133 C132 1.351 . S
C133 N134 1.373 . S
C133 H161 0.930 . S
N134 C133 1.373 . S
N134 C136 1.340 . S
N135 C132 1.368 . S
N135 C136 1.321 . S
N135 Co138 2.135 . S
C136 N134 1.340 . S
C136 N135 1.321 . S
C136 H160 0.930 . S
H137 C132 0.931 . S
Co138 N135 2.135 . S
Co138 N141 2.121 . S
Co138 O146 2.055 . S
Co138 O149 2.039 . S
Co138 N152 2.140 . S
C139 O140 1.227 . S
C139 O149 1.265 . S
O140 C139 1.227 . S
N141 Co138 2.121 . S
N141 C143 1.375 . S
N141 C144 1.313 . S
C142 C143 1.338 . S
C142 N145 1.377 . S
C142 H162 0.930 . S
C143 N141 1.375 . S
C143 C142 1.338 . S
C143 H147 0.931 . S
C144 N141 1.313 . S
C144 N145 1.344 . S
C144 H148 0.930 . S
N145 C142 1.377 . S
N145 C144 1.344 . S
O146 Co138 2.055 . S
O146 C150 1.253 . S
H147 C143 0.931 . S
H148 C144 0.930 . S
O149 Co138 2.039 . S
O149 C139 1.265 . S
C150 O146 1.253 . S
C150 O151 1.227 . S
O151 C150 1.227 . S
N152 Co138 2.140 . S
N152 C155 1.346 . S
N152 C156 1.345 . S
C153 C154 1.387 . S
C153 C157 1.391 . S
C154 C153 1.387 . S
C154 C155 1.369 . S
C154 H163 0.929 . S
C155 N152 1.346 . S
C155 C154 1.369 . S
C155 H158 0.928 . S
C156 N152 1.345 . S
C156 C157 1.371 . S
C156 H159 0.931 . S
C157 C153 1.391 . S
C157 C156 1.371 . S
C157 H164 0.930 . S
H158 C155 0.928 . S
H159 C156 0.931 . S
H160 C136 0.930 . S
H161 C133 0.930 . S
H162 C142 0.930 . S
H163 C154 0.929 . S
H164 C157 0.930 . S
C165 C166 1.351 . S
C165 N168 1.368 . S
C165 H170 0.931 . S
C166 C165 1.351 . S
C166 N167 1.373 . S
C166 H194 0.930 . S
N167 C166 1.373 . S
N167 C169 1.340 . S
N168 C165 1.368 . S
N168 C169 1.321 . S
N168 Co171 2.135 . S
C169 N167 1.340 . S
C169 N168 1.321 . S
C169 H193 0.930 . S
H170 C165 0.931 . S
Co171 N168 2.135 . S
Co171 N174 2.121 . S
Co171 O179 2.055 . S
Co171 O182 2.039 . S
Co171 N185 2.140 . S
C172 O173 1.227 . S
C172 O182 1.265 . S
O173 C172 1.227 . S
N174 Co171 2.121 . S
N174 C176 1.375 . S
N174 C177 1.313 . S
C175 C176 1.338 . S
C175 N178 1.377 . S
C175 H195 0.930 . S
C176 N174 1.375 . S
C176 C175 1.338 . S
C176 H180 0.931 . S
C177 N174 1.313 . S
C177 N178 1.344 . S
C177 H181 0.930 . S
N178 C175 1.377 . S
N178 C177 1.344 . S
O179 Co171 2.055 . S
O179 C183 1.253 . S
H180 C176 0.931 . S
H181 C177 0.930 . S
O182 Co171 2.039 . S
O182 C172 1.265 . S
C183 O179 1.253 . S
C183 O184 1.227 . S
O184 C183 1.227 . S
N185 Co171 2.140 . S
N185 C188 1.346 . S
N185 C189 1.345 . S
C186 C187 1.387 . S
C186 C190 1.391 . S
C187 C186 1.387 . S
C187 C188 1.369 . S
C187 H196 0.929 . S
C188 N185 1.346 . S
C188 C187 1.369 . S
C188 H191 0.928 . S
C189 N185 1.345 . S
C189 C190 1.371 . S
C189 H192 0.931 . S
C190 C186 1.391 . S
C190 C189 1.371 . S
C190 H197 0.930 . S
H191 C188 0.928 . S
H192 C189 0.931 . S
H193 C169 0.930 . S
H194 C166 0.930 . S
H195 C175 0.930 . S
H196 C187 0.929 . S
H197 C190 0.930 . S
C198 C199 1.351 . S
C198 N201 1.368 . S
C198 H203 0.931 . S
C199 C198 1.351 . S
C199 N200 1.373 . S
C199 H227 0.930 . S
N200 C199 1.373 . S
N200 C202 1.340 . S
N201 C198 1.368 . S
N201 C202 1.321 . S
N201 Co204 2.135 . S
C202 N200 1.340 . S
C202 N201 1.321 . S
C202 H226 0.930 . S
H203 C198 0.931 . S
Co204 N201 2.135 . S
Co204 N207 2.121 . S
Co204 O212 2.055 . S
Co204 O215 2.039 . S
Co204 N218 2.140 . S
C205 O206 1.227 . S
C205 O215 1.265 . S
O206 C205 1.227 . S
N207 Co204 2.121 . S
N207 C209 1.375 . S
N207 C210 1.313 . S
C208 C209 1.338 . S
C208 N211 1.377 . S
C208 H228 0.930 . S
C209 N207 1.375 . S
C209 C208 1.338 . S
C209 H213 0.931 . S
C210 N207 1.313 . S
C210 N211 1.344 . S
C210 H214 0.930 . S
N211 C208 1.377 . S
N211 C210 1.344 . S
O212 Co204 2.055 . S
O212 C216 1.253 . S
H213 C209 0.931 . S
H214 C210 0.930 . S
O215 Co204 2.039 . S
O215 C205 1.265 . S
C216 O212 1.253 . S
C216 O217 1.227 . S
O217 C216 1.227 . S
N218 Co204 2.140 . S
N218 C221 1.346 . S
N218 C222 1.345 . S
C219 C220 1.387 . S
C219 C223 1.391 . S
C220 C219 1.387 . S
C220 C221 1.369 . S
C220 H229 0.929 . S
C221 N218 1.346 . S
C221 C220 1.369 . S
C221 H224 0.928 . S
C222 N218 1.345 . S
C222 C223 1.371 . S
C222 H225 0.931 . S
C223 C219 1.391 . S
C223 C222 1.371 . S
C223 H230 0.930 . S
H224 C221 0.928 . S
H225 C222 0.931 . S
H226 C202 0.930 . S
H227 C199 0.930 . S
H228 C208 0.930 . S
H229 C220 0.929 . S
H230 C223 0.930 . S
C231 C232 1.351 . S
C231 N234 1.368 . S
C231 H236 0.931 . S
C232 C231 1.351 . S
C232 N233 1.373 . S
C232 H260 0.930 . S
N233 C232 1.373 . S
N233 C235 1.340 . S
N234 C231 1.368 . S
N234 C235 1.321 . S
N234 Co237 2.135 1_554 S
C235 N233 1.340 . S
C235 N234 1.321 . S
C235 H259 0.930 . S
H236 C231 0.931 . S
Co237 N234 2.135 1_556 S
Co237 N240 2.121 . S
Co237 O245 2.055 . S
Co237 O248 2.039 . S
Co237 N251 2.140 1_556 S
C238 O239 1.227 . S
C238 O248 1.265 . S
O239 C238 1.227 . S
N240 Co237 2.121 . S
N240 C242 1.375 . S
N240 C243 1.313 . S
C241 C242 1.338 . S
C241 N244 1.377 . S
C241 H261 0.930 . S
C242 N240 1.375 . S
C242 C241 1.338 . S
C242 H246 0.931 . S
C243 N240 1.313 . S
C243 N244 1.344 . S
C243 H247 0.930 . S
N244 C241 1.377 . S
N244 C243 1.344 . S
O245 Co237 2.055 . S
O245 C249 1.253 1_556 S
H246 C242 0.931 . S
H247 C243 0.930 . S
O248 Co237 2.039 . S
O248 C238 1.265 . S
C249 O245 1.253 1_554 S
C249 O250 1.227 . S
O250 C249 1.227 . S
N251 Co237 2.140 1_554 S
N251 C254 1.346 . S
N251 C255 1.345 . S
C252 C253 1.387 . S
C252 C256 1.391 . S
C253 C252 1.387 . S
C253 C254 1.369 . S
C253 H262 0.929 . S
C254 N251 1.346 . S
C254 C253 1.369 . S
C254 H257 0.928 . S
C255 N251 1.345 . S
C255 C256 1.371 . S
C255 H258 0.931 . S
C256 C252 1.391 . S
C256 C255 1.371 . S
C256 H263 0.930 . S
H257 C254 0.928 . S
H258 C255 0.931 . S
H259 C235 0.930 . S
H260 C232 0.930 . S
H261 C241 0.930 . S
H262 C253 0.929 . S
H263 C256 0.930 . S
C264 C265 1.351 . S
C264 N267 1.368 . S
C264 H269 0.931 . S
C265 C264 1.351 . S
C265 N266 1.373 . S
C265 H293 0.930 . S
N266 C265 1.373 . S
N266 C268 1.340 . S
N267 C264 1.368 . S
N267 C268 1.321 . S
N267 Co270 2.135 . S
C268 N266 1.340 . S
C268 N267 1.321 . S
C268 H292 0.930 . S
H269 C264 0.931 . S
Co270 N267 2.135 . S
Co270 N273 2.121 . S
Co270 O278 2.055 . S
Co270 O281 2.039 . S
Co270 N284 2.140 . S
C271 O272 1.227 . S
C271 O281 1.265 . S
O272 C271 1.227 . S
N273 Co270 2.121 . S
N273 C275 1.375 . S
N273 C276 1.313 . S
C274 C275 1.338 . S
C274 N277 1.377 . S
C274 H294 0.930 . S
C275 N273 1.375 . S
C275 C274 1.338 . S
C275 H279 0.931 . S
C276 N273 1.313 . S
C276 N277 1.344 . S
C276 H280 0.930 . S
N277 C274 1.377 . S
N277 C276 1.344 . S
O278 Co270 2.055 . S
O278 C282 1.253 . S
H279 C275 0.931 . S
H280 C276 0.930 . S
O281 Co270 2.039 . S
O281 C271 1.265 . S
C282 O278 1.253 . S
C282 O283 1.227 . S
O283 C282 1.227 . S
N284 Co270 2.140 . S
N284 C287 1.346 . S
N284 C288 1.345 . S
C285 C286 1.387 . S
C285 C289 1.391 . S
C286 C285 1.387 . S
C286 C287 1.369 . S
C286 H295 0.929 . S
C287 N284 1.346 . S
C287 C286 1.369 . S
C287 H290 0.928 . S
C288 N284 1.345 . S
C288 C289 1.371 . S
C288 H291 0.931 . S
C289 C285 1.391 . S
C289 C288 1.371 . S
C289 H296 0.930 . S
H290 C287 0.928 . S
H291 C288 0.931 . S
H292 C268 0.930 . S
H293 C265 0.930 . S
H294 C274 0.930 . S
H295 C286 0.929 . S
H296 C289 0.930 . S
C297 C298 1.351 . S
C297 N300 1.368 . S
C297 H302 0.931 . S
C298 C297 1.351 . S
C298 N299 1.373 . S
C298 H326 0.930 . S
N299 C298 1.373 . S
N299 C301 1.340 . S
N300 C297 1.368 . S
N300 C301 1.321 . S
N300 Co303 2.135 . S
C301 N299 1.340 . S
C301 N300 1.321 . S
C301 H325 0.930 . S
H302 C297 0.931 . S
Co303 N300 2.135 . S
Co303 N306 2.121 . S
Co303 O311 2.055 . S
Co303 O314 2.039 . S
Co303 N317 2.140 . S
C304 O305 1.227 . S
C304 O314 1.265 . S
O305 C304 1.227 . S
N306 Co303 2.121 . S
N306 C308 1.375 . S
N306 C309 1.313 . S
C307 C308 1.338 . S
C307 N310 1.377 . S
C307 H327 0.930 . S
C308 N306 1.375 . S
C308 C307 1.338 . S
C308 H312 0.931 . S
C309 N306 1.313 . S
C309 N310 1.344 . S
C309 H313 0.930 . S
N310 C307 1.377 . S
N310 C309 1.344 . S
O311 Co303 2.055 . S
O311 C315 1.253 . S
H312 C308 0.931 . S
H313 C309 0.930 . S
O314 Co303 2.039 . S
O314 C304 1.265 . S
C315 O311 1.253 . S
C315 O316 1.227 . S
O316 C315 1.227 . S
N317 Co303 2.140 . S
N317 C320 1.346 . S
N317 C321 1.345 . S
C318 C319 1.387 . S
C318 C322 1.391 . S
C319 C318 1.387 . S
C319 C320 1.369 . S
C319 H328 0.929 . S
C320 N317 1.346 . S
C320 C319 1.369 . S
C320 H323 0.928 . S
C321 N317 1.345 . S
C321 C322 1.371 . S
C321 H324 0.931 . S
C322 C318 1.391 . S
C322 C321 1.371 . S
C322 H329 0.930 . S
H323 C320 0.928 . S
H324 C321 0.931 . S
H325 C301 0.930 . S
H326 C298 0.930 . S
H327 C307 0.930 . S
H328 C319 0.929 . S
H329 C322 0.930 . S
C330 C331 1.351 . S
C330 N333 1.368 . S
C330 H335 0.931 . S
C331 C330 1.351 . S
C331 N332 1.373 . S
C331 H359 0.930 . S
N332 C331 1.373 . S
N332 C334 1.340 . S
N333 C330 1.368 . S
N333 C334 1.321 . S
N333 Co336 2.135 . S
C334 N332 1.340 . S
C334 N333 1.321 . S
C334 H358 0.930 . S
H335 C330 0.931 . S
Co336 N333 2.135 . S
Co336 N339 2.121 . S
Co336 O344 2.055 . S
Co336 O347 2.039 . S
Co336 N350 2.140 . S
C337 O338 1.227 . S
C337 O347 1.265 . S
O338 C337 1.227 . S
N339 Co336 2.121 . S
N339 C341 1.375 . S
N339 C342 1.313 . S
C340 C341 1.338 . S
C340 N343 1.377 . S
C340 H360 0.930 . S
C341 N339 1.375 . S
C341 C340 1.338 . S
C341 H345 0.931 . S
C342 N339 1.313 . S
C342 N343 1.344 . S
C342 H346 0.930 . S
N343 C340 1.377 . S
N343 C342 1.344 . S
O344 Co336 2.055 . S
O344 C348 1.253 . S
H345 C341 0.931 . S
H346 C342 0.930 . S
O347 Co336 2.039 . S
O347 C337 1.265 . S
C348 O344 1.253 . S
C348 O349 1.227 . S
O349 C348 1.227 . S
N350 Co336 2.140 . S
N350 C353 1.346 . S
N350 C354 1.345 . S
C351 C352 1.387 . S
C351 C355 1.391 . S
C352 C351 1.387 . S
C352 C353 1.369 . S
C352 H361 0.929 . S
C353 N350 1.346 . S
C353 C352 1.369 . S
C353 H356 0.928 . S
C354 N350 1.345 . S
C354 C355 1.371 . S
C354 H357 0.931 . S
C355 C351 1.391 . S
C355 C354 1.371 . S
C355 H362 0.930 . S
H356 C353 0.928 . S
H357 C354 0.931 . S
H358 C334 0.930 . S
H359 C331 0.930 . S
H360 C340 0.930 . S
H361 C352 0.929 . S
H362 C355 0.930 . S
C363 C364 1.351 . S
C363 N366 1.368 . S
C363 H368 0.931 . S
C364 C363 1.351 . S
C364 N365 1.373 . S
C364 H392 0.930 . S
N365 C364 1.373 . S
N365 C367 1.340 . S
N366 C363 1.368 . S
N366 C367 1.321 . S
N366 Co369 2.135 . S
C367 N365 1.340 . S
C367 N366 1.321 . S
C367 H391 0.930 . S
H368 C363 0.931 . S
Co369 N366 2.135 . S
Co369 N372 2.121 . S
Co369 O377 2.055 . S
Co369 O380 2.039 . S
Co369 N383 2.140 . S
C370 O371 1.227 . S
C370 O380 1.265 . S
O371 C370 1.227 . S
N372 Co369 2.121 . S
N372 C374 1.375 . S
N372 C375 1.313 . S
C373 C374 1.338 . S
C373 N376 1.377 . S
C373 H393 0.930 . S
C374 N372 1.375 . S
C374 C373 1.338 . S
C374 H378 0.931 . S
C375 N372 1.313 . S
C375 N376 1.344 . S
C375 H379 0.930 . S
N376 C373 1.377 . S
N376 C375 1.344 . S
O377 Co369 2.055 . S
O377 C381 1.253 . S
H378 C374 0.931 . S
H379 C375 0.930 . S
O380 Co369 2.039 . S
O380 C370 1.265 . S
C381 O377 1.253 . S
C381 O382 1.227 . S
O382 C381 1.227 . S
N383 Co369 2.140 . S
N383 C386 1.346 . S
N383 C387 1.345 . S
C384 C385 1.387 . S
C384 C388 1.391 . S
C385 C384 1.387 . S
C385 C386 1.369 . S
C385 H394 0.929 . S
C386 N383 1.346 . S
C386 C385 1.369 . S
C386 H389 0.928 . S
C387 N383 1.345 . S
C387 C388 1.371 . S
C387 H390 0.931 . S
C388 C384 1.391 . S
C388 C387 1.371 . S
C388 H395 0.930 . S
H389 C386 0.928 . S
H390 C387 0.931 . S
H391 C367 0.930 . S
H392 C364 0.930 . S
H393 C373 0.930 . S
H394 C385 0.929 . S
H395 C388 0.930 . S
H396 C404 0.929 . S
H397 C406 0.930 . S
H398 C408 0.930 . S
H399 C411 0.929 . S
H400 C414 0.930 . S
H401 C416 0.960 . S
H402 C416 0.960 . S
H403 C416 0.960 . S
C404 H396 0.929 . S
C404 C405 1.377 . S
C404 C406 1.384 . S
C405 C404 1.377 . S
C405 C411 1.390 . S
C406 H397 0.930 . S
C406 C404 1.384 . S
C406 C407 1.372 . S
C407 C406 1.372 . S
C407 C408 1.400 . S
C407 C412 1.490 . S
C408 H398 0.930 . S
C408 C407 1.400 . S
C408 C411 1.386 . S
H409 C425 0.930 . S
H410 C426 0.931 . S
C411 H399 0.929 . S
C411 C405 1.390 . S
C411 C408 1.386 . S
C412 C407 1.490 . S
C412 C414 1.395 . S
C412 C415 1.403 . S
H413 C419 0.930 . S
C414 H400 0.930 . S
C414 C412 1.395 . S
C414 C417 1.403 . S
C415 C412 1.403 . S
C415 C416 1.524 . S
C415 C419 1.400 . S
C416 H401 0.960 . S
C416 H402 0.960 . S
C416 H403 0.960 . S
C416 C415 1.524 . S
C417 C414 1.403 . S
C417 C418 1.392 . S
C417 C421 1.495 . S
C418 C417 1.392 . S
C418 C419 1.385 . S
C418 C420 1.478 . S
C419 H413 0.930 . S
C419 C415 1.400 . S
C419 C418 1.385 . S
C420 C418 1.478 . S
C420 C422 1.381 . S
C420 C426 1.383 . S
C421 C417 1.495 . S
C421 H427 0.959 . S
C421 H428 0.961 . S
C421 H429 0.960 . S
C422 C420 1.381 . S
C422 C423 1.394 . S
C422 H430 0.930 . S
C423 C422 1.394 . S
C423 C424 1.383 . S
C423 H431 0.929 . S
C424 C423 1.383 . S
C424 C425 1.377 . S
C425 H409 0.930 . S
C425 C424 1.377 . S
C425 C426 1.379 . S
C426 H410 0.931 . S
C426 C420 1.383 . S
C426 C425 1.379 . S
H427 C421 0.959 . S
H428 C421 0.961 . S
H429 C421 0.960 . S
H430 C422 0.930 . S
H431 C423 0.929 . S
H432 C440 0.929 . S
H433 C442 0.930 . S
H434 C444 0.930 . S
H435 C447 0.929 . S
H436 C450 0.930 . S
H437 C452 0.960 . S
H438 C452 0.960 . S
H439 C452 0.960 . S
C440 H432 0.929 . S
C440 C441 1.377 . S
C440 C442 1.384 . S
C441 C440 1.377 . S
C441 C447 1.390 . S
C442 H433 0.930 . S
C442 C440 1.384 . S
C442 C443 1.372 . S
C443 C442 1.372 . S
C443 C444 1.400 . S
C443 C448 1.490 . S
C444 H434 0.930 . S
C444 C443 1.400 . S
C444 C447 1.386 . S
H445 C461 0.930 . S
H446 C462 0.931 . S
C447 H435 0.929 . S
C447 C441 1.390 . S
C447 C444 1.386 . S
C448 C443 1.490 . S
C448 C450 1.395 . S
C448 C451 1.403 . S
H449 C455 0.930 . S
C450 H436 0.930 . S
C450 C448 1.395 . S
C450 C453 1.403 . S
C451 C448 1.403 . S
C451 C452 1.524 . S
C451 C455 1.400 . S
C452 H437 0.960 . S
C452 H438 0.960 . S
C452 H439 0.960 . S
C452 C451 1.524 . S
C453 C450 1.403 . S
C453 C454 1.392 . S
C453 C457 1.495 . S
C454 C453 1.392 . S
C454 C455 1.385 . S
C454 C456 1.478 . S
C455 H449 0.930 . S
C455 C451 1.400 . S
C455 C454 1.385 . S
C456 C454 1.478 . S
C456 C458 1.381 . S
C456 C462 1.383 . S
C457 C453 1.495 . S
C457 H463 0.959 . S
C457 H464 0.961 . S
C457 H465 0.960 . S
C458 C456 1.381 . S
C458 C459 1.394 . S
C458 H466 0.930 . S
C459 C458 1.394 . S
C459 C460 1.383 . S
C459 H467 0.929 . S
C460 C459 1.383 . S
C460 C461 1.377 . S
C461 H445 0.930 . S
C461 C460 1.377 . S
C461 C462 1.379 . S
C462 H446 0.931 . S
C462 C456 1.383 . S
C462 C461 1.379 . S
H463 C457 0.959 . S
H464 C457 0.961 . S
H465 C457 0.960 . S
H466 C458 0.930 . S
H467 C459 0.929 . S
H468 C476 0.929 . S
H469 C478 0.930 . S
H470 C480 0.930 . S
H471 C483 0.929 . S
H472 C486 0.930 . S
H473 C488 0.960 . S
H474 C488 0.960 . S
H475 C488 0.960 . S
C476 H468 0.929 . S
C476 C477 1.377 . S
C476 C478 1.384 . S
C477 C476 1.377 . S
C477 C483 1.390 . S
C478 H469 0.930 . S
C478 C476 1.384 . S
C478 C479 1.372 . S
C479 C478 1.372 . S
C479 C480 1.400 . S
C479 C484 1.490 . S
C480 H470 0.930 . S
C480 C479 1.400 . S
C480 C483 1.386 . S
H481 C497 0.930 . S
H482 C498 0.931 . S
C483 H471 0.929 . S
C483 C477 1.390 . S
C483 C480 1.386 . S
C484 C479 1.490 . S
C484 C486 1.395 . S
C484 C487 1.403 . S
H485 C491 0.930 . S
C486 H472 0.930 . S
C486 C484 1.395 . S
C486 C489 1.403 . S
C487 C484 1.403 . S
C487 C488 1.524 . S
C487 C491 1.400 . S
C488 H473 0.960 . S
C488 H474 0.960 . S
C488 H475 0.960 . S
C488 C487 1.524 . S
C489 C486 1.403 . S
C489 C490 1.392 . S
C489 C493 1.495 . S
C490 C489 1.392 . S
C490 C491 1.385 . S
C490 C492 1.478 . S
C491 H485 0.930 . S
C491 C487 1.400 . S
C491 C490 1.385 . S
C492 C490 1.478 . S
C492 C494 1.381 . S
C492 C498 1.383 . S
C493 C489 1.495 . S
C493 H499 0.959 . S
C493 H500 0.961 . S
C493 H501 0.960 . S
C494 C492 1.381 . S
C494 C495 1.394 . S
C494 H502 0.930 . S
C495 C494 1.394 . S
C495 C496 1.383 . S
C495 H503 0.929 . S
C496 C495 1.383 . S
C496 C497 1.377 . S
C497 H481 0.930 . S
C497 C496 1.377 . S
C497 C498 1.379 . S
C498 H482 0.931 . S
C498 C492 1.383 . S
C498 C497 1.379 . S
H499 C493 0.959 . S
H500 C493 0.961 . S
H501 C493 0.960 . S
H502 C494 0.930 . S
H503 C495 0.929 . S
H504 C512 0.929 . S
H505 C514 0.930 . S
H506 C516 0.930 . S
H507 C519 0.929 . S
H508 C522 0.930 . S
H509 C524 0.960 . S
H510 C524 0.960 . S
H511 C524 0.960 . S
C512 H504 0.929 . S
C512 C513 1.377 . S
C512 C514 1.384 . S
C513 C512 1.377 . S
C513 C519 1.390 . S
C514 H505 0.930 . S
C514 C512 1.384 . S
C514 C515 1.372 . S
C515 C514 1.372 . S
C515 C516 1.400 . S
C515 C520 1.490 . S
C516 H506 0.930 . S
C516 C515 1.400 . S
C516 C519 1.386 . S
H517 C533 0.930 . S
H518 C534 0.931 . S
C519 H507 0.929 . S
C519 C513 1.390 . S
C519 C516 1.386 . S
C520 C515 1.490 . S
C520 C522 1.395 . S
C520 C523 1.403 . S
H521 C527 0.930 . S
C522 H508 0.930 . S
C522 C520 1.395 . S
C522 C525 1.403 . S
C523 C520 1.403 . S
C523 C524 1.524 . S
C523 C527 1.400 . S
C524 H509 0.960 . S
C524 H510 0.960 . S
C524 H511 0.960 . S
C524 C523 1.524 . S
C525 C522 1.403 . S
C525 C526 1.392 . S
C525 C529 1.495 . S
C526 C525 1.392 . S
C526 C527 1.385 . S
C526 C528 1.478 . S
C527 H521 0.930 . S
C527 C523 1.400 . S
C527 C526 1.385 . S
C528 C526 1.478 . S
C528 C530 1.381 . S
C528 C534 1.383 . S
C529 C525 1.495 . S
C529 H535 0.959 . S
C529 H536 0.961 . S
C529 H537 0.960 . S
C530 C528 1.381 . S
C530 C531 1.394 . S
C530 H538 0.930 . S
C531 C530 1.394 . S
C531 C532 1.383 . S
C531 H539 0.929 . S
C532 C531 1.383 . S
C532 C533 1.377 . S
C533 H517 0.930 . S
C533 C532 1.377 . S
C533 C534 1.379 . S
C534 H518 0.931 . S
C534 C528 1.383 . S
C534 C533 1.379 . S
H535 C529 0.959 . S
H536 C529 0.961 . S
H537 C529 0.960 . S
H538 C530 0.930 . S
H539 C531 0.929 . S
H540 C548 0.929 . S
H541 C550 0.930 . S
H542 C552 0.930 . S
H543 C555 0.929 . S
H544 C558 0.930 . S
H545 C560 0.960 . S
H546 C560 0.960 . S
H547 C560 0.960 . S
C548 H540 0.929 . S
C548 C549 1.377 . S
C548 C550 1.384 . S
C549 C548 1.377 . S
C549 C555 1.390 . S
C550 H541 0.930 . S
C550 C548 1.384 . S
C550 C551 1.372 . S
C551 C550 1.372 . S
C551 C552 1.400 . S
C551 C556 1.490 . S
C552 H542 0.930 . S
C552 C551 1.400 . S
C552 C555 1.386 . S
H553 C569 0.930 . S
H554 C570 0.931 1_556 S
C555 H543 0.929 . S
C555 C549 1.390 . S
C555 C552 1.386 . S
C556 C551 1.490 . S
C556 C558 1.395 . S
C556 C559 1.403 . S
H557 C563 0.930 . S
C558 H544 0.930 . S
C558 C556 1.395 . S
C558 C561 1.403 . S
C559 C556 1.403 . S
C559 C560 1.524 . S
C559 C563 1.400 . S
C560 H545 0.960 . S
C560 H546 0.960 . S
C560 H547 0.960 . S
C560 C559 1.524 . S
C561 C558 1.403 . S
C561 C562 1.392 . S
C561 C565 1.495 . S
C562 C561 1.392 . S
C562 C563 1.385 . S
C562 C564 1.478 . S
C563 H557 0.930 . S
C563 C559 1.400 . S
C563 C562 1.385 . S
C564 C562 1.478 . S
C564 C566 1.381 1_556 S
C564 C570 1.383 1_556 S
C565 C561 1.495 . S
C565 H571 0.959 . S
C565 H572 0.961 . S
C565 H573 0.960 . S
C566 C564 1.381 1_554 S
C566 C567 1.394 . S
C566 H574 0.930 . S
C567 C566 1.394 . S
C567 C568 1.383 . S
C567 H575 0.929 . S
C568 C567 1.383 . S
C568 C569 1.377 . S
C569 H553 0.930 . S
C569 C568 1.377 . S
C569 C570 1.379 . S
C570 H554 0.931 1_554 S
C570 C564 1.383 1_554 S
C570 C569 1.379 . S
H571 C565 0.959 . S
H572 C565 0.961 . S
H573 C565 0.960 . S
H574 C566 0.930 . S
H575 C567 0.929 . S
H576 C584 0.929 . S
H577 C586 0.930 . S
H578 C588 0.930 1_554 S
H579 C591 0.929 . S
H580 C594 0.930 . S
H581 C596 0.960 . S
H582 C596 0.960 . S
H583 C596 0.960 . S
C584 H576 0.929 . S
C584 C585 1.377 . S
C584 C586 1.384 . S
C585 C584 1.377 . S
C585 C591 1.390 . S
C586 H577 0.930 . S
C586 C584 1.384 . S
C586 C587 1.372 1_556 S
C587 C586 1.372 1_554 S
C587 C588 1.400 1_554 S
C587 C592 1.490 . S
C588 H578 0.930 1_556 S
C588 C587 1.400 1_556 S
C588 C591 1.386 . S
H589 C605 0.930 . S
H590 C606 0.931 . S
C591 H579 0.929 . S
C591 C585 1.390 . S
C591 C588 1.386 . S
C592 C587 1.490 . S
C592 C594 1.395 . S
C592 C595 1.403 . S
H593 C599 0.930 . S
C594 H580 0.930 . S
C594 C592 1.395 . S
C594 C597 1.403 . S
C595 C592 1.403 . S
C595 C596 1.524 . S
C595 C599 1.400 . S
C596 H581 0.960 . S
C596 H582 0.960 . S
C596 H583 0.960 . S
C596 C595 1.524 . S
C597 C594 1.403 . S
C597 C598 1.392 . S
C597 C601 1.495 . S
C598 C597 1.392 . S
C598 C599 1.385 . S
C598 C600 1.478 . S
C599 H593 0.930 . S
C599 C595 1.400 . S
C599 C598 1.385 . S
C600 C598 1.478 . S
C600 C602 1.381 . S
C600 C606 1.383 . S
C601 C597 1.495 . S
C601 H607 0.959 . S
C601 H608 0.961 . S
C601 H609 0.960 . S
C602 C600 1.381 . S
C602 C603 1.394 . S
C602 H610 0.930 . S
C603 C602 1.394 . S
C603 C604 1.383 . S
C603 H611 0.929 . S
C604 C603 1.383 . S
C604 C605 1.377 . S
C605 H589 0.930 . S
C605 C604 1.377 . S
C605 C606 1.379 . S
C606 H590 0.931 . S
C606 C600 1.383 . S
C606 C605 1.379 . S
H607 C601 0.959 . S
H608 C601 0.961 . S
H609 C601 0.960 . S
H610 C602 0.930 . S
H611 C603 0.929 . S
H612 C620 0.929 . S
H613 C622 0.930 . S
H614 C624 0.930 . S
H615 C627 0.929 . S
H616 C630 0.930 . S
H617 C632 0.960 . S
H618 C632 0.960 . S
H619 C632 0.960 . S
C620 H612 0.929 . S
C620 C621 1.377 . S
C620 C622 1.384 . S
C621 C620 1.377 . S
C621 C627 1.390 . S
C622 H613 0.930 . S
C622 C620 1.384 . S
C622 C623 1.372 . S
C623 C622 1.372 . S
C623 C624 1.400 . S
C623 C628 1.490 . S
C624 H614 0.930 . S
C624 C623 1.400 . S
C624 C627 1.386 . S
H625 C641 0.930 . S
H626 C642 0.931 . S
C627 H615 0.929 . S
C627 C621 1.390 . S
C627 C624 1.386 . S
C628 C623 1.490 . S
C628 C630 1.395 . S
C628 C631 1.403 . S
H629 C635 0.930 . S
C630 H616 0.930 . S
C630 C628 1.395 . S
C630 C633 1.403 . S
C631 C628 1.403 . S
C631 C632 1.524 . S
C631 C635 1.400 . S
C632 H617 0.960 . S
C632 H618 0.960 . S
C632 H619 0.960 . S
C632 C631 1.524 . S
C633 C630 1.403 . S
C633 C634 1.392 . S
C633 C637 1.495 . S
C634 C633 1.392 . S
C634 C635 1.385 . S
C634 C636 1.478 . S
C635 H629 0.930 . S
C635 C631 1.400 . S
C635 C634 1.385 . S
C636 C634 1.478 . S
C636 C638 1.381 . S
C636 C642 1.383 . S
C637 C633 1.495 . S
C637 H643 0.959 . S
C637 H644 0.961 . S
C637 H645 0.960 . S
C638 C636 1.381 . S
C638 C639 1.394 . S
C638 H646 0.930 . S
C639 C638 1.394 . S
C639 C640 1.383 . S
C639 H647 0.929 . S
C640 C639 1.383 . S
C640 C641 1.377 . S
C641 H625 0.930 . S
C641 C640 1.377 . S
C641 C642 1.379 . S
C642 H626 0.931 . S
C642 C636 1.383 . S
C642 C641 1.379 . S
H643 C637 0.959 . S
H644 C637 0.961 . S
H645 C637 0.960 . S
H646 C638 0.930 . S
H647 C639 0.929 . S
H648 C656 0.929 . S
H649 C658 0.930 . S
H650 C660 0.930 . S
H651 C663 0.929 . S
H652 C666 0.930 . S
H653 C668 0.960 . S
H654 C668 0.960 . S
H655 C668 0.960 . S
C656 H648 0.929 . S
C656 C657 1.377 . S
C656 C658 1.384 . S
C657 C656 1.377 . S
C657 C663 1.390 1_556 S
C658 H649 0.930 . S
C658 C656 1.384 . S
C658 C659 1.372 1_556 S
C659 C658 1.372 1_554 S
C659 C660 1.400 . S
C659 C664 1.490 . S
C660 H650 0.930 . S
C660 C659 1.400 . S
C660 C663 1.386 . S
H661 C677 0.930 . S
H662 C678 0.931 . S
C663 H651 0.929 . S
C663 C657 1.390 1_554 S
C663 C660 1.386 . S
C664 C659 1.490 . S
C664 C666 1.395 1_554 S
C664 C667 1.403 . S
H665 C671 0.930 . S
C666 H652 0.930 . S
C666 C664 1.395 1_556 S
C666 C669 1.403 . S
C667 C664 1.403 . S
C667 C668 1.524 . S
C667 C671 1.400 . S
C668 H653 0.960 . S
C668 H654 0.960 . S
C668 H655 0.960 . S
C668 C667 1.524 . S
C669 C666 1.403 . S
C669 C670 1.392 1_556 S
C669 C673 1.495 . S
C670 C669 1.392 1_554 S
C670 C671 1.385 . S
C670 C672 1.478 . S
C671 H665 0.930 . S
C671 C667 1.400 . S
C671 C670 1.385 . S
C672 C670 1.478 . S
C672 C674 1.381 . S
C672 C678 1.383 . S
C673 C669 1.495 . S
C673 H679 0.959 . S
C673 H680 0.961 . S
C673 H681 0.960 . S
C674 C672 1.381 . S
C674 C675 1.394 1_455 S
C674 H682 0.930 1_554 S
C675 C674 1.394 1_655 S
C675 C676 1.383 . S
C675 H683 0.929 . S
C676 C675 1.383 . S
C676 C677 1.377 . S
C677 H661 0.930 . S
C677 C676 1.377 . S
C677 C678 1.379 1_655 S
C678 H662 0.931 . S
C678 C672 1.383 . S
C678 C677 1.379 1_455 S
H679 C673 0.959 . S
H680 C673 0.961 . S
H681 C673 0.960 . S
H682 C674 0.930 1_556 S
H683 C675 0.929 . S
H684 C692 0.929 . S
H685 C694 0.930 . S
H686 C696 0.930 . S
H687 C699 0.929 . S
H688 C702 0.930 . S
H689 C704 0.960 . S
H690 C704 0.960 . S
H691 C704 0.960 . S
C692 H684 0.929 . S
C692 C693 1.377 . S
C692 C694 1.384 . S
C693 C692 1.377 . S
C693 C699 1.390 . S
C694 H685 0.930 . S
C694 C692 1.384 . S
C694 C695 1.372 . S
C695 C694 1.372 . S
C695 C696 1.400 . S
C695 C700 1.490 . S
C696 H686 0.930 . S
C696 C695 1.400 . S
C696 C699 1.386 . S
H697 C713 0.930 . S
H698 C714 0.931 1_545 S
C699 H687 0.929 . S
C699 C693 1.390 . S
C699 C696 1.386 . S
C700 C695 1.490 . S
C700 C702 1.395 . S
C700 C703 1.403 . S
H701 C707 0.930 . S
C702 H688 0.930 . S
C702 C700 1.395 . S
C702 C705 1.403 . S
C703 C700 1.403 . S
C703 C704 1.524 . S
C703 C707 1.400 . S
C704 H689 0.960 . S
C704 H690 0.960 . S
C704 H691 0.960 . S
C704 C703 1.524 . S
C705 C702 1.403 . S
C705 C706 1.392 . S
C705 C709 1.495 . S
C706 C705 1.392 . S
C706 C707 1.385 . S
C706 C708 1.478 . S
C707 H701 0.930 . S
C707 C703 1.400 . S
C707 C706 1.385 . S
C708 C706 1.478 . S
C708 C710 1.381 . S
C708 C714 1.383 1_545 S
C709 C705 1.495 . S
C709 H715 0.959 . S
C709 H716 0.961 . S
C709 H717 0.960 . S
C710 C708 1.381 . S
C710 C711 1.394 1_545 S
C710 H718 0.930 . S
C711 C710 1.394 1_565 S
C711 C712 1.383 . S
C711 H719 0.929 . S
C712 C711 1.383 . S
C712 C713 1.377 . S
C713 H697 0.930 . S
C713 C712 1.377 . S
C713 C714 1.379 . S
C714 H698 0.931 1_565 S
C714 C708 1.383 1_565 S
C714 C713 1.379 . S
H715 C709 0.959 . S
H716 C709 0.961 . S
H717 C709 0.960 . S
H718 C710 0.930 . S
H719 C711 0.929 . S
H720 C728 0.929 . S
H721 C730 0.930 . S
H722 C732 0.930 . S
H723 C735 0.929 . S
H724 C738 0.930 . S
H725 C740 0.960 . S
H726 C740 0.960 . S
H727 C740 0.960 . S
C728 H720 0.929 . S
C728 C729 1.377 . S
C728 C730 1.384 . S
C729 C728 1.377 . S
C729 C735 1.390 . S
C730 H721 0.930 . S
C730 C728 1.384 . S
C730 C731 1.372 . S
C731 C730 1.372 . S
C731 C732 1.400 . S
C731 C736 1.490 . S
C732 H722 0.930 . S
C732 C731 1.400 . S
C732 C735 1.386 . S
H733 C749 0.930 . S
H734 C750 0.931 . S
C735 H723 0.929 . S
C735 C729 1.390 . S
C735 C732 1.386 . S
C736 C731 1.490 . S
C736 C738 1.395 . S
C736 C739 1.403 . S
H737 C743 0.930 . S
C738 H724 0.930 . S
C738 C736 1.395 . S
C738 C741 1.403 . S
C739 C736 1.403 . S
C739 C740 1.524 . S
C739 C743 1.400 . S
C740 H725 0.960 . S
C740 H726 0.960 . S
C740 H727 0.960 . S
C740 C739 1.524 . S
C741 C738 1.403 . S
C741 C742 1.392 . S
C741 C745 1.495 . S
C742 C741 1.392 . S
C742 C743 1.385 . S
C742 C744 1.478 . S
C743 H737 0.930 . S
C743 C739 1.400 . S
C743 C742 1.385 . S
C744 C742 1.478 . S
C744 C746 1.381 . S
C744 C750 1.383 . S
C745 C741 1.495 . S
C745 H751 0.959 . S
C745 H752 0.961 . S
C745 H753 0.960 . S
C746 C744 1.381 . S
C746 C747 1.394 . S
C746 H754 0.930 . S
C747 C746 1.394 . S
C747 C748 1.383 . S
C747 H755 0.929 . S
C748 C747 1.383 . S
C748 C749 1.377 . S
C749 H733 0.930 . S
C749 C748 1.377 . S
C749 C750 1.379 . S
C750 H734 0.931 . S
C750 C744 1.383 . S
C750 C749 1.379 . S
H751 C745 0.959 . S
H752 C745 0.961 . S
H753 C745 0.960 . S
H754 C746 0.930 . S
H755 C747 0.929 . S
H756 C764 0.929 . S
H757 C766 0.930 1_655 S
H758 C768 0.930 . S
H759 C771 0.929 . S
H760 C774 0.930 . S
H761 C776 0.960 . S
H762 C776 0.960 . S
H763 C776 0.960 . S
C764 H756 0.929 . S
C764 C765 1.377 . S
C764 C766 1.384 . S
C765 C764 1.377 . S
C765 C771 1.390 . S
C766 H757 0.930 1_455 S
C766 C764 1.384 . S
C766 C767 1.372 1_455 S
C767 C766 1.372 1_655 S
C767 C768 1.400 . S
C767 C772 1.490 . S
C768 H758 0.930 . S
C768 C767 1.400 . S
C768 C771 1.386 1_655 S
H769 C785 0.930 . S
H770 C786 0.931 . S
C771 H759 0.929 . S
C771 C765 1.390 . S
C771 C768 1.386 1_455 S
C772 C767 1.490 . S
C772 C774 1.395 . S
C772 C775 1.403 . S
H773 C779 0.930 . S
C774 H760 0.930 . S
C774 C772 1.395 . S
C774 C777 1.403 . S
C775 C772 1.403 . S
C775 C776 1.524 . S
C775 C779 1.400 . S
C776 H761 0.960 . S
C776 H762 0.960 . S
C776 H763 0.960 . S
C776 C775 1.524 . S
C777 C774 1.403 . S
C777 C778 1.392 . S
C777 C781 1.495 . S
C778 C777 1.392 . S
C778 C779 1.385 . S
C778 C780 1.478 . S
C779 H773 0.930 . S
C779 C775 1.400 . S
C779 C778 1.385 . S
C780 C778 1.478 . S
C780 C782 1.381 . S
C780 C786 1.383 . S
C781 C777 1.495 . S
C781 H787 0.959 . S
C781 H788 0.961 . S
C781 H789 0.960 . S
C782 C780 1.381 . S
C782 C783 1.394 . S
C782 H790 0.930 . S
C783 C782 1.394 . S
C783 C784 1.383 . S
C783 H791 0.929 . S
C784 C783 1.383 . S
C784 C785 1.377 . S
C785 H769 0.930 . S
C785 C784 1.377 . S
C785 C786 1.379 . S
C786 H770 0.931 . S
C786 C780 1.383 . S
C786 C785 1.379 . S
H787 C781 0.959 . S
H788 C781 0.961 . S
H789 C781 0.960 . S
H790 C782 0.930 . S
H791 C783 0.929 . S
H792 C800 0.929 . S
H793 C802 0.930 . S
H794 C804 0.930 1_565 S
H795 C807 0.929 . S
H796 C810 0.930 . S
H797 C812 0.960 . S
H798 C812 0.960 . S
H799 C812 0.960 . S
C800 H792 0.929 . S
C800 C801 1.377 . S
C800 C802 1.384 1_545 S
C801 C800 1.377 . S
C801 C807 1.390 . S
C802 H793 0.930 . S
C802 C800 1.384 1_565 S
C802 C803 1.372 . S
C803 C802 1.372 . S
C803 C804 1.400 1_565 S
C803 C808 1.490 . S
C804 H794 0.930 1_545 S
C804 C803 1.400 1_545 S
C804 C807 1.386 . S
H805 C821 0.930 . S
H806 C822 0.931 . S
C807 H795 0.929 . S
C807 C801 1.390 . S
C807 C804 1.386 . S
C808 C803 1.490 . S
C808 C810 1.395 . S
C808 C811 1.403 . S
H809 C815 0.930 . S
C810 H796 0.930 . S
C810 C808 1.395 . S
C810 C813 1.403 . S
C811 C808 1.403 . S
C811 C812 1.524 . S
C811 C815 1.400 . S
C812 H797 0.960 . S
C812 H798 0.960 . S
C812 H799 0.960 . S
C812 C811 1.524 . S
C813 C810 1.403 . S
C813 C814 1.392 . S
C813 C817 1.495 . S
C814 C813 1.392 . S
C814 C815 1.385 . S
C814 C816 1.478 . S
C815 H809 0.930 . S
C815 C811 1.400 . S
C815 C814 1.385 . S
C816 C814 1.478 . S
C816 C818 1.381 . S
C816 C822 1.383 . S
C817 C813 1.495 . S
C817 H823 0.959 . S
C817 H824 0.961 . S
C817 H825 0.960 . S
C818 C816 1.381 . S
C818 C819 1.394 . S
C818 H826 0.930 . S
C819 C818 1.394 . S
C819 C820 1.383 . S
C819 H827 0.929 . S
C820 C819 1.383 . S
C820 C821 1.377 . S
C821 H805 0.930 . S
C821 C820 1.377 . S
C821 C822 1.379 . S
C822 H806 0.931 . S
C822 C816 1.383 . S
C822 C821 1.379 . S
H823 C817 0.959 . S
H824 C817 0.961 . S
H825 C817 0.960 . S
H826 C818 0.930 . S
H827 C819 0.929 . S
H828 C836 0.929 . S
H829 C838 0.930 . S
H830 C840 0.930 . S
H831 C843 0.929 . S
H832 C846 0.930 . S
H833 C848 0.960 . S
H834 C848 0.960 . S
H835 C848 0.960 . S
C836 H828 0.929 . S
C836 C837 1.377 1_556 S
C836 C838 1.384 . S
C837 C836 1.377 1_554 S
C837 C843 1.390 . S
C838 H829 0.930 . S
C838 C836 1.384 . S
C838 C839 1.372 . S
C839 C838 1.372 . S
C839 C840 1.400 1_556 S
C839 C844 1.490 . S
C840 H830 0.930 . S
C840 C839 1.400 1_554 S
C840 C843 1.386 . S
H841 C857 0.930 . S
H842 C858 0.931 . S
C843 H831 0.929 . S
C843 C837 1.390 . S
C843 C840 1.386 . S
C844 C839 1.490 . S
C844 C846 1.395 1_556 S
C844 C847 1.403 . S
H845 C851 0.930 . S
C846 H832 0.930 . S
C846 C844 1.395 1_554 S
C846 C849 1.403 1_554 S
C847 C844 1.403 . S
C847 C848 1.524 . S
C847 C851 1.400 . S
C848 H833 0.960 . S
C848 H834 0.960 . S
C848 H835 0.960 . S
C848 C847 1.524 . S
C849 C846 1.403 1_556 S
C849 C850 1.392 . S
C849 C853 1.495 1_556 S
C850 C849 1.392 . S
C850 C851 1.385 . S
C850 C852 1.478 . S
C851 H845 0.930 . S
C851 C847 1.400 . S
C851 C850 1.385 . S
C852 C850 1.478 . S
C852 C854 1.381 . S
C852 C858 1.383 . S
C853 C849 1.495 1_554 S
C853 H859 0.959 . S
C853 H860 0.961 . S
C853 H861 0.960 1_554 S
C854 C852 1.381 . S
C854 C855 1.394 . S
C854 H862 0.930 . S
C855 C854 1.394 . S
C855 C856 1.383 . S
C855 H863 0.929 . S
C856 C855 1.383 . S
C856 C857 1.377 . S
C857 H841 0.930 . S
C857 C856 1.377 . S
C857 C858 1.379 . S
C858 H842 0.931 . S
C858 C852 1.383 . S
C858 C857 1.379 . S
H859 C853 0.959 . S
H860 C853 0.961 . S
H861 C853 0.960 1_556 S
H862 C854 0.930 . S
H863 C855 0.929 . S
H864 C872 0.929 . S
H865 C874 0.930 . S
H866 C876 0.930 1_455 S
H867 C879 0.929 . S
H868 C882 0.930 . S
H869 C884 0.960 . S
H870 C884 0.960 . S
H871 C884 0.960 . S
C872 H864 0.929 . S
C872 C873 1.377 . S
C872 C874 1.384 1_655 S
C873 C872 1.377 . S
C873 C879 1.390 . S
C874 H865 0.930 . S
C874 C872 1.384 1_455 S
C874 C875 1.372 . S
C875 C874 1.372 . S
C875 C876 1.400 1_455 S
C875 C880 1.490 . S
C876 H866 0.930 1_655 S
C876 C875 1.400 1_655 S
C876 C879 1.386 . S
H877 C893 0.930 . S
H878 C894 0.931 . S
C879 H867 0.929 . S
C879 C873 1.390 . S
C879 C876 1.386 . S
C880 C875 1.490 . S
C880 C882 1.395 . S
C880 C883 1.403 . S
H881 C887 0.930 . S
C882 H868 0.930 . S
C882 C880 1.395 . S
C882 C885 1.403 . S
C883 C880 1.403 . S
C883 C884 1.524 . S
C883 C887 1.400 . S
C884 H869 0.960 . S
C884 H870 0.960 . S
C884 H871 0.960 . S
C884 C883 1.524 . S
C885 C882 1.403 . S
C885 C886 1.392 . S
C885 C889 1.495 . S
C886 C885 1.392 . S
C886 C887 1.385 . S
C886 C888 1.478 . S
C887 H881 0.930 . S
C887 C883 1.400 . S
C887 C886 1.385 . S
C888 C886 1.478 . S
C888 C890 1.381 . S
C888 C894 1.383 . S
C889 C885 1.495 . S
C889 H895 0.959 . S
C889 H896 0.961 . S
C889 H897 0.960 . S
C890 C888 1.381 . S
C890 C891 1.394 . S
C890 H898 0.930 . S
C891 C890 1.394 . S
C891 C892 1.383 . S
C891 H899 0.929 . S
C892 C891 1.383 . S
C892 C893 1.377 . S
C893 H877 0.930 . S
C893 C892 1.377 . S
C893 C894 1.379 . S
C894 H878 0.931 . S
C894 C888 1.383 . S
C894 C893 1.379 . S
H895 C889 0.959 . S
H896 C889 0.961 . S
H897 C889 0.960 . S
H898 C890 0.930 . S
H899 C891 0.929 . S
H900 C908 0.929 . S
H901 C910 0.957 . S
H902 C912 0.930 . S
H903 C915 0.929 . S
H904 C918 0.930 . S
H905 C920 0.960 . S
H906 C920 0.960 . S
H907 C920 0.960 . S
C908 H900 0.929 . S
C908 C909 1.377 . S
C908 C910 1.353 1_565 S
C909 C908 1.377 . S
C909 C915 1.390 . S
C910 H901 0.957 . S
C910 C908 1.353 1_545 S
C910 C911 1.377 . S
C911 C910 1.377 . S
C911 C912 1.400 . S
C911 C916 1.490 . S
C912 H902 0.930 . S
C912 C911 1.400 . S
C912 C915 1.386 1_545 S
H913 C929 0.930 . S
H914 C930 0.931 . S
C915 H903 0.929 . S
C915 C909 1.390 . S
C915 C912 1.386 1_565 S
C916 C911 1.490 . S
C916 C918 1.395 . S
C916 C919 1.403 . S
H917 C923 0.930 . S
C918 H904 0.930 . S
C918 C916 1.395 . S
C918 C921 1.403 . S
C919 C916 1.403 . S
C919 C920 1.524 . S
C919 C923 1.400 . S
C920 H905 0.960 . S
C920 H906 0.960 . S
C920 H907 0.960 . S
C920 C919 1.524 . S
C921 C918 1.403 . S
C921 C922 1.392 . S
C921 C925 1.495 . S
C922 C921 1.392 . S
C922 C923 1.385 . S
C922 C924 1.478 . S
C923 H917 0.930 . S
C923 C919 1.400 . S
C923 C922 1.385 . S
C924 C922 1.478 . S
C924 C926 1.381 . S
C924 C930 1.383 . S
C925 C921 1.495 . S
C925 H931 0.959 . S
C925 H932 0.961 . S
C925 H933 0.960 . S
C926 C924 1.381 . S
C926 C927 1.394 . S
C926 H934 0.930 . S
C927 C926 1.394 . S
C927 C928 1.383 . S
C927 H935 0.929 . S
C928 C927 1.383 . S
C928 C929 1.377 . S
C929 H913 0.930 . S
C929 C928 1.377 . S
C929 C930 1.379 . S
C930 H914 0.931 . S
C930 C924 1.383 . S
C930 C929 1.379 . S
H931 C925 0.959 . S
H932 C925 0.961 . S
H933 C925 0.960 . S
H934 C926 0.930 . S
H935 C927 0.929 . S
H936 C944 0.929 . S
H937 C946 0.930 . S
H938 C948 0.930 . S
H939 C951 0.929 . S
H940 C954 0.930 . S
H941 C956 0.960 . S
H942 C956 0.960 . S
H943 C956 0.960 . S
C944 H936 0.929 . S
C944 C945 1.377 . S
C944 C946 1.384 . S
C945 C944 1.377 . S
C945 C951 1.390 . S
C946 H937 0.930 . S
C946 C944 1.384 . S
C946 C947 1.372 . S
C947 C946 1.372 . S
C947 C948 1.400 . S
C947 C952 1.490 . S
C948 H938 0.930 . S
C948 C947 1.400 . S
C948 C951 1.386 . S
H949 C965 0.930 . S
H950 C966 0.931 . S
C951 H939 0.929 . S
C951 C945 1.390 . S
C951 C948 1.386 . S
C952 C947 1.490 . S
C952 C954 1.395 . S
C952 C955 1.403 . S
H953 C959 0.930 . S
C954 H940 0.930 . S
C954 C952 1.395 . S
C954 C957 1.403 . S
C955 C952 1.403 . S
C955 C956 1.524 . S
C955 C959 1.400 . S
C956 H941 0.960 . S
C956 H942 0.960 . S
C956 H943 0.960 . S
C956 C955 1.524 . S
C957 C954 1.403 . S
C957 C958 1.392 . S
C957 C961 1.495 . S
C958 C957 1.392 . S
C958 C959 1.385 . S
C958 C960 1.478 . S
C959 H953 0.930 . S
C959 C955 1.400 . S
C959 C958 1.385 . S
C960 C958 1.478 . S
C960 C962 1.381 . S
C960 C966 1.383 . S
C961 C957 1.495 . S
C961 H967 0.959 . S
C961 H968 0.961 . S
C961 H969 0.960 . S
C962 C960 1.381 . S
C962 C963 1.394 . S
C962 H970 0.930 . S
C963 C962 1.394 . S
C963 C964 1.383 . S
C963 H971 0.929 . S
C964 C963 1.383 . S
C964 C965 1.377 . S
C965 H949 0.930 . S
C965 C964 1.377 . S
C965 C966 1.379 . S
C966 H950 0.931 . S
C966 C960 1.383 . S
C966 C965 1.379 . S
H967 C961 0.959 . S
H968 C961 0.961 . S
H969 C961 0.960 . S
H970 C962 0.930 . S
H971 C963 0.929 . S
H972 C980 0.929 . S
H973 C982 0.930 . S
H974 C984 0.930 . S
H975 C987 0.929 . S
H976 C990 0.930 . S
H977 C992 0.960 . S
H978 C992 0.960 . S
H979 C992 0.960 . S
C980 H972 0.929 . S
C980 C981 1.377 . S
C980 C982 1.384 1_455 S
C981 C980 1.377 . S
C981 C987 1.390 . S
C982 H973 0.930 . S
C982 C980 1.384 1_655 S
C982 C983 1.372 . S
C983 C982 1.372 . S
C983 C984 1.400 . S
C983 C988 1.490 . S
C984 H974 0.930 . S
C984 C983 1.400 . S
C984 C987 1.386 1_655 S
H985 C1001 0.930 . S
H986 C1002 0.931 . S
C987 H975 0.929 . S
C987 C981 1.390 . S
C987 C984 1.386 1_455 S
C988 C983 1.490 . S
C988 C990 1.395 . S
C988 C991 1.403 . S
H989 C995 0.930 . S
C990 H976 0.930 . S
C990 C988 1.395 . S
C990 C993 1.403 . S
C991 C988 1.403 . S
C991 C992 1.524 . S
C991 C995 1.400 . S
C992 H977 0.960 . S
C992 H978 0.960 . S
C992 H979 0.960 . S
C992 C991 1.524 . S
C993 C990 1.403 . S
C993 C994 1.392 . S
C993 C997 1.495 . S
C994 C993 1.392 . S
C994 C995 1.385 . S
C994 C996 1.478 . S
C995 H989 0.930 . S
C995 C991 1.400 . S
C995 C994 1.385 . S
C996 C994 1.478 . S
C996 C998 1.381 . S
C996 C1002 1.383 . S
C997 C993 1.495 . S
C997 H1003 0.959 . S
C997 H1004 0.961 . S
C997 H1005 0.960 . S
C998 C996 1.381 . S
C998 C999 1.394 . S
C998 H1006 0.930 . S
C999 C998 1.394 . S
C999 C1000 1.383 . S
C999 H1007 0.929 . S
C1000 C999 1.383 . S
C1000 C1001 1.377 . S
C1001 H985 0.930 . S
C1001 C1000 1.377 . S
C1001 C1002 1.379 . S
C1002 H986 0.931 . S
C1002 C996 1.383 . S
C1002 C1001 1.379 . S
H1003 C997 0.959 . S
H1004 C997 0.961 . S
H1005 C997 0.960 . S
H1006 C998 0.930 . S
H1007 C999 0.929 . S
H1008 C1016 0.929 . S
H1009 C1018 0.930 . S
H1010 C1020 0.930 1_565 S
H1011 C1023 0.929 . S
H1012 C1026 0.930 . S
H1013 C1028 0.960 . S
H1014 C1028 0.960 . S
H1015 C1028 0.960 . S
C1016 H1008 0.929 . S
C1016 C1017 1.377 . S
C1016 C1018 1.384 1_545 S
C1017 C1016 1.377 . S
C1017 C1023 1.390 . S
C1018 H1009 0.930 . S
C1018 C1016 1.384 1_565 S
C1018 C1019 1.372 . S
C1019 C1018 1.372 . S
C1019 C1020 1.400 1_565 S
C1019 C1024 1.490 . S
C1020 H1010 0.930 1_545 S
C1020 C1019 1.400 1_545 S
C1020 C1023 1.386 . S
H1021 C1037 0.930 . S
H1022 C1038 0.931 . S
C1023 H1011 0.929 . S
C1023 C1017 1.390 . S
C1023 C1020 1.386 . S
C1024 C1019 1.490 . S
C1024 C1026 1.395 . S
C1024 C1027 1.403 . S
H1025 C1031 0.930 . S
C1026 H1012 0.930 . S
C1026 C1024 1.395 . S
C1026 C1029 1.403 . S
C1027 C1024 1.403 . S
C1027 C1028 1.524 . S
C1027 C1031 1.400 . S
C1028 H1013 0.960 . S
C1028 H1014 0.960 . S
C1028 H1015 0.960 . S
C1028 C1027 1.524 . S
C1029 C1026 1.403 . S
C1029 C1030 1.392 . S
C1029 C1033 1.495 . S
C1030 C1029 1.392 . S
C1030 C1031 1.385 . S
C1030 C1032 1.478 . S
C1031 H1025 0.930 . S
C1031 C1027 1.400 . S
C1031 C1030 1.385 . S
C1032 C1030 1.478 . S
C1032 C1034 1.381 . S
C1032 C1038 1.383 . S
C1033 C1029 1.495 . S
C1033 H1039 0.959 . S
C1033 H1040 0.961 . S
C1033 H1041 0.960 . S
C1034 C1032 1.381 . S
C1034 C1035 1.394 . S
C1034 H1042 0.930 . S
C1035 C1034 1.394 . S
C1035 C1036 1.383 . S
C1035 H1043 0.929 . S
C1036 C1035 1.383 . S
C1036 C1037 1.377 . S
C1037 H1021 0.930 . S
C1037 C1036 1.377 . S
C1037 C1038 1.379 . S
C1038 H1022 0.931 . S
C1038 C1032 1.383 . S
C1038 C1037 1.379 . S
H1039 C1033 0.959 . S
H1040 C1033 0.961 . S
H1041 C1033 0.960 . S
H1042 C1034 0.930 . S
H1043 C1035 0.929 . S
H1044 C1052 0.929 . S
H1045 C1054 0.930 . S
H1046 C1056 0.930 . S
H1047 C1059 0.929 . S
H1048 C1062 0.930 . S
H1049 C1064 0.960 . S
H1050 C1064 0.960 . S
H1051 C1064 0.960 . S
C1052 H1044 0.929 . S
C1052 C1053 1.377 . S
C1052 C1054 1.384 . S
C1053 C1052 1.377 . S
C1053 C1059 1.390 . S
C1054 H1045 0.930 . S
C1054 C1052 1.384 . S
C1054 C1055 1.372 . S
C1055 C1054 1.372 . S
C1055 C1056 1.400 . S
C1055 C1060 1.490 . S
C1056 H1046 0.930 . S
C1056 C1055 1.400 . S
C1056 C1059 1.386 . S
H1057 C1073 0.930 . S
H1058 C1074 0.931 . S
C1059 H1047 0.929 . S
C1059 C1053 1.390 . S
C1059 C1056 1.386 . S
C1060 C1055 1.490 . S
C1060 C1062 1.395 . S
C1060 C1063 1.403 . S
H1061 C1067 0.930 . S
C1062 H1048 0.930 . S
C1062 C1060 1.395 . S
C1062 C1065 1.403 . S
C1063 C1060 1.403 . S
C1063 C1064 1.524 . S
C1063 C1067 1.400 . S
C1064 H1049 0.960 . S
C1064 H1050 0.960 . S
C1064 H1051 0.960 . S
C1064 C1063 1.524 . S
C1065 C1062 1.403 . S
C1065 C1066 1.392 . S
C1065 C1069 1.495 . S
C1066 C1065 1.392 . S
C1066 C1067 1.385 . S
C1066 C1068 1.478 . S
C1067 H1061 0.930 . S
C1067 C1063 1.400 . S
C1067 C1066 1.385 . S
C1068 C1066 1.478 . S
C1068 C1070 1.381 . S
C1068 C1074 1.383 . S
C1069 C1065 1.495 . S
C1069 H1075 0.959 . S
C1069 H1076 0.961 . S
C1069 H1077 0.960 . S
C1070 C1068 1.381 . S
C1070 C1071 1.394 . S
C1070 H1078 0.930 . S
C1071 C1070 1.394 . S
C1071 C1072 1.383 . S
C1071 H1079 0.929 . S
C1072 C1071 1.383 . S
C1072 C1073 1.377 . S
C1073 H1057 0.930 . S
C1073 C1072 1.377 . S
C1073 C1074 1.379 . S
C1074 H1058 0.931 . S
C1074 C1068 1.383 . S
C1074 C1073 1.379 . S
H1075 C1069 0.959 . S
H1076 C1069 0.961 . S
H1077 C1069 0.960 . S
H1078 C1070 0.930 . S
H1079 C1071 0.929 . S
H1080 C1088 0.929 . S
H1081 C1090 0.930 . S
H1082 C1092 0.930 . S
H1083 C1095 0.929 . S
H1084 C1098 0.930 . S
H1085 C1100 0.960 . S
H1086 C1100 0.960 . S
H1087 C1100 0.960 . S
C1088 H1080 0.929 . S
C1088 C1089 1.377 . S
C1088 C1090 1.384 . S
C1089 C1088 1.377 . S
C1089 C1095 1.390 . S
C1090 H1081 0.930 . S
C1090 C1088 1.384 . S
C1090 C1091 1.372 . S
C1091 C1090 1.372 . S
C1091 C1092 1.400 . S
C1091 C1096 1.490 . S
C1092 H1082 0.930 . S
C1092 C1091 1.400 . S
C1092 C1095 1.386 . S
H1093 C1109 0.930 . S
H1094 C1110 0.931 . S
C1095 H1083 0.929 . S
C1095 C1089 1.390 . S
C1095 C1092 1.386 . S
C1096 C1091 1.490 . S
C1096 C1098 1.395 1_655 S
C1096 C1099 1.403 . S
H1097 C1103 0.930 . S
C1098 H1084 0.930 . S
C1098 C1096 1.395 1_455 S
C1098 C1101 1.403 . S
C1099 C1096 1.403 . S
C1099 C1100 1.524 . S
C1099 C1103 1.400 . S
C1100 H1085 0.960 . S
C1100 H1086 0.960 . S
C1100 H1087 0.960 . S
C1100 C1099 1.524 . S
C1101 C1098 1.403 . S
C1101 C1102 1.392 . S
C1101 C1105 1.495 . S
C1102 C1101 1.392 . S
C1102 C1103 1.385 1_455 S
C1102 C1104 1.478 . S
C1103 H1097 0.930 . S
C1103 C1099 1.400 . S
C1103 C1102 1.385 1_655 S
C1104 C1102 1.478 . S
C1104 C1106 1.381 . S
C1104 C1110 1.383 . S
C1105 C1101 1.495 . S
C1105 H1111 0.959 . S
C1105 H1112 0.961 . S
C1105 H1113 0.960 . S
C1106 C1104 1.381 . S
C1106 C1107 1.394 . S
C1106 H1114 0.930 . S
C1107 C1106 1.394 . S
C1107 C1108 1.383 . S
C1107 H1115 0.929 . S
C1108 C1107 1.383 . S
C1108 C1109 1.377 . S
C1109 H1093 0.930 . S
C1109 C1108 1.377 . S
C1109 C1110 1.379 . S
C1110 H1094 0.931 . S
C1110 C1104 1.383 . S
C1110 C1109 1.379 . S
H1111 C1105 0.959 . S
H1112 C1105 0.961 . S
H1113 C1105 0.960 . S
H1114 C1106 0.930 . S
H1115 C1107 0.929 . S
H1116 C1124 0.929 . S
H1117 C1126 0.930 . S
H1118 C1128 0.930 . S
H1119 C1131 0.929 . S
H1120 C1134 0.930 . S
H1121 C1136 0.960 . S
H1122 C1136 0.960 . S
H1123 C1136 0.960 . S
C1124 H1116 0.929 . S
C1124 C1125 1.377 . S
C1124 C1126 1.384 . S
C1125 C1124 1.377 . S
C1125 C1131 1.390 . S
C1126 H1117 0.930 . S
C1126 C1124 1.384 . S
C1126 C1127 1.372 . S
C1127 C1126 1.372 . S
C1127 C1128 1.400 . S
C1127 C1132 1.490 . S
C1128 H1118 0.930 . S
C1128 C1127 1.400 . S
C1128 C1131 1.386 . S
H1129 C1145 0.930 . S
H1130 C1146 0.931 . S
C1131 H1119 0.929 . S
C1131 C1125 1.390 . S
C1131 C1128 1.386 . S
C1132 C1127 1.490 . S
C1132 C1134 1.395 . S
C1132 C1135 1.403 1_565 S
H1133 C1139 0.930 . S
C1134 H1120 0.930 . S
C1134 C1132 1.395 . S
C1134 C1137 1.403 . S
C1135 C1132 1.403 1_545 S
C1135 C1136 1.524 . S
C1135 C1139 1.400 . S
C1136 H1121 0.960 . S
C1136 H1122 0.960 . S
C1136 H1123 0.960 . S
C1136 C1135 1.524 . S
C1137 C1134 1.403 . S
C1137 C1138 1.392 1_565 S
C1137 C1141 1.495 . S
C1138 C1137 1.392 1_545 S
C1138 C1139 1.385 . S
C1138 C1140 1.478 . S
C1139 H1133 0.930 . S
C1139 C1135 1.400 . S
C1139 C1138 1.385 . S
C1140 C1138 1.478 . S
C1140 C1142 1.381 . S
C1140 C1146 1.383 . S
C1141 C1137 1.495 . S
C1141 H1147 0.959 . S
C1141 H1148 0.961 . S
C1141 H1149 0.960 . S
C1142 C1140 1.381 . S
C1142 C1143 1.394 . S
C1142 H1150 0.930 . S
C1143 C1142 1.394 . S
C1143 C1144 1.383 . S
C1143 H1151 0.929 . S
C1144 C1143 1.383 . S
C1144 C1145 1.377 . S
C1145 H1129 0.930 . S
C1145 C1144 1.377 . S
C1145 C1146 1.379 . S
C1146 H1130 0.931 . S
C1146 C1140 1.383 . S
C1146 C1145 1.379 . S
H1147 C1141 0.959 . S
H1148 C1141 0.961 . S
H1149 C1141 0.960 . S
H1150 C1142 0.930 . S
H1151 C1143 0.929 . S
H1152 C1160 0.929 . S
H1153 C1162 0.930 . S
H1154 C1164 0.930 . S
H1155 C1167 0.929 . S
H1156 C1170 0.930 . S
H1157 C1172 0.960 . S
H1158 C1172 0.960 . S
H1159 C1172 0.960 . S
C1160 H1152 0.929 . S
C1160 C1161 1.377 . S
C1160 C1162 1.384 . S
C1161 C1160 1.377 . S
C1161 C1167 1.390 . S
C1162 H1153 0.930 . S
C1162 C1160 1.384 . S
C1162 C1163 1.372 . S
C1163 C1162 1.372 . S
C1163 C1164 1.400 . S
C1163 C1168 1.490 . S
C1164 H1154 0.930 . S
C1164 C1163 1.400 . S
C1164 C1167 1.386 . S
H1165 C1181 0.930 . S
H1166 C1182 0.931 . S
C1167 H1155 0.929 . S
C1167 C1161 1.390 . S
C1167 C1164 1.386 . S
C1168 C1163 1.490 . S
C1168 C1170 1.395 . S
C1168 C1171 1.403 . S
H1169 C1175 0.930 . S
C1170 H1156 0.930 . S
C1170 C1168 1.395 . S
C1170 C1173 1.403 . S
C1171 C1168 1.403 . S
C1171 C1172 1.524 . S
C1171 C1175 1.400 . S
C1172 H1157 0.960 . S
C1172 H1158 0.960 . S
C1172 H1159 0.960 . S
C1172 C1171 1.524 . S
C1173 C1170 1.403 . S
C1173 C1174 1.392 . S
C1173 C1177 1.495 . S
C1174 C1173 1.392 . S
C1174 C1175 1.385 . S
C1174 C1176 1.478 . S
C1175 H1169 0.930 . S
C1175 C1171 1.400 . S
C1175 C1174 1.385 . S
C1176 C1174 1.478 . S
C1176 C1178 1.381 . S
C1176 C1182 1.383 . S
C1177 C1173 1.495 . S
C1177 H1183 0.959 . S
C1177 H1184 0.961 . S
C1177 H1185 0.960 . S
C1178 C1176 1.381 . S
C1178 C1179 1.394 . S
C1178 H1186 0.930 . S
C1179 C1178 1.394 . S
C1179 C1180 1.383 . S
C1179 H1187 0.929 . S
C1180 C1179 1.383 . S
C1180 C1181 1.377 . S
C1181 H1165 0.930 . S
C1181 C1180 1.377 . S
C1181 C1182 1.379 . S
C1182 H1166 0.931 . S
C1182 C1176 1.383 . S
C1182 C1181 1.379 . S
H1183 C1177 0.959 . S
H1184 C1177 0.961 . S
H1185 C1177 0.960 . S
H1186 C1178 0.930 . S
H1187 C1179 0.929 . S
H1188 C1196 0.929 . S
H1189 C1198 0.930 . S
H1190 C1200 0.930 . S
H1191 C1203 0.929 . S
H1192 C1206 0.930 . S
H1193 C1208 0.960 . S
H1194 C1208 0.960 1_455 S
H1195 C1208 0.960 . S
C1196 H1188 0.929 . S
C1196 C1197 1.377 . S
C1196 C1198 1.384 . S
C1197 C1196 1.377 . S
C1197 C1203 1.390 . S
C1198 H1189 0.930 . S
C1198 C1196 1.384 . S
C1198 C1199 1.372 . S
C1199 C1198 1.372 . S
C1199 C1200 1.400 . S
C1199 C1204 1.490 . S
C1200 H1190 0.930 . S
C1200 C1199 1.400 . S
C1200 C1203 1.386 . S
H1201 C1217 0.930 . S
H1202 C1218 0.931 . S
C1203 H1191 0.929 . S
C1203 C1197 1.390 . S
C1203 C1200 1.386 . S
C1204 C1199 1.490 . S
C1204 C1206 1.395 . S
C1204 C1207 1.403 1_455 S
H1205 C1211 0.930 . S
C1206 H1192 0.930 . S
C1206 C1204 1.395 . S
C1206 C1209 1.403 . S
C1207 C1204 1.403 1_655 S
C1207 C1208 1.524 . S
C1207 C1211 1.399 . S
C1208 H1193 0.960 . S
C1208 H1194 0.960 1_655 S
C1208 H1195 0.960 . S
C1208 C1207 1.524 . S
C1209 C1206 1.403 . S
C1209 C1210 1.392 1_455 S
C1209 C1213 1.495 . S
C1210 C1209 1.392 1_655 S
C1210 C1211 1.385 . S
C1210 C1212 1.478 . S
C1211 H1205 0.930 . S
C1211 C1207 1.399 . S
C1211 C1210 1.385 . S
C1212 C1210 1.478 . S
C1212 C1214 1.381 . S
C1212 C1218 1.383 . S
C1213 C1209 1.495 . S
C1213 H1219 0.959 . S
C1213 H1220 0.961 1_455 S
C1213 H1221 0.960 . S
C1214 C1212 1.381 . S
C1214 C1215 1.394 . S
C1214 H1222 0.930 . S
C1215 C1214 1.394 . S
C1215 C1216 1.383 . S
C1215 H1223 0.929 . S
C1216 C1215 1.383 . S
C1216 C1217 1.377 . S
C1217 H1201 0.930 . S
C1217 C1216 1.377 . S
C1217 C1218 1.379 . S
C1218 H1202 0.931 . S
C1218 C1212 1.383 . S
C1218 C1217 1.379 . S
H1219 C1213 0.959 . S
H1220 C1213 0.961 1_655 S
H1221 C1213 0.960 . S
H1222 C1214 0.930 . S
H1223 C1215 0.929 . S
H1224 C1232 0.929 . S
H1225 C1234 0.930 . S
H1226 C1236 0.930 . S
H1227 C1239 0.929 . S
H1228 C1242 0.930 . S
H1229 C1244 0.960 . S
H1230 C1244 0.960 . S
H1231 C1244 0.960 . S
C1232 H1224 0.929 . S
C1232 C1233 1.377 . S
C1232 C1234 1.384 . S
C1233 C1232 1.377 . S
C1233 C1239 1.390 . S
C1234 H1225 0.930 . S
C1234 C1232 1.384 . S
C1234 C1235 1.372 . S
C1235 C1234 1.372 . S
C1235 C1236 1.400 . S
C1235 C1240 1.490 . S
C1236 H1226 0.930 . S
C1236 C1235 1.400 . S
C1236 C1239 1.386 . S
H1237 C1253 0.930 . S
H1238 C1254 0.931 . S
C1239 H1227 0.929 . S
C1239 C1233 1.390 . S
C1239 C1236 1.386 . S
C1240 C1235 1.490 . S
C1240 C1242 1.395 1_554 S
C1240 C1243 1.403 1_565 S
H1241 C1247 0.930 . S
C1242 H1228 0.930 . S
C1242 C1240 1.395 1_556 S
C1242 C1245 1.403 . S
C1243 C1240 1.403 1_545 S
C1243 C1244 1.524 . S
C1243 C1247 1.400 1_554 S
C1244 H1229 0.960 . S
C1244 H1230 0.960 . S
C1244 H1231 0.960 . S
C1244 C1243 1.524 . S
C1245 C1242 1.403 . S
C1245 C1246 1.392 1_565 S
C1245 C1249 1.495 . S
C1246 C1245 1.392 1_545 S
C1246 C1247 1.385 . S
C1246 C1248 1.478 . S
C1247 H1241 0.930 . S
C1247 C1243 1.400 1_556 S
C1247 C1246 1.385 . S
C1248 C1246 1.478 . S
C1248 C1250 1.381 . S
C1248 C1254 1.383 . S
C1249 C1245 1.495 . S
C1249 H1255 0.959 . S
C1249 H1256 0.961 . S
C1249 H1257 0.960 . S
C1250 C1248 1.381 . S
C1250 C1251 1.394 . S
C1250 H1258 0.930 . S
C1251 C1250 1.394 . S
C1251 C1252 1.383 . S
C1251 H1259 0.929 . S
C1252 C1251 1.383 . S
C1252 C1253 1.377 . S
C1253 H1237 0.930 . S
C1253 C1252 1.377 . S
C1253 C1254 1.379 . S
C1254 H1238 0.931 . S
C1254 C1248 1.383 . S
C1254 C1253 1.379 . S
H1255 C1249 0.959 . S
H1256 C1249 0.961 . S
H1257 C1249 0.960 . S
H1258 C1250 0.930 . S
H1259 C1251 0.929 . S
H1260 C1268 0.929 . S
H1261 C1270 0.930 . S
H1262 C1272 0.930 . S
H1263 C1275 0.929 . S
H1264 C1278 0.930 . S
H1265 C1280 0.960 1_554 S
H1266 C1280 0.960 . S
H1267 C1280 0.960 . S
C1268 H1260 0.929 . S
C1268 C1269 1.377 . S
C1268 C1270 1.384 . S
C1269 C1268 1.377 . S
C1269 C1275 1.390 . S
C1270 H1261 0.930 . S
C1270 C1268 1.384 . S
C1270 C1271 1.372 . S
C1271 C1270 1.372 . S
C1271 C1272 1.400 . S
C1271 C1276 1.490 . S
C1272 H1262 0.930 . S
C1272 C1271 1.400 . S
C1272 C1275 1.386 . S
H1273 C1289 0.930 . S
H1274 C1290 0.931 . S
C1275 H1263 0.929 . S
C1275 C1269 1.390 . S
C1275 C1272 1.386 . S
C1276 C1271 1.490 . S
C1276 C1278 1.395 . S
C1276 C1279 1.403 . S
H1277 C1283 0.930 . S
C1278 H1264 0.930 . S
C1278 C1276 1.395 . S
C1278 C1281 1.403 . S
C1279 C1276 1.403 . S
C1279 C1280 1.524 . S
C1279 C1283 1.400 . S
C1280 H1265 0.960 1_556 S
C1280 H1266 0.960 . S
C1280 H1267 0.960 . S
C1280 C1279 1.524 . S
C1281 C1278 1.403 . S
C1281 C1282 1.392 . S
C1281 C1285 1.495 . S
C1282 C1281 1.392 . S
C1282 C1283 1.385 . S
C1282 C1284 1.478 . S
C1283 H1277 0.930 . S
C1283 C1279 1.400 . S
C1283 C1282 1.385 . S
C1284 C1282 1.478 . S
C1284 C1286 1.381 . S
C1284 C1290 1.383 . S
C1285 C1281 1.495 . S
C1285 H1291 0.959 . S
C1285 H1292 0.961 . S
C1285 H1293 0.960 . S
C1286 C1284 1.381 . S
C1286 C1287 1.394 . S
C1286 H1294 0.930 . S
C1287 C1286 1.394 . S
C1287 C1288 1.383 . S
C1287 H1295 0.929 . S
C1288 C1287 1.383 . S
C1288 C1289 1.377 . S
C1289 H1273 0.930 . S
C1289 C1288 1.377 . S
C1289 C1290 1.379 . S
C1290 H1274 0.931 . S
C1290 C1284 1.383 . S
C1290 C1289 1.379 . S
H1291 C1285 0.959 . S
H1292 C1285 0.961 . S
H1293 C1285 0.960 . S
H1294 C1286 0.930 . S
H1295 C1287 0.929 . S
H1296 C1304 0.929 . S
H1297 C1306 0.930 . S
H1298 C1308 0.930 . S
H1299 C1311 0.929 . S
H1300 C1314 0.930 . S
H1301 C1316 0.960 . S
H1302 C1316 0.960 . S
H1303 C1316 0.960 . S
C1304 H1296 0.929 . S
C1304 C1305 1.377 . S
C1304 C1306 1.384 . S
C1305 C1304 1.377 . S
C1305 C1311 1.390 . S
C1306 H1297 0.930 . S
C1306 C1304 1.384 . S
C1306 C1307 1.372 . S
C1307 C1306 1.372 . S
C1307 C1308 1.400 . S
C1307 C1312 1.490 . S
C1308 H1298 0.930 . S
C1308 C1307 1.400 . S
C1308 C1311 1.386 . S
H1309 C1325 0.930 . S
H1310 C1326 0.931 . S
C1311 H1299 0.929 . S
C1311 C1305 1.390 . S
C1311 C1308 1.386 . S
C1312 C1307 1.490 . S
C1312 C1314 1.395 . S
C1312 C1315 1.403 . S
H1313 C1319 0.930 . S
C1314 H1300 0.930 . S
C1314 C1312 1.395 . S
C1314 C1317 1.403 . S
C1315 C1312 1.403 . S
C1315 C1316 1.524 . S
C1315 C1319 1.400 . S
C1316 H1301 0.960 . S
C1316 H1302 0.960 . S
C1316 H1303 0.960 . S
C1316 C1315 1.524 . S
C1317 C1314 1.403 . S
C1317 C1318 1.392 . S
C1317 C1321 1.495 . S
C1318 C1317 1.392 . S
C1318 C1319 1.385 . S
C1318 C1320 1.478 . S
C1319 H1313 0.930 . S
C1319 C1315 1.400 . S
C1319 C1318 1.385 . S
C1320 C1318 1.478 . S
C1320 C1322 1.381 . S
C1320 C1326 1.383 . S
C1321 C1317 1.495 . S
C1321 H1327 0.959 . S
C1321 H1328 0.961 . S
C1321 H1329 0.960 . S
C1322 C1320 1.381 . S
C1322 C1323 1.394 . S
C1322 H1330 0.930 . S
C1323 C1322 1.394 . S
C1323 C1324 1.383 . S
C1323 H1331 0.929 . S
C1324 C1323 1.383 . S
C1324 C1325 1.377 . S
C1325 H1309 0.930 . S
C1325 C1324 1.377 . S
C1325 C1326 1.379 . S
C1326 H1310 0.931 . S
C1326 C1320 1.383 . S
C1326 C1325 1.379 . S
H1327 C1321 0.959 . S
H1328 C1321 0.961 . S
H1329 C1321 0.960 . S
H1330 C1322 0.930 . S
H1331 C1323 0.929 . S
H1332 C1340 0.929 . S
H1333 C1342 0.930 . S
H1334 C1344 0.930 . S
H1335 C1347 0.929 . S
H1336 C1350 0.930 . S
H1337 C1352 0.960 . S
H1338 C1352 0.960 . S
H1339 C1352 0.960 . S
C1340 H1332 0.929 . S
C1340 C1341 1.377 . S
C1340 C1342 1.384 . S
C1341 C1340 1.377 . S
C1341 C1347 1.390 . S
C1342 H1333 0.930 . S
C1342 C1340 1.384 . S
C1342 C1343 1.372 . S
C1343 C1342 1.372 . S
C1343 C1344 1.400 . S
C1343 C1348 1.490 . S
C1344 H1334 0.930 . S
C1344 C1343 1.400 . S
C1344 C1347 1.386 . S
H1345 C1361 0.930 . S
H1346 C1362 0.931 . S
C1347 H1335 0.929 . S
C1347 C1341 1.390 . S
C1347 C1344 1.386 . S
C1348 C1343 1.490 . S
C1348 C1350 1.395 . S
C1348 C1351 1.403 . S
H1349 C1355 0.930 . S
C1350 H1336 0.930 . S
C1350 C1348 1.395 . S
C1350 C1353 1.403 . S
C1351 C1348 1.403 . S
C1351 C1352 1.524 . S
C1351 C1355 1.400 . S
C1352 H1337 0.960 . S
C1352 H1338 0.960 . S
C1352 H1339 0.960 . S
C1352 C1351 1.524 . S
C1353 C1350 1.403 . S
C1353 C1354 1.392 . S
C1353 C1357 1.495 . S
C1354 C1353 1.392 . S
C1354 C1355 1.385 . S
C1354 C1356 1.478 . S
C1355 H1349 0.930 . S
C1355 C1351 1.400 . S
C1355 C1354 1.385 . S
C1356 C1354 1.478 . S
C1356 C1358 1.381 . S
C1356 C1362 1.383 . S
C1357 C1353 1.495 . S
C1357 H1363 0.959 . S
C1357 H1364 0.961 . S
C1357 H1365 0.960 . S
C1358 C1356 1.381 . S
C1358 C1359 1.394 . S
C1358 H1366 0.930 . S
C1359 C1358 1.394 . S
C1359 C1360 1.383 . S
C1359 H1367 0.929 . S
C1360 C1359 1.383 . S
C1360 C1361 1.377 . S
C1361 H1345 0.930 . S
C1361 C1360 1.377 . S
C1361 C1362 1.379 . S
C1362 H1346 0.931 . S
C1362 C1356 1.383 . S
C1362 C1361 1.379 . S
H1363 C1357 0.959 . S
H1364 C1357 0.961 . S
H1365 C1357 0.960 . S
H1366 C1358 0.930 . S
H1367 C1359 0.929 . S
H1368 C1376 0.929 . S
H1369 C1378 0.930 . S
H1370 C1380 0.930 . S
H1371 C1383 0.929 . S
H1372 C1386 0.930 . S
H1373 C1388 0.960 . S
H1374 C1388 0.960 . S
H1375 C1388 0.960 . S
C1376 H1368 0.929 . S
C1376 C1377 1.377 . S
C1376 C1378 1.384 . S
C1377 C1376 1.377 . S
C1377 C1383 1.390 . S
C1378 H1369 0.930 . S
C1378 C1376 1.384 . S
C1378 C1379 1.372 . S
C1379 C1378 1.372 . S
C1379 C1380 1.400 . S
C1379 C1384 1.490 . S
C1380 H1370 0.930 . S
C1380 C1379 1.400 . S
C1380 C1383 1.386 . S
H1381 C1397 0.930 . S
H1382 C1398 0.931 . S
C1383 H1371 0.929 . S
C1383 C1377 1.390 . S
C1383 C1380 1.386 . S
C1384 C1379 1.490 . S
C1384 C1386 1.395 . S
C1384 C1387 1.403 . S
H1385 C1391 0.930 . S
C1386 H1372 0.930 . S
C1386 C1384 1.395 . S
C1386 C1389 1.403 . S
C1387 C1384 1.403 . S
C1387 C1388 1.524 . S
C1387 C1391 1.400 . S
C1388 H1373 0.960 . S
C1388 H1374 0.960 . S
C1388 H1375 0.960 . S
C1388 C1387 1.524 . S
C1389 C1386 1.403 . S
C1389 C1390 1.392 . S
C1389 C1393 1.495 . S
C1390 C1389 1.392 . S
C1390 C1391 1.385 . S
C1390 C1392 1.478 . S
C1391 H1385 0.930 . S
C1391 C1387 1.400 . S
C1391 C1390 1.385 . S
C1392 C1390 1.478 . S
C1392 C1394 1.381 . S
C1392 C1398 1.383 . S
C1393 C1389 1.495 . S
C1393 H1399 0.959 . S
C1393 H1400 0.961 . S
C1393 H1401 0.960 . S
C1394 C1392 1.381 . S
C1394 C1395 1.394 . S
C1394 H1402 0.930 . S
C1395 C1394 1.394 . S
C1395 C1396 1.383 . S
C1395 H1403 0.929 . S
C1396 C1395 1.383 . S
C1396 C1397 1.377 . S
C1397 H1381 0.930 . S
C1397 C1396 1.377 . S
C1397 C1398 1.379 . S
C1398 H1382 0.931 . S
C1398 C1392 1.383 . S
C1398 C1397 1.379 . S
H1399 C1393 0.959 . S
H1400 C1393 0.961 . S
H1401 C1393 0.960 . S
H1402 C1394 0.930 . S
H1403 C1395 0.929 . S
H1404 C1412 0.929 . S
H1405 C1414 0.930 . S
H1406 C1416 0.930 . S
H1407 C1419 0.929 . S
H1408 C1422 0.930 . S
H1409 C1424 0.960 . S
H1410 C1424 0.960 . S
H1411 C1424 0.960 . S
C1412 H1404 0.929 . S
C1412 C1413 1.377 . S
C1412 C1414 1.384 . S
C1413 C1412 1.377 . S
C1413 C1419 1.390 . S
C1414 H1405 0.930 . S
C1414 C1412 1.384 . S
C1414 C1415 1.372 . S
C1415 C1414 1.372 . S
C1415 C1416 1.400 . S
C1415 C1420 1.490 . S
C1416 H1406 0.930 . S
C1416 C1415 1.400 . S
C1416 C1419 1.386 . S
H1417 C1433 0.930 . S
H1418 C1434 0.931 . S
C1419 H1407 0.929 . S
C1419 C1413 1.390 . S
C1419 C1416 1.386 . S
C1420 C1415 1.490 . S
C1420 C1422 1.395 . S
C1420 C1423 1.403 . S
H1421 C1427 0.930 . S
C1422 H1408 0.930 . S
C1422 C1420 1.395 . S
C1422 C1425 1.403 . S
C1423 C1420 1.403 . S
C1423 C1424 1.524 . S
C1423 C1427 1.400 . S
C1424 H1409 0.960 . S
C1424 H1410 0.960 . S
C1424 H1411 0.960 . S
C1424 C1423 1.524 . S
C1425 C1422 1.403 . S
C1425 C1426 1.392 . S
C1425 C1429 1.495 . S
C1426 C1425 1.392 . S
C1426 C1427 1.385 . S
C1426 C1428 1.478 . S
C1427 H1421 0.930 . S
C1427 C1423 1.400 . S
C1427 C1426 1.385 . S
C1428 C1426 1.478 . S
C1428 C1430 1.381 . S
C1428 C1434 1.383 . S
C1429 C1425 1.495 . S
C1429 H1435 0.959 . S
C1429 H1436 0.961 . S
C1429 H1437 0.960 . S
C1430 C1428 1.381 . S
C1430 C1431 1.394 . S
C1430 H1438 0.930 . S
C1431 C1430 1.394 . S
C1431 C1432 1.383 . S
C1431 H1439 0.929 . S
C1432 C1431 1.383 . S
C1432 C1433 1.377 . S
C1433 H1417 0.930 . S
C1433 C1432 1.377 . S
C1433 C1434 1.379 . S
C1434 H1418 0.931 . S
C1434 C1428 1.383 . S
C1434 C1433 1.379 . S
H1435 C1429 0.959 . S
H1436 C1429 0.961 . S
H1437 C1429 0.960 . S
H1438 C1430 0.930 . S
H1439 C1431 0.929 . S
H1440 C1448 0.929 . S
H1441 C1450 0.930 . S
H1442 C1452 0.930 . S
H1443 C1455 0.929 . S
H1444 C1458 0.930 . S
H1445 C1460 0.960 . S
H1446 C1460 0.960 . S
H1447 C1460 0.960 . S
C1448 H1440 0.929 . S
C1448 C1449 1.377 . S
C1448 C1450 1.384 . S
C1449 C1448 1.377 . S
C1449 C1455 1.390 . S
C1450 H1441 0.930 . S
C1450 C1448 1.384 . S
C1450 C1451 1.372 . S
C1451 C1450 1.372 . S
C1451 C1452 1.400 . S
C1451 C1456 1.490 . S
C1452 H1442 0.930 . S
C1452 C1451 1.400 . S
C1452 C1455 1.386 . S
H1453 C1469 0.930 . S
H1454 C1470 0.931 . S
C1455 H1443 0.929 . S
C1455 C1449 1.390 . S
C1455 C1452 1.386 . S
C1456 C1451 1.490 . S
C1456 C1458 1.395 . S
C1456 C1459 1.403 . S
H1457 C1463 0.930 . S
C1458 H1444 0.930 . S
C1458 C1456 1.395 . S
C1458 C1461 1.403 . S
C1459 C1456 1.403 . S
C1459 C1460 1.524 . S
C1459 C1463 1.400 . S
C1460 H1445 0.960 . S
C1460 H1446 0.960 . S
C1460 H1447 0.960 . S
C1460 C1459 1.524 . S
C1461 C1458 1.403 . S
C1461 C1462 1.392 . S
C1461 C1465 1.495 . S
C1462 C1461 1.392 . S
C1462 C1463 1.385 . S
C1462 C1464 1.478 . S
C1463 H1457 0.930 . S
C1463 C1459 1.400 . S
C1463 C1462 1.385 . S
C1464 C1462 1.478 . S
C1464 C1466 1.381 . S
C1464 C1470 1.383 . S
C1465 C1461 1.495 . S
C1465 H1471 0.959 . S
C1465 H1472 0.961 . S
C1465 H1473 0.960 . S
C1466 C1464 1.381 . S
C1466 C1467 1.394 . S
C1466 H1474 0.930 . S
C1467 C1466 1.394 . S
C1467 C1468 1.383 . S
C1467 H1475 0.929 . S
C1468 C1467 1.383 . S
C1468 C1469 1.377 . S
C1469 H1453 0.930 . S
C1469 C1468 1.377 . S
C1469 C1470 1.379 . S
C1470 H1454 0.931 . S
C1470 C1464 1.383 . S
C1470 C1469 1.379 . S
H1471 C1465 0.959 . S
H1472 C1465 0.961 . S
H1473 C1465 0.960 . S
H1474 C1466 0.930 . S
H1475 C1467 0.929 . S
C405 N343 0.786 . S
C424 N13 0.744 . S
C441 N46 0.875 . S
C460 N376 0.925 . S
C477 N79 0.877 . S
C496 N211 0.936 . S
C513 N112 0.778 . S
C532 N244 0.790 . S
C549 N145 0.892 . S
C568 N277 0.943 . S
C585 N178 0.898 . S
C604 N310 0.825 . S
C621 N2 1.681 . S
C640 C183 1.654 . S
C657 C18 1.674 . S
C676 N35 1.678 . S
C693 C51 1.694 . S
C712 N68 1.722 . S
C729 N101 1.702 . S
C748 C84 1.700 . S
C765 N134 1.771 . S
C784 C117 1.774 . S
C801 N167 1.723 . S
C820 C150 1.675 . S
C837 C249 1.671 . S
C856 N200 1.695 . S
C873 N233 1.683 . S
C892 C282 1.648 . S
C909 N266 1.718 . S
C928 C315 1.712 . S
C945 N299 1.772 . S
C964 C348 1.767 . S
C981 N332 1.705 . S
C1000 C381 1.676 . S
C1017 N365 1.715 . S
C1036 C216 1.676 . S
C1053 C7 0.357 . S
C1072 C304 0.336 . S
C1089 C40 0.518 . S
C1108 C337 0.516 . S
C1125 C73 0.478 . S
C1144 C370 0.499 . S
C1161 C106 0.519 . S
C1180 C205 0.515 . S
C1197 C139 0.347 . S
C1216 C238 0.380 . S
C1233 C271 0.428 . S
C1252 C172 0.463 . S
C1269 C219 1.253 . S
C1288 C21 1.261 . S
C1305 C54 1.247 . S
C1324 C252 1.231 . S
C1341 C87 1.270 . S
C1360 C285 1.277 . S
C1377 C318 1.291 . S
C1396 C120 1.301 . S
C1413 C153 1.283 . S
C1432 C351 1.267 . S
C1449 C384 1.262 . S
C1468 C186 1.240 . S
