# Generated by pormake.
# Topology sma, (6)-cn, num edge types: 1
# Building blocks:
#     Node 0, Type 0, BuildingBlock: PAMTUU_clean_sbu_0, # of connection points: 6
#     Node 1, Type 0, BuildingBlock: PAMTUU_clean_sbu_0, # of connection points: 6
#     Node 2, Type 0, BuildingBlock: PAMTUU_clean_sbu_0, # of connection points: 6
#     Edge 3, Type (0, 0), BuildingBlock: FUNLAD_clean_linker_0, # of connection points: 2
#     Edge 4, Type (0, 0), BuildingBlock: FUNLAD_clean_linker_0, # of connection points: 2
#     Edge 5, Type (0, 0), BuildingBlock: FUNLAD_clean_linker_0, # of connection points: 2
#     Edge 6, Type (0, 0), BuildingBlock: FUNLAD_clean_linker_0, # of connection points: 2
#     Edge 7, Type (0, 0), BuildingBlock: FUNLAD_clean_linker_0, # of connection points: 2
#     Edge 8, Type (0, 0), BuildingBlock: FUNLAD_clean_linker_0, # of connection points: 2
#     Edge 9, Type (0, 0), BuildingBlock: FUNLAD_clean_linker_0, # of connection points: 2
#     Edge 10, Type (0, 0), BuildingBlock: FUNLAD_clean_linker_0, # of connection points: 2
#     Edge 11, Type (0, 0), BuildingBlock: FUNLAD_clean_linker_0, # of connection points: 2
# Relax obj value: 0.075
# Max RMSD: 0.182
# Mean RMSD: 0.178
data_MOF--net-sma--node1-PAMTUU_clean_sbu_0--edge1-FUNLAD_clean_linker_0
_symmetry_space_group_name_H-M    P1
_symmetry_Int_Tables_number       1
_symmetry_cell_setting            triclinic
loop_
_symmetry_equiv_pos_as_xyz
'x, y, z'
_cell_length_a     44.336586
_cell_length_b     44.11152
_cell_length_c     16.751184
_cell_angle_alpha  96.731033
_cell_angle_beta   90.033084
_cell_angle_gamma 120.35591
loop_
_atom_site_label
_atom_site_type_symbol
_atom_site_fract_x
_atom_site_fract_y
_atom_site_fract_z
_atom_type_partial_charge
Tb0 Tb 0.04617 0.56487 0.14165 0.0
Tb1 Tb 0.09471 0.52687 0.12415 0.0
C2 C 0.05219 0.52763 -0.02081 0.0
C3 C 0.97895 0.58962 0.1043 0.0
C4 C 0.91732 0.57947 0.02736 0.0
C5 C 0.94301 0.61324 0.06504 0.0
C6 C 0.97351 0.61822 0.10334 0.0
C7 C 0.95386 0.55603 0.06501 0.0
C8 C 0.92322 0.55096 0.02716 0.0
C9 C 1.01047 0.5951 0.14799 0.0
O10 O 1.00869 0.50811 0.11646 0.0
O11 O 1.04346 0.48656 0.15663 0.0
O12 O 0.10039 0.54798 0.24997 0.0
O13 O 0.04911 0.54905 0.25679 0.0
O14 O 0.12056 0.50888 0.04493 0.0
O15 O 0.1217 0.50428 0.17152 0.0
O16 O 0.12725 0.582 0.10477 0.0
O17 O 0.09954 0.60479 0.1841 0.0
O18 O 0.05443 0.55666 0.01572 0.0
O19 O 0.05996 0.50803 0.01726 0.0
C20 C 1.01242 0.48269 0.14068 0.0
O21 O 1.0058 0.57073 0.19179 0.0
O22 O 1.03815 0.60479 0.10711 0.0
C23 C 0.07428 0.54631 0.28989 0.0
C24 C 0.17068 0.51192 0.10008 0.0
C25 C 0.2414 0.5335 0.07678 0.0
C26 C 0.21563 0.49728 0.06915 0.0
C27 C 0.18065 0.48665 0.08067 0.0
C28 C 0.19624 0.5481 0.11001 0.0
C29 C 0.23136 0.55883 0.09847 0.0
C30 C 0.13323 0.49998 0.10202 0.0
C31 C 0.12762 0.60872 0.14955 0.0
H32 H 0.93909 0.63563 0.0669 0.0
H33 H 0.99265 0.64433 0.13327 0.0
H34 H 0.95776 0.53365 0.06449 0.0
H35 H 0.90412 0.52474 -0.0022 0.0
H36 H 0.22223 0.47704 0.05128 0.0
H37 H 0.16117 0.45861 0.07194 0.0
H38 H 0.18889 0.56795 0.12479 0.0
H39 H 0.25057 0.58691 0.10574 0.0
Tb40 Tb 0.54583 0.03215 0.49674 0.0
Tb41 Tb 0.63188 0.07687 0.47433 0.0
C42 C 0.57706 0.04176 0.33338 0.0
C43 C 0.45065 0.96271 0.47597 0.0
C44 C 0.39176 0.89575 0.4179 0.0
C45 C 0.40842 0.92174 0.36646 0.0
C46 C 0.4375 0.95481 0.3951 0.0
C47 C 0.43422 0.9367 0.52725 0.0
C48 C 0.40522 0.90356 0.49852 0.0
C49 C 0.48043 0.99822 0.50814 0.0
O50 O 0.56134 0.99278 0.49932 0.0
O51 O 0.61769 1.02122 0.45591 0.0
O52 O 0.62464 0.05682 0.58804 0.0
O53 O 0.57393 0.057 0.61321 0.0
O54 O 0.67199 0.08755 0.39558 0.0
O55 O 0.68346 0.11437 0.518 0.0
O56 O 0.61884 0.11607 0.52523 0.0
O57 O 0.56024 0.08633 0.48415 0.0
O58 O 0.55489 1.01805 0.37572 0.0
O59 O 0.60143 0.07279 0.36887 0.0
C60 C 0.5898 0.99288 0.47626 0.0
O61 O 0.50296 0.99927 0.56028 0.0
O62 O 0.4959 1.02055 0.45656 0.0
C63 C 0.60111 0.05519 0.63727 0.0
C64 C 0.7199 0.14674 0.41824 0.0
C65 C 0.77018 0.21115 0.3659 0.0
C66 C 0.75206 0.2113 0.4347 0.0
C67 C 0.72711 0.17944 0.46053 0.0
C68 C 0.73744 0.14658 0.34857 0.0
C69 C 0.76219 0.17842 0.32242 0.0
C70 C 0.69583 0.11276 0.4479 0.0
C71 C 0.58941 0.11564 0.51196 0.0
H72 H 0.39848 0.91689 0.3044 0.0
H73 H 0.44931 0.97429 0.35394 0.0
H74 H 0.44366 0.94207 0.58991 0.0
H75 H 0.39335 0.88405 0.5396 0.0
H76 H 0.75737 0.23609 0.46895 0.0
H77 H 0.71396 0.18053 0.51433 0.0
H78 H 0.73251 0.12176 0.31518 0.0
H79 H 0.77596 0.17741 0.26971 0.0
Tb80 Tb 0.56134 0.52025 0.83448 0.0
Tb81 Tb 0.59928 0.6073 0.82319 0.0
C82 C 0.57403 0.55093 0.67546 0.0
C83 C 0.53734 0.42526 0.80894 0.0
C84 C 0.54575 0.36765 0.74863 0.0
C85 C 0.56004 0.39832 0.7102 0.0
C86 C 0.55595 0.42692 0.74022 0.0
C87 C 0.52359 0.39509 0.84817 0.0
C88 C 0.52778 0.36659 0.8185 0.0
C89 C 0.53165 0.45443 0.84011 0.0
O90 O 0.61673 0.53803 0.83816 0.0
O91 O 0.6416 0.59578 0.80892 0.0
O92 O 0.61765 0.60305 0.93805 0.0
O93 O 0.57002 0.54877 -0.04595 0.0
O94 O 0.62821 0.64803 0.75366 0.0
O95 O 0.61008 0.65869 0.86758 0.0
O96 O 0.54868 0.5916 0.8715 0.0
O97 O 0.51964 0.53208 0.82332 0.0
O98 O 0.57851 0.52966 0.71538 0.0
O99 O 0.5689 0.57548 0.71304 0.0
C100 C 0.64378 0.56805 0.82272 0.0
O101 O 0.55489 0.47845 0.89514 0.0
O102 O 0.52299 0.46848 0.78663 0.0
C103 C 0.59906 0.57806 -0.01786 0.0
C104 C 0.61454 0.69405 0.76643 0.0
C105 C 0.59954 0.7413 0.69919 0.0
C106 C 0.6065 0.745 0.7828 0.0
C107 C 0.61402 0.72173 0.81593 0.0
C108 C 0.60713 0.68996 0.68285 0.0
C109 C 0.59975 0.71338 0.64962 0.0
C110 C 0.625 0.67139 0.80261 0.0
C111 C 0.51962 0.56074 0.85527 0.0
H112 H 0.57374 0.39995 0.65593 0.0
H113 H 0.56693 0.45012 0.70928 0.0
H114 H 0.5094 0.39349 0.90167 0.0
H115 H 0.51703 0.34375 0.85057 0.0
H116 H 0.60703 0.7665 0.82258 0.0
H117 H 0.62004 0.72574 0.88035 0.0
H118 H 0.60742 0.66897 0.64287 0.0
H119 H 0.59415 0.70958 0.5851 0.0
C120 C 0.29352 0.52533 0.08073 0.0
C121 C 0.2781 0.54444 0.0582 0.0
C122 C 0.32667 0.53338 0.05688 0.0
C123 C 0.34523 0.56075 0.00968 0.0
C124 C 0.33062 0.58098 -0.00953 0.0
C125 C 0.29733 0.57281 0.014 0.0
C126 C 0.37973 0.56867 -0.02023 0.0
C127 C 0.388 0.54326 -0.03832 0.0
C128 C 0.42179 0.54952 0.93017 0.0
C129 C 0.42323 0.52034 0.8914 0.0
C130 C 0.45471 0.52424 0.86499 0.0
C131 C 0.48577 0.55748 0.8773 0.0
H132 H 0.45297 0.60606 -0.02759 0.0
C133 C 0.48432 0.58692 0.91498 0.0
C134 C 0.4527 0.58301 0.94128 0.0
H135 H 0.50777 0.61288 0.92588 0.0
H136 H 0.27986 0.50393 0.11654 0.0
H137 H 0.33768 0.51813 0.07568 0.0
H138 H 0.34452 0.60247 -0.04504 0.0
H139 H 0.28621 0.58797 -0.00487 0.0
H140 H 0.39755 0.59549 -0.03245 0.0
H141 H 0.36844 0.51595 -0.03295 0.0
H142 H 0.39992 0.49422 0.8822 0.0
H143 H 0.45474 0.50093 0.83638 0.0
C144 C 0.80195 0.25035 0.2606 0.0
C145 C 0.7986 0.24492 0.34198 0.0
C146 C 0.82989 0.28145 0.23816 0.0
C147 C 0.85515 0.30773 0.2968 0.0
C148 C 0.85163 0.3023 0.378 0.0
C149 C 0.82359 0.27141 0.40045 0.0
C150 C 0.88662 0.34003 0.27559 0.0
C151 C 0.88816 0.35455 0.20812 0.0
C152 C 0.92031 0.38677 0.18902 0.0
C153 C 0.91721 0.41051 0.14547 0.0
C154 C 0.94707 0.4415 0.12868 0.0
C155 C 0.98071 0.44901 0.15388 0.0
H156 H 0.95745 0.37564 0.2439 0.0
C157 C 0.98378 0.42461 0.19515 0.0
C158 C 0.95397 0.39388 0.21252 0.0
H159 H 1.00924 0.42945 0.21535 0.0
H160 H 0.78306 0.23043 0.21419 0.0
H161 H 0.83211 0.28424 0.17478 0.0
H162 H 0.87085 0.32192 0.42435 0.0
H163 H 0.82208 0.26782 0.46349 0.0
H164 H 0.90908 0.35313 0.31935 0.0
H165 H 0.86484 0.34383 0.16782 0.0
H166 H 0.89159 0.40545 0.12584 0.0
H167 H 0.94375 0.45963 0.09647 0.0
C168 C 0.56117 0.92869 0.49428 0.0
C169 C 0.59132 0.9602 0.47981 0.0
C170 C 0.56316 0.89897 0.50696 0.0
C171 C 0.59548 0.90016 0.5064 0.0
C172 C 0.62522 0.93098 0.48763 0.0
C173 C 0.62322 0.96072 0.47466 0.0
C174 C 0.59932 0.8702 0.52662 0.0
C175 C 0.57775 0.84669 0.57438 0.0
C176 C 0.58301 0.81876 0.60255 0.0
C177 C 0.56684 0.80431 0.67168 0.0
C178 C 0.57182 0.77891 0.70231 0.0
C179 C 0.59289 0.76703 0.6641 0.0
H180 H 0.61547 0.81576 0.50814 0.0
C181 C 0.60825 0.78063 0.59344 0.0
C182 C 0.60336 0.80617 0.56286 0.0
H183 H 0.6247 0.77208 0.56261 0.0
H184 H 0.53601 0.92709 0.49729 0.0
H185 H 0.5393 0.87529 0.51769 0.0
H186 H 0.65038 0.93251 0.48566 0.0
H187 H 0.64696 0.98446 0.46334 0.0
H188 H 0.62233 0.86953 0.5071 0.0
H189 H 0.55659 0.84951 0.59945 0.0
H190 H 0.55067 0.8131 0.70303 0.0
H191 H 0.55909 0.76853 0.75601 0.0
C192 C 0.68168 0.54114 0.82775 0.0
C193 C 0.67874 0.57135 0.82626 0.0
C194 C 0.71445 0.54438 0.83931 0.0
C195 C 0.74514 0.57805 0.85096 0.0
C196 C 0.74228 0.60806 0.84552 0.0
C197 C 0.70949 0.6048 0.83335 0.0
C198 C 0.78037 0.58312 0.87027 0.0
C199 C 0.78513 0.55917 0.90311 0.0
C200 C 0.81984 0.5647 0.93036 0.0
C201 C 0.82025 0.53998 -0.02442 0.0
C202 C 0.85182 0.54442 0.00565 0.0
C203 C 0.88392 0.57379 -0.00866 0.0
H204 H 0.85348 0.61298 0.87796 0.0
C205 C 0.88375 0.59819 0.94468 0.0
C206 C 0.85213 0.59365 0.91407 0.0
H207 H 0.90814 0.6208 0.93156 0.0
H208 H 0.65857 0.51488 0.82099 0.0
H209 H 0.71539 0.52036 0.83932 0.0
H210 H 0.76543 0.6343 0.85314 0.0
H211 H 0.70823 0.62864 0.83225 0.0
H212 H 0.80277 0.60858 0.86229 0.0
H213 H 0.76233 0.53477 0.91551 0.0
H214 H 0.79595 0.51734 -0.01099 0.0
H215 H 0.85103 0.5253 0.04199 0.0
C216 C 0.35672 0.8438 0.31004 0.0
C217 C 0.3598 0.86114 0.38826 0.0
C218 C 0.32612 0.81193 0.28142 0.0
C219 C 0.29788 0.79647 0.33078 0.0
C220 C 0.30114 0.81379 0.40897 0.0
C221 C 0.33163 0.84564 0.43739 0.0
C222 C 0.26415 0.76321 0.30318 0.0
C223 C 0.25896 0.74067 0.23573 0.0
C224 C 0.22474 0.70761 0.21108 0.0
C225 C 0.22418 0.6792 0.16198 0.0
C226 C 0.1926 0.64731 0.14013 0.0
C227 C 0.16083 0.64323 0.1667 0.0
H228 H 0.1917 0.72565 0.26957 0.0
C229 C 0.16125 0.67214 0.21318 0.0
C230 C 0.19273 0.70398 0.23472 0.0
H231 H 0.13723 0.67016 0.2337 0.0
H232 H 0.37801 0.85484 0.27073 0.0
H233 H 0.32475 0.80009 0.22031 0.0
H234 H 0.27984 0.80279 0.44831 0.0
H235 H 0.33275 0.85851 0.4974 0.0
H236 H 0.24283 0.75655 0.34246 0.0
H237 H 0.28066 0.74528 0.19912 0.0
H238 H 0.24833 0.68139 0.14181 0.0
H239 H 0.19323 0.62572 0.10366 0.0
C240 C 0.57991 0.3412 0.68265 0.0
C241 C 0.54889 0.33659 0.71546 0.0
C242 C 0.58268 0.31186 0.65175 0.0
C243 C 0.55447 0.27712 0.65351 0.0
C244 C 0.52341 0.27264 0.68539 0.0
C245 C 0.52062 0.30191 0.71598 0.0
C246 C 0.55574 0.24477 0.62173 0.0
C247 C 0.58543 0.2444 0.60608 0.0
C248 C 0.58602 0.21135 0.57806 0.0
C249 C 0.61711 0.21096 0.59104 0.0
C250 C 0.61847 0.18015 0.5683 0.0
C251 C 0.58871 0.14896 0.53158 0.0
H252 H 0.5325 0.1799 0.52441 0.0
C253 C 0.55791 0.14965 0.51613 0.0
C254 C 0.55659 0.18049 0.53862 0.0
H255 H 0.53461 0.12628 0.48699 0.0
H256 H 0.60225 0.36753 0.68152 0.0
H257 H 0.60683 0.31679 0.62602 0.0
H258 H 0.50108 0.24631 0.68688 0.0
H259 H 0.49606 0.29728 0.73918 0.0
H260 H 0.53097 0.21986 0.61505 0.0
H261 H 0.61059 0.26869 0.61873 0.0
H262 H 0.64032 0.23441 0.62033 0.0
H263 H 0.64273 0.1807 0.58076 0.0
C264 C 1.04482 0.48975 0.85024 0.0
C265 C 1.04086 0.51667 0.89342 0.0
C266 C 1.03728 0.48162 0.76732 0.0
C267 C 1.02564 0.50029 0.72678 0.0
C268 C 1.01897 0.52508 0.7706 0.0
C269 C 1.0268 0.53348 0.8535 0.0
C270 C 1.02435 0.49772 0.63871 0.0
C271 C 0.05009 0.49707 0.59757 0.0
C272 C 0.05585 0.50646 0.51533 0.0
C273 C 0.09029 0.52546 0.49196 0.0
C274 C 0.09674 0.53891 0.41852 0.0
C275 C 0.06873 0.53364 0.36835 0.0
H276 H 1.00088 0.4835 0.4773 0.0
C277 C 1.03423 0.51319 0.39023 0.0
C278 C 1.0278 0.49936 0.46255 0.0
H279 H 1.012 0.50736 0.3509 0.0
H280 H 0.05502 0.47589 0.8798 0.0
H281 H 1.04177 0.46173 0.73464 0.0
H282 H 1.00971 0.53952 0.74011 0.0
H283 H 1.02278 0.55378 0.88576 0.0
H284 H 1.00604 0.50334 0.61015 0.0
H285 H 0.07062 0.49546 0.62891 0.0
H286 H 0.11226 0.53093 0.5317 0.0
H287 H 0.12348 0.55389 0.40172 0.0
C288 C 0.60525 0.05509 0.20452 0.0
C289 C 0.5776 0.03196 0.24713 0.0
C290 C 0.60686 0.04541 0.12355 0.0
C291 C 0.58083 1.01227 0.08361 0.0
C292 C 0.55319 0.98912 0.12622 0.0
C293 C 0.55167 0.99877 0.20767 0.0
C294 C 0.57918 1.00394 -0.00445 0.0
C295 C 0.60742 1.02042 -0.04663 0.0
C296 C 0.60436 1.02654 0.87015 0.0
C297 C 0.63251 0.0349 0.8217 0.0
C298 C 0.63182 0.04486 0.74614 0.0
C299 C 0.6031 0.04706 0.71868 0.0
H300 H 0.55426 1.02433 0.87984 0.0
C301 C 0.57513 0.03907 0.76761 0.0
C302 C 0.57575 1.02898 0.84266 0.0
H303 H 0.55264 0.0405 0.74808 0.0
H304 H 0.62567 0.08081 0.23345 0.0
H305 H 0.6278 0.06469 0.09211 0.0
H306 H 0.53248 0.96381 0.09615 0.0
H307 H 0.53009 0.98038 0.2394 0.0
H308 H 0.55334 0.98745 -0.03557 0.0
H309 H 0.63358 0.03361 -0.01688 0.0
H310 H 0.65515 0.03402 0.84261 0.0
H311 H 0.65376 0.05083 0.70945 0.0
C312 C 0.58703 0.57998 0.55163 0.0
C313 C 0.58007 0.55062 0.58962 0.0
C314 C 0.5966 0.58146 0.47257 0.0
C315 C 0.59921 0.55351 0.43035 0.0
C316 C 0.59103 0.52364 0.46727 0.0
C317 C 0.58184 0.52231 0.54672 0.0
C318 C 0.60726 0.55354 0.34545 0.0
C319 C 0.62851 0.58348 0.31442 0.0
C320 C 0.62846 0.58425 0.22679 0.0
C321 C 0.63266 0.61466 0.19773 0.0
C322 C 0.62461 0.61341 0.11646 0.0
C323 C 0.61195 0.5816 0.06446 0.0
H324 H 0.61812 0.53055 0.1918 0.0
C325 C 0.61081 0.55229 0.09183 0.0
C326 C 0.61968 0.5538 0.1722 0.0
H327 H 0.60237 0.52796 0.05131 0.0
H328 H 0.58581 0.60216 0.58335 0.0
H329 H 0.60132 0.6042 0.44435 0.0
H330 H 0.59216 0.50151 0.43488 0.0
H331 H 0.57646 0.49929 0.57469 0.0
H332 H 0.59311 0.52818 0.30719 0.0
H333 H 0.64235 0.60864 0.35373 0.0
H334 H 0.63993 0.63858 0.23867 0.0
H335 H 0.62625 0.63647 0.09542 0.0
loop_
_geom_bond_atom_site_label_1
_geom_bond_atom_site_label_2
_geom_bond_distance
_geom_bond_site_symmetry_2
_ccdc_geom_bond_type
Tb0 C9 2.764 1_455 S
Tb0 O10 2.325 1_455 S
Tb0 O13 2.303 . S
Tb0 O17 2.322 . S
Tb0 O18 2.352 . S
Tb0 O21 2.415 1_455 S
Tb0 O22 2.399 1_455 S
Tb1 O11 2.315 1_455 S
Tb1 O12 2.349 . S
Tb1 O14 2.415 . S
Tb1 O15 2.399 . S
Tb1 O16 2.325 . S
Tb1 O19 2.303 . S
Tb1 C30 2.764 . S
C2 O18 1.261 1_556 S
C2 O19 1.257 1_556 S
C3 C6 1.358 . S
C3 C7 1.332 . S
C3 C9 1.504 . S
C4 C5 1.373 . S
C4 C8 1.308 . S
C5 C4 1.373 . S
C5 C6 1.429 . S
C5 H32 0.932 . S
C6 C3 1.358 . S
C6 C5 1.429 . S
C6 H33 0.930 . S
C7 C3 1.332 . S
C7 C8 1.394 . S
C7 H34 0.932 . S
C8 C4 1.308 . S
C8 C7 1.394 . S
C8 H35 0.929 . S
C9 Tb0 2.764 1_655 S
C9 C3 1.504 . S
C9 O21 1.239 . S
C9 O22 1.263 . S
O10 Tb0 2.325 1_655 S
O10 C20 1.236 . S
O11 Tb1 2.315 1_655 S
O11 C20 1.266 . S
O12 Tb1 2.349 . S
O12 C23 1.261 . S
O13 Tb0 2.303 . S
O13 C23 1.257 . S
O14 Tb1 2.415 . S
O14 C30 1.239 . S
O15 Tb1 2.399 . S
O15 C30 1.263 . S
O16 Tb1 2.325 . S
O16 C31 1.236 . S
O17 Tb0 2.322 . S
O17 C31 1.257 . S
O18 Tb0 2.352 . S
O18 C2 1.261 1_554 S
O19 Tb1 2.303 . S
O19 C2 1.257 1_554 S
C20 O10 1.236 . S
C20 O11 1.266 . S
O21 Tb0 2.415 1_655 S
O21 C9 1.239 . S
O22 Tb0 2.399 1_655 S
O22 C9 1.263 . S
C23 O12 1.261 . S
C23 O13 1.257 . S
C24 C27 1.358 . S
C24 C28 1.332 . S
C24 C30 1.504 . S
C25 C26 1.373 . S
C25 C29 1.308 . S
C26 C25 1.373 . S
C26 C27 1.429 . S
C26 H36 0.932 . S
C27 C24 1.358 . S
C27 C26 1.429 . S
C27 H37 0.930 . S
C28 C24 1.332 . S
C28 C29 1.394 . S
C28 H38 0.932 . S
C29 C25 1.308 . S
C29 C28 1.394 . S
C29 H39 0.929 . S
C30 Tb1 2.764 . S
C30 O14 1.239 . S
C30 O15 1.263 . S
C30 C24 1.504 . S
C31 O16 1.236 . S
C31 O17 1.257 . S
H32 C5 0.932 . S
H33 C6 0.930 . S
H34 C7 0.932 . S
H35 C8 0.929 . S
H36 C26 0.932 . S
H37 C27 0.930 . S
H38 C28 0.932 . S
H39 C29 0.929 . S
Tb40 C49 2.764 . S
Tb40 O50 2.325 . S
Tb40 O53 2.303 1_565 S
Tb40 O57 2.322 1_565 S
Tb40 O58 2.351 . S
Tb40 O61 2.415 . S
Tb40 O62 2.399 . S
Tb41 O51 2.322 1_545 S
Tb41 O52 2.349 . S
Tb41 O54 2.415 . S
Tb41 O55 2.399 . S
Tb41 O56 2.325 . S
Tb41 O59 2.303 . S
Tb41 C70 2.764 . S
C42 O58 1.259 1_545 S
C42 O59 1.257 . S
C43 C46 1.358 . S
C43 C47 1.332 . S
C43 C49 1.504 . S
C44 C45 1.373 . S
C44 C48 1.308 . S
C45 C44 1.373 . S
C45 C46 1.429 . S
C45 H72 0.932 . S
C46 C43 1.358 . S
C46 C45 1.429 . S
C46 H73 0.930 . S
C47 C43 1.332 . S
C47 C48 1.394 . S
C47 H74 0.932 . S
C48 C44 1.308 . S
C48 C47 1.394 . S
C48 H75 0.929 . S
C49 Tb40 2.764 . S
C49 C43 1.504 . S
C49 O61 1.239 . S
C49 O62 1.263 . S
O50 Tb40 2.325 . S
O50 C60 1.236 . S
O51 Tb41 2.322 1_565 S
O51 C60 1.257 . S
O52 Tb41 2.349 . S
O52 C63 1.261 . S
O53 Tb40 2.303 1_545 S
O53 C63 1.257 . S
O54 Tb41 2.415 . S
O54 C70 1.239 . S
O55 Tb41 2.399 . S
O55 C70 1.263 . S
O56 Tb41 2.325 . S
O56 C71 1.236 . S
O57 Tb40 2.322 1_545 S
O57 C71 1.257 . S
O58 Tb40 2.351 . S
O58 C42 1.259 1_565 S
O59 Tb41 2.303 . S
O59 C42 1.257 . S
C60 O50 1.236 . S
C60 O51 1.257 . S
O61 Tb40 2.415 . S
O61 C49 1.239 . S
O62 Tb40 2.399 . S
O62 C49 1.263 . S
C63 O52 1.261 . S
C63 O53 1.257 . S
C64 C67 1.358 . S
C64 C68 1.332 . S
C64 C70 1.504 . S
C65 C66 1.373 . S
C65 C69 1.308 . S
C66 C65 1.373 . S
C66 C67 1.429 . S
C66 H76 0.932 . S
C67 C64 1.358 . S
C67 C66 1.429 . S
C67 H77 0.930 . S
C68 C64 1.332 . S
C68 C69 1.394 . S
C68 H78 0.932 . S
C69 C65 1.308 . S
C69 C68 1.394 . S
C69 H79 0.929 . S
C70 Tb41 2.764 . S
C70 O54 1.239 . S
C70 O55 1.263 . S
C70 C64 1.504 . S
C71 O56 1.236 . S
C71 O57 1.257 . S
H72 C45 0.932 . S
H73 C46 0.930 . S
H74 C47 0.932 . S
H75 C48 0.929 . S
H76 C66 0.932 . S
H77 C67 0.930 . S
H78 C68 0.932 . S
H79 C69 0.929 . S
Tb80 C89 2.764 . S
Tb80 O90 2.325 . S
Tb80 O93 2.303 . S
Tb80 O97 2.322 . S
Tb80 O98 2.349 . S
Tb80 O101 2.415 . S
Tb80 O102 2.399 . S
Tb81 O91 2.322 . S
Tb81 O92 2.349 1_556 S
Tb81 O94 2.415 . S
Tb81 O95 2.399 . S
Tb81 O96 2.325 . S
Tb81 O99 2.303 . S
Tb81 C110 2.764 . S
C82 O98 1.261 . S
C82 O99 1.257 . S
C83 C86 1.358 . S
C83 C87 1.332 . S
C83 C89 1.504 . S
C84 C85 1.373 . S
C84 C88 1.308 . S
C85 C84 1.373 . S
C85 C86 1.429 . S
C85 H112 0.932 . S
C86 C83 1.358 . S
C86 C85 1.429 . S
C86 H113 0.930 . S
C87 C83 1.332 . S
C87 C88 1.394 . S
C87 H114 0.932 . S
C88 C84 1.308 . S
C88 C87 1.394 . S
C88 H115 0.929 . S
C89 Tb80 2.764 . S
C89 C83 1.504 . S
C89 O101 1.239 . S
C89 O102 1.263 . S
O90 Tb80 2.325 . S
O90 C100 1.236 . S
O91 Tb81 2.322 . S
O91 C100 1.257 . S
O92 Tb81 2.349 1_554 S
O92 C103 1.261 . S
O93 Tb80 2.303 . S
O93 C103 1.257 1_556 S
O94 Tb81 2.415 . S
O94 C110 1.239 . S
O95 Tb81 2.399 . S
O95 C110 1.263 . S
O96 Tb81 2.325 . S
O96 C111 1.236 . S
O97 Tb80 2.322 . S
O97 C111 1.257 . S
O98 Tb80 2.349 . S
O98 C82 1.261 . S
O99 Tb81 2.303 . S
O99 C82 1.257 . S
C100 O90 1.236 . S
C100 O91 1.257 . S
O101 Tb80 2.415 . S
O101 C89 1.239 . S
O102 Tb80 2.399 . S
O102 C89 1.263 . S
C103 O92 1.261 . S
C103 O93 1.257 1_554 S
C104 C107 1.358 . S
C104 C108 1.332 . S
C104 C110 1.504 . S
C105 C106 1.373 . S
C105 C109 1.308 . S
C106 C105 1.373 . S
C106 C107 1.429 . S
C106 H116 0.932 . S
C107 C104 1.358 . S
C107 C106 1.429 . S
C107 H117 0.930 . S
C108 C104 1.332 . S
C108 C109 1.394 . S
C108 H118 0.932 . S
C109 C105 1.308 . S
C109 C108 1.394 . S
C109 H119 0.929 . S
C110 Tb81 2.764 . S
C110 O94 1.239 . S
C110 O95 1.263 . S
C110 C104 1.504 . S
C111 O96 1.236 . S
C111 O97 1.257 . S
H112 C85 0.932 . S
H113 C86 0.930 . S
H114 C87 0.932 . S
H115 C88 0.929 . S
H116 C106 0.932 . S
H117 C107 0.930 . S
H118 C108 0.932 . S
H119 C109 0.929 . S
C120 C121 1.386 . S
C120 C122 1.383 . S
C120 H136 0.951 . S
C121 C120 1.386 . S
C121 C125 1.383 1_554 S
C122 C120 1.383 . S
C122 C123 1.402 1_554 S
C122 H137 0.951 . S
C123 C122 1.402 1_556 S
C123 C124 1.375 . S
C123 C126 1.481 . S
C124 C123 1.375 . S
C124 C125 1.367 . S
C124 H138 0.951 . S
C125 C121 1.383 1_556 S
C125 C124 1.367 . S
C125 H139 0.950 . S
C126 C123 1.481 . S
C126 C127 1.297 . S
C126 H140 0.950 . S
C127 C126 1.297 . S
C127 C128 1.479 . S
C127 H141 0.950 1_556 S
C128 C127 1.479 . S
C128 C129 1.375 . S
C128 C134 1.404 . S
C129 C128 1.375 . S
C129 C130 1.369 . S
C129 H142 0.950 1_556 S
C130 C129 1.369 . S
C130 C131 1.392 . S
C130 H143 0.951 . S
C131 C130 1.392 . S
C131 C133 1.384 . S
H132 C134 0.949 . S
C133 C131 1.384 . S
C133 C134 1.385 . S
C133 H135 0.950 . S
C134 C128 1.404 . S
C134 H132 0.949 . S
C134 C133 1.385 . S
H135 C133 0.950 . S
H136 C120 0.951 . S
H137 C122 0.951 . S
H138 C124 0.951 . S
H139 C125 0.950 . S
H140 C126 0.950 . S
H141 C127 0.950 1_554 S
H142 C129 0.950 1_554 S
H143 C130 0.951 . S
C144 C145 1.386 . S
C144 C146 1.383 . S
C144 H160 0.951 . S
C145 C144 1.386 . S
C145 C149 1.383 . S
C146 C144 1.383 . S
C146 C147 1.402 . S
C146 H161 0.951 . S
C147 C146 1.402 . S
C147 C148 1.375 . S
C147 C150 1.481 . S
C148 C147 1.375 . S
C148 C149 1.367 . S
C148 H162 0.951 . S
C149 C145 1.383 . S
C149 C148 1.367 . S
C149 H163 0.950 . S
C150 C147 1.481 . S
C150 C151 1.297 . S
C150 H164 0.950 . S
C151 C150 1.297 . S
C151 C152 1.479 . S
C151 H165 0.950 . S
C152 C151 1.479 . S
C152 C153 1.375 . S
C152 C158 1.404 . S
C153 C152 1.375 . S
C153 C154 1.369 . S
C153 H166 0.950 . S
C154 C153 1.369 . S
C154 C155 1.392 . S
C154 H167 0.951 . S
C155 C154 1.392 . S
C155 C157 1.384 . S
H156 C158 0.949 . S
C157 C155 1.384 . S
C157 C158 1.385 . S
C157 H159 0.950 . S
C158 C152 1.404 . S
C158 H156 0.949 . S
C158 C157 1.385 . S
H159 C157 0.950 . S
H160 C144 0.951 . S
H161 C146 0.951 . S
H162 C148 0.951 . S
H163 C149 0.950 . S
H164 C150 0.950 . S
H165 C151 0.950 . S
H166 C153 0.950 . S
H167 C154 0.951 . S
C168 C169 1.386 . S
C168 C170 1.383 . S
C168 H184 0.951 . S
C169 C168 1.386 . S
C169 C173 1.383 . S
C170 C168 1.383 . S
C170 C171 1.402 . S
C170 H185 0.951 . S
C171 C170 1.402 . S
C171 C172 1.375 . S
C171 C174 1.481 . S
C172 C171 1.375 . S
C172 C173 1.367 . S
C172 H186 0.951 . S
C173 C169 1.383 . S
C173 C172 1.367 . S
C173 H187 0.950 . S
C174 C171 1.481 . S
C174 C175 1.297 . S
C174 H188 0.950 . S
C175 C174 1.297 . S
C175 C176 1.479 . S
C175 H189 0.950 . S
C176 C175 1.479 . S
C176 C177 1.375 . S
C176 C182 1.404 . S
C177 C176 1.375 . S
C177 C178 1.369 . S
C177 H190 0.950 . S
C178 C177 1.369 . S
C178 C179 1.392 . S
C178 H191 0.951 . S
C179 C178 1.392 . S
C179 C181 1.384 . S
H180 C182 0.949 . S
C181 C179 1.384 . S
C181 C182 1.385 . S
C181 H183 0.950 . S
C182 C176 1.404 . S
C182 H180 0.949 . S
C182 C181 1.385 . S
H183 C181 0.950 . S
H184 C168 0.951 . S
H185 C170 0.951 . S
H186 C172 0.951 . S
H187 C173 0.950 . S
H188 C174 0.950 . S
H189 C175 0.950 . S
H190 C177 0.950 . S
H191 C178 0.951 . S
C192 C193 1.386 . S
C192 C194 1.383 1_556 S
C192 H208 0.951 1_556 S
C193 C192 1.386 . S
C193 C197 1.383 . S
C194 C192 1.383 1_554 S
C194 C195 1.402 1_554 S
C194 H209 0.951 . S
C195 C194 1.402 1_556 S
C195 C196 1.375 . S
C195 C198 1.481 . S
C196 C195 1.375 . S
C196 C197 1.367 . S
C196 H210 0.951 . S
C197 C193 1.383 . S
C197 C196 1.367 . S
C197 H211 0.950 . S
C198 C195 1.481 . S
C198 C199 1.297 1_556 S
C198 H212 0.950 . S
C199 C198 1.297 1_554 S
C199 C200 1.479 . S
C199 H213 0.950 . S
C200 C199 1.479 . S
C200 C201 1.375 . S
C200 C206 1.404 . S
C201 C200 1.375 . S
C201 C202 1.369 . S
C201 H214 0.950 . S
C202 C201 1.369 . S
C202 C203 1.392 . S
C202 H215 0.951 . S
C203 C202 1.392 . S
C203 C205 1.384 . S
H204 C206 0.949 1_556 S
C205 C203 1.384 . S
C205 C206 1.385 . S
C205 H207 0.950 . S
C206 C200 1.404 . S
C206 H204 0.949 1_554 S
C206 C205 1.385 . S
H207 C205 0.950 . S
H208 C192 0.951 1_554 S
H209 C194 0.951 . S
H210 C196 0.951 . S
H211 C197 0.950 . S
H212 C198 0.950 . S
H213 C199 0.950 . S
H214 C201 0.950 . S
H215 C202 0.951 . S
C216 C217 1.386 . S
C216 C218 1.383 . S
C216 H232 0.951 . S
C217 C216 1.386 . S
C217 C221 1.383 . S
C218 C216 1.383 . S
C218 C219 1.402 . S
C218 H233 0.951 . S
C219 C218 1.402 . S
C219 C220 1.375 . S
C219 C222 1.481 . S
C220 C219 1.375 . S
C220 C221 1.367 . S
C220 H234 0.951 . S
C221 C217 1.383 . S
C221 C220 1.367 . S
C221 H235 0.950 . S
C222 C219 1.481 . S
C222 C223 1.297 . S
C222 H236 0.950 . S
C223 C222 1.297 . S
C223 C224 1.479 . S
C223 H237 0.950 . S
C224 C223 1.479 . S
C224 C225 1.375 . S
C224 C230 1.404 . S
C225 C224 1.375 . S
C225 C226 1.369 . S
C225 H238 0.950 . S
C226 C225 1.369 . S
C226 C227 1.392 . S
C226 H239 0.951 . S
C227 C226 1.392 . S
C227 C229 1.384 . S
H228 C230 0.949 . S
C229 C227 1.384 . S
C229 C230 1.385 . S
C229 H231 0.950 . S
C230 C224 1.404 . S
C230 H228 0.949 . S
C230 C229 1.385 . S
H231 C229 0.950 . S
H232 C216 0.951 . S
H233 C218 0.951 . S
H234 C220 0.951 . S
H235 C221 0.950 . S
H236 C222 0.950 . S
H237 C223 0.950 . S
H238 C225 0.950 . S
H239 C226 0.951 . S
C240 C241 1.386 . S
C240 C242 1.383 . S
C240 H256 0.951 . S
C241 C240 1.386 . S
C241 C245 1.383 . S
C242 C240 1.383 . S
C242 C243 1.402 . S
C242 H257 0.951 . S
C243 C242 1.402 . S
C243 C244 1.375 . S
C243 C246 1.481 . S
C244 C243 1.375 . S
C244 C245 1.367 . S
C244 H258 0.951 . S
C245 C241 1.383 . S
C245 C244 1.367 . S
C245 H259 0.950 . S
C246 C243 1.481 . S
C246 C247 1.297 . S
C246 H260 0.950 . S
C247 C246 1.297 . S
C247 C248 1.479 . S
C247 H261 0.950 . S
C248 C247 1.479 . S
C248 C249 1.375 . S
C248 C254 1.404 . S
C249 C248 1.375 . S
C249 C250 1.369 . S
C249 H262 0.950 . S
C250 C249 1.369 . S
C250 C251 1.392 . S
C250 H263 0.951 . S
C251 C250 1.392 . S
C251 C253 1.384 . S
H252 C254 0.949 . S
C253 C251 1.384 . S
C253 C254 1.385 . S
C253 H255 0.950 . S
C254 C248 1.404 . S
C254 H252 0.949 . S
C254 C253 1.385 . S
H255 C253 0.950 . S
H256 C240 0.951 . S
H257 C242 0.951 . S
H258 C244 0.951 . S
H259 C245 0.950 . S
H260 C246 0.950 . S
H261 C247 0.950 . S
H262 C249 0.950 . S
H263 C250 0.951 . S
C264 C265 1.386 . S
C264 C266 1.383 . S
C264 H280 0.951 . S
C265 C264 1.386 . S
C265 C269 1.383 . S
C266 C264 1.383 . S
C266 C267 1.402 . S
C266 H281 0.951 . S
C267 C266 1.402 . S
C267 C268 1.373 . S
C267 C270 1.481 . S
C268 C267 1.373 . S
C268 C269 1.366 . S
C268 H282 0.954 1_455 S
C269 C265 1.383 . S
C269 C268 1.366 . S
C269 H283 0.950 1_455 S
C270 C267 1.481 . S
C270 C271 1.297 . S
C270 H284 0.950 1_455 S
C271 C270 1.297 . S
C271 C272 1.479 . S
C271 H285 0.950 . S
C272 C271 1.479 . S
C272 C273 1.375 . S
C272 C278 1.404 1_455 S
C273 C272 1.375 . S
C273 C274 1.369 . S
C273 H286 0.950 . S
C274 C273 1.369 . S
C274 C275 1.392 . S
C274 H287 0.951 . S
C275 C274 1.392 . S
C275 C277 1.384 1_455 S
H276 C278 0.949 . S
C277 C275 1.384 1_655 S
C277 C278 1.385 . S
C277 H279 0.950 . S
C278 C272 1.404 1_655 S
C278 H276 0.949 . S
C278 C277 1.385 . S
H279 C277 0.950 . S
H280 C264 0.951 . S
H281 C266 0.951 . S
H282 C268 0.954 1_655 S
H283 C269 0.950 1_655 S
H284 C270 0.950 1_655 S
H285 C271 0.950 . S
H286 C273 0.950 . S
H287 C274 0.951 . S
C288 C289 1.386 . S
C288 C290 1.383 . S
C288 H304 0.951 . S
C289 C288 1.386 . S
C289 C293 1.383 1_545 S
C290 C288 1.383 . S
C290 C291 1.402 . S
C290 H305 0.951 . S
C291 C290 1.402 . S
C291 C292 1.375 1_545 S
C291 C294 1.481 . S
C292 C291 1.375 1_565 S
C292 C293 1.367 . S
C292 H306 0.951 . S
C293 C289 1.383 1_565 S
C293 C292 1.367 . S
C293 H307 0.950 . S
C294 C291 1.481 . S
C294 C295 1.297 1_554 S
C294 H308 0.950 1_544 S
C295 C294 1.297 1_556 S
C295 C296 1.479 . S
C295 H309 0.950 1_556 S
C296 C295 1.479 . S
C296 C297 1.375 . S
C296 C302 1.404 . S
C297 C296 1.375 . S
C297 C298 1.369 . S
C297 H310 0.950 . S
C298 C297 1.369 . S
C298 C299 1.392 . S
C298 H311 0.951 . S
C299 C298 1.392 . S
C299 C301 1.387 . S
H300 C302 0.949 1_565 S
C301 C299 1.387 . S
C301 C302 1.385 . S
C301 H303 0.948 1_545 S
C302 C296 1.404 . S
C302 H300 0.949 1_545 S
C302 C301 1.385 . S
H303 C301 0.948 1_565 S
H304 C288 0.951 . S
H305 C290 0.951 . S
H306 C292 0.951 . S
H307 C293 0.950 . S
H308 C294 0.950 1_566 S
H309 C295 0.950 1_554 S
H310 C297 0.950 . S
H311 C298 0.951 . S
C312 C313 1.386 . S
C312 C314 1.383 . S
C312 H328 0.951 . S
C313 C312 1.386 . S
C313 C317 1.383 . S
C314 C312 1.383 . S
C314 C315 1.402 . S
C314 H329 0.951 . S
C315 C314 1.402 . S
C315 C316 1.375 . S
C315 C318 1.481 . S
C316 C315 1.375 . S
C316 C317 1.367 . S
C316 H330 0.951 . S
C317 C313 1.383 . S
C317 C316 1.367 . S
C317 H331 0.950 . S
C318 C315 1.481 . S
C318 C319 1.297 . S
C318 H332 0.950 . S
C319 C318 1.297 . S
C319 C320 1.479 . S
C319 H333 0.950 . S
C320 C319 1.479 . S
C320 C321 1.375 . S
C320 C326 1.404 . S
C321 C320 1.375 . S
C321 C322 1.369 . S
C321 H334 0.950 . S
C322 C321 1.369 . S
C322 C323 1.392 . S
C322 H335 0.951 . S
C323 C322 1.392 . S
C323 C325 1.384 . S
H324 C326 0.949 . S
C325 C323 1.384 . S
C325 C326 1.385 . S
C325 H327 0.950 . S
C326 C320 1.404 . S
C326 H324 0.949 . S
C326 C325 1.385 . S
H327 C325 0.950 . S
H328 C312 0.951 . S
H329 C314 0.951 . S
H330 C316 0.951 . S
H331 C317 0.950 . S
H332 C318 0.950 . S
H333 C319 0.950 . S
H334 C321 0.950 . S
H335 C322 0.951 . S
C121 C25 1.854 . S
C131 C111 1.791 . S
C145 C65 2.094 . S
C155 C20 2.082 . S
C169 C60 2.108 . S
C179 C105 2.063 . S
C193 C100 2.079 . S
C203 C4 2.017 . S
C217 C44 1.774 . S
C227 C31 1.744 . S
C241 C84 1.786 . S
C251 C71 1.697 . S
C265 C2 0.403 . S
C275 C23 0.448 . S
C289 C42 0.453 . S
C299 C63 0.284 . S
C313 C82 0.377 . S
C323 C103 0.579 . S
