# Generated by pormake.
# Topology wiu, (6)-cn, num edge types: 1
# Building blocks:
#     Node 0, Type 0, BuildingBlock: BETGAK_clean_sbu_0, # of connection points: 6
#     Node 1, Type 0, BuildingBlock: BETGAK_clean_sbu_0, # of connection points: 6
#     Node 2, Type 0, BuildingBlock: BETGAK_clean_sbu_0, # of connection points: 6
#     Node 3, Type 0, BuildingBlock: BETGAK_clean_sbu_0, # of connection points: 6
#     Node 4, Type 0, BuildingBlock: BETGAK_clean_sbu_0, # of connection points: 6
#     Node 5, Type 0, BuildingBlock: BETGAK_clean_sbu_0, # of connection points: 6
#     Node 6, Type 0, BuildingBlock: BETGAK_clean_sbu_0, # of connection points: 6
#     Node 7, Type 0, BuildingBlock: BETGAK_clean_sbu_0, # of connection points: 6
#     Node 8, Type 0, BuildingBlock: BETGAK_clean_sbu_0, # of connection points: 6
#     Node 9, Type 0, BuildingBlock: BETGAK_clean_sbu_0, # of connection points: 6
#     Node 10, Type 0, BuildingBlock: BETGAK_clean_sbu_0, # of connection points: 6
#     Node 11, Type 0, BuildingBlock: BETGAK_clean_sbu_0, # of connection points: 6
#     Node 12, Type 0, BuildingBlock: BETGAK_clean_sbu_0, # of connection points: 6
#     Node 13, Type 0, BuildingBlock: BETGAK_clean_sbu_0, # of connection points: 6
#     Node 14, Type 0, BuildingBlock: BETGAK_clean_sbu_0, # of connection points: 6
#     Node 15, Type 0, BuildingBlock: BETGAK_clean_sbu_0, # of connection points: 6
#     Edge 16, Type (0, 0), BuildingBlock: OJICUG_clean_linker_0, # of connection points: 2
#     Edge 17, Type (0, 0), BuildingBlock: OJICUG_clean_linker_0, # of connection points: 2
#     Edge 18, Type (0, 0), BuildingBlock: OJICUG_clean_linker_0, # of connection points: 2
#     Edge 19, Type (0, 0), BuildingBlock: OJICUG_clean_linker_0, # of connection points: 2
#     Edge 20, Type (0, 0), BuildingBlock: OJICUG_clean_linker_0, # of connection points: 2
#     Edge 21, Type (0, 0), BuildingBlock: OJICUG_clean_linker_0, # of connection points: 2
#     Edge 22, Type (0, 0), BuildingBlock: OJICUG_clean_linker_0, # of connection points: 2
#     Edge 23, Type (0, 0), BuildingBlock: OJICUG_clean_linker_0, # of connection points: 2
#     Edge 24, Type (0, 0), BuildingBlock: OJICUG_clean_linker_0, # of connection points: 2
#     Edge 25, Type (0, 0), BuildingBlock: OJICUG_clean_linker_0, # of connection points: 2
#     Edge 26, Type (0, 0), BuildingBlock: OJICUG_clean_linker_0, # of connection points: 2
#     Edge 27, Type (0, 0), BuildingBlock: OJICUG_clean_linker_0, # of connection points: 2
#     Edge 28, Type (0, 0), BuildingBlock: OJICUG_clean_linker_0, # of connection points: 2
#     Edge 29, Type (0, 0), BuildingBlock: OJICUG_clean_linker_0, # of connection points: 2
#     Edge 30, Type (0, 0), BuildingBlock: OJICUG_clean_linker_0, # of connection points: 2
#     Edge 31, Type (0, 0), BuildingBlock: OJICUG_clean_linker_0, # of connection points: 2
#     Edge 32, Type (0, 0), BuildingBlock: OJICUG_clean_linker_0, # of connection points: 2
#     Edge 33, Type (0, 0), BuildingBlock: OJICUG_clean_linker_0, # of connection points: 2
#     Edge 34, Type (0, 0), BuildingBlock: OJICUG_clean_linker_0, # of connection points: 2
#     Edge 35, Type (0, 0), BuildingBlock: OJICUG_clean_linker_0, # of connection points: 2
#     Edge 36, Type (0, 0), BuildingBlock: OJICUG_clean_linker_0, # of connection points: 2
#     Edge 37, Type (0, 0), BuildingBlock: OJICUG_clean_linker_0, # of connection points: 2
#     Edge 38, Type (0, 0), BuildingBlock: OJICUG_clean_linker_0, # of connection points: 2
#     Edge 39, Type (0, 0), BuildingBlock: OJICUG_clean_linker_0, # of connection points: 2
#     Edge 40, Type (0, 0), BuildingBlock: OJICUG_clean_linker_0, # of connection points: 2
#     Edge 41, Type (0, 0), BuildingBlock: OJICUG_clean_linker_0, # of connection points: 2
#     Edge 42, Type (0, 0), BuildingBlock: OJICUG_clean_linker_0, # of connection points: 2
#     Edge 43, Type (0, 0), BuildingBlock: OJICUG_clean_linker_0, # of connection points: 2
#     Edge 44, Type (0, 0), BuildingBlock: OJICUG_clean_linker_0, # of connection points: 2
#     Edge 45, Type (0, 0), BuildingBlock: OJICUG_clean_linker_0, # of connection points: 2
#     Edge 46, Type (0, 0), BuildingBlock: OJICUG_clean_linker_0, # of connection points: 2
#     Edge 47, Type (0, 0), BuildingBlock: OJICUG_clean_linker_0, # of connection points: 2
#     Edge 48, Type (0, 0), BuildingBlock: OJICUG_clean_linker_0, # of connection points: 2
#     Edge 49, Type (0, 0), BuildingBlock: OJICUG_clean_linker_0, # of connection points: 2
#     Edge 50, Type (0, 0), BuildingBlock: OJICUG_clean_linker_0, # of connection points: 2
#     Edge 51, Type (0, 0), BuildingBlock: OJICUG_clean_linker_0, # of connection points: 2
#     Edge 52, Type (0, 0), BuildingBlock: OJICUG_clean_linker_0, # of connection points: 2
#     Edge 53, Type (0, 0), BuildingBlock: OJICUG_clean_linker_0, # of connection points: 2
#     Edge 54, Type (0, 0), BuildingBlock: OJICUG_clean_linker_0, # of connection points: 2
#     Edge 55, Type (0, 0), BuildingBlock: OJICUG_clean_linker_0, # of connection points: 2
#     Edge 56, Type (0, 0), BuildingBlock: OJICUG_clean_linker_0, # of connection points: 2
#     Edge 57, Type (0, 0), BuildingBlock: OJICUG_clean_linker_0, # of connection points: 2
#     Edge 58, Type (0, 0), BuildingBlock: OJICUG_clean_linker_0, # of connection points: 2
#     Edge 59, Type (0, 0), BuildingBlock: OJICUG_clean_linker_0, # of connection points: 2
#     Edge 60, Type (0, 0), BuildingBlock: OJICUG_clean_linker_0, # of connection points: 2
#     Edge 61, Type (0, 0), BuildingBlock: OJICUG_clean_linker_0, # of connection points: 2
#     Edge 62, Type (0, 0), BuildingBlock: OJICUG_clean_linker_0, # of connection points: 2
#     Edge 63, Type (0, 0), BuildingBlock: OJICUG_clean_linker_0, # of connection points: 2
# Relax obj value: 0.738
# Max RMSD: 0.340
# Mean RMSD: 0.340
data_MOF--net-wiu--node1-BETGAK_clean_sbu_0--edge1-OJICUG_clean_linker_0
_symmetry_space_group_name_H-M    P1
_symmetry_Int_Tables_number       1
_symmetry_cell_setting            triclinic
loop_
_symmetry_equiv_pos_as_xyz
'x, y, z'
_cell_length_a     29.064375
_cell_length_b     29.251733
_cell_length_c     38.394227
_cell_angle_alpha  89.774567
_cell_angle_beta   90.267597
_cell_angle_gamma 89.704988
loop_
_atom_site_label
_atom_site_type_symbol
_atom_site_fract_x
_atom_site_fract_y
_atom_site_fract_z
_atom_type_partial_charge
La0 La 0.40174 0.22001 0.37561 0.0
La1 La 0.448 0.14817 0.34751 0.0
C2 C 0.35718 0.28364 0.40491 0.0
C3 C 0.34313 0.32972 0.39178 0.0
C4 C 0.3603 0.36943 0.40761 0.0
C5 C 0.34847 0.41294 0.39469 0.0
C6 C 0.31885 0.41782 0.36576 0.0
C7 C 0.30185 0.37803 0.34988 0.0
C8 C 0.31391 0.33462 0.36261 0.0
C9 C 0.48547 0.24852 0.35302 0.0
C10 C 0.44633 0.13985 0.42678 0.0
C11 C 0.49317 0.10552 0.3037 0.0
C12 C 0.47143 0.08694 0.27207 0.0
C13 C 0.43114 0.06037 0.27448 0.0
C14 C 0.40514 1.05046 0.24478 0.0
C15 C 0.41841 0.06756 1.21222 0.0
C16 C 0.4588 0.09395 1.20994 0.0
C17 C 0.48499 0.10341 0.23949 0.0
C18 C 0.36486 0.121 0.36762 0.0
C19 C 0.37145 0.1961 0.29638 0.0
O20 O 0.33802 0.24842 0.39017 0.0
O21 O 0.40113 0.27676 0.40956 0.0
O22 O 0.44593 0.26644 0.34539 0.0
O23 O 0.47647 0.21147 0.36962 0.0
O24 O 0.41288 0.17144 0.42223 0.0
O25 O 0.47263 0.13047 0.39982 0.0
O26 O 0.48058 0.08688 0.3332 0.0
O27 O 0.49331 0.15033 0.30512 0.0
O28 O 0.40153 0.09556 0.36803 0.0
O29 O 0.37589 0.15884 0.35466 0.0
O30 O 0.40383 0.1643 0.30055 0.0
O31 O 0.36431 0.22392 0.3234 0.0
H32 H 0.38298 0.36682 0.43001 0.0
H33 H 0.3618 0.4428 0.40783 0.0
H34 H 0.2794 0.38043 0.32734 0.0
H35 H 0.30038 0.3049 0.34939 0.0
H36 H 0.41893 1.04811 0.29941 0.0
H37 H 0.3748 1.02934 0.2472 0.0
H38 H 0.47112 0.10628 1.18506 0.0
H39 H 0.51523 0.12468 0.23702 0.0
La40 La 0.65553 0.63376 0.62707 0.0
La41 La 0.72822 0.68194 0.59732 0.0
C42 C 0.59165 0.5889 0.6559 0.0
C43 C 0.54446 0.57714 0.64365 0.0
C44 C 0.50622 0.58486 0.66515 0.0
C45 C 0.46152 0.57472 0.65348 0.0
C46 C 0.45403 0.55629 0.62009 0.0
C47 C 0.4924 0.54876 0.59859 0.0
C48 C 0.53694 0.55927 0.61011 0.0
C49 C 0.62654 0.71707 0.60332 0.0
C50 C 0.7354 0.67657 0.67775 0.0
C51 C 0.77463 0.74241 0.56784 0.0
C52 C 0.79137 0.78631 0.58103 0.0
C53 C 0.83506 0.80121 0.5715 0.0
C54 C 0.84986 0.84455 0.58114 0.0
C55 C 0.82047 0.87444 0.59956 0.0
C56 C 0.77878 0.85729 0.61242 0.0
C57 C 0.76462 0.81321 0.60355 0.0
C58 C 0.75509 0.59854 0.61787 0.0
C59 C 0.67887 0.60834 0.54651 0.0
O60 O 0.6259 0.57022 0.63927 0.0
O61 O 0.59953 0.63197 0.66205 0.0
O62 O 0.60745 0.67803 0.59749 0.0
O63 O 0.66396 0.70784 0.61987 0.0
O64 O 0.70448 0.64301 0.67345 0.0
O65 O 0.74325 0.70363 0.65091 0.0
O66 O 0.72998 0.73864 0.56375 0.0
O67 O 0.79295 0.70653 0.58273 0.0
O68 O 0.78115 0.63433 0.61776 0.0
O69 O 0.7173 0.61051 0.60477 0.0
O70 O 0.70594 0.64506 0.54834 0.0
O71 O 0.65656 0.59624 0.57554 0.0
H72 H 0.51093 0.59874 0.69103 0.0
H73 H 0.43288 0.58051 0.67089 0.0
H74 H 0.48797 0.5351 0.57262 0.0
H75 H 0.56549 0.55343 0.59263 0.0
H76 H 0.85693 0.78018 0.55524 0.0
H77 H 0.88247 0.85604 0.57095 0.0
H78 H 0.75561 0.87918 0.62688 0.0
H79 H 0.73189 0.80099 0.61291 0.0
La80 La 0.24291 0.89 0.87538 0.0
La81 La 0.19275 0.96096 0.8457 0.0
C82 C 0.29068 0.82878 0.90522 0.0
C83 C 0.30583 0.78308 0.89268 0.0
C84 C 0.29094 0.74317 0.90961 0.0
C85 C 0.30271 0.69988 0.89667 0.0
C86 C 0.32996 0.69554 0.86663 0.0
C87 C 0.34524 0.73552 0.84995 0.0
C88 C 0.33322 0.7787 0.8627 0.0
C89 C 0.15926 0.85978 0.85337 0.0
C90 C 0.19977 0.97028 0.92568 0.0
C91 C 0.12862 0.99915 0.81304 0.0
C92 C 0.08029 1.00633 0.82293 0.0
C93 C 0.06232 1.05068 0.82341 0.0
C94 C 1.01617 0.05803 0.8313 0.0
C95 C 0.98661 1.02095 0.83857 0.0
C96 C 1.00614 0.97699 0.84156 0.0
C97 C 1.05235 0.96971 0.83329 0.0
C98 C 0.27616 0.98964 0.86419 0.0
C99 C 0.269 0.91282 0.79498 0.0
O100 O 0.30809 0.8643 0.88952 0.0
O101 O 0.24663 0.83409 0.91029 0.0
O102 O 0.19884 0.84161 0.84666 0.0
O103 O 0.16806 0.89715 0.86954 0.0
O104 O 0.23334 0.93907 0.92127 0.0
O105 O 0.17211 0.97845 0.89903 0.0
O106 O 0.14151 0.95681 0.80728 0.0
O107 O 0.15856 1.02162 0.83173 0.0
O108 O 0.23955 1.01532 0.86369 0.0
O109 O 0.26474 0.95142 0.85233 0.0
O110 O 0.2354 0.94396 0.79809 0.0
O111 O 0.27799 0.88649 0.8228 0.0
H112 H 0.26978 0.74546 0.9327 0.0
H113 H 0.29091 0.66978 0.91044 0.0
H114 H 0.36595 0.73344 0.82662 0.0
H115 H 0.34501 0.80861 0.84871 0.0
H116 H 0.08357 0.07958 0.81635 0.0
H117 H 1.0033 0.09263 0.82863 0.0
H118 H 0.98502 0.94769 0.84773 0.0
H119 H 0.06572 0.93521 0.83362 0.0
La120 La 0.98413 0.4743 1.12903 0.0
La121 La 0.91352 0.42277 1.0983 0.0
C122 C 1.04548 0.52217 1.15841 0.0
C123 C 0.09134 0.53589 1.14559 0.0
C124 C 0.10543 0.5235 1.11192 0.0
C125 C 0.14812 0.53744 1.09905 0.0
C126 C 0.17762 0.56427 1.11946 0.0
C127 C 0.16344 0.57681 1.15317 0.0
C128 C 0.12072 0.56259 1.16616 0.0
C129 C 1.01458 0.39028 1.10827 0.0
C130 C 0.90371 0.43108 1.17855 0.0
C131 C 0.87811 0.35729 1.06653 0.0
C132 C 0.87443 0.30871 1.07625 0.0
C133 C 0.83154 0.28748 1.07516 0.0
C134 C 0.82799 0.24071 1.08154 0.0
C135 C 0.86756 0.21386 1.08876 0.0
C136 C 0.90975 0.23639 1.09351 0.0
C137 C 0.91321 0.28327 1.08694 0.0
C138 C 0.88276 0.50523 1.11626 0.0
C139 C 0.96088 0.50005 1.04826 0.0
O140 O 1.01067 0.53915 1.14115 0.0
O141 O 1.03979 0.47864 1.16436 0.0
O142 O 1.03302 0.42927 1.10098 0.0
O143 O 0.97706 0.39999 1.12399 0.0
O144 O 0.93447 0.46478 1.17437 0.0
O145 O 0.89647 0.40324 1.15209 0.0
O146 O 0.91965 0.37234 1.06006 0.0
O147 O 0.85418 0.38566 1.08558 0.0
O148 O 0.85699 0.46921 1.11376 0.0
O149 O 0.9218 0.49404 1.10535 0.0
O150 O 0.9335 0.46339 1.05007 0.0
O151 O 0.98387 0.51149 1.0772 0.0
H152 H 0.08307 0.50362 1.0953 0.0
H153 H 0.15753 0.52837 1.07274 0.0
H154 H 0.18551 0.59748 1.16951 0.0
H155 H 0.11049 0.57274 1.19211 0.0
H156 H 0.801 0.30667 1.06777 0.0
H157 H 0.7946 0.22535 1.07754 0.0
H158 H 0.94079 0.21723 1.09956 0.0
H159 H 0.94661 0.29915 1.0886 0.0
La160 La 0.69218 0.95924 1.101 0.0
La161 La 0.74303 0.88845 1.07276 0.0
C162 C 0.62779 0.99701 1.133 0.0
C163 C 0.5791 1.00337 1.12349 0.0
C164 C 0.56 1.04724 1.12411 0.0
C165 C 0.51327 1.05364 1.11747 0.0
C166 C 0.48431 1.01601 1.11047 0.0
C167 C 0.50485 0.97277 1.10604 0.0
C168 C 0.55169 0.96645 1.11298 0.0
C169 C 0.77367 0.98999 1.08051 0.0
C170 C 0.77009 0.9141 1.1524 0.0
C171 C 0.78994 0.82618 1.04392 0.0
C172 C 0.80289 0.77933 1.05601 0.0
C173 C 0.78735 0.74066 1.03787 0.0
C174 C 0.79809 0.69639 1.04978 0.0
C175 C 0.82498 0.68971 1.08001 0.0
C176 C 0.84052 0.72847 1.09809 0.0
C177 C 0.82953 0.77261 1.08636 0.0
C178 C 0.65971 0.85807 1.09497 0.0
C179 C 0.69848 0.96695 1.021 0.0
O180 O 0.64142 0.95498 1.13943 0.0
O181 O 0.6569 1.01953 1.11369 0.0
O182 O 0.73632 1.01443 1.08184 0.0
O183 O 0.76464 0.95157 1.0936 0.0
O184 O 0.73581 0.94441 1.14876 0.0
O185 O 0.779 0.88701 1.12524 0.0
O186 O 0.80782 0.86039 1.06085 0.0
O187 O 0.74645 0.83344 1.03729 0.0
O188 O 0.69944 0.84056 1.10251 0.0
O189 O 0.66824 0.89494 1.07805 0.0
O190 O 0.73287 0.93668 1.02608 0.0
O191 O 0.67057 0.97472 1.04732 0.0
H192 H 0.58082 0.0764 1.13127 0.0
H193 H 0.49962 0.08775 1.12112 0.0
H194 H 0.48412 0.94315 1.1 0.0
H195 H 0.56599 0.93237 1.11169 0.0
H196 H 0.76674 0.74468 1.01446 0.0
H197 H 0.78601 0.66736 1.03496 0.0
H198 H 0.8609 0.72469 1.12163 0.0
H199 H 0.8418 0.80145 1.1013 0.0
La200 La 0.41124 0.43148 0.85133 0.0
La201 La 0.48523 0.47149 0.82062 0.0
C202 C 0.35799 0.39253 0.89213 0.0
C203 C 0.32167 0.41688 0.9115 0.0
C204 C 0.2885 0.44366 0.89367 0.0
C205 C 0.2544 0.46712 0.91188 0.0
C206 C 0.25278 0.46447 0.94828 0.0
C207 C 0.28801 0.44039 0.96614 0.0
C208 C 0.32197 0.41674 0.9479 0.0
C209 C 0.38725 0.51366 0.8263 0.0
C210 C 0.46096 0.50854 0.89866 0.0
C211 C 0.54954 0.5125 0.78929 0.0
C212 C 0.59502 0.52874 0.80197 0.0
C213 C 0.63575 0.51226 0.78684 0.0
C214 C 0.67885 0.52566 0.79972 0.0
C215 C 0.68222 0.55614 0.82791 0.0
C216 C 0.64141 0.57286 0.84285 0.0
C217 C 0.59839 0.55921 0.83017 0.0
C218 C 0.51206 0.38984 0.8486 0.0
C219 C 0.40208 0.42865 0.77146 0.0
O220 O 0.35238 0.39161 0.85842 0.0
O221 O 0.40045 0.4021 0.90089 0.0
O222 O 0.36027 0.47884 0.82834 0.0
O223 O 0.42471 0.50164 0.83981 0.0
O224 O 0.42809 0.47732 0.89638 0.0
O225 O 0.48912 0.5124 0.87122 0.0
O226 O 0.51325 0.5329 0.80175 0.0
O227 O 0.54385 0.46836 0.78832 0.0
O228 O 0.53168 0.429 0.85275 0.0
O229 O 0.47446 0.39829 0.83193 0.0
O230 O 0.43803 0.4574 0.77348 0.0
O231 O 0.38958 0.40753 0.80019 0.0
H232 H 0.28792 0.44562 0.86551 0.0
H233 H 0.22755 0.48485 0.89746 0.0
H234 H 0.28745 0.43673 0.99422 0.0
H235 H 0.34776 0.39739 0.96223 0.0
H236 H 0.63422 0.48871 0.76516 0.0
H237 H 0.70959 0.51259 0.78731 0.0
H238 H 0.64271 0.59602 0.86476 0.0
H239 H 0.5678 0.5723 0.84277 0.0
La240 La 0.94574 0.14729 0.60201 0.0
La241 La 0.90321 0.22012 0.57166 0.0
C242 C 0.98886 0.10624 0.64841 0.0
C243 C 0.96623 0.09048 0.68049 0.0
C244 C 0.92389 0.06714 0.67876 0.0
C245 C 0.89803 0.05962 0.70881 0.0
C246 C 0.91363 0.07581 0.74105 0.0
C247 C 0.95581 0.09947 0.74254 0.0
C248 C 0.98177 0.10662 0.71264 0.0
C249 C 0.86294 0.12202 0.58012 0.0
C250 C 0.86912 0.19753 0.65057 0.0
C251 C 0.86079 0.28459 0.5408 0.0
C252 C 0.84486 0.32999 0.55364 0.0
C253 C 0.86194 0.37037 0.53866 0.0
C254 C 0.84893 0.41334 0.5516 0.0
C255 C 0.8182 0.41703 0.57973 0.0
C256 C 0.80097 0.37655 0.59458 0.0
C257 C 0.81424 0.33364 0.58183 0.0
C258 C 0.98729 0.24568 0.59557 0.0
C259 C 0.94674 0.13695 0.5226 0.0
O260 O 0.97603 0.08605 0.6196 0.0
O261 O 0.99035 0.15085 0.64506 0.0
O262 O 0.89892 0.09564 0.58113 0.0
O263 O 0.87428 0.1601 0.59257 0.0
O264 O 0.89978 0.16411 0.64729 0.0
O265 O 0.86449 0.22581 0.62323 0.0
O266 O 0.84072 0.24851 0.55356 0.0
O267 O 0.90514 0.27852 0.53913 0.0
O268 O 0.94831 0.26491 0.60271 0.0
O269 O 0.97719 0.20891 0.57909 0.0
O270 O 0.91699 0.17244 0.52497 0.0
O271 O 0.96901 0.12429 0.55109 0.0
H272 H 0.91012 0.0555 0.6541 0.0
H273 H 0.86621 1.04063 0.70698 0.0
H274 H 0.96981 0.11116 0.7671 0.0
H275 H 1.0136 0.12562 0.7145 0.0
H276 H 0.88564 0.36869 0.517 0.0
H277 H 0.86242 0.44374 0.53921 0.0
H278 H 0.7776 0.37801 0.61644 0.0
H279 H 0.80071 0.30334 0.59434 0.0
La280 La 0.23064 0.68406 0.34973 0.0
La281 La 0.15686 0.63658 0.3205 0.0
C282 C 0.27764 0.74435 0.37883 0.0
C283 C 0.29275 0.7889 0.3657 0.0
C284 C 0.3354 0.80583 0.37609 0.0
C285 C 0.34803 0.85007 0.36689 0.0
C286 C 0.31736 0.87875 0.34818 0.0
C287 C 0.27703 0.85964 0.33432 0.0
C288 C 0.26515 0.81466 0.34266 0.0
C289 C 0.25686 0.60079 0.32947 0.0
C290 C 0.18148 0.61065 0.401 0.0
C291 C 0.09261 0.59212 0.29121 0.0
C292 C 1.04436 0.58199 0.30129 0.0
C293 C 1.01853 0.61244 0.32179 0.0
C294 C 0.97432 0.60075 0.33337 0.0
C295 C 0.95487 0.55819 0.32488 0.0
C296 C 0.98054 0.52826 0.30367 0.0
C297 C 1.02469 0.54 0.29212 0.0
C298 C 0.12945 0.72029 0.34407 0.0
C299 C 0.23646 0.67825 0.26935 0.0
O300 O 0.2333 0.73974 0.38388 0.0
O301 O 0.29573 0.70925 0.36308 0.0
O302 O 0.28318 0.63638 0.32975 0.0
O303 O 0.21909 0.61265 0.34242 0.0
O304 O 0.20908 0.64696 0.39891 0.0
O305 O 0.15849 0.59888 0.37213 0.0
O306 O 0.12435 0.57359 0.31079 0.0
O307 O 0.1026 0.6345 0.28379 0.0
O308 O 0.10999 0.68148 0.35005 0.0
O309 O 0.16627 0.71059 0.32725 0.0
O310 O 0.20557 0.64477 0.27412 0.0
O311 O 0.24461 0.70561 0.29587 0.0
H312 H 0.35795 0.78571 0.39276 0.0
H313 H 0.37975 0.86308 0.37775 0.0
H314 H 0.25297 0.88058 0.31958 0.0
H315 H 0.23338 0.80082 0.33258 0.0
H316 H 1.03272 0.64502 0.32937 0.0
H317 H 0.95592 0.62461 0.34977 0.0
H318 H 0.96651 0.49559 0.29594 0.0
H319 H 1.04378 0.5159 0.27634 0.0
La320 La 0.903 0.7167 0.8773 0.0
La321 La 0.94652 0.64432 0.8458 0.0
C322 C 0.85884 0.77956 0.90809 0.0
C323 C 0.84588 0.82698 0.89751 0.0
C324 C 0.87914 0.85933 0.88766 0.0
C325 C 0.86591 0.9029 0.87573 0.0
C326 C 0.81908 0.91515 0.87301 0.0
C327 C 0.78594 0.88289 0.88327 0.0
C328 C 0.7992 0.83948 0.89544 0.0
C329 C 0.98547 0.74513 0.8509 0.0
C330 C 0.94137 0.63053 0.92607 0.0
C331 C 0.99347 0.59043 0.81012 0.0
C332 C 0.98009 0.54322 0.80145 0.0
C333 C 0.97505 0.50967 0.82763 0.0
C334 C 0.9605 0.46558 0.81919 0.0
C335 C 0.95031 0.4543 0.78453 0.0
C336 C 0.95278 0.48885 0.75883 0.0
C337 C 0.96779 0.53259 0.76718 0.0
C338 C 0.86376 0.61812 0.86826 0.0
C339 C 0.87021 0.69462 0.79757 0.0
O340 O 0.83946 0.74696 0.89037 0.0
O341 O 0.90233 0.77067 0.91365 0.0
O342 O 0.946 0.76527 0.84789 0.0
O343 O 0.97706 0.70728 0.86655 0.0
O344 O 0.91548 0.66882 0.92427 0.0
O345 O 0.96133 0.61619 0.89741 0.0
O346 O 1.00225 0.59852 0.84282 0.0
O347 O 0.96805 0.62261 0.79624 0.0
O348 O 0.89935 0.5917 0.86557 0.0
O349 O 0.87531 0.65623 0.85621 0.0
O350 O 0.90442 0.66435 0.79899 0.0
O351 O 0.86295 0.71988 0.8261 0.0
H352 H 0.91542 0.85087 0.8887 0.0
H353 H 0.89242 0.92667 0.86797 0.0
H354 H 0.74963 0.89129 0.88216 0.0
H355 H 0.7728 0.81535 0.90287 0.0
H356 H 0.98304 0.51711 0.85459 0.0
H357 H 0.95947 0.43968 0.83942 0.0
H358 H 0.94618 0.48149 0.73167 0.0
H359 H 0.9704 0.558 0.74667 0.0
La360 La 0.16151 0.12997 1.12682 0.0
La361 La 0.22702 0.18135 1.09382 0.0
C362 C 0.09877 0.07436 1.14523 0.0
C363 C 1.04998 0.06784 1.13482 0.0
C364 C 1.0354 0.07474 1.10017 0.0
C365 C 0.98983 0.06584 1.09024 0.0
C366 C 0.95762 1.05034 1.11479 0.0
C367 C 0.97203 1.04468 1.14964 0.0
C368 C 1.01774 1.05318 1.15949 0.0
C369 C 0.13235 0.21913 1.12034 0.0
C370 C 0.2394 0.17228 1.17519 0.0
C371 C 0.25841 0.24638 1.05841 0.0
C372 C 0.23584 0.2891 1.04729 0.0
C373 C 0.25488 0.33073 1.0574 0.0
C374 C 0.23248 0.37166 1.04955 0.0
C375 C 0.19003 0.37221 1.03133 0.0
C376 C 0.17036 0.32992 1.02228 0.0
C377 C 0.19326 0.2889 1.02975 0.0
C378 C 0.26708 0.10447 1.1166 0.0
C379 C 0.18594 0.10339 1.04597 0.0
O380 O 0.12942 0.06603 1.1216 0.0
O381 O 0.10877 0.11146 1.16207 0.0
O382 O 0.12814 0.19271 1.1469 0.0
O383 O 0.15309 0.19468 1.09758 0.0
O384 O 0.21309 0.13535 1.17082 0.0
O385 O 0.24106 0.20172 1.14882 0.0
O386 O 0.24289 0.20873 1.04472 0.0
O387 O 0.26474 0.24232 1.09193 0.0
O388 O 0.2881 0.14294 1.11133 0.0
O389 O 0.22629 0.11002 1.10628 0.0
O390 O 0.22014 0.1328 1.04972 0.0
O391 O 0.15457 0.10164 1.07152 0.0
H392 H 1.05937 0.08646 1.08059 0.0
H393 H 0.97978 0.07109 1.06331 0.0
H394 H 0.94827 1.03239 1.16917 0.0
H395 H 1.02808 1.04761 1.18633 0.0
H396 H 0.28743 0.33162 1.07127 0.0
H397 H 0.25021 0.40274 1.05648 0.0
H398 H 0.13748 0.32821 1.00906 0.0
H399 H 0.17697 0.25706 1.02255 0.0
La400 La 0.74121 0.39647 0.37948 0.0
La401 La 0.69187 0.46445 0.34343 0.0
C402 C 0.79389 0.33164 0.39963 0.0
C403 C 0.80626 0.28589 0.38567 0.0
C404 C 0.78933 0.24637 0.40204 0.0
C405 C 0.80023 0.20287 0.38935 0.0
C406 C 0.82878 0.19772 0.36015 0.0
C407 C 0.84586 0.23726 0.34378 0.0
C408 C 0.83464 0.28086 0.35632 0.0
C409 C 0.65084 0.37207 0.3705 0.0
C410 C 0.70135 0.4787 0.42524 0.0
C411 C 0.62554 0.49716 0.3093 0.0
C412 C 0.58203 0.4753 0.2995 0.0
C413 C 0.54067 0.49798 0.3063 0.0
C414 C 0.49879 0.4765 0.30008 0.0
C415 C 0.49709 0.43148 0.28681 0.0
C416 C 0.53904 0.40838 0.28118 0.0
C417 C 0.58102 0.43009 0.28732 0.0
C418 C 0.772 0.49858 0.36544 0.0
C419 C 0.7689 0.41842 0.29748 0.0
O420 O 0.80792 0.36762 0.38288 0.0
O421 O 0.7516 0.33688 0.40955 0.0
O422 O 0.67541 0.36786 0.39829 0.0
O423 O 0.67762 0.39121 0.34845 0.0
O424 O 0.73487 0.44729 0.42333 0.0
O425 O 0.67439 0.48466 0.39758 0.0
O426 O 0.66292 0.48143 0.29474 0.0
O427 O 0.63082 0.5029 0.34273 0.0
O428 O 0.7354 0.52291 0.35873 0.0
O429 O 0.76253 0.45844 0.35658 0.0
O430 O 0.73961 0.45324 0.29956 0.0
O431 O 0.77055 0.38843 0.32428 0.0
H432 H 0.76768 0.24909 0.42484 0.0
H433 H 0.78715 0.17319 0.40297 0.0
H434 H 0.86779 0.23449 0.32115 0.0
H435 H 0.84829 0.31053 0.34302 0.0
H436 H 0.54075 0.53255 0.31635 0.0
H437 H 0.46796 0.49659 0.30416 0.0
H438 H 0.53969 0.37359 0.27172 0.0
H439 H 0.61262 0.41116 0.28309 0.0
La440 La 0.48583 0.97461 0.62722 0.0
La441 La 0.4122 0.93076 0.596 0.0
C442 C 0.54832 1.01771 0.65926 0.0
C443 C 0.59393 1.03422 0.64728 0.0
C444 C 0.63379 1.02453 0.66682 0.0
C445 C 0.67724 1.03801 0.65479 0.0
C446 C 0.68179 0.0617 0.62296 0.0
C447 C 0.64173 0.07164 0.60361 0.0
C448 C 0.59843 0.05794 0.61551 0.0
C449 C 0.51307 0.89188 0.60254 0.0
C450 C 0.40274 0.92974 0.6754 0.0
C451 C 0.37252 0.88702 0.54962 0.0
C452 C 0.3605 0.90668 0.51533 0.0
C453 C 0.33349 0.94677 0.51258 0.0
C454 C 0.32911 0.96979 0.48071 0.0
C455 C 0.35235 0.9537 0.45122 0.0
C456 C 0.3797 0.91394 0.4543 0.0
C457 C 0.38339 0.89057 0.48583 0.0
C458 C 0.38725 1.01261 0.61892 0.0
C459 C 0.46333 1.00789 0.54807 0.0
O460 O 0.51218 1.03709 0.64525 0.0
O461 O 0.54331 0.97351 0.66118 0.0
O462 O 0.53303 0.93071 0.59744 0.0
O463 O 0.4755 0.90117 0.61862 0.0
O464 O 0.436 0.96155 0.67257 0.0
O465 O 0.39257 0.90544 0.6475 0.0
O466 O 0.35051 0.9036 0.57651 0.0
O467 O 0.41693 0.88341 0.55536 0.0
O468 O 0.35995 0.97764 0.61737 0.0
O469 O 0.42485 1.00095 0.6056 0.0
O470 O 0.43062 0.97647 0.5508 0.0
O471 O 0.49096 1.01328 0.57574 0.0
H472 H 0.63137 1.00619 0.69131 0.0
H473 H 0.70725 1.03024 0.6706 0.0
H474 H 0.64388 0.08931 0.57883 0.0
H475 H 0.56853 0.06556 0.59954 0.0
H476 H 0.31638 0.96092 0.53512 0.0
H477 H 0.30725 0.99983 0.47899 0.0
H478 H 0.39721 0.89971 0.432 0.0
H479 H 0.40515 0.86043 0.48737 0.0
La480 La 0.19104 0.45971 0.60506 0.0
La481 La 0.2434 0.39536 0.56638 0.0
C482 C 0.1213 0.48478 0.63757 0.0
C483 C 0.09078 0.45671 0.65889 0.0
C484 C 1.04364 0.46595 0.65861 0.0
C485 C 1.0133 0.43631 0.67512 0.0
C486 C 1.02946 0.39647 0.69233 0.0
C487 C 0.07683 0.38641 0.69109 0.0
C488 C 0.10723 0.41639 0.67473 0.0
C489 C 0.26923 0.49759 0.58427 0.0
C490 C 0.2698 0.4124 0.64981 0.0
C491 C 0.29671 0.33176 0.54578 0.0
C492 C 0.30908 0.28586 0.55986 0.0
C493 C 0.28967 0.24647 0.54504 0.0
C494 C 0.30028 0.20299 0.55824 0.0
C495 C 0.33095 0.19769 0.58641 0.0
C496 C 0.35057 0.23707 0.60116 0.0
C497 C 0.33972 0.28064 0.5881 0.0
C498 C 0.15443 0.36698 0.57734 0.0
C499 C 0.20276 0.4802 0.52296 0.0
O500 O 0.16322 0.49094 0.64946 0.0
O501 O 0.1205 0.47359 0.60459 0.0
O502 O 0.23211 0.52057 0.59191 0.0
O503 O 0.26144 0.45647 0.59167 0.0
O504 O 0.23359 0.44028 0.65101 0.0
O505 O 0.27822 0.38991 0.61992 0.0
O506 O 0.31044 0.36746 0.56288 0.0
O507 O 0.2545 0.33712 0.53535 0.0
O508 O 0.17737 0.36506 0.54881 0.0
O509 O 0.18201 0.38609 0.59887 0.0
O510 O 0.23522 0.44761 0.52361 0.0
O511 O 0.17699 0.48627 0.55122 0.0
H512 H 1.03023 0.49614 0.64554 0.0
H513 H 0.9774 0.44621 0.67568 0.0
H514 H 0.0906 0.35596 0.7035 0.0
H515 H 0.14346 0.4076 0.67385 0.0
H516 H 0.26624 0.24927 0.52309 0.0
H517 H 0.28522 0.1734 0.54582 0.0
H518 H 0.37419 0.23423 0.62297 0.0
H519 H 0.35536 0.31017 0.60018 0.0
La520 La 0.91611 0.9317 0.3523 0.0
La521 La 0.98738 0.9783 0.31973 0.0
C522 C 0.87794 0.88625 0.39842 0.0
C523 C 0.86735 0.90516 0.43301 0.0
C524 C 0.84316 0.94688 0.43621 0.0
C525 C 0.84012 0.96884 0.4684 0.0
C526 C 0.86183 0.94997 0.49784 0.0
C527 C 0.8866 0.90867 0.49433 0.0
C528 C 0.88907 0.88646 0.46238 0.0
C529 C 0.88779 1.0132 0.33001 0.0
C530 C 0.96715 1.00957 0.3993 0.0
C531 C 1.04876 1.0219 0.28691 0.0
C532 C 0.09688 1.03366 0.29647 0.0
C533 C 0.1266 1.00133 0.31207 0.0
C534 C 0.17036 1.01414 0.324 0.0
C535 C 0.18536 0.05967 0.32093 0.0
C536 C 0.15586 0.0917 0.30466 0.0
C537 C 0.11221 0.07881 0.29257 0.0
C538 C 1.01698 0.89571 0.34448 0.0
C539 C 0.90418 0.93292 0.27262 0.0
O540 O 0.85507 0.90374 0.37204 0.0
O541 O 0.92207 0.88255 0.39202 0.0
O542 O 0.8615 0.97765 0.33255 0.0
O543 O 0.92639 1.00242 0.34235 0.0
O544 O 0.93935 0.9736 0.39846 0.0
O545 O 0.98953 1.01947 0.36986 0.0
O546 O 1.01702 1.04129 0.30565 0.0
O547 O 1.03943 0.97888 0.28158 0.0
O548 O 1.03642 0.93487 0.34921 0.0
O549 O 0.979 0.90449 0.32866 0.0
O550 O 0.93573 0.96632 0.27541 0.0
O551 O 0.89651 0.90702 0.30033 0.0
H552 H 0.82722 0.96308 0.41376 0.0
H553 H 0.82031 1.00018 0.47042 0.0
H554 H 0.90288 0.89244 0.51659 0.0
H555 H 0.90886 0.85508 0.46045 0.0
H556 H 0.11575 0.9663 0.31576 0.0
H557 H 0.19192 0.98862 0.33656 0.0
H558 H 0.16649 0.12687 0.30128 0.0
H559 H 0.08999 0.10443 0.28075 0.0
La560 La 0.44223 0.64411 1.09756 0.0
La561 La 0.40237 0.72141 1.07033 0.0
C562 C 0.48085 0.58574 1.13495 0.0
C563 C 0.45646 0.55161 1.15646 0.0
C564 C 0.43114 0.51612 1.14072 0.0
C565 C 0.40735 0.48443 1.16098 0.0
C566 C 0.40822 0.48753 1.19739 0.0
C567 C 0.43112 0.52477 1.21294 0.0
C568 C 0.4551 0.55627 1.1927 0.0
C569 C 0.35704 0.62587 1.07447 0.0
C570 C 0.36929 0.69484 1.14872 0.0
C571 C 0.3627 0.78854 1.04048 0.0
C572 C 0.35346 0.83578 1.05251 0.0
C573 C 0.33945 0.86978 1.02883 0.0
C574 C 0.32925 0.91414 1.04042 0.0
C575 C 0.33266 0.92539 1.07603 0.0
C576 C 0.3473 0.89125 1.09959 0.0
C577 C 0.3577 0.84703 1.08794 0.0
C578 C 0.48655 0.74312 1.09714 0.0
C579 C 0.44396 0.64206 1.0182 0.0
O580 O 0.47586 0.58093 1.10138 0.0
O581 O 0.47697 0.6286 1.14452 0.0
O582 O 0.39143 0.59776 1.07352 0.0
O583 O 0.37158 0.66126 1.08889 0.0
O584 O 0.40023 0.66161 1.14488 0.0
O585 O 0.36407 0.72401 1.12198 0.0
O586 O 0.34121 0.75635 1.05726 0.0
O587 O 0.40572 0.77756 1.03565 0.0
O588 O 0.44805 0.76426 1.10212 0.0
O589 O 0.47607 0.7073 1.07959 0.0
O590 O 0.41137 0.67434 1.0228 0.0
O591 O 0.46927 0.63119 1.04548 0.0
H592 H 0.43041 0.51202 1.1127 0.0
H593 H 0.39059 0.45592 1.14833 0.0
H594 H 0.43353 0.52782 0.24099 0.0
H595 H 0.47344 0.58371 1.20548 0.0
H596 H 0.33586 0.8619 1.0014 0.0
H597 H 0.31756 0.93934 1.02158 0.0
H598 H 0.35084 0.89873 1.12707 0.0
H599 H 0.36862 0.82143 1.10673 0.0
La600 La 0.72967 0.17744 0.85191 0.0
La601 La 0.65671 0.13439 0.82195 0.0
C602 C 0.77301 0.21955 0.89729 0.0
C603 C 0.79213 0.19701 0.92865 0.0
C604 C 0.82122 0.15844 0.92576 0.0
C605 C 0.83324 0.13262 0.95518 0.0
C606 C 0.81594 0.14446 0.98798 0.0
C607 C 0.78652 0.1828 0.99064 0.0
C608 C 0.77489 0.20875 0.96137 0.0
C609 C 0.7566 0.09551 0.82947 0.0
C610 C 0.6807 0.09991 0.90037 0.0
C611 C 0.59311 0.09287 0.78952 0.0
C612 C 0.54519 0.08133 0.7993 0.0
C613 C 0.52112 0.10726 0.82411 0.0
C614 C 0.47738 0.09389 0.83543 0.0
C615 C 0.45659 1.05413 0.8223 0.0
C616 C 0.48041 1.02885 0.79679 0.0
C617 C 0.5242 1.04226 0.78552 0.0
C618 C 0.62888 0.21673 0.84769 0.0
C619 C 0.73818 0.17898 0.77246 0.0
O620 O 0.79159 0.20792 0.8676 0.0
O621 O 0.72792 0.22016 0.89571 0.0
O622 O 0.78226 0.13162 0.83047 0.0
O623 O 0.71831 0.10632 0.84224 0.0
O624 O 0.71321 0.1314 0.89732 0.0
O625 O 0.65244 0.09488 0.87306 0.0
O626 O 0.62519 0.07244 0.80763 0.0
O627 O 0.60254 0.13605 0.78516 0.0
O628 O 0.6101 0.17748 0.85311 0.0
O629 O 0.66597 0.20808 0.83083 0.0
O630 O 0.70603 0.14625 0.77603 0.0
O631 O 0.74784 0.20374 0.8002 0.0
H632 H 0.83432 0.14776 0.90071 0.0
H633 H 0.85657 0.10388 0.95241 0.0
H634 H 0.77371 0.19399 1.01565 0.0
H635 H 0.75175 0.23765 0.96423 0.0
H636 H 0.53636 0.13747 0.83528 0.0
H637 H 0.46046 0.11406 0.85524 0.0
H638 H 0.46525 0.99855 0.78551 0.0
H639 H 0.54199 1.02168 0.76638 0.0
C640 C 0.52687 0.32676 0.35008 0.0
C641 C 0.52925 0.27881 0.35629 0.0
H642 H 0.56054 0.39265 0.35123 0.0
C643 C 0.57326 0.26211 0.36634 0.0
H644 H 0.49419 0.34221 0.34299 0.0
C645 C 0.61236 0.29166 0.36967 0.0
C646 C 0.60982 0.33956 0.36309 0.0
H647 H 0.57759 0.22602 0.37186 0.0
H648 H 0.64488 0.27684 0.37789 0.0
C649 C 0.56566 0.3562 0.35401 0.0
C650 C 0.5488 0.76165 0.60515 0.0
C651 C 0.59783 0.76216 0.60432 0.0
H652 H 0.4843 0.7996 0.60611 0.0
C653 C 0.61769 0.80615 0.60333 0.0
H654 H 0.53119 0.72913 0.60585 0.0
C655 C 0.59034 0.84698 0.60267 0.0
C656 C 0.54137 0.84655 0.60378 0.0
H657 H 0.65464 0.80923 0.60221 0.0
H658 H 0.60804 0.87943 0.60139 0.0
C659 C 0.5214 0.80257 0.60535 0.0
C660 C 0.07143 0.84689 0.86631 0.0
C661 C 0.11431 0.83078 0.85382 0.0
H662 H 0.9989 0.83439 0.87453 0.0
C663 C 0.11418 0.78472 0.84184 0.0
H664 H 0.06914 0.88095 0.87701 0.0
C665 C 0.07382 0.75675 0.84194 0.0
C666 C 1.03064 0.77344 0.85323 0.0
H667 H 0.14583 0.76984 0.83223 0.0
H668 H 0.07632 0.72213 0.83223 0.0
C669 C 1.03071 0.81943 0.8653 0.0
C670 C 0.1163 0.30228 1.09861 0.0
C671 C 0.10092 0.26178 1.11481 0.0
H672 H 0.10256 0.3723 1.08326 0.0
C673 C 1.05615 0.26456 1.12957 0.0
H674 H 0.15126 0.30368 1.08958 0.0
C675 C 1.02817 0.305 1.1274 0.0
C676 C 1.04319 0.34516 1.11018 0.0
H677 H 1.04265 0.23523 1.14337 0.0
H678 H 0.99481 0.3049 1.13981 0.0
C679 C 0.08821 0.34249 1.09593 0.0
C680 C 0.57263 0.84402 1.08019 0.0
C681 C 0.6151 0.82869 1.09432 0.0
H682 H 0.50045 0.83078 1.07047 0.0
C683 C 0.61486 0.78317 1.10767 0.0
H684 H 0.5705 0.87767 1.06851 0.0
C685 C 0.57464 0.75501 1.10739 0.0
C686 C 0.53185 0.77096 1.09435 0.0
H687 H 0.64624 0.76894 1.1186 0.0
H688 H 0.57689 0.72092 1.11838 0.0
C689 C 0.53207 0.81637 1.08087 0.0
C690 C 0.61857 0.30589 0.84595 0.0
C691 C 0.59948 0.26151 0.84688 0.0
H692 H 0.60754 0.3791 0.84642 0.0
C693 C 0.55045 0.26021 0.84786 0.0
H694 H 0.65561 0.30957 0.84531 0.0
C695 C 0.52228 0.30062 0.84766 0.0
C696 C 0.54139 0.34502 0.84744 0.0
H697 H 0.53338 0.22742 0.8486 0.0
H698 H 0.48524 0.29694 0.84832 0.0
C699 C 0.59044 0.34631 0.84668 0.0
C700 C 0.11081 0.28994 0.56981 0.0
C701 C 0.11347 0.33425 0.58493 0.0
H702 H 0.07177 0.22772 0.5613 0.0
C703 C 0.07414 0.34777 0.6039 0.0
H704 H 0.13931 0.27766 0.55432 0.0
C705 C 1.03491 0.31883 0.6079 0.0
C706 C 1.03216 0.27451 0.59286 0.0
H707 H 0.07259 0.38188 0.61433 0.0
H708 H 1.00583 0.33199 0.62235 0.0
C709 C 0.07155 0.2608 0.57384 0.0
C710 C 1.05224 0.76556 0.34077 0.0
C711 C 0.10119 0.76567 0.34297 0.0
H712 H 0.98807 0.80395 0.33869 0.0
C713 C 0.12128 0.80948 0.34553 0.0
H714 H 1.03444 0.73323 0.33892 0.0
C715 C 0.09418 0.85049 0.34619 0.0
C716 C 1.04528 0.85041 0.34363 0.0
H717 H 0.15817 0.81224 0.34797 0.0
H718 H 0.11197 0.88276 0.34864 0.0
C719 C 1.02514 0.80664 0.34063 0.0
C720 C 0.39615 0.07989 1.15046 0.0
C721 C 0.39686 1.05084 1.17971 0.0
H722 H 0.4227 0.08859 1.09911 0.0
C723 C 0.3988 1.00353 1.17393 0.0
H724 H 0.39122 0.11638 1.15363 0.0
C725 C 0.41708 0.98773 1.14265 0.0
C726 C 0.4343 1.01989 1.11866 0.0
H727 H 0.39613 0.97961 1.19543 0.0
H728 H 0.42726 0.95213 1.14158 0.0
C729 C 0.41439 0.06385 1.11916 0.0
C730 C 0.7922 0.94569 0.57428 0.0
C731 C 0.82665 0.92437 0.59454 0.0
H732 H 0.77766 0.97298 0.52389 0.0
C733 C 0.87182 0.94081 0.59115 0.0
H734 H 0.75632 0.9371 0.57788 0.0
C735 C 0.8844 0.96147 0.55971 0.0
C736 C 0.85104 0.96656 0.53328 0.0
H737 H 0.89886 0.92776 0.60803 0.0
H738 H 0.92065 0.9641 0.5536 0.0
C739 C 0.80452 0.96645 0.54295 0.0
C740 C 0.91752 0.07115 0.8333 0.0
C741 C 0.93617 1.02665 0.83244 0.0
H742 H 0.89176 0.12492 0.80062 0.0
C743 C 0.91546 0.99548 0.80934 0.0
H744 H 0.92868 0.09518 0.85296 0.0
C745 C 0.89347 1.01241 0.77957 0.0
C746 C 0.8927 0.05984 0.77399 0.0
H747 H 0.92487 0.95965 0.8095 0.0
H748 H 0.88752 0.98899 0.75825 0.0
C749 C 0.89587 0.08824 0.80334 0.0
C750 C 0.82384 0.14173 1.08101 0.0
C751 C 0.86663 0.16403 1.08064 0.0
H752 H 0.77129 0.11518 1.04768 0.0
C753 C 0.89909 0.14866 1.05612 0.0
H754 H 0.79928 0.1489 1.10144 0.0
C755 C 0.88319 0.12917 1.02523 0.0
C756 C 0.83557 0.12435 1.02031 0.0
H757 H 0.93413 0.16103 1.0565 0.0
H758 H 0.90652 0.12774 1.00334 0.0
C759 C 0.80772 0.12225 1.05011 0.0
C760 C 0.17262 0.44495 0.95667 0.0
C761 C 0.209 0.47357 0.96663 0.0
H762 H 0.13546 0.38605 0.97178 0.0
C763 C 0.21126 0.48652 1.00178 0.0
H764 H 0.16652 0.43738 0.92944 0.0
C765 C 0.19193 0.4575 1.0267 0.0
C766 C 0.17266 0.41591 1.01558 0.0
H767 H 0.23618 0.5116 1.01027 0.0
H768 H 0.20115 0.46237 1.05373 0.0
C769 C 0.15492 0.4148 0.98137 0.0
C770 C 0.2948 0.96834 0.40547 0.0
C771 C 0.34105 0.97115 0.41591 0.0
H772 H 0.24915 0.93649 0.36976 0.0
C773 C 0.37502 0.96884 0.38997 0.0
H774 H 0.26734 0.97274 0.42416 0.0
C775 C 0.36437 0.94777 0.35832 0.0
C776 C 0.32037 0.92875 0.35403 0.0
H777 H 0.41089 0.97379 0.39668 0.0
H778 H 0.39248 0.93679 0.34186 0.0
C779 C 0.28432 0.9474 0.37385 0.0
C780 C 0.95095 0.37794 0.71425 0.0
C781 C 0.99899 0.37285 0.71774 0.0
H782 H 0.89237 0.40968 0.73756 0.0
C783 C 1.01654 0.36581 0.7516 0.0
H784 H 0.93512 0.37908 0.68865 0.0
C785 C 0.99129 0.38189 0.77987 0.0
C786 C 0.95018 0.40587 0.7732 0.0
H787 H 1.05247 0.35773 0.75602 0.0
H788 H 1.00921 0.38576 0.80448 0.0
C789 C 0.92607 0.39496 0.74252 0.0
C790 C 0.41145 0.43585 0.28054 0.0
C791 C 0.45307 0.41382 0.27184 0.0
H792 H 0.35929 0.48012 0.25971 0.0
C793 C 0.45492 0.39241 0.23907 0.0
H794 H 0.40583 0.44823 0.30671 0.0
C795 C 0.42642 0.40864 1.2124 0.0
C796 C 0.39827 0.44675 1.21905 0.0
H797 H 0.48365 0.37096 0.2317 0.0
H798 H 0.43511 0.39932 1.18594 0.0
C799 C 0.38402 0.45352 0.2536 0.0
C800 C 0.25791 0.47283 0.34442 0.0
C801 C 0.30425 0.46411 0.35303 0.0
H802 H 0.20696 0.52272 0.32997 0.0
C803 C 0.33585 0.50033 0.35051 0.0
H804 H 0.23251 0.44599 0.34635 0.0
C805 C 0.32118 0.54437 0.34064 0.0
C806 C 0.27445 0.5533 0.33364 0.0
H807 H 0.37187 0.49477 0.35662 0.0
H808 H 0.34609 0.57176 0.33999 0.0
C809 C 0.24322 0.51685 0.33501 0.0
C810 C 0.36853 0.57233 0.61418 0.0
C811 C 0.40669 0.54359 0.60806 0.0
H812 H 0.29518 0.5812 0.61049 0.0
C813 C 0.39915 0.50176 0.59104 0.0
H814 H 0.37312 0.60498 0.6269 0.0
C815 C 0.35462 0.48824 0.58164 0.0
C816 C 0.31639 0.51631 0.58863 0.0
H817 H 0.42752 0.47854 0.58615 0.0
H818 H 0.34993 0.45498 0.56989 0.0
C819 C 0.32392 0.55898 0.60437 0.0
C820 C 0.38871 0.64087 0.84253 0.0
C821 C 0.34325 0.64958 0.85309 0.0
H822 H 0.43788 0.5911 0.82535 0.0
C823 C 0.31108 0.61382 0.85132 0.0
H824 H 0.41447 0.66745 0.84384 0.0
C825 C 0.32443 0.57009 0.84022 0.0
C826 C 0.37036 0.56111 0.83103 0.0
H827 H 0.27567 0.61952 0.8589 0.0
H828 H 0.29926 0.5429 0.84038 0.0
C829 C 0.40212 0.59715 0.8318 0.0
C830 C 0.2538 0.54918 1.09017 0.0
C831 C 0.22248 0.5801 1.10528 0.0
H832 H 0.32103 0.53922 1.06818 0.0
C833 C 0.23435 0.62647 1.10697 0.0
H834 H 0.24571 0.51317 1.08878 0.0
C835 C 0.27692 0.64146 1.09467 0.0
C836 C 0.30921 0.61036 1.08099 0.0
H837 H 0.21076 0.65118 1.11805 0.0
H838 H 0.28519 0.67737 1.0971 0.0
C839 C 0.29686 0.5641 1.07829 0.0
C840 C 0.81975 0.56211 1.10186 0.0
C841 C 0.86554 0.55278 1.11162 0.0
H842 H 0.77097 0.61259 1.084 0.0
C843 C 0.89697 0.58911 1.11258 0.0
H844 H 0.79479 0.5348 1.10053 0.0
C845 C 0.8835 0.63343 1.10306 0.0
C846 C 0.83818 0.64271 1.09206 0.0
H847 H 0.93258 0.58298 1.11966 0.0
H848 H 0.90915 0.66016 1.10313 0.0
C849 C 0.80628 0.60657 1.09198 0.0
C850 C 0.73596 0.61738 0.84911 0.0
C851 C 0.72803 0.57113 0.84128 0.0
H852 H 0.78495 0.66821 0.86418 0.0
C853 C 0.76447 0.53969 0.84562 0.0
H854 H 0.70884 0.64258 0.84581 0.0
C855 C 0.80808 0.55437 0.85654 0.0
C856 C 0.81632 0.6009 0.863 0.0
H857 H 0.75939 0.50374 0.84025 0.0
H858 H 0.83574 0.52952 0.85859 0.0
C859 C 0.77957 0.63208 0.85971 0.0
C860 C 0.83467 0.49895 0.59667 0.0
C861 C 0.80316 0.46283 0.59286 0.0
H862 H 0.84459 0.57 0.60851 0.0
C863 C 0.75664 0.47118 0.60072 0.0
H864 H 0.87084 0.49359 0.5913 0.0
C865 C 0.74174 0.51479 0.61068 0.0
C866 C 0.77289 0.55124 0.61325 0.0
H867 H 0.73132 0.44441 0.59784 0.0
H868 H 0.70538 0.5204 0.61518 0.0
C869 C 0.81974 0.54261 0.60693 0.0
C870 C 0.82775 0.56213 0.35121 0.0
C871 C 0.8195 0.51628 0.3603 0.0
H872 H 0.8765 0.61128 0.33245 0.0
C873 C 0.85666 0.4853 0.35976 0.0
H874 H 0.79984 0.5868 0.351 0.0
C875 C 0.90041 0.49915 0.34899 0.0
C876 C 0.90851 0.54451 0.33844 0.0
H877 H 0.85158 0.44973 0.36657 0.0
H878 H 0.92787 0.474 0.34863 0.0
C879 C 0.87176 0.5761 0.34045 0.0
C880 C 0.76641 0.96664 0.8375 0.0
C881 C 0.80479 0.96137 0.85978 0.0
H882 H 0.72155 1.01329 0.81005 0.0
C883 C 0.82868 1.00084 0.87006 0.0
H884 H 0.74727 0.93708 0.82886 0.0
C885 C 0.81426 1.04426 0.85879 0.0
C886 C 0.77589 1.04942 0.83672 0.0
H887 H 0.85774 0.99836 0.88773 0.0
H888 H 0.83206 0.074 0.86858 0.0
C889 C 0.75197 1.01018 0.82632 0.0
C890 C 0.82724 1.0376 1.11576 0.0
C891 C 0.8194 1.01048 1.08625 0.0
H892 H 0.8769 0.07154 1.1479 0.0
C893 C 0.85677 0.99824 1.06524 0.0
H894 H 0.79896 1.04695 1.13262 0.0
C895 C 0.90141 1.01264 1.07375 0.0
C896 C 0.90966 1.03855 1.10399 0.0
H897 H 0.85159 0.97666 1.0427 0.0
H898 H 0.92973 1.00185 1.05744 0.0
C899 C 0.87189 1.05127 1.12466 0.0
C900 C 0.82419 0.07073 0.33843 0.0
C901 C 0.87074 0.06092 0.33204 0.0
H902 H 0.77431 0.1218 0.3523 0.0
C903 C 0.90252 0.09698 0.33211 0.0
H904 H 0.79896 1.04362 0.33874 0.0
C905 C 0.88854 0.14157 0.3399 0.0
C906 C 0.84242 0.1512 0.34806 0.0
H907 H 0.93867 0.09041 0.32746 0.0
H908 H 0.91433 0.16813 0.34113 0.0
C909 C 0.81021 0.11541 0.34654 0.0
C910 C 0.80982 0.06044 0.60117 0.0
C911 C 0.81608 0.10414 0.58663 0.0
H912 H 0.7629 1.01313 0.62455 0.0
C913 C 0.7778 0.13337 0.58344 0.0
H914 H 0.83884 1.03758 0.60488 0.0
C915 C 0.73423 0.11936 0.59463 0.0
C916 C 0.728 0.07601 0.60992 0.0
H917 H 0.78181 0.16762 0.57308 0.0
H918 H 0.70568 0.14314 0.59236 0.0
C919 C 0.76639 1.0467 0.61292 0.0
C920 C 0.39048 0.14052 0.60608 0.0
C921 C 0.34413 0.15112 0.59908 0.0
H922 H 0.44006 0.08849 0.6182 0.0
C923 C 0.31114 0.11624 0.60241 0.0
H924 H 0.41685 0.16631 0.60344 0.0
C925 C 0.3245 0.07146 0.61117 0.0
C926 C 0.37116 0.06065 0.61645 0.0
H927 H 0.27507 0.1234 0.59757 0.0
H928 H 0.2986 1.04502 0.61223 0.0
C929 C 0.4038 0.09585 0.61455 0.0
C930 C 0.27042 1.04606 0.3308 0.0
C931 C 0.2312 0.07389 0.33505 0.0
H932 H 0.34337 1.03898 0.33794 0.0
C933 C 0.23628 0.11584 0.35249 0.0
H934 H 0.26808 1.01409 0.31679 0.0
C935 C 0.27946 0.12992 0.36469 0.0
C936 C 0.31857 0.10223 0.36018 0.0
H937 H 0.20687 0.13805 0.35653 0.0
H938 H 0.28251 0.16305 0.37698 0.0
C939 C 0.31356 0.06006 0.34322 0.0
C940 C 0.31747 0.05483 1.08014 0.0
C941 C 0.29005 0.06017 1.1099 0.0
H942 H 0.35262 1.00841 1.04622 0.0
C943 C 0.27826 1.02127 1.1293 0.0
H944 H 0.32618 0.08419 1.06425 0.0
C945 C 0.29339 0.97774 1.11903 0.0
C946 C 0.31972 0.97208 1.08858 0.0
H947 H 0.25618 1.02442 1.15184 0.0
H948 H 0.2828 0.94832 1.13413 0.0
C949 C 0.33203 1.01133 1.06955 0.0
C950 C 0.37526 0.06972 0.84321 0.0
C951 C 0.4109 1.03841 0.83564 0.0
H952 H 0.30478 0.07917 0.85863 0.0
C953 C 0.40248 0.99156 0.84078 0.0
H954 H 0.3803 0.10605 0.83944 0.0
C955 C 0.3594 0.97633 0.85189 0.0
C956 C 0.32332 1.00739 0.85816 0.0
H957 H 0.42918 0.96642 0.83605 0.0
H958 H 0.35397 0.93988 0.8546 0.0
C959 C 0.33194 1.05438 0.85432 0.0
C960 C 0.32213 0.14756 0.25429 0.0
C961 C 0.33659 0.19136 0.26577 0.0
H962 H 0.2808 0.10706 1.21899 0.0
C963 C 0.3168 0.22893 0.24762 0.0
H964 H 0.33538 0.11737 0.26736 0.0
C965 C 0.2857 0.22284 1.21887 0.0
C966 C 0.27109 0.17895 1.20754 0.0
H967 H 0.32619 0.26331 0.25508 0.0
H968 H 0.27281 0.25296 1.20548 0.0
C969 C 0.28997 0.14153 0.22639 0.0
C970 C 0.69285 0.49591 0.49171 0.0
C971 C 0.69579 0.51129 0.45676 0.0
H972 H 0.68327 0.51282 0.54611 0.0
C973 C 0.69193 0.55933 0.45194 0.0
H974 H 0.69533 0.45965 0.49721 0.0
C975 C 0.68661 0.59033 0.48038 0.0
C976 C 0.68259 0.57499 0.51526 0.0
H977 H 0.69394 0.57331 0.42583 0.0
H978 H 0.68514 0.62664 0.4749 0.0
C979 C 0.68553 0.52683 0.52005 0.0
C980 C 0.32378 0.95888 0.75509 0.0
C981 C 0.30392 0.91638 0.76464 0.0
H982 H 0.3705 0.99647 0.72179 0.0
C983 C 0.31958 0.87805 0.74557 0.0
H984 H 0.31381 0.98945 0.76904 0.0
C985 C 0.35163 0.88235 0.71752 0.0
C986 C 0.37163 0.92484 0.708 0.0
H987 H 0.30613 0.84455 0.75174 0.0
H988 H 0.36086 0.85192 0.70313 0.0
C989 C 0.35715 0.96291 0.72794 0.0
C990 C 0.95127 0.61374 0.99312 0.0
C991 C 0.94475 0.59856 0.95844 0.0
H992 H 0.96301 0.59605 1.04741 0.0
C993 C 0.94432 0.55029 0.95414 0.0
H994 H 0.95231 0.65007 0.99829 0.0
C995 C 0.94931 0.51903 0.98259 0.0
C996 C 0.95705 0.53396 1.01709 0.0
H997 H 0.93953 0.53628 0.92831 0.0
H998 H 0.9477 0.48272 0.97735 0.0
C999 C 0.95796 0.58228 1.02155 0.0
C1000 C 0.85103 0.96618 1.224 0.0
C1001 C 0.87229 0.92794 0.24028 0.0
H1002 H 0.80227 0.99206 1.18586 0.0
C1003 C 0.85883 0.88464 0.22715 0.0
H1004 H 0.85915 1.0002 0.2331 0.0
C1005 C 0.82686 0.87992 1.19885 0.0
C1006 C 0.8046 0.91815 1.18327 0.0
H1007 H 0.87342 0.85397 0.2387 0.0
H1008 H 0.81879 0.84594 1.18965 0.0
C1009 C 0.81762 0.96137 1.19677 0.0
C1010 C 0.41024 0.59608 0.96595 0.0
C1011 C 0.44877 0.6123 0.98486 0.0
H1012 H 0.38358 0.55139 0.92587 0.0
C1013 C 0.49204 0.59443 0.97403 0.0
H1014 H 0.37611 0.60752 0.97317 0.0
C1015 C 0.4966 0.56265 0.94586 0.0
C1016 C 0.45789 0.54518 0.92787 0.0
H1017 H 0.5229 0.60488 0.98768 0.0
H1018 H 0.53062 0.55054 0.93899 0.0
C1019 C 0.41464 0.56305 0.93869 0.0
C1020 C 0.78816 0.22736 0.7297 0.0
C1021 C 0.76832 0.18469 0.73922 0.0
H1022 H 0.83276 0.26581 0.69506 0.0
C1023 C 0.78167 0.14718 0.71824 0.0
H1024 H 0.77988 0.25743 0.74483 0.0
C1025 C 0.81366 0.15184 0.69019 0.0
C1026 C 0.83336 0.19448 0.68058 0.0
H1027 H 0.76856 0.11349 0.72423 0.0
H1028 H 0.82296 0.1215 0.67571 0.0
C1029 C 0.81899 0.23231 0.70082 0.0
C1030 C 0.19114 0.56111 0.49615 0.0
C1031 C 0.19685 0.51326 0.49147 0.0
H1032 H 0.18342 0.62849 0.4729 0.0
C1033 C 0.19647 0.4983 0.45641 0.0
H1034 H 0.19135 0.57484 0.5223 0.0
C1035 C 0.18974 0.52929 0.42782 0.0
C1036 C 0.18493 0.57726 0.43248 0.0
H1037 H 0.20064 0.46223 0.45096 0.0
H1038 H 0.18947 0.51553 0.4017 0.0
C1039 C 0.18643 0.5923 0.4675 0.0
C1040 C 0.78415 0.72466 0.72118 0.0
C1041 C 0.76629 0.6816 0.71071 0.0
H1042 H 0.82821 0.76326 0.75611 0.0
C1043 C 0.78285 0.6435 0.73001 0.0
H1044 H 0.77334 0.7552 0.70728 0.0
C1045 C 0.81617 0.6481 0.75736 0.0
C1046 C 0.83395 0.69113 0.76783 0.0
H1047 H 0.77129 0.60957 0.72314 0.0
H1048 H 0.82798 0.61743 0.77062 0.0
C1049 C 0.81622 0.72942 0.74941 0.0
C1050 C 0.23481 1.01811 0.97628 0.0
C1051 C 0.19573 1.00101 0.95856 0.0
H1052 H 0.26259 0.06334 1.01541 0.0
C1053 C 0.15267 1.01798 0.97062 0.0
H1054 H 0.26877 1.0073 0.96814 0.0
C1055 C 0.14891 1.04957 0.99902 0.0
C1056 C 0.18816 0.06779 1.01593 0.0
H1057 H 0.12137 1.00673 0.95796 0.0
H1058 H 0.11503 0.06074 1.00704 0.0
C1059 C 0.23114 1.05103 1.00363 0.0
C1060 C 0.85942 0.46503 0.23123 0.0
C1061 C 0.87274 0.42669 1.21124 0.0
H1062 H 0.81706 0.49264 0.27231 0.0
C1063 C 0.85217 0.38452 1.2211 0.0
H1064 H 0.87334 0.4983 1.22494 0.0
C1065 C 0.82025 0.38093 0.24933 0.0
C1066 C 0.80566 0.41969 0.26834 0.0
H1067 H 0.86064 0.35387 1.20672 0.0
H1068 H 0.80583 0.34783 0.25547 0.0
C1069 C 0.8264 0.46171 0.25856 0.0
C1070 C 0.41681 0.05889 0.50516 0.0
C1071 C 0.46021 1.04339 0.5179 0.0
H1072 H 0.37815 0.10122 0.46881 0.0
C1073 C 0.49901 0.06254 0.50122 0.0
H1074 H 0.38569 1.04593 0.51695 0.0
C1075 C 0.4945 0.09389 0.47256 0.0
C1076 C 0.45104 0.10959 0.45999 0.0
H1077 H 0.53314 1.05227 0.50964 0.0
H1078 H 0.52551 0.10594 0.46007 0.0
C1079 C 0.41235 0.09147 0.47744 0.0
C1080 C 0.32184 0.41818 0.74384 0.0
C1081 C 0.36994 0.42398 0.73912 0.0
H1082 H 0.25399 0.41099 0.72114 0.0
C1083 C 0.38477 0.42417 0.70395 0.0
H1084 H 0.30799 0.41802 0.76997 0.0
C1085 C 0.35318 0.4181 0.6754 0.0
C1086 C 0.30495 0.41298 0.68041 0.0
H1087 H 0.42097 0.42848 0.69839 0.0
H1088 H 0.36652 0.4189 0.64912 0.0
C1089 C 0.29033 0.41384 0.71546 0.0
C1090 C 0.95165 0.0575 0.49376 0.0
C1091 C 0.9513 0.10583 0.48997 0.0
H1092 H 0.95572 0.99073 0.46985 0.0
C1093 C 0.95755 0.12206 0.45543 0.0
H1094 H 0.94691 1.0427 0.51939 0.0
C1095 C 0.96462 0.09153 0.42663 0.0
C1096 C 0.96448 1.04311 0.4306 0.0
H1097 H 0.95783 0.15855 0.45064 0.0
H1098 H 0.96906 0.10606 0.4009 0.0
C1099 C 0.95706 1.02719 0.46498 0.0
C1100 C 0.28408 0.72579 1.22483 0.0
C1101 C 0.267 0.6828 0.23632 0.0
H1102 H 0.32695 0.764 1.18888 0.0
C1103 C 0.28398 0.64439 1.21794 0.0
H1104 H 0.27293 0.75657 0.23797 0.0
C1105 C 0.31692 0.64865 1.19049 0.0
C1106 C 0.33386 0.69163 1.17891 0.0
H1107 H 0.27304 0.6105 1.22561 0.0
H1108 H 0.32899 0.61774 1.17797 0.0
C1109 C 0.3157 0.73018 1.19644 0.0
C1110 C 0.73247 1.01723 0.97138 0.0
C1111 C 0.69387 0.99752 0.98794 0.0
H1112 H 0.75877 0.06426 0.93274 0.0
C1113 C 0.65032 1.01195 0.97473 0.0
H1114 H 0.76671 1.00851 0.98056 0.0
C1115 C 0.64564 1.04358 0.94628 0.0
C1116 C 0.68425 0.06429 0.93045 0.0
H1117 H 0.61936 0.99867 0.98655 0.0
H1118 H 0.61144 1.0528 0.93733 0.0
C1119 C 0.72776 1.05007 0.94385 0.0
loop_
_geom_bond_atom_site_label_1
_geom_bond_atom_site_label_2
_geom_bond_distance
_geom_bond_site_symmetry_2
_ccdc_geom_bond_type
La0 C2 2.928 . S
La0 O20 2.521 . S
La0 O21 2.628 . S
La0 O22 2.554 . S
La0 O23 2.757 . S
La0 O24 2.470 . S
La0 O29 2.482 . S
La0 O31 2.503 . S
La1 C11 2.928 . S
La1 O23 2.482 . S
La1 O25 2.503 . S
La1 O26 2.521 . S
La1 O27 2.628 . S
La1 O28 2.554 . S
La1 O29 2.757 . S
La1 O30 2.470 . S
C2 La0 2.928 . S
C2 C3 1.503 . S
C2 O20 1.261 . S
C2 O21 1.243 . S
C3 C2 1.503 . S
C3 C4 1.394 . S
C3 C8 1.373 . S
C4 C3 1.394 . S
C4 C5 1.380 . S
C4 H32 0.930 . S
C5 C4 1.380 . S
C5 C6 1.376 . S
C5 H33 0.930 . S
C6 C5 1.376 . S
C6 C7 1.370 . S
C7 C6 1.370 . S
C7 C8 1.396 . S
C7 H34 0.929 . S
C8 C3 1.373 . S
C8 C7 1.396 . S
C8 H35 0.929 . S
C9 O22 1.240 . S
C9 O23 1.289 . S
C10 O24 1.258 . S
C10 O25 1.256 . S
C11 La1 2.928 . S
C11 C12 1.503 . S
C11 O26 1.261 . S
C11 O27 1.243 . S
C12 C11 1.503 . S
C12 C13 1.394 1_545 S
C12 C17 1.373 . S
C13 C12 1.394 1_565 S
C13 C14 1.380 . S
C13 H36 0.930 . S
C14 C13 1.380 . S
C14 C15 1.376 . S
C14 H37 0.930 . S
C15 C14 1.376 . S
C15 C16 1.370 1_565 S
C16 C15 1.370 1_545 S
C16 C17 1.396 . S
C16 H38 0.929 1_554 S
C17 C12 1.373 . S
C17 C16 1.396 . S
C17 H39 0.929 . S
C18 O28 1.240 . S
C18 O29 1.289 . S
C19 O30 1.258 . S
C19 O31 1.256 . S
O20 La0 2.521 . S
O20 C2 1.261 . S
O21 La0 2.628 . S
O21 C2 1.243 . S
O22 La0 2.554 . S
O22 C9 1.240 . S
O23 La0 2.757 . S
O23 La1 2.482 . S
O23 C9 1.289 . S
O24 La0 2.470 . S
O24 C10 1.258 . S
O25 La1 2.503 . S
O25 C10 1.256 . S
O26 La1 2.521 . S
O26 C11 1.261 . S
O27 La1 2.628 . S
O27 C11 1.243 . S
O28 La1 2.554 . S
O28 C18 1.240 . S
O29 La0 2.482 . S
O29 La1 2.757 . S
O29 C18 1.289 . S
O30 La1 2.470 . S
O30 C19 1.258 . S
O31 La0 2.503 . S
O31 C19 1.256 . S
H32 C4 0.930 . S
H33 C5 0.930 . S
H34 C7 0.929 . S
H35 C8 0.929 . S
H36 C13 0.930 . S
H37 C14 0.930 . S
H38 C16 0.929 1_556 S
H39 C17 0.929 . S
La40 C42 2.928 . S
La40 O60 2.521 . S
La40 O61 2.628 . S
La40 O62 2.554 . S
La40 O63 2.757 . S
La40 O64 2.470 . S
La40 O69 2.482 . S
La40 O71 2.503 . S
La41 C51 2.928 . S
La41 O63 2.482 . S
La41 O65 2.503 . S
La41 O66 2.521 . S
La41 O67 2.628 . S
La41 O68 2.554 . S
La41 O69 2.757 . S
La41 O70 2.470 . S
C42 La40 2.928 . S
C42 C43 1.503 . S
C42 O60 1.261 . S
C42 O61 1.243 . S
C43 C42 1.503 . S
C43 C44 1.394 . S
C43 C48 1.373 . S
C44 C43 1.394 . S
C44 C45 1.380 . S
C44 H72 0.930 . S
C45 C44 1.380 . S
C45 C46 1.376 . S
C45 H73 0.930 . S
C46 C45 1.376 . S
C46 C47 1.370 . S
C47 C46 1.370 . S
C47 C48 1.396 . S
C47 H74 0.929 . S
C48 C43 1.373 . S
C48 C47 1.396 . S
C48 H75 0.929 . S
C49 O62 1.240 . S
C49 O63 1.289 . S
C50 O64 1.258 . S
C50 O65 1.256 . S
C51 La41 2.928 . S
C51 C52 1.503 . S
C51 O66 1.261 . S
C51 O67 1.243 . S
C52 C51 1.503 . S
C52 C53 1.394 . S
C52 C57 1.373 . S
C53 C52 1.394 . S
C53 C54 1.380 . S
C53 H76 0.930 . S
C54 C53 1.380 . S
C54 C55 1.376 . S
C54 H77 0.930 . S
C55 C54 1.376 . S
C55 C56 1.370 . S
C56 C55 1.370 . S
C56 C57 1.396 . S
C56 H78 0.929 . S
C57 C52 1.373 . S
C57 C56 1.396 . S
C57 H79 0.929 . S
C58 O68 1.240 . S
C58 O69 1.289 . S
C59 O70 1.258 . S
C59 O71 1.256 . S
O60 La40 2.521 . S
O60 C42 1.261 . S
O61 La40 2.628 . S
O61 C42 1.243 . S
O62 La40 2.554 . S
O62 C49 1.240 . S
O63 La40 2.757 . S
O63 La41 2.482 . S
O63 C49 1.289 . S
O64 La40 2.470 . S
O64 C50 1.258 . S
O65 La41 2.503 . S
O65 C50 1.256 . S
O66 La41 2.521 . S
O66 C51 1.261 . S
O67 La41 2.628 . S
O67 C51 1.243 . S
O68 La41 2.554 . S
O68 C58 1.240 . S
O69 La40 2.482 . S
O69 La41 2.757 . S
O69 C58 1.289 . S
O70 La41 2.470 . S
O70 C59 1.258 . S
O71 La40 2.503 . S
O71 C59 1.256 . S
H72 C44 0.930 . S
H73 C45 0.930 . S
H74 C47 0.929 . S
H75 C48 0.929 . S
H76 C53 0.930 . S
H77 C54 0.930 . S
H78 C56 0.929 . S
H79 C57 0.929 . S
La80 C82 2.928 . S
La80 O100 2.521 . S
La80 O101 2.628 . S
La80 O102 2.554 . S
La80 O103 2.757 . S
La80 O104 2.470 . S
La80 O109 2.482 . S
La80 O111 2.503 . S
La81 C91 2.928 . S
La81 O103 2.482 . S
La81 O105 2.503 . S
La81 O106 2.521 . S
La81 O107 2.628 . S
La81 O108 2.554 . S
La81 O109 2.757 . S
La81 O110 2.470 . S
C82 La80 2.928 . S
C82 C83 1.503 . S
C82 O100 1.261 . S
C82 O101 1.243 . S
C83 C82 1.503 . S
C83 C84 1.394 . S
C83 C88 1.373 . S
C84 C83 1.394 . S
C84 C85 1.380 . S
C84 H112 0.930 . S
C85 C84 1.380 . S
C85 C86 1.376 . S
C85 H113 0.930 . S
C86 C85 1.376 . S
C86 C87 1.370 . S
C87 C86 1.370 . S
C87 C88 1.396 . S
C87 H114 0.929 . S
C88 C83 1.373 . S
C88 C87 1.396 . S
C88 H115 0.929 . S
C89 O102 1.240 . S
C89 O103 1.289 . S
C90 O104 1.258 . S
C90 O105 1.256 . S
C91 La81 2.928 . S
C91 C92 1.503 . S
C91 O106 1.261 . S
C91 O107 1.243 . S
C92 C91 1.503 . S
C92 C93 1.394 1_565 S
C92 C97 1.373 . S
C93 C92 1.394 1_545 S
C93 C94 1.380 . S
C93 H116 0.930 . S
C94 C93 1.380 . S
C94 C95 1.376 . S
C94 H117 0.930 . S
C95 C94 1.376 . S
C95 C96 1.370 1_545 S
C96 C95 1.370 1_565 S
C96 C97 1.396 . S
C96 H118 0.929 . S
C97 C92 1.373 . S
C97 C96 1.396 . S
C97 H119 0.929 . S
C98 O108 1.240 . S
C98 O109 1.289 . S
C99 O110 1.258 . S
C99 O111 1.256 . S
O100 La80 2.521 . S
O100 C82 1.261 . S
O101 La80 2.628 . S
O101 C82 1.243 . S
O102 La80 2.554 . S
O102 C89 1.240 . S
O103 La80 2.757 . S
O103 La81 2.482 . S
O103 C89 1.289 . S
O104 La80 2.470 . S
O104 C90 1.258 . S
O105 La81 2.503 . S
O105 C90 1.256 . S
O106 La81 2.521 . S
O106 C91 1.261 . S
O107 La81 2.628 . S
O107 C91 1.243 . S
O108 La81 2.554 . S
O108 C98 1.240 . S
O109 La80 2.482 . S
O109 La81 2.757 . S
O109 C98 1.289 . S
O110 La81 2.470 . S
O110 C99 1.258 . S
O111 La80 2.503 . S
O111 C99 1.256 . S
H112 C84 0.930 . S
H113 C85 0.930 . S
H114 C87 0.929 . S
H115 C88 0.929 . S
H116 C93 0.930 . S
H117 C94 0.930 . S
H118 C96 0.929 . S
H119 C97 0.929 . S
La120 C122 2.928 1_655 S
La120 O140 2.521 1_655 S
La120 O141 2.628 . S
La120 O142 2.554 . S
La120 O143 2.757 . S
La120 O144 2.470 . S
La120 O149 2.482 . S
La120 O151 2.503 . S
La121 C131 2.928 . S
La121 O143 2.482 . S
La121 O145 2.503 . S
La121 O146 2.521 . S
La121 O147 2.628 . S
La121 O148 2.554 . S
La121 O149 2.757 . S
La121 O150 2.470 . S
C122 La120 2.928 1_455 S
C122 C123 1.503 . S
C122 O140 1.261 . S
C122 O141 1.243 1_455 S
C123 C122 1.503 . S
C123 C124 1.394 . S
C123 C128 1.373 . S
C124 C123 1.394 . S
C124 C125 1.380 . S
C124 H152 0.930 . S
C125 C124 1.380 . S
C125 C126 1.376 . S
C125 H153 0.930 . S
C126 C125 1.376 . S
C126 C127 1.370 . S
C127 C126 1.370 . S
C127 C128 1.396 . S
C127 H154 0.929 . S
C128 C123 1.373 . S
C128 C127 1.396 . S
C128 H155 0.929 1_455 S
C129 O142 1.240 . S
C129 O143 1.289 . S
C130 O144 1.258 . S
C130 O145 1.256 . S
C131 La121 2.928 . S
C131 C132 1.503 . S
C131 O146 1.261 . S
C131 O147 1.243 . S
C132 C131 1.503 . S
C132 C133 1.394 . S
C132 C137 1.373 . S
C133 C132 1.394 . S
C133 C134 1.380 . S
C133 H156 0.930 . S
C134 C133 1.380 . S
C134 C135 1.376 . S
C134 H157 0.930 . S
C135 C134 1.376 . S
C135 C136 1.370 . S
C136 C135 1.370 . S
C136 C137 1.396 . S
C136 H158 0.929 . S
C137 C132 1.373 . S
C137 C136 1.396 . S
C137 H159 0.929 . S
C138 O148 1.240 . S
C138 O149 1.289 . S
C139 O150 1.258 . S
C139 O151 1.256 . S
O140 La120 2.521 1_455 S
O140 C122 1.261 . S
O141 La120 2.628 . S
O141 C122 1.243 1_655 S
O142 La120 2.554 . S
O142 C129 1.240 . S
O143 La120 2.757 . S
O143 La121 2.482 . S
O143 C129 1.289 . S
O144 La120 2.470 . S
O144 C130 1.258 . S
O145 La121 2.503 . S
O145 C130 1.256 . S
O146 La121 2.521 . S
O146 C131 1.261 . S
O147 La121 2.628 . S
O147 C131 1.243 . S
O148 La121 2.554 . S
O148 C138 1.240 . S
O149 La120 2.482 . S
O149 La121 2.757 . S
O149 C138 1.289 . S
O150 La121 2.470 . S
O150 C139 1.258 . S
O151 La120 2.503 . S
O151 C139 1.256 . S
H152 C124 0.930 . S
H153 C125 0.930 . S
H154 C127 0.929 . S
H155 C128 0.929 1_655 S
H156 C133 0.930 . S
H157 C134 0.930 . S
H158 C136 0.929 . S
H159 C137 0.929 . S
La160 C162 2.928 . S
La160 O180 2.521 . S
La160 O181 2.628 . S
La160 O182 2.554 . S
La160 O183 2.757 . S
La160 O184 2.470 . S
La160 O189 2.482 . S
La160 O191 2.503 . S
La161 C171 2.928 . S
La161 O183 2.482 . S
La161 O185 2.503 . S
La161 O186 2.521 . S
La161 O187 2.628 . S
La161 O188 2.554 . S
La161 O189 2.757 . S
La161 O190 2.470 . S
C162 La160 2.928 . S
C162 C163 1.503 . S
C162 O180 1.261 . S
C162 O181 1.243 . S
C163 C162 1.503 . S
C163 C164 1.394 1_565 S
C163 C168 1.373 . S
C164 C163 1.394 1_545 S
C164 C165 1.380 . S
C164 H192 0.930 . S
C165 C164 1.380 . S
C165 C166 1.376 . S
C165 H193 0.930 . S
C166 C165 1.376 . S
C166 C167 1.370 1_545 S
C167 C166 1.370 1_565 S
C167 C168 1.396 . S
C167 H194 0.929 1_556 S
C168 C163 1.373 . S
C168 C167 1.396 . S
C168 H195 0.929 . S
C169 O182 1.240 . S
C169 O183 1.289 . S
C170 O184 1.258 . S
C170 O185 1.256 . S
C171 La161 2.928 . S
C171 C172 1.503 . S
C171 O186 1.261 . S
C171 O187 1.243 . S
C172 C171 1.503 . S
C172 C173 1.394 . S
C172 C177 1.373 . S
C173 C172 1.394 . S
C173 C174 1.380 . S
C173 H196 0.930 . S
C174 C173 1.380 . S
C174 C175 1.376 . S
C174 H197 0.930 . S
C175 C174 1.376 . S
C175 C176 1.370 . S
C176 C175 1.370 . S
C176 C177 1.396 . S
C176 H198 0.929 . S
C177 C172 1.373 . S
C177 C176 1.396 . S
C177 H199 0.929 . S
C178 O188 1.240 . S
C178 O189 1.289 . S
C179 O190 1.258 . S
C179 O191 1.256 . S
O180 La160 2.521 . S
O180 C162 1.261 . S
O181 La160 2.628 . S
O181 C162 1.243 . S
O182 La160 2.554 . S
O182 C169 1.240 . S
O183 La160 2.757 . S
O183 La161 2.482 . S
O183 C169 1.289 . S
O184 La160 2.470 . S
O184 C170 1.258 . S
O185 La161 2.503 . S
O185 C170 1.256 . S
O186 La161 2.521 . S
O186 C171 1.261 . S
O187 La161 2.628 . S
O187 C171 1.243 . S
O188 La161 2.554 . S
O188 C178 1.240 . S
O189 La160 2.482 . S
O189 La161 2.757 . S
O189 C178 1.289 . S
O190 La161 2.470 . S
O190 C179 1.258 . S
O191 La160 2.503 . S
O191 C179 1.256 . S
H192 C164 0.930 . S
H193 C165 0.930 . S
H194 C167 0.929 1_554 S
H195 C168 0.929 . S
H196 C173 0.930 . S
H197 C174 0.930 . S
H198 C176 0.929 . S
H199 C177 0.929 . S
La200 C202 2.928 . S
La200 O220 2.521 . S
La200 O221 2.628 . S
La200 O222 2.554 . S
La200 O223 2.757 . S
La200 O224 2.470 . S
La200 O229 2.482 . S
La200 O231 2.503 . S
La201 C211 2.928 . S
La201 O223 2.482 . S
La201 O225 2.503 . S
La201 O226 2.521 . S
La201 O227 2.628 . S
La201 O228 2.554 . S
La201 O229 2.757 . S
La201 O230 2.470 . S
C202 La200 2.928 . S
C202 C203 1.503 . S
C202 O220 1.261 . S
C202 O221 1.243 . S
C203 C202 1.503 . S
C203 C204 1.394 . S
C203 C208 1.373 . S
C204 C203 1.394 . S
C204 C205 1.380 . S
C204 H232 0.930 . S
C205 C204 1.380 . S
C205 C206 1.376 . S
C205 H233 0.930 . S
C206 C205 1.376 . S
C206 C207 1.370 . S
C207 C206 1.370 . S
C207 C208 1.396 . S
C207 H234 0.929 . S
C208 C203 1.373 . S
C208 C207 1.396 . S
C208 H235 0.929 . S
C209 O222 1.240 . S
C209 O223 1.289 . S
C210 O224 1.258 . S
C210 O225 1.256 . S
C211 La201 2.928 . S
C211 C212 1.503 . S
C211 O226 1.261 . S
C211 O227 1.243 . S
C212 C211 1.503 . S
C212 C213 1.394 . S
C212 C217 1.373 . S
C213 C212 1.394 . S
C213 C214 1.380 . S
C213 H236 0.930 . S
C214 C213 1.380 . S
C214 C215 1.376 . S
C214 H237 0.930 . S
C215 C214 1.376 . S
C215 C216 1.370 . S
C216 C215 1.370 . S
C216 C217 1.396 . S
C216 H238 0.929 . S
C217 C212 1.373 . S
C217 C216 1.396 . S
C217 H239 0.929 . S
C218 O228 1.240 . S
C218 O229 1.289 . S
C219 O230 1.258 . S
C219 O231 1.256 . S
O220 La200 2.521 . S
O220 C202 1.261 . S
O221 La200 2.628 . S
O221 C202 1.243 . S
O222 La200 2.554 . S
O222 C209 1.240 . S
O223 La200 2.757 . S
O223 La201 2.482 . S
O223 C209 1.289 . S
O224 La200 2.470 . S
O224 C210 1.258 . S
O225 La201 2.503 . S
O225 C210 1.256 . S
O226 La201 2.521 . S
O226 C211 1.261 . S
O227 La201 2.628 . S
O227 C211 1.243 . S
O228 La201 2.554 . S
O228 C218 1.240 . S
O229 La200 2.482 . S
O229 La201 2.757 . S
O229 C218 1.289 . S
O230 La201 2.470 . S
O230 C219 1.258 . S
O231 La200 2.503 . S
O231 C219 1.256 . S
H232 C204 0.930 . S
H233 C205 0.930 . S
H234 C207 0.929 . S
H235 C208 0.929 . S
H236 C213 0.930 . S
H237 C214 0.930 . S
H238 C216 0.929 . S
H239 C217 0.929 . S
La240 C242 2.928 . S
La240 O260 2.521 . S
La240 O261 2.628 . S
La240 O262 2.554 . S
La240 O263 2.757 . S
La240 O264 2.470 . S
La240 O269 2.482 . S
La240 O271 2.503 . S
La241 C251 2.928 . S
La241 O263 2.482 . S
La241 O265 2.503 . S
La241 O266 2.521 . S
La241 O267 2.628 . S
La241 O268 2.554 . S
La241 O269 2.757 . S
La241 O270 2.470 . S
C242 La240 2.928 . S
C242 C243 1.503 . S
C242 O260 1.261 . S
C242 O261 1.243 . S
C243 C242 1.503 . S
C243 C244 1.394 1_545 S
C243 C248 1.373 . S
C244 C243 1.394 1_565 S
C244 C245 1.380 . S
C244 H272 0.930 . S
C245 C244 1.380 . S
C245 C246 1.376 . S
C245 H273 0.930 . S
C246 C245 1.376 . S
C246 C247 1.370 1_565 S
C247 C246 1.370 1_545 S
C247 C248 1.396 . S
C247 H274 0.929 . S
C248 C243 1.373 . S
C248 C247 1.396 . S
C248 H275 0.929 . S
C249 O262 1.240 . S
C249 O263 1.289 . S
C250 O264 1.258 . S
C250 O265 1.256 . S
C251 La241 2.928 . S
C251 C252 1.503 . S
C251 O266 1.261 . S
C251 O267 1.243 . S
C252 C251 1.503 . S
C252 C253 1.394 . S
C252 C257 1.373 . S
C253 C252 1.394 . S
C253 C254 1.380 . S
C253 H276 0.930 . S
C254 C253 1.380 . S
C254 C255 1.376 . S
C254 H277 0.930 . S
C255 C254 1.376 . S
C255 C256 1.370 . S
C256 C255 1.370 . S
C256 C257 1.396 . S
C256 H278 0.929 . S
C257 C252 1.373 . S
C257 C256 1.396 . S
C257 H279 0.929 . S
C258 O268 1.240 . S
C258 O269 1.289 . S
C259 O270 1.258 . S
C259 O271 1.256 . S
O260 La240 2.521 . S
O260 C242 1.261 . S
O261 La240 2.628 . S
O261 C242 1.243 . S
O262 La240 2.554 . S
O262 C249 1.240 . S
O263 La240 2.757 . S
O263 La241 2.482 . S
O263 C249 1.289 . S
O264 La240 2.470 . S
O264 C250 1.258 . S
O265 La241 2.503 . S
O265 C250 1.256 . S
O266 La241 2.521 . S
O266 C251 1.261 . S
O267 La241 2.628 . S
O267 C251 1.243 . S
O268 La241 2.554 . S
O268 C258 1.240 . S
O269 La240 2.482 . S
O269 La241 2.757 . S
O269 C258 1.289 . S
O270 La241 2.470 . S
O270 C259 1.258 . S
O271 La240 2.503 . S
O271 C259 1.256 . S
H272 C244 0.930 . S
H273 C245 0.930 . S
H274 C247 0.929 . S
H275 C248 0.929 . S
H276 C253 0.930 . S
H277 C254 0.930 . S
H278 C256 0.929 . S
H279 C257 0.929 . S
La280 C282 2.928 . S
La280 O300 2.521 . S
La280 O301 2.628 . S
La280 O302 2.554 . S
La280 O303 2.757 . S
La280 O304 2.470 . S
La280 O309 2.482 . S
La280 O311 2.503 . S
La281 C291 2.928 1_455 S
La281 O303 2.482 . S
La281 O305 2.503 . S
La281 O306 2.521 1_455 S
La281 O307 2.628 . S
La281 O308 2.554 . S
La281 O309 2.757 . S
La281 O310 2.470 . S
C282 La280 2.928 . S
C282 C283 1.503 . S
C282 O300 1.261 . S
C282 O301 1.243 . S
C283 C282 1.503 . S
C283 C284 1.394 . S
C283 C288 1.373 . S
C284 C283 1.394 . S
C284 C285 1.380 . S
C284 H312 0.930 . S
C285 C284 1.380 . S
C285 C286 1.376 . S
C285 H313 0.930 . S
C286 C285 1.376 . S
C286 C287 1.370 . S
C287 C286 1.370 . S
C287 C288 1.396 . S
C287 H314 0.929 . S
C288 C283 1.373 . S
C288 C287 1.396 . S
C288 H315 0.929 . S
C289 O302 1.240 . S
C289 O303 1.289 . S
C290 O304 1.258 . S
C290 O305 1.256 . S
C291 La281 2.928 1_655 S
C291 C292 1.503 . S
C291 O306 1.261 . S
C291 O307 1.243 1_655 S
C292 C291 1.503 . S
C292 C293 1.394 . S
C292 C297 1.373 . S
C293 C292 1.394 . S
C293 C294 1.380 . S
C293 H316 0.930 . S
C294 C293 1.380 . S
C294 C295 1.376 . S
C294 H317 0.930 . S
C295 C294 1.376 . S
C295 C296 1.370 . S
C296 C295 1.370 . S
C296 C297 1.396 . S
C296 H318 0.929 . S
C297 C292 1.373 . S
C297 C296 1.396 . S
C297 H319 0.929 1_655 S
C298 O308 1.240 . S
C298 O309 1.289 . S
C299 O310 1.258 . S
C299 O311 1.256 . S
O300 La280 2.521 . S
O300 C282 1.261 . S
O301 La280 2.628 . S
O301 C282 1.243 . S
O302 La280 2.554 . S
O302 C289 1.240 . S
O303 La280 2.757 . S
O303 La281 2.482 . S
O303 C289 1.289 . S
O304 La280 2.470 . S
O304 C290 1.258 . S
O305 La281 2.503 . S
O305 C290 1.256 . S
O306 La281 2.521 1_655 S
O306 C291 1.261 . S
O307 La281 2.628 . S
O307 C291 1.243 1_455 S
O308 La281 2.554 . S
O308 C298 1.240 . S
O309 La280 2.482 . S
O309 La281 2.757 . S
O309 C298 1.289 . S
O310 La281 2.470 . S
O310 C299 1.258 . S
O311 La280 2.503 . S
O311 C299 1.256 . S
H312 C284 0.930 . S
H313 C285 0.930 . S
H314 C287 0.929 . S
H315 C288 0.929 . S
H316 C293 0.930 . S
H317 C294 0.930 . S
H318 C296 0.929 . S
H319 C297 0.929 1_455 S
La320 C322 2.928 . S
La320 O340 2.521 . S
La320 O341 2.628 . S
La320 O342 2.554 . S
La320 O343 2.757 . S
La320 O344 2.470 . S
La320 O349 2.482 . S
La320 O351 2.503 . S
La321 C331 2.928 . S
La321 O343 2.482 . S
La321 O345 2.503 . S
La321 O346 2.521 . S
La321 O347 2.628 . S
La321 O348 2.554 . S
La321 O349 2.757 . S
La321 O350 2.470 . S
C322 La320 2.928 . S
C322 C323 1.503 . S
C322 O340 1.261 . S
C322 O341 1.243 . S
C323 C322 1.503 . S
C323 C324 1.394 . S
C323 C328 1.373 . S
C324 C323 1.394 . S
C324 C325 1.380 . S
C324 H352 0.930 . S
C325 C324 1.380 . S
C325 C326 1.376 . S
C325 H353 0.930 . S
C326 C325 1.376 . S
C326 C327 1.370 . S
C327 C326 1.370 . S
C327 C328 1.396 . S
C327 H354 0.929 . S
C328 C323 1.373 . S
C328 C327 1.396 . S
C328 H355 0.929 . S
C329 O342 1.240 . S
C329 O343 1.289 . S
C330 O344 1.258 . S
C330 O345 1.256 . S
C331 La321 2.928 . S
C331 C332 1.503 . S
C331 O346 1.261 . S
C331 O347 1.243 . S
C332 C331 1.503 . S
C332 C333 1.394 . S
C332 C337 1.373 . S
C333 C332 1.394 . S
C333 C334 1.380 . S
C333 H356 0.930 . S
C334 C333 1.380 . S
C334 C335 1.376 . S
C334 H357 0.930 . S
C335 C334 1.376 . S
C335 C336 1.370 . S
C336 C335 1.370 . S
C336 C337 1.396 . S
C336 H358 0.929 . S
C337 C332 1.373 . S
C337 C336 1.396 . S
C337 H359 0.929 . S
C338 O348 1.240 . S
C338 O349 1.289 . S
C339 O350 1.258 . S
C339 O351 1.256 . S
O340 La320 2.521 . S
O340 C322 1.261 . S
O341 La320 2.628 . S
O341 C322 1.243 . S
O342 La320 2.554 . S
O342 C329 1.240 . S
O343 La320 2.757 . S
O343 La321 2.482 . S
O343 C329 1.289 . S
O344 La320 2.470 . S
O344 C330 1.258 . S
O345 La321 2.503 . S
O345 C330 1.256 . S
O346 La321 2.521 . S
O346 C331 1.261 . S
O347 La321 2.628 . S
O347 C331 1.243 . S
O348 La321 2.554 . S
O348 C338 1.240 . S
O349 La320 2.482 . S
O349 La321 2.757 . S
O349 C338 1.289 . S
O350 La321 2.470 . S
O350 C339 1.258 . S
O351 La320 2.503 . S
O351 C339 1.256 . S
H352 C324 0.930 . S
H353 C325 0.930 . S
H354 C327 0.929 . S
H355 C328 0.929 . S
H356 C333 0.930 . S
H357 C334 0.930 . S
H358 C336 0.929 . S
H359 C337 0.929 . S
La360 C362 2.928 1_445 S
La360 O380 2.521 1_455 S
La360 O381 2.628 1_545 S
La360 O382 2.554 . S
La360 O383 2.757 . S
La360 O384 2.470 . S
La360 O389 2.482 . S
La360 O391 2.503 . S
La361 C371 2.928 . S
La361 O383 2.482 . S
La361 O385 2.503 . S
La361 O386 2.521 . S
La361 O387 2.628 . S
La361 O388 2.554 . S
La361 O389 2.757 . S
La361 O390 2.470 . S
C362 La360 2.928 1_665 S
C362 C363 1.503 . S
C362 O380 1.261 1_565 S
C362 O381 1.243 1_655 S
C363 C362 1.503 . S
C363 C364 1.394 . S
C363 C368 1.373 . S
C364 C363 1.394 . S
C364 C365 1.380 . S
C364 H392 0.930 1_565 S
C365 C364 1.380 . S
C365 C366 1.376 . S
C365 H393 0.930 . S
C366 C365 1.376 . S
C366 C367 1.370 . S
C367 C366 1.370 . S
C367 C368 1.396 . S
C367 H394 0.929 . S
C368 C363 1.373 . S
C368 C367 1.396 . S
C368 H395 0.929 1_655 S
C369 O382 1.240 . S
C369 O383 1.289 . S
C370 O384 1.258 . S
C370 O385 1.256 . S
C371 La361 2.928 . S
C371 C372 1.503 . S
C371 O386 1.261 . S
C371 O387 1.243 . S
C372 C371 1.503 . S
C372 C373 1.394 . S
C372 C377 1.373 . S
C373 C372 1.394 . S
C373 C374 1.380 . S
C373 H396 0.930 . S
C374 C373 1.380 . S
C374 C375 1.376 . S
C374 H397 0.930 . S
C375 C374 1.376 . S
C375 C376 1.370 . S
C376 C375 1.370 . S
C376 C377 1.396 . S
C376 H398 0.929 . S
C377 C372 1.373 . S
C377 C376 1.396 . S
C377 H399 0.929 . S
C378 O388 1.240 1_565 S
C378 O389 1.289 1_565 S
C379 O390 1.258 . S
C379 O391 1.256 . S
O380 La360 2.521 1_655 S
O380 C362 1.261 1_545 S
O381 La360 2.628 1_565 S
O381 C362 1.243 1_455 S
O382 La360 2.554 . S
O382 C369 1.240 . S
O383 La360 2.757 . S
O383 La361 2.482 . S
O383 C369 1.289 . S
O384 La360 2.470 . S
O384 C370 1.258 . S
O385 La361 2.503 . S
O385 C370 1.256 . S
O386 La361 2.521 . S
O386 C371 1.261 . S
O387 La361 2.628 . S
O387 C371 1.243 . S
O388 La361 2.554 . S
O388 C378 1.240 1_545 S
O389 La360 2.482 . S
O389 La361 2.757 . S
O389 C378 1.289 1_545 S
O390 La361 2.470 . S
O390 C379 1.258 . S
O391 La360 2.503 . S
O391 C379 1.256 . S
H392 C364 0.930 1_545 S
H393 C365 0.930 . S
H394 C367 0.929 . S
H395 C368 0.929 1_455 S
H396 C373 0.930 . S
H397 C374 0.930 . S
H398 C376 0.929 . S
H399 C377 0.929 . S
La400 C402 2.928 . S
La400 O420 2.521 . S
La400 O421 2.628 . S
La400 O422 2.554 . S
La400 O423 2.757 . S
La400 O424 2.470 . S
La400 O429 2.482 . S
La400 O431 2.503 . S
La401 C411 2.928 . S
La401 O423 2.482 . S
La401 O425 2.503 . S
La401 O426 2.521 . S
La401 O427 2.628 . S
La401 O428 2.554 . S
La401 O429 2.757 . S
La401 O430 2.470 . S
C402 La400 2.928 . S
C402 C403 1.503 . S
C402 O420 1.261 . S
C402 O421 1.243 . S
C403 C402 1.503 . S
C403 C404 1.394 . S
C403 C408 1.373 . S
C404 C403 1.394 . S
C404 C405 1.380 . S
C404 H432 0.930 . S
C405 C404 1.380 . S
C405 C406 1.376 . S
C405 H433 0.930 . S
C406 C405 1.376 . S
C406 C407 1.370 . S
C407 C406 1.370 . S
C407 C408 1.396 . S
C407 H434 0.929 . S
C408 C403 1.373 . S
C408 C407 1.396 . S
C408 H435 0.929 . S
C409 O422 1.240 . S
C409 O423 1.289 . S
C410 O424 1.258 . S
C410 O425 1.256 . S
C411 La401 2.928 . S
C411 C412 1.503 . S
C411 O426 1.261 . S
C411 O427 1.243 . S
C412 C411 1.503 . S
C412 C413 1.394 . S
C412 C417 1.373 . S
C413 C412 1.394 . S
C413 C414 1.380 . S
C413 H436 0.930 . S
C414 C413 1.380 . S
C414 C415 1.376 . S
C414 H437 0.930 . S
C415 C414 1.376 . S
C415 C416 1.370 . S
C416 C415 1.370 . S
C416 C417 1.396 . S
C416 H438 0.929 1_554 S
C417 C412 1.373 . S
C417 C416 1.396 . S
C417 H439 0.929 . S
C418 O428 1.240 . S
C418 O429 1.289 . S
C419 O430 1.258 . S
C419 O431 1.256 . S
O420 La400 2.521 . S
O420 C402 1.261 . S
O421 La400 2.628 . S
O421 C402 1.243 . S
O422 La400 2.554 . S
O422 C409 1.240 . S
O423 La400 2.757 . S
O423 La401 2.482 . S
O423 C409 1.289 . S
O424 La400 2.470 . S
O424 C410 1.258 . S
O425 La401 2.503 . S
O425 C410 1.256 . S
O426 La401 2.521 . S
O426 C411 1.261 . S
O427 La401 2.628 . S
O427 C411 1.243 . S
O428 La401 2.554 . S
O428 C418 1.240 . S
O429 La400 2.482 . S
O429 La401 2.757 . S
O429 C418 1.289 . S
O430 La401 2.470 . S
O430 C419 1.258 . S
O431 La400 2.503 . S
O431 C419 1.256 . S
H432 C404 0.930 . S
H433 C405 0.930 . S
H434 C407 0.929 . S
H435 C408 0.929 . S
H436 C413 0.930 . S
H437 C414 0.930 . S
H438 C416 0.929 1_556 S
H439 C417 0.929 . S
La440 C442 2.928 1_565 S
La440 O460 2.521 . S
La440 O461 2.628 1_565 S
La440 O462 2.554 . S
La440 O463 2.757 . S
La440 O464 2.470 . S
La440 O469 2.482 . S
La440 O471 2.503 . S
La441 C451 2.928 . S
La441 O463 2.482 . S
La441 O465 2.503 . S
La441 O466 2.521 . S
La441 O467 2.628 . S
La441 O468 2.554 . S
La441 O469 2.757 . S
La441 O470 2.470 . S
C442 La440 2.928 1_545 S
C442 C443 1.503 . S
C442 O460 1.261 1_545 S
C442 O461 1.243 . S
C443 C442 1.503 . S
C443 C444 1.394 . S
C443 C448 1.373 . S
C444 C443 1.394 . S
C444 C445 1.380 . S
C444 H472 0.930 1_545 S
C445 C444 1.380 . S
C445 C446 1.376 . S
C445 H473 0.930 . S
C446 C445 1.376 . S
C446 C447 1.370 . S
C447 C446 1.370 . S
C447 C448 1.396 . S
C447 H474 0.929 . S
C448 C443 1.373 . S
C448 C447 1.396 . S
C448 H475 0.929 . S
C449 O462 1.240 . S
C449 O463 1.289 . S
C450 O464 1.258 . S
C450 O465 1.256 . S
C451 La441 2.928 . S
C451 C452 1.503 . S
C451 O466 1.261 . S
C451 O467 1.243 . S
C452 C451 1.503 . S
C452 C453 1.394 . S
C452 C457 1.373 . S
C453 C452 1.394 . S
C453 C454 1.380 . S
C453 H476 0.930 . S
C454 C453 1.380 . S
C454 C455 1.376 . S
C454 H477 0.930 . S
C455 C454 1.376 . S
C455 C456 1.370 . S
C456 C455 1.370 . S
C456 C457 1.396 . S
C456 H478 0.929 . S
C457 C452 1.373 . S
C457 C456 1.396 . S
C457 H479 0.929 . S
C458 O468 1.240 1_545 S
C458 O469 1.289 1_545 S
C459 O470 1.258 . S
C459 O471 1.256 . S
O460 La440 2.521 . S
O460 C442 1.261 1_565 S
O461 La440 2.628 1_545 S
O461 C442 1.243 . S
O462 La440 2.554 . S
O462 C449 1.240 . S
O463 La440 2.757 . S
O463 La441 2.482 . S
O463 C449 1.289 . S
O464 La440 2.470 . S
O464 C450 1.258 . S
O465 La441 2.503 . S
O465 C450 1.256 . S
O466 La441 2.521 . S
O466 C451 1.261 . S
O467 La441 2.628 . S
O467 C451 1.243 . S
O468 La441 2.554 . S
O468 C458 1.240 1_565 S
O469 La440 2.482 . S
O469 La441 2.757 . S
O469 C458 1.289 1_565 S
O470 La441 2.470 . S
O470 C459 1.258 . S
O471 La440 2.503 . S
O471 C459 1.256 . S
H472 C444 0.930 1_565 S
H473 C445 0.930 . S
H474 C447 0.929 . S
H475 C448 0.929 . S
H476 C453 0.930 . S
H477 C454 0.930 . S
H478 C456 0.929 . S
H479 C457 0.929 . S
La480 C482 2.928 . S
La480 O500 2.521 . S
La480 O501 2.628 . S
La480 O502 2.554 . S
La480 O503 2.757 . S
La480 O504 2.470 . S
La480 O509 2.482 . S
La480 O511 2.503 . S
La481 C491 2.928 . S
La481 O503 2.482 . S
La481 O505 2.503 . S
La481 O506 2.521 . S
La481 O507 2.628 . S
La481 O508 2.554 . S
La481 O509 2.757 . S
La481 O510 2.470 . S
C482 La480 2.928 . S
C482 C483 1.503 . S
C482 O500 1.261 . S
C482 O501 1.243 . S
C483 C482 1.503 . S
C483 C484 1.394 . S
C483 C488 1.373 . S
C484 C483 1.394 . S
C484 C485 1.380 . S
C484 H512 0.930 . S
C485 C484 1.380 . S
C485 C486 1.376 . S
C485 H513 0.930 . S
C486 C485 1.376 . S
C486 C487 1.370 . S
C487 C486 1.370 . S
C487 C488 1.396 . S
C487 H514 0.929 . S
C488 C483 1.373 . S
C488 C487 1.396 . S
C488 H515 0.929 . S
C489 O502 1.240 . S
C489 O503 1.289 . S
C490 O504 1.258 . S
C490 O505 1.256 . S
C491 La481 2.928 . S
C491 C492 1.503 . S
C491 O506 1.261 . S
C491 O507 1.243 . S
C492 C491 1.503 . S
C492 C493 1.394 . S
C492 C497 1.373 . S
C493 C492 1.394 . S
C493 C494 1.380 . S
C493 H516 0.930 . S
C494 C493 1.380 . S
C494 C495 1.376 . S
C494 H517 0.930 . S
C495 C494 1.376 . S
C495 C496 1.370 . S
C496 C495 1.370 . S
C496 C497 1.396 . S
C496 H518 0.929 . S
C497 C492 1.373 . S
C497 C496 1.396 . S
C497 H519 0.929 . S
C498 O508 1.240 . S
C498 O509 1.289 . S
C499 O510 1.258 . S
C499 O511 1.256 . S
O500 La480 2.521 . S
O500 C482 1.261 . S
O501 La480 2.628 . S
O501 C482 1.243 . S
O502 La480 2.554 . S
O502 C489 1.240 . S
O503 La480 2.757 . S
O503 La481 2.482 . S
O503 C489 1.289 . S
O504 La480 2.470 . S
O504 C490 1.258 . S
O505 La481 2.503 . S
O505 C490 1.256 . S
O506 La481 2.521 . S
O506 C491 1.261 . S
O507 La481 2.628 . S
O507 C491 1.243 . S
O508 La481 2.554 . S
O508 C498 1.240 . S
O509 La480 2.482 . S
O509 La481 2.757 . S
O509 C498 1.289 . S
O510 La481 2.470 . S
O510 C499 1.258 . S
O511 La480 2.503 . S
O511 C499 1.256 . S
H512 C484 0.930 . S
H513 C485 0.930 . S
H514 C487 0.929 . S
H515 C488 0.929 . S
H516 C493 0.930 . S
H517 C494 0.930 . S
H518 C496 0.929 . S
H519 C497 0.929 . S
La520 C522 2.928 . S
La520 O540 2.521 . S
La520 O541 2.628 . S
La520 O542 2.554 . S
La520 O543 2.757 . S
La520 O544 2.470 . S
La520 O549 2.482 . S
La520 O551 2.503 . S
La521 C531 2.928 1_665 S
La521 O543 2.482 . S
La521 O545 2.503 . S
La521 O546 2.521 1_655 S
La521 O547 2.628 1_565 S
La521 O548 2.554 . S
La521 O549 2.757 . S
La521 O550 2.470 . S
C522 La520 2.928 . S
C522 C523 1.503 . S
C522 O540 1.261 . S
C522 O541 1.243 . S
C523 C522 1.503 . S
C523 C524 1.394 . S
C523 C528 1.373 . S
C524 C523 1.394 . S
C524 C525 1.380 . S
C524 H552 0.930 . S
C525 C524 1.380 . S
C525 C526 1.376 . S
C525 H553 0.930 . S
C526 C525 1.376 . S
C526 C527 1.370 . S
C527 C526 1.370 . S
C527 C528 1.396 . S
C527 H554 0.929 . S
C528 C523 1.373 . S
C528 C527 1.396 . S
C528 H555 0.929 . S
C529 O542 1.240 1_545 S
C529 O543 1.289 1_545 S
C530 O544 1.258 . S
C530 O545 1.256 . S
C531 La521 2.928 1_445 S
C531 C532 1.503 . S
C531 O546 1.261 1_545 S
C531 O547 1.243 1_455 S
C532 C531 1.503 . S
C532 C533 1.394 . S
C532 C537 1.373 . S
C533 C532 1.394 . S
C533 C534 1.380 . S
C533 H556 0.930 1_545 S
C534 C533 1.380 . S
C534 C535 1.376 . S
C534 H557 0.930 . S
C535 C534 1.376 . S
C535 C536 1.370 . S
C536 C535 1.370 . S
C536 C537 1.396 . S
C536 H558 0.929 . S
C537 C532 1.373 . S
C537 C536 1.396 . S
C537 H559 0.929 1_455 S
C538 O548 1.240 . S
C538 O549 1.289 . S
C539 O550 1.258 . S
C539 O551 1.256 . S
O540 La520 2.521 . S
O540 C522 1.261 . S
O541 La520 2.628 . S
O541 C522 1.243 . S
O542 La520 2.554 . S
O542 C529 1.240 1_565 S
O543 La520 2.757 . S
O543 La521 2.482 . S
O543 C529 1.289 1_565 S
O544 La520 2.470 . S
O544 C530 1.258 . S
O545 La521 2.503 . S
O545 C530 1.256 . S
O546 La521 2.521 1_455 S
O546 C531 1.261 1_565 S
O547 La521 2.628 1_545 S
O547 C531 1.243 1_655 S
O548 La521 2.554 . S
O548 C538 1.240 . S
O549 La520 2.482 . S
O549 La521 2.757 . S
O549 C538 1.289 . S
O550 La521 2.470 . S
O550 C539 1.258 . S
O551 La520 2.503 . S
O551 C539 1.256 . S
H552 C524 0.930 . S
H553 C525 0.930 . S
H554 C527 0.929 . S
H555 C528 0.929 . S
H556 C533 0.930 1_565 S
H557 C534 0.930 . S
H558 C536 0.929 . S
H559 C537 0.929 1_655 S
La560 C562 2.928 . S
La560 O580 2.521 . S
La560 O581 2.628 . S
La560 O582 2.554 . S
La560 O583 2.757 . S
La560 O584 2.470 . S
La560 O589 2.482 . S
La560 O591 2.503 . S
La561 C571 2.928 . S
La561 O583 2.482 . S
La561 O585 2.503 . S
La561 O586 2.521 . S
La561 O587 2.628 . S
La561 O588 2.554 . S
La561 O589 2.757 . S
La561 O590 2.470 . S
C562 La560 2.928 . S
C562 C563 1.503 . S
C562 O580 1.261 . S
C562 O581 1.243 . S
C563 C562 1.503 . S
C563 C564 1.394 . S
C563 C568 1.373 . S
C564 C563 1.394 . S
C564 C565 1.380 . S
C564 H592 0.930 . S
C565 C564 1.380 . S
C565 C566 1.376 . S
C565 H593 0.930 . S
C566 C565 1.376 . S
C566 C567 1.370 . S
C567 C566 1.370 . S
C567 C568 1.396 . S
C567 H594 0.929 1_556 S
C568 C563 1.373 . S
C568 C567 1.396 . S
C568 H595 0.929 . S
C569 O582 1.240 . S
C569 O583 1.289 . S
C570 O584 1.258 . S
C570 O585 1.256 . S
C571 La561 2.928 . S
C571 C572 1.503 . S
C571 O586 1.261 . S
C571 O587 1.243 . S
C572 C571 1.503 . S
C572 C573 1.394 . S
C572 C577 1.373 . S
C573 C572 1.394 . S
C573 C574 1.380 . S
C573 H596 0.930 . S
C574 C573 1.380 . S
C574 C575 1.376 . S
C574 H597 0.930 . S
C575 C574 1.376 . S
C575 C576 1.370 . S
C576 C575 1.370 . S
C576 C577 1.396 . S
C576 H598 0.929 . S
C577 C572 1.373 . S
C577 C576 1.396 . S
C577 H599 0.929 . S
C578 O588 1.240 . S
C578 O589 1.289 . S
C579 O590 1.258 . S
C579 O591 1.256 . S
O580 La560 2.521 . S
O580 C562 1.261 . S
O581 La560 2.628 . S
O581 C562 1.243 . S
O582 La560 2.554 . S
O582 C569 1.240 . S
O583 La560 2.757 . S
O583 La561 2.482 . S
O583 C569 1.289 . S
O584 La560 2.470 . S
O584 C570 1.258 . S
O585 La561 2.503 . S
O585 C570 1.256 . S
O586 La561 2.521 . S
O586 C571 1.261 . S
O587 La561 2.628 . S
O587 C571 1.243 . S
O588 La561 2.554 . S
O588 C578 1.240 . S
O589 La560 2.482 . S
O589 La561 2.757 . S
O589 C578 1.289 . S
O590 La561 2.470 . S
O590 C579 1.258 . S
O591 La560 2.503 . S
O591 C579 1.256 . S
H592 C564 0.930 . S
H593 C565 0.930 . S
H594 C567 0.929 1_554 S
H595 C568 0.929 . S
H596 C573 0.930 . S
H597 C574 0.930 . S
H598 C576 0.929 . S
H599 C577 0.929 . S
La600 C602 2.928 . S
La600 O620 2.521 . S
La600 O621 2.628 . S
La600 O622 2.554 . S
La600 O623 2.757 . S
La600 O624 2.470 . S
La600 O629 2.482 . S
La600 O631 2.503 . S
La601 C611 2.928 1_545 S
La601 O623 2.482 . S
La601 O625 2.503 . S
La601 O626 2.521 . S
La601 O627 2.628 1_545 S
La601 O628 2.554 . S
La601 O629 2.757 . S
La601 O630 2.470 . S
C602 La600 2.928 . S
C602 C603 1.503 . S
C602 O620 1.261 . S
C602 O621 1.243 . S
C603 C602 1.503 . S
C603 C604 1.394 . S
C603 C608 1.373 . S
C604 C603 1.394 . S
C604 C605 1.380 . S
C604 H632 0.930 . S
C605 C604 1.380 . S
C605 C606 1.376 . S
C605 H633 0.930 . S
C606 C605 1.376 . S
C606 C607 1.370 . S
C607 C606 1.370 . S
C607 C608 1.396 . S
C607 H634 0.929 . S
C608 C603 1.373 . S
C608 C607 1.396 . S
C608 H635 0.929 . S
C609 O622 1.240 1_565 S
C609 O623 1.289 1_565 S
C610 O624 1.258 . S
C610 O625 1.256 . S
C611 La601 2.928 1_565 S
C611 C612 1.503 . S
C611 O626 1.261 1_565 S
C611 O627 1.243 . S
C612 C611 1.503 . S
C612 C613 1.394 . S
C612 C617 1.373 . S
C613 C612 1.394 . S
C613 C614 1.380 . S
C613 H636 0.930 1_565 S
C614 C613 1.380 . S
C614 C615 1.376 . S
C614 H637 0.930 . S
C615 C614 1.376 . S
C615 C616 1.370 . S
C616 C615 1.370 . S
C616 C617 1.396 . S
C616 H638 0.929 . S
C617 C612 1.373 . S
C617 C616 1.396 . S
C617 H639 0.929 . S
C618 O628 1.240 . S
C618 O629 1.289 . S
C619 O630 1.258 . S
C619 O631 1.256 . S
O620 La600 2.521 . S
O620 C602 1.261 . S
O621 La600 2.628 . S
O621 C602 1.243 . S
O622 La600 2.554 . S
O622 C609 1.240 1_545 S
O623 La600 2.757 . S
O623 La601 2.482 . S
O623 C609 1.289 1_545 S
O624 La600 2.470 . S
O624 C610 1.258 . S
O625 La601 2.503 . S
O625 C610 1.256 . S
O626 La601 2.521 . S
O626 C611 1.261 1_545 S
O627 La601 2.628 1_565 S
O627 C611 1.243 . S
O628 La601 2.554 . S
O628 C618 1.240 . S
O629 La600 2.482 . S
O629 La601 2.757 . S
O629 C618 1.289 . S
O630 La601 2.470 . S
O630 C619 1.258 . S
O631 La600 2.503 . S
O631 C619 1.256 . S
H632 C604 0.930 . S
H633 C605 0.930 . S
H634 C607 0.929 . S
H635 C608 0.929 . S
H636 C613 0.930 1_545 S
H637 C614 0.930 . S
H638 C616 0.929 . S
H639 C617 0.929 . S
C640 C641 1.387 . S
C640 H644 0.950 . S
C640 C649 1.390 . S
C641 C640 1.387 . S
C641 C643 1.387 . S
H642 C649 0.950 . S
C643 C641 1.387 . S
C643 C645 1.390 . S
C643 H647 0.950 . S
H644 C640 0.950 . S
C645 C643 1.390 . S
C645 C646 1.387 . S
C645 H648 0.950 . S
C646 C645 1.387 . S
C646 C649 1.387 . S
H647 C643 0.950 . S
H648 C645 0.950 . S
C649 C640 1.390 . S
C649 H642 0.950 . S
C649 C646 1.387 . S
C650 C651 1.387 . S
C650 H654 0.950 . S
C650 C659 1.390 . S
C651 C650 1.387 . S
C651 C653 1.387 . S
H652 C659 0.950 . S
C653 C651 1.387 . S
C653 C655 1.390 . S
C653 H657 0.950 . S
H654 C650 0.950 . S
C655 C653 1.390 . S
C655 C656 1.387 . S
C655 H658 0.950 . S
C656 C655 1.387 . S
C656 C659 1.387 . S
H657 C653 0.950 . S
H658 C655 0.950 . S
C659 C650 1.390 . S
C659 H652 0.950 . S
C659 C656 1.387 . S
C660 C661 1.387 . S
C660 H664 0.950 . S
C660 C669 1.390 1_455 S
C661 C660 1.387 . S
C661 C663 1.387 . S
H662 C669 0.950 . S
C663 C661 1.387 . S
C663 C665 1.390 1_455 S
C663 H667 0.950 . S
H664 C660 0.950 . S
C665 C663 1.390 1_655 S
C665 C666 1.387 . S
C665 H668 0.950 . S
C666 C665 1.387 . S
C666 C669 1.387 . S
H667 C663 0.950 . S
H668 C665 0.950 . S
C669 C660 1.390 1_655 S
C669 H662 0.950 . S
C669 C666 1.387 . S
C670 C671 1.387 . S
C670 H674 0.950 . S
C670 C679 1.390 1_455 S
C671 C670 1.387 . S
C671 C673 1.387 . S
H672 C679 0.950 . S
C673 C671 1.387 . S
C673 C675 1.390 1_455 S
C673 H677 0.950 . S
H674 C670 0.950 . S
C675 C673 1.390 1_655 S
C675 C676 1.387 . S
C675 H678 0.950 . S
C676 C675 1.387 . S
C676 C679 1.387 . S
H677 C673 0.950 . S
H678 C675 0.950 . S
C679 C670 1.390 1_655 S
C679 H672 0.950 . S
C679 C676 1.387 . S
C680 C681 1.387 . S
C680 H684 0.950 . S
C680 C689 1.390 . S
C681 C680 1.387 . S
C681 C683 1.387 . S
H682 C689 0.950 . S
C683 C681 1.387 . S
C683 C685 1.390 . S
C683 H687 0.950 . S
H684 C680 0.950 . S
C685 C683 1.390 . S
C685 C686 1.387 . S
C685 H688 0.950 . S
C686 C685 1.387 . S
C686 C689 1.387 . S
H687 C683 0.950 . S
H688 C685 0.950 . S
C689 C680 1.390 . S
C689 H682 0.950 . S
C689 C686 1.387 . S
C690 C691 1.387 . S
C690 H694 0.950 . S
C690 C699 1.390 . S
C691 C690 1.387 . S
C691 C693 1.387 . S
H692 C699 0.950 . S
C693 C691 1.387 . S
C693 C695 1.390 . S
C693 H697 0.950 . S
H694 C690 0.950 . S
C695 C693 1.390 . S
C695 C696 1.387 . S
C695 H698 0.950 . S
C696 C695 1.387 . S
C696 C699 1.387 . S
H697 C693 0.950 . S
H698 C695 0.950 . S
C699 C690 1.390 . S
C699 H692 0.950 . S
C699 C696 1.387 . S
C700 C701 1.387 . S
C700 H704 0.950 . S
C700 C709 1.390 1_455 S
C701 C700 1.387 . S
C701 C703 1.387 . S
H702 C709 0.950 . S
C703 C701 1.387 . S
C703 C705 1.390 1_455 S
C703 H707 0.950 . S
H704 C700 0.950 . S
C705 C703 1.390 1_655 S
C705 C706 1.387 . S
C705 H708 0.950 . S
C706 C705 1.387 . S
C706 C709 1.387 . S
H707 C703 0.950 . S
H708 C705 0.950 . S
C709 C700 1.390 1_655 S
C709 H702 0.950 . S
C709 C706 1.387 . S
C710 C711 1.387 . S
C710 H714 0.950 . S
C710 C719 1.390 1_455 S
C711 C710 1.387 . S
C711 C713 1.387 . S
H712 C719 0.950 . S
C713 C711 1.387 . S
C713 C715 1.390 1_455 S
C713 H717 0.950 . S
H714 C710 0.950 . S
C715 C713 1.390 1_655 S
C715 C716 1.387 . S
C715 H718 0.950 . S
C716 C715 1.387 . S
C716 C719 1.387 . S
H717 C713 0.950 . S
H718 C715 0.950 . S
C719 C710 1.390 1_655 S
C719 H712 0.950 . S
C719 C716 1.387 . S
C720 C721 1.387 . S
C720 H724 0.950 . S
C720 C729 1.390 1_565 S
C721 C720 1.387 . S
C721 C723 1.387 1_556 S
H722 C729 0.950 . S
C723 C721 1.387 1_554 S
C723 C725 1.390 1_565 S
C723 H727 0.950 . S
H724 C720 0.950 . S
C725 C723 1.390 1_545 S
C725 C726 1.387 . S
C725 H728 0.950 . S
C726 C725 1.387 . S
C726 C729 1.387 1_554 S
H727 C723 0.950 . S
H728 C725 0.950 . S
C729 C720 1.390 1_545 S
C729 H722 0.950 . S
C729 C726 1.387 1_556 S
C730 C731 1.387 . S
C730 H734 0.950 . S
C730 C739 1.390 . S
C731 C730 1.387 . S
C731 C733 1.387 . S
H732 C739 0.950 . S
C733 C731 1.387 . S
C733 C735 1.390 . S
C733 H737 0.950 . S
H734 C730 0.950 . S
C735 C733 1.390 . S
C735 C736 1.387 . S
C735 H738 0.950 . S
C736 C735 1.387 . S
C736 C739 1.387 . S
H737 C733 0.950 . S
H738 C735 0.950 . S
C739 C730 1.390 . S
C739 H732 0.950 . S
C739 C736 1.387 . S
C740 C741 1.387 . S
C740 H744 0.950 . S
C740 C749 1.390 1_445 S
C741 C740 1.387 . S
C741 C743 1.387 . S
H742 C749 0.950 . S
C743 C741 1.387 . S
C743 C745 1.390 1_445 S
C743 H747 0.950 . S
H744 C740 0.950 . S
C745 C743 1.390 1_665 S
C745 C746 1.387 . S
C745 H748 0.950 . S
C746 C745 1.387 . S
C746 C749 1.387 . S
H747 C743 0.950 . S
H748 C745 0.950 . S
C749 C740 1.390 1_665 S
C749 H742 0.950 . S
C749 C746 1.387 . S
C750 C751 1.387 . S
C750 H754 0.950 . S
C750 C759 1.390 . S
C751 C750 1.387 . S
C751 C753 1.387 . S
H752 C759 0.950 . S
C753 C751 1.387 . S
C753 C755 1.390 . S
C753 H757 0.950 . S
H754 C750 0.950 . S
C755 C753 1.390 . S
C755 C756 1.387 . S
C755 H758 0.950 . S
C756 C755 1.387 . S
C756 C759 1.387 . S
H757 C753 0.950 . S
H758 C755 0.950 . S
C759 C750 1.390 . S
C759 H752 0.950 . S
C759 C756 1.387 . S
C760 C761 1.387 . S
C760 H764 0.950 . S
C760 C769 1.390 . S
C761 C760 1.387 . S
C761 C763 1.387 . S
H762 C769 0.950 . S
C763 C761 1.387 . S
C763 C765 1.390 . S
C763 H767 0.950 . S
H764 C760 0.950 . S
C765 C763 1.390 . S
C765 C766 1.387 . S
C765 H768 0.950 . S
C766 C765 1.387 . S
C766 C769 1.387 . S
H767 C763 0.950 . S
H768 C765 0.950 . S
C769 C760 1.390 . S
C769 H762 0.950 . S
C769 C766 1.387 . S
C770 C771 1.387 . S
C770 H774 0.950 . S
C770 C779 1.390 . S
C771 C770 1.387 . S
C771 C773 1.387 . S
H772 C779 0.950 . S
C773 C771 1.387 . S
C773 C775 1.390 . S
C773 H777 0.950 . S
H774 C770 0.950 . S
C775 C773 1.390 . S
C775 C776 1.387 . S
C775 H778 0.950 . S
C776 C775 1.387 . S
C776 C779 1.387 . S
H777 C773 0.950 . S
H778 C775 0.950 . S
C779 C770 1.390 . S
C779 H772 0.950 . S
C779 C776 1.387 . S
C780 C781 1.387 . S
C780 H784 0.950 . S
C780 C789 1.390 1_455 S
C781 C780 1.387 . S
C781 C783 1.387 . S
H782 C789 0.950 . S
C783 C781 1.387 . S
C783 C785 1.390 1_455 S
C783 H787 0.950 . S
H784 C780 0.950 . S
C785 C783 1.390 1_655 S
C785 C786 1.387 . S
C785 H788 0.950 . S
C786 C785 1.387 . S
C786 C789 1.387 . S
H787 C783 0.950 . S
H788 C785 0.950 . S
C789 C780 1.390 1_655 S
C789 H782 0.950 . S
C789 C786 1.387 . S
C790 C791 1.387 1_554 S
C790 H794 0.950 . S
C790 C799 1.390 . S
C791 C790 1.387 1_556 S
C791 C793 1.387 . S
H792 C799 0.950 . S
C793 C791 1.387 . S
C793 C795 1.390 . S
C793 H797 0.950 . S
H794 C790 0.950 . S
C795 C793 1.390 . S
C795 C796 1.387 1_556 S
C795 H798 0.950 . S
C796 C795 1.387 1_554 S
C796 C799 1.387 . S
H797 C793 0.950 . S
H798 C795 0.950 . S
C799 C790 1.390 . S
C799 H792 0.950 . S
C799 C796 1.387 . S
C800 C801 1.387 . S
C800 H804 0.950 . S
C800 C809 1.390 . S
C801 C800 1.387 . S
C801 C803 1.387 . S
H802 C809 0.950 . S
C803 C801 1.387 . S
C803 C805 1.390 . S
C803 H807 0.950 . S
H804 C800 0.950 . S
C805 C803 1.390 . S
C805 C806 1.387 . S
C805 H808 0.950 . S
C806 C805 1.387 . S
C806 C809 1.387 . S
H807 C803 0.950 . S
H808 C805 0.950 . S
C809 C800 1.390 . S
C809 H802 0.950 . S
C809 C806 1.387 . S
C810 C811 1.387 . S
C810 H814 0.950 . S
C810 C819 1.390 . S
C811 C810 1.387 . S
C811 C813 1.387 . S
H812 C819 0.950 . S
C813 C811 1.387 . S
C813 C815 1.390 . S
C813 H817 0.950 . S
H814 C810 0.950 . S
C815 C813 1.390 . S
C815 C816 1.387 . S
C815 H818 0.950 . S
C816 C815 1.387 . S
C816 C819 1.387 . S
H817 C813 0.950 . S
H818 C815 0.950 . S
C819 C810 1.390 . S
C819 H812 0.950 . S
C819 C816 1.387 . S
C820 C821 1.387 . S
C820 H824 0.950 . S
C820 C829 1.390 . S
C821 C820 1.387 . S
C821 C823 1.387 . S
H822 C829 0.950 . S
C823 C821 1.387 . S
C823 C825 1.390 . S
C823 H827 0.950 . S
H824 C820 0.950 . S
C825 C823 1.390 . S
C825 C826 1.387 . S
C825 H828 0.950 . S
C826 C825 1.387 . S
C826 C829 1.387 . S
H827 C823 0.950 . S
H828 C825 0.950 . S
C829 C820 1.390 . S
C829 H822 0.950 . S
C829 C826 1.387 . S
C830 C831 1.387 . S
C830 H834 0.950 . S
C830 C839 1.390 . S
C831 C830 1.387 . S
C831 C833 1.387 . S
H832 C839 0.950 . S
C833 C831 1.387 . S
C833 C835 1.390 . S
C833 H837 0.950 . S
H834 C830 0.950 . S
C835 C833 1.390 . S
C835 C836 1.387 . S
C835 H838 0.950 . S
C836 C835 1.387 . S
C836 C839 1.387 . S
H837 C833 0.950 . S
H838 C835 0.950 . S
C839 C830 1.390 . S
C839 H832 0.950 . S
C839 C836 1.387 . S
C840 C841 1.387 . S
C840 H844 0.950 . S
C840 C849 1.390 . S
C841 C840 1.387 . S
C841 C843 1.387 . S
H842 C849 0.950 . S
C843 C841 1.387 . S
C843 C845 1.390 . S
C843 H847 0.950 . S
H844 C840 0.950 . S
C845 C843 1.390 . S
C845 C846 1.387 . S
C845 H848 0.950 . S
C846 C845 1.387 . S
C846 C849 1.387 . S
H847 C843 0.950 . S
H848 C845 0.950 . S
C849 C840 1.390 . S
C849 H842 0.950 . S
C849 C846 1.387 . S
C850 C851 1.387 . S
C850 H854 0.950 . S
C850 C859 1.390 . S
C851 C850 1.387 . S
C851 C853 1.387 . S
H852 C859 0.950 . S
C853 C851 1.387 . S
C853 C855 1.390 . S
C853 H857 0.950 . S
H854 C850 0.950 . S
C855 C853 1.390 . S
C855 C856 1.387 . S
C855 H858 0.950 . S
C856 C855 1.387 . S
C856 C859 1.387 . S
H857 C853 0.950 . S
H858 C855 0.950 . S
C859 C850 1.390 . S
C859 H852 0.950 . S
C859 C856 1.387 . S
C860 C861 1.387 . S
C860 H864 0.950 . S
C860 C869 1.390 . S
C861 C860 1.387 . S
C861 C863 1.387 . S
H862 C869 0.950 . S
C863 C861 1.387 . S
C863 C865 1.390 . S
C863 H867 0.950 . S
H864 C860 0.950 . S
C865 C863 1.390 . S
C865 C866 1.387 . S
C865 H868 0.950 . S
C866 C865 1.387 . S
C866 C869 1.387 . S
H867 C863 0.950 . S
H868 C865 0.950 . S
C869 C860 1.390 . S
C869 H862 0.950 . S
C869 C866 1.387 . S
C870 C871 1.387 . S
C870 H874 0.950 . S
C870 C879 1.390 . S
C871 C870 1.387 . S
C871 C873 1.387 . S
H872 C879 0.950 . S
C873 C871 1.387 . S
C873 C875 1.390 . S
C873 H877 0.950 . S
H874 C870 0.950 . S
C875 C873 1.390 . S
C875 C876 1.387 . S
C875 H878 0.950 . S
C876 C875 1.387 . S
C876 C879 1.387 . S
H877 C873 0.950 . S
H878 C875 0.950 . S
C879 C870 1.390 . S
C879 H872 0.950 . S
C879 C876 1.387 . S
C880 C881 1.387 . S
C880 H884 0.950 . S
C880 C889 1.390 . S
C881 C880 1.387 . S
C881 C883 1.387 . S
H882 C889 0.950 . S
C883 C881 1.387 . S
C883 C885 1.390 . S
C883 H887 0.950 . S
H884 C880 0.950 . S
C885 C883 1.390 . S
C885 C886 1.387 . S
C885 H888 0.950 . S
C886 C885 1.387 . S
C886 C889 1.387 . S
H887 C883 0.950 . S
H888 C885 0.950 . S
C889 C880 1.390 . S
C889 H882 0.950 . S
C889 C886 1.387 . S
C890 C891 1.387 . S
C890 H894 0.950 . S
C890 C899 1.390 . S
C891 C890 1.387 . S
C891 C893 1.387 . S
H892 C899 0.950 . S
C893 C891 1.387 . S
C893 C895 1.390 . S
C893 H897 0.950 . S
H894 C890 0.950 . S
C895 C893 1.390 . S
C895 C896 1.387 . S
C895 H898 0.950 . S
C896 C895 1.387 . S
C896 C899 1.387 . S
H897 C893 0.950 . S
H898 C895 0.950 . S
C899 C890 1.390 . S
C899 H892 0.950 . S
C899 C896 1.387 . S
C900 C901 1.387 . S
C900 H904 0.950 . S
C900 C909 1.390 . S
C901 C900 1.387 . S
C901 C903 1.387 . S
H902 C909 0.950 . S
C903 C901 1.387 . S
C903 C905 1.390 . S
C903 H907 0.950 . S
H904 C900 0.950 . S
C905 C903 1.390 . S
C905 C906 1.387 . S
C905 H908 0.950 . S
C906 C905 1.387 . S
C906 C909 1.387 . S
H907 C903 0.950 . S
H908 C905 0.950 . S
C909 C900 1.390 . S
C909 H902 0.950 . S
C909 C906 1.387 . S
C910 C911 1.387 . S
C910 H914 0.950 . S
C910 C919 1.390 . S
C911 C910 1.387 . S
C911 C913 1.387 . S
H912 C919 0.950 . S
C913 C911 1.387 . S
C913 C915 1.390 . S
C913 H917 0.950 . S
H914 C910 0.950 . S
C915 C913 1.390 . S
C915 C916 1.387 . S
C915 H918 0.950 . S
C916 C915 1.387 . S
C916 C919 1.387 . S
H917 C913 0.950 . S
H918 C915 0.950 . S
C919 C910 1.390 . S
C919 H912 0.950 . S
C919 C916 1.387 . S
C920 C921 1.387 . S
C920 H924 0.950 . S
C920 C929 1.390 . S
C921 C920 1.387 . S
C921 C923 1.387 . S
H922 C929 0.950 . S
C923 C921 1.387 . S
C923 C925 1.390 . S
C923 H927 0.950 . S
H924 C920 0.950 . S
C925 C923 1.390 . S
C925 C926 1.387 . S
C925 H928 0.950 . S
C926 C925 1.387 . S
C926 C929 1.387 . S
H927 C923 0.950 . S
H928 C925 0.950 . S
C929 C920 1.390 . S
C929 H922 0.950 . S
C929 C926 1.387 . S
C930 C931 1.387 . S
C930 H934 0.950 . S
C930 C939 1.390 . S
C931 C930 1.387 . S
C931 C933 1.387 . S
H932 C939 0.950 . S
C933 C931 1.387 . S
C933 C935 1.390 . S
C933 H937 0.950 . S
H934 C930 0.950 . S
C935 C933 1.390 . S
C935 C936 1.387 . S
C935 H938 0.950 . S
C936 C935 1.387 . S
C936 C939 1.387 . S
H937 C933 0.950 . S
H938 C935 0.950 . S
C939 C930 1.390 . S
C939 H932 0.950 . S
C939 C936 1.387 . S
C940 C941 1.387 . S
C940 H944 0.950 . S
C940 C949 1.390 . S
C941 C940 1.387 . S
C941 C943 1.387 . S
H942 C949 0.950 . S
C943 C941 1.387 . S
C943 C945 1.390 . S
C943 H947 0.950 . S
H944 C940 0.950 . S
C945 C943 1.390 . S
C945 C946 1.387 . S
C945 H948 0.950 . S
C946 C945 1.387 . S
C946 C949 1.387 . S
H947 C943 0.950 . S
H948 C945 0.950 . S
C949 C940 1.390 . S
C949 H942 0.950 . S
C949 C946 1.387 . S
C950 C951 1.387 . S
C950 H954 0.950 . S
C950 C959 1.390 . S
C951 C950 1.387 . S
C951 C953 1.387 . S
H952 C959 0.950 . S
C953 C951 1.387 . S
C953 C955 1.390 . S
C953 H957 0.950 . S
H954 C950 0.950 . S
C955 C953 1.390 . S
C955 C956 1.387 . S
C955 H958 0.950 . S
C956 C955 1.387 . S
C956 C959 1.387 . S
H957 C953 0.950 . S
H958 C955 0.950 . S
C959 C950 1.390 . S
C959 H952 0.950 . S
C959 C956 1.387 . S
C960 C961 1.393 . S
C960 H964 0.932 1_556 S
C960 C969 1.403 . S
C961 C960 1.393 . S
C961 C963 1.387 . S
H962 C969 0.950 . S
C963 C961 1.387 . S
C963 C965 1.390 . S
C963 H967 0.950 . S
H964 C960 0.932 1_554 S
C965 C963 1.390 . S
C965 C966 1.387 . S
C965 H968 0.950 . S
C966 C965 1.387 . S
C966 C969 1.387 . S
H967 C963 0.950 . S
H968 C965 0.950 . S
C969 C960 1.403 . S
C969 H962 0.950 . S
C969 C966 1.387 . S
C970 C971 1.387 . S
C970 H974 0.950 . S
C970 C979 1.390 . S
C971 C970 1.387 . S
C971 C973 1.387 . S
H972 C979 0.950 . S
C973 C971 1.387 . S
C973 C975 1.390 . S
C973 H977 0.950 . S
H974 C970 0.950 . S
C975 C973 1.390 . S
C975 C976 1.387 . S
C975 H978 0.950 . S
C976 C975 1.387 . S
C976 C979 1.387 . S
H977 C973 0.950 . S
H978 C975 0.950 . S
C979 C970 1.390 . S
C979 H972 0.950 . S
C979 C976 1.387 . S
C980 C981 1.387 . S
C980 H984 0.950 . S
C980 C989 1.390 . S
C981 C980 1.387 . S
C981 C983 1.387 . S
H982 C989 0.950 . S
C983 C981 1.387 . S
C983 C985 1.390 . S
C983 H987 0.950 . S
H984 C980 0.950 . S
C985 C983 1.390 . S
C985 C986 1.387 . S
C985 H988 0.950 . S
C986 C985 1.387 . S
C986 C989 1.387 . S
H987 C983 0.950 . S
H988 C985 0.950 . S
C989 C980 1.390 . S
C989 H982 0.950 . S
C989 C986 1.387 . S
C990 C991 1.387 . S
C990 H994 0.950 . S
C990 C999 1.390 . S
C991 C990 1.387 . S
C991 C993 1.387 . S
H992 C999 0.950 . S
C993 C991 1.387 . S
C993 C995 1.390 . S
C993 H997 0.950 . S
H994 C990 0.950 . S
C995 C993 1.390 . S
C995 C996 1.387 . S
C995 H998 0.950 . S
C996 C995 1.387 . S
C996 C999 1.387 . S
H997 C993 0.950 . S
H998 C995 0.950 . S
C999 C990 1.390 . S
C999 H992 0.950 . S
C999 C996 1.387 . S
C1000 C1001 1.387 . S
C1000 H1004 0.950 . S
C1000 C1009 1.390 . S
C1001 C1000 1.387 . S
C1001 C1003 1.387 . S
H1002 C1009 0.950 . S
C1003 C1001 1.387 . S
C1003 C1005 1.390 . S
C1003 H1007 0.950 . S
H1004 C1000 0.950 . S
C1005 C1003 1.390 . S
C1005 C1006 1.387 . S
C1005 H1008 0.950 . S
C1006 C1005 1.387 . S
C1006 C1009 1.387 . S
H1007 C1003 0.950 . S
H1008 C1005 0.950 . S
C1009 C1000 1.390 . S
C1009 H1002 0.950 . S
C1009 C1006 1.387 . S
C1010 C1011 1.387 . S
C1010 H1014 0.950 . S
C1010 C1019 1.390 . S
C1011 C1010 1.387 . S
C1011 C1013 1.387 . S
H1012 C1019 0.950 . S
C1013 C1011 1.387 . S
C1013 C1015 1.390 . S
C1013 H1017 0.950 . S
H1014 C1010 0.950 . S
C1015 C1013 1.390 . S
C1015 C1016 1.387 . S
C1015 H1018 0.950 . S
C1016 C1015 1.387 . S
C1016 C1019 1.387 . S
H1017 C1013 0.950 . S
H1018 C1015 0.950 . S
C1019 C1010 1.390 . S
C1019 H1012 0.950 . S
C1019 C1016 1.387 . S
C1020 C1021 1.387 . S
C1020 H1024 0.950 . S
C1020 C1029 1.390 . S
C1021 C1020 1.387 . S
C1021 C1023 1.387 . S
H1022 C1029 0.950 . S
C1023 C1021 1.387 . S
C1023 C1025 1.390 . S
C1023 H1027 0.950 . S
H1024 C1020 0.950 . S
C1025 C1023 1.390 . S
C1025 C1026 1.387 . S
C1025 H1028 0.950 . S
C1026 C1025 1.387 . S
C1026 C1029 1.387 . S
H1027 C1023 0.950 . S
H1028 C1025 0.950 . S
C1029 C1020 1.390 . S
C1029 H1022 0.950 . S
C1029 C1026 1.387 . S
C1030 C1031 1.387 . S
C1030 H1034 0.950 . S
C1030 C1039 1.390 . S
C1031 C1030 1.387 . S
C1031 C1033 1.387 . S
H1032 C1039 0.950 . S
C1033 C1031 1.387 . S
C1033 C1035 1.390 . S
C1033 H1037 0.950 . S
H1034 C1030 0.950 . S
C1035 C1033 1.390 . S
C1035 C1036 1.387 . S
C1035 H1038 0.950 . S
C1036 C1035 1.387 . S
C1036 C1039 1.387 . S
H1037 C1033 0.950 . S
H1038 C1035 0.950 . S
C1039 C1030 1.390 . S
C1039 H1032 0.950 . S
C1039 C1036 1.387 . S
C1040 C1041 1.387 . S
C1040 H1044 0.950 . S
C1040 C1049 1.390 . S
C1041 C1040 1.387 . S
C1041 C1043 1.387 . S
H1042 C1049 0.950 . S
C1043 C1041 1.387 . S
C1043 C1045 1.390 . S
C1043 H1047 0.950 . S
H1044 C1040 0.950 . S
C1045 C1043 1.390 . S
C1045 C1046 1.387 . S
C1045 H1048 0.950 . S
C1046 C1045 1.387 . S
C1046 C1049 1.387 . S
H1047 C1043 0.950 . S
H1048 C1045 0.950 . S
C1049 C1040 1.390 . S
C1049 H1042 0.950 . S
C1049 C1046 1.387 . S
C1050 C1051 1.387 . S
C1050 H1054 0.950 . S
C1050 C1059 1.390 . S
C1051 C1050 1.387 . S
C1051 C1053 1.387 . S
H1052 C1059 0.950 . S
C1053 C1051 1.387 . S
C1053 C1055 1.390 . S
C1053 H1057 0.950 . S
H1054 C1050 0.950 . S
C1055 C1053 1.390 . S
C1055 C1056 1.387 . S
C1055 H1058 0.950 1_565 S
C1056 C1055 1.387 . S
C1056 C1059 1.387 . S
H1057 C1053 0.950 . S
H1058 C1055 0.950 1_545 S
C1059 C1050 1.390 . S
C1059 H1052 0.950 . S
C1059 C1056 1.387 . S
C1060 C1061 1.387 . S
C1060 H1064 0.950 . S
C1060 C1069 1.390 . S
C1061 C1060 1.387 . S
C1061 C1063 1.387 . S
H1062 C1069 0.950 . S
C1063 C1061 1.387 . S
C1063 C1065 1.390 . S
C1063 H1067 0.950 . S
H1064 C1060 0.950 . S
C1065 C1063 1.390 . S
C1065 C1066 1.387 . S
C1065 H1068 0.950 . S
C1066 C1065 1.387 . S
C1066 C1069 1.387 . S
H1067 C1063 0.950 . S
H1068 C1065 0.950 . S
C1069 C1060 1.390 . S
C1069 H1062 0.950 . S
C1069 C1066 1.387 . S
C1070 C1071 1.387 . S
C1070 H1074 0.950 1_545 S
C1070 C1079 1.390 . S
C1071 C1070 1.387 . S
C1071 C1073 1.387 . S
H1072 C1079 0.950 . S
C1073 C1071 1.387 . S
C1073 C1075 1.390 . S
C1073 H1077 0.950 . S
H1074 C1070 0.950 1_565 S
C1075 C1073 1.390 . S
C1075 C1076 1.387 . S
C1075 H1078 0.950 . S
C1076 C1075 1.387 . S
C1076 C1079 1.387 . S
H1077 C1073 0.950 . S
H1078 C1075 0.950 . S
C1079 C1070 1.390 . S
C1079 H1072 0.950 . S
C1079 C1076 1.387 . S
C1080 C1081 1.387 . S
C1080 H1084 0.950 . S
C1080 C1089 1.390 . S
C1081 C1080 1.387 . S
C1081 C1083 1.387 . S
H1082 C1089 0.950 . S
C1083 C1081 1.387 . S
C1083 C1085 1.390 . S
C1083 H1087 0.950 . S
H1084 C1080 0.950 . S
C1085 C1083 1.390 . S
C1085 C1086 1.387 . S
C1085 H1088 0.950 . S
C1086 C1085 1.387 . S
C1086 C1089 1.387 . S
H1087 C1083 0.950 . S
H1088 C1085 0.950 . S
C1089 C1080 1.390 . S
C1089 H1082 0.950 . S
C1089 C1086 1.387 . S
C1090 C1091 1.387 . S
C1090 H1094 0.950 . S
C1090 C1099 1.390 . S
C1091 C1090 1.387 . S
C1091 C1093 1.387 . S
H1092 C1099 0.950 1_565 S
C1093 C1091 1.387 . S
C1093 C1095 1.390 . S
C1093 H1097 0.950 . S
H1094 C1090 0.950 . S
C1095 C1093 1.390 . S
C1095 C1096 1.387 . S
C1095 H1098 0.950 . S
C1096 C1095 1.387 . S
C1096 C1099 1.387 . S
H1097 C1093 0.950 . S
H1098 C1095 0.950 . S
C1099 C1090 1.390 . S
C1099 H1092 0.950 1_545 S
C1099 C1096 1.387 . S
C1100 C1101 1.387 . S
C1100 H1104 0.950 . S
C1100 C1109 1.390 . S
C1101 C1100 1.387 . S
C1101 C1103 1.387 . S
H1102 C1109 0.950 . S
C1103 C1101 1.387 . S
C1103 C1105 1.390 . S
C1103 H1107 0.950 . S
H1104 C1100 0.950 . S
C1105 C1103 1.390 . S
C1105 C1106 1.387 . S
C1105 H1108 0.950 . S
C1106 C1105 1.387 . S
C1106 C1109 1.387 . S
H1107 C1103 0.950 . S
H1108 C1105 0.950 . S
C1109 C1100 1.390 . S
C1109 H1102 0.950 . S
C1109 C1106 1.387 . S
C1110 C1111 1.387 . S
C1110 H1114 0.950 . S
C1110 C1119 1.390 . S
C1111 C1110 1.387 . S
C1111 C1113 1.387 . S
H1112 C1119 0.950 1_545 S
C1113 C1111 1.387 . S
C1113 C1115 1.390 . S
C1113 H1117 0.950 . S
H1114 C1110 0.950 . S
C1115 C1113 1.390 . S
C1115 C1116 1.387 . S
C1115 H1118 0.950 . S
C1116 C1115 1.387 . S
C1116 C1119 1.387 . S
H1117 C1113 0.950 . S
H1118 C1115 0.950 . S
C1119 C1110 1.390 . S
C1119 H1112 0.950 1_565 S
C1119 C1116 1.387 . S
C641 C9 3.032 . S
C646 C409 3.032 . S
C651 C49 3.031 . S
C656 C449 3.031 . S
C661 C89 3.031 . S
C666 C329 3.031 . S
C671 C369 3.032 . S
C676 C129 3.032 . S
C681 C178 3.032 . S
C686 C578 3.032 . S
C691 C618 3.032 . S
C696 C218 3.032 . S
C701 C498 3.032 . S
C706 C258 3.032 . S
C711 C298 3.031 . S
C716 C538 3.031 . S
C721 C15 1.470 1_556 S
C726 C166 1.470 1_554 S
C731 C55 1.470 . S
C736 C526 1.470 . S
C741 C95 1.465 . S
C746 C246 1.465 . S
C751 C135 1.466 . S
C756 C606 1.466 . S
C761 C206 1.470 . S
C766 C375 1.470 . S
C771 C455 1.465 . S
C776 C286 1.465 . S
C781 C486 1.470 . S
C786 C335 1.470 . S
C791 C415 1.465 1_556 S
C796 C566 1.465 1_554 S
C801 C6 1.632 . S
C806 C289 1.916 . S
C811 C46 1.633 . S
C816 C489 1.919 . S
C821 C86 1.632 . S
C826 C209 1.916 . S
C831 C126 1.634 . S
C836 C569 1.918 . S
C841 C138 1.915 . S
C846 C175 1.629 . S
C851 C215 1.633 . S
C856 C338 1.919 . S
C861 C255 1.631 . S
C866 C58 1.916 . S
C871 C418 1.915 . S
C876 C295 1.628 . S
C881 C326 1.628 . S
C886 C609 1.915 . S
C891 C169 1.915 . S
C896 C366 1.629 . S
C901 C529 1.918 . S
C906 C406 1.632 . S
C911 C249 1.919 . S
C916 C446 1.633 . S
C921 C495 1.633 . S
C926 C458 1.919 . S
C931 C535 1.629 . S
C936 C18 1.915 . S
C941 C378 1.915 . S
C946 C575 1.630 . S
C951 C615 1.629 . S
C956 C98 1.915 . S
C961 C19 4.045 1_556 S
C966 C370 4.110 . S
C971 C410 4.109 . S
C976 C59 4.045 . S
C981 C99 4.046 . S
C986 C450 4.110 . S
C991 C330 4.109 . S
C996 C139 4.044 . S
C1001 C539 4.109 . S
C1006 C170 4.044 1_554 S
C1011 C579 4.109 . S
C1016 C210 4.044 . S
C1021 C619 4.110 . S
C1026 C250 4.046 . S
C1031 C499 4.109 . S
C1036 C290 4.044 . S
C1041 C50 4.109 . S
C1046 C339 4.044 . S
C1051 C90 4.110 . S
C1056 C379 4.045 1_565 S
C1061 C130 4.110 . S
C1066 C419 4.046 1_556 S
C1071 C459 4.045 1_545 S
C1076 C10 4.110 . S
C1081 C219 4.109 . S
C1086 C490 4.044 . S
C1091 C259 4.109 . S
C1096 C530 4.044 1_545 S
C1101 C299 4.110 . S
C1106 C570 4.046 1_554 S
C1111 C179 4.109 . S
C1116 C610 4.045 1_565 S
