# Generated by pormake.
# Topology unu, (4)-cn, num edge types: 1
# Building blocks:
#     Node 0, Type 0, BuildingBlock: CEKHIL_clean_sbu_0, # of connection points: 4
#     Node 1, Type 0, BuildingBlock: CEKHIL_clean_sbu_0, # of connection points: 4
#     Node 2, Type 0, BuildingBlock: CEKHIL_clean_sbu_0, # of connection points: 4
#     Node 3, Type 0, BuildingBlock: CEKHIL_clean_sbu_0, # of connection points: 4
#     Node 4, Type 0, BuildingBlock: CEKHIL_clean_sbu_0, # of connection points: 4
#     Node 5, Type 0, BuildingBlock: CEKHIL_clean_sbu_0, # of connection points: 4
#     Node 6, Type 0, BuildingBlock: CEKHIL_clean_sbu_0, # of connection points: 4
#     Node 7, Type 0, BuildingBlock: CEKHIL_clean_sbu_0, # of connection points: 4
#     Node 8, Type 0, BuildingBlock: CEKHIL_clean_sbu_0, # of connection points: 4
#     Node 9, Type 0, BuildingBlock: CEKHIL_clean_sbu_0, # of connection points: 4
#     Node 10, Type 0, BuildingBlock: CEKHIL_clean_sbu_0, # of connection points: 4
#     Node 11, Type 0, BuildingBlock: CEKHIL_clean_sbu_0, # of connection points: 4
#     Node 12, Type 0, BuildingBlock: CEKHIL_clean_sbu_0, # of connection points: 4
#     Node 13, Type 0, BuildingBlock: CEKHIL_clean_sbu_0, # of connection points: 4
#     Node 14, Type 0, BuildingBlock: CEKHIL_clean_sbu_0, # of connection points: 4
#     Node 15, Type 0, BuildingBlock: CEKHIL_clean_sbu_0, # of connection points: 4
#     Node 16, Type 0, BuildingBlock: CEKHIL_clean_sbu_0, # of connection points: 4
#     Node 17, Type 0, BuildingBlock: CEKHIL_clean_sbu_0, # of connection points: 4
#     Node 18, Type 0, BuildingBlock: CEKHIL_clean_sbu_0, # of connection points: 4
#     Node 19, Type 0, BuildingBlock: CEKHIL_clean_sbu_0, # of connection points: 4
#     Node 20, Type 0, BuildingBlock: CEKHIL_clean_sbu_0, # of connection points: 4
#     Node 21, Type 0, BuildingBlock: CEKHIL_clean_sbu_0, # of connection points: 4
#     Node 22, Type 0, BuildingBlock: CEKHIL_clean_sbu_0, # of connection points: 4
#     Node 23, Type 0, BuildingBlock: CEKHIL_clean_sbu_0, # of connection points: 4
#     Node 24, Type 0, BuildingBlock: CEKHIL_clean_sbu_0, # of connection points: 4
#     Node 25, Type 0, BuildingBlock: CEKHIL_clean_sbu_0, # of connection points: 4
#     Node 26, Type 0, BuildingBlock: CEKHIL_clean_sbu_0, # of connection points: 4
#     Node 27, Type 0, BuildingBlock: CEKHIL_clean_sbu_0, # of connection points: 4
#     Node 28, Type 0, BuildingBlock: CEKHIL_clean_sbu_0, # of connection points: 4
#     Node 29, Type 0, BuildingBlock: CEKHIL_clean_sbu_0, # of connection points: 4
#     Node 30, Type 0, BuildingBlock: CEKHIL_clean_sbu_0, # of connection points: 4
#     Node 31, Type 0, BuildingBlock: CEKHIL_clean_sbu_0, # of connection points: 4
#     Node 32, Type 0, BuildingBlock: CEKHIL_clean_sbu_0, # of connection points: 4
#     Node 33, Type 0, BuildingBlock: CEKHIL_clean_sbu_0, # of connection points: 4
#     Node 34, Type 0, BuildingBlock: CEKHIL_clean_sbu_0, # of connection points: 4
#     Node 35, Type 0, BuildingBlock: CEKHIL_clean_sbu_0, # of connection points: 4
#     Edge 36, Type (0, 0), BuildingBlock: TEMPAE_clean_linker_10, # of connection points: 2
#     Edge 37, Type (0, 0), BuildingBlock: TEMPAE_clean_linker_10, # of connection points: 2
#     Edge 38, Type (0, 0), BuildingBlock: TEMPAE_clean_linker_10, # of connection points: 2
#     Edge 39, Type (0, 0), BuildingBlock: TEMPAE_clean_linker_10, # of connection points: 2
#     Edge 40, Type (0, 0), BuildingBlock: TEMPAE_clean_linker_10, # of connection points: 2
#     Edge 41, Type (0, 0), BuildingBlock: TEMPAE_clean_linker_10, # of connection points: 2
#     Edge 42, Type (0, 0), BuildingBlock: TEMPAE_clean_linker_10, # of connection points: 2
#     Edge 43, Type (0, 0), BuildingBlock: TEMPAE_clean_linker_10, # of connection points: 2
#     Edge 44, Type (0, 0), BuildingBlock: TEMPAE_clean_linker_10, # of connection points: 2
#     Edge 45, Type (0, 0), BuildingBlock: TEMPAE_clean_linker_10, # of connection points: 2
#     Edge 46, Type (0, 0), BuildingBlock: TEMPAE_clean_linker_10, # of connection points: 2
#     Edge 47, Type (0, 0), BuildingBlock: TEMPAE_clean_linker_10, # of connection points: 2
#     Edge 48, Type (0, 0), BuildingBlock: TEMPAE_clean_linker_10, # of connection points: 2
#     Edge 49, Type (0, 0), BuildingBlock: TEMPAE_clean_linker_10, # of connection points: 2
#     Edge 50, Type (0, 0), BuildingBlock: TEMPAE_clean_linker_10, # of connection points: 2
#     Edge 51, Type (0, 0), BuildingBlock: TEMPAE_clean_linker_10, # of connection points: 2
#     Edge 52, Type (0, 0), BuildingBlock: TEMPAE_clean_linker_10, # of connection points: 2
#     Edge 53, Type (0, 0), BuildingBlock: TEMPAE_clean_linker_10, # of connection points: 2
#     Edge 54, Type (0, 0), BuildingBlock: TEMPAE_clean_linker_10, # of connection points: 2
#     Edge 55, Type (0, 0), BuildingBlock: TEMPAE_clean_linker_10, # of connection points: 2
#     Edge 56, Type (0, 0), BuildingBlock: TEMPAE_clean_linker_10, # of connection points: 2
#     Edge 57, Type (0, 0), BuildingBlock: TEMPAE_clean_linker_10, # of connection points: 2
#     Edge 58, Type (0, 0), BuildingBlock: TEMPAE_clean_linker_10, # of connection points: 2
#     Edge 59, Type (0, 0), BuildingBlock: TEMPAE_clean_linker_10, # of connection points: 2
#     Edge 60, Type (0, 0), BuildingBlock: TEMPAE_clean_linker_10, # of connection points: 2
#     Edge 61, Type (0, 0), BuildingBlock: TEMPAE_clean_linker_10, # of connection points: 2
#     Edge 62, Type (0, 0), BuildingBlock: TEMPAE_clean_linker_10, # of connection points: 2
#     Edge 63, Type (0, 0), BuildingBlock: TEMPAE_clean_linker_10, # of connection points: 2
#     Edge 64, Type (0, 0), BuildingBlock: TEMPAE_clean_linker_10, # of connection points: 2
#     Edge 65, Type (0, 0), BuildingBlock: TEMPAE_clean_linker_10, # of connection points: 2
#     Edge 66, Type (0, 0), BuildingBlock: TEMPAE_clean_linker_10, # of connection points: 2
#     Edge 67, Type (0, 0), BuildingBlock: TEMPAE_clean_linker_10, # of connection points: 2
#     Edge 68, Type (0, 0), BuildingBlock: TEMPAE_clean_linker_10, # of connection points: 2
#     Edge 69, Type (0, 0), BuildingBlock: TEMPAE_clean_linker_10, # of connection points: 2
#     Edge 70, Type (0, 0), BuildingBlock: TEMPAE_clean_linker_10, # of connection points: 2
#     Edge 71, Type (0, 0), BuildingBlock: TEMPAE_clean_linker_10, # of connection points: 2
#     Edge 72, Type (0, 0), BuildingBlock: TEMPAE_clean_linker_10, # of connection points: 2
#     Edge 73, Type (0, 0), BuildingBlock: TEMPAE_clean_linker_10, # of connection points: 2
#     Edge 74, Type (0, 0), BuildingBlock: TEMPAE_clean_linker_10, # of connection points: 2
#     Edge 75, Type (0, 0), BuildingBlock: TEMPAE_clean_linker_10, # of connection points: 2
#     Edge 76, Type (0, 0), BuildingBlock: TEMPAE_clean_linker_10, # of connection points: 2
#     Edge 77, Type (0, 0), BuildingBlock: TEMPAE_clean_linker_10, # of connection points: 2
#     Edge 78, Type (0, 0), BuildingBlock: TEMPAE_clean_linker_10, # of connection points: 2
#     Edge 79, Type (0, 0), BuildingBlock: TEMPAE_clean_linker_10, # of connection points: 2
#     Edge 80, Type (0, 0), BuildingBlock: TEMPAE_clean_linker_10, # of connection points: 2
#     Edge 81, Type (0, 0), BuildingBlock: TEMPAE_clean_linker_10, # of connection points: 2
#     Edge 82, Type (0, 0), BuildingBlock: TEMPAE_clean_linker_10, # of connection points: 2
#     Edge 83, Type (0, 0), BuildingBlock: TEMPAE_clean_linker_10, # of connection points: 2
#     Edge 84, Type (0, 0), BuildingBlock: TEMPAE_clean_linker_10, # of connection points: 2
#     Edge 85, Type (0, 0), BuildingBlock: TEMPAE_clean_linker_10, # of connection points: 2
#     Edge 86, Type (0, 0), BuildingBlock: TEMPAE_clean_linker_10, # of connection points: 2
#     Edge 87, Type (0, 0), BuildingBlock: TEMPAE_clean_linker_10, # of connection points: 2
#     Edge 88, Type (0, 0), BuildingBlock: TEMPAE_clean_linker_10, # of connection points: 2
#     Edge 89, Type (0, 0), BuildingBlock: TEMPAE_clean_linker_10, # of connection points: 2
#     Edge 90, Type (0, 0), BuildingBlock: TEMPAE_clean_linker_10, # of connection points: 2
#     Edge 91, Type (0, 0), BuildingBlock: TEMPAE_clean_linker_10, # of connection points: 2
#     Edge 92, Type (0, 0), BuildingBlock: TEMPAE_clean_linker_10, # of connection points: 2
#     Edge 93, Type (0, 0), BuildingBlock: TEMPAE_clean_linker_10, # of connection points: 2
#     Edge 94, Type (0, 0), BuildingBlock: TEMPAE_clean_linker_10, # of connection points: 2
#     Edge 95, Type (0, 0), BuildingBlock: TEMPAE_clean_linker_10, # of connection points: 2
#     Edge 96, Type (0, 0), BuildingBlock: TEMPAE_clean_linker_10, # of connection points: 2
#     Edge 97, Type (0, 0), BuildingBlock: TEMPAE_clean_linker_10, # of connection points: 2
#     Edge 98, Type (0, 0), BuildingBlock: TEMPAE_clean_linker_10, # of connection points: 2
#     Edge 99, Type (0, 0), BuildingBlock: TEMPAE_clean_linker_10, # of connection points: 2
#     Edge 100, Type (0, 0), BuildingBlock: TEMPAE_clean_linker_10, # of connection points: 2
#     Edge 101, Type (0, 0), BuildingBlock: TEMPAE_clean_linker_10, # of connection points: 2
#     Edge 102, Type (0, 0), BuildingBlock: TEMPAE_clean_linker_10, # of connection points: 2
#     Edge 103, Type (0, 0), BuildingBlock: TEMPAE_clean_linker_10, # of connection points: 2
#     Edge 104, Type (0, 0), BuildingBlock: TEMPAE_clean_linker_10, # of connection points: 2
#     Edge 105, Type (0, 0), BuildingBlock: TEMPAE_clean_linker_10, # of connection points: 2
#     Edge 106, Type (0, 0), BuildingBlock: TEMPAE_clean_linker_10, # of connection points: 2
#     Edge 107, Type (0, 0), BuildingBlock: TEMPAE_clean_linker_10, # of connection points: 2
# Relax obj value: 0.188
# Max RMSD: 0.232
# Mean RMSD: 0.232
data_MOF--net-unu--node1-CEKHIL_clean_sbu_0--edge1-TEMPAE_clean_linker_10
_symmetry_space_group_name_H-M    P1
_symmetry_Int_Tables_number       1
_symmetry_cell_setting            triclinic
loop_
_symmetry_equiv_pos_as_xyz
'x, y, z'
_cell_length_a     43.870978
_cell_length_b     43.886533
_cell_length_c     100.81007
_cell_angle_alpha  90.003683
_cell_angle_beta   90.003843
_cell_angle_gamma 119.98986
loop_
_atom_site_label
_atom_site_type_symbol
_atom_site_fract_x
_atom_site_fract_y
_atom_site_fract_z
_atom_type_partial_charge
Co0 Co 0.21354 0.02781 0.12243 0.0
O1 O 0.24369 0.00805 0.12312 0.0
O2 O 0.25385 0.05419 0.11092 0.0
C3 C 0.16233 0.9771 0.11986 0.0
O4 O 0.1871 0.05452 0.11932 0.0
Co5 Co 0.15875 0.00941 0.14495 0.0
O6 O 0.13806 0.02747 0.13183 0.0
C7 C 0.23208 0.06509 0.14932 0.0
C8 C 0.26387 0.03222 0.11477 0.0
C9 C 0.15647 0.0491 0.12276 0.0
O10 O 0.23984 0.05991 0.13758 0.0
O11 O 0.20134 0.04716 0.15441 0.0
O12 O 0.18269 0.99228 0.10975 0.0
O13 O 0.17571 0.99048 0.13131 0.0
Co14 Co 0.98273 0.1871 0.11944 0.0
O15 O 0.00313 0.23695 0.11881 0.0
O16 O 0.95775 0.19951 0.10657 0.0
C17 C 0.03328 0.18571 0.11851 0.0
O18 O 0.95627 0.1337 0.11764 0.0
Co19 Co -0.00076 0.15649 0.1445 0.0
O20 O 0.97993 0.11415 0.13299 0.0
C21 C 0.94413 0.17544 0.14592 0.0
C22 C 0.98029 0.23198 0.10969 0.0
C23 C 0.9602 0.10917 0.12297 0.0
O24 O 0.94882 0.18324 0.13355 0.0
O25 O 0.96332 0.16669 0.15264 0.0
O26 O 0.01927 0.18969 0.10779 0.0
O27 O 0.01908 0.18787 0.12948 0.0
Co28 Co 0.82353 0.79573 0.1151 0.0
O29 O 0.77368 0.76828 0.11346 0.0
O30 O 0.81135 0.75941 0.10173 0.0
C31 C 0.827 0.84859 0.11469 0.0
O32 O 0.87725 0.82124 0.11437 0.0
Co33 Co 0.85177 0.83937 0.14102 0.0
O34 O 0.89539 0.86312 0.1302 0.0
C35 C 0.82919 0.76432 0.14153 0.0
C36 C 0.77887 0.75066 0.10434 0.0
C37 C 0.90138 0.84914 0.12017 0.0
O38 O 0.8237 0.76312 0.12899 0.0
O39 O 0.83795 0.7917 0.14861 0.0
O40 O 0.82421 0.83183 0.10374 0.0
O41 O 0.8227 0.83074 0.12545 0.0
Co42 Co 0.0169 0.20776 0.37442 0.0
O43 O 0.99385 0.23487 0.37409 0.0
O44 O 0.04042 0.24729 0.38649 0.0
C45 C 0.96809 0.15475 0.37614 0.0
O46 O 0.04621 0.18391 0.37738 0.0
Co47 Co 0.00389 0.15665 0.35107 0.0
O48 O 0.0222 0.13614 0.36415 0.0
C49 C 0.05614 0.23161 0.34798 0.0
C50 C 0.01655 0.25501 0.38289 0.0
C51 C 0.04242 0.1541 0.37364 0.0
O52 O 0.04924 0.23708 0.35981 0.0
O53 O 0.04034 0.20143 0.34235 0.0
O54 O 0.98164 0.1744 0.38654 0.0
O55 O 0.98178 0.16963 0.36489 0.0
Co56 Co 0.79133 0.817 0.38596 0.0
O57 O 0.76155 0.76779 0.38896 0.0
O58 O 0.75495 0.80975 0.39859 0.0
C59 C 0.84334 0.81876 0.38761 0.0
O60 O 0.81813 0.87046 0.38511 0.0
Co61 Co 0.83683 0.83955 0.36031 0.0
O62 O 0.86045 0.88565 0.36964 0.0
C63 C 0.76228 0.81875 0.35851 0.0
C64 C 0.74399 0.77642 0.39695 0.0
C65 C 0.84598 0.89342 0.379 0.0
O66 O 0.76019 0.81568 0.37117 0.0
O67 O 0.78988 0.8254 0.35191 0.0
O68 O 0.82644 0.81863 0.39821 0.0
O69 O 0.82594 0.81277 0.37663 0.0
Co70 Co 0.18193 0.98214 0.37925 0.0
O71 O 0.23204 0.00445 0.37976 0.0
O72 O 0.19605 0.95808 0.39186 0.0
C73 C 0.17866 0.03162 0.38042 0.0
O74 O 0.12841 0.95353 0.38137 0.0
Co75 Co 0.14723 0.9965 0.35503 0.0
O76 O 0.10651 0.97756 0.36725 0.0
C77 C 0.16966 0.94382 0.3527 0.0
C78 C 0.22817 0.98158 0.3887 0.0
C79 C 0.10291 0.95732 0.37692 0.0
O80 O 0.1801 0.94977 0.36481 0.0
O81 O 0.15667 0.96043 0.34667 0.0
O82 O 0.18304 0.01767 0.39108 0.0
O83 O 0.1808 0.01774 0.36936 0.0
Co84 Co 0.79329 0.97674 0.8816 0.0
O85 O 0.76498 0.99831 0.88281 0.0
O86 O 0.75653 0.9524 0.89478 0.0
C87 C 0.84584 0.02655 0.88225 0.0
O88 O 0.81932 0.94914 0.88273 0.0
Co89 Co 0.83836 0.99253 0.85602 0.0
O90 O 0.86188 0.97297 0.86715 0.0
C91 C 0.7635 0.9394 0.85508 0.0
C92 C 0.74722 0.9756 0.89196 0.0
C93 C 0.8475 0.95302 0.87715 0.0
O94 O 0.76163 0.94362 0.86758 0.0
O95 O 0.79115 0.95829 0.84816 0.0
O96 O 0.82853 0.01256 0.8931 0.0
O97 O 0.8286 0.01277 0.87139 0.0
Co98 Co 0.02424 0.81641 0.87551 0.0
O99 O 0.00217 0.76634 0.87477 0.0
O100 O 0.04818 0.80033 0.88737 0.0
C101 C 0.97461 0.81924 0.87749 0.0
O102 O 0.05264 0.86943 0.87885 0.0
Co103 Co 0.00987 0.85512 0.85272 0.0
O104 O 0.0274 0.89301 0.86618 0.0
C105 C 0.06384 0.83468 0.84908 0.0
C106 C 0.02482 0.76875 0.88356 0.0
C107 C 0.04809 0.89522 0.87548 0.0
O108 O 0.05702 0.82107 0.86074 0.0
O109 O 0.0474 0.84886 0.84379 0.0
O110 O 0.98852 0.8131 0.88777 0.0
O111 O 0.98855 0.81898 0.86619 0.0
Co112 Co 0.18473 0.20646 0.87999 0.0
O113 O 0.23465 0.23525 0.88055 0.0
O114 O 0.19779 0.24416 0.89275 0.0
C115 C 0.18253 0.15418 0.88102 0.0
O116 O 0.13134 0.18044 0.88184 0.0
Co117 Co 0.15296 0.15893 0.85512 0.0
O118 O 0.11088 0.13649 0.86679 0.0
C119 C 0.17386 0.2335 0.8534 0.0
C120 C 0.23014 0.25363 0.88958 0.0
C121 C 0.10643 0.15191 0.87671 0.0
O122 O 0.18158 0.23667 0.86578 0.0
O123 O 0.16443 0.20524 0.84679 0.0
O124 O 0.1867 0.17231 0.89171 0.0
O125 O 0.18477 0.17044 0.87002 0.0
Co126 Co 0.98286 0.79382 0.61821 0.0
O127 O 0.00412 0.76521 0.61711 0.0
O128 O 0.95813 0.75684 0.60518 0.0
C129 C 0.03267 0.84632 0.61743 0.0
O130 O 0.95538 0.8199 0.61696 0.0
Co131 Co 0.99872 0.83935 0.64365 0.0
O132 O 0.97865 0.86242 0.63256 0.0
C133 C 0.94516 0.7647 0.64473 0.0
C134 C 0.98105 0.74722 0.60808 0.0
C135 C 0.95884 0.8479 0.62254 0.0
O136 O 0.94972 0.76258 0.63227 0.0
O137 O 0.96398 0.79245 0.6516 0.0
O138 O 0.0187 0.82871 0.60664 0.0
O139 O 0.01898 0.82933 0.62835 0.0
Co140 Co 0.20099 0.18555 0.61564 0.0
O141 O 0.22732 0.23536 0.6135 0.0
O142 O 0.23946 0.19792 0.60331 0.0
C143 C 0.14738 0.17987 0.6135 0.0
O144 O 0.17789 0.13198 0.61539 0.0
Co145 Co 0.15161 0.15477 0.64005 0.0
O146 O 0.13098 0.11172 0.62898 0.0
C147 C 0.22714 0.17911 0.64302 0.0
C148 C 0.24697 0.23031 0.60524 0.0
C149 C 0.14872 0.10692 0.62006 0.0
O150 O 0.23202 0.18821 0.63076 0.0
O151 O 0.19722 0.16602 0.64881 0.0
O152 O 0.1658 0.18228 0.60307 0.0
O153 O 0.1636 0.18528 0.62473 0.0
Co154 Co 0.80965 0.01269 0.62178 0.0
O155 O 0.75965 0.99011 0.62064 0.0
O156 O 0.79649 0.03826 0.60952 0.0
C157 C 0.81421 0.96417 0.61978 0.0
O158 O 0.86327 0.04166 0.62037 0.0
Co159 Co 0.84177 0.99579 0.64614 0.0
O160 O 0.88375 0.01639 0.63454 0.0
C161 C 0.81861 0.04761 0.64897 0.0
C162 C 0.76419 0.01415 0.61213 0.0
C163 C 0.88831 0.03735 0.62502 0.0
O164 O 0.80971 0.04306 0.63669 0.0
O165 O 0.8311 0.03052 0.65495 0.0
O166 O 0.81014 0.97915 0.60936 0.0
O167 O 0.81037 0.97604 0.63107 0.0
Co168 Co 0.87164 0.35985 0.44786 0.0
O169 O 0.90224 0.34092 0.44643 0.0
O170 O 0.90793 0.3863 0.43477 0.0
C171 C 0.8204 0.30874 0.44707 0.0
O172 O 0.84343 0.38521 0.44698 0.0
Co173 Co 0.8263 0.34129 0.47346 0.0
O174 O 0.80178 0.36073 0.46286 0.0
C175 C 0.90071 0.39539 0.47467 0.0
C176 C 0.9195 0.36487 0.43758 0.0
C177 C 0.81528 0.38071 0.4528 0.0
O178 O 0.90233 0.39291 0.46204 0.0
O179 O 0.87341 0.375 0.48151 0.0
O180 O 0.83735 0.32352 0.43623 0.0
O181 O 0.83745 0.32264 0.45795 0.0
Co182 Co 0.63553 0.51286 0.44347 0.0
O183 O 0.65239 0.56079 0.43889 0.0
O184 O 0.60396 0.51541 0.4306 0.0
C185 C 0.68666 0.51309 0.44186 0.0
O186 O 0.61161 0.45979 0.44608 0.0
Co187 Co 0.66302 0.49909 0.46992 0.0
O188 O 0.64114 0.45077 0.46249 0.0
C189 C 0.60765 0.5176 0.47085 0.0
C190 C 0.62527 0.54926 0.43117 0.0
C191 C 0.61837 0.43945 0.45318 0.0
O192 O 0.60659 0.51631 0.45814 0.0
O193 O 0.63045 0.51434 0.47769 0.0
O194 O 0.66844 0.51019 0.4313 0.0
O195 O 0.67614 0.52123 0.45261 0.0
Co196 Co 0.48208 0.12323 0.45294 0.0
O197 O 0.43204 0.09479 0.45247 0.0
O198 O 0.46844 0.08481 0.44047 0.0
C199 C 0.48522 0.17573 0.45144 0.0
O200 O 0.53562 0.1487 0.45089 0.0
Co201 Co 0.51614 0.17302 0.47703 0.0
O202 O 0.55653 0.19533 0.46466 0.0
C203 C 0.49455 0.09825 0.47967 0.0
C204 C 0.4362 0.07556 0.44371 0.0
C205 C 0.56055 0.17857 0.45513 0.0
O206 O 0.48423 0.09337 0.46756 0.0
O207 O 0.50723 0.12793 0.4856 0.0
O208 O 0.48077 0.15703 0.44088 0.0
O209 O 0.4827 0.16005 0.46261 0.0
Co210 Co 0.69026 0.54175 0.71239 0.0
O211 O 0.66904 0.57054 0.71243 0.0
O212 O 0.71522 0.58079 0.7246 0.0
C213 C 0.64015 0.48981 0.71422 0.0
O214 O 0.71783 0.51588 0.71493 0.0
Co215 Co 0.67397 0.49004 0.68894 0.0
O216 O 0.691 0.46792 0.70184 0.0
C217 C 0.72857 0.56429 0.68575 0.0
C218 C 0.69212 0.58982 0.72126 0.0
C219 C 0.71221 0.48539 0.71116 0.0
O220 O 0.72259 0.57046 0.69763 0.0
O221 O 0.71158 0.53408 0.68019 0.0
O222 O 0.65479 0.50905 0.72463 0.0
O223 O 0.65374 0.50457 0.70295 0.0
Co224 Co 0.44899 0.15265 0.71372 0.0
O225 O 0.41598 0.1034 0.71357 0.0
O226 O 0.41083 0.14234 0.72598 0.0
C227 C 0.49865 0.14974 0.71543 0.0
O228 O 0.47921 0.2057 0.71605 0.0
Co229 Co 0.49917 0.18161 0.68937 0.0
O230 O 0.52319 0.22342 0.70111 0.0
C231 C 0.42676 0.16709 0.6867 0.0
C232 C 0.39804 0.10979 0.72221 0.0
C233 C 0.50868 0.22925 0.71101 0.0
O234 O 0.42239 0.16015 0.69914 0.0
O235 O 0.45463 0.17339 0.68039 0.0
O236 O 0.47977 0.14612 0.72586 0.0
O237 O 0.48396 0.14937 0.70423 0.0
Co238 Co 0.83723 0.29905 0.71628 0.0
O239 O 0.88707 0.31899 0.71607 0.0
O240 O 0.85116 0.27539 0.72925 0.0
C241 C 0.83666 0.35006 0.71674 0.0
O242 O 0.7839 0.27316 0.71882 0.0
Co243 Co 0.80453 0.31373 0.69138 0.0
O244 O 0.76347 0.29611 0.70351 0.0
C245 C 0.82436 0.25923 0.69004 0.0
C246 C 0.88326 0.297 0.72535 0.0
C247 C 0.75914 0.27713 0.71371 0.0
O248 O 0.83185 0.26384 0.70245 0.0
O249 O 0.81573 0.27846 0.68328 0.0
O250 O 0.8414 0.33694 0.72756 0.0
O251 O 0.83738 0.33454 0.70592 0.0
Co252 Co 0.46305 0.31295 0.21921 0.0
O253 O 0.43417 0.33274 0.22323 0.0
O254 O 0.42905 0.28464 0.23271 0.0
C255 C 0.51499 0.36325 0.2198 0.0
O256 O 0.49009 0.2866 0.21741 0.0
Co257 Co 0.50331 0.33451 0.19241 0.0
O258 O 0.52907 0.31309 0.20083 0.0
C259 C 0.42885 0.28019 0.19251 0.0
C260 C 0.41835 0.30739 0.23169 0.0
C261 C 0.51692 0.29154 0.21051 0.0
O262 O 0.42924 0.28229 0.2052 0.0
O263 O 0.4551 0.30065 0.18522 0.0
O264 O 0.49991 0.34689 0.2307 0.0
O265 O 0.49587 0.35139 0.2092 0.0
Co266 Co 0.68875 0.14771 0.21211 0.0
O267 O 0.66734 0.09791 0.21374 0.0
O268 O 0.7145 0.13601 0.22495 0.0
C269 C 0.63939 0.15096 0.21355 0.0
O270 O 0.71645 0.20162 0.21282 0.0
Co271 Co 0.67009 0.17593 0.18692 0.0
O272 O 0.69036 0.2192 0.19779 0.0
C273 C 0.72437 0.15569 0.18514 0.0
C274 C 0.69111 0.10332 0.22249 0.0
C275 C 0.71153 0.22557 0.20742 0.0
O276 O 0.71995 0.14773 0.19751 0.0
O277 O 0.70628 0.16643 0.17877 0.0
O278 O 0.6545 0.14812 0.22417 0.0
O279 O 0.65155 0.14638 0.20247 0.0
Co280 Co 0.85295 0.53947 0.21069 0.0
O281 O 0.90299 0.56808 0.21141 0.0
O282 O 0.86595 0.57888 0.22259 0.0
C283 C 0.84979 0.48702 0.21312 0.0
O284 O 0.79942 0.51428 0.21242 0.0
Co285 Co 0.81979 0.48787 0.18706 0.0
O286 O 0.77853 0.46692 0.19904 0.0
C287 C 0.84059 0.5622 0.18343 0.0
C288 C 0.89835 0.58805 0.21966 0.0
C289 C 0.77434 0.48446 0.20823 0.0
O290 O 0.85125 0.56819 0.1955 0.0
O291 O 0.82786 0.532 0.1779 0.0
O292 O 0.85374 0.50652 0.22339 0.0
O293 O 0.85272 0.50186 0.20172 0.0
Co294 Co 0.63813 0.12337 0.95295 0.0
O295 O 0.6589 0.09417 0.9539 0.0
O296 O 0.6126 0.08264 0.94155 0.0
C297 C 0.68839 0.17501 0.95034 0.0
O298 O 0.61065 0.1489 0.94948 0.0
Co299 Co 0.65503 0.17834 0.97526 0.0
O300 O 0.63708 0.19831 0.9618 0.0
C301 C 0.60083 0.10464 0.97988 0.0
C302 C 0.63521 0.07352 0.94549 0.0
C303 C 0.61584 0.1796 0.95267 0.0
O304 O 0.60605 0.09698 0.96812 0.0
O305 O 0.61829 0.1355 0.9849 0.0
O306 O 0.67363 0.1543 0.94028 0.0
O307 O 0.67484 0.16182 0.9618 0.0
Co308 Co 0.87175 0.51289 0.9468 0.0
O309 O 0.90037 0.5629 0.94638 0.0
O310 O 0.91028 0.5265 0.93436 0.0
C311 C 0.81948 0.51061 0.94533 0.0
O312 O 0.84615 0.45935 0.94473 0.0
Co313 Co 0.82142 0.47866 0.97075 0.0
O314 O 0.79911 0.43846 0.95829 0.0
C315 C 0.89617 0.49969 0.97352 0.0
C316 C 0.91958 0.55874 0.93762 0.0
C317 C 0.81618 0.4344 0.94889 0.0
O318 O 0.90142 0.5104 0.96145 0.0
O319 O 0.86633 0.48699 0.97935 0.0
O320 O 0.83802 0.51467 0.93476 0.0
O321 O 0.83507 0.51251 0.95646 0.0
Co322 Co 0.48194 0.3553 0.95211 0.0
O323 O 0.4321 0.33568 0.9524 0.0
O324 O 0.46879 0.38174 0.94031 0.0
C325 C 0.48227 0.30445 0.94996 0.0
O326 O 0.53522 0.38164 0.94933 0.0
Co327 Co 0.51676 0.33727 0.97531 0.0
O328 O 0.55632 0.35509 0.96257 0.0
C329 C 0.49788 0.3921 0.9791 0.0
C330 C 0.43657 0.35981 0.94394 0.0
C331 C 0.56012 0.37615 0.95318 0.0
O332 O 0.48687 0.38751 0.96708 0.0
O333 O 0.51 0.37405 0.9846 0.0
O334 O 0.47764 0.31948 0.93967 0.0
O335 O 0.48185 0.31814 0.9613 0.0
Co336 Co 0.53816 0.68657 0.78688 0.0
O337 O 0.56699 0.66529 0.78664 0.0
O338 O 0.57705 0.71174 0.77468 0.0
C339 C 0.48581 0.63667 0.78512 0.0
O340 O 0.51274 0.71452 0.7845 0.0
Co341 Co 0.48698 0.67073 0.81049 0.0
O342 O 0.46549 0.68932 0.79797 0.0
C343 C 0.56148 0.72476 0.81356 0.0
C344 C 0.58636 0.68883 0.77795 0.0
C345 C 0.48293 0.71013 0.78855 0.0
O346 O 0.56725 0.71877 0.80163 0.0
O347 O 0.53138 0.70786 0.81922 0.0
O348 O 0.50502 0.65116 0.77469 0.0
O349 O 0.50084 0.6502 0.79636 0.0
Co350 Co 0.3133 0.8523 0.77998 0.0
O351 O 0.33413 0.90163 0.77713 0.0
O352 O 0.28647 0.86103 0.76668 0.0
C353 C 0.36323 0.84987 0.77922 0.0
O354 O 0.28623 0.79866 0.78052 0.0
Co355 Co 0.33265 0.82913 0.80628 0.0
O356 O 0.31178 0.78357 0.79668 0.0
C357 C 0.27898 0.85009 0.80676 0.0
C358 C 0.30972 0.89411 0.76842 0.0
C359 C 0.29084 0.77572 0.78684 0.0
O360 O 0.28183 0.8536 0.79412 0.0
O361 O 0.29885 0.84305 0.81387 0.0
O362 O 0.34777 0.85068 0.76836 0.0
O363 O 0.35081 0.85566 0.79 0.0
Co364 Co 0.14679 0.45993 0.78568 0.0
O365 O 0.09659 0.43367 0.78559 0.0
O366 O 0.13049 0.42044 0.77348 0.0
C367 C 0.15219 0.51347 0.78392 0.0
O368 O 0.20019 0.48312 0.78325 0.0
Co369 Co 0.18387 0.51061 0.8093 0.0
O370 O 0.22335 0.53091 0.79649 0.0
C371 C 0.16054 0.43539 0.81228 0.0
C372 C 0.0989 0.41333 0.77684 0.0
C373 C 0.2261 0.51287 0.78715 0.0
O374 O 0.14831 0.42992 0.80041 0.0
O375 O 0.17505 0.46559 0.8179 0.0
O376 O 0.14656 0.49409 0.77347 0.0
O377 O 0.14979 0.49811 0.79515 0.0
Co378 Co 0.35748 0.87085 0.05127 0.0
O379 O 0.33501 0.89791 0.05392 0.0
O380 O 0.38235 0.90617 0.0649 0.0
C381 C 0.30841 0.81777 0.05157 0.0
O382 O 0.38598 0.84564 0.05096 0.0
Co383 Co 0.34063 0.82896 0.02484 0.0
O384 O 0.36169 0.8049 0.03477 0.0
C385 C 0.39186 0.90441 0.0247 0.0
C386 C 0.35831 0.9149 0.06299 0.0
C387 C 0.38211 0.81825 0.04473 0.0
O388 O 0.38903 0.90464 0.03737 0.0
O389 O 0.37273 0.87741 0.01751 0.0
O390 O 0.32302 0.83376 0.06257 0.0
O391 O 0.32109 0.83644 0.04092 0.0
Co392 Co 0.12264 0.47977 0.04429 0.0
O393 O 0.09191 0.43011 0.04492 0.0
O394 O 0.08458 0.46856 0.05672 0.0
C395 C 0.17397 0.48018 0.046 0.0
O396 O 0.15071 0.5332 0.0459 0.0
Co397 Co 0.17098 0.50835 0.01946 0.0
O398 O 0.19405 0.55131 0.03065 0.0
C399 C 0.09728 0.48978 0.01715 0.0
C400 C 0.07352 0.43585 0.05357 0.0
C401 C 0.17951 0.55713 0.04054 0.0
O402 O 0.09395 0.48389 0.02967 0.0
O403 O 0.12523 0.49704 0.01068 0.0
O404 O 0.15526 0.47658 0.05647 0.0
O405 O 0.15837 0.4778 0.03481 0.0
Co406 Co 0.51312 0.63614 0.05045 0.0
O407 O 0.56274 0.65489 0.05148 0.0
O408 O 0.52353 0.6094 0.06326 0.0
C409 C 0.51295 0.68722 0.05156 0.0
O410 O 0.4595 0.61065 0.05149 0.0
Co411 Co 0.48591 0.65554 0.02513 0.0
O412 O 0.44219 0.6358 0.03591 0.0
C413 C 0.50545 0.60093 0.02349 0.0
C414 C 0.55633 0.63048 0.06007 0.0
C415 C 0.4358 0.6153 0.04579 0.0
O416 O 0.51007 0.60326 0.03608 0.0
O417 O 0.49858 0.62156 0.01679 0.0
O418 O 0.5155 0.6723 0.0623 0.0
O419 O 0.51592 0.67358 0.04059 0.0
Co420 Co 0.1257 0.6361 0.54663 0.0
O421 O 0.09743 0.65787 0.54619 0.0
O422 O 0.08516 0.61077 0.55816 0.0
C423 C 0.17791 0.68547 0.5492 0.0
O424 O 0.1505 0.60763 0.54951 0.0
Co425 Co 0.17947 0.6528 0.52388 0.0
O426 O 0.19963 0.63429 0.53704 0.0
C427 C 0.10517 0.60026 0.51948 0.0
C428 C 0.07659 0.63399 0.5545 0.0
C429 C 0.1811 0.61283 0.54614 0.0
O430 O 0.09827 0.60508 0.53141 0.0
O431 O 0.13586 0.61723 0.51429 0.0
O432 O 0.15763 0.67063 0.55936 0.0
O433 O 0.16405 0.67263 0.53775 0.0
Co434 Co 0.36234 0.48515 0.54504 0.0
O435 O 0.34324 0.43542 0.5439 0.0
O436 O 0.3885 0.47101 0.55656 0.0
C437 C 0.31088 0.48433 0.54736 0.0
O438 O 0.38822 0.538 0.54873 0.0
Co439 Co 0.34439 0.52281 0.52286 0.0
O440 O 0.36136 0.56049 0.5364 0.0
C441 C 0.40051 0.5058 0.51835 0.0
C442 C 0.36692 0.43916 0.55246 0.0
C443 C 0.38259 0.56322 0.54556 0.0
O444 O 0.39535 0.49246 0.53003 0.0
O445 O 0.38237 0.51848 0.51336 0.0
O446 O 0.32575 0.47888 0.55751 0.0
O447 O 0.32526 0.48567 0.536 0.0
Co448 Co 0.51542 0.87195 0.54962 0.0
O449 O 0.56473 0.90441 0.55009 0.0
O450 O 0.52517 0.90947 0.5621 0.0
C451 C 0.51771 0.822 0.55106 0.0
O452 O 0.46214 0.84206 0.55139 0.0
Co453 Co 0.48779 0.82343 0.52479 0.0
O454 O 0.44498 0.79913 0.53603 0.0
C455 C 0.50389 0.89636 0.52257 0.0
C456 C 0.55802 0.92206 0.55876 0.0
C457 C 0.4387 0.81306 0.54601 0.0
O458 O 0.50952 0.89973 0.53511 0.0
O459 O 0.49782 0.86883 0.51607 0.0
O460 O 0.52062 0.84015 0.56164 0.0
O461 O 0.51901 0.83747 0.53996 0.0
Co462 Co 0.30856 0.46073 0.28082 0.0
O463 O 0.32416 0.42729 0.27963 0.0
O464 O 0.27991 0.42475 0.26798 0.0
C465 C 0.36129 0.51029 0.27975 0.0
O466 O 0.28601 0.49144 0.27989 0.0
Co467 Co 0.33018 0.50677 0.30632 0.0
O468 O 0.31154 0.53242 0.29595 0.0
C469 C 0.27211 0.43425 0.30769 0.0
C470 C 0.29913 0.41084 0.27107 0.0
C471 C 0.29133 0.51959 0.28591 0.0
O472 O 0.27467 0.43207 0.29511 0.0
O473 O 0.29377 0.46095 0.31454 0.0
O474 O 0.34581 0.49317 0.26902 0.0
O475 O 0.34706 0.49392 0.29072 0.0
Co476 Co 0.54273 0.84834 0.28644 0.0
O477 O 0.57095 0.89842 0.28731 0.0
O478 O 0.58272 0.86463 0.27451 0.0
C479 C 0.49041 0.84593 0.28464 0.0
O480 O 0.51777 0.79527 0.28299 0.0
Co481 Co 0.48977 0.80971 0.30932 0.0
O482 O 0.46939 0.77166 0.29593 0.0
C483 C 0.56424 0.83039 0.3129 0.0
C484 C 0.59114 0.89616 0.27847 0.0
C485 C 0.48756 0.76941 0.28651 0.0
O486 O 0.57083 0.84332 0.30113 0.0
O487 O 0.53377 0.81673 0.31828 0.0
O488 O 0.51027 0.85209 0.2743 0.0
O489 O 0.5047 0.84585 0.29587 0.0
Co490 Co 0.15227 0.69526 0.28404 0.0
O491 O 0.10226 0.67342 0.28392 0.0
O492 O 0.13769 0.71898 0.27139 0.0
C493 C 0.15546 0.64582 0.28289 0.0
O494 O 0.20562 0.72305 0.28175 0.0
Co495 Co 0.18566 0.68038 0.30864 0.0
O496 O 0.2267 0.6993 0.29645 0.0
C497 C 0.16321 0.7328 0.31071 0.0
C498 C 0.10568 0.69573 0.27483 0.0
C499 C 0.23066 0.71902 0.28653 0.0
O500 O 0.15563 0.72863 0.29831 0.0
O501 O 0.17302 0.71411 0.31719 0.0
O502 O 0.15031 0.6593 0.27226 0.0
O503 O 0.15331 0.65969 0.29394 0.0
C504 C 0.251 0.11616 0.16458 0.0
C505 C 0.25966 0.09517 0.15677 0.0
C506 C 0.27741 0.14741 0.17033 0.0
C507 C 0.31317 0.15726 0.16849 0.0
C508 C 0.32196 0.13555 0.16093 0.0
C509 C 0.29509 0.10501 0.155 0.0
C510 C 0.2671 0.1703 0.1781 0.0
C511 C 0.35974 0.14458 0.1591 0.0
C512 C 0.38726 0.25144 0.17346 0.0
C513 C 0.39792 0.24993 0.18642 0.0
C514 C 0.35875 0.22175 0.16763 0.0
C515 C 0.34148 0.18969 0.1748 0.0
C516 C 0.35219 0.18815 0.18789 0.0
C517 C 0.37991 0.21839 0.19359 0.0
C518 C 0.34735 0.22454 0.15377 0.0
C519 C 0.33519 0.15425 0.19572 0.0
H520 H 0.22361 0.10888 0.16575 0.0
H521 H 0.30178 0.08878 0.14893 0.0
H522 H 0.27678 0.17331 0.18845 0.0
H523 H 0.27961 0.197 0.17366 0.0
H524 H 0.23815 0.15932 0.17833 0.0
H525 H 0.362 0.12431 0.15327 0.0
H526 H 0.37475 0.1702 0.15392 0.0
H527 H 0.37236 0.14736 0.1689 0.0
H528 H 0.40108 0.27582 0.16792 0.0
H529 H 0.38838 0.21694 0.20356 0.0
H530 H 0.31868 0.21507 0.15361 0.0
H531 H 0.35209 0.20753 0.14694 0.0
H532 H 0.36166 0.25194 0.14995 0.0
H533 H 0.30648 0.14392 0.19662 0.0
H534 H 0.34646 0.15762 0.20584 0.0
H535 H 0.33873 0.13406 0.19042 0.0
C536 C 0.76453 0.13137 0.18216 0.0
C537 C 0.75419 0.15563 0.17843 0.0
C538 C 0.79515 0.13344 0.17693 0.0
C539 C 0.81644 0.16114 0.16812 0.0
C540 C 0.80596 0.18557 0.16426 0.0
C541 C 0.77463 0.1822 0.16932 0.0
C542 C 0.80482 0.10616 0.1809 0.0
C543 C 0.82833 0.21586 0.15509 0.0
C544 C 0.9125 0.18612 0.16442 0.0
C545 C 0.91201 0.17185 0.15197 0.0
C546 C 0.88154 0.18312 0.1698 0.0
C547 C 0.8494 0.16428 0.16273 0.0
C548 C 0.84877 0.14889 0.15034 0.0
C549 C 0.88021 0.1534 0.14502 0.0
C550 C 0.88329 0.20065 0.18288 0.0
C551 C 0.8149 0.12757 0.14272 0.0
H552 H 0.7487 0.11082 0.18922 0.0
H553 H 0.76696 0.20133 0.16661 0.0
H554 H 0.8083 0.09357 0.17192 0.0
H555 H 0.83025 0.1189 0.18629 0.0
H556 H 0.78454 0.08537 0.18734 0.0
H557 H 0.81688 0.23307 0.15333 0.0
H558 H 0.85506 0.23201 0.15936 0.0
H559 H 0.83141 0.20576 0.14539 0.0
H560 H 0.93719 0.20038 0.16975 0.0
H561 H 0.87986 0.14189 0.13545 0.0
H562 H 0.8657 0.18077 0.19021 0.0
H563 H 0.87388 0.2197 0.18159 0.0
H564 H 0.9104 0.21478 0.18701 0.0
H565 H 0.79506 0.10622 0.14908 0.0
H566 H 0.8187 0.11564 0.1336 0.0
H567 H 0.8039 0.14452 0.13984 0.0
C568 C 0.86665 0.62602 0.17842 0.0
C569 C 0.84032 0.59114 0.17611 0.0
C570 C 0.86482 0.65413 0.17264 0.0
C571 C 0.83535 0.64716 0.16473 0.0
C572 C 0.80874 0.61195 0.16233 0.0
C573 C 0.81182 0.58429 0.1679 0.0
C574 C 0.89431 0.69126 0.17506 0.0
C575 C 0.77654 0.60353 0.15421 0.0
C576 C 0.81693 0.72262 0.16044 0.0
C577 C 0.8293 0.73376 0.14755 0.0
C578 C 0.81785 0.69377 0.16607 0.0
C579 C 0.83272 0.67674 0.15878 0.0
C580 C 0.84566 0.68831 0.14582 0.0
C581 C 0.84326 0.71629 0.14029 0.0
C582 C 0.80288 0.68146 0.17978 0.0
C583 C 0.86278 0.67167 0.1379 0.0
H584 H 0.88867 0.63129 0.18479 0.0
H585 H 0.79113 0.55734 0.16631 0.0
H586 H 0.90504 0.70478 0.16546 0.0
H587 H 0.88414 0.70638 0.18044 0.0
H588 H 0.91612 0.69205 0.18094 0.0
H589 H 0.7579 0.57478 0.15351 0.0
H590 H 0.76263 0.61628 0.1587 0.0
H591 H 0.78438 0.61423 0.14403 0.0
H592 H 0.80609 0.73612 0.16603 0.0
H593 H 0.85336 0.72526 0.13038 0.0
H594 H 0.824 0.68463 0.18666 0.0
H595 H 0.78286 0.65305 0.17954 0.0
H596 H 0.79052 0.69626 0.18382 0.0
H597 H 0.88554 0.67368 0.14346 0.0
H598 H 0.87213 0.68428 0.12805 0.0
H599 H 0.84391 0.64329 0.13637 0.0
C600 C 0.10792 0.25548 0.33279 0.0
C601 C 0.08591 0.26135 0.34118 0.0
C602 C 0.13897 0.28377 0.3277 0.0
C603 C 0.14763 0.31865 0.33083 0.0
C604 C 0.12492 0.3247 0.33898 0.0
C605 C 0.09453 0.29595 0.34418 0.0
C606 C 0.16286 0.27634 0.3192 0.0
C607 C 0.13276 0.36153 0.34222 0.0
C608 C 0.24199 0.39333 0.32675 0.0
C609 C 0.24064 0.40547 0.31406 0.0
C610 C 0.21192 0.36472 0.33234 0.0
C611 C 0.17978 0.34886 0.32517 0.0
C612 C 0.17822 0.3618 0.31251 0.0
C613 C 0.20877 0.38962 0.30704 0.0
C614 C 0.21462 0.35106 0.34577 0.0
C615 C 0.14428 0.3463 0.30472 0.0
H616 H 0.10161 0.22874 0.33064 0.0
H617 H 0.07752 0.30053 0.35068 0.0
H618 H 0.16562 0.28805 0.30921 0.0
H619 H 0.18954 0.28874 0.32366 0.0
H620 H 0.15287 0.24771 0.31804 0.0
H621 H 0.11202 0.36168 0.34849 0.0
H622 H 0.15829 0.37602 0.3475 0.0
H623 H 0.13518 0.37614 0.33293 0.0
H624 H 0.2667 0.40554 0.33213 0.0
H625 H 0.2076 0.39936 0.29728 0.0
H626 H 0.20708 0.32293 0.34498 0.0
H627 H 0.19603 0.35265 0.35281 0.0
H628 H 0.24161 0.366 0.34997 0.0
H629 H 0.13488 0.31824 0.30247 0.0
H630 H 0.14731 0.36039 0.29522 0.0
H631 H 0.12357 0.3473 0.3107 0.0
C632 C 0.72154 0.80369 0.33906 0.0
C633 C 0.73263 0.81872 0.35163 0.0
C634 C 0.69333 0.80426 0.33267 0.0
C635 C 0.67693 0.8214 0.33885 0.0
C636 C 0.68852 0.83705 0.35147 0.0
C637 C 0.71584 0.83503 0.35778 0.0
C638 C 0.68095 0.78645 0.31938 0.0
C639 C 0.67252 0.85652 0.3582 0.0
C640 C 0.62813 0.85396 0.31733 0.0
C641 C 0.59294 0.82916 0.32009 0.0
C642 C 0.65575 0.85174 0.32337 0.0
C643 C 0.64794 0.82354 0.33212 0.0
C644 C 0.61246 0.79831 0.3349 0.0
C645 C 0.58534 0.80168 0.32897 0.0
C646 C 0.69326 0.87971 0.32046 0.0
C647 C 0.60315 0.76755 0.344 0.0
H648 H 0.73452 0.79102 0.33434 0.0
H649 H 0.7248 0.84715 0.36744 0.0
H650 H 0.65243 0.76684 0.31982 0.0
H651 H 0.68448 0.8061 0.31172 0.0
H652 H 0.69542 0.77294 0.3162 0.0
H653 H 0.6852 0.86797 0.36788 0.0
H654 H 0.67507 0.8781 0.35171 0.0
H655 H 0.64402 0.8385 0.35991 0.0
H656 H 0.63408 0.87525 0.31047 0.0
H657 H 0.55816 0.78214 0.33096 0.0
H658 H 0.70786 0.86757 0.31609 0.0
H659 H 0.70681 0.89275 0.32983 0.0
H660 H 0.69481 0.9001 0.31352 0.0
H661 H 0.61579 0.75258 0.34044 0.0
H662 H 0.57429 0.74936 0.34465 0.0
H663 H 0.61336 0.77717 0.35412 0.0
C664 C 0.14357 0.89317 0.33699 0.0
C665 C 0.17043 0.9145 0.34587 0.0
C666 C 0.14175 0.86284 0.33158 0.0
C667 C 0.168 0.85432 0.33485 0.0
C668 C 0.19575 0.87635 0.34351 0.0
C669 C 0.19633 0.90593 0.34908 0.0
C670 C 0.11138 0.83957 0.32258 0.0
C671 C 0.22483 0.86874 0.34689 0.0
C672 C 0.15 0.76081 0.32981 0.0
C673 C 0.16435 0.76336 0.3172 0.0
C674 C 0.15054 0.79017 0.33565 0.0
C675 C 0.16698 0.82288 0.32888 0.0
C676 C 0.18235 0.82562 0.31629 0.0
C677 C 0.1803 0.79567 0.31051 0.0
C678 C 0.13304 0.78611 0.34894 0.0
C679 C 0.20116 0.86023 0.30894 0.0
H680 H 0.1232 0.89945 0.33467 0.0
H681 H 0.21714 0.92245 0.35595 0.0
H682 H 0.12134 0.83808 0.31263 0.0
H683 H 0.09709 0.81242 0.32662 0.0
H684 H 0.09247 0.84925 0.32141 0.0
H685 H 0.24503 0.88908 0.35349 0.0
H686 H 0.21371 0.84282 0.35187 0.0
H687 H 0.23788 0.86732 0.33767 0.0
H688 H 0.13761 0.73572 0.33492 0.0
H689 H 0.19184 0.79764 0.3008 0.0
H690 H 0.11246 0.79367 0.3481 0.0
H691 H 0.15258 0.804 0.3563 0.0
H692 H 0.12072 0.75874 0.35276 0.0
H693 H 0.18248 0.86956 0.30662 0.0
H694 H 0.21317 0.85818 0.29953 0.0
H695 H 0.22219 0.88052 0.31528 0.0
C696 C 0.58396 0.7768 0.82853 0.0
C697 C 0.59063 0.75461 0.82057 0.0
C698 C 0.61175 0.80776 0.83392 0.0
C699 C 0.64691 0.81605 0.83159 0.0
C700 C 0.65371 0.79314 0.82388 0.0
C701 C 0.62546 0.76296 0.81827 0.0
C702 C 0.60352 0.83197 0.84184 0.0
C703 C 0.69078 0.80048 0.82154 0.0
C704 C 0.72266 0.90981 0.83593 0.0
C705 C 0.73335 0.90862 0.84891 0.0
C706 C 0.69395 0.88003 0.83023 0.0
C707 C 0.67659 0.8482 0.83755 0.0
C708 C 0.6878 0.84685 0.85057 0.0
C709 C 0.71565 0.87722 0.85616 0.0
C710 C 0.68206 0.88265 0.81644 0.0
C711 C 0.67079 0.81318 0.85854 0.0
H712 H 0.55704 0.77069 0.83011 0.0
H713 H 0.63061 0.7458 0.81209 0.0
H714 H 0.61379 0.83475 0.85208 0.0
H715 H 0.61679 0.85859 0.83731 0.0
H716 H 0.57481 0.82228 0.84236 0.0
H717 H 0.69146 0.77939 0.81568 0.0
H718 H 0.70617 0.82576 0.81618 0.0
H719 H 0.70411 0.80311 0.83118 0.0
H720 H 0.73634 0.93412 0.83035 0.0
H721 H 0.72428 0.87613 0.86615 0.0
H722 H 0.65375 0.87474 0.81657 0.0
H723 H 0.68496 0.86432 0.80968 0.0
H724 H 0.69732 0.90969 0.81232 0.0
H725 H 0.64247 0.80402 0.86004 0.0
H726 H 0.68334 0.81638 0.8684 0.0
H727 H 0.67251 0.7922 0.85302 0.0
C728 C 0.1035 0.81061 0.84423 0.0
C729 C 0.09412 0.83639 0.84201 0.0
C730 C 0.13399 0.81346 0.83853 0.0
C731 C 0.1561 0.84332 0.83073 0.0
C732 C 0.14679 0.86947 0.82848 0.0
C733 C 0.11562 0.86545 0.83401 0.0
C734 C 0.14247 0.7845 0.84083 0.0
C735 C 0.17009 0.90201 0.82045 0.0
C736 C 0.25019 0.86272 0.82585 0.0
C737 C 0.24854 0.85018 0.81295 0.0
C738 C 0.22051 0.86163 0.83166 0.0
C739 C 0.18832 0.84649 0.82455 0.0
C740 C 0.18657 0.83355 0.81157 0.0
C741 C 0.21682 0.83605 0.80586 0.0
C742 C 0.22355 0.87658 0.8454 0.0
C743 C 0.15254 0.81624 0.80381 0.0
H744 H 0.08692 0.78814 0.85043 0.0
H745 H 0.10875 0.88574 0.83247 0.0
H746 H 0.14486 0.7737 0.83118 0.0
H747 H 0.16816 0.79518 0.84596 0.0
H748 H 0.12209 0.76264 0.84688 0.0
H749 H 0.1597 0.92046 0.82001 0.0
H750 H 0.1969 0.91597 0.8248 0.0
H751 H 0.17268 0.89454 0.81017 0.0
H752 H 0.27473 0.8737 0.83131 0.0
H753 H 0.21531 0.82582 0.79594 0.0
H754 H 0.20609 0.85537 0.85234 0.0
H755 H 0.21475 0.8963 0.8453 0.0
H756 H 0.2509 0.88927 0.84927 0.0
H757 H 0.13217 0.79327 0.8094 0.0
H758 H 0.15559 0.80716 0.79387 0.0
H759 H 0.14264 0.83487 0.80249 0.0
C760 C 0.18301 0.27299 0.83401 0.0
C761 C 0.17204 0.26284 0.8471 0.0
C762 C 0.18134 0.30134 0.82828 0.0
C763 C 0.1672 0.31886 0.8357 0.0
C764 C 0.1553 0.30799 0.84881 0.0
C765 C 0.15839 0.2805 0.85441 0.0
C766 C 0.19513 0.31287 0.81438 0.0
C767 C 0.13903 0.3252 0.85689 0.0
C768 C 0.18965 0.4119 0.82695 0.0
C769 C 0.16068 0.40583 0.81917 0.0
C770 C 0.19243 0.38376 0.83217 0.0
C771 C 0.16507 0.34883 0.82987 0.0
C772 C 0.13524 0.34262 0.82235 0.0
C773 C 0.13368 0.37122 0.8169 0.0
C774 C 0.22499 0.39137 0.8399 0.0
C775 C 0.10501 0.3058 0.82006 0.0
H776 H 0.19358 0.2593 0.82839 0.0
H777 H 0.14935 0.27223 0.86448 0.0
H778 H 0.17376 0.31057 0.80784 0.0
H779 H 0.21606 0.34097 0.81443 0.0
H780 H 0.20605 0.29703 0.81007 0.0
H781 H 0.1296 0.31248 0.86673 0.0
H782 H 0.15853 0.35338 0.85849 0.0
H783 H 0.11649 0.32401 0.85144 0.0
H784 H 0.21086 0.43864 0.8285 0.0
H785 H 0.11131 0.36654 0.81085 0.0
H786 H 0.23772 0.37762 0.83526 0.0
H787 H 0.21773 0.38123 0.85017 0.0
H788 H 0.24446 0.41996 0.84037 0.0
H789 H 0.11434 0.29007 0.8146 0.0
H790 H 0.08327 0.30558 0.81433 0.0
H791 H 0.09445 0.29253 0.82972 0.0
C792 C 0.78161 0.58616 0.6714 0.0
C793 C 0.75861 0.59307 0.67873 0.0
C794 C 0.81282 0.61375 0.66611 0.0
C795 C 0.82053 0.64893 0.66785 0.0
C796 C 0.79675 0.65592 0.67489 0.0
C797 C 0.76634 0.62789 0.68045 0.0
C798 C 0.83794 0.60535 0.65893 0.0
C799 C 0.80344 0.69296 0.67655 0.0
C800 C 0.91428 0.72503 0.66404 0.0
C801 C 0.91408 0.73473 0.65083 0.0
C802 C 0.88418 0.69655 0.66967 0.0
C803 C 0.853 0.67837 0.66201 0.0
C804 C 0.85263 0.68854 0.64873 0.0
C805 C 0.88331 0.71622 0.64326 0.0
C806 C 0.88573 0.68577 0.68376 0.0
C807 C 0.81966 0.67061 0.64037 0.0
H808 H 0.77592 0.55924 0.6703 0.0
H809 H 0.74853 0.63318 0.68615 0.0
H810 H 0.84153 0.61489 0.64855 0.0
H811 H 0.86416 0.61917 0.66378 0.0
H812 H 0.82856 0.57669 0.6588 0.0
H813 H 0.78166 0.69375 0.68187 0.0
H814 H 0.82818 0.709 0.68216 0.0
H815 H 0.80681 0.70552 0.66669 0.0
H816 H 0.93809 0.73932 0.66988 0.0
H817 H 0.88292 0.72406 0.63308 0.0
H818 H 0.87811 0.65756 0.68407 0.0
H819 H 0.86667 0.68889 0.69001 0.0
H820 H 0.91238 0.70157 0.68817 0.0
H821 H 0.81091 0.64226 0.63929 0.0
H822 H 0.8236 0.68236 0.63032 0.0
H823 H 0.79807 0.67246 0.64534 0.0
C824 C 0.3828 0.18676 0.68655 0.0
C825 C 0.39911 0.17074 0.67985 0.0
C826 C 0.35594 0.19027 0.68056 0.0
C827 C 0.34438 0.17644 0.6677 0.0
C828 C 0.36084 0.16032 0.66084 0.0
C829 C 0.38854 0.15818 0.66694 0.0
C830 C 0.3398 0.20856 0.68804 0.0
C831 C 0.34856 0.14451 0.64724 0.0
C832 C 0.2511 0.15308 0.65892 0.0
C833 C 0.25695 0.18048 0.65028 0.0
C834 C 0.27939 0.15118 0.6645 0.0
C835 C 0.31427 0.17793 0.66167 0.0
C836 C 0.32027 0.20633 0.65331 0.0
C837 C 0.29149 0.20694 0.64752 0.0
C838 C 0.27196 0.12008 0.67313 0.0
C839 C 0.35705 0.23593 0.65044 0.0
H840 H 0.39136 0.19694 0.69649 0.0
H841 H 0.40114 0.14571 0.6618 0.0
H842 H 0.34073 0.23 0.6819 0.0
H843 H 0.31172 0.18968 0.69017 0.0
H844 H 0.35346 0.21992 0.69759 0.0
H845 H 0.36418 0.133 0.64323 0.0
H846 H 0.32048 0.12359 0.64768 0.0
H847 H 0.35041 0.16483 0.64022 0.0
H848 H 0.2244 0.13225 0.66085 0.0
H849 H 0.29598 0.22807 0.6408 0.0
H850 H 0.2828 0.12917 0.68321 0.0
H851 H 0.28518 0.10627 0.66895 0.0
H852 H 0.24335 0.10097 0.67401 0.0
H853 H 0.37093 0.24797 0.65987 0.0
H854 H 0.35711 0.25677 0.64416 0.0
H855 H 0.37231 0.22555 0.64529 0.0
C856 C 0.83674 0.22976 0.67123 0.0
C857 C 0.82251 0.22803 0.68381 0.0
C858 C 0.8359 0.19997 0.66567 0.0
C859 C 0.81931 0.16763 0.67269 0.0
C860 C 0.80397 0.16566 0.68523 0.0
C861 C 0.80631 0.19605 0.69073 0.0
C862 C 0.85332 0.20323 0.65242 0.0
C863 C 0.78497 0.13145 0.69281 0.0
C864 C 0.79066 0.08426 0.65276 0.0
C865 C 0.81682 0.0761 0.65603 0.0
C866 C 0.79072 0.11359 0.65832 0.0
C867 C 0.81824 0.13585 0.66703 0.0
C868 C 0.8446 0.12756 0.67044 0.0
C869 C 0.84327 0.09744 0.66504 0.0
C870 C 0.76152 0.12089 0.6548 0.0
C871 C 0.87476 0.15109 0.67948 0.0
H872 H 0.84934 0.25459 0.66594 0.0
H873 H 0.79488 0.19469 0.70041 0.0
H874 H 0.87383 0.19561 0.65344 0.0
H875 H 0.83372 0.18498 0.64515 0.0
H876 H 0.86573 0.23038 0.64838 0.0
H877 H 0.77291 0.13406 0.70212 0.0
H878 H 0.76396 0.11088 0.68655 0.0
H879 H 0.80355 0.12215 0.69536 0.0
H880 H 0.77018 0.06773 0.64578 0.0
H881 H 0.86383 0.09147 0.66741 0.0
H882 H 0.77249 0.14638 0.6495 0.0
H883 H 0.74871 0.12307 0.66396 0.0
H884 H 0.74115 0.10001 0.64841 0.0
H885 H 0.88932 0.17803 0.67526 0.0
H886 H 0.89347 0.14128 0.68095 0.0
H887 H 0.86458 0.15315 0.68931 0.0
C888 C 0.04219 0.56674 0.51295 0.0
C889 C 0.07632 0.57203 0.51185 0.0
C890 C 0.01371 0.53802 0.50677 0.0
C891 C 0.01944 0.51342 0.49973 0.0
C892 C 0.05392 0.51867 0.4986 0.0
C893 C 0.08212 0.54832 0.50451 0.0
C894 C 0.97751 0.53395 0.50782 0.0
C895 C 0.06087 0.49252 0.49144 0.0
C896 C 0.93939 0.42285 0.49452 0.0
C897 C 0.93128 0.42493 0.48123 0.0
C898 C 0.9686 0.45123 0.50062 0.0
C899 C 0.98938 0.48258 0.49333 0.0
C900 C 0.98102 0.48485 0.47996 0.0
C901 C 0.95236 0.45586 0.47404 0.0
C902 C 0.97728 0.44767 0.51482 0.0
C903 C 0.00195 0.51814 0.47198 0.0
H904 H 0.03781 0.58516 0.51866 0.0
H905 H 0.10849 0.55215 0.50389 0.0
H906 H 0.96647 0.53224 0.49776 0.0
H907 H 0.95949 0.50915 0.51307 0.0
H908 H 0.97782 0.55618 0.51321 0.0
H909 H 0.0891 0.50007 0.49172 0.0
H910 H 0.04512 0.46612 0.49601 0.0
H911 H 0.05252 0.4902 0.48093 0.0
H912 H 0.92323 0.39891 0.50007 0.0
H913 H 0.94594 0.45775 0.46379 0.0
H914 H 0.97515 0.46723 0.52113 0.0
H915 H 0.00485 0.45326 0.51552 0.0
H916 H 0.95954 0.42099 0.51889 0.0
H917 H 0.00131 0.54037 0.47695 0.0
H918 H 0.9917 0.51567 0.46172 0.0
H919 H 0.0299 0.52496 0.47142 0.0
C920 C 0.45096 0.53781 0.50281 0.0
C921 C 0.43035 0.5083 0.51074 0.0
C922 C 0.48139 0.54203 0.49653 0.0
C923 C 0.4907 0.51561 0.49793 0.0
C924 C 0.46952 0.48544 0.50573 0.0
C925 C 0.43987 0.4824 0.5122 0.0
C926 C 0.50381 0.57493 0.48854 0.0
C927 C 0.47802 0.45621 0.50715 0.0
C928 C 0.54638 0.50673 0.47126 0.0
C929 C 0.57892 0.51962 0.47769 0.0
C930 C 0.51762 0.50567 0.4777 0.0
C931 C 0.52169 0.51863 0.4908 0.0
C932 C 0.55478 0.53285 0.49721 0.0
C933 C 0.58296 0.5327 0.49064 0.0
C934 C 0.48257 0.4895 0.47064 0.0
C935 C 0.56023 0.54774 0.51106 0.0
H936 H 0.44393 0.55814 0.50187 0.0
H937 H 0.4239 0.45959 0.51835 0.0
H938 H 0.53122 0.5884 0.49234 0.0
H939 H 0.50477 0.56796 0.47804 0.0
H940 H 0.49372 0.59363 0.4889 0.0
H941 H 0.45853 0.43427 0.51341 0.0
H942 H 0.47866 0.4456 0.49722 0.0
H943 H 0.50448 0.46656 0.51162 0.0
H944 H 0.54294 0.49623 0.46129 0.0
H945 H 0.60812 0.54286 0.4956 0.0
H946 H 0.47297 0.50854 0.47019 0.0
H947 H 0.46275 0.46622 0.47625 0.0
H948 H 0.484 0.48109 0.46037 0.0
H949 H 0.55148 0.56746 0.51163 0.0
H950 H 0.5882 0.56039 0.51423 0.0
H951 H 0.54402 0.52646 0.51819 0.0
C952 C 0.46782 0.03391 0.48365 0.0
C953 C 0.49396 0.06844 0.48663 0.0
C954 C 0.46861 0.00509 0.48927 0.0
C955 C 0.49678 0.01105 0.49774 0.0
C956 C 0.52327 0.04589 0.50077 0.0
C957 C 0.52126 0.07424 0.49531 0.0
C958 C 0.4393 0.96833 0.48615 0.0
C959 C 0.55407 0.05322 0.50957 0.0
C960 C 0.48555 0.94129 0.52242 0.0
C961 C 0.50152 0.92481 0.5158 0.0
C962 C 0.48312 0.96881 0.5165 0.0
C963 C 0.49795 0.98084 0.5038 0.0
C964 C 0.51416 0.96432 0.49704 0.0
C965 C 0.51525 0.93598 0.50306 0.0
C966 C 0.46468 0.985 0.52385 0.0
C967 C 0.53096 0.97705 0.48361 0.0
H968 H 0.4467 0.02945 0.47692 0.0
H969 H 0.5418 0.10095 0.49744 0.0
H970 H 0.45013 0.95322 0.48119 0.0
H971 H 0.42659 0.95428 0.49548 0.0
H972 H 0.41888 0.96829 0.47962 0.0
H973 H 0.57313 0.08181 0.51053 0.0
H974 H 0.54459 0.04222 0.51961 0.0
H975 H 0.56805 0.04007 0.50549 0.0
H976 H 0.47449 0.93227 0.53222 0.0
H977 H 0.5277 0.92326 0.498 0.0
H978 H 0.44346 0.98415 0.51759 0.0
H979 H 0.48354 0.01306 0.52602 0.0
H980 H 0.45298 0.97132 0.53336 0.0
H981 H 0.51113 0.97542 0.47638 0.0
H982 H 0.54275 0.96156 0.47973 0.0
H983 H 0.55184 0.00511 0.48425 0.0
C984 C 0.41863 0.94596 0.00556 0.0
C985 C 0.42125 0.9358 0.01848 0.0
C986 C 0.44744 0.97498 -0.00044 0.0
C987 C 0.47981 0.99326 0.00649 0.0
C988 C 0.48247 0.98304 0.01955 0.0
C989 C 0.453 0.95478 0.02545 0.0
C990 C 0.44338 0.98582 0.98576 0.0
C991 C 0.51677 0.00111 0.02712 0.0
C992 C 0.56282 0.04148 0.98581 0.0
C993 C 0.57156 0.07662 0.98752 0.0
C994 C 0.53329 0.01415 0.99209 0.0
C995 C 0.51141 0.02212 -6e-05 0.0
C996 C 0.52013 0.05759 0.0017 0.0
C997 C 0.55045 0.08451 0.99561 0.0
C998 C 0.52547 0.97675 0.9903 0.0
C999 C 0.49698 0.067 0.00975 0.0
H1000 H 0.39405 0.93137 0.0002 0.0
H1001 H 0.45524 0.94667 0.03539 0.0
H1002 H 0.45197 0.01428 0.98557 0.0
H1003 H 0.46046 0.98166 0.97875 0.0
H1004 H 0.41579 0.97073 0.98215 0.0
H1005 H 0.5143 0.99013 0.03725 0.0
H1006 H 0.53716 0.99828 0.02164 0.0
H1007 H 0.52628 0.02967 0.02798 0.0
H1008 H 0.57917 0.03538 0.97955 0.0
H1009 H 0.55687 0.11165 0.99675 0.0
H1010 H 0.49965 0.96091 0.98533 0.0
H1011 H 0.5237 0.96453 0.00012 0.0
H1012 H 0.54588 0.97518 0.9843 0.0
H1013 H 0.46997 0.05367 0.00556 0.0
H1014 H 0.5071 0.0958 0.00994 0.0
H1015 H 0.49496 0.05761 0.0201 0.0
C1016 C 0.91942 0.4722 0.98916 0.0
C1017 C 0.92568 0.49984 0.98058 0.0
C1018 C 0.94747 0.46989 0.99476 0.0
C1019 C 0.9825 0.49642 0.99201 0.0
C1020 C 0.98891 0.52492 0.98364 0.0
C1021 C 0.96039 0.52599 0.97786 0.0
C1022 C 0.93964 0.43873 0.00343 0.0
C1023 C 0.02585 0.55431 0.98083 0.0
C1024 C 0.05139 0.50687 0.01704 0.0
C1025 C 0.06841 0.49148 0.01039 0.0
C1026 C 0.0239 0.50927 0.01104 0.0
C1027 C 0.01241 0.49494 0.99824 0.0
C1028 C 0.02935 0.47913 0.99149 0.0
C1029 C 0.05768 0.47813 0.99758 0.0
C1030 C 0.0073 0.52732 0.0184 0.0
C1031 C 0.01716 0.4628 0.97795 0.0
H1032 H 0.89259 0.45165 0.99109 0.0
H1033 H 0.96522 0.54738 0.97121 0.0
H1034 H 0.95296 0.42488 -0.00061 0.0
H1035 H 0.95014 0.44779 0.01356 0.0
H1036 H 0.91099 0.41969 0.00418 0.0
H1037 H 0.02624 0.57504 0.97439 0.0
H1038 H 0.03944 0.56658 0.99028 0.0
H1039 H 0.04118 0.54367 0.97591 0.0
H1040 H 0.06006 0.51766 0.02689 0.0
H1041 H 0.07082 0.46616 0.99249 0.0
H1042 H 0.97911 0.50839 0.0203 0.0
H1043 H 0.00857 0.54889 0.01225 0.0
H1044 H 0.02044 0.53847 0.02804 0.0
H1045 H 0.98899 0.44211 0.97838 0.0
H1046 H 0.03263 0.45089 0.97417 0.0
H1047 H 0.01938 0.48295 0.97077 0.0
C1048 C 0.47144 0.42923 0.9844 0.0
C1049 C 0.49821 0.42118 0.9865 0.0
C1050 C 0.47276 0.45865 0.99041 0.0
C1051 C 0.5021 0.4811 0.99837 0.0
C1052 C 0.52925 0.47309 0.00051 0.0
C1053 C 0.52671 0.44285 0.99469 0.0
C1054 C 0.44275 0.46568 0.98825 0.0
C1055 C 0.56129 0.49686 0.00871 0.0
C1056 C 0.51799 0.57363 0.00393 0.0
C1057 C 0.50521 0.5709 0.01685 0.0
C1058 C 0.51797 0.54478 0.99786 0.0
C1059 C 0.50378 0.51236 0.00477 0.0
C1060 C 0.49038 0.50945 0.01774 0.0
C1061 C 0.49172 0.53889 0.02368 0.0
C1062 C 0.53327 0.54899 0.98413 0.0
C1063 C 0.47406 0.47508 0.02527 0.0
H1064 H 0.4494 0.41241 0.97805 0.0
H1065 H 0.54769 0.4369 0.99612 0.0
H1066 H 0.43152 0.46708 0.99795 0.0
H1067 H 0.45252 0.49147 0.98329 0.0
H1068 H 0.42139 0.44505 0.9821 0.0
H1069 H 0.58056 0.48748 0.00907 0.0
H1070 H 0.5745 0.52388 0.00453 0.0
H1071 H 0.55333 0.49859 0.019 0.0
H1072 H 0.52858 0.59845 0.99869 0.0
H1073 H 0.4814 0.53662 0.03363 0.0
H1074 H 0.51255 0.53104 0.97712 0.0
H1075 H 0.55406 0.54161 0.98417 0.0
H1076 H 0.54477 0.57636 0.98037 0.0
H1077 H 0.45173 0.45436 0.01952 0.0
H1078 H 0.46428 0.47715 0.0352 0.0
H1079 H 0.4936 0.46632 0.02658 0.0
C1080 C 0.3074 0.01195 0.1155 0.0
C1081 C 0.29459 0.03164 0.1091 0.0
C1082 C 0.32872 0.0017 0.10877 0.0
C1083 C 0.33724 0.01137 0.09532 0.0
C1084 C 0.32895 0.03575 0.08952 0.0
C1085 C 0.3074 0.04555 0.09649 0.0
C1086 C 0.33763 0.97638 0.11548 0.0
C1087 C 0.33898 0.04791 0.07539 0.0
C1088 C 0.38365 0.96998 0.07688 0.0
C1089 C 0.35467 0.94048 0.07131 0.0
C1090 C 0.37887 0.99432 0.08445 0.0
C1091 C 0.34433 0.98826 0.08663 0.0
C1092 C 0.31515 0.9582 0.08106 0.0
C1093 C 0.32077 0.93504 0.07338 0.0
C1094 C 0.41067 0.0267 0.0898 0.0
C1095 C 0.27769 0.94995 0.08337 0.0
H1096 H 0.29839 0.00203 0.12543 0.0
H1097 H 0.29814 0.06141 0.0916 0.0
H1098 H 0.31892 0.94923 0.11209 0.0
H1099 H 0.36455 0.98222 0.11283 0.0
H1100 H 0.3357 0.97721 0.12645 0.0
H1101 H 0.33833 0.07249 0.07344 0.0
H1102 H 0.36565 0.05239 0.0731 0.0
H1103 H 0.32009 0.02725 0.06856 0.0
H1104 H 0.40992 0.97438 0.0751 0.0
H1105 H 0.29829 0.91205 0.06917 0.0
H1106 H 0.40645 0.0319 0.10022 0.0
H1107 H 0.41519 0.04983 0.08383 0.0
H1108 H 0.43476 0.02444 0.08931 0.0
H1109 H 0.27193 0.94763 0.09416 0.0
H1110 H 0.25806 0.92506 0.07851 0.0
H1111 H 0.27408 0.97156 0.07947 0.0
C1112 C 0.03328 0.37167 0.05577 0.0
C1113 C 0.04379 0.40574 0.06029 0.0
C1114 C 0.01272 0.34228 0.0637 0.0
C1115 C 0.00172 0.34708 0.07634 0.0
C1116 C 0.00771 0.3808 0.08004 0.0
C1117 C 0.02922 0.41003 0.07202 0.0
C1118 C 0.00721 0.30696 0.05927 0.0
C1119 C 0.99461 0.38661 0.09309 0.0
C1120 C 0.95486 0.26096 0.09543 0.0
C1121 C 0.98325 0.26242 0.10237 0.0
C1122 C 0.95952 0.28977 0.08772 0.0
C1123 C 0.99354 0.31977 0.0866 0.0
C1124 C 0.02183 0.32161 0.09401 0.0
C1125 C 0.01613 0.29321 0.10195 0.0
C1126 C 0.92838 0.28799 0.08064 0.0
C1127 C 0.05884 0.35261 0.09292 0.0
H1128 H 0.04359 0.36806 0.0465 0.0
H1129 H 0.03654 0.43626 0.07541 0.0
H1130 H 0.02501 0.3007 0.06499 0.0
H1131 H 0.97985 0.28578 0.0612 0.0
H1132 H 0.0129 0.30672 0.04855 0.0
H1133 H 0.99175 0.41037 0.09272 0.0
H1134 H 0.96894 0.3635 0.09582 0.0
H1135 H 0.01379 0.39061 0.10102 0.0
H1136 H 0.92925 0.23736 0.09598 0.0
H1137 H 0.03816 0.29447 0.10732 0.0
H1138 H 0.93295 0.29061 0.06978 0.0
H1139 H 0.92501 0.31032 0.08383 0.0
H1140 H 0.9036 0.263 0.08266 0.0
H1141 H 0.06816 0.35554 0.08252 0.0
H1142 H 0.07778 0.34973 0.09937 0.0
H1143 H 0.05928 0.37724 0.09573 0.0
C1144 C 0.61619 0.639 0.05835 0.0
C1145 C 0.58606 0.62886 0.06607 0.0
C1146 C 0.64871 0.64914 0.06429 0.0
C1147 C 0.65104 0.64966 0.07828 0.0
C1148 C 0.61977 0.63445 0.08597 0.0
C1149 C 0.58736 0.62416 0.07973 0.0
C1150 C 0.68114 0.66414 0.05567 0.0
C1151 C 0.62109 0.63341 0.1009 0.0
C1152 C 0.74184 0.69045 0.09449 0.0
C1153 C 0.74863 0.72482 0.09658 0.0
C1154 C 0.70999 0.66514 0.08858 0.0
C1155 C 0.68508 0.67497 0.08459 0.0
C1156 C 0.69275 0.71015 0.08634 0.0
C1157 C 0.7242 0.7344 0.09242 0.0
C1158 C 0.70251 0.62782 0.08712 0.0
C1159 C 0.66756 0.72228 0.08194 0.0
H1160 H 0.61494 0.64184 0.0477 0.0
H1161 H 0.56393 0.61593 0.08568 0.0
H1162 H 0.69403 0.69328 0.05568 0.0
H1163 H 0.70038 0.65695 0.05952 0.0
H1164 H 0.67452 0.65485 0.04525 0.0
H1165 H 0.59508 0.61424 0.10515 0.0
H1166 H 0.64097 0.62645 0.10419 0.0
H1167 H 0.62887 0.65986 0.10492 0.0
H1168 H 0.76064 0.68304 0.09796 0.0
H1169 H 0.72967 0.76111 0.09405 0.0
H1170 H 0.6897 0.61637 0.07748 0.0
H1171 H 0.68412 0.61145 0.09508 0.0
H1172 H 0.72687 0.62614 0.08799 0.0
H1173 H 0.66196 0.71724 0.07119 0.0
H1174 H 0.67808 0.75078 0.08378 0.0
H1175 H 0.64222 0.70735 0.08732 0.0
C1176 C 0.96152 0.3826 0.41839 0.0
C1177 C 0.9489 0.36487 0.43046 0.0
C1178 C 0.98299 0.37518 0.41021 0.0
C1179 C 0.99099 0.34895 0.41414 0.0
C1180 C 0.98182 0.33436 0.42703 0.0
C1181 C 0.96121 0.34284 0.43507 0.0
C1182 C 0.99395 0.39275 0.39683 0.0
C1183 C 0.98947 0.30612 0.4317 0.0
C1184 C 0.97864 0.27885 0.38976 0.0
C1185 C 0.01228 0.28271 0.38938 0.0
C1186 C 0.97192 0.30168 0.39719 0.0
C1187 C -0.0001 0.32998 0.40407 0.0
C1188 C 0.0346 0.33587 0.40281 0.0
C1189 C 0.04033 0.31157 0.39568 0.0
C1190 C 0.93428 0.29377 0.39844 0.0
C1191 C 0.06531 0.36709 0.4093 0.0
H1192 H 0.95274 0.40031 0.41491 0.0
H1193 H 0.95238 0.32986 0.4446 0.0
H1194 H 0.01952 0.39571 0.39366 0.0
H1195 H 0.97387 0.37643 0.38933 0.0
H1196 H 0.99609 0.41906 0.39698 0.0
H1197 H 0.98463 0.30091 0.4425 0.0
H1198 H 0.97225 0.2813 0.42628 0.0
H1199 H 0.0171 0.31353 0.4296 0.0
H1200 H 0.9569 0.25659 0.38487 0.0
H1201 H 0.06651 0.31493 0.39515 0.0
H1202 H 0.93222 0.31693 0.39539 0.0
H1203 H 0.92567 0.28794 0.40894 0.0
H1204 H 0.91577 0.27096 0.39228 0.0
H1205 H 0.06466 0.39148 0.40698 0.0
H1206 H 0.09095 0.37037 0.40601 0.0
H1207 H 0.06352 0.36395 0.42023 0.0
C1208 C 0.63981 0.58656 0.41148 0.0
C1209 C 0.62077 0.57463 0.42327 0.0
C1210 C 0.65005 0.62027 0.40666 0.0
C1211 C 0.6408 0.64221 0.41388 0.0
C1212 C 0.61728 0.62818 0.42471 0.0
C1213 C 0.60794 0.59453 0.42945 0.0
C1214 C 0.67482 0.63396 0.39496 0.0
C1215 C 0.60543 0.65007 0.43227 0.0
C1216 C 0.71998 0.73312 0.4149 0.0
C1217 C 0.71369 0.74865 0.40396 0.0
C1218 C 0.69469 0.69938 0.41908 0.0
C1219 C 0.66242 0.68092 0.41206 0.0
C1220 C 0.65458 0.69817 0.40189 0.0
C1221 C 0.68067 0.73187 0.39781 0.0
C1222 C 0.70421 0.68217 0.43005 0.0
C1223 C 0.62011 0.68001 0.39448 0.0
H1224 H 0.65003 0.57116 0.40686 0.0
H1225 H 0.59345 0.58526 0.43868 0.0
H1226 H 0.66686 0.64824 0.38799 0.0
H1227 H 0.70179 0.65278 0.39851 0.0
H1228 H 0.67574 0.61247 0.38948 0.0
H1229 H 0.58052 0.6332 0.43771 0.0
H1230 H 0.62586 0.6666 0.43964 0.0
H1231 H 0.60159 0.66785 0.42552 0.0
H1232 H 0.74584 0.74613 0.41947 0.0
H1233 H 0.67617 0.74391 0.38919 0.0
H1234 H 0.7076 0.66066 0.42587 0.0
H1235 H 0.68283 0.67037 0.43752 0.0
H1236 H 0.72898 0.70109 0.43517 0.0
H1237 H 0.62205 0.66433 0.38623 0.0
H1238 H 0.61373 0.69942 0.39013 0.0
H1239 H 0.59818 0.66186 0.40104 0.0
C1240 C 0.37149 0.03854 0.44145 0.0
C1241 C 0.40509 0.0469 0.43703 0.0
C1242 C 0.34168 0.01838 0.43366 0.0
C1243 C 0.34551 0.0057 0.42124 0.0
C1244 C 0.37857 0.00985 0.4176 0.0
C1245 C 0.40828 0.03091 0.42548 0.0
C1246 C 0.30688 0.01421 0.43807 0.0
C1247 C 0.38308 0.99461 0.40484 0.0
C1248 C 0.25794 0.95743 0.40316 0.0
C1249 C 0.2593 0.985 0.39568 0.0
C1250 C 0.2872 0.96259 0.41068 0.0
C1251 C 0.31767 0.99644 0.41109 0.0
C1252 C 0.3195 0.02379 0.40306 0.0
C1253 C 0.29056 0.01751 0.39532 0.0
C1254 C 0.28464 0.93219 0.41856 0.0
C1255 C 0.35105 0.06058 0.40336 0.0
H1256 H 0.36868 0.04994 0.45059 0.0
H1257 H 0.43409 0.03655 0.42217 0.0
H1258 H 0.29966 0.02992 0.4315 0.0
H1259 H 0.28578 0.98634 0.43729 0.0
H1260 H 0.30775 0.02306 0.44846 0.0
H1261 H 0.40713 0.99224 0.40506 0.0
H1262 H 0.35985 0.9683 0.40292 0.0
H1263 H 0.3855 0.01202 0.39644 0.0
H1264 H 0.23397 0.93206 0.40329 0.0
H1265 H 0.29182 0.03891 0.38951 0.0
H1266 H 0.27193 0.93064 0.42824 0.0
H1267 H 0.3109 0.93513 0.42045 0.0
H1268 H 0.26803 0.90692 0.4133 0.0
H1269 H 0.35455 0.07168 0.4135 0.0
H1270 H 0.34837 0.07864 0.39635 0.0
H1271 H 0.37531 0.05999 0.40079 0.0
C1272 C 0.72091 0.01132 0.89897 0.0
C1273 C 0.72018 0.97906 0.89945 0.0
C1274 C 0.69859 0.01769 0.90687 0.0
C1275 C 0.6739 0.99067 0.91523 0.0
C1276 C 0.67122 0.9571 0.91509 0.0
C1277 C 0.695 0.95186 0.90737 0.0
C1278 C 0.70311 0.05422 0.90684 0.0
C1279 C 0.64433 0.92703 0.92337 0.0
C1280 C 0.6624 0.03577 0.94461 0.0
C1281 C 0.63707 0.0435 0.93975 0.0
C1282 C 0.67177 0.01444 0.93743 0.0
C1283 C 0.65498 7e-05 0.92518 0.0
C1284 C 0.62578 0.00343 0.92126 0.0
C1285 C 0.61738 0.02562 0.92852 0.0
C1286 C 0.70263 0.01105 0.94214 0.0
C1287 C 0.60571 0.98642 0.90872 0.0
H1288 H 0.74027 0.03247 0.89285 0.0
H1289 H 0.69403 0.9267 0.90762 0.0
H1290 H 0.67801 0.05293 0.90412 0.0
H1291 H 0.71049 0.0659 0.91691 0.0
H1292 H 0.7237 0.07219 0.89976 0.0
H1293 H 0.63557 0.90149 0.9183 0.0
H1294 H 0.65644 0.92629 0.93293 0.0
H1295 H 0.62095 0.92969 0.92549 0.0
H1296 H 0.67698 0.04864 0.95353 0.0
H1297 H 0.5971 0.03073 0.9249 0.0
H1298 H 0.72558 0.02666 0.93557 0.0
H1299 H 0.69628 0.98327 0.94164 0.0
H1300 H 0.71035 0.02058 0.95248 0.0
H1301 H 0.62026 0.00289 0.90006 0.0
H1302 H 0.57912 0.98367 0.90886 0.0
H1303 H 0.60297 0.96007 0.90733 0.0
C1304 C 0.96775 0.58658 0.92054 0.0
C1305 C 0.94841 0.58984 0.93097 0.0
C1306 C 0.99041 0.61601 0.9128 0.0
C1307 C 0.99265 0.64883 0.91535 0.0
C1308 C 0.97573 0.65274 0.92663 0.0
C1309 C 0.95422 0.6233 0.93438 0.0
C1310 C 0.00995 0.61141 0.90139 0.0
C1311 C 0.97735 0.6872 0.92979 0.0
C1312 C 0.04592 0.73762 0.89877 0.0
C1313 C 0.02089 0.73657 0.88985 0.0
C1314 C 0.03889 0.70764 0.9062 0.0
C1315 C 0.00562 0.67666 0.905 0.0
C1316 C 0.98148 0.67489 0.89529 0.0
C1317 C 0.98971 0.70465 0.8877 0.0
C1318 C 0.06623 0.71003 0.91587 0.0
C1319 C 0.94543 0.6427 0.89375 0.0
H1320 H 0.96404 0.56092 0.91805 0.0
H1321 H 0.94004 0.62625 0.94262 0.0
H1322 H 0.99455 0.60663 0.89213 0.0
H1323 H 0.03597 0.63541 0.89992 0.0
H1324 H 0.01388 0.58857 0.90302 0.0
H1325 H 0.9642 0.68625 0.93933 0.0
H1326 H 0.00507 0.70876 0.93036 0.0
H1327 H 0.96434 0.69386 0.92176 0.0
H1328 H 0.07041 0.76204 0.90027 0.0
H1329 H 0.97039 0.70346 0.8807 0.0
H1330 H 0.06382 0.68394 0.91763 0.0
H1331 H 0.06291 0.72028 0.92549 0.0
H1332 H 0.09319 0.72851 0.91221 0.0
H1333 H 0.94771 0.61894 0.89215 0.0
H1334 H 0.93044 0.64512 0.88533 0.0
H1335 H 0.92997 0.63851 0.90297 0.0
C1336 C 0.37198 0.33422 0.94228 0.0
C1337 C 0.40567 0.35943 0.93794 0.0
C1338 C 0.34213 0.3265 0.93481 0.0
C1339 C 0.3461 0.34495 0.92284 0.0
C1340 C 0.37928 0.37414 0.91956 0.0
C1341 C 0.40902 0.38077 0.92706 0.0
C1342 C 0.3071 0.29571 0.93891 0.0
C1343 C 0.38386 0.39625 0.90747 0.0
C1344 C 0.29283 0.28153 0.89584 0.0
C1345 C 0.26093 0.28145 0.89666 0.0
C1346 C 0.32148 0.30377 0.90378 0.0
C1347 C 0.31869 0.32762 0.91247 0.0
C1348 C 0.28761 0.32997 0.91248 0.0
C1349 C 0.25866 0.30622 0.90475 0.0
C1350 C 0.3537 0.29959 0.90356 0.0
C1351 C 0.28401 0.35624 0.921 0.0
H1352 H 0.36905 0.31845 0.95097 0.0
H1353 H 0.43492 0.4011 0.92389 0.0
H1354 H 0.28652 0.30331 0.93883 0.0
H1355 H 0.29911 0.27382 0.93173 0.0
H1356 H 0.30802 0.28586 0.94897 0.0
H1357 H 0.40764 0.42273 0.90833 0.0
H1358 H 0.38693 0.38322 0.89856 0.0
H1359 H 0.36043 0.39926 0.90595 0.0
H1360 H 0.29486 0.26259 0.88954 0.0
H1361 H 0.23421 0.30669 0.90522 0.0
H1362 H 0.35791 0.2915 0.91351 0.0
H1363 H 0.37743 0.32498 0.90108 0.0
H1364 H 0.35142 0.27965 0.89623 0.0
H1365 H 0.26906 0.34298 0.93011 0.0
H1366 H 0.26883 0.3665 0.91567 0.0
H1367 H 0.30991 0.37874 0.92392 0.0
C1368 C 0.95641 0.6951 0.59264 0.0
C1369 C 0.98354 0.7193 0.60085 0.0
C1370 C 0.96099 0.67088 0.58496 0.0
C1371 C 0.9939 0.67208 0.58517 0.0
C1372 C 0.02064 0.69546 0.59393 0.0
C1373 C 0.01487 0.71827 0.60178 0.0
C1374 C 0.93108 0.64531 0.57628 0.0
C1375 C 0.0565 0.69837 0.59436 0.0
C1376 C 0.02794 0.61546 0.57121 0.0
C1377 C 0.04679 0.63611 0.56031 0.0
C1378 C 0.00565 0.62367 0.57851 0.0
C1379 C 0.00336 0.65372 0.57501 0.0
C1380 C 0.01878 0.67166 0.56304 0.0
C1381 C 0.04003 0.66237 0.55577 0.0
C1382 C 0.98721 0.60226 0.59064 0.0
C1383 C 0.01647 0.70342 0.55874 0.0
H1384 H 0.93188 0.6954 0.59206 0.0
H1385 H 0.0359 0.73674 0.60816 0.0
H1386 H 0.93077 0.65875 0.56701 0.0
H1387 H 0.9334 0.622 0.57365 0.0
H1388 H 0.90545 0.63626 0.58133 0.0
H1389 H 0.07429 0.71799 0.60176 0.0
H1390 H 0.05385 0.67258 0.59688 0.0
H1391 H 0.06921 0.70621 0.58447 0.0
H1392 H 0.03221 0.5944 0.57454 0.0
H1393 H 0.05357 0.67768 0.54707 0.0
H1394 H 0.96113 0.60026 0.59191 0.0
H1395 H 0.00317 0.61527 0.59958 0.0
H1396 H 0.98357 0.57536 0.59002 0.0
H1397 H 0.98871 0.69728 0.55876 0.0
H1398 H 0.02754 0.71262 0.54867 0.0
H1399 H 0.03121 0.72531 0.56585 0.0
C1400 C 0.30233 0.25883 0.5915 0.0
C1401 C 0.27461 0.26034 0.59778 0.0
C1402 C 0.32731 0.28748 0.58393 0.0
C1403 C 0.32369 0.31763 0.58244 0.0
C1404 C 0.29611 0.31935 0.58906 0.0
C1405 C 0.27231 0.29093 0.59675 0.0
C1406 C 0.35744 0.28554 0.57759 0.0
C1407 C 0.2906 0.35059 0.58758 0.0
C1408 C 0.38236 0.4096 0.57037 0.0
C1409 C 0.36579 0.40773 0.55828 0.0
C1410 C 0.37276 0.37889 0.57774 0.0
C1411 C 0.34561 0.34614 0.57293 0.0
C1412 C 0.33276 0.34381 0.55988 0.0
C1413 C 0.3432 0.37471 0.55268 0.0
C1414 C 0.38854 0.38207 0.5913 0.0
C1415 C 0.30414 0.30944 0.55424 0.0
H1416 H 0.30447 0.23537 0.59249 0.0
H1417 H 0.25091 0.29224 0.60159 0.0
H1418 H 0.36013 0.29305 0.56697 0.0
H1419 H 0.38236 0.30456 0.58257 0.0
H1420 H 0.35426 0.25885 0.5784 0.0
H1421 H 0.26763 0.34748 0.59334 0.0
H1422 H 0.31429 0.37492 0.59099 0.0
H1423 H 0.28636 0.35428 0.57699 0.0
H1424 H 0.40055 0.43504 0.57461 0.0
H1425 H 0.33115 0.37306 0.54311 0.0
H1426 H 0.39132 0.35883 0.59355 0.0
H1427 H 0.37094 0.3834 0.5989 0.0
H1428 H 0.41471 0.40627 0.59214 0.0
H1429 H 0.30931 0.28769 0.55643 0.0
H1430 H 0.30151 0.31095 0.54333 0.0
H1431 H 0.27862 0.30282 0.5589 0.0
C1432 C 0.70377 0.97814 0.60365 0.0
C1433 C 0.73362 0.01144 0.60502 0.0
C1434 C 0.675 0.97323 0.59612 0.0
C1435 C 0.67544 0.00268 0.59014 0.0
C1436 C 0.70469 0.03684 0.59215 0.0
C1437 C 0.73393 0.04075 0.59936 0.0
C1438 C 0.64499 0.93607 0.594 0.0
C1439 C 0.70595 0.06923 0.58646 0.0
C1440 C 0.62118 0.96706 0.55971 0.0
C1441 C 0.58743 0.95294 0.5652 0.0
C1442 C 0.65114 0.98837 0.56726 0.0
C1443 C 0.64704 0.99593 0.58056 0.0
C1444 C 0.61316 0.98693 0.5853 0.0
C1445 C 0.58342 0.96494 0.5776 0.0
C1446 C 0.68685 0.99857 0.5616 0.0
C1447 C 0.60819 0.9972 0.59905 0.0
H1448 H 0.7035 0.9554 0.608 0.0
H1449 H 0.75688 0.06663 0.60057 0.0
H1450 H 0.62009 0.93346 0.59782 0.0
H1451 H 0.64142 0.92981 0.58325 0.0
H1452 H 0.64944 0.91614 0.59907 0.0
H1453 H 0.71854 0.09139 0.59362 0.0
H1454 H 0.72242 0.0774 0.57737 0.0
H1455 H 0.67945 0.06484 0.58391 0.0
H1456 H 0.62436 0.95897 0.54988 0.0
H1457 H 0.55733 0.95496 0.58173 0.0
H1458 H 0.6972 0.98291 0.56649 0.0
H1459 H 0.70567 0.02674 0.56355 0.0
H1460 H 0.68581 0.99393 0.55074 0.0
H1461 H 0.60816 0.97829 0.60636 0.0
H1462 H 0.58278 0.99686 0.59993 0.0
H1463 H 0.63006 0.02382 0.60165 0.0
C1464 C 0.71325 0.63953 0.73768 0.0
C1465 C 0.68877 0.61772 0.72815 0.0
C1466 C 0.70624 0.66151 0.74574 0.0
C1467 C 0.6735 0.66039 0.74452 0.0
C1468 C 0.65011 0.64048 0.73419 0.0
C1469 C 0.65836 0.61993 0.72602 0.0
C1470 C 0.73288 0.68402 0.75608 0.0
C1471 C 0.61466 0.638 0.73256 0.0
C1472 C 0.61981 0.65795 0.77387 0.0
C1473 C 0.61528 0.68681 0.77126 0.0
C1474 C 0.64161 0.65085 0.76592 0.0
C1475 C 0.66008 0.67371 0.75527 0.0
C1476 C 0.659 0.7052 0.7536 0.0
C1477 C 0.63605 0.71115 0.76151 0.0
C1478 C 0.64192 0.61693 0.76812 0.0
C1479 C 0.68009 0.73134 0.74291 0.0
H1480 H 0.73718 0.63851 0.7392 0.0
H1481 H 0.63951 0.60358 0.71853 0.0
H1482 H 0.73115 0.70783 0.75842 0.0
H1483 H 0.72804 0.6686 0.76534 0.0
H1484 H 0.76003 0.69228 0.75271 0.0
H1485 H 0.60027 0.62253 0.72367 0.0
H1486 H 0.59817 0.62525 0.74143 0.0
H1487 H 0.61784 0.6646 0.73169 0.0
H1488 H 0.60441 0.63938 0.78159 0.0
H1489 H 0.6333 0.73399 0.75965 0.0
H1490 H 0.66932 0.62215 0.76879 0.0
H1491 H 0.62923 0.59901 0.75957 0.0
H1492 H 0.62775 0.60314 0.7773 0.0
H1493 H 0.70583 0.73272 0.74141 0.0
H1494 H 0.68476 0.75802 0.74535 0.0
H1495 H 0.66544 0.72307 0.7334 0.0
C1496 C 0.36007 0.07938 0.74174 0.0
C1497 C 0.3665 0.08012 0.72812 0.0
C1498 C 0.33892 0.04711 0.7482 0.0
C1499 C 0.32441 0.01545 0.74077 0.0
C1500 C 0.32595 0.01702 0.72677 0.0
C1501 C 0.34732 0.04944 0.72059 0.0
C1502 C 0.33646 0.04653 0.76312 0.0
C1503 C 0.30978 0.98407 0.71842 0.0
C1504 C 0.34412 0.94844 0.75575 0.0
C1505 C 0.31117 0.92255 0.7603 0.0
C1506 C 0.34829 0.97827 0.74919 0.0
C1507 C 0.31874 0.98276 0.74737 0.0
C1508 C 0.28504 0.95626 0.75173 0.0
C1509 C 0.28158 0.9261 0.75811 0.0
C1510 C 0.38467 0.00521 0.74442 0.0
C1511 C 0.25305 0.96031 0.75023 0.0
H1512 H 0.37448 0.10321 0.74755 0.0
H1513 H 0.3516 0.05024 0.70997 0.0
H1514 H 0.31012 0.02566 0.76647 0.0
H1515 H 0.35635 0.0407 0.76735 0.0
H1516 H 0.34159 0.07229 0.76709 0.0
H1517 H 0.30609 0.9897 0.70798 0.0
H1518 H 0.32748 0.97279 0.71843 0.0
H1519 H 0.284 0.96395 0.7225 0.0
H1520 H 0.36691 0.94543 0.75743 0.0
H1521 H 0.25617 0.90615 0.76185 0.0
H1522 H 0.39351 0.03069 0.74951 0.0
H1523 H 0.38417 0.00967 0.73361 0.0
H1524 H 0.40447 0.99698 0.74629 0.0
H1525 H 0.25279 0.97718 0.75837 0.0
H1526 H 0.22832 0.93451 0.75081 0.0
H1527 H 0.25347 0.97321 0.74071 0.0
C1528 C 0.94806 0.3238 0.72665 0.0
C1529 C 0.91484 0.29974 0.73179 0.0
C1530 C 0.97873 0.33397 0.73398 0.0
C1531 C 0.97622 0.3191 0.74665 0.0
C1532 C 0.94335 0.2913 0.75109 0.0
C1533 C 0.91275 0.2822 0.74367 0.0
C1534 C 0.01319 0.36348 0.72875 0.0
C1535 C 0.94012 0.27318 0.76415 0.0
C1536 C 0.06614 0.35826 0.76308 0.0
C1537 C 0.06666 0.38575 0.77034 0.0
C1538 C 0.03561 0.33397 0.75618 0.0
C1539 C 0.0057 0.33837 0.75616 0.0
C1540 C 0.00588 0.36535 0.76392 0.0
C1541 C 0.03607 0.38823 0.77105 0.0
C1542 C 0.03616 0.30471 0.74854 0.0
C1543 C 0.97506 0.37179 0.764 0.0
H1544 H 0.95003 0.33675 0.71728 0.0
H1545 H 0.88723 0.26295 0.74755 0.0
H1546 H 0.02182 0.3873 0.73497 0.0
H1547 H 0.03392 0.35614 0.7293 0.0
H1548 H 0.0111 0.37033 0.71831 0.0
H1549 H 0.91563 0.24716 0.76461 0.0
H1550 H 0.96312 0.26951 0.76578 0.0
H1551 H 0.93947 0.28965 0.77236 0.0
H1552 H 0.08958 0.35592 0.76266 0.0
H1553 H 0.03623 0.40936 0.77668 0.0
H1554 H 0.04755 0.31445 0.73856 0.0
H1555 H 0.00937 0.28167 0.74728 0.0
H1556 H 0.05302 0.29603 0.7536 0.0
H1557 H 0.97045 0.37832 0.75383 0.0
H1558 H 0.97937 0.39366 0.77071 0.0
H1559 H 0.95077 0.34774 0.76718 0.0
C1560 C 0.40148 0.33692 0.24817 0.0
C1561 C 0.3915 0.3073 0.24028 0.0
C1562 C 0.37631 0.34381 0.25362 0.0
C1563 C 0.34014 0.3204 0.25104 0.0
C1564 C 0.32978 0.28882 0.24394 0.0
C1565 C 0.35581 0.2827 0.23852 0.0
C1566 C 0.38878 0.37763 0.2613 0.0
C1567 C 0.2916 0.26274 0.24124 0.0
C1568 C 0.29428 0.35261 0.27308 0.0
C1569 C 0.2948 0.37869 0.26492 0.0
C1570 C 0.30335 0.32847 0.26802 0.0
C1571 C 0.31457 0.33179 0.2547 0.0
C1572 C 0.31019 0.35481 0.24604 0.0
C1573 C 0.30007 0.37804 0.25129 0.0
C1574 C 0.30564 0.30287 0.27737 0.0
C1575 C 0.32119 0.35862 0.23168 0.0
H1576 H 0.42924 0.35593 0.24937 0.0
H1577 H 0.3483 0.26002 0.23221 0.0
H1578 H 0.38126 0.39499 0.25595 0.0
H1579 H 0.37614 0.37199 0.27121 0.0
H1580 H 0.41778 0.39225 0.26273 0.0
H1581 H 0.28744 0.23579 0.23992 0.0
H1582 H 0.2743 0.26237 0.24934 0.0
H1583 H 0.28348 0.27014 0.23192 0.0
H1584 H 0.28969 0.35298 0.28364 0.0
H1585 H 0.30036 0.39828 0.24502 0.0
H1586 H 0.33296 0.31452 0.28116 0.0
H1587 H 0.29896 0.27795 0.27221 0.0
H1588 H 0.28777 0.2969 0.286 0.0
H1589 H 0.35037 0.3736 0.23106 0.0
H1590 H 0.31074 0.37287 0.22584 0.0
H1591 H 0.312 0.33247 0.22711 0.0
C1592 C 0.64218 0.92742 0.26272 0.0
C1593 C 0.61956 0.92852 0.27229 0.0
C1594 C 0.66458 0.95759 0.25527 0.0
C1595 C 0.66311 0.98884 0.25712 0.0
C1596 C 0.64274 0.99081 0.26762 0.0
C1597 C 0.62166 0.96079 0.27518 0.0
C1598 C 0.68791 0.95529 0.24481 0.0
C1599 C 0.64023 0.02349 0.27 0.0
C1600 C 0.71297 0.0774 0.23986 0.0
C1601 C 0.68872 0.07315 0.22995 0.0
C1602 C 0.70702 0.04897 0.24808 0.0
C1603 C 0.6756 0.01617 0.24658 0.0
C1604 C 0.6524 0.01133 0.23599 0.0
C1605 C 0.65957 0.03967 0.22772 0.0
C1606 C 0.73343 0.05483 0.25878 0.0
C1607 C 0.61827 0.97709 0.23405 0.0
H1608 H 0.64136 0.90278 0.26067 0.0
H1609 H 0.60481 0.96211 0.28275 0.0
H1610 H 0.6745 0.94957 0.23505 0.0
H1611 H 0.71307 0.98057 0.24395 0.0
H1612 H 0.69373 0.93393 0.24705 0.0
H1613 H 0.62487 0.02138 0.27906 0.0
H1614 H 0.66686 0.04681 0.27103 0.0
H1615 H 0.62733 0.02813 0.26138 0.0
H1616 H 0.73591 0.10306 0.24149 0.0
H1617 H 0.64093 0.03592 0.21995 0.0
H1618 H 0.7329 0.03005 0.26149 0.0
H1619 H 0.72736 0.06537 0.26777 0.0
H1620 H 0.76048 0.07448 0.25556 0.0
H1621 H 0.62342 0.95492 0.23308 0.0
H1622 H 0.60366 0.97746 0.22511 0.0
H1623 H 0.60106 0.97176 0.24283 0.0
C1624 C 0.96293 0.62514 0.22247 0.0
C1625 C 0.92908 0.61786 0.22608 0.0
C1626 C 0.99228 0.64751 0.23011 0.0
C1627 C 0.98778 0.66358 0.24154 0.0
C1628 C 0.95447 0.66008 0.24421 0.0
C1629 C 0.92521 0.63674 0.23654 0.0
C1630 C 0.02737 0.65078 0.22675 0.0
C1631 C 0.94923 0.6788 0.25576 0.0
C1632 C 0.04245 0.65956 0.26942 0.0
C1633 C 0.07411 0.69138 0.26787 0.0
C1634 C 0.01327 0.6513 0.26148 0.0
C1635 C 0.01525 0.67605 0.25201 0.0
C1636 C 0.04593 0.70971 0.25132 0.0
C1637 C 0.07544 0.71677 0.25909 0.0
C1638 C 0.98148 0.61476 0.26246 0.0
C1639 C 0.04853 0.73768 0.24194 0.0
H1640 H 0.9663 0.61144 0.21415 0.0
H1641 H 0.89922 0.63195 0.23917 0.0
H1642 H 0.0482 0.67884 0.22641 0.0
H1643 H 0.03471 0.63778 0.23455 0.0
H1644 H 0.0269 0.63855 0.21705 0.0
H1645 H 0.92554 0.68146 0.25436 0.0
H1646 H 0.94558 0.66357 0.26499 0.0
H1647 H 0.97258 0.70534 0.25715 0.0
H1648 H 0.04105 0.63988 0.27628 0.0
H1649 H 0.09965 0.7417 0.25804 0.0
H1650 H 0.97784 0.60049 0.25298 0.0
H1651 H 0.95737 0.6163 0.26425 0.0
H1652 H 0.98399 0.599 0.27057 0.0
H1653 H 0.06134 0.73662 0.2326 0.0
H1654 H 0.06509 0.76427 0.24629 0.0
H1655 H 0.02227 0.73411 0.23949 0.0
C1656 C 0.06881 0.16237 0.12929 0.0
C1657 C 0.05852 0.17276 0.11781 0.0
C1658 C 0.08873 0.14545 0.12847 0.0
C1659 C 0.09856 0.13888 0.11585 0.0
C1660 C 0.08988 0.15106 0.10427 0.0
C1661 C 0.06998 0.1679 0.10539 0.0
C1662 C 0.09767 0.13298 0.14106 0.0
C1663 C 0.09969 0.1444 0.09066 0.0
C1664 C 0.16551 0.10811 0.11672 0.0
C1665 C 0.14322 0.07163 0.11755 0.0
C1666 C 0.15149 0.13061 0.11544 0.0
C1667 C 0.11451 0.11603 0.1148 0.0
C1668 C 0.09227 0.07905 0.1144 0.0
C1669 C 0.1069 0.05732 0.11591 0.0
C1670 C 0.17604 0.16989 0.1158 0.0
C1671 C 0.05275 0.06227 0.11346 0.0
H1672 H 0.06017 0.16621 0.1389 0.0
H1673 H 0.06227 0.17605 0.09646 0.0
H1674 H 0.08283 0.10379 0.14137 0.0
H1675 H 0.12611 0.14148 0.14128 0.0
H1676 H 0.0911 0.14305 0.15008 0.0
H1677 H 0.09487 0.15928 0.08282 0.0
H1678 H 0.12781 0.1517 0.09037 0.0
H1679 H 0.08388 0.11592 0.08834 0.0
H1680 H 0.19359 0.11918 0.11813 0.0
H1681 H 0.08973 0.02905 0.11653 0.0
H1682 H 0.17369 0.18026 0.12555 0.0
H1683 H 0.16883 0.18314 0.10806 0.0
H1684 H 0.20393 0.17699 0.11435 0.0
H1685 H 0.04218 0.06405 0.12325 0.0
H1686 H 0.04015 0.0341 0.11062 0.0
H1687 H 0.04511 0.07608 0.10612 0.0
C1688 C 0.95363 0.05061 0.11883 0.0
C1689 C 0.93913 0.07267 0.11827 0.0
C1690 C 0.93261 0.01428 0.11704 0.0
C1691 C 0.8961 -0.00038 0.11476 0.0
C1692 C 0.88159 0.02196 0.11349 0.0
C1693 C 0.90344 0.05845 0.11518 0.0
C1694 C 0.94924 0.99143 0.11817 0.0
C1695 C 0.84273 0.0072 0.11115 0.0
C1696 C 0.85098 0.9055 0.10263 0.0
C1697 C 0.84018 0.88681 0.11462 0.0
C1698 C 0.86763 0.94229 0.10242 0.0
C1699 C 0.87326 0.96077 0.11448 0.0
C1700 C 0.86056 0.94194 0.12653 0.0
C1701 C 0.84432 0.90509 0.12647 0.0
C1702 C 0.88102 0.9614 0.08939 0.0
C1703 C 0.86581 0.96079 0.13959 0.0
H1704 H 0.98133 0.06175 0.12115 0.0
H1705 H 0.89218 0.07551 0.1149 0.0
H1706 H 0.93722 0.97262 0.1265 0.0
H1707 H 0.94442 0.97576 0.10898 0.0
H1708 H 0.97803 0.00715 0.11989 0.0
H1709 H 0.83626 0.02815 0.109 0.0
H1710 H 0.83351 0.98827 0.10277 0.0
H1711 H 0.82789 0.9926 0.1201 0.0
H1712 H 0.84774 0.89149 0.09341 0.0
H1713 H 0.83582 0.89072 0.13574 0.0
H1714 H 0.91019 0.9748 0.08924 0.0
H1715 H 0.87358 0.98197 0.08823 0.0
H1716 H 0.87074 0.94327 0.08077 0.0
H1717 H 0.89419 0.97493 0.1422 0.0
H1718 H 0.85097 0.94239 0.14779 0.0
H1719 H 0.85737 0.9807 0.13878 0.0
C1720 C 0.96053 0.90145 0.11728 0.0
C1721 C 0.93846 0.865 0.11602 0.0
C1722 C 0.9971 0.91685 0.11622 0.0
C1723 C 0.01201 0.89523 0.11393 0.0
C1724 C 0.98975 0.85867 0.11178 0.0
C1725 C 0.95304 0.84393 0.11278 0.0
C1726 C 0.01986 0.95607 0.11825 0.0
C1727 C 0.00474 0.83484 0.10929 0.0
C1728 C 0.10912 0.94635 0.10543 0.0
C1729 C 0.12445 0.9517 0.11806 0.0
C1730 C 0.07251 0.92626 0.10377 0.0
C1731 C 0.05081 0.91089 0.115 0.0
C1732 C 0.06635 0.91438 0.12765 0.0
C1733 C 0.10301 0.93496 0.12904 0.0
C1734 C 0.05701 0.9234 0.09014 0.0
C1735 C 0.04412 0.89813 0.13985 0.0
H1736 H 0.94918 0.91779 0.11966 0.0
H1737 H 0.93599 0.8157 0.11189 0.0
H1738 H 0.03681 0.96144 0.12712 0.0
H1739 H 0.03747 0.96809 0.10959 0.0
H1740 H 0.00407 0.96918 0.11963 0.0
H1741 H 0.98419 0.80814 0.10608 0.0
H1742 H 0.02563 0.8462 0.10161 0.0
H1743 H 0.017 0.8323 0.11854 0.0
H1744 H 0.12557 0.95922 0.09688 0.0
H1745 H 0.11477 0.93884 0.1388 0.0
H1746 H 0.04472 0.94016 0.08968 0.0
H1747 H 0.0361 0.89597 0.08808 0.0
H1748 H 0.07728 0.93204 0.08223 0.0
H1749 H 0.02938 0.9119 0.14223 0.0
H1750 H 0.06025 0.89984 0.14862 0.0
H1751 H 0.02451 0.87008 0.13803 0.0
C1752 C 0.10074 0.16367 0.3812 0.0
C1753 C 0.06462 0.14098 0.37929 0.0
C1754 C 0.12347 0.15013 0.38311 0.0
C1755 C 0.10946 0.1132 0.38324 0.0
C1756 C 0.07262 0.0904 0.38251 0.0
C1757 C 0.05068 0.10459 0.38046 0.0
C1758 C 0.16259 0.17522 0.38394 0.0
C1759 C 0.05654 0.05089 0.38283 0.0
C1760 C 0.15812 0.06925 0.36953 0.0
C1761 C 0.16596 0.05703 0.38113 0.0
C1762 C 0.14173 0.08966 0.37013 0.0
C1763 C 0.13293 0.09791 0.38263 0.0
C1764 C 0.14269 0.08739 0.39439 0.0
C1765 C 0.15914 0.06708 0.3935 0.0
C1766 C 0.13194 0.1006 0.35735 0.0
C1767 C 0.13373 0.09561 0.4079 0.0
H1768 H 0.11154 0.19182 0.38018 0.0
H1769 H 0.02266 0.08708 0.37905 0.0
H1770 H 0.17465 0.16704 0.39182 0.0
H1771 H 0.17503 0.17487 0.37439 0.0
H1772 H 0.16876 0.20263 0.38592 0.0
H1773 H 0.02753 0.03722 0.38395 0.0
H1774 H 0.06277 0.04188 0.37346 0.0
H1775 H 0.0676 0.0428 0.39111 0.0
H1776 H 0.16359 0.06179 0.35995 0.0
H1777 H 0.16535 0.05788 0.40253 0.0
H1778 H 0.1404 0.12901 0.35761 0.0
H1779 H 0.10291 0.08584 0.35614 0.0
H1780 H 0.14395 0.09547 0.34855 0.0
H1781 H 0.1404 0.12351 0.40847 0.0
H1782 H 0.14771 0.09035 0.41598 0.0
H1783 H 0.10499 0.07911 0.40961 0.0
C1784 C 0.9337 0.10156 0.39017 0.0
C1785 C 0.94376 0.11655 0.37749 0.0
C1786 C 0.91445 0.06498 0.39185 0.0
C1787 C 0.90491 0.04294 0.38058 0.0
C1788 C 0.91342 0.05795 0.36772 0.0
C1789 C 0.93281 0.09466 0.36633 0.0
C1790 C 0.90634 0.04996 0.40571 0.0
C1791 C 0.90356 0.03522 0.35545 0.0
C1792 C 0.89699 0.95322 0.38219 0.0
C1793 C 0.86049 0.93096 0.38189 0.0
C1794 C 0.91171 0.98979 0.38261 0.0
C1795 C 0.88932 0.00436 0.38221 0.0
C1796 C 0.85233 0.98193 0.3825 0.0
C1797 C 0.83829 0.9453 0.3825 0.0
C1798 C 0.95127 0.01262 0.38273 0.0
C1799 C 0.82767 0.99653 0.382 0.0
H1800 H 0.942 0.11837 0.39885 0.0
H1801 H 0.94041 0.10613 0.35652 0.0
H1802 H 0.87827 0.02929 0.40656 0.0
H1803 H 0.92234 0.0374 0.4079 0.0
H1804 H 0.9122 0.07046 0.41333 0.0
H1805 H 0.90884 0.05081 0.3462 0.0
H1806 H 0.91889 0.02137 0.35514 0.0
H1807 H 0.87526 0.01485 0.35572 0.0
H1808 H 0.91405 0.94196 0.38173 0.0
H1809 H 0.81001 0.92795 0.3821 0.0
H1810 H 0.95992 0.03632 0.38899 0.0
H1811 H 0.96074 0.02154 0.37247 0.0
H1812 H 0.964 0.99795 0.38649 0.0
H1813 H 0.83502 0.01731 0.38961 0.0
H1814 H 0.79981 0.97582 0.38357 0.0
H1815 H 0.82985 0.00888 0.37218 0.0
C1816 C 0.04347 0.94851 0.38131 0.0
C1817 C 0.06692 0.93567 0.38221 0.0
C1818 C 0.0075 0.92667 0.3837 0.0
C1819 C 0.99455 0.89101 0.38713 0.0
C1820 C 0.01838 0.87839 0.38888 0.0
C1821 C 0.05447 0.90099 0.38643 0.0
C1822 C 0.98315 0.9414 0.38192 0.0
C1823 C 0.00553 0.84058 0.39259 0.0
C1824 C 0.90065 0.84585 0.39973 0.0
C1825 C 0.88166 0.83208 0.38793 0.0
C1826 C 0.93756 0.86329 0.39982 0.0
C1827 C 0.95586 0.86684 0.38785 0.0
C1828 C 0.93673 0.85098 0.3761 0.0
C1829 C 0.89983 0.83388 0.37627 0.0
C1830 C 0.95693 0.87983 0.41256 0.0
C1831 C 0.95527 0.85403 0.36313 0.0
H1832 H 0.05314 0.9755 0.37823 0.0
H1833 H 0.07253 0.89095 0.38706 0.0
H1834 H 0.96362 0.92672 0.37402 0.0
H1835 H 0.96835 0.93824 0.39122 0.0
H1836 H 0.99758 0.96969 0.37919 0.0
H1837 H 0.02755 0.83606 0.39521 0.0
H1838 H 0.98703 0.83257 0.40108 0.0
H1839 H 0.99095 0.8233 0.3841 0.0
H1840 H 0.88676 0.84442 0.40881 0.0
H1841 H 0.88528 0.82307 0.36715 0.0
H1842 H 0.96868 0.90881 0.41195 0.0
H1843 H 0.97878 0.87435 0.41409 0.0
H1844 H 0.93923 0.87022 0.42132 0.0
H1845 H 0.96835 0.8817 0.35963 0.0
H1846 H 0.93683 0.83694 0.35529 0.0
H1847 H 0.97602 0.84689 0.3645 0.0
C1848 C 0.84149 0.89542 0.88367 0.0
C1849 C 0.86293 0.93155 0.8814 0.0
C1850 C 0.85618 0.8734 0.88449 0.0
C1851 C 0.89307 0.88817 0.88317 0.0
C1852 C 0.91491 0.92503 0.88188 0.0
C1853 C 0.89954 0.94625 0.88094 0.0
C1854 C 0.83209 0.83421 0.88581 0.0
C1855 C 0.95442 0.94186 0.88075 0.0
C1856 C 0.94215 0.84015 0.89168 0.0
C1857 C 0.9496 0.83228 0.87901 0.0
C1858 C 0.92212 0.85674 0.89328 0.0
C1859 C 0.909 0.86533 0.88193 0.0
C1860 C 0.91473 0.85559 0.86917 0.0
C1861 C 0.93516 0.83933 0.86785 0.0
C1862 C 0.91679 0.86687 0.90703 0.0
C1863 C 0.90092 0.86408 0.85682 0.0
H1864 H 0.81314 0.88404 0.88388 0.0
H1865 H 0.91608 0.97428 0.87925 0.0
H1866 H 0.83124 0.82131 0.87624 0.0
H1867 H 0.84215 0.82319 0.89342 0.0
H1868 H 0.80484 0.82739 0.88848 0.0
H1869 H 0.96762 0.97093 0.88005 0.0
H1870 H 0.96502 0.93483 0.88949 0.0
H1871 H 0.96138 0.93189 0.87181 0.0
H1872 H 0.95319 0.8347 0.90037 0.0
H1873 H 0.94068 0.8331 0.85806 0.0
H1874 H 0.88894 0.85968 0.90855 0.0
H1875 H 0.93309 0.89581 0.90824 0.0
H1876 H 0.92434 0.8541 0.91488 0.0
H1877 H 0.87257 0.85537 0.85797 0.0
H1878 H 0.90435 0.85145 0.84784 0.0
H1879 H 0.9151 0.89298 0.85526 0.0
C1880 C 0.0557 0.95216 0.88305 0.0
C1881 C 0.07028 0.93046 0.88116 0.0
C1882 C 0.07722 0.98843 0.88489 0.0
C1883 C 0.11424 0.00338 0.88461 0.0
C1884 C 0.12904 0.98119 0.88381 0.0
C1885 C 0.10675 0.94476 0.88216 0.0
C1886 C 0.06019 0.01091 0.886 0.0
C1887 C 0.16837 0.99614 0.8836 0.0
C1888 C 0.15981 0.09545 0.87023 0.0
C1889 C 0.16983 0.11606 0.88174 0.0
C1890 C 0.14335 0.05866 0.87102 0.0
C1891 C 0.13686 0.0422 0.88362 0.0
C1892 C 0.14871 0.06301 0.89523 0.0
C1893 C 0.16507 0.09973 0.89414 0.0
C1894 C 0.13122 0.03733 0.85841 0.0
C1895 C 0.14221 0.04648 0.90882 0.0
H1896 H 0.02742 0.94097 0.88232 0.0
H1897 H 0.11801 0.92796 0.88058 0.0
H1898 H 0.07365 0.03191 0.89353 0.0
H1899 H 0.06218 0.02383 0.87632 0.0
H1900 H 0.03194 0.99502 0.8887 0.0
H1901 H 0.17556 0.97544 0.88512 0.0
H1902 H 0.17893 0.00886 0.87387 0.0
H1903 H 0.18136 0.0166 0.89136 0.0
H1904 H 0.16361 0.10795 0.86063 0.0
H1905 H 0.17296 0.11554 0.90309 0.0
H1906 H 0.10202 0.02258 0.85806 0.0
H1907 H 0.14018 0.01775 0.85816 0.0
H1908 H 0.14114 0.05407 0.8494 0.0
H1909 H 0.11374 0.03378 0.91119 0.0
H1910 H 0.15715 0.06616 0.91666 0.0
H1911 H 0.14955 0.02569 0.90907 0.0
C1912 C 0.04819 0.10095 0.88208 0.0
C1913 C 0.07009 0.13747 0.88141 0.0
C1914 C 0.01179 0.08595 0.88367 0.0
C1915 C 0.99693 0.10807 0.88424 0.0
C1916 C 0.01917 0.14509 0.88434 0.0
C1917 C 0.05572 0.15944 0.88303 0.0
C1918 C 0.98915 0.04638 0.88388 0.0
C1919 C 0.00425 0.16948 0.8849 0.0
C1920 C 0.90371 0.06313 0.8709 0.0
C1921 C 0.88407 0.05167 0.88262 0.0
C1922 C 0.94059 0.08333 0.87131 0.0
C1923 C 0.95807 0.09206 0.88374 0.0
C1924 C 0.93823 0.08208 0.89559 0.0
C1925 C 0.90144 0.06207 0.89489 0.0
C1926 C 0.96091 0.09379 0.85844 0.0
C1927 C 0.95587 0.09061 0.90902 0.0
H1928 H 0.05946 0.08405 0.88085 0.0
H1929 H 0.07272 0.18771 0.88233 0.0
H1930 H 0.96906 0.03774 0.89184 0.0
H1931 H 0.97504 0.03717 0.87429 0.0
H1932 H 0.00506 0.03344 0.88544 0.0
H1933 H 0.02503 0.19728 0.88653 0.0
H1934 H 0.99067 0.16785 0.87542 0.0
H1935 H 0.98443 0.16149 0.89294 0.0
H1936 H 0.8904 0.05531 0.8614 0.0
H1937 H 0.88639 0.05344 0.90401 0.0
H1938 H 0.97521 0.07905 0.85728 0.0
H1939 H 0.98082 0.12223 0.85854 0.0
H1940 H 0.94348 0.08825 0.8497 0.0
H1941 H 0.96899 0.07485 0.91055 0.0
H1942 H 0.93682 0.08474 0.91722 0.0
H1943 H 0.9765 0.11875 0.90957 0.0
C1944 C 0.83509 0.92583 0.62989 0.0
C1945 C 0.82949 0.94099 0.61861 0.0
C1946 C 0.85354 0.90742 0.629 0.0
C1947 C 0.86697 0.90453 0.61657 0.0
C1948 C 0.86002 0.91844 0.60506 0.0
C1949 C 0.84117 0.93634 0.60621 0.0
C1950 C 0.86016 0.8926 0.64148 0.0
C1951 C 0.87418 0.91621 0.59166 0.0
C1952 C 0.94986 0.89892 0.61958 0.0
C1953 C 0.93679 0.86269 0.61827 0.0
C1954 C 0.92762 0.91306 0.61835 0.0
C1955 C 0.89134 0.8903 0.61591 0.0
C1956 C 0.87836 0.85394 0.61379 0.0
C1957 C 0.9014 0.84053 0.61491 0.0
C1958 C 0.94264 0.95211 0.62039 0.0
C1959 C 0.83981 0.82892 0.6112 0.0
H1960 H 0.82597 0.92924 0.63947 0.0
H1961 H 0.83691 0.94799 0.59743 0.0
H1962 H 0.8531 0.8648 0.63992 0.0
H1963 H 0.88858 0.90764 0.64399 0.0
H1964 H 0.84497 0.89388 0.65007 0.0
H1965 H 0.863 0.92459 0.5835 0.0
H1966 H 0.90322 0.93341 0.59158 0.0
H1967 H 0.86842 0.88898 0.58967 0.0
H1968 H 0.97733 0.91605 0.62209 0.0
H1969 H 0.89124 0.81246 0.61402 0.0
H1970 H 0.93101 0.95674 0.6294 0.0
H1971 H 0.93585 0.9636 0.61187 0.0
H1972 H 0.97168 0.96632 0.62155 0.0
H1973 H 0.82451 0.82637 0.62031 0.0
H1974 H 0.83465 0.80234 0.60828 0.0
H1975 H 0.82994 0.83927 0.60326 0.0
C1976 C 0.09989 0.04702 0.61516 0.0
C1977 C 0.13615 0.07026 0.61613 0.0
C1978 C 0.08639 0.01071 0.61416 0.0
C1979 C 0.10979 0.99731 0.61441 0.0
C1980 C 0.14661 0.02081 0.61463 0.0
C1981 C 0.15944 0.05722 0.61539 0.0
C1982 C 0.04697 0.98671 0.61366 0.0
C1983 C 0.17232 0.00745 0.61492 0.0
C1984 C 0.06717 0.90496 0.6285 0.0
C1985 C 0.05717 0.88468 0.61691 0.0
C1986 C 0.08615 0.94185 0.62785 0.0
C1987 C 0.09526 0.95869 0.6153 0.0
C1988 C 0.08697 0.93828 0.60361 0.0
C1989 C 0.06808 0.9015 0.60456 0.0
C1990 C 0.09478 0.96279 0.64054 0.0
C1991 C 0.096 0.95521 0.59006 0.0
H1992 H 0.08197 0.05725 0.61569 0.0
H1993 H 0.1875 0.07524 0.61629 0.0
H1994 H 0.03962 0.96593 0.60605 0.0
H1995 H 0.03764 0.97349 0.6234 0.0
H1996 H 0.03299 0.00135 0.61143 0.0
H1997 H 0.19993 0.02898 0.61358 0.0
H1998 H 0.17028 0.99448 0.62459 0.0
H1999 H 0.16593 0.98744 0.60707 0.0
H2000 H 0.05897 0.89208 0.63807 0.0
H2001 H 0.06063 0.88596 0.59555 0.0
H2002 H 0.07885 0.97598 0.64116 0.0
H2003 H 0.1229 0.98365 0.64066 0.0
H2004 H 0.08929 0.94599 0.64947 0.0
H2005 H 0.07943 0.96719 0.58798 0.0
H2006 H 0.09156 0.93594 0.58209 0.0
H2007 H 0.12386 0.97662 0.58972 0.0
C2008 C 0.09046 0.16735 0.6236 0.0
C2009 C 0.10894 0.16482 0.61274 0.0
C2010 C 0.05357 0.14935 0.62368 0.0
C2011 C 0.03484 0.12784 0.61274 0.0
C2012 C 0.05341 0.12663 0.60146 0.0
C2013 C 0.09032 0.14537 0.60157 0.0
C2014 C 0.0347 0.15156 0.63585 0.0
C2015 C 0.03446 0.10373 0.58967 0.0
C2016 C 0.94924 0.04799 0.62272 0.0
C2017 C 0.92463 0.05867 0.61992 0.0
C2018 C 0.98496 0.06975 0.6199 0.0
C2019 C 0.99646 0.10297 0.614 0.0
C2020 C 0.97156 0.11303 0.61032 0.0
C2021 C 0.93577 0.09068 0.61334 0.0
C2022 C 0.01056 0.05771 0.62377 0.0
C2023 C 0.98292 0.14801 0.60378 0.0
H2024 H 0.10485 0.18259 0.6322 0.0
H2025 H 0.10455 0.14325 0.59316 0.0
H2026 H 0.01328 0.15671 0.63299 0.0
H2027 H 0.02248 0.12602 0.64118 0.0
H2028 H 0.05277 0.17254 0.64278 0.0
H2029 H 0.05196 0.11045 0.58089 0.0
H2030 H 0.02474 0.07578 0.59225 0.0
H2031 H 0.01127 0.10617 0.58695 0.0
H2032 H 0.94074 0.02293 0.62754 0.0
H2033 H 0.91686 0.09898 0.61108 0.0
H2034 H 0.03016 0.07648 0.63093 0.0
H2035 H 0.02518 0.05717 0.61489 0.0
H2036 H 0.99729 0.03113 0.62834 0.0
H2037 H 0.99787 0.16952 0.61099 0.0
H2038 H 0.96014 0.15014 0.60015 0.0
H2039 H 0.00072 0.1521 0.59531 0.0
C2040 C 0.71559 0.4837 0.43058 0.0
C2041 C 0.71179 0.49997 0.44195 0.0
C2042 C 0.73508 0.46635 0.43094 0.0
C2043 C 0.75149 0.46563 0.44291 0.0
C2044 C 0.74948 0.48378 0.4542 0.0
C2045 C 0.72947 0.50063 0.45361 0.0
C2046 C 0.73631 0.44703 0.41874 0.0
C2047 C 0.76696 0.48387 0.46711 0.0
C2048 C 0.7625 0.38734 0.45067 0.0
C2049 C 0.79856 0.40099 0.44844 0.0
C2050 C 0.74669 0.4078 0.44846 0.0
C2051 C 0.76757 0.44293 0.44405 0.0
C2052 C 0.80372 0.45643 0.44124 0.0
C2053 C 0.8188 0.43514 0.44338 0.0
C2054 C 0.70789 0.39215 0.45133 0.0
C2055 C 0.82674 0.4938 0.43655 0.0
H2056 H 0.70201 0.48312 0.42152 0.0
H2057 H 0.72673 0.51331 0.46239 0.0
H2058 H 0.76372 0.45357 0.41659 0.0
H2059 H 0.72072 0.41825 0.42051 0.0
H2060 H 0.72549 0.45331 0.40985 0.0
H2061 H 0.76611 0.50225 0.47449 0.0
H2062 H 0.75348 0.457 0.47142 0.0
H2063 H 0.79482 0.49136 0.46538 0.0
H2064 H 0.74672 0.36079 0.45445 0.0
H2065 H 0.84673 0.4458 0.44173 0.0
H2066 H 0.69419 0.39498 0.44257 0.0
H2067 H 0.7042 0.4065 0.45966 0.0
H2068 H 0.6951 0.36385 0.45399 0.0
H2069 H 0.81478 0.49914 0.4278 0.0
H2070 H 0.85364 0.49946 0.43387 0.0
H2071 H 0.82889 0.51227 0.4445 0.0
C2072 C 0.4981 0.23318 0.46123 0.0
C2073 C 0.50032 0.21412 0.45052 0.0
C2074 C 0.51508 0.27005 0.4608 0.0
C2075 C 0.53549 0.2881 0.44954 0.0
C2076 C 0.53729 0.26886 0.43862 0.0
C2077 C 0.51931 0.23204 0.43918 0.0
C2078 C 0.51222 0.28974 0.47257 0.0
C2079 C 0.55958 0.28713 0.42661 0.0
C2080 C 0.56461 0.38494 0.44525 0.0
C2081 C 0.59807 0.40098 0.4511 0.0
C2082 C 0.54392 0.34811 0.44454 0.0
C2083 C 0.55728 0.32706 0.44967 0.0
C2084 C 0.59153 0.34319 0.45516 0.0
C2085 C 0.61144 0.37991 0.45583 0.0
C2086 C 0.50745 0.3317 0.43866 0.0
C2087 C 0.60698 0.32164 0.46048 0.0
H2088 H 0.48339 0.21928 0.47 0.0
H2089 H 0.52147 0.21735 0.43094 0.0
H2090 H 0.53823 0.30474 0.4775 0.0
H2091 H 0.50445 0.30902 0.46927 0.0
H2092 H 0.49276 0.27182 0.47999 0.0
H2093 H 0.5558 0.2684 0.4185 0.0
H2094 H 0.55332 0.30704 0.42274 0.0
H2095 H 0.58778 0.30124 0.42946 0.0
H2096 H 0.55411 0.40109 0.44162 0.0
H2097 H 0.63747 0.39215 0.46022 0.0
H2098 H 0.48765 0.3158 0.44631 0.0
H2099 H 0.50469 0.3136 0.43047 0.0
H2100 H 0.50132 0.35172 0.43477 0.0
H2101 H 0.59003 0.3039 0.46848 0.0
H2102 H 0.63395 0.33827 0.4645 0.0
H2103 H 0.60795 0.30482 0.45248 0.0
C2104 C 0.7633 0.27014 0.45857 0.0
C2105 C 0.78237 0.28281 0.44677 0.0
C2106 C 0.72648 0.24929 0.45836 0.0
C2107 C 0.70843 0.24109 0.44606 0.0
C2108 C 0.72771 0.25225 0.43409 0.0
C2109 C 0.76449 0.27293 0.43459 0.0
C2110 C 0.70679 0.23764 0.47135 0.0
C2111 C 0.70943 0.24426 0.4208 0.0
C2112 C 0.61132 0.17221 0.44762 0.0
C2113 C 0.59647 0.19355 0.44984 0.0
C2114 C 0.6478 0.1873 0.44571 0.0
C2115 C 0.66947 0.22441 0.44589 0.0
C2116 C 0.65403 0.24592 0.44703 0.0
C2117 C 0.61773 0.23019 0.44909 0.0
C2118 C 0.66336 0.16358 0.44443 0.0
C2119 C 0.67603 0.28561 0.44704 0.0
H2120 H 0.777 0.27754 0.468 0.0
H2121 H 0.7791 0.28253 0.42541 0.0
H2122 H 0.69194 0.25168 0.47295 0.0
H2123 H 0.68741 0.20906 0.47108 0.0
H2124 H 0.72472 0.24307 0.47992 0.0
H2125 H 0.72816 0.2509 0.41242 0.0
H2126 H 0.68909 0.21604 0.42011 0.0
H2127 H 0.69586 0.25973 0.4197 0.0
H2128 H 0.59487 0.14387 0.4483 0.0
H2129 H 0.60609 0.24663 0.45071 0.0
H2130 H 0.67763 0.16488 0.4537 0.0
H2131 H 0.68269 0.17242 0.4362 0.0
H2132 H 0.64284 0.13574 0.44268 0.0
H2133 H 0.69053 0.29457 0.45657 0.0
H2134 H 0.65967 0.29822 0.44586 0.0
H2135 H 0.69581 0.29498 0.43895 0.0
C2136 C 0.77007 0.4913 0.71708 0.0
C2137 C 0.73335 0.47073 0.71652 0.0
C2138 C 0.79088 0.47541 0.71854 0.0
C2139 C 0.77433 0.4383 0.71963 0.0
C2140 C 0.73717 0.4179 0.72028 0.0
C2141 C 0.71715 0.43436 0.71857 0.0
C2142 C 0.83041 0.49801 0.71788 0.0
C2143 C 0.71834 0.37835 0.7217 0.0
C2144 C 0.81517 0.38677 0.70564 0.0
C2145 C 0.82523 0.37652 0.71722 0.0
C2146 C 0.8002 0.40849 0.70625 0.0
C2147 C 0.79522 0.42018 0.71875 0.0
C2148 C 0.80697 0.41135 0.73041 0.0
C2149 C 0.82186 0.38963 0.72951 0.0
C2150 C 0.7881 0.41748 0.69358 0.0
C2151 C 0.80188 0.42305 0.74391 0.0
H2152 H 0.78255 0.5194 0.71534 0.0
H2153 H 0.68868 0.41853 0.71814 0.0
H2154 H 0.84306 0.49033 0.7257 0.0
H2155 H 0.83978 0.49404 0.70816 0.0
H2156 H 0.83921 0.52642 0.71899 0.0
H2157 H 0.69066 0.36762 0.72495 0.0
H2158 H 0.71822 0.36638 0.71199 0.0
H2159 H 0.73181 0.37009 0.72896 0.0
H2160 H 0.81786 0.37684 0.69613 0.0
H2161 H 0.82974 0.38192 0.73851 0.0
H2162 H 0.79826 0.44622 0.693 0.0
H2163 H 0.75893 0.40418 0.69347 0.0
H2164 H 0.79686 0.4092 0.68462 0.0
H2165 H 0.81094 0.45161 0.74389 0.0
H2166 H 0.81621 0.41762 0.7518 0.0
H2167 H 0.77344 0.40897 0.74642 0.0
C2168 C 0.50485 0.28105 0.719 0.0
C2169 C 0.52536 0.26589 0.71569 0.0
C2170 C 0.52034 0.31772 0.72033 0.0
C2171 C 0.55709 0.33931 0.71843 0.0
C2172 C 0.57812 0.32376 0.71609 0.0
C2173 C 0.56196 0.28723 0.71471 0.0
C2174 C 0.49713 0.33342 0.72282 0.0
C2175 C 0.6175 0.34586 0.71433 0.0
C2176 C 0.59875 0.43136 0.70425 0.0
C2177 C 0.61483 0.45184 0.7155 0.0
C2178 C 0.57792 0.39466 0.70522 0.0
C2179 C 0.57355 0.37816 0.71772 0.0
C2180 C 0.58841 0.39888 0.7292 0.0
C2181 C 0.60874 0.43554 0.72796 0.0
C2182 C 0.56219 0.3734 0.69277 0.0
C2183 C 0.5846 0.38229 0.74267 0.0
H2184 H 0.47649 0.26456 0.71965 0.0
H2185 H 0.57782 0.27541 0.71226 0.0
H2186 H 0.50852 0.35384 0.73067 0.0
H2187 H 0.4954 0.34642 0.71364 0.0
H2188 H 0.47007 0.31317 0.7258 0.0
H2189 H 0.63004 0.32962 0.71263 0.0
H2190 H 0.62372 0.36389 0.70576 0.0
H2191 H 0.62942 0.36236 0.72326 0.0
H2192 H 0.60324 0.4439 0.69462 0.0
H2193 H 0.62111 0.45127 0.73671 0.0
H2194 H 0.53389 0.3541 0.69429 0.0
H2195 H 0.57562 0.35834 0.69037 0.0
H2196 H 0.56482 0.39025 0.68412 0.0
H2197 H 0.55687 0.36178 0.74451 0.0
H2198 H 0.5934 0.40201 0.75079 0.0
H2199 H 0.6007 0.36926 0.74302 0.0
C2200 C 0.70197 0.27231 0.71923 0.0
C2201 C 0.72283 0.25647 0.71865 0.0
C2202 C 0.66534 0.252 0.72045 0.0
C2203 C 0.64914 0.21485 0.72078 0.0
C2204 C 0.6703 0.19884 0.72114 0.0
C2205 C 0.7071 0.21996 0.72017 0.0
C2206 C 0.64397 0.27031 0.72032 0.0
C2207 C 0.65403 0.15936 0.72151 0.0
C2208 C 0.55194 0.16705 0.72933 0.0
C2209 C 0.53652 0.16137 0.7167 0.0
C2210 C 0.58854 0.18292 0.73084 0.0
C2211 C 0.61022 0.19317 0.71945 0.0
C2212 C 0.59466 0.18571 0.70666 0.0
C2213 C 0.55796 0.16993 0.70544 0.0
C2214 C 0.60408 0.19064 0.74463 0.0
C2215 C 0.61689 0.19602 0.69426 0.0
H2216 H 0.71424 0.3006 0.71805 0.0
H2217 H 0.72325 0.20771 0.71953 0.0
H2218 H 0.63212 0.26748 0.71035 0.0
H2219 H 0.62218 0.25837 0.72763 0.0
H2220 H 0.66041 0.2988 0.72256 0.0
H2221 H 0.67385 0.15128 0.7236 0.0
H2222 H 0.63304 0.14771 0.72914 0.0
H2223 H 0.64162 0.14821 0.71178 0.0
H2224 H 0.53553 0.16041 0.73809 0.0
H2225 H 0.5462 0.16547 0.69566 0.0
H2226 H 0.61766 0.21942 0.74643 0.0
H2227 H 0.62402 0.18228 0.74563 0.0
H2228 H 0.58369 0.17731 0.7524 0.0
H2229 H 0.63222 0.22512 0.69346 0.0
H2230 H 0.60073 0.18536 0.68514 0.0
H2231 H 0.636 0.18648 0.69474 0.0
C2232 C 0.59827 0.16761 0.20295 0.0
C2233 C 0.61638 0.16648 0.2142 0.0
C2234 C 0.57943 0.18571 0.20322 0.0
C2235 C 0.57941 0.20359 0.21493 0.0
C2236 C 0.59683 0.20164 0.22641 0.0
C2237 C 0.61483 0.18281 0.22594 0.0
C2238 C 0.56075 0.18689 0.19082 0.0
C2239 C 0.59799 0.2209 0.23899 0.0
C2240 C 0.56892 0.28324 0.20976 0.0
C2241 C 0.53352 0.27007 0.21314 0.0
C2242 C 0.58435 0.26206 0.2106 0.0
C2243 C 0.56373 0.22671 0.21481 0.0
C2244 C 0.52824 0.21353 0.21863 0.0
C2245 C 0.51358 0.23553 0.21785 0.0
C2246 C 0.62256 0.27738 0.20678 0.0
C2247 C 0.50548 0.17588 0.22307 0.0
H2248 H 0.5994 0.15495 0.19388 0.0
H2249 H 0.62898 0.18221 0.23466 0.0
H2250 H 0.53322 0.17967 0.19316 0.0
H2251 H 0.57409 0.21407 0.18681 0.0
H2252 H 0.56041 0.1689 0.183 0.0
H2253 H 0.61025 0.21441 0.24736 0.0
H2254 H 0.61339 0.24969 0.23723 0.0
H2255 H 0.57108 0.21448 0.24195 0.0
H2256 H 0.58447 0.31008 0.20624 0.0
H2257 H 0.48613 0.22523 0.22038 0.0
H2258 H 0.62513 0.26163 0.1987 0.0
H2259 H 0.63782 0.27637 0.21538 0.0
H2260 H 0.63458 0.30509 0.20338 0.0
H2261 H 0.50261 0.15786 0.21483 0.0
H2262 H 0.47884 0.17011 0.22621 0.0
H2263 H 0.51812 0.17 0.23145 0.0
C2264 C 0.72096 0.28628 0.20788 0.0
C2265 C 0.73242 0.26282 0.21164 0.0
C2266 C 0.74231 0.32256 0.20962 0.0
C2267 C 0.77592 0.33594 0.21545 0.0
C2268 C 0.78685 0.31239 0.22007 0.0
C2269 C 0.76493 0.27595 0.21808 0.0
C2270 C 0.72933 0.34665 0.20475 0.0
C2271 C 0.82224 0.32578 0.22658 0.0
C2272 C 0.83806 0.42919 0.20409 0.0
C2273 C 0.83527 0.44874 0.21449 0.0
C2274 C 0.82098 0.39233 0.20475 0.0
C2275 C 0.79991 0.37469 0.21593 0.0
C2276 C 0.79817 0.39446 0.2267 0.0
C2277 C 0.81616 0.4313 0.22589 0.0
C2278 C 0.82382 0.37219 0.19313 0.0
C2279 C 0.77547 0.37674 0.23867 0.0
H2280 H 0.69556 0.27635 0.20313 0.0
H2281 H 0.77388 0.25799 0.22105 0.0
H2282 H 0.72888 0.36289 0.21308 0.0
H2283 H 0.74751 0.36486 0.19711 0.0
H2284 H 0.70252 0.33197 0.2004 0.0
H2285 H 0.8254 0.30411 0.23078 0.0
H2286 H 0.8434 0.34027 0.21919 0.0
H2287 H 0.82591 0.34453 0.23465 0.0
H2288 H 0.85299 0.44268 0.1953 0.0
H2289 H 0.81371 0.44634 0.23393 0.0
H2290 H 0.79827 0.3586 0.18781 0.0
H2291 H 0.82975 0.35173 0.19661 0.0
H2292 H 0.84456 0.38966 0.186 0.0
H2293 H 0.74736 0.36537 0.23594 0.0
H2294 H 0.78128 0.39546 0.247 0.0
H2295 H 0.77916 0.35482 0.24216 0.0
C2296 C 0.71515 0.43408 0.2131 0.0
C2297 C 0.73821 0.4705 0.21323 0.0
C2298 C 0.67918 0.41993 0.21546 0.0
C2299 C 0.66585 0.44286 0.21787 0.0
C2300 C 0.68925 0.47961 0.21875 0.0
C2301 C 0.72538 0.49306 0.21649 0.0
C2302 C 0.65526 0.38052 0.21466 0.0
C2303 C 0.67591 0.50478 0.22135 0.0
C2304 C 0.5705 0.40226 0.20742 0.0
C2305 C 0.55317 0.38852 0.21947 0.0
C2306 C 0.60737 0.42207 0.20688 0.0
C2307 C 0.6272 0.42807 0.21867 0.0
C2308 C 0.60972 0.41603 0.23096 0.0
C2309 C 0.57288 0.39647 0.23121 0.0
C2310 C 0.62514 0.43478 0.19359 0.0
C2311 C 0.6299 0.42167 0.24372 0.0
H2312 H 0.72515 0.41662 0.21068 0.0
H2313 H 0.74318 0.52126 0.21651 0.0
H2314 H 0.63716 0.37073 0.22328 0.0
H2315 H 0.63886 0.37389 0.20557 0.0
H2316 H 0.67026 0.3663 0.21431 0.0
H2317 H 0.69771 0.53203 0.22316 0.0
H2318 H 0.66052 0.50507 0.21267 0.0
H2319 H 0.65801 0.49604 0.23004 0.0
H2320 H 0.55536 0.39638 0.19833 0.0
H2321 H 0.55962 0.3861 0.24059 0.0
H2322 H 0.63818 0.41963 0.19075 0.0
H2323 H 0.64582 0.46291 0.19417 0.0
H2324 H 0.60619 0.4316 0.18566 0.0
H2325 H 0.64233 0.40499 0.24371 0.0
H2326 H 0.61264 0.41481 0.25258 0.0
H2327 H 0.65132 0.44942 0.2446 0.0
C2328 C 0.5573 0.1705 0.94571 0.0
C2329 C 0.59369 0.1928 0.94703 0.0
C2330 C 0.53485 0.18453 0.94418 0.0
C2331 C 0.54941 0.22152 0.94387 0.0
C2332 C 0.5864 0.24381 0.94384 0.0
C2333 C 0.60807 0.22916 0.94549 0.0
C2334 C 0.49557 0.15992 0.94406 0.0
C2335 C 0.60316 0.28337 0.94333 0.0
C2336 C 0.49901 0.26848 0.93577 0.0
C2337 C 0.49422 0.27857 0.94847 0.0
C2338 C 0.51506 0.24796 0.93409 0.0
C2339 C 0.52659 0.2374 0.94537 0.0
C2340 C 0.51988 0.24574 0.95824 0.0
C2341 C 0.50371 0.26621 0.95962 0.0
C2342 C 0.52168 0.23955 0.92024 0.0
C2343 C 0.53165 0.23482 0.97054 0.0
H2344 H 0.54615 0.14237 0.94697 0.0
H2345 H 0.63629 0.24637 0.94642 0.0
H2346 H 0.4846 0.16051 0.95391 0.0
H2347 H 0.48271 0.16834 0.93659 0.0
H2348 H 0.48872 0.13238 0.94191 0.0
H2349 H 0.63161 0.29626 0.9409 0.0
H2350 H 0.59006 0.29153 0.93587 0.0
H2351 H 0.60033 0.29312 0.95315 0.0
H2352 H 0.49151 0.27777 0.92709 0.0
H2353 H 0.49983 0.27371 0.96945 0.0
H2354 H 0.51472 0.21159 0.91948 0.0
H2355 H 0.5501 0.25589 0.91788 0.0
H2356 H 0.50649 0.24486 0.91268 0.0
H2357 H 0.52261 0.20628 0.97021 0.0
H2358 H 0.52155 0.2405 0.97976 0.0
H2359 H 0.56083 0.24913 0.97098 0.0
C2360 C 0.76549 0.3767 0.94276 0.0
C2361 C 0.802 0.39819 0.94401 0.0
C2362 C 0.75002 0.34013 0.94176 0.0
C2363 C 0.77162 0.32467 0.9423 0.0
C2364 C 0.80874 0.34645 0.94245 0.0
C2365 C 0.82359 0.38318 0.94323 0.0
C2366 C 0.71037 0.31808 0.94133 0.0
C2367 C 0.83263 0.33096 0.94291 0.0
C2368 C 0.72605 0.23575 0.95926 0.0
C2369 C 0.71387 0.21282 0.9484 0.0
C2370 C 0.74649 0.27224 0.9574 0.0
C2371 C 0.755 0.28606 0.94436 0.0
C2372 C 0.74436 0.26291 0.93339 0.0
C2373 C 0.72389 0.22652 0.93554 0.0
C2374 C 0.75744 0.29609 0.96938 0.0
C2375 C 0.75278 0.27662 0.91935 0.0
H2376 H 0.74886 0.38843 0.94332 0.0
H2377 H 0.85183 0.39981 0.94433 0.0
H2378 H 0.70162 0.29522 0.93459 0.0
H2379 H 0.70033 0.3078 0.95141 0.0
H2380 H 0.69823 0.3337 0.93798 0.0
H2381 H 0.86044 0.35099 0.94079 0.0
H2382 H 0.83137 0.31994 0.95293 0.0
H2383 H 0.82398 0.3091 0.93568 0.0
H2384 H 0.71855 0.22531 0.96922 0.0
H2385 H 0.71468 0.20891 0.92709 0.0
H2386 H 0.7434 0.31125 0.96935 0.0
H2387 H 0.78606 0.31531 0.96901 0.0
H2388 H 0.75146 0.28119 0.97884 0.0
H2389 H 0.73712 0.28928 0.91675 0.0
H2390 H 0.74669 0.25532 0.91207 0.0
H2391 H 0.78097 0.29692 0.91842 0.0
C2392 C 0.76188 0.49363 0.95603 0.0
C2393 C 0.78135 0.49776 0.94451 0.0
C2394 C 0.72507 0.47718 0.95559 0.0
C2395 C 0.70738 0.46429 0.94334 0.0
C2396 C 0.72704 0.47014 0.93156 0.0
C2397 C 0.76387 0.48694 0.93228 0.0
C2398 C 0.70502 0.47162 0.96838 0.0
C2399 C 0.70919 0.45676 0.91832 0.0
C2400 C 0.61841 0.38314 0.9479 0.0
C2401 C 0.59593 0.39722 0.94772 0.0
C2402 C 0.65455 0.40445 0.94572 0.0
C2403 C 0.66858 0.44078 0.94326 0.0
C2404 C 0.64568 0.45467 0.94206 0.0
C2405 C 0.60942 0.4326 0.94427 0.0
C2406 C 0.67797 0.38844 0.94683 0.0
C2407 C 0.65972 0.49324 0.93935 0.0
H2408 H 0.77533 0.50219 0.96549 0.0
H2409 H 0.77881 0.49015 0.92331 0.0
H2410 H 0.685 0.47983 0.96721 0.0
H2411 H 0.69088 0.44323 0.97094 0.0
H2412 H 0.72261 0.48648 0.97677 0.0
H2413 H 0.72793 0.46837 0.90992 0.0
H2414 H 0.69736 0.42775 0.91794 0.0
H2415 H 0.68758 0.46267 0.91697 0.0
H2416 H 0.60789 0.35563 0.95038 0.0
H2417 H 0.59209 0.44357 0.94417 0.0
H2418 H 0.69713 0.4011 0.95503 0.0
H2419 H 0.69325 0.3931 0.93755 0.0
H2420 H 0.6628 0.3597 0.94874 0.0
H2421 H 0.67339 0.50868 0.94833 0.0
H2422 H 0.63839 0.49882 0.93674 0.0
H2423 H 0.67924 0.50252 0.93118 0.0
C2424 C 0.39684 0.82663 0.76714 0.0
C2425 C 0.38811 0.83645 0.77918 0.0
C2426 C 0.41616 0.80909 0.76691 0.0
C2427 C 0.42711 0.80135 0.77901 0.0
C2428 C 0.42024 0.81312 0.79114 0.0
C2429 C 0.40074 0.83054 0.79109 0.0
C2430 C 0.42279 0.79683 0.75379 0.0
C2431 C 0.43177 0.80557 0.80425 0.0
C2432 C 0.43286 0.71878 0.78289 0.0
C2433 C 0.46931 0.73233 0.7833 0.0
C2434 C 0.41884 0.74083 0.78075 0.0
C2435 C 0.44189 0.77742 0.77917 0.0
C2436 C 0.47873 0.79096 0.77872 0.0
C2437 C 0.49208 0.7681 0.78072 0.0
C2438 C 0.37937 0.72517 0.78106 0.0
C2439 C 0.50406 0.82979 0.77699 0.0
H2440 H 0.38733 0.83132 0.75788 0.0
H2441 H 0.39424 0.83827 0.8004 0.0
H2442 H 0.45059 0.8032 0.75304 0.0
H2443 H 0.40605 0.76781 0.75306 0.0
H2444 H 0.41673 0.80886 0.74523 0.0
H2445 H 0.42779 0.81973 0.81261 0.0
H2446 H 0.41648 0.77692 0.80631 0.0
H2447 H 0.45998 0.8132 0.80386 0.0
H2448 H 0.41526 0.69103 0.78479 0.0
H2449 H 0.52029 0.77862 0.78114 0.0
H2450 H 0.37042 0.73521 0.77271 0.0
H2451 H 0.37176 0.73295 0.79042 0.0
H2452 H 0.36528 0.696 0.78054 0.0
H2453 H 0.49578 0.84045 0.76863 0.0
H2454 H 0.53138 0.83546 0.77515 0.0
H2455 H 0.504 0.84398 0.78609 0.0
C2456 C 0.23513 0.7237 0.77877 0.0
C2457 C 0.26974 0.73809 0.7834 0.0
C2458 C 0.21325 0.68707 0.77763 0.0
C2459 C 0.22662 0.66464 0.78103 0.0
C2460 C 0.26215 0.67925 0.78498 0.0
C2461 C 0.28322 0.71577 0.78615 0.0
C2462 C 0.17543 0.67232 0.77343 0.0
C2463 C 0.27763 0.65623 0.78838 0.0
C2464 C 0.16921 0.57188 0.79389 0.0
C2465 C 0.16733 0.55186 0.7828 0.0
C2466 C 0.18671 0.60873 0.79321 0.0
C2467 C 0.20329 0.62584 0.78122 0.0
C2468 C 0.20046 0.60566 0.76986 0.0
C2469 C 0.18223 0.56886 0.77076 0.0
C2470 C 0.1889 0.62939 0.8055 0.0
C2471 C 0.2183 0.6229 0.75698 0.0
H2472 H 0.2246 0.74092 0.77671 0.0
H2473 H 0.31014 0.7269 0.78957 0.0
H2474 H 0.16877 0.65304 0.76527 0.0
H2475 H 0.15781 0.65811 0.78188 0.0
H2476 H 0.16991 0.69321 0.77009 0.0
H2477 H 0.30563 0.67176 0.79145 0.0
H2478 H 0.26252 0.63798 0.79656 0.0
H2479 H 0.27572 0.63993 0.77967 0.0
H2480 H 0.15758 0.55876 0.80319 0.0
H2481 H 0.18102 0.55347 0.76216 0.0
H2482 H 0.18142 0.6495 0.80316 0.0
H2483 H 0.21641 0.6435 0.80919 0.0
H2484 H 0.17159 0.61225 0.81358 0.0
H2485 H 0.21233 0.64384 0.75423 0.0
H2486 H 0.21018 0.60369 0.7487 0.0
H2487 H 0.24724 0.63556 0.7582 0.0
C2488 C 0.43241 0.60052 0.77127 0.0
C2489 C 0.44768 0.61144 0.78388 0.0
C2490 C 0.39577 0.58034 0.76973 0.0
C2491 C 0.37391 0.57093 0.78106 0.0
C2492 C 0.38929 0.5803 0.79385 0.0
C2493 C 0.42602 0.60041 0.79511 0.0
C2494 C 0.38042 0.57089 0.75594 0.0
C2495 C 0.36686 0.57068 0.8062 0.0
C2496 C 0.28387 0.56226 0.78033 0.0
C2497 C 0.26186 0.52593 0.78194 0.0
C2498 C 0.32032 0.57702 0.77906 0.0
C2499 C 0.33514 0.55485 0.77959 0.0
C2500 C 0.31277 0.51785 0.78012 0.0
C2501 C 0.27617 0.50372 0.78124 0.0
C2502 C 0.34304 0.61657 0.77829 0.0
C2503 C 0.32759 0.49338 0.7806 0.0
H2504 H 0.44902 0.60878 0.76253 0.0
H2505 H 0.43766 0.60859 0.80487 0.0
H2506 H 0.35975 0.54274 0.75544 0.0
H2507 H 0.3678 0.58663 0.75342 0.0
H2508 H 0.40079 0.57605 0.74834 0.0
H2509 H 0.38281 0.57713 0.81541 0.0
H2510 H 0.35214 0.58516 0.80633 0.0
H2511 H 0.34722 0.54216 0.80622 0.0
H2512 H 0.27267 0.57938 0.78086 0.0
H2513 H 0.25916 0.47564 0.78263 0.0
H2514 H 0.36434 0.62436 0.77087 0.0
H2515 H 0.35561 0.62688 0.78807 0.0
H2516 H 0.32747 0.62932 0.77563 0.0
H2517 H 0.3487 0.50102 0.77311 0.0
H2518 H 0.30698 0.46557 0.77888 0.0
H2519 H 0.33948 0.49523 0.7905 0.0
C2520 C 0.43796 0.82214 0.05283 0.0
C2521 C 0.40301 0.80177 0.04858 0.0
C2522 C 0.45936 0.80693 0.05442 0.0
C2523 C 0.44517 0.77055 0.05187 0.0
C2524 C 0.40934 0.74965 0.04827 0.0
C2525 C 0.38878 0.76554 0.04662 0.0
C2526 C 0.4975 0.83001 0.0582 0.0
C2527 C 0.39294 0.7106 0.04579 0.0
C2528 C 0.49915 0.72983 0.04045 0.0
C2529 C 0.50031 0.71272 0.052 0.0
C2530 C 0.48328 0.75079 0.0405 0.0
C2531 C 0.46772 0.75415 0.05232 0.0
C2532 C 0.47022 0.73819 0.06414 0.0
C2533 C 0.48673 0.71787 0.06386 0.0
C2534 C 0.48146 0.76773 0.02772 0.0
C2535 C 0.45358 0.74073 0.0769 0.0
H2536 H 0.44903 0.8502 0.05426 0.0
H2537 H 0.36159 0.74968 0.04349 0.0
H2538 H 0.50428 0.81843 0.0667 0.0
H2539 H 0.51449 0.83165 0.04976 0.0
H2540 H 0.50374 0.85708 0.06089 0.0
H2541 H 0.36481 0.69825 0.04293 0.0
H2542 H 0.40726 0.70571 0.03777 0.0
H2543 H 0.39496 0.69741 0.05486 0.0
H2544 H 0.50979 0.72606 0.03129 0.0
H2545 H 0.48751 0.70466 0.07283 0.0
H2546 H 0.48966 0.79578 0.0294 0.0
H2547 H 0.45389 0.75437 0.02408 0.0
H2548 H 0.49836 0.76614 0.01985 0.0
H2549 H 0.46064 0.76835 0.07888 0.0
H2550 H 0.46165 0.73068 0.08554 0.0
H2551 H 0.42451 0.72508 0.07598 0.0
C2552 C 0.1753 0.60798 0.04961 0.0
C2553 C 0.19591 0.59384 0.04518 0.0
C2554 C 0.19044 0.64437 0.05173 0.0
C2555 C 0.22694 0.66674 0.0495 0.0
C2556 C 0.24807 0.6522 0.04573 0.0
C2557 C 0.23227 0.61595 0.04361 0.0
C2558 C 0.16715 0.65905 0.05569 0.0
C2559 C 0.28723 0.67505 0.04353 0.0
C2560 C 0.26748 0.76242 0.03949 0.0
C2561 C 0.28378 0.77948 0.05131 0.0
C2562 C 0.24697 0.7256 0.03896 0.0
C2563 C 0.24323 0.70553 0.05049 0.0
C2564 C 0.25848 0.72274 0.06258 0.0
C2565 C 0.2784 0.75955 0.06286 0.0
C2566 C 0.23086 0.70811 0.0259 0.0
C2567 C 0.25545 0.70229 0.07503 0.0
H2568 H 0.14714 0.59093 0.05072 0.0
H2569 H 0.24829 0.60493 0.04034 0.0
H2570 H 0.17834 0.67668 0.0644 0.0
H2571 H 0.16582 0.67508 0.04744 0.0
H2572 H 0.13997 0.63799 0.05812 0.0
H2573 H 0.29942 0.65972 0.03991 0.0
H2574 H 0.29262 0.69597 0.03618 0.0
H2575 H 0.30023 0.68824 0.05295 0.0
H2576 H 0.27146 0.77777 0.03057 0.0
H2577 H 0.29094 0.77261 0.07205 0.0
H2578 H 0.2027 0.68811 0.02726 0.0
H2579 H 0.24445 0.69426 0.02213 0.0
H2580 H 0.23292 0.72733 0.01828 0.0
H2581 H 0.22771 0.68166 0.07678 0.0
H2582 H 0.26526 0.71951 0.08392 0.0
H2583 H 0.271 0.68884 0.07386 0.0
C2584 C 0.37692 0.60868 0.04935 0.0
C2585 C 0.39861 0.59374 0.04967 0.0
C2586 C 0.34026 0.58762 0.05012 0.0
C2587 C 0.32492 0.5506 0.05088 0.0
C2588 C 0.3468 0.5355 0.05194 0.0
C2589 C 0.38357 0.55738 0.05145 0.0
C2590 C 0.31802 0.60496 0.0493 0.0
C2591 C 0.33141 0.49616 0.05272 0.0
C2592 C 0.22802 0.50105 0.05974 0.0
C2593 C 0.2122 0.49355 0.04715 0.0
C2594 C 0.26471 0.51828 0.06114 0.0
C2595 C 0.28609 0.52797 0.04968 0.0
C2596 C 0.27023 0.5188 0.03696 0.0
C2597 C 0.2334 0.50177 0.03584 0.0
C2598 C 0.28057 0.52799 0.07486 0.0
C2599 C 0.2922 0.52844 0.0245 0.0
H2600 H 0.38864 0.63685 0.04797 0.0
H2601 H 0.40038 0.54581 0.05152 0.0
H2602 H 0.30655 0.60106 0.03921 0.0
H2603 H 0.29592 0.59308 0.05648 0.0
H2604 H 0.3337 0.63366 0.05127 0.0
H2605 H 0.35175 0.48883 0.05489 0.0
H2606 H 0.31079 0.48474 0.0605 0.0
H2607 H 0.31868 0.48408 0.04313 0.0
H2608 H 0.2118 0.49472 0.06855 0.0
H2609 H 0.22132 0.49594 0.0261 0.0
H2610 H 0.29382 0.55696 0.07613 0.0
H2611 H 0.30086 0.52021 0.07619 0.0
H2612 H 0.26045 0.51543 0.08278 0.0
H2613 H 0.30663 0.55744 0.02326 0.0
H2614 H 0.27594 0.51636 0.01551 0.0
H2615 H 0.31209 0.51995 0.02527 0.0
C2616 C 0.17295 0.55431 0.55256 0.0
C2617 C 0.19467 0.59085 0.55164 0.0
C2618 C 0.18766 0.53242 0.55393 0.0
C2619 C 0.22475 0.54769 0.55448 0.0
C2620 C 0.24637 0.58474 0.55492 0.0
C2621 C 0.23104 0.60585 0.55342 0.0
C2622 C 0.16374 0.49304 0.55361 0.0
C2623 C 0.286 0.60225 0.5557 0.0
C2624 C 0.27348 0.4986 0.56186 0.0
C2625 C 0.28429 0.49529 0.54909 0.0
C2626 C 0.25213 0.51366 0.56378 0.0
C2627 C 0.2415 0.52574 0.55267 0.0
C2628 C 0.25061 0.52051 0.53972 0.0
C2629 C 0.27186 0.50529 0.53809 0.0
C2630 C 0.24286 0.51865 0.57772 0.0
C2631 C 0.23966 0.5329 0.52759 0.0
H2632 H 0.14482 0.54271 0.5511 0.0
H2633 H 0.24775 0.63417 0.55279 0.0
H2634 H 0.16492 0.48303 0.54362 0.0
H2635 H 0.17236 0.47996 0.56091 0.0
H2636 H 0.13596 0.48542 0.5557 0.0
H2637 H 0.29822 0.63046 0.55845 0.0
H2638 H 0.2942 0.58894 0.56305 0.0
H2639 H 0.2965 0.60049 0.54589 0.0
H2640 H 0.28282 0.4907 0.57042 0.0
H2641 H 0.27989 0.50253 0.5282 0.0
H2642 H 0.2147 0.51108 0.57839 0.0
H2643 H 0.25864 0.54684 0.58048 0.0
H2644 H 0.24824 0.50302 0.58506 0.0
H2645 H 0.21095 0.52312 0.52782 0.0
H2646 H 0.24609 0.52399 0.51823 0.0
H2647 H 0.25332 0.56208 0.52754 0.0
C2648 C 0.39026 0.62075 0.55248 0.0
C2649 C 0.40452 0.59859 0.55123 0.0
C2650 C 0.41199 0.65696 0.55438 0.0
C2651 C 0.44893 0.67139 0.55487 0.0
C2652 C 0.46327 0.64875 0.55474 0.0
C2653 C 0.44076 0.6124 0.55298 0.0
C2654 C 0.39541 0.67993 0.55465 0.0
C2655 C 0.50248 0.66313 0.55538 0.0
C2656 C 0.49727 0.7634 0.5405 0.0
C2657 C 0.5057 0.78403 0.55198 0.0
C2658 C 0.48057 0.72661 0.54135 0.0
C2659 C 0.47218 0.71016 0.55397 0.0
C2660 C 0.48261 0.73099 0.56559 0.0
C2661 C 0.4993 0.76772 0.56445 0.0
C2662 C 0.47006 0.70527 0.52871 0.0
C2663 C 0.47402 0.71447 0.5792 0.0
H2664 H 0.36217 0.60999 0.55121 0.0
H2665 H 0.45183 0.59529 0.55193 0.0
H2666 H 0.40831 0.7013 0.56207 0.0
H2667 H 0.39865 0.6923 0.54476 0.0
H2668 H 0.36684 0.66453 0.55692 0.0
H2669 H 0.50898 0.64212 0.55737 0.0
H2670 H 0.51451 0.67572 0.54577 0.0
H2671 H 0.51464 0.68357 0.56319 0.0
H2672 H 0.50236 0.77588 0.53085 0.0
H2673 H 0.50593 0.78354 0.57338 0.0
H2674 H 0.44097 0.69097 0.52774 0.0
H2675 H 0.47854 0.68533 0.529 0.0
H2676 H 0.48157 0.72197 0.51977 0.0
H2677 H 0.44531 0.70222 0.58099 0.0
H2678 H 0.48814 0.73407 0.58716 0.0
H2679 H 0.48081 0.69333 0.57991 0.0
C2680 C 0.37982 0.75992 0.54845 0.0
C2681 C 0.40183 0.79607 0.55055 0.0
C2682 C 0.34337 0.74404 0.55007 0.0
C2683 C 0.32853 0.7649 0.55382 0.0
C2684 C 0.35078 0.80098 0.55683 0.0
C2685 C 0.38736 0.81619 0.55522 0.0
C2686 C 0.3206 0.70526 0.5471 0.0
C2687 C 0.33583 0.82397 0.56089 0.0
C2688 C 0.23667 0.72842 0.53996 0.0
C2689 C 0.21596 0.70988 0.55086 0.0
C2690 C 0.2734 0.74842 0.54105 0.0
C2691 C 0.28973 0.74933 0.5533 0.0
C2692 C 0.26882 0.73189 0.56449 0.0
C2693 C 0.23209 0.71253 0.56316 0.0
C2694 C 0.29484 0.76696 0.52891 0.0
C2695 C 0.28521 0.73187 0.57766 0.0
H2696 H 0.39103 0.74427 0.54498 0.0
H2697 H 0.40432 0.8442 0.55679 0.0
H2698 H 0.30429 0.69156 0.55589 0.0
H2699 H 0.30238 0.70133 0.5388 0.0
H2700 H 0.33631 0.69272 0.54439 0.0
H2701 H 0.35655 0.85011 0.56452 0.0
H2702 H 0.32261 0.82803 0.55224 0.0
H2703 H 0.31572 0.81104 0.56876 0.0
H2704 H 0.22423 0.72655 0.53046 0.0
H2705 H 0.21615 0.6981 0.57162 0.0
H2706 H 0.30942 0.75376 0.52553 0.0
H2707 H 0.31457 0.79463 0.53131 0.0
H2708 H 0.27815 0.76685 0.5206 0.0
H2709 H 0.29711 0.71478 0.57697 0.0
H2710 H 0.26555 0.72189 0.58581 0.0
H2711 H 0.30657 0.75872 0.58024 0.0
C2712 C 0.23526 0.51579 0.27856 0.0
C2713 C 0.27073 0.53635 0.28215 0.0
C2714 C 0.21358 0.5308 0.27765 0.0
C2715 C 0.22805 0.5672 0.28016 0.0
C2716 C 0.26438 0.58835 0.28297 0.0
C2717 C 0.28521 0.5726 0.28403 0.0
C2718 C 0.17488 0.50741 0.27477 0.0
C2719 C 0.28098 0.62744 0.28531 0.0
C2720 C 0.18219 0.61704 0.2698 0.0
C2721 C 0.17 0.62198 0.28203 0.0
C2722 C 0.20001 0.59807 0.26893 0.0
C2723 C 0.20523 0.58323 0.28055 0.0
C2724 C 0.19138 0.58658 0.29281 0.0
C2725 C 0.17416 0.60624 0.29343 0.0
C2726 C 0.21486 0.59557 0.25572 0.0
C2727 C 0.19608 0.57069 0.30539 0.0
H2728 H 0.22396 0.48765 0.27727 0.0
H2729 H 0.3127 0.58847 0.28675 0.0
H2730 H 0.15938 0.5058 0.28371 0.0
H2731 H 0.16647 0.51866 0.26667 0.0
H2732 H 0.16836 0.48034 0.27195 0.0
H2733 H 0.30978 0.64027 0.28706 0.0
H2734 H 0.27624 0.63995 0.27661 0.0
H2735 H 0.2687 0.63247 0.29403 0.0
H2736 H 0.17915 0.62927 0.26094 0.0
H2737 H 0.16465 0.60991 0.30288 0.0
H2738 H 0.20774 0.56799 0.25361 0.0
H2739 H 0.24402 0.61143 0.25605 0.0
H2740 H 0.2054 0.60534 0.24742 0.0
H2741 H 0.1879 0.54262 0.30378 0.0
H2742 H 0.1807 0.57255 0.31379 0.0
H2743 H 0.22431 0.58455 0.30821 0.0
C2744 C 0.43776 0.7122 0.27936 0.0
C2745 C 0.47418 0.73409 0.2808 0.0
C2746 C 0.42298 0.67593 0.27746 0.0
C2747 C 0.44518 0.66113 0.27716 0.0
C2748 C 0.48221 0.68349 0.27753 0.0
C2749 C 0.49637 0.71992 0.2793 0.0
C2750 C 0.38339 0.65328 0.27694 0.0
C2751 C 0.50674 0.66873 0.27711 0.0
C2752 C 0.3995 0.56823 0.29085 0.0
C2753 C 0.38774 0.54823 0.27921 0.0
C2754 C 0.4201 0.60506 0.29029 0.0
C2755 C 0.42916 0.62221 0.2778 0.0
C2756 C 0.41923 0.60198 0.26604 0.0
C2757 C 0.39864 0.56521 0.26688 0.0
C2758 C 0.4304 0.62572 0.30309 0.0
C2759 C 0.4283 0.61921 0.25255 0.0
H2760 H 0.42061 0.72324 0.28049 0.0
H2761 H 0.52453 0.73681 0.28053 0.0
H2762 H 0.37516 0.63284 0.26913 0.0
H2763 H 0.37376 0.63967 0.28659 0.0
H2764 H 0.37045 0.66907 0.275 0.0
H2765 H 0.53446 0.68957 0.27537 0.0
H2766 H 0.5054 0.65572 0.2867 0.0
H2767 H 0.49874 0.64853 0.26922 0.0
H2768 H 0.39137 0.55527 0.30039 0.0
H2769 H 0.38985 0.5499 0.25782 0.0
H2770 H 0.41586 0.64028 0.30403 0.0
H2771 H 0.4589 0.64542 0.30306 0.0
H2772 H 0.42448 0.60851 0.31191 0.0
H2773 H 0.41237 0.63199 0.25067 0.0
H2774 H 0.42302 0.59993 0.24448 0.0
H2775 H 0.45641 0.64003 0.25213 0.0
C2776 C 0.43066 0.82341 0.29444 0.0
C2777 C 0.45248 0.8337 0.28326 0.0
C2778 C 0.39406 0.80786 0.2931 0.0
C2779 C 0.37899 0.80254 0.28028 0.0
C2780 C 0.40104 0.81437 0.26899 0.0
C2781 C 0.43758 0.82986 0.27061 0.0
C2782 C 0.37138 0.79555 0.3054 0.0
C2783 C 0.38594 0.80873 0.25516 0.0
C2784 C 0.2872 0.72398 0.2799 0.0
C2785 C 0.26668 0.74 0.28139 0.0
C2786 C 0.32374 0.74418 0.27839 0.0
C2787 C 0.34016 0.78133 0.27876 0.0
C2788 C 0.31926 0.79762 0.27924 0.0
C2789 C 0.28253 0.77663 0.28046 0.0
C2790 C 0.34475 0.72551 0.27755 0.0
C2791 C 0.33581 0.83713 0.2796 0.0
H2792 H 0.44205 0.82644 0.30423 0.0
H2793 H 0.45434 0.83784 0.26192 0.0
H2794 H 0.35248 0.80537 0.3054 0.0
H2795 H 0.35583 0.76637 0.30548 0.0
H2796 H 0.38723 0.80447 0.31465 0.0
H2797 H 0.4066 0.82305 0.24756 0.0
H2798 H 0.37224 0.78023 0.25277 0.0
H2799 H 0.36617 0.8174 0.25452 0.0
H2800 H 0.27478 0.69559 0.28062 0.0
H2801 H 0.2666 0.78895 0.28176 0.0
H2802 H 0.35309 0.72285 0.28768 0.0
H2803 H 0.36873 0.74023 0.2714 0.0
H2804 H 0.3288 0.69876 0.27329 0.0
H2805 H 0.34833 0.847 0.28942 0.0
H2806 H 0.31612 0.84563 0.27798 0.0
H2807 H 0.35674 0.84958 0.27198 0.0
loop_
_geom_bond_atom_site_label_1
_geom_bond_atom_site_label_2
_geom_bond_distance
_geom_bond_site_symmetry_2
_ccdc_geom_bond_type
Co0 O1 2.216 . S
Co0 O2 2.091 . S
Co0 O4 2.004 . S
Co0 O10 2.021 . S
Co0 O12 2.139 1_545 S
Co0 O13 2.244 . S
O1 Co0 2.216 . S
O1 C8 1.247 . S
O2 Co0 2.091 . S
O2 C8 1.261 . S
C3 O12 1.247 . S
C3 O13 1.272 1_565 S
O4 Co0 2.004 . S
O4 C9 1.259 . S
Co5 O6 2.061 . S
Co5 O11 2.052 . S
Co5 O13 2.135 . S
O6 Co5 2.061 . S
O6 C9 1.235 . S
C7 O10 1.238 . S
C7 O11 1.241 . S
C8 O1 1.247 . S
C8 O2 1.261 . S
C9 O4 1.259 . S
C9 O6 1.235 . S
O10 Co0 2.021 . S
O10 C7 1.238 . S
O11 Co5 2.052 . S
O11 C7 1.241 . S
O12 Co0 2.139 1_565 S
O12 C3 1.247 . S
O13 Co0 2.244 . S
O13 C3 1.272 1_545 S
O13 Co5 2.135 . S
Co14 O15 2.216 . S
Co14 O16 2.091 . S
Co14 O18 2.004 . S
Co14 O24 2.021 . S
Co14 O26 2.141 1_655 S
Co14 O27 2.244 . S
O15 Co14 2.216 . S
O15 C22 1.247 . S
O16 Co14 2.091 . S
O16 C22 1.261 . S
C17 O26 1.246 . S
C17 O27 1.272 1_455 S
O18 Co14 2.004 . S
O18 C23 1.259 . S
Co19 O20 2.061 . S
Co19 O25 2.052 . S
Co19 O27 2.135 . S
O20 Co19 2.061 . S
O20 C23 1.235 . S
C21 O24 1.238 . S
C21 O25 1.241 . S
C22 O15 1.247 . S
C22 O16 1.261 . S
C23 O18 1.259 . S
C23 O20 1.235 . S
O24 Co14 2.021 . S
O24 C21 1.238 . S
O25 Co19 2.052 . S
O25 C21 1.241 . S
O26 Co14 2.141 1_455 S
O26 C17 1.246 . S
O27 Co14 2.244 . S
O27 C17 1.272 1_655 S
O27 Co19 2.135 . S
Co28 O29 2.216 . S
Co28 O30 2.091 . S
Co28 O32 2.004 . S
Co28 O38 2.021 . S
Co28 O40 2.137 . S
Co28 O41 2.244 . S
O29 Co28 2.216 . S
O29 C36 1.247 . S
O30 Co28 2.091 . S
O30 C36 1.261 . S
C31 O40 1.247 . S
C31 O41 1.272 . S
O32 Co28 2.004 . S
O32 C37 1.259 . S
Co33 O34 2.061 . S
Co33 O39 2.052 . S
Co33 O41 2.135 . S
O34 Co33 2.061 . S
O34 C37 1.235 . S
C35 O38 1.238 . S
C35 O39 1.241 . S
C36 O29 1.247 . S
C36 O30 1.261 . S
C37 O32 1.259 . S
C37 O34 1.235 . S
O38 Co28 2.021 . S
O38 C35 1.238 . S
O39 Co33 2.052 . S
O39 C35 1.241 . S
O40 Co28 2.137 . S
O40 C31 1.247 . S
O41 Co28 2.244 . S
O41 C31 1.272 . S
O41 Co33 2.135 . S
Co42 O43 2.216 . S
Co42 O44 2.091 . S
Co42 O46 2.004 . S
Co42 O52 2.021 . S
Co42 O54 2.139 1_455 S
Co42 O55 2.244 . S
O43 Co42 2.216 . S
O43 C50 1.247 . S
O44 Co42 2.091 . S
O44 C50 1.261 . S
C45 O54 1.247 . S
C45 O55 1.272 1_655 S
O46 Co42 2.004 . S
O46 C51 1.259 . S
Co47 O48 2.061 . S
Co47 O53 2.052 . S
Co47 O55 2.135 . S
O48 Co47 2.061 . S
O48 C51 1.235 . S
C49 O52 1.238 . S
C49 O53 1.241 . S
C50 O43 1.247 . S
C50 O44 1.261 . S
C51 O46 1.259 . S
C51 O48 1.235 . S
O52 Co42 2.021 . S
O52 C49 1.238 . S
O53 Co47 2.052 . S
O53 C49 1.241 . S
O54 Co42 2.139 1_655 S
O54 C45 1.247 . S
O55 Co42 2.244 . S
O55 C45 1.272 1_455 S
O55 Co47 2.135 . S
Co56 O57 2.216 . S
Co56 O58 2.091 . S
Co56 O60 2.004 . S
Co56 O66 2.021 . S
Co56 O68 2.137 . S
Co56 O69 2.244 . S
O57 Co56 2.216 . S
O57 C64 1.247 . S
O58 Co56 2.091 . S
O58 C64 1.261 . S
C59 O68 1.247 . S
C59 O69 1.272 . S
O60 Co56 2.004 . S
O60 C65 1.259 . S
Co61 O62 2.061 . S
Co61 O67 2.052 . S
Co61 O69 2.135 . S
O62 Co61 2.061 . S
O62 C65 1.235 . S
C63 O66 1.238 . S
C63 O67 1.241 . S
C64 O57 1.247 . S
C64 O58 1.261 . S
C65 O60 1.259 . S
C65 O62 1.235 . S
O66 Co56 2.021 . S
O66 C63 1.238 . S
O67 Co61 2.052 . S
O67 C63 1.241 . S
O68 Co56 2.137 . S
O68 C59 1.247 . S
O69 Co56 2.244 . S
O69 C59 1.272 . S
O69 Co61 2.135 . S
Co70 O71 2.216 . S
Co70 O72 2.091 . S
Co70 O74 2.004 . S
Co70 O80 2.021 . S
Co70 O82 2.141 1_565 S
Co70 O83 2.244 . S
O71 Co70 2.216 . S
O71 C78 1.247 . S
O72 Co70 2.091 . S
O72 C78 1.261 . S
C73 O82 1.246 . S
C73 O83 1.272 1_545 S
O74 Co70 2.004 . S
O74 C79 1.259 . S
Co75 O76 2.061 . S
Co75 O81 2.052 . S
Co75 O83 2.135 . S
O76 Co75 2.061 . S
O76 C79 1.235 . S
C77 O80 1.238 . S
C77 O81 1.241 . S
C78 O71 1.247 . S
C78 O72 1.261 . S
C79 O74 1.259 . S
C79 O76 1.235 . S
O80 Co70 2.021 . S
O80 C77 1.238 . S
O81 Co75 2.052 . S
O81 C77 1.241 . S
O82 Co70 2.141 1_545 S
O82 C73 1.246 . S
O83 Co70 2.244 . S
O83 C73 1.272 1_565 S
O83 Co75 2.135 . S
Co84 O85 2.216 . S
Co84 O86 2.091 . S
Co84 O88 2.004 . S
Co84 O94 2.021 . S
Co84 O96 2.139 1_565 S
Co84 O97 2.244 . S
O85 Co84 2.216 . S
O85 C92 1.247 . S
O86 Co84 2.091 . S
O86 C92 1.261 . S
C87 O96 1.247 . S
C87 O97 1.272 1_545 S
O88 Co84 2.004 . S
O88 C93 1.259 . S
Co89 O90 2.061 . S
Co89 O95 2.052 . S
Co89 O97 2.135 . S
O90 Co89 2.061 . S
O90 C93 1.235 . S
C91 O94 1.238 . S
C91 O95 1.241 . S
C92 O85 1.247 . S
C92 O86 1.261 . S
C93 O88 1.259 . S
C93 O90 1.235 . S
O94 Co84 2.021 . S
O94 C91 1.238 . S
O95 Co89 2.052 . S
O95 C91 1.241 . S
O96 Co84 2.139 1_545 S
O96 C87 1.247 . S
O97 Co84 2.244 . S
O97 C87 1.272 1_565 S
O97 Co89 2.135 . S
Co98 O99 2.216 . S
Co98 O100 2.091 . S
Co98 O102 2.004 . S
Co98 O108 2.021 . S
Co98 O110 2.141 1_455 S
Co98 O111 2.244 . S
O99 Co98 2.216 . S
O99 C106 1.247 . S
O100 Co98 2.091 . S
O100 C106 1.261 . S
C101 O110 1.246 . S
C101 O111 1.272 1_655 S
O102 Co98 2.004 . S
O102 C107 1.259 . S
Co103 O104 2.061 . S
Co103 O109 2.052 . S
Co103 O111 2.135 . S
O104 Co103 2.061 . S
O104 C107 1.235 . S
C105 O108 1.238 . S
C105 O109 1.241 . S
C106 O99 1.247 . S
C106 O100 1.261 . S
C107 O102 1.259 . S
C107 O104 1.235 . S
O108 Co98 2.021 . S
O108 C105 1.238 . S
O109 Co103 2.052 . S
O109 C105 1.241 . S
O110 Co98 2.141 1_655 S
O110 C101 1.246 . S
O111 Co98 2.244 . S
O111 C101 1.272 1_455 S
O111 Co103 2.135 . S
Co112 O113 2.216 . S
Co112 O114 2.091 . S
Co112 O116 2.004 . S
Co112 O122 2.021 . S
Co112 O124 2.137 . S
Co112 O125 2.244 . S
O113 Co112 2.216 . S
O113 C120 1.247 . S
O114 Co112 2.091 . S
O114 C120 1.261 . S
C115 O124 1.247 . S
C115 O125 1.272 . S
O116 Co112 2.004 . S
O116 C121 1.259 . S
Co117 O118 2.061 . S
Co117 O123 2.052 . S
Co117 O125 2.135 . S
O118 Co117 2.061 . S
O118 C121 1.235 . S
C119 O122 1.238 . S
C119 O123 1.241 . S
C120 O113 1.247 . S
C120 O114 1.261 . S
C121 O116 1.259 . S
C121 O118 1.235 . S
O122 Co112 2.021 . S
O122 C119 1.238 . S
O123 Co117 2.052 . S
O123 C119 1.241 . S
O124 Co112 2.137 . S
O124 C115 1.247 . S
O125 Co112 2.244 . S
O125 C115 1.272 . S
O125 Co117 2.135 . S
Co126 O127 2.216 . S
Co126 O128 2.091 . S
Co126 O130 2.004 . S
Co126 O136 2.021 . S
Co126 O138 2.139 1_655 S
Co126 O139 2.244 . S
O127 Co126 2.216 . S
O127 C134 1.247 . S
O128 Co126 2.091 . S
O128 C134 1.261 . S
C129 O138 1.247 . S
C129 O139 1.272 1_455 S
O130 Co126 2.004 . S
O130 C135 1.259 . S
Co131 O132 2.061 . S
Co131 O137 2.052 . S
Co131 O139 2.135 . S
O132 Co131 2.061 . S
O132 C135 1.235 . S
C133 O136 1.238 . S
C133 O137 1.241 . S
C134 O127 1.247 . S
C134 O128 1.261 . S
C135 O130 1.259 . S
C135 O132 1.235 . S
O136 Co126 2.021 . S
O136 C133 1.238 . S
O137 Co131 2.052 . S
O137 C133 1.241 . S
O138 Co126 2.139 1_455 S
O138 C129 1.247 . S
O139 Co126 2.244 . S
O139 C129 1.272 1_655 S
O139 Co131 2.135 . S
Co140 O141 2.216 . S
Co140 O142 2.091 . S
Co140 O144 2.004 . S
Co140 O150 2.021 . S
Co140 O152 2.137 . S
Co140 O153 2.244 . S
O141 Co140 2.216 . S
O141 C148 1.247 . S
O142 Co140 2.091 . S
O142 C148 1.261 . S
C143 O152 1.247 . S
C143 O153 1.272 . S
O144 Co140 2.004 . S
O144 C149 1.259 . S
Co145 O146 2.061 . S
Co145 O151 2.052 . S
Co145 O153 2.135 . S
O146 Co145 2.061 . S
O146 C149 1.235 . S
C147 O150 1.238 . S
C147 O151 1.241 . S
C148 O141 1.247 . S
C148 O142 1.261 . S
C149 O144 1.259 . S
C149 O146 1.235 . S
O150 Co140 2.021 . S
O150 C147 1.238 . S
O151 Co145 2.052 . S
O151 C147 1.241 . S
O152 Co140 2.137 . S
O152 C143 1.247 . S
O153 Co140 2.244 . S
O153 C143 1.272 . S
O153 Co145 2.135 . S
Co154 O155 2.216 . S
Co154 O156 2.091 . S
Co154 O158 2.004 . S
Co154 O164 2.021 . S
Co154 O166 2.141 1_545 S
Co154 O167 2.244 . S
O155 Co154 2.216 . S
O155 C162 1.247 . S
O156 Co154 2.091 . S
O156 C162 1.261 . S
C157 O166 1.246 . S
C157 O167 1.272 1_565 S
O158 Co154 2.004 . S
O158 C163 1.259 . S
Co159 O160 2.061 . S
Co159 O165 2.052 . S
Co159 O167 2.135 . S
O160 Co159 2.061 . S
O160 C163 1.235 . S
C161 O164 1.238 . S
C161 O165 1.241 . S
C162 O155 1.247 . S
C162 O156 1.261 . S
C163 O158 1.259 . S
C163 O160 1.235 . S
O164 Co154 2.021 . S
O164 C161 1.238 . S
O165 Co159 2.052 . S
O165 C161 1.241 . S
O166 Co154 2.141 1_565 S
O166 C157 1.246 . S
O167 Co154 2.244 . S
O167 C157 1.272 1_545 S
O167 Co159 2.135 . S
Co168 O169 2.216 . S
Co168 O170 2.091 . S
Co168 O172 2.004 . S
Co168 O178 2.021 . S
Co168 O180 2.137 . S
Co168 O181 2.244 . S
O169 Co168 2.216 . S
O169 C176 1.247 . S
O170 Co168 2.091 . S
O170 C176 1.261 . S
C171 O180 1.247 . S
C171 O181 1.272 . S
O172 Co168 2.004 . S
O172 C177 1.259 . S
Co173 O174 2.061 . S
Co173 O179 2.052 . S
Co173 O181 2.135 . S
O174 Co173 2.061 . S
O174 C177 1.235 . S
C175 O178 1.238 . S
C175 O179 1.241 . S
C176 O169 1.247 . S
C176 O170 1.261 . S
C177 O172 1.259 . S
C177 O174 1.235 . S
O178 Co168 2.021 . S
O178 C175 1.238 . S
O179 Co173 2.052 . S
O179 C175 1.241 . S
O180 Co168 2.137 . S
O180 C171 1.247 . S
O181 Co168 2.244 . S
O181 C171 1.272 . S
O181 Co173 2.135 . S
Co182 O183 2.216 . S
Co182 O184 2.091 . S
Co182 O186 2.004 . S
Co182 O192 2.021 . S
Co182 O194 2.137 . S
Co182 O195 2.244 . S
O183 Co182 2.216 . S
O183 C190 1.247 . S
O184 Co182 2.091 . S
O184 C190 1.261 . S
C185 O194 1.247 . S
C185 O195 1.272 . S
O186 Co182 2.004 . S
O186 C191 1.259 . S
Co187 O188 2.061 . S
Co187 O193 2.052 . S
Co187 O195 2.135 . S
O188 Co187 2.061 . S
O188 C191 1.235 . S
C189 O192 1.238 . S
C189 O193 1.241 . S
C190 O183 1.247 . S
C190 O184 1.261 . S
C191 O186 1.259 . S
C191 O188 1.235 . S
O192 Co182 2.021 . S
O192 C189 1.238 . S
O193 Co187 2.052 . S
O193 C189 1.241 . S
O194 Co182 2.137 . S
O194 C185 1.247 . S
O195 Co182 2.244 . S
O195 C185 1.272 . S
O195 Co187 2.135 . S
Co196 O197 2.216 . S
Co196 O198 2.091 . S
Co196 O200 2.004 . S
Co196 O206 2.021 . S
Co196 O208 2.137 . S
Co196 O209 2.244 . S
O197 Co196 2.216 . S
O197 C204 1.247 . S
O198 Co196 2.091 . S
O198 C204 1.261 . S
C199 O208 1.247 . S
C199 O209 1.272 . S
O200 Co196 2.004 . S
O200 C205 1.259 . S
Co201 O202 2.061 . S
Co201 O207 2.052 . S
Co201 O209 2.135 . S
O202 Co201 2.061 . S
O202 C205 1.235 . S
C203 O206 1.238 . S
C203 O207 1.241 . S
C204 O197 1.247 . S
C204 O198 1.261 . S
C205 O200 1.259 . S
C205 O202 1.235 . S
O206 Co196 2.021 . S
O206 C203 1.238 . S
O207 Co201 2.052 . S
O207 C203 1.241 . S
O208 Co196 2.137 . S
O208 C199 1.247 . S
O209 Co196 2.244 . S
O209 C199 1.272 . S
O209 Co201 2.135 . S
Co210 O211 2.216 . S
Co210 O212 2.091 . S
Co210 O214 2.004 . S
Co210 O220 2.021 . S
Co210 O222 2.137 . S
Co210 O223 2.244 . S
O211 Co210 2.216 . S
O211 C218 1.247 . S
O212 Co210 2.091 . S
O212 C218 1.261 . S
C213 O222 1.247 . S
C213 O223 1.272 . S
O214 Co210 2.004 . S
O214 C219 1.259 . S
Co215 O216 2.061 . S
Co215 O221 2.052 . S
Co215 O223 2.135 . S
O216 Co215 2.061 . S
O216 C219 1.235 . S
C217 O220 1.238 . S
C217 O221 1.241 . S
C218 O211 1.247 . S
C218 O212 1.261 . S
C219 O214 1.259 . S
C219 O216 1.235 . S
O220 Co210 2.021 . S
O220 C217 1.238 . S
O221 Co215 2.052 . S
O221 C217 1.241 . S
O222 Co210 2.137 . S
O222 C213 1.247 . S
O223 Co210 2.244 . S
O223 C213 1.272 . S
O223 Co215 2.135 . S
Co224 O225 2.216 . S
Co224 O226 2.091 . S
Co224 O228 2.004 . S
Co224 O234 2.021 . S
Co224 O236 2.137 . S
Co224 O237 2.244 . S
O225 Co224 2.216 . S
O225 C232 1.247 . S
O226 Co224 2.091 . S
O226 C232 1.261 . S
C227 O236 1.247 . S
C227 O237 1.272 . S
O228 Co224 2.004 . S
O228 C233 1.259 . S
Co229 O230 2.061 . S
Co229 O235 2.052 . S
Co229 O237 2.135 . S
O230 Co229 2.061 . S
O230 C233 1.235 . S
C231 O234 1.238 . S
C231 O235 1.241 . S
C232 O225 1.247 . S
C232 O226 1.261 . S
C233 O228 1.259 . S
C233 O230 1.235 . S
O234 Co224 2.021 . S
O234 C231 1.238 . S
O235 Co229 2.052 . S
O235 C231 1.241 . S
O236 Co224 2.137 . S
O236 C227 1.247 . S
O237 Co224 2.244 . S
O237 C227 1.272 . S
O237 Co229 2.135 . S
Co238 O239 2.216 . S
Co238 O240 2.091 . S
Co238 O242 2.004 . S
Co238 O248 2.021 . S
Co238 O250 2.137 . S
Co238 O251 2.244 . S
O239 Co238 2.216 . S
O239 C246 1.247 . S
O240 Co238 2.091 . S
O240 C246 1.261 . S
C241 O250 1.247 . S
C241 O251 1.272 . S
O242 Co238 2.004 . S
O242 C247 1.259 . S
Co243 O244 2.061 . S
Co243 O249 2.052 . S
Co243 O251 2.135 . S
O244 Co243 2.061 . S
O244 C247 1.235 . S
C245 O248 1.238 . S
C245 O249 1.241 . S
C246 O239 1.247 . S
C246 O240 1.261 . S
C247 O242 1.259 . S
C247 O244 1.235 . S
O248 Co238 2.021 . S
O248 C245 1.238 . S
O249 Co243 2.052 . S
O249 C245 1.241 . S
O250 Co238 2.137 . S
O250 C241 1.247 . S
O251 Co238 2.244 . S
O251 C241 1.272 . S
O251 Co243 2.135 . S
Co252 O253 2.216 . S
Co252 O254 2.091 . S
Co252 O256 2.004 . S
Co252 O262 2.021 . S
Co252 O264 2.137 . S
Co252 O265 2.244 . S
O253 Co252 2.216 . S
O253 C260 1.247 . S
O254 Co252 2.091 . S
O254 C260 1.261 . S
C255 O264 1.247 . S
C255 O265 1.272 . S
O256 Co252 2.004 . S
O256 C261 1.259 . S
Co257 O258 2.061 . S
Co257 O263 2.052 . S
Co257 O265 2.135 . S
O258 Co257 2.061 . S
O258 C261 1.235 . S
C259 O262 1.238 . S
C259 O263 1.241 . S
C260 O253 1.247 . S
C260 O254 1.261 . S
C261 O256 1.259 . S
C261 O258 1.235 . S
O262 Co252 2.021 . S
O262 C259 1.238 . S
O263 Co257 2.052 . S
O263 C259 1.241 . S
O264 Co252 2.137 . S
O264 C255 1.247 . S
O265 Co252 2.244 . S
O265 C255 1.272 . S
O265 Co257 2.135 . S
Co266 O267 2.216 . S
Co266 O268 2.091 . S
Co266 O270 2.004 . S
Co266 O276 2.021 . S
Co266 O278 2.137 . S
Co266 O279 2.244 . S
O267 Co266 2.216 . S
O267 C274 1.247 . S
O268 Co266 2.091 . S
O268 C274 1.261 . S
C269 O278 1.247 . S
C269 O279 1.272 . S
O270 Co266 2.004 . S
O270 C275 1.259 . S
Co271 O272 2.061 . S
Co271 O277 2.052 . S
Co271 O279 2.135 . S
O272 Co271 2.061 . S
O272 C275 1.235 . S
C273 O276 1.238 . S
C273 O277 1.241 . S
C274 O267 1.247 . S
C274 O268 1.261 . S
C275 O270 1.259 . S
C275 O272 1.235 . S
O276 Co266 2.021 . S
O276 C273 1.238 . S
O277 Co271 2.052 . S
O277 C273 1.241 . S
O278 Co266 2.137 . S
O278 C269 1.247 . S
O279 Co266 2.244 . S
O279 C269 1.272 . S
O279 Co271 2.135 . S
Co280 O281 2.216 . S
Co280 O282 2.091 . S
Co280 O284 2.004 . S
Co280 O290 2.021 . S
Co280 O292 2.137 . S
Co280 O293 2.244 . S
O281 Co280 2.216 . S
O281 C288 1.247 . S
O282 Co280 2.091 . S
O282 C288 1.261 . S
C283 O292 1.247 . S
C283 O293 1.272 . S
O284 Co280 2.004 . S
O284 C289 1.259 . S
Co285 O286 2.061 . S
Co285 O291 2.052 . S
Co285 O293 2.135 . S
O286 Co285 2.061 . S
O286 C289 1.235 . S
C287 O290 1.238 . S
C287 O291 1.241 . S
C288 O281 1.247 . S
C288 O282 1.261 . S
C289 O284 1.259 . S
C289 O286 1.235 . S
O290 Co280 2.021 . S
O290 C287 1.238 . S
O291 Co285 2.052 . S
O291 C287 1.241 . S
O292 Co280 2.137 . S
O292 C283 1.247 . S
O293 Co280 2.244 . S
O293 C283 1.272 . S
O293 Co285 2.135 . S
Co294 O295 2.216 . S
Co294 O296 2.091 . S
Co294 O298 2.004 . S
Co294 O304 2.021 . S
Co294 O306 2.137 . S
Co294 O307 2.244 . S
O295 Co294 2.216 . S
O295 C302 1.247 . S
O296 Co294 2.091 . S
O296 C302 1.261 . S
C297 O306 1.247 . S
C297 O307 1.272 . S
O298 Co294 2.004 . S
O298 C303 1.259 . S
Co299 O300 2.061 . S
Co299 O305 2.052 . S
Co299 O307 2.135 . S
O300 Co299 2.061 . S
O300 C303 1.235 . S
C301 O304 1.238 . S
C301 O305 1.241 . S
C302 O295 1.247 . S
C302 O296 1.261 . S
C303 O298 1.259 . S
C303 O300 1.235 . S
O304 Co294 2.021 . S
O304 C301 1.238 . S
O305 Co299 2.052 . S
O305 C301 1.241 . S
O306 Co294 2.137 . S
O306 C297 1.247 . S
O307 Co294 2.244 . S
O307 C297 1.272 . S
O307 Co299 2.135 . S
Co308 O309 2.216 . S
Co308 O310 2.091 . S
Co308 O312 2.004 . S
Co308 O318 2.021 . S
Co308 O320 2.137 . S
Co308 O321 2.244 . S
O309 Co308 2.216 . S
O309 C316 1.247 . S
O310 Co308 2.091 . S
O310 C316 1.261 . S
C311 O320 1.247 . S
C311 O321 1.272 . S
O312 Co308 2.004 . S
O312 C317 1.259 . S
Co313 O314 2.061 . S
Co313 O319 2.052 . S
Co313 O321 2.135 . S
O314 Co313 2.061 . S
O314 C317 1.235 . S
C315 O318 1.238 . S
C315 O319 1.241 . S
C316 O309 1.247 . S
C316 O310 1.261 . S
C317 O312 1.259 . S
C317 O314 1.235 . S
O318 Co308 2.021 . S
O318 C315 1.238 . S
O319 Co313 2.052 . S
O319 C315 1.241 . S
O320 Co308 2.137 . S
O320 C311 1.247 . S
O321 Co308 2.244 . S
O321 C311 1.272 . S
O321 Co313 2.135 . S
Co322 O323 2.216 . S
Co322 O324 2.091 . S
Co322 O326 2.004 . S
Co322 O332 2.021 . S
Co322 O334 2.137 . S
Co322 O335 2.244 . S
O323 Co322 2.216 . S
O323 C330 1.247 . S
O324 Co322 2.091 . S
O324 C330 1.261 . S
C325 O334 1.247 . S
C325 O335 1.272 . S
O326 Co322 2.004 . S
O326 C331 1.259 . S
Co327 O328 2.061 . S
Co327 O333 2.052 . S
Co327 O335 2.135 . S
O328 Co327 2.061 . S
O328 C331 1.235 . S
C329 O332 1.238 . S
C329 O333 1.241 . S
C330 O323 1.247 . S
C330 O324 1.261 . S
C331 O326 1.259 . S
C331 O328 1.235 . S
O332 Co322 2.021 . S
O332 C329 1.238 . S
O333 Co327 2.052 . S
O333 C329 1.241 . S
O334 Co322 2.137 . S
O334 C325 1.247 . S
O335 Co322 2.244 . S
O335 C325 1.272 . S
O335 Co327 2.135 . S
Co336 O337 2.216 . S
Co336 O338 2.091 . S
Co336 O340 2.004 . S
Co336 O346 2.021 . S
Co336 O348 2.137 . S
Co336 O349 2.244 . S
O337 Co336 2.216 . S
O337 C344 1.247 . S
O338 Co336 2.091 . S
O338 C344 1.261 . S
C339 O348 1.247 . S
C339 O349 1.272 . S
O340 Co336 2.004 . S
O340 C345 1.259 . S
Co341 O342 2.061 . S
Co341 O347 2.052 . S
Co341 O349 2.135 . S
O342 Co341 2.061 . S
O342 C345 1.235 . S
C343 O346 1.238 . S
C343 O347 1.241 . S
C344 O337 1.247 . S
C344 O338 1.261 . S
C345 O340 1.259 . S
C345 O342 1.235 . S
O346 Co336 2.021 . S
O346 C343 1.238 . S
O347 Co341 2.052 . S
O347 C343 1.241 . S
O348 Co336 2.137 . S
O348 C339 1.247 . S
O349 Co336 2.244 . S
O349 C339 1.272 . S
O349 Co341 2.135 . S
Co350 O351 2.216 . S
Co350 O352 2.091 . S
Co350 O354 2.004 . S
Co350 O360 2.021 . S
Co350 O362 2.137 . S
Co350 O363 2.244 . S
O351 Co350 2.216 . S
O351 C358 1.247 . S
O352 Co350 2.091 . S
O352 C358 1.261 . S
C353 O362 1.247 . S
C353 O363 1.272 . S
O354 Co350 2.004 . S
O354 C359 1.259 . S
Co355 O356 2.061 . S
Co355 O361 2.052 . S
Co355 O363 2.135 . S
O356 Co355 2.061 . S
O356 C359 1.235 . S
C357 O360 1.238 . S
C357 O361 1.241 . S
C358 O351 1.247 . S
C358 O352 1.261 . S
C359 O354 1.259 . S
C359 O356 1.235 . S
O360 Co350 2.021 . S
O360 C357 1.238 . S
O361 Co355 2.052 . S
O361 C357 1.241 . S
O362 Co350 2.137 . S
O362 C353 1.247 . S
O363 Co350 2.244 . S
O363 C353 1.272 . S
O363 Co355 2.135 . S
Co364 O365 2.216 . S
Co364 O366 2.091 . S
Co364 O368 2.004 . S
Co364 O374 2.021 . S
Co364 O376 2.137 . S
Co364 O377 2.244 . S
O365 Co364 2.216 . S
O365 C372 1.247 . S
O366 Co364 2.091 . S
O366 C372 1.261 . S
C367 O376 1.247 . S
C367 O377 1.272 . S
O368 Co364 2.004 . S
O368 C373 1.259 . S
Co369 O370 2.061 . S
Co369 O375 2.052 . S
Co369 O377 2.135 . S
O370 Co369 2.061 . S
O370 C373 1.235 . S
C371 O374 1.238 . S
C371 O375 1.241 . S
C372 O365 1.247 . S
C372 O366 1.261 . S
C373 O368 1.259 . S
C373 O370 1.235 . S
O374 Co364 2.021 . S
O374 C371 1.238 . S
O375 Co369 2.052 . S
O375 C371 1.241 . S
O376 Co364 2.137 . S
O376 C367 1.247 . S
O377 Co364 2.244 . S
O377 C367 1.272 . S
O377 Co369 2.135 . S
Co378 O379 2.216 . S
Co378 O380 2.091 . S
Co378 O382 2.004 . S
Co378 O388 2.021 . S
Co378 O390 2.137 . S
Co378 O391 2.244 . S
O379 Co378 2.216 . S
O379 C386 1.247 . S
O380 Co378 2.091 . S
O380 C386 1.261 . S
C381 O390 1.247 . S
C381 O391 1.272 . S
O382 Co378 2.004 . S
O382 C387 1.259 . S
Co383 O384 2.061 . S
Co383 O389 2.052 . S
Co383 O391 2.135 . S
O384 Co383 2.061 . S
O384 C387 1.235 . S
C385 O388 1.238 . S
C385 O389 1.241 . S
C386 O379 1.247 . S
C386 O380 1.261 . S
C387 O382 1.259 . S
C387 O384 1.235 . S
O388 Co378 2.021 . S
O388 C385 1.238 . S
O389 Co383 2.052 . S
O389 C385 1.241 . S
O390 Co378 2.137 . S
O390 C381 1.247 . S
O391 Co378 2.244 . S
O391 C381 1.272 . S
O391 Co383 2.135 . S
Co392 O393 2.216 . S
Co392 O394 2.091 . S
Co392 O396 2.004 . S
Co392 O402 2.021 . S
Co392 O404 2.137 . S
Co392 O405 2.244 . S
O393 Co392 2.216 . S
O393 C400 1.247 . S
O394 Co392 2.091 . S
O394 C400 1.261 . S
C395 O404 1.247 . S
C395 O405 1.272 . S
O396 Co392 2.004 . S
O396 C401 1.259 . S
Co397 O398 2.061 . S
Co397 O403 2.052 . S
Co397 O405 2.135 . S
O398 Co397 2.061 . S
O398 C401 1.235 . S
C399 O402 1.238 . S
C399 O403 1.241 . S
C400 O393 1.247 . S
C400 O394 1.261 . S
C401 O396 1.259 . S
C401 O398 1.235 . S
O402 Co392 2.021 . S
O402 C399 1.238 . S
O403 Co397 2.052 . S
O403 C399 1.241 . S
O404 Co392 2.137 . S
O404 C395 1.247 . S
O405 Co392 2.244 . S
O405 C395 1.272 . S
O405 Co397 2.135 . S
Co406 O407 2.216 . S
Co406 O408 2.091 . S
Co406 O410 2.004 . S
Co406 O416 2.021 . S
Co406 O418 2.137 . S
Co406 O419 2.244 . S
O407 Co406 2.216 . S
O407 C414 1.247 . S
O408 Co406 2.091 . S
O408 C414 1.261 . S
C409 O418 1.247 . S
C409 O419 1.272 . S
O410 Co406 2.004 . S
O410 C415 1.259 . S
Co411 O412 2.061 . S
Co411 O417 2.052 . S
Co411 O419 2.135 . S
O412 Co411 2.061 . S
O412 C415 1.235 . S
C413 O416 1.238 . S
C413 O417 1.241 . S
C414 O407 1.247 . S
C414 O408 1.261 . S
C415 O410 1.259 . S
C415 O412 1.235 . S
O416 Co406 2.021 . S
O416 C413 1.238 . S
O417 Co411 2.052 . S
O417 C413 1.241 . S
O418 Co406 2.137 . S
O418 C409 1.247 . S
O419 Co406 2.244 . S
O419 C409 1.272 . S
O419 Co411 2.135 . S
Co420 O421 2.216 . S
Co420 O422 2.091 . S
Co420 O424 2.004 . S
Co420 O430 2.021 . S
Co420 O432 2.137 . S
Co420 O433 2.244 . S
O421 Co420 2.216 . S
O421 C428 1.247 . S
O422 Co420 2.091 . S
O422 C428 1.261 . S
C423 O432 1.247 . S
C423 O433 1.272 . S
O424 Co420 2.004 . S
O424 C429 1.259 . S
Co425 O426 2.061 . S
Co425 O431 2.052 . S
Co425 O433 2.135 . S
O426 Co425 2.061 . S
O426 C429 1.235 . S
C427 O430 1.238 . S
C427 O431 1.241 . S
C428 O421 1.247 . S
C428 O422 1.261 . S
C429 O424 1.259 . S
C429 O426 1.235 . S
O430 Co420 2.021 . S
O430 C427 1.238 . S
O431 Co425 2.052 . S
O431 C427 1.241 . S
O432 Co420 2.137 . S
O432 C423 1.247 . S
O433 Co420 2.244 . S
O433 C423 1.272 . S
O433 Co425 2.135 . S
Co434 O435 2.216 . S
Co434 O436 2.091 . S
Co434 O438 2.004 . S
Co434 O444 2.021 . S
Co434 O446 2.137 . S
Co434 O447 2.244 . S
O435 Co434 2.216 . S
O435 C442 1.247 . S
O436 Co434 2.091 . S
O436 C442 1.261 . S
C437 O446 1.247 . S
C437 O447 1.272 . S
O438 Co434 2.004 . S
O438 C443 1.259 . S
Co439 O440 2.061 . S
Co439 O445 2.052 . S
Co439 O447 2.135 . S
O440 Co439 2.061 . S
O440 C443 1.235 . S
C441 O444 1.238 . S
C441 O445 1.241 . S
C442 O435 1.247 . S
C442 O436 1.261 . S
C443 O438 1.259 . S
C443 O440 1.235 . S
O444 Co434 2.021 . S
O444 C441 1.238 . S
O445 Co439 2.052 . S
O445 C441 1.241 . S
O446 Co434 2.137 . S
O446 C437 1.247 . S
O447 Co434 2.244 . S
O447 C437 1.272 . S
O447 Co439 2.135 . S
Co448 O449 2.216 . S
Co448 O450 2.091 . S
Co448 O452 2.004 . S
Co448 O458 2.021 . S
Co448 O460 2.137 . S
Co448 O461 2.244 . S
O449 Co448 2.216 . S
O449 C456 1.247 . S
O450 Co448 2.091 . S
O450 C456 1.261 . S
C451 O460 1.247 . S
C451 O461 1.272 . S
O452 Co448 2.004 . S
O452 C457 1.259 . S
Co453 O454 2.061 . S
Co453 O459 2.052 . S
Co453 O461 2.135 . S
O454 Co453 2.061 . S
O454 C457 1.235 . S
C455 O458 1.238 . S
C455 O459 1.241 . S
C456 O449 1.247 . S
C456 O450 1.261 . S
C457 O452 1.259 . S
C457 O454 1.235 . S
O458 Co448 2.021 . S
O458 C455 1.238 . S
O459 Co453 2.052 . S
O459 C455 1.241 . S
O460 Co448 2.137 . S
O460 C451 1.247 . S
O461 Co448 2.244 . S
O461 C451 1.272 . S
O461 Co453 2.135 . S
Co462 O463 2.216 . S
Co462 O464 2.091 . S
Co462 O466 2.004 . S
Co462 O472 2.021 . S
Co462 O474 2.137 . S
Co462 O475 2.244 . S
O463 Co462 2.216 . S
O463 C470 1.247 . S
O464 Co462 2.091 . S
O464 C470 1.261 . S
C465 O474 1.247 . S
C465 O475 1.272 . S
O466 Co462 2.004 . S
O466 C471 1.259 . S
Co467 O468 2.061 . S
Co467 O473 2.052 . S
Co467 O475 2.135 . S
O468 Co467 2.061 . S
O468 C471 1.235 . S
C469 O472 1.238 . S
C469 O473 1.241 . S
C470 O463 1.247 . S
C470 O464 1.261 . S
C471 O466 1.259 . S
C471 O468 1.235 . S
O472 Co462 2.021 . S
O472 C469 1.238 . S
O473 Co467 2.052 . S
O473 C469 1.241 . S
O474 Co462 2.137 . S
O474 C465 1.247 . S
O475 Co462 2.244 . S
O475 C465 1.272 . S
O475 Co467 2.135 . S
Co476 O477 2.216 . S
Co476 O478 2.091 . S
Co476 O480 2.004 . S
Co476 O486 2.021 . S
Co476 O488 2.137 . S
Co476 O489 2.244 . S
O477 Co476 2.216 . S
O477 C484 1.247 . S
O478 Co476 2.091 . S
O478 C484 1.261 . S
C479 O488 1.247 . S
C479 O489 1.272 . S
O480 Co476 2.004 . S
O480 C485 1.259 . S
Co481 O482 2.061 . S
Co481 O487 2.052 . S
Co481 O489 2.135 . S
O482 Co481 2.061 . S
O482 C485 1.235 . S
C483 O486 1.238 . S
C483 O487 1.241 . S
C484 O477 1.247 . S
C484 O478 1.261 . S
C485 O480 1.259 . S
C485 O482 1.235 . S
O486 Co476 2.021 . S
O486 C483 1.238 . S
O487 Co481 2.052 . S
O487 C483 1.241 . S
O488 Co476 2.137 . S
O488 C479 1.247 . S
O489 Co476 2.244 . S
O489 C479 1.272 . S
O489 Co481 2.135 . S
Co490 O491 2.216 . S
Co490 O492 2.091 . S
Co490 O494 2.004 . S
Co490 O500 2.021 . S
Co490 O502 2.137 . S
Co490 O503 2.244 . S
O491 Co490 2.216 . S
O491 C498 1.247 . S
O492 Co490 2.091 . S
O492 C498 1.261 . S
C493 O502 1.247 . S
C493 O503 1.272 . S
O494 Co490 2.004 . S
O494 C499 1.259 . S
Co495 O496 2.061 . S
Co495 O501 2.052 . S
Co495 O503 2.135 . S
O496 Co495 2.061 . S
O496 C499 1.235 . S
C497 O500 1.238 . S
C497 O501 1.241 . S
C498 O491 1.247 . S
C498 O492 1.261 . S
C499 O494 1.259 . S
C499 O496 1.235 . S
O500 Co490 2.021 . S
O500 C497 1.238 . S
O501 Co495 2.052 . S
O501 C497 1.241 . S
O502 Co490 2.137 . S
O502 C493 1.247 . S
O503 Co490 2.244 . S
O503 C493 1.272 . S
O503 Co495 2.135 . S
C504 C505 1.391 . S
C504 C506 1.394 . S
C504 H520 0.931 . S
C505 C504 1.391 . S
C505 C509 1.376 . S
C506 C504 1.394 . S
C506 C507 1.369 . S
C506 C510 1.531 . S
C507 C506 1.369 . S
C507 C508 1.410 . S
C507 C515 1.503 . S
C508 C507 1.410 . S
C508 C509 1.392 . S
C508 C511 1.511 . S
C509 C505 1.376 . S
C509 C508 1.392 . S
C509 H521 0.929 . S
C510 C506 1.531 . S
C510 H522 0.960 . S
C510 H523 0.962 . S
C510 H524 0.960 . S
C511 C508 1.511 . S
C511 H525 0.961 . S
C511 H526 0.961 . S
C511 H527 0.961 . S
C512 C513 1.370 . S
C512 C514 1.363 . S
C512 H528 0.931 . S
C513 C512 1.370 . S
C513 C517 1.408 . S
C514 C512 1.363 . S
C514 C515 1.370 . S
C514 C518 1.524 . S
C515 C507 1.503 . S
C515 C514 1.370 . S
C515 C516 1.403 . S
C516 C515 1.403 . S
C516 C517 1.404 . S
C516 C519 1.539 . S
C517 C513 1.408 . S
C517 C516 1.404 . S
C517 H529 0.930 . S
C518 C514 1.524 . S
C518 H530 0.956 . S
C518 H531 0.961 . S
C518 H532 0.961 . S
C519 C516 1.539 . S
C519 H533 0.958 . S
C519 H534 0.961 . S
C519 H535 0.960 . S
H520 C504 0.931 . S
H521 C509 0.929 . S
H522 C510 0.960 . S
H523 C510 0.962 . S
H524 C510 0.960 . S
H525 C511 0.961 . S
H526 C511 0.961 . S
H527 C511 0.961 . S
H528 C512 0.931 . S
H529 C517 0.930 . S
H530 C518 0.956 . S
H531 C518 0.961 . S
H532 C518 0.961 . S
H533 C519 0.958 . S
H534 C519 0.961 . S
H535 C519 0.960 . S
C536 C537 1.391 . S
C536 C538 1.394 . S
C536 H552 0.931 . S
C537 C536 1.391 . S
C537 C541 1.376 . S
C538 C536 1.394 . S
C538 C539 1.369 . S
C538 C542 1.531 . S
C539 C538 1.369 . S
C539 C540 1.410 . S
C539 C547 1.503 . S
C540 C539 1.410 . S
C540 C541 1.392 . S
C540 C543 1.511 . S
C541 C537 1.376 . S
C541 C540 1.392 . S
C541 H553 0.929 . S
C542 C538 1.531 . S
C542 H554 0.960 . S
C542 H555 0.962 . S
C542 H556 0.960 . S
C543 C540 1.511 . S
C543 H557 0.961 . S
C543 H558 0.961 . S
C543 H559 0.961 . S
C544 C545 1.370 . S
C544 C546 1.363 . S
C544 H560 0.931 . S
C545 C544 1.370 . S
C545 C549 1.408 . S
C546 C544 1.363 . S
C546 C547 1.370 . S
C546 C550 1.524 . S
C547 C539 1.503 . S
C547 C546 1.370 . S
C547 C548 1.403 . S
C548 C547 1.403 . S
C548 C549 1.404 . S
C548 C551 1.539 . S
C549 C545 1.408 . S
C549 C548 1.404 . S
C549 H561 0.930 . S
C550 C546 1.524 . S
C550 H562 0.956 . S
C550 H563 0.961 . S
C550 H564 0.961 . S
C551 C548 1.539 . S
C551 H565 0.958 . S
C551 H566 0.961 . S
C551 H567 0.960 . S
H552 C536 0.931 . S
H553 C541 0.929 . S
H554 C542 0.960 . S
H555 C542 0.962 . S
H556 C542 0.960 . S
H557 C543 0.961 . S
H558 C543 0.961 . S
H559 C543 0.961 . S
H560 C544 0.931 . S
H561 C549 0.930 . S
H562 C550 0.956 . S
H563 C550 0.961 . S
H564 C550 0.961 . S
H565 C551 0.958 . S
H566 C551 0.961 . S
H567 C551 0.960 . S
C568 C569 1.391 . S
C568 C570 1.394 . S
C568 H584 0.931 . S
C569 C568 1.391 . S
C569 C573 1.376 . S
C570 C568 1.394 . S
C570 C571 1.369 . S
C570 C574 1.531 . S
C571 C570 1.369 . S
C571 C572 1.410 . S
C571 C579 1.503 . S
C572 C571 1.410 . S
C572 C573 1.392 . S
C572 C575 1.511 . S
C573 C569 1.376 . S
C573 C572 1.392 . S
C573 H585 0.929 . S
C574 C570 1.531 . S
C574 H586 0.960 . S
C574 H587 0.962 . S
C574 H588 0.960 . S
C575 C572 1.511 . S
C575 H589 0.961 . S
C575 H590 0.961 . S
C575 H591 0.961 . S
C576 C577 1.370 . S
C576 C578 1.363 . S
C576 H592 0.931 . S
C577 C576 1.370 . S
C577 C581 1.408 . S
C578 C576 1.363 . S
C578 C579 1.370 . S
C578 C582 1.524 . S
C579 C571 1.503 . S
C579 C578 1.370 . S
C579 C580 1.403 . S
C580 C579 1.403 . S
C580 C581 1.404 . S
C580 C583 1.539 . S
C581 C577 1.408 . S
C581 C580 1.404 . S
C581 H593 0.930 . S
C582 C578 1.524 . S
C582 H594 0.956 . S
C582 H595 0.961 . S
C582 H596 0.961 . S
C583 C580 1.539 . S
C583 H597 0.958 . S
C583 H598 0.961 . S
C583 H599 0.960 . S
H584 C568 0.931 . S
H585 C573 0.929 . S
H586 C574 0.960 . S
H587 C574 0.962 . S
H588 C574 0.960 . S
H589 C575 0.961 . S
H590 C575 0.961 . S
H591 C575 0.961 . S
H592 C576 0.931 . S
H593 C581 0.930 . S
H594 C582 0.956 . S
H595 C582 0.961 . S
H596 C582 0.961 . S
H597 C583 0.958 . S
H598 C583 0.961 . S
H599 C583 0.960 . S
C600 C601 1.391 . S
C600 C602 1.394 . S
C600 H616 0.931 . S
C601 C600 1.391 . S
C601 C605 1.376 . S
C602 C600 1.394 . S
C602 C603 1.369 . S
C602 C606 1.531 . S
C603 C602 1.369 . S
C603 C604 1.410 . S
C603 C611 1.503 . S
C604 C603 1.410 . S
C604 C605 1.392 . S
C604 C607 1.511 . S
C605 C601 1.376 . S
C605 C604 1.392 . S
C605 H617 0.929 . S
C606 C602 1.531 . S
C606 H618 0.960 . S
C606 H619 0.962 . S
C606 H620 0.960 . S
C607 C604 1.511 . S
C607 H621 0.961 . S
C607 H622 0.961 . S
C607 H623 0.961 . S
C608 C609 1.370 . S
C608 C610 1.363 . S
C608 H624 0.931 . S
C609 C608 1.370 . S
C609 C613 1.408 . S
C610 C608 1.363 . S
C610 C611 1.370 . S
C610 C614 1.524 . S
C611 C603 1.503 . S
C611 C610 1.370 . S
C611 C612 1.403 . S
C612 C611 1.403 . S
C612 C613 1.404 . S
C612 C615 1.539 . S
C613 C609 1.408 . S
C613 C612 1.404 . S
C613 H625 0.930 . S
C614 C610 1.524 . S
C614 H626 0.956 . S
C614 H627 0.961 . S
C614 H628 0.961 . S
C615 C612 1.539 . S
C615 H629 0.958 . S
C615 H630 0.961 . S
C615 H631 0.960 . S
H616 C600 0.931 . S
H617 C605 0.929 . S
H618 C606 0.960 . S
H619 C606 0.962 . S
H620 C606 0.960 . S
H621 C607 0.961 . S
H622 C607 0.961 . S
H623 C607 0.961 . S
H624 C608 0.931 . S
H625 C613 0.930 . S
H626 C614 0.956 . S
H627 C614 0.961 . S
H628 C614 0.961 . S
H629 C615 0.958 . S
H630 C615 0.961 . S
H631 C615 0.960 . S
C632 C633 1.391 . S
C632 C634 1.394 . S
C632 H648 0.931 . S
C633 C632 1.391 . S
C633 C637 1.376 . S
C634 C632 1.394 . S
C634 C635 1.369 . S
C634 C638 1.531 . S
C635 C634 1.369 . S
C635 C636 1.410 . S
C635 C643 1.503 . S
C636 C635 1.410 . S
C636 C637 1.392 . S
C636 C639 1.511 . S
C637 C633 1.376 . S
C637 C636 1.392 . S
C637 H649 0.929 . S
C638 C634 1.531 . S
C638 H650 0.960 . S
C638 H651 0.962 . S
C638 H652 0.960 . S
C639 C636 1.511 . S
C639 H653 0.961 . S
C639 H654 0.961 . S
C639 H655 0.961 . S
C640 C641 1.370 . S
C640 C642 1.363 . S
C640 H656 0.931 . S
C641 C640 1.370 . S
C641 C645 1.408 . S
C642 C640 1.363 . S
C642 C643 1.370 . S
C642 C646 1.524 . S
C643 C635 1.503 . S
C643 C642 1.370 . S
C643 C644 1.403 . S
C644 C643 1.403 . S
C644 C645 1.404 . S
C644 C647 1.539 . S
C645 C641 1.408 . S
C645 C644 1.404 . S
C645 H657 0.930 . S
C646 C642 1.524 . S
C646 H658 0.956 . S
C646 H659 0.961 . S
C646 H660 0.961 . S
C647 C644 1.539 . S
C647 H661 0.958 . S
C647 H662 0.961 . S
C647 H663 0.960 . S
H648 C632 0.931 . S
H649 C637 0.929 . S
H650 C638 0.960 . S
H651 C638 0.962 . S
H652 C638 0.960 . S
H653 C639 0.961 . S
H654 C639 0.961 . S
H655 C639 0.961 . S
H656 C640 0.931 . S
H657 C645 0.930 . S
H658 C646 0.956 . S
H659 C646 0.961 . S
H660 C646 0.961 . S
H661 C647 0.958 . S
H662 C647 0.961 . S
H663 C647 0.960 . S
C664 C665 1.391 . S
C664 C666 1.394 . S
C664 H680 0.931 . S
C665 C664 1.391 . S
C665 C669 1.376 . S
C666 C664 1.394 . S
C666 C667 1.369 . S
C666 C670 1.531 . S
C667 C666 1.369 . S
C667 C668 1.410 . S
C667 C675 1.503 . S
C668 C667 1.410 . S
C668 C669 1.392 . S
C668 C671 1.511 . S
C669 C665 1.376 . S
C669 C668 1.392 . S
C669 H681 0.929 . S
C670 C666 1.531 . S
C670 H682 0.960 . S
C670 H683 0.962 . S
C670 H684 0.960 . S
C671 C668 1.511 . S
C671 H685 0.961 . S
C671 H686 0.961 . S
C671 H687 0.961 . S
C672 C673 1.370 . S
C672 C674 1.363 . S
C672 H688 0.931 . S
C673 C672 1.370 . S
C673 C677 1.408 . S
C674 C672 1.363 . S
C674 C675 1.370 . S
C674 C678 1.524 . S
C675 C667 1.503 . S
C675 C674 1.370 . S
C675 C676 1.403 . S
C676 C675 1.403 . S
C676 C677 1.404 . S
C676 C679 1.539 . S
C677 C673 1.408 . S
C677 C676 1.404 . S
C677 H689 0.930 . S
C678 C674 1.524 . S
C678 H690 0.956 . S
C678 H691 0.961 . S
C678 H692 0.961 . S
C679 C676 1.539 . S
C679 H693 0.958 . S
C679 H694 0.961 . S
C679 H695 0.960 . S
H680 C664 0.931 . S
H681 C669 0.929 . S
H682 C670 0.960 . S
H683 C670 0.962 . S
H684 C670 0.960 . S
H685 C671 0.961 . S
H686 C671 0.961 . S
H687 C671 0.961 . S
H688 C672 0.931 . S
H689 C677 0.930 . S
H690 C678 0.956 . S
H691 C678 0.961 . S
H692 C678 0.961 . S
H693 C679 0.958 . S
H694 C679 0.961 . S
H695 C679 0.960 . S
C696 C697 1.391 . S
C696 C698 1.394 . S
C696 H712 0.931 . S
C697 C696 1.391 . S
C697 C701 1.376 . S
C698 C696 1.394 . S
C698 C699 1.369 . S
C698 C702 1.531 . S
C699 C698 1.369 . S
C699 C700 1.410 . S
C699 C707 1.503 . S
C700 C699 1.410 . S
C700 C701 1.392 . S
C700 C703 1.511 . S
C701 C697 1.376 . S
C701 C700 1.392 . S
C701 H713 0.929 . S
C702 C698 1.531 . S
C702 H714 0.960 . S
C702 H715 0.962 . S
C702 H716 0.960 . S
C703 C700 1.511 . S
C703 H717 0.961 . S
C703 H718 0.961 . S
C703 H719 0.961 . S
C704 C705 1.370 . S
C704 C706 1.363 . S
C704 H720 0.931 . S
C705 C704 1.370 . S
C705 C709 1.408 . S
C706 C704 1.363 . S
C706 C707 1.370 . S
C706 C710 1.524 . S
C707 C699 1.503 . S
C707 C706 1.370 . S
C707 C708 1.403 . S
C708 C707 1.403 . S
C708 C709 1.404 . S
C708 C711 1.539 . S
C709 C705 1.408 . S
C709 C708 1.404 . S
C709 H721 0.930 . S
C710 C706 1.524 . S
C710 H722 0.956 . S
C710 H723 0.961 . S
C710 H724 0.961 . S
C711 C708 1.539 . S
C711 H725 0.958 . S
C711 H726 0.961 . S
C711 H727 0.960 . S
H712 C696 0.931 . S
H713 C701 0.929 . S
H714 C702 0.960 . S
H715 C702 0.962 . S
H716 C702 0.960 . S
H717 C703 0.961 . S
H718 C703 0.961 . S
H719 C703 0.961 . S
H720 C704 0.931 . S
H721 C709 0.930 . S
H722 C710 0.956 . S
H723 C710 0.961 . S
H724 C710 0.961 . S
H725 C711 0.958 . S
H726 C711 0.961 . S
H727 C711 0.960 . S
C728 C729 1.391 . S
C728 C730 1.394 . S
C728 H744 0.931 . S
C729 C728 1.391 . S
C729 C733 1.376 . S
C730 C728 1.394 . S
C730 C731 1.369 . S
C730 C734 1.531 . S
C731 C730 1.369 . S
C731 C732 1.410 . S
C731 C739 1.503 . S
C732 C731 1.410 . S
C732 C733 1.392 . S
C732 C735 1.511 . S
C733 C729 1.376 . S
C733 C732 1.392 . S
C733 H745 0.929 . S
C734 C730 1.531 . S
C734 H746 0.960 . S
C734 H747 0.962 . S
C734 H748 0.960 . S
C735 C732 1.511 . S
C735 H749 0.961 . S
C735 H750 0.961 . S
C735 H751 0.961 . S
C736 C737 1.370 . S
C736 C738 1.363 . S
C736 H752 0.931 . S
C737 C736 1.370 . S
C737 C741 1.408 . S
C738 C736 1.363 . S
C738 C739 1.370 . S
C738 C742 1.524 . S
C739 C731 1.503 . S
C739 C738 1.370 . S
C739 C740 1.403 . S
C740 C739 1.403 . S
C740 C741 1.404 . S
C740 C743 1.539 . S
C741 C737 1.408 . S
C741 C740 1.404 . S
C741 H753 0.930 . S
C742 C738 1.524 . S
C742 H754 0.956 . S
C742 H755 0.961 . S
C742 H756 0.961 . S
C743 C740 1.539 . S
C743 H757 0.958 . S
C743 H758 0.961 . S
C743 H759 0.960 . S
H744 C728 0.931 . S
H745 C733 0.929 . S
H746 C734 0.960 . S
H747 C734 0.962 . S
H748 C734 0.960 . S
H749 C735 0.961 . S
H750 C735 0.961 . S
H751 C735 0.961 . S
H752 C736 0.931 . S
H753 C741 0.930 . S
H754 C742 0.956 . S
H755 C742 0.961 . S
H756 C742 0.961 . S
H757 C743 0.958 . S
H758 C743 0.961 . S
H759 C743 0.960 . S
C760 C761 1.391 . S
C760 C762 1.394 . S
C760 H776 0.931 . S
C761 C760 1.391 . S
C761 C765 1.376 . S
C762 C760 1.394 . S
C762 C763 1.369 . S
C762 C766 1.531 . S
C763 C762 1.369 . S
C763 C764 1.410 . S
C763 C771 1.503 . S
C764 C763 1.410 . S
C764 C765 1.392 . S
C764 C767 1.511 . S
C765 C761 1.376 . S
C765 C764 1.392 . S
C765 H777 0.929 . S
C766 C762 1.531 . S
C766 H778 0.960 . S
C766 H779 0.962 . S
C766 H780 0.960 . S
C767 C764 1.511 . S
C767 H781 0.961 . S
C767 H782 0.961 . S
C767 H783 0.961 . S
C768 C769 1.370 . S
C768 C770 1.363 . S
C768 H784 0.931 . S
C769 C768 1.370 . S
C769 C773 1.408 . S
C770 C768 1.363 . S
C770 C771 1.370 . S
C770 C774 1.524 . S
C771 C763 1.503 . S
C771 C770 1.370 . S
C771 C772 1.403 . S
C772 C771 1.403 . S
C772 C773 1.404 . S
C772 C775 1.539 . S
C773 C769 1.408 . S
C773 C772 1.404 . S
C773 H785 0.930 . S
C774 C770 1.524 . S
C774 H786 0.956 . S
C774 H787 0.961 . S
C774 H788 0.961 . S
C775 C772 1.539 . S
C775 H789 0.958 . S
C775 H790 0.961 . S
C775 H791 0.960 . S
H776 C760 0.931 . S
H777 C765 0.929 . S
H778 C766 0.960 . S
H779 C766 0.962 . S
H780 C766 0.960 . S
H781 C767 0.961 . S
H782 C767 0.961 . S
H783 C767 0.961 . S
H784 C768 0.931 . S
H785 C773 0.930 . S
H786 C774 0.956 . S
H787 C774 0.961 . S
H788 C774 0.961 . S
H789 C775 0.958 . S
H790 C775 0.961 . S
H791 C775 0.960 . S
C792 C793 1.391 . S
C792 C794 1.394 . S
C792 H808 0.931 . S
C793 C792 1.391 . S
C793 C797 1.376 . S
C794 C792 1.394 . S
C794 C795 1.369 . S
C794 C798 1.531 . S
C795 C794 1.369 . S
C795 C796 1.410 . S
C795 C803 1.503 . S
C796 C795 1.410 . S
C796 C797 1.392 . S
C796 C799 1.511 . S
C797 C793 1.376 . S
C797 C796 1.392 . S
C797 H809 0.929 . S
C798 C794 1.531 . S
C798 H810 0.960 . S
C798 H811 0.962 . S
C798 H812 0.960 . S
C799 C796 1.511 . S
C799 H813 0.961 . S
C799 H814 0.961 . S
C799 H815 0.961 . S
C800 C801 1.370 . S
C800 C802 1.363 . S
C800 H816 0.931 . S
C801 C800 1.370 . S
C801 C805 1.408 . S
C802 C800 1.363 . S
C802 C803 1.370 . S
C802 C806 1.524 . S
C803 C795 1.503 . S
C803 C802 1.370 . S
C803 C804 1.403 . S
C804 C803 1.403 . S
C804 C805 1.404 . S
C804 C807 1.539 . S
C805 C801 1.408 . S
C805 C804 1.404 . S
C805 H817 0.930 . S
C806 C802 1.524 . S
C806 H818 0.956 . S
C806 H819 0.961 . S
C806 H820 0.961 . S
C807 C804 1.539 . S
C807 H821 0.958 . S
C807 H822 0.961 . S
C807 H823 0.960 . S
H808 C792 0.931 . S
H809 C797 0.929 . S
H810 C798 0.960 . S
H811 C798 0.962 . S
H812 C798 0.960 . S
H813 C799 0.961 . S
H814 C799 0.961 . S
H815 C799 0.961 . S
H816 C800 0.931 . S
H817 C805 0.930 . S
H818 C806 0.956 . S
H819 C806 0.961 . S
H820 C806 0.961 . S
H821 C807 0.958 . S
H822 C807 0.961 . S
H823 C807 0.960 . S
C824 C825 1.391 . S
C824 C826 1.394 . S
C824 H840 0.931 . S
C825 C824 1.391 . S
C825 C829 1.376 . S
C826 C824 1.394 . S
C826 C827 1.369 . S
C826 C830 1.531 . S
C827 C826 1.369 . S
C827 C828 1.410 . S
C827 C835 1.503 . S
C828 C827 1.410 . S
C828 C829 1.392 . S
C828 C831 1.511 . S
C829 C825 1.376 . S
C829 C828 1.392 . S
C829 H841 0.929 . S
C830 C826 1.531 . S
C830 H842 0.960 . S
C830 H843 0.962 . S
C830 H844 0.960 . S
C831 C828 1.511 . S
C831 H845 0.961 . S
C831 H846 0.961 . S
C831 H847 0.961 . S
C832 C833 1.370 . S
C832 C834 1.363 . S
C832 H848 0.931 . S
C833 C832 1.370 . S
C833 C837 1.408 . S
C834 C832 1.363 . S
C834 C835 1.370 . S
C834 C838 1.524 . S
C835 C827 1.503 . S
C835 C834 1.370 . S
C835 C836 1.403 . S
C836 C835 1.403 . S
C836 C837 1.404 . S
C836 C839 1.539 . S
C837 C833 1.408 . S
C837 C836 1.404 . S
C837 H849 0.930 . S
C838 C834 1.524 . S
C838 H850 0.956 . S
C838 H851 0.961 . S
C838 H852 0.961 . S
C839 C836 1.539 . S
C839 H853 0.958 . S
C839 H854 0.961 . S
C839 H855 0.960 . S
H840 C824 0.931 . S
H841 C829 0.929 . S
H842 C830 0.960 . S
H843 C830 0.962 . S
H844 C830 0.960 . S
H845 C831 0.961 . S
H846 C831 0.961 . S
H847 C831 0.961 . S
H848 C832 0.931 . S
H849 C837 0.930 . S
H850 C838 0.956 . S
H851 C838 0.961 . S
H852 C838 0.961 . S
H853 C839 0.958 . S
H854 C839 0.961 . S
H855 C839 0.960 . S
C856 C857 1.391 . S
C856 C858 1.394 . S
C856 H872 0.931 . S
C857 C856 1.391 . S
C857 C861 1.376 . S
C858 C856 1.394 . S
C858 C859 1.369 . S
C858 C862 1.531 . S
C859 C858 1.369 . S
C859 C860 1.410 . S
C859 C867 1.503 . S
C860 C859 1.410 . S
C860 C861 1.392 . S
C860 C863 1.511 . S
C861 C857 1.376 . S
C861 C860 1.392 . S
C861 H873 0.929 . S
C862 C858 1.531 . S
C862 H874 0.960 . S
C862 H875 0.962 . S
C862 H876 0.960 . S
C863 C860 1.511 . S
C863 H877 0.961 . S
C863 H878 0.961 . S
C863 H879 0.961 . S
C864 C865 1.370 . S
C864 C866 1.363 . S
C864 H880 0.931 . S
C865 C864 1.370 . S
C865 C869 1.408 . S
C866 C864 1.363 . S
C866 C867 1.370 . S
C866 C870 1.524 . S
C867 C859 1.503 . S
C867 C866 1.370 . S
C867 C868 1.403 . S
C868 C867 1.403 . S
C868 C869 1.404 . S
C868 C871 1.539 . S
C869 C865 1.408 . S
C869 C868 1.404 . S
C869 H881 0.930 . S
C870 C866 1.524 . S
C870 H882 0.956 . S
C870 H883 0.961 . S
C870 H884 0.961 . S
C871 C868 1.539 . S
C871 H885 0.958 . S
C871 H886 0.961 . S
C871 H887 0.960 . S
H872 C856 0.931 . S
H873 C861 0.929 . S
H874 C862 0.960 . S
H875 C862 0.962 . S
H876 C862 0.960 . S
H877 C863 0.961 . S
H878 C863 0.961 . S
H879 C863 0.961 . S
H880 C864 0.931 . S
H881 C869 0.930 . S
H882 C870 0.956 . S
H883 C870 0.961 . S
H884 C870 0.961 . S
H885 C871 0.958 . S
H886 C871 0.961 . S
H887 C871 0.960 . S
C888 C889 1.391 . S
C888 C890 1.394 . S
C888 H904 0.931 . S
C889 C888 1.391 . S
C889 C893 1.376 . S
C890 C888 1.394 . S
C890 C891 1.369 . S
C890 C894 1.531 1_455 S
C891 C890 1.369 . S
C891 C892 1.410 . S
C891 C899 1.503 1_455 S
C892 C891 1.410 . S
C892 C893 1.392 . S
C892 C895 1.511 . S
C893 C889 1.376 . S
C893 C892 1.392 . S
C893 H905 0.929 . S
C894 C890 1.531 1_655 S
C894 H906 0.960 . S
C894 H907 0.962 . S
C894 H908 0.960 1_655 S
C895 C892 1.511 . S
C895 H909 0.961 . S
C895 H910 0.961 . S
C895 H911 0.961 . S
C896 C897 1.370 . S
C896 C898 1.363 . S
C896 H912 0.931 . S
C897 C896 1.370 . S
C897 C901 1.408 . S
C898 C896 1.363 . S
C898 C899 1.370 . S
C898 C902 1.524 . S
C899 C891 1.503 1_655 S
C899 C898 1.370 . S
C899 C900 1.408 . S
C900 C899 1.408 . S
C900 C901 1.414 . S
C900 C903 1.523 1_655 S
C901 C897 1.408 . S
C901 C900 1.414 . S
C901 H913 0.930 . S
C902 C898 1.524 . S
C902 H914 0.956 . S
C902 H915 0.961 . S
C902 H916 0.961 . S
C903 C900 1.523 1_455 S
C903 H917 0.958 . S
C903 H918 0.961 . S
C903 H919 0.960 . S
H904 C888 0.931 . S
H905 C893 0.929 . S
H906 C894 0.960 . S
H907 C894 0.962 . S
H908 C894 0.960 1_455 S
H909 C895 0.961 . S
H910 C895 0.961 . S
H911 C895 0.961 . S
H912 C896 0.931 . S
H913 C901 0.930 . S
H914 C902 0.956 . S
H915 C902 0.961 . S
H916 C902 0.961 . S
H917 C903 0.958 . S
H918 C903 0.961 . S
H919 C903 0.960 . S
C920 C921 1.391 . S
C920 C922 1.394 . S
C920 H936 0.931 . S
C921 C920 1.391 . S
C921 C925 1.376 . S
C922 C920 1.394 . S
C922 C923 1.369 . S
C922 C926 1.531 . S
C923 C922 1.369 . S
C923 C924 1.410 . S
C923 C931 1.503 . S
C924 C923 1.410 . S
C924 C925 1.392 . S
C924 C927 1.511 . S
C925 C921 1.376 . S
C925 C924 1.392 . S
C925 H937 0.929 . S
C926 C922 1.531 . S
C926 H938 0.960 . S
C926 H939 0.962 . S
C926 H940 0.960 . S
C927 C924 1.511 . S
C927 H941 0.961 . S
C927 H942 0.961 . S
C927 H943 0.961 . S
C928 C929 1.370 . S
C928 C930 1.363 . S
C928 H944 0.931 . S
C929 C928 1.370 . S
C929 C933 1.408 . S
C930 C928 1.363 . S
C930 C931 1.370 . S
C930 C934 1.524 . S
C931 C923 1.503 . S
C931 C930 1.370 . S
C931 C932 1.403 . S
C932 C931 1.403 . S
C932 C933 1.404 . S
C932 C935 1.539 . S
C933 C929 1.408 . S
C933 C932 1.404 . S
C933 H945 0.930 . S
C934 C930 1.524 . S
C934 H946 0.956 . S
C934 H947 0.961 . S
C934 H948 0.961 . S
C935 C932 1.539 . S
C935 H949 0.958 . S
C935 H950 0.961 . S
C935 H951 0.960 . S
H936 C920 0.931 . S
H937 C925 0.929 . S
H938 C926 0.960 . S
H939 C926 0.962 . S
H940 C926 0.960 . S
H941 C927 0.961 . S
H942 C927 0.961 . S
H943 C927 0.961 . S
H944 C928 0.931 . S
H945 C933 0.930 . S
H946 C934 0.956 . S
H947 C934 0.961 . S
H948 C934 0.961 . S
H949 C935 0.958 . S
H950 C935 0.961 . S
H951 C935 0.960 . S
C952 C953 1.391 . S
C952 C954 1.394 . S
C952 H968 0.931 . S
C953 C952 1.391 . S
C953 C957 1.376 . S
C954 C952 1.394 . S
C954 C955 1.369 . S
C954 C958 1.531 1_545 S
C955 C954 1.369 . S
C955 C956 1.410 . S
C955 C963 1.503 1_545 S
C956 C955 1.410 . S
C956 C957 1.392 . S
C956 C959 1.511 . S
C957 C953 1.376 . S
C957 C956 1.392 . S
C957 H969 0.929 . S
C958 C954 1.531 1_565 S
C958 H970 0.960 . S
C958 H971 0.962 . S
C958 H972 0.960 . S
C959 C956 1.511 . S
C959 H973 0.961 . S
C959 H974 0.961 . S
C959 H975 0.961 . S
C960 C961 1.370 . S
C960 C962 1.363 . S
C960 H976 0.931 . S
C961 C960 1.370 . S
C961 C965 1.408 . S
C962 C960 1.363 . S
C962 C963 1.370 . S
C962 C966 1.524 1_565 S
C963 C955 1.503 1_565 S
C963 C962 1.370 . S
C963 C964 1.403 . S
C964 C963 1.403 . S
C964 C965 1.404 . S
C964 C967 1.539 . S
C965 C961 1.408 . S
C965 C964 1.404 . S
C965 H977 0.930 . S
C966 C962 1.524 1_545 S
C966 H978 0.956 . S
C966 H979 0.961 . S
C966 H980 0.961 . S
C967 C964 1.539 . S
C967 H981 0.958 . S
C967 H982 0.961 . S
C967 H983 0.960 . S
H968 C952 0.931 . S
H969 C957 0.929 . S
H970 C958 0.960 . S
H971 C958 0.962 . S
H972 C958 0.960 . S
H973 C959 0.961 . S
H974 C959 0.961 . S
H975 C959 0.961 . S
H976 C960 0.931 . S
H977 C965 0.930 . S
H978 C966 0.956 . S
H979 C966 0.961 . S
H980 C966 0.961 . S
H981 C967 0.958 . S
H982 C967 0.961 . S
H983 C967 0.960 . S
C984 C985 1.391 . S
C984 C986 1.394 . S
C984 H1000 0.931 . S
C985 C984 1.391 . S
C985 C989 1.376 . S
C986 C984 1.394 . S
C986 C987 1.369 . S
C986 C990 1.531 1_565 S
C987 C986 1.369 . S
C987 C988 1.410 . S
C987 C995 1.503 1_564 S
C988 C987 1.410 . S
C988 C989 1.392 . S
C988 C991 1.511 . S
C989 C985 1.376 . S
C989 C988 1.392 . S
C989 H1001 0.929 . S
C990 C986 1.531 1_545 S
C990 H1002 0.974 . S
C990 H1003 0.962 1_554 S
C990 H1004 0.960 . S
C991 C988 1.511 . S
C991 H1005 0.961 . S
C991 H1006 0.961 . S
C991 H1007 0.961 . S
C992 C993 1.370 . S
C992 C994 1.363 . S
C992 H1008 0.931 . S
C993 C992 1.370 . S
C993 C997 1.408 . S
C994 C992 1.363 . S
C994 C995 1.370 . S
C994 C998 1.524 1_545 S
C995 C987 1.503 1_546 S
C995 C994 1.370 . S
C995 C996 1.406 . S
C996 C995 1.406 . S
C996 C997 1.413 . S
C996 C999 1.527 1_556 S
C997 C993 1.408 . S
C997 C996 1.413 . S
C997 H1009 0.930 . S
C998 C994 1.524 1_565 S
C998 H1010 0.956 . S
C998 H1011 0.961 . S
C998 H1012 0.961 . S
C999 C996 1.527 1_554 S
C999 H1013 0.958 . S
C999 H1014 0.961 . S
C999 H1015 0.960 . S
H1000 C984 0.931 . S
H1001 C989 0.929 . S
H1002 C990 0.974 . S
H1003 C990 0.962 1_556 S
H1004 C990 0.960 . S
H1005 C991 0.961 . S
H1006 C991 0.961 . S
H1007 C991 0.961 . S
H1008 C992 0.931 . S
H1009 C997 0.930 . S
H1010 C998 0.956 . S
H1011 C998 0.961 . S
H1012 C998 0.961 . S
H1013 C999 0.958 . S
H1014 C999 0.961 . S
H1015 C999 0.960 . S
C1016 C1017 1.391 . S
C1016 C1018 1.394 . S
C1016 H1032 0.931 . S
C1017 C1016 1.391 . S
C1017 C1021 1.376 . S
C1018 C1016 1.394 . S
C1018 C1019 1.369 . S
C1018 C1022 1.531 1_556 S
C1019 C1018 1.369 . S
C1019 C1020 1.410 . S
C1019 C1027 1.503 1_656 S
C1020 C1019 1.410 . S
C1020 C1021 1.392 . S
C1020 C1023 1.511 1_655 S
C1021 C1017 1.376 . S
C1021 C1020 1.392 . S
C1021 H1033 0.929 . S
C1022 C1018 1.531 1_554 S
C1022 H1034 0.960 . S
C1022 H1035 0.962 . S
C1022 H1036 0.960 . S
C1023 C1020 1.511 1_455 S
C1023 H1037 0.961 . S
C1023 H1038 0.961 . S
C1023 H1039 0.961 . S
C1024 C1025 1.370 . S
C1024 C1026 1.363 . S
C1024 H1040 0.931 . S
C1025 C1024 1.370 . S
C1025 C1029 1.408 . S
C1026 C1024 1.363 . S
C1026 C1027 1.370 . S
C1026 C1030 1.524 . S
C1027 C1019 1.503 1_454 S
C1027 C1026 1.370 . S
C1027 C1028 1.403 . S
C1028 C1027 1.403 . S
C1028 C1029 1.404 . S
C1028 C1031 1.539 1_554 S
C1029 C1025 1.408 . S
C1029 C1028 1.404 . S
C1029 H1041 0.930 . S
C1030 C1026 1.524 . S
C1030 H1042 0.956 1_455 S
C1030 H1043 0.961 . S
C1030 H1044 0.961 . S
C1031 C1028 1.539 1_556 S
C1031 H1045 0.958 1_456 S
C1031 H1046 0.961 . S
C1031 H1047 0.960 1_455 S
H1032 C1016 0.931 . S
H1033 C1021 0.929 . S
H1034 C1022 0.960 . S
H1035 C1022 0.962 . S
H1036 C1022 0.960 . S
H1037 C1023 0.961 . S
H1038 C1023 0.961 . S
H1039 C1023 0.961 . S
H1040 C1024 0.931 . S
H1041 C1029 0.930 . S
H1042 C1030 0.956 1_655 S
H1043 C1030 0.961 . S
H1044 C1030 0.961 . S
H1045 C1031 0.958 1_654 S
H1046 C1031 0.961 . S
H1047 C1031 0.960 1_655 S
C1048 C1049 1.391 . S
C1048 C1050 1.394 . S
C1048 H1064 0.931 . S
C1049 C1048 1.391 . S
C1049 C1053 1.376 . S
C1050 C1048 1.394 . S
C1050 C1051 1.369 . S
C1050 C1054 1.531 . S
C1051 C1050 1.369 . S
C1051 C1052 1.410 . S
C1051 C1059 1.503 1_556 S
C1052 C1051 1.410 . S
C1052 C1053 1.392 . S
C1052 C1055 1.511 1_556 S
C1053 C1049 1.376 . S
C1053 C1052 1.392 . S
C1053 H1065 0.929 . S
C1054 C1050 1.531 . S
C1054 H1066 0.875 1_556 S
C1054 H1067 0.962 . S
C1054 H1068 0.960 . S
C1055 C1052 1.511 1_554 S
C1055 H1069 0.961 1_554 S
C1055 H1070 0.961 . S
C1055 H1071 0.961 . S
C1056 C1057 1.370 . S
C1056 C1058 1.363 . S
C1056 H1072 0.931 . S
C1057 C1056 1.370 . S
C1057 C1061 1.408 . S
C1058 C1056 1.363 . S
C1058 C1059 1.370 . S
C1058 C1062 1.524 1_554 S
C1059 C1051 1.503 1_554 S
C1059 C1058 1.370 . S
C1059 C1060 1.403 . S
C1060 C1059 1.403 . S
C1060 C1061 1.404 . S
C1060 C1063 1.539 . S
C1061 C1057 1.408 . S
C1061 C1060 1.404 . S
C1061 H1073 0.930 . S
C1062 C1058 1.524 1_556 S
C1062 H1074 0.956 . S
C1062 H1075 0.961 . S
C1062 H1076 0.961 . S
C1063 C1060 1.539 . S
C1063 H1077 0.958 . S
C1063 H1078 0.961 . S
C1063 H1079 0.960 . S
H1064 C1048 0.931 . S
H1065 C1053 0.929 . S
H1066 C1054 0.875 1_554 S
H1067 C1054 0.962 . S
H1068 C1054 0.960 . S
H1069 C1055 0.961 1_556 S
H1070 C1055 0.961 . S
H1071 C1055 0.961 . S
H1072 C1056 0.931 . S
H1073 C1061 0.930 . S
H1074 C1062 0.956 . S
H1075 C1062 0.961 . S
H1076 C1062 0.961 . S
H1077 C1063 0.958 . S
H1078 C1063 0.961 . S
H1079 C1063 0.960 . S
C1080 C1081 1.391 . S
C1080 C1082 1.394 1_545 S
C1080 H1096 0.931 . S
C1081 C1080 1.391 . S
C1081 C1085 1.376 . S
C1082 C1080 1.394 1_565 S
C1082 C1083 1.369 . S
C1082 C1086 1.531 . S
C1083 C1082 1.369 . S
C1083 C1084 1.410 . S
C1083 C1091 1.503 . S
C1084 C1083 1.410 . S
C1084 C1085 1.392 1_565 S
C1084 C1087 1.511 . S
C1085 C1081 1.376 . S
C1085 C1084 1.392 1_545 S
C1085 H1097 0.929 . S
C1086 C1082 1.531 . S
C1086 H1098 0.960 . S
C1086 H1099 0.962 . S
C1086 H1100 0.960 . S
C1087 C1084 1.511 . S
C1087 H1101 0.961 . S
C1087 H1102 0.961 . S
C1087 H1103 0.961 . S
C1088 C1089 1.370 . S
C1088 C1090 1.363 . S
C1088 H1104 0.931 . S
C1089 C1088 1.370 . S
C1089 C1093 1.408 . S
C1090 C1088 1.363 . S
C1090 C1091 1.370 . S
C1090 C1094 1.524 1_565 S
C1091 C1083 1.503 . S
C1091 C1090 1.370 . S
C1091 C1092 1.403 . S
C1092 C1091 1.403 . S
C1092 C1093 1.404 . S
C1092 C1095 1.539 . S
C1093 C1089 1.408 . S
C1093 C1092 1.404 . S
C1093 H1105 0.930 . S
C1094 C1090 1.524 1_545 S
C1094 H1106 0.956 . S
C1094 H1107 0.961 . S
C1094 H1108 0.961 . S
C1095 C1092 1.539 . S
C1095 H1109 0.958 . S
C1095 H1110 0.961 . S
C1095 H1111 0.960 . S
H1096 C1080 0.931 . S
H1097 C1085 0.929 . S
H1098 C1086 0.960 . S
H1099 C1086 0.962 . S
H1100 C1086 0.960 . S
H1101 C1087 0.961 . S
H1102 C1087 0.961 . S
H1103 C1087 0.961 . S
H1104 C1088 0.931 . S
H1105 C1093 0.930 . S
H1106 C1094 0.956 . S
H1107 C1094 0.961 . S
H1108 C1094 0.961 . S
H1109 C1095 0.958 . S
H1110 C1095 0.961 . S
H1111 C1095 0.960 . S
C1112 C1113 1.391 . S
C1112 C1114 1.394 . S
C1112 H1128 0.931 . S
C1113 C1112 1.391 . S
C1113 C1117 1.376 . S
C1114 C1112 1.394 . S
C1114 C1115 1.369 . S
C1114 C1118 1.531 . S
C1115 C1114 1.369 . S
C1115 C1116 1.410 . S
C1115 C1123 1.503 . S
C1116 C1115 1.410 . S
C1116 C1117 1.392 . S
C1116 C1119 1.511 . S
C1117 C1113 1.376 . S
C1117 C1116 1.392 . S
C1117 H1129 0.929 . S
C1118 C1114 1.531 . S
C1118 H1130 0.960 . S
C1118 H1131 0.962 . S
C1118 H1132 0.960 . S
C1119 C1116 1.511 . S
C1119 H1133 0.961 . S
C1119 H1134 0.961 . S
C1119 H1135 0.961 . S
C1120 C1121 1.370 . S
C1120 C1122 1.363 . S
C1120 H1136 0.931 . S
C1121 C1120 1.370 . S
C1121 C1125 1.408 1_655 S
C1122 C1120 1.363 . S
C1122 C1123 1.370 1_655 S
C1122 C1126 1.524 . S
C1123 C1115 1.503 . S
C1123 C1122 1.370 1_455 S
C1123 C1124 1.403 . S
C1124 C1123 1.403 . S
C1124 C1125 1.404 . S
C1124 C1127 1.539 . S
C1125 C1121 1.408 1_455 S
C1125 C1124 1.404 . S
C1125 H1137 0.930 . S
C1126 C1122 1.524 . S
C1126 H1138 0.956 . S
C1126 H1139 0.961 . S
C1126 H1140 0.961 . S
C1127 C1124 1.539 . S
C1127 H1141 0.958 . S
C1127 H1142 0.961 . S
C1127 H1143 0.960 . S
H1128 C1112 0.931 . S
H1129 C1117 0.929 . S
H1130 C1118 0.960 . S
H1131 C1118 0.962 . S
H1132 C1118 0.960 . S
H1133 C1119 0.961 . S
H1134 C1119 0.961 . S
H1135 C1119 0.961 . S
H1136 C1120 0.931 . S
H1137 C1125 0.930 . S
H1138 C1126 0.956 . S
H1139 C1126 0.961 . S
H1140 C1126 0.961 . S
H1141 C1127 0.958 . S
H1142 C1127 0.961 . S
H1143 C1127 0.960 . S
C1144 C1145 1.391 . S
C1144 C1146 1.394 . S
C1144 H1160 0.931 . S
C1145 C1144 1.391 . S
C1145 C1149 1.376 . S
C1146 C1144 1.394 . S
C1146 C1147 1.369 . S
C1146 C1150 1.531 . S
C1147 C1146 1.369 . S
C1147 C1148 1.410 . S
C1147 C1155 1.503 . S
C1148 C1147 1.410 . S
C1148 C1149 1.392 . S
C1148 C1151 1.511 . S
C1149 C1145 1.376 . S
C1149 C1148 1.392 . S
C1149 H1161 0.929 . S
C1150 C1146 1.531 . S
C1150 H1162 0.960 . S
C1150 H1163 0.962 . S
C1150 H1164 0.960 . S
C1151 C1148 1.511 . S
C1151 H1165 0.961 . S
C1151 H1166 0.961 . S
C1151 H1167 0.961 . S
C1152 C1153 1.370 . S
C1152 C1154 1.363 . S
C1152 H1168 0.931 . S
C1153 C1152 1.370 . S
C1153 C1157 1.408 . S
C1154 C1152 1.363 . S
C1154 C1155 1.370 . S
C1154 C1158 1.524 . S
C1155 C1147 1.503 . S
C1155 C1154 1.370 . S
C1155 C1156 1.403 . S
C1156 C1155 1.403 . S
C1156 C1157 1.404 . S
C1156 C1159 1.539 . S
C1157 C1153 1.408 . S
C1157 C1156 1.404 . S
C1157 H1169 0.930 . S
C1158 C1154 1.524 . S
C1158 H1170 0.956 . S
C1158 H1171 0.961 . S
C1158 H1172 0.961 . S
C1159 C1156 1.539 . S
C1159 H1173 0.958 . S
C1159 H1174 0.961 . S
C1159 H1175 0.960 . S
H1160 C1144 0.931 . S
H1161 C1149 0.929 . S
H1162 C1150 0.960 . S
H1163 C1150 0.962 . S
H1164 C1150 0.960 . S
H1165 C1151 0.961 . S
H1166 C1151 0.961 . S
H1167 C1151 0.961 . S
H1168 C1152 0.931 . S
H1169 C1157 0.930 . S
H1170 C1158 0.956 . S
H1171 C1158 0.961 . S
H1172 C1158 0.961 . S
H1173 C1159 0.958 . S
H1174 C1159 0.961 . S
H1175 C1159 0.960 . S
C1176 C1177 1.391 . S
C1176 C1178 1.394 . S
C1176 H1192 0.931 . S
C1177 C1176 1.391 . S
C1177 C1181 1.376 . S
C1178 C1176 1.394 . S
C1178 C1179 1.369 . S
C1178 C1182 1.531 . S
C1179 C1178 1.369 . S
C1179 C1180 1.410 . S
C1179 C1187 1.503 . S
C1180 C1179 1.410 . S
C1180 C1181 1.392 . S
C1180 C1183 1.511 . S
C1181 C1177 1.376 . S
C1181 C1180 1.392 . S
C1181 H1193 0.929 . S
C1182 C1178 1.531 . S
C1182 H1194 0.960 . S
C1182 H1195 0.962 . S
C1182 H1196 0.960 . S
C1183 C1180 1.511 . S
C1183 H1197 0.961 . S
C1183 H1198 0.982 . S
C1183 H1199 0.961 1_655 S
C1184 C1185 1.370 1_655 S
C1184 C1186 1.363 . S
C1184 H1200 0.931 . S
C1185 C1184 1.370 1_455 S
C1185 C1189 1.408 . S
C1186 C1184 1.363 . S
C1186 C1187 1.370 . S
C1186 C1190 1.524 . S
C1187 C1179 1.503 . S
C1187 C1186 1.370 . S
C1187 C1188 1.403 1_655 S
C1188 C1187 1.403 1_455 S
C1188 C1189 1.404 . S
C1188 C1191 1.539 . S
C1189 C1185 1.408 . S
C1189 C1188 1.404 . S
C1189 H1201 0.930 . S
C1190 C1186 1.524 . S
C1190 H1202 0.956 . S
C1190 H1203 0.961 . S
C1190 H1204 0.961 . S
C1191 C1188 1.539 . S
C1191 H1205 0.958 . S
C1191 H1206 0.961 . S
C1191 H1207 0.960 . S
H1192 C1176 0.931 . S
H1193 C1181 0.929 . S
H1194 C1182 0.960 . S
H1195 C1182 0.962 . S
H1196 C1182 0.960 . S
H1197 C1183 0.961 . S
H1198 C1183 0.982 . S
H1199 C1183 0.961 1_455 S
H1200 C1184 0.931 . S
H1201 C1189 0.930 . S
H1202 C1190 0.956 . S
H1203 C1190 0.961 . S
H1204 C1190 0.961 . S
H1205 C1191 0.958 . S
H1206 C1191 0.961 . S
H1207 C1191 0.960 . S
C1208 C1209 1.391 . S
C1208 C1210 1.394 . S
C1208 H1224 0.931 . S
C1209 C1208 1.391 . S
C1209 C1213 1.376 . S
C1210 C1208 1.394 . S
C1210 C1211 1.369 . S
C1210 C1214 1.531 . S
C1211 C1210 1.369 . S
C1211 C1212 1.410 . S
C1211 C1219 1.503 . S
C1212 C1211 1.410 . S
C1212 C1213 1.392 . S
C1212 C1215 1.511 . S
C1213 C1209 1.376 . S
C1213 C1212 1.392 . S
C1213 H1225 0.929 . S
C1214 C1210 1.531 . S
C1214 H1226 0.960 . S
C1214 H1227 0.962 . S
C1214 H1228 0.960 . S
C1215 C1212 1.511 . S
C1215 H1229 0.961 . S
C1215 H1230 0.961 . S
C1215 H1231 0.961 . S
C1216 C1217 1.370 . S
C1216 C1218 1.363 . S
C1216 H1232 0.931 . S
C1217 C1216 1.370 . S
C1217 C1221 1.408 . S
C1218 C1216 1.363 . S
C1218 C1219 1.370 . S
C1218 C1222 1.524 . S
C1219 C1211 1.503 . S
C1219 C1218 1.370 . S
C1219 C1220 1.403 . S
C1220 C1219 1.403 . S
C1220 C1221 1.404 . S
C1220 C1223 1.539 . S
C1221 C1217 1.408 . S
C1221 C1220 1.404 . S
C1221 H1233 0.930 . S
C1222 C1218 1.524 . S
C1222 H1234 0.956 . S
C1222 H1235 0.961 . S
C1222 H1236 0.961 . S
C1223 C1220 1.539 . S
C1223 H1237 0.958 . S
C1223 H1238 0.961 . S
C1223 H1239 0.960 . S
H1224 C1208 0.931 . S
H1225 C1213 0.929 . S
H1226 C1214 0.960 . S
H1227 C1214 0.962 . S
H1228 C1214 0.960 . S
H1229 C1215 0.961 . S
H1230 C1215 0.961 . S
H1231 C1215 0.961 . S
H1232 C1216 0.931 . S
H1233 C1221 0.930 . S
H1234 C1222 0.956 . S
H1235 C1222 0.961 . S
H1236 C1222 0.961 . S
H1237 C1223 0.958 . S
H1238 C1223 0.961 . S
H1239 C1223 0.960 . S
C1240 C1241 1.391 . S
C1240 C1242 1.394 . S
C1240 H1256 0.931 . S
C1241 C1240 1.391 . S
C1241 C1245 1.376 . S
C1242 C1240 1.394 . S
C1242 C1243 1.369 . S
C1242 C1246 1.531 . S
C1243 C1242 1.369 . S
C1243 C1244 1.410 . S
C1243 C1251 1.503 . S
C1244 C1243 1.410 . S
C1244 C1245 1.392 . S
C1244 C1247 1.511 . S
C1245 C1241 1.376 . S
C1245 C1244 1.392 . S
C1245 H1257 0.929 . S
C1246 C1242 1.531 . S
C1246 H1258 0.960 . S
C1246 H1259 0.962 . S
C1246 H1260 0.960 . S
C1247 C1244 1.511 . S
C1247 H1261 0.961 . S
C1247 H1262 0.961 . S
C1247 H1263 0.961 . S
C1248 C1249 1.370 . S
C1248 C1250 1.363 . S
C1248 H1264 0.931 . S
C1249 C1248 1.370 . S
C1249 C1253 1.408 1_565 S
C1250 C1248 1.363 . S
C1250 C1251 1.370 1_565 S
C1250 C1254 1.524 . S
C1251 C1243 1.503 . S
C1251 C1250 1.370 1_545 S
C1251 C1252 1.403 . S
C1252 C1251 1.403 . S
C1252 C1253 1.404 . S
C1252 C1255 1.539 . S
C1253 C1249 1.408 1_545 S
C1253 C1252 1.404 . S
C1253 H1265 0.930 . S
C1254 C1250 1.524 . S
C1254 H1266 0.956 . S
C1254 H1267 0.961 . S
C1254 H1268 0.961 . S
C1255 C1252 1.539 . S
C1255 H1269 0.958 . S
C1255 H1270 0.961 . S
C1255 H1271 0.960 . S
H1256 C1240 0.931 . S
H1257 C1245 0.929 . S
H1258 C1246 0.960 . S
H1259 C1246 0.962 . S
H1260 C1246 0.960 . S
H1261 C1247 0.961 . S
H1262 C1247 0.961 . S
H1263 C1247 0.961 . S
H1264 C1248 0.931 . S
H1265 C1253 0.930 . S
H1266 C1254 0.956 . S
H1267 C1254 0.961 . S
H1268 C1254 0.961 . S
H1269 C1255 0.958 . S
H1270 C1255 0.961 . S
H1271 C1255 0.960 . S
C1272 C1273 1.391 1_545 S
C1272 C1274 1.394 . S
C1272 H1288 0.931 . S
C1273 C1272 1.391 1_565 S
C1273 C1277 1.376 . S
C1274 C1272 1.394 . S
C1274 C1275 1.369 . S
C1274 C1278 1.531 . S
C1275 C1274 1.369 . S
C1275 C1276 1.410 1_545 S
C1275 C1283 1.503 . S
C1276 C1275 1.410 1_565 S
C1276 C1277 1.392 . S
C1276 C1279 1.511 . S
C1277 C1273 1.376 . S
C1277 C1276 1.392 . S
C1277 H1289 0.929 . S
C1278 C1274 1.531 . S
C1278 H1290 0.960 . S
C1278 H1291 0.962 . S
C1278 H1292 0.960 . S
C1279 C1276 1.511 . S
C1279 H1293 0.961 . S
C1279 H1294 0.961 . S
C1279 H1295 0.961 . S
C1280 C1281 1.370 . S
C1280 C1282 1.363 . S
C1280 H1296 0.931 . S
C1281 C1280 1.370 . S
C1281 C1285 1.408 . S
C1282 C1280 1.363 . S
C1282 C1283 1.370 . S
C1282 C1286 1.524 . S
C1283 C1275 1.503 . S
C1283 C1282 1.370 . S
C1283 C1284 1.403 . S
C1284 C1283 1.403 . S
C1284 C1285 1.404 . S
C1284 C1287 1.539 . S
C1285 C1281 1.408 . S
C1285 C1284 1.404 . S
C1285 H1297 0.930 . S
C1286 C1282 1.524 . S
C1286 H1298 0.956 . S
C1286 H1299 0.978 . S
C1286 H1300 0.961 . S
C1287 C1284 1.539 . S
C1287 H1301 0.958 . S
C1287 H1302 0.961 . S
C1287 H1303 0.960 . S
H1288 C1272 0.931 . S
H1289 C1277 0.929 . S
H1290 C1278 0.960 . S
H1291 C1278 0.962 . S
H1292 C1278 0.960 . S
H1293 C1279 0.961 . S
H1294 C1279 0.961 . S
H1295 C1279 0.961 . S
H1296 C1280 0.931 . S
H1297 C1285 0.930 . S
H1298 C1286 0.956 . S
H1299 C1286 0.978 . S
H1300 C1286 0.961 . S
H1301 C1287 0.958 . S
H1302 C1287 0.961 . S
H1303 C1287 0.960 . S
C1304 C1305 1.391 . S
C1304 C1306 1.394 . S
C1304 H1320 0.931 . S
C1305 C1304 1.391 . S
C1305 C1309 1.376 . S
C1306 C1304 1.394 . S
C1306 C1307 1.369 . S
C1306 C1310 1.531 . S
C1307 C1306 1.369 . S
C1307 C1308 1.410 . S
C1307 C1315 1.503 . S
C1308 C1307 1.410 . S
C1308 C1309 1.392 . S
C1308 C1311 1.511 . S
C1309 C1305 1.376 . S
C1309 C1308 1.392 . S
C1309 H1321 0.929 . S
C1310 C1306 1.531 . S
C1310 H1322 0.960 . S
C1310 H1323 0.962 . S
C1310 H1324 0.960 . S
C1311 C1308 1.511 . S
C1311 H1325 0.961 . S
C1311 H1326 0.961 . S
C1311 H1327 0.961 . S
C1312 C1313 1.370 . S
C1312 C1314 1.363 . S
C1312 H1328 0.931 . S
C1313 C1312 1.370 . S
C1313 C1317 1.408 1_455 S
C1314 C1312 1.363 . S
C1314 C1315 1.370 1_455 S
C1314 C1318 1.524 . S
C1315 C1307 1.503 . S
C1315 C1314 1.370 1_655 S
C1315 C1316 1.403 . S
C1316 C1315 1.403 . S
C1316 C1317 1.404 . S
C1316 C1319 1.539 . S
C1317 C1313 1.408 1_655 S
C1317 C1316 1.404 . S
C1317 H1329 0.930 . S
C1318 C1314 1.524 . S
C1318 H1330 0.956 . S
C1318 H1331 0.961 . S
C1318 H1332 0.961 . S
C1319 C1316 1.539 . S
C1319 H1333 0.958 . S
C1319 H1334 0.961 . S
C1319 H1335 0.960 . S
H1320 C1304 0.931 . S
H1321 C1309 0.929 . S
H1322 C1310 0.960 . S
H1323 C1310 0.962 . S
H1324 C1310 0.960 . S
H1325 C1311 0.961 . S
H1326 C1311 0.961 . S
H1327 C1311 0.961 . S
H1328 C1312 0.931 . S
H1329 C1317 0.930 . S
H1330 C1318 0.956 . S
H1331 C1318 0.961 . S
H1332 C1318 0.961 . S
H1333 C1319 0.958 . S
H1334 C1319 0.961 . S
H1335 C1319 0.960 . S
C1336 C1337 1.391 . S
C1336 C1338 1.394 . S
C1336 H1352 0.931 . S
C1337 C1336 1.391 . S
C1337 C1341 1.376 . S
C1338 C1336 1.394 . S
C1338 C1339 1.369 . S
C1338 C1342 1.531 . S
C1339 C1338 1.369 . S
C1339 C1340 1.410 . S
C1339 C1347 1.503 . S
C1340 C1339 1.410 . S
C1340 C1341 1.392 . S
C1340 C1343 1.511 . S
C1341 C1337 1.376 . S
C1341 C1340 1.392 . S
C1341 H1353 0.929 . S
C1342 C1338 1.531 . S
C1342 H1354 0.960 . S
C1342 H1355 0.962 . S
C1342 H1356 0.960 . S
C1343 C1340 1.511 . S
C1343 H1357 0.961 . S
C1343 H1358 0.961 . S
C1343 H1359 0.961 . S
C1344 C1345 1.370 . S
C1344 C1346 1.363 . S
C1344 H1360 0.931 . S
C1345 C1344 1.370 . S
C1345 C1349 1.408 . S
C1346 C1344 1.363 . S
C1346 C1347 1.370 . S
C1346 C1350 1.524 . S
C1347 C1339 1.503 . S
C1347 C1346 1.370 . S
C1347 C1348 1.403 . S
C1348 C1347 1.403 . S
C1348 C1349 1.404 . S
C1348 C1351 1.539 . S
C1349 C1345 1.408 . S
C1349 C1348 1.404 . S
C1349 H1361 0.930 . S
C1350 C1346 1.524 . S
C1350 H1362 0.956 . S
C1350 H1363 0.961 . S
C1350 H1364 0.961 . S
C1351 C1348 1.539 . S
C1351 H1365 0.958 . S
C1351 H1366 0.961 . S
C1351 H1367 0.960 . S
H1352 C1336 0.931 . S
H1353 C1341 0.929 . S
H1354 C1342 0.960 . S
H1355 C1342 0.962 . S
H1356 C1342 0.960 . S
H1357 C1343 0.961 . S
H1358 C1343 0.961 . S
H1359 C1343 0.961 . S
H1360 C1344 0.931 . S
H1361 C1349 0.930 . S
H1362 C1350 0.956 . S
H1363 C1350 0.961 . S
H1364 C1350 0.961 . S
H1365 C1351 0.958 . S
H1366 C1351 0.961 . S
H1367 C1351 0.960 . S
C1368 C1369 1.391 . S
C1368 C1370 1.394 . S
C1368 H1384 0.931 . S
C1369 C1368 1.391 . S
C1369 C1373 1.376 1_655 S
C1370 C1368 1.394 . S
C1370 C1371 1.369 1_655 S
C1370 C1374 1.531 . S
C1371 C1370 1.369 1_455 S
C1371 C1372 1.410 . S
C1371 C1379 1.503 . S
C1372 C1371 1.410 . S
C1372 C1373 1.392 . S
C1372 C1375 1.511 . S
C1373 C1369 1.376 1_455 S
C1373 C1372 1.392 . S
C1373 H1385 0.929 . S
C1374 C1370 1.531 . S
C1374 H1386 0.960 . S
C1374 H1387 0.962 . S
C1374 H1388 0.960 . S
C1375 C1372 1.511 . S
C1375 H1389 0.961 . S
C1375 H1390 0.961 . S
C1375 H1391 0.961 . S
C1376 C1377 1.370 . S
C1376 C1378 1.363 . S
C1376 H1392 0.931 . S
C1377 C1376 1.370 . S
C1377 C1381 1.408 . S
C1378 C1376 1.363 . S
C1378 C1379 1.370 . S
C1378 C1382 1.524 . S
C1379 C1371 1.503 . S
C1379 C1378 1.370 . S
C1379 C1380 1.403 . S
C1380 C1379 1.403 . S
C1380 C1381 1.404 . S
C1380 C1383 1.539 . S
C1381 C1377 1.408 . S
C1381 C1380 1.404 . S
C1381 H1393 0.930 . S
C1382 C1378 1.524 . S
C1382 H1394 0.956 . S
C1382 H1395 0.961 . S
C1382 H1396 0.961 . S
C1383 C1380 1.539 . S
C1383 H1397 0.958 . S
C1383 H1398 0.961 . S
C1383 H1399 0.960 . S
H1384 C1368 0.931 . S
H1385 C1373 0.929 . S
H1386 C1374 0.960 . S
H1387 C1374 0.962 . S
H1388 C1374 0.960 . S
H1389 C1375 0.961 . S
H1390 C1375 0.961 . S
H1391 C1375 0.961 . S
H1392 C1376 0.931 . S
H1393 C1381 0.930 . S
H1394 C1382 0.956 . S
H1395 C1382 0.961 . S
H1396 C1382 0.961 . S
H1397 C1383 0.958 . S
H1398 C1383 0.961 . S
H1399 C1383 0.960 . S
C1400 C1401 1.391 . S
C1400 C1402 1.394 . S
C1400 H1416 0.931 . S
C1401 C1400 1.391 . S
C1401 C1405 1.376 . S
C1402 C1400 1.394 . S
C1402 C1403 1.369 . S
C1402 C1406 1.531 . S
C1403 C1402 1.369 . S
C1403 C1404 1.410 . S
C1403 C1411 1.503 . S
C1404 C1403 1.410 . S
C1404 C1405 1.392 . S
C1404 C1407 1.511 . S
C1405 C1401 1.376 . S
C1405 C1404 1.392 . S
C1405 H1417 0.929 . S
C1406 C1402 1.531 . S
C1406 H1418 0.960 . S
C1406 H1419 0.962 . S
C1406 H1420 0.960 . S
C1407 C1404 1.511 . S
C1407 H1421 0.961 . S
C1407 H1422 0.961 . S
C1407 H1423 0.961 . S
C1408 C1409 1.370 . S
C1408 C1410 1.363 . S
C1408 H1424 0.931 . S
C1409 C1408 1.370 . S
C1409 C1413 1.408 . S
C1410 C1408 1.363 . S
C1410 C1411 1.370 . S
C1410 C1414 1.524 . S
C1411 C1403 1.503 . S
C1411 C1410 1.370 . S
C1411 C1412 1.403 . S
C1412 C1411 1.403 . S
C1412 C1413 1.404 . S
C1412 C1415 1.539 . S
C1413 C1409 1.408 . S
C1413 C1412 1.404 . S
C1413 H1425 0.930 . S
C1414 C1410 1.524 . S
C1414 H1426 0.956 . S
C1414 H1427 0.961 . S
C1414 H1428 0.961 . S
C1415 C1412 1.539 . S
C1415 H1429 0.958 . S
C1415 H1430 0.961 . S
C1415 H1431 0.960 . S
H1416 C1400 0.931 . S
H1417 C1405 0.929 . S
H1418 C1406 0.960 . S
H1419 C1406 0.962 . S
H1420 C1406 0.960 . S
H1421 C1407 0.961 . S
H1422 C1407 0.961 . S
H1423 C1407 0.961 . S
H1424 C1408 0.931 . S
H1425 C1413 0.930 . S
H1426 C1414 0.956 . S
H1427 C1414 0.961 . S
H1428 C1414 0.961 . S
H1429 C1415 0.958 . S
H1430 C1415 0.961 . S
H1431 C1415 0.960 . S
C1432 C1433 1.391 1_565 S
C1432 C1434 1.394 . S
C1432 H1448 0.931 . S
C1433 C1432 1.391 1_545 S
C1433 C1437 1.376 . S
C1434 C1432 1.394 . S
C1434 C1435 1.369 . S
C1434 C1438 1.531 . S
C1435 C1434 1.369 . S
C1435 C1436 1.410 1_565 S
C1435 C1443 1.503 . S
C1436 C1435 1.410 1_545 S
C1436 C1437 1.392 . S
C1436 C1439 1.511 . S
C1437 C1433 1.376 . S
C1437 C1436 1.392 . S
C1437 H1449 0.929 . S
C1438 C1434 1.531 . S
C1438 H1450 0.960 . S
C1438 H1451 0.962 . S
C1438 H1452 0.960 . S
C1439 C1436 1.511 . S
C1439 H1453 0.961 . S
C1439 H1454 0.961 . S
C1439 H1455 0.961 . S
C1440 C1441 1.370 . S
C1440 C1442 1.363 . S
C1440 H1456 0.931 . S
C1441 C1440 1.370 . S
C1441 C1445 1.408 . S
C1442 C1440 1.363 . S
C1442 C1443 1.370 . S
C1442 C1446 1.524 . S
C1443 C1435 1.503 . S
C1443 C1442 1.370 . S
C1443 C1444 1.403 . S
C1444 C1443 1.403 . S
C1444 C1445 1.404 . S
C1444 C1447 1.539 . S
C1445 C1441 1.408 . S
C1445 C1444 1.404 . S
C1445 H1457 0.930 . S
C1446 C1442 1.524 . S
C1446 H1458 0.956 . S
C1446 H1459 0.961 . S
C1446 H1460 0.961 . S
C1447 C1444 1.539 . S
C1447 H1461 0.958 . S
C1447 H1462 0.961 . S
C1447 H1463 0.960 1_565 S
H1448 C1432 0.931 . S
H1449 C1437 0.929 . S
H1450 C1438 0.960 . S
H1451 C1438 0.962 . S
H1452 C1438 0.960 . S
H1453 C1439 0.961 . S
H1454 C1439 0.961 . S
H1455 C1439 0.961 . S
H1456 C1440 0.931 . S
H1457 C1445 0.930 . S
H1458 C1446 0.956 . S
H1459 C1446 0.961 . S
H1460 C1446 0.961 . S
H1461 C1447 0.958 . S
H1462 C1447 0.961 . S
H1463 C1447 0.960 1_545 S
C1464 C1465 1.391 . S
C1464 C1466 1.394 . S
C1464 H1480 0.931 . S
C1465 C1464 1.391 . S
C1465 C1469 1.376 . S
C1466 C1464 1.394 . S
C1466 C1467 1.369 . S
C1466 C1470 1.531 . S
C1467 C1466 1.369 . S
C1467 C1468 1.410 . S
C1467 C1475 1.503 . S
C1468 C1467 1.410 . S
C1468 C1469 1.392 . S
C1468 C1471 1.511 . S
C1469 C1465 1.376 . S
C1469 C1468 1.392 . S
C1469 H1481 0.929 . S
C1470 C1466 1.531 . S
C1470 H1482 0.960 . S
C1470 H1483 0.962 . S
C1470 H1484 0.960 . S
C1471 C1468 1.511 . S
C1471 H1485 0.961 . S
C1471 H1486 0.961 . S
C1471 H1487 0.961 . S
C1472 C1473 1.370 . S
C1472 C1474 1.363 . S
C1472 H1488 0.931 . S
C1473 C1472 1.370 . S
C1473 C1477 1.408 . S
C1474 C1472 1.363 . S
C1474 C1475 1.370 . S
C1474 C1478 1.524 . S
C1475 C1467 1.503 . S
C1475 C1474 1.370 . S
C1475 C1476 1.403 . S
C1476 C1475 1.403 . S
C1476 C1477 1.404 . S
C1476 C1479 1.539 . S
C1477 C1473 1.408 . S
C1477 C1476 1.404 . S
C1477 H1489 0.930 . S
C1478 C1474 1.524 . S
C1478 H1490 0.956 . S
C1478 H1491 0.961 . S
C1478 H1492 0.961 . S
C1479 C1476 1.539 . S
C1479 H1493 0.958 . S
C1479 H1494 0.961 . S
C1479 H1495 0.960 . S
H1480 C1464 0.931 . S
H1481 C1469 0.929 . S
H1482 C1470 0.960 . S
H1483 C1470 0.962 . S
H1484 C1470 0.960 . S
H1485 C1471 0.961 . S
H1486 C1471 0.961 . S
H1487 C1471 0.961 . S
H1488 C1472 0.931 . S
H1489 C1477 0.930 . S
H1490 C1478 0.956 . S
H1491 C1478 0.961 . S
H1492 C1478 0.961 . S
H1493 C1479 0.958 . S
H1494 C1479 0.961 . S
H1495 C1479 0.960 . S
C1496 C1497 1.391 . S
C1496 C1498 1.394 . S
C1496 H1512 0.931 . S
C1497 C1496 1.391 . S
C1497 C1501 1.376 . S
C1498 C1496 1.394 . S
C1498 C1499 1.369 . S
C1498 C1502 1.531 . S
C1499 C1498 1.369 . S
C1499 C1500 1.410 . S
C1499 C1507 1.503 1_545 S
C1500 C1499 1.410 . S
C1500 C1501 1.392 . S
C1500 C1503 1.511 1_545 S
C1501 C1497 1.376 . S
C1501 C1500 1.392 . S
C1501 H1513 0.929 . S
C1502 C1498 1.531 . S
C1502 H1514 0.960 . S
C1502 H1515 0.962 . S
C1502 H1516 0.960 . S
C1503 C1500 1.511 1_565 S
C1503 H1517 0.961 1_565 S
C1503 H1518 0.961 . S
C1503 H1519 0.961 . S
C1504 C1505 1.370 . S
C1504 C1506 1.363 . S
C1504 H1520 0.931 . S
C1505 C1504 1.370 . S
C1505 C1509 1.408 . S
C1506 C1504 1.363 . S
C1506 C1507 1.370 . S
C1506 C1510 1.524 . S
C1507 C1499 1.503 1_565 S
C1507 C1506 1.370 . S
C1507 C1508 1.403 . S
C1508 C1507 1.403 . S
C1508 C1509 1.404 . S
C1508 C1511 1.539 . S
C1509 C1505 1.408 . S
C1509 C1508 1.404 . S
C1509 H1521 0.930 . S
C1510 C1506 1.524 . S
C1510 H1522 0.956 . S
C1510 H1523 0.961 . S
C1510 H1524 0.961 . S
C1511 C1508 1.539 . S
C1511 H1525 0.965 . S
C1511 H1526 0.961 . S
C1511 H1527 0.960 1_565 S
H1512 C1496 0.931 . S
H1513 C1501 0.929 . S
H1514 C1502 0.960 . S
H1515 C1502 0.962 . S
H1516 C1502 0.960 . S
H1517 C1503 0.961 1_545 S
H1518 C1503 0.961 . S
H1519 C1503 0.961 . S
H1520 C1504 0.931 . S
H1521 C1509 0.930 . S
H1522 C1510 0.956 . S
H1523 C1510 0.961 . S
H1524 C1510 0.961 . S
H1525 C1511 0.965 . S
H1526 C1511 0.961 . S
H1527 C1511 0.960 1_545 S
C1528 C1529 1.391 . S
C1528 C1530 1.394 . S
C1528 H1544 0.931 . S
C1529 C1528 1.391 . S
C1529 C1533 1.376 . S
C1530 C1528 1.394 . S
C1530 C1531 1.369 . S
C1530 C1534 1.531 1_655 S
C1531 C1530 1.369 . S
C1531 C1532 1.410 . S
C1531 C1539 1.503 1_655 S
C1532 C1531 1.410 . S
C1532 C1533 1.392 . S
C1532 C1535 1.511 . S
C1533 C1529 1.376 . S
C1533 C1532 1.392 . S
C1533 H1545 0.929 . S
C1534 C1530 1.531 1_455 S
C1534 H1546 0.960 . S
C1534 H1547 0.962 . S
C1534 H1548 0.960 1_455 S
C1535 C1532 1.511 . S
C1535 H1549 0.961 . S
C1535 H1550 0.961 . S
C1535 H1551 0.961 . S
C1536 C1537 1.370 . S
C1536 C1538 1.363 . S
C1536 H1552 0.931 . S
C1537 C1536 1.370 . S
C1537 C1541 1.408 . S
C1538 C1536 1.363 . S
C1538 C1539 1.370 . S
C1538 C1542 1.524 . S
C1539 C1531 1.503 1_455 S
C1539 C1538 1.370 . S
C1539 C1540 1.403 . S
C1540 C1539 1.403 . S
C1540 C1541 1.404 . S
C1540 C1543 1.539 . S
C1541 C1537 1.408 . S
C1541 C1540 1.404 . S
C1541 H1553 0.930 . S
C1542 C1538 1.524 . S
C1542 H1554 0.956 . S
C1542 H1555 0.974 . S
C1542 H1556 0.961 . S
C1543 C1540 1.539 . S
C1543 H1557 0.958 . S
C1543 H1558 0.961 . S
C1543 H1559 0.960 1_455 S
H1544 C1528 0.931 . S
H1545 C1533 0.929 . S
H1546 C1534 0.960 . S
H1547 C1534 0.962 . S
H1548 C1534 0.960 1_655 S
H1549 C1535 0.961 . S
H1550 C1535 0.961 . S
H1551 C1535 0.961 . S
H1552 C1536 0.931 . S
H1553 C1541 0.930 . S
H1554 C1542 0.956 . S
H1555 C1542 0.974 . S
H1556 C1542 0.961 . S
H1557 C1543 0.958 . S
H1558 C1543 0.961 . S
H1559 C1543 0.960 1_655 S
C1560 C1561 1.391 . S
C1560 C1562 1.394 . S
C1560 H1576 0.931 . S
C1561 C1560 1.391 . S
C1561 C1565 1.376 . S
C1562 C1560 1.394 . S
C1562 C1563 1.369 . S
C1562 C1566 1.531 . S
C1563 C1562 1.369 . S
C1563 C1564 1.410 . S
C1563 C1571 1.503 . S
C1564 C1563 1.410 . S
C1564 C1565 1.392 . S
C1564 C1567 1.511 . S
C1565 C1561 1.376 . S
C1565 C1564 1.392 . S
C1565 H1577 0.929 . S
C1566 C1562 1.531 . S
C1566 H1578 0.960 . S
C1566 H1579 0.962 . S
C1566 H1580 0.960 . S
C1567 C1564 1.511 . S
C1567 H1581 0.961 . S
C1567 H1582 0.961 . S
C1567 H1583 0.961 . S
C1568 C1569 1.370 . S
C1568 C1570 1.363 . S
C1568 H1584 0.931 . S
C1569 C1568 1.370 . S
C1569 C1573 1.408 . S
C1570 C1568 1.363 . S
C1570 C1571 1.370 . S
C1570 C1574 1.524 . S
C1571 C1563 1.503 . S
C1571 C1570 1.370 . S
C1571 C1572 1.403 . S
C1572 C1571 1.403 . S
C1572 C1573 1.404 . S
C1572 C1575 1.539 . S
C1573 C1569 1.408 . S
C1573 C1572 1.404 . S
C1573 H1585 0.930 . S
C1574 C1570 1.524 . S
C1574 H1586 0.956 . S
C1574 H1587 0.961 . S
C1574 H1588 0.961 . S
C1575 C1572 1.539 . S
C1575 H1589 0.958 . S
C1575 H1590 0.961 . S
C1575 H1591 0.960 . S
H1576 C1560 0.931 . S
H1577 C1565 0.929 . S
H1578 C1566 0.960 . S
H1579 C1566 0.962 . S
H1580 C1566 0.960 . S
H1581 C1567 0.961 . S
H1582 C1567 0.961 . S
H1583 C1567 0.961 . S
H1584 C1568 0.931 . S
H1585 C1573 0.930 . S
H1586 C1574 0.956 . S
H1587 C1574 0.961 . S
H1588 C1574 0.961 . S
H1589 C1575 0.958 . S
H1590 C1575 0.961 . S
H1591 C1575 0.960 . S
C1592 C1593 1.391 . S
C1592 C1594 1.394 . S
C1592 H1608 0.931 . S
C1593 C1592 1.391 . S
C1593 C1597 1.376 . S
C1594 C1592 1.394 . S
C1594 C1595 1.369 . S
C1594 C1598 1.531 . S
C1595 C1594 1.369 . S
C1595 C1596 1.410 . S
C1595 C1603 1.503 1_565 S
C1596 C1595 1.410 . S
C1596 C1597 1.392 . S
C1596 C1599 1.511 . S
C1597 C1593 1.376 . S
C1597 C1596 1.392 . S
C1597 H1609 0.929 . S
C1598 C1594 1.531 . S
C1598 H1610 0.960 . S
C1598 H1611 0.962 . S
C1598 H1612 0.960 . S
C1599 C1596 1.511 . S
C1599 H1613 0.961 . S
C1599 H1614 0.961 1_565 S
C1599 H1615 0.961 . S
C1600 C1601 1.370 . S
C1600 C1602 1.363 . S
C1600 H1616 0.931 . S
C1601 C1600 1.370 . S
C1601 C1605 1.408 . S
C1602 C1600 1.363 . S
C1602 C1603 1.370 . S
C1602 C1606 1.524 . S
C1603 C1595 1.503 1_545 S
C1603 C1602 1.370 . S
C1603 C1604 1.403 . S
C1604 C1603 1.403 . S
C1604 C1605 1.404 . S
C1604 C1607 1.549 . S
C1605 C1601 1.408 . S
C1605 C1604 1.404 . S
C1605 H1617 0.930 . S
C1606 C1602 1.524 . S
C1606 H1618 0.956 . S
C1606 H1619 0.961 . S
C1606 H1620 0.961 . S
C1607 C1604 1.549 . S
C1607 H1621 0.938 1_545 S
C1607 H1622 0.987 . S
C1607 H1623 0.945 1_545 S
H1608 C1592 0.931 . S
H1609 C1597 0.929 . S
H1610 C1598 0.960 . S
H1611 C1598 0.962 . S
H1612 C1598 0.960 . S
H1613 C1599 0.961 . S
H1614 C1599 0.961 1_545 S
H1615 C1599 0.961 . S
H1616 C1600 0.931 . S
H1617 C1605 0.930 . S
H1618 C1606 0.956 . S
H1619 C1606 0.961 . S
H1620 C1606 0.961 . S
H1621 C1607 0.938 1_565 S
H1622 C1607 0.987 . S
H1623 C1607 0.945 1_565 S
C1624 C1625 1.391 . S
C1624 C1626 1.394 . S
C1624 H1640 0.931 . S
C1625 C1624 1.391 . S
C1625 C1629 1.376 . S
C1626 C1624 1.394 . S
C1626 C1627 1.369 . S
C1626 C1630 1.531 1_655 S
C1627 C1626 1.369 . S
C1627 C1628 1.410 . S
C1627 C1635 1.503 1_655 S
C1628 C1627 1.410 . S
C1628 C1629 1.392 . S
C1628 C1631 1.511 . S
C1629 C1625 1.376 . S
C1629 C1628 1.392 . S
C1629 H1641 0.929 . S
C1630 C1626 1.531 1_455 S
C1630 H1642 0.960 . S
C1630 H1643 0.962 . S
C1630 H1644 0.960 1_455 S
C1631 C1628 1.511 . S
C1631 H1645 0.961 . S
C1631 H1646 0.961 . S
C1631 H1647 0.961 . S
C1632 C1633 1.370 . S
C1632 C1634 1.363 . S
C1632 H1648 0.931 . S
C1633 C1632 1.370 . S
C1633 C1637 1.408 . S
C1634 C1632 1.363 . S
C1634 C1635 1.370 . S
C1634 C1638 1.524 . S
C1635 C1627 1.503 1_455 S
C1635 C1634 1.370 . S
C1635 C1636 1.403 . S
C1636 C1635 1.403 . S
C1636 C1637 1.404 . S
C1636 C1639 1.539 . S
C1637 C1633 1.408 . S
C1637 C1636 1.404 . S
C1637 H1649 0.930 . S
C1638 C1634 1.524 . S
C1638 H1650 0.956 . S
C1638 H1651 0.961 1_455 S
C1638 H1652 0.961 . S
C1639 C1636 1.539 . S
C1639 H1653 0.958 . S
C1639 H1654 0.961 . S
C1639 H1655 0.960 . S
H1640 C1624 0.931 . S
H1641 C1629 0.929 . S
H1642 C1630 0.960 . S
H1643 C1630 0.962 . S
H1644 C1630 0.960 1_655 S
H1645 C1631 0.961 . S
H1646 C1631 0.961 . S
H1647 C1631 0.961 . S
H1648 C1632 0.931 . S
H1649 C1637 0.930 . S
H1650 C1638 0.956 . S
H1651 C1638 0.961 1_655 S
H1652 C1638 0.961 . S
H1653 C1639 0.958 . S
H1654 C1639 0.961 . S
H1655 C1639 0.960 . S
C1656 C1657 1.391 . S
C1656 C1658 1.394 . S
C1656 H1672 0.931 . S
C1657 C1656 1.391 . S
C1657 C1661 1.376 . S
C1658 C1656 1.394 . S
C1658 C1659 1.369 . S
C1658 C1662 1.531 . S
C1659 C1658 1.369 . S
C1659 C1660 1.410 . S
C1659 C1667 1.503 . S
C1660 C1659 1.410 . S
C1660 C1661 1.392 . S
C1660 C1663 1.511 . S
C1661 C1657 1.376 . S
C1661 C1660 1.392 . S
C1661 H1673 0.929 . S
C1662 C1658 1.531 . S
C1662 H1674 0.960 . S
C1662 H1675 0.962 . S
C1662 H1676 0.960 . S
C1663 C1660 1.511 . S
C1663 H1677 0.961 . S
C1663 H1678 0.961 . S
C1663 H1679 0.961 . S
C1664 C1665 1.370 . S
C1664 C1666 1.363 . S
C1664 H1680 0.931 . S
C1665 C1664 1.370 . S
C1665 C1669 1.408 . S
C1666 C1664 1.363 . S
C1666 C1667 1.370 . S
C1666 C1670 1.524 . S
C1667 C1659 1.503 . S
C1667 C1666 1.370 . S
C1667 C1668 1.403 . S
C1668 C1667 1.403 . S
C1668 C1669 1.404 . S
C1668 C1671 1.539 . S
C1669 C1665 1.408 . S
C1669 C1668 1.404 . S
C1669 H1681 0.930 . S
C1670 C1666 1.524 . S
C1670 H1682 0.956 . S
C1670 H1683 0.961 . S
C1670 H1684 0.961 . S
C1671 C1668 1.539 . S
C1671 H1685 0.958 . S
C1671 H1686 0.961 . S
C1671 H1687 0.960 . S
H1672 C1656 0.931 . S
H1673 C1661 0.929 . S
H1674 C1662 0.960 . S
H1675 C1662 0.962 . S
H1676 C1662 0.960 . S
H1677 C1663 0.961 . S
H1678 C1663 0.961 . S
H1679 C1663 0.961 . S
H1680 C1664 0.931 . S
H1681 C1669 0.930 . S
H1682 C1670 0.956 . S
H1683 C1670 0.961 . S
H1684 C1670 0.961 . S
H1685 C1671 0.958 . S
H1686 C1671 0.961 . S
H1687 C1671 0.960 . S
C1688 C1689 1.391 . S
C1688 C1690 1.394 . S
C1688 H1704 0.931 . S
C1689 C1688 1.391 . S
C1689 C1693 1.376 . S
C1690 C1688 1.394 . S
C1690 C1691 1.369 1_545 S
C1690 C1694 1.531 . S
C1691 C1690 1.369 1_565 S
C1691 C1692 1.410 . S
C1691 C1699 1.503 . S
C1692 C1691 1.410 . S
C1692 C1693 1.392 1_565 S
C1692 C1695 1.511 . S
C1693 C1689 1.376 . S
C1693 C1692 1.392 1_545 S
C1693 H1705 0.929 . S
C1694 C1690 1.531 . S
C1694 H1706 0.960 1_545 S
C1694 H1707 0.962 1_545 S
C1694 H1708 0.960 . S
C1695 C1692 1.511 . S
C1695 H1709 0.961 . S
C1695 H1710 0.961 . S
C1695 H1711 0.961 . S
C1696 C1697 1.370 . S
C1696 C1698 1.363 . S
C1696 H1712 0.931 . S
C1697 C1696 1.370 . S
C1697 C1701 1.408 . S
C1698 C1696 1.363 . S
C1698 C1699 1.370 . S
C1698 C1702 1.524 . S
C1699 C1691 1.503 . S
C1699 C1698 1.370 . S
C1699 C1700 1.403 . S
C1700 C1699 1.403 . S
C1700 C1701 1.404 . S
C1700 C1703 1.539 . S
C1701 C1697 1.408 . S
C1701 C1700 1.404 . S
C1701 H1713 0.930 . S
C1702 C1698 1.524 . S
C1702 H1714 0.956 . S
C1702 H1715 0.961 . S
C1702 H1716 0.961 . S
C1703 C1700 1.539 . S
C1703 H1717 0.958 . S
C1703 H1718 0.961 . S
C1703 H1719 0.960 . S
H1704 C1688 0.931 . S
H1705 C1693 0.929 . S
H1706 C1694 0.960 1_565 S
H1707 C1694 0.962 1_565 S
H1708 C1694 0.960 . S
H1709 C1695 0.961 . S
H1710 C1695 0.961 . S
H1711 C1695 0.961 . S
H1712 C1696 0.931 . S
H1713 C1701 0.930 . S
H1714 C1702 0.956 . S
H1715 C1702 0.961 . S
H1716 C1702 0.961 . S
H1717 C1703 0.958 . S
H1718 C1703 0.961 . S
H1719 C1703 0.960 . S
C1720 C1721 1.391 . S
C1720 C1722 1.394 . S
C1720 H1736 0.931 . S
C1721 C1720 1.391 . S
C1721 C1725 1.376 . S
C1722 C1720 1.394 . S
C1722 C1723 1.369 1_655 S
C1722 C1726 1.529 . S
C1723 C1722 1.369 1_455 S
C1723 C1724 1.410 . S
C1723 C1731 1.503 . S
C1724 C1723 1.410 . S
C1724 C1725 1.392 1_455 S
C1724 C1727 1.511 . S
C1725 C1721 1.376 . S
C1725 C1724 1.392 1_655 S
C1725 H1737 0.929 . S
C1726 C1722 1.529 . S
C1726 H1738 0.938 1_655 S
C1726 H1739 0.974 . S
C1726 H1740 0.972 . S
C1727 C1724 1.511 . S
C1727 H1741 0.961 . S
C1727 H1742 0.961 . S
C1727 H1743 0.961 . S
C1728 C1729 1.370 . S
C1728 C1730 1.363 . S
C1728 H1744 0.931 . S
C1729 C1728 1.370 . S
C1729 C1733 1.408 . S
C1730 C1728 1.363 . S
C1730 C1731 1.370 . S
C1730 C1734 1.524 . S
C1731 C1723 1.503 . S
C1731 C1730 1.370 . S
C1731 C1732 1.403 . S
C1732 C1731 1.403 . S
C1732 C1733 1.404 . S
C1732 C1735 1.539 . S
C1733 C1729 1.408 . S
C1733 C1732 1.404 . S
C1733 H1745 0.930 . S
C1734 C1730 1.524 . S
C1734 H1746 0.956 . S
C1734 H1747 0.961 . S
C1734 H1748 0.961 . S
C1735 C1732 1.539 . S
C1735 H1749 0.958 . S
C1735 H1750 0.961 . S
C1735 H1751 0.960 . S
H1736 C1720 0.931 . S
H1737 C1725 0.929 . S
H1738 C1726 0.938 1_455 S
H1739 C1726 0.974 . S
H1740 C1726 0.972 . S
H1741 C1727 0.961 . S
H1742 C1727 0.961 . S
H1743 C1727 0.961 . S
H1744 C1728 0.931 . S
H1745 C1733 0.930 . S
H1746 C1734 0.956 . S
H1747 C1734 0.961 . S
H1748 C1734 0.961 . S
H1749 C1735 0.958 . S
H1750 C1735 0.961 . S
H1751 C1735 0.960 . S
C1752 C1753 1.391 . S
C1752 C1754 1.394 . S
C1752 H1768 0.931 . S
C1753 C1752 1.391 . S
C1753 C1757 1.376 . S
C1754 C1752 1.394 . S
C1754 C1755 1.369 . S
C1754 C1758 1.531 . S
C1755 C1754 1.369 . S
C1755 C1756 1.410 . S
C1755 C1763 1.503 . S
C1756 C1755 1.410 . S
C1756 C1757 1.392 . S
C1756 C1759 1.511 . S
C1757 C1753 1.376 . S
C1757 C1756 1.392 . S
C1757 H1769 0.929 . S
C1758 C1754 1.531 . S
C1758 H1770 0.960 . S
C1758 H1771 0.962 . S
C1758 H1772 0.960 . S
C1759 C1756 1.511 . S
C1759 H1773 0.961 . S
C1759 H1774 0.961 . S
C1759 H1775 0.961 . S
C1760 C1761 1.370 . S
C1760 C1762 1.363 . S
C1760 H1776 0.931 . S
C1761 C1760 1.370 . S
C1761 C1765 1.408 . S
C1762 C1760 1.363 . S
C1762 C1763 1.370 . S
C1762 C1766 1.524 . S
C1763 C1755 1.503 . S
C1763 C1762 1.370 . S
C1763 C1764 1.403 . S
C1764 C1763 1.403 . S
C1764 C1765 1.404 . S
C1764 C1767 1.539 . S
C1765 C1761 1.408 . S
C1765 C1764 1.404 . S
C1765 H1777 0.930 . S
C1766 C1762 1.524 . S
C1766 H1778 0.956 . S
C1766 H1779 0.961 . S
C1766 H1780 0.961 . S
C1767 C1764 1.539 . S
C1767 H1781 0.958 . S
C1767 H1782 0.961 . S
C1767 H1783 0.960 . S
H1768 C1752 0.931 . S
H1769 C1757 0.929 . S
H1770 C1758 0.960 . S
H1771 C1758 0.962 . S
H1772 C1758 0.960 . S
H1773 C1759 0.961 . S
H1774 C1759 0.961 . S
H1775 C1759 0.961 . S
H1776 C1760 0.931 . S
H1777 C1765 0.930 . S
H1778 C1766 0.956 . S
H1779 C1766 0.961 . S
H1780 C1766 0.961 . S
H1781 C1767 0.958 . S
H1782 C1767 0.961 . S
H1783 C1767 0.960 . S
C1784 C1785 1.391 . S
C1784 C1786 1.394 . S
C1784 H1800 0.931 . S
C1785 C1784 1.391 . S
C1785 C1789 1.376 . S
C1786 C1784 1.394 . S
C1786 C1787 1.369 . S
C1786 C1790 1.531 . S
C1787 C1786 1.369 . S
C1787 C1788 1.410 . S
C1787 C1795 1.503 . S
C1788 C1787 1.410 . S
C1788 C1789 1.392 . S
C1788 C1791 1.511 . S
C1789 C1785 1.376 . S
C1789 C1788 1.392 . S
C1789 H1801 0.929 1_655 S
C1790 C1786 1.531 . S
C1790 H1802 0.960 . S
C1790 H1803 0.962 . S
C1790 H1804 0.960 . S
C1791 C1788 1.511 . S
C1791 H1805 0.961 . S
C1791 H1806 0.961 . S
C1791 H1807 0.961 . S
C1792 C1793 1.370 . S
C1792 C1794 1.363 1_565 S
C1792 H1808 0.931 . S
C1793 C1792 1.370 . S
C1793 C1797 1.408 . S
C1794 C1792 1.363 1_545 S
C1794 C1795 1.370 . S
C1794 C1798 1.524 . S
C1795 C1787 1.503 . S
C1795 C1794 1.370 . S
C1795 C1796 1.403 1_545 S
C1796 C1795 1.403 1_565 S
C1796 C1797 1.404 . S
C1796 C1799 1.539 1_565 S
C1797 C1793 1.408 . S
C1797 C1796 1.404 . S
C1797 H1809 0.930 . S
C1798 C1794 1.524 . S
C1798 H1810 0.956 . S
C1798 H1811 0.961 . S
C1798 H1812 0.961 . S
C1799 C1796 1.539 1_545 S
C1799 H1813 0.958 . S
C1799 H1814 0.961 1_545 S
C1799 H1815 0.960 . S
H1800 C1784 0.931 . S
H1801 C1789 0.929 1_455 S
H1802 C1790 0.960 . S
H1803 C1790 0.962 . S
H1804 C1790 0.960 . S
H1805 C1791 0.961 . S
H1806 C1791 0.961 . S
H1807 C1791 0.961 . S
H1808 C1792 0.931 . S
H1809 C1797 0.930 . S
H1810 C1798 0.956 . S
H1811 C1798 0.961 . S
H1812 C1798 0.961 . S
H1813 C1799 0.958 . S
H1814 C1799 0.961 1_565 S
H1815 C1799 0.960 . S
C1816 C1817 1.391 . S
C1816 C1818 1.394 . S
C1816 H1832 0.931 . S
C1817 C1816 1.391 . S
C1817 C1821 1.376 . S
C1818 C1816 1.394 . S
C1818 C1819 1.369 1_455 S
C1818 C1822 1.531 1_455 S
C1819 C1818 1.369 1_655 S
C1819 C1820 1.410 . S
C1819 C1827 1.503 . S
C1820 C1819 1.410 . S
C1820 C1821 1.392 1_655 S
C1820 C1823 1.511 . S
C1821 C1817 1.376 . S
C1821 C1820 1.392 1_455 S
C1821 H1833 0.929 . S
C1822 C1818 1.531 1_655 S
C1822 H1834 0.960 . S
C1822 H1835 0.960 1_655 S
C1822 H1836 0.960 1_655 S
C1823 C1820 1.511 . S
C1823 H1837 0.961 . S
C1823 H1838 0.961 . S
C1823 H1839 0.961 . S
C1824 C1825 1.370 . S
C1824 C1826 1.363 . S
C1824 H1840 0.931 . S
C1825 C1824 1.370 . S
C1825 C1829 1.408 . S
C1826 C1824 1.363 . S
C1826 C1827 1.370 . S
C1826 C1830 1.524 . S
C1827 C1819 1.503 . S
C1827 C1826 1.370 . S
C1827 C1828 1.403 . S
C1828 C1827 1.403 . S
C1828 C1829 1.404 . S
C1828 C1831 1.539 . S
C1829 C1825 1.408 . S
C1829 C1828 1.404 . S
C1829 H1841 0.930 . S
C1830 C1826 1.524 . S
C1830 H1842 0.956 . S
C1830 H1843 0.961 . S
C1830 H1844 0.961 . S
C1831 C1828 1.539 . S
C1831 H1845 0.958 . S
C1831 H1846 0.961 . S
C1831 H1847 0.960 . S
H1832 C1816 0.931 . S
H1833 C1821 0.929 . S
H1834 C1822 0.960 . S
H1835 C1822 0.960 1_455 S
H1836 C1822 0.960 1_455 S
H1837 C1823 0.961 . S
H1838 C1823 0.961 . S
H1839 C1823 0.961 . S
H1840 C1824 0.931 . S
H1841 C1829 0.930 . S
H1842 C1830 0.956 . S
H1843 C1830 0.961 . S
H1844 C1830 0.961 . S
H1845 C1831 0.958 . S
H1846 C1831 0.961 . S
H1847 C1831 0.960 . S
C1848 C1849 1.391 . S
C1848 C1850 1.394 . S
C1848 H1864 0.931 . S
C1849 C1848 1.391 . S
C1849 C1853 1.376 . S
C1850 C1848 1.394 . S
C1850 C1851 1.369 . S
C1850 C1854 1.531 . S
C1851 C1850 1.369 . S
C1851 C1852 1.410 . S
C1851 C1859 1.503 . S
C1852 C1851 1.410 . S
C1852 C1853 1.392 . S
C1852 C1855 1.511 . S
C1853 C1849 1.376 . S
C1853 C1852 1.392 . S
C1853 H1865 0.929 . S
C1854 C1850 1.531 . S
C1854 H1866 0.960 . S
C1854 H1867 0.962 . S
C1854 H1868 0.960 . S
C1855 C1852 1.511 . S
C1855 H1869 0.961 . S
C1855 H1870 0.961 . S
C1855 H1871 0.961 . S
C1856 C1857 1.370 . S
C1856 C1858 1.363 . S
C1856 H1872 0.931 . S
C1857 C1856 1.370 . S
C1857 C1861 1.408 . S
C1858 C1856 1.363 . S
C1858 C1859 1.370 . S
C1858 C1862 1.524 . S
C1859 C1851 1.503 . S
C1859 C1858 1.370 . S
C1859 C1860 1.403 . S
C1860 C1859 1.403 . S
C1860 C1861 1.404 . S
C1860 C1863 1.539 . S
C1861 C1857 1.408 . S
C1861 C1860 1.404 . S
C1861 H1873 0.930 . S
C1862 C1858 1.524 . S
C1862 H1874 0.956 . S
C1862 H1875 0.961 . S
C1862 H1876 0.961 . S
C1863 C1860 1.539 . S
C1863 H1877 0.958 . S
C1863 H1878 0.961 . S
C1863 H1879 0.960 . S
H1864 C1848 0.931 . S
H1865 C1853 0.929 . S
H1866 C1854 0.960 . S
H1867 C1854 0.962 . S
H1868 C1854 0.960 . S
H1869 C1855 0.961 . S
H1870 C1855 0.961 . S
H1871 C1855 0.961 . S
H1872 C1856 0.931 . S
H1873 C1861 0.930 . S
H1874 C1862 0.956 . S
H1875 C1862 0.961 . S
H1876 C1862 0.961 . S
H1877 C1863 0.958 . S
H1878 C1863 0.961 . S
H1879 C1863 0.960 . S
C1880 C1881 1.391 . S
C1880 C1882 1.394 . S
C1880 H1896 0.931 . S
C1881 C1880 1.391 . S
C1881 C1885 1.376 . S
C1882 C1880 1.394 . S
C1882 C1883 1.369 1_565 S
C1882 C1886 1.546 . S
C1883 C1882 1.369 1_545 S
C1883 C1884 1.410 . S
C1883 C1891 1.503 . S
C1884 C1883 1.410 . S
C1884 C1885 1.392 1_545 S
C1884 C1887 1.511 . S
C1885 C1881 1.376 . S
C1885 C1884 1.392 1_565 S
C1885 H1897 0.929 . S
C1886 C1882 1.546 . S
C1886 H1898 0.942 1_565 S
C1886 H1899 0.958 . S
C1886 H1900 0.968 . S
C1887 C1884 1.511 . S
C1887 H1901 0.961 . S
C1887 H1902 0.961 . S
C1887 H1903 0.961 . S
C1888 C1889 1.370 . S
C1888 C1890 1.363 . S
C1888 H1904 0.931 . S
C1889 C1888 1.370 . S
C1889 C1893 1.408 . S
C1890 C1888 1.363 . S
C1890 C1891 1.370 . S
C1890 C1894 1.524 . S
C1891 C1883 1.503 . S
C1891 C1890 1.370 . S
C1891 C1892 1.403 . S
C1892 C1891 1.403 . S
C1892 C1893 1.404 . S
C1892 C1895 1.539 . S
C1893 C1889 1.408 . S
C1893 C1892 1.404 . S
C1893 H1905 0.930 . S
C1894 C1890 1.524 . S
C1894 H1906 0.956 . S
C1894 H1907 0.961 . S
C1894 H1908 0.961 . S
C1895 C1892 1.539 . S
C1895 H1909 0.958 . S
C1895 H1910 0.961 . S
C1895 H1911 0.960 . S
H1896 C1880 0.931 . S
H1897 C1885 0.929 . S
H1898 C1886 0.942 1_545 S
H1899 C1886 0.958 . S
H1900 C1886 0.968 . S
H1901 C1887 0.961 . S
H1902 C1887 0.961 . S
H1903 C1887 0.961 . S
H1904 C1888 0.931 . S
H1905 C1893 0.930 . S
H1906 C1894 0.956 . S
H1907 C1894 0.961 . S
H1908 C1894 0.961 . S
H1909 C1895 0.958 . S
H1910 C1895 0.961 . S
H1911 C1895 0.960 . S
C1912 C1913 1.391 . S
C1912 C1914 1.374 1_455 S
C1912 H1928 0.931 . S
C1913 C1912 1.391 . S
C1913 C1917 1.376 . S
C1914 C1912 1.374 1_655 S
C1914 C1915 1.382 . S
C1914 C1918 1.538 . S
C1915 C1914 1.382 . S
C1915 C1916 1.410 1_655 S
C1915 C1923 1.503 . S
C1916 C1915 1.410 1_455 S
C1916 C1917 1.392 . S
C1916 C1919 1.511 1_455 S
C1917 C1913 1.376 . S
C1917 C1916 1.392 . S
C1917 H1929 0.929 . S
C1918 C1914 1.538 . S
C1918 H1930 0.960 . S
C1918 H1931 0.962 . S
C1918 H1932 0.960 . S
C1919 C1916 1.511 1_655 S
C1919 H1933 0.961 1_655 S
C1919 H1934 0.961 . S
C1919 H1935 0.961 . S
C1920 C1921 1.370 . S
C1920 C1922 1.363 . S
C1920 H1936 0.931 . S
C1921 C1920 1.370 . S
C1921 C1925 1.408 . S
C1922 C1920 1.363 . S
C1922 C1923 1.370 . S
C1922 C1926 1.524 . S
C1923 C1915 1.503 . S
C1923 C1922 1.370 . S
C1923 C1924 1.403 . S
C1924 C1923 1.403 . S
C1924 C1925 1.404 . S
C1924 C1927 1.539 . S
C1925 C1921 1.408 . S
C1925 C1924 1.404 . S
C1925 H1937 0.930 . S
C1926 C1922 1.524 . S
C1926 H1938 0.956 . S
C1926 H1939 0.961 . S
C1926 H1940 0.961 . S
C1927 C1924 1.539 . S
C1927 H1941 0.958 . S
C1927 H1942 0.961 . S
C1927 H1943 0.960 . S
H1928 C1912 0.931 . S
H1929 C1917 0.929 . S
H1930 C1918 0.960 . S
H1931 C1918 0.962 . S
H1932 C1918 0.960 . S
H1933 C1919 0.961 1_455 S
H1934 C1919 0.961 . S
H1935 C1919 0.961 . S
H1936 C1920 0.931 . S
H1937 C1925 0.930 . S
H1938 C1926 0.956 . S
H1939 C1926 0.961 . S
H1940 C1926 0.961 . S
H1941 C1927 0.958 . S
H1942 C1927 0.961 . S
H1943 C1927 0.960 . S
C1944 C1945 1.391 . S
C1944 C1946 1.394 . S
C1944 H1960 0.931 . S
C1945 C1944 1.391 . S
C1945 C1949 1.376 . S
C1946 C1944 1.394 . S
C1946 C1947 1.369 . S
C1946 C1950 1.531 . S
C1947 C1946 1.369 . S
C1947 C1948 1.410 . S
C1947 C1955 1.503 . S
C1948 C1947 1.410 . S
C1948 C1949 1.392 . S
C1948 C1951 1.511 . S
C1949 C1945 1.376 . S
C1949 C1948 1.392 . S
C1949 H1961 0.929 . S
C1950 C1946 1.531 . S
C1950 H1962 0.960 . S
C1950 H1963 0.962 . S
C1950 H1964 0.960 . S
C1951 C1948 1.511 . S
C1951 H1965 0.961 . S
C1951 H1966 0.961 . S
C1951 H1967 0.961 . S
C1952 C1953 1.370 . S
C1952 C1954 1.363 . S
C1952 H1968 0.931 . S
C1953 C1952 1.370 . S
C1953 C1957 1.408 . S
C1954 C1952 1.363 . S
C1954 C1955 1.370 . S
C1954 C1958 1.524 . S
C1955 C1947 1.503 . S
C1955 C1954 1.370 . S
C1955 C1956 1.403 . S
C1956 C1955 1.403 . S
C1956 C1957 1.404 . S
C1956 C1959 1.539 . S
C1957 C1953 1.408 . S
C1957 C1956 1.404 . S
C1957 H1969 0.930 . S
C1958 C1954 1.524 . S
C1958 H1970 0.956 . S
C1958 H1971 0.961 . S
C1958 H1972 0.961 . S
C1959 C1956 1.539 . S
C1959 H1973 0.958 . S
C1959 H1974 0.961 . S
C1959 H1975 0.960 . S
H1960 C1944 0.931 . S
H1961 C1949 0.929 . S
H1962 C1950 0.960 . S
H1963 C1950 0.962 . S
H1964 C1950 0.960 . S
H1965 C1951 0.961 . S
H1966 C1951 0.961 . S
H1967 C1951 0.961 . S
H1968 C1952 0.931 . S
H1969 C1957 0.930 . S
H1970 C1958 0.956 . S
H1971 C1958 0.961 . S
H1972 C1958 0.961 . S
H1973 C1959 0.958 . S
H1974 C1959 0.961 . S
H1975 C1959 0.960 . S
C1976 C1977 1.391 . S
C1976 C1978 1.394 . S
C1976 H1992 0.931 . S
C1977 C1976 1.391 . S
C1977 C1981 1.376 . S
C1978 C1976 1.394 . S
C1978 C1979 1.369 1_545 S
C1978 C1982 1.531 1_545 S
C1979 C1978 1.369 1_565 S
C1979 C1980 1.410 . S
C1979 C1987 1.503 . S
C1980 C1979 1.410 . S
C1980 C1981 1.392 1_565 S
C1980 C1983 1.511 . S
C1981 C1977 1.376 . S
C1981 C1980 1.392 1_545 S
C1981 H1993 0.929 . S
C1982 C1978 1.531 1_565 S
C1982 H1994 0.960 . S
C1982 H1995 0.962 . S
C1982 H1996 0.960 1_565 S
C1983 C1980 1.511 . S
C1983 H1997 0.961 . S
C1983 H1998 0.961 . S
C1983 H1999 0.961 . S
C1984 C1985 1.370 . S
C1984 C1986 1.363 . S
C1984 H2000 0.931 . S
C1985 C1984 1.370 . S
C1985 C1989 1.408 . S
C1986 C1984 1.363 . S
C1986 C1987 1.370 . S
C1986 C1990 1.524 . S
C1987 C1979 1.503 . S
C1987 C1986 1.370 . S
C1987 C1988 1.403 . S
C1988 C1987 1.403 . S
C1988 C1989 1.404 . S
C1988 C1991 1.539 . S
C1989 C1985 1.408 . S
C1989 C1988 1.404 . S
C1989 H2001 0.930 . S
C1990 C1986 1.524 . S
C1990 H2002 0.956 . S
C1990 H2003 0.961 . S
C1990 H2004 0.961 . S
C1991 C1988 1.539 . S
C1991 H2005 0.958 . S
C1991 H2006 0.961 . S
C1991 H2007 0.960 . S
H1992 C1976 0.931 . S
H1993 C1981 0.929 . S
H1994 C1982 0.960 . S
H1995 C1982 0.962 . S
H1996 C1982 0.960 1_545 S
H1997 C1983 0.961 . S
H1998 C1983 0.961 . S
H1999 C1983 0.961 . S
H2000 C1984 0.931 . S
H2001 C1989 0.930 . S
H2002 C1990 0.956 . S
H2003 C1990 0.961 . S
H2004 C1990 0.961 . S
H2005 C1991 0.958 . S
H2006 C1991 0.961 . S
H2007 C1991 0.960 . S
C2008 C2009 1.391 . S
C2008 C2010 1.394 . S
C2008 H2024 0.931 . S
C2009 C2008 1.391 . S
C2009 C2013 1.376 . S
C2010 C2008 1.394 . S
C2010 C2011 1.369 . S
C2010 C2014 1.531 . S
C2011 C2010 1.369 . S
C2011 C2012 1.410 . S
C2011 C2019 1.503 . S
C2012 C2011 1.410 . S
C2012 C2013 1.392 . S
C2012 C2015 1.511 . S
C2013 C2009 1.376 . S
C2013 C2012 1.392 . S
C2013 H2025 0.929 . S
C2014 C2010 1.531 . S
C2014 H2026 0.960 . S
C2014 H2027 0.962 . S
C2014 H2028 0.960 . S
C2015 C2012 1.511 . S
C2015 H2029 0.961 . S
C2015 H2030 0.961 . S
C2015 H2031 0.961 . S
C2016 C2017 1.370 . S
C2016 C2018 1.363 . S
C2016 H2032 0.931 . S
C2017 C2016 1.370 . S
C2017 C2021 1.408 . S
C2018 C2016 1.363 . S
C2018 C2019 1.370 1_655 S
C2018 C2022 1.524 1_655 S
C2019 C2011 1.503 . S
C2019 C2018 1.370 1_455 S
C2019 C2020 1.403 . S
C2020 C2019 1.403 . S
C2020 C2021 1.404 1_455 S
C2020 C2023 1.539 . S
C2021 C2017 1.408 . S
C2021 C2020 1.404 1_655 S
C2021 H2033 0.930 . S
C2022 C2018 1.524 1_455 S
C2022 H2034 0.956 . S
C2022 H2035 0.961 . S
C2022 H2036 0.961 1_455 S
C2023 C2020 1.539 . S
C2023 H2037 0.958 . S
C2023 H2038 0.961 . S
C2023 H2039 0.960 . S
H2024 C2008 0.931 . S
H2025 C2013 0.929 . S
H2026 C2014 0.960 . S
H2027 C2014 0.962 . S
H2028 C2014 0.960 . S
H2029 C2015 0.961 . S
H2030 C2015 0.961 . S
H2031 C2015 0.961 . S
H2032 C2016 0.931 . S
H2033 C2021 0.930 . S
H2034 C2022 0.956 . S
H2035 C2022 0.961 . S
H2036 C2022 0.961 1_655 S
H2037 C2023 0.958 . S
H2038 C2023 0.961 . S
H2039 C2023 0.960 . S
C2040 C2041 1.391 . S
C2040 C2042 1.394 . S
C2040 H2056 0.931 . S
C2041 C2040 1.391 . S
C2041 C2045 1.376 . S
C2042 C2040 1.394 . S
C2042 C2043 1.369 . S
C2042 C2046 1.531 . S
C2043 C2042 1.369 . S
C2043 C2044 1.410 . S
C2043 C2051 1.503 . S
C2044 C2043 1.410 . S
C2044 C2045 1.392 . S
C2044 C2047 1.511 . S
C2045 C2041 1.376 . S
C2045 C2044 1.392 . S
C2045 H2057 0.929 . S
C2046 C2042 1.531 . S
C2046 H2058 0.960 . S
C2046 H2059 0.962 . S
C2046 H2060 0.960 . S
C2047 C2044 1.511 . S
C2047 H2061 0.961 . S
C2047 H2062 0.961 . S
C2047 H2063 0.961 . S
C2048 C2049 1.370 . S
C2048 C2050 1.363 . S
C2048 H2064 0.931 . S
C2049 C2048 1.370 . S
C2049 C2053 1.408 . S
C2050 C2048 1.363 . S
C2050 C2051 1.370 . S
C2050 C2054 1.524 . S
C2051 C2043 1.503 . S
C2051 C2050 1.370 . S
C2051 C2052 1.403 . S
C2052 C2051 1.403 . S
C2052 C2053 1.404 . S
C2052 C2055 1.539 . S
C2053 C2049 1.408 . S
C2053 C2052 1.404 . S
C2053 H2065 0.930 . S
C2054 C2050 1.524 . S
C2054 H2066 0.956 . S
C2054 H2067 0.961 . S
C2054 H2068 0.961 . S
C2055 C2052 1.539 . S
C2055 H2069 0.958 . S
C2055 H2070 0.961 . S
C2055 H2071 0.960 . S
H2056 C2040 0.931 . S
H2057 C2045 0.929 . S
H2058 C2046 0.960 . S
H2059 C2046 0.962 . S
H2060 C2046 0.960 . S
H2061 C2047 0.961 . S
H2062 C2047 0.961 . S
H2063 C2047 0.961 . S
H2064 C2048 0.931 . S
H2065 C2053 0.930 . S
H2066 C2054 0.956 . S
H2067 C2054 0.961 . S
H2068 C2054 0.961 . S
H2069 C2055 0.958 . S
H2070 C2055 0.961 . S
H2071 C2055 0.960 . S
C2072 C2073 1.391 . S
C2072 C2074 1.394 . S
C2072 H2088 0.931 . S
C2073 C2072 1.391 . S
C2073 C2077 1.376 . S
C2074 C2072 1.394 . S
C2074 C2075 1.369 . S
C2074 C2078 1.531 . S
C2075 C2074 1.369 . S
C2075 C2076 1.410 . S
C2075 C2083 1.503 . S
C2076 C2075 1.410 . S
C2076 C2077 1.392 . S
C2076 C2079 1.511 . S
C2077 C2073 1.376 . S
C2077 C2076 1.392 . S
C2077 H2089 0.929 . S
C2078 C2074 1.531 . S
C2078 H2090 0.960 . S
C2078 H2091 0.962 . S
C2078 H2092 0.960 . S
C2079 C2076 1.511 . S
C2079 H2093 0.961 . S
C2079 H2094 0.961 . S
C2079 H2095 0.961 . S
C2080 C2081 1.370 . S
C2080 C2082 1.363 . S
C2080 H2096 0.931 . S
C2081 C2080 1.370 . S
C2081 C2085 1.408 . S
C2082 C2080 1.363 . S
C2082 C2083 1.370 . S
C2082 C2086 1.524 . S
C2083 C2075 1.503 . S
C2083 C2082 1.370 . S
C2083 C2084 1.403 . S
C2084 C2083 1.403 . S
C2084 C2085 1.404 . S
C2084 C2087 1.539 . S
C2085 C2081 1.408 . S
C2085 C2084 1.404 . S
C2085 H2097 0.930 . S
C2086 C2082 1.524 . S
C2086 H2098 0.956 . S
C2086 H2099 0.961 . S
C2086 H2100 0.961 . S
C2087 C2084 1.539 . S
C2087 H2101 0.958 . S
C2087 H2102 0.961 . S
C2087 H2103 0.960 . S
H2088 C2072 0.931 . S
H2089 C2077 0.929 . S
H2090 C2078 0.960 . S
H2091 C2078 0.962 . S
H2092 C2078 0.960 . S
H2093 C2079 0.961 . S
H2094 C2079 0.961 . S
H2095 C2079 0.961 . S
H2096 C2080 0.931 . S
H2097 C2085 0.930 . S
H2098 C2086 0.956 . S
H2099 C2086 0.961 . S
H2100 C2086 0.961 . S
H2101 C2087 0.958 . S
H2102 C2087 0.961 . S
H2103 C2087 0.960 . S
C2104 C2105 1.391 . S
C2104 C2106 1.394 . S
C2104 H2120 0.931 . S
C2105 C2104 1.391 . S
C2105 C2109 1.376 . S
C2106 C2104 1.394 . S
C2106 C2107 1.369 . S
C2106 C2110 1.531 . S
C2107 C2106 1.369 . S
C2107 C2108 1.410 . S
C2107 C2115 1.503 . S
C2108 C2107 1.410 . S
C2108 C2109 1.392 . S
C2108 C2111 1.511 . S
C2109 C2105 1.376 . S
C2109 C2108 1.392 . S
C2109 H2121 0.929 . S
C2110 C2106 1.531 . S
C2110 H2122 0.960 . S
C2110 H2123 0.962 . S
C2110 H2124 0.960 . S
C2111 C2108 1.511 . S
C2111 H2125 0.961 . S
C2111 H2126 0.961 . S
C2111 H2127 0.961 . S
C2112 C2113 1.370 . S
C2112 C2114 1.363 . S
C2112 H2128 0.931 . S
C2113 C2112 1.370 . S
C2113 C2117 1.408 . S
C2114 C2112 1.363 . S
C2114 C2115 1.370 . S
C2114 C2118 1.524 . S
C2115 C2107 1.503 . S
C2115 C2114 1.370 . S
C2115 C2116 1.403 . S
C2116 C2115 1.403 . S
C2116 C2117 1.404 . S
C2116 C2119 1.539 . S
C2117 C2113 1.408 . S
C2117 C2116 1.404 . S
C2117 H2129 0.930 . S
C2118 C2114 1.524 . S
C2118 H2130 0.956 . S
C2118 H2131 0.961 . S
C2118 H2132 0.961 . S
C2119 C2116 1.539 . S
C2119 H2133 0.958 . S
C2119 H2134 0.961 . S
C2119 H2135 0.960 . S
H2120 C2104 0.931 . S
H2121 C2109 0.929 . S
H2122 C2110 0.960 . S
H2123 C2110 0.962 . S
H2124 C2110 0.960 . S
H2125 C2111 0.961 . S
H2126 C2111 0.961 . S
H2127 C2111 0.961 . S
H2128 C2112 0.931 . S
H2129 C2117 0.930 . S
H2130 C2118 0.956 . S
H2131 C2118 0.961 . S
H2132 C2118 0.961 . S
H2133 C2119 0.958 . S
H2134 C2119 0.961 . S
H2135 C2119 0.960 . S
C2136 C2137 1.391 . S
C2136 C2138 1.394 . S
C2136 H2152 0.931 . S
C2137 C2136 1.391 . S
C2137 C2141 1.376 . S
C2138 C2136 1.394 . S
C2138 C2139 1.369 . S
C2138 C2142 1.531 . S
C2139 C2138 1.369 . S
C2139 C2140 1.410 . S
C2139 C2147 1.503 . S
C2140 C2139 1.410 . S
C2140 C2141 1.392 . S
C2140 C2143 1.511 . S
C2141 C2137 1.376 . S
C2141 C2140 1.392 . S
C2141 H2153 0.929 . S
C2142 C2138 1.531 . S
C2142 H2154 0.960 . S
C2142 H2155 0.962 . S
C2142 H2156 0.960 . S
C2143 C2140 1.511 . S
C2143 H2157 0.961 . S
C2143 H2158 0.961 . S
C2143 H2159 0.961 . S
C2144 C2145 1.370 . S
C2144 C2146 1.363 . S
C2144 H2160 0.931 . S
C2145 C2144 1.370 . S
C2145 C2149 1.408 . S
C2146 C2144 1.363 . S
C2146 C2147 1.370 . S
C2146 C2150 1.524 . S
C2147 C2139 1.503 . S
C2147 C2146 1.370 . S
C2147 C2148 1.403 . S
C2148 C2147 1.403 . S
C2148 C2149 1.404 . S
C2148 C2151 1.539 . S
C2149 C2145 1.408 . S
C2149 C2148 1.404 . S
C2149 H2161 0.930 . S
C2150 C2146 1.524 . S
C2150 H2162 0.956 . S
C2150 H2163 0.961 . S
C2150 H2164 0.961 . S
C2151 C2148 1.539 . S
C2151 H2165 0.958 . S
C2151 H2166 0.961 . S
C2151 H2167 0.960 . S
H2152 C2136 0.931 . S
H2153 C2141 0.929 . S
H2154 C2142 0.960 . S
H2155 C2142 0.962 . S
H2156 C2142 0.960 . S
H2157 C2143 0.961 . S
H2158 C2143 0.961 . S
H2159 C2143 0.961 . S
H2160 C2144 0.931 . S
H2161 C2149 0.930 . S
H2162 C2150 0.956 . S
H2163 C2150 0.961 . S
H2164 C2150 0.961 . S
H2165 C2151 0.958 . S
H2166 C2151 0.961 . S
H2167 C2151 0.960 . S
C2168 C2169 1.391 . S
C2168 C2170 1.394 . S
C2168 H2184 0.931 . S
C2169 C2168 1.391 . S
C2169 C2173 1.376 . S
C2170 C2168 1.394 . S
C2170 C2171 1.369 . S
C2170 C2174 1.531 . S
C2171 C2170 1.369 . S
C2171 C2172 1.410 . S
C2171 C2179 1.503 . S
C2172 C2171 1.410 . S
C2172 C2173 1.392 . S
C2172 C2175 1.511 . S
C2173 C2169 1.376 . S
C2173 C2172 1.392 . S
C2173 H2185 0.929 . S
C2174 C2170 1.531 . S
C2174 H2186 0.960 . S
C2174 H2187 0.962 . S
C2174 H2188 0.960 . S
C2175 C2172 1.511 . S
C2175 H2189 0.961 . S
C2175 H2190 0.961 . S
C2175 H2191 0.961 . S
C2176 C2177 1.370 . S
C2176 C2178 1.363 . S
C2176 H2192 0.931 . S
C2177 C2176 1.370 . S
C2177 C2181 1.408 . S
C2178 C2176 1.363 . S
C2178 C2179 1.370 . S
C2178 C2182 1.524 . S
C2179 C2171 1.503 . S
C2179 C2178 1.370 . S
C2179 C2180 1.403 . S
C2180 C2179 1.403 . S
C2180 C2181 1.404 . S
C2180 C2183 1.539 . S
C2181 C2177 1.408 . S
C2181 C2180 1.404 . S
C2181 H2193 0.930 . S
C2182 C2178 1.524 . S
C2182 H2194 0.956 . S
C2182 H2195 0.961 . S
C2182 H2196 0.961 . S
C2183 C2180 1.539 . S
C2183 H2197 0.958 . S
C2183 H2198 0.961 . S
C2183 H2199 0.960 . S
H2184 C2168 0.931 . S
H2185 C2173 0.929 . S
H2186 C2174 0.960 . S
H2187 C2174 0.962 . S
H2188 C2174 0.960 . S
H2189 C2175 0.961 . S
H2190 C2175 0.961 . S
H2191 C2175 0.961 . S
H2192 C2176 0.931 . S
H2193 C2181 0.930 . S
H2194 C2182 0.956 . S
H2195 C2182 0.961 . S
H2196 C2182 0.961 . S
H2197 C2183 0.958 . S
H2198 C2183 0.961 . S
H2199 C2183 0.960 . S
C2200 C2201 1.391 . S
C2200 C2202 1.394 . S
C2200 H2216 0.931 . S
C2201 C2200 1.391 . S
C2201 C2205 1.376 . S
C2202 C2200 1.394 . S
C2202 C2203 1.369 . S
C2202 C2206 1.531 . S
C2203 C2202 1.369 . S
C2203 C2204 1.410 . S
C2203 C2211 1.503 . S
C2204 C2203 1.410 . S
C2204 C2205 1.392 . S
C2204 C2207 1.511 . S
C2205 C2201 1.376 . S
C2205 C2204 1.392 . S
C2205 H2217 0.929 . S
C2206 C2202 1.531 . S
C2206 H2218 0.960 . S
C2206 H2219 0.962 . S
C2206 H2220 0.960 . S
C2207 C2204 1.511 . S
C2207 H2221 0.961 . S
C2207 H2222 0.961 . S
C2207 H2223 0.961 . S
C2208 C2209 1.370 . S
C2208 C2210 1.363 . S
C2208 H2224 0.931 . S
C2209 C2208 1.370 . S
C2209 C2213 1.408 . S
C2210 C2208 1.363 . S
C2210 C2211 1.370 . S
C2210 C2214 1.524 . S
C2211 C2203 1.503 . S
C2211 C2210 1.370 . S
C2211 C2212 1.403 . S
C2212 C2211 1.403 . S
C2212 C2213 1.404 . S
C2212 C2215 1.539 . S
C2213 C2209 1.408 . S
C2213 C2212 1.404 . S
C2213 H2225 0.930 . S
C2214 C2210 1.524 . S
C2214 H2226 0.956 . S
C2214 H2227 0.961 . S
C2214 H2228 0.961 . S
C2215 C2212 1.539 . S
C2215 H2229 0.958 . S
C2215 H2230 0.961 . S
C2215 H2231 0.960 . S
H2216 C2200 0.931 . S
H2217 C2205 0.929 . S
H2218 C2206 0.960 . S
H2219 C2206 0.962 . S
H2220 C2206 0.960 . S
H2221 C2207 0.961 . S
H2222 C2207 0.961 . S
H2223 C2207 0.961 . S
H2224 C2208 0.931 . S
H2225 C2213 0.930 . S
H2226 C2214 0.956 . S
H2227 C2214 0.961 . S
H2228 C2214 0.961 . S
H2229 C2215 0.958 . S
H2230 C2215 0.961 . S
H2231 C2215 0.960 . S
C2232 C2233 1.391 . S
C2232 C2234 1.394 . S
C2232 H2248 0.931 . S
C2233 C2232 1.391 . S
C2233 C2237 1.376 . S
C2234 C2232 1.394 . S
C2234 C2235 1.369 . S
C2234 C2238 1.531 . S
C2235 C2234 1.369 . S
C2235 C2236 1.410 . S
C2235 C2243 1.503 . S
C2236 C2235 1.410 . S
C2236 C2237 1.392 . S
C2236 C2239 1.511 . S
C2237 C2233 1.376 . S
C2237 C2236 1.392 . S
C2237 H2249 0.929 . S
C2238 C2234 1.531 . S
C2238 H2250 0.960 . S
C2238 H2251 0.962 . S
C2238 H2252 0.960 . S
C2239 C2236 1.511 . S
C2239 H2253 0.961 . S
C2239 H2254 0.961 . S
C2239 H2255 0.961 . S
C2240 C2241 1.370 . S
C2240 C2242 1.363 . S
C2240 H2256 0.931 . S
C2241 C2240 1.370 . S
C2241 C2245 1.408 . S
C2242 C2240 1.363 . S
C2242 C2243 1.370 . S
C2242 C2246 1.524 . S
C2243 C2235 1.503 . S
C2243 C2242 1.370 . S
C2243 C2244 1.403 . S
C2244 C2243 1.403 . S
C2244 C2245 1.404 . S
C2244 C2247 1.539 . S
C2245 C2241 1.408 . S
C2245 C2244 1.404 . S
C2245 H2257 0.930 . S
C2246 C2242 1.524 . S
C2246 H2258 0.956 . S
C2246 H2259 0.961 . S
C2246 H2260 0.961 . S
C2247 C2244 1.539 . S
C2247 H2261 0.958 . S
C2247 H2262 0.961 . S
C2247 H2263 0.960 . S
H2248 C2232 0.931 . S
H2249 C2237 0.929 . S
H2250 C2238 0.960 . S
H2251 C2238 0.962 . S
H2252 C2238 0.960 . S
H2253 C2239 0.961 . S
H2254 C2239 0.961 . S
H2255 C2239 0.961 . S
H2256 C2240 0.931 . S
H2257 C2245 0.930 . S
H2258 C2246 0.956 . S
H2259 C2246 0.961 . S
H2260 C2246 0.961 . S
H2261 C2247 0.958 . S
H2262 C2247 0.961 . S
H2263 C2247 0.960 . S
C2264 C2265 1.391 . S
C2264 C2266 1.394 . S
C2264 H2280 0.931 . S
C2265 C2264 1.391 . S
C2265 C2269 1.376 . S
C2266 C2264 1.394 . S
C2266 C2267 1.369 . S
C2266 C2270 1.531 . S
C2267 C2266 1.369 . S
C2267 C2268 1.410 . S
C2267 C2275 1.503 . S
C2268 C2267 1.410 . S
C2268 C2269 1.392 . S
C2268 C2271 1.511 . S
C2269 C2265 1.376 . S
C2269 C2268 1.392 . S
C2269 H2281 0.929 . S
C2270 C2266 1.531 . S
C2270 H2282 0.960 . S
C2270 H2283 0.962 . S
C2270 H2284 0.960 . S
C2271 C2268 1.511 . S
C2271 H2285 0.961 . S
C2271 H2286 0.961 . S
C2271 H2287 0.961 . S
C2272 C2273 1.370 . S
C2272 C2274 1.363 . S
C2272 H2288 0.931 . S
C2273 C2272 1.370 . S
C2273 C2277 1.408 . S
C2274 C2272 1.363 . S
C2274 C2275 1.370 . S
C2274 C2278 1.524 . S
C2275 C2267 1.503 . S
C2275 C2274 1.370 . S
C2275 C2276 1.403 . S
C2276 C2275 1.403 . S
C2276 C2277 1.404 . S
C2276 C2279 1.539 . S
C2277 C2273 1.408 . S
C2277 C2276 1.404 . S
C2277 H2289 0.930 . S
C2278 C2274 1.524 . S
C2278 H2290 0.956 . S
C2278 H2291 0.961 . S
C2278 H2292 0.961 . S
C2279 C2276 1.539 . S
C2279 H2293 0.958 . S
C2279 H2294 0.961 . S
C2279 H2295 0.960 . S
H2280 C2264 0.931 . S
H2281 C2269 0.929 . S
H2282 C2270 0.960 . S
H2283 C2270 0.962 . S
H2284 C2270 0.960 . S
H2285 C2271 0.961 . S
H2286 C2271 0.961 . S
H2287 C2271 0.961 . S
H2288 C2272 0.931 . S
H2289 C2277 0.930 . S
H2290 C2278 0.956 . S
H2291 C2278 0.961 . S
H2292 C2278 0.961 . S
H2293 C2279 0.958 . S
H2294 C2279 0.961 . S
H2295 C2279 0.960 . S
C2296 C2297 1.391 . S
C2296 C2298 1.394 . S
C2296 H2312 0.931 . S
C2297 C2296 1.391 . S
C2297 C2301 1.376 . S
C2298 C2296 1.394 . S
C2298 C2299 1.369 . S
C2298 C2302 1.531 . S
C2299 C2298 1.369 . S
C2299 C2300 1.410 . S
C2299 C2307 1.503 . S
C2300 C2299 1.410 . S
C2300 C2301 1.392 . S
C2300 C2303 1.511 . S
C2301 C2297 1.376 . S
C2301 C2300 1.392 . S
C2301 H2313 0.929 . S
C2302 C2298 1.531 . S
C2302 H2314 0.960 . S
C2302 H2315 0.962 . S
C2302 H2316 0.960 . S
C2303 C2300 1.511 . S
C2303 H2317 0.961 . S
C2303 H2318 0.961 . S
C2303 H2319 0.961 . S
C2304 C2305 1.370 . S
C2304 C2306 1.363 . S
C2304 H2320 0.931 . S
C2305 C2304 1.370 . S
C2305 C2309 1.408 . S
C2306 C2304 1.363 . S
C2306 C2307 1.370 . S
C2306 C2310 1.524 . S
C2307 C2299 1.503 . S
C2307 C2306 1.370 . S
C2307 C2308 1.403 . S
C2308 C2307 1.403 . S
C2308 C2309 1.404 . S
C2308 C2311 1.539 . S
C2309 C2305 1.408 . S
C2309 C2308 1.404 . S
C2309 H2321 0.930 . S
C2310 C2306 1.524 . S
C2310 H2322 0.956 . S
C2310 H2323 0.961 . S
C2310 H2324 0.961 . S
C2311 C2308 1.539 . S
C2311 H2325 0.958 . S
C2311 H2326 0.961 . S
C2311 H2327 0.960 . S
H2312 C2296 0.931 . S
H2313 C2301 0.929 . S
H2314 C2302 0.960 . S
H2315 C2302 0.962 . S
H2316 C2302 0.960 . S
H2317 C2303 0.961 . S
H2318 C2303 0.961 . S
H2319 C2303 0.961 . S
H2320 C2304 0.931 . S
H2321 C2309 0.930 . S
H2322 C2310 0.956 . S
H2323 C2310 0.961 . S
H2324 C2310 0.961 . S
H2325 C2311 0.958 . S
H2326 C2311 0.961 . S
H2327 C2311 0.960 . S
C2328 C2329 1.391 . S
C2328 C2330 1.394 . S
C2328 H2344 0.931 . S
C2329 C2328 1.391 . S
C2329 C2333 1.376 . S
C2330 C2328 1.394 . S
C2330 C2331 1.369 . S
C2330 C2334 1.531 . S
C2331 C2330 1.369 . S
C2331 C2332 1.410 . S
C2331 C2339 1.503 . S
C2332 C2331 1.410 . S
C2332 C2333 1.392 . S
C2332 C2335 1.511 . S
C2333 C2329 1.376 . S
C2333 C2332 1.392 . S
C2333 H2345 0.929 . S
C2334 C2330 1.531 . S
C2334 H2346 0.960 . S
C2334 H2347 0.962 . S
C2334 H2348 0.960 . S
C2335 C2332 1.511 . S
C2335 H2349 0.961 . S
C2335 H2350 0.961 . S
C2335 H2351 0.961 . S
C2336 C2337 1.370 . S
C2336 C2338 1.363 . S
C2336 H2352 0.931 . S
C2337 C2336 1.370 . S
C2337 C2341 1.408 . S
C2338 C2336 1.363 . S
C2338 C2339 1.370 . S
C2338 C2342 1.524 . S
C2339 C2331 1.503 . S
C2339 C2338 1.370 . S
C2339 C2340 1.403 . S
C2340 C2339 1.403 . S
C2340 C2341 1.404 . S
C2340 C2343 1.539 . S
C2341 C2337 1.408 . S
C2341 C2340 1.404 . S
C2341 H2353 0.930 . S
C2342 C2338 1.524 . S
C2342 H2354 0.956 . S
C2342 H2355 0.961 . S
C2342 H2356 0.961 . S
C2343 C2340 1.539 . S
C2343 H2357 0.958 . S
C2343 H2358 0.961 . S
C2343 H2359 0.960 . S
H2344 C2328 0.931 . S
H2345 C2333 0.929 . S
H2346 C2334 0.960 . S
H2347 C2334 0.962 . S
H2348 C2334 0.960 . S
H2349 C2335 0.961 . S
H2350 C2335 0.961 . S
H2351 C2335 0.961 . S
H2352 C2336 0.931 . S
H2353 C2341 0.930 . S
H2354 C2342 0.956 . S
H2355 C2342 0.961 . S
H2356 C2342 0.961 . S
H2357 C2343 0.958 . S
H2358 C2343 0.961 . S
H2359 C2343 0.960 . S
C2360 C2361 1.391 . S
C2360 C2362 1.394 . S
C2360 H2376 0.931 . S
C2361 C2360 1.391 . S
C2361 C2365 1.376 . S
C2362 C2360 1.394 . S
C2362 C2363 1.369 . S
C2362 C2366 1.531 . S
C2363 C2362 1.369 . S
C2363 C2364 1.410 . S
C2363 C2371 1.503 . S
C2364 C2363 1.410 . S
C2364 C2365 1.392 . S
C2364 C2367 1.511 . S
C2365 C2361 1.376 . S
C2365 C2364 1.392 . S
C2365 H2377 0.929 . S
C2366 C2362 1.531 . S
C2366 H2378 0.960 . S
C2366 H2379 0.962 . S
C2366 H2380 0.960 . S
C2367 C2364 1.511 . S
C2367 H2381 0.961 . S
C2367 H2382 0.961 . S
C2367 H2383 0.961 . S
C2368 C2369 1.370 . S
C2368 C2370 1.363 . S
C2368 H2384 0.931 . S
C2369 C2368 1.370 . S
C2369 C2373 1.408 . S
C2370 C2368 1.363 . S
C2370 C2371 1.370 . S
C2370 C2374 1.524 . S
C2371 C2363 1.503 . S
C2371 C2370 1.370 . S
C2371 C2372 1.403 . S
C2372 C2371 1.403 . S
C2372 C2373 1.404 . S
C2372 C2375 1.539 . S
C2373 C2369 1.408 . S
C2373 C2372 1.404 . S
C2373 H2385 0.930 . S
C2374 C2370 1.524 . S
C2374 H2386 0.956 . S
C2374 H2387 0.961 . S
C2374 H2388 0.961 . S
C2375 C2372 1.539 . S
C2375 H2389 0.958 . S
C2375 H2390 0.961 . S
C2375 H2391 0.960 . S
H2376 C2360 0.931 . S
H2377 C2365 0.929 . S
H2378 C2366 0.960 . S
H2379 C2366 0.962 . S
H2380 C2366 0.960 . S
H2381 C2367 0.961 . S
H2382 C2367 0.961 . S
H2383 C2367 0.961 . S
H2384 C2368 0.931 . S
H2385 C2373 0.930 . S
H2386 C2374 0.956 . S
H2387 C2374 0.961 . S
H2388 C2374 0.961 . S
H2389 C2375 0.958 . S
H2390 C2375 0.961 . S
H2391 C2375 0.960 . S
C2392 C2393 1.391 . S
C2392 C2394 1.394 . S
C2392 H2408 0.931 . S
C2393 C2392 1.391 . S
C2393 C2397 1.376 . S
C2394 C2392 1.394 . S
C2394 C2395 1.369 . S
C2394 C2398 1.531 . S
C2395 C2394 1.369 . S
C2395 C2396 1.410 . S
C2395 C2403 1.503 . S
C2396 C2395 1.410 . S
C2396 C2397 1.392 . S
C2396 C2399 1.511 . S
C2397 C2393 1.376 . S
C2397 C2396 1.392 . S
C2397 H2409 0.929 . S
C2398 C2394 1.531 . S
C2398 H2410 0.960 . S
C2398 H2411 0.962 . S
C2398 H2412 0.960 . S
C2399 C2396 1.511 . S
C2399 H2413 0.961 . S
C2399 H2414 0.961 . S
C2399 H2415 0.961 . S
C2400 C2401 1.370 . S
C2400 C2402 1.363 . S
C2400 H2416 0.931 . S
C2401 C2400 1.370 . S
C2401 C2405 1.408 . S
C2402 C2400 1.363 . S
C2402 C2403 1.370 . S
C2402 C2406 1.524 . S
C2403 C2395 1.503 . S
C2403 C2402 1.370 . S
C2403 C2404 1.403 . S
C2404 C2403 1.403 . S
C2404 C2405 1.404 . S
C2404 C2407 1.539 . S
C2405 C2401 1.408 . S
C2405 C2404 1.404 . S
C2405 H2417 0.930 . S
C2406 C2402 1.524 . S
C2406 H2418 0.956 . S
C2406 H2419 0.961 . S
C2406 H2420 0.961 . S
C2407 C2404 1.539 . S
C2407 H2421 0.958 . S
C2407 H2422 0.961 . S
C2407 H2423 0.960 . S
H2408 C2392 0.931 . S
H2409 C2397 0.929 . S
H2410 C2398 0.960 . S
H2411 C2398 0.962 . S
H2412 C2398 0.960 . S
H2413 C2399 0.961 . S
H2414 C2399 0.961 . S
H2415 C2399 0.961 . S
H2416 C2400 0.931 . S
H2417 C2405 0.930 . S
H2418 C2406 0.956 . S
H2419 C2406 0.961 . S
H2420 C2406 0.961 . S
H2421 C2407 0.958 . S
H2422 C2407 0.961 . S
H2423 C2407 0.960 . S
C2424 C2425 1.391 . S
C2424 C2426 1.394 . S
C2424 H2440 0.931 . S
C2425 C2424 1.391 . S
C2425 C2429 1.376 . S
C2426 C2424 1.394 . S
C2426 C2427 1.369 . S
C2426 C2430 1.531 . S
C2427 C2426 1.369 . S
C2427 C2428 1.410 . S
C2427 C2435 1.503 . S
C2428 C2427 1.410 . S
C2428 C2429 1.392 . S
C2428 C2431 1.511 . S
C2429 C2425 1.376 . S
C2429 C2428 1.392 . S
C2429 H2441 0.929 . S
C2430 C2426 1.531 . S
C2430 H2442 0.960 . S
C2430 H2443 0.962 . S
C2430 H2444 0.960 . S
C2431 C2428 1.511 . S
C2431 H2445 0.961 . S
C2431 H2446 0.961 . S
C2431 H2447 0.961 . S
C2432 C2433 1.370 . S
C2432 C2434 1.363 . S
C2432 H2448 0.931 . S
C2433 C2432 1.370 . S
C2433 C2437 1.408 . S
C2434 C2432 1.363 . S
C2434 C2435 1.370 . S
C2434 C2438 1.524 . S
C2435 C2427 1.503 . S
C2435 C2434 1.370 . S
C2435 C2436 1.403 . S
C2436 C2435 1.403 . S
C2436 C2437 1.404 . S
C2436 C2439 1.539 . S
C2437 C2433 1.408 . S
C2437 C2436 1.404 . S
C2437 H2449 0.930 . S
C2438 C2434 1.524 . S
C2438 H2450 0.956 . S
C2438 H2451 0.961 . S
C2438 H2452 0.961 . S
C2439 C2436 1.539 . S
C2439 H2453 0.958 . S
C2439 H2454 0.961 . S
C2439 H2455 0.960 . S
H2440 C2424 0.931 . S
H2441 C2429 0.929 . S
H2442 C2430 0.960 . S
H2443 C2430 0.962 . S
H2444 C2430 0.960 . S
H2445 C2431 0.961 . S
H2446 C2431 0.961 . S
H2447 C2431 0.961 . S
H2448 C2432 0.931 . S
H2449 C2437 0.930 . S
H2450 C2438 0.956 . S
H2451 C2438 0.961 . S
H2452 C2438 0.961 . S
H2453 C2439 0.958 . S
H2454 C2439 0.961 . S
H2455 C2439 0.960 . S
C2456 C2457 1.391 . S
C2456 C2458 1.394 . S
C2456 H2472 0.931 . S
C2457 C2456 1.391 . S
C2457 C2461 1.376 . S
C2458 C2456 1.394 . S
C2458 C2459 1.369 . S
C2458 C2462 1.531 . S
C2459 C2458 1.369 . S
C2459 C2460 1.410 . S
C2459 C2467 1.503 . S
C2460 C2459 1.410 . S
C2460 C2461 1.392 . S
C2460 C2463 1.511 . S
C2461 C2457 1.376 . S
C2461 C2460 1.392 . S
C2461 H2473 0.929 . S
C2462 C2458 1.531 . S
C2462 H2474 0.960 . S
C2462 H2475 0.962 . S
C2462 H2476 0.960 . S
C2463 C2460 1.511 . S
C2463 H2477 0.961 . S
C2463 H2478 0.961 . S
C2463 H2479 0.961 . S
C2464 C2465 1.370 . S
C2464 C2466 1.363 . S
C2464 H2480 0.931 . S
C2465 C2464 1.370 . S
C2465 C2469 1.408 . S
C2466 C2464 1.363 . S
C2466 C2467 1.370 . S
C2466 C2470 1.524 . S
C2467 C2459 1.503 . S
C2467 C2466 1.370 . S
C2467 C2468 1.403 . S
C2468 C2467 1.403 . S
C2468 C2469 1.404 . S
C2468 C2471 1.539 . S
C2469 C2465 1.408 . S
C2469 C2468 1.404 . S
C2469 H2481 0.930 . S
C2470 C2466 1.524 . S
C2470 H2482 0.956 . S
C2470 H2483 0.961 . S
C2470 H2484 0.961 . S
C2471 C2468 1.539 . S
C2471 H2485 0.958 . S
C2471 H2486 0.961 . S
C2471 H2487 0.960 . S
H2472 C2456 0.931 . S
H2473 C2461 0.929 . S
H2474 C2462 0.960 . S
H2475 C2462 0.962 . S
H2476 C2462 0.960 . S
H2477 C2463 0.961 . S
H2478 C2463 0.961 . S
H2479 C2463 0.961 . S
H2480 C2464 0.931 . S
H2481 C2469 0.930 . S
H2482 C2470 0.956 . S
H2483 C2470 0.961 . S
H2484 C2470 0.961 . S
H2485 C2471 0.958 . S
H2486 C2471 0.961 . S
H2487 C2471 0.960 . S
C2488 C2489 1.391 . S
C2488 C2490 1.394 . S
C2488 H2504 0.931 . S
C2489 C2488 1.391 . S
C2489 C2493 1.376 . S
C2490 C2488 1.394 . S
C2490 C2491 1.369 . S
C2490 C2494 1.531 . S
C2491 C2490 1.369 . S
C2491 C2492 1.410 . S
C2491 C2499 1.503 . S
C2492 C2491 1.410 . S
C2492 C2493 1.392 . S
C2492 C2495 1.511 . S
C2493 C2489 1.376 . S
C2493 C2492 1.392 . S
C2493 H2505 0.929 . S
C2494 C2490 1.531 . S
C2494 H2506 0.960 . S
C2494 H2507 0.962 . S
C2494 H2508 0.960 . S
C2495 C2492 1.511 . S
C2495 H2509 0.961 . S
C2495 H2510 0.961 . S
C2495 H2511 0.961 . S
C2496 C2497 1.370 . S
C2496 C2498 1.363 . S
C2496 H2512 0.931 . S
C2497 C2496 1.370 . S
C2497 C2501 1.408 . S
C2498 C2496 1.363 . S
C2498 C2499 1.370 . S
C2498 C2502 1.524 . S
C2499 C2491 1.503 . S
C2499 C2498 1.370 . S
C2499 C2500 1.403 . S
C2500 C2499 1.403 . S
C2500 C2501 1.404 . S
C2500 C2503 1.539 . S
C2501 C2497 1.408 . S
C2501 C2500 1.404 . S
C2501 H2513 0.930 . S
C2502 C2498 1.524 . S
C2502 H2514 0.956 . S
C2502 H2515 0.961 . S
C2502 H2516 0.961 . S
C2503 C2500 1.539 . S
C2503 H2517 0.958 . S
C2503 H2518 0.961 . S
C2503 H2519 0.960 . S
H2504 C2488 0.931 . S
H2505 C2493 0.929 . S
H2506 C2494 0.960 . S
H2507 C2494 0.962 . S
H2508 C2494 0.960 . S
H2509 C2495 0.961 . S
H2510 C2495 0.961 . S
H2511 C2495 0.961 . S
H2512 C2496 0.931 . S
H2513 C2501 0.930 . S
H2514 C2502 0.956 . S
H2515 C2502 0.961 . S
H2516 C2502 0.961 . S
H2517 C2503 0.958 . S
H2518 C2503 0.961 . S
H2519 C2503 0.960 . S
C2520 C2521 1.391 . S
C2520 C2522 1.394 . S
C2520 H2536 0.931 . S
C2521 C2520 1.391 . S
C2521 C2525 1.376 . S
C2522 C2520 1.394 . S
C2522 C2523 1.369 . S
C2522 C2526 1.531 . S
C2523 C2522 1.369 . S
C2523 C2524 1.410 . S
C2523 C2531 1.503 . S
C2524 C2523 1.410 . S
C2524 C2525 1.392 . S
C2524 C2527 1.511 . S
C2525 C2521 1.376 . S
C2525 C2524 1.392 . S
C2525 H2537 0.929 . S
C2526 C2522 1.531 . S
C2526 H2538 0.960 . S
C2526 H2539 0.962 . S
C2526 H2540 0.960 . S
C2527 C2524 1.511 . S
C2527 H2541 0.961 . S
C2527 H2542 0.961 . S
C2527 H2543 0.961 . S
C2528 C2529 1.370 . S
C2528 C2530 1.363 . S
C2528 H2544 0.931 . S
C2529 C2528 1.370 . S
C2529 C2533 1.408 . S
C2530 C2528 1.363 . S
C2530 C2531 1.370 . S
C2530 C2534 1.524 . S
C2531 C2523 1.503 . S
C2531 C2530 1.370 . S
C2531 C2532 1.403 . S
C2532 C2531 1.403 . S
C2532 C2533 1.404 . S
C2532 C2535 1.539 . S
C2533 C2529 1.408 . S
C2533 C2532 1.404 . S
C2533 H2545 0.930 . S
C2534 C2530 1.524 . S
C2534 H2546 0.956 . S
C2534 H2547 0.961 . S
C2534 H2548 0.961 . S
C2535 C2532 1.539 . S
C2535 H2549 0.958 . S
C2535 H2550 0.961 . S
C2535 H2551 0.960 . S
H2536 C2520 0.931 . S
H2537 C2525 0.929 . S
H2538 C2526 0.960 . S
H2539 C2526 0.962 . S
H2540 C2526 0.960 . S
H2541 C2527 0.961 . S
H2542 C2527 0.961 . S
H2543 C2527 0.961 . S
H2544 C2528 0.931 . S
H2545 C2533 0.930 . S
H2546 C2534 0.956 . S
H2547 C2534 0.961 . S
H2548 C2534 0.961 . S
H2549 C2535 0.958 . S
H2550 C2535 0.961 . S
H2551 C2535 0.960 . S
C2552 C2553 1.391 . S
C2552 C2554 1.394 . S
C2552 H2568 0.931 . S
C2553 C2552 1.391 . S
C2553 C2557 1.376 . S
C2554 C2552 1.394 . S
C2554 C2555 1.369 . S
C2554 C2558 1.531 . S
C2555 C2554 1.369 . S
C2555 C2556 1.410 . S
C2555 C2563 1.503 . S
C2556 C2555 1.410 . S
C2556 C2557 1.392 . S
C2556 C2559 1.511 . S
C2557 C2553 1.376 . S
C2557 C2556 1.392 . S
C2557 H2569 0.929 . S
C2558 C2554 1.531 . S
C2558 H2570 0.960 . S
C2558 H2571 0.962 . S
C2558 H2572 0.960 . S
C2559 C2556 1.511 . S
C2559 H2573 0.961 . S
C2559 H2574 0.961 . S
C2559 H2575 0.961 . S
C2560 C2561 1.370 . S
C2560 C2562 1.363 . S
C2560 H2576 0.931 . S
C2561 C2560 1.370 . S
C2561 C2565 1.408 . S
C2562 C2560 1.363 . S
C2562 C2563 1.370 . S
C2562 C2566 1.524 . S
C2563 C2555 1.503 . S
C2563 C2562 1.370 . S
C2563 C2564 1.403 . S
C2564 C2563 1.403 . S
C2564 C2565 1.404 . S
C2564 C2567 1.539 . S
C2565 C2561 1.408 . S
C2565 C2564 1.404 . S
C2565 H2577 0.930 . S
C2566 C2562 1.524 . S
C2566 H2578 0.956 . S
C2566 H2579 0.961 . S
C2566 H2580 0.961 . S
C2567 C2564 1.539 . S
C2567 H2581 0.958 . S
C2567 H2582 0.961 . S
C2567 H2583 0.960 . S
H2568 C2552 0.931 . S
H2569 C2557 0.929 . S
H2570 C2558 0.960 . S
H2571 C2558 0.962 . S
H2572 C2558 0.960 . S
H2573 C2559 0.961 . S
H2574 C2559 0.961 . S
H2575 C2559 0.961 . S
H2576 C2560 0.931 . S
H2577 C2565 0.930 . S
H2578 C2566 0.956 . S
H2579 C2566 0.961 . S
H2580 C2566 0.961 . S
H2581 C2567 0.958 . S
H2582 C2567 0.961 . S
H2583 C2567 0.960 . S
C2584 C2585 1.391 . S
C2584 C2586 1.394 . S
C2584 H2600 0.931 . S
C2585 C2584 1.391 . S
C2585 C2589 1.376 . S
C2586 C2584 1.394 . S
C2586 C2587 1.369 . S
C2586 C2590 1.531 . S
C2587 C2586 1.369 . S
C2587 C2588 1.410 . S
C2587 C2595 1.503 . S
C2588 C2587 1.410 . S
C2588 C2589 1.392 . S
C2588 C2591 1.511 . S
C2589 C2585 1.376 . S
C2589 C2588 1.392 . S
C2589 H2601 0.929 . S
C2590 C2586 1.531 . S
C2590 H2602 0.960 . S
C2590 H2603 0.962 . S
C2590 H2604 0.960 . S
C2591 C2588 1.511 . S
C2591 H2605 0.961 . S
C2591 H2606 0.961 . S
C2591 H2607 0.961 . S
C2592 C2593 1.370 . S
C2592 C2594 1.363 . S
C2592 H2608 0.931 . S
C2593 C2592 1.370 . S
C2593 C2597 1.408 . S
C2594 C2592 1.363 . S
C2594 C2595 1.370 . S
C2594 C2598 1.524 . S
C2595 C2587 1.503 . S
C2595 C2594 1.370 . S
C2595 C2596 1.403 . S
C2596 C2595 1.403 . S
C2596 C2597 1.404 . S
C2596 C2599 1.539 . S
C2597 C2593 1.408 . S
C2597 C2596 1.404 . S
C2597 H2609 0.930 . S
C2598 C2594 1.524 . S
C2598 H2610 0.956 . S
C2598 H2611 0.961 . S
C2598 H2612 0.961 . S
C2599 C2596 1.539 . S
C2599 H2613 0.958 . S
C2599 H2614 0.961 . S
C2599 H2615 0.960 . S
H2600 C2584 0.931 . S
H2601 C2589 0.929 . S
H2602 C2590 0.960 . S
H2603 C2590 0.962 . S
H2604 C2590 0.960 . S
H2605 C2591 0.961 . S
H2606 C2591 0.961 . S
H2607 C2591 0.961 . S
H2608 C2592 0.931 . S
H2609 C2597 0.930 . S
H2610 C2598 0.956 . S
H2611 C2598 0.961 . S
H2612 C2598 0.961 . S
H2613 C2599 0.958 . S
H2614 C2599 0.961 . S
H2615 C2599 0.960 . S
C2616 C2617 1.391 . S
C2616 C2618 1.394 . S
C2616 H2632 0.931 . S
C2617 C2616 1.391 . S
C2617 C2621 1.376 . S
C2618 C2616 1.394 . S
C2618 C2619 1.369 . S
C2618 C2622 1.531 . S
C2619 C2618 1.369 . S
C2619 C2620 1.410 . S
C2619 C2627 1.503 . S
C2620 C2619 1.410 . S
C2620 C2621 1.392 . S
C2620 C2623 1.511 . S
C2621 C2617 1.376 . S
C2621 C2620 1.392 . S
C2621 H2633 0.929 . S
C2622 C2618 1.531 . S
C2622 H2634 0.960 . S
C2622 H2635 0.962 . S
C2622 H2636 0.960 . S
C2623 C2620 1.511 . S
C2623 H2637 0.961 . S
C2623 H2638 0.961 . S
C2623 H2639 0.961 . S
C2624 C2625 1.370 . S
C2624 C2626 1.363 . S
C2624 H2640 0.931 . S
C2625 C2624 1.370 . S
C2625 C2629 1.408 . S
C2626 C2624 1.363 . S
C2626 C2627 1.370 . S
C2626 C2630 1.524 . S
C2627 C2619 1.503 . S
C2627 C2626 1.370 . S
C2627 C2628 1.403 . S
C2628 C2627 1.403 . S
C2628 C2629 1.404 . S
C2628 C2631 1.539 . S
C2629 C2625 1.408 . S
C2629 C2628 1.404 . S
C2629 H2641 0.930 . S
C2630 C2626 1.524 . S
C2630 H2642 0.956 . S
C2630 H2643 0.961 . S
C2630 H2644 0.961 . S
C2631 C2628 1.539 . S
C2631 H2645 0.958 . S
C2631 H2646 0.961 . S
C2631 H2647 0.960 . S
H2632 C2616 0.931 . S
H2633 C2621 0.929 . S
H2634 C2622 0.960 . S
H2635 C2622 0.962 . S
H2636 C2622 0.960 . S
H2637 C2623 0.961 . S
H2638 C2623 0.961 . S
H2639 C2623 0.961 . S
H2640 C2624 0.931 . S
H2641 C2629 0.930 . S
H2642 C2630 0.956 . S
H2643 C2630 0.961 . S
H2644 C2630 0.961 . S
H2645 C2631 0.958 . S
H2646 C2631 0.961 . S
H2647 C2631 0.960 . S
C2648 C2649 1.391 . S
C2648 C2650 1.394 . S
C2648 H2664 0.931 . S
C2649 C2648 1.391 . S
C2649 C2653 1.376 . S
C2650 C2648 1.394 . S
C2650 C2651 1.369 . S
C2650 C2654 1.531 . S
C2651 C2650 1.369 . S
C2651 C2652 1.410 . S
C2651 C2659 1.503 . S
C2652 C2651 1.410 . S
C2652 C2653 1.392 . S
C2652 C2655 1.511 . S
C2653 C2649 1.376 . S
C2653 C2652 1.392 . S
C2653 H2665 0.929 . S
C2654 C2650 1.531 . S
C2654 H2666 0.960 . S
C2654 H2667 0.962 . S
C2654 H2668 0.960 . S
C2655 C2652 1.511 . S
C2655 H2669 0.961 . S
C2655 H2670 0.961 . S
C2655 H2671 0.961 . S
C2656 C2657 1.370 . S
C2656 C2658 1.363 . S
C2656 H2672 0.931 . S
C2657 C2656 1.370 . S
C2657 C2661 1.408 . S
C2658 C2656 1.363 . S
C2658 C2659 1.370 . S
C2658 C2662 1.524 . S
C2659 C2651 1.503 . S
C2659 C2658 1.370 . S
C2659 C2660 1.403 . S
C2660 C2659 1.403 . S
C2660 C2661 1.404 . S
C2660 C2663 1.539 . S
C2661 C2657 1.408 . S
C2661 C2660 1.404 . S
C2661 H2673 0.930 . S
C2662 C2658 1.524 . S
C2662 H2674 0.956 . S
C2662 H2675 0.961 . S
C2662 H2676 0.961 . S
C2663 C2660 1.539 . S
C2663 H2677 0.958 . S
C2663 H2678 0.961 . S
C2663 H2679 0.960 . S
H2664 C2648 0.931 . S
H2665 C2653 0.929 . S
H2666 C2654 0.960 . S
H2667 C2654 0.962 . S
H2668 C2654 0.960 . S
H2669 C2655 0.961 . S
H2670 C2655 0.961 . S
H2671 C2655 0.961 . S
H2672 C2656 0.931 . S
H2673 C2661 0.930 . S
H2674 C2662 0.956 . S
H2675 C2662 0.961 . S
H2676 C2662 0.961 . S
H2677 C2663 0.958 . S
H2678 C2663 0.961 . S
H2679 C2663 0.960 . S
C2680 C2681 1.391 . S
C2680 C2682 1.394 . S
C2680 H2696 0.931 . S
C2681 C2680 1.391 . S
C2681 C2685 1.376 . S
C2682 C2680 1.394 . S
C2682 C2683 1.369 . S
C2682 C2686 1.531 . S
C2683 C2682 1.369 . S
C2683 C2684 1.410 . S
C2683 C2691 1.503 . S
C2684 C2683 1.410 . S
C2684 C2685 1.392 . S
C2684 C2687 1.511 . S
C2685 C2681 1.376 . S
C2685 C2684 1.392 . S
C2685 H2697 0.929 . S
C2686 C2682 1.531 . S
C2686 H2698 0.960 . S
C2686 H2699 0.962 . S
C2686 H2700 0.960 . S
C2687 C2684 1.511 . S
C2687 H2701 0.961 . S
C2687 H2702 0.961 . S
C2687 H2703 0.961 . S
C2688 C2689 1.370 . S
C2688 C2690 1.363 . S
C2688 H2704 0.931 . S
C2689 C2688 1.370 . S
C2689 C2693 1.408 . S
C2690 C2688 1.363 . S
C2690 C2691 1.370 . S
C2690 C2694 1.524 . S
C2691 C2683 1.503 . S
C2691 C2690 1.370 . S
C2691 C2692 1.403 . S
C2692 C2691 1.403 . S
C2692 C2693 1.404 . S
C2692 C2695 1.539 . S
C2693 C2689 1.408 . S
C2693 C2692 1.404 . S
C2693 H2705 0.930 . S
C2694 C2690 1.524 . S
C2694 H2706 0.956 . S
C2694 H2707 0.961 . S
C2694 H2708 0.961 . S
C2695 C2692 1.539 . S
C2695 H2709 0.958 . S
C2695 H2710 0.961 . S
C2695 H2711 0.960 . S
H2696 C2680 0.931 . S
H2697 C2685 0.929 . S
H2698 C2686 0.960 . S
H2699 C2686 0.962 . S
H2700 C2686 0.960 . S
H2701 C2687 0.961 . S
H2702 C2687 0.961 . S
H2703 C2687 0.961 . S
H2704 C2688 0.931 . S
H2705 C2693 0.930 . S
H2706 C2694 0.956 . S
H2707 C2694 0.961 . S
H2708 C2694 0.961 . S
H2709 C2695 0.958 . S
H2710 C2695 0.961 . S
H2711 C2695 0.960 . S
C2712 C2713 1.391 . S
C2712 C2714 1.394 . S
C2712 H2728 0.931 . S
C2713 C2712 1.391 . S
C2713 C2717 1.376 . S
C2714 C2712 1.394 . S
C2714 C2715 1.369 . S
C2714 C2718 1.531 . S
C2715 C2714 1.369 . S
C2715 C2716 1.410 . S
C2715 C2723 1.503 . S
C2716 C2715 1.410 . S
C2716 C2717 1.392 . S
C2716 C2719 1.511 . S
C2717 C2713 1.376 . S
C2717 C2716 1.392 . S
C2717 H2729 0.929 . S
C2718 C2714 1.531 . S
C2718 H2730 0.960 . S
C2718 H2731 0.962 . S
C2718 H2732 0.960 . S
C2719 C2716 1.511 . S
C2719 H2733 0.961 . S
C2719 H2734 0.961 . S
C2719 H2735 0.961 . S
C2720 C2721 1.370 . S
C2720 C2722 1.363 . S
C2720 H2736 0.931 . S
C2721 C2720 1.370 . S
C2721 C2725 1.408 . S
C2722 C2720 1.363 . S
C2722 C2723 1.370 . S
C2722 C2726 1.524 . S
C2723 C2715 1.503 . S
C2723 C2722 1.370 . S
C2723 C2724 1.403 . S
C2724 C2723 1.403 . S
C2724 C2725 1.404 . S
C2724 C2727 1.539 . S
C2725 C2721 1.408 . S
C2725 C2724 1.404 . S
C2725 H2737 0.930 . S
C2726 C2722 1.524 . S
C2726 H2738 0.956 . S
C2726 H2739 0.961 . S
C2726 H2740 0.961 . S
C2727 C2724 1.539 . S
C2727 H2741 0.958 . S
C2727 H2742 0.961 . S
C2727 H2743 0.960 . S
H2728 C2712 0.931 . S
H2729 C2717 0.929 . S
H2730 C2718 0.960 . S
H2731 C2718 0.962 . S
H2732 C2718 0.960 . S
H2733 C2719 0.961 . S
H2734 C2719 0.961 . S
H2735 C2719 0.961 . S
H2736 C2720 0.931 . S
H2737 C2725 0.930 . S
H2738 C2726 0.956 . S
H2739 C2726 0.961 . S
H2740 C2726 0.961 . S
H2741 C2727 0.958 . S
H2742 C2727 0.961 . S
H2743 C2727 0.960 . S
C2744 C2745 1.391 . S
C2744 C2746 1.394 . S
C2744 H2760 0.931 . S
C2745 C2744 1.391 . S
C2745 C2749 1.376 . S
C2746 C2744 1.394 . S
C2746 C2747 1.369 . S
C2746 C2750 1.531 . S
C2747 C2746 1.369 . S
C2747 C2748 1.410 . S
C2747 C2755 1.503 . S
C2748 C2747 1.410 . S
C2748 C2749 1.392 . S
C2748 C2751 1.511 . S
C2749 C2745 1.376 . S
C2749 C2748 1.392 . S
C2749 H2761 0.929 . S
C2750 C2746 1.531 . S
C2750 H2762 0.960 . S
C2750 H2763 0.962 . S
C2750 H2764 0.960 . S
C2751 C2748 1.511 . S
C2751 H2765 0.961 . S
C2751 H2766 0.961 . S
C2751 H2767 0.961 . S
C2752 C2753 1.370 . S
C2752 C2754 1.363 . S
C2752 H2768 0.931 . S
C2753 C2752 1.370 . S
C2753 C2757 1.408 . S
C2754 C2752 1.363 . S
C2754 C2755 1.370 . S
C2754 C2758 1.524 . S
C2755 C2747 1.503 . S
C2755 C2754 1.370 . S
C2755 C2756 1.403 . S
C2756 C2755 1.403 . S
C2756 C2757 1.404 . S
C2756 C2759 1.539 . S
C2757 C2753 1.408 . S
C2757 C2756 1.404 . S
C2757 H2769 0.930 . S
C2758 C2754 1.524 . S
C2758 H2770 0.956 . S
C2758 H2771 0.961 . S
C2758 H2772 0.961 . S
C2759 C2756 1.539 . S
C2759 H2773 0.958 . S
C2759 H2774 0.961 . S
C2759 H2775 0.960 . S
H2760 C2744 0.931 . S
H2761 C2749 0.929 . S
H2762 C2750 0.960 . S
H2763 C2750 0.962 . S
H2764 C2750 0.960 . S
H2765 C2751 0.961 . S
H2766 C2751 0.961 . S
H2767 C2751 0.961 . S
H2768 C2752 0.931 . S
H2769 C2757 0.930 . S
H2770 C2758 0.956 . S
H2771 C2758 0.961 . S
H2772 C2758 0.961 . S
H2773 C2759 0.958 . S
H2774 C2759 0.961 . S
H2775 C2759 0.960 . S
C2776 C2777 1.391 . S
C2776 C2778 1.394 . S
C2776 H2792 0.931 . S
C2777 C2776 1.391 . S
C2777 C2781 1.376 . S
C2778 C2776 1.394 . S
C2778 C2779 1.369 . S
C2778 C2782 1.531 . S
C2779 C2778 1.369 . S
C2779 C2780 1.410 . S
C2779 C2787 1.503 . S
C2780 C2779 1.410 . S
C2780 C2781 1.392 . S
C2780 C2783 1.511 . S
C2781 C2777 1.376 . S
C2781 C2780 1.392 . S
C2781 H2793 0.929 . S
C2782 C2778 1.531 . S
C2782 H2794 0.960 . S
C2782 H2795 0.962 . S
C2782 H2796 0.960 . S
C2783 C2780 1.511 . S
C2783 H2797 0.961 . S
C2783 H2798 0.961 . S
C2783 H2799 0.961 . S
C2784 C2785 1.370 . S
C2784 C2786 1.363 . S
C2784 H2800 0.931 . S
C2785 C2784 1.370 . S
C2785 C2789 1.408 . S
C2786 C2784 1.363 . S
C2786 C2787 1.370 . S
C2786 C2790 1.524 . S
C2787 C2779 1.503 . S
C2787 C2786 1.370 . S
C2787 C2788 1.403 . S
C2788 C2787 1.403 . S
C2788 C2789 1.404 . S
C2788 C2791 1.539 . S
C2789 C2785 1.408 . S
C2789 C2788 1.404 . S
C2789 H2801 0.930 . S
C2790 C2786 1.524 . S
C2790 H2802 0.956 . S
C2790 H2803 0.961 . S
C2790 H2804 0.961 . S
C2791 C2788 1.539 . S
C2791 H2805 0.958 . S
C2791 H2806 0.961 . S
C2791 H2807 0.960 . S
H2792 C2776 0.931 . S
H2793 C2781 0.929 . S
H2794 C2782 0.960 . S
H2795 C2782 0.962 . S
H2796 C2782 0.960 . S
H2797 C2783 0.961 . S
H2798 C2783 0.961 . S
H2799 C2783 0.961 . S
H2800 C2784 0.931 . S
H2801 C2789 0.930 . S
H2802 C2790 0.956 . S
H2803 C2790 0.961 . S
H2804 C2790 0.961 . S
H2805 C2791 0.958 . S
H2806 C2791 0.961 . S
H2807 C2791 0.960 . S
C505 C7 1.410 . S
C513 C259 1.393 . S
C537 C273 1.409 . S
C545 C21 1.397 . S
C569 C287 1.401 . S
C577 C35 1.401 . S
C601 C49 1.404 . S
C609 C469 1.395 . S
C633 C63 1.417 . S
C641 C483 1.393 . S
C665 C77 1.408 . S
C673 C497 1.394 . S
C697 C343 1.402 . S
C705 C91 1.396 . S
C729 C105 1.415 . S
C737 C357 1.394 . S
C761 C119 1.370 . S
C769 C371 1.412 . S
C793 C217 1.393 . S
C801 C133 1.400 . S
C825 C231 1.371 . S
C833 C147 1.411 . S
C857 C245 1.422 . S
C865 C161 1.390 . S
C889 C427 1.376 . S
C897 C175 1.410 . S
C921 C441 1.391 . S
C929 C189 1.401 . S
C953 C203 1.406 . S
C961 C455 1.399 . S
C985 C385 1.417 . S
C993 C301 1.393 . S
C1017 C315 1.383 . S
C1025 C399 1.404 . S
C1049 C329 1.389 . S
C1057 C413 1.405 . S
C1081 C8 1.392 . S
C1089 C386 1.404 . S
C1113 C400 1.394 . S
C1121 C22 1.404 . S
C1145 C414 1.392 . S
C1153 C36 1.405 . S
C1177 C176 1.419 . S
C1185 C50 1.413 . S
C1209 C190 1.420 . S
C1217 C64 1.410 . S
C1241 C204 1.398 . S
C1249 C78 1.403 . S
C1273 C92 1.395 . S
C1281 C302 1.414 . S
C1305 C316 1.396 . S
C1313 C106 1.404 . S
C1337 C330 1.414 . S
C1345 C120 1.414 . S
C1369 C134 1.411 . S
C1377 C428 1.403 . S
C1401 C148 1.418 . S
C1409 C442 1.405 . S
C1433 C162 1.402 . S
C1441 C456 1.415 . S
C1465 C218 1.397 . S
C1473 C344 1.413 . S
C1497 C232 1.420 . S
C1505 C358 1.413 . S
C1529 C246 1.399 . S
C1537 C372 1.403 . S
C1561 C260 1.390 . S
C1569 C470 1.411 . S
C1593 C484 1.408 . S
C1601 C274 1.403 . S
C1625 C288 1.414 . S
C1633 C498 1.414 . S
C1657 C17 1.035 . S
C1665 C9 1.002 . S
C1689 C23 0.957 . S
C1697 C31 1.076 . S
C1721 C37 1.019 . S
C1729 C3 1.074 . S
C1753 C51 1.047 . S
C1761 C73 1.049 . S
C1785 C45 1.091 . S
C1793 C65 0.987 . S
C1817 C79 1.028 . S
C1825 C59 1.073 . S
C1849 C93 0.942 . S
C1857 C101 1.063 . S
C1881 C107 1.060 . S
C1889 C115 1.053 . S
C1913 C121 1.061 . S
C1921 C87 1.068 . S
C1945 C157 1.086 . S
C1953 C135 1.022 . S
C1977 C149 1.068 . S
C1985 C129 1.058 . S
C2009 C143 1.032 . S
C2017 C163 1.026 . S
C2041 C185 1.049 . S
C2049 C177 1.035 . S
C2073 C199 1.093 . S
C2081 C191 0.990 . S
C2105 C171 1.080 . S
C2113 C205 0.982 . S
C2137 C219 1.068 . S
C2145 C241 1.053 . S
C2169 C233 1.067 . S
C2177 C213 1.053 . S
C2201 C247 0.942 . S
C2209 C227 1.070 . S
C2233 C269 1.040 . S
C2241 C261 1.031 . S
C2265 C275 0.955 . S
C2273 C283 1.056 . S
C2297 C289 0.976 . S
C2305 C255 1.052 . S
C2329 C303 0.947 . S
C2337 C325 1.070 . S
C2361 C317 1.060 . S
C2369 C297 1.053 . S
C2393 C311 1.039 . S
C2401 C331 1.031 . S
C2425 C353 1.044 . S
C2433 C345 1.035 . S
C2457 C359 0.989 . S
C2465 C367 1.053 . S
C2489 C339 1.093 . S
C2497 C373 0.992 . S
C2521 C387 0.982 . S
C2529 C409 1.054 . S
C2553 C401 1.013 . S
C2561 C381 1.050 . S
C2585 C415 0.948 . S
C2593 C395 1.063 . S
C2617 C429 0.953 . S
C2625 C437 1.072 . S
C2649 C443 1.062 . S
C2657 C451 1.054 . S
C2681 C457 0.969 . S
C2689 C423 1.053 . S
C2713 C471 0.944 . S
C2721 C493 1.069 . S
C2745 C485 1.069 . S
C2753 C465 1.062 . S
C2777 C479 1.085 . S
C2785 C499 1.024 . S
