# Generated by pormake.
# Topology wiv, (6)-cn, num edge types: 1
# Building blocks:
#     Node 0, Type 0, BuildingBlock: HISSIN_clean_sbu_0, # of connection points: 6
#     Node 1, Type 0, BuildingBlock: HISSIN_clean_sbu_0, # of connection points: 6
#     Node 2, Type 0, BuildingBlock: HISSIN_clean_sbu_0, # of connection points: 6
#     Node 3, Type 0, BuildingBlock: HISSIN_clean_sbu_0, # of connection points: 6
#     Node 4, Type 0, BuildingBlock: HISSIN_clean_sbu_0, # of connection points: 6
#     Node 5, Type 0, BuildingBlock: HISSIN_clean_sbu_0, # of connection points: 6
#     Node 6, Type 0, BuildingBlock: HISSIN_clean_sbu_0, # of connection points: 6
#     Node 7, Type 0, BuildingBlock: HISSIN_clean_sbu_0, # of connection points: 6
#     Node 8, Type 0, BuildingBlock: HISSIN_clean_sbu_0, # of connection points: 6
#     Node 9, Type 0, BuildingBlock: HISSIN_clean_sbu_0, # of connection points: 6
#     Node 10, Type 0, BuildingBlock: HISSIN_clean_sbu_0, # of connection points: 6
#     Node 11, Type 0, BuildingBlock: HISSIN_clean_sbu_0, # of connection points: 6
#     Node 12, Type 0, BuildingBlock: HISSIN_clean_sbu_0, # of connection points: 6
#     Node 13, Type 0, BuildingBlock: HISSIN_clean_sbu_0, # of connection points: 6
#     Node 14, Type 0, BuildingBlock: HISSIN_clean_sbu_0, # of connection points: 6
#     Node 15, Type 0, BuildingBlock: HISSIN_clean_sbu_0, # of connection points: 6
#     Edge 16, Type (0, 0), BuildingBlock: CIFDUS_clean_linker_0, # of connection points: 2
#     Edge 17, Type (0, 0), BuildingBlock: CIFDUS_clean_linker_0, # of connection points: 2
#     Edge 18, Type (0, 0), BuildingBlock: CIFDUS_clean_linker_0, # of connection points: 2
#     Edge 19, Type (0, 0), BuildingBlock: CIFDUS_clean_linker_0, # of connection points: 2
#     Edge 20, Type (0, 0), BuildingBlock: CIFDUS_clean_linker_0, # of connection points: 2
#     Edge 21, Type (0, 0), BuildingBlock: CIFDUS_clean_linker_0, # of connection points: 2
#     Edge 22, Type (0, 0), BuildingBlock: CIFDUS_clean_linker_0, # of connection points: 2
#     Edge 23, Type (0, 0), BuildingBlock: CIFDUS_clean_linker_0, # of connection points: 2
#     Edge 24, Type (0, 0), BuildingBlock: CIFDUS_clean_linker_0, # of connection points: 2
#     Edge 25, Type (0, 0), BuildingBlock: CIFDUS_clean_linker_0, # of connection points: 2
#     Edge 26, Type (0, 0), BuildingBlock: CIFDUS_clean_linker_0, # of connection points: 2
#     Edge 27, Type (0, 0), BuildingBlock: CIFDUS_clean_linker_0, # of connection points: 2
#     Edge 28, Type (0, 0), BuildingBlock: CIFDUS_clean_linker_0, # of connection points: 2
#     Edge 29, Type (0, 0), BuildingBlock: CIFDUS_clean_linker_0, # of connection points: 2
#     Edge 30, Type (0, 0), BuildingBlock: CIFDUS_clean_linker_0, # of connection points: 2
#     Edge 31, Type (0, 0), BuildingBlock: CIFDUS_clean_linker_0, # of connection points: 2
#     Edge 32, Type (0, 0), BuildingBlock: CIFDUS_clean_linker_0, # of connection points: 2
#     Edge 33, Type (0, 0), BuildingBlock: CIFDUS_clean_linker_0, # of connection points: 2
#     Edge 34, Type (0, 0), BuildingBlock: CIFDUS_clean_linker_0, # of connection points: 2
#     Edge 35, Type (0, 0), BuildingBlock: CIFDUS_clean_linker_0, # of connection points: 2
#     Edge 36, Type (0, 0), BuildingBlock: CIFDUS_clean_linker_0, # of connection points: 2
#     Edge 37, Type (0, 0), BuildingBlock: CIFDUS_clean_linker_0, # of connection points: 2
#     Edge 38, Type (0, 0), BuildingBlock: CIFDUS_clean_linker_0, # of connection points: 2
#     Edge 39, Type (0, 0), BuildingBlock: CIFDUS_clean_linker_0, # of connection points: 2
#     Edge 40, Type (0, 0), BuildingBlock: CIFDUS_clean_linker_0, # of connection points: 2
#     Edge 41, Type (0, 0), BuildingBlock: CIFDUS_clean_linker_0, # of connection points: 2
#     Edge 42, Type (0, 0), BuildingBlock: CIFDUS_clean_linker_0, # of connection points: 2
#     Edge 43, Type (0, 0), BuildingBlock: CIFDUS_clean_linker_0, # of connection points: 2
#     Edge 44, Type (0, 0), BuildingBlock: CIFDUS_clean_linker_0, # of connection points: 2
#     Edge 45, Type (0, 0), BuildingBlock: CIFDUS_clean_linker_0, # of connection points: 2
#     Edge 46, Type (0, 0), BuildingBlock: CIFDUS_clean_linker_0, # of connection points: 2
#     Edge 47, Type (0, 0), BuildingBlock: CIFDUS_clean_linker_0, # of connection points: 2
#     Edge 48, Type (0, 0), BuildingBlock: CIFDUS_clean_linker_0, # of connection points: 2
#     Edge 49, Type (0, 0), BuildingBlock: CIFDUS_clean_linker_0, # of connection points: 2
#     Edge 50, Type (0, 0), BuildingBlock: CIFDUS_clean_linker_0, # of connection points: 2
#     Edge 51, Type (0, 0), BuildingBlock: CIFDUS_clean_linker_0, # of connection points: 2
#     Edge 52, Type (0, 0), BuildingBlock: CIFDUS_clean_linker_0, # of connection points: 2
#     Edge 53, Type (0, 0), BuildingBlock: CIFDUS_clean_linker_0, # of connection points: 2
#     Edge 54, Type (0, 0), BuildingBlock: CIFDUS_clean_linker_0, # of connection points: 2
#     Edge 55, Type (0, 0), BuildingBlock: CIFDUS_clean_linker_0, # of connection points: 2
#     Edge 56, Type (0, 0), BuildingBlock: CIFDUS_clean_linker_0, # of connection points: 2
#     Edge 57, Type (0, 0), BuildingBlock: CIFDUS_clean_linker_0, # of connection points: 2
#     Edge 58, Type (0, 0), BuildingBlock: CIFDUS_clean_linker_0, # of connection points: 2
#     Edge 59, Type (0, 0), BuildingBlock: CIFDUS_clean_linker_0, # of connection points: 2
#     Edge 60, Type (0, 0), BuildingBlock: CIFDUS_clean_linker_0, # of connection points: 2
#     Edge 61, Type (0, 0), BuildingBlock: CIFDUS_clean_linker_0, # of connection points: 2
#     Edge 62, Type (0, 0), BuildingBlock: CIFDUS_clean_linker_0, # of connection points: 2
#     Edge 63, Type (0, 0), BuildingBlock: CIFDUS_clean_linker_0, # of connection points: 2
# Relax obj value: 0.141
# Max RMSD: 0.197
# Mean RMSD: 0.197
data_MOF--net-wiv--node1-HISSIN_clean_sbu_0--edge1-CIFDUS_clean_linker_0
_symmetry_space_group_name_H-M    P1
_symmetry_Int_Tables_number       1
_symmetry_cell_setting            triclinic
loop_
_symmetry_equiv_pos_as_xyz
'x, y, z'
_cell_length_a     44.041333
_cell_length_b     43.978166
_cell_length_c     23.013775
_cell_angle_alpha  90.088607
_cell_angle_beta   89.938085
_cell_angle_gamma 89.800331
loop_
_atom_site_label
_atom_site_type_symbol
_atom_site_fract_x
_atom_site_fract_y
_atom_site_fract_z
_atom_type_partial_charge
Eu0 Eu 0.32841 0.10348 0.18161 0.0
Eu1 Eu 0.37532 0.10263 0.0691 0.0
C2 C 0.36274 0.04344 0.14476 0.0
C3 C 0.30372 0.10746 0.33789 0.0
C4 C 0.28837 0.09221 0.3826 0.0
C5 C 0.33929 0.1273 0.40939 0.0
C6 C 0.29865 0.09411 0.44024 0.0
C7 C 0.32908 0.12528 0.35193 0.0
C8 C 0.32466 0.11123 0.45433 0.0
C9 C 0.29545 0.10215 0.27638 0.0
O10 O 0.32989 0.08573 0.03851 0.0
O11 O 0.29941 0.1121 0.10087 0.0
C12 C 0.30403 0.09923 0.04972 0.0
O13 O 0.34867 0.15008 0.17717 0.0
O14 O 0.39832 0.07775 0.99959 0.0
O15 O 0.3995 0.12684 0.99983 0.0
O16 O 0.35547 0.15016 0.07897 0.0
C17 C 0.35276 0.16489 0.12856 0.0
O18 O 0.37549 0.10162 0.22057 0.0
O19 O 0.40669 0.11487 0.14377 0.0
O20 O 0.38424 0.05951 0.12 0.0
O21 O 0.29653 0.12555 0.24157 0.0
O22 O 0.30775 0.0781 0.25291 0.0
O23 O 0.33557 0.05516 0.15221 0.0
C24 C 0.39291 0.10258 0.90852 0.0
C25 C 0.40606 0.12202 0.86724 0.0
C26 C 0.35672 0.08594 0.83497 0.0
C27 C 0.39455 0.12351 0.81037 0.0
C28 C 0.36819 0.08445 0.89159 0.0
C29 C 0.3695 0.10568 0.79367 0.0
C30 C 0.40407 0.10217 0.96945 0.0
C31 C 0.4021 0.10998 0.19981 0.0
H32 H 0.26896 0.07805 0.37269 0.0
H33 H 0.35899 0.14119 0.41838 0.0
H34 H 0.28689 0.08119 0.47327 0.0
H35 H 0.34152 0.13705 0.31818 0.0
H36 H 0.42502 0.13635 0.87919 0.0
H37 H 0.33794 0.07139 0.82331 0.0
H38 H 0.40486 0.1391 0.77985 0.0
H39 H 0.35757 0.06915 0.92223 0.0
Eu40 Eu 0.10371 0.62784 0.99142 0.0
Eu41 Eu 0.10347 0.67344 0.8781 0.0
C42 C 0.16558 0.6516 0.93393 0.0
C43 C 0.10746 0.60812 0.15072 0.0
C44 C 0.12829 0.6311 0.16484 0.0
C45 C 0.09122 0.60694 0.25177 0.0
C46 C 0.13066 0.6418 0.22199 0.0
C47 C 0.08908 0.59606 0.1947 0.0
C48 C 0.11196 0.63008 0.2663 0.0
C49 C 0.10305 0.59829 0.08983 0.0
O50 O 0.1017 0.62568 0.83988 0.0
O51 O 0.11837 0.59725 0.91801 0.0
C52 C 0.11254 0.60022 0.86214 0.0
O53 O 0.0613 0.61702 0.93932 0.0
O54 O 0.12601 0.70049 0.81083 0.0
O55 O 0.07707 0.6983 0.81353 0.0
O56 O 0.0557 0.66561 0.90843 0.0
C57 C 0.04476 0.63816 0.91429 0.0
O58 O 0.08783 0.67363 1.02203 0.0
O59 O 0.11173 0.70427 0.95657 0.0
O60 O 0.15074 0.65508 0.8852 0.0
O61 O 0.07864 0.60869 0.06464 0.0
O62 O 0.12671 0.59941 0.05565 0.0
O63 O 0.15092 0.64839 0.98348 0.0
C64 C 0.10051 0.69554 0.72091 0.0
C65 C 0.08029 0.67296 0.70176 0.0
C66 C 0.12325 0.69625 0.62437 0.0
C67 C 0.08162 0.66209 0.64474 0.0
C68 C 0.12185 0.70722 0.68156 0.0
C69 C 0.10335 0.67329 0.60542 0.0
C70 C 0.10083 0.70531 0.78254 0.0
C71 C 0.1001 0.69975 1.00872 0.0
H72 H 0.14247 0.64113 0.13154 0.0
H73 H 0.07595 0.59774 0.28411 0.0
H74 H 0.14716 0.65933 0.23126 0.0
H75 H 0.07253 0.57866 0.18464 0.0
H76 H 0.06369 0.66324 0.73104 0.0
H77 H 0.14046 0.70521 0.59553 0.0
H78 H 0.06559 0.6448 0.63154 0.0
H79 H 0.13787 0.7244 0.6954 0.0
Eu80 Eu 0.68262 0.90612 0.19255 0.0
Eu81 Eu 0.63515 0.91141 0.08036 0.0
C82 C 0.65556 0.96866 0.15579 0.0
C83 C 0.70542 0.90392 0.35166 0.0
C84 C 0.68209 0.92239 0.37453 0.0
C85 C 0.71322 0.88289 0.4486 0.0
C86 C 0.6747 0.92138 0.43378 0.0
C87 C 0.72064 0.88394 0.38925 0.0
C88 C 0.69033 0.90181 0.4719 0.0
C89 C 0.71404 0.90553 0.28916 0.0
O90 O 0.68189 0.92025 0.04528 0.0
O91 O 0.71277 0.89731 0.11293 0.0
C92 C 0.7079 0.90784 0.05982 0.0
O93 O 0.66029 0.86064 0.1841 0.0
O94 O 0.61729 0.93962 1.00997 0.0
O95 O 0.60446 0.89227 1.01518 0.0
O96 O 0.65091 0.86214 0.08646 0.0
C97 C 0.65441 0.84672 0.1351 0.0
O98 O 0.63576 0.91352 0.231 0.0
O99 O 0.60372 0.90065 0.15557 0.0
O100 O 0.63169 0.95512 0.1335 0.0
O101 O 0.70955 0.88127 0.25758 0.0
O102 O 0.70633 0.93026 0.26162 0.0
O103 O 0.68129 0.95379 0.15838 0.0
C104 C 0.61158 0.91351 0.92073 0.0
C105 C 0.63443 0.89353 0.90118 0.0
C106 C 0.60355 0.92965 0.82063 0.0
C107 C 0.64171 0.89159 0.84179 0.0
C108 C 0.59631 0.93156 0.87988 0.0
C109 C 0.62632 0.9096 0.80053 0.0
C110 C 0.60433 0.91689 0.98346 0.0
C111 C 0.60869 0.90607 0.21121 0.0
H112 H 0.66966 0.9379 0.34672 0.0
H113 H 0.72537 0.8671 0.47623 0.0
H114 H 0.65712 0.93648 0.4499 0.0
H115 H 0.73842 0.8692 0.37274 0.0
H116 H 0.64673 0.87948 0.93185 0.0
H117 H 0.59152 0.9443 0.79062 0.0
H118 H 0.65912 0.87566 0.82815 0.0
H119 H 0.57887 0.9474 0.89389 0.0
Eu120 Eu 0.90631 0.3834 0.99926 0.0
Eu121 Eu 0.90686 0.33766 0.88506 0.0
C122 C 0.84431 0.35964 0.94118 0.0
C123 C 0.90303 0.40427 0.15817 0.0
C124 C 0.8866 0.37788 0.17158 0.0
C125 C 0.91477 0.41041 0.26082 0.0
C126 C 0.88434 0.36778 0.22909 0.0
C127 C 0.91699 0.42051 0.20321 0.0
C128 C 0.89858 0.38378 0.27453 0.0
C129 C 0.90732 0.41371 0.09712 0.0
O130 O 0.90826 0.38566 0.84763 0.0
O131 O 0.89104 0.41373 0.92603 0.0
C132 C 0.89696 0.41094 0.8701 0.0
O133 O 0.94857 0.39442 0.94612 0.0
O134 O 0.88455 0.31164 0.81589 0.0
O135 O 0.93344 0.31271 0.82058 0.0
O136 O 0.95456 0.34595 0.9148 0.0
C137 C 0.96515 0.37355 0.92013 0.0
O138 O 0.92059 0.33747 0.03218 0.0
O139 O 0.8997 0.30621 0.96336 0.0
O140 O 0.8593 0.35522 0.89279 0.0
O141 O 0.9316 0.40299 0.07178 0.0
O142 O 0.88353 0.41221 0.06344 0.0
O143 O 0.85872 0.36361 0.99082 0.0
C144 C 0.91146 0.31556 0.72716 0.0
C145 C 0.92594 0.3428 0.7116 0.0
C146 C 0.89915 0.3071 0.62524 0.0
C147 C 0.92736 0.35189 0.65347 0.0
C148 C 0.89788 0.29792 0.68358 0.0
C149 C 0.91412 0.33412 0.60941 0.0
C150 C 0.90994 0.30604 0.78874 0.0
C151 C 0.91002 0.31088 1.01664 0.0
H152 H 0.87591 0.36477 0.13741 0.0
H153 H 0.92565 0.42359 0.29464 0.0
H154 H 0.87198 0.34703 0.2377 0.0
H155 H 0.92991 0.44083 0.19377 0.0
H156 H 0.93614 0.35717 0.74445 0.0
H157 H 0.88882 0.29282 0.59245 0.0
H158 H 0.93855 0.3731 0.64312 0.0
H159 H 0.88629 0.27703 0.69468 0.0
Eu160 Eu 0.33673 0.40671 0.12874 0.0
Eu161 Eu 0.38242 0.40657 0.24359 0.0
C162 C 0.37084 0.46555 0.16563 0.0
C163 C 0.31362 0.40568 0.97011 0.0
C164 C 0.34233 0.41499 0.95025 0.0
C165 C 0.3008 0.3906 0.87126 0.0
C166 C 0.35008 0.41241 0.89145 0.0
C167 C 0.29295 0.39342 0.93015 0.0
C168 C 0.32942 0.4002 0.85113 0.0
C169 C 0.30528 0.40878 0.03219 0.0
O170 O 0.33645 0.41983 0.27803 0.0
O171 O 0.30467 0.4018 0.2066 0.0
C172 C 0.30952 0.41104 0.26057 0.0
O173 O 0.35345 0.35883 0.13936 0.0
O174 O 0.40379 0.43286 0.31287 0.0
O175 O 0.4107 0.38418 0.30899 0.0
O176 O 0.36148 0.35952 0.23754 0.0
C177 C 0.35709 0.34448 0.18872 0.0
O178 O 0.38479 0.40773 0.09208 0.0
O179 O 0.41223 0.38977 0.17034 0.0
O180 O 0.39212 0.44895 0.19009 0.0
O181 O 0.30761 0.38442 0.06414 0.0
O182 O 0.31582 0.43269 0.05876 0.0
O183 O 0.34349 0.45445 0.16012 0.0
C184 C 0.40659 0.4071 0.40227 0.0
C185 C 0.37996 0.39276 0.42139 0.0
C186 C 0.41693 0.42252 0.50185 0.0
C187 C 0.37164 0.39367 0.48021 0.0
C188 C 0.42515 0.42167 0.44305 0.0
C189 C 0.38975 0.40903 0.52124 0.0
C190 C 0.41412 0.4089 0.33976 0.0
C191 C 0.40974 0.39593 0.11448 0.0
H192 H 0.35882 0.42431 0.98023 0.0
H193 H 0.28431 0.38129 0.84131 0.0
H194 H 0.37245 0.41959 0.87768 0.0
H195 H 0.27071 0.38608 0.94447 0.0
H196 H 0.36528 0.38137 0.39061 0.0
H197 H 0.43189 0.43395 0.53205 0.0
H198 H 0.35058 0.38305 0.49312 0.0
H199 H 0.44582 0.43286 0.42926 0.0
Eu200 Eu 0.40645 0.628 0.80894 0.0
Eu201 Eu 0.40614 0.67414 0.92292 0.0
C202 C 0.34421 0.65199 0.86654 0.0
C203 C 0.40765 0.6062 0.64907 0.0
C204 C 0.39015 0.63099 0.62969 0.0
C205 C 0.42763 0.60014 0.55107 0.0
C206 C 0.39149 0.64034 0.57149 0.0
C207 C 0.42613 0.59072 0.60911 0.0
C208 C 0.41067 0.62536 0.53154 0.0
C209 C 0.40846 0.59749 0.71119 0.0
O210 O 0.40691 0.6262 0.96064 0.0
O211 O 0.39071 0.59783 0.8819 0.0
C212 C 0.39605 0.60085 0.93797 0.0
O213 O 0.44847 0.61753 0.86284 0.0
O214 O 0.38375 0.70343 0.98756 0.0
O215 O 0.43228 0.69654 0.99089 0.0
O216 O 0.45391 0.66631 0.89262 0.0
C217 C 0.46489 0.63875 0.88771 0.0
O218 O 0.42194 0.67356 0.77735 0.0
O219 O 0.39893 0.70489 0.84362 0.0
O220 O 0.3589 0.65612 0.91528 0.0
O221 O 0.43255 0.60597 0.73975 0.0
O222 O 0.38366 0.60154 0.74139 0.0
O223 O 0.35892 0.6482 0.81709 0.0
C224 C 0.4062 0.69866 0.08104 0.0
C225 C 0.42226 0.67373 0.10409 0.0
C226 C 0.38499 0.70834 0.1772 0.0
C227 C 0.41979 0.66629 0.16304 0.0
C228 C 0.38752 0.71582 0.11815 0.0
C229 C 0.40111 0.68346 0.20048 0.0
C230 C 0.40837 0.70649 1.01846 0.0
C231 C 0.41013 0.69995 0.79107 0.0
H232 H 0.37591 0.64356 0.65978 0.0
H233 H 0.4422 0.58765 0.52148 0.0
H234 H 0.3782 0.65989 0.55829 0.0
H235 H 0.43986 0.57158 0.62303 0.0
H236 H 0.43657 0.65975 0.07649 0.0
H237 H 0.37053 0.72218 0.20473 0.0
H238 H 0.43211 0.64666 0.17903 0.0
H239 H 0.37471 0.73491 0.10132 0.0
Eu240 Eu 0.67267 0.60527 0.13127 0.0
Eu241 Eu 0.62705 0.60377 0.24596 0.0
C242 C 0.63865 0.54561 0.16535 0.0
C243 C 0.69674 0.60526 0.97256 0.0
C244 C 0.6718 0.58906 0.95041 0.0
C245 C 0.70717 0.62389 0.87494 0.0
C246 C 0.66484 0.59001 0.89105 0.0
C247 C 0.71419 0.62285 0.93433 0.0
C248 C 0.68254 0.6073 0.85239 0.0
C249 C 0.70461 0.60405 0.03515 0.0
O250 O 0.6731 0.59001 0.27836 0.0
O251 O 0.704 0.61175 0.20982 0.0
C252 C 0.69944 0.60112 0.26288 0.0
O253 O 0.65452 0.65262 0.14201 0.0
O254 O 0.60717 0.5771 0.31634 0.0
O255 O 0.59822 0.62544 0.31152 0.0
O256 O 0.64691 0.65141 0.24027 0.0
C257 C 0.65061 0.66675 0.19159 0.0
O258 O 0.62479 0.60355 0.09419 0.0
O259 O 0.5967 0.61976 0.1733 0.0
O260 O 0.61739 0.56164 0.19144 0.0
O261 O 0.70004 0.62873 0.06541 0.0
O262 O 0.69615 0.57982 0.06329 0.0
O263 O 0.66588 0.557 0.15959 0.0
C264 C 0.60331 0.60349 0.40537 0.0
C265 C 0.62839 0.62043 0.42457 0.0
C266 C 0.59303 0.58904 0.50547 0.0
C267 C 0.63567 0.62172 0.48387 0.0
C268 C 0.58578 0.5878 0.44628 0.0
C269 C 0.61806 0.60604 0.52521 0.0
C270 C 0.59595 0.60083 0.34287 0.0
C271 C 0.59947 0.6143 0.11719 0.0
H272 H 0.65773 0.57546 0.97889 0.0
H273 H 0.72088 0.63795 0.84669 0.0
H274 H 0.64587 0.57675 0.87533 0.0
H275 H 0.73327 0.63583 0.95045 0.0
H276 H 0.64238 0.6326 0.39371 0.0
H277 H 0.57924 0.57624 0.53569 0.0
H278 H 0.65488 0.6353 0.49735 0.0
H279 H 0.56656 0.57431 0.43237 0.0
Eu280 Eu 0.60391 0.38327 0.80695 0.0
Eu281 Eu 0.60389 0.33656 0.91941 0.0
C282 C 0.66619 0.36039 0.86814 0.0
C283 C 0.60058 0.4017 0.64579 0.0
C284 C 0.62705 0.39925 0.6118 0.0
C285 C 0.57142 0.38231 0.56351 0.0
C286 C 0.62578 0.38812 0.55467 0.0
C287 C 0.57269 0.39341 0.62055 0.0
C288 C 0.59797 0.37925 0.52983 0.0
C289 C 0.60216 0.41209 0.70751 0.0
O290 O 0.60468 0.38445 0.95853 0.0
O291 O 0.61876 0.41399 0.87969 0.0
C292 C 0.61438 0.41034 0.93596 0.0
O293 O 0.56175 0.39365 0.86089 0.0
O294 O 0.62421 0.30368 0.97962 0.0
O295 O 0.57707 0.31637 0.98908 0.0
O296 O 0.55618 0.34466 0.88887 0.0
C297 C 0.54525 0.37231 0.88518 0.0
O298 O 0.58756 0.33803 0.77586 0.0
O299 O 0.6128 0.30699 0.83852 0.0
O300 O 0.65101 0.35509 0.91593 0.0
O301 O 0.5783 0.40728 0.73985 0.0
O302 O 0.62728 0.40651 0.73568 0.0
O303 O 0.65203 0.36456 0.81818 0.0
C304 C 0.60436 0.30902 0.07622 0.0
C305 C 0.57919 0.3076 0.11371 0.0
C306 C 0.63497 0.32705 0.15743 0.0
C307 C 0.58163 0.31664 0.17192 0.0
C308 C 0.63245 0.31828 0.09905 0.0
C309 C 0.60944 0.32711 0.19446 0.0
C310 C 0.60026 0.30294 1.01312 0.0
C311 C 0.60126 0.31227 0.78647 0.0
H312 H 0.6489 0.40553 0.62964 0.0
H313 H 0.54952 0.37619 0.54572 0.0
H314 H 0.64676 0.3858 0.53047 0.0
H315 H 0.55174 0.39521 0.64502 0.0
H316 H 0.55727 0.30045 0.09742 0.0
H317 H 0.65697 0.33418 0.17326 0.0
H318 H 0.56134 0.31652 0.1985 0.0
H319 H 0.65239 0.31948 0.07158 0.0
Eu320 Eu 0.83475 0.60359 0.67615 0.0
Eu321 Eu 0.88016 0.60433 0.56181 0.0
C322 C 0.8709 0.5453 0.6399 0.0
C323 C 0.81234 0.59787 0.83386 0.0
C324 C 0.839 0.58232 0.84978 0.0
C325 C 0.80394 0.61072 0.93561 0.0
C326 C 0.84788 0.58076 0.90804 0.0
C327 C 0.79503 0.61221 0.87719 0.0
C328 C 0.83045 0.59487 0.95181 0.0
C329 C 0.80309 0.59984 0.77219 0.0
O330 O 0.83431 0.58983 0.52982 0.0
O331 O 0.80338 0.61166 0.59822 0.0
C332 C 0.80793 0.60113 0.54504 0.0
O333 O 0.8518 0.6513 0.66915 0.0
O334 O 0.89987 0.57902 0.48911 0.0
O335 O 0.90842 0.62725 0.49734 0.0
O336 O 0.86019 0.65199 0.57108 0.0
C337 C 0.85619 0.66636 0.6209 0.0
O338 O 0.88274 0.60229 0.71327 0.0
O339 O 0.91038 0.61973 0.63477 0.0
O340 O 0.89166 0.562 0.61439 0.0
O341 O 0.80861 0.62547 0.74595 0.0
O342 O 0.80996 0.57653 0.73969 0.0
O343 O 0.84328 0.55594 0.64531 0.0
C344 C 0.90075 0.60746 0.40265 0.0
C345 C 0.87464 0.62442 0.38896 0.0
C346 C 0.9066 0.59484 0.30026 0.0
C347 C 0.86456 0.62653 0.33143 0.0
C348 C 0.91669 0.5928 0.35786 0.0
C349 C 0.88026 0.61157 0.28628 0.0
C350 C 0.91021 0.60337 0.46371 0.0
C351 C 0.90777 0.61377 0.69063 0.0
H352 H 0.8531 0.57147 0.81714 0.0
H353 H 0.7899 0.62169 0.96817 0.0
H354 H 0.8687 0.56884 0.91869 0.0
H355 H 0.77467 0.62465 0.86574 0.0
H356 H 0.86173 0.63564 0.42294 0.0
H357 H 0.91954 0.5834 0.26663 0.0
H358 H 0.84404 0.63934 0.32259 0.0
H359 H 0.93679 0.57947 0.36752 0.0
Eu360 Eu 0.60758 0.14582 0.46534 0.0
Eu361 Eu 0.60358 0.19379 0.35355 0.0
C362 C 0.66768 0.16732 0.39438 0.0
C363 C 0.60486 0.12752 0.62645 0.0
C364 C 0.62935 0.12503 0.66531 0.0
C365 C 0.57532 0.15188 0.70364 0.0
C366 C 0.62699 0.13611 0.7224 0.0
C367 C 0.57774 0.14096 0.64652 0.0
C368 C 0.59998 0.14987 0.74246 0.0
C369 C 0.60824 0.11711 0.56499 0.0
O370 O 0.60378 0.14595 0.31441 0.0
O371 O 0.6201 0.11521 0.39032 0.0
C372 C 0.61377 0.11963 0.3349 0.0
O373 O 0.56489 0.13492 0.41357 0.0
O374 O 0.62208 0.22745 0.29311 0.0
O375 O 0.57529 0.21361 0.28518 0.0
O376 O 0.5571 0.18398 0.38853 0.0
C377 C 0.54736 0.15592 0.3906 0.0
O378 O 0.59073 0.19068 0.49841 0.0
O379 O 0.61315 0.22304 0.43428 0.0
O380 O 0.65056 0.1749 0.35025 0.0
O381 O 0.58436 0.11893 0.53162 0.0
O382 O 0.6328 0.12558 0.53781 0.0
O383 O 0.65593 0.1618 0.44616 0.0
C384 C 0.6022 0.22038 0.19731 0.0
C385 C 0.57824 0.22524 0.1581 0.0
C386 C 0.63127 0.1969 0.11878 0.0
C387 C 0.58045 0.21537 0.10019 0.0
C388 C 0.62894 0.2065 0.17671 0.0
C389 C 0.6068 0.20047 0.07986 0.0
C390 C 0.59796 0.2273 0.2601 0.0
C391 C 0.60297 0.217 0.48707 0.0
H392 H 0.65057 0.1149 0.6512 0.0
H393 H 0.55397 0.16185 0.71735 0.0
H394 H 0.64668 0.1345 0.75036 0.0
H395 H 0.55834 0.14334 0.61799 0.0
H396 H 0.55733 0.2358 0.1728 0.0
H397 H 0.65225 0.18627 0.10479 0.0
H398 H 0.56098 0.21842 0.07211 0.0
H399 H 0.64786 0.20233 0.20567 0.0
Eu400 Eu 0.16946 0.40669 0.66766 0.0
Eu401 Eu 0.12457 0.40706 0.55366 0.0
C402 C 0.13591 0.46615 0.6304 0.0
C403 C 0.19044 0.4074 0.82485 0.0
C404 C 0.16379 0.4228 0.84154 0.0
C405 C 0.19489 0.38748 0.92307 0.0
C406 C 0.15283 0.42061 0.89831 0.0
C407 C 0.20596 0.38983 0.86611 0.0
C408 C 0.16801 0.40268 0.93979 0.0
C409 C 0.20082 0.40825 0.76379 0.0
O410 O 0.17064 0.42133 0.52187 0.0
O411 O 0.20084 0.39846 0.58988 0.0
C412 C 0.19687 0.40976 0.53725 0.0
O413 O 0.14948 0.36013 0.66072 0.0
O414 O 0.1057 0.43211 0.48013 0.0
O415 O 0.09572 0.38423 0.49008 0.0
O416 O 0.14513 0.35968 0.56209 0.0
C417 C 0.14689 0.34514 0.61194 0.0
O418 O 0.12168 0.4098 0.70534 0.0
O419 O 0.09346 0.3933 0.62699 0.0
O420 O 0.11454 0.45005 0.60533 0.0
O421 O 0.19681 0.38343 0.73373 0.0
O422 O 0.19328 0.43243 0.7344 0.0
O423 O 0.16309 0.45449 0.63629 0.0
C424 C 0.10455 0.40265 0.39493 0.0
C425 C 0.13036 0.38493 0.38257 0.0
C426 C 0.10026 0.41483 0.29222 0.0
C427 C 0.14102 0.38215 0.32549 0.0
C428 C 0.0895 0.41741 0.34933 0.0
C429 C 0.12633 0.39734 0.27949 0.0
C430 C 0.09479 0.40775 0.45554 0.0
C431 C 0.09619 0.39936 0.6829 0.0
H432 H 0.15115 0.43636 0.81053 0.0
H433 H 0.20701 0.37319 0.95355 0.0
H434 H 0.13243 0.4331 0.90964 0.0
H435 H 0.22633 0.37748 0.85401 0.0
H436 H 0.1426 0.37362 0.41722 0.0
H437 H 0.08865 0.42736 0.25838 0.0
H438 H 0.1609 0.36819 0.31759 0.0
H439 H 0.06982 0.43155 0.35807 0.0
Eu440 Eu 0.40456 0.87612 0.48619 0.0
Eu441 Eu 0.40473 0.82996 0.37165 0.0
C442 C 0.34239 0.85061 0.43101 0.0
C443 C 0.40597 0.89844 0.64629 0.0
C444 C 0.38533 0.87683 0.66773 0.0
C445 C 0.42655 0.904 0.74384 0.0
C446 C 0.38509 0.86915 0.72691 0.0
C447 C 0.4266 0.91181 0.68489 0.0
C448 C 0.40564 0.88273 0.76596 0.0
C449 C 0.40713 0.90656 0.58383 0.0
O450 O 0.40203 0.87794 0.3343 0.0
O451 O 0.38638 0.90572 0.41458 0.0
C452 C 0.39057 0.90284 0.35812 0.0
O453 O 0.44455 0.88858 0.42828 0.0
O454 O 0.38366 0.80027 0.30641 0.0
O455 O 0.432 0.80806 0.30431 0.0
O456 O 0.45218 0.83984 0.40147 0.0
C457 C 0.46182 0.86789 0.40368 0.0
O458 O 0.42093 0.83065 0.5171 0.0
O459 O 0.39871 0.79894 0.45074 0.0
O460 O 0.35668 0.84577 0.38187 0.0
O461 O 0.4311 0.89729 0.55545 0.0
O462 O 0.38228 0.90325 0.5536 0.0
O463 O 0.35738 0.85535 0.47981 0.0
C464 C 0.40693 0.80427 0.21291 0.0
C465 C 0.42983 0.82109 0.18498 0.0
C466 C 0.38042 0.80048 0.12007 0.0
C467 C 0.42784 0.82786 0.12571 0.0
C468 C 0.38227 0.79392 0.17963 0.0
C469 C 0.40313 0.81766 0.09249 0.0
C470 C 0.40861 0.79749 0.27622 0.0
C471 C 0.40969 0.80411 0.50327 0.0
H472 H 0.36937 0.86584 0.6388 0.0
H473 H 0.44321 0.91448 0.77195 0.0
H474 H 0.36849 0.85289 0.74209 0.0
H475 H 0.44299 0.92821 0.6693 0.0
H476 H 0.44943 0.82908 0.20871 0.0
H477 H 0.36099 0.79245 0.09573 0.0
H478 H 0.44592 0.84079 0.10566 0.0
H479 H 0.36433 0.78082 0.19973 0.0
Eu480 Eu 0.83787 0.90785 0.63937 0.0
Eu481 Eu 0.88392 0.90642 0.75275 0.0
C482 C 0.87526 0.9655 0.67404 0.0
C483 C 0.81517 0.91382 0.48169 0.0
C484 C 0.84059 0.93091 0.46468 0.0
C485 C 0.80772 0.89905 0.38057 0.0
C486 C 0.84931 0.93226 0.40624 0.0
C487 C 0.799 0.89773 0.43919 0.0
C488 C 0.83295 0.91645 0.36327 0.0
C489 C 0.80607 0.91198 0.54363 0.0
O490 O 0.83834 0.92195 0.78504 0.0
O491 O 0.80708 0.89969 0.71831 0.0
C492 C 0.81206 0.91018 0.77135 0.0
O493 O 0.85465 0.85993 0.64592 0.0
O494 O 0.90386 0.9314 0.82544 0.0
O495 O 0.91194 0.88305 0.81718 0.0
O496 O 0.86334 0.8591 0.74385 0.0
C497 C 0.85894 0.84479 0.69413 0.0
O498 O 0.88564 0.90805 0.60123 0.0
O499 O 0.91372 0.89049 0.67914 0.0
O500 O 0.89582 0.94845 0.69967 0.0
O501 O 0.81147 0.88629 0.56985 0.0
O502 O 0.81298 0.9352 0.5762 0.0
O503 O 0.84744 0.95546 0.66916 0.0
C504 C 0.90438 0.90296 0.91214 0.0
C505 C 0.8794 0.88466 0.92654 0.0
C506 C 0.90901 0.91718 1.01406 0.0
C507 C 0.86932 0.88263 0.98415 0.0
C508 C 0.91915 0.9191 0.9564 0.0
C509 C 0.88381 0.89908 0.02873 0.0
C510 C 0.91387 0.90688 0.85089 0.0
C511 C 0.9107 0.89623 0.62323 0.0
H512 H 0.85392 0.9431 0.4966 0.0
H513 H 0.79449 0.88672 0.34873 0.0
H514 H 0.8692 0.9454 0.39485 0.0
H515 H 0.77971 0.88401 0.45149 0.0
H516 H 0.86731 0.8723 0.89305 0.0
H517 H 0.92106 0.92979 0.0472 0.0
H518 H 0.84967 0.86873 0.99347 0.0
H519 H 0.93837 0.93347 0.94627 0.0
Eu520 Eu 0.90782 0.12783 0.31398 0.0
Eu521 Eu 0.91463 0.17275 0.42819 0.0
C522 C 0.84935 0.1526 0.38345 0.0
C523 C 0.90101 0.10732 0.15502 0.0
C524 C 0.88639 0.13486 0.1417 0.0
C525 C 0.91215 0.10026 0.0523 0.0
C526 C 0.88485 0.14514 0.08422 0.0
C527 C 0.91367 0.09001 0.10986 0.0
C528 C 0.89806 0.12819 0.03868 0.0
C529 C 0.90501 0.09768 0.21601 0.0
O530 O 0.91469 0.12433 0.46456 0.0
O531 O 0.89445 0.09724 0.38785 0.0
C532 C 0.902 0.09955 0.44306 0.0
O533 O 0.95169 0.11624 0.36159 0.0
O534 O 0.89697 0.20331 0.49588 0.0
O535 O 0.94465 0.19154 0.49417 0.0
O536 O 0.96015 0.16495 0.38722 0.0
C537 C 0.97028 0.13723 0.38081 0.0
O538 O 0.92198 0.1733 0.27926 0.0
O539 O 0.90531 0.20504 0.35172 0.0
O540 O 0.86674 0.15626 0.42893 0.0
O541 O 0.93041 0.10602 0.24024 0.0
O542 O 0.88182 0.10155 0.25066 0.0
O543 O 0.86112 0.14873 0.3312 0.0
C544 C 0.92115 0.19385 0.5862 0.0
C545 C 0.92933 0.16411 0.60224 0.0
C546 C 0.9111 0.20538 0.68806 0.0
C547 C 0.92901 0.15527 0.66053 0.0
C548 C 0.91177 0.21434 0.62951 0.0
C549 C 0.9201 0.17583 0.70424 0.0
C550 C 0.92252 0.20331 0.52454 0.0
C551 C 0.91315 0.20026 0.29685 0.0
H552 H 0.87665 0.14875 0.17594 0.0
H553 H 0.92204 0.08623 1.01848 0.0
H554 H 0.87396 0.16679 0.07581 0.0
H555 H 0.92512 0.06873 0.1192 0.0
H556 H 0.93619 0.14765 0.56973 0.0
H557 H 0.90422 0.22174 0.72079 0.0
H558 H 0.9356 0.13222 0.67139 0.0
H559 H 0.90518 0.23728 0.61803 0.0
Eu560 Eu 0.1775 0.10993 0.62816 0.0
Eu561 Eu 0.13181 0.10213 0.74136 0.0
C562 C 0.14108 0.04804 0.64636 0.0
C563 C 0.20266 0.10974 0.4729 0.0
C564 C 0.17747 0.09173 0.4587 0.0
C565 C 0.20781 0.12318 0.3707 0.0
C566 C 0.16734 0.08969 0.40129 0.0
C567 C 0.218 0.12514 0.42838 0.0
C568 C 0.18192 0.10592 0.35656 0.0
C569 C 0.21073 0.11481 0.53448 0.0
O570 O 0.17727 0.11757 0.77247 0.0
O571 O 0.20624 0.09347 0.70542 0.0
C572 C 0.20272 0.10432 0.75848 0.0
O573 O 0.17425 0.15631 0.66796 0.0
O574 O 0.12177 0.07277 0.8151 0.0
O575 O 0.09994 0.11673 0.80922 0.0
O576 O 0.12858 0.15192 0.71588 0.0
C577 C 0.14977 0.1685 0.69082 0.0
O578 O 0.12949 0.11801 0.59323 0.0
O579 O 0.09783 0.10354 0.66893 0.0
O580 O 0.13813 0.05451 0.70203 0.0
O581 O 0.19701 0.13778 0.55912 0.0
O582 O 0.21097 0.09081 0.56792 0.0
O583 O 0.15156 0.06798 0.60964 0.0
C584 C 0.11445 0.09889 0.90281 0.0
C585 C 0.13816 0.11905 0.91574 0.0
C586 C 0.11254 0.08432 1.00478 0.0
C587 C 0.14923 0.12153 0.9726 0.0
C588 C 0.10152 0.08181 0.94785 0.0
C589 C 0.13691 0.10384 1.01771 0.0
C590 C 0.1054 0.09313 0.84199 0.0
C591 C 0.10219 0.11239 0.61486 0.0
H592 H 0.16509 0.07979 0.4923 0.0
H593 H 0.21954 0.13614 0.33765 0.0
H594 H 0.14775 0.07567 0.39215 0.0
H595 H 0.23733 0.13937 0.43845 0.0
H596 H 0.14854 0.13239 0.88162 0.0
H597 H 0.10268 0.07017 0.03828 0.0
H598 H 0.16756 0.1372 0.98125 0.0
H599 H 0.08347 0.06584 0.93868 0.0
Eu600 Eu 0.1007 0.87688 0.31006 0.0
Eu601 Eu 0.10182 0.83238 0.42474 0.0
C602 C 0.16336 0.85466 0.36861 0.0
C603 C 0.0986 0.89438 0.15011 0.0
C604 C 0.12426 0.89829 0.11465 0.0
C605 C 0.07422 0.86654 0.07142 0.0
C606 C 0.12503 0.88617 0.0584 0.0
C607 C 0.07352 0.87849 0.12769 0.0
C608 C 0.10004 0.87004 0.03609 0.0
C609 C 0.09875 0.90551 0.21099 0.0
O610 O 0.10067 0.88067 0.46177 0.0
O611 O 0.11418 0.90886 0.38117 0.0
C612 C 0.10898 0.90652 0.43734 0.0
O613 O 0.05846 0.88756 0.36307 0.0
O614 O 0.1245 0.80279 0.48787 0.0
O615 O 0.07613 0.81033 0.49362 0.0
O616 O 0.05369 0.8393 0.39577 0.0
C617 C 0.04238 0.86663 0.38943 0.0
O618 O 0.085 0.83125 0.27991 0.0
O619 O 0.1091 0.80106 0.34632 0.0
O620 O 0.14868 0.85134 0.41758 0.0
O621 O 0.07474 0.89955 0.24217 0.0
O622 O 0.12381 0.9014 0.24022 0.0
O623 O 0.14854 0.85757 0.31919 0.0
C624 C 0.10328 0.80941 0.58106 0.0
C625 C 0.09887 0.83999 0.59637 0.0
C626 C 0.11354 0.79761 0.68231 0.0
C627 C 0.10183 0.84938 0.65394 0.0
C628 C 0.11063 0.78823 0.6243 0.0
C629 C 0.10931 0.82837 0.69766 0.0
C630 C 0.10023 0.80005 0.51992 0.0
C631 C 0.09732 0.80525 0.29418 0.0
H632 H 0.14395 0.91033 0.13079 0.0
H633 H 0.05434 0.85476 0.05549 0.0
H634 H 0.14546 0.889 0.03279 0.0
H635 H 0.05332 0.87499 0.15367 0.0
H636 H 0.09292 0.85668 0.56381 0.0
H637 H 0.11947 0.78091 0.71497 0.0
H638 H 0.09783 0.87309 0.66428 0.0
H639 H 0.11414 0.76456 0.61315 0.0
H640 H 0.4159 0.92238 0.25567 0.0
H641 H 0.34317 0.94072 0.37666 0.0
H642 H 0.32666 0.9839 0.31836 0.0
H643 H 0.33395 0.01789 0.23605 0.0
H644 H 0.40896 1.0035 0.11856 0.0
H645 H 0.42335 0.95732 0.17184 0.0
C646 C 0.39635 0.93577 0.26887 0.0
C647 C 0.38082 0.9284 0.32052 0.0
C648 C 0.38736 0.96127 0.23573 0.0
C649 C 0.35568 0.94609 0.33745 0.0
C650 C 0.34613 0.97074 0.30401 0.0
C651 C 0.35321 1.00446 0.22144 0.0
C652 C 0.37015 0.01397 0.17296 0.0
C653 C 0.36194 0.97872 0.25345 0.0
C654 C 0.39543 0.99659 0.15556 0.0
C655 C 0.40371 0.97024 0.18614 0.0
H656 H 0.92543 0.58713 0.7936 0.0
H657 H 0.94813 0.65895 0.67361 0.0
H658 H 0.99088 0.67368 0.73414 0.0
H659 H 0.02249 0.66598 0.8193 0.0
H660 H 1.00415 0.59196 0.93658 0.0
H661 H 0.95898 0.5784 0.87947 0.0
C662 C 0.93973 0.60604 0.78099 0.0
C663 C 0.93357 0.62189 0.72903 0.0
C664 C 0.96498 0.61407 0.8156 0.0
C665 C 0.95246 0.64618 0.71299 0.0
C666 C 0.97688 0.65474 0.74773 0.0
C667 C 0.00848 0.64706 0.83295 0.0
C668 C 0.01643 0.6303 0.8827 0.0
C669 C 0.9834 0.63884 0.79892 0.0
C670 C 0.99838 0.60538 0.89871 0.0
C671 C 0.97261 0.5976 0.86596 0.0
H672 H 0.60982 0.01173 0.15157 0.0
H673 H 0.69508 0.991 0.23547 0.0
H674 H 0.68936 0.035 0.29824 0.0
H675 H 0.6596 0.07864 0.33273 0.0
H676 H 0.57669 0.10305 0.24514 0.0
H677 H 0.58202 0.05878 0.18072 0.0
C678 C 0.62725 0.01705 0.18319 0.0
C679 C 0.65273 0.99775 0.18873 0.0
C680 C 0.62418 0.04308 0.21896 0.0
C681 C 0.67519 1.00522 0.22985 0.0
C682 C 0.67194 0.03044 0.26619 0.0
C683 C 0.64273 0.07424 0.29947 0.0
C684 C 0.61762 0.09379 0.29411 0.0
C685 C 0.64641 0.04932 0.26168 0.0
C686 C 0.59621 0.08823 0.25012 0.0
C687 C 0.59923 0.06289 0.21337 0.0
H688 H 0.98079 0.3509 0.81585 0.0
H689 H 0.00958 0.4159 0.94446 0.0
H690 H 0.05347 0.42936 0.88335 0.0
H691 H 0.08337 0.42251 0.79185 0.0
H692 H 0.0503 0.36 0.66167 0.0
H693 H 0.00822 0.34603 0.72453 0.0
C694 C 0.99674 0.36788 0.83087 0.0
C695 C 0.99222 0.38199 0.88511 0.0
C696 C 0.02104 0.37615 0.79477 0.0
C697 C 0.01271 0.40453 0.9031 0.0
C698 C 0.03774 0.41223 0.86808 0.0
C699 C 0.06691 0.40587 0.77732 0.0
C700 C 0.07013 0.39233 0.72189 0.0
C701 C 0.04213 0.39821 0.81359 0.0
C702 C 0.04841 0.37098 0.7037 0.0
C703 C 0.02434 0.36281 0.73979 0.0
H704 H 0.34317 0.48718 0.06968 0.0
H705 H 0.41683 0.50641 0.18707 0.0
H706 H 0.43061 0.55109 0.12869 0.0
H707 H 0.42224 0.58391 0.04168 0.0
H708 H 0.35102 0.56021 0.92128 0.0
H709 H 0.33591 0.51802 0.98314 0.0
C710 C 0.36207 0.50126 0.08304 0.0
C711 C 0.37866 0.49369 0.13323 0.0
C712 C 0.37047 0.52603 0.0482 0.0
C713 C 0.40353 0.51187 0.1489 0.0
C714 C 0.41144 0.53736 0.1154 0.0
C715 C 0.4034 0.5695 0.02922 0.0
C716 C 0.3878 0.57522 0.9768 0.0
C717 C 0.39519 0.54456 0.06458 0.0
C718 C 0.36359 0.5562 0.961 0.0
C719 C 0.35482 0.53211 0.99651 0.0
H720 H 0.58393 0.58887 1.01197 0.0
H721 H 0.55657 0.65735 0.13626 0.0
H722 H 0.51402 0.67175 0.07463 0.0
H723 H 0.4842 0.66493 0.98672 0.0
H724 H 0.50731 0.59401 0.86493 0.0
H725 H 0.55198 0.58063 0.92385 0.0
C726 C 0.56864 0.60696 1.02537 0.0
C727 C 0.5735 0.62203 0.07876 0.0
C728 C 0.54356 0.61477 0.99005 0.0
C729 C 0.55331 0.64522 0.09574 0.0
C730 C 0.529 0.65359 0.06037 0.0
C731 C 0.49913 0.64672 0.97257 0.0
C732 C 0.49272 0.63083 0.92095 0.0
C733 C 0.52391 0.63856 1.00757 0.0
C734 C 0.5119 0.60676 0.90424 0.0
C735 C 0.53739 0.5991 0.93801 0.0
H736 H 0.66539 0.52536 0.06712 0.0
H737 H 0.59397 0.50344 0.18797 0.0
H738 H 0.58073 0.45858 0.12938 0.0
H739 H 0.58901 0.42621 0.0414 0.0
H740 H 0.65803 0.45234 0.91806 0.0
H741 H 0.67253 0.49488 0.97976 0.0
C742 C 0.64712 0.51062 0.0812 0.0
C743 C 0.63102 0.5175 0.13245 0.0
C744 C 0.63905 0.48568 0.04636 0.0
C745 C 0.60689 0.49853 0.14898 0.0
C746 C 0.5993 0.47292 0.11537 0.0
C747 C 0.60727 0.4412 0.0283 0.0
C748 C 0.62241 0.43604 0.97506 0.0
C749 C 0.61513 0.46633 0.06365 0.0
C750 C 0.64582 0.45586 0.95843 0.0
C751 C 0.65425 0.48017 0.99385 0.0
H752 H 0.42695 0.42316 1.01197 0.0
H753 H 0.45059 0.35049 0.12955 0.0
H754 H 0.49283 0.33578 0.06696 0.0
H755 H 0.5236 0.34369 0.98029 0.0
H756 H 0.50445 0.41895 0.86623 0.0
H757 H 0.45982 0.43237 0.92538 0.0
C758 C 0.44136 0.4041 1.0237 0.0
C759 C 0.43555 0.38794 0.07551 0.0
C760 C 0.46633 0.39614 0.98798 0.0
C761 C 0.45461 0.36346 0.09033 0.0
C762 C 0.47874 0.35493 0.05437 0.0
C763 C 0.50959 0.3629 0.96787 0.0
C764 C 0.51719 0.38003 0.91832 0.0
C765 C 0.48485 0.3711 1.00325 0.0
C766 C 0.49902 0.40524 0.90386 0.0
C767 C 0.47354 0.41294 0.93782 0.0
H768 H 0.92227 0.42667 0.76458 0.0
H769 H 0.85364 0.45356 0.88879 0.0
H770 H 0.83892 0.49601 0.8272 0.0
H771 H 0.84531 0.52582 0.73925 0.0
H772 H 0.91622 0.50333 0.61727 0.0
H773 H 0.93015 0.45879 0.67633 0.0
C774 C 0.90408 0.44183 0.77797 0.0
C775 C 0.88908 0.43684 0.83138 0.0
C776 C 0.89603 0.46689 0.7426 0.0
C777 C 0.86575 0.45689 0.8483 0.0
C778 C 0.85717 0.48116 0.81293 0.0
C779 C 0.86365 0.51107 0.72507 0.0
C780 C 0.87935 0.51761 0.67332 0.0
C781 C 0.8721 0.48636 0.76012 0.0
C782 C 0.9036 0.49864 0.65665 0.0
C783 C 0.91157 0.47323 0.69051 0.0
H784 H 0.49275 0.12798 0.41218 0.0
H785 H 0.54883 0.1631 0.27454 0.0
H786 H 0.50986 0.15135 0.20317 0.0
H787 H 0.45897 0.13261 0.17947 0.0
H788 H 0.4018 0.09811 0.31669 0.0
H789 H 0.44162 0.10789 0.38769 0.0
C790 C 0.49632 0.13291 0.36653 0.0
C791 C 0.52341 0.14694 0.34882 0.0
C792 C 0.47348 0.1262 0.32533 0.0
C793 C 0.52788 0.15308 0.28951 0.0
C794 C 0.50564 0.14614 0.24848 0.0
C795 C 0.45523 0.12702 0.22478 0.0
C796 C 0.42728 0.11462 0.24224 0.0
C797 C 0.47818 0.13301 0.26585 0.0
C798 C 0.423 0.10769 0.30153 0.0
C799 C 0.44582 0.1133 0.34247 0.0
H800 H 0.08767 0.58588 0.75576 0.0
H801 H 0.1544 0.55624 0.88107 0.0
H802 H 0.16831 0.51369 0.81882 0.0
H803 H 0.16156 0.48448 0.73026 0.0
H804 H 0.09247 0.50982 0.60691 0.0
H805 H 0.0796 0.55461 0.66646 0.0
C806 C 0.10527 0.57009 0.76924 0.0
C807 C 0.11996 0.5743 0.82315 0.0
C808 C 0.11284 0.54503 0.73347 0.0
C809 C 0.14254 0.55349 0.84019 0.0
C810 C 0.15065 0.52917 0.80446 0.0
C811 C 0.14388 0.49992 0.71588 0.0
C812 C 0.12835 0.49411 0.66369 0.0
C813 C 0.13599 0.52473 0.75117 0.0
C814 C 0.10493 0.51396 0.64668 0.0
C815 C 0.09756 0.53949 0.68081 0.0
H816 H 0.54998 0.88847 0.19124 0.0
H817 H 0.6103 0.91703 0.32848 0.0
H818 H 0.57016 0.90957 0.4 0.0
H819 H 0.51799 0.89253 0.42501 0.0
H820 H 0.45846 0.86349 0.2877 0.0
H821 H 0.49775 0.87361 0.21535 0.0
C822 C 0.55435 0.8933 0.23668 0.0
C823 C 0.58333 0.90324 0.25401 0.0
C824 C 0.53114 0.88873 0.278 0.0
C825 C 0.58835 0.9093 0.31342 0.0
C826 C 0.56534 0.90502 0.35464 0.0
C827 C 0.5137 0.88874 0.37918 0.0
C828 C 0.48554 0.87695 0.36155 0.0
C829 C 0.53668 0.89442 0.33765 0.0
C830 C 0.48018 0.87207 0.30214 0.0
C831 C 0.50261 0.87796 0.26077 0.0
H832 H 0.84868 0.98649 0.57663 0.0
H833 H 0.9222 1.00573 0.69428 0.0
H834 H 0.93667 0.04986 0.63475 0.0
H835 H 0.92855 0.08253 0.54708 0.0
H836 H 0.85704 0.05872 0.42723 0.0
H837 H 0.84192 0.0168 0.48941 0.0
C838 C 0.86773 1.00043 0.58978 0.0
C839 C 0.88401 0.99306 0.64046 0.0
C840 C 0.87646 0.0249 0.55441 0.0
C841 C 0.90911 0.01104 0.65576 0.0
C842 C 0.9174 0.03622 0.62161 0.0
C843 C 0.90966 0.06815 0.53476 0.0
C844 C 0.894 0.07387 0.4823 0.0
C845 C 0.9013 0.04334 0.57051 0.0
C846 C 0.86971 0.05482 0.46687 0.0
C847 C 0.86089 0.03085 0.50261 0.0
H848 H 0.09813 0.10905 0.49562 0.0
H849 H 0.04479 0.12507 0.65032 0.0
H850 H 0.99954 0.13286 0.59142 0.0
H851 H 0.97508 0.13647 0.49634 0.0
H852 H 0.02644 0.11932 0.34056 0.0
H853 H 0.07242 0.11023 0.39908 0.0
C854 C 0.0766 0.1143 0.51631 0.0
C855 C 0.07497 0.11664 0.57746 0.0
C856 C 0.0503 0.11836 0.48196 0.0
C857 C 0.04677 0.12303 0.60355 0.0
C858 C 0.02082 0.12755 0.56987 0.0
C859 C 0.99633 0.13054 0.47534 0.0
C860 C 0.99754 0.12859 0.4145 0.0
C861 C 0.02233 0.12539 0.50919 0.0
C862 C 0.02505 0.12077 0.38748 0.0
C863 C 0.0513 0.11576 0.42095 0.0
H864 H 0.11687 0.9133 0.55646 0.0
H865 H 0.106 0.96394 0.39686 0.0
H866 H 0.11252 0.01127 0.4489 0.0
H867 H 0.12374 0.03856 0.53671 0.0
H868 H 0.13681 0.99099 0.69847 0.0
H869 H 0.12628 0.94233 0.64897 0.0
C870 C 0.11574 0.93473 0.53334 0.0
C871 C 0.11135 0.93485 0.47245 0.0
C872 C 0.11987 0.96243 0.56381 0.0
C873 C 0.10985 0.9629 0.4433 0.0
C874 C 0.11345 0.99014 0.47307 0.0
C875 C 0.12439 0.01761 0.56157 0.0
C876 C 0.13159 0.0184 0.62108 0.0
C877 C 0.11894 0.99014 0.53288 0.0
C878 C 0.13144 0.99103 0.65256 0.0
C879 C 0.1256 0.96322 0.62411 0.0
H880 H 0.02264 0.84086 0.48853 0.0
H881 H 1.00082 0.9121 0.36704 0.0
H882 H 0.95713 0.92715 0.42735 0.0
H883 H 0.92597 0.92058 0.51702 0.0
H884 H 0.95216 0.85169 0.64089 0.0
H885 H 0.99338 0.83538 0.57753 0.0
C886 C 0.00816 0.85946 0.47469 0.0
C887 C 0.0147 0.875 0.42282 0.0
C888 C 0.98401 0.86862 0.51054 0.0
C889 C 0.99611 0.89959 0.40651 0.0
C890 C 0.97121 0.90823 0.44112 0.0
C891 C 0.94073 0.90201 0.52996 0.0
C892 C 0.93597 0.88743 0.58379 0.0
C893 C 0.96505 0.89304 0.4936 0.0
C894 C 0.95542 0.86352 0.60011 0.0
C895 C 0.97895 0.85403 0.56372 0.0
H896 H 0.35395 0.20171 0.2241 0.0
H897 H 0.35414 0.20421 0.0365 0.0
H898 H 0.35548 0.25971 0.03905 0.0
H899 H 0.35633 0.3074 0.0941 0.0
H900 H 0.35695 0.30531 0.28167 0.0
H901 H 0.3556 0.24967 0.2794 0.0
C902 C 0.35423 0.21434 0.18367 0.0
C903 C 0.35381 0.19867 0.1301 0.0
C904 C 0.35516 0.24632 0.18544 0.0
C905 C 0.35442 0.21555 0.07831 0.0
C906 C 0.35517 0.24734 0.07973 0.0
C907 C 0.35611 0.29488 0.13466 0.0
C908 C 0.35659 0.31066 0.18807 0.0
C909 C 0.35548 0.26294 0.13301 0.0
C910 C 0.35656 0.29386 0.23997 0.0
C911 C 0.35577 0.26202 0.23868 0.0
H912 H 0.30837 0.65181 0.9629 0.0
H913 H 0.30398 0.65069 0.77544 0.0
H914 H 0.24846 0.6504 0.78026 0.0
H915 H 0.2014 0.65089 0.83752 0.0
H916 H 0.20583 0.65134 1.02499 0.0
H917 H 0.26134 0.65143 1.02015 0.0
C918 C 0.29536 0.65157 0.92291 0.0
C919 C 0.31046 0.65145 0.86874 0.0
C920 C 0.26349 0.65128 0.92605 0.0
C921 C 0.29307 0.65084 0.81764 0.0
C922 C 0.2613 0.65069 0.82041 0.0
C923 C 0.21442 0.65106 0.8775 0.0
C924 C 0.19933 0.65127 0.93168 0.0
C925 C 0.2463 0.651 0.87436 0.0
C926 C 0.21673 0.65122 0.98278 0.0
C927 C 0.2485 0.6513 0.98001 0.0
H928 H 0.65373 0.80934 0.22947 0.0
H929 H 0.65035 0.80788 0.04196 0.0
H930 H 0.6486 0.75229 0.04336 0.0
H931 H 0.64897 0.70423 0.09755 0.0
H932 H 0.65169 0.70563 0.28508 0.0
H933 H 0.6527 0.76127 0.28378 0.0
C934 C 0.65261 0.79695 0.18876 0.0
C935 C 0.65234 0.81293 0.13556 0.0
C936 C 0.65152 0.76498 0.18991 0.0
C937 C 0.65061 0.79631 0.08348 0.0
C938 C 0.64966 0.76448 0.08427 0.0
C939 C 0.64982 0.71661 0.13829 0.0
C940 C 0.65045 0.70061 0.19144 0.0
C941 C 0.65027 0.74859 0.1372 0.0
C942 C 0.65122 0.71723 0.24361 0.0
C943 C 0.65184 0.74908 0.24286 0.0
H944 H 0.8093 0.36142 0.84396 0.0
H945 H 0.80318 0.35992 0.03122 0.0
H946 H 0.74766 0.36026 1.02471 0.0
H947 H 0.70108 0.36027 0.96588 0.0
H948 H 0.7074 0.36253 0.77865 0.0
H949 H 0.76284 0.36266 0.78532 0.0
C950 C 0.79592 0.3611 0.88355 0.0
C951 C 0.81055 0.36042 0.93815 0.0
C952 C 0.76407 0.36144 0.87944 0.0
C953 C 0.79265 0.36038 0.98871 0.0
C954 C 0.76088 0.36054 0.98496 0.0
C955 C 0.7145 0.36075 0.92636 0.0
C956 C 0.69993 0.36119 0.87168 0.0
C957 C 0.74637 0.36094 0.93055 0.0
C958 C 0.71787 0.36213 0.82121 0.0
C959 C 0.7496 0.36217 0.82503 0.0
H960 H 0.8573 0.70145 0.71844 0.0
H961 H 0.85729 0.7075 0.53116 0.0
H962 H 0.85821 0.76305 0.53784 0.0
H963 H 0.85862 0.80967 0.59665 0.0
H964 H 0.85946 0.80364 0.78392 0.0
H965 H 0.85867 0.74808 0.77726 0.0
C966 C 0.85741 0.71482 0.6789 0.0
C967 C 0.85702 0.70016 0.62422 0.0
C968 C 0.85811 0.74673 0.6831 0.0
C969 C 0.85752 0.71805 0.57372 0.0
C970 C 0.85802 0.74984 0.57756 0.0
C971 C 0.85856 0.7963 0.6362 0.0
C972 C 0.85891 0.81098 0.69087 0.0
C973 C 0.85824 0.7644 0.632 0.0
C974 C 0.85915 0.79309 0.74137 0.0
C975 C 0.85866 0.76129 0.73754 0.0
H976 H 0.80369 0.1615 0.30408 0.0
H977 H 0.81991 0.14382 0.48584 0.0
H978 H 0.76569 0.1463 0.50567 0.0
H979 H 0.71324 0.15482 0.4724 0.0
H980 H 0.69714 0.17343 0.29078 0.0
H981 H 0.75112 0.1693 0.27054 0.0
C982 C 0.79532 0.158 0.34789 0.0
C983 C 0.81598 0.15267 0.39326 0.0
C984 C 0.7639 0.15981 0.35943 0.0
C985 C 0.80465 0.14829 0.44994 0.0
C986 C 0.77354 0.14966 0.4615 0.0
C987 C 0.72152 0.15797 0.42843 0.0
C988 C 0.70093 0.16459 0.38353 0.0
C989 C 0.7529 0.1557 0.41674 0.0
C990 C 0.71227 0.16848 0.32665 0.0
C991 C 0.74328 0.16607 0.31476 0.0
H992 H 0.12635 0.31022 0.70013 0.0
H993 H 0.16753 0.3047 0.53028 0.0
H994 H 0.17228 0.24939 0.54042 0.0
H995 H 0.16669 0.20305 0.59953 0.0
H996 H 0.1225 0.20813 0.76657 0.0
H997 H 0.11697 0.26337 0.75578 0.0
C998 C 0.13624 0.29687 0.66519 0.0
C999 C 0.14689 0.31151 0.61471 0.0
C1000 C 0.13853 0.26514 0.67112 0.0
C1001 C 0.15915 0.29394 0.56943 0.0
C1002 C 0.16202 0.26237 0.57541 0.0
C1003 C 0.15593 0.2163 0.63366 0.0
C1004 C 0.14549 0.2017 0.68432 0.0
C1005 C 0.15218 0.24782 0.6264 0.0
C1006 C 0.13088 0.21894 0.72747 0.0
C1007 C 0.12774 0.25047 0.72126 0.0
H1008 H 0.3059 0.85125 0.33578 0.0
H1009 H 0.3028 0.85237 0.52333 0.0
H1010 H 0.24726 0.85391 0.52014 0.0
H1011 H 0.19978 0.85463 0.46419 0.0
H1012 H 0.20305 0.85431 0.27662 0.0
H1013 H 0.25854 0.85283 0.27991 0.0
C1014 C 0.29317 0.85171 0.37614 0.0
C1015 C 0.30864 0.85148 0.42985 0.0
C1016 C 0.26129 0.8528 0.37394 0.0
C1017 C 0.2916 0.85245 0.48146 0.0
C1018 C 0.25982 0.85333 0.47962 0.0
C1019 C 0.21254 0.85422 0.42388 0.0
C1020 C 0.19712 0.85446 0.37011 0.0
C1021 C 0.24445 0.85346 0.42611 0.0
C1022 C 0.2142 0.85413 0.31853 0.0
C1023 C 0.24597 0.85324 0.32042 0.0
H1024 H 0.20468 0.13402 0.86208 0.0
H1025 H 0.25266 0.06606 0.76211 0.0
H1026 H 0.28675 0.05707 0.84466 0.0
H1027 H 0.30312 0.06888 0.94533 0.0
H1028 H 0.25439 0.13683 0.04417 0.0
H1029 H 0.2207 0.14561 0.96163 0.0
C1030 C 0.22269 0.1173 0.85789 0.0
C1031 C 0.22596 0.10072 0.80547 0.0
C1032 C 0.24215 0.11228 0.90551 0.0
C1033 C 0.24965 0.07935 0.80137 0.0
C1034 C 0.26913 0.07416 0.84878 0.0
C1035 C 0.28502 0.08551 0.94909 0.0
C1036 C 0.28142 0.10214 1.00147 0.0
C1037 C 0.26557 0.09046 0.90115 0.0
C1038 C 0.25767 0.12346 1.00508 0.0
C1039 C 0.2384 0.12859 0.95763 0.0
H1040 H 0.09152 0.69182 0.12481 0.0
H1041 H 0.11194 0.7611 0.99806 0.0
H1042 H 0.11343 0.7994 0.07575 0.0
H1043 H 0.10732 0.81338 0.17915 0.0
H1044 H 0.08976 0.74355 0.30605 0.0
H1045 H 0.08775 0.70533 0.22804 0.0
C1046 C 0.09609 0.71533 0.11378 0.0
C1047 C 0.10118 0.72355 0.05514 0.0
C1048 C 0.09721 0.73712 0.15867 0.0
C1049 C 0.10771 0.75408 0.04242 0.0
C1050 C 0.1085 0.776 0.08687 0.0
C1051 C 0.10332 0.78971 0.18986 0.0
C1052 C 0.09857 0.7813 0.24845 0.0
C1053 C 0.10309 0.7678 0.14506 0.0
C1054 C 0.09369 0.75056 0.26158 0.0
C1055 C 0.09254 0.72876 0.217 0.0
H1056 H 0.69905 0.90413 0.9432 0.0
H1057 H 0.77033 0.90854 0.07125 0.0
H1058 H 0.80834 0.91047 0.99329 0.0
H1059 H 0.82119 0.91179 0.88858 0.0
H1060 H 0.74996 0.90414 0.76086 0.0
H1061 H 0.71206 0.90242 0.83901 0.0
C1062 C 0.72294 0.90531 0.95423 0.0
C1063 C 0.73172 0.90639 1.01339 0.0
C1064 C 0.74466 0.90579 0.90909 0.0
C1065 C 0.76284 0.90756 1.02648 0.0
C1066 C 0.78459 0.90873 0.98173 0.0
C1067 C 0.79737 0.9097 0.87758 0.0
C1068 C 0.78853 0.9084 0.81839 0.0
C1069 C 0.77575 0.90805 0.92287 0.0
C1070 C 0.75752 0.90529 0.80556 0.0
C1071 C 0.73583 0.9043 0.85034 0.0
H1072 H 0.91057 0.31756 0.13469 0.0
H1073 H 0.90908 0.2487 1.00101 0.0
H1074 H 0.91082 0.20906 0.07567 0.0
H1075 H 0.91271 0.1939 0.1788 0.0
H1076 H 0.9108 0.26257 0.3129 0.0
H1077 H 0.91022 0.30232 0.23822 0.0
C1078 C 0.91046 0.29388 0.12169 0.0
C1079 C 0.90984 0.28628 0.06179 0.0
C1080 C 0.91066 0.27116 0.16511 0.0
C1081 C 0.90948 0.25537 0.04633 0.0
C1082 C 0.91044 0.23265 0.08921 0.0
C1083 C 0.91205 0.21754 0.19202 0.0
C1084 C 0.91197 0.22504 0.25199 0.0
C1085 C 0.91104 0.24026 0.14871 0.0
C1086 C 0.91089 0.25594 0.26755 0.0
C1087 C 0.91055 0.27872 0.22467 0.0
H1088 H 0.31463 0.40277 0.37734 0.0
H1089 H 0.24821 0.42032 0.24391 0.0
H1090 H 0.20828 0.42336 0.3185 0.0
H1091 H 0.19189 0.41899 0.42024 0.0
H1092 H 0.25797 0.3989 0.55328 0.0
H1093 H 0.29816 0.39796 0.47966 0.0
C1094 C 0.29138 0.40699 0.36429 0.0
C1095 C 0.28455 0.41132 0.30477 0.0
C1096 C 0.26837 0.40763 0.40709 0.0
C1097 C 0.25418 0.41662 0.289 0.0
C1098 C 0.23133 0.41822 0.33159 0.0
C1099 C 0.2151 0.4145 0.43345 0.0
C1100 C 0.22177 0.40921 0.49279 0.0
C1101 C 0.23809 0.41351 0.39065 0.0
C1102 C 0.25202 0.40307 0.50834 0.0
C1103 C 0.27507 0.40251 0.46609 0.0
H1104 H 0.41335 0.69094 0.67414 0.0
H1105 H 0.40407 0.76224 0.80206 0.0
H1106 H 0.4034 0.8003 0.7241 0.0
H1107 H 0.40593 0.8133 0.61987 0.0
H1108 H 0.41203 0.74175 0.4919 0.0
H1109 H 0.41365 0.70379 0.5698 0.0
C1110 C 0.41119 0.71481 0.68525 0.0
C1111 C 0.40904 0.72363 0.74437 0.0
C1112 C 0.41019 0.73648 0.64013 0.0
C1113 C 0.40582 0.7547 0.75735 0.0
C1114 C 0.40545 0.77648 0.71269 0.0
C1115 C 0.40755 0.78936 0.60889 0.0
C1116 C 0.40915 0.78044 0.5498 0.0
C1117 C 0.4077 0.76763 0.65398 0.0
C1118 C 0.41074 0.7493 0.53666 0.0
C1119 C 0.41165 0.72758 0.58134 0.0
H1120 H 0.6921 0.60322 0.38029 0.0
H1121 H 0.76161 0.60104 0.24813 0.0
H1122 H 0.8008 0.60013 0.32377 0.0
H1123 H 0.81524 0.59949 0.42745 0.0
H1124 H 0.74583 0.60529 0.5595 0.0
H1125 H 0.70663 0.60542 0.48379 0.0
C1126 C 0.71583 0.60262 0.36785 0.0
C1127 C 0.7238 0.60191 0.30821 0.0
C1128 C 0.73824 0.60285 0.41169 0.0
C1129 C 0.75473 0.60158 0.29332 0.0
C1130 C 0.77716 0.60105 0.33672 0.0
C1131 C 0.79155 0.60084 0.43992 0.0
C1132 C 0.78361 0.60212 0.49957 0.0
C1133 C 0.76918 0.60158 0.39603 0.0
C1134 C 0.75271 0.60423 0.51435 0.0
C1135 C 0.73028 0.60427 0.47095 0.0
H1136 H 0.60823 0.20443 0.60233 0.0
H1137 H 0.60291 0.27967 0.48279 0.0
H1138 H 0.6022 0.31534 0.56524 0.0
H1139 H 0.6002 0.32496 0.67072 0.0
H1140 H 0.61026 0.25014 0.79018 0.0
H1141 H 0.61237 0.21451 0.70775 0.0
C1142 C 0.60685 0.22868 0.5941 0.0
C1143 C 0.60494 0.23932 0.53611 0.0
C1144 C 0.60699 0.24906 0.64163 0.0
C1145 C 0.60404 0.27083 0.52661 0.0
C1146 C 0.60349 0.2912 0.57378 0.0
C1147 C 0.60265 0.3008 0.67904 0.0
C1148 C 0.60419 0.29018 0.73709 0.0
C1149 C 0.6044 0.28055 0.63144 0.0
C1150 C 0.60843 0.25891 0.7464 0.0
C1151 C 0.60954 0.23855 0.69922 0.0
H1152 H 0.29405 0.11108 0.5588 0.0
H1153 H 0.38458 0.11061 0.48639 0.0
H1154 H 0.40616 0.11016 0.58368 0.0
H1155 H 0.39978 0.1084 0.68986 0.0
H1156 H 0.30954 0.10756 0.76271 0.0
H1157 H 0.28764 0.10923 0.66528 0.0
C1158 C 0.31851 0.11066 0.56414 0.0
C1159 C 0.33751 0.11115 0.5147 0.0
C1160 C 0.33096 0.10991 0.62063 0.0
C1161 C 0.36921 0.11093 0.52314 0.0
C1162 C 0.38168 0.1104 0.57899 0.0
C1163 C 0.37533 0.10887 0.68447 0.0
C1164 C 0.35641 0.10768 0.73381 0.0
C1165 C 0.36283 0.10983 0.6281 0.0
C1166 C 0.32471 0.10795 0.72568 0.0
C1167 C 0.31214 0.10909 0.66986 0.0
H1168 H 0.11413 0.70362 0.50365 0.0
H1169 H 0.09773 0.61381 0.57214 0.0
H1170 H 0.09935 0.59264 0.47425 0.0
H1171 H 0.10503 0.59945 0.36909 0.0
H1172 H 0.12263 0.68904 0.30072 0.0
H1173 H 0.12177 0.7101 0.39844 0.0
C1174 C 0.11124 0.67936 0.49731 0.0
C1175 C 0.10549 0.66047 0.54544 0.0
C1176 C 0.1125 0.66718 0.44074 0.0
C1177 C 0.10153 0.62909 0.53601 0.0
C1178 C 0.10268 0.61687 0.47997 0.0
C1179 C 0.10839 0.62364 0.37529 0.0
C1180 C 0.11327 0.64258 0.32682 0.0
C1181 C 0.10792 0.63572 0.43194 0.0
C1182 C 0.11858 0.67375 0.33656 0.0
C1183 C 0.11806 0.68593 0.39271 0.0
H1184 H 0.63459 0.90583 0.52484 0.0
H1185 H 0.73015 0.89758 0.56331 0.0
H1186 H 0.71899 0.89833 0.66725 0.0
H1187 H 0.68219 0.90297 0.74791 0.0
H1188 H 0.58668 0.91121 0.70887 0.0
H1189 H 0.59787 0.90953 0.60517 0.0
C1190 C 0.65305 0.9044 0.55586 0.0
C1191 C 0.68322 0.90163 0.53572 0.0
C1192 C 0.64651 0.90509 0.61589 0.0
C1193 C 0.70668 0.89931 0.57706 0.0
C1194 C 0.70033 0.89995 0.63676 0.0
C1195 C 0.66375 0.90409 0.71687 0.0
C1196 C 0.63358 0.90746 0.73684 0.0
C1197 C 0.67033 0.90295 0.65679 0.0
C1198 C 0.61015 0.90919 0.69532 0.0
C1199 C 0.61651 0.90803 0.63575 0.0
H1200 H 0.94329 0.38342 0.35694 0.0
H1201 H 0.84957 0.35874 0.33025 0.0
H1202 H 0.84638 0.34029 0.43004 0.0
H1203 H 0.86974 0.33237 0.52619 0.0
H1204 H 0.96327 0.35772 0.55285 0.0
H1205 H 0.9667 0.37521 0.45249 0.0
C1206 C 0.92204 0.37431 0.37301 0.0
C1207 C 0.89671 0.3726 0.33578 0.0
C1208 C 0.92025 0.36395 0.43078 0.0
C1209 C 0.86958 0.36008 0.35741 0.0
C1210 C 0.86766 0.34965 0.41473 0.0
C1211 C 0.89096 0.34145 0.5099 0.0
C1212 C 0.91615 0.34382 0.54736 0.0
C1213 C 0.89282 0.35153 0.4519 0.0
C1214 C 0.94336 0.35601 0.52546 0.0
C1215 C 0.94541 0.3659 0.46788 0.0
H1216 H 0.36011 0.36702 0.58916 0.0
H1217 H 0.39675 0.45797 0.59387 0.0
H1218 H 0.38179 0.46301 0.69527 0.0
H1219 H 0.3581 0.44198 0.7831 0.0
H1220 H 0.31977 0.35191 0.77817 0.0
H1221 H 0.33479 0.3466 0.67629 0.0
C1222 C 0.36459 0.38809 0.61202 0.0
C1223 C 0.37997 0.4119 0.58344 0.0
C1224 C 0.35542 0.39114 0.67049 0.0
C1225 C 0.38571 0.43888 0.61459 0.0
C1226 C 0.3769 0.44195 0.67269 0.0
C1227 C 0.35318 0.42111 0.75984 0.0
C1228 C 0.33791 0.39734 0.78849 0.0
C1229 C 0.36185 0.41821 0.70118 0.0
C1230 C 0.33125 0.37068 0.75722 0.0
C1231 C 0.34 0.36755 0.69896 0.0
H1232 H 0.44566 0.66466 0.27503 0.0
H1233 H 0.34946 0.68305 0.26724 0.0
H1234 H 0.34397 0.66766 0.36866 0.0
H1235 H 0.36614 0.64707 0.45888 0.0
H1236 H 0.46246 0.62895 0.46615 0.0
H1237 H 0.46799 0.64544 0.36566 0.0
C1238 C 0.42343 0.66514 0.29533 0.0
C1239 C 0.39802 0.67496 0.26314 0.0
C1240 C 0.42036 0.65601 0.35368 0.0
C1241 C 0.36952 0.67594 0.29084 0.0
C1242 C 0.3663 0.66693 0.34887 0.0
C1243 C 0.3884 0.64698 0.43874 0.0
C1244 C 0.41376 0.63637 0.47029 0.0
C1245 C 0.39153 0.65673 0.38068 0.0
C1246 C 0.44237 0.63629 0.4429 0.0
C1247 C 0.44564 0.64595 0.38538 0.0
H1248 H 0.62685 0.61026 0.80021 0.0
H1249 H 0.7226 0.60527 0.7611 0.0
H1250 H 0.71135 0.60517 0.65717 0.0
H1251 H 0.67421 0.60504 0.57702 0.0
H1252 H 0.57851 0.61038 0.61673 0.0
H1253 H 0.5899 0.61109 0.72035 0.0
C1254 C 0.64529 0.60893 0.76903 0.0
C1255 C 0.67555 0.60774 0.7888 0.0
C1256 C 0.63867 0.60873 0.70916 0.0
C1257 C 0.6991 0.60656 0.74742 0.0
C1258 C 0.69268 0.60632 0.68783 0.0
C1259 C 0.65583 0.6067 0.60823 0.0
C1260 C 0.62548 0.60745 0.58863 0.0
C1261 C 0.66253 0.60731 0.66813 0.0
C1262 C 0.60204 0.60921 0.63017 0.0
C1263 C 0.60853 0.60982 0.68963 0.0
H1264 H 0.6297 0.39694 0.4331 0.0
H1265 H 0.56309 0.33184 0.4908 0.0
H1266 H 0.56155 0.30946 0.39391 0.0
H1267 H 0.57933 0.30787 0.2926 0.0
H1268 H 0.64375 0.37497 0.23355 0.0
H1269 H 0.64652 0.39617 0.33113 0.0
C1270 C 0.615 0.37771 0.4247 0.0
C1271 C 0.5967 0.3661 0.46977 0.0
C1272 C 0.61398 0.365 0.36845 0.0
C1273 C 0.57731 0.34154 0.45726 0.0
C1274 C 0.57651 0.32855 0.40174 0.0
C1275 C 0.59379 0.32731 0.3007 0.0
C1276 C 0.61145 0.33948 0.25515 0.0
C1277 C 0.59472 0.34008 0.35691 0.0
C1278 C 0.63036 0.36447 0.26747 0.0
C1279 C 0.63176 0.37692 0.32338 0.0
H1280 H 0.82961 0.63992 0.03399 0.0
H1281 H 0.85291 0.54537 1.00952 0.0
H1282 H 0.87025 0.5422 0.11001 0.0
H1283 H 0.87893 0.56616 0.20503 0.0
H1284 H 0.85622 0.66087 0.22949 0.0
H1285 H 0.83789 0.6638 0.12958 0.0
C1286 C 0.83819 0.61854 0.05079 0.0
C1287 C 0.84004 0.59297 1.01392 0.0
C1288 C 0.84816 0.61683 0.10884 0.0
C1289 C 0.85161 0.56555 0.03645 0.0
C1290 C 0.86141 0.56366 0.0941 0.0
C1291 C 0.87027 0.58756 0.18843 0.0
C1292 C 0.86909 0.61326 0.22504 0.0
C1293 C 0.85998 0.58919 0.13062 0.0
C1294 C 0.85714 0.64059 0.20279 0.0
C1295 C 0.84679 0.64236 0.14542 0.0
H1296 H 0.62471 0.12754 0.84348 0.0
H1297 H 0.56982 0.20151 0.77842 0.0
H1298 H 0.5676 0.22378 0.87524 0.0
H1299 H 0.582 0.22311 0.97867 0.0
H1300 H 0.63465 0.14761 0.04446 0.0
H1301 H 0.6376 0.12593 0.94732 0.0
C1302 C 0.61246 0.14868 0.85016 0.0
C1303 C 0.5978 0.16284 0.80281 0.0
C1304 C 0.61103 0.16141 0.90643 0.0
C1305 C 0.58134 0.18983 0.81343 0.0
C1306 C 0.58013 0.20277 0.86904 0.0
C1307 C 0.59389 0.20176 0.97212 0.0
C1308 C 0.60836 0.1874 1.01952 0.0
C1309 C 0.59496 0.18883 0.91594 0.0
C1310 C 0.62391 0.15983 1.00919 0.0
C1311 C 0.62538 0.14712 0.95347 0.0
H1312 H 0.09503 0.39546 0.17662 0.0
H1313 H 0.1861 0.39571 0.24556 0.0
H1314 H 0.20688 0.39693 0.14779 0.0
H1315 H 0.19938 0.40025 0.04228 0.0
H1316 H 0.10836 0.39833 0.97281 0.0
H1317 H 0.08757 0.39618 0.07089 0.0
C1318 C 0.11943 0.39602 0.17043 0.0
C1319 C 0.13885 0.39607 0.21906 0.0
C1320 C 0.13134 0.39666 0.11367 0.0
C1321 C 0.17045 0.39586 0.20956 0.0
C1322 C 0.18244 0.39662 0.15336 0.0
C1323 C 0.17501 0.39894 0.04841 0.0
C1324 C 0.15556 0.3998 0.99989 0.0
C1325 C 0.16311 0.39731 0.10506 0.0
C1326 C 0.12397 0.39841 1.00914 0.0
C1327 C 0.112 0.39694 0.06532 0.0
H1328 H 0.41241 0.87241 0.04067 0.0
H1329 H 0.38954 0.77926 1.00244 0.0
H1330 H 0.38795 0.79096 0.89846 0.0
H1331 H 0.39452 0.8275 0.81813 0.0
H1332 H 0.4154 0.92115 0.85787 0.0
H1333 H 0.41684 0.90923 0.96102 0.0
C1334 C 0.40718 0.85464 1.00953 0.0
C1335 C 0.40123 0.82498 0.02933 0.0
C1336 C 0.40618 0.86157 0.94988 0.0
C1337 C 0.39401 0.80233 0.98844 0.0
C1338 C 0.39325 0.80899 0.92892 0.0
C1339 C 0.39906 0.84543 0.84921 0.0
C1340 C 0.40524 0.87518 0.82948 0.0
C1341 C 0.3994 0.83854 0.90906 0.0
C1342 C 0.41131 0.89791 0.87106 0.0
C1343 C 0.4119 0.89118 0.93037 0.0
H1344 H 0.83484 0.87058 0.2825 0.0
H1345 H 0.85216 0.96651 0.30328 0.0
H1346 H 0.86923 0.9696 0.20257 0.0
H1347 H 0.87947 0.9452 0.10838 0.0
H1348 H 0.86268 0.84917 0.08755 0.0
H1349 H 0.84452 0.84626 0.18762 0.0
C1350 C 0.84204 0.89224 0.26488 0.0
C1351 C 0.84232 0.91822 0.30087 0.0
C1352 C 0.85186 0.89391 0.20663 0.0
C1353 C 0.85212 0.946 0.27715 0.0
C1354 C 0.86176 0.94785 0.21933 0.0
C1355 C 0.87213 0.92354 0.12579 0.0
C1356 C 0.87261 0.89745 0.09009 0.0
C1357 C 0.86193 0.92192 0.18374 0.0
C1358 C 0.86233 0.86975 0.11346 0.0
C1359 C 0.85208 0.868 0.17096 0.0
H1360 H 0.94271 0.12348 0.95637 0.0
H1361 H 0.85239 0.15942 0.98289 0.0
H1362 H 0.85184 0.17873 0.88354 0.0
H1363 H 0.87638 0.18411 0.78743 0.0
H1364 H 0.9657 0.14608 0.76046 0.0
H1365 H 0.96696 0.12849 0.861 0.0
C1366 C 0.92269 0.13518 0.9404 0.0
C1367 C 0.89761 0.13981 0.97755 0.0
C1368 C 0.92228 0.14582 0.88277 0.0
C1369 C 0.87223 0.15575 0.95593 0.0
C1370 C 0.87179 0.16668 0.89881 0.0
C1371 C 0.89619 0.17218 0.80379 0.0
C1372 C 0.92087 0.16634 0.76636 0.0
C1373 C 0.89664 0.16177 0.86171 0.0
C1374 C 0.94626 0.15058 0.78809 0.0
C1375 C 0.94704 0.14058 0.84568 0.0
H1376 H 0.10676 0.1055 0.12152 0.0
H1377 H 0.19688 0.1042 0.04828 0.0
H1378 H 0.21893 0.10518 0.14568 0.0
H1379 H 0.21257 0.10511 0.25232 0.0
H1380 H 0.12208 0.10721 0.32482 0.0
H1381 H 0.10042 0.10643 0.2276 0.0
C1382 C 0.13123 0.10529 0.12686 0.0
C1383 C 0.15011 0.10494 0.07745 0.0
C1384 C 0.14376 0.10568 0.18314 0.0
C1385 C 0.18179 0.10502 0.08538 0.0
C1386 C 0.19443 0.10533 0.14118 0.0
C1387 C 0.18811 0.10566 0.24693 0.0
C1388 C 0.16911 0.10587 0.29632 0.0
C1389 C 0.17563 0.1056 0.19049 0.0
C1390 C 0.13741 0.10632 0.28802 0.0
C1391 C 0.12491 0.10614 0.23224 0.0
H1392 H 0.08832 0.80063 0.79579 0.0
H1393 H 0.13696 0.87988 0.73695 0.0
H1394 H 0.13866 0.89947 0.83605 0.0
H1395 H 0.12463 0.89522 0.93864 0.0
H1396 H 0.07655 0.81575 0.99823 0.0
H1397 H 0.07645 0.7952 0.89983 0.0
C1398 C 0.09969 0.82196 0.8048 0.0
C1399 C 0.11229 0.83884 0.75886 0.0
C1400 C 0.10055 0.83319 0.86202 0.0
C1401 C 0.12664 0.86664 0.77129 0.0
C1402 C 0.12773 0.87783 0.82802 0.0
C1403 C 0.11453 0.87318 0.93043 0.0
C1404 C 0.10073 0.85711 0.97616 0.0
C1405 C 0.11448 0.86147 0.87362 0.0
C1406 C 0.08716 0.82885 0.96406 0.0
C1407 C 0.08717 0.81697 0.9077 0.0
loop_
_geom_bond_atom_site_label_1
_geom_bond_atom_site_label_2
_geom_bond_distance
_geom_bond_site_symmetry_2
_ccdc_geom_bond_type
Eu0 C9 2.828 . S
Eu0 O11 2.392 . S
Eu0 O13 2.418 . S
Eu0 O18 2.373 . S
Eu0 O21 2.488 . S
Eu0 O22 2.471 . S
Eu0 O23 2.349 . S
Eu1 O10 2.373 . S
Eu1 O14 2.488 1_554 S
Eu1 O15 2.471 1_554 S
Eu1 O16 2.349 . S
Eu1 O19 2.392 . S
Eu1 O20 2.418 . S
Eu1 C30 2.828 1_554 S
C2 O20 1.244 . S
C2 O23 1.265 . S
C3 C4 1.379 . S
C3 C7 1.373 . S
C3 C9 1.505 . S
C4 C3 1.379 . S
C4 C6 1.369 . S
C4 H32 0.930 . S
C5 C7 1.383 . S
C5 C8 1.382 . S
C5 H33 0.930 . S
C6 C4 1.369 . S
C6 C8 1.392 . S
C6 H34 0.930 . S
C7 C3 1.373 . S
C7 C5 1.383 . S
C7 H35 0.931 . S
C8 C5 1.382 . S
C8 C6 1.392 . S
C9 Eu0 2.828 . S
C9 C3 1.505 . S
C9 O21 1.249 . S
C9 O22 1.244 . S
O10 Eu1 2.373 . S
O10 C12 1.258 . S
O11 Eu0 2.392 . S
O11 C12 1.242 . S
C12 O10 1.258 . S
C12 O11 1.242 . S
O13 Eu0 2.418 . S
O13 C17 1.244 . S
O14 Eu1 2.488 1_556 S
O14 C30 1.249 . S
O15 Eu1 2.471 1_556 S
O15 C30 1.244 . S
O16 Eu1 2.349 . S
O16 C17 1.265 . S
C17 O13 1.244 . S
C17 O16 1.265 . S
O18 Eu0 2.373 . S
O18 C31 1.258 . S
O19 Eu1 2.392 . S
O19 C31 1.242 . S
O20 Eu1 2.418 . S
O20 C2 1.244 . S
O21 Eu0 2.488 . S
O21 C9 1.249 . S
O22 Eu0 2.471 . S
O22 C9 1.244 . S
O23 Eu0 2.349 . S
O23 C2 1.265 . S
C24 C25 1.379 . S
C24 C28 1.373 . S
C24 C30 1.505 . S
C25 C24 1.379 . S
C25 C27 1.369 . S
C25 H36 0.930 . S
C26 C28 1.383 . S
C26 C29 1.382 . S
C26 H37 0.930 . S
C27 C25 1.369 . S
C27 C29 1.392 . S
C27 H38 0.930 . S
C28 C24 1.373 . S
C28 C26 1.383 . S
C28 H39 0.931 . S
C29 C26 1.382 . S
C29 C27 1.392 . S
C30 Eu1 2.828 1_556 S
C30 O14 1.249 . S
C30 O15 1.244 . S
C30 C24 1.505 . S
C31 O18 1.258 . S
C31 O19 1.242 . S
H32 C4 0.930 . S
H33 C5 0.930 . S
H34 C6 0.930 . S
H35 C7 0.931 . S
H36 C25 0.930 . S
H37 C26 0.930 . S
H38 C27 0.930 . S
H39 C28 0.931 . S
Eu40 C49 2.828 1_556 S
Eu40 O51 2.392 . S
Eu40 O53 2.418 . S
Eu40 O58 2.373 . S
Eu40 O61 2.488 1_556 S
Eu40 O62 2.471 1_556 S
Eu40 O63 2.349 . S
Eu41 O50 2.373 . S
Eu41 O54 2.488 . S
Eu41 O55 2.471 . S
Eu41 O56 2.349 . S
Eu41 O59 2.392 . S
Eu41 O60 2.418 . S
Eu41 C70 2.828 . S
C42 O60 1.244 . S
C42 O63 1.265 . S
C43 C44 1.379 . S
C43 C47 1.373 . S
C43 C49 1.505 . S
C44 C43 1.379 . S
C44 C46 1.369 . S
C44 H72 0.930 . S
C45 C47 1.383 . S
C45 C48 1.382 . S
C45 H73 0.930 . S
C46 C44 1.369 . S
C46 C48 1.392 . S
C46 H74 0.930 . S
C47 C43 1.373 . S
C47 C45 1.383 . S
C47 H75 0.931 . S
C48 C45 1.382 . S
C48 C46 1.392 . S
C49 Eu40 2.828 1_554 S
C49 C43 1.505 . S
C49 O61 1.249 . S
C49 O62 1.244 . S
O50 Eu41 2.373 . S
O50 C52 1.258 . S
O51 Eu40 2.392 . S
O51 C52 1.242 . S
C52 O50 1.258 . S
C52 O51 1.242 . S
O53 Eu40 2.418 . S
O53 C57 1.244 . S
O54 Eu41 2.488 . S
O54 C70 1.249 . S
O55 Eu41 2.471 . S
O55 C70 1.244 . S
O56 Eu41 2.349 . S
O56 C57 1.265 . S
C57 O53 1.244 . S
C57 O56 1.265 . S
O58 Eu40 2.373 . S
O58 C71 1.258 . S
O59 Eu41 2.392 . S
O59 C71 1.242 . S
O60 Eu41 2.418 . S
O60 C42 1.244 . S
O61 Eu40 2.488 1_554 S
O61 C49 1.249 . S
O62 Eu40 2.471 1_554 S
O62 C49 1.244 . S
O63 Eu40 2.349 . S
O63 C42 1.265 . S
C64 C65 1.379 . S
C64 C68 1.373 . S
C64 C70 1.505 . S
C65 C64 1.379 . S
C65 C67 1.369 . S
C65 H76 0.930 . S
C66 C68 1.383 . S
C66 C69 1.382 . S
C66 H77 0.930 . S
C67 C65 1.369 . S
C67 C69 1.392 . S
C67 H78 0.930 . S
C68 C64 1.373 . S
C68 C66 1.383 . S
C68 H79 0.931 . S
C69 C66 1.382 . S
C69 C67 1.392 . S
C70 Eu41 2.828 . S
C70 O54 1.249 . S
C70 O55 1.244 . S
C70 C64 1.505 . S
C71 O58 1.258 . S
C71 O59 1.242 . S
H72 C44 0.930 . S
H73 C45 0.930 . S
H74 C46 0.930 . S
H75 C47 0.931 . S
H76 C65 0.930 . S
H77 C66 0.930 . S
H78 C67 0.930 . S
H79 C68 0.931 . S
Eu80 C89 2.828 . S
Eu80 O91 2.392 . S
Eu80 O93 2.418 . S
Eu80 O98 2.373 . S
Eu80 O101 2.488 . S
Eu80 O102 2.471 . S
Eu80 O103 2.349 . S
Eu81 O90 2.373 . S
Eu81 O94 2.488 1_554 S
Eu81 O95 2.471 1_554 S
Eu81 O96 2.349 . S
Eu81 O99 2.392 . S
Eu81 O100 2.418 . S
Eu81 C110 2.828 1_554 S
C82 O100 1.244 . S
C82 O103 1.265 . S
C83 C84 1.379 . S
C83 C87 1.373 . S
C83 C89 1.505 . S
C84 C83 1.379 . S
C84 C86 1.369 . S
C84 H112 0.930 . S
C85 C87 1.383 . S
C85 C88 1.382 . S
C85 H113 0.930 . S
C86 C84 1.369 . S
C86 C88 1.392 . S
C86 H114 0.930 . S
C87 C83 1.373 . S
C87 C85 1.383 . S
C87 H115 0.931 . S
C88 C85 1.382 . S
C88 C86 1.392 . S
C89 Eu80 2.828 . S
C89 C83 1.505 . S
C89 O101 1.249 . S
C89 O102 1.244 . S
O90 Eu81 2.373 . S
O90 C92 1.258 . S
O91 Eu80 2.392 . S
O91 C92 1.242 . S
C92 O90 1.258 . S
C92 O91 1.242 . S
O93 Eu80 2.418 . S
O93 C97 1.244 . S
O94 Eu81 2.488 1_556 S
O94 C110 1.249 . S
O95 Eu81 2.471 1_556 S
O95 C110 1.244 . S
O96 Eu81 2.349 . S
O96 C97 1.265 . S
C97 O93 1.244 . S
C97 O96 1.265 . S
O98 Eu80 2.373 . S
O98 C111 1.258 . S
O99 Eu81 2.392 . S
O99 C111 1.242 . S
O100 Eu81 2.418 . S
O100 C82 1.244 . S
O101 Eu80 2.488 . S
O101 C89 1.249 . S
O102 Eu80 2.471 . S
O102 C89 1.244 . S
O103 Eu80 2.349 . S
O103 C82 1.265 . S
C104 C105 1.379 . S
C104 C108 1.373 . S
C104 C110 1.505 . S
C105 C104 1.379 . S
C105 C107 1.369 . S
C105 H116 0.930 . S
C106 C108 1.383 . S
C106 C109 1.382 . S
C106 H117 0.930 . S
C107 C105 1.369 . S
C107 C109 1.392 . S
C107 H118 0.930 . S
C108 C104 1.373 . S
C108 C106 1.383 . S
C108 H119 0.931 . S
C109 C106 1.382 . S
C109 C107 1.392 . S
C110 Eu81 2.828 1_556 S
C110 O94 1.249 . S
C110 O95 1.244 . S
C110 C104 1.505 . S
C111 O98 1.258 . S
C111 O99 1.242 . S
H112 C84 0.930 . S
H113 C85 0.930 . S
H114 C86 0.930 . S
H115 C87 0.931 . S
H116 C105 0.930 . S
H117 C106 0.930 . S
H118 C107 0.930 . S
H119 C108 0.931 . S
Eu120 C129 2.828 1_556 S
Eu120 O131 2.392 . S
Eu120 O133 2.418 . S
Eu120 O138 2.373 . S
Eu120 O141 2.488 1_556 S
Eu120 O142 2.471 1_556 S
Eu120 O143 2.349 . S
Eu121 O130 2.373 . S
Eu121 O134 2.488 . S
Eu121 O135 2.471 . S
Eu121 O136 2.349 . S
Eu121 O139 2.392 . S
Eu121 O140 2.418 . S
Eu121 C150 2.828 . S
C122 O140 1.244 . S
C122 O143 1.265 . S
C123 C124 1.379 . S
C123 C127 1.373 . S
C123 C129 1.505 . S
C124 C123 1.379 . S
C124 C126 1.369 . S
C124 H152 0.930 . S
C125 C127 1.383 . S
C125 C128 1.382 . S
C125 H153 0.930 . S
C126 C124 1.369 . S
C126 C128 1.392 . S
C126 H154 0.930 . S
C127 C123 1.373 . S
C127 C125 1.383 . S
C127 H155 0.931 . S
C128 C125 1.382 . S
C128 C126 1.392 . S
C129 Eu120 2.828 1_554 S
C129 C123 1.505 . S
C129 O141 1.249 . S
C129 O142 1.244 . S
O130 Eu121 2.373 . S
O130 C132 1.258 . S
O131 Eu120 2.392 . S
O131 C132 1.242 . S
C132 O130 1.258 . S
C132 O131 1.242 . S
O133 Eu120 2.418 . S
O133 C137 1.244 . S
O134 Eu121 2.488 . S
O134 C150 1.249 . S
O135 Eu121 2.471 . S
O135 C150 1.244 . S
O136 Eu121 2.349 . S
O136 C137 1.265 . S
C137 O133 1.244 . S
C137 O136 1.265 . S
O138 Eu120 2.373 . S
O138 C151 1.258 . S
O139 Eu121 2.392 . S
O139 C151 1.242 . S
O140 Eu121 2.418 . S
O140 C122 1.244 . S
O141 Eu120 2.488 1_554 S
O141 C129 1.249 . S
O142 Eu120 2.471 1_554 S
O142 C129 1.244 . S
O143 Eu120 2.349 . S
O143 C122 1.265 . S
C144 C145 1.379 . S
C144 C148 1.373 . S
C144 C150 1.505 . S
C145 C144 1.379 . S
C145 C147 1.369 . S
C145 H156 0.930 . S
C146 C148 1.383 . S
C146 C149 1.382 . S
C146 H157 0.930 . S
C147 C145 1.369 . S
C147 C149 1.392 . S
C147 H158 0.930 . S
C148 C144 1.373 . S
C148 C146 1.383 . S
C148 H159 0.931 . S
C149 C146 1.382 . S
C149 C147 1.392 . S
C150 Eu121 2.828 . S
C150 O134 1.249 . S
C150 O135 1.244 . S
C150 C144 1.505 . S
C151 O138 1.258 . S
C151 O139 1.242 . S
H152 C124 0.930 . S
H153 C125 0.930 . S
H154 C126 0.930 . S
H155 C127 0.931 . S
H156 C145 0.930 . S
H157 C146 0.930 . S
H158 C147 0.930 . S
H159 C148 0.931 . S
Eu160 C169 2.828 1_554 S
Eu160 O171 2.392 . S
Eu160 O173 2.418 . S
Eu160 O178 2.373 . S
Eu160 O181 2.488 1_554 S
Eu160 O182 2.471 1_554 S
Eu160 O183 2.349 . S
Eu161 O170 2.373 . S
Eu161 O174 2.488 . S
Eu161 O175 2.471 . S
Eu161 O176 2.349 . S
Eu161 O179 2.392 . S
Eu161 O180 2.418 . S
Eu161 C190 2.828 . S
C162 O180 1.244 . S
C162 O183 1.265 . S
C163 C164 1.379 . S
C163 C167 1.373 . S
C163 C169 1.505 . S
C164 C163 1.379 . S
C164 C166 1.369 . S
C164 H192 0.930 . S
C165 C167 1.383 . S
C165 C168 1.382 . S
C165 H193 0.930 . S
C166 C164 1.369 . S
C166 C168 1.392 . S
C166 H194 0.930 . S
C167 C163 1.373 . S
C167 C165 1.383 . S
C167 H195 0.931 . S
C168 C165 1.382 . S
C168 C166 1.392 . S
C169 Eu160 2.828 1_556 S
C169 C163 1.505 . S
C169 O181 1.249 . S
C169 O182 1.244 . S
O170 Eu161 2.373 . S
O170 C172 1.258 . S
O171 Eu160 2.392 . S
O171 C172 1.242 . S
C172 O170 1.258 . S
C172 O171 1.242 . S
O173 Eu160 2.418 . S
O173 C177 1.244 . S
O174 Eu161 2.488 . S
O174 C190 1.249 . S
O175 Eu161 2.471 . S
O175 C190 1.244 . S
O176 Eu161 2.349 . S
O176 C177 1.265 . S
C177 O173 1.244 . S
C177 O176 1.265 . S
O178 Eu160 2.373 . S
O178 C191 1.258 . S
O179 Eu161 2.392 . S
O179 C191 1.242 . S
O180 Eu161 2.418 . S
O180 C162 1.244 . S
O181 Eu160 2.488 1_556 S
O181 C169 1.249 . S
O182 Eu160 2.471 1_556 S
O182 C169 1.244 . S
O183 Eu160 2.349 . S
O183 C162 1.265 . S
C184 C185 1.379 . S
C184 C188 1.373 . S
C184 C190 1.505 . S
C185 C184 1.379 . S
C185 C187 1.369 . S
C185 H196 0.930 . S
C186 C188 1.383 . S
C186 C189 1.382 . S
C186 H197 0.930 . S
C187 C185 1.369 . S
C187 C189 1.392 . S
C187 H198 0.930 . S
C188 C184 1.373 . S
C188 C186 1.383 . S
C188 H199 0.931 . S
C189 C186 1.382 . S
C189 C187 1.392 . S
C190 Eu161 2.828 . S
C190 O174 1.249 . S
C190 O175 1.244 . S
C190 C184 1.505 . S
C191 O178 1.258 . S
C191 O179 1.242 . S
H192 C164 0.930 . S
H193 C165 0.930 . S
H194 C166 0.930 . S
H195 C167 0.931 . S
H196 C185 0.930 . S
H197 C186 0.930 . S
H198 C187 0.930 . S
H199 C188 0.931 . S
Eu200 C209 2.828 . S
Eu200 O211 2.392 . S
Eu200 O213 2.418 . S
Eu200 O218 2.373 . S
Eu200 O221 2.488 . S
Eu200 O222 2.471 . S
Eu200 O223 2.349 . S
Eu201 O210 2.373 . S
Eu201 O214 2.488 1_556 S
Eu201 O215 2.471 1_556 S
Eu201 O216 2.349 . S
Eu201 O219 2.392 . S
Eu201 O220 2.418 . S
Eu201 C230 2.828 1_556 S
C202 O220 1.244 . S
C202 O223 1.265 . S
C203 C204 1.379 . S
C203 C207 1.373 . S
C203 C209 1.505 . S
C204 C203 1.379 . S
C204 C206 1.369 . S
C204 H232 0.930 . S
C205 C207 1.383 . S
C205 C208 1.382 . S
C205 H233 0.930 . S
C206 C204 1.369 . S
C206 C208 1.392 . S
C206 H234 0.930 . S
C207 C203 1.373 . S
C207 C205 1.383 . S
C207 H235 0.931 . S
C208 C205 1.382 . S
C208 C206 1.392 . S
C209 Eu200 2.828 . S
C209 C203 1.505 . S
C209 O221 1.249 . S
C209 O222 1.244 . S
O210 Eu201 2.373 . S
O210 C212 1.258 . S
O211 Eu200 2.392 . S
O211 C212 1.242 . S
C212 O210 1.258 . S
C212 O211 1.242 . S
O213 Eu200 2.418 . S
O213 C217 1.244 . S
O214 Eu201 2.488 1_554 S
O214 C230 1.249 . S
O215 Eu201 2.471 1_554 S
O215 C230 1.244 . S
O216 Eu201 2.349 . S
O216 C217 1.265 . S
C217 O213 1.244 . S
C217 O216 1.265 . S
O218 Eu200 2.373 . S
O218 C231 1.258 . S
O219 Eu201 2.392 . S
O219 C231 1.242 . S
O220 Eu201 2.418 . S
O220 C202 1.244 . S
O221 Eu200 2.488 . S
O221 C209 1.249 . S
O222 Eu200 2.471 . S
O222 C209 1.244 . S
O223 Eu200 2.349 . S
O223 C202 1.265 . S
C224 C225 1.379 . S
C224 C228 1.373 . S
C224 C230 1.505 . S
C225 C224 1.379 . S
C225 C227 1.369 . S
C225 H236 0.930 . S
C226 C228 1.383 . S
C226 C229 1.382 . S
C226 H237 0.930 . S
C227 C225 1.369 . S
C227 C229 1.392 . S
C227 H238 0.930 . S
C228 C224 1.373 . S
C228 C226 1.383 . S
C228 H239 0.931 . S
C229 C226 1.382 . S
C229 C227 1.392 . S
C230 Eu201 2.828 1_554 S
C230 O214 1.249 . S
C230 O215 1.244 . S
C230 C224 1.505 . S
C231 O218 1.258 . S
C231 O219 1.242 . S
H232 C204 0.930 . S
H233 C205 0.930 . S
H234 C206 0.930 . S
H235 C207 0.931 . S
H236 C225 0.930 . S
H237 C226 0.930 . S
H238 C227 0.930 . S
H239 C228 0.931 . S
Eu240 C249 2.828 1_554 S
Eu240 O251 2.392 . S
Eu240 O253 2.418 . S
Eu240 O258 2.373 . S
Eu240 O261 2.488 1_554 S
Eu240 O262 2.471 1_554 S
Eu240 O263 2.349 . S
Eu241 O250 2.373 . S
Eu241 O254 2.488 . S
Eu241 O255 2.471 . S
Eu241 O256 2.349 . S
Eu241 O259 2.392 . S
Eu241 O260 2.418 . S
Eu241 C270 2.828 . S
C242 O260 1.244 . S
C242 O263 1.265 . S
C243 C244 1.379 . S
C243 C247 1.373 . S
C243 C249 1.505 . S
C244 C243 1.379 . S
C244 C246 1.369 . S
C244 H272 0.930 . S
C245 C247 1.383 . S
C245 C248 1.382 . S
C245 H273 0.930 . S
C246 C244 1.369 . S
C246 C248 1.392 . S
C246 H274 0.930 . S
C247 C243 1.373 . S
C247 C245 1.383 . S
C247 H275 0.931 . S
C248 C245 1.382 . S
C248 C246 1.392 . S
C249 Eu240 2.828 1_556 S
C249 C243 1.505 . S
C249 O261 1.249 . S
C249 O262 1.244 . S
O250 Eu241 2.373 . S
O250 C252 1.258 . S
O251 Eu240 2.392 . S
O251 C252 1.242 . S
C252 O250 1.258 . S
C252 O251 1.242 . S
O253 Eu240 2.418 . S
O253 C257 1.244 . S
O254 Eu241 2.488 . S
O254 C270 1.249 . S
O255 Eu241 2.471 . S
O255 C270 1.244 . S
O256 Eu241 2.349 . S
O256 C257 1.265 . S
C257 O253 1.244 . S
C257 O256 1.265 . S
O258 Eu240 2.373 . S
O258 C271 1.258 . S
O259 Eu241 2.392 . S
O259 C271 1.242 . S
O260 Eu241 2.418 . S
O260 C242 1.244 . S
O261 Eu240 2.488 1_556 S
O261 C249 1.249 . S
O262 Eu240 2.471 1_556 S
O262 C249 1.244 . S
O263 Eu240 2.349 . S
O263 C242 1.265 . S
C264 C265 1.379 . S
C264 C268 1.373 . S
C264 C270 1.505 . S
C265 C264 1.379 . S
C265 C267 1.369 . S
C265 H276 0.930 . S
C266 C268 1.383 . S
C266 C269 1.382 . S
C266 H277 0.930 . S
C267 C265 1.369 . S
C267 C269 1.392 . S
C267 H278 0.930 . S
C268 C264 1.373 . S
C268 C266 1.383 . S
C268 H279 0.931 . S
C269 C266 1.382 . S
C269 C267 1.392 . S
C270 Eu241 2.828 . S
C270 O254 1.249 . S
C270 O255 1.244 . S
C270 C264 1.505 . S
C271 O258 1.258 . S
C271 O259 1.242 . S
H272 C244 0.930 . S
H273 C245 0.930 . S
H274 C246 0.930 . S
H275 C247 0.931 . S
H276 C265 0.930 . S
H277 C266 0.930 . S
H278 C267 0.930 . S
H279 C268 0.931 . S
Eu280 C289 2.828 . S
Eu280 O291 2.392 . S
Eu280 O293 2.418 . S
Eu280 O298 2.373 . S
Eu280 O301 2.488 . S
Eu280 O302 2.471 . S
Eu280 O303 2.349 . S
Eu281 O290 2.373 . S
Eu281 O294 2.488 1_556 S
Eu281 O295 2.471 1_556 S
Eu281 O296 2.349 . S
Eu281 O299 2.392 . S
Eu281 O300 2.418 . S
Eu281 C310 2.828 1_556 S
C282 O300 1.244 . S
C282 O303 1.265 . S
C283 C284 1.379 . S
C283 C287 1.373 . S
C283 C289 1.505 . S
C284 C283 1.379 . S
C284 C286 1.369 . S
C284 H312 0.930 . S
C285 C287 1.383 . S
C285 C288 1.382 . S
C285 H313 0.930 . S
C286 C284 1.369 . S
C286 C288 1.392 . S
C286 H314 0.930 . S
C287 C283 1.373 . S
C287 C285 1.383 . S
C287 H315 0.931 . S
C288 C285 1.382 . S
C288 C286 1.392 . S
C289 Eu280 2.828 . S
C289 C283 1.505 . S
C289 O301 1.249 . S
C289 O302 1.244 . S
O290 Eu281 2.373 . S
O290 C292 1.258 . S
O291 Eu280 2.392 . S
O291 C292 1.242 . S
C292 O290 1.258 . S
C292 O291 1.242 . S
O293 Eu280 2.418 . S
O293 C297 1.244 . S
O294 Eu281 2.488 1_554 S
O294 C310 1.249 . S
O295 Eu281 2.471 1_554 S
O295 C310 1.244 . S
O296 Eu281 2.349 . S
O296 C297 1.265 . S
C297 O293 1.244 . S
C297 O296 1.265 . S
O298 Eu280 2.373 . S
O298 C311 1.258 . S
O299 Eu281 2.392 . S
O299 C311 1.242 . S
O300 Eu281 2.418 . S
O300 C282 1.244 . S
O301 Eu280 2.488 . S
O301 C289 1.249 . S
O302 Eu280 2.471 . S
O302 C289 1.244 . S
O303 Eu280 2.349 . S
O303 C282 1.265 . S
C304 C305 1.379 . S
C304 C308 1.373 . S
C304 C310 1.505 . S
C305 C304 1.379 . S
C305 C307 1.369 . S
C305 H316 0.930 . S
C306 C308 1.383 . S
C306 C309 1.382 . S
C306 H317 0.930 . S
C307 C305 1.369 . S
C307 C309 1.392 . S
C307 H318 0.930 . S
C308 C304 1.373 . S
C308 C306 1.383 . S
C308 H319 0.931 . S
C309 C306 1.382 . S
C309 C307 1.392 . S
C310 Eu281 2.828 1_554 S
C310 O294 1.249 . S
C310 O295 1.244 . S
C310 C304 1.505 . S
C311 O298 1.258 . S
C311 O299 1.242 . S
H312 C284 0.930 . S
H313 C285 0.930 . S
H314 C286 0.930 . S
H315 C287 0.931 . S
H316 C305 0.930 . S
H317 C306 0.930 . S
H318 C307 0.930 . S
H319 C308 0.931 . S
Eu320 C329 2.828 . S
Eu320 O331 2.392 . S
Eu320 O333 2.418 . S
Eu320 O338 2.373 . S
Eu320 O341 2.488 . S
Eu320 O342 2.471 . S
Eu320 O343 2.349 . S
Eu321 O330 2.373 . S
Eu321 O334 2.488 . S
Eu321 O335 2.471 . S
Eu321 O336 2.349 . S
Eu321 O339 2.392 . S
Eu321 O340 2.418 . S
Eu321 C350 2.828 . S
C322 O340 1.244 . S
C322 O343 1.265 . S
C323 C324 1.379 . S
C323 C327 1.373 . S
C323 C329 1.505 . S
C324 C323 1.379 . S
C324 C326 1.369 . S
C324 H352 0.930 . S
C325 C327 1.383 . S
C325 C328 1.382 . S
C325 H353 0.930 . S
C326 C324 1.369 . S
C326 C328 1.392 . S
C326 H354 0.930 . S
C327 C323 1.373 . S
C327 C325 1.383 . S
C327 H355 0.931 . S
C328 C325 1.382 . S
C328 C326 1.392 . S
C329 Eu320 2.828 . S
C329 C323 1.505 . S
C329 O341 1.249 . S
C329 O342 1.244 . S
O330 Eu321 2.373 . S
O330 C332 1.258 . S
O331 Eu320 2.392 . S
O331 C332 1.242 . S
C332 O330 1.258 . S
C332 O331 1.242 . S
O333 Eu320 2.418 . S
O333 C337 1.244 . S
O334 Eu321 2.488 . S
O334 C350 1.249 . S
O335 Eu321 2.471 . S
O335 C350 1.244 . S
O336 Eu321 2.349 . S
O336 C337 1.265 . S
C337 O333 1.244 . S
C337 O336 1.265 . S
O338 Eu320 2.373 . S
O338 C351 1.258 . S
O339 Eu321 2.392 . S
O339 C351 1.242 . S
O340 Eu321 2.418 . S
O340 C322 1.244 . S
O341 Eu320 2.488 . S
O341 C329 1.249 . S
O342 Eu320 2.471 . S
O342 C329 1.244 . S
O343 Eu320 2.349 . S
O343 C322 1.265 . S
C344 C345 1.379 . S
C344 C348 1.373 . S
C344 C350 1.505 . S
C345 C344 1.379 . S
C345 C347 1.369 . S
C345 H356 0.930 . S
C346 C348 1.383 . S
C346 C349 1.382 . S
C346 H357 0.930 . S
C347 C345 1.369 . S
C347 C349 1.392 . S
C347 H358 0.930 . S
C348 C344 1.373 . S
C348 C346 1.383 . S
C348 H359 0.931 . S
C349 C346 1.382 . S
C349 C347 1.392 . S
C350 Eu321 2.828 . S
C350 O334 1.249 . S
C350 O335 1.244 . S
C350 C344 1.505 . S
C351 O338 1.258 . S
C351 O339 1.242 . S
H352 C324 0.930 . S
H353 C325 0.930 . S
H354 C326 0.930 . S
H355 C327 0.931 . S
H356 C345 0.930 . S
H357 C346 0.930 . S
H358 C347 0.930 . S
H359 C348 0.931 . S
Eu360 C369 2.828 . S
Eu360 O371 2.392 . S
Eu360 O373 2.418 . S
Eu360 O378 2.373 . S
Eu360 O381 2.488 . S
Eu360 O382 2.471 . S
Eu360 O383 2.349 . S
Eu361 O370 2.373 . S
Eu361 O374 2.488 . S
Eu361 O375 2.471 . S
Eu361 O376 2.349 . S
Eu361 O379 2.392 . S
Eu361 O380 2.418 . S
Eu361 C390 2.828 . S
C362 O380 1.244 . S
C362 O383 1.265 . S
C363 C364 1.379 . S
C363 C367 1.373 . S
C363 C369 1.505 . S
C364 C363 1.379 . S
C364 C366 1.369 . S
C364 H392 0.930 . S
C365 C367 1.383 . S
C365 C368 1.382 . S
C365 H393 0.930 . S
C366 C364 1.369 . S
C366 C368 1.392 . S
C366 H394 0.930 . S
C367 C363 1.373 . S
C367 C365 1.383 . S
C367 H395 0.931 . S
C368 C365 1.382 . S
C368 C366 1.392 . S
C369 Eu360 2.828 . S
C369 C363 1.505 . S
C369 O381 1.249 . S
C369 O382 1.244 . S
O370 Eu361 2.373 . S
O370 C372 1.258 . S
O371 Eu360 2.392 . S
O371 C372 1.242 . S
C372 O370 1.258 . S
C372 O371 1.242 . S
O373 Eu360 2.418 . S
O373 C377 1.244 . S
O374 Eu361 2.488 . S
O374 C390 1.249 . S
O375 Eu361 2.471 . S
O375 C390 1.244 . S
O376 Eu361 2.349 . S
O376 C377 1.265 . S
C377 O373 1.244 . S
C377 O376 1.265 . S
O378 Eu360 2.373 . S
O378 C391 1.258 . S
O379 Eu361 2.392 . S
O379 C391 1.242 . S
O380 Eu361 2.418 . S
O380 C362 1.244 . S
O381 Eu360 2.488 . S
O381 C369 1.249 . S
O382 Eu360 2.471 . S
O382 C369 1.244 . S
O383 Eu360 2.349 . S
O383 C362 1.265 . S
C384 C385 1.379 . S
C384 C388 1.373 . S
C384 C390 1.505 . S
C385 C384 1.379 . S
C385 C387 1.369 . S
C385 H396 0.930 . S
C386 C388 1.383 . S
C386 C389 1.382 . S
C386 H397 0.930 . S
C387 C385 1.369 . S
C387 C389 1.392 . S
C387 H398 0.930 . S
C388 C384 1.373 . S
C388 C386 1.383 . S
C388 H399 0.931 . S
C389 C386 1.382 . S
C389 C387 1.392 . S
C390 Eu361 2.828 . S
C390 O374 1.249 . S
C390 O375 1.244 . S
C390 C384 1.505 . S
C391 O378 1.258 . S
C391 O379 1.242 . S
H392 C364 0.930 . S
H393 C365 0.930 . S
H394 C366 0.930 . S
H395 C367 0.931 . S
H396 C385 0.930 . S
H397 C386 0.930 . S
H398 C387 0.930 . S
H399 C388 0.931 . S
Eu400 C409 2.828 . S
Eu400 O411 2.392 . S
Eu400 O413 2.418 . S
Eu400 O418 2.373 . S
Eu400 O421 2.488 . S
Eu400 O422 2.471 . S
Eu400 O423 2.349 . S
Eu401 O410 2.373 . S
Eu401 O414 2.488 . S
Eu401 O415 2.471 . S
Eu401 O416 2.349 . S
Eu401 O419 2.392 . S
Eu401 O420 2.418 . S
Eu401 C430 2.828 . S
C402 O420 1.244 . S
C402 O423 1.265 . S
C403 C404 1.379 . S
C403 C407 1.373 . S
C403 C409 1.505 . S
C404 C403 1.379 . S
C404 C406 1.369 . S
C404 H432 0.930 . S
C405 C407 1.383 . S
C405 C408 1.382 . S
C405 H433 0.930 . S
C406 C404 1.369 . S
C406 C408 1.392 . S
C406 H434 0.930 . S
C407 C403 1.373 . S
C407 C405 1.383 . S
C407 H435 0.931 . S
C408 C405 1.382 . S
C408 C406 1.392 . S
C409 Eu400 2.828 . S
C409 C403 1.505 . S
C409 O421 1.249 . S
C409 O422 1.244 . S
O410 Eu401 2.373 . S
O410 C412 1.258 . S
O411 Eu400 2.392 . S
O411 C412 1.242 . S
C412 O410 1.258 . S
C412 O411 1.242 . S
O413 Eu400 2.418 . S
O413 C417 1.244 . S
O414 Eu401 2.488 . S
O414 C430 1.249 . S
O415 Eu401 2.471 . S
O415 C430 1.244 . S
O416 Eu401 2.349 . S
O416 C417 1.265 . S
C417 O413 1.244 . S
C417 O416 1.265 . S
O418 Eu400 2.373 . S
O418 C431 1.258 . S
O419 Eu401 2.392 . S
O419 C431 1.242 . S
O420 Eu401 2.418 . S
O420 C402 1.244 . S
O421 Eu400 2.488 . S
O421 C409 1.249 . S
O422 Eu400 2.471 . S
O422 C409 1.244 . S
O423 Eu400 2.349 . S
O423 C402 1.265 . S
C424 C425 1.379 . S
C424 C428 1.373 . S
C424 C430 1.505 . S
C425 C424 1.379 . S
C425 C427 1.369 . S
C425 H436 0.930 . S
C426 C428 1.383 . S
C426 C429 1.382 . S
C426 H437 0.930 . S
C427 C425 1.369 . S
C427 C429 1.392 . S
C427 H438 0.930 . S
C428 C424 1.373 . S
C428 C426 1.383 . S
C428 H439 0.931 . S
C429 C426 1.382 . S
C429 C427 1.392 . S
C430 Eu401 2.828 . S
C430 O414 1.249 . S
C430 O415 1.244 . S
C430 C424 1.505 . S
C431 O418 1.258 . S
C431 O419 1.242 . S
H432 C404 0.930 . S
H433 C405 0.930 . S
H434 C406 0.930 . S
H435 C407 0.931 . S
H436 C425 0.930 . S
H437 C426 0.930 . S
H438 C427 0.930 . S
H439 C428 0.931 . S
Eu440 C449 2.828 . S
Eu440 O451 2.392 . S
Eu440 O453 2.418 . S
Eu440 O458 2.373 . S
Eu440 O461 2.488 . S
Eu440 O462 2.471 . S
Eu440 O463 2.349 . S
Eu441 O450 2.373 . S
Eu441 O454 2.488 . S
Eu441 O455 2.471 . S
Eu441 O456 2.349 . S
Eu441 O459 2.392 . S
Eu441 O460 2.418 . S
Eu441 C470 2.828 . S
C442 O460 1.244 . S
C442 O463 1.265 . S
C443 C444 1.379 . S
C443 C447 1.373 . S
C443 C449 1.505 . S
C444 C443 1.379 . S
C444 C446 1.369 . S
C444 H472 0.930 . S
C445 C447 1.383 . S
C445 C448 1.382 . S
C445 H473 0.930 . S
C446 C444 1.369 . S
C446 C448 1.392 . S
C446 H474 0.930 . S
C447 C443 1.373 . S
C447 C445 1.383 . S
C447 H475 0.931 . S
C448 C445 1.382 . S
C448 C446 1.392 . S
C449 Eu440 2.828 . S
C449 C443 1.505 . S
C449 O461 1.249 . S
C449 O462 1.244 . S
O450 Eu441 2.373 . S
O450 C452 1.258 . S
O451 Eu440 2.392 . S
O451 C452 1.242 . S
C452 O450 1.258 . S
C452 O451 1.242 . S
O453 Eu440 2.418 . S
O453 C457 1.244 . S
O454 Eu441 2.488 . S
O454 C470 1.249 . S
O455 Eu441 2.471 . S
O455 C470 1.244 . S
O456 Eu441 2.349 . S
O456 C457 1.265 . S
C457 O453 1.244 . S
C457 O456 1.265 . S
O458 Eu440 2.373 . S
O458 C471 1.258 . S
O459 Eu441 2.392 . S
O459 C471 1.242 . S
O460 Eu441 2.418 . S
O460 C442 1.244 . S
O461 Eu440 2.488 . S
O461 C449 1.249 . S
O462 Eu440 2.471 . S
O462 C449 1.244 . S
O463 Eu440 2.349 . S
O463 C442 1.265 . S
C464 C465 1.379 . S
C464 C468 1.373 . S
C464 C470 1.505 . S
C465 C464 1.379 . S
C465 C467 1.369 . S
C465 H476 0.930 . S
C466 C468 1.383 . S
C466 C469 1.382 . S
C466 H477 0.930 . S
C467 C465 1.369 . S
C467 C469 1.392 . S
C467 H478 0.930 . S
C468 C464 1.373 . S
C468 C466 1.383 . S
C468 H479 0.931 . S
C469 C466 1.382 . S
C469 C467 1.392 . S
C470 Eu441 2.828 . S
C470 O454 1.249 . S
C470 O455 1.244 . S
C470 C464 1.505 . S
C471 O458 1.258 . S
C471 O459 1.242 . S
H472 C444 0.930 . S
H473 C445 0.930 . S
H474 C446 0.930 . S
H475 C447 0.931 . S
H476 C465 0.930 . S
H477 C466 0.930 . S
H478 C467 0.930 . S
H479 C468 0.931 . S
Eu480 C489 2.828 . S
Eu480 O491 2.392 . S
Eu480 O493 2.418 . S
Eu480 O498 2.373 . S
Eu480 O501 2.488 . S
Eu480 O502 2.471 . S
Eu480 O503 2.349 . S
Eu481 O490 2.373 . S
Eu481 O494 2.488 . S
Eu481 O495 2.471 . S
Eu481 O496 2.349 . S
Eu481 O499 2.392 . S
Eu481 O500 2.418 . S
Eu481 C510 2.828 . S
C482 O500 1.244 . S
C482 O503 1.265 . S
C483 C484 1.379 . S
C483 C487 1.373 . S
C483 C489 1.505 . S
C484 C483 1.379 . S
C484 C486 1.369 . S
C484 H512 0.930 . S
C485 C487 1.383 . S
C485 C488 1.382 . S
C485 H513 0.930 . S
C486 C484 1.369 . S
C486 C488 1.392 . S
C486 H514 0.930 . S
C487 C483 1.373 . S
C487 C485 1.383 . S
C487 H515 0.931 . S
C488 C485 1.382 . S
C488 C486 1.392 . S
C489 Eu480 2.828 . S
C489 C483 1.505 . S
C489 O501 1.249 . S
C489 O502 1.244 . S
O490 Eu481 2.373 . S
O490 C492 1.258 . S
O491 Eu480 2.392 . S
O491 C492 1.242 . S
C492 O490 1.258 . S
C492 O491 1.242 . S
O493 Eu480 2.418 . S
O493 C497 1.244 . S
O494 Eu481 2.488 . S
O494 C510 1.249 . S
O495 Eu481 2.471 . S
O495 C510 1.244 . S
O496 Eu481 2.349 . S
O496 C497 1.265 . S
C497 O493 1.244 . S
C497 O496 1.265 . S
O498 Eu480 2.373 . S
O498 C511 1.258 . S
O499 Eu481 2.392 . S
O499 C511 1.242 . S
O500 Eu481 2.418 . S
O500 C482 1.244 . S
O501 Eu480 2.488 . S
O501 C489 1.249 . S
O502 Eu480 2.471 . S
O502 C489 1.244 . S
O503 Eu480 2.349 . S
O503 C482 1.265 . S
C504 C505 1.379 . S
C504 C508 1.373 . S
C504 C510 1.505 . S
C505 C504 1.379 . S
C505 C507 1.369 . S
C505 H516 0.930 . S
C506 C508 1.383 . S
C506 C509 1.382 . S
C506 H517 0.930 . S
C507 C505 1.369 . S
C507 C509 1.392 . S
C507 H518 0.930 . S
C508 C504 1.373 . S
C508 C506 1.383 . S
C508 H519 0.931 . S
C509 C506 1.382 . S
C509 C507 1.392 . S
C510 Eu481 2.828 . S
C510 O494 1.249 . S
C510 O495 1.244 . S
C510 C504 1.505 . S
C511 O498 1.258 . S
C511 O499 1.242 . S
H512 C484 0.930 . S
H513 C485 0.930 . S
H514 C486 0.930 . S
H515 C487 0.931 . S
H516 C505 0.930 . S
H517 C506 0.930 . S
H518 C507 0.930 . S
H519 C508 0.931 . S
Eu520 C529 2.828 . S
Eu520 O531 2.392 . S
Eu520 O533 2.418 . S
Eu520 O538 2.373 . S
Eu520 O541 2.488 . S
Eu520 O542 2.471 . S
Eu520 O543 2.349 . S
Eu521 O530 2.373 . S
Eu521 O534 2.488 . S
Eu521 O535 2.471 . S
Eu521 O536 2.349 . S
Eu521 O539 2.392 . S
Eu521 O540 2.418 . S
Eu521 C550 2.828 . S
C522 O540 1.244 . S
C522 O543 1.265 . S
C523 C524 1.379 . S
C523 C527 1.373 . S
C523 C529 1.505 . S
C524 C523 1.379 . S
C524 C526 1.369 . S
C524 H552 0.930 . S
C525 C527 1.383 . S
C525 C528 1.382 . S
C525 H553 0.930 . S
C526 C524 1.369 . S
C526 C528 1.392 . S
C526 H554 0.930 . S
C527 C523 1.373 . S
C527 C525 1.383 . S
C527 H555 0.931 . S
C528 C525 1.382 . S
C528 C526 1.392 . S
C529 Eu520 2.828 . S
C529 C523 1.505 . S
C529 O541 1.249 . S
C529 O542 1.244 . S
O530 Eu521 2.373 . S
O530 C532 1.258 . S
O531 Eu520 2.392 . S
O531 C532 1.242 . S
C532 O530 1.258 . S
C532 O531 1.242 . S
O533 Eu520 2.418 . S
O533 C537 1.244 . S
O534 Eu521 2.488 . S
O534 C550 1.249 . S
O535 Eu521 2.471 . S
O535 C550 1.244 . S
O536 Eu521 2.349 . S
O536 C537 1.265 . S
C537 O533 1.244 . S
C537 O536 1.265 . S
O538 Eu520 2.373 . S
O538 C551 1.258 . S
O539 Eu521 2.392 . S
O539 C551 1.242 . S
O540 Eu521 2.418 . S
O540 C522 1.244 . S
O541 Eu520 2.488 . S
O541 C529 1.249 . S
O542 Eu520 2.471 . S
O542 C529 1.244 . S
O543 Eu520 2.349 . S
O543 C522 1.265 . S
C544 C545 1.379 . S
C544 C548 1.373 . S
C544 C550 1.505 . S
C545 C544 1.379 . S
C545 C547 1.369 . S
C545 H556 0.930 . S
C546 C548 1.383 . S
C546 C549 1.382 . S
C546 H557 0.930 . S
C547 C545 1.369 . S
C547 C549 1.392 . S
C547 H558 0.930 . S
C548 C544 1.373 . S
C548 C546 1.383 . S
C548 H559 0.931 . S
C549 C546 1.382 . S
C549 C547 1.392 . S
C550 Eu521 2.828 . S
C550 O534 1.249 . S
C550 O535 1.244 . S
C550 C544 1.505 . S
C551 O538 1.258 . S
C551 O539 1.242 . S
H552 C524 0.930 . S
H553 C525 0.930 . S
H554 C526 0.930 . S
H555 C527 0.931 . S
H556 C545 0.930 . S
H557 C546 0.930 . S
H558 C547 0.930 . S
H559 C548 0.931 . S
Eu560 C569 2.828 . S
Eu560 O571 2.392 . S
Eu560 O573 2.418 . S
Eu560 O578 2.373 . S
Eu560 O581 2.488 . S
Eu560 O582 2.471 . S
Eu560 O583 2.349 . S
Eu561 O570 2.373 . S
Eu561 O574 2.488 . S
Eu561 O575 2.471 . S
Eu561 O576 2.349 . S
Eu561 O579 2.392 . S
Eu561 O580 2.418 . S
Eu561 C590 2.828 . S
C562 O580 1.244 . S
C562 O583 1.265 . S
C563 C564 1.379 . S
C563 C567 1.373 . S
C563 C569 1.505 . S
C564 C563 1.379 . S
C564 C566 1.369 . S
C564 H592 0.930 . S
C565 C567 1.383 . S
C565 C568 1.382 . S
C565 H593 0.930 . S
C566 C564 1.369 . S
C566 C568 1.392 . S
C566 H594 0.930 . S
C567 C563 1.373 . S
C567 C565 1.383 . S
C567 H595 0.931 . S
C568 C565 1.382 . S
C568 C566 1.392 . S
C569 Eu560 2.828 . S
C569 C563 1.505 . S
C569 O581 1.249 . S
C569 O582 1.244 . S
O570 Eu561 2.373 . S
O570 C572 1.258 . S
O571 Eu560 2.392 . S
O571 C572 1.242 . S
C572 O570 1.258 . S
C572 O571 1.242 . S
O573 Eu560 2.418 . S
O573 C577 1.244 . S
O574 Eu561 2.488 . S
O574 C590 1.249 . S
O575 Eu561 2.471 . S
O575 C590 1.244 . S
O576 Eu561 2.349 . S
O576 C577 1.265 . S
C577 O573 1.244 . S
C577 O576 1.265 . S
O578 Eu560 2.373 . S
O578 C591 1.258 . S
O579 Eu561 2.392 . S
O579 C591 1.242 . S
O580 Eu561 2.418 . S
O580 C562 1.244 . S
O581 Eu560 2.488 . S
O581 C569 1.249 . S
O582 Eu560 2.471 . S
O582 C569 1.244 . S
O583 Eu560 2.349 . S
O583 C562 1.265 . S
C584 C585 1.379 . S
C584 C588 1.373 . S
C584 C590 1.505 . S
C585 C584 1.379 . S
C585 C587 1.369 . S
C585 H596 0.930 . S
C586 C588 1.383 . S
C586 C589 1.382 . S
C586 H597 0.930 . S
C587 C585 1.369 . S
C587 C589 1.392 . S
C587 H598 0.930 . S
C588 C584 1.373 . S
C588 C586 1.383 . S
C588 H599 0.931 . S
C589 C586 1.382 . S
C589 C587 1.392 . S
C590 Eu561 2.828 . S
C590 O574 1.249 . S
C590 O575 1.244 . S
C590 C584 1.505 . S
C591 O578 1.258 . S
C591 O579 1.242 . S
H592 C564 0.930 . S
H593 C565 0.930 . S
H594 C566 0.930 . S
H595 C567 0.931 . S
H596 C585 0.930 . S
H597 C586 0.930 . S
H598 C587 0.930 . S
H599 C588 0.931 . S
Eu600 C609 2.828 . S
Eu600 O611 2.392 . S
Eu600 O613 2.418 . S
Eu600 O618 2.373 . S
Eu600 O621 2.488 . S
Eu600 O622 2.471 . S
Eu600 O623 2.349 . S
Eu601 O610 2.373 . S
Eu601 O614 2.488 . S
Eu601 O615 2.471 . S
Eu601 O616 2.349 . S
Eu601 O619 2.392 . S
Eu601 O620 2.418 . S
Eu601 C630 2.828 . S
C602 O620 1.244 . S
C602 O623 1.265 . S
C603 C604 1.379 . S
C603 C607 1.373 . S
C603 C609 1.505 . S
C604 C603 1.379 . S
C604 C606 1.369 . S
C604 H632 0.930 . S
C605 C607 1.383 . S
C605 C608 1.382 . S
C605 H633 0.930 . S
C606 C604 1.369 . S
C606 C608 1.392 . S
C606 H634 0.930 . S
C607 C603 1.373 . S
C607 C605 1.383 . S
C607 H635 0.931 . S
C608 C605 1.382 . S
C608 C606 1.392 . S
C609 Eu600 2.828 . S
C609 C603 1.505 . S
C609 O621 1.249 . S
C609 O622 1.244 . S
O610 Eu601 2.373 . S
O610 C612 1.258 . S
O611 Eu600 2.392 . S
O611 C612 1.242 . S
C612 O610 1.258 . S
C612 O611 1.242 . S
O613 Eu600 2.418 . S
O613 C617 1.244 . S
O614 Eu601 2.488 . S
O614 C630 1.249 . S
O615 Eu601 2.471 . S
O615 C630 1.244 . S
O616 Eu601 2.349 . S
O616 C617 1.265 . S
C617 O613 1.244 . S
C617 O616 1.265 . S
O618 Eu600 2.373 . S
O618 C631 1.258 . S
O619 Eu601 2.392 . S
O619 C631 1.242 . S
O620 Eu601 2.418 . S
O620 C602 1.244 . S
O621 Eu600 2.488 . S
O621 C609 1.249 . S
O622 Eu600 2.471 . S
O622 C609 1.244 . S
O623 Eu600 2.349 . S
O623 C602 1.265 . S
C624 C625 1.379 . S
C624 C628 1.373 . S
C624 C630 1.505 . S
C625 C624 1.379 . S
C625 C627 1.369 . S
C625 H636 0.930 . S
C626 C628 1.383 . S
C626 C629 1.382 . S
C626 H637 0.930 . S
C627 C625 1.369 . S
C627 C629 1.392 . S
C627 H638 0.930 . S
C628 C624 1.373 . S
C628 C626 1.383 . S
C628 H639 0.931 . S
C629 C626 1.382 . S
C629 C627 1.392 . S
C630 Eu601 2.828 . S
C630 O614 1.249 . S
C630 O615 1.244 . S
C630 C624 1.505 . S
C631 O618 1.258 . S
C631 O619 1.242 . S
H632 C604 0.930 . S
H633 C605 0.930 . S
H634 C606 0.930 . S
H635 C607 0.931 . S
H636 C625 0.930 . S
H637 C626 0.930 . S
H638 C627 0.930 . S
H639 C628 0.931 . S
H640 C646 0.930 . S
H641 C649 0.930 . S
H642 C650 0.930 . S
H643 C651 0.930 . S
H644 C654 0.945 . S
H645 C655 0.930 . S
C646 H640 0.930 . S
C646 C647 1.355 . S
C646 C648 1.415 . S
C647 C646 1.355 . S
C647 C649 1.419 . S
C648 C646 1.415 . S
C648 C653 1.425 . S
C648 C655 1.409 . S
C649 H641 0.930 . S
C649 C647 1.419 . S
C649 C650 1.362 . S
C650 H642 0.930 . S
C650 C649 1.362 . S
C650 C653 1.409 . S
C651 H643 0.930 . S
C651 C652 1.355 . S
C651 C653 1.415 1_545 S
C652 C651 1.355 . S
C652 C654 1.436 . S
C653 C648 1.425 . S
C653 C650 1.409 . S
C653 C651 1.415 1_565 S
C654 H644 0.945 . S
C654 C652 1.436 . S
C654 C655 1.331 1_545 S
C655 H645 0.930 . S
C655 C648 1.409 . S
C655 C654 1.331 1_565 S
H656 C662 0.930 . S
H657 C665 0.930 . S
H658 C666 0.930 . S
H659 C667 0.930 . S
H660 C670 0.930 . S
H661 C671 0.931 1_455 S
C662 H656 0.930 . S
C662 C663 1.355 . S
C662 C664 1.415 . S
C663 C662 1.355 . S
C663 C665 1.419 . S
C664 C662 1.415 . S
C664 C669 1.425 . S
C664 C671 1.409 . S
C665 H657 0.930 . S
C665 C663 1.419 . S
C665 C666 1.362 . S
C666 H658 0.930 . S
C666 C665 1.362 . S
C666 C669 1.409 . S
C667 H659 0.930 . S
C667 C668 1.355 1_655 S
C667 C669 1.415 . S
C668 C667 1.355 1_455 S
C668 C670 1.419 . S
C669 C664 1.425 . S
C669 C666 1.409 . S
C669 C667 1.415 . S
C670 H660 0.930 . S
C670 C668 1.419 . S
C670 C671 1.362 1_455 S
C671 H661 0.931 1_655 S
C671 C664 1.409 . S
C671 C670 1.362 1_655 S
H672 C678 0.930 . S
H673 C681 0.930 . S
H674 C682 0.930 . S
H675 C683 0.930 . S
H676 C686 0.930 . S
H677 C687 0.930 . S
C678 H672 0.930 . S
C678 C679 1.355 1_545 S
C678 C680 1.415 . S
C679 C678 1.355 1_565 S
C679 C681 1.419 . S
C680 C678 1.415 . S
C680 C685 1.425 . S
C680 C687 1.409 . S
C681 H673 0.930 . S
C681 C679 1.419 . S
C681 C682 1.362 1_565 S
C682 H674 0.930 . S
C682 C681 1.362 1_545 S
C682 C685 1.409 . S
C683 H675 0.930 . S
C683 C684 1.355 . S
C683 C685 1.415 . S
C684 C683 1.355 . S
C684 C686 1.419 . S
C685 C680 1.425 . S
C685 C682 1.409 . S
C685 C683 1.415 . S
C686 H676 0.930 . S
C686 C684 1.419 . S
C686 C687 1.362 . S
C687 H677 0.930 . S
C687 C680 1.409 . S
C687 C686 1.362 . S
H688 C694 0.930 . S
H689 C697 0.930 . S
H690 C698 0.930 . S
H691 C699 0.930 . S
H692 C702 0.930 . S
H693 C703 0.930 . S
C694 H688 0.930 . S
C694 C695 1.355 1_455 S
C694 C696 1.415 . S
C695 C694 1.355 1_655 S
C695 C697 1.419 . S
C696 C694 1.415 . S
C696 C701 1.425 . S
C696 C703 1.409 . S
C697 H689 0.930 . S
C697 C695 1.419 . S
C697 C698 1.362 1_655 S
C698 H690 0.930 . S
C698 C697 1.362 1_455 S
C698 C701 1.409 . S
C699 H691 0.930 . S
C699 C700 1.355 . S
C699 C701 1.415 . S
C700 C699 1.355 . S
C700 C702 1.419 . S
C701 C696 1.425 . S
C701 C698 1.409 . S
C701 C699 1.415 . S
C702 H692 0.930 . S
C702 C700 1.419 . S
C702 C703 1.362 . S
C703 H693 0.930 . S
C703 C696 1.409 . S
C703 C702 1.362 . S
H704 C710 0.930 . S
H705 C713 0.930 . S
H706 C714 0.930 . S
H707 C715 0.930 . S
H708 C718 0.930 . S
H709 C719 0.930 . S
C710 H704 0.930 . S
C710 C711 1.355 . S
C710 C712 1.415 . S
C711 C710 1.355 . S
C711 C713 1.419 . S
C712 C710 1.415 . S
C712 C717 1.425 . S
C712 C719 1.409 . S
C713 H705 0.930 . S
C713 C711 1.419 . S
C713 C714 1.362 . S
C714 H706 0.930 . S
C714 C713 1.362 . S
C714 C717 1.409 . S
C715 H707 0.930 . S
C715 C716 1.355 . S
C715 C717 1.415 1_556 S
C716 C715 1.355 . S
C716 C718 1.419 . S
C717 C712 1.425 . S
C717 C714 1.409 . S
C717 C715 1.415 1_554 S
C718 H708 0.930 . S
C718 C716 1.419 . S
C718 C719 1.362 1_556 S
C719 H709 0.930 . S
C719 C712 1.409 . S
C719 C718 1.362 1_554 S
H720 C726 0.930 . S
H721 C729 0.930 . S
H722 C730 0.930 . S
H723 C731 0.930 . S
H724 C734 0.930 . S
H725 C735 0.930 . S
C726 H720 0.930 . S
C726 C727 1.355 1_556 S
C726 C728 1.415 . S
C727 C726 1.355 1_554 S
C727 C729 1.419 . S
C728 C726 1.415 . S
C728 C733 1.425 . S
C728 C735 1.409 . S
C729 H721 0.930 . S
C729 C727 1.419 . S
C729 C730 1.362 1_554 S
C730 H722 0.930 . S
C730 C729 1.362 1_556 S
C730 C733 1.409 . S
C731 H723 0.930 . S
C731 C732 1.355 . S
C731 C733 1.415 . S
C732 C731 1.355 . S
C732 C734 1.419 . S
C733 C728 1.425 . S
C733 C730 1.409 . S
C733 C731 1.415 . S
C734 H724 0.930 . S
C734 C732 1.419 . S
C734 C735 1.362 . S
C735 H725 0.930 . S
C735 C728 1.409 . S
C735 C734 1.362 . S
H736 C742 0.930 . S
H737 C745 0.930 . S
H738 C746 0.930 . S
H739 C747 0.930 . S
H740 C750 0.930 . S
H741 C751 0.930 . S
C742 H736 0.930 . S
C742 C743 1.355 . S
C742 C744 1.415 . S
C743 C742 1.355 . S
C743 C745 1.419 . S
C744 C742 1.415 . S
C744 C749 1.425 . S
C744 C751 1.409 1_554 S
C745 H737 0.930 . S
C745 C743 1.419 . S
C745 C746 1.362 . S
C746 H738 0.930 . S
C746 C745 1.362 . S
C746 C749 1.409 . S
C747 H739 0.930 . S
C747 C748 1.355 1_554 S
C747 C749 1.415 . S
C748 C747 1.355 1_556 S
C748 C750 1.419 . S
C749 C744 1.425 . S
C749 C746 1.409 . S
C749 C747 1.415 . S
C750 H740 0.930 . S
C750 C748 1.419 . S
C750 C751 1.362 . S
C751 H741 0.930 . S
C751 C744 1.409 1_556 S
C751 C750 1.362 . S
H752 C758 0.930 . S
H753 C761 0.930 . S
H754 C762 0.930 . S
H755 C763 0.930 . S
H756 C766 0.930 . S
H757 C767 0.930 . S
C758 H752 0.930 . S
C758 C759 1.355 . S
C758 C760 1.415 1_554 S
C759 C758 1.355 . S
C759 C761 1.419 1_554 S
C760 C758 1.415 1_556 S
C760 C765 1.425 . S
C760 C767 1.409 1_556 S
C761 H753 0.930 . S
C761 C759 1.419 1_556 S
C761 C762 1.362 . S
C762 H754 0.930 . S
C762 C761 1.362 . S
C762 C765 1.409 . S
C763 H755 0.930 . S
C763 C764 1.355 . S
C763 C765 1.415 . S
C764 C763 1.355 . S
C764 C766 1.419 . S
C765 C760 1.425 . S
C765 C762 1.409 . S
C765 C763 1.415 . S
C766 H756 0.930 . S
C766 C764 1.419 . S
C766 C767 1.362 1_556 S
C767 H757 0.930 . S
C767 C760 1.409 1_554 S
C767 C766 1.362 1_554 S
H768 C774 0.930 . S
H769 C777 0.930 . S
H770 C778 0.930 . S
H771 C779 0.930 . S
H772 C782 0.930 . S
H773 C783 0.930 . S
C774 H768 0.930 . S
C774 C775 1.355 . S
C774 C776 1.415 . S
C775 C774 1.355 . S
C775 C777 1.419 . S
C776 C774 1.415 . S
C776 C781 1.425 . S
C776 C783 1.409 . S
C777 H769 0.930 . S
C777 C775 1.419 . S
C777 C778 1.362 . S
C778 H770 0.930 . S
C778 C777 1.362 . S
C778 C781 1.409 . S
C779 H771 0.930 . S
C779 C780 1.355 . S
C779 C781 1.415 . S
C780 C779 1.355 . S
C780 C782 1.419 . S
C781 C776 1.425 . S
C781 C778 1.409 . S
C781 C779 1.415 . S
C782 H772 0.930 . S
C782 C780 1.419 . S
C782 C783 1.362 . S
C783 H773 0.930 . S
C783 C776 1.409 . S
C783 C782 1.362 . S
H784 C790 0.930 . S
H785 C793 0.930 . S
H786 C794 0.930 . S
H787 C795 0.930 . S
H788 C798 0.930 . S
H789 C799 0.930 . S
C790 H784 0.930 . S
C790 C791 1.355 . S
C790 C792 1.415 . S
C791 C790 1.355 . S
C791 C793 1.419 . S
C792 C790 1.415 . S
C792 C797 1.425 . S
C792 C799 1.409 . S
C793 H785 0.930 . S
C793 C791 1.419 . S
C793 C794 1.362 . S
C794 H786 0.930 . S
C794 C793 1.362 . S
C794 C797 1.409 . S
C795 H787 0.930 . S
C795 C796 1.355 . S
C795 C797 1.415 . S
C796 C795 1.355 . S
C796 C798 1.419 . S
C797 C792 1.425 . S
C797 C794 1.409 . S
C797 C795 1.415 . S
C798 H788 0.930 . S
C798 C796 1.419 . S
C798 C799 1.362 . S
C799 H789 0.930 . S
C799 C792 1.409 . S
C799 C798 1.362 . S
H800 C806 0.930 . S
H801 C809 0.930 . S
H802 C810 0.930 . S
H803 C811 0.930 . S
H804 C814 0.930 . S
H805 C815 0.930 . S
C806 H800 0.930 . S
C806 C807 1.355 . S
C806 C808 1.415 . S
C807 C806 1.355 . S
C807 C809 1.419 . S
C808 C806 1.415 . S
C808 C813 1.425 . S
C808 C815 1.409 . S
C809 H801 0.930 . S
C809 C807 1.419 . S
C809 C810 1.362 . S
C810 H802 0.930 . S
C810 C809 1.362 . S
C810 C813 1.409 . S
C811 H803 0.930 . S
C811 C812 1.355 . S
C811 C813 1.415 . S
C812 C811 1.355 . S
C812 C814 1.419 . S
C813 C808 1.425 . S
C813 C810 1.409 . S
C813 C811 1.415 . S
C814 H804 0.930 . S
C814 C812 1.419 . S
C814 C815 1.362 . S
C815 H805 0.930 . S
C815 C808 1.409 . S
C815 C814 1.362 . S
H816 C822 0.930 . S
H817 C825 0.930 . S
H818 C826 0.930 . S
H819 C827 0.930 . S
H820 C830 0.930 . S
H821 C831 0.930 . S
C822 H816 0.930 . S
C822 C823 1.355 . S
C822 C824 1.415 . S
C823 C822 1.355 . S
C823 C825 1.419 . S
C824 C822 1.415 . S
C824 C829 1.425 . S
C824 C831 1.409 . S
C825 H817 0.930 . S
C825 C823 1.419 . S
C825 C826 1.362 . S
C826 H818 0.930 . S
C826 C825 1.362 . S
C826 C829 1.409 . S
C827 H819 0.930 . S
C827 C828 1.355 . S
C827 C829 1.415 . S
C828 C827 1.355 . S
C828 C830 1.419 . S
C829 C824 1.425 . S
C829 C826 1.409 . S
C829 C827 1.415 . S
C830 H820 0.930 . S
C830 C828 1.419 . S
C830 C831 1.362 . S
C831 H821 0.930 . S
C831 C824 1.409 . S
C831 C830 1.362 . S
H832 C838 0.930 . S
H833 C841 0.930 . S
H834 C842 0.930 . S
H835 C843 0.930 . S
H836 C846 0.930 . S
H837 C847 0.930 . S
C838 H832 0.930 . S
C838 C839 1.355 . S
C838 C840 1.415 1_565 S
C839 C838 1.355 . S
C839 C841 1.419 1_565 S
C840 C838 1.415 1_545 S
C840 C845 1.425 . S
C840 C847 1.409 . S
C841 H833 0.930 . S
C841 C839 1.419 1_545 S
C841 C842 1.362 . S
C842 H834 0.930 . S
C842 C841 1.362 . S
C842 C845 1.409 . S
C843 H835 0.930 . S
C843 C844 1.355 . S
C843 C845 1.415 . S
C844 C843 1.355 . S
C844 C846 1.419 . S
C845 C840 1.425 . S
C845 C842 1.409 . S
C845 C843 1.415 . S
C846 H836 0.930 . S
C846 C844 1.419 . S
C846 C847 1.362 . S
C847 H837 0.930 . S
C847 C840 1.409 . S
C847 C846 1.362 . S
H848 C854 0.930 . S
H849 C857 0.930 . S
H850 C858 0.930 . S
H851 C859 0.930 . S
H852 C862 0.930 . S
H853 C863 0.930 . S
C854 H848 0.930 . S
C854 C855 1.355 . S
C854 C856 1.415 . S
C855 C854 1.355 . S
C855 C857 1.419 . S
C856 C854 1.415 . S
C856 C861 1.425 . S
C856 C863 1.409 1_455 S
C857 H849 0.930 . S
C857 C855 1.419 . S
C857 C858 1.362 . S
C858 H850 0.930 . S
C858 C857 1.362 . S
C858 C861 1.409 . S
C859 H851 0.930 . S
C859 C860 1.355 1_455 S
C859 C861 1.415 . S
C860 C859 1.355 1_655 S
C860 C862 1.419 . S
C861 C856 1.425 . S
C861 C858 1.409 . S
C861 C859 1.415 . S
C862 H852 0.930 . S
C862 C860 1.419 . S
C862 C863 1.362 . S
C863 H853 0.930 . S
C863 C856 1.409 1_655 S
C863 C862 1.362 . S
H864 C870 0.930 . S
H865 C873 0.930 . S
H866 C874 0.930 . S
H867 C875 0.930 . S
H868 C878 0.930 . S
H869 C879 0.930 . S
C870 H864 0.930 . S
C870 C871 1.355 . S
C870 C872 1.415 . S
C871 C870 1.355 . S
C871 C873 1.419 . S
C872 C870 1.415 . S
C872 C877 1.425 . S
C872 C879 1.409 . S
C873 H865 0.930 . S
C873 C871 1.419 . S
C873 C874 1.362 . S
C874 H866 0.930 . S
C874 C873 1.362 . S
C874 C877 1.409 . S
C875 H867 0.930 . S
C875 C876 1.355 . S
C875 C877 1.415 1_545 S
C876 C875 1.355 . S
C876 C878 1.419 . S
C877 C872 1.425 . S
C877 C874 1.409 . S
C877 C875 1.415 1_565 S
C878 H868 0.930 . S
C878 C876 1.419 . S
C878 C879 1.362 1_545 S
C879 H869 0.930 . S
C879 C872 1.409 . S
C879 C878 1.362 1_565 S
H880 C886 0.929 1_455 S
H881 C889 0.930 . S
H882 C890 0.930 . S
H883 C891 0.930 . S
H884 C894 0.930 . S
H885 C895 0.930 . S
C886 H880 0.929 1_655 S
C886 C887 1.354 1_655 S
C886 C888 1.415 . S
C887 C886 1.354 1_455 S
C887 C889 1.419 . S
C888 C886 1.415 . S
C888 C893 1.425 . S
C888 C895 1.409 . S
C889 H881 0.930 . S
C889 C887 1.419 . S
C889 C890 1.362 1_455 S
C890 H882 0.930 . S
C890 C889 1.362 1_655 S
C890 C893 1.409 . S
C891 H883 0.930 . S
C891 C892 1.355 . S
C891 C893 1.415 . S
C892 C891 1.355 . S
C892 C894 1.419 . S
C893 C888 1.425 . S
C893 C890 1.409 . S
C893 C891 1.415 . S
C894 H884 0.930 . S
C894 C892 1.419 . S
C894 C895 1.362 . S
C895 H885 0.930 . S
C895 C888 1.409 . S
C895 C894 1.362 . S
H896 C902 0.930 . S
H897 C905 0.930 . S
H898 C906 0.930 . S
H899 C907 0.930 . S
H900 C910 0.930 . S
H901 C911 0.930 . S
C902 H896 0.930 . S
C902 C903 1.355 . S
C902 C904 1.415 . S
C903 C902 1.355 . S
C903 C905 1.419 . S
C904 C902 1.415 . S
C904 C909 1.425 . S
C904 C911 1.409 . S
C905 H897 0.930 . S
C905 C903 1.419 . S
C905 C906 1.362 . S
C906 H898 0.930 . S
C906 C905 1.362 . S
C906 C909 1.409 . S
C907 H899 0.930 . S
C907 C908 1.355 . S
C907 C909 1.415 . S
C908 C907 1.355 . S
C908 C910 1.419 . S
C909 C904 1.425 . S
C909 C906 1.409 . S
C909 C907 1.415 . S
C910 H900 0.930 . S
C910 C908 1.419 . S
C910 C911 1.362 . S
C911 H901 0.930 . S
C911 C904 1.409 . S
C911 C910 1.362 . S
H912 C918 0.930 . S
H913 C921 0.930 . S
H914 C922 0.930 . S
H915 C923 0.930 . S
H916 C926 0.930 . S
H917 C927 0.930 . S
C918 H912 0.930 . S
C918 C919 1.355 . S
C918 C920 1.415 . S
C919 C918 1.355 . S
C919 C921 1.419 . S
C920 C918 1.415 . S
C920 C925 1.425 . S
C920 C927 1.409 . S
C921 H913 0.930 . S
C921 C919 1.419 . S
C921 C922 1.362 . S
C922 H914 0.930 . S
C922 C921 1.362 . S
C922 C925 1.409 . S
C923 H915 0.930 . S
C923 C924 1.355 . S
C923 C925 1.415 . S
C924 C923 1.355 . S
C924 C926 1.419 . S
C925 C920 1.425 . S
C925 C922 1.409 . S
C925 C923 1.415 . S
C926 H916 0.930 . S
C926 C924 1.419 . S
C926 C927 1.362 . S
C927 H917 0.930 . S
C927 C920 1.409 . S
C927 C926 1.362 . S
H928 C934 0.930 . S
H929 C937 0.930 . S
H930 C938 0.930 . S
H931 C939 0.930 . S
H932 C942 0.930 . S
H933 C943 0.930 . S
C934 H928 0.930 . S
C934 C935 1.355 . S
C934 C936 1.415 . S
C935 C934 1.355 . S
C935 C937 1.419 . S
C936 C934 1.415 . S
C936 C941 1.425 . S
C936 C943 1.409 . S
C937 H929 0.930 . S
C937 C935 1.419 . S
C937 C938 1.362 . S
C938 H930 0.930 . S
C938 C937 1.362 . S
C938 C941 1.409 . S
C939 H931 0.930 . S
C939 C940 1.355 . S
C939 C941 1.415 . S
C940 C939 1.355 . S
C940 C942 1.419 . S
C941 C936 1.425 . S
C941 C938 1.409 . S
C941 C939 1.415 . S
C942 H932 0.930 . S
C942 C940 1.419 . S
C942 C943 1.362 . S
C943 H933 0.930 . S
C943 C936 1.409 . S
C943 C942 1.362 . S
H944 C950 0.930 . S
H945 C953 0.930 . S
H946 C954 0.930 . S
H947 C955 0.930 . S
H948 C958 0.930 . S
H949 C959 0.930 . S
C950 H944 0.930 . S
C950 C951 1.355 . S
C950 C952 1.415 . S
C951 C950 1.355 . S
C951 C953 1.419 . S
C952 C950 1.415 . S
C952 C957 1.425 . S
C952 C959 1.409 . S
C953 H945 0.930 . S
C953 C951 1.419 . S
C953 C954 1.362 . S
C954 H946 0.930 . S
C954 C953 1.362 . S
C954 C957 1.409 . S
C955 H947 0.930 . S
C955 C956 1.355 . S
C955 C957 1.415 . S
C956 C955 1.355 . S
C956 C958 1.419 . S
C957 C952 1.425 . S
C957 C954 1.409 . S
C957 C955 1.415 . S
C958 H948 0.930 . S
C958 C956 1.419 . S
C958 C959 1.362 . S
C959 H949 0.930 . S
C959 C952 1.409 . S
C959 C958 1.362 . S
H960 C966 0.930 . S
H961 C969 0.930 . S
H962 C970 0.930 . S
H963 C971 0.930 . S
H964 C974 0.930 . S
H965 C975 0.930 . S
C966 H960 0.930 . S
C966 C967 1.355 . S
C966 C968 1.415 . S
C967 C966 1.355 . S
C967 C969 1.419 . S
C968 C966 1.415 . S
C968 C973 1.425 . S
C968 C975 1.409 . S
C969 H961 0.930 . S
C969 C967 1.419 . S
C969 C970 1.362 . S
C970 H962 0.930 . S
C970 C969 1.362 . S
C970 C973 1.409 . S
C971 H963 0.930 . S
C971 C972 1.355 . S
C971 C973 1.415 . S
C972 C971 1.355 . S
C972 C974 1.419 . S
C973 C968 1.425 . S
C973 C970 1.409 . S
C973 C971 1.415 . S
C974 H964 0.930 . S
C974 C972 1.419 . S
C974 C975 1.362 . S
C975 H965 0.930 . S
C975 C968 1.409 . S
C975 C974 1.362 . S
H976 C982 0.930 . S
H977 C985 0.930 . S
H978 C986 0.930 . S
H979 C987 0.930 . S
H980 C990 0.930 . S
H981 C991 0.930 . S
C982 H976 0.930 . S
C982 C983 1.355 . S
C982 C984 1.415 . S
C983 C982 1.355 . S
C983 C985 1.419 . S
C984 C982 1.415 . S
C984 C989 1.425 . S
C984 C991 1.409 . S
C985 H977 0.930 . S
C985 C983 1.419 . S
C985 C986 1.362 . S
C986 H978 0.930 . S
C986 C985 1.362 . S
C986 C989 1.409 . S
C987 H979 0.930 . S
C987 C988 1.355 . S
C987 C989 1.415 . S
C988 C987 1.355 . S
C988 C990 1.419 . S
C989 C984 1.425 . S
C989 C986 1.409 . S
C989 C987 1.415 . S
C990 H980 0.930 . S
C990 C988 1.419 . S
C990 C991 1.362 . S
C991 H981 0.930 . S
C991 C984 1.409 . S
C991 C990 1.362 . S
H992 C998 0.930 . S
H993 C1001 0.930 . S
H994 C1002 0.930 . S
H995 C1003 0.930 . S
H996 C1006 0.930 . S
H997 C1007 0.930 . S
C998 H992 0.930 . S
C998 C999 1.355 . S
C998 C1000 1.415 . S
C999 C998 1.355 . S
C999 C1001 1.419 . S
C1000 C998 1.415 . S
C1000 C1005 1.425 . S
C1000 C1007 1.409 . S
C1001 H993 0.930 . S
C1001 C999 1.419 . S
C1001 C1002 1.362 . S
C1002 H994 0.930 . S
C1002 C1001 1.362 . S
C1002 C1005 1.409 . S
C1003 H995 0.930 . S
C1003 C1004 1.355 . S
C1003 C1005 1.415 . S
C1004 C1003 1.355 . S
C1004 C1006 1.419 . S
C1005 C1000 1.425 . S
C1005 C1002 1.409 . S
C1005 C1003 1.415 . S
C1006 H996 0.930 . S
C1006 C1004 1.419 . S
C1006 C1007 1.362 . S
C1007 H997 0.930 . S
C1007 C1000 1.409 . S
C1007 C1006 1.362 . S
H1008 C1014 0.930 . S
H1009 C1017 0.930 . S
H1010 C1018 0.930 . S
H1011 C1019 0.930 . S
H1012 C1022 0.930 . S
H1013 C1023 0.930 . S
C1014 H1008 0.930 . S
C1014 C1015 1.355 . S
C1014 C1016 1.415 . S
C1015 C1014 1.355 . S
C1015 C1017 1.419 . S
C1016 C1014 1.415 . S
C1016 C1021 1.425 . S
C1016 C1023 1.409 . S
C1017 H1009 0.930 . S
C1017 C1015 1.419 . S
C1017 C1018 1.362 . S
C1018 H1010 0.930 . S
C1018 C1017 1.362 . S
C1018 C1021 1.409 . S
C1019 H1011 0.930 . S
C1019 C1020 1.355 . S
C1019 C1021 1.415 . S
C1020 C1019 1.355 . S
C1020 C1022 1.419 . S
C1021 C1016 1.425 . S
C1021 C1018 1.409 . S
C1021 C1019 1.415 . S
C1022 H1012 0.930 . S
C1022 C1020 1.419 . S
C1022 C1023 1.362 . S
C1023 H1013 0.930 . S
C1023 C1016 1.409 . S
C1023 C1022 1.362 . S
H1024 C1030 0.930 . S
H1025 C1033 0.930 . S
H1026 C1034 0.930 . S
H1027 C1035 0.930 . S
H1028 C1038 0.930 . S
H1029 C1039 0.930 . S
C1030 H1024 0.930 . S
C1030 C1031 1.355 . S
C1030 C1032 1.415 . S
C1031 C1030 1.355 . S
C1031 C1033 1.419 . S
C1032 C1030 1.415 . S
C1032 C1037 1.425 . S
C1032 C1039 1.409 . S
C1033 H1025 0.930 . S
C1033 C1031 1.419 . S
C1033 C1034 1.362 . S
C1034 H1026 0.930 . S
C1034 C1033 1.362 . S
C1034 C1037 1.409 . S
C1035 H1027 0.930 . S
C1035 C1036 1.355 . S
C1035 C1037 1.415 . S
C1036 C1035 1.355 . S
C1036 C1038 1.419 . S
C1037 C1032 1.425 . S
C1037 C1034 1.409 . S
C1037 C1035 1.415 . S
C1038 H1028 0.930 . S
C1038 C1036 1.419 . S
C1038 C1039 1.362 . S
C1039 H1029 0.930 . S
C1039 C1032 1.409 . S
C1039 C1038 1.362 . S
H1040 C1046 0.930 . S
H1041 C1049 0.930 1_556 S
H1042 C1050 0.930 . S
H1043 C1051 0.930 . S
H1044 C1054 0.930 . S
H1045 C1055 0.930 . S
C1046 H1040 0.930 . S
C1046 C1047 1.355 . S
C1046 C1048 1.415 . S
C1047 C1046 1.355 . S
C1047 C1049 1.419 . S
C1048 C1046 1.415 . S
C1048 C1053 1.425 . S
C1048 C1055 1.409 . S
C1049 H1041 0.930 1_554 S
C1049 C1047 1.419 . S
C1049 C1050 1.362 . S
C1050 H1042 0.930 . S
C1050 C1049 1.362 . S
C1050 C1053 1.409 . S
C1051 H1043 0.930 . S
C1051 C1052 1.355 . S
C1051 C1053 1.415 . S
C1052 C1051 1.355 . S
C1052 C1054 1.419 . S
C1053 C1048 1.425 . S
C1053 C1050 1.409 . S
C1053 C1051 1.415 . S
C1054 H1044 0.930 . S
C1054 C1052 1.419 . S
C1054 C1055 1.362 . S
C1055 H1045 0.930 . S
C1055 C1048 1.409 . S
C1055 C1054 1.362 . S
H1056 C1062 0.930 . S
H1057 C1065 0.930 . S
H1058 C1066 0.930 . S
H1059 C1067 0.930 . S
H1060 C1070 0.930 . S
H1061 C1071 0.930 . S
C1062 H1056 0.930 . S
C1062 C1063 1.355 . S
C1062 C1064 1.415 . S
C1063 C1062 1.355 . S
C1063 C1065 1.419 . S
C1064 C1062 1.415 . S
C1064 C1069 1.425 . S
C1064 C1071 1.409 . S
C1065 H1057 0.930 . S
C1065 C1063 1.419 . S
C1065 C1066 1.362 . S
C1066 H1058 0.930 . S
C1066 C1065 1.362 . S
C1066 C1069 1.409 . S
C1067 H1059 0.930 . S
C1067 C1068 1.355 . S
C1067 C1069 1.415 . S
C1068 C1067 1.355 . S
C1068 C1070 1.419 . S
C1069 C1064 1.425 . S
C1069 C1066 1.409 . S
C1069 C1067 1.415 . S
C1070 H1060 0.930 . S
C1070 C1068 1.419 . S
C1070 C1071 1.362 . S
C1071 H1061 0.930 . S
C1071 C1064 1.409 . S
C1071 C1070 1.362 . S
H1072 C1078 0.930 . S
H1073 C1081 0.930 . S
H1074 C1082 0.930 . S
H1075 C1083 0.930 . S
H1076 C1086 0.930 . S
H1077 C1087 0.930 . S
C1078 H1072 0.930 . S
C1078 C1079 1.355 . S
C1078 C1080 1.415 . S
C1079 C1078 1.355 . S
C1079 C1081 1.419 . S
C1080 C1078 1.415 . S
C1080 C1085 1.425 . S
C1080 C1087 1.409 . S
C1081 H1073 0.930 . S
C1081 C1079 1.419 . S
C1081 C1082 1.362 . S
C1082 H1074 0.930 . S
C1082 C1081 1.362 . S
C1082 C1085 1.409 . S
C1083 H1075 0.930 . S
C1083 C1084 1.355 . S
C1083 C1085 1.415 . S
C1084 C1083 1.355 . S
C1084 C1086 1.419 . S
C1085 C1080 1.425 . S
C1085 C1082 1.409 . S
C1085 C1083 1.415 . S
C1086 H1076 0.930 . S
C1086 C1084 1.419 . S
C1086 C1087 1.362 . S
C1087 H1077 0.930 . S
C1087 C1080 1.409 . S
C1087 C1086 1.362 . S
H1088 C1094 0.930 . S
H1089 C1097 0.930 . S
H1090 C1098 0.930 . S
H1091 C1099 0.930 . S
H1092 C1102 0.930 . S
H1093 C1103 0.930 . S
C1094 H1088 0.930 . S
C1094 C1095 1.355 . S
C1094 C1096 1.415 . S
C1095 C1094 1.355 . S
C1095 C1097 1.419 . S
C1096 C1094 1.415 . S
C1096 C1101 1.425 . S
C1096 C1103 1.409 . S
C1097 H1089 0.930 . S
C1097 C1095 1.419 . S
C1097 C1098 1.362 . S
C1098 H1090 0.930 . S
C1098 C1097 1.362 . S
C1098 C1101 1.409 . S
C1099 H1091 0.930 . S
C1099 C1100 1.355 . S
C1099 C1101 1.415 . S
C1100 C1099 1.355 . S
C1100 C1102 1.419 . S
C1101 C1096 1.425 . S
C1101 C1098 1.409 . S
C1101 C1099 1.415 . S
C1102 H1092 0.930 . S
C1102 C1100 1.419 . S
C1102 C1103 1.362 . S
C1103 H1093 0.930 . S
C1103 C1096 1.409 . S
C1103 C1102 1.362 . S
H1104 C1110 0.930 . S
H1105 C1113 0.930 . S
H1106 C1114 0.930 . S
H1107 C1115 0.930 . S
H1108 C1118 0.930 . S
H1109 C1119 0.930 . S
C1110 H1104 0.930 . S
C1110 C1111 1.355 . S
C1110 C1112 1.415 . S
C1111 C1110 1.355 . S
C1111 C1113 1.419 . S
C1112 C1110 1.415 . S
C1112 C1117 1.425 . S
C1112 C1119 1.409 . S
C1113 H1105 0.930 . S
C1113 C1111 1.419 . S
C1113 C1114 1.362 . S
C1114 H1106 0.930 . S
C1114 C1113 1.362 . S
C1114 C1117 1.409 . S
C1115 H1107 0.930 . S
C1115 C1116 1.355 . S
C1115 C1117 1.415 . S
C1116 C1115 1.355 . S
C1116 C1118 1.419 . S
C1117 C1112 1.425 . S
C1117 C1114 1.409 . S
C1117 C1115 1.415 . S
C1118 H1108 0.930 . S
C1118 C1116 1.419 . S
C1118 C1119 1.362 . S
C1119 H1109 0.930 . S
C1119 C1112 1.409 . S
C1119 C1118 1.362 . S
H1120 C1126 0.930 . S
H1121 C1129 0.930 . S
H1122 C1130 0.930 . S
H1123 C1131 0.930 . S
H1124 C1134 0.930 . S
H1125 C1135 0.930 . S
C1126 H1120 0.930 . S
C1126 C1127 1.355 . S
C1126 C1128 1.415 . S
C1127 C1126 1.355 . S
C1127 C1129 1.419 . S
C1128 C1126 1.415 . S
C1128 C1133 1.425 . S
C1128 C1135 1.409 . S
C1129 H1121 0.930 . S
C1129 C1127 1.419 . S
C1129 C1130 1.362 . S
C1130 H1122 0.930 . S
C1130 C1129 1.362 . S
C1130 C1133 1.409 . S
C1131 H1123 0.930 . S
C1131 C1132 1.355 . S
C1131 C1133 1.415 . S
C1132 C1131 1.355 . S
C1132 C1134 1.419 . S
C1133 C1128 1.425 . S
C1133 C1130 1.409 . S
C1133 C1131 1.415 . S
C1134 H1124 0.930 . S
C1134 C1132 1.419 . S
C1134 C1135 1.362 . S
C1135 H1125 0.930 . S
C1135 C1128 1.409 . S
C1135 C1134 1.362 . S
H1136 C1142 0.930 . S
H1137 C1145 0.930 . S
H1138 C1146 0.930 . S
H1139 C1147 0.930 . S
H1140 C1150 0.930 . S
H1141 C1151 0.930 . S
C1142 H1136 0.930 . S
C1142 C1143 1.355 . S
C1142 C1144 1.415 . S
C1143 C1142 1.355 . S
C1143 C1145 1.419 . S
C1144 C1142 1.415 . S
C1144 C1149 1.425 . S
C1144 C1151 1.409 . S
C1145 H1137 0.930 . S
C1145 C1143 1.419 . S
C1145 C1146 1.362 . S
C1146 H1138 0.930 . S
C1146 C1145 1.362 . S
C1146 C1149 1.409 . S
C1147 H1139 0.930 . S
C1147 C1148 1.355 . S
C1147 C1149 1.415 . S
C1148 C1147 1.355 . S
C1148 C1150 1.419 . S
C1149 C1144 1.425 . S
C1149 C1146 1.409 . S
C1149 C1147 1.415 . S
C1150 H1140 0.930 . S
C1150 C1148 1.419 . S
C1150 C1151 1.362 . S
C1151 H1141 0.930 . S
C1151 C1144 1.409 . S
C1151 C1150 1.362 . S
H1152 C1158 0.930 . S
H1153 C1161 0.930 . S
H1154 C1162 0.930 . S
H1155 C1163 0.930 . S
H1156 C1166 0.930 . S
H1157 C1167 0.930 . S
C1158 H1152 0.930 . S
C1158 C1159 1.355 . S
C1158 C1160 1.415 . S
C1159 C1158 1.355 . S
C1159 C1161 1.419 . S
C1160 C1158 1.415 . S
C1160 C1165 1.425 . S
C1160 C1167 1.409 . S
C1161 H1153 0.930 . S
C1161 C1159 1.419 . S
C1161 C1162 1.362 . S
C1162 H1154 0.930 . S
C1162 C1161 1.362 . S
C1162 C1165 1.409 . S
C1163 H1155 0.930 . S
C1163 C1164 1.355 . S
C1163 C1165 1.415 . S
C1164 C1163 1.355 . S
C1164 C1166 1.419 . S
C1165 C1160 1.425 . S
C1165 C1162 1.409 . S
C1165 C1163 1.415 . S
C1166 H1156 0.930 . S
C1166 C1164 1.419 . S
C1166 C1167 1.362 . S
C1167 H1157 0.930 . S
C1167 C1160 1.409 . S
C1167 C1166 1.362 . S
H1168 C1174 0.930 . S
H1169 C1177 0.930 . S
H1170 C1178 0.930 . S
H1171 C1179 0.930 . S
H1172 C1182 0.930 . S
H1173 C1183 0.930 . S
C1174 H1168 0.930 . S
C1174 C1175 1.355 . S
C1174 C1176 1.415 . S
C1175 C1174 1.355 . S
C1175 C1177 1.419 . S
C1176 C1174 1.415 . S
C1176 C1181 1.425 . S
C1176 C1183 1.409 . S
C1177 H1169 0.930 . S
C1177 C1175 1.419 . S
C1177 C1178 1.362 . S
C1178 H1170 0.930 . S
C1178 C1177 1.362 . S
C1178 C1181 1.409 . S
C1179 H1171 0.930 . S
C1179 C1180 1.355 . S
C1179 C1181 1.415 . S
C1180 C1179 1.355 . S
C1180 C1182 1.419 . S
C1181 C1176 1.425 . S
C1181 C1178 1.409 . S
C1181 C1179 1.415 . S
C1182 H1172 0.930 . S
C1182 C1180 1.419 . S
C1182 C1183 1.362 . S
C1183 H1173 0.930 . S
C1183 C1176 1.409 . S
C1183 C1182 1.362 . S
H1184 C1190 0.930 . S
H1185 C1193 0.930 . S
H1186 C1194 0.930 . S
H1187 C1195 0.930 . S
H1188 C1198 0.930 . S
H1189 C1199 0.930 . S
C1190 H1184 0.930 . S
C1190 C1191 1.355 . S
C1190 C1192 1.415 . S
C1191 C1190 1.355 . S
C1191 C1193 1.419 . S
C1192 C1190 1.415 . S
C1192 C1197 1.425 . S
C1192 C1199 1.409 . S
C1193 H1185 0.930 . S
C1193 C1191 1.419 . S
C1193 C1194 1.362 . S
C1194 H1186 0.930 . S
C1194 C1193 1.362 . S
C1194 C1197 1.409 . S
C1195 H1187 0.930 . S
C1195 C1196 1.355 . S
C1195 C1197 1.415 . S
C1196 C1195 1.355 . S
C1196 C1198 1.419 . S
C1197 C1192 1.425 . S
C1197 C1194 1.409 . S
C1197 C1195 1.415 . S
C1198 H1188 0.930 . S
C1198 C1196 1.419 . S
C1198 C1199 1.362 . S
C1199 H1189 0.930 . S
C1199 C1192 1.409 . S
C1199 C1198 1.362 . S
H1200 C1206 0.930 . S
H1201 C1209 0.930 . S
H1202 C1210 0.930 . S
H1203 C1211 0.930 . S
H1204 C1214 0.930 . S
H1205 C1215 0.930 . S
C1206 H1200 0.930 . S
C1206 C1207 1.355 . S
C1206 C1208 1.415 . S
C1207 C1206 1.355 . S
C1207 C1209 1.419 . S
C1208 C1206 1.415 . S
C1208 C1213 1.425 . S
C1208 C1215 1.409 . S
C1209 H1201 0.930 . S
C1209 C1207 1.419 . S
C1209 C1210 1.362 . S
C1210 H1202 0.930 . S
C1210 C1209 1.362 . S
C1210 C1213 1.409 . S
C1211 H1203 0.930 . S
C1211 C1212 1.355 . S
C1211 C1213 1.415 . S
C1212 C1211 1.355 . S
C1212 C1214 1.419 . S
C1213 C1208 1.425 . S
C1213 C1210 1.409 . S
C1213 C1211 1.415 . S
C1214 H1204 0.930 . S
C1214 C1212 1.419 . S
C1214 C1215 1.362 . S
C1215 H1205 0.930 . S
C1215 C1208 1.409 . S
C1215 C1214 1.362 . S
H1216 C1222 0.930 . S
H1217 C1225 0.930 . S
H1218 C1226 0.930 . S
H1219 C1227 0.930 . S
H1220 C1230 0.930 . S
H1221 C1231 0.930 . S
C1222 H1216 0.930 . S
C1222 C1223 1.355 . S
C1222 C1224 1.415 . S
C1223 C1222 1.355 . S
C1223 C1225 1.419 . S
C1224 C1222 1.415 . S
C1224 C1229 1.425 . S
C1224 C1231 1.409 . S
C1225 H1217 0.930 . S
C1225 C1223 1.419 . S
C1225 C1226 1.362 . S
C1226 H1218 0.930 . S
C1226 C1225 1.362 . S
C1226 C1229 1.409 . S
C1227 H1219 0.930 . S
C1227 C1228 1.355 . S
C1227 C1229 1.415 . S
C1228 C1227 1.355 . S
C1228 C1230 1.419 . S
C1229 C1224 1.425 . S
C1229 C1226 1.409 . S
C1229 C1227 1.415 . S
C1230 H1220 0.930 . S
C1230 C1228 1.419 . S
C1230 C1231 1.362 . S
C1231 H1221 0.930 . S
C1231 C1224 1.409 . S
C1231 C1230 1.362 . S
H1232 C1238 0.930 . S
H1233 C1241 0.930 . S
H1234 C1242 0.930 . S
H1235 C1243 0.930 . S
H1236 C1246 0.930 . S
H1237 C1247 0.930 . S
C1238 H1232 0.930 . S
C1238 C1239 1.355 . S
C1238 C1240 1.415 . S
C1239 C1238 1.355 . S
C1239 C1241 1.419 . S
C1240 C1238 1.415 . S
C1240 C1245 1.425 . S
C1240 C1247 1.409 . S
C1241 H1233 0.930 . S
C1241 C1239 1.419 . S
C1241 C1242 1.362 . S
C1242 H1234 0.930 . S
C1242 C1241 1.362 . S
C1242 C1245 1.409 . S
C1243 H1235 0.930 . S
C1243 C1244 1.355 . S
C1243 C1245 1.415 . S
C1244 C1243 1.355 . S
C1244 C1246 1.419 . S
C1245 C1240 1.425 . S
C1245 C1242 1.409 . S
C1245 C1243 1.415 . S
C1246 H1236 0.930 . S
C1246 C1244 1.419 . S
C1246 C1247 1.362 . S
C1247 H1237 0.930 . S
C1247 C1240 1.409 . S
C1247 C1246 1.362 . S
H1248 C1254 0.930 . S
H1249 C1257 0.930 . S
H1250 C1258 0.930 . S
H1251 C1259 0.930 . S
H1252 C1262 0.930 . S
H1253 C1263 0.930 . S
C1254 H1248 0.930 . S
C1254 C1255 1.355 . S
C1254 C1256 1.415 . S
C1255 C1254 1.355 . S
C1255 C1257 1.419 . S
C1256 C1254 1.415 . S
C1256 C1261 1.425 . S
C1256 C1263 1.409 . S
C1257 H1249 0.930 . S
C1257 C1255 1.419 . S
C1257 C1258 1.362 . S
C1258 H1250 0.930 . S
C1258 C1257 1.362 . S
C1258 C1261 1.409 . S
C1259 H1251 0.930 . S
C1259 C1260 1.355 . S
C1259 C1261 1.415 . S
C1260 C1259 1.355 . S
C1260 C1262 1.419 . S
C1261 C1256 1.425 . S
C1261 C1258 1.409 . S
C1261 C1259 1.415 . S
C1262 H1252 0.930 . S
C1262 C1260 1.419 . S
C1262 C1263 1.362 . S
C1263 H1253 0.930 . S
C1263 C1256 1.409 . S
C1263 C1262 1.362 . S
H1264 C1270 0.930 . S
H1265 C1273 0.930 . S
H1266 C1274 0.930 . S
H1267 C1275 0.930 . S
H1268 C1278 0.930 . S
H1269 C1279 0.930 . S
C1270 H1264 0.930 . S
C1270 C1271 1.355 . S
C1270 C1272 1.415 . S
C1271 C1270 1.355 . S
C1271 C1273 1.419 . S
C1272 C1270 1.415 . S
C1272 C1277 1.425 . S
C1272 C1279 1.409 . S
C1273 H1265 0.930 . S
C1273 C1271 1.419 . S
C1273 C1274 1.362 . S
C1274 H1266 0.930 . S
C1274 C1273 1.362 . S
C1274 C1277 1.409 . S
C1275 H1267 0.930 . S
C1275 C1276 1.355 . S
C1275 C1277 1.415 . S
C1276 C1275 1.355 . S
C1276 C1278 1.419 . S
C1277 C1272 1.425 . S
C1277 C1274 1.409 . S
C1277 C1275 1.415 . S
C1278 H1268 0.930 . S
C1278 C1276 1.419 . S
C1278 C1279 1.362 . S
C1279 H1269 0.930 . S
C1279 C1272 1.409 . S
C1279 C1278 1.362 . S
H1280 C1286 0.930 . S
H1281 C1289 0.930 . S
H1282 C1290 0.930 . S
H1283 C1291 0.930 . S
H1284 C1294 0.930 . S
H1285 C1295 0.930 . S
C1286 H1280 0.930 . S
C1286 C1287 1.355 . S
C1286 C1288 1.415 . S
C1287 C1286 1.355 . S
C1287 C1289 1.419 . S
C1288 C1286 1.415 . S
C1288 C1293 1.425 . S
C1288 C1295 1.409 . S
C1289 H1281 0.930 . S
C1289 C1287 1.419 . S
C1289 C1290 1.362 . S
C1290 H1282 0.930 . S
C1290 C1289 1.362 . S
C1290 C1293 1.409 . S
C1291 H1283 0.930 . S
C1291 C1292 1.355 . S
C1291 C1293 1.415 . S
C1292 C1291 1.355 . S
C1292 C1294 1.419 . S
C1293 C1288 1.425 . S
C1293 C1290 1.409 . S
C1293 C1291 1.415 . S
C1294 H1284 0.930 . S
C1294 C1292 1.419 . S
C1294 C1295 1.362 . S
C1295 H1285 0.930 . S
C1295 C1288 1.409 . S
C1295 C1294 1.362 . S
H1296 C1302 0.930 . S
H1297 C1305 0.930 . S
H1298 C1306 0.930 . S
H1299 C1307 0.930 . S
H1300 C1310 0.930 . S
H1301 C1311 0.930 . S
C1302 H1296 0.930 . S
C1302 C1303 1.355 . S
C1302 C1304 1.415 . S
C1303 C1302 1.355 . S
C1303 C1305 1.419 . S
C1304 C1302 1.415 . S
C1304 C1309 1.425 . S
C1304 C1311 1.409 . S
C1305 H1297 0.930 . S
C1305 C1303 1.419 . S
C1305 C1306 1.362 . S
C1306 H1298 0.930 . S
C1306 C1305 1.362 . S
C1306 C1309 1.409 . S
C1307 H1299 0.930 . S
C1307 C1308 1.355 . S
C1307 C1309 1.415 . S
C1308 C1307 1.355 . S
C1308 C1310 1.419 . S
C1309 C1304 1.425 . S
C1309 C1306 1.409 . S
C1309 C1307 1.415 . S
C1310 H1300 0.930 . S
C1310 C1308 1.419 . S
C1310 C1311 1.362 . S
C1311 H1301 0.930 . S
C1311 C1304 1.409 . S
C1311 C1310 1.362 . S
H1312 C1318 0.930 . S
H1313 C1321 0.930 . S
H1314 C1322 0.930 . S
H1315 C1323 0.930 . S
H1316 C1326 0.930 . S
H1317 C1327 0.930 . S
C1318 H1312 0.930 . S
C1318 C1319 1.355 . S
C1318 C1320 1.415 . S
C1319 C1318 1.355 . S
C1319 C1321 1.419 . S
C1320 C1318 1.415 . S
C1320 C1325 1.425 . S
C1320 C1327 1.409 . S
C1321 H1313 0.930 . S
C1321 C1319 1.419 . S
C1321 C1322 1.362 . S
C1322 H1314 0.930 . S
C1322 C1321 1.362 . S
C1322 C1325 1.409 . S
C1323 H1315 0.930 . S
C1323 C1324 1.355 . S
C1323 C1325 1.415 . S
C1324 C1323 1.355 . S
C1324 C1326 1.419 . S
C1325 C1320 1.425 . S
C1325 C1322 1.409 . S
C1325 C1323 1.415 . S
C1326 H1316 0.930 . S
C1326 C1324 1.419 . S
C1326 C1327 1.362 . S
C1327 H1317 0.930 . S
C1327 C1320 1.409 . S
C1327 C1326 1.362 . S
H1328 C1334 0.930 . S
H1329 C1337 0.930 . S
H1330 C1338 0.930 . S
H1331 C1339 0.930 . S
H1332 C1342 0.930 . S
H1333 C1343 0.930 . S
C1334 H1328 0.930 . S
C1334 C1335 1.355 . S
C1334 C1336 1.415 . S
C1335 C1334 1.355 . S
C1335 C1337 1.419 . S
C1336 C1334 1.415 . S
C1336 C1341 1.425 . S
C1336 C1343 1.409 . S
C1337 H1329 0.930 . S
C1337 C1335 1.419 . S
C1337 C1338 1.362 . S
C1338 H1330 0.930 . S
C1338 C1337 1.362 . S
C1338 C1341 1.409 . S
C1339 H1331 0.930 . S
C1339 C1340 1.355 . S
C1339 C1341 1.415 . S
C1340 C1339 1.355 . S
C1340 C1342 1.419 . S
C1341 C1336 1.425 . S
C1341 C1338 1.409 . S
C1341 C1339 1.415 . S
C1342 H1332 0.930 . S
C1342 C1340 1.419 . S
C1342 C1343 1.362 . S
C1343 H1333 0.930 . S
C1343 C1336 1.409 . S
C1343 C1342 1.362 . S
H1344 C1350 0.930 . S
H1345 C1353 0.930 . S
H1346 C1354 0.930 . S
H1347 C1355 0.930 . S
H1348 C1358 0.930 . S
H1349 C1359 0.930 . S
C1350 H1344 0.930 . S
C1350 C1351 1.355 . S
C1350 C1352 1.415 . S
C1351 C1350 1.355 . S
C1351 C1353 1.419 . S
C1352 C1350 1.415 . S
C1352 C1357 1.425 . S
C1352 C1359 1.409 . S
C1353 H1345 0.930 . S
C1353 C1351 1.419 . S
C1353 C1354 1.362 . S
C1354 H1346 0.930 . S
C1354 C1353 1.362 . S
C1354 C1357 1.409 . S
C1355 H1347 0.930 . S
C1355 C1356 1.355 . S
C1355 C1357 1.415 . S
C1356 C1355 1.355 . S
C1356 C1358 1.419 . S
C1357 C1352 1.425 . S
C1357 C1354 1.409 . S
C1357 C1355 1.415 . S
C1358 H1348 0.930 . S
C1358 C1356 1.419 . S
C1358 C1359 1.362 . S
C1359 H1349 0.930 . S
C1359 C1352 1.409 . S
C1359 C1358 1.362 . S
H1360 C1366 0.930 . S
H1361 C1369 0.930 . S
H1362 C1370 0.930 . S
H1363 C1371 0.930 . S
H1364 C1374 0.930 . S
H1365 C1375 0.930 . S
C1366 H1360 0.930 . S
C1366 C1367 1.355 . S
C1366 C1368 1.415 . S
C1367 C1366 1.355 . S
C1367 C1369 1.419 . S
C1368 C1366 1.415 . S
C1368 C1373 1.425 . S
C1368 C1375 1.409 . S
C1369 H1361 0.930 . S
C1369 C1367 1.419 . S
C1369 C1370 1.362 . S
C1370 H1362 0.930 . S
C1370 C1369 1.362 . S
C1370 C1373 1.409 . S
C1371 H1363 0.930 . S
C1371 C1372 1.355 . S
C1371 C1373 1.415 . S
C1372 C1371 1.355 . S
C1372 C1374 1.419 . S
C1373 C1368 1.425 . S
C1373 C1370 1.409 . S
C1373 C1371 1.415 . S
C1374 H1364 0.930 . S
C1374 C1372 1.419 . S
C1374 C1375 1.362 . S
C1375 H1365 0.930 . S
C1375 C1368 1.409 . S
C1375 C1374 1.362 . S
H1376 C1382 0.930 . S
H1377 C1385 0.917 1_556 S
H1378 C1386 0.930 . S
H1379 C1387 0.930 . S
H1380 C1390 0.930 . S
H1381 C1391 0.930 . S
C1382 H1376 0.930 . S
C1382 C1383 1.355 . S
C1382 C1384 1.415 . S
C1383 C1382 1.355 . S
C1383 C1385 1.419 . S
C1384 C1382 1.415 . S
C1384 C1389 1.425 . S
C1384 C1391 1.409 . S
C1385 H1377 0.917 1_554 S
C1385 C1383 1.419 . S
C1385 C1386 1.362 . S
C1386 H1378 0.930 . S
C1386 C1385 1.362 . S
C1386 C1389 1.409 . S
C1387 H1379 0.930 . S
C1387 C1388 1.355 . S
C1387 C1389 1.415 . S
C1388 C1387 1.355 . S
C1388 C1390 1.419 . S
C1389 C1384 1.425 . S
C1389 C1386 1.409 . S
C1389 C1387 1.415 . S
C1390 H1380 0.930 . S
C1390 C1388 1.419 . S
C1390 C1391 1.362 . S
C1391 H1381 0.930 . S
C1391 C1384 1.409 . S
C1391 C1390 1.362 . S
H1392 C1398 0.930 . S
H1393 C1401 0.930 . S
H1394 C1402 0.930 . S
H1395 C1403 0.930 . S
H1396 C1406 0.930 . S
H1397 C1407 0.930 . S
C1398 H1392 0.930 . S
C1398 C1399 1.355 . S
C1398 C1400 1.415 . S
C1399 C1398 1.355 . S
C1399 C1401 1.419 . S
C1400 C1398 1.415 . S
C1400 C1405 1.425 . S
C1400 C1407 1.409 . S
C1401 H1393 0.930 . S
C1401 C1399 1.419 . S
C1401 C1402 1.362 . S
C1402 H1394 0.930 . S
C1402 C1401 1.362 . S
C1402 C1405 1.409 . S
C1403 H1395 0.930 . S
C1403 C1404 1.355 . S
C1403 C1405 1.415 . S
C1404 C1403 1.355 . S
C1404 C1406 1.419 . S
C1405 C1400 1.425 . S
C1405 C1402 1.409 . S
C1405 C1403 1.415 . S
C1406 H1396 0.930 . S
C1406 C1404 1.419 . S
C1406 C1407 1.362 . S
C1407 H1397 0.930 . S
C1407 C1400 1.409 . S
C1407 C1406 1.362 . S
C647 C452 1.743 . S
C652 C2 1.716 . S
C663 C351 1.762 . S
C668 C57 1.712 . S
C679 C82 1.750 . S
C684 C372 1.765 . S
C695 C137 1.704 . S
C700 C431 1.753 . S
C711 C162 1.750 . S
C716 C212 1.755 . S
C727 C271 1.756 . S
C732 C217 1.705 . S
C743 C242 1.720 . S
C748 C292 1.743 . S
C759 C191 1.767 . S
C764 C297 1.725 . S
C775 C132 1.745 . S
C780 C322 1.730 . S
C791 C377 1.730 . S
C796 C31 1.768 . S
C807 C52 1.749 . S
C812 C402 1.704 . S
C823 C111 1.768 . S
C828 C457 1.736 . S
C839 C482 1.722 . S
C844 C532 1.743 . S
C855 C591 1.767 . S
C860 C537 1.725 . S
C871 C612 1.743 . S
C876 C562 1.714 . S
C887 C617 1.710 . S
C892 C511 1.744 . S
C903 C17 1.173 . S
C908 C177 1.186 . S
C919 C202 1.173 . S
C924 C42 1.185 . S
C935 C97 1.246 . S
C940 C257 1.270 . S
C951 C122 1.274 . S
C956 C282 1.254 . S
C967 C337 1.257 . S
C972 C497 1.227 . S
C983 C522 1.173 . S
C988 C362 1.183 . S
C999 C417 1.211 . S
C1004 C577 1.242 . S
C1015 C442 1.275 . S
C1020 C602 1.256 . S
C1031 C572 2.349 . S
C1036 C12 2.336 1_556 S
C1047 C71 2.365 1_554 S
C1052 C631 2.362 . S
C1063 C92 2.321 1_556 S
C1068 C492 2.317 . S
C1079 C151 2.317 1_554 S
C1084 C551 2.322 . S
C1095 C172 2.359 . S
C1100 C412 2.348 . S
C1111 C231 2.347 . S
C1116 C471 2.334 . S
C1127 C252 2.345 . S
C1132 C332 2.332 . S
C1143 C391 2.365 . S
C1148 C311 2.359 . S
C1159 C8 1.058 . S
C1164 C29 1.058 . S
C1175 C69 1.051 . S
C1180 C48 1.051 . S
C1191 C88 1.058 . S
C1196 C109 1.058 . S
C1207 C128 1.051 . S
C1212 C149 1.051 . S
C1223 C189 1.059 . S
C1228 C168 1.059 . S
C1239 C229 1.058 . S
C1244 C208 1.058 . S
C1255 C248 1.055 . S
C1260 C269 1.055 . S
C1271 C288 1.059 . S
C1276 C309 1.059 . S
C1287 C328 1.052 1_554 S
C1292 C349 1.052 . S
C1303 C368 1.059 . S
C1308 C389 1.059 1_556 S
C1319 C429 1.052 . S
C1324 C408 1.052 1_554 S
C1335 C469 1.060 1_556 S
C1340 C448 1.060 . S
C1351 C488 1.051 . S
C1356 C509 1.051 1_554 S
C1367 C528 1.054 1_556 S
C1372 C549 1.054 . S
C1383 C589 1.052 1_554 S
C1388 C568 1.052 . S
C1399 C629 1.053 . S
C1404 C608 1.053 1_556 S
