# Generated by pormake.
# Topology smu, (6)-cn, num edge types: 1
# Building blocks:
#     Node 0, Type 0, BuildingBlock: OJICUG_clean_sbu_0, # of connection points: 6
#     Node 1, Type 0, BuildingBlock: OJICUG_clean_sbu_0, # of connection points: 6
#     Node 2, Type 0, BuildingBlock: OJICUG_clean_sbu_0, # of connection points: 6
#     Node 3, Type 0, BuildingBlock: OJICUG_clean_sbu_0, # of connection points: 6
#     Node 4, Type 0, BuildingBlock: OJICUG_clean_sbu_0, # of connection points: 6
#     Node 5, Type 0, BuildingBlock: OJICUG_clean_sbu_0, # of connection points: 6
#     Edge 6, Type (0, 0), BuildingBlock: KIFKEQ_clean_linker_1, # of connection points: 2
#     Edge 7, Type (0, 0), BuildingBlock: KIFKEQ_clean_linker_1, # of connection points: 2
#     Edge 8, Type (0, 0), BuildingBlock: KIFKEQ_clean_linker_1, # of connection points: 2
#     Edge 9, Type (0, 0), BuildingBlock: KIFKEQ_clean_linker_1, # of connection points: 2
#     Edge 10, Type (0, 0), BuildingBlock: KIFKEQ_clean_linker_1, # of connection points: 2
#     Edge 11, Type (0, 0), BuildingBlock: KIFKEQ_clean_linker_1, # of connection points: 2
#     Edge 12, Type (0, 0), BuildingBlock: KIFKEQ_clean_linker_1, # of connection points: 2
#     Edge 13, Type (0, 0), BuildingBlock: KIFKEQ_clean_linker_1, # of connection points: 2
#     Edge 14, Type (0, 0), BuildingBlock: KIFKEQ_clean_linker_1, # of connection points: 2
#     Edge 15, Type (0, 0), BuildingBlock: KIFKEQ_clean_linker_1, # of connection points: 2
#     Edge 16, Type (0, 0), BuildingBlock: KIFKEQ_clean_linker_1, # of connection points: 2
#     Edge 17, Type (0, 0), BuildingBlock: KIFKEQ_clean_linker_1, # of connection points: 2
#     Edge 18, Type (0, 0), BuildingBlock: KIFKEQ_clean_linker_1, # of connection points: 2
#     Edge 19, Type (0, 0), BuildingBlock: KIFKEQ_clean_linker_1, # of connection points: 2
#     Edge 20, Type (0, 0), BuildingBlock: KIFKEQ_clean_linker_1, # of connection points: 2
#     Edge 21, Type (0, 0), BuildingBlock: KIFKEQ_clean_linker_1, # of connection points: 2
#     Edge 22, Type (0, 0), BuildingBlock: KIFKEQ_clean_linker_1, # of connection points: 2
#     Edge 23, Type (0, 0), BuildingBlock: KIFKEQ_clean_linker_1, # of connection points: 2
# Relax obj value: 0.250
# Max RMSD: 0.294
# Mean RMSD: 0.265
data_MOF--net-smu--node1-OJICUG_clean_sbu_0--edge1-KIFKEQ_clean_linker_1
_symmetry_space_group_name_H-M    P1
_symmetry_Int_Tables_number       1
_symmetry_cell_setting            triclinic
loop_
_symmetry_equiv_pos_as_xyz
'x, y, z'
_cell_length_a     30.732684
_cell_length_b     30.784324
_cell_length_c     31.564437
_cell_angle_alpha  95.521386
_cell_angle_beta   95.503546
_cell_angle_gamma 120.11183
loop_
_atom_site_label
_atom_site_type_symbol
_atom_site_fract_x
_atom_site_fract_y
_atom_site_fract_z
_atom_type_partial_charge
Sc0 Sc 0.29381 0.06751 0.19182 0.0
Sc1 Sc 0.32865 0.99204 0.24352 0.0
Sc2 Sc 0.36638 0.11557 0.29469 0.0
O3 O 0.32911 0.05822 0.24405 0.0
C4 C 0.38773 0.18042 0.22001 0.0
C5 C 0.34816 0.01756 0.14919 0.0
C6 C 0.44423 0.07755 0.27707 0.0
C7 C 0.21801 0.95067 0.19838 0.0
C8 C 0.25884 0.10923 0.2676 0.0
C9 C 0.32444 0.02011 0.34329 0.0
O10 O 0.34699 0.14759 0.19497 0.0
O11 O 0.33679 0.98581 0.17536 0.0
O12 O 0.4346 0.10978 0.29586 0.0
O13 O 0.23294 0.98875 0.1789 0.0
O14 O 0.3007 0.1268 0.29398 0.0
O15 O 0.32158 0.9894 0.31151 0.0
O16 O 0.24942 0.0836 0.23038 0.0
O17 O 0.24718 0.94767 0.22776 0.0
O18 O 0.33724 0.06574 0.34069 0.0
O19 O 0.33924 0.05354 0.15296 0.0
O20 O 0.40185 0.17267 0.25594 0.0
O21 O 0.40966 0.03343 0.2578 0.0
Sc22 Sc 0.74653 0.61834 0.19779 0.0
Sc23 Sc 0.672 0.65536 0.25056 0.0
Sc24 Sc 0.79933 0.69994 0.29607 0.0
O25 O 0.739 0.65797 0.24818 0.0
C26 C 0.80402 0.59908 0.27308 0.0
C27 C 0.63118 0.54223 0.20837 0.0
C28 C 0.70823 0.64902 0.34795 0.0
C29 C 0.68707 0.66366 0.15135 0.0
C30 C 0.85574 0.72082 0.21715 0.0
C31 C 0.75113 0.77077 0.29045 0.0
O32 O 0.77053 0.58107 0.23929 0.0
O33 O 0.62739 0.57382 0.23434 0.0
O34 O 0.75397 0.66434 0.34306 0.0
O35 O 0.72199 0.65288 0.15393 0.0
O36 O 0.8486 0.73862 0.25198 0.0
O37 O 0.70921 0.73671 0.26715 0.0
O38 O 0.82471 0.67606 0.19682 0.0
O39 O 0.66267 0.66271 0.18226 0.0
O40 O 0.78537 0.76188 0.30503 0.0
O41 O 0.67041 0.55446 0.19097 0.0
O42 O 0.82238 0.64375 0.29397 0.0
O43 O 0.6751 0.64708 0.31876 0.0
Sc44 Sc 0.89776 0.19807 0.20037 0.0
Sc45 Sc -0.00521 0.32038 0.25077 0.0
Sc46 Sc 0.89618 0.24705 0.30316 0.0
O47 O 0.92824 0.25502 0.25038 0.0
C48 C 0.80185 0.20213 0.22844 0.0
C49 C 0.9494 0.28833 0.14968 0.0
C50 C 0.93098 0.36084 0.28617 0.0
C51 C 0.01695 0.23372 0.22491 0.0
C52 C 0.869 0.13295 0.2756 0.0
C53 C 0.0028 0.31047 0.34966 0.0
O54 O 0.82153 0.18709 0.2008 0.0
O55 O 0.98579 0.31557 0.18097 0.0
O56 O 0.91511 0.32609 0.30982 0.0
O57 O 0.97251 0.20486 0.20177 0.0
O58 O 0.87173 0.1676 0.30298 0.0
O59 O 0.01519 0.33894 0.32107 0.0
O60 O 0.88029 0.14003 0.23843 0.0
O61 O 0.03139 0.27703 0.247 0.0
O62 O 0.96624 0.26502 0.34029 0.0
O63 O 0.90981 0.24772 0.15404 0.0
O64 O 0.82506 0.22639 0.26617 0.0
O65 O 0.9561 0.36153 0.25606 0.0
Sc66 Sc 0.05754 0.29342 0.69031 0.0
Sc67 Sc 0.9853 0.33033 0.74629 0.0
Sc68 Sc 0.10952 0.36416 0.79381 0.0
O69 O 0.05067 0.3289 0.74402 0.0
C70 C 0.09988 0.25638 0.7651 0.0
C71 C 0.942 0.21795 0.70203 0.0
C72 C 0.01635 0.32696 0.8454 0.0
C73 C 0.00564 0.3483 0.65077 0.0
C74 C 0.17197 0.38548 0.71641 0.0
C75 C 0.07462 0.44476 0.77846 0.0
O76 O 0.07708 0.25001 0.72726 0.0
O77 O 0.93926 0.24845 0.73037 0.0
O78 O 0.06146 0.33876 0.84154 0.0
O79 O 0.04004 0.3371 0.65211 0.0
O80 O 0.1668 0.39667 0.75441 0.0
O81 O 0.02879 0.41184 0.7613 0.0
O82 O 0.13672 0.34777 0.68984 0.0
O83 O 0.97624 0.33916 0.67875 0.0
O84 O 0.10678 0.43332 0.79418 0.0
O85 O 0.97934 0.23189 0.68161 0.0
O86 O 0.11646 0.2965 0.79321 0.0
O87 O 0.98468 0.32352 0.81422 0.0
Sc88 Sc 0.17791 0.88915 0.69654 0.0
Sc89 Sc 0.30167 0.98623 0.74367 0.0
Sc90 Sc 0.23349 0.88671 0.7966 0.0
O91 O 0.23747 0.91961 0.7446 0.0
C92 C 0.11939 0.86215 0.77593 0.0
C93 C 0.21417 0.00796 0.72113 0.0
C94 C 0.29579 -0.00618 0.84372 0.0
C95 C 0.26528 0.94012 0.64249 0.0
C96 C 0.18577 0.79377 0.72086 0.0
C97 C 0.34612 0.92425 0.77549 0.0
O98 O 0.12402 0.875 0.739 0.0
O99 O 0.2579 0.02224 0.74229 0.0
O100 O 0.25144 0.95504 0.83635 0.0
O101 O 0.22453 0.90073 0.64725 0.0
O102 O 0.21329 0.81759 0.75743 0.0
O103 O 0.34376 0.94868 0.7459 0.0
O104 O 0.16679 0.81249 0.69555 0.0
O105 O 0.29363 0.97618 0.67376 0.0
O106 O 0.31318 0.90765 0.80076 0.0
O107 O 0.18471 0.96364 0.69822 0.0
O108 O 0.15412 0.8604 0.79951 0.0
O109 O 0.32268 0.00714 0.81398 0.0
Sc110 Sc 0.61446 0.73926 0.69022 0.0
Sc111 Sc 0.64571 0.66505 0.74916 0.0
Sc112 Sc 0.68253 0.78962 0.79513 0.0
O113 O 0.64764 0.73135 0.74489 0.0
C114 C 0.71383 0.85055 0.71793 0.0
C115 C 0.66065 0.6778 0.65102 0.0
C116 C 0.75866 0.74672 0.79285 0.0
C117 C 0.53488 0.62463 0.70165 0.0
C118 C 0.58298 0.79271 0.76042 0.0
C119 C 0.63265 0.69737 0.84501 0.0
O120 O 0.67371 0.81757 0.69186 0.0
O121 O 0.65432 0.65285 0.6821 0.0
O122 O 0.74627 0.77833 0.8075 0.0
O123 O 0.5496 0.66259 0.68193 0.0
O124 O 0.62286 0.80769 0.78795 0.0
O125 O 0.63594 0.66733 0.81653 0.0
O126 O 0.57253 0.76395 0.72473 0.0
O127 O 0.56429 0.62141 0.73074 0.0
O128 O 0.64337 0.74182 0.83993 0.0
O129 O 0.65419 0.71538 0.65144 0.0
O130 O 0.7252 0.8438 0.75546 0.0
O131 O 0.72731 0.70484 0.76793 0.0
H132 H 0.24977 -0.00087 0.9109 0.0
H133 H 0.39437 0.02685 0.87933 0.0
H134 H 0.27859 0.00107 0.986 0.0
H135 H 0.42358 0.02967 0.95548 0.0
H136 H 0.42639 0.08767 0.1157 0.0
H137 H 0.42755 0.08665 0.03827 0.0
H138 H 0.30471 0.92975 0.0131 0.0
H139 H 0.30373 0.93061 0.09057 0.0
C140 C 0.28831 0.00723 0.92033 0.0
C141 C 0.3197 0.01252 0.88936 0.0
C142 C 0.30444 0.00756 0.96305 0.0
C143 C 0.35242 0.01365 0.9757 0.0
C144 C 0.38603 0.02397 0.94591 0.0
C145 C 0.36963 0.02322 0.90271 0.0
C146 C 0.40175 0.05212 0.09368 0.0
C147 C 0.36455 0.00933 0.10867 0.0
C148 C 0.4024 0.05166 0.04951 0.0
C149 C 0.36562 0.00848 0.02019 0.0
C150 C 0.33327 0.96351 0.03549 0.0
C151 C 0.33296 0.96381 0.07971 0.0
H152 H 0.59687 0.58998 0.5957 0.0
H153 H 0.74418 0.72788 0.614 0.0
H154 H 0.60393 0.57052 0.52013 0.0
H155 H 0.75211 0.70788 0.53926 0.0
H156 H 0.76653 0.64035 0.41338 0.0
H157 H 0.75406 0.63583 0.48795 0.0
H158 H 0.6089 0.62493 0.45598 0.0
H159 H 0.6214 0.63032 0.38066 0.0
C160 C 0.63152 0.61495 0.58389 0.0
C161 C 0.67044 0.65992 0.61041 0.0
C162 C 0.63528 0.60416 0.54076 0.0
C163 C 0.6785 0.63773 0.5241 0.0
C164 C 0.71862 0.68116 0.55153 0.0
C165 C 0.7143 0.69253 0.5942 0.0
C166 C 0.73149 0.63633 0.42181 0.0
C167 C 0.6954 0.63685 0.39106 0.0
C168 C 0.72444 0.63356 0.4646 0.0
C169 C 0.68086 0.63052 0.47761 0.0
C170 C 0.64279 0.62705 0.44652 0.0
C171 C 0.65005 0.63034 0.40351 0.0
H172 H 0.03394 0.36275 0.12298 0.0
H173 H 0.87811 0.2417 0.07585 0.0
H174 H 0.04697 0.37427 0.04896 0.0
H175 H 0.8916 0.25279 0.00193 0.0
H176 H 0.07262 0.32597 0.91712 0.0
H177 H 0.0539 0.32159 0.98989 0.0
H178 H 0.90992 0.30942 0.94694 0.0
H179 H 0.92847 0.31344 0.87314 0.0
C180 C 0.00224 0.33907 0.09698 0.0
C181 C 0.95519 0.30087 0.10549 0.0
C182 C 0.00983 0.34541 0.05449 0.0
C183 C 0.97055 0.31385 0.01951 0.0
C184 C 0.9226 0.27777 0.0281 0.0
C185 C 0.91502 0.2713 0.07057 0.0
C186 C 0.03682 0.32228 0.92287 0.0
C187 C 0.00214 0.32027 0.88905 0.0
C188 C 0.02634 0.32025 0.96486 0.0
C189 C 0.98085 0.31605 0.97442 0.0
C190 C 0.94538 0.31272 0.94059 0.0
C191 C 0.95597 0.31493 0.89831 0.0
H192 H 0.29657 0.92622 0.36647 0.0
H193 H 0.33079 0.07748 0.4176 0.0
H194 H 0.28519 0.90291 0.43853 0.0
H195 H 0.31922 0.05415 0.48842 0.0
H196 H 0.34789 0.01958 0.61845 0.0
H197 H 0.36337 0.03466 0.54564 0.0
H198 H 0.22682 0.8904 0.49302 0.0
H199 H 0.21142 0.87472 0.56605 0.0
C200 C 0.30148 0.95439 0.39283 0.0
C201 C 0.31484 0.00381 0.38604 0.0
C202 C 0.29491 0.94101 0.43407 0.0
C203 C 0.30204 0.97693 0.46933 0.0
C204 C 0.31458 0.02589 0.46225 0.0
C205 C 0.3208 0.03911 0.42133 0.0
C206 C 0.32139 0.99067 0.5915 0.0
C207 C 0.27802 0.94621 0.59831 0.0
C208 C 0.33017 -0.00053 0.54968 0.0
C209 C 0.29589 0.96408 0.5135 0.0
C210 C 0.254 0.91835 0.52019 0.0
C211 C 0.24511 0.90953 0.56212 0.0
H212 H 0.60669 0.74255 0.90882 0.0
H213 H 0.63712 0.62118 0.87929 0.0
H214 H 0.61054 0.73263 0.98482 0.0
H215 H 0.64113 0.61185 0.9552 0.0
H216 H 0.74486 0.69196 0.08837 0.0
H217 H 0.71817 0.69274 0.01387 0.0
H218 H 0.57071 0.65909 0.0416 0.0
H219 H 0.59699 0.65688 0.11732 0.0
C220 C 0.61287 0.7129 0.91827 0.0
C221 C 0.62261 0.68328 0.88812 0.0
C222 C 0.61471 0.70713 0.96171 0.0
C223 C 0.62667 0.67195 0.97563 0.0
C224 C 0.63208 0.63943 0.94503 0.0
C225 C 0.62971 0.64477 0.90159 0.0
C226 C 0.70673 0.68492 0.079 0.0
C227 C 0.67273 0.6735 0.10874 0.0
C228 C 0.69148 0.68515 0.03621 0.0
C229 C 0.64208 0.67464 0.022 0.0
C230 C 0.60885 0.66664 0.05196 0.0
C231 C 0.62402 0.6658 0.09518 0.0
H232 H 0.006 0.26371 0.41686 0.0
H233 H 0.02832 0.40653 0.3859 0.0
H234 H 0.00073 0.28875 0.49083 0.0
H235 H 0.02385 0.43192 0.46092 0.0
H236 H 0.07417 0.43193 0.62227 0.0
H237 H 0.07709 0.43694 0.5457 0.0
H238 H 0.92346 0.30772 0.51356 0.0
H239 H 0.92046 0.30288 0.59019 0.0
C240 C 0.01133 0.30109 0.42625 0.0
C241 C 0.0172 0.33298 0.39567 0.0
C242 C 0.00752 0.31503 0.46828 0.0
C243 C 0.00998 0.36129 0.48063 0.0
C244 C 0.02085 0.39562 0.45151 0.0
C245 C 0.02427 0.38142 0.40899 0.0
C246 C 0.03991 0.40677 0.59891 0.0
C247 C -0.00279 0.36673 0.61165 0.0
C248 C 0.04172 0.40956 0.55521 0.0
C249 C 0.00091 0.3721 0.52421 0.0
C250 C 0.95541 0.33683 0.53728 0.0
C251 C 0.95346 0.33432 0.58102 0.0
H252 H 0.47321 0.03153 0.21776 0.0
H253 H 0.53474 0.16204 0.3191 0.0
H254 H 0.55629 0.06295 0.19791 0.0
H255 H 0.6197 0.19224 0.30086 0.0
H256 H 0.75934 0.26002 0.24014 0.0
H257 H 0.67148 0.22952 0.25002 0.0
H258 H 0.63574 0.0742 0.21601 0.0
H259 H 0.72271 0.10538 0.20361 0.0
C260 C 0.50482 0.0664 0.23675 0.0
C261 C 0.49714 0.09407 0.27043 0.0
C262 C 0.55283 0.08449 0.2252 0.0
C263 C 0.59513 0.13032 0.2475 0.0
C264 C 0.58789 0.15736 0.28215 0.0
C265 C 0.53932 0.1397 0.29318 0.0
C266 C 0.73185 0.21945 0.233 0.0
C267 C 0.74732 0.18498 0.22045 0.0
C268 C 0.68181 0.20184 0.23965 0.0
C269 C 0.64648 0.14927 0.23494 0.0
C270 C 0.66143 0.11495 0.21965 0.0
C271 C 0.71125 0.13269 0.21211 0.0
H272 H 0.53656 0.50008 0.23222 0.0
H273 H 0.63214 0.46203 0.16451 0.0
H274 H 0.47287 0.4094 0.2247 0.0
H275 H 0.56862 0.37199 0.15746 0.0
H276 H 0.49057 0.23634 0.2358 0.0
H277 H 0.54516 0.32301 0.22315 0.0
H278 H 0.41273 0.32451 0.16562 0.0
H279 H 0.35766 0.23664 0.17757 0.0
C280 C 0.54367 0.47257 0.21523 0.0
C281 C 0.58978 0.48825 0.19961 0.0
C282 C 0.50705 0.42083 0.21061 0.0
C283 C 0.51625 0.38415 0.19068 0.0
C284 C 0.56096 0.3998 0.17309 0.0
C285 C 0.59727 0.45135 0.17728 0.0
C286 C 0.47321 0.25491 0.21986 0.0
C287 C 0.42012 0.23022 0.20775 0.0
C288 C 0.50437 0.30424 0.21241 0.0
C289 C 0.48291 0.33005 0.19342 0.0
C290 C 0.42989 0.30507 0.1803 0.0
C291 C 0.39862 0.25504 0.18692 0.0
H292 H 0.97268 0.45208 0.25687 0.0
H293 H 0.86041 0.36015 0.33263 0.0
H294 H 0.94527 0.51412 0.26401 0.0
H295 H 0.83318 0.42205 0.33936 0.0
H296 H 0.75269 0.49627 0.26475 0.0
H297 H 0.78827 0.44255 0.27711 0.0
H298 H 0.93711 0.57645 0.32229 0.0
H299 H 0.9012 0.63063 0.31051 0.0
C300 C 0.94267 0.44542 0.27543 0.0
C301 C 0.91835 0.40097 0.29377 0.0
C302 C 0.92738 0.48112 0.27984 0.0
C303 C 0.88717 0.47259 0.30219 0.0
C304 C 0.86422 0.42926 0.32191 0.0
C305 C 0.87988 0.39393 0.31801 0.0
C306 C 0.79281 0.51421 0.27808 0.0
C307 C 0.82433 0.56745 0.28654 0.0
C308 C 0.81306 0.48353 0.28536 0.0
C309 C 0.86534 0.50556 0.30054 0.0
C310 C 0.89667 0.5588 0.31048 0.0
C311 C 0.87613 0.58961 0.30399 0.0
H312 H 0.02352 0.49628 0.77724 0.0
H313 H 0.16713 0.51012 0.75949 0.0
H314 H 0.05076 0.57774 0.75316 0.0
H315 H 0.19299 0.58898 0.73222 0.0
H316 H 0.2477 0.75756 0.73847 0.0
H317 H 0.22133 0.67255 0.75114 0.0
H318 H 0.06587 0.62207 0.69543 0.0
H319 H 0.09262 0.70946 0.6857 0.0
C320 C 0.06114 0.51712 0.76856 0.0
C321 C 0.09372 0.49755 0.77128 0.0
C322 C 0.07641 0.56328 0.75378 0.0
C323 C 0.12406 0.59021 0.74017 0.0
C324 C 0.15652 0.57033 0.74313 0.0
C325 C 0.14185 0.52505 0.75907 0.0
C326 C 0.2081 0.72794 0.72771 0.0
C327 C 0.1721 0.74018 0.71157 0.0
C328 C 0.19278 0.67882 0.73497 0.0
C329 C 0.14104 0.64013 0.72538 0.0
C330 C 0.1058 0.6512 0.70464 0.0
C331 C 0.12118 0.70097 0.69798 0.0
H332 H 0.41508 0.941 0.72149 0.0
H333 H 0.37072 0.88182 0.83911 0.0
H334 H 0.47591 0.91242 0.72318 0.0
H335 H 0.43205 0.85328 0.84045 0.0
H336 H 0.58596 0.85102 0.83375 0.0
H337 H 0.53278 0.88875 0.84257 0.0
H338 H 0.45084 0.81668 0.71317 0.0
H339 H 0.50267 0.77887 0.70416 0.0
C340 C 0.41877 0.92262 0.74805 0.0
C341 C 0.38744 0.91291 0.77977 0.0
C342 C 0.45356 0.90627 0.74893 0.0
C343 C 0.45796 0.8803 0.78168 0.0
C344 C 0.42918 0.87334 0.81495 0.0
C345 C 0.39394 0.88937 0.81393 0.0
C346 C 0.55631 0.84296 0.80737 0.0
C347 C 0.54884 0.81225 0.76816 0.0
C348 C 0.52605 0.8645 0.81247 0.0
C349 C 0.48861 0.85612 0.77824 0.0
C350 C 0.48022 0.82437 0.7397 0.0
C351 C 0.50979 0.80248 0.73475 0.0
H352 H 0.2245 0.35638 0.66728 0.0
H353 H 0.23115 0.48777 0.73727 0.0
H354 H 0.31215 0.41098 0.65415 0.0
H355 H 0.31742 0.54204 0.72319 0.0
H356 H 0.4557 0.6305 0.66173 0.0
H357 H 0.36478 0.56892 0.65537 0.0
H358 H 0.39919 0.46634 0.71398 0.0
H359 H 0.4905 0.52813 0.72103 0.0
C360 C 0.2443 0.39699 0.67893 0.0
C361 C 0.22149 0.41806 0.70339 0.0
C362 C 0.29423 0.428 0.6716 0.0
C363 C 0.3211 0.48051 0.68758 0.0
C364 C 0.29721 0.50171 0.71021 0.0
C365 C 0.24807 0.4707 0.71843 0.0
C366 C 0.44405 0.59446 0.67254 0.0
C367 C 0.48031 0.58442 0.69239 0.0
C368 C 0.39203 0.55932 0.66885 0.0
C369 C 0.37533 0.51317 0.68422 0.0
C370 C 0.41134 0.50159 0.70158 0.0
C371 C 0.46348 0.53711 0.70591 0.0
H372 H 0.27352 0.19799 0.31275 0.0
H373 H 0.15729 0.05137 0.2404 0.0
H374 H 0.21263 0.2272 0.30738 0.0
H375 H 0.0982 0.08083 0.23223 0.0
H376 H -0.0103 0.13672 0.2326 0.0
H377 H 0.04528 0.1055 0.25527 0.0
H378 H 0.17727 0.25393 0.25511 0.0
H379 H 0.12097 0.28573 0.23559 0.0
C380 C 0.23464 0.17162 0.29679 0.0
C381 C 0.22031 0.12262 0.27667 0.0
C382 C 0.19994 0.1886 0.29279 0.0
C383 C 0.15055 0.15699 0.26829 0.0
C384 C 0.13539 0.10656 0.25154 0.0
C385 C 0.16958 0.08954 0.25608 0.0
C386 C 0.03063 0.16236 0.23678 0.0
C387 C 0.05107 0.21336 0.23154 0.0
C388 C 0.06272 0.14458 0.25001 0.0
C389 C 0.11621 0.17699 0.25716 0.0
C390 C 0.13648 0.22794 0.25103 0.0
C391 C 0.10427 0.24604 0.23896 0.0
H392 H 0.91331 0.8241 0.22869 0.0
H393 H 0.90814 0.68746 0.1728 0.0
H394 H -0.00051 0.87557 0.21317 0.0
H395 H -0.005 0.73921 0.15795 0.0
H396 H 0.14054 0.95565 0.15386 0.0
H397 H 0.04933 0.8962 0.14785 0.0
H398 H 0.08004 0.7965 0.2153 0.0
H399 H 0.1717 0.85613 0.22188 0.0
C400 C 0.93035 0.80521 0.21248 0.0
C401 C 0.90432 0.75191 0.20211 0.0
C402 C 0.97944 0.8346 0.2034 0.0
C403 C 0.00359 0.81112 0.18449 0.0
C404 C 0.97696 0.75797 0.1726 0.0
C405 C 0.92736 0.72855 0.1809 0.0
C406 C 0.12804 0.9206 0.16668 0.0
C407 C 0.16338 0.91085 0.18885 0.0
C408 C 0.07583 0.88672 0.16324 0.0
C409 C 0.05801 0.84215 0.18126 0.0
C410 C 0.09308 0.83059 0.20088 0.0
C411 C 0.14543 0.86484 0.20489 0.0
H412 H 0.86934 0.10111 0.35445 0.0
H413 H 0.81986 0.04645 0.21714 0.0
H414 H 0.8348 0.01261 0.36674 0.0
H415 H 0.78566 0.9597 0.22939 0.0
H416 H 0.69126 0.8072 0.26044 0.0
H417 H 0.71469 0.89591 0.26526 0.0
H418 H 0.85882 0.94331 0.34392 0.0
H419 H 0.8356 0.85448 0.33953 0.0
C420 C 0.85086 0.07035 0.32711 0.0
C421 C 0.84773 0.08066 0.28486 0.0
C422 C 0.83122 0.01998 0.3341 0.0
C423 C 0.80716 0.97951 0.299 0.0
C424 C 0.80325 0.99006 0.25707 0.0
C425 C 0.82345 0.03991 0.25008 0.0
C426 C 0.72758 0.83631 0.27944 0.0
C427 C 0.76201 0.82372 0.29878 0.0
C428 C 0.74088 0.88708 0.28226 0.0
C429 C 0.78872 0.92628 0.30459 0.0
C430 C 0.8216 0.91372 0.3267 0.0
C431 C 0.80841 0.86285 0.32376 0.0
H432 H 0.18383 0.26521 0.81405 0.0
H433 H 0.03971 0.15628 0.73338 0.0
H434 H 0.20954 0.20162 0.80895 0.0
H435 H 0.06598 0.09457 0.72582 0.0
H436 H 0.11656 0.98191 0.7262 0.0
H437 H 0.08636 0.03824 0.74954 0.0
H438 H 0.23768 0.16866 0.75539 0.0
H439 H 0.26824 0.11167 0.73498 0.0
C440 C 0.15719 0.22732 0.79627 0.0
C441 C 0.11018 0.21587 0.77362 0.0
C442 C 0.17219 0.19114 0.79256 0.0
C443 C 0.1405 0.14324 0.7659 0.0
C444 C 0.09158 0.13066 0.74672 0.0
C445 C 0.07651 0.16633 0.75088 0.0
C446 C 0.1431 0.02267 0.73198 0.0
C447 C 0.19453 0.04251 0.72823 0.0
C448 C 0.12592 0.0551 0.74559 0.0
C449 C 0.15952 0.1083 0.75465 0.0
C450 C 0.21086 0.12801 0.74991 0.0
C451 C 0.22826 0.09544 0.73735 0.0
H452 H 0.06491 0.908 0.76494 0.0
H453 H 0.06442 0.78456 0.81969 0.0
H454 H 0.97933 0.87935 0.78012 0.0
H455 H 0.97752 0.75501 0.83439 0.0
H456 H 0.80137 0.68919 0.77262 0.0
H457 H 0.89212 0.71825 0.78006 0.0
H458 H 0.92944 0.86641 0.84284 0.0
H459 H 0.83911 0.83784 0.83564 0.0
C460 C 0.04662 0.87511 0.78085 0.0
C461 C 0.07096 0.84831 0.79103 0.0
C462 C -0.00219 0.8589 0.78978 0.0
C463 C 0.97191 0.815 0.80841 0.0
C464 C -0.00319 0.78898 0.81997 0.0
C465 C 0.04639 0.80595 0.81181 0.0
C466 C 0.82883 0.72768 0.78872 0.0
C467 C 0.81288 0.7614 0.80286 0.0
C468 C 0.88076 0.74412 0.79329 0.0
C469 C 0.91761 0.79462 0.81176 0.0
C470 C 0.90169 0.82737 0.8282 0.0
C471 C 0.84989 0.8109 0.824 0.0
H472 H 0.84672 0.1707 0.72538 0.0
H473 H 0.95087 0.14009 0.66424 0.0
H474 H 0.78877 0.07883 0.72147 0.0
H475 H 0.89357 0.04919 0.6613 0.0
H476 H 0.81652 0.91293 0.74143 0.0
H477 H 0.86857 0.00108 0.73032 0.0
H478 H 0.73593 0.99149 0.65948 0.0
H479 H 0.68384 0.90257 0.66952 0.0
C480 C 0.85691 0.14453 0.7106 0.0
C481 C 0.90347 0.16281 0.69525 0.0
C482 C 0.82372 0.09209 0.70823 0.0
C483 C 0.83706 0.05733 0.69121 0.0
C484 C 0.88263 0.0754 0.67461 0.0
C485 C 0.91526 0.1275 0.67623 0.0
C486 C 0.79871 0.92935 0.72279 0.0
C487 C 0.7463 0.901 0.70617 0.0
C488 C 0.8284 0.97964 0.71645 0.0
C489 C 0.80599 0.00281 0.69425 0.0
C490 C 0.75385 0.97428 0.6768 0.0
C491 C 0.72431 0.92347 0.68224 0.0
loop_
_geom_bond_atom_site_label_1
_geom_bond_atom_site_label_2
_geom_bond_distance
_geom_bond_site_symmetry_2
_ccdc_geom_bond_type
Sc0 O3 2.025 . S
Sc0 O10 2.105 . S
Sc0 O13 2.105 . S
Sc0 O16 2.105 . S
Sc0 O19 2.105 . S
Sc1 O3 2.025 . S
Sc1 O11 2.105 . S
Sc1 O15 2.105 . S
Sc1 O17 2.105 1_545 S
Sc1 O21 2.105 . S
Sc2 O3 2.025 . S
Sc2 O12 2.105 . S
Sc2 O14 2.105 . S
Sc2 O18 2.105 . S
Sc2 O20 2.105 . S
O3 Sc0 2.025 . S
O3 Sc1 2.025 . S
O3 Sc2 2.025 . S
C4 O10 1.268 . S
C4 O20 1.268 . S
C5 O11 1.268 . S
C5 O19 1.268 . S
C6 O12 1.268 . S
C6 O21 1.268 . S
C7 O13 1.268 1_565 S
C7 O17 1.268 . S
C8 O14 1.268 . S
C8 O16 1.268 . S
C9 O15 1.268 . S
C9 O18 1.268 . S
O10 Sc0 2.105 . S
O10 C4 1.268 . S
O11 Sc1 2.105 . S
O11 C5 1.268 . S
O12 Sc2 2.105 . S
O12 C6 1.268 . S
O13 Sc0 2.105 . S
O13 C7 1.268 1_545 S
O14 Sc2 2.105 . S
O14 C8 1.268 . S
O15 Sc1 2.105 . S
O15 C9 1.268 . S
O16 Sc0 2.105 . S
O16 C8 1.268 . S
O17 Sc1 2.105 1_565 S
O17 C7 1.268 . S
O18 Sc2 2.105 . S
O18 C9 1.268 . S
O19 Sc0 2.105 . S
O19 C5 1.268 . S
O20 Sc2 2.105 . S
O20 C4 1.268 . S
O21 Sc1 2.105 . S
O21 C6 1.268 . S
Sc22 O25 2.025 . S
Sc22 O32 2.105 . S
Sc22 O35 2.105 . S
Sc22 O38 2.105 . S
Sc22 O41 2.105 . S
Sc23 O25 2.025 . S
Sc23 O33 2.105 . S
Sc23 O37 2.105 . S
Sc23 O39 2.105 . S
Sc23 O43 2.105 . S
Sc24 O25 2.025 . S
Sc24 O34 2.105 . S
Sc24 O36 2.105 . S
Sc24 O40 2.105 . S
Sc24 O42 2.105 . S
O25 Sc22 2.025 . S
O25 Sc23 2.025 . S
O25 Sc24 2.025 . S
C26 O32 1.268 . S
C26 O42 1.268 . S
C27 O33 1.268 . S
C27 O41 1.268 . S
C28 O34 1.268 . S
C28 O43 1.268 . S
C29 O35 1.268 . S
C29 O39 1.268 . S
C30 O36 1.268 . S
C30 O38 1.268 . S
C31 O37 1.268 . S
C31 O40 1.268 . S
O32 Sc22 2.105 . S
O32 C26 1.268 . S
O33 Sc23 2.105 . S
O33 C27 1.268 . S
O34 Sc24 2.105 . S
O34 C28 1.268 . S
O35 Sc22 2.105 . S
O35 C29 1.268 . S
O36 Sc24 2.105 . S
O36 C30 1.268 . S
O37 Sc23 2.105 . S
O37 C31 1.268 . S
O38 Sc22 2.105 . S
O38 C30 1.268 . S
O39 Sc23 2.105 . S
O39 C29 1.268 . S
O40 Sc24 2.105 . S
O40 C31 1.268 . S
O41 Sc22 2.105 . S
O41 C27 1.268 . S
O42 Sc24 2.105 . S
O42 C26 1.268 . S
O43 Sc23 2.105 . S
O43 C28 1.268 . S
Sc44 O47 2.025 . S
Sc44 O54 2.105 . S
Sc44 O57 2.105 . S
Sc44 O60 2.105 . S
Sc44 O63 2.105 . S
Sc45 O47 2.025 . S
Sc45 O55 2.105 . S
Sc45 O59 2.105 1_655 S
Sc45 O61 2.105 1_655 S
Sc45 O65 2.105 . S
Sc46 O47 2.025 . S
Sc46 O56 2.105 . S
Sc46 O58 2.105 . S
Sc46 O62 2.105 . S
Sc46 O64 2.105 . S
O47 Sc44 2.025 . S
O47 Sc45 2.025 . S
O47 Sc46 2.025 . S
C48 O54 1.268 . S
C48 O64 1.268 . S
C49 O55 1.268 . S
C49 O63 1.268 . S
C50 O56 1.268 . S
C50 O65 1.268 . S
C51 O57 1.268 1_455 S
C51 O61 1.268 . S
C52 O58 1.268 . S
C52 O60 1.268 . S
C53 O59 1.268 1_655 S
C53 O62 1.268 . S
O54 Sc44 2.105 . S
O54 C48 1.268 . S
O55 Sc45 2.105 . S
O55 C49 1.268 . S
O56 Sc46 2.105 . S
O56 C50 1.268 . S
O57 Sc44 2.105 . S
O57 C51 1.268 1_655 S
O58 Sc46 2.105 . S
O58 C52 1.268 . S
O59 Sc45 2.105 1_455 S
O59 C53 1.268 1_455 S
O60 Sc44 2.105 . S
O60 C52 1.268 . S
O61 Sc45 2.105 1_455 S
O61 C51 1.268 . S
O62 Sc46 2.105 . S
O62 C53 1.268 . S
O63 Sc44 2.105 . S
O63 C49 1.268 . S
O64 Sc46 2.105 . S
O64 C48 1.268 . S
O65 Sc45 2.105 . S
O65 C50 1.268 . S
Sc66 O69 2.025 . S
Sc66 O76 2.105 . S
Sc66 O79 2.105 . S
Sc66 O82 2.105 . S
Sc66 O85 2.105 . S
Sc67 O69 2.025 . S
Sc67 O77 2.105 1_455 S
Sc67 O81 2.105 . S
Sc67 O83 2.105 . S
Sc67 O87 2.105 . S
Sc68 O69 2.025 . S
Sc68 O78 2.105 . S
Sc68 O80 2.105 . S
Sc68 O84 2.105 . S
Sc68 O86 2.105 . S
O69 Sc66 2.025 . S
O69 Sc67 2.025 . S
O69 Sc68 2.025 . S
C70 O76 1.268 . S
C70 O86 1.268 . S
C71 O77 1.268 . S
C71 O85 1.268 1_655 S
C72 O78 1.268 . S
C72 O87 1.268 . S
C73 O79 1.268 . S
C73 O83 1.268 . S
C74 O80 1.268 . S
C74 O82 1.268 . S
C75 O81 1.268 . S
C75 O84 1.268 . S
O76 Sc66 2.105 . S
O76 C70 1.268 . S
O77 Sc67 2.105 1_655 S
O77 C71 1.268 . S
O78 Sc68 2.105 . S
O78 C72 1.268 . S
O79 Sc66 2.105 . S
O79 C73 1.268 . S
O80 Sc68 2.105 . S
O80 C74 1.268 . S
O81 Sc67 2.105 . S
O81 C75 1.268 . S
O82 Sc66 2.105 . S
O82 C74 1.268 . S
O83 Sc67 2.105 . S
O83 C73 1.268 . S
O84 Sc68 2.105 . S
O84 C75 1.268 . S
O85 Sc66 2.105 . S
O85 C71 1.268 1_455 S
O86 Sc68 2.105 . S
O86 C70 1.268 . S
O87 Sc67 2.105 . S
O87 C72 1.268 . S
Sc88 O91 2.025 . S
Sc88 O98 2.105 . S
Sc88 O101 2.105 . S
Sc88 O104 2.105 . S
Sc88 O107 2.105 . S
Sc89 O91 2.025 . S
Sc89 O99 2.105 1_565 S
Sc89 O103 2.105 . S
Sc89 O105 2.105 . S
Sc89 O109 2.105 1_565 S
Sc90 O91 2.025 . S
Sc90 O100 2.105 . S
Sc90 O102 2.105 . S
Sc90 O106 2.105 . S
Sc90 O108 2.105 . S
O91 Sc88 2.025 . S
O91 Sc89 2.025 . S
O91 Sc90 2.025 . S
C92 O98 1.268 . S
C92 O108 1.268 . S
C93 O99 1.268 . S
C93 O107 1.268 1_545 S
C94 O100 1.268 . S
C94 O109 1.268 1_565 S
C95 O101 1.268 . S
C95 O105 1.268 . S
C96 O102 1.268 . S
C96 O104 1.268 . S
C97 O103 1.268 . S
C97 O106 1.268 . S
O98 Sc88 2.105 . S
O98 C92 1.268 . S
O99 Sc89 2.105 1_545 S
O99 C93 1.268 . S
O100 Sc90 2.105 . S
O100 C94 1.268 . S
O101 Sc88 2.105 . S
O101 C95 1.268 . S
O102 Sc90 2.105 . S
O102 C96 1.268 . S
O103 Sc89 2.105 . S
O103 C97 1.268 . S
O104 Sc88 2.105 . S
O104 C96 1.268 . S
O105 Sc89 2.105 . S
O105 C95 1.268 . S
O106 Sc90 2.105 . S
O106 C97 1.268 . S
O107 Sc88 2.105 . S
O107 C93 1.268 1_565 S
O108 Sc90 2.105 . S
O108 C92 1.268 . S
O109 Sc89 2.105 1_545 S
O109 C94 1.268 1_545 S
Sc110 O113 2.025 . S
Sc110 O120 2.105 . S
Sc110 O123 2.105 . S
Sc110 O126 2.105 . S
Sc110 O129 2.105 . S
Sc111 O113 2.025 . S
Sc111 O121 2.105 . S
Sc111 O125 2.105 . S
Sc111 O127 2.105 . S
Sc111 O131 2.105 . S
Sc112 O113 2.025 . S
Sc112 O122 2.105 . S
Sc112 O124 2.105 . S
Sc112 O128 2.105 . S
Sc112 O130 2.105 . S
O113 Sc110 2.025 . S
O113 Sc111 2.025 . S
O113 Sc112 2.025 . S
C114 O120 1.268 . S
C114 O130 1.268 . S
C115 O121 1.268 . S
C115 O129 1.268 . S
C116 O122 1.268 . S
C116 O131 1.268 . S
C117 O123 1.268 . S
C117 O127 1.268 . S
C118 O124 1.268 . S
C118 O126 1.268 . S
C119 O125 1.268 . S
C119 O128 1.268 . S
O120 Sc110 2.105 . S
O120 C114 1.268 . S
O121 Sc111 2.105 . S
O121 C115 1.268 . S
O122 Sc112 2.105 . S
O122 C116 1.268 . S
O123 Sc110 2.105 . S
O123 C117 1.268 . S
O124 Sc112 2.105 . S
O124 C118 1.268 . S
O125 Sc111 2.105 . S
O125 C119 1.268 . S
O126 Sc110 2.105 . S
O126 C118 1.268 . S
O127 Sc111 2.105 . S
O127 C117 1.268 . S
O128 Sc112 2.105 . S
O128 C119 1.268 . S
O129 Sc110 2.105 . S
O129 C115 1.268 . S
O130 Sc112 2.105 . S
O130 C114 1.268 . S
O131 Sc111 2.105 . S
O131 C116 1.268 . S
H132 C140 0.950 . S
H133 C145 0.950 . S
H134 C142 0.950 . S
H135 C144 0.950 . S
H136 C146 0.950 . S
H137 C148 0.950 . S
H138 C150 0.950 . S
H139 C151 0.950 . S
C140 H132 0.950 . S
C140 C141 1.386 . S
C140 C142 1.391 . S
C141 C140 1.386 . S
C141 C145 1.393 1_565 S
C142 H134 0.950 . S
C142 C140 1.391 . S
C142 C143 1.400 1_565 S
C143 C142 1.400 1_545 S
C143 C144 1.398 . S
C143 C149 1.491 1_556 S
C144 H135 0.950 . S
C144 C143 1.398 . S
C144 C145 1.391 . S
C145 H133 0.950 . S
C145 C141 1.393 1_545 S
C145 C144 1.391 . S
C146 H136 0.950 . S
C146 C147 1.386 . S
C146 C148 1.391 . S
C147 C146 1.386 . S
C147 C151 1.393 1_545 S
C148 H137 0.950 . S
C148 C146 1.391 . S
C148 C149 1.400 . S
C149 C143 1.491 1_554 S
C149 C148 1.400 . S
C149 C150 1.398 1_545 S
C150 H138 0.950 . S
C150 C149 1.398 1_565 S
C150 C151 1.391 . S
C151 H139 0.950 . S
C151 C147 1.393 1_565 S
C151 C150 1.391 . S
H152 C160 0.950 . S
H153 C165 0.950 . S
H154 C162 0.950 . S
H155 C164 0.950 . S
H156 C166 0.950 . S
H157 C168 0.950 . S
H158 C170 0.950 . S
H159 C171 0.950 . S
C160 H152 0.950 . S
C160 C161 1.386 . S
C160 C162 1.391 . S
C161 C160 1.386 . S
C161 C165 1.393 . S
C162 H154 0.950 . S
C162 C160 1.391 . S
C162 C163 1.400 . S
C163 C162 1.400 . S
C163 C164 1.398 . S
C163 C169 1.491 . S
C164 H155 0.950 . S
C164 C163 1.398 . S
C164 C165 1.391 . S
C165 H153 0.950 . S
C165 C161 1.393 . S
C165 C164 1.391 . S
C166 H156 0.950 . S
C166 C167 1.386 . S
C166 C168 1.391 . S
C167 C166 1.386 . S
C167 C171 1.393 . S
C168 H157 0.950 . S
C168 C166 1.391 . S
C168 C169 1.400 . S
C169 C163 1.491 . S
C169 C168 1.400 . S
C169 C170 1.398 . S
C170 H158 0.950 . S
C170 C169 1.398 . S
C170 C171 1.391 . S
C171 H159 0.950 . S
C171 C167 1.393 . S
C171 C170 1.391 . S
H172 C180 0.950 . S
H173 C185 0.950 . S
H174 C182 0.950 . S
H175 C184 0.950 . S
H176 C186 0.950 . S
H177 C188 0.950 . S
H178 C190 0.950 . S
H179 C191 0.950 . S
C180 H172 0.950 . S
C180 C181 1.386 . S
C180 C182 1.391 . S
C181 C180 1.386 . S
C181 C185 1.393 . S
C182 H174 0.950 . S
C182 C180 1.391 . S
C182 C183 1.400 . S
C183 C182 1.400 . S
C183 C184 1.398 . S
C183 C189 1.491 1_554 S
C184 H175 0.950 . S
C184 C183 1.398 . S
C184 C185 1.391 . S
C185 H173 0.950 . S
C185 C181 1.393 . S
C185 C184 1.391 . S
C186 H176 0.950 . S
C186 C187 1.386 . S
C186 C188 1.391 . S
C187 C186 1.386 . S
C187 C191 1.393 . S
C188 H177 0.950 . S
C188 C186 1.391 . S
C188 C189 1.400 1_455 S
C189 C183 1.491 1_556 S
C189 C188 1.400 1_655 S
C189 C190 1.398 . S
C190 H178 0.950 . S
C190 C189 1.398 . S
C190 C191 1.391 1_655 S
C191 H179 0.950 . S
C191 C187 1.393 . S
C191 C190 1.391 1_455 S
H192 C200 0.950 . S
H193 C205 0.950 . S
H194 C202 0.950 . S
H195 C204 0.950 . S
H196 C206 0.950 . S
H197 C208 0.950 . S
H198 C210 0.950 . S
H199 C211 0.950 . S
C200 H192 0.950 . S
C200 C201 1.386 1_565 S
C200 C202 1.391 . S
C201 C200 1.386 1_545 S
C201 C205 1.393 . S
C202 H194 0.950 . S
C202 C200 1.391 . S
C202 C203 1.400 . S
C203 C202 1.400 . S
C203 C204 1.398 1_565 S
C203 C209 1.491 . S
C204 H195 0.950 . S
C204 C203 1.398 1_545 S
C204 C205 1.391 . S
C205 H193 0.950 . S
C205 C201 1.393 . S
C205 C204 1.391 . S
C206 H196 0.950 . S
C206 C207 1.386 1_545 S
C206 C208 1.391 . S
C207 C206 1.386 1_565 S
C207 C211 1.393 . S
C208 H197 0.950 . S
C208 C206 1.391 . S
C208 C209 1.400 1_545 S
C209 C203 1.491 . S
C209 C208 1.400 1_565 S
C209 C210 1.398 . S
C210 H198 0.950 . S
C210 C209 1.398 . S
C210 C211 1.391 . S
C211 H199 0.950 . S
C211 C207 1.393 . S
C211 C210 1.391 . S
H212 C220 0.950 . S
H213 C225 0.950 . S
H214 C222 0.950 . S
H215 C224 0.950 . S
H216 C226 0.950 . S
H217 C228 0.950 . S
H218 C230 0.950 . S
H219 C231 0.950 . S
C220 H212 0.950 . S
C220 C221 1.386 . S
C220 C222 1.391 . S
C221 C220 1.386 . S
C221 C225 1.393 . S
C222 H214 0.950 . S
C222 C220 1.391 . S
C222 C223 1.400 . S
C223 C222 1.400 . S
C223 C224 1.398 . S
C223 C229 1.491 1_556 S
C224 H215 0.950 . S
C224 C223 1.398 . S
C224 C225 1.391 . S
C225 H213 0.950 . S
C225 C221 1.393 . S
C225 C224 1.391 . S
C226 H216 0.950 . S
C226 C227 1.386 . S
C226 C228 1.391 . S
C227 C226 1.386 . S
C227 C231 1.393 . S
C228 H217 0.950 . S
C228 C226 1.391 . S
C228 C229 1.400 . S
C229 C223 1.491 1_554 S
C229 C228 1.400 . S
C229 C230 1.398 . S
C230 H218 0.950 . S
C230 C229 1.398 . S
C230 C231 1.391 . S
C231 H219 0.950 . S
C231 C227 1.393 . S
C231 C230 1.391 . S
H232 C240 0.950 . S
H233 C245 0.950 . S
H234 C242 0.946 . S
H235 C244 0.950 . S
H236 C246 0.950 . S
H237 C248 0.950 . S
H238 C250 0.950 . S
H239 C251 0.950 . S
C240 H232 0.950 . S
C240 C241 1.386 . S
C240 C242 1.391 1_655 S
C241 C240 1.386 . S
C241 C245 1.393 1_655 S
C242 H234 0.946 . S
C242 C240 1.391 1_455 S
C242 C243 1.400 . S
C243 C242 1.400 . S
C243 C244 1.398 . S
C243 C249 1.491 . S
C244 H235 0.950 . S
C244 C243 1.398 . S
C244 C245 1.391 . S
C245 H233 0.950 . S
C245 C241 1.393 1_455 S
C245 C244 1.391 . S
C246 H236 0.950 . S
C246 C247 1.386 . S
C246 C248 1.391 . S
C247 C246 1.386 . S
C247 C251 1.393 . S
C248 H237 0.950 . S
C248 C246 1.391 . S
C248 C249 1.400 . S
C249 C243 1.491 . S
C249 C248 1.400 . S
C249 C250 1.398 . S
C250 H238 0.950 . S
C250 C249 1.398 . S
C250 C251 1.391 . S
C251 H239 0.950 . S
C251 C247 1.393 . S
C251 C250 1.391 . S
H252 C260 0.950 . S
H253 C265 0.950 . S
H254 C262 0.950 . S
H255 C264 0.950 . S
H256 C266 0.950 . S
H257 C268 0.950 . S
H258 C270 0.950 . S
H259 C271 0.950 . S
C260 H252 0.950 . S
C260 C261 1.386 . S
C260 C262 1.391 . S
C261 C260 1.386 . S
C261 C265 1.393 . S
C262 H254 0.950 . S
C262 C260 1.391 . S
C262 C263 1.400 . S
C263 C262 1.400 . S
C263 C264 1.398 . S
C263 C269 1.491 . S
C264 H255 0.950 . S
C264 C263 1.398 . S
C264 C265 1.391 . S
C265 H253 0.950 . S
C265 C261 1.393 . S
C265 C264 1.391 . S
C266 H256 0.950 . S
C266 C267 1.386 . S
C266 C268 1.391 . S
C267 C266 1.386 . S
C267 C271 1.393 . S
C268 H257 0.950 . S
C268 C266 1.391 . S
C268 C269 1.400 . S
C269 C263 1.491 . S
C269 C268 1.400 . S
C269 C270 1.398 . S
C270 H258 0.950 . S
C270 C269 1.398 . S
C270 C271 1.391 . S
C271 H259 0.950 . S
C271 C267 1.393 . S
C271 C270 1.391 . S
H272 C280 0.950 . S
H273 C285 0.950 . S
H274 C282 0.950 . S
H275 C284 0.950 . S
H276 C286 0.950 . S
H277 C288 0.950 . S
H278 C290 0.950 . S
H279 C291 0.950 . S
C280 H272 0.950 . S
C280 C281 1.386 . S
C280 C282 1.391 . S
C281 C280 1.386 . S
C281 C285 1.393 . S
C282 H274 0.950 . S
C282 C280 1.391 . S
C282 C283 1.400 . S
C283 C282 1.400 . S
C283 C284 1.398 . S
C283 C289 1.491 . S
C284 H275 0.950 . S
C284 C283 1.398 . S
C284 C285 1.391 . S
C285 H273 0.950 . S
C285 C281 1.393 . S
C285 C284 1.391 . S
C286 H276 0.950 . S
C286 C287 1.386 . S
C286 C288 1.391 . S
C287 C286 1.386 . S
C287 C291 1.393 . S
C288 H277 0.950 . S
C288 C286 1.391 . S
C288 C289 1.400 . S
C289 C283 1.491 . S
C289 C288 1.400 . S
C289 C290 1.398 . S
C290 H278 0.950 . S
C290 C289 1.398 . S
C290 C291 1.391 . S
C291 H279 0.950 . S
C291 C287 1.393 . S
C291 C290 1.391 . S
H292 C300 0.950 . S
H293 C305 0.950 . S
H294 C302 0.950 . S
H295 C304 0.950 . S
H296 C306 0.950 . S
H297 C308 0.950 . S
H298 C310 0.950 . S
H299 C311 0.950 . S
C300 H292 0.950 . S
C300 C301 1.386 . S
C300 C302 1.391 . S
C301 C300 1.386 . S
C301 C305 1.393 . S
C302 H294 0.950 . S
C302 C300 1.391 . S
C302 C303 1.400 . S
C303 C302 1.400 . S
C303 C304 1.398 . S
C303 C309 1.491 . S
C304 H295 0.950 . S
C304 C303 1.398 . S
C304 C305 1.391 . S
C305 H293 0.950 . S
C305 C301 1.393 . S
C305 C304 1.391 . S
C306 H296 0.950 . S
C306 C307 1.386 . S
C306 C308 1.391 . S
C307 C306 1.386 . S
C307 C311 1.393 . S
C308 H297 0.950 . S
C308 C306 1.391 . S
C308 C309 1.400 . S
C309 C303 1.491 . S
C309 C308 1.400 . S
C309 C310 1.398 . S
C310 H298 0.950 . S
C310 C309 1.398 . S
C310 C311 1.391 . S
C311 H299 0.950 . S
C311 C307 1.393 . S
C311 C310 1.391 . S
H312 C320 0.950 . S
H313 C325 0.950 . S
H314 C322 0.950 . S
H315 C324 0.950 . S
H316 C326 0.950 . S
H317 C328 0.950 . S
H318 C330 0.950 . S
H319 C331 0.950 . S
C320 H312 0.950 . S
C320 C321 1.386 . S
C320 C322 1.391 . S
C321 C320 1.386 . S
C321 C325 1.393 . S
C322 H314 0.950 . S
C322 C320 1.391 . S
C322 C323 1.400 . S
C323 C322 1.400 . S
C323 C324 1.398 . S
C323 C329 1.491 . S
C324 H315 0.950 . S
C324 C323 1.398 . S
C324 C325 1.391 . S
C325 H313 0.950 . S
C325 C321 1.393 . S
C325 C324 1.391 . S
C326 H316 0.950 . S
C326 C327 1.386 . S
C326 C328 1.391 . S
C327 C326 1.386 . S
C327 C331 1.393 . S
C328 H317 0.950 . S
C328 C326 1.391 . S
C328 C329 1.400 . S
C329 C323 1.491 . S
C329 C328 1.400 . S
C329 C330 1.398 . S
C330 H318 0.950 . S
C330 C329 1.398 . S
C330 C331 1.391 . S
C331 H319 0.950 . S
C331 C327 1.393 . S
C331 C330 1.391 . S
H332 C340 0.950 . S
H333 C345 0.950 . S
H334 C342 0.950 . S
H335 C344 0.950 . S
H336 C346 0.950 . S
H337 C348 0.950 . S
H338 C350 0.950 . S
H339 C351 0.950 . S
C340 H332 0.950 . S
C340 C341 1.386 . S
C340 C342 1.391 . S
C341 C340 1.386 . S
C341 C345 1.393 . S
C342 H334 0.950 . S
C342 C340 1.391 . S
C342 C343 1.400 . S
C343 C342 1.400 . S
C343 C344 1.398 . S
C343 C349 1.491 . S
C344 H335 0.950 . S
C344 C343 1.398 . S
C344 C345 1.391 . S
C345 H333 0.950 . S
C345 C341 1.393 . S
C345 C344 1.391 . S
C346 H336 0.950 . S
C346 C347 1.386 . S
C346 C348 1.391 . S
C347 C346 1.386 . S
C347 C351 1.393 . S
C348 H337 0.950 . S
C348 C346 1.391 . S
C348 C349 1.400 . S
C349 C343 1.491 . S
C349 C348 1.400 . S
C349 C350 1.398 . S
C350 H338 0.950 . S
C350 C349 1.398 . S
C350 C351 1.391 . S
C351 H339 0.950 . S
C351 C347 1.393 . S
C351 C350 1.391 . S
H352 C360 0.950 . S
H353 C365 0.950 . S
H354 C362 0.950 . S
H355 C364 0.950 . S
H356 C366 0.950 . S
H357 C368 0.950 . S
H358 C370 0.950 . S
H359 C371 0.950 . S
C360 H352 0.950 . S
C360 C361 1.386 . S
C360 C362 1.391 . S
C361 C360 1.386 . S
C361 C365 1.393 . S
C362 H354 0.950 . S
C362 C360 1.391 . S
C362 C363 1.400 . S
C363 C362 1.400 . S
C363 C364 1.398 . S
C363 C369 1.491 . S
C364 H355 0.950 . S
C364 C363 1.398 . S
C364 C365 1.391 . S
C365 H353 0.950 . S
C365 C361 1.393 . S
C365 C364 1.391 . S
C366 H356 0.950 . S
C366 C367 1.386 . S
C366 C368 1.391 . S
C367 C366 1.386 . S
C367 C371 1.393 . S
C368 H357 0.950 . S
C368 C366 1.391 . S
C368 C369 1.400 . S
C369 C363 1.491 . S
C369 C368 1.400 . S
C369 C370 1.398 . S
C370 H358 0.950 . S
C370 C369 1.398 . S
C370 C371 1.391 . S
C371 H359 0.950 . S
C371 C367 1.393 . S
C371 C370 1.391 . S
H372 C380 0.950 . S
H373 C385 0.950 . S
H374 C382 0.950 . S
H375 C384 0.950 . S
H376 C386 0.950 . S
H377 C388 0.950 . S
H378 C390 0.950 . S
H379 C391 0.950 . S
C380 H372 0.950 . S
C380 C381 1.386 . S
C380 C382 1.391 . S
C381 C380 1.386 . S
C381 C385 1.393 . S
C382 H374 0.950 . S
C382 C380 1.391 . S
C382 C383 1.400 . S
C383 C382 1.400 . S
C383 C384 1.398 . S
C383 C389 1.491 . S
C384 H375 0.950 . S
C384 C383 1.398 . S
C384 C385 1.391 . S
C385 H373 0.950 . S
C385 C381 1.393 . S
C385 C384 1.391 . S
C386 H376 0.950 . S
C386 C387 1.386 . S
C386 C388 1.391 . S
C387 C386 1.386 . S
C387 C391 1.393 . S
C388 H377 0.950 . S
C388 C386 1.391 . S
C388 C389 1.400 . S
C389 C383 1.491 . S
C389 C388 1.400 . S
C389 C390 1.398 . S
C390 H378 0.950 . S
C390 C389 1.398 . S
C390 C391 1.391 . S
C391 H379 0.950 . S
C391 C387 1.393 . S
C391 C390 1.391 . S
H392 C400 0.950 . S
H393 C405 0.950 . S
H394 C402 0.950 . S
H395 C404 0.950 1_455 S
H396 C406 0.950 . S
H397 C408 0.950 . S
H398 C410 0.950 . S
H399 C411 0.950 . S
C400 H392 0.950 . S
C400 C401 1.386 . S
C400 C402 1.391 . S
C401 C400 1.386 . S
C401 C405 1.393 . S
C402 H394 0.950 . S
C402 C400 1.391 . S
C402 C403 1.400 1_655 S
C403 C402 1.400 1_455 S
C403 C404 1.398 1_455 S
C403 C409 1.491 . S
C404 H395 0.950 1_655 S
C404 C403 1.398 1_655 S
C404 C405 1.391 . S
C405 H393 0.950 . S
C405 C401 1.393 . S
C405 C404 1.391 . S
C406 H396 0.950 . S
C406 C407 1.386 . S
C406 C408 1.391 . S
C407 C406 1.386 . S
C407 C411 1.393 . S
C408 H397 0.950 . S
C408 C406 1.391 . S
C408 C409 1.400 . S
C409 C403 1.491 . S
C409 C408 1.400 . S
C409 C410 1.398 . S
C410 H398 0.950 . S
C410 C409 1.398 . S
C410 C411 1.391 . S
C411 H399 0.950 . S
C411 C407 1.393 . S
C411 C410 1.391 . S
H412 C420 0.950 . S
H413 C425 0.950 . S
H414 C422 0.950 . S
H415 C424 0.950 1_565 S
H416 C426 0.950 . S
H417 C428 0.950 . S
H418 C430 0.950 . S
H419 C431 0.950 . S
C420 H412 0.950 . S
C420 C421 1.386 . S
C420 C422 1.391 . S
C421 C420 1.386 . S
C421 C425 1.393 . S
C422 H414 0.950 . S
C422 C420 1.391 . S
C422 C423 1.400 1_545 S
C423 C422 1.400 1_565 S
C423 C424 1.398 1_565 S
C423 C429 1.491 . S
C424 H415 0.950 1_545 S
C424 C423 1.398 1_545 S
C424 C425 1.391 . S
C425 H413 0.950 . S
C425 C421 1.393 . S
C425 C424 1.391 . S
C426 H416 0.950 . S
C426 C427 1.386 . S
C426 C428 1.391 . S
C427 C426 1.386 . S
C427 C431 1.393 . S
C428 H417 0.950 . S
C428 C426 1.391 . S
C428 C429 1.400 . S
C429 C423 1.491 . S
C429 C428 1.400 . S
C429 C430 1.398 . S
C430 H418 0.950 . S
C430 C429 1.398 . S
C430 C431 1.391 . S
C431 H419 0.950 . S
C431 C427 1.393 . S
C431 C430 1.391 . S
H432 C440 0.950 . S
H433 C445 0.950 . S
H434 C442 0.950 . S
H435 C444 0.950 . S
H436 C446 0.950 . S
H437 C448 0.950 . S
H438 C450 0.950 . S
H439 C451 0.950 . S
C440 H432 0.950 . S
C440 C441 1.386 . S
C440 C442 1.391 . S
C441 C440 1.386 . S
C441 C445 1.393 . S
C442 H434 0.950 . S
C442 C440 1.391 . S
C442 C443 1.400 . S
C443 C442 1.400 . S
C443 C444 1.398 . S
C443 C449 1.491 . S
C444 H435 0.950 . S
C444 C443 1.398 . S
C444 C445 1.391 . S
C445 H433 0.950 . S
C445 C441 1.393 . S
C445 C444 1.391 . S
C446 H436 0.950 . S
C446 C447 1.386 . S
C446 C448 1.391 . S
C447 C446 1.386 . S
C447 C451 1.393 . S
C448 H437 0.950 . S
C448 C446 1.391 . S
C448 C449 1.400 . S
C449 C443 1.491 . S
C449 C448 1.400 . S
C449 C450 1.398 . S
C450 H438 0.950 . S
C450 C449 1.398 . S
C450 C451 1.391 . S
C451 H439 0.950 . S
C451 C447 1.393 . S
C451 C450 1.391 . S
H452 C460 0.950 . S
H453 C465 0.950 . S
H454 C462 0.950 . S
H455 C464 0.950 1_655 S
H456 C466 0.950 . S
H457 C468 0.950 . S
H458 C470 0.950 . S
H459 C471 0.950 . S
C460 H452 0.950 . S
C460 C461 1.386 . S
C460 C462 1.391 . S
C461 C460 1.386 . S
C461 C465 1.393 . S
C462 H454 0.950 . S
C462 C460 1.391 . S
C462 C463 1.400 1_455 S
C463 C462 1.400 1_655 S
C463 C464 1.398 1_655 S
C463 C469 1.491 . S
C464 H455 0.950 1_455 S
C464 C463 1.398 1_455 S
C464 C465 1.391 . S
C465 H453 0.950 . S
C465 C461 1.393 . S
C465 C464 1.391 . S
C466 H456 0.950 . S
C466 C467 1.386 . S
C466 C468 1.391 . S
C467 C466 1.386 . S
C467 C471 1.393 . S
C468 H457 0.950 . S
C468 C466 1.391 . S
C468 C469 1.400 . S
C469 C463 1.491 . S
C469 C468 1.400 . S
C469 C470 1.398 . S
C470 H458 0.950 . S
C470 C469 1.398 . S
C470 C471 1.391 . S
C471 H459 0.950 . S
C471 C467 1.393 . S
C471 C470 1.391 . S
H472 C480 0.950 . S
H473 C485 0.950 . S
H474 C482 0.950 . S
H475 C484 0.950 . S
H476 C486 0.950 . S
H477 C488 0.950 . S
H478 C490 0.950 1_545 S
H479 C491 0.950 . S
C480 H472 0.950 . S
C480 C481 1.386 . S
C480 C482 1.391 . S
C481 C480 1.386 . S
C481 C485 1.393 . S
C482 H474 0.950 . S
C482 C480 1.391 . S
C482 C483 1.400 . S
C483 C482 1.400 . S
C483 C484 1.398 . S
C483 C489 1.491 . S
C484 H475 0.950 . S
C484 C483 1.398 . S
C484 C485 1.391 . S
C485 H473 0.950 . S
C485 C481 1.393 . S
C485 C484 1.391 . S
C486 H476 0.950 . S
C486 C487 1.386 . S
C486 C488 1.391 . S
C487 C486 1.386 . S
C487 C491 1.393 . S
C488 H477 0.950 . S
C488 C486 1.391 . S
C488 C489 1.400 1_565 S
C489 C483 1.491 . S
C489 C488 1.400 1_545 S
C489 C490 1.398 1_545 S
C490 H478 0.950 1_565 S
C490 C489 1.398 1_565 S
C490 C491 1.391 . S
C491 H479 0.950 . S
C491 C487 1.393 . S
C491 C490 1.391 . S
C141 C94 0.609 . S
C147 C5 0.609 . S
C161 C115 1.371 . S
C167 C28 1.356 . S
C181 C49 2.111 . S
C187 C72 2.189 . S
C201 C9 2.184 . S
C207 C95 2.105 . S
C221 C119 1.356 . S
C227 C29 1.375 . S
C241 C53 0.657 . S
C247 C73 0.637 . S
C261 C6 1.422 . S
C267 C48 1.284 . S
C281 C27 1.247 . S
C287 C4 1.203 . S
C301 C50 1.274 . S
C307 C26 1.238 . S
C321 C75 1.426 . S
C327 C96 1.318 . S
C341 C97 1.273 . S
C347 C118 1.229 . S
C361 C74 1.209 . S
C367 C117 1.248 . S
C381 C8 1.246 . S
C387 C51 1.318 . S
C401 C30 1.236 . S
C407 C7 1.280 . S
C421 C52 1.289 . S
C427 C31 1.334 . S
C441 C70 1.267 . S
C447 C93 1.315 . S
C461 C92 1.263 . S
C467 C116 1.321 . S
C481 C71 1.278 . S
C487 C114 1.232 . S
