# Generated by pormake.
# Topology cbo, (4)-cn, num edge types: 1
# Building blocks:
#     Node 0, Type 0, BuildingBlock: KUFVIS_clean_sbu_0, # of connection points: 4
#     Node 1, Type 0, BuildingBlock: KUFVIS_clean_sbu_0, # of connection points: 4
#     Node 2, Type 0, BuildingBlock: KUFVIS_clean_sbu_0, # of connection points: 4
#     Node 3, Type 0, BuildingBlock: KUFVIS_clean_sbu_0, # of connection points: 4
#     Node 4, Type 0, BuildingBlock: KUFVIS_clean_sbu_0, # of connection points: 4
#     Node 5, Type 0, BuildingBlock: KUFVIS_clean_sbu_0, # of connection points: 4
#     Node 6, Type 0, BuildingBlock: KUFVIS_clean_sbu_0, # of connection points: 4
#     Node 7, Type 0, BuildingBlock: KUFVIS_clean_sbu_0, # of connection points: 4
#     Node 8, Type 0, BuildingBlock: KUFVIS_clean_sbu_0, # of connection points: 4
#     Node 9, Type 0, BuildingBlock: KUFVIS_clean_sbu_0, # of connection points: 4
#     Node 10, Type 0, BuildingBlock: KUFVIS_clean_sbu_0, # of connection points: 4
#     Node 11, Type 0, BuildingBlock: KUFVIS_clean_sbu_0, # of connection points: 4
#     Node 12, Type 0, BuildingBlock: KUFVIS_clean_sbu_0, # of connection points: 4
#     Node 13, Type 0, BuildingBlock: KUFVIS_clean_sbu_0, # of connection points: 4
#     Node 14, Type 0, BuildingBlock: KUFVIS_clean_sbu_0, # of connection points: 4
#     Node 15, Type 0, BuildingBlock: KUFVIS_clean_sbu_0, # of connection points: 4
#     Node 16, Type 0, BuildingBlock: KUFVIS_clean_sbu_0, # of connection points: 4
#     Node 17, Type 0, BuildingBlock: KUFVIS_clean_sbu_0, # of connection points: 4
#     Node 18, Type 0, BuildingBlock: KUFVIS_clean_sbu_0, # of connection points: 4
#     Node 19, Type 0, BuildingBlock: KUFVIS_clean_sbu_0, # of connection points: 4
#     Node 20, Type 0, BuildingBlock: KUFVIS_clean_sbu_0, # of connection points: 4
#     Node 21, Type 0, BuildingBlock: KUFVIS_clean_sbu_0, # of connection points: 4
#     Node 22, Type 0, BuildingBlock: KUFVIS_clean_sbu_0, # of connection points: 4
#     Node 23, Type 0, BuildingBlock: KUFVIS_clean_sbu_0, # of connection points: 4
#     Edge 24, Type (0, 0), None
#     Edge 25, Type (0, 0), None
#     Edge 26, Type (0, 0), None
#     Edge 27, Type (0, 0), None
#     Edge 28, Type (0, 0), None
#     Edge 29, Type (0, 0), None
#     Edge 30, Type (0, 0), None
#     Edge 31, Type (0, 0), None
#     Edge 32, Type (0, 0), None
#     Edge 33, Type (0, 0), None
#     Edge 34, Type (0, 0), None
#     Edge 35, Type (0, 0), None
#     Edge 36, Type (0, 0), None
#     Edge 37, Type (0, 0), None
#     Edge 38, Type (0, 0), None
#     Edge 39, Type (0, 0), None
#     Edge 40, Type (0, 0), None
#     Edge 41, Type (0, 0), None
#     Edge 42, Type (0, 0), None
#     Edge 43, Type (0, 0), None
#     Edge 44, Type (0, 0), None
#     Edge 45, Type (0, 0), None
#     Edge 46, Type (0, 0), None
#     Edge 47, Type (0, 0), None
#     Edge 48, Type (0, 0), None
#     Edge 49, Type (0, 0), None
#     Edge 50, Type (0, 0), None
#     Edge 51, Type (0, 0), None
#     Edge 52, Type (0, 0), None
#     Edge 53, Type (0, 0), None
#     Edge 54, Type (0, 0), None
#     Edge 55, Type (0, 0), None
#     Edge 56, Type (0, 0), None
#     Edge 57, Type (0, 0), None
#     Edge 58, Type (0, 0), None
#     Edge 59, Type (0, 0), None
#     Edge 60, Type (0, 0), None
#     Edge 61, Type (0, 0), None
#     Edge 62, Type (0, 0), None
#     Edge 63, Type (0, 0), None
#     Edge 64, Type (0, 0), None
#     Edge 65, Type (0, 0), None
#     Edge 66, Type (0, 0), None
#     Edge 67, Type (0, 0), None
#     Edge 68, Type (0, 0), None
#     Edge 69, Type (0, 0), None
#     Edge 70, Type (0, 0), None
#     Edge 71, Type (0, 0), None
# Relax obj value: 0.202
# Max RMSD: 0.240
# Mean RMSD: 0.215
data_MOF--net-cbo--node1-KUFVIS_clean_sbu_0--edge1-none
_symmetry_space_group_name_H-M    P1
_symmetry_Int_Tables_number       1
_symmetry_cell_setting            triclinic
loop_
_symmetry_equiv_pos_as_xyz
'x, y, z'
_cell_length_a     22.852846
_cell_length_b     22.655166
_cell_length_c     23.704817
_cell_angle_alpha  89.999806
_cell_angle_beta   90.000382
_cell_angle_gamma 89.999978
loop_
_atom_site_label
_atom_site_type_symbol
_atom_site_fract_x
_atom_site_fract_y
_atom_site_fract_z
_atom_type_partial_charge
Mn0 Mn 0.11669 0.18233 0.31808 0.0
Mn1 Mn 0.13131 0.04497 0.36309 0.0
C2 C 0.20278 0.13149 0.29915 0.0
C3 C 0.10547 0.24872 0.24429 0.0
C4 C 0.14111 0.14833 0.44222 0.0
O5 O 0.03113 0.15903 0.3273 0.0
O6 O 0.04631 0.06952 0.36717 0.0
C7 C 0.06503 0.98068 0.27526 0.0
N8 N 0.11668 0.99305 0.30145 0.0
C9 C 0.16907 0.92775 0.23994 0.0
C10 C 0.11658 0.91411 0.21221 0.0
C11 C 0.06425 0.94062 0.23009 0.0
C12 C 0.16704 0.96696 0.28533 0.0
H13 H 0.0247 0.00108 0.28872 0.0
C14 C 0.01248 0.11152 0.35029 0.0
O15 O 0.10276 0.26686 0.29629 0.0
O16 O 0.10649 0.19261 0.23617 0.0
N17 N 0.2107 0.01905 0.35874 0.0
C18 C 0.25801 0.03966 0.38775 0.0
C19 C 0.31446 0.02239 0.37122 0.0
C20 C 0.32152 0.98312 0.32587 0.0
C21 C 0.27202 0.96197 0.29728 0.0
C22 C 0.21702 0.98183 0.31474 0.0
H23 H 0.25279 0.07044 0.42213 0.0
O24 O 0.20257 0.18774 0.30632 0.0
O25 O 0.1524 0.10573 0.30817 0.0
O26 O 0.12565 0.18683 0.40567 0.0
O27 O 0.14805 0.0941 0.42998 0.0
C28 C 0.27509 0.92241 0.25176 0.0
C29 C 0.22345 0.90456 0.22378 0.0
H30 H 0.11602 0.88367 0.17695 0.0
H31 H 0.0235 0.93045 0.20893 0.0
H32 H 0.35236 0.03914 0.39344 0.0
H33 H 0.36505 0.96952 0.31339 0.0
H34 H 0.31706 0.90576 0.23817 0.0
H35 H 0.22558 0.87391 0.18907 0.0
Mn36 Mn 0.39303 0.81678 0.81808 0.0
Mn37 Mn 0.37841 0.95414 0.86309 0.0
C38 C 0.30695 0.86761 0.79915 0.0
C39 C 0.40425 0.75039 0.74429 0.0
C40 C 0.36862 0.85078 0.94222 0.0
O41 O 0.47859 0.84008 0.82731 0.0
O42 O 0.46341 0.92959 0.86717 0.0
C43 C 0.44469 0.01843 0.77526 0.0
N44 N 0.39305 0.00606 0.80145 0.0
C45 C 0.34065 0.07135 0.73994 0.0
C46 C 0.39314 0.085 0.71221 0.0
C47 C 0.44548 0.05848 0.73008 0.0
C48 C 0.34269 0.03215 0.78533 0.0
H49 H 0.48502 0.99802 0.78872 0.0
C50 C 0.49725 0.88759 0.85029 0.0
O51 O 0.40696 0.73225 0.7963 0.0
O52 O 0.40323 0.8065 0.73617 0.0
N53 N 0.29902 0.98006 0.85874 0.0
C54 C 0.25172 0.95945 0.88775 0.0
C55 C 0.19527 0.97672 0.87122 0.0
C56 C 0.1882 0.01599 0.82587 0.0
C57 C 0.23771 0.03714 0.79728 0.0
C58 C 0.2927 0.01728 0.81474 0.0
H59 H 0.25694 0.92867 0.92213 0.0
O60 O 0.30715 0.81137 0.80632 0.0
O61 O 0.35732 0.89338 0.80817 0.0
O62 O 0.38407 0.81228 0.90567 0.0
O63 O 0.36167 0.90501 0.92998 0.0
C64 C 0.23463 0.0767 0.75176 0.0
C65 C 0.28627 0.09455 0.72378 0.0
H66 H 0.3937 0.11543 0.67695 0.0
H67 H 0.48622 0.06865 0.70893 0.0
H68 H 0.15737 0.95997 0.89344 0.0
H69 H 0.14467 0.02959 0.81339 0.0
H70 H 0.19266 0.09335 0.73817 0.0
H71 H 0.28414 0.1252 0.68907 0.0
Mn72 Mn 0.61669 0.31678 0.69011 0.0
Mn73 Mn 0.63131 0.45414 0.6451 0.0
C74 C 0.70278 0.36761 0.70904 0.0
C75 C 0.60547 0.25039 0.7639 0.0
C76 C 0.6411 0.35078 0.56597 0.0
O77 O 0.53113 0.34008 0.68089 0.0
O78 O 0.54631 0.42959 0.64102 0.0
C79 C 0.56503 0.51843 0.73293 0.0
N80 N 0.61668 0.50606 0.70674 0.0
C81 C 0.66907 0.57135 0.76825 0.0
C82 C 0.61658 0.585 0.79598 0.0
C83 C 0.56425 0.55848 0.77811 0.0
C84 C 0.66704 0.53215 0.72286 0.0
H85 H 0.5247 0.49803 0.71947 0.0
C86 C 0.51248 0.38759 0.6579 0.0
O87 O 0.60276 0.23225 0.7119 0.0
O88 O 0.60649 0.3065 0.77202 0.0
N89 N 0.7107 0.48006 0.64945 0.0
C90 C 0.75801 0.45945 0.62044 0.0
C91 C 0.81446 0.47672 0.63697 0.0
C92 C 0.82152 0.51599 0.68232 0.0
C93 C 0.77202 0.53714 0.71091 0.0
C94 C 0.71702 0.51728 0.69345 0.0
H95 H 0.75278 0.42866 0.58606 0.0
O96 O 0.70257 0.31137 0.70187 0.0
O97 O 0.6524 0.39338 0.70002 0.0
O98 O 0.62565 0.31228 0.60252 0.0
O99 O 0.64805 0.40501 0.57821 0.0
C100 C 0.77509 0.5767 0.75643 0.0
C101 C 0.72345 0.59455 0.78441 0.0
H102 H 0.61602 0.61543 0.83124 0.0
H103 H 0.5235 0.56865 0.79926 0.0
H104 H 0.85236 0.45997 0.61475 0.0
H105 H 0.86505 0.52959 0.6948 0.0
H106 H 0.81706 0.59335 0.77002 0.0
H107 H 0.72558 0.6252 0.81912 0.0
Mn108 Mn 0.89303 0.68233 0.19012 0.0
Mn109 Mn 0.87841 0.54497 0.1451 0.0
C110 C 0.80694 0.63149 0.20904 0.0
C111 C 0.90425 0.74872 0.2639 0.0
C112 C 0.86862 0.64833 0.06597 0.0
O113 O 0.97859 0.65903 0.18089 0.0
O114 O 0.96341 0.56952 0.14102 0.0
C115 C 0.94469 0.48068 0.23294 0.0
N116 N 0.89304 0.49305 0.20674 0.0
C117 C 0.84065 0.42775 0.26825 0.0
C118 C 0.89314 0.41411 0.29598 0.0
C119 C 0.94547 0.44062 0.27811 0.0
C120 C 0.84268 0.46696 0.22286 0.0
H121 H 0.98502 0.50108 0.21947 0.0
C122 C 0.99724 0.61152 0.1579 0.0
O123 O 0.90696 0.76686 0.2119 0.0
O124 O 0.90323 0.69261 0.27202 0.0
N125 N 0.79902 0.51905 0.14945 0.0
C126 C 0.75171 0.53966 0.12044 0.0
C127 C 0.69526 0.52239 0.13697 0.0
C128 C 0.6882 0.48311 0.18233 0.0
C129 C 0.7377 0.46196 0.21091 0.0
C130 C 0.7927 0.48183 0.19345 0.0
H131 H 0.75693 0.57044 0.08606 0.0
O132 O 0.80715 0.68774 0.20187 0.0
O133 O 0.85732 0.60573 0.20002 0.0
O134 O 0.88407 0.68683 0.10252 0.0
O135 O 0.86167 0.5941 0.07821 0.0
C136 C 0.73463 0.42241 0.25643 0.0
C137 C 0.78627 0.40456 0.28441 0.0
H138 H 0.8937 0.38367 0.33124 0.0
H139 H 0.98622 0.43045 0.29927 0.0
H140 H 0.65736 0.53914 0.11475 0.0
H141 H 0.64467 0.46952 0.1948 0.0
H142 H 0.69266 0.40576 0.27002 0.0
H143 H 0.78414 0.37391 0.31912 0.0
Mn144 Mn 0.31981 0.12462 0.18637 0.0
Mn145 Mn 0.3729 0.11341 0.05709 0.0
C146 C 0.30384 0.20663 0.12354 0.0
C147 C 0.24632 0.11088 0.25708 0.0
C148 C 0.44842 0.11747 0.16125 0.0
O149 O 0.3332 0.03454 0.17194 0.0
O150 O 0.34119 0.03408 0.07661 0.0
C151 C 0.26638 0.0901 0.98273 0.0
N152 N 0.3171 0.11945 0.99354 0.0
C153 C 0.29984 0.17405 0.89331 0.0
C154 C 0.24918 0.14046 0.88914 0.0
C155 C 0.23261 0.10138 0.93329 0.0
C156 C 0.33567 0.15893 0.95668 0.0
H157 H 0.25004 0.05868 0.01325 0.0
C158 C 0.33658 0.00725 0.12422 0.0
O159 O 0.30146 0.11419 0.26888 0.0
O160 O 0.23382 0.11236 0.20364 0.0
N161 N 0.40974 0.19007 0.03927 0.0
C162 C 0.45237 0.22606 0.07297 0.0
C163 C 0.47856 0.28953 0.05611 0.0
C164 C 0.4511 0.33635 0.96894 0.0
C165 C 0.40558 0.29643 0.93069 0.0
C166 C 0.38542 0.20372 0.98507 0.0
H167 H 0.46601 0.21146 0.1135 0.0
O168 O 0.30535 0.21247 0.17802 0.0
O169 O 0.3143 0.15205 0.10768 0.0
O170 O 0.40917 0.13906 0.19282 0.0
O171 O 0.43628 0.09942 0.11217 0.0
C172 C 0.36189 0.29836 0.86552 0.0
C173 C 0.31231 0.23834 0.84905 0.0
H174 H 0.21936 0.14828 0.85451 0.0
H175 H 0.19069 0.0796 0.92987 0.0
H176 H 0.47214 0.30817 0.02886 0.0
H177 H 0.42295 0.32069 0.93734 0.0
H178 H 0.36532 0.33574 0.83744 0.0
H179 H 0.2874 0.24126 0.81056 0.0
Mn180 Mn 0.18991 0.87449 0.68637 0.0
Mn181 Mn 0.13682 0.8857 0.55709 0.0
C182 C 0.20588 0.79248 0.62354 0.0
C183 C 0.26341 0.88823 0.75708 0.0
C184 C 0.0613 0.88164 0.66125 0.0
O185 O 0.17652 0.96457 0.67194 0.0
O186 O 0.16853 0.96503 0.57661 0.0
C187 C 0.24334 0.90901 0.48273 0.0
N188 N 0.19262 0.87966 0.49354 0.0
C189 C 0.20988 0.82507 0.39331 0.0
C190 C 0.26054 0.85866 0.38915 0.0
C191 C 0.27711 0.89774 0.43329 0.0
C192 C 0.17405 0.84018 0.45668 0.0
H193 H 0.25968 0.94043 0.51325 0.0
C194 C 0.17314 0.99186 0.62422 0.0
O195 O 0.20827 0.88492 0.76888 0.0
O196 O 0.2759 0.88675 0.70364 0.0
N197 N 0.09998 0.80904 0.53926 0.0
C198 C 0.05735 0.77305 0.57297 0.0
C199 C 0.03116 0.70959 0.55611 0.0
C200 C 0.05862 0.66276 0.46894 0.0
C201 C 0.10414 0.70268 0.43069 0.0
C202 C 0.1243 0.79539 0.48507 0.0
H203 H 0.04371 0.78765 0.6135 0.0
O204 O 0.20437 0.78664 0.67802 0.0
O205 O 0.19542 0.84707 0.60768 0.0
O206 O 0.10055 0.86005 0.69282 0.0
O207 O 0.07344 0.89969 0.61217 0.0
C208 C 0.14783 0.70076 0.36551 0.0
C209 C 0.19741 0.76077 0.34905 0.0
H210 H 0.29036 0.85083 0.35451 0.0
H211 H 0.31903 0.91951 0.42987 0.0
H212 H 0.03758 0.69094 0.52886 0.0
H213 H 0.08677 0.67843 0.43734 0.0
H214 H 0.1444 0.66337 0.33744 0.0
H215 H 0.22232 0.75785 0.31057 0.0
Mn216 Mn 0.81981 0.37449 0.82183 0.0
Mn217 Mn 0.8729 0.3857 0.9511 0.0
C218 C 0.80384 0.29247 0.88465 0.0
C219 C 0.74631 0.38823 0.75111 0.0
C220 C 0.94842 0.38164 0.84694 0.0
O221 O 0.8332 0.46457 0.83625 0.0
O222 O 0.84119 0.46503 0.93159 0.0
C223 C 0.76638 0.40901 0.02546 0.0
N224 N 0.8171 0.37966 0.01465 0.0
C225 C 0.79984 0.32506 0.11489 0.0
C226 C 0.74918 0.35865 0.11905 0.0
C227 C 0.73261 0.39773 0.0749 0.0
C228 C 0.83567 0.34018 0.05151 0.0
H229 H 0.75005 0.44043 0.99494 0.0
C230 C 0.83658 0.49186 0.88397 0.0
O231 O 0.80146 0.38492 0.73931 0.0
O232 O 0.73382 0.38675 0.80455 0.0
N233 N 0.90974 0.30904 0.96893 0.0
C234 C 0.95237 0.27305 0.93522 0.0
C235 C 0.97856 0.20958 0.95208 0.0
C236 C 0.9511 0.16276 0.03925 0.0
C237 C 0.90558 0.20268 0.0775 0.0
C238 C 0.88542 0.29539 0.02312 0.0
H239 H 0.96601 0.28765 0.89469 0.0
O240 O 0.80535 0.28664 0.83018 0.0
O241 O 0.81431 0.34706 0.90051 0.0
O242 O 0.90917 0.36005 0.81537 0.0
O243 O 0.93628 0.39969 0.89603 0.0
C244 C 0.86189 0.20075 0.14268 0.0
C245 C 0.81231 0.26077 0.15914 0.0
H246 H 0.71936 0.35083 0.15368 0.0
H247 H 0.6907 0.41951 0.07832 0.0
H248 H 0.97214 0.19094 0.97933 0.0
H249 H 0.92295 0.17842 0.07085 0.0
H250 H 0.86532 0.16337 0.17075 0.0
H251 H 0.7874 0.25785 0.19763 0.0
Mn252 Mn 0.68991 0.62462 0.32183 0.0
Mn253 Mn 0.63682 0.61341 0.4511 0.0
C254 C 0.70588 0.70663 0.38465 0.0
C255 C 0.76341 0.61088 0.25111 0.0
C256 C 0.5613 0.61747 0.34695 0.0
O257 O 0.67652 0.53454 0.33625 0.0
O258 O 0.66853 0.53408 0.43159 0.0
C259 C 0.74335 0.5901 0.52546 0.0
N260 N 0.69262 0.61945 0.51465 0.0
C261 C 0.70988 0.67404 0.61489 0.0
C262 C 0.76054 0.64045 0.61905 0.0
C263 C 0.77712 0.60137 0.5749 0.0
C264 C 0.67405 0.65893 0.55151 0.0
H265 H 0.75968 0.55868 0.49494 0.0
C266 C 0.67315 0.50725 0.38397 0.0
O267 O 0.70826 0.61419 0.23931 0.0
O268 O 0.7759 0.61235 0.30455 0.0
N269 N 0.59998 0.69007 0.46893 0.0
C270 C 0.55735 0.72605 0.43522 0.0
C271 C 0.53116 0.78952 0.45208 0.0
C272 C 0.55862 0.83635 0.53925 0.0
C273 C 0.60415 0.79643 0.5775 0.0
C274 C 0.6243 0.70372 0.52312 0.0
H275 H 0.54371 0.71146 0.39469 0.0
O276 O 0.70437 0.71247 0.33018 0.0
O277 O 0.69542 0.65204 0.40051 0.0
O278 O 0.60055 0.63906 0.31537 0.0
O279 O 0.57344 0.59942 0.39603 0.0
C280 C 0.64783 0.79835 0.64268 0.0
C281 C 0.69741 0.73834 0.65914 0.0
H282 H 0.79036 0.64828 0.65368 0.0
H283 H 0.81903 0.5796 0.57832 0.0
H284 H 0.53758 0.80817 0.47933 0.0
H285 H 0.58678 0.82068 0.57085 0.0
H286 H 0.6444 0.83574 0.67075 0.0
H287 H 0.72232 0.74126 0.69763 0.0
Mn288 Mn 0.17819 0.30864 0.11457 0.0
Mn289 Mn 0.28433 0.35787 0.03048 0.0
C290 C 0.25928 0.2457 0.0939 0.0
C291 C 0.13011 0.2847 0.19919 0.0
C292 C 0.16674 0.32517 0.98685 0.0
O293 O 0.1721 0.39634 0.12995 0.0
O294 O 0.23573 0.4251 0.06213 0.0
C295 C 0.36165 0.45335 0.07458 0.0
N296 N 0.35493 0.39417 0.06482 0.0
C297 C 0.47394 0.39734 0.04704 0.0
C298 C 0.47121 0.45638 0.06149 0.0
C299 C 0.41681 0.48281 0.07459 0.0
C300 C 0.40266 0.36285 0.05351 0.0
H301 H 0.32355 0.48035 0.0815 0.0
C302 C 0.19868 0.43618 0.10198 0.0
O303 O 0.1019 0.29161 0.15254 0.0
O304 O 0.18632 0.29208 0.19697 0.0
N305 N 0.32911 0.2925 0.99956 0.0
C306 C 0.31733 0.26006 0.94599 0.0
C307 C 0.39857 0.20704 0.89313 0.0
C308 C 0.46422 0.20723 0.91663 0.0
C309 C 0.47723 0.2423 0.97256 0.0
C310 C 0.38581 0.29416 0.02474 0.0
H311 H 0.27145 0.26414 0.93397 0.0
O312 O 0.2058 0.22649 0.09743 0.0
O313 O 0.26358 0.30392 0.09476 0.0
O314 O 0.14195 0.32153 0.03445 0.0
O315 O 0.22081 0.33151 0.98328 0.0
C316 C 0.54294 0.29128 0.97657 0.0
C317 C 0.53981 0.36481 0.01224 0.0
H318 H 0.51028 0.48328 0.05942 0.0
H319 H 0.41682 0.5297 0.08348 0.0
H320 H 0.39722 0.18135 0.85384 0.0
H321 H 0.49928 0.18913 0.89158 0.0
H322 H 0.58147 0.28011 0.95242 0.0
H323 H 0.57846 0.39223 0.0096 0.0
Mn324 Mn 0.67819 0.19047 0.89362 0.0
Mn325 Mn 0.78434 0.14124 0.97771 0.0
C326 C 0.75928 0.25341 0.91429 0.0
C327 C 0.63011 0.21441 0.809 0.0
C328 C 0.66674 0.17394 0.02134 0.0
O329 O 0.67209 0.10277 0.87825 0.0
O330 O 0.73574 0.07401 0.94607 0.0
C331 C 0.86165 0.04576 0.93361 0.0
N332 N 0.85494 0.10494 0.94338 0.0
C333 C 0.97394 0.10177 0.96115 0.0
C334 C 0.97121 0.04273 0.9467 0.0
C335 C 0.91681 0.0163 0.93361 0.0
C336 C 0.90266 0.13626 0.95468 0.0
H337 H 0.82355 0.01876 0.92669 0.0
C338 C 0.69868 0.06293 0.90621 0.0
O339 O 0.6019 0.2075 0.85565 0.0
O340 O 0.68632 0.20703 0.81122 0.0
N341 N 0.82911 0.20661 0.00863 0.0
C342 C 0.81733 0.23905 0.0622 0.0
C343 C 0.89857 0.29207 0.11506 0.0
C344 C 0.96422 0.29188 0.09156 0.0
C345 C 0.97723 0.25681 0.03564 0.0
C346 C 0.88581 0.20495 0.98345 0.0
H347 H 0.77145 0.23497 0.07422 0.0
O348 O 0.7058 0.27262 0.91076 0.0
O349 O 0.76358 0.1952 0.91343 0.0
O350 O 0.64195 0.17759 0.97374 0.0
O351 O 0.72082 0.1676 0.02491 0.0
C352 C 0.04294 0.20782 0.03162 0.0
C353 C 0.03981 0.1343 0.99595 0.0
H354 H 0.01028 0.01583 0.94878 0.0
H355 H 0.91682 0.96941 0.92472 0.0
H356 H 0.89722 0.31776 0.15435 0.0
H357 H 0.99928 0.30998 0.11661 0.0
H358 H 0.08147 0.219 0.05577 0.0
H359 H 0.07846 0.10688 0.99859 0.0
Mn360 Mn 0.83153 0.80864 0.39362 0.0
Mn361 Mn 0.72539 0.85787 0.47771 0.0
C362 C 0.75044 0.7457 0.41429 0.0
C363 C 0.87961 0.7847 0.309 0.0
C364 C 0.84298 0.82517 0.52134 0.0
O365 O 0.83762 0.89634 0.37824 0.0
O366 O 0.77399 0.9251 0.44607 0.0
C367 C 0.64807 0.95335 0.43361 0.0
N368 N 0.65479 0.89417 0.44338 0.0
C369 C 0.53578 0.89734 0.46115 0.0
C370 C 0.53851 0.95638 0.4467 0.0
C371 C 0.59291 0.98281 0.43361 0.0
C372 C 0.60706 0.86285 0.45468 0.0
H373 H 0.68617 0.98035 0.42669 0.0
C374 C 0.81104 0.93618 0.40621 0.0
O375 O 0.90782 0.79161 0.35565 0.0
O376 O 0.8234 0.79207 0.31122 0.0
N377 N 0.68061 0.7925 0.50863 0.0
C378 C 0.69239 0.76006 0.5622 0.0
C379 C 0.61115 0.70704 0.61506 0.0
C380 C 0.5455 0.70723 0.59156 0.0
C381 C 0.53249 0.7423 0.53564 0.0
C382 C 0.62391 0.79416 0.48345 0.0
H383 H 0.73827 0.76414 0.57422 0.0
O384 O 0.80392 0.72649 0.41076 0.0
O385 O 0.74614 0.80391 0.41343 0.0
O386 O 0.86777 0.82153 0.47374 0.0
O387 O 0.78891 0.83151 0.52491 0.0
C388 C 0.46678 0.79128 0.53162 0.0
C389 C 0.46991 0.86481 0.49595 0.0
H390 H 0.49944 0.98328 0.44878 0.0
H391 H 0.5929 0.0297 0.42472 0.0
H392 H 0.6125 0.68134 0.65435 0.0
H393 H 0.51045 0.68913 0.61661 0.0
H394 H 0.42825 0.78011 0.55577 0.0
H395 H 0.43126 0.89223 0.49859 0.0
Mn396 Mn 0.33153 0.69047 0.61457 0.0
Mn397 Mn 0.22539 0.64124 0.53048 0.0
C398 C 0.25044 0.75341 0.5939 0.0
C399 C 0.37961 0.71441 0.69919 0.0
C400 C 0.34298 0.67394 0.48685 0.0
O401 O 0.33762 0.60277 0.62995 0.0
O402 O 0.27399 0.57401 0.56212 0.0
C403 C 0.14807 0.54576 0.57458 0.0
N404 N 0.15479 0.60494 0.56481 0.0
C405 C 0.03578 0.60177 0.54704 0.0
C406 C 0.03851 0.54273 0.56149 0.0
C407 C 0.09291 0.5163 0.57458 0.0
C408 C 0.10706 0.63626 0.55351 0.0
H409 H 0.18617 0.51876 0.5815 0.0
C410 C 0.31104 0.56293 0.60198 0.0
O411 O 0.40782 0.7075 0.65255 0.0
O412 O 0.3234 0.70703 0.69697 0.0
N413 N 0.18061 0.70661 0.49956 0.0
C414 C 0.19239 0.73905 0.44599 0.0
C415 C 0.11115 0.79207 0.39313 0.0
C416 C 0.0455 0.79188 0.41663 0.0
C417 C 0.03249 0.75681 0.47255 0.0
C418 C 0.12391 0.70495 0.52474 0.0
H419 H 0.23827 0.73497 0.43397 0.0
O420 O 0.30392 0.77262 0.59743 0.0
O421 O 0.24614 0.6952 0.59476 0.0
O422 O 0.36777 0.67758 0.53445 0.0
O423 O 0.28891 0.6676 0.48328 0.0
C424 C 0.96678 0.70783 0.47657 0.0
C425 C 0.96991 0.6343 0.51224 0.0
H426 H 0.99944 0.51583 0.55941 0.0
H427 H 0.0929 0.46941 0.58347 0.0
H428 H 0.1125 0.81777 0.35384 0.0
H429 H 0.01044 0.80998 0.39158 0.0
H430 H 0.92825 0.719 0.45242 0.0
H431 H 0.93126 0.60688 0.5096 0.0
Mn432 Mn 0.88757 0.80976 0.70038 0.0
Mn433 Mn 0.88291 0.94781 0.65119 0.0
C434 C 0.80352 0.86831 0.7124 0.0
C435 C 0.89338 0.74089 0.77521 0.0
C436 C 0.87392 0.84116 0.57399 0.0
O437 O 0.97579 0.82914 0.69279 0.0
O438 O 0.96654 0.92212 0.65873 0.0
C439 C 0.93091 0.00301 0.75308 0.0
N440 N 0.8883 0.00043 0.71326 0.0
C441 C 0.82999 0.07204 0.7626 0.0
C442 C 0.87506 0.07847 0.80181 0.0
C443 C 0.92424 0.04155 0.7986 0.0
C444 C 0.83829 0.03191 0.71861 0.0
H445 H 0.96915 0.97516 0.7506 0.0
C446 C 0.99783 0.8781 0.67514 0.0
O447 O 0.89654 0.72469 0.72277 0.0
O448 O 0.89432 0.79721 0.78394 0.0
N449 N 0.8042 0.97627 0.6434 0.0
C450 C 0.76099 0.95642 0.60866 0.0
C451 C 0.70431 0.97961 0.61358 0.0
C452 C 0.69285 0.02411 0.6533 0.0
C453 C 0.73813 0.04453 0.68804 0.0
C454 C 0.79355 0.01884 0.68187 0.0
H455 H 0.76933 0.92232 0.57828 0.0
O456 O 0.80069 0.81156 0.7095 0.0
O457 O 0.85589 0.88904 0.7049 0.0
O458 O 0.8774 0.80262 0.61329 0.0
O459 O 0.87486 0.89645 0.58412 0.0
C460 C 0.72979 0.08732 0.73038 0.0
C461 C 0.77598 0.10131 0.76748 0.0
H462 H 0.87153 0.11056 0.83528 0.0
H463 H 0.95759 0.04333 0.8306 0.0
H464 H 0.66959 0.96334 0.58666 0.0
H465 H 0.64904 0.04194 0.65703 0.0
H466 H 0.68758 0.10828 0.73588 0.0
H467 H 0.76895 0.13255 0.80129 0.0
Mn468 Mn 0.62215 0.18935 0.20038 0.0
Mn469 Mn 0.62681 0.0513 0.15119 0.0
C470 C 0.7062 0.1308 0.2124 0.0
C471 C 0.61634 0.25822 0.27521 0.0
C472 C 0.63581 0.15795 0.07399 0.0
O473 O 0.53393 0.16997 0.19279 0.0
O474 O 0.54318 0.07699 0.15873 0.0
C475 C 0.57881 0.9961 0.25308 0.0
N476 N 0.62142 0.99868 0.21326 0.0
C477 C 0.67973 0.92707 0.2626 0.0
C478 C 0.63466 0.92064 0.30181 0.0
C479 C 0.58548 0.95756 0.2986 0.0
C480 C 0.67143 0.9672 0.21861 0.0
H481 H 0.54057 0.02396 0.2506 0.0
C482 C 0.51189 0.12101 0.17514 0.0
O483 O 0.61318 0.27442 0.22277 0.0
O484 O 0.6154 0.2019 0.28394 0.0
N485 N 0.70552 0.02284 0.1434 0.0
C486 C 0.74874 0.04269 0.10867 0.0
C487 C 0.80541 0.0195 0.11358 0.0
C488 C 0.81687 0.975 0.15331 0.0
C489 C 0.77159 0.95458 0.18805 0.0
C490 C 0.71617 0.98027 0.18187 0.0
H491 H 0.7404 0.07679 0.07828 0.0
O492 O 0.70903 0.18755 0.2095 0.0
O493 O 0.65383 0.11007 0.2049 0.0
O494 O 0.63232 0.19649 0.11329 0.0
O495 O 0.63486 0.10266 0.08412 0.0
C496 C 0.77993 0.91179 0.23039 0.0
C497 C 0.73374 0.8978 0.26749 0.0
H498 H 0.63819 0.88855 0.33528 0.0
H499 H 0.55213 0.95578 0.3306 0.0
H500 H 0.84013 0.03577 0.08667 0.0
H501 H 0.86068 0.95717 0.15704 0.0
H502 H 0.82214 0.89083 0.23589 0.0
H503 H 0.74077 0.86656 0.3013 0.0
Mn504 Mn 0.38757 0.68935 0.30781 0.0
Mn505 Mn 0.38291 0.5513 0.35701 0.0
C506 C 0.30352 0.6308 0.29579 0.0
C507 C 0.39338 0.75822 0.23299 0.0
C508 C 0.37392 0.65795 0.43421 0.0
O509 O 0.47579 0.66997 0.3154 0.0
O510 O 0.46654 0.57699 0.34947 0.0
C511 C 0.43091 0.4961 0.25511 0.0
N512 N 0.3883 0.49868 0.29493 0.0
C513 C 0.32999 0.42707 0.24559 0.0
C514 C 0.37506 0.42064 0.20639 0.0
C515 C 0.42423 0.45756 0.2096 0.0
C516 C 0.33829 0.4672 0.28959 0.0
H517 H 0.46915 0.52395 0.25759 0.0
C518 C 0.49783 0.62101 0.33306 0.0
O519 O 0.39654 0.77442 0.28542 0.0
O520 O 0.39432 0.7019 0.22425 0.0
N521 N 0.3042 0.52284 0.36479 0.0
C522 C 0.26099 0.54269 0.39953 0.0
C523 C 0.20431 0.51951 0.39461 0.0
C524 C 0.19285 0.475 0.35489 0.0
C525 C 0.23813 0.45458 0.32015 0.0
C526 C 0.29355 0.48027 0.32632 0.0
H527 H 0.26933 0.57679 0.42991 0.0
O528 O 0.30069 0.68755 0.29869 0.0
O529 O 0.35589 0.61007 0.30329 0.0
O530 O 0.3774 0.69649 0.3949 0.0
O531 O 0.37486 0.60266 0.42407 0.0
C532 C 0.22979 0.41179 0.27781 0.0
C533 C 0.27598 0.3978 0.24071 0.0
H534 H 0.37152 0.38855 0.17291 0.0
H535 H 0.45759 0.45578 0.17759 0.0
H536 H 0.16959 0.53577 0.42153 0.0
H537 H 0.14904 0.45717 0.35116 0.0
H538 H 0.18758 0.39083 0.27231 0.0
H539 H 0.26895 0.36656 0.2069 0.0
Mn540 Mn 0.12215 0.30976 0.80781 0.0
Mn541 Mn 0.12681 0.44781 0.857 0.0
C542 C 0.2062 0.36831 0.79579 0.0
C543 C 0.11634 0.24089 0.73298 0.0
C544 C 0.13581 0.34116 0.9342 0.0
O545 O 0.03393 0.32914 0.8154 0.0
O546 O 0.04318 0.42212 0.84946 0.0
C547 C 0.07881 0.50301 0.75511 0.0
N548 N 0.12142 0.50043 0.79493 0.0
C549 C 0.17973 0.57204 0.74559 0.0
C550 C 0.13466 0.57848 0.70638 0.0
C551 C 0.08548 0.54155 0.70959 0.0
C552 C 0.17143 0.53191 0.78958 0.0
H553 H 0.04057 0.47515 0.75759 0.0
C554 C 0.01189 0.3781 0.83306 0.0
O555 O 0.11318 0.22469 0.78542 0.0
O556 O 0.1154 0.29721 0.72425 0.0
N557 N 0.20552 0.47627 0.86479 0.0
C558 C 0.24874 0.45642 0.89953 0.0
C559 C 0.30541 0.47961 0.89461 0.0
C560 C 0.31687 0.52411 0.85489 0.0
C561 C 0.27159 0.54453 0.82015 0.0
C562 C 0.21617 0.51884 0.82632 0.0
H563 H 0.2404 0.42232 0.92991 0.0
O564 O 0.20903 0.31156 0.79869 0.0
O565 O 0.15383 0.38904 0.80329 0.0
O566 O 0.13232 0.30262 0.8949 0.0
O567 O 0.13486 0.39645 0.92407 0.0
C568 C 0.27992 0.58732 0.7778 0.0
C569 C 0.23374 0.60131 0.7407 0.0
H570 H 0.13819 0.61056 0.67291 0.0
H571 H 0.05213 0.54333 0.67759 0.0
H572 H 0.34013 0.46335 0.92153 0.0
H573 H 0.36068 0.54195 0.85116 0.0
H574 H 0.32214 0.60828 0.77231 0.0
H575 H 0.24077 0.63255 0.7069 0.0
Mn576 Mn 0.68792 0.89101 0.82239 0.0
Mn577 Mn 0.64906 0.88753 0.95865 0.0
C578 C 0.69499 0.80388 0.87515 0.0
C579 C 0.76216 0.8958 0.75258 0.0
C580 C 0.56038 0.89178 0.86317 0.0
O581 O 0.68988 0.97921 0.84515 0.0
O582 O 0.66923 0.97008 0.9384 0.0
C583 C 0.7646 0.9174 0.006 0.0
N584 N 0.71762 0.88052 1.00366 0.0
C585 C 0.7643 0.81114 0.0651 0.0
C586 C 0.81268 0.84888 0.06939 0.0
C587 C 0.81348 0.9015 0.03831 0.0
C588 C 0.71754 0.82836 0.03102 0.0
H589 H 0.76524 0.95807 0.98255 0.0
C590 C 0.68385 0.00064 0.89517 0.0
O591 O 0.70737 0.90343 0.73998 0.0
O592 O 0.77376 0.89132 0.80574 0.0
N593 N 0.63162 0.80863 0.98181 0.0
C594 C 0.59128 0.77073 0.95989 0.0
C595 C 0.59237 0.71116 0.97592 0.0
C596 C 0.6333 0.69164 0.01599 0.0
C597 C 0.67366 0.73165 0.03865 0.0
C598 C 0.67234 0.78993 0.01907 0.0
H599 H 0.56031 0.78521 0.92844 0.0
O600 O 0.68941 0.80217 0.82081 0.0
O601 O 0.69401 0.85659 0.89615 0.0
O602 O 0.59742 0.88956 0.8228 0.0
O603 O 0.57503 0.89345 0.91515 0.0
C604 C 0.7177 0.71513 0.07697 0.0
C605 C 0.76238 0.75549 0.09062 0.0
H606 H 0.85037 0.8368 0.09461 0.0
H607 H 0.85166 0.92974 0.03928 0.0
H608 H 0.56169 0.68033 0.95745 0.0
H609 H 0.63405 0.64557 0.02825 0.0
H610 H 0.71883 0.67105 0.09453 0.0
H611 H 0.7968 0.74305 0.11871 0.0
Mn612 Mn 0.82181 0.1081 0.32239 0.0
Mn613 Mn 0.86067 0.11158 0.45865 0.0
C614 C 0.81473 0.19523 0.37515 0.0
C615 C 0.74756 0.10331 0.25258 0.0
C616 C 0.94934 0.10733 0.36317 0.0
O617 O 0.81985 0.0199 0.34515 0.0
O618 O 0.84049 0.02903 0.4384 0.0
C619 C 0.74512 0.08171 0.506 0.0
N620 N 0.79211 0.1186 0.50366 0.0
C621 C 0.74544 0.18798 0.56509 0.0
C622 C 0.69705 0.15024 0.56939 0.0
C623 C 0.69625 0.09762 0.53831 0.0
C624 C 0.79219 0.17075 0.53102 0.0
H625 H 0.74448 0.04105 0.48255 0.0
C626 C 0.82587 0.99847 0.39517 0.0
O627 O 0.80235 0.09568 0.23998 0.0
O628 O 0.73596 0.10779 0.30574 0.0
N629 N 0.87811 0.19048 0.48181 0.0
C630 C 0.91845 0.22838 0.45989 0.0
C631 C 0.91737 0.28794 0.47591 0.0
C632 C 0.87643 0.30747 0.51598 0.0
C633 C 0.83608 0.26746 0.53864 0.0
C634 C 0.83739 0.20918 0.51906 0.0
H635 H 0.94942 0.2139 0.42843 0.0
O636 O 0.82031 0.19694 0.32081 0.0
O637 O 0.81571 0.14252 0.39615 0.0
O638 O 0.9123 0.10955 0.3228 0.0
O639 O 0.93469 0.10565 0.41515 0.0
C640 C 0.79204 0.28399 0.57696 0.0
C641 C 0.74736 0.24363 0.59062 0.0
H642 H 0.65936 0.16232 0.59461 0.0
H643 H 0.65807 0.06938 0.53928 0.0
H644 H 0.94805 0.31877 0.45743 0.0
H645 H 0.87569 0.35354 0.52824 0.0
H646 H 0.79091 0.32807 0.59451 0.0
H647 H 0.71294 0.25608 0.6187 0.0
Mn648 Mn 0.18791 0.6081 0.1858 0.0
Mn649 Mn 0.14905 0.61158 0.04954 0.0
C650 C 0.19499 0.69523 0.13304 0.0
C651 C 0.26216 0.60331 0.25561 0.0
C652 C 0.06038 0.60733 0.14502 0.0
O653 O 0.18988 0.5199 0.16304 0.0
O654 O 0.16923 0.52903 0.06979 0.0
C655 C 0.2646 0.58171 1.00219 0.0
N656 N 0.21761 0.6186 0.00454 0.0
C657 C 0.26429 0.68798 0.9431 0.0
C658 C 0.31267 0.65024 0.9388 0.0
C659 C 0.31347 0.59762 0.96988 0.0
C660 C 0.21753 0.67075 0.97717 0.0
H661 H 0.26524 0.54105 0.02564 0.0
C662 C 0.18385 0.49847 0.11302 0.0
O663 O 0.20737 0.59568 0.26821 0.0
O664 O 0.27376 0.60779 0.20245 0.0
N665 N 0.13161 0.69048 0.02639 0.0
C666 C 0.09127 0.72838 0.0483 0.0
C667 C 0.09236 0.78794 0.03228 0.0
C668 C 0.13329 0.80747 0.99221 0.0
C669 C 0.17365 0.76746 0.96955 0.0
C670 C 0.17233 0.70918 0.98913 0.0
H671 H 0.0603 0.7139 0.07976 0.0
O672 O 0.18941 0.69694 0.18738 0.0
O673 O 0.19401 0.64252 0.11204 0.0
O674 O 0.09742 0.60955 0.18539 0.0
O675 O 0.07503 0.60566 0.09305 0.0
C676 C 0.21768 0.78399 0.93123 0.0
C677 C 0.26236 0.74363 0.91757 0.0
H678 H 0.35036 0.66232 0.91358 0.0
H679 H 0.35165 0.56938 0.96891 0.0
H680 H 0.06167 0.81877 0.05076 0.0
H681 H 0.13403 0.85354 0.97995 0.0
H682 H 0.21881 0.82807 0.91368 0.0
H683 H 0.29678 0.75608 0.88949 0.0
Mn684 Mn 0.32181 0.39101 0.6858 0.0
Mn685 Mn 0.36066 0.38753 0.54954 0.0
C686 C 0.31473 0.30388 0.63304 0.0
C687 C 0.24756 0.3958 0.75561 0.0
C688 C 0.44934 0.39178 0.64502 0.0
O689 O 0.31984 0.47921 0.66304 0.0
O690 O 0.34049 0.47008 0.56979 0.0
C691 C 0.24512 0.4174 0.50219 0.0
N692 N 0.29211 0.38052 0.50454 0.0
C693 C 0.24543 0.31114 0.4431 0.0
C694 C 0.19704 0.34888 0.4388 0.0
C695 C 0.19624 0.4015 0.46988 0.0
C696 C 0.29218 0.32836 0.47717 0.0
H697 H 0.24448 0.45806 0.52564 0.0
C698 C 0.32587 0.50064 0.61302 0.0
O699 O 0.30235 0.40343 0.76821 0.0
O700 O 0.23596 0.39132 0.70245 0.0
N701 N 0.3781 0.30863 0.52638 0.0
C702 C 0.41844 0.27073 0.5483 0.0
C703 C 0.41735 0.21117 0.53228 0.0
C704 C 0.37642 0.19164 0.4922 0.0
C705 C 0.33607 0.23165 0.46954 0.0
C706 C 0.33738 0.28993 0.48912 0.0
H707 H 0.44941 0.28521 0.57975 0.0
O708 O 0.32031 0.30217 0.68738 0.0
O709 O 0.31571 0.35659 0.61204 0.0
O710 O 0.4123 0.38956 0.68539 0.0
O711 O 0.43469 0.39345 0.59304 0.0
C712 C 0.29203 0.21513 0.43123 0.0
C713 C 0.24735 0.25549 0.41757 0.0
H714 H 0.15935 0.3368 0.41358 0.0
H715 H 0.15806 0.42974 0.46891 0.0
H716 H 0.44804 0.18034 0.55075 0.0
H717 H 0.37568 0.14557 0.47994 0.0
H718 H 0.29089 0.17105 0.41367 0.0
H719 H 0.21292 0.24304 0.38949 0.0
Mn720 Mn 0.80354 0.6843 0.89551 0.0
Mn721 Mn 0.94459 0.64805 0.89813 0.0
C722 C 0.86352 0.70308 0.8172 0.0
C723 C 0.73229 0.75833 0.90072 0.0
C724 C 0.84799 0.55638 0.88501 0.0
O725 O 0.81832 0.67394 0.98089 0.0
O726 O 0.91554 0.65468 0.97787 0.0
C727 C 0.98106 0.76412 0.94095 0.0
N728 N 0.98856 0.71925 0.90343 0.0
C729 C 0.05382 0.77804 0.84724 0.0
C730 C 0.04856 0.82406 0.88634 0.0
C731 C 0.01038 0.81779 0.93233 0.0
C732 C 0.02157 0.72646 0.8566 0.0
H733 H 0.95131 0.75962 0.97609 0.0
C734 C 0.86755 0.66329 0.00506 0.0
O735 O 0.71757 0.70291 0.90133 0.0
O736 O 0.78739 0.76982 0.90447 0.0
N737 N 0.97581 0.64142 0.82375 0.0
C738 C 0.95642 0.60616 0.78108 0.0
C739 C 0.97621 0.61628 0.72601 0.0
C740 C 0.01855 0.65993 0.71589 0.0
C741 C 0.0387 0.69479 0.76065 0.0
C742 C 0.01463 0.68524 0.81418 0.0
H743 H 0.92355 0.57287 0.78843 0.0
O744 O 0.80772 0.69755 0.81168 0.0
O745 O 0.88205 0.69594 0.86848 0.0
O746 O 0.80531 0.59296 0.88562 0.0
O747 O 0.90139 0.57226 0.89057 0.0
C748 C 0.07763 0.74209 0.75311 0.0
C749 C 0.0856 0.78359 0.7968 0.0
H750 H 0.07149 0.86541 0.88009 0.0
H751 H 1.00402 0.85409 0.96136 0.0
H752 H 0.95909 0.59035 0.69141 0.0
H753 H 0.0341 0.66729 0.67332 0.0
H754 H 0.09882 0.7486 0.71279 0.0
H755 H 0.1133 0.82157 0.79019 0.0
Mn756 Mn 0.30354 0.81481 0.11268 0.0
Mn757 Mn 0.44459 0.85106 0.11006 0.0
C758 C 0.36352 0.79603 0.191 0.0
C759 C 0.23229 0.74078 0.10747 0.0
C760 C 0.34799 0.94273 0.12318 0.0
O761 O 0.31832 0.82517 0.0273 0.0
O762 O 0.41554 0.84443 0.03032 0.0
C763 C 0.48107 0.73499 0.06724 0.0
N764 N 0.48856 0.77986 0.10477 0.0
C765 C 0.55383 0.72107 0.16096 0.0
C766 C 0.54856 0.67505 0.12185 0.0
C767 C 0.51039 0.68133 0.07586 0.0
C768 C 0.52157 0.77265 0.1516 0.0
H769 H 0.45132 0.73949 0.0321 0.0
C770 C 0.36755 0.83582 1.00313 0.0
O771 O 0.21757 0.7962 0.10686 0.0
O772 O 0.28739 0.72929 0.10372 0.0
N773 N 0.47581 0.8577 0.18444 0.0
C774 C 0.45642 0.89295 0.22712 0.0
C775 C 0.47621 0.88283 0.28218 0.0
C776 C 0.51855 0.83918 0.2923 0.0
C777 C 0.5387 0.80432 0.24754 0.0
C778 C 0.51463 0.81387 0.19401 0.0
H779 H 0.42354 0.92624 0.21977 0.0
O780 O 0.30772 0.80156 0.19651 0.0
O781 O 0.38205 0.80317 0.13971 0.0
O782 O 0.30531 0.90615 0.12257 0.0
O783 O 0.40139 0.92685 0.11762 0.0
C784 C 0.57763 0.75702 0.25508 0.0
C785 C 0.5856 0.71553 0.2114 0.0
H786 H 0.57149 0.6337 0.1281 0.0
H787 H 0.50402 0.64502 0.04683 0.0
H788 H 0.45909 0.90876 0.31679 0.0
H789 H 0.5341 0.83182 0.33487 0.0
H790 H 0.59882 0.75051 0.2954 0.0
H791 H 0.61331 0.67754 0.218 0.0
Mn792 Mn 0.20618 0.1843 0.61268 0.0
Mn793 Mn 0.06513 0.14805 0.61006 0.0
C794 C 0.1462 0.20308 0.691 0.0
C795 C 0.27743 0.25833 0.60747 0.0
C796 C 0.16173 0.05638 0.62318 0.0
O797 O 0.19141 0.17394 0.5273 0.0
O798 O 0.09418 0.15468 0.53032 0.0
C799 C 0.02866 0.26412 0.56724 0.0
N800 N 0.02116 0.21925 0.60476 0.0
C801 C 0.9559 0.27804 0.66096 0.0
C802 C 0.96116 0.32406 0.62185 0.0
C803 C 0.99934 0.31779 0.57586 0.0
C804 C 0.98815 0.22646 0.65159 0.0
H805 H 0.05841 0.25963 0.5321 0.0
C806 C 0.14217 0.16329 0.50313 0.0
O807 O 0.29215 0.20291 0.60686 0.0
O808 O 0.22233 0.26982 0.60372 0.0
N809 N 0.03392 0.14142 0.68444 0.0
C810 C 0.0533 0.10617 0.72712 0.0
C811 C 0.03351 0.11628 0.78218 0.0
C812 C 0.99117 0.15993 0.7923 0.0
C813 C 0.97102 0.19479 0.74754 0.0
C814 C 0.99509 0.18524 0.69401 0.0
H815 H 0.08618 0.07287 0.71977 0.0
O816 O 0.202 0.19755 0.69651 0.0
O817 O 0.12768 0.19594 0.63971 0.0
O818 O 0.20441 0.09296 0.62257 0.0
O819 O 0.10833 0.07226 0.61762 0.0
C820 C 0.93209 0.24209 0.75508 0.0
C821 C 0.92412 0.28359 0.71139 0.0
H822 H 0.93823 0.36542 0.6281 0.0
H823 H 0.00571 0.3541 0.54683 0.0
H824 H 0.05063 0.09035 0.81679 0.0
H825 H 0.97562 0.16729 0.83487 0.0
H826 H 0.9109 0.2486 0.7954 0.0
H827 H 0.89642 0.32157 0.718 0.0
Mn828 Mn 0.70618 0.31481 0.39551 0.0
Mn829 Mn 0.56513 0.35106 0.39813 0.0
C830 C 0.6462 0.29603 0.3172 0.0
C831 C 0.77743 0.24078 0.40072 0.0
C832 C 0.66173 0.44273 0.38501 0.0
O833 O 0.69141 0.32517 0.48089 0.0
O834 O 0.59418 0.34443 0.47787 0.0
C835 C 0.52866 0.23499 0.44095 0.0
N836 N 0.52116 0.27986 0.40343 0.0
C837 C 0.45589 0.22107 0.34723 0.0
C838 C 0.46116 0.17505 0.38634 0.0
C839 C 0.49933 0.18133 0.43233 0.0
C840 C 0.48815 0.27265 0.35659 0.0
H841 H 0.55841 0.23948 0.47609 0.0
C842 C 0.64217 0.33581 0.50506 0.0
O843 O 0.79215 0.2962 0.40133 0.0
O844 O 0.72233 0.22929 0.40447 0.0
N845 N 0.53392 0.35769 0.32375 0.0
C846 C 0.5533 0.39295 0.28107 0.0
C847 C 0.53351 0.38283 0.22601 0.0
C848 C 0.49117 0.33918 0.21589 0.0
C849 C 0.47102 0.30432 0.26065 0.0
C850 C 0.49509 0.31387 0.31418 0.0
H851 H 0.58618 0.42624 0.28842 0.0
O852 O 0.702 0.30156 0.31168 0.0
O853 O 0.62768 0.30317 0.36848 0.0
O854 O 0.70441 0.40615 0.38562 0.0
O855 O 0.60833 0.42685 0.39057 0.0
C856 C 0.43209 0.25702 0.25311 0.0
C857 C 0.42412 0.21552 0.29679 0.0
H858 H 0.43823 0.1337 0.38009 0.0
H859 H 0.5057 0.14502 0.46136 0.0
H860 H 0.55063 0.40876 0.1914 0.0
H861 H 0.47562 0.33182 0.17332 0.0
H862 H 0.4109 0.25051 0.21279 0.0
H863 H 0.39641 0.17754 0.29019 0.0
loop_
_geom_bond_atom_site_label_1
_geom_bond_atom_site_label_2
_geom_bond_distance
_geom_bond_site_symmetry_2
_ccdc_geom_bond_type
Mn0 O5 2.095 . S
Mn0 O15 2.162 . S
Mn0 O16 2.297 . S
Mn0 O24 2.385 . S
Mn0 O25 2.209 . S
Mn0 O26 2.094 . S
Mn1 O6 2.121 . S
Mn1 N8 2.257 1_545 S
Mn1 N17 2.282 . S
Mn1 O25 2.215 . S
Mn1 O27 2.117 . S
C2 O24 1.234 . S
C2 O25 1.283 . S
C3 O15 1.281 . S
C3 O16 1.236 . S
C4 O26 1.240 . S
C4 O27 1.264 . S
O5 Mn0 2.095 . S
O5 C14 1.250 . S
O6 Mn1 2.121 . S
O6 C14 1.258 . S
C7 N8 1.326 . S
C7 C11 1.460 . S
C7 H13 0.929 . S
N8 Mn1 2.257 1_565 S
N8 C7 1.326 . S
N8 C12 1.362 . S
C9 C10 1.258 . S
C9 C12 1.431 . S
C9 C29 1.449 . S
C10 C9 1.258 . S
C10 C11 1.477 . S
C10 H30 0.931 . S
C11 C7 1.460 . S
C11 C10 1.477 . S
C11 H31 0.930 . S
C12 N8 1.362 . S
C12 C9 1.431 . S
C12 C22 1.476 . S
H13 C7 0.929 . S
C14 O5 1.250 . S
C14 O6 1.258 . S
O15 Mn0 2.162 . S
O15 C3 1.281 . S
O16 Mn0 2.297 . S
O16 C3 1.236 . S
N17 Mn1 2.282 . S
N17 C18 1.328 . S
N17 C22 1.318 1_545 S
C18 N17 1.328 . S
C18 C19 1.457 . S
C18 H23 0.929 . S
C19 C18 1.457 . S
C19 C20 1.291 1_545 S
C19 H32 0.931 . S
C20 C19 1.291 1_565 S
C20 C21 1.373 . S
C20 H33 0.929 . S
C21 C20 1.373 . S
C21 C22 1.396 . S
C21 C28 1.403 . S
C22 C12 1.476 . S
C22 N17 1.318 1_565 S
C22 C21 1.396 . S
H23 C18 0.929 . S
O24 Mn0 2.385 . S
O24 C2 1.234 . S
O25 Mn0 2.209 . S
O25 Mn1 2.215 . S
O25 C2 1.283 . S
O26 Mn0 2.094 . S
O26 C4 1.240 . S
O27 Mn1 2.117 . S
O27 C4 1.264 . S
C28 C21 1.403 . S
C28 C29 1.399 . S
C28 H34 0.929 . S
C29 C9 1.449 . S
C29 C28 1.399 . S
C29 H35 0.930 . S
H30 C10 0.931 . S
H31 C11 0.930 . S
H32 C19 0.931 . S
H33 C20 0.929 . S
H34 C28 0.929 . S
H35 C29 0.930 . S
Mn36 O41 2.095 . S
Mn36 O51 2.162 . S
Mn36 O52 2.297 . S
Mn36 O60 2.385 . S
Mn36 O61 2.209 . S
Mn36 O62 2.094 . S
Mn37 O42 2.121 . S
Mn37 N44 2.257 1_565 S
Mn37 N53 2.282 . S
Mn37 O61 2.215 . S
Mn37 O63 2.117 . S
C38 O60 1.234 . S
C38 O61 1.283 . S
C39 O51 1.281 . S
C39 O52 1.236 . S
C40 O62 1.240 . S
C40 O63 1.264 . S
O41 Mn36 2.095 . S
O41 C50 1.250 . S
O42 Mn37 2.121 . S
O42 C50 1.258 . S
C43 N44 1.326 . S
C43 C47 1.460 . S
C43 H49 0.929 . S
N44 Mn37 2.257 1_545 S
N44 C43 1.326 . S
N44 C48 1.362 . S
C45 C46 1.258 . S
C45 C48 1.431 . S
C45 C65 1.449 . S
C46 C45 1.258 . S
C46 C47 1.477 . S
C46 H66 0.931 . S
C47 C43 1.460 . S
C47 C46 1.477 . S
C47 H67 0.930 . S
C48 N44 1.362 . S
C48 C45 1.431 . S
C48 C58 1.476 . S
H49 C43 0.929 . S
C50 O41 1.250 . S
C50 O42 1.258 . S
O51 Mn36 2.162 . S
O51 C39 1.281 . S
O52 Mn36 2.297 . S
O52 C39 1.236 . S
N53 Mn37 2.282 . S
N53 C54 1.328 . S
N53 C58 1.318 1_565 S
C54 N53 1.328 . S
C54 C55 1.457 . S
C54 H59 0.929 . S
C55 C54 1.457 . S
C55 C56 1.291 1_565 S
C55 H68 0.931 . S
C56 C55 1.291 1_545 S
C56 C57 1.373 . S
C56 H69 0.929 . S
C57 C56 1.373 . S
C57 C58 1.396 . S
C57 C64 1.403 . S
C58 C48 1.476 . S
C58 N53 1.318 1_545 S
C58 C57 1.396 . S
H59 C54 0.929 . S
O60 Mn36 2.385 . S
O60 C38 1.234 . S
O61 Mn36 2.209 . S
O61 Mn37 2.215 . S
O61 C38 1.283 . S
O62 Mn36 2.094 . S
O62 C40 1.240 . S
O63 Mn37 2.117 . S
O63 C40 1.264 . S
C64 C57 1.403 . S
C64 C65 1.399 . S
C64 H70 0.929 . S
C65 C45 1.449 . S
C65 C64 1.399 . S
C65 H71 0.930 . S
H66 C46 0.931 . S
H67 C47 0.930 . S
H68 C55 0.931 . S
H69 C56 0.929 . S
H70 C64 0.929 . S
H71 C65 0.930 . S
Mn72 O77 2.095 . S
Mn72 O87 2.162 . S
Mn72 O88 2.297 . S
Mn72 O96 2.385 . S
Mn72 O97 2.209 . S
Mn72 O98 2.094 . S
Mn73 O78 2.121 . S
Mn73 N80 2.257 . S
Mn73 N89 2.282 . S
Mn73 O97 2.215 . S
Mn73 O99 2.117 . S
C74 O96 1.234 . S
C74 O97 1.283 . S
C75 O87 1.281 . S
C75 O88 1.236 . S
C76 O98 1.240 . S
C76 O99 1.264 . S
O77 Mn72 2.095 . S
O77 C86 1.250 . S
O78 Mn73 2.121 . S
O78 C86 1.258 . S
C79 N80 1.326 . S
C79 C83 1.460 . S
C79 H85 0.929 . S
N80 Mn73 2.257 . S
N80 C79 1.326 . S
N80 C84 1.362 . S
C81 C82 1.258 . S
C81 C84 1.431 . S
C81 C101 1.449 . S
C82 C81 1.258 . S
C82 C83 1.477 . S
C82 H102 0.931 . S
C83 C79 1.460 . S
C83 C82 1.477 . S
C83 H103 0.930 . S
C84 N80 1.362 . S
C84 C81 1.431 . S
C84 C94 1.476 . S
H85 C79 0.929 . S
C86 O77 1.250 . S
C86 O78 1.258 . S
O87 Mn72 2.162 . S
O87 C75 1.281 . S
O88 Mn72 2.297 . S
O88 C75 1.236 . S
N89 Mn73 2.282 . S
N89 C90 1.328 . S
N89 C94 1.318 . S
C90 N89 1.328 . S
C90 C91 1.457 . S
C90 H95 0.929 . S
C91 C90 1.457 . S
C91 C92 1.291 . S
C91 H104 0.931 . S
C92 C91 1.291 . S
C92 C93 1.373 . S
C92 H105 0.929 . S
C93 C92 1.373 . S
C93 C94 1.396 . S
C93 C100 1.403 . S
C94 C84 1.476 . S
C94 N89 1.318 . S
C94 C93 1.396 . S
H95 C90 0.929 . S
O96 Mn72 2.385 . S
O96 C74 1.234 . S
O97 Mn72 2.209 . S
O97 Mn73 2.215 . S
O97 C74 1.283 . S
O98 Mn72 2.094 . S
O98 C76 1.240 . S
O99 Mn73 2.117 . S
O99 C76 1.264 . S
C100 C93 1.403 . S
C100 C101 1.399 . S
C100 H106 0.929 . S
C101 C81 1.449 . S
C101 C100 1.399 . S
C101 H107 0.930 . S
H102 C82 0.931 . S
H103 C83 0.930 . S
H104 C91 0.931 . S
H105 C92 0.929 . S
H106 C100 0.929 . S
H107 C101 0.930 . S
Mn108 O113 2.095 . S
Mn108 O123 2.162 . S
Mn108 O124 2.297 . S
Mn108 O132 2.385 . S
Mn108 O133 2.209 . S
Mn108 O134 2.094 . S
Mn109 O114 2.121 . S
Mn109 N116 2.257 . S
Mn109 N125 2.282 . S
Mn109 O133 2.215 . S
Mn109 O135 2.117 . S
C110 O132 1.234 . S
C110 O133 1.283 . S
C111 O123 1.281 . S
C111 O124 1.236 . S
C112 O134 1.240 . S
C112 O135 1.264 . S
O113 Mn108 2.095 . S
O113 C122 1.250 . S
O114 Mn109 2.121 . S
O114 C122 1.258 . S
C115 N116 1.326 . S
C115 C119 1.460 . S
C115 H121 0.929 . S
N116 Mn109 2.257 . S
N116 C115 1.326 . S
N116 C120 1.362 . S
C117 C118 1.258 . S
C117 C120 1.431 . S
C117 C137 1.449 . S
C118 C117 1.258 . S
C118 C119 1.477 . S
C118 H138 0.931 . S
C119 C115 1.460 . S
C119 C118 1.477 . S
C119 H139 0.930 . S
C120 N116 1.362 . S
C120 C117 1.431 . S
C120 C130 1.476 . S
H121 C115 0.929 . S
C122 O113 1.250 . S
C122 O114 1.258 . S
O123 Mn108 2.162 . S
O123 C111 1.281 . S
O124 Mn108 2.297 . S
O124 C111 1.236 . S
N125 Mn109 2.282 . S
N125 C126 1.328 . S
N125 C130 1.318 . S
C126 N125 1.328 . S
C126 C127 1.457 . S
C126 H131 0.929 . S
C127 C126 1.457 . S
C127 C128 1.291 . S
C127 H140 0.931 . S
C128 C127 1.291 . S
C128 C129 1.373 . S
C128 H141 0.929 . S
C129 C128 1.373 . S
C129 C130 1.396 . S
C129 C136 1.403 . S
C130 C120 1.476 . S
C130 N125 1.318 . S
C130 C129 1.396 . S
H131 C126 0.929 . S
O132 Mn108 2.385 . S
O132 C110 1.234 . S
O133 Mn108 2.209 . S
O133 Mn109 2.215 . S
O133 C110 1.283 . S
O134 Mn108 2.094 . S
O134 C112 1.240 . S
O135 Mn109 2.117 . S
O135 C112 1.264 . S
C136 C129 1.403 . S
C136 C137 1.399 . S
C136 H142 0.929 . S
C137 C117 1.449 . S
C137 C136 1.399 . S
C137 H143 0.930 . S
H138 C118 0.931 . S
H139 C119 0.930 . S
H140 C127 0.931 . S
H141 C128 0.929 . S
H142 C136 0.929 . S
H143 C137 0.930 . S
Mn144 O149 2.095 . S
Mn144 O159 2.162 . S
Mn144 O160 2.297 . S
Mn144 O168 2.385 . S
Mn144 O169 2.209 . S
Mn144 O170 2.094 . S
Mn145 O150 2.121 . S
Mn145 N152 2.257 1_554 S
Mn145 N161 2.282 . S
Mn145 O169 2.215 . S
Mn145 O171 2.117 . S
C146 O168 1.234 . S
C146 O169 1.283 . S
C147 O159 1.281 . S
C147 O160 1.236 . S
C148 O170 1.240 . S
C148 O171 1.264 . S
O149 Mn144 2.095 . S
O149 C158 1.250 . S
O150 Mn145 2.121 . S
O150 C158 1.258 . S
C151 N152 1.326 . S
C151 C155 1.460 . S
C151 H157 0.936 . S
N152 Mn145 2.257 1_556 S
N152 C151 1.326 . S
N152 C156 1.362 . S
C153 C154 1.258 . S
C153 C156 1.431 . S
C153 C173 1.449 . S
C154 C153 1.258 . S
C154 C155 1.477 . S
C154 H174 0.931 . S
C155 C151 1.460 . S
C155 C154 1.477 . S
C155 H175 0.930 . S
C156 N152 1.362 . S
C156 C153 1.431 . S
C156 C166 1.476 . S
H157 C151 0.936 . S
C158 O149 1.250 . S
C158 O150 1.258 . S
O159 Mn144 2.162 . S
O159 C147 1.281 . S
O160 Mn144 2.297 . S
O160 C147 1.236 . S
N161 Mn145 2.282 . S
N161 C162 1.328 . S
N161 C166 1.318 1_554 S
C162 N161 1.328 . S
C162 C163 1.457 . S
C162 H167 0.929 . S
C163 C162 1.457 . S
C163 C164 1.291 1_554 S
C163 H176 0.931 . S
C164 C163 1.291 1_556 S
C164 C165 1.373 . S
C164 H177 0.929 . S
C165 C164 1.373 . S
C165 C166 1.396 . S
C165 C172 1.403 . S
C166 C156 1.476 . S
C166 N161 1.318 1_556 S
C166 C165 1.396 . S
H167 C162 0.929 . S
O168 Mn144 2.385 . S
O168 C146 1.234 . S
O169 Mn144 2.209 . S
O169 Mn145 2.215 . S
O169 C146 1.283 . S
O170 Mn144 2.094 . S
O170 C148 1.240 . S
O171 Mn145 2.117 . S
O171 C148 1.264 . S
C172 C165 1.403 . S
C172 C173 1.399 . S
C172 H178 0.929 . S
C173 C153 1.449 . S
C173 C172 1.399 . S
C173 H179 0.930 . S
H174 C154 0.931 . S
H175 C155 0.930 . S
H176 C163 0.931 . S
H177 C164 0.929 . S
H178 C172 0.929 . S
H179 C173 0.930 . S
Mn180 O185 2.095 . S
Mn180 O195 2.162 . S
Mn180 O196 2.297 . S
Mn180 O204 2.385 . S
Mn180 O205 2.209 . S
Mn180 O206 2.094 . S
Mn181 O186 2.121 . S
Mn181 N188 2.257 . S
Mn181 N197 2.282 . S
Mn181 O205 2.215 . S
Mn181 O207 2.117 . S
C182 O204 1.234 . S
C182 O205 1.283 . S
C183 O195 1.281 . S
C183 O196 1.236 . S
C184 O206 1.240 . S
C184 O207 1.264 . S
O185 Mn180 2.095 . S
O185 C194 1.250 . S
O186 Mn181 2.121 . S
O186 C194 1.258 . S
C187 N188 1.326 . S
C187 C191 1.460 . S
C187 H193 0.929 . S
N188 Mn181 2.257 . S
N188 C187 1.326 . S
N188 C192 1.362 . S
C189 C190 1.258 . S
C189 C192 1.431 . S
C189 C209 1.449 . S
C190 C189 1.258 . S
C190 C191 1.477 . S
C190 H210 0.931 . S
C191 C187 1.460 . S
C191 C190 1.477 . S
C191 H211 0.930 . S
C192 N188 1.362 . S
C192 C189 1.431 . S
C192 C202 1.476 . S
H193 C187 0.929 . S
C194 O185 1.250 . S
C194 O186 1.258 . S
O195 Mn180 2.162 . S
O195 C183 1.281 . S
O196 Mn180 2.297 . S
O196 C183 1.236 . S
N197 Mn181 2.282 . S
N197 C198 1.328 . S
N197 C202 1.318 . S
C198 N197 1.328 . S
C198 C199 1.457 . S
C198 H203 0.929 . S
C199 C198 1.457 . S
C199 C200 1.291 . S
C199 H212 0.931 . S
C200 C199 1.291 . S
C200 C201 1.373 . S
C200 H213 0.929 . S
C201 C200 1.373 . S
C201 C202 1.396 . S
C201 C208 1.403 . S
C202 C192 1.476 . S
C202 N197 1.318 . S
C202 C201 1.396 . S
H203 C198 0.929 . S
O204 Mn180 2.385 . S
O204 C182 1.234 . S
O205 Mn180 2.209 . S
O205 Mn181 2.215 . S
O205 C182 1.283 . S
O206 Mn180 2.094 . S
O206 C184 1.240 . S
O207 Mn181 2.117 . S
O207 C184 1.264 . S
C208 C201 1.403 . S
C208 C209 1.399 . S
C208 H214 0.929 . S
C209 C189 1.449 . S
C209 C208 1.399 . S
C209 H215 0.930 . S
H210 C190 0.931 . S
H211 C191 0.930 . S
H212 C199 0.931 . S
H213 C200 0.929 . S
H214 C208 0.929 . S
H215 C209 0.930 . S
Mn216 O221 2.095 . S
Mn216 O231 2.162 . S
Mn216 O232 2.297 . S
Mn216 O240 2.385 . S
Mn216 O241 2.209 . S
Mn216 O242 2.094 . S
Mn217 O222 2.121 . S
Mn217 N224 2.257 1_556 S
Mn217 N233 2.282 . S
Mn217 O241 2.215 . S
Mn217 O243 2.117 . S
C218 O240 1.234 . S
C218 O241 1.283 . S
C219 O231 1.281 . S
C219 O232 1.236 . S
C220 O242 1.240 . S
C220 O243 1.264 . S
O221 Mn216 2.095 . S
O221 C230 1.250 . S
O222 Mn217 2.121 . S
O222 C230 1.258 . S
C223 N224 1.326 . S
C223 C227 1.460 . S
C223 H229 0.936 . S
N224 Mn217 2.257 1_554 S
N224 C223 1.326 . S
N224 C228 1.362 . S
C225 C226 1.258 . S
C225 C228 1.431 . S
C225 C245 1.449 . S
C226 C225 1.258 . S
C226 C227 1.477 . S
C226 H246 0.931 . S
C227 C223 1.460 . S
C227 C226 1.477 . S
C227 H247 0.930 . S
C228 N224 1.362 . S
C228 C225 1.431 . S
C228 C238 1.476 . S
H229 C223 0.936 . S
C230 O221 1.250 . S
C230 O222 1.258 . S
O231 Mn216 2.162 . S
O231 C219 1.281 . S
O232 Mn216 2.297 . S
O232 C219 1.236 . S
N233 Mn217 2.282 . S
N233 C234 1.328 . S
N233 C238 1.318 1_556 S
C234 N233 1.328 . S
C234 C235 1.457 . S
C234 H239 0.929 . S
C235 C234 1.457 . S
C235 C236 1.291 1_556 S
C235 H248 0.931 . S
C236 C235 1.291 1_554 S
C236 C237 1.373 . S
C236 H249 0.929 . S
C237 C236 1.373 . S
C237 C238 1.396 . S
C237 C244 1.403 . S
C238 C228 1.476 . S
C238 N233 1.318 1_554 S
C238 C237 1.396 . S
H239 C234 0.929 . S
O240 Mn216 2.385 . S
O240 C218 1.234 . S
O241 Mn216 2.209 . S
O241 Mn217 2.215 . S
O241 C218 1.283 . S
O242 Mn216 2.094 . S
O242 C220 1.240 . S
O243 Mn217 2.117 . S
O243 C220 1.264 . S
C244 C237 1.403 . S
C244 C245 1.399 . S
C244 H250 0.929 . S
C245 C225 1.449 . S
C245 C244 1.399 . S
C245 H251 0.930 . S
H246 C226 0.931 . S
H247 C227 0.930 . S
H248 C235 0.931 . S
H249 C236 0.929 . S
H250 C244 0.929 . S
H251 C245 0.930 . S
Mn252 O257 2.095 . S
Mn252 O267 2.162 . S
Mn252 O268 2.297 . S
Mn252 O276 2.385 . S
Mn252 O277 2.209 . S
Mn252 O278 2.094 . S
Mn253 O258 2.121 . S
Mn253 N260 2.257 . S
Mn253 N269 2.282 . S
Mn253 O277 2.215 . S
Mn253 O279 2.117 . S
C254 O276 1.234 . S
C254 O277 1.283 . S
C255 O267 1.281 . S
C255 O268 1.236 . S
C256 O278 1.240 . S
C256 O279 1.264 . S
O257 Mn252 2.095 . S
O257 C266 1.250 . S
O258 Mn253 2.121 . S
O258 C266 1.258 . S
C259 N260 1.326 . S
C259 C263 1.460 . S
C259 H265 0.929 . S
N260 Mn253 2.257 . S
N260 C259 1.326 . S
N260 C264 1.362 . S
C261 C262 1.258 . S
C261 C264 1.431 . S
C261 C281 1.449 . S
C262 C261 1.258 . S
C262 C263 1.477 . S
C262 H282 0.931 . S
C263 C259 1.460 . S
C263 C262 1.477 . S
C263 H283 0.930 . S
C264 N260 1.362 . S
C264 C261 1.431 . S
C264 C274 1.476 . S
H265 C259 0.929 . S
C266 O257 1.250 . S
C266 O258 1.258 . S
O267 Mn252 2.162 . S
O267 C255 1.281 . S
O268 Mn252 2.297 . S
O268 C255 1.236 . S
N269 Mn253 2.282 . S
N269 C270 1.328 . S
N269 C274 1.318 . S
C270 N269 1.328 . S
C270 C271 1.457 . S
C270 H275 0.929 . S
C271 C270 1.457 . S
C271 C272 1.291 . S
C271 H284 0.931 . S
C272 C271 1.291 . S
C272 C273 1.373 . S
C272 H285 0.929 . S
C273 C272 1.373 . S
C273 C274 1.396 . S
C273 C280 1.403 . S
C274 C264 1.476 . S
C274 N269 1.318 . S
C274 C273 1.396 . S
H275 C270 0.929 . S
O276 Mn252 2.385 . S
O276 C254 1.234 . S
O277 Mn252 2.209 . S
O277 Mn253 2.215 . S
O277 C254 1.283 . S
O278 Mn252 2.094 . S
O278 C256 1.240 . S
O279 Mn253 2.117 . S
O279 C256 1.264 . S
C280 C273 1.403 . S
C280 C281 1.399 . S
C280 H286 0.929 . S
C281 C261 1.449 . S
C281 C280 1.399 . S
C281 H287 0.930 . S
H282 C262 0.931 . S
H283 C263 0.930 . S
H284 C271 0.931 . S
H285 C272 0.929 . S
H286 C280 0.929 . S
H287 C281 0.930 . S
Mn288 O293 2.095 . S
Mn288 O303 2.162 . S
Mn288 O304 2.297 . S
Mn288 O312 2.385 . S
Mn288 O313 2.209 . S
Mn288 O314 2.094 . S
Mn289 O294 2.121 . S
Mn289 N296 2.257 . S
Mn289 N305 2.282 . S
Mn289 O313 2.215 . S
Mn289 O315 2.123 . S
C290 O312 1.234 . S
C290 O313 1.283 . S
C291 O303 1.281 . S
C291 O304 1.236 . S
C292 O314 1.240 1_556 S
C292 O315 1.263 1_556 S
O293 Mn288 2.095 . S
O293 C302 1.250 . S
O294 Mn289 2.121 . S
O294 C302 1.258 . S
C295 N296 1.326 . S
C295 C299 1.460 . S
C295 H301 0.929 . S
N296 Mn289 2.257 . S
N296 C295 1.326 . S
N296 C300 1.362 . S
C297 C298 1.258 . S
C297 C300 1.431 . S
C297 C317 1.449 . S
C298 C297 1.258 . S
C298 C299 1.477 . S
C298 H318 0.931 . S
C299 C295 1.460 . S
C299 C298 1.477 . S
C299 H319 0.930 . S
C300 N296 1.362 . S
C300 C297 1.431 . S
C300 C310 1.476 . S
H301 C295 0.929 . S
C302 O293 1.250 . S
C302 O294 1.258 . S
O303 Mn288 2.162 . S
O303 C291 1.281 . S
O304 Mn288 2.297 . S
O304 C291 1.236 . S
N305 Mn289 2.282 . S
N305 C306 1.328 1_554 S
N305 C310 1.318 . S
C306 N305 1.328 1_556 S
C306 C307 1.457 . S
C306 H311 0.929 . S
C307 C306 1.457 . S
C307 C308 1.291 . S
C307 H320 0.931 . S
C308 C307 1.291 . S
C308 C309 1.373 . S
C308 H321 0.929 . S
C309 C308 1.373 . S
C309 C310 1.396 1_556 S
C309 C316 1.403 1_556 S
C310 C300 1.476 . S
C310 N305 1.318 . S
C310 C309 1.396 1_554 S
H311 C306 0.929 . S
O312 Mn288 2.385 . S
O312 C290 1.234 . S
O313 Mn288 2.209 . S
O313 Mn289 2.215 . S
O313 C290 1.283 . S
O314 Mn288 2.094 . S
O314 C292 1.240 1_554 S
O315 Mn289 2.123 . S
O315 C292 1.263 1_554 S
C316 C309 1.403 1_554 S
C316 C317 1.399 . S
C316 H322 0.929 1_554 S
C317 C297 1.449 . S
C317 C316 1.399 . S
C317 H323 0.930 . S
H318 C298 0.931 . S
H319 C299 0.930 . S
H320 C307 0.931 . S
H321 C308 0.929 . S
H322 C316 0.929 1_556 S
H323 C317 0.930 . S
Mn324 O329 2.095 . S
Mn324 O339 2.162 . S
Mn324 O340 2.297 . S
Mn324 O348 2.385 . S
Mn324 O349 2.209 . S
Mn324 O350 2.094 . S
Mn325 O330 2.121 . S
Mn325 N332 2.257 . S
Mn325 N341 2.282 . S
Mn325 O349 2.215 . S
Mn325 O351 2.123 . S
C326 O348 1.234 . S
C326 O349 1.283 . S
C327 O339 1.281 . S
C327 O340 1.236 . S
C328 O350 1.240 1_554 S
C328 O351 1.263 1_554 S
O329 Mn324 2.095 . S
O329 C338 1.250 . S
O330 Mn325 2.121 . S
O330 C338 1.258 . S
C331 N332 1.326 . S
C331 C335 1.460 . S
C331 H337 0.929 . S
N332 Mn325 2.257 . S
N332 C331 1.326 . S
N332 C336 1.362 . S
C333 C334 1.252 1_655 S
C333 C336 1.431 . S
C333 C353 1.449 1_655 S
C334 C333 1.252 1_455 S
C334 C335 1.466 1_455 S
C334 H354 0.946 . S
C335 C331 1.460 . S
C335 C334 1.466 1_655 S
C335 H355 0.930 . S
C336 N332 1.362 . S
C336 C333 1.431 . S
C336 C346 1.476 . S
H337 C331 0.929 . S
C338 O329 1.250 . S
C338 O330 1.258 . S
O339 Mn324 2.162 . S
O339 C327 1.281 . S
O340 Mn324 2.297 . S
O340 C327 1.236 . S
N341 Mn325 2.282 . S
N341 C342 1.328 1_556 S
N341 C346 1.318 . S
C342 N341 1.328 1_554 S
C342 C343 1.457 . S
C342 H347 0.929 . S
C343 C342 1.457 . S
C343 C344 1.291 . S
C343 H356 0.931 . S
C344 C343 1.291 . S
C344 C345 1.373 . S
C344 H357 0.929 . S
C345 C344 1.373 . S
C345 C346 1.396 1_554 S
C345 C352 1.403 1_654 S
C346 C336 1.476 . S
C346 N341 1.318 . S
C346 C345 1.396 1_556 S
H347 C342 0.929 . S
O348 Mn324 2.385 . S
O348 C326 1.234 . S
O349 Mn324 2.209 . S
O349 Mn325 2.215 . S
O349 C326 1.283 . S
O350 Mn324 2.094 . S
O350 C328 1.240 1_556 S
O351 Mn325 2.123 . S
O351 C328 1.263 1_556 S
C352 C345 1.403 1_456 S
C352 C353 1.399 . S
C352 H358 0.929 1_556 S
C353 C333 1.449 1_455 S
C353 C352 1.399 . S
C353 H359 0.930 . S
H354 C334 0.946 . S
H355 C335 0.930 . S
H356 C343 0.931 . S
H357 C344 0.929 . S
H358 C352 0.929 1_554 S
H359 C353 0.930 . S
Mn360 O365 2.095 . S
Mn360 O375 2.162 . S
Mn360 O376 2.297 . S
Mn360 O384 2.385 . S
Mn360 O385 2.209 . S
Mn360 O386 2.094 . S
Mn361 O366 2.121 . S
Mn361 N368 2.257 . S
Mn361 N377 2.282 . S
Mn361 O385 2.215 . S
Mn361 O387 2.117 . S
C362 O384 1.234 . S
C362 O385 1.283 . S
C363 O375 1.281 . S
C363 O376 1.236 . S
C364 O386 1.240 . S
C364 O387 1.264 . S
O365 Mn360 2.095 . S
O365 C374 1.250 . S
O366 Mn361 2.121 . S
O366 C374 1.258 . S
C367 N368 1.326 . S
C367 C371 1.460 . S
C367 H373 0.929 . S
N368 Mn361 2.257 . S
N368 C367 1.326 . S
N368 C372 1.362 . S
C369 C370 1.258 . S
C369 C372 1.431 . S
C369 C389 1.449 . S
C370 C369 1.258 . S
C370 C371 1.477 . S
C370 H390 0.931 . S
C371 C367 1.460 . S
C371 C370 1.477 . S
C371 H391 0.930 . S
C372 N368 1.362 . S
C372 C369 1.431 . S
C372 C382 1.476 . S
H373 C367 0.929 . S
C374 O365 1.250 . S
C374 O366 1.258 . S
O375 Mn360 2.162 . S
O375 C363 1.281 . S
O376 Mn360 2.297 . S
O376 C363 1.236 . S
N377 Mn361 2.282 . S
N377 C378 1.328 . S
N377 C382 1.318 . S
C378 N377 1.328 . S
C378 C379 1.457 . S
C378 H383 0.929 . S
C379 C378 1.457 . S
C379 C380 1.291 . S
C379 H392 0.931 . S
C380 C379 1.291 . S
C380 C381 1.373 . S
C380 H393 0.929 . S
C381 C380 1.373 . S
C381 C382 1.396 . S
C381 C388 1.403 . S
C382 C372 1.476 . S
C382 N377 1.318 . S
C382 C381 1.396 . S
H383 C378 0.929 . S
O384 Mn360 2.385 . S
O384 C362 1.234 . S
O385 Mn360 2.209 . S
O385 Mn361 2.215 . S
O385 C362 1.283 . S
O386 Mn360 2.094 . S
O386 C364 1.240 . S
O387 Mn361 2.117 . S
O387 C364 1.264 . S
C388 C381 1.403 . S
C388 C389 1.399 . S
C388 H394 0.929 . S
C389 C369 1.449 . S
C389 C388 1.399 . S
C389 H395 0.930 . S
H390 C370 0.931 . S
H391 C371 0.930 . S
H392 C379 0.931 . S
H393 C380 0.929 . S
H394 C388 0.929 . S
H395 C389 0.930 . S
Mn396 O401 2.095 . S
Mn396 O411 2.162 . S
Mn396 O412 2.297 . S
Mn396 O420 2.385 . S
Mn396 O421 2.209 . S
Mn396 O422 2.094 . S
Mn397 O402 2.121 . S
Mn397 N404 2.257 . S
Mn397 N413 2.282 . S
Mn397 O421 2.215 . S
Mn397 O423 2.117 . S
C398 O420 1.234 . S
C398 O421 1.283 . S
C399 O411 1.281 . S
C399 O412 1.236 . S
C400 O422 1.240 . S
C400 O423 1.264 . S
O401 Mn396 2.095 . S
O401 C410 1.250 . S
O402 Mn397 2.121 . S
O402 C410 1.258 . S
C403 N404 1.326 . S
C403 C407 1.460 . S
C403 H409 0.929 . S
N404 Mn397 2.257 . S
N404 C403 1.326 . S
N404 C408 1.362 . S
C405 C406 1.252 1_455 S
C405 C408 1.431 . S
C405 C425 1.449 1_455 S
C406 C405 1.252 1_655 S
C406 C407 1.466 1_655 S
C406 H426 0.946 . S
C407 C403 1.460 . S
C407 C406 1.466 1_455 S
C407 H427 0.930 . S
C408 N404 1.362 . S
C408 C405 1.431 . S
C408 C418 1.476 . S
H409 C403 0.929 . S
C410 O401 1.250 . S
C410 O402 1.258 . S
O411 Mn396 2.162 . S
O411 C399 1.281 . S
O412 Mn396 2.297 . S
O412 C399 1.236 . S
N413 Mn397 2.282 . S
N413 C414 1.328 . S
N413 C418 1.318 . S
C414 N413 1.328 . S
C414 C415 1.457 . S
C414 H419 0.929 . S
C415 C414 1.457 . S
C415 C416 1.291 . S
C415 H428 0.931 . S
C416 C415 1.291 . S
C416 C417 1.373 . S
C416 H429 0.929 . S
C417 C416 1.373 . S
C417 C418 1.396 . S
C417 C424 1.403 1_455 S
C418 C408 1.476 . S
C418 N413 1.318 . S
C418 C417 1.396 . S
H419 C414 0.929 . S
O420 Mn396 2.385 . S
O420 C398 1.234 . S
O421 Mn396 2.209 . S
O421 Mn397 2.215 . S
O421 C398 1.283 . S
O422 Mn396 2.094 . S
O422 C400 1.240 . S
O423 Mn397 2.117 . S
O423 C400 1.264 . S
C424 C417 1.403 1_655 S
C424 C425 1.399 . S
C424 H430 0.929 . S
C425 C405 1.449 1_655 S
C425 C424 1.399 . S
C425 H431 0.930 . S
H426 C406 0.946 . S
H427 C407 0.930 . S
H428 C415 0.931 . S
H429 C416 0.929 . S
H430 C424 0.929 . S
H431 C425 0.930 . S
Mn432 O437 2.095 . S
Mn432 O447 2.162 . S
Mn432 O448 2.297 . S
Mn432 O456 2.385 . S
Mn432 O457 2.209 . S
Mn432 O458 2.094 . S
Mn433 O438 2.121 . S
Mn433 N440 2.257 1_565 S
Mn433 N449 2.282 . S
Mn433 O457 2.215 . S
Mn433 O459 2.117 . S
C434 O456 1.234 . S
C434 O457 1.283 . S
C435 O447 1.281 . S
C435 O448 1.236 . S
C436 O458 1.240 . S
C436 O459 1.264 . S
O437 Mn432 2.095 . S
O437 C446 1.250 . S
O438 Mn433 2.121 . S
O438 C446 1.258 . S
C439 N440 1.326 . S
C439 C443 1.460 . S
C439 H445 0.929 . S
N440 Mn433 2.257 1_545 S
N440 C439 1.326 . S
N440 C444 1.362 . S
C441 C442 1.258 . S
C441 C444 1.431 . S
C441 C461 1.449 . S
C442 C441 1.258 . S
C442 C443 1.477 . S
C442 H462 0.931 . S
C443 C439 1.460 . S
C443 C442 1.477 . S
C443 H463 0.930 . S
C444 N440 1.362 . S
C444 C441 1.431 . S
C444 C454 1.476 . S
H445 C439 0.929 . S
C446 O437 1.250 . S
C446 O438 1.258 . S
O447 Mn432 2.162 . S
O447 C435 1.281 . S
O448 Mn432 2.297 . S
O448 C435 1.236 . S
N449 Mn433 2.282 . S
N449 C450 1.328 . S
N449 C454 1.318 1_565 S
C450 N449 1.328 . S
C450 C451 1.457 . S
C450 H455 0.929 . S
C451 C450 1.457 . S
C451 C452 1.291 1_565 S
C451 H464 0.931 . S
C452 C451 1.291 1_545 S
C452 C453 1.373 . S
C452 H465 0.929 . S
C453 C452 1.373 . S
C453 C454 1.396 . S
C453 C460 1.403 . S
C454 C444 1.476 . S
C454 N449 1.318 1_545 S
C454 C453 1.396 . S
H455 C450 0.929 . S
O456 Mn432 2.385 . S
O456 C434 1.234 . S
O457 Mn432 2.209 . S
O457 Mn433 2.215 . S
O457 C434 1.283 . S
O458 Mn432 2.094 . S
O458 C436 1.240 . S
O459 Mn433 2.117 . S
O459 C436 1.264 . S
C460 C453 1.403 . S
C460 C461 1.399 . S
C460 H466 0.929 . S
C461 C441 1.449 . S
C461 C460 1.399 . S
C461 H467 0.930 . S
H462 C442 0.931 . S
H463 C443 0.930 . S
H464 C451 0.931 . S
H465 C452 0.929 . S
H466 C460 0.929 . S
H467 C461 0.930 . S
Mn468 O473 2.095 . S
Mn468 O483 2.162 . S
Mn468 O484 2.297 . S
Mn468 O492 2.385 . S
Mn468 O493 2.209 . S
Mn468 O494 2.094 . S
Mn469 O474 2.121 . S
Mn469 N476 2.257 1_545 S
Mn469 N485 2.282 . S
Mn469 O493 2.215 . S
Mn469 O495 2.117 . S
C470 O492 1.234 . S
C470 O493 1.283 . S
C471 O483 1.281 . S
C471 O484 1.236 . S
C472 O494 1.240 . S
C472 O495 1.264 . S
O473 Mn468 2.095 . S
O473 C482 1.250 . S
O474 Mn469 2.121 . S
O474 C482 1.258 . S
C475 N476 1.326 . S
C475 C479 1.460 . S
C475 H481 0.929 . S
N476 Mn469 2.257 1_565 S
N476 C475 1.326 . S
N476 C480 1.362 . S
C477 C478 1.258 . S
C477 C480 1.431 . S
C477 C497 1.449 . S
C478 C477 1.258 . S
C478 C479 1.477 . S
C478 H498 0.931 . S
C479 C475 1.460 . S
C479 C478 1.477 . S
C479 H499 0.930 . S
C480 N476 1.362 . S
C480 C477 1.431 . S
C480 C490 1.476 . S
H481 C475 0.929 . S
C482 O473 1.250 . S
C482 O474 1.258 . S
O483 Mn468 2.162 . S
O483 C471 1.281 . S
O484 Mn468 2.297 . S
O484 C471 1.236 . S
N485 Mn469 2.282 . S
N485 C486 1.328 . S
N485 C490 1.318 1_545 S
C486 N485 1.328 . S
C486 C487 1.457 . S
C486 H491 0.929 . S
C487 C486 1.457 . S
C487 C488 1.291 1_545 S
C487 H500 0.931 . S
C488 C487 1.291 1_565 S
C488 C489 1.373 . S
C488 H501 0.929 . S
C489 C488 1.373 . S
C489 C490 1.396 . S
C489 C496 1.403 . S
C490 C480 1.476 . S
C490 N485 1.318 1_565 S
C490 C489 1.396 . S
H491 C486 0.929 . S
O492 Mn468 2.385 . S
O492 C470 1.234 . S
O493 Mn468 2.209 . S
O493 Mn469 2.215 . S
O493 C470 1.283 . S
O494 Mn468 2.094 . S
O494 C472 1.240 . S
O495 Mn469 2.117 . S
O495 C472 1.264 . S
C496 C489 1.403 . S
C496 C497 1.399 . S
C496 H502 0.929 . S
C497 C477 1.449 . S
C497 C496 1.399 . S
C497 H503 0.930 . S
H498 C478 0.931 . S
H499 C479 0.930 . S
H500 C487 0.931 . S
H501 C488 0.929 . S
H502 C496 0.929 . S
H503 C497 0.930 . S
Mn504 O509 2.095 . S
Mn504 O519 2.162 . S
Mn504 O520 2.297 . S
Mn504 O528 2.385 . S
Mn504 O529 2.209 . S
Mn504 O530 2.094 . S
Mn505 O510 2.121 . S
Mn505 N512 2.257 . S
Mn505 N521 2.282 . S
Mn505 O529 2.215 . S
Mn505 O531 2.117 . S
C506 O528 1.234 . S
C506 O529 1.283 . S
C507 O519 1.281 . S
C507 O520 1.236 . S
C508 O530 1.240 . S
C508 O531 1.264 . S
O509 Mn504 2.095 . S
O509 C518 1.250 . S
O510 Mn505 2.121 . S
O510 C518 1.258 . S
C511 N512 1.326 . S
C511 C515 1.460 . S
C511 H517 0.929 . S
N512 Mn505 2.257 . S
N512 C511 1.326 . S
N512 C516 1.362 . S
C513 C514 1.258 . S
C513 C516 1.431 . S
C513 C533 1.449 . S
C514 C513 1.258 . S
C514 C515 1.477 . S
C514 H534 0.931 . S
C515 C511 1.460 . S
C515 C514 1.477 . S
C515 H535 0.930 . S
C516 N512 1.362 . S
C516 C513 1.431 . S
C516 C526 1.476 . S
H517 C511 0.929 . S
C518 O509 1.250 . S
C518 O510 1.258 . S
O519 Mn504 2.162 . S
O519 C507 1.281 . S
O520 Mn504 2.297 . S
O520 C507 1.236 . S
N521 Mn505 2.282 . S
N521 C522 1.328 . S
N521 C526 1.318 . S
C522 N521 1.328 . S
C522 C523 1.457 . S
C522 H527 0.929 . S
C523 C522 1.457 . S
C523 C524 1.291 . S
C523 H536 0.931 . S
C524 C523 1.291 . S
C524 C525 1.373 . S
C524 H537 0.929 . S
C525 C524 1.373 . S
C525 C526 1.396 . S
C525 C532 1.403 . S
C526 C516 1.476 . S
C526 N521 1.318 . S
C526 C525 1.396 . S
H527 C522 0.929 . S
O528 Mn504 2.385 . S
O528 C506 1.234 . S
O529 Mn504 2.209 . S
O529 Mn505 2.215 . S
O529 C506 1.283 . S
O530 Mn504 2.094 . S
O530 C508 1.240 . S
O531 Mn505 2.117 . S
O531 C508 1.264 . S
C532 C525 1.403 . S
C532 C533 1.399 . S
C532 H538 0.929 . S
C533 C513 1.449 . S
C533 C532 1.399 . S
C533 H539 0.930 . S
H534 C514 0.931 . S
H535 C515 0.930 . S
H536 C523 0.931 . S
H537 C524 0.929 . S
H538 C532 0.929 . S
H539 C533 0.930 . S
Mn540 O545 2.095 . S
Mn540 O555 2.162 . S
Mn540 O556 2.297 . S
Mn540 O564 2.385 . S
Mn540 O565 2.209 . S
Mn540 O566 2.094 . S
Mn541 O546 2.121 . S
Mn541 N548 2.257 . S
Mn541 N557 2.282 . S
Mn541 O565 2.215 . S
Mn541 O567 2.117 . S
C542 O564 1.234 . S
C542 O565 1.283 . S
C543 O555 1.281 . S
C543 O556 1.236 . S
C544 O566 1.240 . S
C544 O567 1.264 . S
O545 Mn540 2.095 . S
O545 C554 1.250 . S
O546 Mn541 2.121 . S
O546 C554 1.258 . S
C547 N548 1.326 . S
C547 C551 1.460 . S
C547 H553 0.929 . S
N548 Mn541 2.257 . S
N548 C547 1.326 . S
N548 C552 1.362 . S
C549 C550 1.258 . S
C549 C552 1.431 . S
C549 C569 1.449 . S
C550 C549 1.258 . S
C550 C551 1.477 . S
C550 H570 0.931 . S
C551 C547 1.460 . S
C551 C550 1.477 . S
C551 H571 0.930 . S
C552 N548 1.362 . S
C552 C549 1.431 . S
C552 C562 1.476 . S
H553 C547 0.929 . S
C554 O545 1.250 . S
C554 O546 1.258 . S
O555 Mn540 2.162 . S
O555 C543 1.281 . S
O556 Mn540 2.297 . S
O556 C543 1.236 . S
N557 Mn541 2.282 . S
N557 C558 1.328 . S
N557 C562 1.318 . S
C558 N557 1.328 . S
C558 C559 1.457 . S
C558 H563 0.929 . S
C559 C558 1.457 . S
C559 C560 1.291 . S
C559 H572 0.931 . S
C560 C559 1.291 . S
C560 C561 1.373 . S
C560 H573 0.929 . S
C561 C560 1.373 . S
C561 C562 1.396 . S
C561 C568 1.403 . S
C562 C552 1.476 . S
C562 N557 1.318 . S
C562 C561 1.396 . S
H563 C558 0.929 . S
O564 Mn540 2.385 . S
O564 C542 1.234 . S
O565 Mn540 2.209 . S
O565 Mn541 2.215 . S
O565 C542 1.283 . S
O566 Mn540 2.094 . S
O566 C544 1.240 . S
O567 Mn541 2.117 . S
O567 C544 1.264 . S
C568 C561 1.403 . S
C568 C569 1.399 . S
C568 H574 0.929 . S
C569 C549 1.449 . S
C569 C568 1.399 . S
C569 H575 0.930 . S
H570 C550 0.931 . S
H571 C551 0.930 . S
H572 C559 0.931 . S
H573 C560 0.929 . S
H574 C568 0.929 . S
H575 C569 0.930 . S
Mn576 O581 2.095 . S
Mn576 O591 2.162 . S
Mn576 O592 2.297 . S
Mn576 O600 2.385 . S
Mn576 O601 2.209 . S
Mn576 O602 2.094 . S
Mn577 O582 2.121 . S
Mn577 N584 2.257 1_556 S
Mn577 N593 2.282 . S
Mn577 O601 2.215 . S
Mn577 O603 2.117 . S
C578 O600 1.234 . S
C578 O601 1.283 . S
C579 O591 1.281 . S
C579 O592 1.236 . S
C580 O602 1.240 . S
C580 O603 1.264 . S
O581 Mn576 2.095 . S
O581 C590 1.250 . S
O582 Mn577 2.121 . S
O582 C590 1.258 . S
C583 N584 1.326 . S
C583 C587 1.460 . S
C583 H589 0.929 . S
N584 Mn577 2.257 1_554 S
N584 C583 1.326 . S
N584 C588 1.362 . S
C585 C586 1.258 . S
C585 C588 1.431 . S
C585 C605 1.449 . S
C586 C585 1.258 . S
C586 C587 1.477 . S
C586 H606 0.931 . S
C587 C583 1.460 . S
C587 C586 1.477 . S
C587 H607 0.930 . S
C588 N584 1.362 . S
C588 C585 1.431 . S
C588 C598 1.476 . S
H589 C583 0.929 . S
C590 O581 1.250 . S
C590 O582 1.258 . S
O591 Mn576 2.162 . S
O591 C579 1.281 . S
O592 Mn576 2.297 . S
O592 C579 1.236 . S
N593 Mn577 2.282 . S
N593 C594 1.328 . S
N593 C598 1.318 1_556 S
C594 N593 1.328 . S
C594 C595 1.457 . S
C594 H599 0.929 . S
C595 C594 1.457 . S
C595 C596 1.291 1_556 S
C595 H608 0.931 . S
C596 C595 1.291 1_554 S
C596 C597 1.373 . S
C596 H609 0.929 . S
C597 C596 1.373 . S
C597 C598 1.396 . S
C597 C604 1.403 . S
C598 C588 1.476 . S
C598 N593 1.318 1_554 S
C598 C597 1.396 . S
H599 C594 0.929 . S
O600 Mn576 2.385 . S
O600 C578 1.234 . S
O601 Mn576 2.209 . S
O601 Mn577 2.215 . S
O601 C578 1.283 . S
O602 Mn576 2.094 . S
O602 C580 1.240 . S
O603 Mn577 2.117 . S
O603 C580 1.264 . S
C604 C597 1.403 . S
C604 C605 1.399 . S
C604 H610 0.929 . S
C605 C585 1.449 . S
C605 C604 1.399 . S
C605 H611 0.930 . S
H606 C586 0.931 . S
H607 C587 0.930 . S
H608 C595 0.931 . S
H609 C596 0.929 . S
H610 C604 0.929 . S
H611 C605 0.930 . S
Mn612 O617 2.095 . S
Mn612 O627 2.162 . S
Mn612 O628 2.297 . S
Mn612 O636 2.385 . S
Mn612 O637 2.209 . S
Mn612 O638 2.094 . S
Mn613 O618 2.121 . S
Mn613 N620 2.257 . S
Mn613 N629 2.282 . S
Mn613 O637 2.215 . S
Mn613 O639 2.117 . S
C614 O636 1.234 . S
C614 O637 1.283 . S
C615 O627 1.281 . S
C615 O628 1.236 . S
C616 O638 1.240 . S
C616 O639 1.264 . S
O617 Mn612 2.095 . S
O617 C626 1.250 . S
O618 Mn613 2.121 . S
O618 C626 1.258 . S
C619 N620 1.326 . S
C619 C623 1.460 . S
C619 H625 0.929 . S
N620 Mn613 2.257 . S
N620 C619 1.326 . S
N620 C624 1.362 . S
C621 C622 1.258 . S
C621 C624 1.431 . S
C621 C641 1.449 . S
C622 C621 1.258 . S
C622 C623 1.477 . S
C622 H642 0.931 . S
C623 C619 1.460 . S
C623 C622 1.477 . S
C623 H643 0.930 . S
C624 N620 1.362 . S
C624 C621 1.431 . S
C624 C634 1.476 . S
H625 C619 0.929 . S
C626 O617 1.250 . S
C626 O618 1.258 . S
O627 Mn612 2.162 . S
O627 C615 1.281 . S
O628 Mn612 2.297 . S
O628 C615 1.236 . S
N629 Mn613 2.282 . S
N629 C630 1.328 . S
N629 C634 1.318 . S
C630 N629 1.328 . S
C630 C631 1.457 . S
C630 H635 0.929 . S
C631 C630 1.457 . S
C631 C632 1.291 . S
C631 H644 0.931 . S
C632 C631 1.291 . S
C632 C633 1.373 . S
C632 H645 0.929 . S
C633 C632 1.373 . S
C633 C634 1.396 . S
C633 C640 1.403 . S
C634 C624 1.476 . S
C634 N629 1.318 . S
C634 C633 1.396 . S
H635 C630 0.929 . S
O636 Mn612 2.385 . S
O636 C614 1.234 . S
O637 Mn612 2.209 . S
O637 Mn613 2.215 . S
O637 C614 1.283 . S
O638 Mn612 2.094 . S
O638 C616 1.240 . S
O639 Mn613 2.117 . S
O639 C616 1.264 . S
C640 C633 1.403 . S
C640 C641 1.399 . S
C640 H646 0.929 . S
C641 C621 1.449 . S
C641 C640 1.399 . S
C641 H647 0.930 . S
H642 C622 0.931 . S
H643 C623 0.930 . S
H644 C631 0.931 . S
H645 C632 0.929 . S
H646 C640 0.929 . S
H647 C641 0.930 . S
Mn648 O653 2.095 . S
Mn648 O663 2.162 . S
Mn648 O664 2.297 . S
Mn648 O672 2.385 . S
Mn648 O673 2.209 . S
Mn648 O674 2.094 . S
Mn649 O654 2.121 . S
Mn649 N656 2.257 1_554 S
Mn649 N665 2.282 . S
Mn649 O673 2.215 . S
Mn649 O675 2.117 . S
C650 O672 1.234 . S
C650 O673 1.283 . S
C651 O663 1.281 . S
C651 O664 1.236 . S
C652 O674 1.240 . S
C652 O675 1.264 . S
O653 Mn648 2.095 . S
O653 C662 1.250 . S
O654 Mn649 2.121 . S
O654 C662 1.258 . S
C655 N656 1.326 . S
C655 C659 1.460 . S
C655 H661 0.929 . S
N656 Mn649 2.257 1_556 S
N656 C655 1.326 . S
N656 C660 1.362 . S
C657 C658 1.258 . S
C657 C660 1.431 . S
C657 C677 1.449 . S
C658 C657 1.258 . S
C658 C659 1.477 . S
C658 H678 0.931 . S
C659 C655 1.460 . S
C659 C658 1.477 . S
C659 H679 0.930 . S
C660 N656 1.362 . S
C660 C657 1.431 . S
C660 C670 1.476 . S
H661 C655 0.929 . S
C662 O653 1.250 . S
C662 O654 1.258 . S
O663 Mn648 2.162 . S
O663 C651 1.281 . S
O664 Mn648 2.297 . S
O664 C651 1.236 . S
N665 Mn649 2.282 . S
N665 C666 1.328 . S
N665 C670 1.318 1_554 S
C666 N665 1.328 . S
C666 C667 1.457 . S
C666 H671 0.929 . S
C667 C666 1.457 . S
C667 C668 1.291 1_554 S
C667 H680 0.931 . S
C668 C667 1.291 1_556 S
C668 C669 1.373 . S
C668 H681 0.929 . S
C669 C668 1.373 . S
C669 C670 1.396 . S
C669 C676 1.403 . S
C670 C660 1.476 . S
C670 N665 1.318 1_556 S
C670 C669 1.396 . S
H671 C666 0.929 . S
O672 Mn648 2.385 . S
O672 C650 1.234 . S
O673 Mn648 2.209 . S
O673 Mn649 2.215 . S
O673 C650 1.283 . S
O674 Mn648 2.094 . S
O674 C652 1.240 . S
O675 Mn649 2.117 . S
O675 C652 1.264 . S
C676 C669 1.403 . S
C676 C677 1.399 . S
C676 H682 0.929 . S
C677 C657 1.449 . S
C677 C676 1.399 . S
C677 H683 0.930 . S
H678 C658 0.931 . S
H679 C659 0.930 . S
H680 C667 0.931 . S
H681 C668 0.929 . S
H682 C676 0.929 . S
H683 C677 0.930 . S
Mn684 O689 2.095 . S
Mn684 O699 2.162 . S
Mn684 O700 2.297 . S
Mn684 O708 2.385 . S
Mn684 O709 2.209 . S
Mn684 O710 2.094 . S
Mn685 O690 2.121 . S
Mn685 N692 2.257 . S
Mn685 N701 2.282 . S
Mn685 O709 2.215 . S
Mn685 O711 2.117 . S
C686 O708 1.234 . S
C686 O709 1.283 . S
C687 O699 1.281 . S
C687 O700 1.236 . S
C688 O710 1.240 . S
C688 O711 1.264 . S
O689 Mn684 2.095 . S
O689 C698 1.250 . S
O690 Mn685 2.121 . S
O690 C698 1.258 . S
C691 N692 1.326 . S
C691 C695 1.460 . S
C691 H697 0.929 . S
N692 Mn685 2.257 . S
N692 C691 1.326 . S
N692 C696 1.362 . S
C693 C694 1.258 . S
C693 C696 1.431 . S
C693 C713 1.449 . S
C694 C693 1.258 . S
C694 C695 1.477 . S
C694 H714 0.931 . S
C695 C691 1.460 . S
C695 C694 1.477 . S
C695 H715 0.930 . S
C696 N692 1.362 . S
C696 C693 1.431 . S
C696 C706 1.476 . S
H697 C691 0.929 . S
C698 O689 1.250 . S
C698 O690 1.258 . S
O699 Mn684 2.162 . S
O699 C687 1.281 . S
O700 Mn684 2.297 . S
O700 C687 1.236 . S
N701 Mn685 2.282 . S
N701 C702 1.328 . S
N701 C706 1.318 . S
C702 N701 1.328 . S
C702 C703 1.457 . S
C702 H707 0.929 . S
C703 C702 1.457 . S
C703 C704 1.291 . S
C703 H716 0.931 . S
C704 C703 1.291 . S
C704 C705 1.373 . S
C704 H717 0.929 . S
C705 C704 1.373 . S
C705 C706 1.396 . S
C705 C712 1.403 . S
C706 C696 1.476 . S
C706 N701 1.318 . S
C706 C705 1.396 . S
H707 C702 0.929 . S
O708 Mn684 2.385 . S
O708 C686 1.234 . S
O709 Mn684 2.209 . S
O709 Mn685 2.215 . S
O709 C686 1.283 . S
O710 Mn684 2.094 . S
O710 C688 1.240 . S
O711 Mn685 2.117 . S
O711 C688 1.264 . S
C712 C705 1.403 . S
C712 C713 1.399 . S
C712 H718 0.929 . S
C713 C693 1.449 . S
C713 C712 1.399 . S
C713 H719 0.930 . S
H714 C694 0.931 . S
H715 C695 0.930 . S
H716 C703 0.931 . S
H717 C704 0.929 . S
H718 C712 0.929 . S
H719 C713 0.930 . S
Mn720 O725 2.095 . S
Mn720 O735 2.162 . S
Mn720 O736 2.297 . S
Mn720 O744 2.385 . S
Mn720 O745 2.209 . S
Mn720 O746 2.094 . S
Mn721 O726 2.121 . S
Mn721 N728 2.257 1_655 S
Mn721 N737 2.282 . S
Mn721 O745 2.215 . S
Mn721 O747 2.117 . S
C722 O744 1.234 . S
C722 O745 1.283 . S
C723 O735 1.281 . S
C723 O736 1.236 . S
C724 O746 1.240 . S
C724 O747 1.264 . S
O725 Mn720 2.095 . S
O725 C734 1.250 . S
O726 Mn721 2.121 . S
O726 C734 1.258 . S
C727 N728 1.326 . S
C727 C731 1.460 . S
C727 H733 0.929 . S
N728 Mn721 2.257 1_455 S
N728 C727 1.326 . S
N728 C732 1.362 . S
C729 C730 1.258 . S
C729 C732 1.431 . S
C729 C749 1.449 . S
C730 C729 1.258 . S
C730 C731 1.477 . S
C730 H750 0.931 . S
C731 C727 1.460 . S
C731 C730 1.477 . S
C731 H751 0.930 . S
C732 N728 1.362 . S
C732 C729 1.431 . S
C732 C742 1.476 . S
H733 C727 0.929 . S
C734 O725 1.250 . S
C734 O726 1.258 . S
O735 Mn720 2.162 . S
O735 C723 1.281 . S
O736 Mn720 2.297 . S
O736 C723 1.236 . S
N737 Mn721 2.282 . S
N737 C738 1.328 . S
N737 C742 1.318 1_655 S
C738 N737 1.328 . S
C738 C739 1.457 . S
C738 H743 0.929 . S
C739 C738 1.457 . S
C739 C740 1.291 1_655 S
C739 H752 0.931 . S
C740 C739 1.291 1_455 S
C740 C741 1.373 . S
C740 H753 0.929 . S
C741 C740 1.373 . S
C741 C742 1.396 . S
C741 C748 1.403 . S
C742 C732 1.476 . S
C742 N737 1.318 1_455 S
C742 C741 1.396 . S
H743 C738 0.929 . S
O744 Mn720 2.385 . S
O744 C722 1.234 . S
O745 Mn720 2.209 . S
O745 Mn721 2.215 . S
O745 C722 1.283 . S
O746 Mn720 2.094 . S
O746 C724 1.240 . S
O747 Mn721 2.117 . S
O747 C724 1.264 . S
C748 C741 1.403 . S
C748 C749 1.399 . S
C748 H754 0.929 . S
C749 C729 1.449 . S
C749 C748 1.399 . S
C749 H755 0.930 . S
H750 C730 0.931 . S
H751 C731 0.930 . S
H752 C739 0.931 . S
H753 C740 0.929 . S
H754 C748 0.929 . S
H755 C749 0.930 . S
Mn756 O761 2.095 . S
Mn756 O771 2.162 . S
Mn756 O772 2.297 . S
Mn756 O780 2.385 . S
Mn756 O781 2.209 . S
Mn756 O782 2.094 . S
Mn757 O762 2.121 . S
Mn757 N764 2.257 . S
Mn757 N773 2.282 . S
Mn757 O781 2.215 . S
Mn757 O783 2.117 . S
C758 O780 1.234 . S
C758 O781 1.283 . S
C759 O771 1.281 . S
C759 O772 1.236 . S
C760 O782 1.240 . S
C760 O783 1.264 . S
O761 Mn756 2.095 . S
O761 C770 1.250 . S
O762 Mn757 2.121 . S
O762 C770 1.258 . S
C763 N764 1.326 . S
C763 C767 1.460 . S
C763 H769 0.929 . S
N764 Mn757 2.257 . S
N764 C763 1.326 . S
N764 C768 1.362 . S
C765 C766 1.258 . S
C765 C768 1.431 . S
C765 C785 1.449 . S
C766 C765 1.258 . S
C766 C767 1.477 . S
C766 H786 0.931 . S
C767 C763 1.460 . S
C767 C766 1.477 . S
C767 H787 0.930 . S
C768 N764 1.362 . S
C768 C765 1.431 . S
C768 C778 1.476 . S
H769 C763 0.929 . S
C770 O761 1.250 . S
C770 O762 1.258 . S
O771 Mn756 2.162 . S
O771 C759 1.281 . S
O772 Mn756 2.297 . S
O772 C759 1.236 . S
N773 Mn757 2.282 . S
N773 C774 1.328 . S
N773 C778 1.318 . S
C774 N773 1.328 . S
C774 C775 1.457 . S
C774 H779 0.929 . S
C775 C774 1.457 . S
C775 C776 1.291 . S
C775 H788 0.931 . S
C776 C775 1.291 . S
C776 C777 1.373 . S
C776 H789 0.929 . S
C777 C776 1.373 . S
C777 C778 1.396 . S
C777 C784 1.403 . S
C778 C768 1.476 . S
C778 N773 1.318 . S
C778 C777 1.396 . S
H779 C774 0.929 . S
O780 Mn756 2.385 . S
O780 C758 1.234 . S
O781 Mn756 2.209 . S
O781 Mn757 2.215 . S
O781 C758 1.283 . S
O782 Mn756 2.094 . S
O782 C760 1.240 . S
O783 Mn757 2.117 . S
O783 C760 1.264 . S
C784 C777 1.403 . S
C784 C785 1.399 . S
C784 H790 0.929 . S
C785 C765 1.449 . S
C785 C784 1.399 . S
C785 H791 0.930 . S
H786 C766 0.931 . S
H787 C767 0.930 . S
H788 C775 0.931 . S
H789 C776 0.929 . S
H790 C784 0.929 . S
H791 C785 0.930 . S
Mn792 O797 2.095 . S
Mn792 O807 2.162 . S
Mn792 O808 2.297 . S
Mn792 O816 2.385 . S
Mn792 O817 2.209 . S
Mn792 O818 2.094 . S
Mn793 O798 2.121 . S
Mn793 N800 2.257 1_455 S
Mn793 N809 2.282 . S
Mn793 O817 2.215 . S
Mn793 O819 2.117 . S
C794 O816 1.234 . S
C794 O817 1.283 . S
C795 O807 1.281 . S
C795 O808 1.236 . S
C796 O818 1.240 . S
C796 O819 1.264 . S
O797 Mn792 2.095 . S
O797 C806 1.250 . S
O798 Mn793 2.121 . S
O798 C806 1.258 . S
C799 N800 1.326 . S
C799 C803 1.460 . S
C799 H805 0.929 . S
N800 Mn793 2.257 1_655 S
N800 C799 1.326 . S
N800 C804 1.362 . S
C801 C802 1.258 . S
C801 C804 1.431 . S
C801 C821 1.449 . S
C802 C801 1.258 . S
C802 C803 1.477 . S
C802 H822 0.931 . S
C803 C799 1.460 . S
C803 C802 1.477 . S
C803 H823 0.930 . S
C804 N800 1.362 . S
C804 C801 1.431 . S
C804 C814 1.476 . S
H805 C799 0.929 . S
C806 O797 1.250 . S
C806 O798 1.258 . S
O807 Mn792 2.162 . S
O807 C795 1.281 . S
O808 Mn792 2.297 . S
O808 C795 1.236 . S
N809 Mn793 2.282 . S
N809 C810 1.328 . S
N809 C814 1.318 1_455 S
C810 N809 1.328 . S
C810 C811 1.457 . S
C810 H815 0.929 . S
C811 C810 1.457 . S
C811 C812 1.291 1_455 S
C811 H824 0.931 . S
C812 C811 1.291 1_655 S
C812 C813 1.373 . S
C812 H825 0.929 . S
C813 C812 1.373 . S
C813 C814 1.396 . S
C813 C820 1.403 . S
C814 C804 1.476 . S
C814 N809 1.318 1_655 S
C814 C813 1.396 . S
H815 C810 0.929 . S
O816 Mn792 2.385 . S
O816 C794 1.234 . S
O817 Mn792 2.209 . S
O817 Mn793 2.215 . S
O817 C794 1.283 . S
O818 Mn792 2.094 . S
O818 C796 1.240 . S
O819 Mn793 2.117 . S
O819 C796 1.264 . S
C820 C813 1.403 . S
C820 C821 1.399 . S
C820 H826 0.929 . S
C821 C801 1.449 . S
C821 C820 1.399 . S
C821 H827 0.930 . S
H822 C802 0.931 . S
H823 C803 0.930 . S
H824 C811 0.931 . S
H825 C812 0.929 . S
H826 C820 0.929 . S
H827 C821 0.930 . S
Mn828 O833 2.095 . S
Mn828 O843 2.162 . S
Mn828 O844 2.297 . S
Mn828 O852 2.385 . S
Mn828 O853 2.209 . S
Mn828 O854 2.094 . S
Mn829 O834 2.121 . S
Mn829 N836 2.257 . S
Mn829 N845 2.282 . S
Mn829 O853 2.215 . S
Mn829 O855 2.117 . S
C830 O852 1.234 . S
C830 O853 1.283 . S
C831 O843 1.281 . S
C831 O844 1.236 . S
C832 O854 1.240 . S
C832 O855 1.264 . S
O833 Mn828 2.095 . S
O833 C842 1.250 . S
O834 Mn829 2.121 . S
O834 C842 1.258 . S
C835 N836 1.326 . S
C835 C839 1.460 . S
C835 H841 0.929 . S
N836 Mn829 2.257 . S
N836 C835 1.326 . S
N836 C840 1.362 . S
C837 C838 1.258 . S
C837 C840 1.431 . S
C837 C857 1.449 . S
C838 C837 1.258 . S
C838 C839 1.477 . S
C838 H858 0.931 . S
C839 C835 1.460 . S
C839 C838 1.477 . S
C839 H859 0.930 . S
C840 N836 1.362 . S
C840 C837 1.431 . S
C840 C850 1.476 . S
H841 C835 0.929 . S
C842 O833 1.250 . S
C842 O834 1.258 . S
O843 Mn828 2.162 . S
O843 C831 1.281 . S
O844 Mn828 2.297 . S
O844 C831 1.236 . S
N845 Mn829 2.282 . S
N845 C846 1.328 . S
N845 C850 1.318 . S
C846 N845 1.328 . S
C846 C847 1.457 . S
C846 H851 0.929 . S
C847 C846 1.457 . S
C847 C848 1.291 . S
C847 H860 0.931 . S
C848 C847 1.291 . S
C848 C849 1.373 . S
C848 H861 0.929 . S
C849 C848 1.373 . S
C849 C850 1.396 . S
C849 C856 1.403 . S
C850 C840 1.476 . S
C850 N845 1.318 . S
C850 C849 1.396 . S
H851 C846 0.929 . S
O852 Mn828 2.385 . S
O852 C830 1.234 . S
O853 Mn828 2.209 . S
O853 Mn829 2.215 . S
O853 C830 1.283 . S
O854 Mn828 2.094 . S
O854 C832 1.240 . S
O855 Mn829 2.117 . S
O855 C832 1.264 . S
C856 C849 1.403 . S
C856 C857 1.399 . S
C856 H862 0.929 . S
C857 C837 1.449 . S
C857 C856 1.399 . S
C857 H863 0.930 . S
H858 C838 0.931 . S
H859 C839 0.930 . S
H860 C847 0.931 . S
H861 C848 0.929 . S
H862 C856 0.929 . S
H863 C857 0.930 . S
C291 C3 1.282 . S
C39 C399 1.282 . S
C75 C327 1.282 . S
C111 C363 1.282 . S
C147 C2 1.199 . S
C38 C183 1.199 . S
C219 C74 1.199 . S
C110 C255 1.199 . S
C146 C290 1.279 . S
C218 C326 1.279 . S
C362 C254 1.279 . S
C182 C398 1.279 . S
C722 C435 1.262 . S
C471 C830 1.262 . S
C507 C758 1.262 . S
C794 C543 1.262 . S
C579 C434 1.280 . S
C470 C615 1.280 . S
C506 C651 1.280 . S
C687 C542 1.280 . S
C723 C578 1.288 . S
C650 C759 1.288 . S
C686 C795 1.288 . S
C831 C614 1.288 . S
C806 C4 1.358 . S
C770 C40 1.358 1_554 S
C842 C76 1.358 . S
C112 C734 1.358 1_554 S
C148 C482 1.389 . S
C446 C184 1.389 1_655 S
C554 C220 1.389 1_455 S
C518 C256 1.389 . S
C302 C662 1.536 . S
C590 C338 1.536 1_565 S
C626 C374 1.536 1_545 S
C698 C410 1.536 . S
C364 C436 1.456 . S
C328 C472 1.456 . S
C508 C400 1.456 . S
C292 C544 1.456 . S
C580 C50 1.421 . S
C616 C14 1.421 1_655 S
C652 C122 1.421 1_455 S
C688 C86 1.421 . S
C724 C230 1.391 . S
C760 C158 1.391 1_565 S
C194 C796 1.391 1_565 S
C832 C266 1.391 . S
