# Generated by pormake.
# Topology mok, (4)-cn, num edge types: 1
# Building blocks:
#     Node 0, Type 0, BuildingBlock: UXUYUI_clean_sbu_0, # of connection points: 4
#     Node 1, Type 0, BuildingBlock: UXUYUI_clean_sbu_0, # of connection points: 4
#     Node 2, Type 0, BuildingBlock: UXUYUI_clean_sbu_0, # of connection points: 4
#     Node 3, Type 0, BuildingBlock: UXUYUI_clean_sbu_0, # of connection points: 4
#     Node 4, Type 0, BuildingBlock: UXUYUI_clean_sbu_0, # of connection points: 4
#     Node 5, Type 0, BuildingBlock: UXUYUI_clean_sbu_0, # of connection points: 4
#     Node 6, Type 0, BuildingBlock: UXUYUI_clean_sbu_0, # of connection points: 4
#     Node 7, Type 0, BuildingBlock: UXUYUI_clean_sbu_0, # of connection points: 4
#     Edge 8, Type (0, 0), BuildingBlock: ZUJKAS_clean_linker_0, # of connection points: 2
#     Edge 9, Type (0, 0), BuildingBlock: ZUJKAS_clean_linker_0, # of connection points: 2
#     Edge 10, Type (0, 0), BuildingBlock: ZUJKAS_clean_linker_0, # of connection points: 2
#     Edge 11, Type (0, 0), BuildingBlock: ZUJKAS_clean_linker_0, # of connection points: 2
#     Edge 12, Type (0, 0), BuildingBlock: ZUJKAS_clean_linker_0, # of connection points: 2
#     Edge 13, Type (0, 0), BuildingBlock: ZUJKAS_clean_linker_0, # of connection points: 2
#     Edge 14, Type (0, 0), BuildingBlock: ZUJKAS_clean_linker_0, # of connection points: 2
#     Edge 15, Type (0, 0), BuildingBlock: ZUJKAS_clean_linker_0, # of connection points: 2
#     Edge 16, Type (0, 0), BuildingBlock: ZUJKAS_clean_linker_0, # of connection points: 2
#     Edge 17, Type (0, 0), BuildingBlock: ZUJKAS_clean_linker_0, # of connection points: 2
#     Edge 18, Type (0, 0), BuildingBlock: ZUJKAS_clean_linker_0, # of connection points: 2
#     Edge 19, Type (0, 0), BuildingBlock: ZUJKAS_clean_linker_0, # of connection points: 2
#     Edge 20, Type (0, 0), BuildingBlock: ZUJKAS_clean_linker_0, # of connection points: 2
#     Edge 21, Type (0, 0), BuildingBlock: ZUJKAS_clean_linker_0, # of connection points: 2
#     Edge 22, Type (0, 0), BuildingBlock: ZUJKAS_clean_linker_0, # of connection points: 2
#     Edge 23, Type (0, 0), BuildingBlock: ZUJKAS_clean_linker_0, # of connection points: 2
# Relax obj value: 0.076
# Max RMSD: 0.067
# Mean RMSD: 0.067
data_MOF--net-mok--node1-UXUYUI_clean_sbu_0--edge1-ZUJKAS_clean_linker_0
_symmetry_space_group_name_H-M    P1
_symmetry_Int_Tables_number       1
_symmetry_cell_setting            triclinic
loop_
_symmetry_equiv_pos_as_xyz
'x, y, z'
_cell_length_a     80.726089
_cell_length_b     37.043354
_cell_length_c     45.202351
_cell_angle_alpha  89.99461
_cell_angle_beta   89.991632
_cell_angle_gamma 90.002606
loop_
_atom_site_label
_atom_site_type_symbol
_atom_site_fract_x
_atom_site_fract_y
_atom_site_fract_z
_atom_type_partial_charge
Li0 Li 0.58407 0.3356 0.03177 0.0
Li1 Li 0.60593 0.30189 0.00603 0.0
Li2 Li 0.58366 0.33422 0.97706 0.0
Li3 Li 0.57782 0.27769 0.00378 0.0
C4 C 0.60478 0.38942 0.00974 0.0
N5 N 0.61241 0.46062 0.02191 0.0
C6 C 0.61998 0.39829 0.02263 0.0
C7 C 0.59359 0.41683 1.00258 0.0
C8 C 0.62357 0.43441 0.02876 0.0
C9 C 0.59764 0.45264 0.00902 0.0
C10 C 0.60213 0.26507 0.05688 0.0
C11 C 0.61803 0.21084 0.06501 0.0
N12 N 0.62343 0.22442 0.09125 0.0
C13 C 0.60767 0.2783 0.08409 0.0
C14 C 0.6072 0.23091 0.0474 0.0
C15 C 0.61849 0.25741 0.10109 0.0
C16 C 0.56433 0.37043 0.07612 0.0
N17 N 0.57997 0.36378 0.06638 0.0
C18 C 0.59143 0.39625 0.10724 0.0
C19 C 0.5934 0.37608 0.08144 0.0
C20 C 0.57544 0.40368 0.11792 0.0
C21 C 0.56176 0.3906 0.10191 0.0
H22 H 0.55385 0.35973 0.06409 0.0
H23 H 0.60571 0.36974 0.07362 0.0
C24 C 0.63645 0.27486 0.98398 0.0
N25 N 0.62899 0.2911 0.00742 0.0
C26 C 0.65349 0.26824 0.98437 0.0
C27 C 0.65483 0.29512 0.03302 0.0
C28 C 0.6378 0.30135 0.03162 0.0
C29 C 0.66295 0.27857 0.00909 0.0
H30 H 0.62922 0.26763 0.96475 0.0
H31 H 0.63161 0.31479 0.04974 0.0
C32 C 0.55071 0.34035 0.99634 0.0
N33 N 0.52168 0.37344 0.97859 0.0
C34 C 0.53829 0.32029 0.98241 0.0
C35 C 0.54823 0.3771 1.00172 0.0
C36 C 0.52374 0.33754 0.97347 0.0
C37 C 0.53351 0.39338 0.99245 0.0
C38 C 0.59172 0.25793 0.95077 0.0
C39 C 0.5827 0.26308 0.92472 0.0
C40 C 0.5989 0.22432 0.95649 0.0
C41 C 0.58072 0.23427 0.9051 0.0
C42 C 0.59663 0.19616 0.93634 0.0
N43 N 0.58765 0.20166 0.91129 0.0
C44 C 0.59296 0.38196 0.93209 0.0
C45 C 0.56558 0.36015 0.92618 0.0
C46 C 0.59174 0.40174 0.9059 0.0
N47 N 0.57997 0.3618 0.94178 0.0
C48 C 0.56384 0.37944 0.89977 0.0
C49 C 0.57708 0.40047 0.88918 0.0
H50 H 0.60437 0.38238 0.94459 0.0
H51 H 0.55562 0.34307 0.93367 0.0
C52 C 0.56446 0.21409 0.02902 0.0
N53 N 0.56496 0.23413 0.00383 0.0
C54 C 0.55564 0.18164 0.02983 0.0
C55 C 0.54775 0.19124 0.97889 0.0
C56 C 0.55663 0.22361 0.97914 0.0
C57 C 0.54723 0.16968 0.00445 0.0
H58 H 0.57096 0.22323 0.04853 0.0
H59 H 0.5568 0.24037 0.95962 0.0
O60 O 0.60102 0.35414 0.00373 0.0
O61 O 0.59173 0.28535 0.03969 0.0
O62 O 0.56503 0.32384 0.00526 0.0
O63 O 0.59371 0.28582 0.97032 0.0
H64 H 0.62888 0.37748 0.02802 0.0
H65 H 0.58198 0.41059 0.99188 0.0
H66 H 0.63524 0.44162 0.03893 0.0
H67 H 0.58906 0.4741 0.00365 0.0
H68 H 0.62212 0.18445 0.05785 0.0
H69 H 0.60372 0.30446 0.09197 0.0
H70 H 0.6028 0.22 0.0267 0.0
H71 H 0.62296 0.26743 0.1221 0.0
H72 H 0.60233 0.40603 0.11865 0.0
H73 H 0.54922 0.39522 0.10955 0.0
H74 H 0.65924 0.25598 0.96519 0.0
H75 H 0.66154 0.30321 0.05267 0.0
H76 H 0.5399 0.29176 0.97837 0.0
H77 H 0.55747 0.39285 0.0132 0.0
H78 H 0.51408 0.32239 0.96247 0.0
H79 H 0.53146 0.42183 0.99639 0.0
H80 H 0.57716 0.28893 0.9198 0.0
H81 H 0.6062 0.22001 0.97619 0.0
H82 H 0.57367 0.23782 0.88496 0.0
H83 H 0.60205 0.16995 0.94057 0.0
H84 H 0.60221 0.41786 0.89884 0.0
H85 H 0.55242 0.37705 0.88737 0.0
H86 H 0.55563 0.16581 0.04997 0.0
H87 H 0.54119 0.18339 0.959 0.0
Li88 Li 0.3967 0.70283 1.00251 0.0
Li89 Li 0.41871 0.67058 0.0291 0.0
Li90 Li 0.42542 0.72699 1.0004 0.0
Li91 Li 0.41949 0.66923 0.9756 0.0
C92 C 0.40406 0.74858 0.05146 0.0
N93 N 0.3907 0.80499 0.0836 0.0
C94 C 0.39935 0.74341 0.08092 0.0
C95 C 0.4022 0.7826 0.03851 0.0
C96 C 0.39255 0.77221 0.09675 0.0
C97 C 0.39537 0.81073 0.05508 0.0
C98 C 0.39654 0.6198 0.01584 0.0
C99 C 0.40133 0.55854 0.03174 0.0
N100 N 0.38636 0.55852 0.04556 0.0
C101 C 0.38115 0.61909 0.02997 0.0
C102 C 0.40666 0.58921 0.01648 0.0
C103 C 0.37624 0.58787 0.04496 0.0
C104 C 0.36563 0.71443 0.97583 0.0
N105 N 0.37366 0.71395 1.00226 0.0
C106 C 0.34834 0.72569 0.02796 0.0
C107 C 0.36538 0.71923 0.02809 0.0
C108 C 0.33968 0.72639 1.00098 0.0
C109 C 0.34859 0.72079 0.97465 0.0
H110 H 0.37246 0.70937 0.95566 0.0
H111 H 0.37192 0.71769 0.04887 0.0
C112 C 0.43762 0.62954 0.07085 0.0
N113 N 0.42259 0.64427 0.06473 0.0
C114 C 0.44 0.60984 0.09694 0.0
C115 C 0.41139 0.62086 0.10975 0.0
C116 C 0.40963 0.64057 0.08366 0.0
C117 C 0.42675 0.60518 0.11683 0.0
H118 H 0.44778 0.63315 0.05553 0.0
H119 H 0.39782 0.65268 0.07829 0.0
C120 C 0.407 0.74461 0.94733 0.0
N121 N 0.40116 0.79912 0.90686 0.0
C122 C 0.41435 0.74344 0.91933 0.0
C123 C 0.39644 0.77321 0.95451 0.0
C124 C 0.41132 0.77135 0.89925 0.0
C125 C 0.3937 0.80057 0.93382 0.0
C126 C 0.45169 0.66689 0.98931 0.0
C127 C 0.46282 0.6898 0.97487 0.0
C128 C 0.45448 0.62966 0.9893 0.0
C129 C 0.47647 0.67497 0.96026 0.0
C130 C 0.46826 0.61588 0.9744 0.0
N131 N 0.47887 0.63863 0.96029 0.0
C132 C 0.44363 0.78362 0.02644 0.0
C133 C 0.44237 0.78699 0.97418 0.0
C134 C 0.45284 0.81555 0.02763 0.0
N135 N 0.43844 0.77025 1.00001 0.0
C136 C 0.45149 0.81903 0.97433 0.0
C137 C 0.45681 0.83389 1.00133 0.0
H138 H 0.44055 0.76951 0.04665 0.0
H139 H 0.43849 0.7755 0.9534 0.0
C140 C 0.41405 0.61125 0.93645 0.0
N141 N 0.42379 0.64063 0.94116 0.0
C142 C 0.41595 0.59053 0.91087 0.0
C143 C 0.43796 0.63048 0.89541 0.0
C144 C 0.4356 0.65049 0.92128 0.0
C145 C 0.42796 0.60017 0.88978 0.0
H146 H 0.40453 0.60433 0.95226 0.0
H147 H 0.44302 0.67427 0.92523 0.0
O148 O 0.41073 0.7206 0.03566 0.0
O149 O 0.40168 0.65033 1.00149 0.0
O150 O 0.40979 0.71737 0.96719 0.0
O151 O 0.4382 0.6809 0.00356 0.0
H152 H 0.40087 0.71741 0.09144 0.0
H153 H 0.40619 0.78741 0.01607 0.0
H154 H 0.38876 0.76851 0.11951 0.0
H155 H 0.39386 0.83718 0.0453 0.0
H156 H 0.40909 0.53476 0.03259 0.0
H157 H 0.37312 0.64246 0.02958 0.0
H158 H 0.41855 0.58925 0.00547 0.0
H159 H 0.36441 0.587 0.05616 0.0
H160 H 0.34203 0.73008 0.04879 0.0
H161 H 0.3424 0.72044 0.9534 0.0
H162 H 0.45214 0.59876 0.10158 0.0
H163 H 0.40071 0.61755 0.12399 0.0
H164 H 0.42241 0.72139 0.91323 0.0
H165 H 0.39023 0.7741 0.97566 0.0
H166 H 0.41703 0.7709 0.87761 0.0
H167 H 0.38559 0.82288 0.93914 0.0
H168 H 0.46089 0.71869 0.97478 0.0
H169 H 0.44606 0.6116 1.00056 0.0
H170 H 0.48514 0.69236 0.94886 0.0
H171 H 0.47052 0.5871 0.97406 0.0
H172 H 0.45692 0.82552 0.04893 0.0
H173 H 0.45413 0.83224 0.95349 0.0
H174 H 0.40774 0.56783 0.90727 0.0
H175 H 0.44746 0.63879 0.87994 0.0
Li176 Li 0.57741 0.72503 0.50406 0.0
Li177 Li 0.58357 0.67024 0.53062 0.0
Li178 Li 0.60539 0.70153 0.50402 0.0
Li179 Li 0.584 0.67 0.47728 0.0
C180 C 0.59894 0.75135 0.54775 0.0
N181 N 0.61196 0.81642 0.5665 0.0
C182 C 0.60242 0.75692 0.57768 0.0
C183 C 0.60208 0.77887 0.52734 0.0
C184 C 0.609 0.79001 0.58673 0.0
C185 C 0.60866 0.81157 0.53726 0.0
C186 C 0.55017 0.68373 0.5189 0.0
C187 C 0.5205 0.67812 0.52291 0.0
N188 N 0.52112 0.69355 0.55019 0.0
C189 C 0.55052 0.69952 0.54698 0.0
C190 C 0.53506 0.67293 0.50674 0.0
C191 C 0.5357 0.70425 0.56244 0.0
C192 C 0.55842 0.78025 0.47737 0.0
N193 N 0.5642 0.76793 0.50376 0.0
C194 C 0.55186 0.81783 0.52908 0.0
C195 C 0.56095 0.78578 0.52941 0.0
C196 C 0.5459 0.83152 0.50212 0.0
C197 C 0.54915 0.8121 0.47604 0.0
H198 H 0.56114 0.76544 0.45733 0.0
H199 H 0.56553 0.77531 0.55017 0.0
C200 C 0.59157 0.64551 0.58688 0.0
N201 N 0.57983 0.64244 0.5655 0.0
C202 C 0.59033 0.62545 0.61291 0.0
C203 C 0.56485 0.59949 0.59459 0.0
C204 C 0.56663 0.61996 0.56878 0.0
C205 C 0.57686 0.60196 0.61702 0.0
H206 H 0.60198 0.66345 0.58354 0.0
H207 H 0.55757 0.61762 0.55127 0.0
C208 C 0.60152 0.71992 0.44411 0.0
N209 N 0.61967 0.72031 0.39227 0.0
C210 C 0.61425 0.69488 0.43985 0.0
C211 C 0.59804 0.74519 0.42202 0.0
C212 C 0.62328 0.6955 0.41349 0.0
C213 C 0.60735 0.74495 0.39597 0.0
C214 C 0.59955 0.61229 0.50558 0.0
C215 C 0.61375 0.59129 0.50957 0.0
C216 C 0.58412 0.59546 0.50279 0.0
C217 C 0.61228 0.55373 0.51073 0.0
C218 C 0.58317 0.55785 0.50408 0.0
N219 N 0.59715 0.53793 0.50799 0.0
C220 C 0.63827 0.69011 0.52086 0.0
C221 C 0.63475 0.74195 0.49077 0.0
C222 C 0.65536 0.69573 0.52192 0.0
N223 N 0.6284 0.71292 0.50527 0.0
C224 C 0.65178 0.74862 0.49125 0.0
C225 C 0.66235 0.7252 0.50682 0.0
H226 H 0.63285 0.66729 0.53221 0.0
H227 H 0.62662 0.75976 0.47859 0.0
C228 C 0.56551 0.64727 0.42692 0.0
N229 N 0.57995 0.64287 0.44197 0.0
C230 C 0.56285 0.62894 0.40025 0.0
C231 C 0.58991 0.60175 0.4053 0.0
C232 C 0.59202 0.62049 0.43178 0.0
C233 C 0.57524 0.60607 0.38897 0.0
H234 H 0.55616 0.66544 0.43543 0.0
H235 H 0.60343 0.61746 0.44401 0.0
O236 O 0.59254 0.71899 0.53868 0.0
O237 O 0.56448 0.67888 0.50315 0.0
O238 O 0.59241 0.71981 0.46964 0.0
O239 O 0.60085 0.6491 0.50456 0.0
H240 H 0.60005 0.73587 0.59375 0.0
H241 H 0.59943 0.77514 0.5041 0.0
H242 H 0.61175 0.7947 0.60983 0.0
H243 H 0.61115 0.8331 0.5217 0.0
H244 H 0.5087 0.66989 0.51376 0.0
H245 H 0.56209 0.70794 0.55683 0.0
H246 H 0.53459 0.66067 0.48501 0.0
H247 H 0.53579 0.71643 0.5842 0.0
H248 H 0.54943 0.83165 0.54974 0.0
H249 H 0.54488 0.82182 0.45477 0.0
H250 H 0.59978 0.62849 0.62974 0.0
H251 H 0.55438 0.5814 0.5967 0.0
H252 H 0.61716 0.67514 0.45668 0.0
H253 H 0.58823 0.76478 0.42499 0.0
H254 H 0.63315 0.67625 0.4099 0.0
H255 H 0.60478 0.76435 0.37868 0.0
H256 H 0.62579 0.60389 0.51172 0.0
H257 H 0.57298 0.61119 0.49963 0.0
H258 H 0.62317 0.53715 0.51381 0.0
H259 H 0.57131 0.54449 0.50197 0.0
H260 H 0.66303 0.67674 0.53391 0.0
H261 H 0.65659 0.77194 0.47963 0.0
H262 H 0.55141 0.63329 0.38826 0.0
H263 H 0.59969 0.58399 0.39774 0.0
Li264 Li 0.42002 0.3325 0.52978 0.0
Li265 Li 0.42519 0.27574 0.50319 0.0
Li266 Li 0.41853 0.33325 0.47487 0.0
Li267 Li 0.39735 0.29992 0.50296 0.0
C268 C 0.45281 0.33855 0.50525 0.0
N269 N 0.48299 0.37203 0.51431 0.0
C270 C 0.46561 0.32027 0.51974 0.0
C271 C 0.45548 0.37363 0.49489 0.0
C272 C 0.48074 0.33772 0.52424 0.0
C273 C 0.47079 0.39016 0.49982 0.0
C274 C 0.41374 0.25702 0.55725 0.0
C275 C 0.4117 0.19459 0.57195 0.0
N276 N 0.42106 0.20186 0.59626 0.0
C277 C 0.42324 0.26394 0.58248 0.0
C278 C 0.40781 0.22215 0.55203 0.0
C279 C 0.42683 0.23566 0.6019 0.0
C280 C 0.41025 0.37405 0.57773 0.0
N281 N 0.42409 0.36093 0.5644 0.0
C282 C 0.4412 0.38794 0.60153 0.0
C283 C 0.4394 0.36732 0.57581 0.0
C284 C 0.4271 0.40205 0.61568 0.0
C285 C 0.41146 0.39481 0.6034 0.0
H286 H 0.3982 0.36816 0.56842 0.0
H287 H 0.45023 0.35626 0.56522 0.0
C288 C 0.43693 0.21052 0.47835 0.0
N289 N 0.43801 0.23215 0.50256 0.0
C290 C 0.44565 0.17796 0.4772 0.0
C291 C 0.4566 0.19061 0.52582 0.0
C292 C 0.44777 0.22304 0.52592 0.0
C293 C 0.45559 0.16742 0.50126 0.0
H294 H 0.4293 0.21856 0.45985 0.0
H295 H 0.4486 0.24078 0.54481 0.0
C296 C 0.399 0.38831 0.50294 0.0
N297 N 0.39236 0.46146 0.50136 0.0
C298 C 0.38295 0.40054 0.49718 0.0
C299 C 0.41164 0.41327 0.50822 0.0
C300 C 0.37985 0.43764 0.49636 0.0
C301 C 0.40805 0.45013 0.50726 0.0
C302 C 0.39877 0.26581 0.4517 0.0
C303 C 0.39252 0.28218 0.42618 0.0
C304 C 0.39279 0.23204 0.46038 0.0
C305 C 0.38017 0.26464 0.40996 0.0
C306 C 0.38043 0.21539 0.4436 0.0
N307 N 0.37442 0.23192 0.41896 0.0
C308 C 0.43656 0.35815 0.42461 0.0
C309 C 0.40936 0.38136 0.42949 0.0
C310 C 0.43879 0.37718 0.39816 0.0
N311 N 0.42203 0.36066 0.43968 0.0
C312 C 0.41108 0.401 0.40335 0.0
C313 C 0.4259 0.39892 0.38709 0.0
H314 H 0.44635 0.34101 0.43297 0.0
H315 H 0.39778 0.38219 0.44141 0.0
C316 C 0.36754 0.26916 0.52519 0.0
N317 N 0.37426 0.2896 0.5033 0.0
C318 C 0.3505 0.26256 0.52576 0.0
C319 C 0.34766 0.298 0.48115 0.0
C320 C 0.36471 0.30414 0.4816 0.0
C321 C 0.34028 0.27713 0.50354 0.0
H322 H 0.37538 0.2584 0.54245 0.0
H323 H 0.37037 0.32068 0.46467 0.0
O324 O 0.43796 0.32172 0.50043 0.0
O325 O 0.41017 0.28432 0.53793 0.0
O326 O 0.40222 0.35206 0.50375 0.0
O327 O 0.41064 0.28284 0.46814 0.0
H328 H 0.46384 0.29302 0.52763 0.0
H329 H 0.44591 0.38789 0.48294 0.0
H330 H 0.4907 0.32398 0.53562 0.0
H331 H 0.47299 0.41734 0.49202 0.0
H332 H 0.40728 0.16743 0.56809 0.0
H333 H 0.42789 0.29078 0.58691 0.0
H334 H 0.40038 0.21638 0.53271 0.0
H335 H 0.43424 0.24058 0.62144 0.0
H336 H 0.45351 0.393 0.6101 0.0
H337 H 0.40023 0.40452 0.61379 0.0
H338 H 0.44472 0.16142 0.45753 0.0
H339 H 0.46392 0.18358 0.54504 0.0
H340 H 0.37299 0.38158 0.49326 0.0
H341 H 0.42402 0.40429 0.51336 0.0
H342 H 0.3675 0.44748 0.49177 0.0
H343 H 0.41772 0.46973 0.51131 0.0
H344 H 0.39706 0.30824 0.41907 0.0
H345 H 0.39757 0.21893 0.47997 0.0
H346 H 0.37515 0.27707 0.39026 0.0
H347 H 0.3756 0.18935 0.45017 0.0
H348 H 0.45034 0.37424 0.38622 0.0
H349 H 0.40086 0.41767 0.39602 0.0
H350 H 0.34536 0.24686 0.54376 0.0
H351 H 0.34038 0.3094 0.46334 0.0
Li352 Li 0.08343 0.83201 0.03013 0.0
Li353 Li 0.1057 0.80094 0.00397 0.0
Li354 Li 0.08293 0.83469 0.97684 0.0
Li355 Li 0.07698 0.77656 1.00134 0.0
C356 C 0.10501 0.88286 0.0195 0.0
N357 N 0.11352 0.94186 0.05362 0.0
C358 C 0.11897 0.88151 0.03774 0.0
C359 C 0.09547 0.9143 0.01836 0.0
C360 C 0.12305 0.91162 0.05487 0.0
C361 C 0.09994 0.94381 0.03586 0.0
C362 C 0.09744 0.75031 0.04839 0.0
C363 C 0.10628 0.6886 0.0421 0.0
N364 N 0.10888 0.68604 0.07175 0.0
C365 C 0.1001 0.74702 0.07883 0.0
C366 C 0.10048 0.72085 0.0299 0.0
C367 C 0.10593 0.71433 0.0902 0.0
C368 C 0.06622 0.87987 0.06957 0.0
N369 N 0.07949 0.85766 0.06607 0.0
C370 C 0.08948 0.87265 0.11429 0.0
C371 C 0.09096 0.85359 0.0878 0.0
C372 C 0.07602 0.89613 0.11855 0.0
C373 C 0.06425 0.89953 0.09576 0.0
H374 H 0.05725 0.88255 0.05198 0.0
H375 H 0.10147 0.83601 0.08427 0.0
C376 C 0.13713 0.79592 0.97791 0.0
N377 N 0.12878 0.7905 0.00364 0.0
C378 C 0.15421 0.79011 0.97653 0.0
C379 C 0.15381 0.77364 0.02827 0.0
C380 C 0.13674 0.7798 0.02864 0.0
C381 C 0.1628 0.77888 1.00197 0.0
H382 H 0.13051 0.8051 0.95851 0.0
H383 H 0.12991 0.77652 0.04901 0.0
C384 C 0.05046 0.83548 0.98995 0.0
N385 N 0.02289 0.86189 0.96092 0.0
C386 C 0.03917 0.81169 0.97695 0.0
C387 C 0.04768 0.87268 0.9884 0.0
C388 C 0.02531 0.82558 0.96234 0.0
C389 C 0.03369 0.8855 0.97354 0.0
C390 C 0.09539 0.7633 0.94554 0.0
C391 C 0.08583 0.76596 0.91985 0.0
C392 C 0.10794 0.73734 0.94714 0.0
C393 C 0.08881 0.7423 0.89638 0.0
C394 C 0.11055 0.7142 0.92319 0.0
N395 N 0.10101 0.71712 0.89852 0.0
C396 C 0.09025 0.89068 0.93707 0.0
C397 C 0.06652 0.85714 0.92324 0.0
C398 C 0.08908 0.91159 0.91144 0.0
N399 N 0.07913 0.86392 0.94242 0.0
C400 C 0.06486 0.8774 0.89732 0.0
C401 C 0.07636 0.90481 0.89094 0.0
H402 H 0.10026 0.8954 0.95248 0.0
H403 H 0.05794 0.83542 0.92761 0.0
C404 C 0.05757 0.72193 0.02705 0.0
N405 N 0.0641 0.73306 1.00086 0.0
C406 C 0.04841 0.68997 0.02863 0.0
C407 C 0.05267 0.68168 0.97618 0.0
C408 C 0.06172 0.71381 0.97562 0.0
C409 C 0.0459 0.66924 0.00296 0.0
H410 H 0.05956 0.73788 0.04678 0.0
H411 H 0.06683 0.72319 0.95502 0.0
O412 O 0.10054 0.85332 0.00324 0.0
O413 O 0.09176 0.78219 0.03695 0.0
O414 O 0.06407 0.82238 0.00439 0.0
O415 O 0.09277 0.7866 0.96862 0.0
H416 H 0.12646 0.85733 0.03891 0.0
H417 H 0.08463 0.91575 0.00432 0.0
H418 H 0.13376 0.91089 0.06925 0.0
H419 H 0.0926 0.96824 0.03537 0.0
H420 H 0.10866 0.66558 0.02801 0.0
H421 H 0.0977 0.76949 0.09351 0.0
H422 H 0.09819 0.72272 0.00644 0.0
H423 H 0.10809 0.71143 0.1137 0.0
H424 H 0.099 0.86961 0.13098 0.0
H425 H 0.05359 0.91702 0.0982 0.0
H426 H 0.16065 0.79512 0.95592 0.0
H427 H 0.15988 0.76478 0.04836 0.0
H428 H 0.04109 0.78283 0.97804 0.0
H429 H 0.05632 0.89146 0.99825 0.0
H430 H 0.01649 0.80751 0.95209 0.0
H431 H 0.03144 0.91422 0.97199 0.0
H432 H 0.07605 0.78567 0.91818 0.0
H433 H 0.11568 0.73509 0.96656 0.0
H434 H 0.08141 0.74394 0.87647 0.0
H435 H 0.1202 0.69397 0.92419 0.0
H436 H 0.09811 0.93272 0.90766 0.0
H437 H 0.055 0.87084 0.882 0.0
H438 H 0.04323 0.6818 0.04969 0.0
H439 H 0.05124 0.66648 0.95588 0.0
Li440 Li 0.89691 0.20417 0.00318 0.0
Li441 Li 0.91851 0.17119 0.02966 0.0
Li442 Li 0.92426 0.22603 1.00117 0.0
Li443 Li 0.91825 0.1718 0.97384 0.0
C444 C 0.89881 0.23839 0.05308 0.0
N445 N 0.87395 0.27303 0.08405 0.0
C446 C 0.89193 0.22231 0.0782 0.0
C447 C 0.89321 0.2723 0.04395 0.0
C448 C 0.87933 0.24021 0.09351 0.0
C449 C 0.88059 0.28932 0.05982 0.0
C450 C 0.9013 0.11498 1.00085 0.0
C451 C 0.91575 0.05801 1.00118 0.0
N452 N 0.90107 0.04052 0.99766 0.0
C453 C 0.88636 0.09648 0.99724 0.0
C454 C 0.91613 0.09565 0.00286 0.0
C455 C 0.8865 0.05881 0.99568 0.0
C456 C 0.86703 0.23877 0.98559 0.0
N457 N 0.87382 0.21444 0.00455 0.0
C458 C 0.84733 0.20223 0.02594 0.0
C459 C 0.86438 0.1961 0.02439 0.0
C460 C 0.83993 0.22717 0.00661 0.0
C461 C 0.85002 0.2456 0.98626 0.0
H462 H 0.8748 0.25267 0.96982 0.0
H463 H 0.87011 0.17653 0.03892 0.0
C464 C 0.93764 0.13773 0.07569 0.0
N465 N 0.92229 0.14216 0.06387 0.0
C466 C 0.93975 0.11731 0.10146 0.0
C467 C 0.9103 0.10567 0.10186 0.0
C468 C 0.90876 0.12632 0.0762 0.0
C469 C 0.92593 0.10122 0.11508 0.0
H470 H 0.94822 0.15026 0.0653 0.0
H471 H 0.89671 0.13007 0.06619 0.0
C472 C 0.91279 0.24716 0.94806 0.0
N473 N 0.92122 0.30171 0.90914 0.0
C474 C 0.92225 0.23949 0.92291 0.0
C475 C 0.9075 0.28254 0.95325 0.0
C476 C 0.9264 0.26745 0.90353 0.0
C477 C 0.91195 0.30975 0.93338 0.0
C478 C 0.95287 0.19224 0.99863 0.0
C479 C 0.96098 0.19205 0.97131 0.0
C480 C 0.96077 0.20694 0.02337 0.0
C481 C 0.97692 0.20654 0.9692 0.0
C482 C 0.9767 0.22126 0.02033 0.0
N483 N 0.98437 0.22074 0.99354 0.0
C484 C 0.9371 0.29055 0.02599 0.0
C485 C 0.94711 0.27869 0.97773 0.0
C486 C 0.94625 0.32255 0.02729 0.0
N487 N 0.93752 0.26953 1.00133 0.0
C488 C 0.95635 0.31054 0.97799 0.0
C489 C 0.95593 0.33307 0.00295 0.0
H490 H 0.92965 0.28251 0.04472 0.0
H491 H 0.94768 0.26125 0.95866 0.0
C492 C 0.90896 0.14514 0.91868 0.0
N493 N 0.9211 0.14292 0.93941 0.0
C494 C 0.91003 0.12504 0.89265 0.0
C495 C 0.93592 0.10004 0.91004 0.0
C496 C 0.93433 0.12067 0.93581 0.0
C497 C 0.9237 0.10226 0.88791 0.0
H498 H 0.89846 0.16271 0.9224 0.0
H499 H 0.94368 0.11898 0.9529 0.0
O500 O 0.91087 0.22092 0.03734 0.0
O501 O 0.90133 0.15185 1.00227 0.0
O502 O 0.90854 0.2201 0.96723 0.0
O503 O 0.93719 0.17857 1.00105 0.0
H504 H 0.89619 0.19624 0.08573 0.0
H505 H 0.89849 0.28522 0.02469 0.0
H506 H 0.87382 0.22797 0.11288 0.0
H507 H 0.87605 0.31545 0.05287 0.0
H508 H 0.92713 0.0427 0.00268 0.0
H509 H 0.87478 0.11111 0.99566 0.0
H510 H 0.92782 0.10951 0.00566 0.0
H511 H 0.87502 0.04412 0.99288 0.0
H512 H 0.83999 0.18706 0.04167 0.0
H513 H 0.84484 0.26524 0.97111 0.0
H514 H 0.95202 0.1148 0.11092 0.0
H515 H 0.89934 0.09322 0.11119 0.0
H516 H 0.92656 0.21238 0.91858 0.0
H517 H 0.90015 0.28901 0.97251 0.0
H518 H 0.93379 0.26192 0.88409 0.0
H519 H 0.90803 0.33728 0.93723 0.0
H520 H 0.95495 0.18138 0.95182 0.0
H521 H 0.95455 0.20796 0.04455 0.0
H522 H 0.98331 0.20671 0.94817 0.0
H523 H 0.98291 0.23295 0.03923 0.0
H524 H 0.94553 0.33917 0.04696 0.0
H525 H 0.9639 0.31726 0.95895 0.0
H526 H 0.90014 0.12707 0.87656 0.0
H527 H 0.9467 0.08298 0.9073 0.0
Li528 Li 0.07754 0.22607 0.50385 0.0
Li529 Li 0.08384 0.16852 0.52871 0.0
Li530 Li 0.10641 0.20261 0.50153 0.0
Li531 Li 0.0844 0.17017 0.47539 0.0
C532 C 0.09633 0.24268 0.55789 0.0
N533 N 0.10276 0.29384 0.60096 0.0
C534 C 0.08801 0.24145 0.58501 0.0
C535 C 0.10815 0.26963 0.55294 0.0
C536 C 0.09136 0.26765 0.60641 0.0
C537 C 0.11116 0.29532 0.57491 0.0
C538 C 0.05169 0.16561 0.51589 0.0
C539 C 0.03594 0.11431 0.53289 0.0
N540 N 0.025 0.13705 0.54617 0.0
C541 C 0.04024 0.18849 0.52955 0.0
C542 C 0.04948 0.12823 0.51738 0.0
C543 C 0.02684 0.17352 0.54479 0.0
C544 C 0.05894 0.2821 0.47786 0.0
N545 N 0.06436 0.2691 0.50428 0.0
C546 C 0.05149 0.3182 0.52984 0.0
C547 C 0.06064 0.28619 0.53005 0.0
C548 C 0.04599 0.33272 0.50283 0.0
C549 C 0.04976 0.31404 0.4766 0.0
H550 H 0.06186 0.26773 0.4577 0.0
H551 H 0.06475 0.27506 0.55082 0.0
C552 C 0.09017 0.11107 0.56783 0.0
N553 N 0.07998 0.13976 0.56329 0.0
C554 C 0.08874 0.09028 0.59348 0.0
C555 C 0.06624 0.12867 0.60933 0.0
C556 C 0.0681 0.14872 0.58333 0.0
C557 C 0.07677 0.0992 0.61485 0.0
H558 H 0.09962 0.10465 0.55174 0.0
H559 H 0.06027 0.17188 0.57948 0.0
C560 C 0.09801 0.25075 0.45466 0.0
N561 N 0.10948 0.31226 0.42673 0.0
C562 C 0.10135 0.25032 0.42432 0.0
C563 C 0.10033 0.28259 0.4707 0.0
C564 C 0.1072 0.28165 0.41063 0.0
C565 C 0.10617 0.31337 0.45622 0.0
C566 C 0.10686 0.12074 0.48674 0.0
C567 C 0.12147 0.12259 0.47022 0.0
C568 C 0.09749 0.08901 0.48663 0.0
C569 C 0.12636 0.09271 0.45349 0.0
C570 C 0.10278 0.05975 0.46958 0.0
N571 N 0.11698 0.0622 0.45348 0.0
C572 C 0.13771 0.20778 0.52778 0.0
C573 C 0.13746 0.2254 0.47737 0.0
C574 C 0.15477 0.21372 0.52945 0.0
N575 N 0.12944 0.21376 0.50205 0.0
C576 C 0.15449 0.23192 0.4781 0.0
C577 C 0.16338 0.2259 0.50435 0.0
H578 H 0.13103 0.19813 0.54697 0.0
H579 H 0.13074 0.22893 0.45694 0.0
C580 C 0.06692 0.12321 0.43565 0.0
N581 N 0.08071 0.14368 0.43977 0.0
C582 C 0.06511 0.10267 0.40986 0.0
C583 C 0.09161 0.12507 0.39305 0.0
C584 C 0.09287 0.14521 0.41902 0.0
C585 C 0.07765 0.10319 0.38826 0.0
H586 H 0.05743 0.12248 0.4525 0.0
H587 H 0.10371 0.16168 0.42293 0.0
O588 O 0.09333 0.21691 0.53681 0.0
O589 O 0.06492 0.17977 0.50099 0.0
O590 O 0.09233 0.22022 0.46838 0.0
O591 O 0.10164 0.15002 0.50264 0.0
H592 H 0.07893 0.22074 0.5894 0.0
H593 H 0.11507 0.27061 0.53251 0.0
H594 H 0.08489 0.26714 0.62738 0.0
H595 H 0.12024 0.31635 0.5713 0.0
H596 H 0.03415 0.08543 0.5344 0.0
H597 H 0.04172 0.21748 0.52849 0.0
H598 H 0.05823 0.11015 0.50694 0.0
H599 H 0.01792 0.19089 0.55557 0.0
H600 H 0.04899 0.33171 0.5506 0.0
H601 H 0.04554 0.32382 0.45532 0.0
H602 H 0.09698 0.06753 0.59656 0.0
H603 H 0.05698 0.13687 0.62531 0.0
H604 H 0.09947 0.22604 0.41146 0.0
H605 H 0.09742 0.28369 0.49397 0.0
H606 H 0.1099 0.28164 0.38719 0.0
H607 H 0.108 0.33818 0.4684 0.0
H608 H 0.12885 0.14695 0.47004 0.0
H609 H 0.08618 0.08714 0.49935 0.0
H610 H 0.13757 0.09384 0.44043 0.0
H611 H 0.09559 0.03512 0.4691 0.0
H612 H 0.16114 0.20896 0.55017 0.0
H613 H 0.16071 0.24068 0.45811 0.0
H614 H 0.0542 0.08598 0.40718 0.0
H615 H 0.10147 0.12674 0.37685 0.0
Li616 Li 0.91698 0.83292 0.52839 0.0
Li617 Li 0.92347 0.77421 0.50197 0.0
Li618 Li 0.91664 0.83252 0.4736 0.0
Li619 Li 0.89639 0.80091 0.50225 0.0
C620 C 0.95159 0.8276 0.50949 0.0
N621 N 0.98392 0.83863 0.52743 0.0
C622 C 0.95918 0.80333 0.52889 0.0
C623 C 0.96051 0.8573 0.49897 0.0
C624 C 0.97551 0.80942 0.53777 0.0
C625 C 0.97682 0.86247 0.50838 0.0
C626 C 0.89714 0.76694 0.55279 0.0
C627 C 0.88166 0.71375 0.56629 0.0
N628 N 0.87173 0.73432 0.58381 0.0
C629 C 0.88685 0.78753 0.57105 0.0
C630 C 0.89458 0.72974 0.55042 0.0
C631 C 0.87404 0.77055 0.58649 0.0
C632 C 0.9081 0.88212 0.57279 0.0
N633 N 0.9209 0.86112 0.56348 0.0
C634 C 0.9371 0.87907 0.60535 0.0
C635 C 0.93522 0.85913 0.57928 0.0
C636 C 0.92411 0.90121 0.61528 0.0
C637 C 0.90948 0.90262 0.59856 0.0
H638 H 0.89664 0.88253 0.56042 0.0
H639 H 0.9451 0.84176 0.57203 0.0
C640 C 0.94357 0.72043 0.47584 0.0
N641 N 0.93645 0.7313 0.50159 0.0
C642 C 0.95288 0.68863 0.47486 0.0
C643 C 0.94745 0.68 0.52696 0.0
C644 C 0.93826 0.71195 0.52693 0.0
C645 C 0.95489 0.66785 0.50066 0.0
H646 H 0.94194 0.73646 0.45604 0.0
H647 H 0.93254 0.72134 0.54715 0.0
C648 C 0.9019 0.89052 0.49976 0.0
N649 N 0.90568 0.96462 0.49656 0.0
C650 C 0.88816 0.9127 0.49484 0.0
C651 C 0.91757 0.9061 0.50292 0.0
C652 C 0.89032 0.95007 0.49331 0.0
C653 C 0.91923 0.94358 0.50129 0.0
C654 C 0.89747 0.76453 0.4507 0.0
C655 C 0.88546 0.78402 0.4352 0.0
C656 C 0.89772 0.72687 0.44893 0.0
C657 C 0.8737 0.76539 0.41844 0.0
C658 C 0.88576 0.70925 0.43188 0.0
N659 N 0.87409 0.72871 0.41715 0.0
C660 C 0.93593 0.85948 0.42525 0.0
C661 C 0.90769 0.87694 0.4262 0.0
C662 C 0.93842 0.87861 0.39891 0.0
N663 N 0.92074 0.85904 0.43825 0.0
C664 C 0.9096 0.89629 0.39996 0.0
C665 C 0.9251 0.89717 0.38581 0.0
H666 H 0.94605 0.84467 0.43517 0.0
H667 H 0.89573 0.87604 0.43693 0.0
C668 C 0.86267 0.81735 0.50857 0.0
N669 N 0.87315 0.78936 0.50341 0.0
C670 C 0.84559 0.8117 0.50969 0.0
C671 C 0.85033 0.74827 0.50066 0.0
C672 C 0.86734 0.75517 0.49976 0.0
C673 C 0.83919 0.7768 0.5056 0.0
H674 H 0.86758 0.84414 0.51192 0.0
H675 H 0.87589 0.73314 0.49634 0.0
O676 O 0.93571 0.8217 0.50003 0.0
O677 O 0.90954 0.78322 0.53707 0.0
O678 O 0.89994 0.85377 0.50087 0.0
O679 O 0.90904 0.7822 0.46735 0.0
H680 H 0.95244 0.78041 0.53746 0.0
H681 H 0.95493 0.87615 0.48364 0.0
H682 H 0.98149 0.79098 0.55295 0.0
H683 H 0.98385 0.88539 0.50048 0.0
H684 H 0.87946 0.68502 0.56452 0.0
H685 H 0.88861 0.81636 0.573 0.0
H686 H 0.90228 0.71346 0.53609 0.0
H687 H 0.86591 0.78618 0.60055 0.0
H688 H 0.94862 0.87722 0.61755 0.0
H689 H 0.89901 0.91872 0.6057 0.0
H690 H 0.95857 0.68062 0.45418 0.0
H691 H 0.94847 0.66472 0.5473 0.0
H692 H 0.87594 0.9012 0.49199 0.0
H693 H 0.92832 0.88956 0.5068 0.0
H694 H 0.87979 0.96752 0.48948 0.0
H695 H 0.93129 0.95593 0.5038 0.0
H696 H 0.88509 0.81316 0.43643 0.0
H697 H 0.90696 0.71143 0.4608 0.0
H698 H 0.86424 0.78008 0.40652 0.0
H699 H 0.88573 0.6801 0.43042 0.0
H700 H 0.95053 0.87825 0.38861 0.0
H701 H 0.89905 0.91061 0.39095 0.0
H702 H 0.83749 0.83457 0.51331 0.0
H703 H 0.84598 0.72083 0.4979 0.0
H704 H 0.81878 0.23352 0.95962 0.0
H705 H 0.78881 0.24297 0.9608 0.0
H706 H 0.78994 0.24409 0.05618 0.0
H707 H 0.81994 0.23448 0.05519 0.0
H708 H 0.76499 0.20161 0.03434 0.0
H709 H 0.7642 0.33575 0.97991 0.0
H710 H 0.77467 0.30175 0.95869 0.0
H711 H 0.78296 0.31549 0.99386 0.0
C712 C 0.81268 0.23623 0.98085 0.0
C713 C 0.82175 0.23345 0.00732 0.0
C714 C 0.79555 0.24166 0.98148 0.0
C715 C 0.78718 0.24482 0.00857 0.0
C716 C 0.79617 0.24183 0.03503 0.0
H717 H 0.68675 0.32417 0.03081 0.0
H718 H 0.71669 0.31491 0.03192 0.0
C719 C 0.81329 0.23623 0.03443 0.0
C720 C 0.76897 0.25032 0.00932 0.0
H721 H 0.73814 0.30662 0.98598 0.0
C722 C 0.75911 0.22465 0.02388 0.0
C723 C 0.76135 0.28063 0.99599 0.0
C724 C 0.77134 0.31018 0.98148 0.0
C725 C 0.7418 0.22814 0.02506 0.0
C726 C 0.73414 0.25775 0.01078 0.0
C727 C 0.74402 0.28373 0.99664 0.0
C728 C 0.71589 0.26265 0.01061 0.0
C729 C 0.73193 0.20044 0.04204 0.0
C730 C 0.70548 0.23645 0.99805 0.0
C731 C 0.68831 0.24145 0.9977 0.0
C732 C 0.68121 0.27294 0.00966 0.0
C733 C 0.69173 0.29929 0.02192 0.0
C734 C 0.70888 0.2942 0.02235 0.0
H735 H 0.73976 0.18567 0.05823 0.0
H736 H 0.72147 0.21323 0.05408 0.0
H737 H 0.72675 0.18039 0.02632 0.0
H738 H 0.71064 0.21223 0.98831 0.0
H739 H 0.68059 0.2205 0.98826 0.0
H740 H 0.18561 0.79727 0.04429 0.0
H741 H 0.21558 0.78827 0.04291 0.0
H742 H 0.21145 0.74026 0.95633 0.0
H743 H 0.18136 0.74792 0.95796 0.0
H744 H 0.23178 0.70154 0.99367 0.0
H745 H 0.24881 0.84658 0.99461 0.0
H746 H 0.23555 0.83366 0.02469 0.0
H747 H 0.22799 0.83118 0.98732 0.0
C748 C 0.19103 0.78449 0.02505 0.0
C749 C 0.18106 0.77339 1.00119 0.0
C750 C 0.20821 0.7798 0.02414 0.0
C751 C 0.21577 0.7642 0.99929 0.0
C752 C 0.20587 0.75266 0.97561 0.0
H753 H 0.3216 0.76662 0.9616 0.0
H754 H 0.29152 0.77469 0.96013 0.0
C755 C 0.18868 0.75728 0.9765 0.0
C756 C 0.23399 0.75919 0.99828 0.0
H757 H 0.27075 0.8046 1.00205 0.0
C758 C 0.24031 0.72407 0.99537 0.0
C759 C 0.24509 0.78868 1.00006 0.0
C760 C 0.23905 0.82719 1.00155 0.0
C761 C 0.25744 0.71755 0.99485 0.0
C762 C 0.26853 0.7469 0.99784 0.0
C763 C 0.26222 0.7821 1.00008 0.0
C764 C 0.28674 0.74167 0.99868 0.0
C765 C 0.2635 0.67934 0.99071 0.0
C766 C 0.29405 0.72079 0.02105 0.0
C767 C 0.31121 0.71589 0.02183 0.0
C768 C 0.32144 0.73204 1.00036 0.0
C769 C 0.31407 0.75336 0.9782 0.0
C770 C 0.2969 0.7582 0.97744 0.0
H771 H 0.25382 0.66188 0.98066 0.0
H772 H 0.2747 0.67856 0.97646 0.0
H773 H 0.26677 0.66778 0.01258 0.0
H774 H 0.28647 0.70834 0.038 0.0
H775 H 0.31643 0.69904 0.03904 0.0
H776 H 0.8209 0.73274 0.46948 0.0
H777 H 0.79085 0.72379 0.46974 0.0
H778 H 0.78631 0.79742 0.54316 0.0
H779 H 0.81633 0.80625 0.54331 0.0
H780 H 0.76996 0.69895 0.51578 0.0
H781 H 0.75408 0.83846 0.48084 0.0
H782 H 0.77471 0.8201 0.47738 0.0
H783 H 0.76737 0.83579 0.51264 0.0
C784 C 0.81353 0.74678 0.48588 0.0
C785 C 0.82101 0.7704 0.50626 0.0
C786 C 0.79637 0.74176 0.48589 0.0
C787 C 0.78636 0.7604 0.50615 0.0
C788 C 0.79379 0.7834 0.52691 0.0
H789 H 0.68394 0.71719 0.55318 0.0
H790 H 0.71403 0.72506 0.55275 0.0
C791 C 0.81094 0.78843 0.52694 0.0
C792 C 0.76814 0.7556 0.5057 0.0
H793 H 0.73174 0.80094 0.49567 0.0
C794 C 0.76159 0.72119 0.51133 0.0
C795 C 0.75728 0.78461 0.49952 0.0
C796 C 0.76367 0.82178 0.49198 0.0
C797 C 0.74442 0.71514 0.51146 0.0
C798 C 0.73355 0.74439 0.50615 0.0
C799 C 0.74011 0.77866 0.50001 0.0
C800 C 0.71532 0.73988 0.50651 0.0
C801 C 0.73805 0.67741 0.51684 0.0
C802 C 0.70604 0.74645 0.48084 0.0
C803 C 0.68885 0.74194 0.48098 0.0
C804 C 0.68059 0.73098 0.50689 0.0
C805 C 0.68993 0.72501 0.53272 0.0
C806 C 0.70712 0.7295 0.53253 0.0
H807 H 0.74786 0.65679 0.51338 0.0
H808 H 0.73368 0.6752 0.54005 0.0
H809 H 0.72746 0.6712 0.50202 0.0
H810 H 0.71214 0.75457 0.46055 0.0
H811 H 0.68207 0.74636 0.46062 0.0
H812 H 0.18678 0.18202 0.52926 0.0
H813 H 0.21686 0.19088 0.53017 0.0
H814 H 0.21124 0.29069 0.48216 0.0
H815 H 0.18113 0.28225 0.48139 0.0
H816 H 0.23817 0.2012 0.47746 0.0
H817 H 0.24008 0.3157 0.55701 0.0
H818 H 0.22261 0.28536 0.55443 0.0
H819 H 0.2256 0.31967 0.52692 0.0
C820 C 0.19194 0.20606 0.51919 0.0
C821 C 0.18159 0.23152 0.50534 0.0
C822 C 0.20911 0.21096 0.51959 0.0
C823 C 0.21621 0.24157 0.50647 0.0
C824 C 0.20595 0.26707 0.49267 0.0
H825 H 0.31576 0.32511 0.48878 0.0
H826 H 0.28588 0.31509 0.48868 0.0
C827 C 0.18878 0.26208 0.49206 0.0
C828 C 0.2344 0.2464 0.50657 0.0
H829 H 0.2653 0.29963 0.53395 0.0
C830 C 0.24415 0.22259 0.48988 0.0
C831 C 0.24207 0.27446 0.52269 0.0
C832 C 0.23212 0.30019 0.54149 0.0
C833 C 0.26143 0.22655 0.48839 0.0
C834 C 0.26917 0.2545 0.5047 0.0
C835 C 0.25937 0.27821 0.52149 0.0
C836 C 0.28739 0.26 0.50436 0.0
C837 C 0.27116 0.2014 0.46867 0.0
C838 C 0.29819 0.23246 0.51346 0.0
C839 C 0.31534 0.23789 0.51307 0.0
C840 C 0.32203 0.27117 0.50395 0.0
C841 C 0.31111 0.29889 0.49534 0.0
C842 C 0.29399 0.29333 0.49553 0.0
H843 H 0.26316 0.18877 0.45155 0.0
H844 H 0.28144 0.21583 0.45745 0.0
H845 H 0.27654 0.17942 0.4823 0.0
H846 H 0.29337 0.20679 0.52102 0.0
H847 H 0.32334 0.21585 0.51965 0.0
H848 H 0.55238 0.4562 0.12999 0.0
H849 H 0.54937 0.49138 0.1756 0.0
H850 H 0.59053 0.43402 0.21412 0.0
H851 H 0.5933 0.39805 0.16912 0.0
H852 H 0.56361 0.44154 0.25253 0.0
H853 H 0.58098 0.57258 0.20113 0.0
H854 H 0.56408 0.54916 0.18377 0.0
H855 H 0.58448 0.52983 0.18302 0.0
C856 C 0.56068 0.45083 0.14828 0.0
C857 C 0.57318 0.42451 0.14579 0.0
C858 C 0.55905 0.47121 0.17421 0.0
C859 C 0.5699 0.4657 0.19806 0.0
C860 C 0.5821 0.43888 0.1959 0.0
H861 H 0.59829 0.59702 0.3453 0.0
H862 H 0.59543 0.56334 0.29914 0.0
C863 C 0.58375 0.41855 0.17005 0.0
C864 C 0.56873 0.48789 0.22531 0.0
H865 H 0.57372 0.57363 0.25166 0.0
C866 C 0.5657 0.47047 0.25236 0.0
C867 C 0.57164 0.52556 0.22501 0.0
C868 C 0.57561 0.54548 0.19676 0.0
C869 C 0.56569 0.48961 0.27918 0.0
C870 C 0.56856 0.52729 0.27887 0.0
C871 C 0.57139 0.54479 0.25179 0.0
C872 C 0.56983 0.54859 0.30657 0.0
C873 C 0.56323 0.46915 0.30772 0.0
C874 C 0.5563 0.55197 0.3259 0.0
C875 C 0.55793 0.57104 0.35249 0.0
C876 C 0.57313 0.5871 0.36019 0.0
C877 C 0.58651 0.58439 0.34035 0.0
C878 C 0.58486 0.5654 0.31383 0.0
H879 H 0.56467 0.43956 0.30463 0.0
H880 H 0.5722 0.47828 0.32477 0.0
H881 H 0.55056 0.47433 0.3162 0.0
H882 H 0.54451 0.53969 0.32049 0.0
H883 H 0.54741 0.57253 0.3673 0.0
H884 H 0.44534 0.54387 0.12591 0.0
H885 H 0.44791 0.50857 0.17134 0.0
H886 H 0.41476 0.58198 0.21583 0.0
H887 H 0.41293 0.61863 0.17118 0.0
H888 H 0.44013 0.56427 0.25075 0.0
H889 H 0.41344 0.43973 0.20198 0.0
H890 H 0.43158 0.45561 0.18312 0.0
H891 H 0.41303 0.48255 0.18303 0.0
C892 C 0.43878 0.55287 0.14545 0.0
C893 C 0.42879 0.58401 0.14467 0.0
C894 C 0.44008 0.5323 0.17133 0.0
C895 C 0.43122 0.54211 0.19683 0.0
C896 C 0.42159 0.57365 0.19636 0.0
H897 H 0.40232 0.40995 0.3444 0.0
H898 H 0.40477 0.44487 0.29893 0.0
C899 C 0.42042 0.5944 0.17064 0.0
C900 C 0.43183 0.51965 0.22407 0.0
H901 H 0.42352 0.43538 0.25096 0.0
C902 C 0.43653 0.53606 0.2508 0.0
C903 C 0.42693 0.48294 0.22419 0.0
C904 C 0.42081 0.46421 0.19662 0.0
C905 C 0.43632 0.51695 0.27765 0.0
C906 C 0.43173 0.48006 0.27766 0.0
C907 C 0.42719 0.46356 0.25089 0.0
C908 C 0.43057 0.45862 0.30539 0.0
C909 C 0.44042 0.53689 0.30583 0.0
C910 C 0.44432 0.45426 0.32409 0.0
C911 C 0.44288 0.43481 0.35053 0.0
C912 C 0.42769 0.4189 0.35862 0.0
C913 C 0.4141 0.4225 0.33934 0.0
C914 C 0.41552 0.44218 0.31311 0.0
H915 H 0.43933 0.56659 0.30303 0.0
H916 H 0.43214 0.52841 0.32418 0.0
H917 H 0.45338 0.53079 0.31229 0.0
H918 H 0.45617 0.46597 0.31829 0.0
H919 H 0.4536 0.43277 0.36482 0.0
H920 H 0.43348 0.62666 0.83397 0.0
H921 H 0.43467 0.59293 0.78751 0.0
H922 H 0.42695 0.49348 0.83508 0.0
H923 H 0.42601 0.52686 0.88175 0.0
H924 H 0.4558 0.53444 0.76968 0.0
H925 H 0.38928 0.49594 0.77269 0.0
H926 H 0.39776 0.53128 0.79565 0.0
H927 H 0.4009 0.48475 0.80534 0.0
C928 C 0.43227 0.59756 0.83466 0.0
C929 C 0.42955 0.57951 0.86165 0.0
C930 C 0.43287 0.57836 0.80805 0.0
C931 C 0.43066 0.54081 0.80784 0.0
C932 C 0.42838 0.52256 0.83472 0.0
H933 H 0.44775 0.39032 0.66292 0.0
H934 H 0.44935 0.42478 0.70903 0.0
C935 C 0.42781 0.5417 0.86136 0.0
C936 C 0.43046 0.52084 0.77942 0.0
H937 H 0.40555 0.47035 0.73453 0.0
C938 C 0.44483 0.52041 0.76195 0.0
C939 C 0.41605 0.50298 0.76926 0.0
C940 C 0.40005 0.5039 0.78652 0.0
C941 C 0.44525 0.50213 0.73471 0.0
C942 C 0.43096 0.48356 0.72489 0.0
C943 C 0.41653 0.4844 0.74222 0.0
C944 C 0.43056 0.46352 0.69649 0.0
C945 C 0.46088 0.50336 0.71642 0.0
C946 C 0.41934 0.47361 0.67429 0.0
C947 C 0.4184 0.45401 0.64792 0.0
C948 C 0.4286 0.42372 0.64328 0.0
C949 C 0.43991 0.41382 0.66555 0.0
C950 C 0.44084 0.43348 0.69193 0.0
H951 H 0.46922 0.5256 0.72349 0.0
H952 H 0.46767 0.47751 0.71904 0.0
H953 H 0.45794 0.50687 0.69259 0.0
H954 H 0.41129 0.4967 0.67738 0.0
H955 H 0.40971 0.46268 0.63111 0.0
H956 H 0.55033 0.43734 0.86683 0.0
H957 H 0.54836 0.46924 0.8195 0.0
H958 H 0.59908 0.44146 0.80008 0.0
H959 H 0.60096 0.40838 0.84661 0.0
H960 H 0.56645 0.52724 0.79959 0.0
H961 H 0.5756 0.41027 0.72504 0.0
H962 H 0.571 0.40513 0.76389 0.0
H963 H 0.59181 0.41472 0.75195 0.0
C964 C 0.56099 0.43756 0.85229 0.0
C965 C 0.57579 0.42018 0.86055 0.0
C966 C 0.55988 0.456 0.82533 0.0
C967 C 0.57349 0.45724 0.80603 0.0
C968 C 0.58831 0.44023 0.81431 0.0
H969 H 0.60151 0.56511 0.64541 0.0
H970 H 0.59953 0.53022 0.69124 0.0
C971 C 0.58943 0.42174 0.84118 0.0
C972 C 0.57244 0.47732 0.77766 0.0
H973 H 0.57826 0.46875 0.70312 0.0
C974 C 0.56884 0.5144 0.77846 0.0
C975 C 0.57552 0.46048 0.75009 0.0
C976 C 0.57854 0.42039 0.74758 0.0
C977 C 0.56884 0.53533 0.75254 0.0
C978 C 0.57236 0.51864 0.72512 0.0
C979 C 0.57564 0.48147 0.72423 0.0
C980 C 0.5733 0.53955 0.69722 0.0
C981 C 0.56562 0.57536 0.75475 0.0
C982 C 0.55914 0.55597 0.68524 0.0
C983 C 0.56023 0.57598 0.65904 0.0
C984 C 0.57552 0.57997 0.64443 0.0
C985 C 0.58961 0.56304 0.65636 0.0
C986 C 0.58849 0.54291 0.68243 0.0
H987 H 0.5662 0.58514 0.77796 0.0
H988 H 0.57474 0.59069 0.74131 0.0
H989 H 0.55308 0.58135 0.74596 0.0
H990 H 0.54726 0.55329 0.69615 0.0
H991 H 0.54917 0.58884 0.6505 0.0
H992 H 0.06642 0.96673 0.12508 0.0
H993 H 0.06501 1.00195 0.17082 0.0
H994 H 0.08122 0.90918 0.22063 0.0
H995 H 0.08215 0.87344 0.17518 0.0
H996 H 0.05504 0.94631 0.24739 0.0
H997 H 0.10589 0.03939 0.21508 0.0
H998 H 0.0891 0.03686 0.18908 0.0
H999 H 0.10178 0.99779 0.19564 0.0
C1000 C 0.06948 0.95367 0.1458 0.0
C1001 C 0.0745 0.91729 0.14641 0.0
C1002 C 0.06885 0.97396 0.17188 0.0
C1003 C 0.07328 0.95835 0.19905 0.0
C1004 C 0.07786 0.92183 0.19986 0.0
H1005 H 0.10207 0.06389 0.36142 0.0
H1006 H 0.10024 0.02866 0.31583 0.0
C1007 C 0.0785 0.90153 0.17383 0.0
C1008 C 0.07338 0.98007 0.22663 0.0
H1009 H 0.09187 0.05246 0.25976 0.0
C1010 C 0.06306 0.96957 0.25012 0.0
C1011 C 0.08402 0.0101 0.23024 0.0
C1012 C 0.09595 0.02161 0.20631 0.0
C1013 C 0.06304 0.98842 0.2771 0.0
C1014 C 0.07345 0.01888 0.28049 0.0
C1015 C 0.0838 0.02927 0.25703 0.0
C1016 C 0.07425 0.03969 0.30851 0.0
C1017 C 0.0522 0.97504 0.30198 0.0
C1018 C 0.06024 0.05775 0.3195 0.0
C1019 C 0.06126 0.07802 0.34557 0.0
C1020 C 0.07635 0.08089 0.36099 0.0
C1021 C 0.09033 0.06268 0.34989 0.0
C1022 C 0.08929 0.04239 0.3239 0.0
H1023 H 0.04814 0.94672 0.29837 0.0
H1024 H 0.05879 0.97664 0.3235 0.0
H1025 H 0.04097 0.99221 0.3034 0.0
H1026 H 0.04859 0.05664 0.30766 0.0
H1027 H 0.05033 0.09212 0.35329 0.0
H1028 H 0.95115 0.93989 0.36834 0.0
H1029 H 0.9539 0.97389 0.32206 0.0
H1030 H 0.90638 0.934 0.29324 0.0
H1031 H 0.90376 0.89918 0.33889 0.0
H1032 H 0.93068 0.9313 0.24928 0.0
H1033 H 0.92797 0.06642 0.3026 0.0
H1034 H 0.94371 0.03663 0.31653 0.0
H1035 H 0.92225 0.02553 0.32177 0.0
C1036 C 0.94136 0.93808 0.35202 0.0
C1037 C 0.92716 0.91706 0.35744 0.0
C1038 C 0.94288 0.95781 0.32572 0.0
C1039 C 0.93022 0.95691 0.30443 0.0
C1040 C 0.91625 0.93528 0.30947 0.0
H1041 H 0.90513 0.10129 0.1629 0.0
H1042 H 0.90739 0.06572 0.20819 0.0
C1043 C 0.91471 0.91562 0.33569 0.0
C1044 C 0.93135 0.97859 0.2769 0.0
H1045 H 0.93198 0.06516 0.2509 0.0
C1046 C 0.93106 0.96056 0.24959 0.0
C1047 C 0.93166 0.01678 0.27742 0.0
C1048 C 0.93128 0.03762 0.3061 0.0
C1049 C 0.93093 0.97968 0.22275 0.0
C1050 C 0.93135 0.01787 0.22326 0.0
C1051 C 0.93179 0.03589 0.25058 0.0
C1052 C 0.93035 0.03968 0.19577 0.0
C1053 C 0.92974 0.95886 0.19413 0.0
C1054 C 0.94262 0.03719 0.17384 0.0
C1055 C 0.94127 0.05726 0.1477 0.0
C1056 C 0.92766 0.08034 0.14307 0.0
C1057 C 0.9156 0.08327 0.16542 0.0
C1058 C 0.91694 0.06319 0.19147 0.0
H1059 H 0.92572 0.93053 0.1978 0.0
H1060 H 0.9209 0.97198 0.17868 0.0
H1061 H 0.94209 0.95826 0.18336 0.0
H1062 H 0.95322 0.01969 0.17692 0.0
H1063 H 0.95075 0.05422 0.13093 0.0
H1064 H 0.93709 0.87877 0.66821 0.0
H1065 H 0.93795 0.91216 0.71498 0.0
H1066 H 0.91535 0.00396 0.6724 0.0
H1067 H 0.91439 0.97077 0.62567 0.0
H1068 H 0.95282 0.97709 0.73027 0.0
H1069 H 0.88458 0.98613 0.74222 0.0
H1070 H 0.89439 0.95648 0.71583 0.0
H1071 H 0.89205 0.00376 0.70773 0.0
C1072 C 0.93244 0.90619 0.66875 0.0
C1073 C 0.92553 0.92202 0.64329 0.0
C1074 C 0.93288 0.92517 0.69551 0.0
C1075 C 0.92641 0.96026 0.69731 0.0
C1076 C 0.92001 0.97655 0.67171 0.0
H1077 H 0.91599 0.12402 0.83168 0.0
H1078 H 0.91732 0.08865 0.78612 0.0
C1079 C 0.91949 0.95757 0.64501 0.0
C1080 C 0.92629 0.97988 0.72594 0.0
H1081 H 0.90064 0.02175 0.77528 0.0
C1082 C 0.94141 0.98666 0.74024 0.0
C1083 C 0.91137 0.99217 0.73897 0.0
C1084 C 0.89466 0.98399 0.72558 0.0
C1085 C 0.94206 0.00633 0.7668 0.0
C1086 C 0.92717 0.01918 0.77948 0.0
C1087 C 0.91204 0.01202 0.76538 0.0
C1088 C 0.92696 0.04062 0.80716 0.0
C1089 C 0.95867 0.01406 0.78071 0.0
C1090 C 0.93188 0.02525 0.83414 0.0
C1091 C 0.931 0.04531 0.86034 0.0
C1092 C 0.92513 0.08109 0.86002 0.0
C1093 C 0.92033 0.09639 0.83284 0.0
C1094 C 0.92118 0.07631 0.80673 0.0
H1095 H 0.96905 0.00897 0.76512 0.0
H1096 H 0.95934 0.0425 0.78838 0.0
H1097 H 0.96036 0.99631 0.80025 0.0
H1098 H 0.93609 0.99751 0.83502 0.0
H1099 H 0.93456 0.03249 0.88091 0.0
H1100 H 0.04872 0.93044 0.86238 0.0
H1101 H 0.04746 0.9621 0.81483 0.0
H1102 H 0.10071 0.95792 0.80832 0.0
H1103 H 0.10207 0.92531 0.85519 0.0
H1104 H 0.06179 0.02786 0.79813 0.0
H1105 H 0.08575 0.91553 0.72928 0.0
H1106 H 0.0786 0.90902 0.76675 0.0
H1107 H 0.09897 0.92677 0.75984 0.0
C1108 C 0.06015 0.93594 0.85068 0.0
C1109 C 0.0755 0.92519 0.86258 0.0
C1110 C 0.05941 0.95422 0.82361 0.0
C1111 C 0.07397 0.96184 0.80782 0.0
C1112 C 0.0893 0.95171 0.81985 0.0
H1113 H 0.10226 0.07325 0.64866 0.0
H1114 H 0.10055 0.03985 0.69515 0.0
C1115 C 0.09006 0.93347 0.84687 0.0
C1116 C 0.07322 0.98087 0.77896 0.0
H1117 H 0.08431 0.97333 0.70629 0.0
C1118 C 0.06656 0.01586 0.77798 0.0
C1119 C 0.07942 0.96508 0.75269 0.0
C1120 C 0.08594 0.9269 0.75203 0.0
C1121 C 0.06647 0.03598 0.75161 0.0
C1122 C 0.07299 0.02043 0.7255 0.0
C1123 C 0.07938 0.98522 0.72638 0.0
C1124 C 0.07378 0.04061 0.69719 0.0
C1125 C 0.0599 0.0741 0.7521 0.0
C1126 C 0.05928 0.05175 0.68271 0.0
C1127 C 0.0602 0.07067 0.65595 0.0
C1128 C 0.07566 0.07864 0.6431 0.0
C1129 C 0.09015 0.06714 0.65764 0.0
C1130 C 0.0892 0.04822 0.68433 0.0
H1131 H 0.05871 0.08466 0.77501 0.0
H1132 H 0.0681 0.09242 0.73932 0.0
H1133 H 0.04745 0.07464 0.7417 0.0
H1134 H 0.04724 0.04552 0.69197 0.0
H1135 H 0.0488 0.07863 0.64514 0.0
H1136 H 0.45444 0.88923 0.04153 0.0
H1137 H 0.47002 0.94588 0.04229 0.0
H1138 H 0.49612 0.91379 0.96338 0.0
H1139 H 0.48094 0.85667 0.96277 0.0
H1140 H 0.50616 0.95506 0.04309 0.0
H1141 H 0.47604 0.01533 0.94409 0.0
H1142 H 0.467 0.97824 0.96442 0.0
H1143 H 0.48399 0.9703 0.93963 0.0
C1144 C 0.46362 0.89397 0.02449 0.0
C1145 C 0.46637 0.86832 1.00202 0.0
C1146 C 0.47243 0.92647 0.02489 0.0
C1147 C 0.48405 0.93416 0.0027 0.0
C1148 C 0.48698 0.9086 0.98042 0.0
H1149 H 0.54671 0.11775 0.96141 0.0
H1150 H 0.53163 0.06043 0.96173 0.0
C1151 C 0.47824 0.87601 0.98007 0.0
C1152 C 0.49324 0.96879 0.00301 0.0
H1153 H 0.49852 0.04745 0.9648 0.0
C1154 C 0.50447 0.97537 0.02607 0.0
C1155 C 0.49104 0.99506 0.98068 0.0
C1156 C 0.47878 0.98969 0.95587 0.0
C1157 C 0.51381 0.00736 0.02711 0.0
C1158 C 0.51153 0.03383 0.00487 0.0
C1159 C 0.50026 0.02718 0.98183 0.0
C1160 C 0.52074 0.06856 0.00497 0.0
C1161 C 0.52635 0.01202 0.05158 0.0
C1162 C 0.51946 0.09244 0.029 0.0
C1163 C 0.52811 0.12517 0.0289 0.0
C1164 C 0.53802 0.13491 0.00458 0.0
C1165 C 0.53907 0.11118 0.98036 0.0
C1166 C 0.53051 0.07836 0.98057 0.0
H1167 H 0.52993 0.98569 0.06147 0.0
H1168 H 0.5377 0.0257 0.0434 0.0
H1169 H 0.52087 0.02885 0.06938 0.0
H1170 H 0.51164 0.08594 0.04772 0.0
H1171 H 0.52681 0.14313 0.04766 0.0
H1172 H 0.51764 0.84689 0.47098 0.0
H1173 H 0.50228 0.90403 0.46981 0.0
H1174 H 0.53748 0.95102 0.5303 0.0
H1175 H 0.55298 0.89422 0.53139 0.0
H1176 H 0.48868 0.94277 0.52202 0.0
H1177 H 0.53482 0.02233 0.45798 0.0
H1178 H 0.53442 0.97356 0.45769 0.0
H1179 H 0.54271 0.99724 0.48901 0.0
C1180 C 0.52218 0.8695 0.48382 0.0
C1181 C 0.53653 0.86606 0.50125 0.0
C1182 C 0.51336 0.90201 0.48324 0.0
C1183 C 0.51885 0.93176 0.49975 0.0
C1184 C 0.53314 0.92845 0.51717 0.0
H1185 H 0.48666 0.15304 0.52306 0.0
H1186 H 0.50136 0.09541 0.52328 0.0
C1187 C 0.5419 0.89591 0.51795 0.0
C1188 C 0.50947 0.96614 0.49925 0.0
H1189 H 0.51199 0.05428 0.47769 0.0
C1190 C 0.4937 0.96716 0.51221 0.0
C1191 C 0.51615 0.99784 0.4866 0.0
C1192 C 0.53291 0.99788 0.47181 0.0
C1193 C 0.48452 0.99936 0.51342 0.0
C1194 C 0.49114 0.03113 0.50058 0.0
C1195 C 0.50692 0.02996 0.4875 0.0
C1196 C 0.48199 0.06594 0.50068 0.0
C1197 C 0.46805 0.99922 0.52924 0.0
C1198 C 0.46626 0.06871 0.48762 0.0
C1199 C 0.4577 0.10153 0.48786 0.0
C1200 C 0.46477 0.13248 0.5008 0.0
C1201 C 0.48067 0.1297 0.51339 0.0
C1202 C 0.48917 0.09681 0.51332 0.0
H1203 H 0.46705 0.97624 0.54494 0.0
H1204 H 0.46609 0.02473 0.54164 0.0
H1205 H 0.45796 0.99643 0.51273 0.0
H1206 H 0.46061 0.0455 0.47713 0.0
H1207 H 0.44544 0.10248 0.47818 0.0
H1208 H 0.02388 0.64289 0.96207 0.0
H1209 H 0.00889 0.58555 0.96335 0.0
H1210 H 0.0311 0.56035 0.04756 0.0
H1211 H 0.04643 0.6173 0.04626 0.0
H1212 H 0.02322 0.51424 0.96824 0.0
H1213 H 0.98051 0.54635 0.06112 0.0
H1214 H 0.99149 0.58083 0.04077 0.0
H1215 H 0.00215 0.55425 0.06798 0.0
C1216 C 0.02568 0.6251 0.9808 0.0
C1217 C 0.03638 0.6348 0.00408 0.0
C1218 C 0.01702 0.59243 0.98156 0.0
C1219 C 0.01875 0.56893 0.00569 0.0
C1220 C 0.02937 0.57843 0.02898 0.0
H1221 H 0.97461 0.36065 0.04823 0.0
H1222 H 0.99029 0.41726 0.0488 0.0
C1223 C 0.03809 0.61105 0.02822 0.0
C1224 C 0.00978 0.53402 0.00602 0.0
H1225 H 0.97972 0.48679 0.04245 0.0
C1226 C 0.01368 0.50821 0.98441 0.0
C1227 C 0.99744 0.52622 0.02727 0.0
C1228 C 0.9925 0.5534 0.05051 0.0
C1229 C 0.00567 0.47456 0.98363 0.0
C1230 C 0.99312 0.46692 0.00461 0.0
C1231 C 0.98932 0.49268 0.02637 0.0
C1232 C 0.98365 0.43254 0.00414 0.0
C1233 C 0.011 0.44727 0.96074 0.0
C1234 C 0.97452 0.42256 0.97901 0.0
C1235 C 0.9656 0.39021 0.97859 0.0
C1236 C 0.96545 0.3674 0.00347 0.0
C1237 C 0.97439 0.37775 0.0288 0.0
C1238 C 0.9834 0.41002 0.02912 0.0
H1239 H 0.02371 0.45286 0.9525 0.0
H1240 H 0.01066 0.41942 0.9698 0.0
H1241 H 0.00244 0.44861 0.94156 0.0
H1242 H 0.97414 0.43997 0.95977 0.0
H1243 H 0.95859 0.38334 0.95896 0.0
H1244 H 0.04867 0.38799 0.46272 0.0
H1245 H 0.03318 0.44467 0.46164 0.0
H1246 H 0.00678 0.41296 0.54039 0.0
H1247 H 0.02176 0.35559 0.54103 0.0
H1248 H 0.98624 0.44143 0.49759 0.0
H1249 H 0.04038 0.53085 0.51626 0.0
H1250 H 0.04264 0.5011 0.48517 0.0
H1251 H 0.04127 0.48265 0.52188 0.0
C1252 C 0.03947 0.39288 0.47967 0.0
C1253 C 0.03652 0.36722 0.50204 0.0
C1254 C 0.03077 0.42552 0.47922 0.0
C1255 C 0.01904 0.43333 0.50123 0.0
C1256 C 0.01588 0.40761 0.52332 0.0
H1257 H 0.97628 0.64213 0.54281 0.0
H1258 H 0.99138 0.58492 0.54273 0.0
C1259 C 0.02455 0.37494 0.52378 0.0
C1260 C 0.00986 0.46807 0.50103 0.0
H1261 H 0.01498 0.55954 0.50403 0.0
C1262 C 0.99251 0.46727 0.49904 0.0
C1263 C 0.01806 0.50173 0.50331 0.0
C1264 C 0.0366 0.50428 0.50706 0.0
C1265 C 0.98314 0.49922 0.49893 0.0
C1266 C 0.99137 0.53291 0.50032 0.0
C1267 C 0.00871 0.5337 0.50266 0.0
C1268 C 0.9822 0.56765 0.50006 0.0
C1269 C 0.96449 0.49655 0.49797 0.0
C1270 C 0.97218 0.5772 0.47591 0.0
C1271 C 0.9634 0.60976 0.476 0.0
C1272 C 0.96455 0.63358 0.50017 0.0
C1273 C 0.97487 0.62419 0.52407 0.0
C1274 C 0.98361 0.59161 0.52397 0.0
H1275 H 0.96009 0.46939 0.50481 0.0
H1276 H 0.95868 0.51709 0.51255 0.0
H1277 H 0.96019 0.50141 0.47499 0.0
H1278 H 0.97116 0.55946 0.45696 0.0
H1279 H 0.9555 0.61596 0.45732 0.0
loop_
_geom_bond_atom_site_label_1
_geom_bond_atom_site_label_2
_geom_bond_distance
_geom_bond_site_symmetry_2
_ccdc_geom_bond_type
Li0 N17 1.990 . S
Li0 O60 1.936 1_554 S
Li0 O61 1.970 . S
Li0 O62 1.986 . S
Li1 N25 1.991 . S
Li1 O60 1.969 1_554 S
Li1 O61 1.983 . S
Li1 O63 1.933 1_554 S
Li2 N47 1.990 . S
Li2 O60 1.980 . S
Li2 O62 1.930 1_556 S
Li2 O63 1.970 . S
Li3 N53 1.991 . S
Li3 O61 1.939 1_556 S
Li3 O62 1.969 1_556 S
Li3 O63 1.977 . S
C4 C6 1.346 . S
C4 C7 1.357 1_554 S
C4 O60 1.324 1_554 S
N5 C8 1.314 . S
N5 C9 1.279 1_554 S
C6 C4 1.346 . S
C6 C8 1.353 . S
C6 H64 0.929 . S
C7 C4 1.357 1_556 S
C7 C9 1.358 . S
C7 H65 0.930 . S
C8 N5 1.314 . S
C8 C6 1.353 . S
C8 H66 0.930 . S
C9 N5 1.279 1_556 S
C9 C7 1.358 . S
C9 H67 0.930 . S
C10 C13 1.348 . S
C10 C14 1.356 . S
C10 O61 1.325 . S
C11 N12 1.279 . S
C11 C14 1.358 . S
C11 H68 0.930 . S
N12 C11 1.279 . S
N12 C15 1.314 . S
C13 C10 1.348 . S
C13 C15 1.353 . S
C13 H69 0.929 . S
C14 C10 1.356 . S
C14 C11 1.358 . S
C14 H70 0.930 . S
C15 N12 1.314 . S
C15 C13 1.353 . S
C15 H71 0.930 . S
C16 N17 1.314 . S
C16 C21 1.353 . S
C16 H22 0.930 . S
N17 Li0 1.990 . S
N17 C16 1.314 . S
N17 C19 1.279 . S
C18 C19 1.358 . S
C18 C20 1.356 . S
C18 H72 0.930 . S
C19 N17 1.279 . S
C19 C18 1.358 . S
C19 H23 0.930 . S
C20 C18 1.356 . S
C20 C21 1.348 . S
C21 C16 1.353 . S
C21 C20 1.348 . S
C21 H73 0.929 . S
H22 C16 0.930 . S
H23 C19 0.930 . S
C24 N25 1.314 1_556 S
C24 C26 1.353 . S
C24 H30 0.930 . S
N25 Li1 1.991 . S
N25 C24 1.314 1_554 S
N25 C28 1.279 . S
C26 C24 1.353 . S
C26 C29 1.345 1_556 S
C26 H74 0.929 . S
C27 C28 1.358 . S
C27 C29 1.359 . S
C27 H75 0.930 . S
C28 N25 1.279 . S
C28 C27 1.358 . S
C28 H31 0.930 . S
C29 C26 1.345 1_554 S
C29 C27 1.359 . S
H30 C24 0.930 . S
H31 C28 0.930 . S
C32 C34 1.346 1_554 S
C32 C35 1.357 . S
C32 O62 1.324 . S
N33 C36 1.314 . S
N33 C37 1.279 1_556 S
C34 C32 1.346 1_556 S
C34 C36 1.353 . S
C34 H76 0.929 . S
C35 C32 1.357 . S
C35 C37 1.358 . S
C35 H77 0.930 . S
C36 N33 1.314 . S
C36 C34 1.353 . S
C36 H78 0.930 . S
C37 N33 1.279 1_554 S
C37 C35 1.358 . S
C37 H79 0.930 . S
C38 C39 1.348 . S
C38 C40 1.356 . S
C38 O63 1.325 . S
C39 C38 1.348 . S
C39 C41 1.353 . S
C39 H80 0.929 . S
C40 C38 1.356 . S
C40 C42 1.358 . S
C40 H81 0.930 . S
C41 C39 1.353 . S
C41 N43 1.314 . S
C41 H82 0.930 . S
C42 C40 1.358 . S
C42 N43 1.279 . S
C42 H83 0.930 . S
N43 C41 1.314 . S
N43 C42 1.279 . S
C44 C46 1.353 . S
C44 N47 1.314 . S
C44 H50 0.930 . S
C45 N47 1.279 . S
C45 C48 1.358 . S
C45 H51 0.930 . S
C46 C44 1.353 . S
C46 C49 1.348 . S
C46 H84 0.929 . S
N47 Li2 1.990 . S
N47 C44 1.314 . S
N47 C45 1.279 . S
C48 C45 1.358 . S
C48 C49 1.356 . S
C48 H85 0.930 . S
C49 C46 1.348 . S
C49 C48 1.356 . S
H50 C44 0.930 . S
H51 C45 0.930 . S
C52 N53 1.314 1_554 S
C52 C54 1.353 . S
C52 H58 0.930 . S
N53 Li3 1.991 . S
N53 C52 1.314 1_556 S
N53 C56 1.279 . S
C54 C52 1.353 . S
C54 C57 1.345 . S
C54 H86 0.929 . S
C55 C56 1.358 . S
C55 C57 1.359 1_556 S
C55 H87 0.930 . S
C56 N53 1.279 . S
C56 C55 1.358 . S
C56 H59 0.930 . S
C57 C54 1.345 . S
C57 C55 1.359 1_554 S
H58 C52 0.930 . S
H59 C56 0.930 . S
O60 Li0 1.936 1_556 S
O60 Li1 1.969 1_556 S
O60 Li2 1.980 . S
O60 C4 1.324 1_556 S
O61 Li0 1.970 . S
O61 Li1 1.983 . S
O61 Li3 1.939 1_554 S
O61 C10 1.325 . S
O62 Li0 1.986 . S
O62 Li2 1.930 1_554 S
O62 Li3 1.969 1_554 S
O62 C32 1.324 . S
O63 Li1 1.933 1_556 S
O63 Li2 1.970 . S
O63 Li3 1.977 . S
O63 C38 1.325 . S
H64 C6 0.929 . S
H65 C7 0.930 . S
H66 C8 0.930 . S
H67 C9 0.930 . S
H68 C11 0.930 . S
H69 C13 0.929 . S
H70 C14 0.930 . S
H71 C15 0.930 . S
H72 C18 0.930 . S
H73 C21 0.929 . S
H74 C26 0.929 . S
H75 C27 0.930 . S
H76 C34 0.929 . S
H77 C35 0.930 . S
H78 C36 0.930 . S
H79 C37 0.930 . S
H80 C39 0.929 . S
H81 C40 0.930 . S
H82 C41 0.930 . S
H83 C42 0.930 . S
H84 C46 0.929 . S
H85 C48 0.930 . S
H86 C54 0.929 . S
H87 C55 0.930 . S
Li88 N105 1.991 . S
Li88 O148 1.983 . S
Li88 O149 1.969 1_554 S
Li88 O150 1.933 1_554 S
Li89 N113 1.990 . S
Li89 O148 1.970 . S
Li89 O149 1.936 1_554 S
Li89 O151 1.986 . S
Li90 N135 1.991 . S
Li90 O148 1.939 1_556 S
Li90 O150 1.977 . S
Li90 O151 1.969 1_556 S
Li91 N141 1.990 . S
Li91 O149 1.980 . S
Li91 O150 1.970 . S
Li91 O151 1.930 1_556 S
C92 C94 1.348 . S
C92 C95 1.356 . S
C92 O148 1.325 . S
N93 C96 1.314 . S
N93 C97 1.279 . S
C94 C92 1.348 . S
C94 C96 1.353 . S
C94 H152 0.929 . S
C95 C92 1.356 . S
C95 C97 1.358 . S
C95 H153 0.930 . S
C96 N93 1.314 . S
C96 C94 1.353 . S
C96 H154 0.930 . S
C97 N93 1.279 . S
C97 C95 1.358 . S
C97 H155 0.930 . S
C98 C101 1.346 . S
C98 C102 1.357 1_554 S
C98 O149 1.324 1_554 S
C99 N100 1.279 1_556 S
C99 C102 1.358 . S
C99 H156 0.930 . S
N100 C99 1.279 1_554 S
N100 C103 1.314 . S
C101 C98 1.346 . S
C101 C103 1.353 . S
C101 H157 0.929 . S
C102 C98 1.357 1_556 S
C102 C99 1.358 . S
C102 H158 0.930 . S
C103 N100 1.314 . S
C103 C101 1.353 . S
C103 H159 0.930 . S
C104 N105 1.314 1_556 S
C104 C109 1.353 . S
C104 H110 0.930 . S
N105 Li88 1.991 . S
N105 C104 1.314 1_554 S
N105 C107 1.279 . S
C106 C107 1.358 . S
C106 C108 1.359 . S
C106 H160 0.930 . S
C107 N105 1.279 . S
C107 C106 1.358 . S
C107 H111 0.930 . S
C108 C106 1.359 . S
C108 C109 1.345 1_554 S
C109 C104 1.353 . S
C109 C108 1.345 1_556 S
C109 H161 0.929 . S
H110 C104 0.930 . S
H111 C107 0.930 . S
C112 N113 1.314 . S
C112 C114 1.353 . S
C112 H118 0.930 . S
N113 Li89 1.990 . S
N113 C112 1.314 . S
N113 C116 1.279 . S
C114 C112 1.353 . S
C114 C117 1.348 . S
C114 H162 0.929 . S
C115 C116 1.358 . S
C115 C117 1.356 . S
C115 H163 0.930 . S
C116 N113 1.279 . S
C116 C115 1.358 . S
C116 H119 0.930 . S
C117 C114 1.348 . S
C117 C115 1.356 . S
H118 C112 0.930 . S
H119 C116 0.930 . S
C120 C122 1.348 . S
C120 C123 1.356 . S
C120 O150 1.325 . S
N121 C124 1.314 . S
N121 C125 1.279 . S
C122 C120 1.348 . S
C122 C124 1.353 . S
C122 H164 0.929 . S
C123 C120 1.356 . S
C123 C125 1.358 . S
C123 H165 0.930 . S
C124 N121 1.314 . S
C124 C122 1.353 . S
C124 H166 0.930 . S
C125 N121 1.279 . S
C125 C123 1.358 . S
C125 H167 0.930 . S
C126 C127 1.346 1_554 S
C126 C128 1.357 . S
C126 O151 1.324 . S
C127 C126 1.346 1_556 S
C127 C129 1.353 . S
C127 H168 0.929 . S
C128 C126 1.357 . S
C128 C130 1.358 . S
C128 H169 0.930 . S
C129 C127 1.353 . S
C129 N131 1.314 . S
C129 H170 0.930 . S
C130 C128 1.358 . S
C130 N131 1.279 1_554 S
C130 H171 0.930 . S
N131 C129 1.314 . S
N131 C130 1.279 1_556 S
C132 C134 1.353 . S
C132 N135 1.314 1_554 S
C132 H138 0.930 . S
C133 N135 1.279 . S
C133 C136 1.358 . S
C133 H139 0.930 . S
C134 C132 1.353 . S
C134 C137 1.345 . S
C134 H172 0.929 . S
N135 Li90 1.991 . S
N135 C132 1.314 1_556 S
N135 C133 1.279 . S
C136 C133 1.358 . S
C136 C137 1.359 1_556 S
C136 H173 0.930 . S
C137 C134 1.345 . S
C137 C136 1.359 1_554 S
H138 C132 0.930 . S
H139 C133 0.930 . S
C140 N141 1.314 . S
C140 C142 1.353 . S
C140 H146 0.930 . S
N141 Li91 1.990 . S
N141 C140 1.314 . S
N141 C144 1.279 . S
C142 C140 1.353 . S
C142 C145 1.348 . S
C142 H174 0.929 . S
C143 C144 1.358 . S
C143 C145 1.356 . S
C143 H175 0.930 . S
C144 N141 1.279 . S
C144 C143 1.358 . S
C144 H147 0.930 . S
C145 C142 1.348 . S
C145 C143 1.356 . S
H146 C140 0.930 . S
H147 C144 0.930 . S
O148 Li88 1.983 . S
O148 Li89 1.970 . S
O148 Li90 1.939 1_554 S
O148 C92 1.325 . S
O149 Li88 1.969 1_556 S
O149 Li89 1.936 1_556 S
O149 Li91 1.980 . S
O149 C98 1.324 1_556 S
O150 Li88 1.933 1_556 S
O150 Li90 1.977 . S
O150 Li91 1.970 . S
O150 C120 1.325 . S
O151 Li89 1.986 . S
O151 Li90 1.969 1_554 S
O151 Li91 1.930 1_554 S
O151 C126 1.324 . S
H152 C94 0.929 . S
H153 C95 0.930 . S
H154 C96 0.930 . S
H155 C97 0.930 . S
H156 C99 0.930 . S
H157 C101 0.929 . S
H158 C102 0.930 . S
H159 C103 0.930 . S
H160 C106 0.930 . S
H161 C109 0.929 . S
H162 C114 0.929 . S
H163 C115 0.930 . S
H164 C122 0.929 . S
H165 C123 0.930 . S
H166 C124 0.930 . S
H167 C125 0.930 . S
H168 C127 0.929 . S
H169 C128 0.930 . S
H170 C129 0.930 . S
H171 C130 0.930 . S
H172 C134 0.929 . S
H173 C136 0.930 . S
H174 C142 0.929 . S
H175 C143 0.930 . S
Li176 N193 1.990 . S
Li176 O236 1.956 . S
Li176 O237 1.970 . S
Li176 O238 1.961 . S
Li177 N201 1.990 . S
Li177 O236 1.970 . S
Li177 O237 1.956 . S
Li177 O239 1.961 . S
Li178 N223 1.990 . S
Li178 O236 1.961 . S
Li178 O238 1.956 . S
Li178 O239 1.970 . S
Li179 N229 1.990 . S
Li179 O237 1.961 . S
Li179 O238 1.970 . S
Li179 O239 1.956 . S
C180 C182 1.348 . S
C180 C183 1.356 . S
C180 O236 1.325 . S
N181 C184 1.314 . S
N181 C185 1.279 . S
C182 C180 1.348 . S
C182 C184 1.353 . S
C182 H240 0.929 . S
C183 C180 1.356 . S
C183 C185 1.358 . S
C183 H241 0.930 . S
C184 N181 1.314 . S
C184 C182 1.353 . S
C184 H242 0.930 . S
C185 N181 1.279 . S
C185 C183 1.358 . S
C185 H243 0.930 . S
C186 C189 1.348 . S
C186 C190 1.356 . S
C186 O237 1.325 . S
C187 N188 1.279 . S
C187 C190 1.358 . S
C187 H244 0.930 . S
N188 C187 1.279 . S
N188 C191 1.314 . S
C189 C186 1.348 . S
C189 C191 1.353 . S
C189 H245 0.929 . S
C190 C186 1.356 . S
C190 C187 1.358 . S
C190 H246 0.930 . S
C191 N188 1.314 . S
C191 C189 1.353 . S
C191 H247 0.930 . S
C192 N193 1.314 . S
C192 C197 1.353 . S
C192 H198 0.930 . S
N193 Li176 1.990 . S
N193 C192 1.314 . S
N193 C195 1.279 . S
C194 C195 1.358 . S
C194 C196 1.356 . S
C194 H248 0.930 . S
C195 N193 1.279 . S
C195 C194 1.358 . S
C195 H199 0.930 . S
C196 C194 1.356 . S
C196 C197 1.348 . S
C197 C192 1.353 . S
C197 C196 1.348 . S
C197 H249 0.929 . S
H198 C192 0.930 . S
H199 C195 0.930 . S
C200 N201 1.314 . S
C200 C202 1.353 . S
C200 H206 0.930 . S
N201 Li177 1.990 . S
N201 C200 1.314 . S
N201 C204 1.279 . S
C202 C200 1.353 . S
C202 C205 1.348 . S
C202 H250 0.929 . S
C203 C204 1.358 . S
C203 C205 1.356 . S
C203 H251 0.930 . S
C204 N201 1.279 . S
C204 C203 1.358 . S
C204 H207 0.930 . S
C205 C202 1.348 . S
C205 C203 1.356 . S
H206 C200 0.930 . S
H207 C204 0.930 . S
C208 C210 1.348 . S
C208 C211 1.356 . S
C208 O238 1.325 . S
N209 C212 1.314 . S
N209 C213 1.279 . S
C210 C208 1.348 . S
C210 C212 1.353 . S
C210 H252 0.929 . S
C211 C208 1.356 . S
C211 C213 1.358 . S
C211 H253 0.930 . S
C212 N209 1.314 . S
C212 C210 1.353 . S
C212 H254 0.930 . S
C213 N209 1.279 . S
C213 C211 1.358 . S
C213 H255 0.930 . S
C214 C215 1.348 . S
C214 C216 1.356 . S
C214 O239 1.325 . S
C215 C214 1.348 . S
C215 C217 1.353 . S
C215 H256 0.929 . S
C216 C214 1.356 . S
C216 C218 1.358 . S
C216 H257 0.930 . S
C217 C215 1.353 . S
C217 N219 1.314 . S
C217 H258 0.930 . S
C218 C216 1.358 . S
C218 N219 1.279 . S
C218 H259 0.930 . S
N219 C217 1.314 . S
N219 C218 1.279 . S
C220 C222 1.353 . S
C220 N223 1.314 . S
C220 H226 0.930 . S
C221 N223 1.279 . S
C221 C224 1.358 . S
C221 H227 0.930 . S
C222 C220 1.353 . S
C222 C225 1.348 . S
C222 H260 0.929 . S
N223 Li178 1.990 . S
N223 C220 1.314 . S
N223 C221 1.279 . S
C224 C221 1.358 . S
C224 C225 1.356 . S
C224 H261 0.930 . S
C225 C222 1.348 . S
C225 C224 1.356 . S
H226 C220 0.930 . S
H227 C221 0.930 . S
C228 N229 1.314 . S
C228 C230 1.353 . S
C228 H234 0.930 . S
N229 Li179 1.990 . S
N229 C228 1.314 . S
N229 C232 1.279 . S
C230 C228 1.353 . S
C230 C233 1.348 . S
C230 H262 0.929 . S
C231 C232 1.358 . S
C231 C233 1.356 . S
C231 H263 0.930 . S
C232 N229 1.279 . S
C232 C231 1.358 . S
C232 H235 0.930 . S
C233 C230 1.348 . S
C233 C231 1.356 . S
H234 C228 0.930 . S
H235 C232 0.930 . S
O236 Li176 1.956 . S
O236 Li177 1.970 . S
O236 Li178 1.961 . S
O236 C180 1.325 . S
O237 Li176 1.970 . S
O237 Li177 1.956 . S
O237 Li179 1.961 . S
O237 C186 1.325 . S
O238 Li176 1.961 . S
O238 Li178 1.956 . S
O238 Li179 1.970 . S
O238 C208 1.325 . S
O239 Li177 1.961 . S
O239 Li178 1.970 . S
O239 Li179 1.956 . S
O239 C214 1.325 . S
H240 C182 0.929 . S
H241 C183 0.930 . S
H242 C184 0.930 . S
H243 C185 0.930 . S
H244 C187 0.930 . S
H245 C189 0.929 . S
H246 C190 0.930 . S
H247 C191 0.930 . S
H248 C194 0.930 . S
H249 C197 0.929 . S
H250 C202 0.929 . S
H251 C203 0.930 . S
H252 C210 0.929 . S
H253 C211 0.930 . S
H254 C212 0.930 . S
H255 C213 0.930 . S
H256 C215 0.929 . S
H257 C216 0.930 . S
H258 C217 0.930 . S
H259 C218 0.930 . S
H260 C222 0.929 . S
H261 C224 0.930 . S
H262 C230 0.929 . S
H263 C231 0.930 . S
Li264 N281 1.990 . S
Li264 O324 1.956 . S
Li264 O325 1.970 . S
Li264 O326 1.961 . S
Li265 N289 1.990 . S
Li265 O324 1.970 . S
Li265 O325 1.956 . S
Li265 O327 1.961 . S
Li266 N311 1.990 . S
Li266 O324 1.961 . S
Li266 O326 1.956 . S
Li266 O327 1.970 . S
Li267 N317 1.990 . S
Li267 O325 1.961 . S
Li267 O326 1.970 . S
Li267 O327 1.956 . S
C268 C270 1.348 . S
C268 C271 1.356 . S
C268 O324 1.325 . S
N269 C272 1.314 . S
N269 C273 1.279 . S
C270 C268 1.348 . S
C270 C272 1.353 . S
C270 H328 0.929 . S
C271 C268 1.356 . S
C271 C273 1.358 . S
C271 H329 0.930 . S
C272 N269 1.314 . S
C272 C270 1.353 . S
C272 H330 0.930 . S
C273 N269 1.279 . S
C273 C271 1.358 . S
C273 H331 0.930 . S
C274 C277 1.348 . S
C274 C278 1.356 . S
C274 O325 1.325 . S
C275 N276 1.279 . S
C275 C278 1.358 . S
C275 H332 0.930 . S
N276 C275 1.279 . S
N276 C279 1.314 . S
C277 C274 1.348 . S
C277 C279 1.353 . S
C277 H333 0.929 . S
C278 C274 1.356 . S
C278 C275 1.358 . S
C278 H334 0.930 . S
C279 N276 1.314 . S
C279 C277 1.353 . S
C279 H335 0.930 . S
C280 N281 1.314 . S
C280 C285 1.353 . S
C280 H286 0.930 . S
N281 Li264 1.990 . S
N281 C280 1.314 . S
N281 C283 1.279 . S
C282 C283 1.358 . S
C282 C284 1.356 . S
C282 H336 0.930 . S
C283 N281 1.279 . S
C283 C282 1.358 . S
C283 H287 0.930 . S
C284 C282 1.356 . S
C284 C285 1.348 . S
C285 C280 1.353 . S
C285 C284 1.348 . S
C285 H337 0.929 . S
H286 C280 0.930 . S
H287 C283 0.930 . S
C288 N289 1.314 . S
C288 C290 1.353 . S
C288 H294 0.930 . S
N289 Li265 1.990 . S
N289 C288 1.314 . S
N289 C292 1.279 . S
C290 C288 1.353 . S
C290 C293 1.348 . S
C290 H338 0.929 . S
C291 C292 1.358 . S
C291 C293 1.356 . S
C291 H339 0.930 . S
C292 N289 1.279 . S
C292 C291 1.358 . S
C292 H295 0.930 . S
C293 C290 1.348 . S
C293 C291 1.356 . S
H294 C288 0.930 . S
H295 C292 0.930 . S
C296 C298 1.348 . S
C296 C299 1.356 . S
C296 O326 1.325 . S
N297 C300 1.314 . S
N297 C301 1.279 . S
C298 C296 1.348 . S
C298 C300 1.353 . S
C298 H340 0.929 . S
C299 C296 1.356 . S
C299 C301 1.358 . S
C299 H341 0.930 . S
C300 N297 1.314 . S
C300 C298 1.353 . S
C300 H342 0.930 . S
C301 N297 1.279 . S
C301 C299 1.358 . S
C301 H343 0.930 . S
C302 C303 1.348 . S
C302 C304 1.356 . S
C302 O327 1.325 . S
C303 C302 1.348 . S
C303 C305 1.353 . S
C303 H344 0.929 . S
C304 C302 1.356 . S
C304 C306 1.358 . S
C304 H345 0.930 . S
C305 C303 1.353 . S
C305 N307 1.314 . S
C305 H346 0.930 . S
C306 C304 1.358 . S
C306 N307 1.279 . S
C306 H347 0.930 . S
N307 C305 1.314 . S
N307 C306 1.279 . S
C308 C310 1.353 . S
C308 N311 1.314 . S
C308 H314 0.930 . S
C309 N311 1.279 . S
C309 C312 1.358 . S
C309 H315 0.930 . S
C310 C308 1.353 . S
C310 C313 1.348 . S
C310 H348 0.929 . S
N311 Li266 1.990 . S
N311 C308 1.314 . S
N311 C309 1.279 . S
C312 C309 1.358 . S
C312 C313 1.356 . S
C312 H349 0.930 . S
C313 C310 1.348 . S
C313 C312 1.356 . S
H314 C308 0.930 . S
H315 C309 0.930 . S
C316 N317 1.314 . S
C316 C318 1.353 . S
C316 H322 0.930 . S
N317 Li267 1.990 . S
N317 C316 1.314 . S
N317 C320 1.279 . S
C318 C316 1.353 . S
C318 C321 1.348 . S
C318 H350 0.929 . S
C319 C320 1.358 . S
C319 C321 1.356 . S
C319 H351 0.930 . S
C320 N317 1.279 . S
C320 C319 1.358 . S
C320 H323 0.930 . S
C321 C318 1.348 . S
C321 C319 1.356 . S
H322 C316 0.930 . S
H323 C320 0.930 . S
O324 Li264 1.956 . S
O324 Li265 1.970 . S
O324 Li266 1.961 . S
O324 C268 1.325 . S
O325 Li264 1.970 . S
O325 Li265 1.956 . S
O325 Li267 1.961 . S
O325 C274 1.325 . S
O326 Li264 1.961 . S
O326 Li266 1.956 . S
O326 Li267 1.970 . S
O326 C296 1.325 . S
O327 Li265 1.961 . S
O327 Li266 1.970 . S
O327 Li267 1.956 . S
O327 C302 1.325 . S
H328 C270 0.929 . S
H329 C271 0.930 . S
H330 C272 0.930 . S
H331 C273 0.930 . S
H332 C275 0.930 . S
H333 C277 0.929 . S
H334 C278 0.930 . S
H335 C279 0.930 . S
H336 C282 0.930 . S
H337 C285 0.929 . S
H338 C290 0.929 . S
H339 C291 0.930 . S
H340 C298 0.929 . S
H341 C299 0.930 . S
H342 C300 0.930 . S
H343 C301 0.930 . S
H344 C303 0.929 . S
H345 C304 0.930 . S
H346 C305 0.930 . S
H347 C306 0.930 . S
H348 C310 0.929 . S
H349 C312 0.930 . S
H350 C318 0.929 . S
H351 C319 0.930 . S
Li352 N369 1.990 . S
Li352 O412 1.936 1_554 S
Li352 O413 1.970 . S
Li352 O414 1.986 . S
Li353 N377 1.991 . S
Li353 O412 1.969 1_554 S
Li353 O413 1.983 . S
Li353 O415 1.933 1_554 S
Li354 N399 1.990 . S
Li354 O412 1.980 . S
Li354 O414 1.930 1_556 S
Li354 O415 1.970 . S
Li355 N405 1.991 . S
Li355 O413 1.939 1_556 S
Li355 O414 1.969 1_556 S
Li355 O415 1.977 . S
C356 C358 1.346 . S
C356 C359 1.357 1_554 S
C356 O412 1.324 1_554 S
N357 C360 1.314 . S
N357 C361 1.279 1_554 S
C358 C356 1.346 . S
C358 C360 1.353 . S
C358 H416 0.929 . S
C359 C356 1.357 1_556 S
C359 C361 1.358 . S
C359 H417 0.930 . S
C360 N357 1.314 . S
C360 C358 1.353 . S
C360 H418 0.930 . S
C361 N357 1.279 1_556 S
C361 C359 1.358 . S
C361 H419 0.930 . S
C362 C365 1.348 . S
C362 C366 1.356 . S
C362 O413 1.325 . S
C363 N364 1.279 . S
C363 C366 1.358 . S
C363 H420 0.930 . S
N364 C363 1.279 . S
N364 C367 1.314 . S
C365 C362 1.348 . S
C365 C367 1.353 . S
C365 H421 0.929 . S
C366 C362 1.356 . S
C366 C363 1.358 . S
C366 H422 0.930 . S
C367 N364 1.314 . S
C367 C365 1.353 . S
C367 H423 0.930 . S
C368 N369 1.314 . S
C368 C373 1.353 . S
C368 H374 0.930 . S
N369 Li352 1.990 . S
N369 C368 1.314 . S
N369 C371 1.279 . S
C370 C371 1.358 . S
C370 C372 1.356 . S
C370 H424 0.930 . S
C371 N369 1.279 . S
C371 C370 1.358 . S
C371 H375 0.930 . S
C372 C370 1.356 . S
C372 C373 1.348 . S
C373 C368 1.353 . S
C373 C372 1.348 . S
C373 H425 0.929 . S
H374 C368 0.930 . S
H375 C371 0.930 . S
C376 N377 1.314 1_556 S
C376 C378 1.353 . S
C376 H382 0.930 . S
N377 Li353 1.991 . S
N377 C376 1.314 1_554 S
N377 C380 1.279 . S
C378 C376 1.353 . S
C378 C381 1.345 1_556 S
C378 H426 0.929 . S
C379 C380 1.358 . S
C379 C381 1.359 . S
C379 H427 0.930 . S
C380 N377 1.279 . S
C380 C379 1.358 . S
C380 H383 0.930 . S
C381 C378 1.345 1_554 S
C381 C379 1.359 . S
H382 C376 0.930 . S
H383 C380 0.930 . S
C384 C386 1.346 1_554 S
C384 C387 1.357 . S
C384 O414 1.324 . S
N385 C388 1.314 . S
N385 C389 1.279 1_556 S
C386 C384 1.346 1_556 S
C386 C388 1.353 . S
C386 H428 0.929 . S
C387 C384 1.357 . S
C387 C389 1.358 . S
C387 H429 0.930 . S
C388 N385 1.314 . S
C388 C386 1.353 . S
C388 H430 0.930 . S
C389 N385 1.279 1_554 S
C389 C387 1.358 . S
C389 H431 0.930 . S
C390 C391 1.348 . S
C390 C392 1.356 . S
C390 O415 1.325 . S
C391 C390 1.348 . S
C391 C393 1.353 . S
C391 H432 0.929 . S
C392 C390 1.356 . S
C392 C394 1.358 . S
C392 H433 0.930 . S
C393 C391 1.353 . S
C393 N395 1.314 . S
C393 H434 0.930 . S
C394 C392 1.358 . S
C394 N395 1.279 . S
C394 H435 0.930 . S
N395 C393 1.314 . S
N395 C394 1.279 . S
C396 C398 1.353 . S
C396 N399 1.314 . S
C396 H402 0.930 . S
C397 N399 1.279 . S
C397 C400 1.358 . S
C397 H403 0.930 . S
C398 C396 1.353 . S
C398 C401 1.348 . S
C398 H436 0.929 . S
N399 Li354 1.990 . S
N399 C396 1.314 . S
N399 C397 1.279 . S
C400 C397 1.358 . S
C400 C401 1.356 . S
C400 H437 0.930 . S
C401 C398 1.348 . S
C401 C400 1.356 . S
H402 C396 0.930 . S
H403 C397 0.930 . S
C404 N405 1.314 1_554 S
C404 C406 1.353 . S
C404 H410 0.930 . S
N405 Li355 1.991 . S
N405 C404 1.314 1_556 S
N405 C408 1.279 . S
C406 C404 1.353 . S
C406 C409 1.345 . S
C406 H438 0.929 . S
C407 C408 1.358 . S
C407 C409 1.359 1_556 S
C407 H439 0.930 . S
C408 N405 1.279 . S
C408 C407 1.358 . S
C408 H411 0.930 . S
C409 C406 1.345 . S
C409 C407 1.359 1_554 S
H410 C404 0.930 . S
H411 C408 0.930 . S
O412 Li352 1.936 1_556 S
O412 Li353 1.969 1_556 S
O412 Li354 1.980 . S
O412 C356 1.324 1_556 S
O413 Li352 1.970 . S
O413 Li353 1.983 . S
O413 Li355 1.939 1_554 S
O413 C362 1.325 . S
O414 Li352 1.986 . S
O414 Li354 1.930 1_554 S
O414 Li355 1.969 1_554 S
O414 C384 1.324 . S
O415 Li353 1.933 1_556 S
O415 Li354 1.970 . S
O415 Li355 1.977 . S
O415 C390 1.325 . S
H416 C358 0.929 . S
H417 C359 0.930 . S
H418 C360 0.930 . S
H419 C361 0.930 . S
H420 C363 0.930 . S
H421 C365 0.929 . S
H422 C366 0.930 . S
H423 C367 0.930 . S
H424 C370 0.930 . S
H425 C373 0.929 . S
H426 C378 0.929 . S
H427 C379 0.930 . S
H428 C386 0.929 . S
H429 C387 0.930 . S
H430 C388 0.930 . S
H431 C389 0.930 . S
H432 C391 0.929 . S
H433 C392 0.930 . S
H434 C393 0.930 . S
H435 C394 0.930 . S
H436 C398 0.929 . S
H437 C400 0.930 . S
H438 C406 0.929 . S
H439 C407 0.930 . S
Li440 N457 1.991 . S
Li440 O500 1.983 . S
Li440 O501 1.969 1_554 S
Li440 O502 1.933 1_554 S
Li441 N465 1.990 . S
Li441 O500 1.970 . S
Li441 O501 1.936 1_554 S
Li441 O503 1.986 . S
Li442 N487 1.991 . S
Li442 O500 1.939 1_556 S
Li442 O502 1.977 . S
Li442 O503 1.969 1_556 S
Li443 N493 1.990 . S
Li443 O501 1.980 . S
Li443 O502 1.970 . S
Li443 O503 1.930 1_556 S
C444 C446 1.348 . S
C444 C447 1.356 . S
C444 O500 1.325 . S
N445 C448 1.314 . S
N445 C449 1.279 . S
C446 C444 1.348 . S
C446 C448 1.353 . S
C446 H504 0.929 . S
C447 C444 1.356 . S
C447 C449 1.358 . S
C447 H505 0.930 . S
C448 N445 1.314 . S
C448 C446 1.353 . S
C448 H506 0.930 . S
C449 N445 1.279 . S
C449 C447 1.358 . S
C449 H507 0.930 . S
C450 C453 1.346 . S
C450 C454 1.357 1_554 S
C450 O501 1.324 1_554 S
C451 N452 1.279 1_556 S
C451 C454 1.358 . S
C451 H508 0.930 . S
N452 C451 1.279 1_554 S
N452 C455 1.314 . S
C453 C450 1.346 . S
C453 C455 1.353 . S
C453 H509 0.929 . S
C454 C450 1.357 1_556 S
C454 C451 1.358 . S
C454 H510 0.930 . S
C455 N452 1.314 . S
C455 C453 1.353 . S
C455 H511 0.930 . S
C456 N457 1.314 1_556 S
C456 C461 1.353 . S
C456 H462 0.930 . S
N457 Li440 1.991 . S
N457 C456 1.314 1_554 S
N457 C459 1.279 . S
C458 C459 1.358 . S
C458 C460 1.359 . S
C458 H512 0.930 . S
C459 N457 1.279 . S
C459 C458 1.358 . S
C459 H463 0.930 . S
C460 C458 1.359 . S
C460 C461 1.345 1_554 S
C461 C456 1.353 . S
C461 C460 1.345 1_556 S
C461 H513 0.929 . S
H462 C456 0.930 . S
H463 C459 0.930 . S
C464 N465 1.314 . S
C464 C466 1.353 . S
C464 H470 0.930 . S
N465 Li441 1.990 . S
N465 C464 1.314 . S
N465 C468 1.279 . S
C466 C464 1.353 . S
C466 C469 1.348 . S
C466 H514 0.929 . S
C467 C468 1.358 . S
C467 C469 1.356 . S
C467 H515 0.930 . S
C468 N465 1.279 . S
C468 C467 1.358 . S
C468 H471 0.930 . S
C469 C466 1.348 . S
C469 C467 1.356 . S
H470 C464 0.930 . S
H471 C468 0.930 . S
C472 C474 1.348 . S
C472 C475 1.356 . S
C472 O502 1.325 . S
N473 C476 1.314 . S
N473 C477 1.279 . S
C474 C472 1.348 . S
C474 C476 1.353 . S
C474 H516 0.929 . S
C475 C472 1.356 . S
C475 C477 1.358 . S
C475 H517 0.930 . S
C476 N473 1.314 . S
C476 C474 1.353 . S
C476 H518 0.930 . S
C477 N473 1.279 . S
C477 C475 1.358 . S
C477 H519 0.930 . S
C478 C479 1.346 1_554 S
C478 C480 1.357 . S
C478 O503 1.324 . S
C479 C478 1.346 1_556 S
C479 C481 1.353 . S
C479 H520 0.929 . S
C480 C478 1.357 . S
C480 C482 1.358 . S
C480 H521 0.930 . S
C481 C479 1.353 . S
C481 N483 1.314 . S
C481 H522 0.930 . S
C482 C480 1.358 . S
C482 N483 1.279 1_554 S
C482 H523 0.930 . S
N483 C481 1.314 . S
N483 C482 1.279 1_556 S
C484 C486 1.353 . S
C484 N487 1.314 1_554 S
C484 H490 0.930 . S
C485 N487 1.279 . S
C485 C488 1.358 . S
C485 H491 0.930 . S
C486 C484 1.353 . S
C486 C489 1.345 . S
C486 H524 0.929 . S
N487 Li442 1.991 . S
N487 C484 1.314 1_556 S
N487 C485 1.279 . S
C488 C485 1.358 . S
C488 C489 1.359 1_556 S
C488 H525 0.930 . S
C489 C486 1.345 . S
C489 C488 1.359 1_554 S
H490 C484 0.930 . S
H491 C485 0.930 . S
C492 N493 1.314 . S
C492 C494 1.353 . S
C492 H498 0.930 . S
N493 Li443 1.990 . S
N493 C492 1.314 . S
N493 C496 1.279 . S
C494 C492 1.353 . S
C494 C497 1.348 . S
C494 H526 0.929 . S
C495 C496 1.358 . S
C495 C497 1.356 . S
C495 H527 0.930 . S
C496 N493 1.279 . S
C496 C495 1.358 . S
C496 H499 0.930 . S
C497 C494 1.348 . S
C497 C495 1.356 . S
H498 C492 0.930 . S
H499 C496 0.930 . S
O500 Li440 1.983 . S
O500 Li441 1.970 . S
O500 Li442 1.939 1_554 S
O500 C444 1.325 . S
O501 Li440 1.969 1_556 S
O501 Li441 1.936 1_556 S
O501 Li443 1.980 . S
O501 C450 1.324 1_556 S
O502 Li440 1.933 1_556 S
O502 Li442 1.977 . S
O502 Li443 1.970 . S
O502 C472 1.325 . S
O503 Li441 1.986 . S
O503 Li442 1.969 1_554 S
O503 Li443 1.930 1_554 S
O503 C478 1.324 . S
H504 C446 0.929 . S
H505 C447 0.930 . S
H506 C448 0.930 . S
H507 C449 0.930 . S
H508 C451 0.930 . S
H509 C453 0.929 . S
H510 C454 0.930 . S
H511 C455 0.930 . S
H512 C458 0.930 . S
H513 C461 0.929 . S
H514 C466 0.929 . S
H515 C467 0.930 . S
H516 C474 0.929 . S
H517 C475 0.930 . S
H518 C476 0.930 . S
H519 C477 0.930 . S
H520 C479 0.929 . S
H521 C480 0.930 . S
H522 C481 0.930 . S
H523 C482 0.930 . S
H524 C486 0.929 . S
H525 C488 0.930 . S
H526 C494 0.929 . S
H527 C495 0.930 . S
Li528 N545 1.990 . S
Li528 O588 1.956 . S
Li528 O589 1.970 . S
Li528 O590 1.961 . S
Li529 N553 1.990 . S
Li529 O588 1.970 . S
Li529 O589 1.956 . S
Li529 O591 1.961 . S
Li530 N575 1.990 . S
Li530 O588 1.961 . S
Li530 O590 1.956 . S
Li530 O591 1.970 . S
Li531 N581 1.990 . S
Li531 O589 1.961 . S
Li531 O590 1.970 . S
Li531 O591 1.956 . S
C532 C534 1.348 . S
C532 C535 1.356 . S
C532 O588 1.325 . S
N533 C536 1.314 . S
N533 C537 1.279 . S
C534 C532 1.348 . S
C534 C536 1.353 . S
C534 H592 0.929 . S
C535 C532 1.356 . S
C535 C537 1.358 . S
C535 H593 0.930 . S
C536 N533 1.314 . S
C536 C534 1.353 . S
C536 H594 0.930 . S
C537 N533 1.279 . S
C537 C535 1.358 . S
C537 H595 0.930 . S
C538 C541 1.348 . S
C538 C542 1.356 . S
C538 O589 1.325 . S
C539 N540 1.279 . S
C539 C542 1.358 . S
C539 H596 0.930 . S
N540 C539 1.279 . S
N540 C543 1.314 . S
C541 C538 1.348 . S
C541 C543 1.353 . S
C541 H597 0.929 . S
C542 C538 1.356 . S
C542 C539 1.358 . S
C542 H598 0.930 . S
C543 N540 1.314 . S
C543 C541 1.353 . S
C543 H599 0.930 . S
C544 N545 1.314 . S
C544 C549 1.353 . S
C544 H550 0.930 . S
N545 Li528 1.990 . S
N545 C544 1.314 . S
N545 C547 1.279 . S
C546 C547 1.358 . S
C546 C548 1.356 . S
C546 H600 0.930 . S
C547 N545 1.279 . S
C547 C546 1.358 . S
C547 H551 0.930 . S
C548 C546 1.356 . S
C548 C549 1.348 . S
C549 C544 1.353 . S
C549 C548 1.348 . S
C549 H601 0.929 . S
H550 C544 0.930 . S
H551 C547 0.930 . S
C552 N553 1.314 . S
C552 C554 1.353 . S
C552 H558 0.930 . S
N553 Li529 1.990 . S
N553 C552 1.314 . S
N553 C556 1.279 . S
C554 C552 1.353 . S
C554 C557 1.348 . S
C554 H602 0.929 . S
C555 C556 1.358 . S
C555 C557 1.356 . S
C555 H603 0.930 . S
C556 N553 1.279 . S
C556 C555 1.358 . S
C556 H559 0.930 . S
C557 C554 1.348 . S
C557 C555 1.356 . S
H558 C552 0.930 . S
H559 C556 0.930 . S
C560 C562 1.348 . S
C560 C563 1.356 . S
C560 O590 1.325 . S
N561 C564 1.314 . S
N561 C565 1.279 . S
C562 C560 1.348 . S
C562 C564 1.353 . S
C562 H604 0.929 . S
C563 C560 1.356 . S
C563 C565 1.358 . S
C563 H605 0.930 . S
C564 N561 1.314 . S
C564 C562 1.353 . S
C564 H606 0.930 . S
C565 N561 1.279 . S
C565 C563 1.358 . S
C565 H607 0.930 . S
C566 C567 1.348 . S
C566 C568 1.356 . S
C566 O591 1.325 . S
C567 C566 1.348 . S
C567 C569 1.353 . S
C567 H608 0.929 . S
C568 C566 1.356 . S
C568 C570 1.358 . S
C568 H609 0.930 . S
C569 C567 1.353 . S
C569 N571 1.314 . S
C569 H610 0.930 . S
C570 C568 1.358 . S
C570 N571 1.279 . S
C570 H611 0.930 . S
N571 C569 1.314 . S
N571 C570 1.279 . S
C572 C574 1.353 . S
C572 N575 1.314 . S
C572 H578 0.930 . S
C573 N575 1.279 . S
C573 C576 1.358 . S
C573 H579 0.930 . S
C574 C572 1.353 . S
C574 C577 1.348 . S
C574 H612 0.929 . S
N575 Li530 1.990 . S
N575 C572 1.314 . S
N575 C573 1.279 . S
C576 C573 1.358 . S
C576 C577 1.356 . S
C576 H613 0.930 . S
C577 C574 1.348 . S
C577 C576 1.356 . S
H578 C572 0.930 . S
H579 C573 0.930 . S
C580 N581 1.314 . S
C580 C582 1.353 . S
C580 H586 0.930 . S
N581 Li531 1.990 . S
N581 C580 1.314 . S
N581 C584 1.279 . S
C582 C580 1.353 . S
C582 C585 1.348 . S
C582 H614 0.929 . S
C583 C584 1.358 . S
C583 C585 1.356 . S
C583 H615 0.930 . S
C584 N581 1.279 . S
C584 C583 1.358 . S
C584 H587 0.930 . S
C585 C582 1.348 . S
C585 C583 1.356 . S
H586 C580 0.930 . S
H587 C584 0.930 . S
O588 Li528 1.956 . S
O588 Li529 1.970 . S
O588 Li530 1.961 . S
O588 C532 1.325 . S
O589 Li528 1.970 . S
O589 Li529 1.956 . S
O589 Li531 1.961 . S
O589 C538 1.325 . S
O590 Li528 1.961 . S
O590 Li530 1.956 . S
O590 Li531 1.970 . S
O590 C560 1.325 . S
O591 Li529 1.961 . S
O591 Li530 1.970 . S
O591 Li531 1.956 . S
O591 C566 1.325 . S
H592 C534 0.929 . S
H593 C535 0.930 . S
H594 C536 0.930 . S
H595 C537 0.930 . S
H596 C539 0.930 . S
H597 C541 0.929 . S
H598 C542 0.930 . S
H599 C543 0.930 . S
H600 C546 0.930 . S
H601 C549 0.929 . S
H602 C554 0.929 . S
H603 C555 0.930 . S
H604 C562 0.929 . S
H605 C563 0.930 . S
H606 C564 0.930 . S
H607 C565 0.930 . S
H608 C567 0.929 . S
H609 C568 0.930 . S
H610 C569 0.930 . S
H611 C570 0.930 . S
H612 C574 0.929 . S
H613 C576 0.930 . S
H614 C582 0.929 . S
H615 C583 0.930 . S
Li616 N633 1.990 . S
Li616 O676 1.956 . S
Li616 O677 1.970 . S
Li616 O678 1.961 . S
Li617 N641 1.990 . S
Li617 O676 1.970 . S
Li617 O677 1.956 . S
Li617 O679 1.961 . S
Li618 N663 1.990 . S
Li618 O676 1.961 . S
Li618 O678 1.956 . S
Li618 O679 1.970 . S
Li619 N669 1.990 . S
Li619 O677 1.961 . S
Li619 O678 1.970 . S
Li619 O679 1.956 . S
C620 C622 1.348 . S
C620 C623 1.356 . S
C620 O676 1.325 . S
N621 C624 1.314 . S
N621 C625 1.279 . S
C622 C620 1.348 . S
C622 C624 1.353 . S
C622 H680 0.929 . S
C623 C620 1.356 . S
C623 C625 1.358 . S
C623 H681 0.930 . S
C624 N621 1.314 . S
C624 C622 1.353 . S
C624 H682 0.930 . S
C625 N621 1.279 . S
C625 C623 1.358 . S
C625 H683 0.930 . S
C626 C629 1.348 . S
C626 C630 1.356 . S
C626 O677 1.325 . S
C627 N628 1.279 . S
C627 C630 1.358 . S
C627 H684 0.930 . S
N628 C627 1.279 . S
N628 C631 1.314 . S
C629 C626 1.348 . S
C629 C631 1.353 . S
C629 H685 0.929 . S
C630 C626 1.356 . S
C630 C627 1.358 . S
C630 H686 0.930 . S
C631 N628 1.314 . S
C631 C629 1.353 . S
C631 H687 0.930 . S
C632 N633 1.314 . S
C632 C637 1.353 . S
C632 H638 0.930 . S
N633 Li616 1.990 . S
N633 C632 1.314 . S
N633 C635 1.279 . S
C634 C635 1.358 . S
C634 C636 1.356 . S
C634 H688 0.930 . S
C635 N633 1.279 . S
C635 C634 1.358 . S
C635 H639 0.930 . S
C636 C634 1.356 . S
C636 C637 1.348 . S
C637 C632 1.353 . S
C637 C636 1.348 . S
C637 H689 0.929 . S
H638 C632 0.930 . S
H639 C635 0.930 . S
C640 N641 1.314 . S
C640 C642 1.353 . S
C640 H646 0.930 . S
N641 Li617 1.990 . S
N641 C640 1.314 . S
N641 C644 1.279 . S
C642 C640 1.353 . S
C642 C645 1.348 . S
C642 H690 0.929 . S
C643 C644 1.358 . S
C643 C645 1.356 . S
C643 H691 0.930 . S
C644 N641 1.279 . S
C644 C643 1.358 . S
C644 H647 0.930 . S
C645 C642 1.348 . S
C645 C643 1.356 . S
H646 C640 0.930 . S
H647 C644 0.930 . S
C648 C650 1.348 . S
C648 C651 1.356 . S
C648 O678 1.325 . S
N649 C652 1.314 . S
N649 C653 1.279 . S
C650 C648 1.348 . S
C650 C652 1.353 . S
C650 H692 0.929 . S
C651 C648 1.356 . S
C651 C653 1.358 . S
C651 H693 0.930 . S
C652 N649 1.314 . S
C652 C650 1.353 . S
C652 H694 0.930 . S
C653 N649 1.279 . S
C653 C651 1.358 . S
C653 H695 0.930 . S
C654 C655 1.348 . S
C654 C656 1.356 . S
C654 O679 1.325 . S
C655 C654 1.348 . S
C655 C657 1.353 . S
C655 H696 0.929 . S
C656 C654 1.356 . S
C656 C658 1.358 . S
C656 H697 0.930 . S
C657 C655 1.353 . S
C657 N659 1.314 . S
C657 H698 0.930 . S
C658 C656 1.358 . S
C658 N659 1.279 . S
C658 H699 0.930 . S
N659 C657 1.314 . S
N659 C658 1.279 . S
C660 C662 1.353 . S
C660 N663 1.314 . S
C660 H666 0.930 . S
C661 N663 1.279 . S
C661 C664 1.358 . S
C661 H667 0.930 . S
C662 C660 1.353 . S
C662 C665 1.348 . S
C662 H700 0.929 . S
N663 Li618 1.990 . S
N663 C660 1.314 . S
N663 C661 1.279 . S
C664 C661 1.358 . S
C664 C665 1.356 . S
C664 H701 0.930 . S
C665 C662 1.348 . S
C665 C664 1.356 . S
H666 C660 0.930 . S
H667 C661 0.930 . S
C668 N669 1.314 . S
C668 C670 1.353 . S
C668 H674 0.930 . S
N669 Li619 1.990 . S
N669 C668 1.314 . S
N669 C672 1.279 . S
C670 C668 1.353 . S
C670 C673 1.348 . S
C670 H702 0.929 . S
C671 C672 1.358 . S
C671 C673 1.356 . S
C671 H703 0.930 . S
C672 N669 1.279 . S
C672 C671 1.358 . S
C672 H675 0.930 . S
C673 C670 1.348 . S
C673 C671 1.356 . S
H674 C668 0.930 . S
H675 C672 0.930 . S
O676 Li616 1.956 . S
O676 Li617 1.970 . S
O676 Li618 1.961 . S
O676 C620 1.325 . S
O677 Li616 1.970 . S
O677 Li617 1.956 . S
O677 Li619 1.961 . S
O677 C626 1.325 . S
O678 Li616 1.961 . S
O678 Li618 1.956 . S
O678 Li619 1.970 . S
O678 C648 1.325 . S
O679 Li617 1.961 . S
O679 Li618 1.970 . S
O679 Li619 1.956 . S
O679 C654 1.325 . S
H680 C622 0.929 . S
H681 C623 0.930 . S
H682 C624 0.930 . S
H683 C625 0.930 . S
H684 C627 0.930 . S
H685 C629 0.929 . S
H686 C630 0.930 . S
H687 C631 0.930 . S
H688 C634 0.930 . S
H689 C637 0.929 . S
H690 C642 0.929 . S
H691 C643 0.930 . S
H692 C650 0.929 . S
H693 C651 0.930 . S
H694 C652 0.930 . S
H695 C653 0.930 . S
H696 C655 0.929 . S
H697 C656 0.930 . S
H698 C657 0.930 . S
H699 C658 0.930 . S
H700 C662 0.929 . S
H701 C664 0.930 . S
H702 C670 0.929 . S
H703 C671 0.930 . S
H704 C712 0.929 . S
H705 C714 0.930 . S
H706 C716 0.930 . S
H707 C719 0.929 . S
H708 C722 0.930 . S
H709 C724 0.960 . S
H710 C724 0.960 . S
H711 C724 0.960 . S
C712 H704 0.929 . S
C712 C713 1.389 . S
C712 C714 1.384 . S
C713 C712 1.389 . S
C713 C719 1.379 1_556 S
C714 H705 0.930 . S
C714 C712 1.384 . S
C714 C715 1.372 . S
C715 C714 1.372 . S
C715 C716 1.400 1_556 S
C715 C720 1.490 . S
C716 H706 0.930 . S
C716 C715 1.400 1_554 S
C716 C719 1.386 . S
H717 C733 0.930 . S
H718 C734 0.931 . S
C719 H707 0.929 . S
C719 C713 1.379 1_554 S
C719 C716 1.386 . S
C720 C715 1.490 . S
C720 C722 1.395 1_556 S
C720 C723 1.403 . S
H721 C727 0.930 . S
C722 H708 0.930 . S
C722 C720 1.395 1_554 S
C722 C725 1.403 . S
C723 C720 1.403 . S
C723 C724 1.524 . S
C723 C727 1.400 . S
C724 H709 0.960 . S
C724 H710 0.960 . S
C724 H711 0.960 . S
C724 C723 1.524 . S
C725 C722 1.403 . S
C725 C726 1.401 . S
C725 C729 1.495 . S
C726 C725 1.401 . S
C726 C727 1.376 1_554 S
C726 C728 1.479 . S
C727 H721 0.930 . S
C727 C723 1.400 . S
C727 C726 1.376 1_556 S
C728 C726 1.479 . S
C728 C730 1.381 1_554 S
C728 C734 1.383 . S
C729 C725 1.495 . S
C729 H735 0.959 . S
C729 H736 0.961 . S
C729 H737 0.960 . S
C730 C728 1.381 1_556 S
C730 C731 1.394 . S
C730 H738 0.930 . S
C731 C730 1.394 . S
C731 C732 1.363 1_556 S
C731 H739 0.929 . S
C732 C731 1.363 1_554 S
C732 C733 1.398 . S
C733 H717 0.930 . S
C733 C732 1.398 . S
C733 C734 1.379 . S
C734 H718 0.931 . S
C734 C728 1.383 . S
C734 C733 1.379 . S
H735 C729 0.959 . S
H736 C729 0.961 . S
H737 C729 0.960 . S
H738 C730 0.930 . S
H739 C731 0.929 . S
H740 C748 0.929 . S
H741 C750 0.930 . S
H742 C752 0.930 . S
H743 C755 0.929 . S
H744 C758 0.930 . S
H745 C760 0.960 . S
H746 C760 0.979 . S
H747 C760 0.960 . S
C748 H740 0.929 . S
C748 C749 1.384 . S
C748 C750 1.384 . S
C749 C748 1.384 . S
C749 C755 1.383 1_554 S
C750 H741 0.930 . S
C750 C748 1.384 . S
C750 C751 1.372 . S
C751 C750 1.372 . S
C751 C752 1.400 1_554 S
C751 C756 1.490 . S
C752 H742 0.930 . S
C752 C751 1.400 1_556 S
C752 C755 1.386 . S
H753 C769 0.930 . S
H754 C770 0.931 . S
C755 H743 0.929 . S
C755 C749 1.383 1_556 S
C755 C752 1.386 . S
C756 C751 1.490 . S
C756 C758 1.395 . S
C756 C759 1.403 1_554 S
H757 C763 0.930 . S
C758 H744 0.930 . S
C758 C756 1.395 . S
C758 C761 1.403 . S
C759 C756 1.403 1_556 S
C759 C760 1.524 . S
C759 C763 1.400 . S
C760 H745 0.960 . S
C760 H746 0.979 . S
C760 H747 0.960 . S
C760 C759 1.524 . S
C761 C758 1.403 . S
C761 C762 1.392 . S
C761 C765 1.495 . S
C762 C761 1.392 . S
C762 C763 1.385 1_554 S
C762 C764 1.478 . S
C763 H757 0.930 . S
C763 C759 1.400 . S
C763 C762 1.385 1_556 S
C764 C762 1.478 . S
C764 C766 1.381 . S
C764 C770 1.383 1_554 S
C765 C761 1.495 . S
C765 H771 0.959 . S
C765 H772 0.961 . S
C765 H773 0.960 . S
C766 C764 1.381 . S
C766 C767 1.394 . S
C766 H774 0.930 . S
C767 C766 1.394 . S
C767 C768 1.401 . S
C767 H775 0.929 . S
C768 C767 1.401 . S
C768 C769 1.360 1_554 S
C769 H753 0.930 . S
C769 C768 1.360 1_556 S
C769 C770 1.379 . S
C770 H754 0.931 . S
C770 C764 1.383 1_556 S
C770 C769 1.379 . S
H771 C765 0.959 . S
H772 C765 0.961 . S
H773 C765 0.960 . S
H774 C766 0.930 . S
H775 C767 0.929 . S
H776 C784 0.929 . S
H777 C786 0.930 . S
H778 C788 0.930 . S
H779 C791 0.929 . S
H780 C794 0.930 . S
H781 C796 0.960 . S
H782 C796 0.960 . S
H783 C796 0.960 . S
C784 H776 0.929 . S
C784 C785 1.377 . S
C784 C786 1.384 . S
C785 C784 1.377 . S
C785 C791 1.390 . S
C786 H777 0.930 . S
C786 C784 1.384 . S
C786 C787 1.372 . S
C787 C786 1.372 . S
C787 C788 1.400 . S
C787 C792 1.490 . S
C788 H778 0.930 . S
C788 C787 1.400 . S
C788 C791 1.386 . S
H789 C805 0.930 . S
H790 C806 0.931 . S
C791 H779 0.929 . S
C791 C785 1.390 . S
C791 C788 1.386 . S
C792 C787 1.490 . S
C792 C794 1.395 . S
C792 C795 1.403 . S
H793 C799 0.930 . S
C794 H780 0.930 . S
C794 C792 1.395 . S
C794 C797 1.403 . S
C795 C792 1.403 . S
C795 C796 1.524 . S
C795 C799 1.400 . S
C796 H781 0.960 . S
C796 H782 0.960 . S
C796 H783 0.960 . S
C796 C795 1.524 . S
C797 C794 1.403 . S
C797 C798 1.392 . S
C797 C801 1.495 . S
C798 C797 1.392 . S
C798 C799 1.385 . S
C798 C800 1.478 . S
C799 H793 0.930 . S
C799 C795 1.400 . S
C799 C798 1.385 . S
C800 C798 1.478 . S
C800 C802 1.381 . S
C800 C806 1.383 . S
C801 C797 1.495 . S
C801 H807 0.959 . S
C801 H808 0.961 . S
C801 H809 0.960 . S
C802 C800 1.381 . S
C802 C803 1.394 . S
C802 H810 0.930 . S
C803 C802 1.394 . S
C803 C804 1.383 . S
C803 H811 0.929 . S
C804 C803 1.383 . S
C804 C805 1.377 . S
C805 H789 0.930 . S
C805 C804 1.377 . S
C805 C806 1.379 . S
C806 H790 0.931 . S
C806 C800 1.383 . S
C806 C805 1.379 . S
H807 C801 0.959 . S
H808 C801 0.961 . S
H809 C801 0.960 . S
H810 C802 0.930 . S
H811 C803 0.929 . S
H812 C820 0.929 . S
H813 C822 0.930 . S
H814 C824 0.930 . S
H815 C827 0.929 . S
H816 C830 0.930 . S
H817 C832 0.960 . S
H818 C832 0.960 . S
H819 C832 0.960 . S
C820 H812 0.929 . S
C820 C821 1.377 . S
C820 C822 1.384 . S
C821 C820 1.377 . S
C821 C827 1.390 . S
C822 H813 0.930 . S
C822 C820 1.384 . S
C822 C823 1.372 . S
C823 C822 1.372 . S
C823 C824 1.400 . S
C823 C828 1.490 . S
C824 H814 0.930 . S
C824 C823 1.400 . S
C824 C827 1.386 . S
H825 C841 0.930 . S
H826 C842 0.931 . S
C827 H815 0.929 . S
C827 C821 1.390 . S
C827 C824 1.386 . S
C828 C823 1.490 . S
C828 C830 1.395 . S
C828 C831 1.403 . S
H829 C835 0.930 . S
C830 H816 0.930 . S
C830 C828 1.395 . S
C830 C833 1.403 . S
C831 C828 1.403 . S
C831 C832 1.524 . S
C831 C835 1.400 . S
C832 H817 0.960 . S
C832 H818 0.960 . S
C832 H819 0.960 . S
C832 C831 1.524 . S
C833 C830 1.403 . S
C833 C834 1.392 . S
C833 C837 1.495 . S
C834 C833 1.392 . S
C834 C835 1.385 . S
C834 C836 1.478 . S
C835 H829 0.930 . S
C835 C831 1.400 . S
C835 C834 1.385 . S
C836 C834 1.478 . S
C836 C838 1.381 . S
C836 C842 1.383 . S
C837 C833 1.495 . S
C837 H843 0.959 . S
C837 H844 0.961 . S
C837 H845 0.960 . S
C838 C836 1.381 . S
C838 C839 1.394 . S
C838 H846 0.930 . S
C839 C838 1.394 . S
C839 C840 1.383 . S
C839 H847 0.929 . S
C840 C839 1.383 . S
C840 C841 1.377 . S
C841 H825 0.930 . S
C841 C840 1.377 . S
C841 C842 1.379 . S
C842 H826 0.931 . S
C842 C836 1.383 . S
C842 C841 1.379 . S
H843 C837 0.959 . S
H844 C837 0.961 . S
H845 C837 0.960 . S
H846 C838 0.930 . S
H847 C839 0.929 . S
H848 C856 0.929 . S
H849 C858 0.930 . S
H850 C860 0.930 . S
H851 C863 0.929 . S
H852 C866 0.930 . S
H853 C868 0.960 . S
H854 C868 0.960 . S
H855 C868 0.960 . S
C856 H848 0.929 . S
C856 C857 1.377 . S
C856 C858 1.384 . S
C857 C856 1.377 . S
C857 C863 1.390 . S
C858 H849 0.930 . S
C858 C856 1.384 . S
C858 C859 1.372 . S
C859 C858 1.372 . S
C859 C860 1.400 . S
C859 C864 1.490 . S
C860 H850 0.930 . S
C860 C859 1.400 . S
C860 C863 1.386 . S
H861 C877 0.930 . S
H862 C878 0.931 . S
C863 H851 0.929 . S
C863 C857 1.390 . S
C863 C860 1.386 . S
C864 C859 1.490 . S
C864 C866 1.395 . S
C864 C867 1.403 . S
H865 C871 0.930 . S
C866 H852 0.930 . S
C866 C864 1.395 . S
C866 C869 1.403 . S
C867 C864 1.403 . S
C867 C868 1.524 . S
C867 C871 1.400 . S
C868 H853 0.960 . S
C868 H854 0.960 . S
C868 H855 0.960 . S
C868 C867 1.524 . S
C869 C866 1.403 . S
C869 C870 1.392 . S
C869 C873 1.495 . S
C870 C869 1.392 . S
C870 C871 1.385 . S
C870 C872 1.478 . S
C871 H865 0.930 . S
C871 C867 1.400 . S
C871 C870 1.385 . S
C872 C870 1.478 . S
C872 C874 1.381 . S
C872 C878 1.383 . S
C873 C869 1.495 . S
C873 H879 0.959 . S
C873 H880 0.961 . S
C873 H881 0.960 . S
C874 C872 1.381 . S
C874 C875 1.394 . S
C874 H882 0.930 . S
C875 C874 1.394 . S
C875 C876 1.383 . S
C875 H883 0.929 . S
C876 C875 1.383 . S
C876 C877 1.377 . S
C877 H861 0.930 . S
C877 C876 1.377 . S
C877 C878 1.379 . S
C878 H862 0.931 . S
C878 C872 1.383 . S
C878 C877 1.379 . S
H879 C873 0.959 . S
H880 C873 0.961 . S
H881 C873 0.960 . S
H882 C874 0.930 . S
H883 C875 0.929 . S
H884 C892 0.929 . S
H885 C894 0.930 . S
H886 C896 0.930 . S
H887 C899 0.929 . S
H888 C902 0.930 . S
H889 C904 0.960 . S
H890 C904 0.960 . S
H891 C904 0.960 . S
C892 H884 0.929 . S
C892 C893 1.377 . S
C892 C894 1.384 . S
C893 C892 1.377 . S
C893 C899 1.390 . S
C894 H885 0.930 . S
C894 C892 1.384 . S
C894 C895 1.372 . S
C895 C894 1.372 . S
C895 C896 1.400 . S
C895 C900 1.490 . S
C896 H886 0.930 . S
C896 C895 1.400 . S
C896 C899 1.386 . S
H897 C913 0.930 . S
H898 C914 0.931 . S
C899 H887 0.929 . S
C899 C893 1.390 . S
C899 C896 1.386 . S
C900 C895 1.490 . S
C900 C902 1.395 . S
C900 C903 1.403 . S
H901 C907 0.930 . S
C902 H888 0.930 . S
C902 C900 1.395 . S
C902 C905 1.403 . S
C903 C900 1.403 . S
C903 C904 1.524 . S
C903 C907 1.400 . S
C904 H889 0.960 . S
C904 H890 0.960 . S
C904 H891 0.960 . S
C904 C903 1.524 . S
C905 C902 1.403 . S
C905 C906 1.392 . S
C905 C909 1.495 . S
C906 C905 1.392 . S
C906 C907 1.385 . S
C906 C908 1.478 . S
C907 H901 0.930 . S
C907 C903 1.400 . S
C907 C906 1.385 . S
C908 C906 1.478 . S
C908 C910 1.381 . S
C908 C914 1.383 . S
C909 C905 1.495 . S
C909 H915 0.959 . S
C909 H916 0.961 . S
C909 H917 0.960 . S
C910 C908 1.381 . S
C910 C911 1.394 . S
C910 H918 0.930 . S
C911 C910 1.394 . S
C911 C912 1.383 . S
C911 H919 0.929 . S
C912 C911 1.383 . S
C912 C913 1.377 . S
C913 H897 0.930 . S
C913 C912 1.377 . S
C913 C914 1.379 . S
C914 H898 0.931 . S
C914 C908 1.383 . S
C914 C913 1.379 . S
H915 C909 0.959 . S
H916 C909 0.961 . S
H917 C909 0.960 . S
H918 C910 0.930 . S
H919 C911 0.929 . S
H920 C928 0.929 . S
H921 C930 0.930 . S
H922 C932 0.930 . S
H923 C935 0.929 . S
H924 C938 0.930 . S
H925 C940 0.960 . S
H926 C940 0.960 . S
H927 C940 0.960 . S
C928 H920 0.929 . S
C928 C929 1.377 . S
C928 C930 1.384 . S
C929 C928 1.377 . S
C929 C935 1.390 . S
C930 H921 0.930 . S
C930 C928 1.384 . S
C930 C931 1.372 . S
C931 C930 1.372 . S
C931 C932 1.400 . S
C931 C936 1.490 . S
C932 H922 0.930 . S
C932 C931 1.400 . S
C932 C935 1.386 . S
H933 C949 0.930 . S
H934 C950 0.931 . S
C935 H923 0.929 . S
C935 C929 1.390 . S
C935 C932 1.386 . S
C936 C931 1.490 . S
C936 C938 1.395 . S
C936 C939 1.403 . S
H937 C943 0.930 . S
C938 H924 0.930 . S
C938 C936 1.395 . S
C938 C941 1.403 . S
C939 C936 1.403 . S
C939 C940 1.524 . S
C939 C943 1.400 . S
C940 H925 0.960 . S
C940 H926 0.960 . S
C940 H927 0.960 . S
C940 C939 1.524 . S
C941 C938 1.403 . S
C941 C942 1.392 . S
C941 C945 1.495 . S
C942 C941 1.392 . S
C942 C943 1.385 . S
C942 C944 1.478 . S
C943 H937 0.930 . S
C943 C939 1.400 . S
C943 C942 1.385 . S
C944 C942 1.478 . S
C944 C946 1.381 . S
C944 C950 1.383 . S
C945 C941 1.495 . S
C945 H951 0.959 . S
C945 H952 0.961 . S
C945 H953 0.960 . S
C946 C944 1.381 . S
C946 C947 1.394 . S
C946 H954 0.930 . S
C947 C946 1.394 . S
C947 C948 1.383 . S
C947 H955 0.929 . S
C948 C947 1.383 . S
C948 C949 1.377 . S
C949 H933 0.930 . S
C949 C948 1.377 . S
C949 C950 1.379 . S
C950 H934 0.931 . S
C950 C944 1.383 . S
C950 C949 1.379 . S
H951 C945 0.959 . S
H952 C945 0.961 . S
H953 C945 0.960 . S
H954 C946 0.930 . S
H955 C947 0.929 . S
H956 C964 0.929 . S
H957 C966 0.930 . S
H958 C968 0.930 . S
H959 C971 0.929 . S
H960 C974 0.930 . S
H961 C976 0.960 . S
H962 C976 0.960 . S
H963 C976 0.960 . S
C964 H956 0.929 . S
C964 C965 1.377 . S
C964 C966 1.384 . S
C965 C964 1.377 . S
C965 C971 1.390 . S
C966 H957 0.930 . S
C966 C964 1.384 . S
C966 C967 1.372 . S
C967 C966 1.372 . S
C967 C968 1.400 . S
C967 C972 1.490 . S
C968 H958 0.930 . S
C968 C967 1.400 . S
C968 C971 1.386 . S
H969 C985 0.930 . S
H970 C986 0.931 . S
C971 H959 0.929 . S
C971 C965 1.390 . S
C971 C968 1.386 . S
C972 C967 1.490 . S
C972 C974 1.395 . S
C972 C975 1.403 . S
H973 C979 0.930 . S
C974 H960 0.930 . S
C974 C972 1.395 . S
C974 C977 1.403 . S
C975 C972 1.403 . S
C975 C976 1.524 . S
C975 C979 1.400 . S
C976 H961 0.960 . S
C976 H962 0.960 . S
C976 H963 0.960 . S
C976 C975 1.524 . S
C977 C974 1.403 . S
C977 C978 1.392 . S
C977 C981 1.495 . S
C978 C977 1.392 . S
C978 C979 1.385 . S
C978 C980 1.478 . S
C979 H973 0.930 . S
C979 C975 1.400 . S
C979 C978 1.385 . S
C980 C978 1.478 . S
C980 C982 1.381 . S
C980 C986 1.383 . S
C981 C977 1.495 . S
C981 H987 0.959 . S
C981 H988 0.961 . S
C981 H989 0.960 . S
C982 C980 1.381 . S
C982 C983 1.394 . S
C982 H990 0.930 . S
C983 C982 1.394 . S
C983 C984 1.383 . S
C983 H991 0.929 . S
C984 C983 1.383 . S
C984 C985 1.377 . S
C985 H969 0.930 . S
C985 C984 1.377 . S
C985 C986 1.379 . S
C986 H970 0.931 . S
C986 C980 1.383 . S
C986 C985 1.379 . S
H987 C981 0.959 . S
H988 C981 0.961 . S
H989 C981 0.960 . S
H990 C982 0.930 . S
H991 C983 0.929 . S
H992 C1000 0.929 . S
H993 C1002 0.930 . S
H994 C1004 0.930 . S
H995 C1007 0.929 . S
H996 C1010 0.930 . S
H997 C1012 0.960 . S
H998 C1012 0.960 . S
H999 C1012 0.960 1_565 S
C1000 H992 0.929 . S
C1000 C1001 1.377 . S
C1000 C1002 1.384 . S
C1001 C1000 1.377 . S
C1001 C1007 1.390 . S
C1002 H993 0.930 . S
C1002 C1000 1.384 . S
C1002 C1003 1.372 . S
C1003 C1002 1.372 . S
C1003 C1004 1.400 . S
C1003 C1008 1.490 . S
C1004 H994 0.930 . S
C1004 C1003 1.400 . S
C1004 C1007 1.386 . S
H1005 C1021 0.930 . S
H1006 C1022 0.931 . S
C1007 H995 0.929 . S
C1007 C1001 1.390 . S
C1007 C1004 1.386 . S
C1008 C1003 1.490 . S
C1008 C1010 1.395 . S
C1008 C1011 1.403 1_565 S
H1009 C1015 0.930 . S
C1010 H996 0.930 . S
C1010 C1008 1.395 . S
C1010 C1013 1.403 . S
C1011 C1008 1.403 1_545 S
C1011 C1012 1.524 . S
C1011 C1015 1.400 . S
C1012 H997 0.960 . S
C1012 H998 0.960 . S
C1012 H999 0.960 1_545 S
C1012 C1011 1.524 . S
C1013 C1010 1.403 . S
C1013 C1014 1.392 1_565 S
C1013 C1017 1.495 . S
C1014 C1013 1.392 1_545 S
C1014 C1015 1.385 . S
C1014 C1016 1.478 . S
C1015 H1009 0.930 . S
C1015 C1011 1.400 . S
C1015 C1014 1.385 . S
C1016 C1014 1.478 . S
C1016 C1018 1.381 . S
C1016 C1022 1.383 . S
C1017 C1013 1.495 . S
C1017 H1023 0.959 . S
C1017 H1024 0.961 . S
C1017 H1025 0.960 1_565 S
C1018 C1016 1.381 . S
C1018 C1019 1.394 . S
C1018 H1026 0.930 . S
C1019 C1018 1.394 . S
C1019 C1020 1.383 . S
C1019 H1027 0.929 . S
C1020 C1019 1.383 . S
C1020 C1021 1.377 . S
C1021 H1005 0.930 . S
C1021 C1020 1.377 . S
C1021 C1022 1.379 . S
C1022 H1006 0.931 . S
C1022 C1016 1.383 . S
C1022 C1021 1.379 . S
H1023 C1017 0.959 . S
H1024 C1017 0.961 . S
H1025 C1017 0.960 1_545 S
H1026 C1018 0.930 . S
H1027 C1019 0.929 . S
H1028 C1036 0.929 . S
H1029 C1038 0.930 . S
H1030 C1040 0.930 . S
H1031 C1043 0.929 . S
H1032 C1046 0.930 . S
H1033 C1048 0.960 . S
H1034 C1048 0.960 . S
H1035 C1048 0.960 . S
C1036 H1028 0.929 . S
C1036 C1037 1.377 . S
C1036 C1038 1.384 . S
C1037 C1036 1.377 . S
C1037 C1043 1.390 . S
C1038 H1029 0.930 . S
C1038 C1036 1.384 . S
C1038 C1039 1.372 . S
C1039 C1038 1.372 . S
C1039 C1040 1.400 . S
C1039 C1044 1.490 . S
C1040 H1030 0.930 . S
C1040 C1039 1.400 . S
C1040 C1043 1.386 . S
H1041 C1057 0.930 . S
H1042 C1058 0.931 . S
C1043 H1031 0.929 . S
C1043 C1037 1.390 . S
C1043 C1040 1.386 . S
C1044 C1039 1.490 . S
C1044 C1046 1.395 . S
C1044 C1047 1.403 1_565 S
H1045 C1051 0.930 . S
C1046 H1032 0.930 . S
C1046 C1044 1.395 . S
C1046 C1049 1.403 . S
C1047 C1044 1.403 1_545 S
C1047 C1048 1.524 . S
C1047 C1051 1.400 . S
C1048 H1033 0.960 . S
C1048 H1034 0.960 . S
C1048 H1035 0.960 . S
C1048 C1047 1.524 . S
C1049 C1046 1.403 . S
C1049 C1050 1.392 1_565 S
C1049 C1053 1.495 . S
C1050 C1049 1.392 1_545 S
C1050 C1051 1.385 . S
C1050 C1052 1.478 . S
C1051 H1045 0.930 . S
C1051 C1047 1.400 . S
C1051 C1050 1.385 . S
C1052 C1050 1.478 . S
C1052 C1054 1.381 . S
C1052 C1058 1.383 . S
C1053 C1049 1.495 . S
C1053 H1059 0.959 . S
C1053 H1060 0.961 . S
C1053 H1061 0.960 . S
C1054 C1052 1.381 . S
C1054 C1055 1.394 . S
C1054 H1062 0.930 . S
C1055 C1054 1.394 . S
C1055 C1056 1.383 . S
C1055 H1063 0.929 . S
C1056 C1055 1.383 . S
C1056 C1057 1.377 . S
C1057 H1041 0.930 . S
C1057 C1056 1.377 . S
C1057 C1058 1.379 . S
C1058 H1042 0.931 . S
C1058 C1052 1.383 . S
C1058 C1057 1.379 . S
H1059 C1053 0.959 . S
H1060 C1053 0.961 . S
H1061 C1053 0.960 . S
H1062 C1054 0.930 . S
H1063 C1055 0.929 . S
H1064 C1072 0.929 . S
H1065 C1074 0.930 . S
H1066 C1076 0.930 1_545 S
H1067 C1079 0.929 . S
H1068 C1082 0.930 . S
H1069 C1084 0.960 . S
H1070 C1084 0.960 . S
H1071 C1084 0.960 . S
C1072 H1064 0.929 . S
C1072 C1073 1.377 . S
C1072 C1074 1.384 . S
C1073 C1072 1.377 . S
C1073 C1079 1.390 . S
C1074 H1065 0.930 . S
C1074 C1072 1.384 . S
C1074 C1075 1.372 . S
C1075 C1074 1.372 . S
C1075 C1076 1.400 . S
C1075 C1080 1.490 . S
C1076 H1066 0.930 1_565 S
C1076 C1075 1.400 . S
C1076 C1079 1.386 . S
H1077 C1093 0.930 . S
H1078 C1094 0.931 . S
C1079 H1067 0.929 . S
C1079 C1073 1.390 . S
C1079 C1076 1.386 . S
C1080 C1075 1.490 . S
C1080 C1082 1.395 . S
C1080 C1083 1.403 . S
H1081 C1087 0.930 . S
C1082 H1068 0.930 . S
C1082 C1080 1.395 . S
C1082 C1085 1.403 1_565 S
C1083 C1080 1.403 . S
C1083 C1084 1.524 . S
C1083 C1087 1.400 1_565 S
C1084 H1069 0.960 . S
C1084 H1070 0.960 . S
C1084 H1071 0.960 . S
C1084 C1083 1.524 . S
C1085 C1082 1.403 1_545 S
C1085 C1086 1.392 . S
C1085 C1089 1.495 . S
C1086 C1085 1.392 . S
C1086 C1087 1.385 . S
C1086 C1088 1.478 . S
C1087 H1081 0.930 . S
C1087 C1083 1.400 1_545 S
C1087 C1086 1.385 . S
C1088 C1086 1.478 . S
C1088 C1090 1.381 . S
C1088 C1094 1.383 . S
C1089 C1085 1.495 . S
C1089 H1095 0.959 . S
C1089 H1096 0.961 . S
C1089 H1097 0.960 . S
C1090 C1088 1.381 . S
C1090 C1091 1.394 . S
C1090 H1098 0.930 1_545 S
C1091 C1090 1.394 . S
C1091 C1092 1.383 . S
C1091 H1099 0.929 . S
C1092 C1091 1.383 . S
C1092 C1093 1.377 . S
C1093 H1077 0.930 . S
C1093 C1092 1.377 . S
C1093 C1094 1.379 . S
C1094 H1078 0.931 . S
C1094 C1088 1.383 . S
C1094 C1093 1.379 . S
H1095 C1089 0.959 . S
H1096 C1089 0.961 . S
H1097 C1089 0.960 . S
H1098 C1090 0.930 1_565 S
H1099 C1091 0.929 . S
H1100 C1108 0.929 . S
H1101 C1110 0.930 . S
H1102 C1112 0.930 . S
H1103 C1115 0.929 . S
H1104 C1118 0.930 . S
H1105 C1120 0.960 . S
H1106 C1120 0.960 . S
H1107 C1120 0.960 . S
C1108 H1100 0.929 . S
C1108 C1109 1.377 . S
C1108 C1110 1.384 . S
C1109 C1108 1.377 . S
C1109 C1115 1.390 . S
C1110 H1101 0.930 . S
C1110 C1108 1.384 . S
C1110 C1111 1.372 . S
C1111 C1110 1.372 . S
C1111 C1112 1.400 . S
C1111 C1116 1.490 . S
C1112 H1102 0.930 . S
C1112 C1111 1.400 . S
C1112 C1115 1.386 . S
H1113 C1129 0.930 . S
H1114 C1130 0.931 . S
C1115 H1103 0.929 . S
C1115 C1109 1.390 . S
C1115 C1112 1.386 . S
C1116 C1111 1.490 . S
C1116 C1118 1.395 1_565 S
C1116 C1119 1.403 . S
H1117 C1123 0.930 . S
C1118 H1104 0.930 . S
C1118 C1116 1.395 1_545 S
C1118 C1121 1.403 . S
C1119 C1116 1.403 . S
C1119 C1120 1.524 . S
C1119 C1123 1.400 . S
C1120 H1105 0.960 . S
C1120 H1106 0.960 . S
C1120 H1107 0.960 . S
C1120 C1119 1.524 . S
C1121 C1118 1.403 . S
C1121 C1122 1.392 . S
C1121 C1125 1.495 . S
C1122 C1121 1.392 . S
C1122 C1123 1.385 1_545 S
C1122 C1124 1.478 . S
C1123 H1117 0.930 . S
C1123 C1119 1.400 . S
C1123 C1122 1.385 1_565 S
C1124 C1122 1.478 . S
C1124 C1126 1.381 . S
C1124 C1130 1.383 . S
C1125 C1121 1.495 . S
C1125 H1131 0.959 . S
C1125 H1132 0.961 . S
C1125 H1133 0.960 . S
C1126 C1124 1.381 . S
C1126 C1127 1.394 . S
C1126 H1134 0.930 . S
C1127 C1126 1.394 . S
C1127 C1128 1.383 . S
C1127 H1135 0.929 . S
C1128 C1127 1.383 . S
C1128 C1129 1.377 . S
C1129 H1113 0.930 . S
C1129 C1128 1.377 . S
C1129 C1130 1.379 . S
C1130 H1114 0.931 . S
C1130 C1124 1.383 . S
C1130 C1129 1.379 . S
H1131 C1125 0.959 . S
H1132 C1125 0.961 . S
H1133 C1125 0.960 . S
H1134 C1126 0.930 . S
H1135 C1127 0.929 . S
H1136 C1144 0.929 . S
H1137 C1146 0.930 . S
H1138 C1148 0.930 . S
H1139 C1151 0.929 . S
H1140 C1154 0.930 . S
H1141 C1156 0.960 1_545 S
H1142 C1156 0.960 . S
H1143 C1156 0.960 . S
C1144 H1136 0.929 . S
C1144 C1145 1.393 . S
C1144 C1146 1.384 . S
C1145 C1144 1.393 . S
C1145 C1151 1.375 1_554 S
C1146 H1137 0.930 . S
C1146 C1144 1.384 . S
C1146 C1147 1.372 . S
C1147 C1146 1.372 . S
C1147 C1148 1.400 1_554 S
C1147 C1152 1.490 . S
C1148 H1138 0.930 . S
C1148 C1147 1.400 1_556 S
C1148 C1151 1.386 . S
H1149 C1165 0.930 . S
H1150 C1166 0.931 . S
C1151 H1139 0.929 . S
C1151 C1145 1.375 1_556 S
C1151 C1148 1.386 . S
C1152 C1147 1.490 . S
C1152 C1154 1.395 . S
C1152 C1155 1.403 1_554 S
H1153 C1159 0.930 . S
C1154 H1140 0.930 . S
C1154 C1152 1.395 . S
C1154 C1157 1.403 1_565 S
C1155 C1152 1.403 1_556 S
C1155 C1156 1.524 . S
C1155 C1159 1.400 1_565 S
C1156 H1141 0.960 1_565 S
C1156 H1142 0.960 . S
C1156 H1143 0.960 . S
C1156 C1155 1.524 . S
C1157 C1154 1.403 1_545 S
C1157 C1158 1.392 . S
C1157 C1161 1.495 . S
C1158 C1157 1.392 . S
C1158 C1159 1.385 1_554 S
C1158 C1160 1.478 . S
C1159 H1153 0.930 . S
C1159 C1155 1.400 1_545 S
C1159 C1158 1.385 1_556 S
C1160 C1158 1.478 . S
C1160 C1162 1.381 . S
C1160 C1166 1.383 1_554 S
C1161 C1157 1.495 . S
C1161 H1167 0.959 1_545 S
C1161 H1168 0.961 . S
C1161 H1169 0.960 . S
C1162 C1160 1.381 . S
C1162 C1163 1.394 . S
C1162 H1170 0.930 . S
C1163 C1162 1.394 . S
C1163 C1164 1.383 . S
C1163 H1171 0.929 . S
C1164 C1163 1.383 . S
C1164 C1165 1.377 1_554 S
C1165 H1149 0.930 . S
C1165 C1164 1.377 1_556 S
C1165 C1166 1.379 . S
C1166 H1150 0.931 . S
C1166 C1160 1.383 1_556 S
C1166 C1165 1.379 . S
H1167 C1161 0.959 1_565 S
H1168 C1161 0.961 . S
H1169 C1161 0.960 . S
H1170 C1162 0.930 . S
H1171 C1163 0.929 . S
H1172 C1180 0.929 . S
H1173 C1182 0.930 . S
H1174 C1184 0.930 . S
H1175 C1187 0.929 . S
H1176 C1190 0.930 . S
H1177 C1192 0.960 1_545 S
H1178 C1192 0.960 . S
H1179 C1192 0.960 . S
C1180 H1172 0.929 . S
C1180 C1181 1.377 . S
C1180 C1182 1.384 . S
C1181 C1180 1.377 . S
C1181 C1187 1.390 . S
C1182 H1173 0.930 . S
C1182 C1180 1.384 . S
C1182 C1183 1.372 . S
C1183 C1182 1.372 . S
C1183 C1184 1.400 . S
C1183 C1188 1.490 . S
C1184 H1174 0.930 . S
C1184 C1183 1.400 . S
C1184 C1187 1.386 . S
H1185 C1201 0.930 . S
H1186 C1202 0.931 . S
C1187 H1175 0.929 . S
C1187 C1181 1.390 . S
C1187 C1184 1.386 . S
C1188 C1183 1.490 . S
C1188 C1190 1.395 . S
C1188 C1191 1.403 . S
H1189 C1195 0.930 . S
C1190 H1176 0.930 . S
C1190 C1188 1.395 . S
C1190 C1193 1.381 1_565 S
C1191 C1188 1.403 . S
C1191 C1192 1.524 . S
C1191 C1195 1.400 1_565 S
C1192 H1177 0.960 1_565 S
C1192 H1178 0.960 . S
C1192 H1179 0.960 . S
C1192 C1191 1.524 . S
C1193 C1190 1.381 1_545 S
C1193 C1194 1.414 . S
C1193 C1197 1.496 . S
C1194 C1193 1.414 . S
C1194 C1195 1.385 . S
C1194 C1196 1.478 . S
C1195 H1189 0.930 . S
C1195 C1191 1.400 1_545 S
C1195 C1194 1.385 . S
C1196 C1194 1.478 . S
C1196 C1198 1.381 . S
C1196 C1202 1.383 . S
C1197 C1193 1.496 . S
C1197 H1203 0.959 1_545 S
C1197 H1204 0.961 . S
C1197 H1205 0.960 . S
C1198 C1196 1.381 . S
C1198 C1199 1.394 . S
C1198 H1206 0.930 . S
C1199 C1198 1.394 . S
C1199 C1200 1.383 . S
C1199 H1207 0.929 . S
C1200 C1199 1.383 . S
C1200 C1201 1.377 . S
C1201 H1185 0.930 . S
C1201 C1200 1.377 . S
C1201 C1202 1.379 . S
C1202 H1186 0.931 . S
C1202 C1196 1.383 . S
C1202 C1201 1.379 . S
H1203 C1197 0.959 1_565 S
H1204 C1197 0.961 . S
H1205 C1197 0.960 . S
H1206 C1198 0.930 . S
H1207 C1199 0.929 . S
H1208 C1216 0.929 . S
H1209 C1218 0.930 1_655 S
H1210 C1220 0.930 . S
H1211 C1223 0.929 . S
H1212 C1226 0.930 . S
H1213 C1228 0.960 1_655 S
H1214 C1228 0.959 1_655 S
H1215 C1228 0.961 . S
C1216 H1208 0.929 . S
C1216 C1217 1.371 1_556 S
C1216 C1218 1.384 . S
C1217 C1216 1.371 1_554 S
C1217 C1223 1.396 . S
C1218 H1209 0.930 1_455 S
C1218 C1216 1.384 . S
C1218 C1219 1.382 . S
C1219 C1218 1.382 . S
C1219 C1220 1.390 1_556 S
C1219 C1224 1.491 . S
C1220 H1210 0.930 . S
C1220 C1219 1.390 1_554 S
C1220 C1223 1.386 . S
H1221 C1237 0.930 . S
H1222 C1238 0.931 1_455 S
C1223 H1211 0.929 . S
C1223 C1217 1.396 . S
C1223 C1220 1.386 . S
C1224 C1219 1.491 . S
C1224 C1226 1.395 . S
C1224 C1227 1.408 1_556 S
H1225 C1231 0.930 . S
C1226 H1212 0.930 . S
C1226 C1224 1.395 . S
C1226 C1229 1.403 1_455 S
C1227 C1224 1.408 1_554 S
C1227 C1228 1.524 . S
C1227 C1231 1.394 1_455 S
C1228 H1213 0.960 1_455 S
C1228 H1214 0.959 1_455 S
C1228 H1215 0.961 . S
C1228 C1227 1.524 . S
C1229 C1226 1.403 1_655 S
C1229 C1230 1.392 . S
C1229 C1233 1.495 . S
C1230 C1229 1.392 . S
C1230 C1231 1.385 1_556 S
C1230 C1232 1.478 . S
C1231 H1225 0.930 . S
C1231 C1227 1.394 1_655 S
C1231 C1230 1.385 1_554 S
C1232 C1230 1.478 . S
C1232 C1234 1.381 . S
C1232 C1238 1.383 1_556 S
C1233 C1229 1.495 . S
C1233 H1239 0.959 1_655 S
C1233 H1240 0.961 1_655 S
C1233 H1241 0.960 . S
C1234 C1232 1.381 . S
C1234 C1235 1.394 . S
C1234 H1242 0.930 . S
C1235 C1234 1.394 . S
C1235 C1236 1.383 . S
C1235 H1243 0.929 . S
C1236 C1235 1.383 . S
C1236 C1237 1.377 1_556 S
C1237 H1221 0.930 . S
C1237 C1236 1.377 1_554 S
C1237 C1238 1.379 . S
C1238 H1222 0.931 1_655 S
C1238 C1232 1.383 1_554 S
C1238 C1237 1.379 . S
H1239 C1233 0.959 1_455 S
H1240 C1233 0.961 1_455 S
H1241 C1233 0.960 . S
H1242 C1234 0.930 . S
H1243 C1235 0.929 . S
H1244 C1252 0.929 . S
H1245 C1254 0.930 . S
H1246 C1256 0.930 . S
H1247 C1259 0.929 . S
H1248 C1262 0.930 . S
H1249 C1264 0.960 . S
H1250 C1264 0.960 . S
H1251 C1264 0.960 . S
C1252 H1244 0.929 . S
C1252 C1253 1.377 . S
C1252 C1254 1.384 . S
C1253 C1252 1.377 . S
C1253 C1259 1.390 . S
C1254 H1245 0.930 . S
C1254 C1252 1.384 . S
C1254 C1255 1.372 . S
C1255 C1254 1.372 . S
C1255 C1256 1.400 . S
C1255 C1260 1.490 . S
C1256 H1246 0.930 . S
C1256 C1255 1.400 . S
C1256 C1259 1.386 . S
H1257 C1273 0.930 . S
H1258 C1274 0.931 . S
C1259 H1247 0.929 . S
C1259 C1253 1.390 . S
C1259 C1256 1.386 . S
C1260 C1255 1.490 . S
C1260 C1262 1.395 1_455 S
C1260 C1263 1.403 . S
H1261 C1267 0.930 . S
C1262 H1248 0.930 . S
C1262 C1260 1.395 1_655 S
C1262 C1265 1.403 . S
C1263 C1260 1.403 . S
C1263 C1264 1.524 . S
C1263 C1267 1.400 . S
C1264 H1249 0.960 . S
C1264 H1250 0.960 . S
C1264 H1251 0.960 . S
C1264 C1263 1.524 . S
C1265 C1262 1.403 . S
C1265 C1266 1.392 . S
C1265 C1269 1.495 . S
C1266 C1265 1.392 . S
C1266 C1267 1.385 1_655 S
C1266 C1268 1.478 . S
C1267 H1261 0.930 . S
C1267 C1263 1.400 . S
C1267 C1266 1.385 1_455 S
C1268 C1266 1.478 . S
C1268 C1270 1.381 . S
C1268 C1274 1.383 . S
C1269 C1265 1.495 . S
C1269 H1275 0.959 . S
C1269 H1276 0.961 . S
C1269 H1277 0.960 . S
C1270 C1268 1.381 . S
C1270 C1271 1.394 . S
C1270 H1278 0.930 . S
C1271 C1270 1.394 . S
C1271 C1272 1.383 . S
C1271 H1279 0.929 . S
C1272 C1271 1.383 . S
C1272 C1273 1.377 . S
C1273 H1257 0.930 . S
C1273 C1272 1.377 . S
C1273 C1274 1.379 . S
C1274 H1258 0.931 . S
C1274 C1268 1.383 . S
C1274 C1273 1.379 . S
H1275 C1269 0.959 . S
H1276 C1269 0.961 . S
H1277 C1269 0.960 . S
H1278 C1270 0.930 . S
H1279 C1271 0.929 . S
C713 C460 1.563 1_556 S
C732 C29 1.566 . S
C749 C381 1.562 . S
C768 C108 1.553 . S
C785 C673 1.562 . S
C804 C225 1.553 . S
C821 C577 1.564 . S
C840 C321 1.567 . S
C857 C20 1.281 . S
C876 C233 1.276 . S
C893 C117 1.281 . S
C912 C313 1.275 . S
C929 C145 1.276 . S
C948 C284 1.289 . S
C965 C49 1.279 . S
C984 C205 1.277 . S
C1001 C372 1.279 . S
C1020 C585 1.284 . S
C1037 C665 1.281 . S
C1056 C469 1.276 . S
C1073 C636 1.276 . S
C1092 C497 1.289 . S
C1109 C401 1.279 . S
C1128 C557 1.278 . S
C1145 C137 1.594 . S
C1164 C57 1.583 . S
C1181 C196 1.596 . S
C1200 C293 1.582 . S
C1217 C409 1.598 . S
C1236 C489 1.595 1_556 S
C1253 C548 1.595 . S
C1272 C645 1.582 . S
