# Generated by pormake.
# Topology sxb, (6)-cn, num edge types: 1
# Building blocks:
#     Node 0, Type 0, BuildingBlock: JUFBIX_clean_sbu_0, # of connection points: 6
#     Node 1, Type 0, BuildingBlock: JUFBIX_clean_sbu_0, # of connection points: 6
#     Node 2, Type 0, BuildingBlock: JUFBIX_clean_sbu_0, # of connection points: 6
#     Node 3, Type 0, BuildingBlock: JUFBIX_clean_sbu_0, # of connection points: 6
#     Edge 4, Type (0, 0), BuildingBlock: XUDNAN_clean_linker_2, # of connection points: 2
#     Edge 5, Type (0, 0), BuildingBlock: XUDNAN_clean_linker_2, # of connection points: 2
#     Edge 6, Type (0, 0), BuildingBlock: XUDNAN_clean_linker_2, # of connection points: 2
#     Edge 7, Type (0, 0), BuildingBlock: XUDNAN_clean_linker_2, # of connection points: 2
#     Edge 8, Type (0, 0), BuildingBlock: XUDNAN_clean_linker_2, # of connection points: 2
#     Edge 9, Type (0, 0), BuildingBlock: XUDNAN_clean_linker_2, # of connection points: 2
#     Edge 10, Type (0, 0), BuildingBlock: XUDNAN_clean_linker_2, # of connection points: 2
#     Edge 11, Type (0, 0), BuildingBlock: XUDNAN_clean_linker_2, # of connection points: 2
#     Edge 12, Type (0, 0), BuildingBlock: XUDNAN_clean_linker_2, # of connection points: 2
#     Edge 13, Type (0, 0), BuildingBlock: XUDNAN_clean_linker_2, # of connection points: 2
#     Edge 14, Type (0, 0), BuildingBlock: XUDNAN_clean_linker_2, # of connection points: 2
#     Edge 15, Type (0, 0), BuildingBlock: XUDNAN_clean_linker_2, # of connection points: 2
# Relax obj value: 0.054
# Max RMSD: 0.078
# Mean RMSD: 0.078
data_MOF--net-sxb--node1-JUFBIX_clean_sbu_0--edge1-XUDNAN_clean_linker_2
_symmetry_space_group_name_H-M    P1
_symmetry_Int_Tables_number       1
_symmetry_cell_setting            triclinic
loop_
_symmetry_equiv_pos_as_xyz
'x, y, z'
_cell_length_a     14.524334
_cell_length_b     36.678477
_cell_length_c     29.562392
_cell_angle_alpha  90.473472
_cell_angle_beta   95.180712
_cell_angle_gamma 89.987005
loop_
_atom_site_label
_atom_site_type_symbol
_atom_site_fract_x
_atom_site_fract_y
_atom_site_fract_z
_atom_type_partial_charge
Co0 Co -0.00889 1.00788 0.01972 0.0
C1 C 0.96784 0.05168 0.09568 0.0
Co2 Co 0.97653 0.06749 1.00501 0.0
C3 C 0.02263 0.92848 1.00765 0.0
C4 C 0.05269 0.94755 0.07596 0.0
N5 N 0.01633 0.9585 0.03453 0.0
N6 N 0.06175 0.8999 0.03092 0.0
C7 C 0.08059 0.91189 0.07376 0.0
H8 H 0.00501 0.92823 0.9713 0.0
H9 H 0.06482 0.96495 0.10556 0.0
C10 C -0.00109 1.02441 0.92891 0.0
N11 N 0.95555 0.11696 0.99165 0.0
C12 C 0.88065 0.13761 0.99881 0.0
C13 C 0.01415 0.14022 0.97376 0.0
N14 N 0.8908 0.17273 0.9865 0.0
C15 C 0.97493 0.17445 0.97087 0.0
C16 C 0.15511 0.04741 0.0263 0.0
O17 O 0.00347 0.99836 0.95725 0.0
O18 O -0.01321 0.05686 0.9428 0.0
O19 O 0.10729 0.0753 0.01422 0.0
O20 O 0.11617 1.01681 0.02945 0.0
O21 O 0.96632 0.07764 0.06741 0.0
H22 H 0.0814 0.13287 0.96355 0.0
H23 H 0.82047 0.1273 0.01366 0.0
O24 O 0.97749 1.01916 0.08171 0.0
O25 O 0.86467 0.99943 0.01077 0.0
O26 O 0.84762 0.05816 0.99684 0.0
C27 C 0.81259 1.02682 1.00196 0.0
H28 H 0.11613 0.8964 0.10105 0.0
H29 H 0.00544 0.19866 0.95775 0.0
Co30 Co 0.97357 1.00832 0.505 0.0
C31 C 0.96059 0.05069 0.42735 0.0
Co32 Co -0.01602 0.06839 0.51915 0.0
C33 C 0.88493 0.93642 0.50126 0.0
C34 C 0.01826 0.93475 0.4761 0.0
N35 N 0.95795 0.95786 0.49355 0.0
N36 N 0.89769 0.90118 0.48964 0.0
C37 C -0.01819 0.90001 0.47399 0.0
H38 H 0.82376 0.94621 0.51575 0.0
H39 H 0.08465 0.94251 0.46534 0.0
C40 C -0.00284 1.02599 0.59682 0.0
N41 N 7e-05 0.11875 0.53045 0.0
C42 C 0.07278 0.13997 0.5217 0.0
C43 C 0.94151 0.14192 0.54904 0.0
N44 N 0.06159 0.17518 0.53388 0.0
C45 C 0.97875 0.17654 0.55088 0.0
C46 C 0.80942 0.04279 0.51743 0.0
O47 O -0.01336 0.99974 0.56835 0.0
O48 O -0.00129 0.05867 0.58255 0.0
O49 O 0.85526 0.0722 0.52232 0.0
O50 O 0.84839 1.01336 0.50737 0.0
O51 O 0.96897 0.07699 0.45581 0.0
H52 H 0.87596 0.13427 0.56085 0.0
H53 H 0.1326 0.13004 0.50608 0.0
O54 O 0.96091 1.01799 0.44164 0.0
O55 O 0.10022 1.00416 0.50407 0.0
O56 O 0.11142 0.0632 0.51667 0.0
C57 C 0.14903 1.0326 0.51068 0.0
H58 H 0.01397 0.87587 0.46117 0.0
H59 H 0.94815 0.20072 0.56451 0.0
Co60 Co 0.48693 0.50731 0.01958 0.0
C61 C 0.47212 0.55293 0.09521 0.0
Co62 Co 0.47205 0.56676 1.00353 0.0
C63 C 0.52111 0.42804 1.00892 0.0
C64 C 0.54751 0.44742 0.07727 0.0
N65 N 0.51263 0.45811 0.03547 0.0
N66 N 0.56019 0.39971 0.0327 0.0
C67 C 0.57673 0.4119 0.07558 0.0
H68 H 0.50517 0.42756 0.97245 0.0
H69 H 0.55775 0.46485 0.10691 0.0
C70 C 0.48631 0.52192 0.92768 0.0
N71 N 0.45026 0.61599 0.98879 0.0
C72 C 0.37658 0.63701 0.99695 0.0
C73 C 0.50676 0.63863 0.96846 0.0
N74 N 0.38555 0.67176 0.98293 0.0
C75 C 0.46761 0.67286 0.96514 0.0
C76 C 0.6507 0.54707 0.0186 0.0
O77 O 0.49255 0.49637 0.95673 0.0
O78 O 0.47736 0.55472 0.9411 0.0
O79 O 0.59904 0.57435 1.00928 0.0
O80 O 0.61538 0.51617 0.02545 0.0
O81 O 0.46705 0.57833 0.0661 0.0
H82 H 0.5725 0.63085 0.95681 0.0
H83 H 0.31814 0.62724 0.01366 0.0
O84 O 0.47996 0.52014 0.08182 0.0
O85 O 0.35717 0.49911 0.01281 0.0
O86 O 0.34673 0.5578 0.99714 0.0
C87 C 0.30873 0.52701 1.00112 0.0
H88 H 0.61155 0.39664 0.10329 0.0
H89 H 0.49669 0.69662 0.95025 0.0
Co90 Co 0.47256 0.50802 0.50263 0.0
C91 C 0.48879 0.55431 0.42838 0.0
Co92 Co 0.49078 0.56722 0.52034 0.0
C93 C 0.43481 0.42889 0.50828 0.0
C94 C 0.3906 0.45224 0.44387 0.0
N95 N 0.43852 0.46014 0.48413 0.0
N96 N 0.38575 0.40246 0.48462 0.0
C97 C 0.35824 0.41713 0.44417 0.0
H98 H 0.46124 0.42636 0.54353 0.0
H99 H 0.37375 0.47153 0.41695 0.0
C100 C 0.47444 0.52092 0.59461 0.0
N101 N 0.52503 0.61511 0.53881 0.0
C102 C 0.5286 0.64636 0.51464 0.0
C103 C 0.57271 0.6231 0.57911 0.0
N104 N 0.5774 0.67286 0.5383 0.0
C105 C 0.60482 0.65825 0.5788 0.0
C106 C 0.31153 0.55137 0.50622 0.0
O107 O 0.46678 0.4956 0.56485 0.0
O108 O 0.48468 0.55359 0.582 0.0
O109 O 0.36479 0.57826 0.51663 0.0
O110 O 0.34524 0.52022 0.49825 0.0
O111 O 0.49551 0.57968 0.45809 0.0
H112 H 0.58952 0.60387 0.6061 0.0
H113 H 0.50217 0.64886 0.47939 0.0
O114 O 0.47963 0.52159 0.44105 0.0
O115 O 0.60137 0.4968 0.50783 0.0
O116 O 0.61546 0.55529 0.52484 0.0
C117 C 0.65183 0.52429 0.51961 0.0
H118 H 0.31402 0.40388 0.4175 0.0
H119 H 0.64874 0.67158 0.60552 0.0
H120 H 0.428 0.74228 1.00389 0.0
H121 H 0.19834 0.66895 0.96934 0.0
H122 H 0.08905 0.72082 0.97203 0.0
H123 H 0.31429 0.79545 0.08455 0.0
H124 H 0.36772 0.8377 0.07037 0.0
H125 H 0.42649 0.79515 0.06297 0.0
H126 H 0.44016 0.81067 0.97848 0.0
H127 H 0.38054 0.85314 0.98554 0.0
H128 H 0.33726 0.82112 0.94216 0.0
H129 H 0.00495 0.78214 0.97744 0.0
H130 H 0.95354 0.84503 0.99504 0.0
H131 H 0.23769 0.87663 0.03079 0.0
C132 C 0.35472 0.73726 0.99656 0.0
C133 C 0.32154 0.70168 0.98598 0.0
C134 C 0.22503 0.69599 0.97758 0.0
C135 C 0.16266 0.72534 0.97872 0.0
C136 C 0.19776 0.76019 0.98894 0.0
C137 C 0.2916 0.76608 0.99845 0.0
C138 C 0.31158 0.80556 0.0114 0.0
C139 C 0.35772 0.80863 0.06022 0.0
C140 C 0.3709 0.82369 0.97736 0.0
C141 C 0.21449 0.82108 1.00777 0.0
C142 C 0.14966 0.79471 0.994 0.0
C143 C 0.0553 0.8029 0.98825 0.0
C144 C 0.0266 0.83863 0.99793 0.0
C145 C 0.09182 0.86545 0.01377 0.0
C146 C 0.1868 0.85654 0.01826 0.0
H147 H 0.73674 0.3765 0.03649 0.0
H148 H 0.45525 0.34511 0.99363 0.0
H149 H 0.50874 0.28251 0.97603 0.0
H150 H 0.84465 0.32284 0.94939 0.0
H151 H 0.94479 0.31209 0.98746 0.0
H152 H 0.88351 0.3542 0.99439 0.0
H153 H 0.86319 0.33739 0.0778 0.0
H154 H 0.92332 0.29505 0.07105 0.0
H155 H 0.80869 0.29483 0.08986 0.0
H156 H 0.59388 0.22136 0.9711 0.0
H157 H 0.70418 0.16979 0.96917 0.0
H158 H 0.93091 0.24292 0.01043 0.0
C159 C 0.68695 0.35651 0.02252 0.0
C160 C 0.59206 0.36538 0.01603 0.0
C161 C 0.52826 0.33873 0.99815 0.0
C162 C 0.55812 0.30317 0.98844 0.0
C163 C 0.65226 0.295 0.99614 0.0
C164 C 0.7159 0.32125 0.01187 0.0
C165 C 0.81306 0.30579 0.01724 0.0
C166 C 0.87515 0.32486 0.9852 0.0
C167 C 0.85445 0.30842 0.06694 0.0
C168 C 0.79437 0.26652 1.00292 0.0
C169 C 0.70114 0.26064 0.9913 0.0
C170 C 0.66709 0.2259 0.97943 0.0
C171 C 0.73001 0.19671 0.97872 0.0
C172 C 0.82605 0.20244 0.98919 0.0
C173 C 0.85809 0.23787 1.00149 0.0
H174 H 0.01915 0.24498 0.51056 0.0
H175 H 0.24848 0.17285 0.54919 0.0
H176 H 0.35772 0.2245 0.5456 0.0
H177 H 0.1355 0.29533 0.42916 0.0
H178 H 0.08155 0.33809 0.44157 0.0
H179 H 0.02243 0.29586 0.44981 0.0
H180 H 0.00594 0.31419 0.53355 0.0
H181 H 0.06569 0.35637 0.52558 0.0
H182 H 0.10776 0.32585 0.57025 0.0
H183 H 0.44164 0.28561 0.53958 0.0
H184 H 0.49333 0.34813 0.52163 0.0
H185 H 0.20984 0.37838 0.48186 0.0
C186 C 0.09233 0.2402 0.5186 0.0
C187 C 0.12543 0.20503 0.53058 0.0
C188 C 0.22184 0.19959 0.53988 0.0
C189 C 0.2842 0.22882 0.53823 0.0
C190 C 0.24921 0.26328 0.52658 0.0
C191 C 0.15551 0.26889 0.5162 0.0
C192 C 0.13579 0.3079 0.50187 0.0
C193 C 0.09122 0.30936 0.45268 0.0
C194 C 0.07522 0.32721 0.53479 0.0
C195 C 0.23285 0.32345 0.50577 0.0
C196 C 0.29741 0.29755 0.52085 0.0
C197 C 0.39157 0.30598 0.52757 0.0
C198 C 0.42041 0.34149 0.51763 0.0
C199 C 0.35555 0.36778 0.50038 0.0
C200 C 0.26068 0.35862 0.49491 0.0
H201 H 0.94116 0.8317 0.51407 0.0
H202 H 0.71109 0.90258 0.47233 0.0
H203 H 0.60297 0.8505 0.47544 0.0
H204 H 0.8567 0.75012 0.45441 0.0
H205 H 0.89808 0.72004 0.49968 0.0
H206 H 0.95706 0.76241 0.49179 0.0
H207 H 0.93715 0.78118 0.57505 0.0
H208 H 0.87875 0.73878 0.58326 0.0
H209 H 0.82319 0.7814 0.5947 0.0
H210 H 0.52028 0.78914 0.48157 0.0
H211 H 0.46954 0.72655 0.49981 0.0
H212 H 0.75279 0.69775 0.54244 0.0
C213 C 0.86808 0.83612 0.50524 0.0
C214 C 0.83445 0.87107 0.49254 0.0
C215 C 0.73813 0.87603 0.4822 0.0
C216 C 0.67642 0.84655 0.48359 0.0
C217 C 0.71192 0.81233 0.49601 0.0
C218 C 0.80551 0.80719 0.50733 0.0
C219 C 0.82577 0.76836 0.52226 0.0
C220 C 0.88809 0.7491 0.49011 0.0
C221 C 0.86872 0.76739 0.57175 0.0
C222 C 0.72913 0.7524 0.5177 0.0
C223 C 0.66435 0.77791 0.50172 0.0
C224 C 0.57052 0.76906 0.49428 0.0
C225 C 0.54223 0.73351 0.5044 0.0
C226 C 0.60725 0.70761 0.52254 0.0
C227 C 0.7018 0.71721 0.52874 0.0
H228 H 0.28326 0.08758 0.98456 0.0
H229 H 0.25151 1.00797 0.08992 0.0
H230 H 0.41765 0.99491 0.09467 0.0
H231 H 0.43736 0.0399 0.92681 0.0
H232 H 0.51137 0.07717 0.91401 0.0
H233 H 0.39219 0.08567 0.92277 0.0
H234 H 0.44051 0.13251 0.98663 0.0
H235 H 0.55986 0.12512 0.97695 0.0
H236 H 0.52272 0.1194 0.033 0.0
H237 H 0.57442 0.98121 0.07798 0.0
H238 H 0.73249 0.97858 0.05477 0.0
H239 H 0.67194 0.0699 0.96419 0.0
C240 C 0.31246 0.06868 1.0099 0.0
C241 C 0.25534 0.04857 0.03668 0.0
C242 C 0.29471 1.02341 0.06894 0.0
C243 C 0.38875 1.01572 0.07185 0.0
C244 C 0.44252 1.03398 0.04287 0.0
C245 C 0.4073 0.06089 0.01367 0.0
C246 C 0.48118 0.07506 0.98521 0.0
C247 C 0.45383 0.06908 0.93418 0.0
C248 C 0.50234 0.11542 0.99612 0.0
C249 C 0.56145 0.0508 1.00191 0.0
C250 C 0.53673 1.02711 0.03477 0.0
C251 C 0.59587 1.00018 0.05313 0.0
C252 C 0.68489 0.99853 0.03917 0.0
C253 C 0.71394 1.02406 1.00779 0.0
C254 C 0.65109 0.05016 0.98835 0.0
H255 H 0.27553 0.08399 0.4936 0.0
H256 H 0.24459 0.97443 0.5448 0.0
H257 H 0.41264 0.97079 0.5642 0.0
H258 H 0.47311 0.06498 0.43881 0.0
H259 H 0.52749 0.10862 0.45067 0.0
H260 H 0.40364 0.10485 0.44697 0.0
H261 H 0.40344 0.13333 0.52751 0.0
H262 H 0.52777 0.13673 0.53175 0.0
H263 H 0.47149 0.11269 0.57451 0.0
H264 H 0.57786 0.97679 0.57393 0.0
H265 H 0.74034 0.98763 0.56226 0.0
H266 H 0.66929 0.09231 0.50112 0.0
C267 C 0.30463 0.05944 0.5092 0.0
C268 C 0.24855 1.0295 0.51796 0.0
C269 C 0.28756 0.99745 0.53764 0.0
C270 C 0.38227 0.9954 0.54946 0.0
C271 C 0.43589 1.02554 0.54097 0.0
C272 C 0.39926 0.05669 0.52051 0.0
C273 C 0.47398 0.0831 0.50982 0.0
C274 C 0.46927 0.09081 0.45853 0.0
C275 C 0.46884 0.11856 0.53757 0.0
C276 C 0.55843 0.06105 0.5257 0.0
C277 C 0.53411 1.02854 0.54492 0.0
C278 C 0.59823 1.00215 0.55924 0.0
C279 C 0.68982 1.00839 0.55197 0.0
C280 C 0.71552 0.04042 0.52996 0.0
C281 C 0.65028 0.06779 0.51821 0.0
H282 H 0.79066 0.50594 0.05984 0.0
H283 H 0.73006 0.59215 0.96173 0.0
H284 H 0.88906 0.58864 0.93972 0.0
H285 H 0.0205 0.53837 0.09647 0.0
H286 H 0.06783 0.49324 0.10483 0.0
H287 H 0.94748 0.50137 0.11121 0.0
H288 H 0.90394 0.45033 0.05184 0.0
H289 H 0.0243 0.4428 0.0444 0.0
H290 H 0.94424 0.45322 0.99606 0.0
H291 H 0.04745 0.5752 0.9262 0.0
H292 H 0.21428 0.56341 0.93416 0.0
H293 H 0.18025 0.48844 0.04432 0.0
C294 C 0.81164 0.52428 0.03412 0.0
C295 C 0.74889 0.54927 0.01234 0.0
C296 C 0.77785 0.5731 0.97906 0.0
C297 C 0.8673 0.57089 0.96581 0.0
C298 C 0.92662 0.5451 0.9867 0.0
C299 C 0.9015 0.523 0.02111 0.0
C300 C -0.01796 0.50004 0.04055 0.0
C301 C 0.00589 0.5088 0.09126 0.0
C302 C 0.96242 0.45917 0.03273 0.0
C303 C 0.05657 0.5132 0.01194 0.0
C304 C 0.02155 0.53837 0.98027 0.0
C305 C 0.0761 0.55565 0.95082 0.0
C306 C 0.17047 0.54872 0.95559 0.0
C307 C 0.20908 0.52523 0.99 0.0
C308 C 0.15151 0.50603 0.01737 0.0
H309 H 0.17119 0.51532 0.457 0.0
H310 H 0.23111 0.59127 0.56915 0.0
H311 H 0.07088 0.58522 0.58959 0.0
H312 H 0.9379 0.55009 0.42592 0.0
H313 H 0.89257 0.5057 0.40954 0.0
H314 H 0.01234 0.51599 0.40437 0.0
H315 H 0.05912 0.45965 0.45365 0.0
H316 H 0.93944 0.44989 0.46013 0.0
H317 H 0.02008 0.45608 0.50962 0.0
H318 H 0.91177 0.56823 0.60114 0.0
H319 H 0.74581 0.55403 0.59236 0.0
H320 H 0.7817 0.49215 0.46947 0.0
C321 C 0.14965 0.53114 0.4853 0.0
C322 C 0.21264 0.55383 0.51157 0.0
C323 C 0.18306 0.57419 0.54835 0.0
C324 C 0.09289 0.57046 0.56061 0.0
C325 C 0.03343 0.54676 0.53516 0.0
C326 C 0.05916 0.52842 0.49736 0.0
C327 C 0.9792 0.50669 0.47421 0.0
C328 C 0.95399 0.52045 0.42564 0.0
C329 C 0.0008 0.46564 0.47444 0.0
C330 C 0.90448 0.5157 0.50512 0.0
C331 C 0.93866 0.53812 0.54064 0.0
C332 C 0.88385 0.55091 0.57342 0.0
C333 C 0.79003 0.54248 0.56829 0.0
C334 C 0.75188 0.52199 0.53034 0.0
C335 C 0.80999 0.50719 0.49921 0.0
H336 H 0.96371 1.00125 0.35731 0.0
H337 H 0.94209 0.11711 0.38593 0.0
H338 H 0.93601 0.12989 0.30387 0.0
H339 H 0.11186 1.00967 0.26887 0.0
H340 H 0.05937 0.97285 0.23497 0.0
H341 H 0.05687 0.9726 0.29574 0.0
H342 H 0.87824 0.96701 0.28628 0.0
H343 H 0.88023 0.96713 0.22544 0.0
H344 H 0.81119 1.0001 0.25274 0.0
H345 H 0.93755 0.13023 0.21883 0.0
H346 H 0.94761 0.11801 0.1371 0.0
H347 H 0.96953 1.00203 0.16452 0.0
C348 C 0.95676 1.02929 0.34634 0.0
C349 C 0.95309 0.05817 0.37806 0.0
C350 C 0.94495 0.09451 0.36227 0.0
C351 C 0.94131 0.10207 0.31572 0.0
C352 C 0.94595 0.07299 0.28541 0.0
C353 C 0.95342 1.03733 0.30006 0.0
C354 C 0.96024 1.01116 0.26064 0.0
C355 C 0.05258 0.99036 0.26535 0.0
C356 C 0.87753 0.9848 0.25601 0.0
C357 C 0.95622 1.0377 0.22159 0.0
C358 C 0.94753 0.07322 0.23652 0.0
C359 C 0.94402 0.10251 0.20669 0.0
C360 C 0.94988 0.0953 0.16036 0.0
C361 C 0.95945 0.05909 0.14438 0.0
C362 C 0.96216 1.03002 0.17557 0.0
H363 H -0.00483 0.0742 0.86015 0.0
H364 H 0.01879 0.95819 0.88712 0.0
H365 H 0.02634 0.94614 0.80521 0.0
H366 H 0.85013 0.06669 0.75722 0.0
H367 H 0.90371 0.10387 0.7299 0.0
H368 H 0.90392 0.10343 0.7908 0.0
H369 H 0.08254 0.10913 0.79895 0.0
H370 H 0.0829 0.10961 0.73803 0.0
H371 H 0.15084 0.07635 0.77086 0.0
H372 H 0.02467 0.94659 0.72005 0.0
H373 H 0.01616 0.9595 0.63797 0.0
H374 H -0.0044 0.07533 0.66706 0.0
C375 C 0.00247 0.04625 0.84895 0.0
C376 C 0.00632 1.01712 0.88008 0.0
C377 C 0.01573 0.98095 0.86393 0.0
C378 C 0.02014 0.97383 0.81747 0.0
C379 C 0.01547 1.00317 0.7877 0.0
C380 C 0.00718 0.03866 0.80281 0.0
C381 C 0.00179 0.06525 0.76375 0.0
C382 C 0.90939 0.08602 0.76022 0.0
C383 C 0.08445 0.09164 0.76817 0.0
C384 C 0.00733 0.03913 0.7242 0.0
C385 C 0.01535 1.00346 0.73874 0.0
C386 C 0.019 0.97443 0.70829 0.0
C387 C 0.01395 0.98206 0.66173 0.0
C388 C 0.00551 1.01844 0.64608 0.0
C389 C 0.00277 0.04726 0.67792 0.0
H390 H 0.48493 0.50529 0.35806 0.0
H391 H 0.49229 0.62145 0.38767 0.0
H392 H 0.48685 0.63415 0.30534 0.0
H393 H 0.62903 0.5077 0.26548 0.0
H394 H 0.56442 0.47268 0.23341 0.0
H395 H 0.56924 0.47313 0.29449 0.0
H396 H 0.39017 0.47397 0.29004 0.0
H397 H 0.38479 0.47364 0.22894 0.0
H398 H 0.3276 0.50921 0.25816 0.0
H399 H 0.47789 0.63374 0.21895 0.0
H400 H 0.47225 0.6203 0.1366 0.0
H401 H 0.4719 0.50437 0.16509 0.0
C402 C 0.48564 0.53346 0.34739 0.0
C403 C 0.48895 0.56239 0.37937 0.0
C404 C 0.48992 0.59882 0.36381 0.0
C405 C 0.48664 0.6063 0.31713 0.0
C406 C 0.48269 0.57705 0.28653 0.0
C407 C 0.48266 0.54137 0.30114 0.0
C408 C 0.4785 0.51475 0.26162 0.0
C409 C 0.56548 0.49065 0.2639 0.0
C410 C 0.38999 0.49154 0.25958 0.0
C411 C 0.4761 0.54099 0.22235 0.0
C412 C 0.47827 0.57681 0.23727 0.0
C413 C 0.47636 0.60578 0.20694 0.0
C414 C 0.47296 0.59787 0.16022 0.0
C415 C 0.47181 0.56129 0.14432 0.0
C416 C 0.47294 0.53263 0.17602 0.0
H417 H 0.47825 0.56991 0.66499 0.0
H418 H 0.46981 0.45378 0.63521 0.0
H419 H 0.4739 0.44102 0.71747 0.0
H420 H 0.63393 0.56561 0.76562 0.0
H421 H 0.57654 0.60127 0.79459 0.0
H422 H 0.57241 0.60099 0.73352 0.0
H423 H 0.3933 0.60218 0.72817 0.0
H424 H 0.39687 0.60258 0.78922 0.0
H425 H 0.33242 0.56771 0.75681 0.0
H426 H 0.48159 0.44133 0.80377 0.0
H427 H 0.48599 0.45464 0.88609 0.0
H428 H 0.48755 0.57063 0.85797 0.0
C429 C 0.47709 0.54174 0.67562 0.0
C430 C 0.47383 0.51282 0.6436 0.0
C431 C 0.47218 0.47639 0.65909 0.0
C432 C 0.47468 0.46888 0.70574 0.0
C433 C 0.47852 0.49809 0.73638 0.0
C434 C 0.47923 0.53379 0.72184 0.0
C435 C 0.4829 0.56036 0.7614 0.0
C436 C 0.57174 0.58341 0.76392 0.0
C437 C 0.3962 0.58463 0.75873 0.0
C438 C 0.48417 0.53409 0.80061 0.0
C439 C 0.48199 0.49828 0.78561 0.0
C440 C 0.48311 0.46928 0.81585 0.0
C441 C 0.4858 0.47711 0.86256 0.0
C442 C 0.48695 0.51367 0.87855 0.0
C443 C 0.4865 0.54238 0.84695 0.0
loop_
_geom_bond_atom_site_label_1
_geom_bond_atom_site_label_2
_geom_bond_distance
_geom_bond_site_symmetry_2
_ccdc_geom_bond_type
Co0 N5 2.057 1_556 S
Co0 O17 2.021 . S
Co0 O20 2.062 . S
Co0 O24 2.117 1_556 S
Co0 O25 2.020 1_455 S
C1 O21 1.259 1_455 S
C1 O24 1.258 1_545 S
Co2 N11 2.057 1_554 S
Co2 O18 2.117 1_554 S
Co2 O19 2.020 1_655 S
Co2 O21 2.021 . S
Co2 O26 2.062 . S
C3 N5 1.316 1_556 S
C3 N6 1.347 1_556 S
C3 H8 0.931 . S
C4 N5 1.375 . S
C4 C7 1.350 . S
C4 H9 0.930 . S
N5 Co0 2.057 1_554 S
N5 C3 1.316 1_554 S
N5 C4 1.375 . S
N6 C3 1.347 1_554 S
N6 C7 1.373 . S
C7 C4 1.350 . S
C7 N6 1.373 . S
C7 H28 0.931 . S
H8 C3 0.931 . S
H9 C4 0.930 . S
C10 O17 1.259 1_655 S
C10 O18 1.258 1_565 S
N11 Co2 2.057 1_556 S
N11 C12 1.316 1_556 S
N11 C13 1.375 . S
C12 N11 1.316 1_554 S
C12 N14 1.347 1_554 S
C12 H23 0.931 . S
C13 N11 1.375 . S
C13 C15 1.350 . S
C13 H22 0.930 . S
N14 C12 1.347 1_556 S
N14 C15 1.373 . S
C15 C13 1.350 . S
C15 N14 1.373 . S
C15 H29 0.931 . S
C16 O19 1.257 . S
C16 O20 1.254 1_544 S
O17 Co0 2.021 . S
O17 C10 1.259 1_455 S
O18 Co2 2.117 1_556 S
O18 C10 1.258 1_545 S
O19 Co2 2.020 1_455 S
O19 C16 1.257 . S
O20 Co0 2.062 . S
O20 C16 1.254 1_566 S
O21 C1 1.259 1_655 S
O21 Co2 2.021 . S
H22 C13 0.930 . S
H23 C12 0.931 . S
O24 Co0 2.117 1_554 S
O24 C1 1.258 1_565 S
O25 Co0 2.020 1_655 S
O25 C27 1.257 . S
O26 Co2 2.062 . S
O26 C27 1.254 1_544 S
C27 O25 1.257 . S
C27 O26 1.254 1_566 S
H28 C7 0.931 . S
H29 C15 0.931 . S
Co30 N35 2.057 . S
Co30 O47 2.021 . S
Co30 O50 2.062 . S
Co30 O54 2.117 . S
Co30 O55 2.020 1_655 S
C31 O51 1.259 1_655 S
C31 O54 1.258 1_545 S
Co32 N41 2.057 . S
Co32 O48 2.117 . S
Co32 O49 2.020 1_455 S
Co32 O51 2.021 . S
Co32 O56 2.062 . S
C33 N35 1.316 . S
C33 N36 1.347 . S
C33 H38 0.931 . S
C34 N35 1.375 . S
C34 C37 1.350 . S
C34 H39 0.930 . S
N35 Co30 2.057 . S
N35 C33 1.316 . S
N35 C34 1.375 . S
N36 C33 1.347 . S
N36 C37 1.373 . S
C37 C34 1.350 . S
C37 N36 1.373 . S
C37 H58 0.931 . S
H38 C33 0.931 . S
H39 C34 0.930 . S
C40 O47 1.259 1_455 S
C40 O48 1.258 1_565 S
N41 Co32 2.057 . S
N41 C42 1.316 . S
N41 C43 1.375 . S
C42 N41 1.316 . S
C42 N44 1.347 . S
C42 H53 0.931 . S
C43 N41 1.375 . S
C43 C45 1.350 . S
C43 H52 0.930 . S
N44 C42 1.347 . S
N44 C45 1.373 . S
C45 C43 1.350 . S
C45 N44 1.373 . S
C45 H59 0.931 . S
C46 O49 1.256 . S
C46 O50 1.255 1_545 S
O47 Co30 2.021 . S
O47 C40 1.259 1_655 S
O48 Co32 2.117 . S
O48 C40 1.258 1_545 S
O49 Co32 2.020 1_655 S
O49 C46 1.256 . S
O50 Co30 2.062 . S
O50 C46 1.255 1_565 S
O51 C31 1.259 1_455 S
O51 Co32 2.021 . S
H52 C43 0.930 . S
H53 C42 0.931 . S
O54 Co30 2.117 . S
O54 C31 1.258 1_565 S
O55 Co30 2.020 1_455 S
O55 C57 1.256 . S
O56 Co32 2.062 . S
O56 C57 1.255 1_545 S
C57 O55 1.256 . S
C57 O56 1.255 1_565 S
H58 C37 0.931 . S
H59 C45 0.931 . S
Co60 N65 2.057 1_556 S
Co60 O77 2.021 . S
Co60 O80 2.062 . S
Co60 O84 2.117 1_556 S
Co60 O85 2.020 . S
C61 O81 1.259 . S
C61 O84 1.258 . S
Co62 N71 2.057 1_554 S
Co62 O78 2.117 1_554 S
Co62 O79 2.020 . S
Co62 O81 2.021 . S
Co62 O86 2.062 . S
C63 N65 1.316 1_556 S
C63 N66 1.347 1_556 S
C63 H68 0.931 . S
C64 N65 1.375 . S
C64 C67 1.350 . S
C64 H69 0.930 . S
N65 Co60 2.057 1_554 S
N65 C63 1.316 1_554 S
N65 C64 1.375 . S
N66 C63 1.347 1_554 S
N66 C67 1.373 . S
C67 C64 1.350 . S
C67 N66 1.373 . S
C67 H88 0.931 . S
H68 C63 0.931 . S
H69 C64 0.930 . S
C70 O77 1.259 . S
C70 O78 1.258 . S
N71 Co62 2.057 1_556 S
N71 C72 1.316 1_556 S
N71 C73 1.375 . S
C72 N71 1.316 1_554 S
C72 N74 1.347 1_554 S
C72 H83 0.931 . S
C73 N71 1.375 . S
C73 C75 1.350 . S
C73 H82 0.930 . S
N74 C72 1.347 1_556 S
N74 C75 1.373 . S
C75 C73 1.350 . S
C75 N74 1.373 . S
C75 H89 0.931 . S
C76 O79 1.257 . S
C76 O80 1.254 1_554 S
O77 Co60 2.021 . S
O77 C70 1.259 . S
O78 Co62 2.117 1_556 S
O78 C70 1.258 . S
O79 Co62 2.020 . S
O79 C76 1.257 . S
O80 Co60 2.062 . S
O80 C76 1.254 1_556 S
O81 C61 1.259 . S
O81 Co62 2.021 . S
H82 C73 0.930 . S
H83 C72 0.931 . S
O84 Co60 2.117 1_554 S
O84 C61 1.258 . S
O85 Co60 2.020 . S
O85 C87 1.257 . S
O86 Co62 2.062 . S
O86 C87 1.254 1_554 S
C87 O85 1.257 . S
C87 O86 1.254 1_556 S
H88 C67 0.931 . S
H89 C75 0.931 . S
Co90 N95 2.057 . S
Co90 O107 2.021 . S
Co90 O110 2.062 . S
Co90 O114 2.117 . S
Co90 O115 2.020 . S
C91 O111 1.259 . S
C91 O114 1.258 . S
Co92 N101 2.057 . S
Co92 O108 2.117 . S
Co92 O109 2.020 . S
Co92 O111 2.021 . S
Co92 O116 2.062 . S
C93 N95 1.316 . S
C93 N96 1.347 . S
C93 H98 0.931 . S
C94 N95 1.375 . S
C94 C97 1.350 . S
C94 H99 0.930 . S
N95 Co90 2.057 . S
N95 C93 1.316 . S
N95 C94 1.375 . S
N96 C93 1.347 . S
N96 C97 1.373 . S
C97 C94 1.350 . S
C97 N96 1.373 . S
C97 H118 0.931 . S
H98 C93 0.931 . S
H99 C94 0.930 . S
C100 O107 1.259 . S
C100 O108 1.258 . S
N101 Co92 2.057 . S
N101 C102 1.316 . S
N101 C103 1.375 . S
C102 N101 1.316 . S
C102 N104 1.347 . S
C102 H113 0.931 . S
C103 N101 1.375 . S
C103 C105 1.350 . S
C103 H112 0.930 . S
N104 C102 1.347 . S
N104 C105 1.373 . S
C105 C103 1.350 . S
C105 N104 1.373 . S
C105 H119 0.931 . S
C106 O109 1.256 . S
C106 O110 1.255 . S
O107 Co90 2.021 . S
O107 C100 1.259 . S
O108 Co92 2.117 . S
O108 C100 1.258 . S
O109 Co92 2.020 . S
O109 C106 1.256 . S
O110 Co90 2.062 . S
O110 C106 1.255 . S
O111 C91 1.259 . S
O111 Co92 2.021 . S
H112 C103 0.930 . S
H113 C102 0.931 . S
O114 Co90 2.117 . S
O114 C91 1.258 . S
O115 Co90 2.020 . S
O115 C117 1.256 . S
O116 Co92 2.062 . S
O116 C117 1.255 . S
C117 O115 1.256 . S
C117 O116 1.255 . S
H118 C97 0.931 . S
H119 C105 0.931 . S
H120 C132 0.930 . S
H121 C134 0.930 . S
H122 C135 0.930 . S
H123 C139 0.959 . S
H124 C139 0.959 . S
H125 C139 0.961 . S
H126 C140 0.960 . S
H127 C140 0.961 . S
H128 C140 0.959 . S
H129 C143 0.929 . S
H130 C144 0.931 . S
H131 C146 0.930 . S
C132 H120 0.930 . S
C132 C133 1.399 1_556 S
C132 C137 1.399 . S
C133 C132 1.399 1_554 S
C133 C134 1.376 . S
C134 H121 0.930 . S
C134 C133 1.376 . S
C134 C135 1.388 . S
C135 H122 0.930 . S
C135 C134 1.388 . S
C135 C136 1.390 . S
C136 C135 1.390 . S
C136 C137 1.394 1_554 S
C136 C142 1.465 . S
C137 C132 1.399 . S
C137 C136 1.394 1_556 S
C137 C138 1.516 . S
C138 C137 1.516 . S
C138 C139 1.502 . S
C138 C140 1.561 . S
C138 C141 1.526 . S
C139 H123 0.959 . S
C139 H124 0.959 . S
C139 H125 0.961 . S
C139 C138 1.502 . S
C140 H126 0.960 . S
C140 H127 0.961 . S
C140 H128 0.959 . S
C140 C138 1.561 . S
C141 C138 1.526 . S
C141 C142 1.396 1_556 S
C141 C146 1.390 . S
C142 C136 1.465 . S
C142 C141 1.396 1_554 S
C142 C143 1.399 . S
C143 H129 0.929 . S
C143 C142 1.399 . S
C143 C144 1.385 . S
C144 H130 0.931 . S
C144 C143 1.385 . S
C144 C145 1.389 . S
C145 C144 1.389 . S
C145 C146 1.387 1_554 S
C146 H131 0.930 . S
C146 C141 1.390 . S
C146 C145 1.387 1_556 S
H147 C159 0.930 . S
H148 C161 0.930 . S
H149 C162 0.930 . S
H150 C166 0.959 . S
H151 C166 0.959 . S
H152 C166 0.961 . S
H153 C167 0.960 . S
H154 C167 0.961 . S
H155 C167 0.959 . S
H156 C170 0.929 . S
H157 C171 0.931 . S
H158 C173 0.930 . S
C159 H147 0.930 . S
C159 C160 1.399 1_554 S
C159 C164 1.399 . S
C160 C159 1.399 1_556 S
C160 C161 1.376 . S
C161 H148 0.930 . S
C161 C160 1.376 . S
C161 C162 1.388 . S
C162 H149 0.930 . S
C162 C161 1.388 . S
C162 C163 1.390 . S
C163 C162 1.390 . S
C163 C164 1.394 1_556 S
C163 C169 1.465 . S
C164 C159 1.399 . S
C164 C163 1.394 1_554 S
C164 C165 1.516 . S
C165 C164 1.516 . S
C165 C166 1.502 . S
C165 C167 1.561 . S
C165 C168 1.526 . S
C166 H150 0.959 . S
C166 H151 0.959 . S
C166 H152 0.961 . S
C166 C165 1.502 . S
C167 H153 0.960 . S
C167 H154 0.961 . S
C167 H155 0.959 . S
C167 C165 1.561 . S
C168 C165 1.526 . S
C168 C169 1.396 1_554 S
C168 C173 1.390 . S
C169 C163 1.465 . S
C169 C168 1.396 1_556 S
C169 C170 1.399 . S
C170 H156 0.929 . S
C170 C169 1.399 . S
C170 C171 1.385 . S
C171 H157 0.931 . S
C171 C170 1.385 . S
C171 C172 1.389 . S
C172 C171 1.389 . S
C172 C173 1.387 1_556 S
C173 H158 0.930 . S
C173 C168 1.390 . S
C173 C172 1.387 1_554 S
H174 C186 0.930 . S
H175 C188 0.930 . S
H176 C189 0.930 . S
H177 C193 0.959 . S
H178 C193 0.959 . S
H179 C193 0.961 . S
H180 C194 0.960 . S
H181 C194 0.961 . S
H182 C194 0.959 . S
H183 C197 0.929 . S
H184 C198 0.931 . S
H185 C200 0.930 . S
C186 H174 0.930 . S
C186 C187 1.399 . S
C186 C191 1.399 . S
C187 C186 1.399 . S
C187 C188 1.376 . S
C188 H175 0.930 . S
C188 C187 1.376 . S
C188 C189 1.388 . S
C189 H176 0.930 . S
C189 C188 1.388 . S
C189 C190 1.390 . S
C190 C189 1.390 . S
C190 C191 1.394 . S
C190 C196 1.465 . S
C191 C186 1.399 . S
C191 C190 1.394 . S
C191 C192 1.516 . S
C192 C191 1.516 . S
C192 C193 1.502 . S
C192 C194 1.561 . S
C192 C195 1.526 . S
C193 H177 0.959 . S
C193 H178 0.959 . S
C193 H179 0.961 . S
C193 C192 1.502 . S
C194 H180 0.960 . S
C194 H181 0.961 . S
C194 H182 0.959 . S
C194 C192 1.561 . S
C195 C192 1.526 . S
C195 C196 1.396 . S
C195 C200 1.390 . S
C196 C190 1.465 . S
C196 C195 1.396 . S
C196 C197 1.399 . S
C197 H183 0.929 . S
C197 C196 1.399 . S
C197 C198 1.385 . S
C198 H184 0.931 . S
C198 C197 1.385 . S
C198 C199 1.389 . S
C199 C198 1.389 . S
C199 C200 1.387 . S
C200 H185 0.930 . S
C200 C195 1.390 . S
C200 C199 1.387 . S
H201 C213 0.930 . S
H202 C215 0.930 . S
H203 C216 0.930 . S
H204 C220 0.959 . S
H205 C220 0.959 . S
H206 C220 0.961 . S
H207 C221 0.960 . S
H208 C221 0.961 . S
H209 C221 0.959 . S
H210 C224 0.929 . S
H211 C225 0.931 . S
H212 C227 0.930 . S
C213 H201 0.930 . S
C213 C214 1.399 . S
C213 C218 1.399 . S
C214 C213 1.399 . S
C214 C215 1.376 . S
C215 H202 0.930 . S
C215 C214 1.376 . S
C215 C216 1.388 . S
C216 H203 0.930 . S
C216 C215 1.388 . S
C216 C217 1.390 . S
C217 C216 1.390 . S
C217 C218 1.394 . S
C217 C223 1.465 . S
C218 C213 1.399 . S
C218 C217 1.394 . S
C218 C219 1.516 . S
C219 C218 1.516 . S
C219 C220 1.502 . S
C219 C221 1.561 . S
C219 C222 1.526 . S
C220 H204 0.959 . S
C220 H205 0.959 . S
C220 H206 0.961 . S
C220 C219 1.502 . S
C221 H207 0.960 . S
C221 H208 0.961 . S
C221 H209 0.959 . S
C221 C219 1.561 . S
C222 C219 1.526 . S
C222 C223 1.396 . S
C222 C227 1.390 . S
C223 C217 1.465 . S
C223 C222 1.396 . S
C223 C224 1.399 . S
C224 H210 0.929 . S
C224 C223 1.399 . S
C224 C225 1.385 . S
C225 H211 0.931 . S
C225 C224 1.385 . S
C225 C226 1.389 . S
C226 C225 1.389 . S
C226 C227 1.387 . S
C227 H212 0.930 . S
C227 C222 1.390 . S
C227 C226 1.387 . S
H228 C240 0.930 . S
H229 C242 0.930 . S
H230 C243 0.930 . S
H231 C247 0.959 1_565 S
H232 C247 0.959 . S
H233 C247 0.961 . S
H234 C248 0.960 . S
H235 C248 0.961 . S
H236 C248 0.959 . S
H237 C251 0.929 . S
H238 C252 0.931 . S
H239 C254 0.930 . S
C240 H228 0.930 . S
C240 C241 1.399 1_556 S
C240 C245 1.399 . S
C241 C240 1.399 1_554 S
C241 C242 1.376 1_545 S
C242 H229 0.930 . S
C242 C241 1.376 1_565 S
C242 C243 1.388 . S
C243 H230 0.930 . S
C243 C242 1.388 . S
C243 C244 1.394 . S
C244 C243 1.394 . S
C244 C245 1.387 1_564 S
C244 C250 1.467 . S
C245 C240 1.399 . S
C245 C244 1.387 1_546 S
C245 C246 1.516 . S
C246 C245 1.516 . S
C246 C247 1.502 . S
C246 C248 1.561 . S
C246 C249 1.526 . S
C247 H231 0.959 1_545 S
C247 H232 0.959 . S
C247 H233 0.961 . S
C247 C246 1.502 . S
C248 H234 0.960 . S
C248 H235 0.961 . S
C248 H236 0.959 . S
C248 C246 1.561 . S
C249 C246 1.526 . S
C249 C250 1.396 1_546 S
C249 C254 1.390 . S
C250 C244 1.467 . S
C250 C249 1.396 1_564 S
C250 C251 1.399 . S
C251 H237 0.929 . S
C251 C250 1.399 . S
C251 C252 1.385 . S
C252 H238 0.931 . S
C252 C251 1.385 . S
C252 C253 1.389 . S
C253 C252 1.389 . S
C253 C254 1.387 1_564 S
C254 H239 0.930 . S
C254 C249 1.390 . S
C254 C253 1.387 1_546 S
H255 C267 0.930 . S
H256 C269 0.930 . S
H257 C270 0.930 . S
H258 C274 0.959 1_565 S
H259 C274 0.959 . S
H260 C274 0.961 . S
H261 C275 0.960 . S
H262 C275 0.961 . S
H263 C275 0.959 . S
H264 C278 0.929 . S
H265 C279 0.931 . S
H266 C281 0.930 . S
C267 H255 0.930 . S
C267 C268 1.399 1_545 S
C267 C272 1.399 . S
C268 C267 1.399 1_565 S
C268 C269 1.376 . S
C269 H256 0.930 . S
C269 C268 1.376 . S
C269 C270 1.388 . S
C270 H257 0.930 . S
C270 C269 1.388 . S
C270 C271 1.390 . S
C271 C270 1.390 . S
C271 C272 1.394 1_565 S
C271 C277 1.465 . S
C272 C267 1.399 . S
C272 C271 1.394 1_545 S
C272 C273 1.516 . S
C273 C272 1.516 . S
C273 C274 1.502 . S
C273 C275 1.561 . S
C273 C276 1.526 . S
C274 H258 0.959 1_545 S
C274 H259 0.959 . S
C274 H260 0.961 . S
C274 C273 1.502 . S
C275 H261 0.960 . S
C275 H262 0.961 . S
C275 H263 0.959 . S
C275 C273 1.561 . S
C276 C273 1.526 . S
C276 C277 1.396 1_545 S
C276 C281 1.390 . S
C277 C271 1.465 . S
C277 C276 1.396 1_565 S
C277 C278 1.399 . S
C278 H264 0.929 . S
C278 C277 1.399 . S
C278 C279 1.385 . S
C279 H265 0.931 . S
C279 C278 1.385 . S
C279 C280 1.389 1_565 S
C280 C279 1.389 1_545 S
C280 C281 1.387 . S
C281 H266 0.930 . S
C281 C276 1.390 . S
C281 C280 1.387 . S
H282 C294 0.930 . S
H283 C296 0.930 . S
H284 C297 0.930 . S
H285 C301 0.959 . S
H286 C301 0.959 . S
H287 C301 0.961 1_655 S
H288 C302 0.960 1_655 S
H289 C302 0.961 . S
H290 C302 0.959 . S
H291 C305 0.929 . S
H292 C306 0.931 . S
H293 C308 0.930 . S
C294 H282 0.930 . S
C294 C295 1.399 1_554 S
C294 C299 1.399 . S
C295 C294 1.399 1_556 S
C295 C296 1.376 . S
C296 H283 0.930 . S
C296 C295 1.376 . S
C296 C297 1.388 . S
C297 H284 0.930 . S
C297 C296 1.388 . S
C297 C298 1.390 . S
C298 C297 1.390 . S
C298 C299 1.394 1_556 S
C298 C304 1.465 1_655 S
C299 C294 1.399 . S
C299 C298 1.394 1_554 S
C299 C300 1.516 1_655 S
C300 C299 1.516 1_455 S
C300 C301 1.502 . S
C300 C302 1.561 . S
C300 C303 1.526 . S
C301 H285 0.959 . S
C301 H286 0.959 . S
C301 H287 0.961 1_455 S
C301 C300 1.502 . S
C302 H288 0.960 1_455 S
C302 H289 0.961 . S
C302 H290 0.959 . S
C302 C300 1.561 . S
C303 C300 1.526 . S
C303 C304 1.396 1_554 S
C303 C308 1.390 . S
C304 C298 1.465 1_455 S
C304 C303 1.396 1_556 S
C304 C305 1.399 . S
C305 H291 0.929 . S
C305 C304 1.399 . S
C305 C306 1.385 . S
C306 H292 0.931 . S
C306 C305 1.385 . S
C306 C307 1.389 . S
C307 C306 1.389 . S
C307 C308 1.387 1_556 S
C308 H293 0.930 . S
C308 C303 1.390 . S
C308 C307 1.387 1_554 S
H309 C321 0.930 . S
H310 C323 0.930 . S
H311 C324 0.930 . S
H312 C328 0.959 . S
H313 C328 0.959 . S
H314 C328 0.961 1_455 S
H315 C329 0.960 . S
H316 C329 0.961 1_655 S
H317 C329 0.959 . S
H318 C332 0.929 . S
H319 C333 0.931 . S
H320 C335 0.930 . S
C321 H309 0.930 . S
C321 C322 1.399 . S
C321 C326 1.399 . S
C322 C321 1.399 . S
C322 C323 1.376 . S
C323 H310 0.930 . S
C323 C322 1.376 . S
C323 C324 1.388 . S
C324 H311 0.930 . S
C324 C323 1.388 . S
C324 C325 1.390 . S
C325 C324 1.390 . S
C325 C326 1.394 . S
C325 C331 1.465 1_455 S
C326 C321 1.399 . S
C326 C325 1.394 . S
C326 C327 1.516 . S
C327 C326 1.516 . S
C327 C328 1.502 1_455 S
C327 C329 1.561 . S
C327 C330 1.526 1_455 S
C328 H312 0.959 . S
C328 H313 0.959 . S
C328 H314 0.961 1_655 S
C328 C327 1.502 1_655 S
C329 H315 0.960 . S
C329 H316 0.961 1_455 S
C329 H317 0.959 . S
C329 C327 1.561 . S
C330 C327 1.526 1_655 S
C330 C331 1.396 . S
C330 C335 1.390 . S
C331 C325 1.465 1_655 S
C331 C330 1.396 . S
C331 C332 1.399 . S
C332 H318 0.929 . S
C332 C331 1.399 . S
C332 C333 1.385 . S
C333 H319 0.931 . S
C333 C332 1.385 . S
C333 C334 1.389 . S
C334 C333 1.389 . S
C334 C335 1.387 . S
C335 H320 0.930 . S
C335 C330 1.390 . S
C335 C334 1.387 . S
H336 C348 0.930 . S
H337 C350 0.930 . S
H338 C351 0.930 . S
H339 C355 0.959 . S
H340 C355 0.959 . S
H341 C355 0.961 . S
H342 C356 0.960 . S
H343 C356 0.961 . S
H344 C356 0.959 . S
H345 C359 0.929 . S
H346 C360 0.931 1_455 S
H347 C362 0.930 . S
C348 H336 0.930 . S
C348 C349 1.399 1_565 S
C348 C353 1.399 . S
C349 C348 1.399 1_545 S
C349 C350 1.376 . S
C350 H337 0.930 . S
C350 C349 1.376 . S
C350 C351 1.388 . S
C351 H338 0.930 . S
C351 C350 1.388 . S
C351 C352 1.390 . S
C352 C351 1.390 . S
C352 C353 1.394 1_545 S
C352 C358 1.465 . S
C353 C348 1.399 . S
C353 C352 1.394 1_565 S
C353 C354 1.516 . S
C354 C353 1.516 . S
C354 C355 1.502 1_655 S
C354 C356 1.561 . S
C354 C357 1.526 . S
C355 H339 0.959 . S
C355 H340 0.959 . S
C355 H341 0.961 . S
C355 C354 1.502 1_455 S
C356 H342 0.960 . S
C356 H343 0.961 . S
C356 H344 0.959 . S
C356 C354 1.561 . S
C357 C354 1.526 . S
C357 C358 1.396 1_565 S
C357 C362 1.390 . S
C358 C352 1.465 . S
C358 C357 1.396 1_545 S
C358 C359 1.399 . S
C359 H345 0.929 . S
C359 C358 1.399 . S
C359 C360 1.385 . S
C360 H346 0.931 1_655 S
C360 C359 1.385 . S
C360 C361 1.389 1_655 S
C361 C360 1.389 1_455 S
C361 C362 1.386 1_445 S
C362 H347 0.930 . S
C362 C357 1.390 . S
C362 C361 1.386 1_665 S
H363 C375 0.930 . S
H364 C377 0.930 . S
H365 C378 0.930 . S
H366 C382 0.959 . S
H367 C382 0.959 . S
H368 C382 0.961 . S
H369 C383 0.960 . S
H370 C383 0.961 . S
H371 C383 0.959 . S
H372 C386 0.929 . S
H373 C387 0.931 . S
H374 C389 0.930 . S
C375 H363 0.930 . S
C375 C376 1.399 1_645 S
C375 C380 1.399 . S
C376 C375 1.399 1_465 S
C376 C377 1.376 . S
C377 H364 0.930 . S
C377 C376 1.376 . S
C377 C378 1.388 . S
C378 H365 0.930 . S
C378 C377 1.388 . S
C378 C379 1.390 . S
C379 C378 1.390 . S
C379 C380 1.394 1_465 S
C379 C385 1.465 . S
C380 C375 1.399 . S
C380 C379 1.394 1_645 S
C380 C381 1.516 . S
C381 C380 1.516 . S
C381 C382 1.502 . S
C381 C383 1.561 1_655 S
C381 C384 1.526 . S
C382 H366 0.959 . S
C382 H367 0.959 . S
C382 H368 0.961 . S
C382 C381 1.502 . S
C383 H369 0.960 . S
C383 H370 0.961 . S
C383 H371 0.959 . S
C383 C381 1.561 1_455 S
C384 C381 1.526 . S
C384 C385 1.396 1_645 S
C384 C389 1.390 . S
C385 C379 1.465 . S
C385 C384 1.396 1_465 S
C385 C386 1.399 . S
C386 H372 0.929 . S
C386 C385 1.399 . S
C386 C387 1.385 . S
C387 H373 0.931 . S
C387 C386 1.385 . S
C387 C388 1.389 . S
C388 C387 1.389 . S
C388 C389 1.387 1_465 S
C389 H374 0.930 . S
C389 C384 1.390 . S
C389 C388 1.387 1_645 S
H390 C402 0.930 . S
H391 C404 0.930 . S
H392 C405 0.930 . S
H393 C409 0.959 . S
H394 C409 0.959 . S
H395 C409 0.961 . S
H396 C410 0.960 . S
H397 C410 0.961 . S
H398 C410 0.959 . S
H399 C413 0.929 . S
H400 C414 0.931 . S
H401 C416 0.930 . S
C402 H390 0.930 . S
C402 C403 1.399 . S
C402 C407 1.399 . S
C403 C402 1.399 . S
C403 C404 1.376 . S
C404 H391 0.930 . S
C404 C403 1.376 . S
C404 C405 1.388 . S
C405 H392 0.930 . S
C405 C404 1.388 . S
C405 C406 1.390 . S
C406 C405 1.390 . S
C406 C407 1.394 . S
C406 C412 1.465 . S
C407 C402 1.399 . S
C407 C406 1.394 . S
C407 C408 1.516 . S
C408 C407 1.516 . S
C408 C409 1.502 . S
C408 C410 1.561 . S
C408 C411 1.526 . S
C409 H393 0.959 . S
C409 H394 0.959 . S
C409 H395 0.961 . S
C409 C408 1.502 . S
C410 H396 0.960 . S
C410 H397 0.961 . S
C410 H398 0.959 . S
C410 C408 1.561 . S
C411 C408 1.526 . S
C411 C412 1.396 . S
C411 C416 1.390 . S
C412 C406 1.465 . S
C412 C411 1.396 . S
C412 C413 1.399 . S
C413 H399 0.929 . S
C413 C412 1.399 . S
C413 C414 1.385 . S
C414 H400 0.931 . S
C414 C413 1.385 . S
C414 C415 1.389 . S
C415 C414 1.389 . S
C415 C416 1.387 . S
C416 H401 0.930 . S
C416 C411 1.390 . S
C416 C415 1.387 . S
H417 C429 0.930 . S
H418 C431 0.930 . S
H419 C432 0.930 . S
H420 C436 0.959 . S
H421 C436 0.959 . S
H422 C436 0.961 . S
H423 C437 0.960 . S
H424 C437 0.961 . S
H425 C437 0.959 . S
H426 C440 0.929 . S
H427 C441 0.931 . S
H428 C443 0.930 . S
C429 H417 0.930 . S
C429 C430 1.399 . S
C429 C434 1.399 . S
C430 C429 1.399 . S
C430 C431 1.376 . S
C431 H418 0.930 . S
C431 C430 1.376 . S
C431 C432 1.388 . S
C432 H419 0.930 . S
C432 C431 1.388 . S
C432 C433 1.390 . S
C433 C432 1.390 . S
C433 C434 1.394 . S
C433 C439 1.465 . S
C434 C429 1.399 . S
C434 C433 1.394 . S
C434 C435 1.516 . S
C435 C434 1.516 . S
C435 C436 1.502 . S
C435 C437 1.561 . S
C435 C438 1.526 . S
C436 H420 0.959 . S
C436 H421 0.959 . S
C436 H422 0.961 . S
C436 C435 1.502 . S
C437 H423 0.960 . S
C437 H424 0.961 . S
C437 H425 0.959 . S
C437 C435 1.561 . S
C438 C435 1.526 . S
C438 C439 1.396 . S
C438 C443 1.390 . S
C439 C433 1.465 . S
C439 C438 1.396 . S
C439 C440 1.399 . S
C440 H426 0.929 . S
C440 C439 1.399 . S
C440 C441 1.385 . S
C441 H427 0.931 . S
C441 C440 1.385 . S
C441 C442 1.389 . S
C442 C441 1.389 . S
C442 C443 1.387 . S
C443 H428 0.930 . S
C443 C438 1.390 . S
C443 C442 1.387 . S
C133 N74 1.548 1_554 S
C145 N6 1.510 . S
C160 N66 1.547 1_556 S
C172 N14 1.505 . S
C187 N44 1.551 . S
C199 N96 1.501 . S
C214 N36 1.535 . S
C226 N104 1.538 . S
C241 C16 0.967 . S
C253 C27 0.955 1_554 S
C268 C57 0.967 . S
C280 C46 0.944 . S
C295 C76 0.938 1_556 S
C307 C87 0.973 . S
C322 C106 0.962 . S
C334 C117 0.949 . S
C349 C31 1.481 . S
C361 C1 1.479 . S
C376 C10 1.484 1_455 S
C388 C40 1.484 . S
C403 C91 1.482 . S
C415 C61 1.480 . S
C430 C100 1.492 . S
C442 C70 1.489 . S
