# Generated by pormake.
# Topology uow, (4)-cn, num edge types: 1
# Building blocks:
#     Node 0, Type 0, BuildingBlock: GALJAG_clean_sbu_0, # of connection points: 4
#     Node 1, Type 0, BuildingBlock: GALJAG_clean_sbu_0, # of connection points: 4
#     Node 2, Type 0, BuildingBlock: GALJAG_clean_sbu_0, # of connection points: 4
#     Node 3, Type 0, BuildingBlock: GALJAG_clean_sbu_0, # of connection points: 4
#     Node 4, Type 0, BuildingBlock: GALJAG_clean_sbu_0, # of connection points: 4
#     Node 5, Type 0, BuildingBlock: GALJAG_clean_sbu_0, # of connection points: 4
#     Node 6, Type 0, BuildingBlock: GALJAG_clean_sbu_0, # of connection points: 4
#     Node 7, Type 0, BuildingBlock: GALJAG_clean_sbu_0, # of connection points: 4
#     Node 8, Type 0, BuildingBlock: GALJAG_clean_sbu_0, # of connection points: 4
#     Node 9, Type 0, BuildingBlock: GALJAG_clean_sbu_0, # of connection points: 4
#     Node 10, Type 0, BuildingBlock: GALJAG_clean_sbu_0, # of connection points: 4
#     Node 11, Type 0, BuildingBlock: GALJAG_clean_sbu_0, # of connection points: 4
#     Node 12, Type 0, BuildingBlock: GALJAG_clean_sbu_0, # of connection points: 4
#     Node 13, Type 0, BuildingBlock: GALJAG_clean_sbu_0, # of connection points: 4
#     Node 14, Type 0, BuildingBlock: GALJAG_clean_sbu_0, # of connection points: 4
#     Node 15, Type 0, BuildingBlock: GALJAG_clean_sbu_0, # of connection points: 4
#     Node 16, Type 0, BuildingBlock: GALJAG_clean_sbu_0, # of connection points: 4
#     Node 17, Type 0, BuildingBlock: GALJAG_clean_sbu_0, # of connection points: 4
#     Node 18, Type 0, BuildingBlock: GALJAG_clean_sbu_0, # of connection points: 4
#     Node 19, Type 0, BuildingBlock: GALJAG_clean_sbu_0, # of connection points: 4
#     Node 20, Type 0, BuildingBlock: GALJAG_clean_sbu_0, # of connection points: 4
#     Node 21, Type 0, BuildingBlock: GALJAG_clean_sbu_0, # of connection points: 4
#     Node 22, Type 0, BuildingBlock: GALJAG_clean_sbu_0, # of connection points: 4
#     Node 23, Type 0, BuildingBlock: GALJAG_clean_sbu_0, # of connection points: 4
#     Node 24, Type 0, BuildingBlock: GALJAG_clean_sbu_0, # of connection points: 4
#     Node 25, Type 0, BuildingBlock: GALJAG_clean_sbu_0, # of connection points: 4
#     Node 26, Type 0, BuildingBlock: GALJAG_clean_sbu_0, # of connection points: 4
#     Node 27, Type 0, BuildingBlock: GALJAG_clean_sbu_0, # of connection points: 4
#     Node 28, Type 0, BuildingBlock: GALJAG_clean_sbu_0, # of connection points: 4
#     Node 29, Type 0, BuildingBlock: GALJAG_clean_sbu_0, # of connection points: 4
#     Node 30, Type 0, BuildingBlock: GALJAG_clean_sbu_0, # of connection points: 4
#     Node 31, Type 0, BuildingBlock: GALJAG_clean_sbu_0, # of connection points: 4
#     Edge 32, Type (0, 0), BuildingBlock: KIFKEQ_clean_linker_1, # of connection points: 2
#     Edge 33, Type (0, 0), BuildingBlock: KIFKEQ_clean_linker_1, # of connection points: 2
#     Edge 34, Type (0, 0), BuildingBlock: KIFKEQ_clean_linker_1, # of connection points: 2
#     Edge 35, Type (0, 0), BuildingBlock: KIFKEQ_clean_linker_1, # of connection points: 2
#     Edge 36, Type (0, 0), BuildingBlock: KIFKEQ_clean_linker_1, # of connection points: 2
#     Edge 37, Type (0, 0), BuildingBlock: KIFKEQ_clean_linker_1, # of connection points: 2
#     Edge 38, Type (0, 0), BuildingBlock: KIFKEQ_clean_linker_1, # of connection points: 2
#     Edge 39, Type (0, 0), BuildingBlock: KIFKEQ_clean_linker_1, # of connection points: 2
#     Edge 40, Type (0, 0), BuildingBlock: KIFKEQ_clean_linker_1, # of connection points: 2
#     Edge 41, Type (0, 0), BuildingBlock: KIFKEQ_clean_linker_1, # of connection points: 2
#     Edge 42, Type (0, 0), BuildingBlock: KIFKEQ_clean_linker_1, # of connection points: 2
#     Edge 43, Type (0, 0), BuildingBlock: KIFKEQ_clean_linker_1, # of connection points: 2
#     Edge 44, Type (0, 0), BuildingBlock: KIFKEQ_clean_linker_1, # of connection points: 2
#     Edge 45, Type (0, 0), BuildingBlock: KIFKEQ_clean_linker_1, # of connection points: 2
#     Edge 46, Type (0, 0), BuildingBlock: KIFKEQ_clean_linker_1, # of connection points: 2
#     Edge 47, Type (0, 0), BuildingBlock: KIFKEQ_clean_linker_1, # of connection points: 2
#     Edge 48, Type (0, 0), BuildingBlock: KIFKEQ_clean_linker_1, # of connection points: 2
#     Edge 49, Type (0, 0), BuildingBlock: KIFKEQ_clean_linker_1, # of connection points: 2
#     Edge 50, Type (0, 0), BuildingBlock: KIFKEQ_clean_linker_1, # of connection points: 2
#     Edge 51, Type (0, 0), BuildingBlock: KIFKEQ_clean_linker_1, # of connection points: 2
#     Edge 52, Type (0, 0), BuildingBlock: KIFKEQ_clean_linker_1, # of connection points: 2
#     Edge 53, Type (0, 0), BuildingBlock: KIFKEQ_clean_linker_1, # of connection points: 2
#     Edge 54, Type (0, 0), BuildingBlock: KIFKEQ_clean_linker_1, # of connection points: 2
#     Edge 55, Type (0, 0), BuildingBlock: KIFKEQ_clean_linker_1, # of connection points: 2
#     Edge 56, Type (0, 0), BuildingBlock: KIFKEQ_clean_linker_1, # of connection points: 2
#     Edge 57, Type (0, 0), BuildingBlock: KIFKEQ_clean_linker_1, # of connection points: 2
#     Edge 58, Type (0, 0), BuildingBlock: KIFKEQ_clean_linker_1, # of connection points: 2
#     Edge 59, Type (0, 0), BuildingBlock: KIFKEQ_clean_linker_1, # of connection points: 2
#     Edge 60, Type (0, 0), BuildingBlock: KIFKEQ_clean_linker_1, # of connection points: 2
#     Edge 61, Type (0, 0), BuildingBlock: KIFKEQ_clean_linker_1, # of connection points: 2
#     Edge 62, Type (0, 0), BuildingBlock: KIFKEQ_clean_linker_1, # of connection points: 2
#     Edge 63, Type (0, 0), BuildingBlock: KIFKEQ_clean_linker_1, # of connection points: 2
#     Edge 64, Type (0, 0), BuildingBlock: KIFKEQ_clean_linker_1, # of connection points: 2
#     Edge 65, Type (0, 0), BuildingBlock: KIFKEQ_clean_linker_1, # of connection points: 2
#     Edge 66, Type (0, 0), BuildingBlock: KIFKEQ_clean_linker_1, # of connection points: 2
#     Edge 67, Type (0, 0), BuildingBlock: KIFKEQ_clean_linker_1, # of connection points: 2
#     Edge 68, Type (0, 0), BuildingBlock: KIFKEQ_clean_linker_1, # of connection points: 2
#     Edge 69, Type (0, 0), BuildingBlock: KIFKEQ_clean_linker_1, # of connection points: 2
#     Edge 70, Type (0, 0), BuildingBlock: KIFKEQ_clean_linker_1, # of connection points: 2
#     Edge 71, Type (0, 0), BuildingBlock: KIFKEQ_clean_linker_1, # of connection points: 2
#     Edge 72, Type (0, 0), BuildingBlock: KIFKEQ_clean_linker_1, # of connection points: 2
#     Edge 73, Type (0, 0), BuildingBlock: KIFKEQ_clean_linker_1, # of connection points: 2
#     Edge 74, Type (0, 0), BuildingBlock: KIFKEQ_clean_linker_1, # of connection points: 2
#     Edge 75, Type (0, 0), BuildingBlock: KIFKEQ_clean_linker_1, # of connection points: 2
#     Edge 76, Type (0, 0), BuildingBlock: KIFKEQ_clean_linker_1, # of connection points: 2
#     Edge 77, Type (0, 0), BuildingBlock: KIFKEQ_clean_linker_1, # of connection points: 2
#     Edge 78, Type (0, 0), BuildingBlock: KIFKEQ_clean_linker_1, # of connection points: 2
#     Edge 79, Type (0, 0), BuildingBlock: KIFKEQ_clean_linker_1, # of connection points: 2
#     Edge 80, Type (0, 0), BuildingBlock: KIFKEQ_clean_linker_1, # of connection points: 2
#     Edge 81, Type (0, 0), BuildingBlock: KIFKEQ_clean_linker_1, # of connection points: 2
#     Edge 82, Type (0, 0), BuildingBlock: KIFKEQ_clean_linker_1, # of connection points: 2
#     Edge 83, Type (0, 0), BuildingBlock: KIFKEQ_clean_linker_1, # of connection points: 2
#     Edge 84, Type (0, 0), BuildingBlock: KIFKEQ_clean_linker_1, # of connection points: 2
#     Edge 85, Type (0, 0), BuildingBlock: KIFKEQ_clean_linker_1, # of connection points: 2
#     Edge 86, Type (0, 0), BuildingBlock: KIFKEQ_clean_linker_1, # of connection points: 2
#     Edge 87, Type (0, 0), BuildingBlock: KIFKEQ_clean_linker_1, # of connection points: 2
#     Edge 88, Type (0, 0), BuildingBlock: KIFKEQ_clean_linker_1, # of connection points: 2
#     Edge 89, Type (0, 0), BuildingBlock: KIFKEQ_clean_linker_1, # of connection points: 2
#     Edge 90, Type (0, 0), BuildingBlock: KIFKEQ_clean_linker_1, # of connection points: 2
#     Edge 91, Type (0, 0), BuildingBlock: KIFKEQ_clean_linker_1, # of connection points: 2
#     Edge 92, Type (0, 0), BuildingBlock: KIFKEQ_clean_linker_1, # of connection points: 2
#     Edge 93, Type (0, 0), BuildingBlock: KIFKEQ_clean_linker_1, # of connection points: 2
#     Edge 94, Type (0, 0), BuildingBlock: KIFKEQ_clean_linker_1, # of connection points: 2
#     Edge 95, Type (0, 0), BuildingBlock: KIFKEQ_clean_linker_1, # of connection points: 2
# Relax obj value: 0.043
# Max RMSD: 0.080
# Mean RMSD: 0.080
data_MOF--net-uow--node1-GALJAG_clean_sbu_0--edge1-KIFKEQ_clean_linker_1
_symmetry_space_group_name_H-M    P1
_symmetry_Int_Tables_number       1
_symmetry_cell_setting            triclinic
loop_
_symmetry_equiv_pos_as_xyz
'x, y, z'
_cell_length_a     60.765978
_cell_length_b     60.751153
_cell_length_c     45.750455
_cell_angle_alpha  90.00706
_cell_angle_beta   89.945258
_cell_angle_gamma 89.976234
loop_
_atom_site_label
_atom_site_type_symbol
_atom_site_fract_x
_atom_site_fract_y
_atom_site_fract_z
_atom_type_partial_charge
In0 In 0.06228 0.37338 0.28137 0.0
O1 O 0.08468 0.40372 0.28373 0.0
O2 O 0.05235 0.40722 0.26636 0.0
C3 C 0.0788 0.34466 0.32036 0.0
C4 C 0.07457 0.35802 0.22865 0.0
C5 C 0.02137 0.37384 0.30353 0.0
O6 O 0.08383 0.36485 0.3211 0.0
O7 O 0.06622 0.33924 0.29972 0.0
O8 O 0.02596 0.3646 0.27953 0.0
O9 O 0.03737 0.38321 0.31602 0.0
C10 C 0.07043 0.41627 0.27246 0.0
O11 O 0.05467 0.3589 0.23649 0.0
O12 O 0.08817 0.36468 0.24747 0.0
In13 In 0.86909 0.81705 0.52844 0.0
O14 O 0.87621 0.80528 0.48192 0.0
O15 O 0.88034 0.83928 0.49175 0.0
C16 C 0.87494 0.77736 0.5532 0.0
C17 C 0.8258 0.82503 0.52218 0.0
C18 C 0.89661 0.83977 0.56319 0.0
O19 O 0.8843 0.78279 0.52961 0.0
O20 O 0.86264 0.79194 0.56417 0.0
O21 O 0.87624 0.83865 0.5686 0.0
O22 O 0.90271 0.82965 0.54058 0.0
C23 C 0.88151 0.8242 0.47288 0.0
O24 O 0.83942 0.84043 0.5261 0.0
O25 O 0.834 0.80601 0.52211 0.0
In26 In 0.43619 0.61856 0.77663 0.0
O27 O 0.42806 0.58976 0.74708 0.0
O28 O 0.41738 0.58772 0.79117 0.0
C29 C 0.41885 0.64745 0.81499 0.0
C30 C 0.43275 0.63901 0.7247 0.0
C31 C 0.47643 0.60997 0.79876 0.0
O32 O 0.40723 0.63304 0.80246 0.0
O33 O 0.43892 0.6472 0.80807 0.0
O34 O 0.4733 0.62386 0.77868 0.0
O35 O 0.45931 0.6001 0.80723 0.0
C36 C 0.41839 0.57864 0.7664 0.0
O37 O 0.44933 0.62761 0.73164 0.0
O38 O 0.41813 0.64045 0.74423 0.0
In39 In 0.62944 0.18001 0.03346 0.0
O40 O 0.66007 0.15832 0.03869 0.0
O41 O 0.66174 0.18593 0.01023 0.0
C42 C 0.60116 0.1581 0.06806 0.0
C43 C 0.61286 0.17166 0.98029 0.0
C44 C 0.62953 0.21936 0.06093 0.0
O45 O 0.62175 0.15612 0.07085 0.0
O46 O 0.59509 0.17103 0.04807 0.0
O47 O 0.61954 0.21619 0.03715 0.0
O48 O 0.63973 0.20281 0.07053 0.0
C49 C 0.6714 0.16943 0.02087 0.0
O50 O 0.61724 0.19097 0.98876 0.0
O51 O 0.61673 0.15668 -0.0013 0.0
In52 In 0.07704 0.61734 0.20819 0.0
O53 O 0.09901 0.58666 0.21098 0.0
O54 O 0.06432 0.58242 0.20865 0.0
C55 C 0.10232 0.64671 0.17937 0.0
C56 C 0.08061 0.62724 0.26525 0.0
C57 C 0.03871 0.62167 0.17946 0.0
O58 O 0.1015 0.62671 0.172 0.0
O59 O 0.09088 0.65156 0.2014 0.0
O60 O 0.04031 0.62519 0.20662 0.0
O61 O 0.05642 0.61612 0.16702 0.0
C62 C 0.08295 0.57349 0.2107 0.0
O63 O 0.064 0.63274 0.25036 0.0
O64 O 0.09518 0.61678 0.25135 0.0
In65 In 0.62548 0.82456 0.45084 0.0
O66 O 0.61202 0.81104 0.49371 0.0
O67 O 0.62453 0.84377 0.49335 0.0
C68 C 0.61883 0.78534 0.4251 0.0
C69 C 0.66925 0.82992 0.45548 0.0
C70 C 0.59771 0.85005 0.41952 0.0
O71 O 0.61056 0.79027 0.44957 0.0
O72 O 0.63045 0.80023 0.41358 0.0
O73 O 0.61709 0.84616 0.4111 0.0
O74 O 0.59278 0.84165 0.44377 0.0
C75 C 0.6159 0.82841 0.50795 0.0
O76 O 0.65641 0.84612 0.45276 0.0
O77 O 0.66005 0.81135 0.45512 0.0
In78 In 0.42552 0.37629 0.71243 0.0
O79 O 0.40556 0.4079 0.70637 0.0
O80 O 0.43324 0.4085 0.73484 0.0
C81 C 0.40285 0.34787 0.67878 0.0
C82 C 0.41595 0.36153 0.76622 0.0
C83 C 0.46512 0.37639 0.68556 0.0
O84 O 0.40167 0.36843 0.675 0.0
O85 O 0.4153 0.3419 0.69929 0.0
O86 O 0.46194 0.36696 0.70977 0.0
O87 O 0.44841 0.38584 0.67513 0.0
C88 C 0.41729 0.41888 0.72389 0.0
O89 O 0.43515 0.36037 0.75564 0.0
O90 O 0.40167 0.36982 0.74947 0.0
In91 In 0.87032 0.17855 0.96008 0.0
O92 O 0.88084 0.193 0.00367 0.0
O93 O 0.89232 0.16091 0.99286 0.0
C94 C 0.86301 0.21885 0.93722 0.0
C95 C 0.82994 0.16247 0.97234 0.0
C96 C 0.8976 0.15897 0.9215 0.0
O97 O 0.87676 0.21543 0.95736 0.0
O98 O 0.85266 0.20198 0.92891 0.0
O99 O 0.88331 0.14822 0.93556 0.0
O100 O 0.89807 0.17927 0.9271 0.0
C101 C 0.89185 0.17635 0.01133 0.0
O102 O 0.83818 0.16139 0.94706 0.0
O103 O 0.84213 0.17133 0.99117 0.0
In104 In 0.93636 0.62301 0.71895 0.0
O105 O 0.94741 0.63549 0.76363 0.0
O106 O 0.91349 0.638 0.75288 0.0
C107 C 0.9749 0.6198 0.6907 0.0
C108 C 0.92698 0.58053 0.72988 0.0
C109 C 0.9194 0.65188 0.68073 0.0
O110 O 0.97312 0.62941 0.71512 0.0
O111 O 0.9573 0.61148 0.68096 0.0
O112 O 0.91069 0.63319 0.68474 0.0
O113 O 0.93601 0.65586 0.69635 0.0
C114 C 0.92837 0.64126 0.77155 0.0
O115 O 0.91304 0.59314 0.71805 0.0
O116 O 0.94517 0.58938 0.73577 0.0
In117 In 0.1203 0.18138 0.47841 0.0
O118 O 0.10672 0.19244 0.5224 0.0
O119 O 0.11009 0.15801 0.51452 0.0
C120 C 0.11479 0.22277 0.45816 0.0
C121 C 0.16278 0.17114 0.48803 0.0
C122 C 0.09743 0.15822 0.43823 0.0
O123 O 0.09963 0.2121 0.47053 0.0
O124 O 0.13291 0.21275 0.45655 0.0
O125 O 0.11547 0.16746 0.43229 0.0
O126 O 0.09138 0.16017 0.46444 0.0
C127 C 0.1045 0.17307 0.53205 0.0
O128 O 0.15165 0.16182 0.4683 0.0
O129 O 0.15254 0.18554 0.50243 0.0
In130 In 0.56577 0.37676 0.22025 0.0
O131 O 0.58569 0.40799 0.21114 0.0
O132 O 0.56142 0.40876 0.24477 0.0
C133 C 0.58551 0.34646 0.1861 0.0
C134 C 0.57629 0.36111 0.27323 0.0
C135 C 0.52583 0.37997 0.1948 0.0
O136 O 0.5897 0.36674 0.18366 0.0
O137 O 0.57155 0.34173 0.20547 0.0
O138 O 0.52882 0.3695 0.21829 0.0
O139 O 0.54288 0.38884 0.18444 0.0
C140 C 0.57611 0.41902 0.23084 0.0
O141 O 0.55663 0.36179 0.26421 0.0
O142 O 0.59051 0.36825 0.25545 0.0
In143 In 0.36829 0.81729 0.95747 0.0
O144 O 0.38324 0.80823 0.00129 0.0
O145 O 0.37334 0.84154 0.99454 0.0
C146 C 0.37113 0.77652 0.93428 0.0
C147 C 0.32545 0.82549 0.96712 0.0
C148 C 0.39655 0.83967 0.92301 0.0
O149 O 0.3806 0.78188 0.95771 0.0
O150 O 0.35991 0.79164 0.92271 0.0
O151 O 0.37636 0.83812 0.91692 0.0
O152 O 0.40216 0.8303 0.94638 0.0
C153 C 0.38146 0.82742 0.0117 0.0
O154 O 0.33676 0.83708 0.94978 0.0
O155 O 0.33559 0.80959 0.97858 0.0
In156 In 0.92089 0.37808 0.78833 0.0
O157 O 0.8987 0.40842 0.78269 0.0
O158 O 0.93283 0.41331 0.79037 0.0
C159 C 0.89422 0.34939 0.81646 0.0
C160 C 0.92035 0.36777 0.73111 0.0
C161 C 0.95897 0.37393 0.81786 0.0
O162 O 0.89588 0.36924 0.82414 0.0
O163 O 0.90548 0.34431 0.79438 0.0
O164 O 0.95772 0.3707 0.79062 0.0
O165 O 0.94105 0.3791 0.83004 0.0
C166 C 0.91431 0.42191 0.78572 0.0
O167 O 0.93541 0.36122 0.74801 0.0
O168 O 0.90574 0.37946 0.74309 0.0
In169 In 0.36666 0.18233 0.53008 0.0
O170 O 0.38479 0.19359 0.48907 0.0
O171 O 0.37826 0.15939 0.49411 0.0
C172 C 0.3606 0.2226 0.55325 0.0
C173 C 0.3246 0.17087 0.51994 0.0
C174 C 0.39484 0.16364 0.56827 0.0
O175 O 0.37142 0.21955 0.53001 0.0
O176 O 0.35244 0.2054 0.56428 0.0
O177 O 0.37865 0.15323 0.55794 0.0
O178 O 0.39682 0.18306 0.55905 0.0
C179 C 0.38626 0.17448 0.47843 0.0
O180 O 0.33483 0.16464 0.54249 0.0
O181 O 0.33557 0.18284 0.50279 0.0
In182 In 0.55949 0.62241 0.27129 0.0
O183 O 0.54975 0.63558 0.22637 0.0
O184 O 0.58355 0.63652 0.23859 0.0
C185 C 0.52001 0.61632 0.29668 0.0
C186 C 0.57272 0.58071 0.26234 0.0
C187 C 0.5751 0.65352 0.30753 0.0
O188 O 0.52214 0.62663 0.27283 0.0
O189 O 0.53764 0.60849 0.30689 0.0
O190 O 0.58614 0.63645 0.3015 0.0
O191 O 0.55663 0.65477 0.29513 0.0
C192 C 0.56927 0.64044 0.21928 0.0
O193 O 0.57921 0.59177 0.28408 0.0
O194 O 0.55965 0.59066 0.24552 0.0
In195 In 0.1256 0.81634 0.02954 0.0
O196 O 0.11344 0.8031 0.98615 0.0
O197 O 0.1097 0.83747 0.9945 0.0
C198 C 0.13125 0.77709 0.0563 0.0
C199 C 0.16643 0.82993 0.01542 0.0
C200 C 0.09602 0.83696 0.06383 0.0
O201 O 0.11943 0.77944 0.03391 0.0
O202 O 0.14031 0.7945 0.06513 0.0
O203 O 0.11576 0.84334 0.06211 0.0
O204 O 0.09147 0.82032 0.04855 0.0
C205 C 0.10692 0.82161 0.97699 0.0
O206 O 0.15701 0.83616 0.0386 0.0
O207 O 0.15532 0.81702 -0.0002 0.0
In208 In 0.56381 0.86944 0.77075 0.0
O209 O 0.58331 0.90045 0.78266 0.0
O210 O 0.56138 0.90155 0.74634 0.0
C211 C 0.58081 0.83706 0.80397 0.0
C212 C 0.57533 0.85475 0.7177 0.0
C213 C 0.52374 0.87396 0.79527 0.0
O214 O 0.58775 0.85664 0.80574 0.0
O215 O 0.5656 0.83413 0.78569 0.0
O216 O 0.52655 0.86413 0.77123 0.0
O217 O 0.54103 0.88163 0.80655 0.0
C218 C 0.57514 0.91163 0.76201 0.0
O219 O 0.55545 0.85595 0.72577 0.0
O220 O 0.58928 0.86071 0.73657 0.0
In221 In 0.37096 0.3236 0.03336 0.0
O222 O 0.38429 0.31168 0.98953 0.0
O223 O 0.37403 0.34509 0.99309 0.0
C224 C 0.37738 0.28429 0.059 0.0
C225 C 0.32727 0.32842 0.02638 0.0
C226 C 0.39805 0.34812 0.06694 0.0
O227 O 0.38662 0.28959 0.03529 0.0
O228 O 0.36482 0.29878 0.06965 0.0
O229 O 0.37824 0.34476 0.07393 0.0
O230 O 0.40373 0.33973 0.04295 0.0
C231 C 0.38179 0.33006 0.97707 0.0
O232 O 0.3395 0.34452 0.03281 0.0
O233 O 0.33702 0.31018 0.02436 0.0
In234 In 0.93747 0.12602 0.27201 0.0
O235 O 0.9142 0.09666 0.27767 0.0
O236 O 0.94065 0.09382 0.24744 0.0
C237 C 0.91529 0.15248 0.30919 0.0
C238 C 0.9318 0.14264 0.21819 0.0
C239 C 0.9774 0.12508 0.29808 0.0
O240 O 0.91638 0.13192 0.31287 0.0
O241 O 0.92513 0.15948 0.28679 0.0
O242 O 0.97203 0.13965 0.27982 0.0
O243 O 0.96278 0.11084 0.30283 0.0
C244 C 0.92409 0.08492 0.25904 0.0
O245 O 0.95049 0.13702 0.22772 0.0
O246 O 0.91608 0.14005 0.23595 0.0
In247 In 0.12734 0.68331 0.52514 0.0
O248 O 0.11315 0.69129 0.48032 0.0
O249 O 0.11891 0.65762 0.49114 0.0
C250 C 0.12801 0.72354 0.55023 0.0
C251 C 0.17001 0.67415 0.51575 0.0
C252 C 0.09807 0.66255 0.55962 0.0
O253 O 0.1181 0.7199 0.52649 0.0
O254 O 0.13777 0.70708 0.5608 0.0
O255 O 0.11849 0.65896 0.56155 0.0
O256 O 0.09265 0.67645 0.5405 0.0
C257 C 0.11227 0.67136 0.4724 0.0
O258 O 0.15918 0.66506 0.53599 0.0
O259 O 0.15938 0.68788 0.50066 0.0
In260 In 0.55636 0.11526 0.72379 0.0
O261 O 0.54709 0.1245 0.7703 0.0
O262 O 0.58065 0.128 0.75744 0.0
C263 C 0.51583 0.11494 0.69968 0.0
C264 C 0.56867 0.07314 0.73193 0.0
C265 C 0.57508 0.14625 0.68989 0.0
O266 O 0.52016 0.12494 0.72311 0.0
O267 O 0.53181 0.10452 0.68881 0.0
O268 O 0.57947 0.12605 0.68671 0.0
O269 O 0.56157 0.15053 0.71003 0.0
C270 C 0.56642 0.12996 0.77741 0.0
O271 O 0.5774 0.08507 0.7125 0.0
O272 O 0.55369 0.08236 0.74655 0.0
In273 In 0.12623 0.31725 0.96462 0.0
O274 O 0.11368 0.30501 0.00874 0.0
O275 O 0.12562 0.33786 0.00598 0.0
C276 C 0.12462 0.27709 0.94025 0.0
C277 C 0.16956 0.32667 0.96461 0.0
C278 C 0.09343 0.33765 0.93544 0.0
O279 O 0.12149 0.28019 0.96726 0.0
O280 O 0.12856 0.29428 0.9256 0.0
O281 O 0.11328 0.33939 0.92755 0.0
O282 O 0.09049 0.32622 0.95803 0.0
C283 C 0.11741 0.32295 0.02176 0.0
O284 O 0.15516 0.34166 0.96437 0.0
O285 O 0.16206 0.30737 0.96408 0.0
In286 In 0.9322 0.88268 0.21546 0.0
O287 O 0.91202 0.91323 0.20314 0.0
O288 O 0.9327 0.91468 0.24057 0.0
C289 C 0.91442 0.85025 0.18335 0.0
C290 C 0.92348 0.86607 0.26845 0.0
C291 C 0.97153 0.88632 0.18851 0.0
O292 O 0.90688 0.86966 0.18257 0.0
O293 O 0.93063 0.8475 0.20011 0.0
O294 O 0.96956 0.87823 0.21377 0.0
O295 O 0.95382 0.89309 0.17738 0.0
C296 C 0.91914 0.92447 0.22435 0.0
O297 O 0.94274 0.87129 0.26059 0.0
O298 O 0.90867 0.86931 0.24957 0.0
In299 In 0.37341 0.68465 0.46672 0.0
O300 O 0.38674 0.69682 0.51021 0.0
O301 O 0.38637 0.66221 0.50249 0.0
C302 C 0.3715 0.72372 0.43855 0.0
C303 C 0.3315 0.67406 0.47969 0.0
C304 C 0.4011 0.66225 0.43156 0.0
O305 O 0.38276 0.72092 0.46137 0.0
O306 O 0.36109 0.70696 0.43021 0.0
O307 O 0.38055 0.6593 0.43086 0.0
O308 O 0.40753 0.6763 0.44995 0.0
C309 C 0.39095 0.67777 0.51978 0.0
O310 O 0.34229 0.66402 0.46023 0.0
O311 O 0.3418 0.68932 0.49233 0.0
In312 In 0.43702 0.12436 0.21874 0.0
O313 O 0.4474 0.13935 0.26229 0.0
O314 O 0.41317 0.13695 0.25289 0.0
C315 C 0.477 0.11668 0.1956 0.0
C316 C 0.42287 0.08303 0.22797 0.0
C317 C 0.42163 0.1552 0.18171 0.0
O318 O 0.47442 0.12731 0.2191 0.0
O319 O 0.45947 0.10945 0.18439 0.0
O320 O 0.41048 0.13836 0.18828 0.0
O321 O 0.44012 0.15642 0.194 0.0
C322 C 0.42789 0.14247 0.27089 0.0
O323 O 0.41718 0.09391 0.20568 0.0
O324 O 0.43573 0.09293 0.24511 0.0
In325 In 0.62882 0.66875 0.95589 0.0
O326 O 0.60882 0.68128 0.99481 0.0
O327 O 0.62847 0.65258 0.00049 0.0
C328 C 0.624 0.70635 0.92533 0.0
C329 C 0.67256 0.66425 0.96326 0.0
C330 C 0.60262 0.64102 0.92564 0.0
O331 O 0.62053 0.70536 0.95253 0.0
O332 O 0.62993 0.68845 0.91375 0.0
O333 O 0.62256 0.64395 0.91897 0.0
O334 O 0.59627 0.65154 0.94781 0.0
C335 C 0.61536 0.66625 0.0118 0.0
O336 O 0.66009 0.6478 0.96018 0.0
O337 O 0.66303 0.68264 0.96188 0.0
In338 In 0.0627 0.87477 0.71697 0.0
O339 O 0.0496 0.86275 0.76067 0.0
O340 O 0.08415 0.86069 0.7529 0.0
C341 C 0.02323 0.87659 0.69029 0.0
C342 C 0.07486 0.91584 0.732 0.0
C343 C 0.08367 0.84698 0.68047 0.0
O344 O 0.02688 0.86443 0.71209 0.0
O345 O 0.03948 0.8879 0.682 0.0
O346 O 0.08429 0.86759 0.67683 0.0
O347 O 0.07268 0.8407 0.7023 0.0
C348 C 0.06835 0.85749 0.77033 0.0
O349 O 0.08711 0.90366 0.71659 0.0
O350 O 0.0566 0.90748 0.73876 0.0
In351 In 0.87376 0.30971 0.4743 0.0
O352 O 0.8915 0.30188 0.51708 0.0
O353 O 0.88651 0.33548 0.50581 0.0
C354 C 0.87109 0.27016 0.44823 0.0
C355 C 0.8315 0.31607 0.48955 0.0
C356 C 0.89941 0.32845 0.43347 0.0
O357 O 0.88267 0.27333 0.4708 0.0
O358 O 0.86042 0.28676 0.43954 0.0
O359 O 0.88143 0.33717 0.44128 0.0
O360 O 0.90435 0.31091 0.44661 0.0
C361 C 0.89385 0.32185 0.52415 0.0
O362 O 0.8405 0.32717 0.46944 0.0
O363 O 0.84379 0.30197 0.50148 0.0
In364 In 0.4266 0.88013 0.27374 0.0
O365 O 0.43627 0.86485 0.23031 0.0
O366 O 0.40245 0.87281 0.23733 0.0
C367 C 0.4668 0.88291 0.29848 0.0
C368 C 0.41641 0.92231 0.26272 0.0
C369 C 0.40653 0.85019 0.30814 0.0
O370 O 0.46335 0.8722 0.27532 0.0
O371 O 0.45003 0.8922 0.30901 0.0
O372 O 0.40379 0.87062 0.31179 0.0
O373 O 0.41909 0.84513 0.2873 0.0
C374 C 0.41692 0.86521 0.2202 0.0
O375 O 0.40621 0.91126 0.28184 0.0
O376 O 0.43165 0.91214 0.24977 0.0
In377 In 0.87217 0.68112 0.0333 0.0
O378 O 0.87977 0.6949 0.98789 0.0
O379 O 0.88256 0.66035 0.99468 0.0
C380 C 0.87358 0.71918 0.0629 0.0
C381 C 0.82912 0.67083 0.02962 0.0
C382 C 0.90483 0.66155 0.0632 0.0
O383 O 0.87851 0.71801 0.03607 0.0
O384 O 0.86786 0.7012 0.07452 0.0
O385 O 0.88483 0.65733 0.06857 0.0
O386 O 0.90798 0.67521 0.0429 0.0
C387 C 0.8844 0.67629 0.97721 0.0
O388 O 0.84367 0.65609 0.03197 0.0
O389 O 0.83632 0.69023 0.02974 0.0
In390 In 0.06914 0.1127 0.79204 0.0
O391 O 0.05773 0.11543 0.74506 0.0
O392 O 0.08237 0.13787 0.75959 0.0
C393 C 0.02621 0.10976 0.80658 0.0
C394 C 0.08751 0.07224 0.78709 0.0
C395 C 0.08782 0.14027 0.83119 0.0
O396 O 0.03341 0.12321 0.78789 0.0
O397 O 0.04062 0.09726 0.81749 0.0
O398 O 0.09913 0.1299 0.8126 0.0
O399 O 0.06751 0.13646 0.83013 0.0
C400 C 0.07044 0.13118 0.73878 0.0
O401 O 0.08615 0.08559 0.7662 0.0
O402 O 0.08016 0.07948 0.811 0.0
In403 In 0.62547 0.3119 0.53565 0.0
O404 O 0.65751 0.33154 0.54021 0.0
O405 O 0.65915 0.29837 0.52528 0.0
C406 C 0.59558 0.33619 0.56494 0.0
C407 C 0.61543 0.31991 0.47952 0.0
C408 C 0.62086 0.27389 0.56516 0.0
O409 O 0.61577 0.33653 0.57153 0.0
O410 O 0.59082 0.32409 0.54349 0.0
O411 O 0.61552 0.27568 0.53856 0.0
O412 O 0.62852 0.29118 0.57654 0.0
C413 C 0.66942 0.31579 0.53142 0.0
O414 O 0.61108 0.30172 0.49164 0.0
O415 O 0.62476 0.33387 0.49576 0.0
H416 H 0.11576 0.3594 0.20533 0.0
H417 H 0.04892 0.34016 0.18581 0.0
H418 H 0.12691 0.3493 0.15587 0.0
H419 H 0.06011 0.33008 0.13623 0.0
H420 H 0.09413 0.29597 0.05818 0.0
H421 H 0.08431 0.30281 0.10928 0.0
H422 H 0.11886 0.36489 0.10623 0.0
H423 H 0.12867 0.35809 0.05534 0.0
C424 C 0.10349 0.35287 0.19052 0.0
C425 C 0.08145 0.35065 0.19933 0.0
C426 C 0.10986 0.34719 0.16221 0.0
C427 C 0.09435 0.33901 0.14223 0.0
C428 C 0.07243 0.33619 0.15128 0.0
C429 C 0.06601 0.34206 0.17957 0.0
C430 C 0.0997 0.31101 0.06852 0.0
C431 C 0.11213 0.32652 0.05284 0.0
C432 C 0.094 0.31495 0.09766 0.0
C433 C 0.10085 0.33436 0.11166 0.0
C434 C 0.11357 0.34968 0.09607 0.0
C435 C 0.11907 0.34584 0.06691 0.0
H436 H 0.95041 0.86558 0.31599 0.0
H437 H 0.88528 0.84724 0.28703 0.0
H438 H 0.94125 0.85351 0.36551 0.0
H439 H 0.87624 0.83502 0.33653 0.0
H440 H 0.87727 0.79753 0.42507 0.0
H441 H 0.88855 0.80575 0.37475 0.0
H442 H 0.91344 0.86886 0.40285 0.0
H443 H 0.90203 0.86083 0.45282 0.0
C444 C 0.93424 0.85877 0.32016 0.0
C445 C 0.91849 0.85747 0.2978 0.0
C446 C 0.929 0.85194 0.34845 0.0
C447 C 0.90805 0.84341 0.35472 0.0
C448 C 0.89256 0.8414 0.33215 0.0
C449 C 0.89769 0.84851 0.30394 0.0
C450 C 0.88523 0.8131 0.42043 0.0
C451 C 0.88873 0.82858 0.44273 0.0
C452 C 0.8916 0.8178 0.39173 0.0
C453 C 0.90192 0.83788 0.38508 0.0
C454 C 0.90573 0.85316 0.4075 0.0
C455 C 0.89908 0.84862 0.43602 0.0
H456 H 0.40048 0.66684 0.70617 0.0
H457 H 0.45788 0.63129 0.67641 0.0
H458 H 0.39278 0.67816 0.65599 0.0
H459 H 0.45013 0.6426 0.62621 0.0
H460 H 0.40639 0.63923 0.54213 0.0
H461 H 0.41916 0.63227 0.59184 0.0
H462 H 0.40819 0.70054 0.61382 0.0
H463 H 0.39544 0.70756 0.56398 0.0
C464 C 0.41162 0.66173 0.68896 0.0
C465 C 0.42969 0.64809 0.69512 0.0
C466 C 0.40727 0.66828 0.66029 0.0
C467 C 0.4208 0.66113 0.63726 0.0
C468 C 0.43934 0.64816 0.64357 0.0
C469 C 0.44382 0.6418 0.67228 0.0
C470 C 0.40688 0.65279 0.55751 0.0
C471 C 0.39985 0.67391 0.54928 0.0
C472 C 0.41432 0.64884 0.58588 0.0
C473 C 0.41466 0.66589 0.60662 0.0
C474 C 0.40797 0.6871 0.59826 0.0
C475 C 0.40075 0.69111 0.56977 0.0
H476 H 0.60415 0.15023 0.79481 0.0
H477 H 0.54139 0.12689 0.82665 0.0
H478 H 0.61403 0.16176 0.84429 0.0
H479 H 0.55143 0.13822 0.87619 0.0
H480 H 0.59424 0.13354 0.96147 0.0
H481 H 0.58167 0.12477 0.91211 0.0
H482 H 0.60018 0.18986 0.88327 0.0
H483 H 0.61255 0.19878 0.93281 0.0
C484 C 0.59246 0.14765 0.81237 0.0
C485 C 0.57204 0.13763 0.80699 0.0
C486 C 0.59806 0.15435 0.84058 0.0
C487 C 0.58347 0.15084 0.86392 0.0
C488 C 0.56298 0.14098 0.85852 0.0
C489 C 0.55723 0.13459 0.83022 0.0
C490 C 0.59548 0.14601 0.94463 0.0
C491 C 0.60439 0.16681 0.95086 0.0
C492 C 0.5882 0.14104 0.91649 0.0
C493 C 0.59 0.15666 0.89402 0.0
C494 C 0.59874 0.17752 0.90027 0.0
C495 C 0.60571 0.18263 0.92856 0.0
H496 H 0.11296 0.6136 0.30189 0.0
H497 H 0.05439 0.65388 0.29865 0.0
H498 H 0.11854 0.62398 0.35272 0.0
H499 H 0.05993 0.6642 0.34988 0.0
H500 H 0.09715 0.69754 0.42817 0.0
H501 H 0.0875 0.68625 0.37851 0.0
H502 H 0.10101 0.61853 0.40105 0.0
H503 H 0.11084 0.62979 0.45046 0.0
C504 C 0.1012 0.62458 0.31213 0.0
C505 C 0.08326 0.63297 0.29634 0.0
C506 C 0.10432 0.63041 0.34128 0.0
C507 C 0.08963 0.64485 0.35526 0.0
C508 C 0.07158 0.65316 0.33955 0.0
C509 C 0.06836 0.64718 0.31034 0.0
C510 C 0.09788 0.68023 0.42254 0.0
C511 C 0.10491 0.66456 0.44307 0.0
C512 C 0.09224 0.67377 0.3942 0.0
C513 C 0.09364 0.65154 0.38591 0.0
C514 C 0.10007 0.63582 0.40674 0.0
C515 C 0.10561 0.64226 0.43504 0.0
H516 H 0.59213 0.80027 0.54214 0.0
H517 H 0.62764 0.86186 0.54418 0.0
H518 H 0.58277 0.80474 0.59385 0.0
H519 H 0.6183 0.86629 0.59569 0.0
H520 H 0.61637 0.85581 0.69396 0.0
H521 H 0.62677 0.84777 0.64357 0.0
H522 H 0.55934 0.83112 0.62367 0.0
H523 H 0.54888 0.83912 0.67419 0.0
C524 C 0.59798 0.8147 0.55367 0.0
C525 C 0.61058 0.83074 0.53921 0.0
C526 C 0.59256 0.81728 0.58316 0.0
C527 C 0.59987 0.83582 0.59871 0.0
C528 C 0.61267 0.85171 0.58429 0.0
C529 C 0.6179 0.84925 0.55479 0.0
C530 C 0.6038 0.85024 0.67891 0.0
C531 C 0.58179 0.84819 0.68791 0.0
C532 C 0.60974 0.84575 0.65006 0.0
C533 C 0.59383 0.83897 0.62974 0.0
C534 C 0.57195 0.83619 0.63897 0.0
C535 C 0.56596 0.84086 0.66781 0.0
H536 H 0.40232 0.30183 0.93932 0.0
H537 H 0.37326 0.36663 0.94482 0.0
H538 H 0.41052 0.30804 0.88756 0.0
H539 H 0.38148 0.3728 0.89333 0.0
H540 H 0.37693 0.36631 0.79463 0.0
H541 H 0.36871 0.35753 0.84546 0.0
H542 H 0.43485 0.33297 0.85693 0.0
H543 H 0.44312 0.3417 0.80587 0.0
C544 C 0.39773 0.31738 0.92948 0.0
C545 C 0.38713 0.33374 0.94603 0.0
C546 C 0.40249 0.32095 0.89995 0.0
C547 C 0.39652 0.34085 0.88646 0.0
C548 C 0.38599 0.3572 0.90309 0.0
C549 C 0.38141 0.35371 0.93259 0.0
C550 C 0.38968 0.35889 0.80792 0.0
C551 C 0.4107 0.35478 0.79637 0.0
C552 C 0.385 0.35398 0.83704 0.0
C553 C 0.4012 0.34473 0.85514 0.0
C554 C 0.42204 0.33998 0.84338 0.0
C555 C 0.42678 0.34506 0.81424 0.0
H556 H 0.91774 0.14314 0.032 0.0
H557 H 0.88758 0.20475 0.05705 0.0
H558 H 0.92987 0.13753 0.08234 0.0
H559 H 0.89974 0.19912 0.10735 0.0
H560 H 0.89457 0.16072 0.19561 0.0
H561 H 0.88777 0.1714 0.14505 0.0
H562 H 0.95428 0.15307 0.12221 0.0
H563 H 0.96114 0.14237 0.17297 0.0
C564 C 0.91401 0.15563 0.04817 0.0
C565 C 0.90158 0.17428 0.0407 0.0
C566 C 0.92104 0.15247 0.07692 0.0
C567 C 0.9156 0.16783 0.09873 0.0
C568 C 0.90394 0.18692 0.09099 0.0
C569 C 0.89708 0.19017 0.06221 0.0
C570 C 0.90781 0.15918 0.17987 0.0
C571 C 0.92834 0.15064 0.18814 0.0
C572 C 0.90396 0.16542 0.15098 0.0
C573 C 0.92052 0.16306 0.12976 0.0
C574 C 0.94122 0.15494 0.13814 0.0
C575 C 0.94514 0.14891 0.16715 0.0
H576 H 0.89061 0.66096 0.79016 0.0
H577 H 0.95513 0.64068 0.81928 0.0
H578 H 0.88124 0.67189 0.84009 0.0
H579 H 0.94562 0.65142 0.86924 0.0
H580 H 0.90445 0.64026 0.95451 0.0
H581 H 0.9167 0.63453 0.90433 0.0
H582 H 0.89349 0.69938 0.88108 0.0
H583 H 0.8814 0.70531 0.93168 0.0
C584 C 0.90285 0.65908 0.80718 0.0
C585 C 0.92354 0.64985 0.80096 0.0
C586 C 0.89753 0.66544 0.83565 0.0
C587 C 0.91269 0.66238 0.8584 0.0
C588 C 0.93362 0.65379 0.85203 0.0
C589 C 0.93906 0.64773 0.82349 0.0
C590 C 0.90203 0.65334 0.93874 0.0
C591 C 0.89193 0.67321 0.94689 0.0
C592 C 0.90919 0.65011 0.91012 0.0
C593 C 0.90612 0.66656 0.88899 0.0
C594 C 0.896 0.68646 0.89706 0.0
C595 C 0.88915 0.68985 0.92591 0.0
H596 H 0.09593 0.20243 0.57584 0.0
H597 H 0.09572 0.13295 0.55561 0.0
H598 H 0.085 0.19412 0.62613 0.0
H599 H 0.08501 0.12468 0.60573 0.0
H600 H 0.04818 0.11756 0.69047 0.0
H601 H 0.05386 0.12935 0.64008 0.0
H602 H 0.10288 0.17599 0.66897 0.0
H603 H 0.09704 0.16436 0.71949 0.0
C604 C 0.0934 0.18542 0.5821 0.0
C605 C 0.09672 0.16832 0.5619 0.0
C606 C 0.08725 0.18068 0.61086 0.0
C607 C 0.08414 0.15877 0.6198 0.0
C608 C 0.087 0.14174 0.59936 0.0
C609 C 0.09327 0.14647 0.57072 0.0
C610 C 0.05997 0.13052 0.68611 0.0
C611 C 0.0723 0.13994 0.70884 0.0
C612 C 0.06329 0.13718 0.65726 0.0
C613 C 0.07893 0.15344 0.65061 0.0
C614 C 0.09059 0.16353 0.67349 0.0
C615 C 0.08733 0.1568 0.70237 0.0
H616 H 0.62723 0.35598 0.44813 0.0
H617 H 0.59124 0.29484 0.44171 0.0
H618 H 0.61788 0.36457 0.39765 0.0
H619 H 0.58192 0.30346 0.39091 0.0
H620 H 0.54923 0.34292 0.31439 0.0
H621 H 0.55901 0.33165 0.36403 0.0
H622 H 0.62654 0.35024 0.34789 0.0
H623 H 0.6168 0.36159 0.29845 0.0
C624 C 0.61737 0.34434 0.43588 0.0
C625 C 0.60996 0.32474 0.44881 0.0
C626 C 0.61213 0.34921 0.40694 0.0
C627 C 0.59925 0.33464 0.39037 0.0
C628 C 0.59177 0.31504 0.40329 0.0
C629 C 0.59718 0.31007 0.43225 0.0
C630 C 0.56617 0.34447 0.32143 0.0
C631 C 0.58223 0.35324 0.30266 0.0
C632 C 0.57178 0.33791 0.34975 0.0
C633 C 0.5935 0.34018 0.35981 0.0
C634 C 0.60961 0.34856 0.34081 0.0
C635 C 0.60405 0.35497 0.31249 0.0
H636 H 0.44422 0.84521 0.18097 0.0
H637 H 0.37797 0.86987 0.19158 0.0
H638 H 0.43605 0.83567 0.13019 0.0
H639 H 0.36985 0.86031 0.14092 0.0
H640 H 0.37385 0.86569 0.04091 0.0
H641 H 0.38261 0.87408 0.09175 0.0
H642 H 0.41151 0.80956 0.10181 0.0
H643 H 0.40277 0.80113 0.05086 0.0
C644 C 0.42789 0.84845 0.17249 0.0
C645 C 0.41173 0.85831 0.19013 0.0
C646 C 0.42322 0.84294 0.14352 0.0
C647 C 0.40238 0.84739 0.13166 0.0
C648 C 0.38614 0.85696 0.14945 0.0
C649 C 0.39075 0.86229 0.17846 0.0
C650 C 0.38216 0.85334 0.05394 0.0
C651 C 0.38762 0.83276 0.04201 0.0
C652 C 0.38703 0.85809 0.08305 0.0
C653 C 0.39762 0.84241 0.10068 0.0
C654 C 0.40345 0.82197 0.08861 0.0
C655 C 0.39838 0.81714 0.05954 0.0
H656 H 0.9467 0.33887 0.70137 0.0
H657 H 0.8918 0.38331 0.69042 0.0
H658 H 0.94384 0.32819 0.64987 0.0
H659 H 0.88886 0.37259 0.63934 0.0
H660 H 0.89966 0.36375 0.54355 0.0
H661 H 0.90925 0.37554 0.59282 0.0
H662 H 0.91668 0.30763 0.61901 0.0
H663 H 0.90732 0.29579 0.56948 0.0
C664 C 0.93413 0.34643 0.68793 0.0
C665 C 0.91944 0.36188 0.69986 0.0
C666 C 0.93245 0.34027 0.65855 0.0
C667 C 0.91619 0.34962 0.64059 0.0
C668 C 0.90178 0.36534 0.65251 0.0
C669 C 0.90336 0.37137 0.68183 0.0
C670 C 0.90366 0.35133 0.5597 0.0
C671 C 0.90253 0.32884 0.55279 0.0
C672 C 0.90904 0.35809 0.58793 0.0
C673 C 0.91344 0.3425 0.60983 0.0
C674 C 0.91347 0.32002 0.60253 0.0
C675 C 0.90803 0.31324 0.57423 0.0
H676 H 0.45581 0.15968 0.31182 0.0
H677 H 0.38789 0.14166 0.29726 0.0
H678 H 0.4471 0.16849 0.3629 0.0
H679 H 0.37942 0.15012 0.34814 0.0
H680 H 0.38253 0.13679 0.44696 0.0
H681 H 0.39349 0.13071 0.39629 0.0
H682 H 0.42043 0.19636 0.39231 0.0
H683 H 0.40914 0.2027 0.44313 0.0
C684 C 0.43903 0.15782 0.31946 0.0
C685 C 0.42253 0.14992 0.30069 0.0
C686 C 0.43408 0.16287 0.34856 0.0
C687 C 0.41268 0.15973 0.35932 0.0
C688 C 0.3961 0.15243 0.34034 0.0
C689 C 0.40094 0.14772 0.31123 0.0
C690 C 0.39097 0.14987 0.4354 0.0
C691 C 0.3949 0.17025 0.44887 0.0
C692 C 0.39712 0.14642 0.40642 0.0
C693 C 0.40759 0.16316 0.39051 0.0
C694 C 0.41237 0.18324 0.40425 0.0
C695 C 0.40589 0.18684 0.4332 0.0
H696 H 0.54211 0.64851 0.1728 0.0
H697 H 0.61032 0.64988 0.19937 0.0
H698 H 0.55314 0.65717 0.12261 0.0
H699 H 0.62124 0.65859 0.14947 0.0
H700 H 0.63174 0.63891 0.05331 0.0
H701 H 0.62019 0.63558 0.10407 0.0
H702 H 0.57153 0.68644 0.09079 0.0
H703 H 0.58314 0.68982 0.03964 0.0
C704 C 0.55939 0.65099 0.16801 0.0
C705 C 0.57537 0.64831 0.18988 0.0
C706 C 0.56568 0.65602 0.13936 0.0
C707 C 0.58805 0.65829 0.13216 0.0
C708 C 0.60391 0.65659 0.15435 0.0
C709 C 0.59763 0.65169 0.18293 0.0
C710 C 0.61862 0.64944 0.0612 0.0
C711 C 0.60833 0.66463 0.04256 0.0
C712 C 0.61211 0.64763 0.0903 0.0
C713 C 0.59507 0.66086 0.10137 0.0
C714 C 0.58467 0.67601 0.08274 0.0
C715 C 0.59136 0.67799 0.05358 0.0
H716 H 0.10495 0.83772 0.79215 0.0
H717 H 0.03952 0.85911 0.81593 0.0
H718 H 0.11177 0.82682 0.84272 0.0
H719 H 0.04649 0.84841 0.86668 0.0
H720 H 0.08573 0.85764 0.9555 0.0
H721 H 0.07399 0.86398 0.9051 0.0
H722 H 0.09694 0.79916 0.88117 0.0
H723 H 0.10848 0.79267 0.93162 0.0
C724 C 0.09198 0.83989 0.80815 0.0
C725 C 0.07175 0.8493 0.80024 0.0
C726 C 0.09584 0.83356 0.837 0.0
C727 C 0.07964 0.83682 0.85847 0.0
C728 C 0.05924 0.84583 0.85046 0.0
C729 C 0.05525 0.85185 0.82149 0.0
C730 C 0.088 0.84466 0.93954 0.0
C731 C 0.09809 0.82472 0.94735 0.0
C732 C 0.08119 0.84824 0.9108 0.0
C733 C 0.08464 0.83205 0.88938 0.0
C734 C 0.09422 0.8119 0.89734 0.0
C735 C 0.10074 0.8082 0.92616 0.0
H736 H 0.11057 0.34912 0.36275 0.0
H737 H 0.06204 0.30396 0.32861 0.0
H738 H 0.12041 0.32199 0.40051 0.0
H739 H 0.07158 0.27738 0.36615 0.0
H740 H 0.07592 0.24463 0.45318 0.0
H741 H 0.06821 0.27662 0.42266 0.0
H742 H 0.137 0.28116 0.39983 0.0
H743 H 0.14482 0.24897 0.43036 0.0
C744 C 0.10205 0.33347 0.36333 0.0
C745 C 0.08558 0.32861 0.34277 0.0
C746 C 0.10766 0.31803 0.38484 0.0
C747 C 0.09653 0.29779 0.38636 0.0
C748 C 0.08015 0.29301 0.36573 0.0
C749 C 0.07484 0.30818 0.3441 0.0
C750 C 0.08948 0.25268 0.44212 0.0
C751 C 0.11092 0.24416 0.44381 0.0
C752 C 0.08505 0.27094 0.42463 0.0
C753 C 0.102 0.28113 0.40873 0.0
C754 C 0.12369 0.2736 0.41199 0.0
C755 C 0.12811 0.25516 0.42932 0.0
H756 H 0.93844 0.85097 0.54956 0.0
H757 H 0.89108 0.85314 0.61997 0.0
H758 H 0.96682 0.86456 0.58221 0.0
H759 H 0.91973 0.86699 0.65297 0.0
H760 H 0.98637 0.85303 0.70358 0.0
H761 H 0.95326 0.84908 0.67393 0.0
H762 H 0.97916 0.89603 0.61189 0.0
H763 H 0.01242 0.89976 0.64134 0.0
C764 C 0.93403 0.85473 0.57197 0.0
C765 C 0.91263 0.85084 0.58234 0.0
C766 C 0.95026 0.86269 0.59062 0.0
C767 C 0.94551 0.86682 0.62016 0.0
C768 C 0.92385 0.86381 0.63032 0.0
C769 C 0.90748 0.856 0.61147 0.0
C770 C 0.98483 0.86276 0.68384 0.0
C771 C 0.00208 0.87645 0.67451 0.0
C772 C 0.96579 0.86064 0.667 0.0
C773 C 0.9637 0.87213 0.64049 0.0
C774 C 0.98045 0.88677 0.63205 0.0
C775 C -0.00054 0.88892 0.64892 0.0
H776 H 0.35322 0.76159 0.88327 0.0
H777 H 0.39676 0.74275 0.95358 0.0
H778 H 0.36267 0.72783 0.85707 0.0
H779 H 0.40603 0.70897 0.9275 0.0
H780 H 0.44194 0.67483 0.85025 0.0
H781 H 0.42776 0.70368 0.88195 0.0
H782 H 0.36128 0.68627 0.85791 0.0
H783 H 0.37558 0.65719 0.82589 0.0
C784 C 0.3645 0.75006 0.89334 0.0
C785 C 0.37446 0.7549 0.92028 0.0
C786 C 0.36981 0.73069 0.87842 0.0
C787 C 0.38523 0.7159 0.89015 0.0
C788 C 0.39431 0.72024 0.91779 0.0
C789 C 0.38895 0.73953 0.93274 0.0
C790 C 0.42429 0.67701 0.8519 0.0
C791 C 0.40985 0.66385 0.83554 0.0
C792 C 0.41616 0.69343 0.87023 0.0
C793 C 0.39341 0.69717 0.87247 0.0
C794 C 0.3789 0.68377 0.85647 0.0
C795 C 0.38706 0.66713 0.83828 0.0
H796 H 0.55764 0.15276 0.05785 0.0
H797 H 0.60849 0.13802 0.1208 0.0
H798 H 0.53016 0.13699 0.09027 0.0
H799 H 0.5807 0.12217 0.15363 0.0
H800 H 0.51627 0.1345 0.2124 0.0
H801 H 0.5489 0.13944 0.18188 0.0
H802 H 0.51826 0.10155 0.11321 0.0
H803 H 0.48561 0.09674 0.14355 0.0
C804 C 0.56296 0.1459 0.07853 0.0
C805 C 0.58514 0.14672 0.08693 0.0
C806 C 0.54724 0.13668 0.09699 0.0
C807 C 0.55332 0.12826 0.12442 0.0
C808 C 0.57561 0.12857 0.1326 0.0
C809 C 0.59146 0.13757 0.11385 0.0
C810 C 0.51675 0.12676 0.19109 0.0
C811 C 0.49828 0.11557 0.18014 0.0
C812 C 0.53546 0.12949 0.17368 0.0
C813 C 0.53594 0.12114 0.14504 0.0
C814 C 0.51817 0.10843 0.13506 0.0
C815 C 0.49952 0.10564 0.15246 0.0
H816 H 0.11925 0.64305 0.12415 0.0
H817 H 0.11022 0.68898 0.19523 0.0
H818 H 0.13191 0.67316 0.09279 0.0
H819 H 0.12257 0.71892 0.16406 0.0
H820 H 0.15376 0.76887 0.10668 0.0
H821 H 0.15285 0.73529 0.13598 0.0
H822 H 0.11141 0.70441 0.07116 0.0
H823 H 0.11259 0.73782 0.04173 0.0
C824 C 0.12042 0.65947 0.13322 0.0
C825 C 0.11357 0.66375 0.16199 0.0
C826 C 0.12753 0.6767 0.11526 0.0
C827 C 0.12808 0.69842 0.1259 0.0
C828 C 0.12256 0.70236 0.15526 0.0
C829 C 0.11533 0.68522 0.17309 0.0
C830 C 0.14477 0.75477 0.09849 0.0
C831 C 0.13301 0.75602 0.07213 0.0
C832 C 0.14422 0.73558 0.11527 0.0
C833 C 0.13194 0.71727 0.10597 0.0
C834 C 0.12121 0.71814 0.07879 0.0
C835 C 0.12173 0.73734 0.06204 0.0
H836 H 0.50396 0.86023 0.28376 0.0
H837 H 0.47821 0.90668 0.34658 0.0
H838 H 0.5379 0.85742 0.31191 0.0
H839 H 0.51235 0.90433 0.37436 0.0
H840 H 0.55674 0.86273 0.4359 0.0
H841 H 0.52707 0.87523 0.40457 0.0
H842 H 0.57126 0.8752 0.33047 0.0
H843 H 0.60108 0.86219 0.36204 0.0
C844 C 0.50574 0.87017 0.30327 0.0
C845 C 0.48835 0.88341 0.31324 0.0
C846 C 0.52526 0.8687 0.31929 0.0
C847 C 0.52775 0.88052 0.34551 0.0
C848 C 0.51079 0.89475 0.3545 0.0
C849 C 0.49127 0.89613 0.33857 0.0
C850 C 0.56026 0.86577 0.41303 0.0
C851 C 0.58115 0.86129 0.40133 0.0
C852 C 0.54327 0.8731 0.39507 0.0
C853 C 0.54677 0.8761 0.36497 0.0
C854 C 0.56801 0.87277 0.35353 0.0
C855 C 0.5851 0.86549 0.3716 0.0
H856 H 0.34046 0.23215 0.60489 0.0
H857 H 0.37983 0.26119 0.53631 0.0
H858 H 0.34554 0.26507 0.63464 0.0
H859 H 0.38506 0.29405 0.56624 0.0
H860 H 0.39615 0.30472 0.69047 0.0
H861 H 0.38047 0.27693 0.65848 0.0
H862 H 0.36803 0.32652 0.59287 0.0
H863 H 0.38382 0.35461 0.62523 0.0
C864 C 0.34981 0.24575 0.59593 0.0
C865 C 0.36005 0.24399 0.56849 0.0
C866 C 0.35276 0.26455 0.61299 0.0
C867 C 0.36594 0.28196 0.6029 0.0
C868 C 0.37473 0.28092 0.57452 0.0
C869 C 0.37183 0.26206 0.55745 0.0
C870 C 0.38981 0.30978 0.66939 0.0
C871 C 0.39131 0.33176 0.66023 0.0
C872 C 0.38065 0.29389 0.65115 0.0
C873 C 0.37296 0.29959 0.62322 0.0
C874 C 0.37389 0.32171 0.61429 0.0
C875 C 0.38284 0.33774 0.63279 0.0
H876 H 0.00913 0.08954 0.85487 0.0
H877 H 0.9922 0.13333 0.78398 0.0
H878 H 0.97447 0.09849 0.8792 0.0
H879 H 0.95741 0.14191 0.80795 0.0
H880 H 0.92482 0.18013 0.88402 0.0
H881 H 0.95248 0.16423 0.85208 0.0
H882 H 0.93333 0.09895 0.87964 0.0
H883 H 0.90546 0.11506 0.9121 0.0
C884 C 0.99771 0.10055 0.84408 0.0
C885 C 0.0035 0.11106 0.81783 0.0
C886 C 0.97782 0.10562 0.85795 0.0
C887 C 0.96343 0.12121 0.84571 0.0
C888 C 0.96841 0.13018 0.81818 0.0
C889 C 0.98828 0.1252 0.80441 0.0
C890 C 0.92632 0.16237 0.88309 0.0
C891 C 0.91309 0.14883 0.90065 0.0
C892 C 0.94204 0.15323 0.86455 0.0
C893 C 0.94499 0.13031 0.8632 0.0
C894 C 0.93143 0.11667 0.88031 0.0
C895 C 0.91549 0.12586 0.89878 0.0
H896 H 0.87848 0.65479 0.65567 0.0
H897 H 0.9428 0.68505 0.65673 0.0
H898 H 0.86573 0.68307 0.62109 0.0
H899 H 0.93026 0.71276 0.62213 0.0
H900 H 0.9069 0.74734 0.54068 0.0
H901 H 0.91619 0.71427 0.56853 0.0
H902 H 0.86138 0.72636 0.62642 0.0
H903 H 0.85217 0.75959 0.59881 0.0
C904 C 0.88989 0.66732 0.64829 0.0
C905 C 0.91155 0.66788 0.65894 0.0
C906 C 0.88261 0.68343 0.62863 0.0
C907 C 0.89709 0.69993 0.6189 0.0
C908 C 0.91886 0.70006 0.62903 0.0
C909 C 0.92596 0.68431 0.649 0.0
C910 C 0.89665 0.74276 0.55908 0.0
C911 C 0.87897 0.75612 0.56781 0.0
C912 C 0.90197 0.72389 0.57498 0.0
C913 C 0.88951 0.71789 0.5996 0.0
C914 C 0.87112 0.73058 0.60738 0.0
C915 C 0.86597 0.74964 0.59172 0.0
H916 H 0.99177 0.09601 0.33926 0.0
H917 H 0.01003 0.15574 0.29417 0.0
H918 H 0.02396 0.09963 0.37075 0.0
H919 H 0.04193 0.15963 0.32598 0.0
H920 H 0.1038 0.15711 0.37905 0.0
H921 H 0.07748 0.14502 0.34195 0.0
H922 H 0.03243 0.12508 0.41012 0.0
H923 H 0.05877 0.13673 0.44695 0.0
C924 C 0.00282 0.10976 0.33585 0.0
C925 C -0.00172 0.12573 0.31449 0.0
C926 C 0.02119 0.11188 0.35395 0.0
C927 C 0.03539 0.13002 0.35105 0.0
C928 C 0.03146 0.14534 0.32861 0.0
C929 C 0.01309 0.14321 0.3105 0.0
C930 C 0.08845 0.14972 0.38602 0.0
C931 C 0.08324 0.14802 0.41586 0.0
C932 C 0.07334 0.14293 0.36481 0.0
C933 C 0.05281 0.13424 0.37308 0.0
C934 C 0.04818 0.13147 0.40297 0.0
C935 C 0.06323 0.13829 0.42411 0.0
H936 H 0.61017 0.25783 0.04374 0.0
H937 H 0.64482 0.22762 0.11575 0.0
H938 H 0.60317 0.29039 0.07382 0.0
H939 H 0.63777 0.26011 0.14573 0.0
H940 H 0.58662 0.30266 0.19685 0.0
H941 H 0.60118 0.27364 0.16567 0.0
H942 H 0.6217 0.32221 0.10236 0.0
H943 H 0.6072 0.35154 0.13395 0.0
C944 C 0.61659 0.25831 0.0658 0.0
C945 C 0.62783 0.24012 0.07753 0.0
C946 C 0.6127 0.27698 0.08294 0.0
C947 C 0.6198 0.27765 0.11213 0.0
C948 C 0.63195 0.25989 0.12336 0.0
C949 C 0.63601 0.24134 0.10617 0.0
C950 C 0.59442 0.3072 0.17641 0.0
C951 C 0.59573 0.32932 0.16774 0.0
C952 C 0.60289 0.29059 0.15867 0.0
C953 C 0.61263 0.29571 0.13168 0.0
C954 C 0.61423 0.31787 0.12308 0.0
C955 C 0.60602 0.3346 0.14113 0.0
H956 H 0.39109 0.85344 0.86641 0.0
H957 H 0.43897 0.8492 0.93592 0.0
H958 H 0.41981 0.86673 0.83312 0.0
H959 H 0.46745 0.86212 0.90292 0.0
H960 H 0.51375 0.89651 0.84488 0.0
H961 H 0.48051 0.89332 0.87439 0.0
H962 H 0.45251 0.84927 0.81028 0.0
H963 H 0.48564 0.85287 0.7804 0.0
C964 C 0.40764 0.85568 0.87465 0.0
C965 C 0.41286 0.85018 0.90366 0.0
C966 C 0.42407 0.86316 0.8556 0.0
C967 C 0.44589 0.86546 0.86539 0.0
C968 C 0.45077 0.86084 0.89477 0.0
C969 C 0.43447 0.85327 0.91365 0.0
C970 C 0.50033 0.88647 0.83683 0.0
C971 C 0.50238 0.87467 0.81058 0.0
C972 C 0.48133 0.8846 0.85376 0.0
C973 C 0.46403 0.8708 0.84487 0.0
C974 C 0.46549 0.86015 0.81764 0.0
C975 C 0.48451 0.86209 0.80061 0.0
H976 H 0.83882 0.22871 0.88871 0.0
H977 H 0.88288 0.25742 0.95218 0.0
H978 H 0.84015 0.26264 0.86008 0.0
H979 H 0.88436 0.29119 0.9235 0.0
H980 H 0.87784 0.35328 0.87192 0.0
H981 H 0.86429 0.32346 0.9031 0.0
H982 H 0.87097 0.27793 0.83109 0.0
H983 H 0.88433 0.30759 0.80009 0.0
C984 C 0.84845 0.24241 0.89682 0.0
C985 C 0.86097 0.24036 0.92247 0.0
C986 C 0.84926 0.26179 0.88039 0.0
C987 C 0.86248 0.2795 0.88942 0.0
C988 C 0.87385 0.27792 0.91609 0.0
C989 C 0.87314 0.25851 0.93242 0.0
C990 C 0.87589 0.337 0.86263 0.0
C991 C 0.88233 0.33267 0.8337 0.0
C992 C 0.86825 0.31994 0.8805 0.0
C993 C 0.86672 0.29835 0.8696 0.0
C994 C 0.87176 0.29441 0.84008 0.0
C995 C 0.87956 0.31138 0.82235 0.0
H996 H 0.50259 0.09503 0.64911 0.0
H997 H 0.48149 0.14118 0.71534 0.0
H998 H 0.47042 0.10448 0.61955 0.0
H999 H 0.44945 0.15061 0.68576 0.0
H1000 H 0.42363 0.18601 0.60219 0.0
H1001 H 0.44994 0.17114 0.63703 0.0
H1002 H 0.4275 0.10526 0.61791 0.0
H1003 H 0.40074 0.12027 0.58293 0.0
C1004 C 0.49084 0.10682 0.65762 0.0
C1005 C 0.49466 0.11757 0.68434 0.0
C1006 C 0.47241 0.11215 0.64077 0.0
C1007 C 0.45765 0.12843 0.65028 0.0
C1008 C 0.46076 0.13816 0.67782 0.0
C1009 C 0.47904 0.13271 0.69476 0.0
C1010 C 0.42419 0.16836 0.6055 0.0
C1011 C 0.41021 0.15427 0.58983 0.0
C1012 C 0.43912 0.15987 0.62563 0.0
C1013 C 0.44061 0.13708 0.63028 0.0
C1014 C 0.42662 0.12291 0.61469 0.0
C1015 C 0.41134 0.13147 0.59479 0.0
H1016 H 0.58947 0.7538 0.44138 0.0
H1017 H 0.63867 0.76896 0.37618 0.0
H1018 H 0.58043 0.71988 0.41536 0.0
H1019 H 0.62966 0.7349 0.35026 0.0
H1020 H 0.61728 0.6617 0.32571 0.0
H1021 H 0.62972 0.69223 0.3568 0.0
H1022 H 0.56259 0.71472 0.36513 0.0
H1023 H 0.55026 0.68463 0.33406 0.0
C1024 C 0.5985 0.74976 0.42168 0.0
C1025 C 0.61462 0.76408 0.41062 0.0
C1026 C 0.59331 0.73039 0.4068 0.0
C1027 C 0.60432 0.72487 0.38081 0.0
C1028 C 0.62107 0.73873 0.37039 0.0
C1029 C 0.62609 0.75825 0.38509 0.0
C1030 C 0.60524 0.67311 0.33441 0.0
C1031 C 0.58285 0.67091 0.32744 0.0
C1032 C 0.61234 0.69055 0.35205 0.0
C1033 C 0.59708 0.70571 0.36338 0.0
C1034 C 0.57466 0.70311 0.35694 0.0
C1035 C 0.56764 0.68598 0.339 0.0
H1036 H 0.05184 0.8337 0.05835 0.0
H1037 H 0.1024 0.86499 0.11001 0.0
H1038 H 0.02363 0.85046 0.08892 0.0
H1039 H 0.07389 0.88162 0.14117 0.0
H1040 H 0.01189 0.87215 0.20716 0.0
H1041 H 0.04403 0.8642 0.1766 0.0
H1042 H 0.00973 0.88965 0.10126 0.0
H1043 H 0.97772 0.89773 0.13163 0.0
C1044 C 0.0569 0.84425 0.07621 0.0
C1045 C 0.07927 0.84802 0.0819 0.0
C1046 C 0.04076 0.85397 0.09355 0.0
C1047 C 0.04663 0.86741 0.11725 0.0
C1048 C 0.069 0.87132 0.12297 0.0
C1049 C 0.08524 0.86188 0.10517 0.0
C1050 C 0.01143 0.87652 0.18421 0.0
C1051 C 0.99223 0.88528 0.17168 0.0
C1052 C 0.02983 0.87206 0.1668 0.0
C1053 C 0.02918 0.87612 0.13659 0.0
C1054 C 0.01051 0.88619 0.12447 0.0
C1055 C 0.99224 0.89084 0.14188 0.0
H1056 H 0.62828 0.71116 0.86652 0.0
H1057 H 0.61222 0.74721 0.94513 0.0
H1058 H 0.62034 0.74374 0.83729 0.0
H1059 H 0.60411 0.77988 0.9157 0.0
H1060 H 0.60851 0.83904 0.85131 0.0
H1061 H 0.62143 0.80807 0.88125 0.0
H1062 H 0.58511 0.76304 0.82645 0.0
H1063 H 0.57234 0.79365 0.7968 0.0
C1064 C 0.6232 0.7261 0.87757 0.0
C1065 C 0.62067 0.7266 0.90807 0.0
C1066 C 0.6186 0.74472 0.86083 0.0
C1067 C 0.61146 0.76427 0.87422 0.0
C1068 C 0.60973 0.76506 0.90484 0.0
C1069 C 0.61423 0.74634 0.92163 0.0
C1070 C 0.60344 0.82249 0.84566 0.0
C1071 C 0.58944 0.81873 0.82176 0.0
C1072 C 0.61073 0.80483 0.86282 0.0
C1073 C 0.60435 0.78317 0.85605 0.0
C1074 C 0.59056 0.77951 0.83195 0.0
C1075 C 0.58314 0.79708 0.81507 0.0
H1076 H 0.48838 0.3571 0.20791 0.0
H1077 H 0.5153 0.40402 0.14665 0.0
H1078 H 0.45515 0.3542 0.17821 0.0
H1079 H 0.48191 0.40158 0.11737 0.0
H1080 H 0.43961 0.3605 0.05315 0.0
H1081 H 0.46838 0.37248 0.08625 0.0
H1082 H 0.42207 0.37182 0.15801 0.0
H1083 H 0.39313 0.35937 0.12461 0.0
C1084 C 0.48699 0.36713 0.18843 0.0
C1085 C 0.50454 0.38052 0.17933 0.0
C1086 C 0.46789 0.3656 0.17151 0.0
C1087 C 0.46599 0.3775 0.14526 0.0
C1088 C 0.48304 0.39191 0.1372 0.0
C1089 C 0.50214 0.39335 0.15401 0.0
C1090 C 0.43544 0.36327 0.07588 0.0
C1091 C 0.41418 0.35885 0.08635 0.0
C1092 C 0.45192 0.3703 0.09487 0.0
C1093 C 0.44755 0.37304 0.12482 0.0
C1094 C 0.42598 0.36963 0.13509 0.0
C1095 C 0.4094 0.36267 0.11597 0.0
H1096 H 0.8499 0.26115 0.39722 0.0
H1097 H 0.895 0.23307 0.45994 0.0
H1098 H 0.85656 0.23024 0.36438 0.0
H1099 H 0.90176 0.20218 0.42691 0.0
H1100 H 0.90072 0.14333 0.36453 0.0
H1101 H 0.88567 0.16946 0.40018 0.0
H1102 H 0.89056 0.2215 0.33618 0.0
H1103 H 0.9055 0.19558 0.30082 0.0
C1104 C 0.86092 0.24816 0.40423 0.0
C1105 C 0.87214 0.24964 0.43099 0.0
C1106 C 0.86479 0.23053 0.38537 0.0
C1107 C 0.87988 0.21396 0.39294 0.0
C1108 C 0.88996 0.21465 0.42057 0.0
C1109 C 0.88616 0.23238 0.43942 0.0
C1110 C 0.89828 0.1603 0.35805 0.0
C1111 C 0.90436 0.16748 0.32998 0.0
C1112 C 0.88976 0.17523 0.37845 0.0
C1113 C 0.8869 0.19749 0.37093 0.0
C1114 C 0.89229 0.20441 0.34251 0.0
C1115 C 0.901 0.18959 0.32231 0.0
H1116 H 0.05401 0.66114 0.55111 0.0
H1117 H 0.10493 0.64016 0.61078 0.0
H1118 H 0.0261 0.64614 0.58362 0.0
H1119 H 0.07674 0.62514 0.64366 0.0
H1120 H 0.01467 0.63714 0.70625 0.0
H1121 H 0.04641 0.64326 0.67441 0.0
H1122 H 0.01282 0.60998 0.60399 0.0
H1123 H 0.9811 0.60391 0.63569 0.0
C1124 C 0.05923 0.65312 0.57109 0.0
C1125 C 0.0816 0.65189 0.57853 0.0
C1126 C 0.04326 0.64438 0.58959 0.0
C1127 C 0.04929 0.63441 0.61609 0.0
C1128 C 0.0717 0.63278 0.62335 0.0
C1129 C 0.08777 0.6413 0.60456 0.0
C1130 C 0.01426 0.63075 0.68415 0.0
C1131 C 0.99533 0.62032 0.67331 0.0
C1132 C 0.03246 0.63415 0.666 0.0
C1133 C 0.03193 0.62728 0.63669 0.0
C1134 C 0.01352 0.61566 0.62642 0.0
C1135 C 0.99541 0.61215 0.64459 0.0
H1136 H 0.63054 0.26733 0.62244 0.0
H1137 H 0.60368 0.23465 0.54655 0.0
H1138 H 0.62226 0.23512 0.65215 0.0
H1139 H 0.5952 0.20234 0.57654 0.0
H1140 H 0.59838 0.14199 0.63878 0.0
H1141 H 0.61221 0.17183 0.60754 0.0
H1142 H 0.58641 0.21967 0.66846 0.0
H1143 H 0.57276 0.19017 0.69939 0.0
C1144 C 0.62302 0.25318 0.61205 0.0
C1145 C 0.61753 0.25357 0.58225 0.0
C1146 C 0.61825 0.23477 0.62909 0.0
C1147 C 0.60791 0.21633 0.6167 0.0
C1148 C 0.60329 0.2163 0.5866 0.0
C1149 C 0.60801 0.23481 0.56951 0.0
C1150 C 0.59586 0.15891 0.64549 0.0
C1151 C 0.5845 0.16379 0.67146 0.0
C1152 C 0.60366 0.17592 0.6276 0.0
C1153 C 0.60046 0.19803 0.63567 0.0
C1154 C 0.5894 0.2028 0.66187 0.0
C1155 C 0.58146 0.18589 0.6795 0.0
H1156 H -0.00133 0.35872 0.79816 0.0
H1157 H 0.96606 0.38439 0.87486 0.0
H1158 H 0.03216 0.35297 0.82667 0.0
H1159 H -0.00039 0.37927 0.90311 0.0
H1160 H 0.05037 0.33666 0.95078 0.0
H1161 H 0.01887 0.34786 0.9219 0.0
H1162 H 0.06235 0.37048 0.85338 0.0
H1163 H 0.09415 0.35868 0.88233 0.0
C1164 C -0.00124 0.36337 0.82101 0.0
C1165 C 0.9797 0.37175 0.8344 0.0
C1166 C 0.01798 0.36025 0.83729 0.0
C1167 C 0.01851 0.36553 0.86722 0.0
C1168 C -0.00037 0.37466 0.88024 0.0
C1169 C 0.98043 0.37766 0.86404 0.0
C1170 C 0.05328 0.34423 0.92968 0.0
C1171 C 0.07473 0.34673 0.91876 0.0
C1172 C 0.03518 0.35079 0.91317 0.0
C1173 C 0.03806 0.3601 0.88532 0.0
C1174 C 0.05958 0.36316 0.87465 0.0
C1175 C 0.07778 0.35657 0.89127 0.0
H1176 H 0.86681 0.72436 0.12122 0.0
H1177 H 0.88469 0.7602 0.04314 0.0
H1178 H 0.87346 0.75719 0.15052 0.0
H1179 H 0.8914 0.79314 0.07265 0.0
H1180 H 0.88603 0.85229 0.13682 0.0
H1181 H 0.87281 0.82132 0.1071 0.0
H1182 H 0.90936 0.77623 0.16155 0.0
H1183 H 0.92254 0.80685 0.1909 0.0
C1184 C 0.87192 0.73932 0.11028 0.0
C1185 C 0.87548 0.73968 0.07995 0.0
C1186 C 0.87575 0.75808 0.12706 0.0
C1187 C 0.88309 0.77761 0.11384 0.0
C1188 C 0.88562 0.77831 0.08333 0.0
C1189 C 0.88192 0.75945 0.06651 0.0
C1190 C 0.89105 0.83572 0.14247 0.0
C1191 C 0.90532 0.83193 0.16607 0.0
C1192 C 0.88358 0.81807 0.12545 0.0
C1193 C 0.89 0.79643 0.13217 0.0
C1194 C 0.90392 0.79271 0.15612 0.0
C1195 C 0.91157 0.81027 0.1728 0.0
H1196 H 0.44524 0.65846 0.43819 0.0
H1197 H 0.39189 0.64048 0.38063 0.0
H1198 H 0.47154 0.64216 0.40435 0.0
H1199 H 0.41845 0.62425 0.34635 0.0
H1200 H 0.48052 0.63489 0.28195 0.0
H1201 H 0.44934 0.64154 0.31464 0.0
H1202 H 0.48206 0.60499 0.38286 0.0
H1203 H 0.51315 0.59831 0.35034 0.0
C1204 C 0.43914 0.65082 0.4184 0.0
C1205 C 0.41657 0.65079 0.41195 0.0
C1206 C 0.45417 0.64134 0.39913 0.0
C1207 C 0.44699 0.63187 0.3728 0.0
C1208 C 0.42437 0.63147 0.36651 0.0
C1209 C 0.40923 0.64067 0.38611 0.0
C1210 C 0.48078 0.62779 0.30366 0.0
C1211 C 0.49938 0.61636 0.31374 0.0
C1212 C 0.46291 0.63154 0.32232 0.0
C1213 C 0.46347 0.62402 0.35135 0.0
C1214 C 0.48137 0.6112 0.36068 0.0
C1215 C 0.49912 0.60733 0.34201 0.0
H1216 H 0.44631 0.18684 0.15592 0.0
H1217 H 0.37978 0.16213 0.16143 0.0
H1218 H 0.43403 0.21613 0.12348 0.0
H1219 H 0.36739 0.19179 0.12891 0.0
H1220 H 0.35614 0.26742 0.10652 0.0
H1221 H 0.36552 0.23409 0.13376 0.0
H1222 H 0.41789 0.22045 0.07252 0.0
H1223 H 0.4085 0.2537 0.0452 0.0
C1224 C 0.42905 0.18763 0.15008 0.0
C1225 C 0.41396 0.17228 0.16124 0.0
C1226 C 0.42207 0.20431 0.13134 0.0
C1227 C 0.39979 0.20615 0.12364 0.0
C1228 C 0.38466 0.19072 0.13462 0.0
C1229 C 0.39173 0.17377 0.1531 0.0
C1230 C 0.36949 0.25715 0.0987 0.0
C1231 C 0.38173 0.26322 0.07391 0.0
C1232 C 0.37475 0.23804 0.11417 0.0
C1233 C 0.39248 0.22481 0.10528 0.0
C1234 C 0.40425 0.2305 0.07995 0.0
C1235 C 0.39885 0.24947 0.0643 0.0
H1236 H 0.48601 0.58394 0.84565 0.0
H1237 H 0.51504 0.63059 0.7857 0.0
H1238 H 0.51938 0.58481 0.87531 0.0
H1239 H 0.54823 0.63167 0.8155 0.0
H1240 H 0.60885 0.62636 0.86971 0.0
H1241 H 0.58055 0.61243 0.83645 0.0
H1242 H 0.53293 0.61478 0.90658 0.0
H1243 H 0.56109 0.62845 0.93962 0.0
C1244 C 0.49968 0.59404 0.8385 0.0
C1245 C 0.49783 0.60745 0.8136 0.0
C1246 C 0.51874 0.59458 0.85552 0.0
C1247 C 0.53633 0.60847 0.84791 0.0
C1248 C 0.53505 0.62065 0.82183 0.0
C1249 C 0.51597 0.62015 0.80485 0.0
C1250 C 0.59246 0.62333 0.87812 0.0
C1251 C 0.58707 0.62869 0.90712 0.0
C1252 C 0.57625 0.61549 0.85907 0.0
C1253 C 0.55448 0.61267 0.86883 0.0
C1254 C 0.54957 0.61655 0.89842 0.0
C1255 C 0.56568 0.62454 0.91733 0.0
H1256 H 0.09923 0.85408 0.62494 0.0
H1257 H 0.09175 0.80394 0.69113 0.0
H1258 H 0.11403 0.82636 0.59109 0.0
H1259 H 0.10644 0.77654 0.65769 0.0
H1260 H 0.14794 0.73427 0.60144 0.0
H1261 H 0.14114 0.76657 0.6317 0.0
H1262 H 0.09763 0.79267 0.56566 0.0
H1263 H 0.10458 0.76032 0.53512 0.0
C1264 C 0.10101 0.83724 0.63233 0.0
C1265 C 0.09429 0.8311 0.66057 0.0
C1266 C 0.10937 0.82141 0.61298 0.0
C1267 C 0.11146 0.79934 0.62182 0.0
C1268 C 0.10533 0.79347 0.65038 0.0
C1269 C 0.09676 0.80913 0.66947 0.0
C1270 C 0.13723 0.74706 0.59312 0.0
C1271 C 0.12654 0.74464 0.56611 0.0
C1272 C 0.13331 0.76553 0.61048 0.0
C1273 C 0.11865 0.78197 0.60118 0.0
C1274 C 0.10909 0.78028 0.57331 0.0
C1275 C 0.11298 0.76173 0.55591 0.0
H1276 H 0.92808 0.30572 0.40011 0.0
H1277 H 0.90305 0.37131 0.41506 0.0
H1278 H 0.95392 0.32003 0.3642 0.0
H1279 H 0.92952 0.38585 0.37914 0.0
H1280 H 0.00666 0.39473 0.35263 0.0
H1281 H 0.97321 0.38645 0.38028 0.0
H1282 H 0.95375 0.33982 0.314 0.0
H1283 H 0.98706 0.34815 0.2862 0.0
C1284 C 0.92803 0.32322 0.39551 0.0
C1285 C 0.9137 0.33746 0.4104 0.0
C1286 C 0.94268 0.33137 0.37479 0.0
C1287 C 0.94359 0.354 0.36884 0.0
C1288 C 0.92903 0.36831 0.38336 0.0
C1289 C 0.91394 0.36003 0.40378 0.0
C1290 C 0.99498 0.3831 0.34364 0.0
C1291 C -0.00043 0.37185 0.31749 0.0
C1292 C 0.97579 0.37849 0.35936 0.0
C1293 C 0.96106 0.3624 0.34931 0.0
C1294 C 0.96496 0.3522 0.32224 0.0
C1295 C 0.984 0.35699 0.30637 0.0
H1296 H 0.40274 0.80663 0.29675 0.0
H1297 H 0.38875 0.85554 0.36275 0.0
H1298 H 0.39018 0.77776 0.32959 0.0
H1299 H 0.37618 0.82638 0.39595 0.0
H1300 H 0.392 0.76232 0.45257 0.0
H1301 H 0.39633 0.79476 0.42148 0.0
H1302 H 0.35621 0.76406 0.35515 0.0
H1303 H 0.35191 0.73164 0.38612 0.0
C1304 C 0.39672 0.81122 0.3182 0.0
C1305 C 0.39679 0.83329 0.32728 0.0
C1306 C 0.38939 0.79469 0.33694 0.0
C1307 C 0.38219 0.79984 0.3653 0.0
C1308 C 0.38173 0.82199 0.37421 0.0
C1309 C 0.38881 0.83863 0.35522 0.0
C1310 C 0.38383 0.76267 0.43155 0.0
C1311 C 0.37184 0.74438 0.4216 0.0
C1312 C 0.38618 0.78128 0.41385 0.0
C1313 C 0.37673 0.78182 0.38585 0.0
C1314 C 0.36386 0.76396 0.37654 0.0
C1315 C 0.36137 0.74544 0.39428 0.0
H1316 H 0.03154 0.61285 0.12203 0.0
H1317 H -0.00109 0.6359 0.2002 0.0
H1318 H 0.99801 0.61899 0.0941 0.0
H1319 H 0.96534 0.64247 0.17202 0.0
H1320 H 0.9036 0.63766 0.11417 0.0
H1321 H 0.93521 0.62494 0.14297 0.0
H1322 H 0.97932 0.65249 0.07852 0.0
H1323 H 0.94808 0.66482 0.0499 0.0
C1324 C 0.01716 0.61916 0.13327 0.0
C1325 C 0.0179 0.62415 0.16321 0.0
C1326 C 0.99797 0.62271 0.11726 0.0
C1327 C 0.97911 0.6314 0.13081 0.0
C1328 C 0.97957 0.6356 0.16102 0.0
C1329 C -0.00119 0.632 0.1771 0.0
C1330 C 0.92008 0.64071 0.1061 0.0
C1331 C 0.9234 0.65224 0.07985 0.0
C1332 C 0.93813 0.63358 0.12263 0.0
C1333 C 0.95973 0.63768 0.11296 0.0
C1334 C 0.96291 0.64877 0.08636 0.0
C1335 C 0.94498 0.65597 0.07004 0.0
H1336 H 0.13312 0.26623 0.88355 0.0
H1337 H 0.11298 0.23841 0.96626 0.0
H1338 H 0.12781 0.23057 0.86009 0.0
H1339 H 0.10783 0.20266 0.94279 0.0
H1340 H 0.06765 0.15862 0.87807 0.0
H1341 H 0.08006 0.18986 0.90689 0.0
H1342 H 0.14086 0.19141 0.8579 0.0
H1343 H 0.1283 0.15996 0.82878 0.0
C1344 C 0.12782 0.25242 0.89678 0.0
C1345 C 0.12322 0.25513 0.92665 0.0
C1346 C 0.12498 0.23196 0.88339 0.0
C1347 C 0.11737 0.21386 0.89961 0.0
C1348 C 0.11354 0.21639 0.92973 0.0
C1349 C 0.11651 0.23683 0.94315 0.0
C1350 C 0.08383 0.16538 0.87376 0.0
C1351 C 0.09696 0.157 0.85108 0.0
C1352 C 0.091 0.18319 0.8904 0.0
C1353 C 0.11139 0.19312 0.88456 0.0
C1354 C 0.12498 0.18416 0.86268 0.0
C1355 C 0.11786 0.16612 0.84616 0.0
H1356 H 0.55311 0.34284 0.54925 0.0
H1357 H 0.59905 0.35431 0.6196 0.0
H1358 H 0.52323 0.3566 0.57951 0.0
H1359 H 0.56893 0.36832 0.6501 0.0
H1360 H 0.47492 0.39453 0.6327 0.0
H1361 H 0.50837 0.38946 0.60396 0.0
H1362 H 0.53635 0.35039 0.67353 0.0
H1363 H 0.50297 0.35571 0.70247 0.0
C1364 C 0.55687 0.34867 0.57107 0.0
C1365 C 0.57836 0.3474 0.58215 0.0
C1366 C 0.53976 0.35669 0.58836 0.0
C1367 C 0.54372 0.3635 0.61722 0.0
C1368 C 0.56539 0.36301 0.628 0.0
C1369 C 0.58262 0.35515 0.61052 0.0
C1370 C 0.48833 0.38511 0.64202 0.0
C1371 C 0.48625 0.3753 0.66969 0.0
C1372 C 0.50745 0.38217 0.62554 0.0
C1373 C 0.52491 0.36939 0.63639 0.0
C1374 C 0.52326 0.3605 0.66468 0.0
C1375 C 0.50409 0.3634 0.68117 0.0
H1376 H 0.11005 0.43683 0.26374 0.0
H1377 H 0.03988 0.44794 0.26475 0.0
H1378 H 0.11579 0.47445 0.24583 0.0
H1379 H 0.04549 0.48544 0.2483 0.0
H1380 H 0.05593 0.5418 0.19036 0.0
H1381 H 0.05532 0.50323 0.20441 0.0
H1382 H 0.11334 0.51322 0.25746 0.0
H1383 H 0.11451 0.55179 0.24192 0.0
C1384 C 0.09593 0.44746 0.26061 0.0
C1385 C 0.07452 0.43951 0.2653 0.0
C1386 C 0.09919 0.46895 0.25037 0.0
C1387 C 0.08107 0.4828 0.24498 0.0
C1388 C 0.05978 0.47501 0.25118 0.0
C1389 C 0.05655 0.45358 0.26093 0.0
C1390 C 0.0688 0.5356 0.20454 0.0
C1391 C 0.08515 0.54967 0.21529 0.0
C1392 C 0.06835 0.51358 0.21287 0.0
C1393 C 0.0839 0.50528 0.23278 0.0
C1394 C 0.10111 0.51908 0.24213 0.0
C1395 C 0.1018 0.54113 0.23326 0.0
H1396 H 0.79288 0.79555 0.52809 0.0
H1397 H 0.80611 0.86234 0.50103 0.0
H1398 H 0.75519 0.79897 0.51114 0.0
H1399 H 0.76829 0.8656 0.48288 0.0
H1400 H 0.69099 0.86559 0.47779 0.0
H1401 H 0.72905 0.86645 0.49548 0.0
H1402 H 0.7386 0.80007 0.46382 0.0
H1403 H 0.70063 0.79901 0.44734 0.0
C1404 C 0.78763 0.81103 0.51861 0.0
C1405 C 0.80238 0.82861 0.51561 0.0
C1406 C 0.76611 0.81294 0.50862 0.0
C1407 C 0.75892 0.83236 0.49493 0.0
C1408 C 0.77336 0.85041 0.49327 0.0
C1409 C 0.79496 0.84857 0.50366 0.0
C1410 C 0.70142 0.85137 0.47429 0.0
C1411 C 0.69291 0.83214 0.46156 0.0
C1412 C 0.72316 0.85184 0.4844 0.0
C1413 C 0.73666 0.83314 0.48168 0.0
C1414 C 0.72842 0.8145 0.46713 0.0
C1415 C 0.70674 0.81394 0.45742 0.0
H1416 H 0.43545 0.44233 0.7681 0.0
H1417 H 0.38889 0.44747 0.69711 0.0
H1418 H 0.42983 0.48099 0.7797 0.0
H1419 H 0.38326 0.48647 0.7088 0.0
H1420 H 0.41393 0.55847 0.71376 0.0
H1421 H 0.40862 0.51931 0.70474 0.0
H1422 H 0.40152 0.50812 0.7975 0.0
H1423 H 0.4069 0.54744 0.80658 0.0
C1424 C 0.42387 0.45172 0.75511 0.0
C1425 C 0.41276 0.442 0.73152 0.0
C1426 C 0.42047 0.47379 0.76198 0.0
C1427 C 0.40603 0.48668 0.74523 0.0
C1428 C 0.39451 0.47686 0.72201 0.0
C1429 C 0.39773 0.45462 0.71533 0.0
C1430 C 0.41077 0.54772 0.73218 0.0
C1431 C 0.41112 0.55589 0.7609 0.0
C1432 C 0.40758 0.52533 0.72698 0.0
C1433 C 0.40487 0.51069 0.75044 0.0
C1434 C 0.4038 0.51907 0.77906 0.0
C1435 C 0.40679 0.54154 0.78424 0.0
H1436 H 0.79737 0.15204 0.93369 0.0
H1437 H 0.81084 0.15932 0.02589 0.0
H1438 H 0.7581 0.14853 0.94447 0.0
H1439 H 0.77169 0.1559 0.03659 0.0
H1440 H 0.69903 0.13984 0.0472 0.0
H1441 H 0.73747 0.13218 0.03427 0.0
H1442 H 0.73293 0.17838 0.96276 0.0
H1443 H 0.69485 0.18603 0.97561 0.0
C1444 C 0.79199 0.15238 0.95627 0.0
C1445 C 0.80705 0.15626 0.97893 0.0
C1446 C 0.76955 0.15046 0.96241 0.0
C1447 C 0.76188 0.15218 0.99133 0.0
C1448 C 0.77715 0.15438 0.01414 0.0
C1449 C 0.79954 0.15649 0.00798 0.0
C1450 C 0.70626 0.14816 0.02858 0.0
C1451 C 0.6941 0.16368 0.01257 0.0
C1452 C 0.72818 0.14378 0.0212 0.0
C1453 C 0.7381 0.1546 0.99743 0.0
C1454 C 0.72562 0.16953 0.9809 0.0
C1455 C 0.7039 0.1741 0.98847 0.0
H1456 H 0.88419 0.44376 0.75212 0.0
H1457 H 0.93935 0.4537 0.80997 0.0
H1458 H 0.88517 0.4828 0.73866 0.0
H1459 H 0.93971 0.49265 0.79788 0.0
H1460 H 0.95741 0.54928 0.74051 0.0
H1461 H 0.95158 0.51155 0.75561 0.0
H1462 H 0.88116 0.52141 0.75196 0.0
H1463 H 0.88718 0.55942 0.73551 0.0
C1464 C 0.8961 0.45446 0.76254 0.0
C1465 C 0.91191 0.4458 0.78172 0.0
C1466 C 0.89666 0.47678 0.75488 0.0
C1467 C 0.91287 0.49074 0.76665 0.0
C1468 C 0.92749 0.48223 0.78764 0.0
C1469 C 0.92719 0.45997 0.79479 0.0
C1470 C 0.94066 0.54341 0.74281 0.0
C1471 C 0.92275 0.55729 0.73708 0.0
C1472 C 0.93729 0.52181 0.75176 0.0
C1473 C 0.91589 0.51357 0.75573 0.0
C1474 C 0.89785 0.52727 0.74916 0.0
C1475 C 0.90127 0.54898 0.73978 0.0
H1476 H 0.29499 0.15321 0.55822 0.0
H1477 H 0.30165 0.17697 0.46965 0.0
H1478 H 0.25538 0.14858 0.55071 0.0
H1479 H 0.26219 0.17229 0.46218 0.0
H1480 H 0.19156 0.14882 0.45284 0.0
H1481 H 0.2312 0.14401 0.46056 0.0
H1482 H 0.22598 0.17774 0.54339 0.0
H1483 H 0.18664 0.18263 0.53567 0.0
C1484 C 0.28804 0.15711 0.53705 0.0
C1485 C 0.30128 0.16567 0.51461 0.0
C1486 C 0.26543 0.1545 0.53279 0.0
C1487 C 0.25578 0.16015 0.5059 0.0
C1488 C 0.26924 0.16762 0.48302 0.0
C1489 C 0.29177 0.17046 0.48738 0.0
C1490 C 0.1989 0.15492 0.47282 0.0
C1491 C 0.18614 0.16626 0.49354 0.0
C1492 C 0.22151 0.15222 0.4772 0.0
C1493 C 0.23159 0.1605 0.50257 0.0
C1494 C 0.2186 0.17097 0.5238 0.0
C1495 C 0.19612 0.17393 0.51926 0.0
H1496 H 0.56793 0.55724 0.21229 0.0
H1497 H 0.59113 0.55193 0.30123 0.0
H1498 H 0.57387 0.51793 0.20528 0.0
H1499 H 0.59699 0.51236 0.29421 0.0
H1500 H 0.56426 0.44262 0.27867 0.0
H1501 H 0.56866 0.48202 0.28664 0.0
H1502 H 0.60297 0.48772 0.20428 0.0
H1503 H 0.59866 0.44805 0.19631 0.0
C1504 C 0.5746 0.54769 0.23021 0.0
C1505 C 0.57886 0.55754 0.2574 0.0
C1506 C 0.57817 0.52523 0.22611 0.0
C1507 C 0.58584 0.51213 0.24923 0.0
C1508 C 0.59096 0.52212 0.27609 0.0
C1509 C 0.58766 0.54471 0.28008 0.0
C1510 C 0.57301 0.45222 0.26244 0.0
C1511 C 0.58093 0.44237 0.23674 0.0
C1512 C 0.5757 0.47474 0.26714 0.0
C1513 C 0.58613 0.48789 0.24606 0.0
C1514 C 0.59478 0.47792 0.2208 0.0
C1515 C 0.59235 0.45527 0.21628 0.0
H1516 H 0.18564 0.82722 0.96204 0.0
H1517 H 0.19861 0.84529 0.0517 0.0
H1518 H 0.22465 0.83105 0.95055 0.0
H1519 H 0.23784 0.84891 0.04018 0.0
H1520 H 0.30259 0.81041 0.0138 0.0
H1521 H 0.26413 0.81717 0.02586 0.0
H1522 H 0.25762 0.85829 0.94938 0.0
H1523 H 0.29648 0.85175 0.9374 0.0
C1524 C 0.19681 0.83241 0.97915 0.0
C1525 C 0.18923 0.83573 0.00783 0.0
C1526 C 0.21908 0.83475 0.97251 0.0
C1527 C 0.23419 0.84014 0.99453 0.0
C1528 C 0.22646 0.84462 0.02289 0.0
C1529 C 0.20408 0.84262 0.02944 0.0
C1530 C 0.29301 0.82103 -0.00035 0.0
C1531 C 0.30239 0.83041 0.97452 0.0
C1532 C 0.27109 0.82509 0.00675 0.0
C1533 C 0.25802 0.83835 0.98864 0.0
C1534 C 0.26744 0.84803 0.96369 0.0
C1535 C 0.28957 0.84427 0.95684 0.0
H1536 H 0.56814 0.9349 0.71238 0.0
H1537 H 0.59338 0.94108 0.80022 0.0
H1538 H 0.57192 0.97447 0.70538 0.0
H1539 H 0.59703 0.98094 0.79324 0.0
H1540 H 0.55929 0.04853 0.77975 0.0
H1541 H 0.56648 0.00949 0.78716 0.0
H1542 H 0.59923 0.00638 0.70344 0.0
H1543 H 0.59214 0.04575 0.69605 0.0
C1544 C 0.57481 0.94472 0.73004 0.0
C1545 C 0.58025 0.93502 0.75695 0.0
C1546 C 0.57715 0.96733 0.72593 0.0
C1547 C 0.58471 0.98073 0.74879 0.0
C1548 C 0.59107 0.97093 0.77532 0.0
C1549 C 0.58904 0.94818 0.77929 0.0
C1550 C 0.56828 0.03959 0.76308 0.0
C1551 C 0.57496 0.05006 0.73718 0.0
C1552 C 0.57258 0.0173 0.76746 0.0
C1553 C 0.58342 0.00495 0.74588 0.0
C1554 C 0.59079 0.01557 0.72037 0.0
C1555 C 0.58675 0.03802 0.71616 0.0
H1556 H 0.30453 0.36582 0.01175 0.0
H1557 H 0.29707 0.29581 0.02463 0.0
H1558 H 0.2666 0.36794 0.99373 0.0
H1559 H 0.25929 0.29795 0.00781 0.0
H1560 H 0.20302 0.30031 0.94778 0.0
H1561 H 0.24145 0.30305 0.96199 0.0
H1562 H 0.22774 0.36426 0.00668 0.0
H1563 H 0.18921 0.36188 0.99118 0.0
C1564 C 0.29464 0.351 0.01122 0.0
C1565 C 0.30373 0.33062 0.01931 0.0
C1566 C 0.27297 0.35219 0.00089 0.0
C1567 C 0.26008 0.33303 -0.0013 0.0
C1568 C 0.26897 0.31291 0.00827 0.0
C1569 C 0.29056 0.3117 0.01822 0.0
C1570 C 0.20833 0.31458 0.96012 0.0
C1571 C 0.19321 0.33078 0.96862 0.0
C1572 C 0.23028 0.31606 0.96855 0.0
C1573 C 0.23753 0.33355 0.98621 0.0
C1574 C 0.22267 0.35056 0.99313 0.0
C1575 C 0.20065 0.34923 0.98425 0.0
H1576 H 0.89721 0.05768 0.29046 0.0
H1577 H 0.93629 0.06099 0.21167 0.0
H1578 H 0.89008 0.01858 0.28115 0.0
H1579 H 0.92899 0.02217 0.20227 0.0
H1580 H 0.90274 0.954 0.18485 0.0
H1581 H 0.89836 0.99379 0.192 0.0
H1582 H 0.91799 0.9867 0.2822 0.0
H1583 H 0.92261 0.94722 0.27502 0.0
C1584 C 0.90391 0.05015 0.27092 0.0
C1585 C 0.9175 0.06221 0.25195 0.0
C1586 C 0.89985 0.02784 0.26561 0.0
C1587 C 0.90899 0.01743 0.241 0.0
C1588 C 0.92155 0.02985 0.22122 0.0
C1589 C 0.92589 0.052 0.22676 0.0
C1590 C 0.90568 0.96095 0.2063 0.0
C1591 C 0.91324 0.94768 0.22931 0.0
C1592 C 0.90322 0.98365 0.21036 0.0
C1593 C 0.90788 0.99325 0.23763 0.0
C1594 C 0.91409 0.9797 0.26105 0.0
C1595 C 0.9169 0.95715 0.25687 0.0
H1596 H 0.30878 0.68586 0.52833 0.0
H1597 H 0.30199 0.65154 0.44613 0.0
H1598 H 0.26946 0.68133 0.53753 0.0
H1599 H 0.26245 0.64731 0.45521 0.0
H1600 H 0.19306 0.68277 0.46626 0.0
H1601 H 0.23247 0.67806 0.45815 0.0
H1602 H 0.23942 0.65101 0.54492 0.0
H1603 H 0.19974 0.65541 0.55295 0.0
C1604 C 0.2989 0.67712 0.51241 0.0
C1605 C 0.30831 0.6692 0.48642 0.0
C1606 C 0.27647 0.6744 0.51778 0.0
C1607 C 0.26301 0.66401 0.49704 0.0
C1608 C 0.27254 0.65543 0.47147 0.0
C1609 C 0.29509 0.65781 0.46632 0.0
C1610 C 0.20295 0.67557 0.48347 0.0
C1611 C 0.19345 0.6696 0.5103 0.0
C1612 C 0.22544 0.67271 0.47874 0.0
C1613 C 0.23889 0.66416 0.50092 0.0
C1614 C 0.22933 0.65767 0.52752 0.0
C1615 C 0.20671 0.66016 0.53208 0.0
H1616 H 0.42627 0.06013 0.27867 0.0
H1617 H 0.40409 0.05435 0.18931 0.0
H1618 H 0.41906 0.02112 0.2864 0.0
H1619 H 0.39693 0.01509 0.19708 0.0
H1620 H 0.42873 0.94518 0.21464 0.0
H1621 H 0.42466 0.98448 0.20577 0.0
H1622 H 0.38945 0.9914 0.28731 0.0
H1623 H 0.39343 0.95177 0.29617 0.0
C1624 C 0.41954 0.05056 0.2608 0.0
C1625 C 0.41598 0.06014 0.23328 0.0
C1626 C 0.41523 0.02828 0.26532 0.0
C1627 C 0.4075 0.01512 0.24231 0.0
C1628 C 0.403 0.02491 0.21512 0.0
C1629 C 0.40706 0.04732 0.2107 0.0
C1630 C 0.41984 0.95503 0.23048 0.0
C1631 C 0.4116 0.94555 0.25625 0.0
C1632 C 0.41733 0.97748 0.22526 0.0
C1633 C 0.40676 0.99094 0.24587 0.0
C1634 C 0.39773 0.98133 0.27114 0.0
C1635 C 0.39998 0.95873 0.27618 0.0
H1636 H 0.81049 0.63392 0.00561 0.0
H1637 H 0.79504 0.69787 0.04131 0.0
H1638 H 0.77237 0.6302 0.98862 0.0
H1639 H 0.75713 0.69394 0.02544 0.0
H1640 H 0.70305 0.69657 0.96016 0.0
H1641 H 0.74073 0.69561 0.97766 0.0
H1642 H 0.7329 0.62727 0.00175 0.0
H1643 H 0.69503 0.62811 0.98324 0.0
C1644 C 0.7988 0.64688 0.01046 0.0
C1645 C 0.80567 0.6663 0.02439 0.0
C1646 C 0.77703 0.64478 0.00073 0.0
C1647 C 0.7619 0.66203 0.00503 0.0
C1648 C 0.76855 0.68067 0.02093 0.0
C1649 C 0.79021 0.68285 0.03027 0.0
C1650 C 0.70942 0.68127 0.96889 0.0
C1651 C 0.6961 0.66248 0.97058 0.0
C1652 C 0.73096 0.68075 0.97918 0.0
C1653 C 0.73963 0.66151 0.99178 0.0
C1654 C 0.72665 0.64235 0.99223 0.0
C1655 C 0.70502 0.64282 0.98164 0.0
H1656 H 0.10248 0.05338 0.73691 0.0
H1657 H 0.0863 0.03872 0.8268 0.0
H1658 H 0.10434 0.01419 0.72611 0.0
H1659 H 0.08858 -0.00059 0.81609 0.0
H1660 H 0.05281 0.94137 0.77062 0.0
H1661 H 0.06202 0.97814 0.78712 0.0
H1662 H 0.1208 0.97716 0.73389 0.0
H1663 H 0.11138 0.93998 0.71703 0.0
C1664 C 0.09996 0.04177 0.75456 0.0
C1665 C 0.09382 0.04906 0.78256 0.0
C1666 C 0.10115 0.0193 0.74839 0.0
C1667 C 0.09622 0.00375 0.77013 0.0
C1668 C 0.09206 0.01107 0.79878 0.0
C1669 C 0.09087 0.03356 0.80495 0.0
C1670 C 0.06779 0.94889 0.76252 0.0
C1671 C 0.08129 0.9379 0.74233 0.0
C1672 C 0.07322 0.96989 0.77228 0.0
C1673 C 0.09225 0.98047 0.76202 0.0
C1674 C 0.10601 0.96937 0.74214 0.0
C1675 C 0.10063 0.94816 0.73249 0.0
H1676 H 0.69793 0.28223 0.52239 0.0
H1677 H 0.69506 0.35296 0.53155 0.0
H1678 H 0.73738 0.28432 0.51399 0.0
H1679 H 0.73493 0.35505 0.52299 0.0
H1680 H 0.80086 0.34486 0.46761 0.0
H1681 H 0.7616 0.3466 0.48005 0.0
H1682 H 0.77074 0.29469 0.54334 0.0
H1683 H 0.80963 0.29285 0.531 0.0
C1684 C 0.70577 0.29824 0.52275 0.0
C1685 C 0.69346 0.31743 0.52769 0.0
C1686 C 0.72838 0.29942 0.51807 0.0
C1687 C 0.73919 0.31984 0.51797 0.0
C1688 C 0.72693 0.33912 0.52286 0.0
C1689 C 0.70422 0.33791 0.52792 0.0
C1690 C 0.79446 0.33399 0.48434 0.0
C1691 C 0.80822 0.31856 0.4981 0.0
C1692 C 0.77208 0.33508 0.49156 0.0
C1693 C 0.76317 0.32065 0.51247 0.0
C1694 C 0.77714 0.30579 0.52687 0.0
C1695 C 0.79941 0.30479 0.51981 0.0
loop_
_geom_bond_atom_site_label_1
_geom_bond_atom_site_label_2
_geom_bond_distance
_geom_bond_site_symmetry_2
_ccdc_geom_bond_type
In0 O1 2.294 . S
In0 O2 2.326 . S
In0 O6 2.266 . S
In0 O7 2.326 . S
In0 O8 2.266 . S
In0 O9 2.326 . S
In0 O11 2.294 . S
In0 O12 2.326 . S
O1 In0 2.294 . S
O1 C10 1.240 . S
O2 In0 2.326 . S
O2 C10 1.252 . S
C3 O6 1.252 . S
C3 O7 1.260 . S
C4 O11 1.240 . S
C4 O12 1.252 . S
C5 O8 1.252 . S
C5 O9 1.260 . S
O6 In0 2.266 . S
O6 C3 1.252 . S
O7 In0 2.326 . S
O7 C3 1.260 . S
O8 In0 2.266 . S
O8 C5 1.252 . S
O9 In0 2.326 . S
O9 C5 1.260 . S
C10 O1 1.240 . S
C10 O2 1.252 . S
O11 In0 2.294 . S
O11 C4 1.240 . S
O12 In0 2.326 . S
O12 C4 1.252 . S
In13 O14 2.294 . S
In13 O15 2.326 . S
In13 O19 2.266 . S
In13 O20 2.326 . S
In13 O21 2.266 . S
In13 O22 2.326 . S
In13 O24 2.294 . S
In13 O25 2.326 . S
O14 In13 2.294 . S
O14 C23 1.240 . S
O15 In13 2.326 . S
O15 C23 1.252 . S
C16 O19 1.252 . S
C16 O20 1.260 . S
C17 O24 1.240 . S
C17 O25 1.252 . S
C18 O21 1.252 . S
C18 O22 1.260 . S
O19 In13 2.266 . S
O19 C16 1.252 . S
O20 In13 2.326 . S
O20 C16 1.260 . S
O21 In13 2.266 . S
O21 C18 1.252 . S
O22 In13 2.326 . S
O22 C18 1.260 . S
C23 O14 1.240 . S
C23 O15 1.252 . S
O24 In13 2.294 . S
O24 C17 1.240 . S
O25 In13 2.326 . S
O25 C17 1.252 . S
In26 O27 2.294 . S
In26 O28 2.326 . S
In26 O32 2.266 . S
In26 O33 2.326 . S
In26 O34 2.266 . S
In26 O35 2.326 . S
In26 O37 2.294 . S
In26 O38 2.326 . S
O27 In26 2.294 . S
O27 C36 1.240 . S
O28 In26 2.326 . S
O28 C36 1.252 . S
C29 O32 1.252 . S
C29 O33 1.260 . S
C30 O37 1.240 . S
C30 O38 1.252 . S
C31 O34 1.252 . S
C31 O35 1.260 . S
O32 In26 2.266 . S
O32 C29 1.252 . S
O33 In26 2.326 . S
O33 C29 1.260 . S
O34 In26 2.266 . S
O34 C31 1.252 . S
O35 In26 2.326 . S
O35 C31 1.260 . S
C36 O27 1.240 . S
C36 O28 1.252 . S
O37 In26 2.294 . S
O37 C30 1.240 . S
O38 In26 2.326 . S
O38 C30 1.252 . S
In39 O40 2.294 . S
In39 O41 2.326 . S
In39 O45 2.266 . S
In39 O46 2.326 . S
In39 O47 2.266 . S
In39 O48 2.326 . S
In39 O50 2.294 1_554 S
In39 O51 2.326 . S
O40 In39 2.294 . S
O40 C49 1.240 . S
O41 In39 2.326 . S
O41 C49 1.252 . S
C42 O45 1.252 . S
C42 O46 1.260 . S
C43 O50 1.240 . S
C43 O51 1.252 1_556 S
C44 O47 1.252 . S
C44 O48 1.260 . S
O45 In39 2.266 . S
O45 C42 1.252 . S
O46 In39 2.326 . S
O46 C42 1.260 . S
O47 In39 2.266 . S
O47 C44 1.252 . S
O48 In39 2.326 . S
O48 C44 1.260 . S
C49 O40 1.240 . S
C49 O41 1.252 . S
O50 In39 2.294 1_556 S
O50 C43 1.240 . S
O51 In39 2.326 . S
O51 C43 1.252 1_554 S
In52 O53 2.294 . S
In52 O54 2.326 . S
In52 O58 2.266 . S
In52 O59 2.326 . S
In52 O60 2.266 . S
In52 O61 2.326 . S
In52 O63 2.294 . S
In52 O64 2.326 . S
O53 In52 2.294 . S
O53 C62 1.240 . S
O54 In52 2.326 . S
O54 C62 1.252 . S
C55 O58 1.252 . S
C55 O59 1.260 . S
C56 O63 1.240 . S
C56 O64 1.252 . S
C57 O60 1.252 . S
C57 O61 1.260 . S
O58 In52 2.266 . S
O58 C55 1.252 . S
O59 In52 2.326 . S
O59 C55 1.260 . S
O60 In52 2.266 . S
O60 C57 1.252 . S
O61 In52 2.326 . S
O61 C57 1.260 . S
C62 O53 1.240 . S
C62 O54 1.252 . S
O63 In52 2.294 . S
O63 C56 1.240 . S
O64 In52 2.326 . S
O64 C56 1.252 . S
In65 O66 2.294 . S
In65 O67 2.326 . S
In65 O71 2.266 . S
In65 O72 2.326 . S
In65 O73 2.266 . S
In65 O74 2.326 . S
In65 O76 2.294 . S
In65 O77 2.326 . S
O66 In65 2.294 . S
O66 C75 1.240 . S
O67 In65 2.326 . S
O67 C75 1.252 . S
C68 O71 1.252 . S
C68 O72 1.260 . S
C69 O76 1.240 . S
C69 O77 1.252 . S
C70 O73 1.252 . S
C70 O74 1.260 . S
O71 In65 2.266 . S
O71 C68 1.252 . S
O72 In65 2.326 . S
O72 C68 1.260 . S
O73 In65 2.266 . S
O73 C70 1.252 . S
O74 In65 2.326 . S
O74 C70 1.260 . S
C75 O66 1.240 . S
C75 O67 1.252 . S
O76 In65 2.294 . S
O76 C69 1.240 . S
O77 In65 2.326 . S
O77 C69 1.252 . S
In78 O79 2.294 . S
In78 O80 2.326 . S
In78 O84 2.266 . S
In78 O85 2.326 . S
In78 O86 2.266 . S
In78 O87 2.326 . S
In78 O89 2.294 . S
In78 O90 2.326 . S
O79 In78 2.294 . S
O79 C88 1.240 . S
O80 In78 2.326 . S
O80 C88 1.252 . S
C81 O84 1.252 . S
C81 O85 1.260 . S
C82 O89 1.240 . S
C82 O90 1.252 . S
C83 O86 1.252 . S
C83 O87 1.260 . S
O84 In78 2.266 . S
O84 C81 1.252 . S
O85 In78 2.326 . S
O85 C81 1.260 . S
O86 In78 2.266 . S
O86 C83 1.252 . S
O87 In78 2.326 . S
O87 C83 1.260 . S
C88 O79 1.240 . S
C88 O80 1.252 . S
O89 In78 2.294 . S
O89 C82 1.240 . S
O90 In78 2.326 . S
O90 C82 1.252 . S
In91 O92 2.294 1_556 S
In91 O93 2.326 . S
In91 O97 2.266 . S
In91 O98 2.326 . S
In91 O99 2.266 . S
In91 O100 2.326 . S
In91 O102 2.294 . S
In91 O103 2.326 . S
O92 In91 2.294 1_554 S
O92 C101 1.240 . S
O93 In91 2.326 . S
O93 C101 1.252 1_556 S
C94 O97 1.252 . S
C94 O98 1.260 . S
C95 O102 1.240 . S
C95 O103 1.252 . S
C96 O99 1.252 . S
C96 O100 1.260 . S
O97 In91 2.266 . S
O97 C94 1.252 . S
O98 In91 2.326 . S
O98 C94 1.260 . S
O99 In91 2.266 . S
O99 C96 1.252 . S
O100 In91 2.326 . S
O100 C96 1.260 . S
C101 O92 1.240 . S
C101 O93 1.252 1_554 S
O102 In91 2.294 . S
O102 C95 1.240 . S
O103 In91 2.326 . S
O103 C95 1.252 . S
In104 O105 2.294 . S
In104 O106 2.326 . S
In104 O110 2.266 . S
In104 O111 2.326 . S
In104 O112 2.266 . S
In104 O113 2.326 . S
In104 O115 2.294 . S
In104 O116 2.326 . S
O105 In104 2.294 . S
O105 C114 1.240 . S
O106 In104 2.326 . S
O106 C114 1.252 . S
C107 O110 1.252 . S
C107 O111 1.260 . S
C108 O115 1.240 . S
C108 O116 1.252 . S
C109 O112 1.252 . S
C109 O113 1.260 . S
O110 In104 2.266 . S
O110 C107 1.252 . S
O111 In104 2.326 . S
O111 C107 1.260 . S
O112 In104 2.266 . S
O112 C109 1.252 . S
O113 In104 2.326 . S
O113 C109 1.260 . S
C114 O105 1.240 . S
C114 O106 1.252 . S
O115 In104 2.294 . S
O115 C108 1.240 . S
O116 In104 2.326 . S
O116 C108 1.252 . S
In117 O118 2.294 . S
In117 O119 2.326 . S
In117 O123 2.266 . S
In117 O124 2.326 . S
In117 O125 2.266 . S
In117 O126 2.326 . S
In117 O128 2.294 . S
In117 O129 2.326 . S
O118 In117 2.294 . S
O118 C127 1.240 . S
O119 In117 2.326 . S
O119 C127 1.252 . S
C120 O123 1.252 . S
C120 O124 1.260 . S
C121 O128 1.240 . S
C121 O129 1.252 . S
C122 O125 1.252 . S
C122 O126 1.260 . S
O123 In117 2.266 . S
O123 C120 1.252 . S
O124 In117 2.326 . S
O124 C120 1.260 . S
O125 In117 2.266 . S
O125 C122 1.252 . S
O126 In117 2.326 . S
O126 C122 1.260 . S
C127 O118 1.240 . S
C127 O119 1.252 . S
O128 In117 2.294 . S
O128 C121 1.240 . S
O129 In117 2.326 . S
O129 C121 1.252 . S
In130 O131 2.294 . S
In130 O132 2.326 . S
In130 O136 2.266 . S
In130 O137 2.326 . S
In130 O138 2.266 . S
In130 O139 2.326 . S
In130 O141 2.294 . S
In130 O142 2.326 . S
O131 In130 2.294 . S
O131 C140 1.240 . S
O132 In130 2.326 . S
O132 C140 1.252 . S
C133 O136 1.252 . S
C133 O137 1.260 . S
C134 O141 1.240 . S
C134 O142 1.252 . S
C135 O138 1.252 . S
C135 O139 1.260 . S
O136 In130 2.266 . S
O136 C133 1.252 . S
O137 In130 2.326 . S
O137 C133 1.260 . S
O138 In130 2.266 . S
O138 C135 1.252 . S
O139 In130 2.326 . S
O139 C135 1.260 . S
C140 O131 1.240 . S
C140 O132 1.252 . S
O141 In130 2.294 . S
O141 C134 1.240 . S
O142 In130 2.326 . S
O142 C134 1.252 . S
In143 O144 2.294 1_556 S
In143 O145 2.326 . S
In143 O149 2.266 . S
In143 O150 2.326 . S
In143 O151 2.266 . S
In143 O152 2.326 . S
In143 O154 2.294 . S
In143 O155 2.326 . S
O144 In143 2.294 1_554 S
O144 C153 1.240 . S
O145 In143 2.326 . S
O145 C153 1.252 1_556 S
C146 O149 1.252 . S
C146 O150 1.260 . S
C147 O154 1.240 . S
C147 O155 1.252 . S
C148 O151 1.252 . S
C148 O152 1.260 . S
O149 In143 2.266 . S
O149 C146 1.252 . S
O150 In143 2.326 . S
O150 C146 1.260 . S
O151 In143 2.266 . S
O151 C148 1.252 . S
O152 In143 2.326 . S
O152 C148 1.260 . S
C153 O144 1.240 . S
C153 O145 1.252 1_554 S
O154 In143 2.294 . S
O154 C147 1.240 . S
O155 In143 2.326 . S
O155 C147 1.252 . S
In156 O157 2.294 . S
In156 O158 2.326 . S
In156 O162 2.266 . S
In156 O163 2.326 . S
In156 O164 2.266 . S
In156 O165 2.326 . S
In156 O167 2.294 . S
In156 O168 2.326 . S
O157 In156 2.294 . S
O157 C166 1.240 . S
O158 In156 2.326 . S
O158 C166 1.252 . S
C159 O162 1.252 . S
C159 O163 1.260 . S
C160 O167 1.240 . S
C160 O168 1.252 . S
C161 O164 1.252 . S
C161 O165 1.260 . S
O162 In156 2.266 . S
O162 C159 1.252 . S
O163 In156 2.326 . S
O163 C159 1.260 . S
O164 In156 2.266 . S
O164 C161 1.252 . S
O165 In156 2.326 . S
O165 C161 1.260 . S
C166 O157 1.240 . S
C166 O158 1.252 . S
O167 In156 2.294 . S
O167 C160 1.240 . S
O168 In156 2.326 . S
O168 C160 1.252 . S
In169 O170 2.294 . S
In169 O171 2.326 . S
In169 O175 2.266 . S
In169 O176 2.326 . S
In169 O177 2.266 . S
In169 O178 2.326 . S
In169 O180 2.294 . S
In169 O181 2.326 . S
O170 In169 2.294 . S
O170 C179 1.240 . S
O171 In169 2.326 . S
O171 C179 1.252 . S
C172 O175 1.252 . S
C172 O176 1.260 . S
C173 O180 1.240 . S
C173 O181 1.252 . S
C174 O177 1.252 . S
C174 O178 1.260 . S
O175 In169 2.266 . S
O175 C172 1.252 . S
O176 In169 2.326 . S
O176 C172 1.260 . S
O177 In169 2.266 . S
O177 C174 1.252 . S
O178 In169 2.326 . S
O178 C174 1.260 . S
C179 O170 1.240 . S
C179 O171 1.252 . S
O180 In169 2.294 . S
O180 C173 1.240 . S
O181 In169 2.326 . S
O181 C173 1.252 . S
In182 O183 2.294 . S
In182 O184 2.326 . S
In182 O188 2.266 . S
In182 O189 2.326 . S
In182 O190 2.266 . S
In182 O191 2.326 . S
In182 O193 2.294 . S
In182 O194 2.326 . S
O183 In182 2.294 . S
O183 C192 1.240 . S
O184 In182 2.326 . S
O184 C192 1.252 . S
C185 O188 1.252 . S
C185 O189 1.260 . S
C186 O193 1.240 . S
C186 O194 1.252 . S
C187 O190 1.252 . S
C187 O191 1.260 . S
O188 In182 2.266 . S
O188 C185 1.252 . S
O189 In182 2.326 . S
O189 C185 1.260 . S
O190 In182 2.266 . S
O190 C187 1.252 . S
O191 In182 2.326 . S
O191 C187 1.260 . S
C192 O183 1.240 . S
C192 O184 1.252 . S
O193 In182 2.294 . S
O193 C186 1.240 . S
O194 In182 2.326 . S
O194 C186 1.252 . S
In195 O196 2.294 1_554 S
In195 O197 2.326 . S
In195 O201 2.266 . S
In195 O202 2.326 . S
In195 O203 2.266 . S
In195 O204 2.326 . S
In195 O206 2.294 . S
In195 O207 2.326 . S
O196 In195 2.294 1_556 S
O196 C205 1.240 . S
O197 In195 2.326 . S
O197 C205 1.252 1_554 S
C198 O201 1.252 . S
C198 O202 1.260 . S
C199 O206 1.240 . S
C199 O207 1.252 . S
C200 O203 1.252 . S
C200 O204 1.260 . S
O201 In195 2.266 . S
O201 C198 1.252 . S
O202 In195 2.326 . S
O202 C198 1.260 . S
O203 In195 2.266 . S
O203 C200 1.252 . S
O204 In195 2.326 . S
O204 C200 1.260 . S
C205 O196 1.240 . S
C205 O197 1.252 1_556 S
O206 In195 2.294 . S
O206 C199 1.240 . S
O207 In195 2.326 . S
O207 C199 1.252 . S
In208 O209 2.294 . S
In208 O210 2.326 . S
In208 O214 2.266 . S
In208 O215 2.326 . S
In208 O216 2.266 . S
In208 O217 2.326 . S
In208 O219 2.294 . S
In208 O220 2.326 . S
O209 In208 2.294 . S
O209 C218 1.240 . S
O210 In208 2.326 . S
O210 C218 1.252 . S
C211 O214 1.252 . S
C211 O215 1.260 . S
C212 O219 1.240 . S
C212 O220 1.252 . S
C213 O216 1.252 . S
C213 O217 1.260 . S
O214 In208 2.266 . S
O214 C211 1.252 . S
O215 In208 2.326 . S
O215 C211 1.260 . S
O216 In208 2.266 . S
O216 C213 1.252 . S
O217 In208 2.326 . S
O217 C213 1.260 . S
C218 O209 1.240 . S
C218 O210 1.252 . S
O219 In208 2.294 . S
O219 C212 1.240 . S
O220 In208 2.326 . S
O220 C212 1.252 . S
In221 O222 2.294 1_554 S
In221 O223 2.326 . S
In221 O227 2.266 . S
In221 O228 2.326 . S
In221 O229 2.266 . S
In221 O230 2.326 . S
In221 O232 2.294 . S
In221 O233 2.326 . S
O222 In221 2.294 1_556 S
O222 C231 1.240 . S
O223 In221 2.326 . S
O223 C231 1.252 1_554 S
C224 O227 1.252 . S
C224 O228 1.260 . S
C225 O232 1.240 . S
C225 O233 1.252 . S
C226 O229 1.252 . S
C226 O230 1.260 . S
O227 In221 2.266 . S
O227 C224 1.252 . S
O228 In221 2.326 . S
O228 C224 1.260 . S
O229 In221 2.266 . S
O229 C226 1.252 . S
O230 In221 2.326 . S
O230 C226 1.260 . S
C231 O222 1.240 . S
C231 O223 1.252 1_556 S
O232 In221 2.294 . S
O232 C225 1.240 . S
O233 In221 2.326 . S
O233 C225 1.252 . S
In234 O235 2.294 . S
In234 O236 2.326 . S
In234 O240 2.266 . S
In234 O241 2.326 . S
In234 O242 2.266 . S
In234 O243 2.326 . S
In234 O245 2.294 . S
In234 O246 2.326 . S
O235 In234 2.294 . S
O235 C244 1.240 . S
O236 In234 2.326 . S
O236 C244 1.252 . S
C237 O240 1.252 . S
C237 O241 1.260 . S
C238 O245 1.240 . S
C238 O246 1.252 . S
C239 O242 1.252 . S
C239 O243 1.260 . S
O240 In234 2.266 . S
O240 C237 1.252 . S
O241 In234 2.326 . S
O241 C237 1.260 . S
O242 In234 2.266 . S
O242 C239 1.252 . S
O243 In234 2.326 . S
O243 C239 1.260 . S
C244 O235 1.240 . S
C244 O236 1.252 . S
O245 In234 2.294 . S
O245 C238 1.240 . S
O246 In234 2.326 . S
O246 C238 1.252 . S
In247 O248 2.294 . S
In247 O249 2.326 . S
In247 O253 2.266 . S
In247 O254 2.326 . S
In247 O255 2.266 . S
In247 O256 2.326 . S
In247 O258 2.294 . S
In247 O259 2.326 . S
O248 In247 2.294 . S
O248 C257 1.240 . S
O249 In247 2.326 . S
O249 C257 1.252 . S
C250 O253 1.252 . S
C250 O254 1.260 . S
C251 O258 1.240 . S
C251 O259 1.252 . S
C252 O255 1.252 . S
C252 O256 1.260 . S
O253 In247 2.266 . S
O253 C250 1.252 . S
O254 In247 2.326 . S
O254 C250 1.260 . S
O255 In247 2.266 . S
O255 C252 1.252 . S
O256 In247 2.326 . S
O256 C252 1.260 . S
C257 O248 1.240 . S
C257 O249 1.252 . S
O258 In247 2.294 . S
O258 C251 1.240 . S
O259 In247 2.326 . S
O259 C251 1.252 . S
In260 O261 2.294 . S
In260 O262 2.326 . S
In260 O266 2.266 . S
In260 O267 2.326 . S
In260 O268 2.266 . S
In260 O269 2.326 . S
In260 O271 2.294 . S
In260 O272 2.326 . S
O261 In260 2.294 . S
O261 C270 1.240 . S
O262 In260 2.326 . S
O262 C270 1.252 . S
C263 O266 1.252 . S
C263 O267 1.260 . S
C264 O271 1.240 . S
C264 O272 1.252 . S
C265 O268 1.252 . S
C265 O269 1.260 . S
O266 In260 2.266 . S
O266 C263 1.252 . S
O267 In260 2.326 . S
O267 C263 1.260 . S
O268 In260 2.266 . S
O268 C265 1.252 . S
O269 In260 2.326 . S
O269 C265 1.260 . S
C270 O261 1.240 . S
C270 O262 1.252 . S
O271 In260 2.294 . S
O271 C264 1.240 . S
O272 In260 2.326 . S
O272 C264 1.252 . S
In273 O274 2.294 1_556 S
In273 O275 2.326 . S
In273 O279 2.266 . S
In273 O280 2.326 . S
In273 O281 2.266 . S
In273 O282 2.326 . S
In273 O284 2.294 . S
In273 O285 2.326 . S
O274 In273 2.294 1_554 S
O274 C283 1.240 . S
O275 In273 2.326 . S
O275 C283 1.252 1_556 S
C276 O279 1.252 . S
C276 O280 1.260 . S
C277 O284 1.240 . S
C277 O285 1.252 . S
C278 O281 1.252 . S
C278 O282 1.260 . S
O279 In273 2.266 . S
O279 C276 1.252 . S
O280 In273 2.326 . S
O280 C276 1.260 . S
O281 In273 2.266 . S
O281 C278 1.252 . S
O282 In273 2.326 . S
O282 C278 1.260 . S
C283 O274 1.240 . S
C283 O275 1.252 1_554 S
O284 In273 2.294 . S
O284 C277 1.240 . S
O285 In273 2.326 . S
O285 C277 1.252 . S
In286 O287 2.294 . S
In286 O288 2.326 . S
In286 O292 2.266 . S
In286 O293 2.326 . S
In286 O294 2.266 . S
In286 O295 2.326 . S
In286 O297 2.294 . S
In286 O298 2.326 . S
O287 In286 2.294 . S
O287 C296 1.240 . S
O288 In286 2.326 . S
O288 C296 1.252 . S
C289 O292 1.252 . S
C289 O293 1.260 . S
C290 O297 1.240 . S
C290 O298 1.252 . S
C291 O294 1.252 . S
C291 O295 1.260 . S
O292 In286 2.266 . S
O292 C289 1.252 . S
O293 In286 2.326 . S
O293 C289 1.260 . S
O294 In286 2.266 . S
O294 C291 1.252 . S
O295 In286 2.326 . S
O295 C291 1.260 . S
C296 O287 1.240 . S
C296 O288 1.252 . S
O297 In286 2.294 . S
O297 C290 1.240 . S
O298 In286 2.326 . S
O298 C290 1.252 . S
In299 O300 2.294 . S
In299 O301 2.326 . S
In299 O305 2.266 . S
In299 O306 2.326 . S
In299 O307 2.266 . S
In299 O308 2.326 . S
In299 O310 2.294 . S
In299 O311 2.326 . S
O300 In299 2.294 . S
O300 C309 1.240 . S
O301 In299 2.326 . S
O301 C309 1.252 . S
C302 O305 1.252 . S
C302 O306 1.260 . S
C303 O310 1.240 . S
C303 O311 1.252 . S
C304 O307 1.252 . S
C304 O308 1.260 . S
O305 In299 2.266 . S
O305 C302 1.252 . S
O306 In299 2.326 . S
O306 C302 1.260 . S
O307 In299 2.266 . S
O307 C304 1.252 . S
O308 In299 2.326 . S
O308 C304 1.260 . S
C309 O300 1.240 . S
C309 O301 1.252 . S
O310 In299 2.294 . S
O310 C303 1.240 . S
O311 In299 2.326 . S
O311 C303 1.252 . S
In312 O313 2.294 . S
In312 O314 2.326 . S
In312 O318 2.266 . S
In312 O319 2.326 . S
In312 O320 2.266 . S
In312 O321 2.326 . S
In312 O323 2.294 . S
In312 O324 2.326 . S
O313 In312 2.294 . S
O313 C322 1.240 . S
O314 In312 2.326 . S
O314 C322 1.252 . S
C315 O318 1.252 . S
C315 O319 1.260 . S
C316 O323 1.240 . S
C316 O324 1.252 . S
C317 O320 1.252 . S
C317 O321 1.260 . S
O318 In312 2.266 . S
O318 C315 1.252 . S
O319 In312 2.326 . S
O319 C315 1.260 . S
O320 In312 2.266 . S
O320 C317 1.252 . S
O321 In312 2.326 . S
O321 C317 1.260 . S
C322 O313 1.240 . S
C322 O314 1.252 . S
O323 In312 2.294 . S
O323 C316 1.240 . S
O324 In312 2.326 . S
O324 C316 1.252 . S
In325 O326 2.294 1_556 S
In325 O327 2.326 . S
In325 O331 2.266 . S
In325 O332 2.326 . S
In325 O333 2.266 . S
In325 O334 2.326 . S
In325 O336 2.294 . S
In325 O337 2.326 . S
O326 In325 2.294 1_554 S
O326 C335 1.240 . S
O327 In325 2.326 . S
O327 C335 1.252 1_556 S
C328 O331 1.252 . S
C328 O332 1.260 . S
C329 O336 1.240 . S
C329 O337 1.252 . S
C330 O333 1.252 . S
C330 O334 1.260 . S
O331 In325 2.266 . S
O331 C328 1.252 . S
O332 In325 2.326 . S
O332 C328 1.260 . S
O333 In325 2.266 . S
O333 C330 1.252 . S
O334 In325 2.326 . S
O334 C330 1.260 . S
C335 O326 1.240 . S
C335 O327 1.252 1_554 S
O336 In325 2.294 . S
O336 C329 1.240 . S
O337 In325 2.326 . S
O337 C329 1.252 . S
In338 O339 2.294 . S
In338 O340 2.326 . S
In338 O344 2.266 . S
In338 O345 2.326 . S
In338 O346 2.266 . S
In338 O347 2.326 . S
In338 O349 2.294 . S
In338 O350 2.326 . S
O339 In338 2.294 . S
O339 C348 1.240 . S
O340 In338 2.326 . S
O340 C348 1.252 . S
C341 O344 1.252 . S
C341 O345 1.260 . S
C342 O349 1.240 . S
C342 O350 1.252 . S
C343 O346 1.252 . S
C343 O347 1.260 . S
O344 In338 2.266 . S
O344 C341 1.252 . S
O345 In338 2.326 . S
O345 C341 1.260 . S
O346 In338 2.266 . S
O346 C343 1.252 . S
O347 In338 2.326 . S
O347 C343 1.260 . S
C348 O339 1.240 . S
C348 O340 1.252 . S
O349 In338 2.294 . S
O349 C342 1.240 . S
O350 In338 2.326 . S
O350 C342 1.252 . S
In351 O352 2.294 . S
In351 O353 2.326 . S
In351 O357 2.266 . S
In351 O358 2.326 . S
In351 O359 2.266 . S
In351 O360 2.326 . S
In351 O362 2.294 . S
In351 O363 2.326 . S
O352 In351 2.294 . S
O352 C361 1.240 . S
O353 In351 2.326 . S
O353 C361 1.252 . S
C354 O357 1.252 . S
C354 O358 1.260 . S
C355 O362 1.240 . S
C355 O363 1.252 . S
C356 O359 1.252 . S
C356 O360 1.260 . S
O357 In351 2.266 . S
O357 C354 1.252 . S
O358 In351 2.326 . S
O358 C354 1.260 . S
O359 In351 2.266 . S
O359 C356 1.252 . S
O360 In351 2.326 . S
O360 C356 1.260 . S
C361 O352 1.240 . S
C361 O353 1.252 . S
O362 In351 2.294 . S
O362 C355 1.240 . S
O363 In351 2.326 . S
O363 C355 1.252 . S
In364 O365 2.294 . S
In364 O366 2.326 . S
In364 O370 2.266 . S
In364 O371 2.326 . S
In364 O372 2.266 . S
In364 O373 2.326 . S
In364 O375 2.294 . S
In364 O376 2.326 . S
O365 In364 2.294 . S
O365 C374 1.240 . S
O366 In364 2.326 . S
O366 C374 1.252 . S
C367 O370 1.252 . S
C367 O371 1.260 . S
C368 O375 1.240 . S
C368 O376 1.252 . S
C369 O372 1.252 . S
C369 O373 1.260 . S
O370 In364 2.266 . S
O370 C367 1.252 . S
O371 In364 2.326 . S
O371 C367 1.260 . S
O372 In364 2.266 . S
O372 C369 1.252 . S
O373 In364 2.326 . S
O373 C369 1.260 . S
C374 O365 1.240 . S
C374 O366 1.252 . S
O375 In364 2.294 . S
O375 C368 1.240 . S
O376 In364 2.326 . S
O376 C368 1.252 . S
In377 O378 2.294 1_554 S
In377 O379 2.326 . S
In377 O383 2.266 . S
In377 O384 2.326 . S
In377 O385 2.266 . S
In377 O386 2.326 . S
In377 O388 2.294 . S
In377 O389 2.326 . S
O378 In377 2.294 1_556 S
O378 C387 1.240 . S
O379 In377 2.326 . S
O379 C387 1.252 1_554 S
C380 O383 1.252 . S
C380 O384 1.260 . S
C381 O388 1.240 . S
C381 O389 1.252 . S
C382 O385 1.252 . S
C382 O386 1.260 . S
O383 In377 2.266 . S
O383 C380 1.252 . S
O384 In377 2.326 . S
O384 C380 1.260 . S
O385 In377 2.266 . S
O385 C382 1.252 . S
O386 In377 2.326 . S
O386 C382 1.260 . S
C387 O378 1.240 . S
C387 O379 1.252 1_556 S
O388 In377 2.294 . S
O388 C381 1.240 . S
O389 In377 2.326 . S
O389 C381 1.252 . S
In390 O391 2.294 . S
In390 O392 2.326 . S
In390 O396 2.266 . S
In390 O397 2.326 . S
In390 O398 2.266 . S
In390 O399 2.326 . S
In390 O401 2.294 . S
In390 O402 2.326 . S
O391 In390 2.294 . S
O391 C400 1.240 . S
O392 In390 2.326 . S
O392 C400 1.252 . S
C393 O396 1.252 . S
C393 O397 1.260 . S
C394 O401 1.240 . S
C394 O402 1.252 . S
C395 O398 1.252 . S
C395 O399 1.260 . S
O396 In390 2.266 . S
O396 C393 1.252 . S
O397 In390 2.326 . S
O397 C393 1.260 . S
O398 In390 2.266 . S
O398 C395 1.252 . S
O399 In390 2.326 . S
O399 C395 1.260 . S
C400 O391 1.240 . S
C400 O392 1.252 . S
O401 In390 2.294 . S
O401 C394 1.240 . S
O402 In390 2.326 . S
O402 C394 1.252 . S
In403 O404 2.294 . S
In403 O405 2.326 . S
In403 O409 2.266 . S
In403 O410 2.326 . S
In403 O411 2.266 . S
In403 O412 2.326 . S
In403 O414 2.294 . S
In403 O415 2.326 . S
O404 In403 2.294 . S
O404 C413 1.240 . S
O405 In403 2.326 . S
O405 C413 1.252 . S
C406 O409 1.252 . S
C406 O410 1.260 . S
C407 O414 1.240 . S
C407 O415 1.252 . S
C408 O411 1.252 . S
C408 O412 1.260 . S
O409 In403 2.266 . S
O409 C406 1.252 . S
O410 In403 2.326 . S
O410 C406 1.260 . S
O411 In403 2.266 . S
O411 C408 1.252 . S
O412 In403 2.326 . S
O412 C408 1.260 . S
C413 O404 1.240 . S
C413 O405 1.252 . S
O414 In403 2.294 . S
O414 C407 1.240 . S
O415 In403 2.326 . S
O415 C407 1.252 . S
H416 C424 0.950 . S
H417 C429 0.950 . S
H418 C426 0.950 . S
H419 C428 0.950 . S
H420 C430 0.950 . S
H421 C432 0.950 . S
H422 C434 0.950 . S
H423 C435 0.950 . S
C424 H416 0.950 . S
C424 C425 1.386 . S
C424 C426 1.391 . S
C425 C424 1.386 . S
C425 C429 1.393 . S
C426 H418 0.950 . S
C426 C424 1.391 . S
C426 C427 1.400 . S
C427 C426 1.400 . S
C427 C428 1.398 . S
C427 C433 1.491 . S
C428 H419 0.950 . S
C428 C427 1.398 . S
C428 C429 1.391 . S
C429 H417 0.950 . S
C429 C425 1.393 . S
C429 C428 1.391 . S
C430 H420 0.950 . S
C430 C431 1.386 . S
C430 C432 1.391 . S
C431 C430 1.386 . S
C431 C435 1.393 . S
C432 H421 0.950 . S
C432 C430 1.391 . S
C432 C433 1.400 . S
C433 C427 1.491 . S
C433 C432 1.400 . S
C433 C434 1.398 . S
C434 H422 0.950 . S
C434 C433 1.398 . S
C434 C435 1.391 . S
C435 H423 0.950 . S
C435 C431 1.393 . S
C435 C434 1.391 . S
H436 C444 0.950 . S
H437 C449 0.950 . S
H438 C446 0.950 . S
H439 C448 0.950 . S
H440 C450 0.950 . S
H441 C452 0.950 . S
H442 C454 0.950 . S
H443 C455 0.950 . S
C444 H436 0.950 . S
C444 C445 1.386 . S
C444 C446 1.391 . S
C445 C444 1.386 . S
C445 C449 1.393 . S
C446 H438 0.950 . S
C446 C444 1.391 . S
C446 C447 1.400 . S
C447 C446 1.400 . S
C447 C448 1.398 . S
C447 C453 1.491 . S
C448 H439 0.950 . S
C448 C447 1.398 . S
C448 C449 1.391 . S
C449 H437 0.950 . S
C449 C445 1.393 . S
C449 C448 1.391 . S
C450 H440 0.950 . S
C450 C451 1.386 . S
C450 C452 1.391 . S
C451 C450 1.386 . S
C451 C455 1.393 . S
C452 H441 0.950 . S
C452 C450 1.391 . S
C452 C453 1.400 . S
C453 C447 1.491 . S
C453 C452 1.400 . S
C453 C454 1.398 . S
C454 H442 0.950 . S
C454 C453 1.398 . S
C454 C455 1.391 . S
C455 H443 0.950 . S
C455 C451 1.393 . S
C455 C454 1.391 . S
H456 C464 0.950 . S
H457 C469 0.950 . S
H458 C466 0.950 . S
H459 C468 0.950 . S
H460 C470 0.950 . S
H461 C472 0.950 . S
H462 C474 0.950 . S
H463 C475 0.950 . S
C464 H456 0.950 . S
C464 C465 1.386 . S
C464 C466 1.391 . S
C465 C464 1.386 . S
C465 C469 1.393 . S
C466 H458 0.950 . S
C466 C464 1.391 . S
C466 C467 1.400 . S
C467 C466 1.400 . S
C467 C468 1.398 . S
C467 C473 1.491 . S
C468 H459 0.950 . S
C468 C467 1.398 . S
C468 C469 1.391 . S
C469 H457 0.950 . S
C469 C465 1.393 . S
C469 C468 1.391 . S
C470 H460 0.950 . S
C470 C471 1.386 . S
C470 C472 1.391 . S
C471 C470 1.386 . S
C471 C475 1.393 . S
C472 H461 0.950 . S
C472 C470 1.391 . S
C472 C473 1.400 . S
C473 C467 1.491 . S
C473 C472 1.400 . S
C473 C474 1.398 . S
C474 H462 0.950 . S
C474 C473 1.398 . S
C474 C475 1.391 . S
C475 H463 0.950 . S
C475 C471 1.393 . S
C475 C474 1.391 . S
H476 C484 0.950 . S
H477 C489 0.950 . S
H478 C486 0.950 . S
H479 C488 0.950 . S
H480 C490 0.950 . S
H481 C492 0.950 . S
H482 C494 0.950 . S
H483 C495 0.950 . S
C484 H476 0.950 . S
C484 C485 1.386 . S
C484 C486 1.391 . S
C485 C484 1.386 . S
C485 C489 1.393 . S
C486 H478 0.950 . S
C486 C484 1.391 . S
C486 C487 1.400 . S
C487 C486 1.400 . S
C487 C488 1.398 . S
C487 C493 1.491 . S
C488 H479 0.950 . S
C488 C487 1.398 . S
C488 C489 1.391 . S
C489 H477 0.950 . S
C489 C485 1.393 . S
C489 C488 1.391 . S
C490 H480 0.950 . S
C490 C491 1.386 . S
C490 C492 1.391 . S
C491 C490 1.386 . S
C491 C495 1.393 . S
C492 H481 0.950 . S
C492 C490 1.391 . S
C492 C493 1.400 . S
C493 C487 1.491 . S
C493 C492 1.400 . S
C493 C494 1.398 . S
C494 H482 0.950 . S
C494 C493 1.398 . S
C494 C495 1.391 . S
C495 H483 0.950 . S
C495 C491 1.393 . S
C495 C494 1.391 . S
H496 C504 0.950 . S
H497 C509 0.950 . S
H498 C506 0.950 . S
H499 C508 0.950 . S
H500 C510 0.950 . S
H501 C512 0.950 . S
H502 C514 0.950 . S
H503 C515 0.950 . S
C504 H496 0.950 . S
C504 C505 1.386 . S
C504 C506 1.391 . S
C505 C504 1.386 . S
C505 C509 1.393 . S
C506 H498 0.950 . S
C506 C504 1.391 . S
C506 C507 1.400 . S
C507 C506 1.400 . S
C507 C508 1.398 . S
C507 C513 1.491 . S
C508 H499 0.950 . S
C508 C507 1.398 . S
C508 C509 1.391 . S
C509 H497 0.950 . S
C509 C505 1.393 . S
C509 C508 1.391 . S
C510 H500 0.950 . S
C510 C511 1.386 . S
C510 C512 1.391 . S
C511 C510 1.386 . S
C511 C515 1.393 . S
C512 H501 0.950 . S
C512 C510 1.391 . S
C512 C513 1.400 . S
C513 C507 1.491 . S
C513 C512 1.400 . S
C513 C514 1.398 . S
C514 H502 0.950 . S
C514 C513 1.398 . S
C514 C515 1.391 . S
C515 H503 0.950 . S
C515 C511 1.393 . S
C515 C514 1.391 . S
H516 C524 0.950 . S
H517 C529 0.950 . S
H518 C526 0.950 . S
H519 C528 0.950 . S
H520 C530 0.950 . S
H521 C532 0.950 . S
H522 C534 0.950 . S
H523 C535 0.950 . S
C524 H516 0.950 . S
C524 C525 1.386 . S
C524 C526 1.391 . S
C525 C524 1.386 . S
C525 C529 1.393 . S
C526 H518 0.950 . S
C526 C524 1.391 . S
C526 C527 1.400 . S
C527 C526 1.400 . S
C527 C528 1.398 . S
C527 C533 1.491 . S
C528 H519 0.950 . S
C528 C527 1.398 . S
C528 C529 1.391 . S
C529 H517 0.950 . S
C529 C525 1.393 . S
C529 C528 1.391 . S
C530 H520 0.950 . S
C530 C531 1.386 . S
C530 C532 1.391 . S
C531 C530 1.386 . S
C531 C535 1.393 . S
C532 H521 0.950 . S
C532 C530 1.391 . S
C532 C533 1.400 . S
C533 C527 1.491 . S
C533 C532 1.400 . S
C533 C534 1.398 . S
C534 H522 0.950 . S
C534 C533 1.398 . S
C534 C535 1.391 . S
C535 H523 0.950 . S
C535 C531 1.393 . S
C535 C534 1.391 . S
H536 C544 0.950 . S
H537 C549 0.950 . S
H538 C546 0.950 . S
H539 C548 0.950 . S
H540 C550 0.950 . S
H541 C552 0.950 . S
H542 C554 0.950 . S
H543 C555 0.950 . S
C544 H536 0.950 . S
C544 C545 1.386 . S
C544 C546 1.391 . S
C545 C544 1.386 . S
C545 C549 1.393 . S
C546 H538 0.950 . S
C546 C544 1.391 . S
C546 C547 1.400 . S
C547 C546 1.400 . S
C547 C548 1.398 . S
C547 C553 1.491 . S
C548 H539 0.950 . S
C548 C547 1.398 . S
C548 C549 1.391 . S
C549 H537 0.950 . S
C549 C545 1.393 . S
C549 C548 1.391 . S
C550 H540 0.950 . S
C550 C551 1.386 . S
C550 C552 1.391 . S
C551 C550 1.386 . S
C551 C555 1.393 . S
C552 H541 0.950 . S
C552 C550 1.391 . S
C552 C553 1.400 . S
C553 C547 1.491 . S
C553 C552 1.400 . S
C553 C554 1.398 . S
C554 H542 0.950 . S
C554 C553 1.398 . S
C554 C555 1.391 . S
C555 H543 0.950 . S
C555 C551 1.393 . S
C555 C554 1.391 . S
H556 C564 0.950 . S
H557 C569 0.950 . S
H558 C566 0.950 . S
H559 C568 0.950 . S
H560 C570 0.950 . S
H561 C572 0.950 . S
H562 C574 0.950 . S
H563 C575 0.950 . S
C564 H556 0.950 . S
C564 C565 1.386 . S
C564 C566 1.391 . S
C565 C564 1.386 . S
C565 C569 1.393 . S
C566 H558 0.950 . S
C566 C564 1.391 . S
C566 C567 1.400 . S
C567 C566 1.400 . S
C567 C568 1.398 . S
C567 C573 1.491 . S
C568 H559 0.950 . S
C568 C567 1.398 . S
C568 C569 1.391 . S
C569 H557 0.950 . S
C569 C565 1.393 . S
C569 C568 1.391 . S
C570 H560 0.950 . S
C570 C571 1.386 . S
C570 C572 1.391 . S
C571 C570 1.386 . S
C571 C575 1.393 . S
C572 H561 0.950 . S
C572 C570 1.391 . S
C572 C573 1.400 . S
C573 C567 1.491 . S
C573 C572 1.400 . S
C573 C574 1.398 . S
C574 H562 0.950 . S
C574 C573 1.398 . S
C574 C575 1.391 . S
C575 H563 0.950 . S
C575 C571 1.393 . S
C575 C574 1.391 . S
H576 C584 0.950 . S
H577 C589 0.950 . S
H578 C586 0.950 . S
H579 C588 0.950 . S
H580 C590 0.950 . S
H581 C592 0.950 . S
H582 C594 0.950 . S
H583 C595 0.950 . S
C584 H576 0.950 . S
C584 C585 1.386 . S
C584 C586 1.391 . S
C585 C584 1.386 . S
C585 C589 1.393 . S
C586 H578 0.950 . S
C586 C584 1.391 . S
C586 C587 1.400 . S
C587 C586 1.400 . S
C587 C588 1.398 . S
C587 C593 1.491 . S
C588 H579 0.950 . S
C588 C587 1.398 . S
C588 C589 1.391 . S
C589 H577 0.950 . S
C589 C585 1.393 . S
C589 C588 1.391 . S
C590 H580 0.950 . S
C590 C591 1.386 . S
C590 C592 1.391 . S
C591 C590 1.386 . S
C591 C595 1.393 . S
C592 H581 0.950 . S
C592 C590 1.391 . S
C592 C593 1.400 . S
C593 C587 1.491 . S
C593 C592 1.400 . S
C593 C594 1.398 . S
C594 H582 0.950 . S
C594 C593 1.398 . S
C594 C595 1.391 . S
C595 H583 0.950 . S
C595 C591 1.393 . S
C595 C594 1.391 . S
H596 C604 0.950 . S
H597 C609 0.950 . S
H598 C606 0.950 . S
H599 C608 0.950 . S
H600 C610 0.950 . S
H601 C612 0.950 . S
H602 C614 0.950 . S
H603 C615 0.950 . S
C604 H596 0.950 . S
C604 C605 1.386 . S
C604 C606 1.391 . S
C605 C604 1.386 . S
C605 C609 1.393 . S
C606 H598 0.950 . S
C606 C604 1.391 . S
C606 C607 1.400 . S
C607 C606 1.400 . S
C607 C608 1.398 . S
C607 C613 1.491 . S
C608 H599 0.950 . S
C608 C607 1.398 . S
C608 C609 1.391 . S
C609 H597 0.950 . S
C609 C605 1.393 . S
C609 C608 1.391 . S
C610 H600 0.950 . S
C610 C611 1.386 . S
C610 C612 1.391 . S
C611 C610 1.386 . S
C611 C615 1.393 . S
C612 H601 0.950 . S
C612 C610 1.391 . S
C612 C613 1.400 . S
C613 C607 1.491 . S
C613 C612 1.400 . S
C613 C614 1.398 . S
C614 H602 0.950 . S
C614 C613 1.398 . S
C614 C615 1.391 . S
C615 H603 0.950 . S
C615 C611 1.393 . S
C615 C614 1.391 . S
H616 C624 0.950 . S
H617 C629 0.950 . S
H618 C626 0.950 . S
H619 C628 0.950 . S
H620 C630 0.950 . S
H621 C632 0.950 . S
H622 C634 0.950 . S
H623 C635 0.950 . S
C624 H616 0.950 . S
C624 C625 1.386 . S
C624 C626 1.391 . S
C625 C624 1.386 . S
C625 C629 1.393 . S
C626 H618 0.950 . S
C626 C624 1.391 . S
C626 C627 1.400 . S
C627 C626 1.400 . S
C627 C628 1.398 . S
C627 C633 1.491 . S
C628 H619 0.950 . S
C628 C627 1.398 . S
C628 C629 1.391 . S
C629 H617 0.950 . S
C629 C625 1.393 . S
C629 C628 1.391 . S
C630 H620 0.950 . S
C630 C631 1.386 . S
C630 C632 1.391 . S
C631 C630 1.386 . S
C631 C635 1.393 . S
C632 H621 0.950 . S
C632 C630 1.391 . S
C632 C633 1.400 . S
C633 C627 1.491 . S
C633 C632 1.400 . S
C633 C634 1.398 . S
C634 H622 0.950 . S
C634 C633 1.398 . S
C634 C635 1.391 . S
C635 H623 0.950 . S
C635 C631 1.393 . S
C635 C634 1.391 . S
H636 C644 0.950 . S
H637 C649 0.950 . S
H638 C646 0.950 . S
H639 C648 0.950 . S
H640 C650 0.950 . S
H641 C652 0.950 . S
H642 C654 0.950 . S
H643 C655 0.950 . S
C644 H636 0.950 . S
C644 C645 1.386 . S
C644 C646 1.391 . S
C645 C644 1.386 . S
C645 C649 1.393 . S
C646 H638 0.950 . S
C646 C644 1.391 . S
C646 C647 1.400 . S
C647 C646 1.400 . S
C647 C648 1.398 . S
C647 C653 1.491 . S
C648 H639 0.950 . S
C648 C647 1.398 . S
C648 C649 1.391 . S
C649 H637 0.950 . S
C649 C645 1.393 . S
C649 C648 1.391 . S
C650 H640 0.950 . S
C650 C651 1.386 . S
C650 C652 1.391 . S
C651 C650 1.386 . S
C651 C655 1.393 . S
C652 H641 0.950 . S
C652 C650 1.391 . S
C652 C653 1.400 . S
C653 C647 1.491 . S
C653 C652 1.400 . S
C653 C654 1.398 . S
C654 H642 0.950 . S
C654 C653 1.398 . S
C654 C655 1.391 . S
C655 H643 0.950 . S
C655 C651 1.393 . S
C655 C654 1.391 . S
H656 C664 0.950 . S
H657 C669 0.950 . S
H658 C666 0.950 . S
H659 C668 0.950 . S
H660 C670 0.950 . S
H661 C672 0.950 . S
H662 C674 0.950 . S
H663 C675 0.950 . S
C664 H656 0.950 . S
C664 C665 1.386 . S
C664 C666 1.391 . S
C665 C664 1.386 . S
C665 C669 1.393 . S
C666 H658 0.950 . S
C666 C664 1.391 . S
C666 C667 1.400 . S
C667 C666 1.400 . S
C667 C668 1.398 . S
C667 C673 1.491 . S
C668 H659 0.950 . S
C668 C667 1.398 . S
C668 C669 1.391 . S
C669 H657 0.950 . S
C669 C665 1.393 . S
C669 C668 1.391 . S
C670 H660 0.950 . S
C670 C671 1.386 . S
C670 C672 1.391 . S
C671 C670 1.386 . S
C671 C675 1.393 . S
C672 H661 0.950 . S
C672 C670 1.391 . S
C672 C673 1.400 . S
C673 C667 1.491 . S
C673 C672 1.400 . S
C673 C674 1.398 . S
C674 H662 0.950 . S
C674 C673 1.398 . S
C674 C675 1.391 . S
C675 H663 0.950 . S
C675 C671 1.393 . S
C675 C674 1.391 . S
H676 C684 0.950 . S
H677 C689 0.950 . S
H678 C686 0.950 . S
H679 C688 0.950 . S
H680 C690 0.950 . S
H681 C692 0.950 . S
H682 C694 0.950 . S
H683 C695 0.950 . S
C684 H676 0.950 . S
C684 C685 1.386 . S
C684 C686 1.391 . S
C685 C684 1.386 . S
C685 C689 1.393 . S
C686 H678 0.950 . S
C686 C684 1.391 . S
C686 C687 1.400 . S
C687 C686 1.400 . S
C687 C688 1.398 . S
C687 C693 1.491 . S
C688 H679 0.950 . S
C688 C687 1.398 . S
C688 C689 1.391 . S
C689 H677 0.950 . S
C689 C685 1.393 . S
C689 C688 1.391 . S
C690 H680 0.950 . S
C690 C691 1.386 . S
C690 C692 1.391 . S
C691 C690 1.386 . S
C691 C695 1.393 . S
C692 H681 0.950 . S
C692 C690 1.391 . S
C692 C693 1.400 . S
C693 C687 1.491 . S
C693 C692 1.400 . S
C693 C694 1.398 . S
C694 H682 0.950 . S
C694 C693 1.398 . S
C694 C695 1.391 . S
C695 H683 0.950 . S
C695 C691 1.393 . S
C695 C694 1.391 . S
H696 C704 0.950 . S
H697 C709 0.950 . S
H698 C706 0.950 . S
H699 C708 0.950 . S
H700 C710 0.950 . S
H701 C712 0.950 . S
H702 C714 0.950 . S
H703 C715 0.950 . S
C704 H696 0.950 . S
C704 C705 1.386 . S
C704 C706 1.391 . S
C705 C704 1.386 . S
C705 C709 1.393 . S
C706 H698 0.950 . S
C706 C704 1.391 . S
C706 C707 1.400 . S
C707 C706 1.400 . S
C707 C708 1.398 . S
C707 C713 1.491 . S
C708 H699 0.950 . S
C708 C707 1.398 . S
C708 C709 1.391 . S
C709 H697 0.950 . S
C709 C705 1.393 . S
C709 C708 1.391 . S
C710 H700 0.950 . S
C710 C711 1.386 . S
C710 C712 1.391 . S
C711 C710 1.386 . S
C711 C715 1.393 . S
C712 H701 0.950 . S
C712 C710 1.391 . S
C712 C713 1.400 . S
C713 C707 1.491 . S
C713 C712 1.400 . S
C713 C714 1.398 . S
C714 H702 0.950 . S
C714 C713 1.398 . S
C714 C715 1.391 . S
C715 H703 0.950 . S
C715 C711 1.393 . S
C715 C714 1.391 . S
H716 C724 0.950 . S
H717 C729 0.950 . S
H718 C726 0.950 . S
H719 C728 0.950 . S
H720 C730 0.950 . S
H721 C732 0.950 . S
H722 C734 0.950 . S
H723 C735 0.950 . S
C724 H716 0.950 . S
C724 C725 1.386 . S
C724 C726 1.391 . S
C725 C724 1.386 . S
C725 C729 1.393 . S
C726 H718 0.950 . S
C726 C724 1.391 . S
C726 C727 1.400 . S
C727 C726 1.400 . S
C727 C728 1.398 . S
C727 C733 1.491 . S
C728 H719 0.950 . S
C728 C727 1.398 . S
C728 C729 1.391 . S
C729 H717 0.950 . S
C729 C725 1.393 . S
C729 C728 1.391 . S
C730 H720 0.950 . S
C730 C731 1.386 . S
C730 C732 1.391 . S
C731 C730 1.386 . S
C731 C735 1.393 . S
C732 H721 0.950 . S
C732 C730 1.391 . S
C732 C733 1.400 . S
C733 C727 1.491 . S
C733 C732 1.400 . S
C733 C734 1.398 . S
C734 H722 0.950 . S
C734 C733 1.398 . S
C734 C735 1.391 . S
C735 H723 0.950 . S
C735 C731 1.393 . S
C735 C734 1.391 . S
H736 C744 0.950 . S
H737 C749 0.950 . S
H738 C746 0.950 . S
H739 C748 0.950 . S
H740 C750 0.950 . S
H741 C752 0.950 . S
H742 C754 0.950 . S
H743 C755 0.950 . S
C744 H736 0.950 . S
C744 C745 1.386 . S
C744 C746 1.391 . S
C745 C744 1.386 . S
C745 C749 1.393 . S
C746 H738 0.950 . S
C746 C744 1.391 . S
C746 C747 1.400 . S
C747 C746 1.400 . S
C747 C748 1.398 . S
C747 C753 1.491 . S
C748 H739 0.950 . S
C748 C747 1.398 . S
C748 C749 1.391 . S
C749 H737 0.950 . S
C749 C745 1.393 . S
C749 C748 1.391 . S
C750 H740 0.950 . S
C750 C751 1.386 . S
C750 C752 1.391 . S
C751 C750 1.386 . S
C751 C755 1.393 . S
C752 H741 0.950 . S
C752 C750 1.391 . S
C752 C753 1.400 . S
C753 C747 1.491 . S
C753 C752 1.400 . S
C753 C754 1.398 . S
C754 H742 0.950 . S
C754 C753 1.398 . S
C754 C755 1.391 . S
C755 H743 0.950 . S
C755 C751 1.393 . S
C755 C754 1.391 . S
H756 C764 0.950 . S
H757 C769 0.950 . S
H758 C766 0.950 . S
H759 C768 0.950 . S
H760 C770 0.950 . S
H761 C772 0.950 . S
H762 C774 0.950 . S
H763 C775 0.950 . S
C764 H756 0.950 . S
C764 C765 1.386 . S
C764 C766 1.391 . S
C765 C764 1.386 . S
C765 C769 1.393 . S
C766 H758 0.950 . S
C766 C764 1.391 . S
C766 C767 1.400 . S
C767 C766 1.400 . S
C767 C768 1.398 . S
C767 C773 1.491 . S
C768 H759 0.950 . S
C768 C767 1.398 . S
C768 C769 1.391 . S
C769 H757 0.950 . S
C769 C765 1.393 . S
C769 C768 1.391 . S
C770 H760 0.950 . S
C770 C771 1.386 . S
C770 C772 1.391 1_455 S
C771 C770 1.386 . S
C771 C775 1.393 . S
C772 H761 0.950 . S
C772 C770 1.391 1_655 S
C772 C773 1.400 . S
C773 C767 1.491 . S
C773 C772 1.400 . S
C773 C774 1.398 . S
C774 H762 0.950 . S
C774 C773 1.398 . S
C774 C775 1.391 1_655 S
C775 H763 0.950 . S
C775 C771 1.393 . S
C775 C774 1.391 1_455 S
H776 C784 0.950 . S
H777 C789 0.950 . S
H778 C786 0.950 . S
H779 C788 0.950 . S
H780 C790 0.950 . S
H781 C792 0.950 . S
H782 C794 0.950 . S
H783 C795 0.950 . S
C784 H776 0.950 . S
C784 C785 1.386 . S
C784 C786 1.391 . S
C785 C784 1.386 . S
C785 C789 1.393 . S
C786 H778 0.950 . S
C786 C784 1.391 . S
C786 C787 1.400 . S
C787 C786 1.400 . S
C787 C788 1.398 . S
C787 C793 1.491 . S
C788 H779 0.950 . S
C788 C787 1.398 . S
C788 C789 1.391 . S
C789 H777 0.950 . S
C789 C785 1.393 . S
C789 C788 1.391 . S
C790 H780 0.950 . S
C790 C791 1.386 . S
C790 C792 1.391 . S
C791 C790 1.386 . S
C791 C795 1.393 . S
C792 H781 0.950 . S
C792 C790 1.391 . S
C792 C793 1.400 . S
C793 C787 1.491 . S
C793 C792 1.400 . S
C793 C794 1.398 . S
C794 H782 0.950 . S
C794 C793 1.398 . S
C794 C795 1.391 . S
C795 H783 0.950 . S
C795 C791 1.393 . S
C795 C794 1.391 . S
H796 C804 0.950 . S
H797 C809 0.950 . S
H798 C806 0.950 . S
H799 C808 0.950 . S
H800 C810 0.950 . S
H801 C812 0.950 . S
H802 C814 0.950 . S
H803 C815 0.950 . S
C804 H796 0.950 . S
C804 C805 1.386 . S
C804 C806 1.391 . S
C805 C804 1.386 . S
C805 C809 1.393 . S
C806 H798 0.950 . S
C806 C804 1.391 . S
C806 C807 1.400 . S
C807 C806 1.400 . S
C807 C808 1.398 . S
C807 C813 1.491 . S
C808 H799 0.950 . S
C808 C807 1.398 . S
C808 C809 1.391 . S
C809 H797 0.950 . S
C809 C805 1.393 . S
C809 C808 1.391 . S
C810 H800 0.950 . S
C810 C811 1.386 . S
C810 C812 1.391 . S
C811 C810 1.386 . S
C811 C815 1.393 . S
C812 H801 0.950 . S
C812 C810 1.391 . S
C812 C813 1.400 . S
C813 C807 1.491 . S
C813 C812 1.400 . S
C813 C814 1.398 . S
C814 H802 0.950 . S
C814 C813 1.398 . S
C814 C815 1.391 . S
C815 H803 0.950 . S
C815 C811 1.393 . S
C815 C814 1.391 . S
H816 C824 0.950 . S
H817 C829 0.950 . S
H818 C826 0.950 . S
H819 C828 0.950 . S
H820 C830 0.950 . S
H821 C832 0.950 . S
H822 C834 0.950 . S
H823 C835 0.950 . S
C824 H816 0.950 . S
C824 C825 1.386 . S
C824 C826 1.391 . S
C825 C824 1.386 . S
C825 C829 1.393 . S
C826 H818 0.950 . S
C826 C824 1.391 . S
C826 C827 1.400 . S
C827 C826 1.400 . S
C827 C828 1.398 . S
C827 C833 1.491 . S
C828 H819 0.950 . S
C828 C827 1.398 . S
C828 C829 1.391 . S
C829 H817 0.950 . S
C829 C825 1.393 . S
C829 C828 1.391 . S
C830 H820 0.950 . S
C830 C831 1.386 . S
C830 C832 1.391 . S
C831 C830 1.386 . S
C831 C835 1.393 . S
C832 H821 0.950 . S
C832 C830 1.391 . S
C832 C833 1.400 . S
C833 C827 1.491 . S
C833 C832 1.400 . S
C833 C834 1.398 . S
C834 H822 0.950 . S
C834 C833 1.398 . S
C834 C835 1.391 . S
C835 H823 0.950 . S
C835 C831 1.393 . S
C835 C834 1.391 . S
H836 C844 0.950 . S
H837 C849 0.950 . S
H838 C846 0.950 . S
H839 C848 0.950 . S
H840 C850 0.950 . S
H841 C852 0.950 . S
H842 C854 0.950 . S
H843 C855 0.950 . S
C844 H836 0.950 . S
C844 C845 1.386 . S
C844 C846 1.391 . S
C845 C844 1.386 . S
C845 C849 1.393 . S
C846 H838 0.950 . S
C846 C844 1.391 . S
C846 C847 1.400 . S
C847 C846 1.400 . S
C847 C848 1.398 . S
C847 C853 1.491 . S
C848 H839 0.950 . S
C848 C847 1.398 . S
C848 C849 1.391 . S
C849 H837 0.950 . S
C849 C845 1.393 . S
C849 C848 1.391 . S
C850 H840 0.950 . S
C850 C851 1.386 . S
C850 C852 1.391 . S
C851 C850 1.386 . S
C851 C855 1.393 . S
C852 H841 0.950 . S
C852 C850 1.391 . S
C852 C853 1.400 . S
C853 C847 1.491 . S
C853 C852 1.400 . S
C853 C854 1.398 . S
C854 H842 0.950 . S
C854 C853 1.398 . S
C854 C855 1.391 . S
C855 H843 0.950 . S
C855 C851 1.393 . S
C855 C854 1.391 . S
H856 C864 0.950 . S
H857 C869 0.950 . S
H858 C866 0.950 . S
H859 C868 0.950 . S
H860 C870 0.950 . S
H861 C872 0.950 . S
H862 C874 0.950 . S
H863 C875 0.950 . S
C864 H856 0.950 . S
C864 C865 1.386 . S
C864 C866 1.391 . S
C865 C864 1.386 . S
C865 C869 1.393 . S
C866 H858 0.950 . S
C866 C864 1.391 . S
C866 C867 1.400 . S
C867 C866 1.400 . S
C867 C868 1.398 . S
C867 C873 1.491 . S
C868 H859 0.950 . S
C868 C867 1.398 . S
C868 C869 1.391 . S
C869 H857 0.950 . S
C869 C865 1.393 . S
C869 C868 1.391 . S
C870 H860 0.950 . S
C870 C871 1.386 . S
C870 C872 1.391 . S
C871 C870 1.386 . S
C871 C875 1.393 . S
C872 H861 0.950 . S
C872 C870 1.391 . S
C872 C873 1.400 . S
C873 C867 1.491 . S
C873 C872 1.400 . S
C873 C874 1.398 . S
C874 H862 0.950 . S
C874 C873 1.398 . S
C874 C875 1.391 . S
C875 H863 0.950 . S
C875 C871 1.393 . S
C875 C874 1.391 . S
H876 C884 0.950 . S
H877 C889 0.950 . S
H878 C886 0.950 . S
H879 C888 0.950 . S
H880 C890 0.950 . S
H881 C892 0.950 . S
H882 C894 0.950 . S
H883 C895 0.950 . S
C884 H876 0.950 . S
C884 C885 1.386 . S
C884 C886 1.391 1_455 S
C885 C884 1.386 . S
C885 C889 1.393 . S
C886 H878 0.950 . S
C886 C884 1.391 1_655 S
C886 C887 1.400 . S
C887 C886 1.400 . S
C887 C888 1.398 . S
C887 C893 1.491 . S
C888 H879 0.950 . S
C888 C887 1.398 . S
C888 C889 1.391 1_655 S
C889 H877 0.950 . S
C889 C885 1.393 . S
C889 C888 1.391 1_455 S
C890 H880 0.950 . S
C890 C891 1.386 . S
C890 C892 1.391 . S
C891 C890 1.386 . S
C891 C895 1.393 . S
C892 H881 0.950 . S
C892 C890 1.391 . S
C892 C893 1.400 . S
C893 C887 1.491 . S
C893 C892 1.400 . S
C893 C894 1.398 . S
C894 H882 0.950 . S
C894 C893 1.398 . S
C894 C895 1.391 . S
C895 H883 0.950 . S
C895 C891 1.393 . S
C895 C894 1.391 . S
H896 C904 0.950 . S
H897 C909 0.950 . S
H898 C906 0.950 . S
H899 C908 0.950 . S
H900 C910 0.950 . S
H901 C912 0.950 . S
H902 C914 0.950 . S
H903 C915 0.950 . S
C904 H896 0.950 . S
C904 C905 1.386 . S
C904 C906 1.391 . S
C905 C904 1.386 . S
C905 C909 1.393 . S
C906 H898 0.950 . S
C906 C904 1.391 . S
C906 C907 1.400 . S
C907 C906 1.400 . S
C907 C908 1.398 . S
C907 C913 1.491 . S
C908 H899 0.950 . S
C908 C907 1.398 . S
C908 C909 1.391 . S
C909 H897 0.950 . S
C909 C905 1.393 . S
C909 C908 1.391 . S
C910 H900 0.950 . S
C910 C911 1.386 . S
C910 C912 1.391 . S
C911 C910 1.386 . S
C911 C915 1.393 . S
C912 H901 0.950 . S
C912 C910 1.391 . S
C912 C913 1.400 . S
C913 C907 1.491 . S
C913 C912 1.400 . S
C913 C914 1.398 . S
C914 H902 0.950 . S
C914 C913 1.398 . S
C914 C915 1.391 . S
C915 H903 0.950 . S
C915 C911 1.393 . S
C915 C914 1.391 . S
H916 C924 0.950 . S
H917 C929 0.950 . S
H918 C926 0.950 . S
H919 C928 0.950 . S
H920 C930 0.950 . S
H921 C932 0.950 . S
H922 C934 0.950 . S
H923 C935 0.950 . S
C924 H916 0.950 . S
C924 C925 1.386 . S
C924 C926 1.391 1_655 S
C925 C924 1.386 . S
C925 C929 1.393 . S
C926 H918 0.950 . S
C926 C924 1.391 1_455 S
C926 C927 1.400 . S
C927 C926 1.400 . S
C927 C928 1.398 . S
C927 C933 1.491 . S
C928 H919 0.950 . S
C928 C927 1.398 . S
C928 C929 1.391 1_455 S
C929 H917 0.950 . S
C929 C925 1.393 . S
C929 C928 1.391 1_655 S
C930 H920 0.950 . S
C930 C931 1.386 . S
C930 C932 1.391 . S
C931 C930 1.386 . S
C931 C935 1.393 . S
C932 H921 0.950 . S
C932 C930 1.391 . S
C932 C933 1.400 . S
C933 C927 1.491 . S
C933 C932 1.400 . S
C933 C934 1.398 . S
C934 H922 0.950 . S
C934 C933 1.398 . S
C934 C935 1.391 . S
C935 H923 0.950 . S
C935 C931 1.393 . S
C935 C934 1.391 . S
H936 C944 0.950 . S
H937 C949 0.950 . S
H938 C946 0.950 . S
H939 C948 0.950 . S
H940 C950 0.950 . S
H941 C952 0.950 . S
H942 C954 0.950 . S
H943 C955 0.950 . S
C944 H936 0.950 . S
C944 C945 1.386 . S
C944 C946 1.391 . S
C945 C944 1.386 . S
C945 C949 1.393 . S
C946 H938 0.950 . S
C946 C944 1.391 . S
C946 C947 1.400 . S
C947 C946 1.400 . S
C947 C948 1.398 . S
C947 C953 1.491 . S
C948 H939 0.950 . S
C948 C947 1.398 . S
C948 C949 1.391 . S
C949 H937 0.950 . S
C949 C945 1.393 . S
C949 C948 1.391 . S
C950 H940 0.950 . S
C950 C951 1.386 . S
C950 C952 1.391 . S
C951 C950 1.386 . S
C951 C955 1.393 . S
C952 H941 0.950 . S
C952 C950 1.391 . S
C952 C953 1.400 . S
C953 C947 1.491 . S
C953 C952 1.400 . S
C953 C954 1.398 . S
C954 H942 0.950 . S
C954 C953 1.398 . S
C954 C955 1.391 . S
C955 H943 0.950 . S
C955 C951 1.393 . S
C955 C954 1.391 . S
H956 C964 0.950 . S
H957 C969 0.950 . S
H958 C966 0.950 . S
H959 C968 0.950 . S
H960 C970 0.950 . S
H961 C972 0.950 . S
H962 C974 0.950 . S
H963 C975 0.950 . S
C964 H956 0.950 . S
C964 C965 1.386 . S
C964 C966 1.391 . S
C965 C964 1.386 . S
C965 C969 1.393 . S
C966 H958 0.950 . S
C966 C964 1.391 . S
C966 C967 1.400 . S
C967 C966 1.400 . S
C967 C968 1.398 . S
C967 C973 1.491 . S
C968 H959 0.950 . S
C968 C967 1.398 . S
C968 C969 1.391 . S
C969 H957 0.950 . S
C969 C965 1.393 . S
C969 C968 1.391 . S
C970 H960 0.950 . S
C970 C971 1.386 . S
C970 C972 1.391 . S
C971 C970 1.386 . S
C971 C975 1.393 . S
C972 H961 0.950 . S
C972 C970 1.391 . S
C972 C973 1.400 . S
C973 C967 1.491 . S
C973 C972 1.400 . S
C973 C974 1.398 . S
C974 H962 0.950 . S
C974 C973 1.398 . S
C974 C975 1.391 . S
C975 H963 0.950 . S
C975 C971 1.393 . S
C975 C974 1.391 . S
H976 C984 0.950 . S
H977 C989 0.950 . S
H978 C986 0.950 . S
H979 C988 0.950 . S
H980 C990 0.950 . S
H981 C992 0.950 . S
H982 C994 0.950 . S
H983 C995 0.950 . S
C984 H976 0.950 . S
C984 C985 1.386 . S
C984 C986 1.391 . S
C985 C984 1.386 . S
C985 C989 1.393 . S
C986 H978 0.950 . S
C986 C984 1.391 . S
C986 C987 1.400 . S
C987 C986 1.400 . S
C987 C988 1.398 . S
C987 C993 1.491 . S
C988 H979 0.950 . S
C988 C987 1.398 . S
C988 C989 1.391 . S
C989 H977 0.950 . S
C989 C985 1.393 . S
C989 C988 1.391 . S
C990 H980 0.950 . S
C990 C991 1.386 . S
C990 C992 1.391 . S
C991 C990 1.386 . S
C991 C995 1.393 . S
C992 H981 0.950 . S
C992 C990 1.391 . S
C992 C993 1.400 . S
C993 C987 1.491 . S
C993 C992 1.400 . S
C993 C994 1.398 . S
C994 H982 0.950 . S
C994 C993 1.398 . S
C994 C995 1.391 . S
C995 H983 0.950 . S
C995 C991 1.393 . S
C995 C994 1.391 . S
H996 C1004 0.950 . S
H997 C1009 0.950 . S
H998 C1006 0.950 . S
H999 C1008 0.950 . S
H1000 C1010 0.950 . S
H1001 C1012 0.950 . S
H1002 C1014 0.950 . S
H1003 C1015 0.950 . S
C1004 H996 0.950 . S
C1004 C1005 1.386 . S
C1004 C1006 1.391 . S
C1005 C1004 1.386 . S
C1005 C1009 1.393 . S
C1006 H998 0.950 . S
C1006 C1004 1.391 . S
C1006 C1007 1.400 . S
C1007 C1006 1.400 . S
C1007 C1008 1.398 . S
C1007 C1013 1.491 . S
C1008 H999 0.950 . S
C1008 C1007 1.398 . S
C1008 C1009 1.391 . S
C1009 H997 0.950 . S
C1009 C1005 1.393 . S
C1009 C1008 1.391 . S
C1010 H1000 0.950 . S
C1010 C1011 1.386 . S
C1010 C1012 1.391 . S
C1011 C1010 1.386 . S
C1011 C1015 1.393 . S
C1012 H1001 0.950 . S
C1012 C1010 1.391 . S
C1012 C1013 1.400 . S
C1013 C1007 1.491 . S
C1013 C1012 1.400 . S
C1013 C1014 1.398 . S
C1014 H1002 0.950 . S
C1014 C1013 1.398 . S
C1014 C1015 1.391 . S
C1015 H1003 0.950 . S
C1015 C1011 1.393 . S
C1015 C1014 1.391 . S
H1016 C1024 0.950 . S
H1017 C1029 0.950 . S
H1018 C1026 0.950 . S
H1019 C1028 0.950 . S
H1020 C1030 0.950 . S
H1021 C1032 0.950 . S
H1022 C1034 0.950 . S
H1023 C1035 0.950 . S
C1024 H1016 0.950 . S
C1024 C1025 1.386 . S
C1024 C1026 1.391 . S
C1025 C1024 1.386 . S
C1025 C1029 1.393 . S
C1026 H1018 0.950 . S
C1026 C1024 1.391 . S
C1026 C1027 1.400 . S
C1027 C1026 1.400 . S
C1027 C1028 1.398 . S
C1027 C1033 1.491 . S
C1028 H1019 0.950 . S
C1028 C1027 1.398 . S
C1028 C1029 1.391 . S
C1029 H1017 0.950 . S
C1029 C1025 1.393 . S
C1029 C1028 1.391 . S
C1030 H1020 0.950 . S
C1030 C1031 1.386 . S
C1030 C1032 1.391 . S
C1031 C1030 1.386 . S
C1031 C1035 1.393 . S
C1032 H1021 0.950 . S
C1032 C1030 1.391 . S
C1032 C1033 1.400 . S
C1033 C1027 1.491 . S
C1033 C1032 1.400 . S
C1033 C1034 1.398 . S
C1034 H1022 0.950 . S
C1034 C1033 1.398 . S
C1034 C1035 1.391 . S
C1035 H1023 0.950 . S
C1035 C1031 1.393 . S
C1035 C1034 1.391 . S
H1036 C1044 0.950 . S
H1037 C1049 0.950 . S
H1038 C1046 0.950 . S
H1039 C1048 0.950 . S
H1040 C1050 0.950 . S
H1041 C1052 0.950 . S
H1042 C1054 0.950 1_455 S
H1043 C1055 0.950 . S
C1044 H1036 0.950 . S
C1044 C1045 1.386 . S
C1044 C1046 1.391 . S
C1045 C1044 1.386 . S
C1045 C1049 1.393 . S
C1046 H1038 0.950 . S
C1046 C1044 1.391 . S
C1046 C1047 1.400 . S
C1047 C1046 1.400 . S
C1047 C1048 1.398 . S
C1047 C1053 1.491 . S
C1048 H1039 0.950 . S
C1048 C1047 1.398 . S
C1048 C1049 1.391 . S
C1049 H1037 0.950 . S
C1049 C1045 1.393 . S
C1049 C1048 1.391 . S
C1050 H1040 0.950 . S
C1050 C1051 1.386 . S
C1050 C1052 1.391 1_655 S
C1051 C1050 1.386 . S
C1051 C1055 1.393 . S
C1052 H1041 0.950 . S
C1052 C1050 1.391 1_455 S
C1052 C1053 1.400 . S
C1053 C1047 1.491 . S
C1053 C1052 1.400 . S
C1053 C1054 1.398 1_455 S
C1054 H1042 0.950 1_655 S
C1054 C1053 1.398 1_655 S
C1054 C1055 1.391 . S
C1055 H1043 0.950 . S
C1055 C1051 1.393 . S
C1055 C1054 1.391 . S
H1056 C1064 0.950 . S
H1057 C1069 0.950 . S
H1058 C1066 0.950 . S
H1059 C1068 0.950 . S
H1060 C1070 0.950 . S
H1061 C1072 0.950 . S
H1062 C1074 0.950 . S
H1063 C1075 0.950 . S
C1064 H1056 0.950 . S
C1064 C1065 1.386 . S
C1064 C1066 1.391 . S
C1065 C1064 1.386 . S
C1065 C1069 1.393 . S
C1066 H1058 0.950 . S
C1066 C1064 1.391 . S
C1066 C1067 1.400 . S
C1067 C1066 1.400 . S
C1067 C1068 1.398 . S
C1067 C1073 1.491 . S
C1068 H1059 0.950 . S
C1068 C1067 1.398 . S
C1068 C1069 1.391 . S
C1069 H1057 0.950 . S
C1069 C1065 1.393 . S
C1069 C1068 1.391 . S
C1070 H1060 0.950 . S
C1070 C1071 1.386 . S
C1070 C1072 1.391 . S
C1071 C1070 1.386 . S
C1071 C1075 1.393 . S
C1072 H1061 0.950 . S
C1072 C1070 1.391 . S
C1072 C1073 1.400 . S
C1073 C1067 1.491 . S
C1073 C1072 1.400 . S
C1073 C1074 1.398 . S
C1074 H1062 0.950 . S
C1074 C1073 1.398 . S
C1074 C1075 1.391 . S
C1075 H1063 0.950 . S
C1075 C1071 1.393 . S
C1075 C1074 1.391 . S
H1076 C1084 0.950 . S
H1077 C1089 0.950 . S
H1078 C1086 0.950 . S
H1079 C1088 0.950 . S
H1080 C1090 0.950 . S
H1081 C1092 0.950 . S
H1082 C1094 0.950 . S
H1083 C1095 0.950 . S
C1084 H1076 0.950 . S
C1084 C1085 1.386 . S
C1084 C1086 1.391 . S
C1085 C1084 1.386 . S
C1085 C1089 1.393 . S
C1086 H1078 0.950 . S
C1086 C1084 1.391 . S
C1086 C1087 1.400 . S
C1087 C1086 1.400 . S
C1087 C1088 1.398 . S
C1087 C1093 1.491 . S
C1088 H1079 0.950 . S
C1088 C1087 1.398 . S
C1088 C1089 1.391 . S
C1089 H1077 0.950 . S
C1089 C1085 1.393 . S
C1089 C1088 1.391 . S
C1090 H1080 0.950 . S
C1090 C1091 1.386 . S
C1090 C1092 1.391 . S
C1091 C1090 1.386 . S
C1091 C1095 1.393 . S
C1092 H1081 0.950 . S
C1092 C1090 1.391 . S
C1092 C1093 1.400 . S
C1093 C1087 1.491 . S
C1093 C1092 1.400 . S
C1093 C1094 1.398 . S
C1094 H1082 0.950 . S
C1094 C1093 1.398 . S
C1094 C1095 1.391 . S
C1095 H1083 0.950 . S
C1095 C1091 1.393 . S
C1095 C1094 1.391 . S
H1096 C1104 0.950 . S
H1097 C1109 0.950 . S
H1098 C1106 0.950 . S
H1099 C1108 0.950 . S
H1100 C1110 0.950 . S
H1101 C1112 0.950 . S
H1102 C1114 0.950 . S
H1103 C1115 0.950 . S
C1104 H1096 0.950 . S
C1104 C1105 1.386 . S
C1104 C1106 1.391 . S
C1105 C1104 1.386 . S
C1105 C1109 1.393 . S
C1106 H1098 0.950 . S
C1106 C1104 1.391 . S
C1106 C1107 1.400 . S
C1107 C1106 1.400 . S
C1107 C1108 1.398 . S
C1107 C1113 1.491 . S
C1108 H1099 0.950 . S
C1108 C1107 1.398 . S
C1108 C1109 1.391 . S
C1109 H1097 0.950 . S
C1109 C1105 1.393 . S
C1109 C1108 1.391 . S
C1110 H1100 0.950 . S
C1110 C1111 1.386 . S
C1110 C1112 1.391 . S
C1111 C1110 1.386 . S
C1111 C1115 1.393 . S
C1112 H1101 0.950 . S
C1112 C1110 1.391 . S
C1112 C1113 1.400 . S
C1113 C1107 1.491 . S
C1113 C1112 1.400 . S
C1113 C1114 1.398 . S
C1114 H1102 0.950 . S
C1114 C1113 1.398 . S
C1114 C1115 1.391 . S
C1115 H1103 0.950 . S
C1115 C1111 1.393 . S
C1115 C1114 1.391 . S
H1116 C1124 0.950 . S
H1117 C1129 0.950 . S
H1118 C1126 0.950 . S
H1119 C1128 0.950 . S
H1120 C1130 0.950 . S
H1121 C1132 0.950 . S
H1122 C1134 0.950 . S
H1123 C1135 0.950 . S
C1124 H1116 0.950 . S
C1124 C1125 1.386 . S
C1124 C1126 1.391 . S
C1125 C1124 1.386 . S
C1125 C1129 1.393 . S
C1126 H1118 0.950 . S
C1126 C1124 1.391 . S
C1126 C1127 1.400 . S
C1127 C1126 1.400 . S
C1127 C1128 1.398 . S
C1127 C1133 1.491 . S
C1128 H1119 0.950 . S
C1128 C1127 1.398 . S
C1128 C1129 1.391 . S
C1129 H1117 0.950 . S
C1129 C1125 1.393 . S
C1129 C1128 1.391 . S
C1130 H1120 0.950 . S
C1130 C1131 1.386 . S
C1130 C1132 1.391 1_655 S
C1131 C1130 1.386 . S
C1131 C1135 1.393 . S
C1132 H1121 0.950 . S
C1132 C1130 1.391 1_455 S
C1132 C1133 1.400 . S
C1133 C1127 1.491 . S
C1133 C1132 1.400 . S
C1133 C1134 1.398 . S
C1134 H1122 0.950 . S
C1134 C1133 1.398 . S
C1134 C1135 1.391 1_455 S
C1135 H1123 0.950 . S
C1135 C1131 1.393 . S
C1135 C1134 1.391 1_655 S
H1136 C1144 0.950 . S
H1137 C1149 0.950 . S
H1138 C1146 0.950 . S
H1139 C1148 0.950 . S
H1140 C1150 0.950 . S
H1141 C1152 0.950 . S
H1142 C1154 0.950 . S
H1143 C1155 0.950 . S
C1144 H1136 0.950 . S
C1144 C1145 1.386 . S
C1144 C1146 1.391 . S
C1145 C1144 1.386 . S
C1145 C1149 1.393 . S
C1146 H1138 0.950 . S
C1146 C1144 1.391 . S
C1146 C1147 1.400 . S
C1147 C1146 1.400 . S
C1147 C1148 1.398 . S
C1147 C1153 1.491 . S
C1148 H1139 0.950 . S
C1148 C1147 1.398 . S
C1148 C1149 1.391 . S
C1149 H1137 0.950 . S
C1149 C1145 1.393 . S
C1149 C1148 1.391 . S
C1150 H1140 0.950 . S
C1150 C1151 1.386 . S
C1150 C1152 1.391 . S
C1151 C1150 1.386 . S
C1151 C1155 1.393 . S
C1152 H1141 0.950 . S
C1152 C1150 1.391 . S
C1152 C1153 1.400 . S
C1153 C1147 1.491 . S
C1153 C1152 1.400 . S
C1153 C1154 1.398 . S
C1154 H1142 0.950 . S
C1154 C1153 1.398 . S
C1154 C1155 1.391 . S
C1155 H1143 0.950 . S
C1155 C1151 1.393 . S
C1155 C1154 1.391 . S
H1156 C1164 0.949 . S
H1157 C1169 0.950 . S
H1158 C1166 0.950 . S
H1159 C1168 0.950 . S
H1160 C1170 0.950 . S
H1161 C1172 0.950 . S
H1162 C1174 0.950 . S
H1163 C1175 0.950 . S
C1164 H1156 0.949 . S
C1164 C1165 1.413 . S
C1164 C1166 1.364 1_655 S
C1165 C1164 1.413 . S
C1165 C1169 1.393 . S
C1166 H1158 0.950 . S
C1166 C1164 1.364 1_455 S
C1166 C1167 1.400 . S
C1167 C1166 1.400 . S
C1167 C1168 1.367 1_455 S
C1167 C1173 1.491 . S
C1168 H1159 0.950 . S
C1168 C1167 1.367 1_655 S
C1168 C1169 1.422 . S
C1169 H1157 0.950 . S
C1169 C1165 1.393 . S
C1169 C1168 1.422 . S
C1170 H1160 0.950 . S
C1170 C1171 1.386 . S
C1170 C1172 1.391 . S
C1171 C1170 1.386 . S
C1171 C1175 1.393 . S
C1172 H1161 0.950 . S
C1172 C1170 1.391 . S
C1172 C1173 1.400 . S
C1173 C1167 1.491 . S
C1173 C1172 1.400 . S
C1173 C1174 1.398 . S
C1174 H1162 0.950 . S
C1174 C1173 1.398 . S
C1174 C1175 1.391 . S
C1175 H1163 0.950 . S
C1175 C1171 1.393 . S
C1175 C1174 1.391 . S
H1176 C1184 0.950 . S
H1177 C1189 0.950 . S
H1178 C1186 0.950 . S
H1179 C1188 0.950 . S
H1180 C1190 0.950 . S
H1181 C1192 0.950 . S
H1182 C1194 0.950 . S
H1183 C1195 0.950 . S
C1184 H1176 0.950 . S
C1184 C1185 1.386 . S
C1184 C1186 1.391 . S
C1185 C1184 1.386 . S
C1185 C1189 1.393 . S
C1186 H1178 0.950 . S
C1186 C1184 1.391 . S
C1186 C1187 1.400 . S
C1187 C1186 1.400 . S
C1187 C1188 1.398 . S
C1187 C1193 1.491 . S
C1188 H1179 0.950 . S
C1188 C1187 1.398 . S
C1188 C1189 1.391 . S
C1189 H1177 0.950 . S
C1189 C1185 1.393 . S
C1189 C1188 1.391 . S
C1190 H1180 0.950 . S
C1190 C1191 1.386 . S
C1190 C1192 1.391 . S
C1191 C1190 1.386 . S
C1191 C1195 1.393 . S
C1192 H1181 0.950 . S
C1192 C1190 1.391 . S
C1192 C1193 1.400 . S
C1193 C1187 1.491 . S
C1193 C1192 1.400 . S
C1193 C1194 1.398 . S
C1194 H1182 0.950 . S
C1194 C1193 1.398 . S
C1194 C1195 1.391 . S
C1195 H1183 0.950 . S
C1195 C1191 1.393 . S
C1195 C1194 1.391 . S
H1196 C1204 0.950 . S
H1197 C1209 0.950 . S
H1198 C1206 0.950 . S
H1199 C1208 0.950 . S
H1200 C1210 0.950 . S
H1201 C1212 0.950 . S
H1202 C1214 0.950 . S
H1203 C1215 0.950 . S
C1204 H1196 0.950 . S
C1204 C1205 1.386 . S
C1204 C1206 1.391 . S
C1205 C1204 1.386 . S
C1205 C1209 1.393 . S
C1206 H1198 0.950 . S
C1206 C1204 1.391 . S
C1206 C1207 1.400 . S
C1207 C1206 1.400 . S
C1207 C1208 1.398 . S
C1207 C1213 1.491 . S
C1208 H1199 0.950 . S
C1208 C1207 1.398 . S
C1208 C1209 1.391 . S
C1209 H1197 0.950 . S
C1209 C1205 1.393 . S
C1209 C1208 1.391 . S
C1210 H1200 0.950 . S
C1210 C1211 1.386 . S
C1210 C1212 1.391 . S
C1211 C1210 1.386 . S
C1211 C1215 1.393 . S
C1212 H1201 0.950 . S
C1212 C1210 1.391 . S
C1212 C1213 1.400 . S
C1213 C1207 1.491 . S
C1213 C1212 1.400 . S
C1213 C1214 1.398 . S
C1214 H1202 0.950 . S
C1214 C1213 1.398 . S
C1214 C1215 1.391 . S
C1215 H1203 0.950 . S
C1215 C1211 1.393 . S
C1215 C1214 1.391 . S
H1216 C1224 0.950 . S
H1217 C1229 0.950 . S
H1218 C1226 0.950 . S
H1219 C1228 0.950 . S
H1220 C1230 0.950 . S
H1221 C1232 0.950 . S
H1222 C1234 0.950 . S
H1223 C1235 0.950 . S
C1224 H1216 0.950 . S
C1224 C1225 1.386 . S
C1224 C1226 1.391 . S
C1225 C1224 1.386 . S
C1225 C1229 1.393 . S
C1226 H1218 0.950 . S
C1226 C1224 1.391 . S
C1226 C1227 1.400 . S
C1227 C1226 1.400 . S
C1227 C1228 1.398 . S
C1227 C1233 1.491 . S
C1228 H1219 0.950 . S
C1228 C1227 1.398 . S
C1228 C1229 1.391 . S
C1229 H1217 0.950 . S
C1229 C1225 1.393 . S
C1229 C1228 1.391 . S
C1230 H1220 0.950 . S
C1230 C1231 1.386 . S
C1230 C1232 1.391 . S
C1231 C1230 1.386 . S
C1231 C1235 1.393 . S
C1232 H1221 0.950 . S
C1232 C1230 1.391 . S
C1232 C1233 1.400 . S
C1233 C1227 1.491 . S
C1233 C1232 1.400 . S
C1233 C1234 1.398 . S
C1234 H1222 0.950 . S
C1234 C1233 1.398 . S
C1234 C1235 1.391 . S
C1235 H1223 0.950 . S
C1235 C1231 1.393 . S
C1235 C1234 1.391 . S
H1236 C1244 0.950 . S
H1237 C1249 0.950 . S
H1238 C1246 0.950 . S
H1239 C1248 0.950 . S
H1240 C1250 0.950 . S
H1241 C1252 0.950 . S
H1242 C1254 0.950 . S
H1243 C1255 0.950 . S
C1244 H1236 0.950 . S
C1244 C1245 1.386 . S
C1244 C1246 1.391 . S
C1245 C1244 1.386 . S
C1245 C1249 1.393 . S
C1246 H1238 0.950 . S
C1246 C1244 1.391 . S
C1246 C1247 1.400 . S
C1247 C1246 1.400 . S
C1247 C1248 1.398 . S
C1247 C1253 1.491 . S
C1248 H1239 0.950 . S
C1248 C1247 1.398 . S
C1248 C1249 1.391 . S
C1249 H1237 0.950 . S
C1249 C1245 1.393 . S
C1249 C1248 1.391 . S
C1250 H1240 0.950 . S
C1250 C1251 1.386 . S
C1250 C1252 1.391 . S
C1251 C1250 1.386 . S
C1251 C1255 1.393 . S
C1252 H1241 0.950 . S
C1252 C1250 1.391 . S
C1252 C1253 1.400 . S
C1253 C1247 1.491 . S
C1253 C1252 1.400 . S
C1253 C1254 1.398 . S
C1254 H1242 0.950 . S
C1254 C1253 1.398 . S
C1254 C1255 1.391 . S
C1255 H1243 0.950 . S
C1255 C1251 1.393 . S
C1255 C1254 1.391 . S
H1256 C1264 0.950 . S
H1257 C1269 0.950 . S
H1258 C1266 0.950 . S
H1259 C1268 0.950 . S
H1260 C1270 0.950 . S
H1261 C1272 0.950 . S
H1262 C1274 0.950 . S
H1263 C1275 0.950 . S
C1264 H1256 0.950 . S
C1264 C1265 1.386 . S
C1264 C1266 1.391 . S
C1265 C1264 1.386 . S
C1265 C1269 1.393 . S
C1266 H1258 0.950 . S
C1266 C1264 1.391 . S
C1266 C1267 1.400 . S
C1267 C1266 1.400 . S
C1267 C1268 1.398 . S
C1267 C1273 1.491 . S
C1268 H1259 0.950 . S
C1268 C1267 1.398 . S
C1268 C1269 1.391 . S
C1269 H1257 0.950 . S
C1269 C1265 1.393 . S
C1269 C1268 1.391 . S
C1270 H1260 0.950 . S
C1270 C1271 1.386 . S
C1270 C1272 1.391 . S
C1271 C1270 1.386 . S
C1271 C1275 1.393 . S
C1272 H1261 0.950 . S
C1272 C1270 1.391 . S
C1272 C1273 1.400 . S
C1273 C1267 1.491 . S
C1273 C1272 1.400 . S
C1273 C1274 1.398 . S
C1274 H1262 0.950 . S
C1274 C1273 1.398 . S
C1274 C1275 1.391 . S
C1275 H1263 0.950 . S
C1275 C1271 1.393 . S
C1275 C1274 1.391 . S
H1276 C1284 0.950 . S
H1277 C1289 0.950 . S
H1278 C1286 0.950 . S
H1279 C1288 0.950 . S
H1280 C1290 0.950 . S
H1281 C1292 0.950 . S
H1282 C1294 0.950 . S
H1283 C1295 0.950 . S
C1284 H1276 0.950 . S
C1284 C1285 1.386 . S
C1284 C1286 1.391 . S
C1285 C1284 1.386 . S
C1285 C1289 1.393 . S
C1286 H1278 0.950 . S
C1286 C1284 1.391 . S
C1286 C1287 1.400 . S
C1287 C1286 1.400 . S
C1287 C1288 1.398 . S
C1287 C1293 1.491 . S
C1288 H1279 0.950 . S
C1288 C1287 1.398 . S
C1288 C1289 1.391 . S
C1289 H1277 0.950 . S
C1289 C1285 1.393 . S
C1289 C1288 1.391 . S
C1290 H1280 0.950 . S
C1290 C1291 1.386 . S
C1290 C1292 1.391 1_455 S
C1291 C1290 1.386 . S
C1291 C1295 1.393 . S
C1292 H1281 0.950 . S
C1292 C1290 1.391 1_655 S
C1292 C1293 1.400 . S
C1293 C1287 1.491 . S
C1293 C1292 1.400 . S
C1293 C1294 1.398 . S
C1294 H1282 0.950 . S
C1294 C1293 1.398 . S
C1294 C1295 1.391 1_655 S
C1295 H1283 0.950 . S
C1295 C1291 1.393 . S
C1295 C1294 1.391 1_455 S
H1296 C1304 0.950 . S
H1297 C1309 0.950 . S
H1298 C1306 0.950 . S
H1299 C1308 0.950 . S
H1300 C1310 0.950 . S
H1301 C1312 0.950 . S
H1302 C1314 0.950 . S
H1303 C1315 0.950 . S
C1304 H1296 0.950 . S
C1304 C1305 1.386 . S
C1304 C1306 1.391 . S
C1305 C1304 1.386 . S
C1305 C1309 1.393 . S
C1306 H1298 0.950 . S
C1306 C1304 1.391 . S
C1306 C1307 1.400 . S
C1307 C1306 1.400 . S
C1307 C1308 1.398 . S
C1307 C1313 1.491 . S
C1308 H1299 0.950 . S
C1308 C1307 1.398 . S
C1308 C1309 1.391 . S
C1309 H1297 0.950 . S
C1309 C1305 1.393 . S
C1309 C1308 1.391 . S
C1310 H1300 0.950 . S
C1310 C1311 1.386 . S
C1310 C1312 1.391 . S
C1311 C1310 1.386 . S
C1311 C1315 1.393 . S
C1312 H1301 0.950 . S
C1312 C1310 1.391 . S
C1312 C1313 1.400 . S
C1313 C1307 1.491 . S
C1313 C1312 1.400 . S
C1313 C1314 1.398 . S
C1314 H1302 0.950 . S
C1314 C1313 1.398 . S
C1314 C1315 1.391 . S
C1315 H1303 0.950 . S
C1315 C1311 1.393 . S
C1315 C1314 1.391 . S
H1316 C1324 0.950 . S
H1317 C1329 0.950 . S
H1318 C1326 0.951 . S
H1319 C1328 0.950 . S
H1320 C1330 0.950 . S
H1321 C1332 0.950 . S
H1322 C1334 0.950 . S
H1323 C1335 0.950 . S
C1324 H1316 0.950 . S
C1324 C1325 1.386 . S
C1324 C1326 1.424 . S
C1325 C1324 1.386 . S
C1325 C1329 1.405 . S
C1326 H1318 0.951 . S
C1326 C1324 1.424 . S
C1326 C1327 1.367 1_455 S
C1327 C1326 1.367 1_655 S
C1327 C1328 1.398 . S
C1327 C1333 1.491 . S
C1328 H1319 0.950 . S
C1328 C1327 1.398 . S
C1328 C1329 1.378 1_655 S
C1329 H1317 0.950 . S
C1329 C1325 1.405 . S
C1329 C1328 1.378 1_455 S
C1330 H1320 0.950 . S
C1330 C1331 1.386 . S
C1330 C1332 1.391 . S
C1331 C1330 1.386 . S
C1331 C1335 1.393 . S
C1332 H1321 0.950 . S
C1332 C1330 1.391 . S
C1332 C1333 1.400 . S
C1333 C1327 1.491 . S
C1333 C1332 1.400 . S
C1333 C1334 1.398 . S
C1334 H1322 0.950 . S
C1334 C1333 1.398 . S
C1334 C1335 1.391 . S
C1335 H1323 0.950 . S
C1335 C1331 1.393 . S
C1335 C1334 1.391 . S
H1336 C1344 0.950 . S
H1337 C1349 0.950 . S
H1338 C1346 0.950 . S
H1339 C1348 0.950 . S
H1340 C1350 0.950 . S
H1341 C1352 0.950 . S
H1342 C1354 0.950 . S
H1343 C1355 0.950 . S
C1344 H1336 0.950 . S
C1344 C1345 1.386 . S
C1344 C1346 1.391 . S
C1345 C1344 1.386 . S
C1345 C1349 1.393 . S
C1346 H1338 0.950 . S
C1346 C1344 1.391 . S
C1346 C1347 1.400 . S
C1347 C1346 1.400 . S
C1347 C1348 1.398 . S
C1347 C1353 1.491 . S
C1348 H1339 0.950 . S
C1348 C1347 1.398 . S
C1348 C1349 1.391 . S
C1349 H1337 0.950 . S
C1349 C1345 1.393 . S
C1349 C1348 1.391 . S
C1350 H1340 0.950 . S
C1350 C1351 1.386 . S
C1350 C1352 1.391 . S
C1351 C1350 1.386 . S
C1351 C1355 1.393 . S
C1352 H1341 0.950 . S
C1352 C1350 1.391 . S
C1352 C1353 1.400 . S
C1353 C1347 1.491 . S
C1353 C1352 1.400 . S
C1353 C1354 1.398 . S
C1354 H1342 0.950 . S
C1354 C1353 1.398 . S
C1354 C1355 1.391 . S
C1355 H1343 0.950 . S
C1355 C1351 1.393 . S
C1355 C1354 1.391 . S
H1356 C1364 0.950 . S
H1357 C1369 0.950 . S
H1358 C1366 0.950 . S
H1359 C1368 0.950 . S
H1360 C1370 0.950 . S
H1361 C1372 0.950 . S
H1362 C1374 0.950 . S
H1363 C1375 0.950 . S
C1364 H1356 0.950 . S
C1364 C1365 1.386 . S
C1364 C1366 1.391 . S
C1365 C1364 1.386 . S
C1365 C1369 1.393 . S
C1366 H1358 0.950 . S
C1366 C1364 1.391 . S
C1366 C1367 1.400 . S
C1367 C1366 1.400 . S
C1367 C1368 1.398 . S
C1367 C1373 1.491 . S
C1368 H1359 0.950 . S
C1368 C1367 1.398 . S
C1368 C1369 1.391 . S
C1369 H1357 0.950 . S
C1369 C1365 1.393 . S
C1369 C1368 1.391 . S
C1370 H1360 0.950 . S
C1370 C1371 1.386 . S
C1370 C1372 1.391 . S
C1371 C1370 1.386 . S
C1371 C1375 1.393 . S
C1372 H1361 0.950 . S
C1372 C1370 1.391 . S
C1372 C1373 1.400 . S
C1373 C1367 1.491 . S
C1373 C1372 1.400 . S
C1373 C1374 1.398 . S
C1374 H1362 0.950 . S
C1374 C1373 1.398 . S
C1374 C1375 1.391 . S
C1375 H1363 0.950 . S
C1375 C1371 1.393 . S
C1375 C1374 1.391 . S
H1376 C1384 0.950 . S
H1377 C1389 0.950 . S
H1378 C1386 0.950 . S
H1379 C1388 0.950 . S
H1380 C1390 0.950 . S
H1381 C1392 0.950 . S
H1382 C1394 0.950 . S
H1383 C1395 0.950 . S
C1384 H1376 0.950 . S
C1384 C1385 1.386 . S
C1384 C1386 1.391 . S
C1385 C1384 1.386 . S
C1385 C1389 1.393 . S
C1386 H1378 0.950 . S
C1386 C1384 1.391 . S
C1386 C1387 1.400 . S
C1387 C1386 1.400 . S
C1387 C1388 1.398 . S
C1387 C1393 1.491 . S
C1388 H1379 0.950 . S
C1388 C1387 1.398 . S
C1388 C1389 1.391 . S
C1389 H1377 0.950 . S
C1389 C1385 1.393 . S
C1389 C1388 1.391 . S
C1390 H1380 0.950 . S
C1390 C1391 1.386 . S
C1390 C1392 1.391 . S
C1391 C1390 1.386 . S
C1391 C1395 1.393 . S
C1392 H1381 0.950 . S
C1392 C1390 1.391 . S
C1392 C1393 1.400 . S
C1393 C1387 1.491 . S
C1393 C1392 1.400 . S
C1393 C1394 1.398 . S
C1394 H1382 0.950 . S
C1394 C1393 1.398 . S
C1394 C1395 1.391 . S
C1395 H1383 0.950 . S
C1395 C1391 1.393 . S
C1395 C1394 1.391 . S
H1396 C1404 0.950 . S
H1397 C1409 0.950 . S
H1398 C1406 0.950 . S
H1399 C1408 0.950 . S
H1400 C1410 0.950 . S
H1401 C1412 0.950 . S
H1402 C1414 0.950 . S
H1403 C1415 0.950 . S
C1404 H1396 0.950 . S
C1404 C1405 1.386 . S
C1404 C1406 1.391 . S
C1405 C1404 1.386 . S
C1405 C1409 1.393 . S
C1406 H1398 0.950 . S
C1406 C1404 1.391 . S
C1406 C1407 1.400 . S
C1407 C1406 1.400 . S
C1407 C1408 1.398 . S
C1407 C1413 1.491 . S
C1408 H1399 0.950 . S
C1408 C1407 1.398 . S
C1408 C1409 1.391 . S
C1409 H1397 0.950 . S
C1409 C1405 1.393 . S
C1409 C1408 1.391 . S
C1410 H1400 0.950 . S
C1410 C1411 1.386 . S
C1410 C1412 1.391 . S
C1411 C1410 1.386 . S
C1411 C1415 1.393 . S
C1412 H1401 0.950 . S
C1412 C1410 1.391 . S
C1412 C1413 1.400 . S
C1413 C1407 1.491 . S
C1413 C1412 1.400 . S
C1413 C1414 1.398 . S
C1414 H1402 0.950 . S
C1414 C1413 1.398 . S
C1414 C1415 1.391 . S
C1415 H1403 0.950 . S
C1415 C1411 1.393 . S
C1415 C1414 1.391 . S
H1416 C1424 0.950 . S
H1417 C1429 0.950 . S
H1418 C1426 0.950 . S
H1419 C1428 0.950 . S
H1420 C1430 0.950 . S
H1421 C1432 0.950 . S
H1422 C1434 0.950 . S
H1423 C1435 0.950 . S
C1424 H1416 0.950 . S
C1424 C1425 1.386 . S
C1424 C1426 1.391 . S
C1425 C1424 1.386 . S
C1425 C1429 1.393 . S
C1426 H1418 0.950 . S
C1426 C1424 1.391 . S
C1426 C1427 1.400 . S
C1427 C1426 1.400 . S
C1427 C1428 1.398 . S
C1427 C1433 1.491 . S
C1428 H1419 0.950 . S
C1428 C1427 1.398 . S
C1428 C1429 1.391 . S
C1429 H1417 0.950 . S
C1429 C1425 1.393 . S
C1429 C1428 1.391 . S
C1430 H1420 0.950 . S
C1430 C1431 1.386 . S
C1430 C1432 1.391 . S
C1431 C1430 1.386 . S
C1431 C1435 1.393 . S
C1432 H1421 0.950 . S
C1432 C1430 1.391 . S
C1432 C1433 1.400 . S
C1433 C1427 1.491 . S
C1433 C1432 1.400 . S
C1433 C1434 1.398 . S
C1434 H1422 0.950 . S
C1434 C1433 1.398 . S
C1434 C1435 1.391 . S
C1435 H1423 0.950 . S
C1435 C1431 1.393 . S
C1435 C1434 1.391 . S
H1436 C1444 0.950 . S
H1437 C1449 0.950 . S
H1438 C1446 0.950 . S
H1439 C1448 0.950 . S
H1440 C1450 0.950 . S
H1441 C1452 0.950 . S
H1442 C1454 0.950 . S
H1443 C1455 0.950 . S
C1444 H1436 0.950 . S
C1444 C1445 1.386 . S
C1444 C1446 1.391 . S
C1445 C1444 1.386 . S
C1445 C1449 1.393 1_556 S
C1446 H1438 0.950 . S
C1446 C1444 1.391 . S
C1446 C1447 1.400 . S
C1447 C1446 1.400 . S
C1447 C1448 1.398 1_556 S
C1447 C1453 1.491 1_556 S
C1448 H1439 0.950 . S
C1448 C1447 1.398 1_554 S
C1448 C1449 1.391 . S
C1449 H1437 0.950 . S
C1449 C1445 1.393 1_554 S
C1449 C1448 1.391 . S
C1450 H1440 0.950 . S
C1450 C1451 1.386 . S
C1450 C1452 1.391 . S
C1451 C1450 1.386 . S
C1451 C1455 1.393 1_554 S
C1452 H1441 0.950 . S
C1452 C1450 1.391 . S
C1452 C1453 1.400 . S
C1453 C1447 1.491 1_554 S
C1453 C1452 1.400 . S
C1453 C1454 1.398 1_554 S
C1454 H1442 0.950 . S
C1454 C1453 1.398 1_556 S
C1454 C1455 1.391 . S
C1455 H1443 0.950 . S
C1455 C1451 1.393 1_556 S
C1455 C1454 1.391 . S
H1456 C1464 0.950 . S
H1457 C1469 0.950 . S
H1458 C1466 0.950 . S
H1459 C1468 0.950 . S
H1460 C1470 0.950 . S
H1461 C1472 0.950 . S
H1462 C1474 0.950 . S
H1463 C1475 0.950 . S
C1464 H1456 0.950 . S
C1464 C1465 1.386 . S
C1464 C1466 1.391 . S
C1465 C1464 1.386 . S
C1465 C1469 1.393 . S
C1466 H1458 0.950 . S
C1466 C1464 1.391 . S
C1466 C1467 1.400 . S
C1467 C1466 1.400 . S
C1467 C1468 1.398 . S
C1467 C1473 1.491 . S
C1468 H1459 0.950 . S
C1468 C1467 1.398 . S
C1468 C1469 1.391 . S
C1469 H1457 0.950 . S
C1469 C1465 1.393 . S
C1469 C1468 1.391 . S
C1470 H1460 0.950 . S
C1470 C1471 1.386 . S
C1470 C1472 1.391 . S
C1471 C1470 1.386 . S
C1471 C1475 1.393 . S
C1472 H1461 0.950 . S
C1472 C1470 1.391 . S
C1472 C1473 1.400 . S
C1473 C1467 1.491 . S
C1473 C1472 1.400 . S
C1473 C1474 1.398 . S
C1474 H1462 0.950 . S
C1474 C1473 1.398 . S
C1474 C1475 1.391 . S
C1475 H1463 0.950 . S
C1475 C1471 1.393 . S
C1475 C1474 1.391 . S
H1476 C1484 0.950 . S
H1477 C1489 0.950 . S
H1478 C1486 0.950 . S
H1479 C1488 0.950 . S
H1480 C1490 0.950 . S
H1481 C1492 0.950 . S
H1482 C1494 0.950 . S
H1483 C1495 0.950 . S
C1484 H1476 0.950 . S
C1484 C1485 1.386 . S
C1484 C1486 1.391 . S
C1485 C1484 1.386 . S
C1485 C1489 1.393 . S
C1486 H1478 0.950 . S
C1486 C1484 1.391 . S
C1486 C1487 1.400 . S
C1487 C1486 1.400 . S
C1487 C1488 1.398 . S
C1487 C1493 1.491 . S
C1488 H1479 0.950 . S
C1488 C1487 1.398 . S
C1488 C1489 1.391 . S
C1489 H1477 0.950 . S
C1489 C1485 1.393 . S
C1489 C1488 1.391 . S
C1490 H1480 0.950 . S
C1490 C1491 1.386 . S
C1490 C1492 1.391 . S
C1491 C1490 1.386 . S
C1491 C1495 1.393 . S
C1492 H1481 0.950 . S
C1492 C1490 1.391 . S
C1492 C1493 1.400 . S
C1493 C1487 1.491 . S
C1493 C1492 1.400 . S
C1493 C1494 1.398 . S
C1494 H1482 0.950 . S
C1494 C1493 1.398 . S
C1494 C1495 1.391 . S
C1495 H1483 0.950 . S
C1495 C1491 1.393 . S
C1495 C1494 1.391 . S
H1496 C1504 0.950 . S
H1497 C1509 0.950 . S
H1498 C1506 0.950 . S
H1499 C1508 0.950 . S
H1500 C1510 0.950 . S
H1501 C1512 0.950 . S
H1502 C1514 0.950 . S
H1503 C1515 0.950 . S
C1504 H1496 0.950 . S
C1504 C1505 1.386 . S
C1504 C1506 1.391 . S
C1505 C1504 1.386 . S
C1505 C1509 1.393 . S
C1506 H1498 0.950 . S
C1506 C1504 1.391 . S
C1506 C1507 1.400 . S
C1507 C1506 1.400 . S
C1507 C1508 1.398 . S
C1507 C1513 1.491 . S
C1508 H1499 0.950 . S
C1508 C1507 1.398 . S
C1508 C1509 1.391 . S
C1509 H1497 0.950 . S
C1509 C1505 1.393 . S
C1509 C1508 1.391 . S
C1510 H1500 0.950 . S
C1510 C1511 1.386 . S
C1510 C1512 1.391 . S
C1511 C1510 1.386 . S
C1511 C1515 1.393 . S
C1512 H1501 0.950 . S
C1512 C1510 1.391 . S
C1512 C1513 1.400 . S
C1513 C1507 1.491 . S
C1513 C1512 1.400 . S
C1513 C1514 1.398 . S
C1514 H1502 0.950 . S
C1514 C1513 1.398 . S
C1514 C1515 1.391 . S
C1515 H1503 0.950 . S
C1515 C1511 1.393 . S
C1515 C1514 1.391 . S
H1516 C1524 0.950 . S
H1517 C1529 0.950 . S
H1518 C1526 0.950 . S
H1519 C1528 0.950 . S
H1520 C1530 0.950 . S
H1521 C1532 0.950 . S
H1522 C1534 0.950 . S
H1523 C1535 0.950 . S
C1524 H1516 0.950 . S
C1524 C1525 1.386 1_556 S
C1524 C1526 1.391 . S
C1525 C1524 1.386 1_554 S
C1525 C1529 1.393 . S
C1526 H1518 0.950 . S
C1526 C1524 1.391 . S
C1526 C1527 1.400 1_556 S
C1527 C1526 1.400 1_554 S
C1527 C1528 1.398 . S
C1527 C1533 1.491 1_554 S
C1528 H1519 0.950 . S
C1528 C1527 1.398 . S
C1528 C1529 1.391 . S
C1529 H1517 0.950 . S
C1529 C1525 1.393 . S
C1529 C1528 1.391 . S
C1530 H1520 0.950 . S
C1530 C1531 1.386 1_554 S
C1530 C1532 1.391 . S
C1531 C1530 1.386 1_556 S
C1531 C1535 1.393 . S
C1532 H1521 0.950 . S
C1532 C1530 1.391 . S
C1532 C1533 1.400 1_554 S
C1533 C1527 1.491 1_556 S
C1533 C1532 1.400 1_556 S
C1533 C1534 1.398 . S
C1534 H1522 0.950 . S
C1534 C1533 1.398 . S
C1534 C1535 1.391 . S
C1535 H1523 0.950 . S
C1535 C1531 1.393 . S
C1535 C1534 1.391 . S
H1536 C1544 0.950 . S
H1537 C1549 0.950 . S
H1538 C1546 0.950 . S
H1539 C1548 0.950 . S
H1540 C1550 0.950 . S
H1541 C1552 0.950 . S
H1542 C1554 0.950 . S
H1543 C1555 0.950 . S
C1544 H1536 0.950 . S
C1544 C1545 1.386 . S
C1544 C1546 1.391 . S
C1545 C1544 1.386 . S
C1545 C1549 1.393 . S
C1546 H1538 0.950 . S
C1546 C1544 1.391 . S
C1546 C1547 1.400 . S
C1547 C1546 1.400 . S
C1547 C1548 1.398 . S
C1547 C1553 1.491 1_565 S
C1548 H1539 0.950 . S
C1548 C1547 1.398 . S
C1548 C1549 1.391 . S
C1549 H1537 0.950 . S
C1549 C1545 1.393 . S
C1549 C1548 1.391 . S
C1550 H1540 0.950 . S
C1550 C1551 1.386 . S
C1550 C1552 1.391 . S
C1551 C1550 1.386 . S
C1551 C1555 1.393 . S
C1552 H1541 0.950 . S
C1552 C1550 1.391 . S
C1552 C1553 1.400 . S
C1553 C1547 1.491 1_545 S
C1553 C1552 1.400 . S
C1553 C1554 1.398 . S
C1554 H1542 0.950 . S
C1554 C1553 1.398 . S
C1554 C1555 1.391 . S
C1555 H1543 0.950 . S
C1555 C1551 1.393 . S
C1555 C1554 1.391 . S
H1556 C1564 0.950 . S
H1557 C1569 0.950 . S
H1558 C1566 0.950 . S
H1559 C1568 0.939 1_556 S
H1560 C1570 0.950 . S
H1561 C1572 0.950 . S
H1562 C1574 0.939 1_554 S
H1563 C1575 0.950 . S
C1564 H1556 0.950 . S
C1564 C1565 1.386 . S
C1564 C1566 1.391 . S
C1565 C1564 1.386 . S
C1565 C1569 1.393 . S
C1566 H1558 0.950 . S
C1566 C1564 1.391 . S
C1566 C1567 1.400 . S
C1567 C1566 1.400 . S
C1567 C1568 1.398 . S
C1567 C1573 1.491 1_554 S
C1568 H1559 0.939 1_554 S
C1568 C1567 1.398 . S
C1568 C1569 1.391 . S
C1569 H1557 0.950 . S
C1569 C1565 1.393 . S
C1569 C1568 1.391 . S
C1570 H1560 0.950 . S
C1570 C1571 1.386 . S
C1570 C1572 1.391 . S
C1571 C1570 1.386 . S
C1571 C1575 1.393 . S
C1572 H1561 0.950 . S
C1572 C1570 1.391 . S
C1572 C1573 1.400 . S
C1573 C1567 1.491 1_556 S
C1573 C1572 1.400 . S
C1573 C1574 1.398 . S
C1574 H1562 0.939 1_556 S
C1574 C1573 1.398 . S
C1574 C1575 1.391 . S
C1575 H1563 0.950 . S
C1575 C1571 1.393 . S
C1575 C1574 1.391 . S
H1576 C1584 0.950 . S
H1577 C1589 0.950 . S
H1578 C1586 0.950 . S
H1579 C1588 0.950 . S
H1580 C1590 0.950 . S
H1581 C1592 0.950 . S
H1582 C1594 0.950 . S
H1583 C1595 0.950 . S
C1584 H1576 0.950 . S
C1584 C1585 1.386 . S
C1584 C1586 1.391 . S
C1585 C1584 1.386 . S
C1585 C1589 1.393 . S
C1586 H1578 0.950 . S
C1586 C1584 1.391 . S
C1586 C1587 1.400 . S
C1587 C1586 1.400 . S
C1587 C1588 1.398 . S
C1587 C1593 1.491 1_545 S
C1588 H1579 0.950 . S
C1588 C1587 1.398 . S
C1588 C1589 1.391 . S
C1589 H1577 0.950 . S
C1589 C1585 1.393 . S
C1589 C1588 1.391 . S
C1590 H1580 0.950 . S
C1590 C1591 1.386 . S
C1590 C1592 1.391 . S
C1591 C1590 1.386 . S
C1591 C1595 1.393 . S
C1592 H1581 0.950 . S
C1592 C1590 1.391 . S
C1592 C1593 1.400 . S
C1593 C1587 1.491 1_565 S
C1593 C1592 1.400 . S
C1593 C1594 1.398 . S
C1594 H1582 0.950 . S
C1594 C1593 1.398 . S
C1594 C1595 1.391 . S
C1595 H1583 0.950 . S
C1595 C1591 1.393 . S
C1595 C1594 1.391 . S
H1596 C1604 0.950 . S
H1597 C1609 0.950 . S
H1598 C1606 0.950 . S
H1599 C1608 0.950 . S
H1600 C1610 0.950 . S
H1601 C1612 0.950 . S
H1602 C1614 0.950 . S
H1603 C1615 0.950 . S
C1604 H1596 0.950 . S
C1604 C1605 1.386 . S
C1604 C1606 1.391 . S
C1605 C1604 1.386 . S
C1605 C1609 1.393 . S
C1606 H1598 0.950 . S
C1606 C1604 1.391 . S
C1606 C1607 1.400 . S
C1607 C1606 1.400 . S
C1607 C1608 1.398 . S
C1607 C1613 1.491 . S
C1608 H1599 0.950 . S
C1608 C1607 1.398 . S
C1608 C1609 1.391 . S
C1609 H1597 0.950 . S
C1609 C1605 1.393 . S
C1609 C1608 1.391 . S
C1610 H1600 0.950 . S
C1610 C1611 1.386 . S
C1610 C1612 1.391 . S
C1611 C1610 1.386 . S
C1611 C1615 1.393 . S
C1612 H1601 0.950 . S
C1612 C1610 1.391 . S
C1612 C1613 1.400 . S
C1613 C1607 1.491 . S
C1613 C1612 1.400 . S
C1613 C1614 1.398 . S
C1614 H1602 0.950 . S
C1614 C1613 1.398 . S
C1614 C1615 1.391 . S
C1615 H1603 0.950 . S
C1615 C1611 1.393 . S
C1615 C1614 1.391 . S
H1616 C1624 0.950 . S
H1617 C1629 0.950 . S
H1618 C1626 0.950 . S
H1619 C1628 0.950 . S
H1620 C1630 0.950 . S
H1621 C1632 0.950 . S
H1622 C1634 0.950 . S
H1623 C1635 0.950 . S
C1624 H1616 0.950 . S
C1624 C1625 1.386 . S
C1624 C1626 1.391 . S
C1625 C1624 1.386 . S
C1625 C1629 1.393 . S
C1626 H1618 0.950 . S
C1626 C1624 1.391 . S
C1626 C1627 1.400 . S
C1627 C1626 1.400 . S
C1627 C1628 1.398 . S
C1627 C1633 1.491 1_545 S
C1628 H1619 0.950 . S
C1628 C1627 1.398 . S
C1628 C1629 1.391 . S
C1629 H1617 0.950 . S
C1629 C1625 1.393 . S
C1629 C1628 1.391 . S
C1630 H1620 0.950 . S
C1630 C1631 1.386 . S
C1630 C1632 1.391 . S
C1631 C1630 1.386 . S
C1631 C1635 1.393 . S
C1632 H1621 0.950 . S
C1632 C1630 1.391 . S
C1632 C1633 1.400 . S
C1633 C1627 1.491 1_565 S
C1633 C1632 1.400 . S
C1633 C1634 1.398 . S
C1634 H1622 0.950 . S
C1634 C1633 1.398 . S
C1634 C1635 1.391 . S
C1635 H1623 0.950 . S
C1635 C1631 1.393 . S
C1635 C1634 1.391 . S
H1636 C1644 0.950 . S
H1637 C1649 0.950 . S
H1638 C1646 0.950 . S
H1639 C1648 0.950 . S
H1640 C1650 0.950 . S
H1641 C1652 0.950 . S
H1642 C1654 0.950 . S
H1643 C1655 0.950 . S
C1644 H1636 0.950 . S
C1644 C1645 1.386 . S
C1644 C1646 1.391 . S
C1645 C1644 1.386 . S
C1645 C1649 1.393 . S
C1646 H1638 0.950 . S
C1646 C1644 1.391 . S
C1646 C1647 1.400 . S
C1647 C1646 1.400 . S
C1647 C1648 1.398 . S
C1647 C1653 1.491 1_554 S
C1648 H1639 0.950 . S
C1648 C1647 1.398 . S
C1648 C1649 1.391 . S
C1649 H1637 0.950 . S
C1649 C1645 1.393 . S
C1649 C1648 1.391 . S
C1650 H1640 0.950 . S
C1650 C1651 1.386 . S
C1650 C1652 1.391 . S
C1651 C1650 1.386 . S
C1651 C1655 1.393 . S
C1652 H1641 0.950 . S
C1652 C1650 1.391 . S
C1652 C1653 1.400 . S
C1653 C1647 1.491 1_556 S
C1653 C1652 1.400 . S
C1653 C1654 1.398 . S
C1654 H1642 0.950 . S
C1654 C1653 1.398 . S
C1654 C1655 1.391 . S
C1655 H1643 0.950 . S
C1655 C1651 1.393 . S
C1655 C1654 1.391 . S
H1656 C1664 0.950 . S
H1657 C1669 0.950 . S
H1658 C1666 0.950 . S
H1659 C1668 0.950 . S
H1660 C1670 0.950 . S
H1661 C1672 0.950 . S
H1662 C1674 0.950 . S
H1663 C1675 0.950 . S
C1664 H1656 0.950 . S
C1664 C1665 1.386 . S
C1664 C1666 1.391 . S
C1665 C1664 1.386 . S
C1665 C1669 1.393 . S
C1666 H1658 0.950 . S
C1666 C1664 1.391 . S
C1666 C1667 1.400 . S
C1667 C1666 1.400 . S
C1667 C1668 1.398 . S
C1667 C1673 1.491 1_545 S
C1668 H1659 0.950 . S
C1668 C1667 1.398 . S
C1668 C1669 1.391 . S
C1669 H1657 0.950 . S
C1669 C1665 1.393 . S
C1669 C1668 1.391 . S
C1670 H1660 0.950 . S
C1670 C1671 1.386 . S
C1670 C1672 1.391 . S
C1671 C1670 1.386 . S
C1671 C1675 1.393 . S
C1672 H1661 0.950 . S
C1672 C1670 1.391 . S
C1672 C1673 1.400 . S
C1673 C1667 1.491 1_565 S
C1673 C1672 1.400 . S
C1673 C1674 1.398 . S
C1674 H1662 0.950 . S
C1674 C1673 1.398 . S
C1674 C1675 1.391 . S
C1675 H1663 0.950 . S
C1675 C1671 1.393 . S
C1675 C1674 1.391 . S
H1676 C1684 0.950 . S
H1677 C1689 0.950 . S
H1678 C1686 0.950 . S
H1679 C1688 0.950 . S
H1680 C1690 0.950 . S
H1681 C1692 0.950 . S
H1682 C1694 0.950 . S
H1683 C1695 0.950 . S
C1684 H1676 0.950 . S
C1684 C1685 1.386 . S
C1684 C1686 1.391 . S
C1685 C1684 1.386 . S
C1685 C1689 1.393 . S
C1686 H1678 0.950 . S
C1686 C1684 1.391 . S
C1686 C1687 1.400 . S
C1687 C1686 1.400 . S
C1687 C1688 1.398 . S
C1687 C1693 1.491 . S
C1688 H1679 0.950 . S
C1688 C1687 1.398 . S
C1688 C1689 1.391 . S
C1689 H1677 0.950 . S
C1689 C1685 1.393 . S
C1689 C1688 1.391 . S
C1690 H1680 0.950 . S
C1690 C1691 1.386 . S
C1690 C1692 1.391 . S
C1691 C1690 1.386 . S
C1691 C1695 1.393 . S
C1692 H1681 0.950 . S
C1692 C1690 1.391 . S
C1692 C1693 1.400 . S
C1693 C1687 1.491 . S
C1693 C1692 1.400 . S
C1693 C1694 1.398 . S
C1694 H1682 0.950 . S
C1694 C1693 1.398 . S
C1694 C1695 1.391 . S
C1695 H1683 0.950 . S
C1695 C1691 1.393 . S
C1695 C1694 1.391 . S
C425 C4 1.617 . S
C431 C283 1.615 . S
C445 C290 1.617 . S
C451 C23 1.615 . S
C465 C30 1.614 . S
C471 C309 1.616 . S
C485 C270 1.614 . S
C491 C43 1.616 . S
C505 C56 1.617 . S
C511 C257 1.615 . S
C525 C75 1.615 . S
C531 C212 1.614 . S
C545 C231 1.615 . S
C551 C82 1.613 . S
C565 C101 1.614 . S
C571 C238 1.615 . S
C585 C114 1.615 . S
C591 C387 1.614 . S
C605 C127 1.614 . S
C611 C400 1.616 . S
C625 C407 1.614 . S
C631 C134 1.615 . S
C645 C374 1.616 . S
C651 C153 1.616 . S
C665 C160 1.616 . S
C671 C361 1.616 . S
C685 C322 1.616 . S
C691 C179 1.616 . S
C705 C192 1.616 . S
C711 C335 1.616 . S
C725 C348 1.615 . S
C731 C205 1.614 . S
C745 C3 1.387 . S
C751 C120 1.401 . S
C765 C18 1.390 . S
C771 C341 1.400 . S
C785 C146 1.401 . S
C791 C29 1.388 . S
C805 C42 1.387 . S
C811 C315 1.399 . S
C825 C55 1.372 . S
C831 C198 1.402 . S
C845 C367 1.402 . S
C851 C70 1.383 . S
C865 C172 1.402 . S
C871 C81 1.384 . S
C885 C393 1.401 . S
C891 C96 1.385 . S
C905 C109 1.373 . S
C911 C16 1.401 . S
C925 C239 1.401 . S
C931 C122 1.373 . S
C945 C44 1.399 . S
C951 C133 1.386 . S
C965 C148 1.388 . S
C971 C213 1.399 . S
C985 C94 1.402 . S
C991 C159 1.375 . S
C1005 C263 1.400 . S
C1011 C174 1.381 . S
C1025 C68 1.401 . S
C1031 C187 1.385 . S
C1045 C200 1.379 . S
C1051 C291 1.402 . S
C1065 C328 1.399 . S
C1071 C211 1.385 . S
C1085 C135 1.402 . S
C1091 C226 1.374 . S
C1105 C354 1.400 . S
C1111 C237 1.380 . S
C1125 C252 1.389 . S
C1131 C107 1.400 . S
C1145 C408 1.399 . S
C1151 C265 1.385 . S
C1165 C161 1.402 . S
C1171 C278 1.377 . S
C1185 C380 1.400 . S
C1191 C289 1.382 . S
C1205 C304 1.390 . S
C1211 C185 1.400 . S
C1225 C317 1.385 . S
C1231 C224 1.401 . S
C1245 C31 1.401 . S
C1251 C330 1.373 . S
C1265 C343 1.388 . S
C1271 C250 1.399 . S
C1285 C356 1.385 . S
C1291 C5 1.401 . S
C1305 C369 1.378 . S
C1311 C302 1.402 . S
C1325 C57 1.402 . S
C1331 C382 1.375 . S
C1345 C276 1.400 . S
C1351 C395 1.380 . S
C1365 C406 1.384 . S
C1371 C83 1.402 . S
C1385 C10 1.279 . S
C1391 C62 1.280 . S
C1405 C17 1.288 . S
C1411 C69 1.293 . S
C1425 C88 1.293 . S
C1431 C36 1.292 . S
C1445 C95 1.286 . S
C1451 C49 1.280 . S
C1465 C166 1.293 . S
C1471 C108 1.293 . S
C1485 C173 1.281 . S
C1491 C121 1.288 . S
C1505 C186 1.289 . S
C1511 C140 1.282 . S
C1525 C199 1.290 . S
C1531 C147 1.283 . S
C1545 C218 1.283 . S
C1551 C264 1.290 . S
C1565 C225 1.280 . S
C1571 C277 1.280 . S
C1585 C244 1.289 . S
C1591 C296 1.282 . S
C1605 C303 1.287 . S
C1611 C251 1.293 . S
C1625 C316 1.288 . S
C1631 C368 1.281 . S
C1645 C381 1.292 . S
C1651 C329 1.293 . S
C1665 C394 1.291 . S
C1671 C342 1.293 . S
C1685 C413 1.279 . S
C1691 C355 1.281 . S
