# Generated by pormake.
# Topology vbw, (6)-cn, num edge types: 1
# Building blocks:
#     Node 0, Type 0, BuildingBlock: IZENUY_clean_sbu_0, # of connection points: 6
#     Node 1, Type 0, BuildingBlock: IZENUY_clean_sbu_0, # of connection points: 6
#     Node 2, Type 0, BuildingBlock: IZENUY_clean_sbu_0, # of connection points: 6
#     Node 3, Type 0, BuildingBlock: IZENUY_clean_sbu_0, # of connection points: 6
#     Node 4, Type 0, BuildingBlock: IZENUY_clean_sbu_0, # of connection points: 6
#     Node 5, Type 0, BuildingBlock: IZENUY_clean_sbu_0, # of connection points: 6
#     Node 6, Type 0, BuildingBlock: IZENUY_clean_sbu_0, # of connection points: 6
#     Node 7, Type 0, BuildingBlock: IZENUY_clean_sbu_0, # of connection points: 6
#     Node 8, Type 0, BuildingBlock: IZENUY_clean_sbu_0, # of connection points: 6
#     Node 9, Type 0, BuildingBlock: IZENUY_clean_sbu_0, # of connection points: 6
#     Node 10, Type 0, BuildingBlock: IZENUY_clean_sbu_0, # of connection points: 6
#     Node 11, Type 0, BuildingBlock: IZENUY_clean_sbu_0, # of connection points: 6
#     Node 12, Type 0, BuildingBlock: IZENUY_clean_sbu_0, # of connection points: 6
#     Node 13, Type 0, BuildingBlock: IZENUY_clean_sbu_0, # of connection points: 6
#     Node 14, Type 0, BuildingBlock: IZENUY_clean_sbu_0, # of connection points: 6
#     Node 15, Type 0, BuildingBlock: IZENUY_clean_sbu_0, # of connection points: 6
#     Edge 16, Type (0, 0), BuildingBlock: AJUNOK_clean_linker_0, # of connection points: 2
#     Edge 17, Type (0, 0), BuildingBlock: AJUNOK_clean_linker_0, # of connection points: 2
#     Edge 18, Type (0, 0), BuildingBlock: AJUNOK_clean_linker_0, # of connection points: 2
#     Edge 19, Type (0, 0), BuildingBlock: AJUNOK_clean_linker_0, # of connection points: 2
#     Edge 20, Type (0, 0), BuildingBlock: AJUNOK_clean_linker_0, # of connection points: 2
#     Edge 21, Type (0, 0), BuildingBlock: AJUNOK_clean_linker_0, # of connection points: 2
#     Edge 22, Type (0, 0), BuildingBlock: AJUNOK_clean_linker_0, # of connection points: 2
#     Edge 23, Type (0, 0), BuildingBlock: AJUNOK_clean_linker_0, # of connection points: 2
#     Edge 24, Type (0, 0), BuildingBlock: AJUNOK_clean_linker_0, # of connection points: 2
#     Edge 25, Type (0, 0), BuildingBlock: AJUNOK_clean_linker_0, # of connection points: 2
#     Edge 26, Type (0, 0), BuildingBlock: AJUNOK_clean_linker_0, # of connection points: 2
#     Edge 27, Type (0, 0), BuildingBlock: AJUNOK_clean_linker_0, # of connection points: 2
#     Edge 28, Type (0, 0), BuildingBlock: AJUNOK_clean_linker_0, # of connection points: 2
#     Edge 29, Type (0, 0), BuildingBlock: AJUNOK_clean_linker_0, # of connection points: 2
#     Edge 30, Type (0, 0), BuildingBlock: AJUNOK_clean_linker_0, # of connection points: 2
#     Edge 31, Type (0, 0), BuildingBlock: AJUNOK_clean_linker_0, # of connection points: 2
#     Edge 32, Type (0, 0), BuildingBlock: AJUNOK_clean_linker_0, # of connection points: 2
#     Edge 33, Type (0, 0), BuildingBlock: AJUNOK_clean_linker_0, # of connection points: 2
#     Edge 34, Type (0, 0), BuildingBlock: AJUNOK_clean_linker_0, # of connection points: 2
#     Edge 35, Type (0, 0), BuildingBlock: AJUNOK_clean_linker_0, # of connection points: 2
#     Edge 36, Type (0, 0), BuildingBlock: AJUNOK_clean_linker_0, # of connection points: 2
#     Edge 37, Type (0, 0), BuildingBlock: AJUNOK_clean_linker_0, # of connection points: 2
#     Edge 38, Type (0, 0), BuildingBlock: AJUNOK_clean_linker_0, # of connection points: 2
#     Edge 39, Type (0, 0), BuildingBlock: AJUNOK_clean_linker_0, # of connection points: 2
#     Edge 40, Type (0, 0), BuildingBlock: AJUNOK_clean_linker_0, # of connection points: 2
#     Edge 41, Type (0, 0), BuildingBlock: AJUNOK_clean_linker_0, # of connection points: 2
#     Edge 42, Type (0, 0), BuildingBlock: AJUNOK_clean_linker_0, # of connection points: 2
#     Edge 43, Type (0, 0), BuildingBlock: AJUNOK_clean_linker_0, # of connection points: 2
#     Edge 44, Type (0, 0), BuildingBlock: AJUNOK_clean_linker_0, # of connection points: 2
#     Edge 45, Type (0, 0), BuildingBlock: AJUNOK_clean_linker_0, # of connection points: 2
#     Edge 46, Type (0, 0), BuildingBlock: AJUNOK_clean_linker_0, # of connection points: 2
#     Edge 47, Type (0, 0), BuildingBlock: AJUNOK_clean_linker_0, # of connection points: 2
#     Edge 48, Type (0, 0), BuildingBlock: AJUNOK_clean_linker_0, # of connection points: 2
#     Edge 49, Type (0, 0), BuildingBlock: AJUNOK_clean_linker_0, # of connection points: 2
#     Edge 50, Type (0, 0), BuildingBlock: AJUNOK_clean_linker_0, # of connection points: 2
#     Edge 51, Type (0, 0), BuildingBlock: AJUNOK_clean_linker_0, # of connection points: 2
#     Edge 52, Type (0, 0), BuildingBlock: AJUNOK_clean_linker_0, # of connection points: 2
#     Edge 53, Type (0, 0), BuildingBlock: AJUNOK_clean_linker_0, # of connection points: 2
#     Edge 54, Type (0, 0), BuildingBlock: AJUNOK_clean_linker_0, # of connection points: 2
#     Edge 55, Type (0, 0), BuildingBlock: AJUNOK_clean_linker_0, # of connection points: 2
#     Edge 56, Type (0, 0), BuildingBlock: AJUNOK_clean_linker_0, # of connection points: 2
#     Edge 57, Type (0, 0), BuildingBlock: AJUNOK_clean_linker_0, # of connection points: 2
#     Edge 58, Type (0, 0), BuildingBlock: AJUNOK_clean_linker_0, # of connection points: 2
#     Edge 59, Type (0, 0), BuildingBlock: AJUNOK_clean_linker_0, # of connection points: 2
#     Edge 60, Type (0, 0), BuildingBlock: AJUNOK_clean_linker_0, # of connection points: 2
#     Edge 61, Type (0, 0), BuildingBlock: AJUNOK_clean_linker_0, # of connection points: 2
#     Edge 62, Type (0, 0), BuildingBlock: AJUNOK_clean_linker_0, # of connection points: 2
#     Edge 63, Type (0, 0), BuildingBlock: AJUNOK_clean_linker_0, # of connection points: 2
# Relax obj value: 0.218
# Max RMSD: 0.233
# Mean RMSD: 0.232
data_MOF--net-vbw--node1-IZENUY_clean_sbu_0--edge1-AJUNOK_clean_linker_0
_symmetry_space_group_name_H-M    P1
_symmetry_Int_Tables_number       1
_symmetry_cell_setting            triclinic
loop_
_symmetry_equiv_pos_as_xyz
'x, y, z'
_cell_length_a     41.380742
_cell_length_b     33.628558
_cell_length_c     20.237628
_cell_angle_alpha  90.025813
_cell_angle_beta   89.970808
_cell_angle_gamma 90.061453
loop_
_atom_site_label
_atom_site_type_symbol
_atom_site_fract_x
_atom_site_fract_y
_atom_site_fract_z
_atom_type_partial_charge
Fe0 Fe 0.13705 0.24142 0.12431 0.0
Fe1 Fe 0.13396 0.16219 0.1986 0.0
O2 O 0.15004 0.19191 0.13462 0.0
Fe3 Fe 0.17972 0.17238 0.08143 0.0
O4 O 0.20824 0.20891 0.10846 0.0
O5 O 0.17633 0.25983 0.09299 0.0
O6 O 0.15085 0.2546 0.2055 0.0
C7 C 0.14131 0.23846 0.25798 0.0
C8 C 0.14179 0.22243 0.99594 0.0
O9 O 0.12768 0.20448 0.25671 0.0
C10 C 0.1395 0.10892 0.08888 0.0
O11 O 0.09549 0.23164 0.15311 0.0
O12 O 0.09364 0.16671 0.1652 0.0
O13 O 0.16742 0.2029 1.00871 0.0
O14 O 0.12272 0.23111 0.04205 0.0
C15 C 0.19837 0.14401 0.20706 0.0
O16 O 0.13756 0.11481 0.15109 0.0
O17 O 0.1525 0.13455 0.05221 0.0
C18 C 0.07953 0.19939 0.15506 0.0
O19 O 0.17345 0.15666 0.2359 0.0
O20 O 0.19817 0.13946 0.14464 0.0
C21 C 0.2045 0.24535 0.09847 0.0
Fe22 Fe 0.38441 0.89779 0.69935 0.0
Fe23 Fe 0.33895 0.88715 0.58178 0.0
O24 O 0.36843 0.86777 0.6357 0.0
Fe25 Fe 0.38143 0.81817 0.62642 0.0
O26 O 0.36742 0.80534 0.70796 0.0
O27 O 0.39069 0.85583 0.75787 0.0
O28 O 0.3448 0.90349 0.73621 0.0
C29 C 0.31994 0.91595 0.70688 0.0
C30 C 0.43899 0.8602 0.65731 0.0
O31 O 0.32024 0.92012 0.64443 0.0
C32 C 0.37732 0.8369 0.4976 0.0
O33 O 0.38089 0.94501 0.65158 0.0
O34 O 0.36621 0.92509 0.55276 0.0
O35 O 0.42294 0.82801 0.65549 0.0
O36 O 0.42487 0.89304 0.66634 0.0
C37 C 0.31411 0.81417 0.59755 0.0
O38 O 0.35171 0.85661 0.5096 0.0
O39 O 0.39605 0.828 0.54417 0.0
C40 C 0.3787 0.95108 0.5895 0.0
O41 O 0.31017 0.85055 0.60812 0.0
O42 O 0.34236 0.79966 0.59463 0.0
C43 C 0.37776 0.82145 0.7599 0.0
Fe44 Fe 0.1379 0.81788 0.93828 0.0
Fe45 Fe 0.13461 0.89694 0.86303 0.0
O46 O 0.15053 0.86761 0.92771 0.0
Fe47 Fe 0.17969 0.88805 0.98124 0.0
O48 O 0.20899 0.85182 0.95589 0.0
O49 O 0.17725 0.80031 0.96961 0.0
O50 O 0.15169 0.80454 0.85666 0.0
C51 C 0.14124 0.8201 0.80443 0.0
C52 C 0.14242 0.83771 0.067 0.0
O53 O 0.12843 0.85449 0.80557 0.0
C54 C 0.13944 0.95111 0.97181 0.0
O55 O 0.09626 0.82721 0.90967 0.0
O56 O 0.09411 0.89209 0.89592 0.0
O57 O 0.16754 0.85794 0.05371 0.0
O58 O 0.12354 0.82762 1.02116 0.0
C59 C 0.19902 0.91562 0.85624 0.0
O60 O 0.13781 0.94464 0.90975 0.0
O61 O 0.15178 0.92546 1.0093 0.0
C62 C 0.08012 0.85927 0.90645 0.0
O63 O 0.17447 0.90263 0.82618 0.0
O64 O 0.19775 0.92106 0.91825 0.0
C65 C 0.20533 0.8154 0.96698 0.0
Fe66 Fe 0.38372 0.16234 0.36198 0.0
Fe67 Fe 0.33968 0.17214 0.48208 0.0
O68 O 0.36855 0.19191 0.42721 0.0
Fe69 Fe 0.38176 0.24136 0.43733 0.0
O70 O 0.36709 0.25485 0.35689 0.0
O71 O 0.38942 0.20483 0.30403 0.0
O72 O 0.3436 0.15689 0.32672 0.0
C73 C 0.31912 0.14439 0.35753 0.0
C74 C 0.4388 0.19948 0.40339 0.0
O75 O 0.32062 0.13932 0.4197 0.0
C76 C 0.37854 0.22207 0.5659 0.0
O77 O 0.38064 0.11475 0.40925 0.0
O78 O 0.36743 0.13442 0.50919 0.0
O79 O 0.42289 0.23168 0.40644 0.0
O80 O 0.42457 0.1668 0.39321 0.0
C81 C 0.31468 0.24509 0.46805 0.0
O82 O 0.35286 0.20238 0.55435 0.0
O83 O 0.39706 0.2309 0.51889 0.0
C84 C 0.37963 0.10873 0.47154 0.0
O85 O 0.31058 0.20871 0.45749 0.0
O86 O 0.34296 0.25959 0.47071 0.0
C87 C 0.3763 0.2391 0.30383 0.0
Fe88 Fe 0.88463 0.89557 0.86139 0.0
Fe89 Fe 0.88093 0.81688 0.93788 0.0
O90 O 0.86823 0.86645 0.92589 0.0
Fe91 Fe 0.83832 0.88673 0.97775 0.0
O92 O 0.82065 0.91964 0.91388 0.0
O93 O 0.84519 0.90114 0.82327 0.0
O94 O 0.89099 0.85281 0.80421 0.0
C95 C 0.87766 0.81865 0.80363 0.0
C96 C 0.87896 0.94967 0.97017 0.0
O97 O 0.86787 0.80301 0.85634 0.0
C98 C 0.87476 0.83676 0.06592 0.0
O99 O 0.92486 0.89101 0.89529 0.0
O100 O 0.92281 0.82626 0.91044 0.0
O101 O 0.8657 0.92435 1.00707 0.0
O102 O 0.88112 0.94337 0.90805 0.0
C103 C 0.8132 0.81392 0.96171 0.0
O104 O 0.89443 0.82734 1.02107 0.0
O105 O 0.84964 0.85664 0.05118 0.0
C106 C 0.93889 0.85839 0.90656 0.0
O107 O 0.84125 0.79912 0.96783 0.0
O108 O 0.80976 0.8503 0.95044 0.0
C109 C 0.8204 0.91459 0.85166 0.0
Fe110 Fe 0.67942 0.17115 0.48172 0.0
Fe111 Fe 0.63463 0.16269 0.36292 0.0
O112 O 0.65028 0.1917 0.4284 0.0
Fe113 Fe 0.63752 0.24123 0.44019 0.0
O114 O 0.67698 0.25872 0.47167 0.0
O115 O 0.70866 0.20739 0.45629 0.0
O116 O 0.69744 0.13814 0.41872 0.0
C117 C 0.69899 0.14389 0.35685 0.0
C118 C 0.64225 0.22093 0.56841 0.0
O119 O 0.67463 0.15714 0.32667 0.0
C120 C 0.57989 0.19981 0.40623 0.0
O121 O 0.65138 0.13389 0.50942 0.0
O122 O 0.63744 0.11488 0.40959 0.0
O123 O 0.62317 0.23072 0.52282 0.0
O124 O 0.66749 0.20111 0.55459 0.0
C125 C 0.64167 0.23995 0.30605 0.0
O126 O 0.59399 0.16724 0.39483 0.0
O127 O 0.59591 0.23193 0.41125 0.0
C128 C 0.63874 0.10849 0.47178 0.0
O129 O 0.62886 0.20549 0.30576 0.0
O130 O 0.65125 0.25527 0.35918 0.0
C131 C 0.70508 0.24374 0.46787 0.0
Fe132 Fe 0.88434 0.16115 0.19709 0.0
Fe133 Fe 0.88069 0.24047 0.12288 0.0
O134 O 0.86785 0.1908 0.13358 0.0
Fe135 Fe 0.83779 0.17095 0.08152 0.0
O136 O 0.82001 0.1379 0.14505 0.0
O137 O 0.845 0.15561 0.23562 0.0
O138 O 0.89118 0.20334 0.25483 0.0
C139 C 0.87838 0.23773 0.25681 0.0
C140 C 0.87783 0.10743 0.08792 0.0
O141 O 0.86781 0.25369 0.20503 0.0
C142 C 0.87446 0.22141 0.99455 0.0
O143 O 0.92448 0.16581 0.16258 0.0
O144 O 0.92254 0.23074 0.14968 0.0
O145 O 0.86489 0.13316 0.05137 0.0
O146 O 0.88042 0.11373 0.1499 0.0
C147 C 0.81304 0.24391 0.09944 0.0
O148 O 0.89409 0.23065 0.03952 0.0
O149 O 0.84931 0.20141 1.00877 0.0
C150 C 0.93853 0.19856 0.15215 0.0
O151 O 0.84112 0.25863 0.09358 0.0
O152 O 0.80936 0.2074 0.10934 0.0
C153 C 0.81996 0.14278 0.2073 0.0
Fe154 Fe 0.63788 0.81915 0.62596 0.0
Fe155 Fe 0.67847 0.88945 0.57993 0.0
O156 O 0.65016 0.86898 0.63533 0.0
Fe157 Fe 0.63467 0.89846 0.70033 0.0
O158 O 0.62947 0.85617 0.75894 0.0
O159 O 0.65248 0.80647 0.70674 0.0
O160 O 0.67738 0.80195 0.5938 0.0
C161 C 0.70528 0.81775 0.59609 0.0
C162 C 0.58008 0.86013 0.65938 0.0
O163 O 0.70839 0.85438 0.605 0.0
C164 C 0.63731 0.95142 0.5899 0.0
O165 O 0.62261 0.82847 0.54405 0.0
O166 O 0.66614 0.85821 0.50821 0.0
O167 O 0.59395 0.89303 0.66944 0.0
O168 O 0.59633 0.82812 0.65592 0.0
C169 C 0.69894 0.91776 0.70377 0.0
O170 O 0.64969 0.9258 0.55244 0.0
O171 O 0.63699 0.94585 0.65235 0.0
C172 C 0.64095 0.83754 0.49696 0.0
O173 O 0.69685 0.92326 0.64176 0.0
O174 O 0.6748 0.90475 0.73509 0.0
C175 C 0.64284 0.82207 0.75953 0.0
Fe176 Fe 0.63737 0.74167 0.1253 0.0
Fe177 Fe 0.63441 0.662 0.19901 0.0
O178 O 0.65053 0.6921 0.13547 0.0
Fe179 Fe 0.68053 0.67282 0.08267 0.0
O180 O 0.70892 0.70954 0.11047 0.0
O181 O 0.6767 0.76027 0.09546 0.0
O182 O 0.65041 0.75478 0.20736 0.0
C183 C 0.64014 0.73862 0.25929 0.0
C184 C 0.64333 0.72293 0.99651 0.0
O185 O 0.62776 0.70394 0.25752 0.0
C186 C 0.64034 0.60925 0.08854 0.0
O187 O 0.59566 0.73148 0.15267 0.0
O188 O 0.59402 0.66654 0.16559 0.0
O189 O 0.66865 0.70331 1.01046 0.0
O190 O 0.6238 0.73208 0.0418 0.0
C191 C 0.69885 0.64359 0.20751 0.0
O192 O 0.63815 0.61484 0.15081 0.0
O193 O 0.65348 0.63507 0.05246 0.0
C194 C 0.57979 0.69918 0.15548 0.0
O195 O 0.674 0.65632 0.2367 0.0
O196 O 0.6986 0.63951 0.14517 0.0
C197 C 0.70496 0.74588 0.09922 0.0
Fe198 Fe 0.88463 0.39624 0.69789 0.0
Fe199 Fe 0.83934 0.3856 0.58037 0.0
O200 O 0.86899 0.36633 0.63382 0.0
Fe201 Fe 0.88242 0.31695 0.62353 0.0
O202 O 0.86864 0.30353 0.70461 0.0
O203 O 0.89101 0.35406 0.75617 0.0
O204 O 0.84498 0.40145 0.73474 0.0
C205 C 0.82017 0.41408 0.70555 0.0
C206 C 0.93949 0.35983 0.65438 0.0
O207 O 0.82061 0.41858 0.64316 0.0
C208 C 0.87757 0.33577 0.4952 0.0
O209 O 0.88097 0.4435 0.65015 0.0
O210 O 0.86646 0.42356 0.55114 0.0
O211 O 0.924 0.3272 0.65244 0.0
O212 O 0.92495 0.39213 0.66485 0.0
C213 C 0.81496 0.31247 0.5982 0.0
O214 O 0.85182 0.35504 0.50791 0.0
O215 O 0.89672 0.32743 0.54128 0.0
C216 C 0.87911 0.44943 0.58793 0.0
O217 O 0.81102 0.34895 0.60754 0.0
O218 O 0.8432 0.29817 0.59229 0.0
C219 C 0.87773 0.31987 0.75722 0.0
Fe220 Fe 0.63691 0.31827 0.94056 0.0
Fe221 Fe 0.63468 0.39661 0.86285 0.0
O222 O 0.6502 0.36761 0.92842 0.0
Fe223 Fe 0.67968 0.38788 0.98135 0.0
O224 O 0.70843 0.35089 0.95643 0.0
O225 O 0.67603 0.30022 0.97207 0.0
O226 O 0.65049 0.30387 0.85964 0.0
C227 C 0.64106 0.31922 0.80647 0.0
C228 C 0.64202 0.33884 0.06862 0.0
O229 O 0.62834 0.35369 0.80614 0.0
C230 C 0.64001 0.45145 0.97083 0.0
O231 O 0.59548 0.32802 0.91161 0.0
O232 O 0.59404 0.3927 0.89539 0.0
O233 O 0.66736 0.35847 0.05459 0.0
O234 O 0.62275 0.32918 1.0232 0.0
C235 C 0.6993 0.41434 0.8558 0.0
O236 O 0.63822 0.44462 0.90884 0.0
O237 O 0.65226 0.42595 1.00876 0.0
C238 C 0.57971 0.36027 0.90715 0.0
O239 O 0.67464 0.40148 0.82604 0.0
O240 O 0.69809 0.42018 0.91771 0.0
C241 C 0.70431 0.31462 0.96822 0.0
Fe242 Fe 0.87988 0.73954 0.43815 0.0
Fe243 Fe 0.88424 0.66101 0.36119 0.0
O244 O 0.86816 0.68953 0.42674 0.0
Fe245 Fe 0.83959 0.66797 0.48028 0.0
O246 O 0.80973 0.70318 0.4552 0.0
O247 O 0.84003 0.75583 0.47015 0.0
O248 O 0.86573 0.75299 0.35703 0.0
C249 C 0.87575 0.73792 0.304 0.0
C250 C 0.87577 0.71941 0.5665 0.0
O251 O 0.88942 0.704 0.30411 0.0
C252 C 0.88125 0.60658 0.46974 0.0
O253 O 0.92176 0.73138 0.40905 0.0
O254 O 0.9247 0.66664 0.3933 0.0
O255 O 0.85114 0.69828 0.55318 0.0
O256 O 0.89457 0.7297 0.52068 0.0
C257 C 0.82017 0.64075 0.35528 0.0
O258 O 0.88205 0.61294 0.40751 0.0
O259 O 0.86837 0.63159 0.50763 0.0
C260 C 0.9383 0.6996 0.40453 0.0
O261 O 0.84436 0.65462 0.32513 0.0
O262 O 0.82194 0.63461 0.41708 0.0
C263 C 0.81236 0.73939 0.4683 0.0
Fe264 Fe 0.38419 0.39763 0.86314 0.0
Fe265 Fe 0.38091 0.31832 0.9378 0.0
O266 O 0.36796 0.3679 0.92709 0.0
Fe267 Fe 0.3382 0.38771 0.97991 0.0
O268 O 0.32027 0.42077 0.91696 0.0
O269 O 0.34464 0.40324 0.82543 0.0
O270 O 0.39081 0.35539 0.80534 0.0
C271 C 0.37847 0.32069 0.80385 0.0
C272 C 0.37865 0.45093 0.97264 0.0
O273 O 0.36786 0.30491 0.85584 0.0
C274 C 0.37521 0.33768 0.06641 0.0
O275 O 0.4245 0.39311 0.8968 0.0
O276 O 0.42266 0.32822 0.91036 0.0
O277 O 0.36559 0.42534 1.00927 0.0
O278 O 0.38053 0.44506 0.91044 0.0
C279 C 0.31327 0.3148 0.96444 0.0
O280 O 0.39459 0.32819 1.02109 0.0
O281 O 0.34999 0.35748 0.05247 0.0
C282 C 0.43861 0.36046 0.90743 0.0
O283 O 0.34146 0.30013 0.96792 0.0
O284 O 0.30948 0.35114 0.95303 0.0
C285 C 0.31992 0.41627 0.85469 0.0
Fe286 Fe 0.17925 0.67136 0.48118 0.0
Fe287 Fe 0.13416 0.66264 0.36262 0.0
O288 O 0.15008 0.69171 0.42763 0.0
Fe289 Fe 0.13734 0.74126 0.43897 0.0
O290 O 0.17673 0.75896 0.47102 0.0
O291 O 0.20835 0.70764 0.45569 0.0
O292 O 0.19769 0.63856 0.41792 0.0
C293 C 0.19838 0.64323 0.3556 0.0
C294 C 0.1415 0.72127 0.56704 0.0
O295 O 0.17393 0.65673 0.32606 0.0
C296 C 0.07959 0.70017 0.40566 0.0
O297 O 0.15144 0.63373 0.50891 0.0
O298 O 0.13711 0.61487 0.40921 0.0
O299 O 0.12267 0.73046 0.52085 0.0
O300 O 0.16698 0.70153 0.55423 0.0
C301 C 0.14159 0.73972 0.30521 0.0
O302 O 0.0936 0.66744 0.39509 0.0
O303 O 0.09575 0.7322 0.40955 0.0
C304 C 0.13897 0.60821 0.47121 0.0
O305 O 0.12846 0.70542 0.30531 0.0
O306 O 0.15133 0.7551 0.35817 0.0
C307 C 0.20482 0.74411 0.46593 0.0
Fe308 Fe 0.38131 0.74143 0.12648 0.0
Fe309 Fe 0.33906 0.67221 0.0816 0.0
O310 O 0.36823 0.69184 0.13595 0.0
Fe311 Fe 0.38375 0.66192 0.20016 0.0
O312 O 0.39007 0.70393 0.25849 0.0
O313 O 0.36739 0.75447 0.20794 0.0
O314 O 0.34215 0.75983 0.09506 0.0
C315 C 0.31398 0.74509 0.09926 0.0
C316 C 0.43864 0.69912 0.15785 0.0
O317 O 0.31014 0.70848 0.10786 0.0
C318 C 0.37875 0.60859 0.09027 0.0
O319 O 0.3959 0.73165 0.04415 0.0
O320 O 0.35159 0.70302 1.00963 0.0
O321 O 0.4244 0.66643 0.16784 0.0
O322 O 0.42277 0.73141 0.15543 0.0
C323 C 0.31923 0.64366 0.20611 0.0
O324 O 0.3667 0.63461 0.05301 0.0
O325 O 0.38027 0.61466 0.15245 0.0
C326 C 0.37708 0.72296 0.99762 0.0
O327 O 0.32042 0.63891 0.14385 0.0
O328 O 0.34379 0.65643 0.23637 0.0
C329 C 0.37758 0.7385 0.26002 0.0
Fe330 Fe 0.13801 0.31812 0.62422 0.0
Fe331 Fe 0.18046 0.38774 0.58148 0.0
O332 O 0.1509 0.3678 0.63457 0.0
Fe333 Fe 0.13492 0.39764 0.69845 0.0
O334 O 0.12831 0.35561 0.75665 0.0
O335 O 0.15104 0.30499 0.70626 0.0
O336 O 0.17771 0.30013 0.59474 0.0
C337 C 0.20578 0.31517 0.59987 0.0
C338 C 0.08042 0.36053 0.65387 0.0
O339 O 0.20934 0.35179 0.60912 0.0
C340 C 0.13978 0.45048 0.58822 0.0
O341 O 0.12444 0.3276 0.54079 0.0
O342 O 0.16907 0.35683 0.50946 0.0
O343 O 0.09472 0.39299 0.66501 0.0
O344 O 0.09607 0.32803 0.65134 0.0
C345 C 0.19919 0.41637 0.70594 0.0
O346 O 0.15272 0.42477 0.55162 0.0
O347 O 0.13843 0.44493 0.6506 0.0
C348 C 0.14396 0.33677 0.49557 0.0
O349 O 0.1981 0.42151 0.64389 0.0
O350 O 0.17461 0.40326 0.7357 0.0
C351 C 0.1408 0.32104 0.75825 0.0
C352 C 0.25893 0.13599 0.21472 0.0
C353 C 0.22862 0.13746 0.24639 0.0
C354 C 0.28798 0.13644 0.25102 0.0
C355 C 0.28813 0.13785 0.32075 0.0
H356 H 0.26037 0.13642 0.16129 0.0
H357 H 0.31056 0.13691 0.22392 0.0
S358 S 0.21532 0.13937 0.4282 0.0
N359 N 0.20071 0.13826 0.35236 0.0
N360 N 0.25499 0.13878 0.41998 0.0
C361 C 0.25798 0.1374 0.35312 0.0
C362 C 0.2284 0.13731 0.3162 0.0
C363 C 0.23019 0.92212 0.74953 0.0
C364 C 0.22992 0.92217 0.81925 0.0
C365 C 0.25933 0.92257 0.71351 0.0
C366 C 0.28956 0.92262 0.74554 0.0
H367 H 0.2077 0.92045 0.72232 0.0
H368 H 0.25805 0.92091 0.66012 0.0
S369 S 0.3025 0.92523 0.92729 0.0
N370 N 0.26285 0.92446 0.91877 0.0
N371 N 0.31726 0.92502 0.85153 0.0
C372 C 0.28963 0.92433 0.81521 0.0
C373 C 0.25998 0.92421 0.85185 0.0
C374 C 0.73085 0.92519 0.80922 0.0
C375 C 0.73029 0.92363 0.73954 0.0
C376 C 0.76008 0.92458 0.84482 0.0
C377 C 0.79018 0.92179 0.81254 0.0
H378 H 0.70843 0.92564 0.83683 0.0
H379 H 0.75888 0.92441 0.89829 0.0
S380 S 0.80245 0.91885 0.63054 0.0
N381 N 0.76286 0.92116 0.63958 0.0
N382 N 0.81751 0.91948 0.70605 0.0
C383 C 0.79005 0.92171 0.74276 0.0
C384 C 0.76027 0.9228 0.70648 0.0
C385 C 0.73026 0.13614 0.25053 0.0
C386 C 0.72999 0.13737 0.3202 0.0
C387 C 0.75939 0.13547 0.21454 0.0
C388 C 0.78965 0.13659 0.2465 0.0
H389 H 0.70774 0.13687 0.22328 0.0
H390 H 0.75808 0.13598 0.1611 0.0
S391 S 0.80256 0.13798 0.42829 0.0
N392 N 0.76291 0.13774 0.41976 0.0
N393 N 0.81735 0.13697 0.35256 0.0
C394 C 0.78973 0.13634 0.31623 0.0
C395 C 0.76006 0.13658 0.35287 0.0
C396 C 0.7886 0.63694 0.249 0.0
C397 C 0.78909 0.63464 0.31861 0.0
C398 C 0.7594 0.6375 0.21339 0.0
C399 C 0.72924 0.63629 0.2457 0.0
H400 H 0.81098 0.63968 0.2216 0.0
H401 H 0.76056 0.64086 0.16021 0.0
S402 S 0.71676 0.62668 0.42677 0.0
N403 N 0.75641 0.62821 0.41805 0.0
N404 N 0.70178 0.62982 0.35139 0.0
C405 C 0.72933 0.63221 0.31503 0.0
C406 C 0.75911 0.63118 0.35132 0.0
C407 C 0.7304 0.42074 0.74881 0.0
C408 C 0.73022 0.42049 0.81855 0.0
C409 C 0.7595 0.42112 0.71258 0.0
C410 C 0.7898 0.42071 0.7444 0.0
H411 H 0.70785 0.41946 0.72174 0.0
H412 H 0.75816 0.4198 0.65917 0.0
S413 S 0.80296 0.42215 0.92616 0.0
N414 N 0.7633 0.42185 0.91785 0.0
N415 N 0.81762 0.4222 0.85032 0.0
C416 C 0.78995 0.422 0.81412 0.0
C417 C 0.76034 0.422 0.85095 0.0
C418 C 0.25938 0.41888 0.84863 0.0
C419 C 0.28947 0.42305 0.81684 0.0
C420 C 0.23031 0.41866 0.81274 0.0
C421 C 0.22991 0.42306 0.74342 0.0
H422 H 0.25828 0.4137 0.90142 0.0
H423 H 0.20803 0.41359 0.83958 0.0
S424 S 0.30198 0.44021 0.63741 0.0
N425 N 0.31692 0.43521 0.71258 0.0
N426 N 0.26246 0.43538 0.64524 0.0
C427 C 0.25976 0.42965 0.71149 0.0
C428 C 0.28942 0.42943 0.74806 0.0
C429 C 0.28812 0.6398 0.31319 0.0
C430 C 0.28847 0.63655 0.24364 0.0
C431 C 0.25905 0.63927 0.34934 0.0
C432 C 0.22887 0.63607 0.31762 0.0
H433 H 0.31046 0.64417 0.34009 0.0
H434 H 0.26022 0.64348 0.40235 0.0
S435 S 0.21623 0.62094 0.13763 0.0
N436 N 0.25577 0.62552 0.14536 0.0
N437 N 0.20137 0.62523 0.21303 0.0
C438 C 0.2289 0.63049 0.24857 0.0
C439 C 0.25855 0.63052 0.21175 0.0
C440 C 0.16325 0.24172 0.88413 0.0
C441 C 0.13904 0.24513 0.93271 0.0
C442 C 0.16367 0.26664 0.82847 0.0
C443 C 0.1402 0.29648 0.81927 0.0
H444 H 0.18248 0.22016 0.88963 0.0
H445 H 0.18291 0.26283 0.79269 0.0
S446 S 0.07025 0.3165 0.92882 0.0
N447 N 0.08969 0.27976 0.96534 0.0
N448 N 0.09116 0.32678 0.86148 0.0
C449 C 0.11555 0.29991 0.86658 0.0
C450 C 0.11474 0.27415 0.92285 0.0
C451 C 0.35728 0.81975 0.38399 0.0
C452 C 0.38032 0.81439 0.43433 0.0
C453 C 0.35657 0.79491 0.32828 0.0
C454 C 0.37859 0.76327 0.32076 0.0
H455 H 0.33907 0.84271 0.38824 0.0
H456 H 0.33814 0.80015 0.29129 0.0
S457 S 0.44541 0.73792 0.43524 0.0
N458 N 0.4272 0.77609 0.47045 0.0
N459 N 0.42525 0.72929 0.36636 0.0
C460 C 0.40222 0.75801 0.36972 0.0
C461 C 0.40331 0.78364 0.4261 0.0
C462 C 0.1191 0.75926 0.19444 0.0
C463 C 0.14194 0.76498 0.24492 0.0
C464 C 0.11823 0.78436 0.13895 0.0
C465 C 0.1404 0.81601 0.1312 0.0
H466 H 0.10157 0.7354 0.19796 0.0
H467 H 0.1005 0.7781 0.10098 0.0
S468 S 0.20551 0.84311 0.24936 0.0
N469 N 0.18746 0.80451 0.2836 0.0
N470 N 0.18586 0.85146 0.17984 0.0
C471 C 0.16314 0.82224 0.18193 0.0
C472 C 0.16395 0.79679 0.23843 0.0
C473 C 0.35907 0.26255 0.73703 0.0
C474 C 0.37975 0.29573 0.7431 0.0
C475 C 0.35987 0.23782 0.68115 0.0
C476 C 0.38168 0.24479 0.62905 0.0
H477 H 0.34155 0.25598 0.77532 0.0
H478 H 0.34267 0.21358 0.67821 0.0
S479 S 0.44287 0.32605 0.62297 0.0
N480 N 0.42379 0.33309 0.69363 0.0
N481 N 0.42586 0.28657 0.5892 0.0
C482 C 0.40334 0.27716 0.6356 0.0
C483 C 0.40216 0.30266 0.69221 0.0
C484 C 0.89966 0.78459 0.13932 0.0
C485 C 0.87613 0.8145 0.12986 0.0
C486 C 0.899 0.75931 0.19466 0.0
C487 C 0.87502 0.76309 0.24346 0.0
H488 H 0.91849 0.77994 0.10294 0.0
H489 H 0.91767 0.73695 0.19957 0.0
S490 S 0.80762 0.83602 0.24314 0.0
N491 N 0.82799 0.84598 0.17499 0.0
N492 N 0.82696 0.79887 0.27873 0.0
C493 C 0.85154 0.79303 0.23519 0.0
C494 C 0.85207 0.81861 0.1787 0.0
C495 C 0.61751 0.27356 0.64101 0.0
C496 C 0.64033 0.24273 0.63259 0.0
C497 C 0.61822 0.29876 0.69643 0.0
C498 C 0.64154 0.29393 0.74622 0.0
H499 H 0.59934 0.27909 0.60362 0.0
H500 H 0.60019 0.32196 0.7005 0.0
S501 S 0.70701 0.2184 0.74867 0.0
N502 N 0.68704 0.20919 0.67978 0.0
N503 N 0.68824 0.25626 0.78353 0.0
C504 C 0.66421 0.26297 0.7391 0.0
C505 C 0.66361 0.23745 0.68261 0.0
C506 C 0.90108 0.29736 0.86543 0.0
C507 C 0.87619 0.29572 0.8184 0.0
C508 C 0.90111 0.27185 0.92044 0.0
C509 C 0.87604 0.24395 0.93109 0.0
H510 H 0.92099 0.31796 0.8591 0.0
H511 H 0.92077 0.27459 0.95548 0.0
S512 S 0.80437 0.22945 0.82298 0.0
N513 N 0.82544 0.26482 0.78631 0.0
N514 N 0.82522 0.21725 0.88943 0.0
C515 C 0.85093 0.24227 0.88414 0.0
C516 C 0.85104 0.26808 0.82809 0.0
C517 C 0.66178 0.79454 0.32812 0.0
C518 C 0.63941 0.76322 0.32041 0.0
C519 C 0.66124 0.81945 0.38378 0.0
C520 C 0.63805 0.81452 0.43403 0.0
H521 H 0.68026 0.79958 0.29111 0.0
H522 H 0.67963 0.84227 0.38792 0.0
S523 S 0.57231 0.73872 0.43497 0.0
N524 N 0.59242 0.72979 0.3661 0.0
N525 N 0.59083 0.77671 0.47016 0.0
C526 C 0.61484 0.78395 0.42585 0.0
C527 C 0.61573 0.75824 0.36945 0.0
C528 C 0.61899 0.77618 0.92463 0.0
C529 C 0.64174 0.74524 0.93281 0.0
C530 C 0.61993 0.80165 0.86959 0.0
C531 C 0.64342 0.79703 0.82003 0.0
H532 H 0.60068 0.78151 0.96184 0.0
H533 H 0.60187 0.82482 0.86553 0.0
S534 S 0.70881 0.72137 0.81721 0.0
N535 N 0.68859 0.71185 0.8857 0.0
N536 N 0.69026 0.7595 0.78282 0.0
C537 C 0.6661 0.76607 0.82708 0.0
C538 C 0.66524 0.74023 0.8831 0.0
C539 C 0.85708 0.31794 0.38211 0.0
C540 C 0.88037 0.313 0.43207 0.0
C541 C 0.85659 0.29329 0.32613 0.0
C542 C 0.8791 0.26223 0.31794 0.0
H543 H 0.83861 0.34059 0.38668 0.0
H544 H 0.83804 0.2983 0.28931 0.0
S545 S 0.94622 0.23751 0.43199 0.0
N546 N 0.92767 0.27528 0.46764 0.0
N547 N 0.92613 0.22883 0.36306 0.0
C548 C 0.90281 0.25718 0.36679 0.0
C549 C 0.90367 0.28263 0.42344 0.0
C550 C 0.6177 0.28566 0.14088 0.0
C551 C 0.64026 0.31685 0.13267 0.0
C552 C 0.61866 0.26031 0.19608 0.0
C553 C 0.64198 0.26533 0.24586 0.0
H554 H 0.59955 0.27995 0.10349 0.0
H555 H 0.6008 0.23685 0.20001 0.0
S556 S 0.70674 0.34194 0.24886 0.0
N557 N 0.68668 0.351 0.18008 0.0
N558 N 0.68837 0.30365 0.28337 0.0
C559 C 0.66441 0.29663 0.2389 0.0
C560 C 0.66354 0.32232 0.18265 0.0
C561 C 0.90202 0.77009 0.64097 0.0
C562 C 0.87722 0.74187 0.63019 0.0
C563 C 0.90166 0.79569 0.69596 0.0
C564 C 0.87667 0.79387 0.74287 0.0
H565 H 0.92169 0.77304 0.60598 0.0
H566 H 0.92134 0.81661 0.70225 0.0
S567 S 0.8054 0.72667 0.73783 0.0
N568 N 0.82653 0.71462 0.67163 0.0
N569 N 0.82611 0.76232 0.77462 0.0
C570 C 0.85182 0.76581 0.73312 0.0
C571 C 0.85206 0.7399 0.6771 0.0
C572 C 0.39931 0.25984 0.19415 0.0
C573 C 0.37561 0.26408 0.24335 0.0
C574 C 0.40006 0.2852 0.13899 0.0
C575 C 0.3769 0.31561 0.13031 0.0
H576 H 0.41768 0.23707 0.1986 0.0
H577 H 0.41858 0.28019 0.10209 0.0
S578 S 0.30904 0.33812 0.24471 0.0
N579 N 0.32809 0.30056 0.27971 0.0
N580 N 0.32935 0.34798 0.17647 0.0
C581 C 0.35316 0.32021 0.17966 0.0
C582 C 0.35251 0.29451 0.23585 0.0
C583 C 0.16384 0.76539 0.7343 0.0
C584 C 0.14033 0.79513 0.74388 0.0
C585 C 0.16324 0.74044 0.67865 0.0
C586 C 0.13881 0.74372 0.63054 0.0
H587 H 0.18328 0.76178 0.76964 0.0
H588 H 0.18256 0.71903 0.67269 0.0
S589 S 0.06965 0.81446 0.63604 0.0
N590 N 0.09088 0.82498 0.70284 0.0
N591 N 0.0891 0.77785 0.59909 0.0
C592 C 0.1144 0.77249 0.64098 0.0
C593 C 0.11538 0.79829 0.69719 0.0
C594 C 0.35624 0.74135 0.88512 0.0
C595 C 0.37987 0.74583 0.93461 0.0
C596 C 0.35568 0.76619 0.82943 0.0
C597 C 0.37845 0.79697 0.821 0.0
H598 H 0.33755 0.71896 0.8899 0.0
H599 H 0.33689 0.76152 0.79297 0.0
S600 S 0.44662 0.82024 0.93351 0.0
N601 N 0.42782 0.78267 0.96931 0.0
N602 N 0.42619 0.82949 0.86522 0.0
C603 C 0.40252 0.80153 0.86932 0.0
C604 C 0.40344 0.77589 0.92572 0.0
C605 C 0.11761 0.28604 0.42152 0.0
C606 C 0.14243 0.31425 0.43209 0.0
C607 C 0.1178 0.26063 0.36635 0.0
C608 C 0.14263 0.26267 0.31916 0.0
H609 H 0.09804 0.28299 0.45673 0.0
H610 H 0.09808 0.23977 0.36008 0.0
S611 S 0.21386 0.32988 0.32357 0.0
N612 N 0.19294 0.34174 0.39015 0.0
N613 N 0.1931 0.29425 0.28693 0.0
C614 C 0.16755 0.29061 0.32882 0.0
C615 C 0.16746 0.31636 0.38495 0.0
C616 C 0.02595 0.16612 0.17069 0.0
C617 C 0.04365 0.20013 0.15224 0.0
C618 C 0.99214 0.16588 0.16982 0.0
C619 C 0.97443 0.19964 0.15043 0.0
H620 H 0.03824 0.1394 0.18678 0.0
H621 H 0.97985 0.139 0.18534 0.0
S622 S 1.00909 0.29542 0.09235 0.0
N623 N 0.04088 0.26791 0.11051 0.0
N624 N 0.97727 0.26749 0.10886 0.0
C625 C 0.99178 0.23366 0.13049 0.0
C626 C 0.02634 0.23391 0.13141 0.0
C627 C 0.49258 0.89268 0.67681 0.0
C628 C 0.4749 0.85913 0.65622 0.0
C629 C 0.5264 0.89258 0.67752 0.0
C630 C 0.54416 0.85893 0.65763 0.0
H631 H 0.48026 0.91931 0.69326 0.0
H632 H 0.53865 0.91919 0.69439 0.0
S633 S 0.50961 0.76423 0.59465 0.0
N634 N 0.47777 0.7918 0.61236 0.0
N635 N 0.54141 0.79163 0.61365 0.0
C636 C 0.52685 0.82529 0.63589 0.0
C637 C 0.49227 0.82539 0.6352 0.0
C638 C 0.99249 0.89217 0.89317 0.0
C639 C 0.97484 0.85754 0.90857 0.0
C640 C 0.02632 0.89239 0.89309 0.0
C641 C 0.04417 0.858 0.90841 0.0
H642 H 0.98013 0.91948 0.88038 0.0
H643 H 0.0385 0.91986 0.88026 0.0
S644 S 0.00984 0.75997 0.95618 0.0
N645 N 0.97794 0.78817 0.94227 0.0
N646 N 0.04154 0.78858 0.94216 0.0
C647 C 0.02691 0.82325 0.92503 0.0
C648 C 0.99233 0.82302 0.92511 0.0
C649 C 0.49253 0.16688 0.38602 0.0
C650 C 0.4747 0.2005 0.40563 0.0
C651 C 0.52637 0.16698 0.38678 0.0
C652 C 0.54396 0.2007 0.40723 0.0
H653 H 0.48032 0.14022 0.36925 0.0
H654 H 0.53876 0.14036 0.37053 0.0
S655 S 0.50889 0.29555 0.46812 0.0
N656 N 0.47723 0.26791 0.44928 0.0
N657 N 0.54083 0.2681 0.45069 0.0
C658 C 0.52647 0.23435 0.42811 0.0
C659 C 0.4919 0.23425 0.42731 0.0
C660 C 0.52618 0.66612 0.17331 0.0
C661 C 0.54385 0.69998 0.15392 0.0
C662 C 0.49233 0.66612 0.17401 0.0
C663 C 0.47456 0.69999 0.15536 0.0
H664 H 0.53853 0.63934 0.1889 0.0
H665 H 0.48006 0.63934 0.19005 0.0
S666 S 0.50901 0.79551 0.09562 0.0
N667 N 0.54087 0.76779 0.11232 0.0
N668 N 0.47727 0.76779 0.11361 0.0
C669 C 0.49186 0.73387 0.13462 0.0
C670 C 0.52642 0.73387 0.13391 0.0
C671 C 0.99307 0.32475 0.65967 0.0
C672 C 0.97535 0.36006 0.6506 0.0
C673 C 0.02702 0.32491 0.65949 0.0
C674 C 0.04456 0.36039 0.65019 0.0
H675 H 0.98069 0.29684 0.66835 0.0
H676 H 0.03956 0.29714 0.6681 0.0
S677 S 0.00969 0.46019 0.61675 0.0
N678 N 0.97803 0.43098 0.62684 0.0
N679 N 0.04151 0.43127 0.62643 0.0
C680 C 0.0271 0.39566 0.63873 0.0
C681 C 0.99263 0.3955 0.63895 0.0
C682 C 0.52613 0.3936 0.89144 0.0
C683 C 0.54379 0.3595 0.90934 0.0
C684 C 0.49229 0.39364 0.89155 0.0
C685 C 0.47452 0.35959 0.90956 0.0
H686 H 0.53848 0.42055 0.87646 0.0
H687 H 0.48004 0.42063 0.87661 0.0
S688 S 0.50897 0.26328 0.96514 0.0
N689 N 0.54081 0.29118 0.94874 0.0
N690 N 0.47723 0.29128 0.9489 0.0
C691 C 0.49181 0.32545 0.92883 0.0
C692 C 0.52637 0.32541 0.92874 0.0
C693 C 0.02595 0.66715 0.38893 0.0
C694 C 0.04362 0.70127 0.40693 0.0
C695 C 0.99214 0.66707 0.38856 0.0
C696 C 0.97426 0.7011 0.40621 0.0
H697 H 0.03828 0.64013 0.37436 0.0
H698 H 0.97998 0.63995 0.37377 0.0
S699 S 1.00869 0.79764 0.46131 0.0
N700 N 0.04058 0.76974 0.44558 0.0
N701 N 0.97694 0.76958 0.44486 0.0
C702 C 0.99154 0.73536 0.42527 0.0
C703 C 0.02615 0.73545 0.42565 0.0
C704 C 0.13433 0.03467 0.09859 0.0
C705 C 0.13291 0.06909 0.05941 0.0
C706 C 0.1345 0.99666 0.06978 0.0
C707 C 0.13317 0.99133 1.00051 0.0
H708 H 0.13713 0.03704 0.15166 0.0
H709 H 0.13709 0.97127 0.10226 0.0
S710 S 0.12357 0.07183 0.87671 0.0
N711 N 0.12588 0.09532 0.94819 0.0
N712 N 0.12637 1.02403 0.89431 0.0
C713 C 0.12916 1.02543 0.96118 0.0
C714 C 0.12904 0.06418 0.99052 0.0
C715 C 0.38223 0.99635 0.49078 0.0
C716 C 0.38501 0.99111 0.55991 0.0
C717 C 0.38278 0.03429 0.46169 0.0
C718 C 0.38605 0.06872 0.50043 0.0
H719 H 0.37824 0.97101 0.45874 0.0
H720 H 0.37879 0.03667 0.40894 0.0
S721 S 0.39965 0.07151 0.682 0.0
N722 N 0.39514 1.0238 0.66505 0.0
N723 N 0.39631 0.09491 0.61064 0.0
C724 C 0.39134 0.06381 0.5689 0.0
C725 C 0.39082 1.02514 0.59853 0.0
C726 C 0.88192 0.06207 0.98933 0.0
C727 C 0.88416 0.06736 0.05852 0.0
C728 C 0.88256 1.0241 0.96029 0.0
C729 C 0.88532 0.98969 0.99919 0.0
H730 H 0.87832 0.08742 0.95717 0.0
H731 H 0.87901 1.02167 0.90741 0.0
S732 S 0.89714 0.98695 0.18124 0.0
N733 N 0.89311 0.03468 0.16408 0.0
N734 N 0.89435 0.96352 0.10978 0.0
C735 C 0.88998 0.99462 0.06783 0.0
C736 C 0.88944 0.03332 0.09739 0.0
C737 C 0.63331 0.06351 0.57017 0.0
C738 C 0.6317 0.06859 0.50086 0.0
C739 C 0.6327 1.02565 0.59936 0.0
C740 C 0.63046 0.99116 0.56054 0.0
H741 H 0.63658 0.08893 0.60238 0.0
H742 H 0.63594 1.02343 0.65234 0.0
S743 S 0.61944 0.98797 0.37821 0.0
N744 N 0.62335 0.03575 0.39523 0.0
N745 N 0.62189 0.96469 0.44983 0.0
C746 C 0.626 0.99589 0.49174 0.0
C747 C 0.62666 0.03451 0.462 0.0
C748 C 0.63415 0.53504 0.09745 0.0
C749 C 0.63382 0.56953 0.05836 0.0
C750 C 0.63422 0.49706 0.0685 0.0
C751 C 0.63386 0.49181 0.99916 0.0
H752 H 0.63614 0.53727 0.15069 0.0
H753 H 0.63592 0.47157 0.10103 0.0
S754 S 0.62749 0.57261 0.87507 0.0
N755 N 0.62897 0.59599 0.94675 0.0
N756 N 0.6293 0.52474 0.8927 0.0
C757 C 0.63099 0.52602 0.95972 0.0
C758 C 0.63097 0.56477 0.9892 0.0
C759 C 0.88404 0.53221 0.45962 0.0
C760 C 0.888 0.56659 0.49817 0.0
C761 C 0.88307 0.49436 0.48892 0.0
C762 C 0.88605 0.48919 0.55804 0.0
H763 H 0.87968 0.53462 0.407 0.0
H764 H 0.87847 0.46908 0.45708 0.0
S765 S 0.90287 0.56939 0.67928 0.0
N766 N 0.89943 0.59274 0.6079 0.0
N767 N 0.89748 0.52176 0.66273 0.0
C768 C 0.89274 0.5231 0.59633 0.0
C769 C 0.89371 0.56168 0.56649 0.0
C770 C 0.3835 0.52521 0.96304 0.0
C771 C 0.3852 0.49076 1.00209 0.0
C772 C 0.38328 0.56319 0.99198 0.0
C773 C 0.38486 0.56843 0.06123 0.0
H774 H 0.3805 0.52288 0.91 0.0
H775 H 0.38048 0.58861 0.95964 0.0
S776 S 0.39519 0.48779 0.1846 0.0
N777 N 0.3927 0.46439 0.11306 0.0
N778 N 0.39217 0.5356 0.16721 0.0
C779 C 0.38913 0.53429 0.10038 0.0
C780 C 0.38928 0.49558 0.07091 0.0
C781 C 0.13366 0.56263 0.56894 0.0
C782 C 0.13273 0.56792 0.49965 0.0
C783 C 0.13371 0.52463 0.59772 0.0
C784 C 0.13295 0.49017 0.5585 0.0
H785 H 0.13577 0.58807 0.6015 0.0
H786 H 0.13619 0.52234 0.65087 0.0
S787 S 0.12476 0.48724 0.37555 0.0
N788 N 0.12695 0.53509 0.39327 0.0
N789 N 0.12685 0.4638 0.44707 0.0
C790 C 0.12941 0.49499 0.48952 0.0
C791 C 0.12931 0.53375 0.4602 0.0
C792 C 0.22798 0.29323 1.01853 0.0
C793 C 0.23247 0.2663 0.07073 0.0
C794 C 0.25429 0.30707 0.9819 0.0
C795 C 0.28594 0.29434 0.99599 0.0
H796 H 0.20393 0.30258 1.00422 0.0
H797 H 0.24985 0.32813 0.9424 0.0
S798 S 0.31045 0.22548 0.13035 0.0
N799 N 0.2708 0.22869 0.13689 0.0
N800 N 0.32033 0.25416 0.06732 0.0
C801 C 0.29076 0.26765 0.04855 0.0
C802 C 0.26401 0.25399 0.08634 0.0
C803 C 0.25508 0.80544 0.58245 0.0
C804 C 0.28674 0.79329 0.56696 0.0
C805 C 0.22859 0.79141 0.54656 0.0
C806 C 0.23291 0.76487 0.4937 0.0
H807 H 0.25078 0.82627 0.62239 0.0
H808 H 0.20457 0.80039 0.5618 0.0
S809 S 0.31083 0.72574 0.43049 0.0
N810 N 0.32094 0.75416 0.49371 0.0
N811 N 0.27108 0.72822 0.42558 0.0
C812 C 0.26444 0.75302 0.47691 0.0
C813 C 0.29137 0.76692 0.51391 0.0
C814 C 0.26434 0.80709 0.98318 0.0
C815 C 0.23263 0.79509 0.99862 0.0
C816 C 0.29071 0.79292 1.01918 0.0
C817 C 0.28618 0.76649 0.07211 0.0
H818 H 0.26878 0.8277 0.943 0.0
H819 H 0.31481 0.80157 1.00381 0.0
S820 S 0.20805 0.72879 0.13645 0.0
N821 N 0.19814 0.75688 0.07277 0.0
N822 N 0.24782 0.7307 0.14103 0.0
C823 C 0.2546 0.75513 0.08929 0.0
C824 C 0.2278 0.76914 0.0522 0.0
C825 C 0.25577 0.25454 0.48234 0.0
C826 C 0.28747 0.26602 0.49879 0.0
C827 C 0.22933 0.26851 0.51831 0.0
C828 C 0.23374 0.29436 0.5721 0.0
H829 H 0.25141 0.23428 0.44161 0.0
H830 H 0.20528 0.26007 0.50239 0.0
S831 S 0.31177 0.33153 0.63786 0.0
N832 N 0.32183 0.30367 0.57392 0.0
N833 N 0.27195 0.32982 0.64186 0.0
C834 C 0.26528 0.30567 0.58968 0.0
C835 C 0.2922 0.29171 0.55274 0.0
C836 C 0.78992 0.76709 0.04346 0.0
C837 C 0.78523 0.79371 0.99088 0.0
C838 C 0.76381 0.75368 0.08102 0.0
C839 C 0.73214 0.76648 0.06746 0.0
H840 H 0.814 0.75755 0.05725 0.0
H841 H 0.76842 0.73275 0.12063 0.0
S842 S 0.70716 0.83538 0.9335 0.0
N843 N 0.74672 0.83167 0.92571 0.0
N844 N 0.69753 0.80694 0.99699 0.0
C845 C 0.72714 0.79314 1.01492 0.0
C846 C 0.75369 0.80641 0.97621 0.0
C847 C 0.79089 0.26495 0.51849 0.0
C848 C 0.78689 0.29118 0.57184 0.0
C849 C 0.7642 0.25142 0.48273 0.0
C850 C 0.73268 0.26383 0.49889 0.0
H851 H 0.81482 0.25604 0.50253 0.0
H852 H 0.76824 0.23095 0.44217 0.0
S853 S 0.70947 0.33049 0.63725 0.0
N854 N 0.74921 0.32752 0.64156 0.0
N855 N 0.69896 0.30263 0.5736 0.0
C856 C 0.72837 0.28967 0.55276 0.0
C857 C 0.75549 0.30299 0.58967 0.0
C858 C 0.76323 0.3058 0.9836 0.0
C859 C 0.73154 0.2938 0.99907 0.0
C860 C 0.78959 0.29155 1.01942 0.0
C861 C 0.7851 0.26491 0.07208 0.0
H862 H 0.76768 0.32659 0.94368 0.0
H863 H 0.81365 0.30041 1.00418 0.0
S864 S 0.70705 0.22582 0.1348 0.0
N865 N 0.6971 0.25458 0.07197 0.0
N866 N 0.74681 0.22812 0.13977 0.0
C867 C 0.75355 0.25316 0.08881 0.0
C868 C 0.72672 0.26733 0.05196 0.0
C869 C 0.78321 0.80014 0.50402 0.0
C870 C 0.78467 0.75863 0.50062 0.0
C871 C 0.75799 0.81891 0.53736 0.0
C872 C 0.73331 0.79678 0.56857 0.0
H873 H 0.80151 0.81827 0.4803 0.0
H874 H 0.75747 0.85112 0.53695 0.0
S875 S 0.72836 0.6873 0.58195 0.0
N876 N 0.76093 0.69567 0.53697 0.0
N877 N 0.71327 0.73154 0.59882 0.0
C878 C 0.735 0.75531 0.56748 0.0
C879 C 0.76072 0.73607 0.53366 0.0
loop_
_geom_bond_atom_site_label_1
_geom_bond_atom_site_label_2
_geom_bond_distance
_geom_bond_site_symmetry_2
_ccdc_geom_bond_type
Fe0 O2 1.918 . S
Fe0 O5 1.997 . S
Fe0 O6 2.002 . S
Fe0 O11 1.976 . S
Fe0 O14 1.996 1_554 S
Fe1 O2 1.918 . S
Fe1 O9 1.997 . S
Fe1 O12 1.996 . S
Fe1 O16 1.976 . S
Fe1 O19 2.002 . S
O2 Fe0 1.918 . S
O2 Fe1 1.918 . S
O2 Fe3 1.918 . S
Fe3 O2 1.918 . S
Fe3 O4 2.002 . S
Fe3 O13 1.976 1_554 S
Fe3 O17 1.996 . S
Fe3 O20 1.997 . S
O4 Fe3 2.002 . S
O4 C21 1.295 . S
O5 Fe0 1.997 . S
O5 C21 1.235 . S
O6 Fe0 2.002 . S
O6 C7 1.295 . S
C7 O6 1.295 . S
C7 O9 1.235 . S
C8 O13 1.287 . S
C8 O14 1.255 . S
O9 Fe1 1.997 . S
O9 C7 1.235 . S
C10 O16 1.287 . S
C10 O17 1.255 . S
O11 Fe0 1.976 . S
O11 C18 1.287 . S
O12 Fe1 1.996 . S
O12 C18 1.255 . S
O13 Fe3 1.976 1_556 S
O13 C8 1.287 . S
O14 Fe0 1.996 1_556 S
O14 C8 1.255 . S
C15 O19 1.295 . S
C15 O20 1.235 . S
O16 Fe1 1.976 . S
O16 C10 1.287 . S
O17 Fe3 1.996 . S
O17 C10 1.255 . S
C18 O11 1.287 . S
C18 O12 1.255 . S
O19 Fe1 2.002 . S
O19 C15 1.295 . S
O20 Fe3 1.997 . S
O20 C15 1.235 . S
C21 O4 1.295 . S
C21 O5 1.235 . S
Fe22 O24 1.918 . S
Fe22 O27 1.997 . S
Fe22 O28 2.002 . S
Fe22 O33 1.976 . S
Fe22 O36 1.996 . S
Fe23 O24 1.918 . S
Fe23 O31 1.997 . S
Fe23 O34 1.996 . S
Fe23 O38 1.976 . S
Fe23 O41 2.002 . S
O24 Fe22 1.918 . S
O24 Fe23 1.918 . S
O24 Fe25 1.918 . S
Fe25 O24 1.918 . S
Fe25 O26 2.002 . S
Fe25 O35 1.976 . S
Fe25 O39 1.996 . S
Fe25 O42 1.997 . S
O26 Fe25 2.002 . S
O26 C43 1.295 . S
O27 Fe22 1.997 . S
O27 C43 1.235 . S
O28 Fe22 2.002 . S
O28 C29 1.295 . S
C29 O28 1.295 . S
C29 O31 1.235 . S
C30 O35 1.287 . S
C30 O36 1.255 . S
O31 Fe23 1.997 . S
O31 C29 1.235 . S
C32 O38 1.287 . S
C32 O39 1.255 . S
O33 Fe22 1.976 . S
O33 C40 1.287 . S
O34 Fe23 1.996 . S
O34 C40 1.255 . S
O35 Fe25 1.976 . S
O35 C30 1.287 . S
O36 Fe22 1.996 . S
O36 C30 1.255 . S
C37 O41 1.295 . S
C37 O42 1.235 . S
O38 Fe23 1.976 . S
O38 C32 1.287 . S
O39 Fe25 1.996 . S
O39 C32 1.255 . S
C40 O33 1.287 . S
C40 O34 1.255 . S
O41 Fe23 2.002 . S
O41 C37 1.295 . S
O42 Fe25 1.997 . S
O42 C37 1.235 . S
C43 O26 1.295 . S
C43 O27 1.235 . S
Fe44 O46 1.918 . S
Fe44 O49 1.997 . S
Fe44 O50 2.002 . S
Fe44 O55 1.976 . S
Fe44 O58 1.996 1_556 S
Fe45 O46 1.918 . S
Fe45 O53 1.997 . S
Fe45 O56 1.996 . S
Fe45 O60 1.976 . S
Fe45 O63 2.002 . S
O46 Fe44 1.918 . S
O46 Fe45 1.918 . S
O46 Fe47 1.918 . S
Fe47 O46 1.918 . S
Fe47 O48 2.002 . S
Fe47 O57 1.976 1_556 S
Fe47 O61 1.996 . S
Fe47 O64 1.997 . S
O48 Fe47 2.002 . S
O48 C65 1.295 . S
O49 Fe44 1.997 . S
O49 C65 1.235 . S
O50 Fe44 2.002 . S
O50 C51 1.295 . S
C51 O50 1.295 . S
C51 O53 1.235 . S
C52 O57 1.287 . S
C52 O58 1.255 . S
O53 Fe45 1.997 . S
O53 C51 1.235 . S
C54 O60 1.287 . S
C54 O61 1.255 . S
O55 Fe44 1.976 . S
O55 C62 1.287 . S
O56 Fe45 1.996 . S
O56 C62 1.255 . S
O57 Fe47 1.976 1_554 S
O57 C52 1.287 . S
O58 Fe44 1.996 1_554 S
O58 C52 1.255 . S
C59 O63 1.295 . S
C59 O64 1.235 . S
O60 Fe45 1.976 . S
O60 C54 1.287 . S
O61 Fe47 1.996 . S
O61 C54 1.255 . S
C62 O55 1.287 . S
C62 O56 1.255 . S
O63 Fe45 2.002 . S
O63 C59 1.295 . S
O64 Fe47 1.997 . S
O64 C59 1.235 . S
C65 O48 1.295 . S
C65 O49 1.235 . S
Fe66 O68 1.918 . S
Fe66 O71 1.997 . S
Fe66 O72 2.002 . S
Fe66 O77 1.976 . S
Fe66 O80 1.996 . S
Fe67 O68 1.918 . S
Fe67 O75 1.997 . S
Fe67 O78 1.996 . S
Fe67 O82 1.976 . S
Fe67 O85 2.002 . S
O68 Fe66 1.918 . S
O68 Fe67 1.918 . S
O68 Fe69 1.918 . S
Fe69 O68 1.918 . S
Fe69 O70 2.002 . S
Fe69 O79 1.976 . S
Fe69 O83 1.996 . S
Fe69 O86 1.997 . S
O70 Fe69 2.002 . S
O70 C87 1.295 . S
O71 Fe66 1.997 . S
O71 C87 1.235 . S
O72 Fe66 2.002 . S
O72 C73 1.295 . S
C73 O72 1.295 . S
C73 O75 1.235 . S
C74 O79 1.287 . S
C74 O80 1.255 . S
O75 Fe67 1.997 . S
O75 C73 1.235 . S
C76 O82 1.287 . S
C76 O83 1.255 . S
O77 Fe66 1.976 . S
O77 C84 1.287 . S
O78 Fe67 1.996 . S
O78 C84 1.255 . S
O79 Fe69 1.976 . S
O79 C74 1.287 . S
O80 Fe66 1.996 . S
O80 C74 1.255 . S
C81 O85 1.295 . S
C81 O86 1.235 . S
O82 Fe67 1.976 . S
O82 C76 1.287 . S
O83 Fe69 1.996 . S
O83 C76 1.255 . S
C84 O77 1.287 . S
C84 O78 1.255 . S
O85 Fe67 2.002 . S
O85 C81 1.295 . S
O86 Fe69 1.997 . S
O86 C81 1.235 . S
C87 O70 1.295 . S
C87 O71 1.235 . S
Fe88 O90 1.918 . S
Fe88 O93 1.997 . S
Fe88 O94 2.002 . S
Fe88 O99 1.976 . S
Fe88 O102 1.996 . S
Fe89 O90 1.918 . S
Fe89 O97 1.997 . S
Fe89 O100 1.996 . S
Fe89 O104 1.976 1_556 S
Fe89 O107 2.002 . S
O90 Fe88 1.918 . S
O90 Fe89 1.918 . S
O90 Fe91 1.918 . S
Fe91 O90 1.918 . S
Fe91 O92 2.002 . S
Fe91 O101 1.976 . S
Fe91 O105 1.996 1_556 S
Fe91 O108 1.997 . S
O92 Fe91 2.002 . S
O92 C109 1.295 . S
O93 Fe88 1.997 . S
O93 C109 1.235 . S
O94 Fe88 2.002 . S
O94 C95 1.295 . S
C95 O94 1.295 . S
C95 O97 1.235 . S
C96 O101 1.287 . S
C96 O102 1.255 . S
O97 Fe89 1.997 . S
O97 C95 1.235 . S
C98 O104 1.287 . S
C98 O105 1.255 . S
O99 Fe88 1.976 . S
O99 C106 1.287 . S
O100 Fe89 1.996 . S
O100 C106 1.255 . S
O101 Fe91 1.976 . S
O101 C96 1.287 . S
O102 Fe88 1.996 . S
O102 C96 1.255 . S
C103 O107 1.295 . S
C103 O108 1.235 . S
O104 Fe89 1.976 1_554 S
O104 C98 1.287 . S
O105 Fe91 1.996 1_554 S
O105 C98 1.255 . S
C106 O99 1.287 . S
C106 O100 1.255 . S
O107 Fe89 2.002 . S
O107 C103 1.295 . S
O108 Fe91 1.997 . S
O108 C103 1.235 . S
C109 O92 1.295 . S
C109 O93 1.235 . S
Fe110 O112 1.918 . S
Fe110 O115 1.997 . S
Fe110 O116 2.002 . S
Fe110 O121 1.976 . S
Fe110 O124 1.996 . S
Fe111 O112 1.918 . S
Fe111 O119 1.997 . S
Fe111 O122 1.996 . S
Fe111 O126 1.976 . S
Fe111 O129 2.002 . S
O112 Fe110 1.918 . S
O112 Fe111 1.918 . S
O112 Fe113 1.918 . S
Fe113 O112 1.918 . S
Fe113 O114 2.002 . S
Fe113 O123 1.976 . S
Fe113 O127 1.996 . S
Fe113 O130 1.997 . S
O114 Fe113 2.002 . S
O114 C131 1.295 . S
O115 Fe110 1.997 . S
O115 C131 1.235 . S
O116 Fe110 2.002 . S
O116 C117 1.295 . S
C117 O116 1.295 . S
C117 O119 1.235 . S
C118 O123 1.287 . S
C118 O124 1.255 . S
O119 Fe111 1.997 . S
O119 C117 1.235 . S
C120 O126 1.287 . S
C120 O127 1.255 . S
O121 Fe110 1.976 . S
O121 C128 1.287 . S
O122 Fe111 1.996 . S
O122 C128 1.255 . S
O123 Fe113 1.976 . S
O123 C118 1.287 . S
O124 Fe110 1.996 . S
O124 C118 1.255 . S
C125 O129 1.295 . S
C125 O130 1.235 . S
O126 Fe111 1.976 . S
O126 C120 1.287 . S
O127 Fe113 1.996 . S
O127 C120 1.255 . S
C128 O121 1.287 . S
C128 O122 1.255 . S
O129 Fe111 2.002 . S
O129 C125 1.295 . S
O130 Fe113 1.997 . S
O130 C125 1.235 . S
C131 O114 1.295 . S
C131 O115 1.235 . S
Fe132 O134 1.918 . S
Fe132 O137 1.997 . S
Fe132 O138 2.002 . S
Fe132 O143 1.976 . S
Fe132 O146 1.996 . S
Fe133 O134 1.918 . S
Fe133 O141 1.997 . S
Fe133 O144 1.996 . S
Fe133 O148 1.976 1_554 S
Fe133 O151 2.002 . S
O134 Fe132 1.918 . S
O134 Fe133 1.918 . S
O134 Fe135 1.918 . S
Fe135 O134 1.918 . S
Fe135 O136 2.002 . S
Fe135 O145 1.976 . S
Fe135 O149 1.996 1_554 S
Fe135 O152 1.997 . S
O136 Fe135 2.002 . S
O136 C153 1.295 . S
O137 Fe132 1.997 . S
O137 C153 1.235 . S
O138 Fe132 2.002 . S
O138 C139 1.295 . S
C139 O138 1.295 . S
C139 O141 1.235 . S
C140 O145 1.287 . S
C140 O146 1.255 . S
O141 Fe133 1.997 . S
O141 C139 1.235 . S
C142 O148 1.287 . S
C142 O149 1.255 . S
O143 Fe132 1.976 . S
O143 C150 1.287 . S
O144 Fe133 1.996 . S
O144 C150 1.255 . S
O145 Fe135 1.976 . S
O145 C140 1.287 . S
O146 Fe132 1.996 . S
O146 C140 1.255 . S
C147 O151 1.295 . S
C147 O152 1.235 . S
O148 Fe133 1.976 1_556 S
O148 C142 1.287 . S
O149 Fe135 1.996 1_556 S
O149 C142 1.255 . S
C150 O143 1.287 . S
C150 O144 1.255 . S
O151 Fe133 2.002 . S
O151 C147 1.295 . S
O152 Fe135 1.997 . S
O152 C147 1.235 . S
C153 O136 1.295 . S
C153 O137 1.235 . S
Fe154 O156 1.918 . S
Fe154 O159 1.997 . S
Fe154 O160 2.002 . S
Fe154 O165 1.976 . S
Fe154 O168 1.996 . S
Fe155 O156 1.918 . S
Fe155 O163 1.997 . S
Fe155 O166 1.996 . S
Fe155 O170 1.976 . S
Fe155 O173 2.002 . S
O156 Fe154 1.918 . S
O156 Fe155 1.918 . S
O156 Fe157 1.918 . S
Fe157 O156 1.918 . S
Fe157 O158 2.002 . S
Fe157 O167 1.976 . S
Fe157 O171 1.996 . S
Fe157 O174 1.997 . S
O158 Fe157 2.002 . S
O158 C175 1.295 . S
O159 Fe154 1.997 . S
O159 C175 1.235 . S
O160 Fe154 2.002 . S
O160 C161 1.295 . S
C161 O160 1.295 . S
C161 O163 1.235 . S
C162 O167 1.287 . S
C162 O168 1.255 . S
O163 Fe155 1.997 . S
O163 C161 1.235 . S
C164 O170 1.287 . S
C164 O171 1.255 . S
O165 Fe154 1.976 . S
O165 C172 1.287 . S
O166 Fe155 1.996 . S
O166 C172 1.255 . S
O167 Fe157 1.976 . S
O167 C162 1.287 . S
O168 Fe154 1.996 . S
O168 C162 1.255 . S
C169 O173 1.295 . S
C169 O174 1.235 . S
O170 Fe155 1.976 . S
O170 C164 1.287 . S
O171 Fe157 1.996 . S
O171 C164 1.255 . S
C172 O165 1.287 . S
C172 O166 1.255 . S
O173 Fe155 2.002 . S
O173 C169 1.295 . S
O174 Fe157 1.997 . S
O174 C169 1.235 . S
C175 O158 1.295 . S
C175 O159 1.235 . S
Fe176 O178 1.918 . S
Fe176 O181 1.997 . S
Fe176 O182 2.002 . S
Fe176 O187 1.976 . S
Fe176 O190 1.996 1_554 S
Fe177 O178 1.918 . S
Fe177 O185 1.997 . S
Fe177 O188 1.996 . S
Fe177 O192 1.976 . S
Fe177 O195 2.002 . S
O178 Fe176 1.918 . S
O178 Fe177 1.918 . S
O178 Fe179 1.918 . S
Fe179 O178 1.918 . S
Fe179 O180 2.002 . S
Fe179 O189 1.976 1_554 S
Fe179 O193 1.996 . S
Fe179 O196 1.997 . S
O180 Fe179 2.002 . S
O180 C197 1.295 . S
O181 Fe176 1.997 . S
O181 C197 1.235 . S
O182 Fe176 2.002 . S
O182 C183 1.295 . S
C183 O182 1.295 . S
C183 O185 1.235 . S
C184 O189 1.287 . S
C184 O190 1.255 . S
O185 Fe177 1.997 . S
O185 C183 1.235 . S
C186 O192 1.287 . S
C186 O193 1.255 . S
O187 Fe176 1.976 . S
O187 C194 1.287 . S
O188 Fe177 1.996 . S
O188 C194 1.255 . S
O189 Fe179 1.976 1_556 S
O189 C184 1.287 . S
O190 Fe176 1.996 1_556 S
O190 C184 1.255 . S
C191 O195 1.295 . S
C191 O196 1.235 . S
O192 Fe177 1.976 . S
O192 C186 1.287 . S
O193 Fe179 1.996 . S
O193 C186 1.255 . S
C194 O187 1.287 . S
C194 O188 1.255 . S
O195 Fe177 2.002 . S
O195 C191 1.295 . S
O196 Fe179 1.997 . S
O196 C191 1.235 . S
C197 O180 1.295 . S
C197 O181 1.235 . S
Fe198 O200 1.918 . S
Fe198 O203 1.997 . S
Fe198 O204 2.002 . S
Fe198 O209 1.976 . S
Fe198 O212 1.996 . S
Fe199 O200 1.918 . S
Fe199 O207 1.997 . S
Fe199 O210 1.996 . S
Fe199 O214 1.976 . S
Fe199 O217 2.002 . S
O200 Fe198 1.918 . S
O200 Fe199 1.918 . S
O200 Fe201 1.918 . S
Fe201 O200 1.918 . S
Fe201 O202 2.002 . S
Fe201 O211 1.976 . S
Fe201 O215 1.996 . S
Fe201 O218 1.997 . S
O202 Fe201 2.002 . S
O202 C219 1.295 . S
O203 Fe198 1.997 . S
O203 C219 1.235 . S
O204 Fe198 2.002 . S
O204 C205 1.295 . S
C205 O204 1.295 . S
C205 O207 1.235 . S
C206 O211 1.287 . S
C206 O212 1.255 . S
O207 Fe199 1.997 . S
O207 C205 1.235 . S
C208 O214 1.287 . S
C208 O215 1.255 . S
O209 Fe198 1.976 . S
O209 C216 1.287 . S
O210 Fe199 1.996 . S
O210 C216 1.255 . S
O211 Fe201 1.976 . S
O211 C206 1.287 . S
O212 Fe198 1.996 . S
O212 C206 1.255 . S
C213 O217 1.295 . S
C213 O218 1.235 . S
O214 Fe199 1.976 . S
O214 C208 1.287 . S
O215 Fe201 1.996 . S
O215 C208 1.255 . S
C216 O209 1.287 . S
C216 O210 1.255 . S
O217 Fe199 2.002 . S
O217 C213 1.295 . S
O218 Fe201 1.997 . S
O218 C213 1.235 . S
C219 O202 1.295 . S
C219 O203 1.235 . S
Fe220 O222 1.918 . S
Fe220 O225 1.997 . S
Fe220 O226 2.002 . S
Fe220 O231 1.976 . S
Fe220 O234 1.996 1_556 S
Fe221 O222 1.918 . S
Fe221 O229 1.997 . S
Fe221 O232 1.996 . S
Fe221 O236 1.976 . S
Fe221 O239 2.002 . S
O222 Fe220 1.918 . S
O222 Fe221 1.918 . S
O222 Fe223 1.918 . S
Fe223 O222 1.918 . S
Fe223 O224 2.002 . S
Fe223 O233 1.976 1_556 S
Fe223 O237 1.996 . S
Fe223 O240 1.997 . S
O224 Fe223 2.002 . S
O224 C241 1.295 . S
O225 Fe220 1.997 . S
O225 C241 1.235 . S
O226 Fe220 2.002 . S
O226 C227 1.295 . S
C227 O226 1.295 . S
C227 O229 1.235 . S
C228 O233 1.287 . S
C228 O234 1.255 . S
O229 Fe221 1.997 . S
O229 C227 1.235 . S
C230 O236 1.287 . S
C230 O237 1.255 . S
O231 Fe220 1.976 . S
O231 C238 1.287 . S
O232 Fe221 1.996 . S
O232 C238 1.255 . S
O233 Fe223 1.976 1_554 S
O233 C228 1.287 . S
O234 Fe220 1.996 1_554 S
O234 C228 1.255 . S
C235 O239 1.295 . S
C235 O240 1.235 . S
O236 Fe221 1.976 . S
O236 C230 1.287 . S
O237 Fe223 1.996 . S
O237 C230 1.255 . S
C238 O231 1.287 . S
C238 O232 1.255 . S
O239 Fe221 2.002 . S
O239 C235 1.295 . S
O240 Fe223 1.997 . S
O240 C235 1.235 . S
C241 O224 1.295 . S
C241 O225 1.235 . S
Fe242 O244 1.918 . S
Fe242 O247 1.997 . S
Fe242 O248 2.002 . S
Fe242 O253 1.976 . S
Fe242 O256 1.996 . S
Fe243 O244 1.918 . S
Fe243 O251 1.997 . S
Fe243 O254 1.996 . S
Fe243 O258 1.976 . S
Fe243 O261 2.002 . S
O244 Fe242 1.918 . S
O244 Fe243 1.918 . S
O244 Fe245 1.918 . S
Fe245 O244 1.918 . S
Fe245 O246 2.002 . S
Fe245 O255 1.976 . S
Fe245 O259 1.996 . S
Fe245 O262 1.997 . S
O246 Fe245 2.002 . S
O246 C263 1.295 . S
O247 Fe242 1.997 . S
O247 C263 1.235 . S
O248 Fe242 2.002 . S
O248 C249 1.295 . S
C249 O248 1.295 . S
C249 O251 1.235 . S
C250 O255 1.287 . S
C250 O256 1.255 . S
O251 Fe243 1.997 . S
O251 C249 1.235 . S
C252 O258 1.287 . S
C252 O259 1.255 . S
O253 Fe242 1.976 . S
O253 C260 1.287 . S
O254 Fe243 1.996 . S
O254 C260 1.255 . S
O255 Fe245 1.976 . S
O255 C250 1.287 . S
O256 Fe242 1.996 . S
O256 C250 1.255 . S
C257 O261 1.295 . S
C257 O262 1.235 . S
O258 Fe243 1.976 . S
O258 C252 1.287 . S
O259 Fe245 1.996 . S
O259 C252 1.255 . S
C260 O253 1.287 . S
C260 O254 1.255 . S
O261 Fe243 2.002 . S
O261 C257 1.295 . S
O262 Fe245 1.997 . S
O262 C257 1.235 . S
C263 O246 1.295 . S
C263 O247 1.235 . S
Fe264 O266 1.918 . S
Fe264 O269 1.997 . S
Fe264 O270 2.002 . S
Fe264 O275 1.976 . S
Fe264 O278 1.996 . S
Fe265 O266 1.918 . S
Fe265 O273 1.997 . S
Fe265 O276 1.996 . S
Fe265 O280 1.976 1_556 S
Fe265 O283 2.002 . S
O266 Fe264 1.918 . S
O266 Fe265 1.918 . S
O266 Fe267 1.918 . S
Fe267 O266 1.918 . S
Fe267 O268 2.002 . S
Fe267 O277 1.976 . S
Fe267 O281 1.996 1_556 S
Fe267 O284 1.997 . S
O268 Fe267 2.002 . S
O268 C285 1.295 . S
O269 Fe264 1.997 . S
O269 C285 1.235 . S
O270 Fe264 2.002 . S
O270 C271 1.295 . S
C271 O270 1.295 . S
C271 O273 1.235 . S
C272 O277 1.287 . S
C272 O278 1.255 . S
O273 Fe265 1.997 . S
O273 C271 1.235 . S
C274 O280 1.287 . S
C274 O281 1.255 . S
O275 Fe264 1.976 . S
O275 C282 1.287 . S
O276 Fe265 1.996 . S
O276 C282 1.255 . S
O277 Fe267 1.976 . S
O277 C272 1.287 . S
O278 Fe264 1.996 . S
O278 C272 1.255 . S
C279 O283 1.295 . S
C279 O284 1.235 . S
O280 Fe265 1.976 1_554 S
O280 C274 1.287 . S
O281 Fe267 1.996 1_554 S
O281 C274 1.255 . S
C282 O275 1.287 . S
C282 O276 1.255 . S
O283 Fe265 2.002 . S
O283 C279 1.295 . S
O284 Fe267 1.997 . S
O284 C279 1.235 . S
C285 O268 1.295 . S
C285 O269 1.235 . S
Fe286 O288 1.918 . S
Fe286 O291 1.997 . S
Fe286 O292 2.002 . S
Fe286 O297 1.976 . S
Fe286 O300 1.996 . S
Fe287 O288 1.918 . S
Fe287 O295 1.997 . S
Fe287 O298 1.996 . S
Fe287 O302 1.976 . S
Fe287 O305 2.002 . S
O288 Fe286 1.918 . S
O288 Fe287 1.918 . S
O288 Fe289 1.918 . S
Fe289 O288 1.918 . S
Fe289 O290 2.002 . S
Fe289 O299 1.976 . S
Fe289 O303 1.996 . S
Fe289 O306 1.997 . S
O290 Fe289 2.002 . S
O290 C307 1.295 . S
O291 Fe286 1.997 . S
O291 C307 1.235 . S
O292 Fe286 2.002 . S
O292 C293 1.295 . S
C293 O292 1.295 . S
C293 O295 1.235 . S
C294 O299 1.287 . S
C294 O300 1.255 . S
O295 Fe287 1.997 . S
O295 C293 1.235 . S
C296 O302 1.287 . S
C296 O303 1.255 . S
O297 Fe286 1.976 . S
O297 C304 1.287 . S
O298 Fe287 1.996 . S
O298 C304 1.255 . S
O299 Fe289 1.976 . S
O299 C294 1.287 . S
O300 Fe286 1.996 . S
O300 C294 1.255 . S
C301 O305 1.295 . S
C301 O306 1.235 . S
O302 Fe287 1.976 . S
O302 C296 1.287 . S
O303 Fe289 1.996 . S
O303 C296 1.255 . S
C304 O297 1.287 . S
C304 O298 1.255 . S
O305 Fe287 2.002 . S
O305 C301 1.295 . S
O306 Fe289 1.997 . S
O306 C301 1.235 . S
C307 O290 1.295 . S
C307 O291 1.235 . S
Fe308 O310 1.918 . S
Fe308 O313 1.997 . S
Fe308 O314 2.002 . S
Fe308 O319 1.976 1_554 S
Fe308 O322 1.996 . S
Fe309 O310 1.918 . S
Fe309 O317 1.997 . S
Fe309 O320 1.996 1_554 S
Fe309 O324 1.976 . S
Fe309 O327 2.002 . S
O310 Fe308 1.918 . S
O310 Fe309 1.918 . S
O310 Fe311 1.918 . S
Fe311 O310 1.918 . S
Fe311 O312 2.002 . S
Fe311 O321 1.976 . S
Fe311 O325 1.996 . S
Fe311 O328 1.997 . S
O312 Fe311 2.002 . S
O312 C329 1.295 . S
O313 Fe308 1.997 . S
O313 C329 1.235 . S
O314 Fe308 2.002 . S
O314 C315 1.295 . S
C315 O314 1.295 . S
C315 O317 1.235 . S
C316 O321 1.287 . S
C316 O322 1.255 . S
O317 Fe309 1.997 . S
O317 C315 1.235 . S
C318 O324 1.287 . S
C318 O325 1.255 . S
O319 Fe308 1.976 1_556 S
O319 C326 1.287 . S
O320 Fe309 1.996 1_556 S
O320 C326 1.255 . S
O321 Fe311 1.976 . S
O321 C316 1.287 . S
O322 Fe308 1.996 . S
O322 C316 1.255 . S
C323 O327 1.295 . S
C323 O328 1.235 . S
O324 Fe309 1.976 . S
O324 C318 1.287 . S
O325 Fe311 1.996 . S
O325 C318 1.255 . S
C326 O319 1.287 . S
C326 O320 1.255 . S
O327 Fe309 2.002 . S
O327 C323 1.295 . S
O328 Fe311 1.997 . S
O328 C323 1.235 . S
C329 O312 1.295 . S
C329 O313 1.235 . S
Fe330 O332 1.918 . S
Fe330 O335 1.997 . S
Fe330 O336 2.002 . S
Fe330 O341 1.976 . S
Fe330 O344 1.996 . S
Fe331 O332 1.918 . S
Fe331 O339 1.997 . S
Fe331 O342 1.996 . S
Fe331 O346 1.976 . S
Fe331 O349 2.002 . S
O332 Fe330 1.918 . S
O332 Fe331 1.918 . S
O332 Fe333 1.918 . S
Fe333 O332 1.918 . S
Fe333 O334 2.002 . S
Fe333 O343 1.976 . S
Fe333 O347 1.996 . S
Fe333 O350 1.997 . S
O334 Fe333 2.002 . S
O334 C351 1.295 . S
O335 Fe330 1.997 . S
O335 C351 1.235 . S
O336 Fe330 2.002 . S
O336 C337 1.295 . S
C337 O336 1.295 . S
C337 O339 1.235 . S
C338 O343 1.287 . S
C338 O344 1.255 . S
O339 Fe331 1.997 . S
O339 C337 1.235 . S
C340 O346 1.287 . S
C340 O347 1.255 . S
O341 Fe330 1.976 . S
O341 C348 1.287 . S
O342 Fe331 1.996 . S
O342 C348 1.255 . S
O343 Fe333 1.976 . S
O343 C338 1.287 . S
O344 Fe330 1.996 . S
O344 C338 1.255 . S
C345 O349 1.295 . S
C345 O350 1.235 . S
O346 Fe331 1.976 . S
O346 C340 1.287 . S
O347 Fe333 1.996 . S
O347 C340 1.255 . S
C348 O341 1.287 . S
C348 O342 1.255 . S
O349 Fe331 2.002 . S
O349 C345 1.295 . S
O350 Fe333 1.997 . S
O350 C345 1.235 . S
C351 O334 1.295 . S
C351 O335 1.235 . S
C352 C353 1.369 . S
C352 C354 1.419 . S
C352 H356 0.930 . S
C353 C352 1.369 . S
C353 C362 1.429 . S
C354 C352 1.419 . S
C354 C355 1.363 . S
C354 H357 0.929 . S
C355 C354 1.363 . S
C355 C361 1.428 . S
H356 C352 0.930 . S
H357 C354 0.929 . S
S358 N359 1.613 . S
S358 N360 1.610 . S
N359 S358 1.613 . S
N359 C362 1.350 . S
N360 S358 1.610 . S
N360 C361 1.351 . S
C361 C355 1.428 . S
C361 N360 1.351 . S
C361 C362 1.434 . S
C362 C353 1.429 . S
C362 N359 1.350 . S
C362 C361 1.434 . S
C363 C364 1.369 . S
C363 C365 1.419 . S
C363 H367 0.930 . S
C364 C363 1.369 . S
C364 C373 1.429 . S
C365 C363 1.419 . S
C365 C366 1.363 . S
C365 H368 0.929 . S
C366 C365 1.363 . S
C366 C372 1.428 . S
H367 C363 0.930 . S
H368 C365 0.929 . S
S369 N370 1.613 . S
S369 N371 1.610 . S
N370 S369 1.613 . S
N370 C373 1.350 . S
N371 S369 1.610 . S
N371 C372 1.351 . S
C372 C366 1.428 . S
C372 N371 1.351 . S
C372 C373 1.434 . S
C373 C364 1.429 . S
C373 N370 1.350 . S
C373 C372 1.434 . S
C374 C375 1.369 . S
C374 C376 1.419 . S
C374 H378 0.930 . S
C375 C374 1.369 . S
C375 C384 1.429 . S
C376 C374 1.419 . S
C376 C377 1.363 . S
C376 H379 0.929 . S
C377 C376 1.363 . S
C377 C383 1.428 . S
H378 C374 0.930 . S
H379 C376 0.929 . S
S380 N381 1.613 . S
S380 N382 1.610 . S
N381 S380 1.613 . S
N381 C384 1.350 . S
N382 S380 1.610 . S
N382 C383 1.351 . S
C383 C377 1.428 . S
C383 N382 1.351 . S
C383 C384 1.434 . S
C384 C375 1.429 . S
C384 N381 1.350 . S
C384 C383 1.434 . S
C385 C386 1.369 . S
C385 C387 1.419 . S
C385 H389 0.930 . S
C386 C385 1.369 . S
C386 C395 1.429 . S
C387 C385 1.419 . S
C387 C388 1.363 . S
C387 H390 0.929 . S
C388 C387 1.363 . S
C388 C394 1.428 . S
H389 C385 0.930 . S
H390 C387 0.929 . S
S391 N392 1.613 . S
S391 N393 1.610 . S
N392 S391 1.613 . S
N392 C395 1.350 . S
N393 S391 1.610 . S
N393 C394 1.351 . S
C394 C388 1.428 . S
C394 N393 1.351 . S
C394 C395 1.434 . S
C395 C386 1.429 . S
C395 N392 1.350 . S
C395 C394 1.434 . S
C396 C397 1.369 . S
C396 C398 1.419 . S
C396 H400 0.930 . S
C397 C396 1.369 . S
C397 C406 1.429 . S
C398 C396 1.419 . S
C398 C399 1.363 . S
C398 H401 0.929 . S
C399 C398 1.363 . S
C399 C405 1.428 . S
H400 C396 0.930 . S
H401 C398 0.929 . S
S402 N403 1.613 . S
S402 N404 1.610 . S
N403 S402 1.613 . S
N403 C406 1.350 . S
N404 S402 1.610 . S
N404 C405 1.351 . S
C405 C399 1.428 . S
C405 N404 1.351 . S
C405 C406 1.434 . S
C406 C397 1.429 . S
C406 N403 1.350 . S
C406 C405 1.434 . S
C407 C408 1.369 . S
C407 C409 1.419 . S
C407 H411 0.930 . S
C408 C407 1.369 . S
C408 C417 1.429 . S
C409 C407 1.419 . S
C409 C410 1.363 . S
C409 H412 0.929 . S
C410 C409 1.363 . S
C410 C416 1.428 . S
H411 C407 0.930 . S
H412 C409 0.929 . S
S413 N414 1.613 . S
S413 N415 1.610 . S
N414 S413 1.613 . S
N414 C417 1.350 . S
N415 S413 1.610 . S
N415 C416 1.351 . S
C416 C410 1.428 . S
C416 N415 1.351 . S
C416 C417 1.434 . S
C417 C408 1.429 . S
C417 N414 1.350 . S
C417 C416 1.434 . S
C418 C419 1.369 . S
C418 C420 1.419 . S
C418 H422 0.930 . S
C419 C418 1.369 . S
C419 C428 1.429 . S
C420 C418 1.419 . S
C420 C421 1.363 . S
C420 H423 0.929 . S
C421 C420 1.363 . S
C421 C427 1.428 . S
H422 C418 0.930 . S
H423 C420 0.929 . S
S424 N425 1.613 . S
S424 N426 1.610 . S
N425 S424 1.613 . S
N425 C428 1.350 . S
N426 S424 1.610 . S
N426 C427 1.351 . S
C427 C421 1.428 . S
C427 N426 1.351 . S
C427 C428 1.434 . S
C428 C419 1.429 . S
C428 N425 1.350 . S
C428 C427 1.434 . S
C429 C430 1.369 . S
C429 C431 1.419 . S
C429 H433 0.930 . S
C430 C429 1.369 . S
C430 C439 1.429 . S
C431 C429 1.419 . S
C431 C432 1.363 . S
C431 H434 0.929 . S
C432 C431 1.363 . S
C432 C438 1.428 . S
H433 C429 0.930 . S
H434 C431 0.929 . S
S435 N436 1.613 . S
S435 N437 1.610 . S
N436 S435 1.613 . S
N436 C439 1.350 . S
N437 S435 1.610 . S
N437 C438 1.351 . S
C438 C432 1.428 . S
C438 N437 1.351 . S
C438 C439 1.434 . S
C439 C430 1.429 . S
C439 N436 1.350 . S
C439 C438 1.434 . S
C440 C441 1.369 . S
C440 C442 1.419 . S
C440 H444 0.930 . S
C441 C440 1.369 . S
C441 C450 1.429 . S
C442 C440 1.419 . S
C442 C443 1.363 . S
C442 H445 0.929 . S
C443 C442 1.363 . S
C443 C449 1.428 . S
H444 C440 0.930 . S
H445 C442 0.929 . S
S446 N447 1.613 . S
S446 N448 1.610 . S
N447 S446 1.613 . S
N447 C450 1.350 . S
N448 S446 1.610 . S
N448 C449 1.351 . S
C449 C443 1.428 . S
C449 N448 1.351 . S
C449 C450 1.434 . S
C450 C441 1.429 . S
C450 N447 1.350 . S
C450 C449 1.434 . S
C451 C452 1.369 . S
C451 C453 1.419 . S
C451 H455 0.930 . S
C452 C451 1.369 . S
C452 C461 1.429 . S
C453 C451 1.419 . S
C453 C454 1.363 . S
C453 H456 0.929 . S
C454 C453 1.363 . S
C454 C460 1.428 . S
H455 C451 0.930 . S
H456 C453 0.929 . S
S457 N458 1.613 . S
S457 N459 1.610 . S
N458 S457 1.613 . S
N458 C461 1.350 . S
N459 S457 1.610 . S
N459 C460 1.351 . S
C460 C454 1.428 . S
C460 N459 1.351 . S
C460 C461 1.434 . S
C461 C452 1.429 . S
C461 N458 1.350 . S
C461 C460 1.434 . S
C462 C463 1.369 . S
C462 C464 1.419 . S
C462 H466 0.930 . S
C463 C462 1.369 . S
C463 C472 1.429 . S
C464 C462 1.419 . S
C464 C465 1.363 . S
C464 H467 0.929 . S
C465 C464 1.363 . S
C465 C471 1.428 . S
H466 C462 0.930 . S
H467 C464 0.929 . S
S468 N469 1.613 . S
S468 N470 1.610 . S
N469 S468 1.613 . S
N469 C472 1.350 . S
N470 S468 1.610 . S
N470 C471 1.351 . S
C471 C465 1.428 . S
C471 N470 1.351 . S
C471 C472 1.434 . S
C472 C463 1.429 . S
C472 N469 1.350 . S
C472 C471 1.434 . S
C473 C474 1.369 . S
C473 C475 1.419 . S
C473 H477 0.930 . S
C474 C473 1.369 . S
C474 C483 1.429 . S
C475 C473 1.419 . S
C475 C476 1.363 . S
C475 H478 0.929 . S
C476 C475 1.363 . S
C476 C482 1.428 . S
H477 C473 0.930 . S
H478 C475 0.929 . S
S479 N480 1.613 . S
S479 N481 1.610 . S
N480 S479 1.613 . S
N480 C483 1.350 . S
N481 S479 1.610 . S
N481 C482 1.351 . S
C482 C476 1.428 . S
C482 N481 1.351 . S
C482 C483 1.434 . S
C483 C474 1.429 . S
C483 N480 1.350 . S
C483 C482 1.434 . S
C484 C485 1.369 . S
C484 C486 1.419 . S
C484 H488 0.930 . S
C485 C484 1.369 . S
C485 C494 1.429 . S
C486 C484 1.419 . S
C486 C487 1.363 . S
C486 H489 0.929 . S
C487 C486 1.363 . S
C487 C493 1.428 . S
H488 C484 0.930 . S
H489 C486 0.929 . S
S490 N491 1.613 . S
S490 N492 1.610 . S
N491 S490 1.613 . S
N491 C494 1.350 . S
N492 S490 1.610 . S
N492 C493 1.351 . S
C493 C487 1.428 . S
C493 N492 1.351 . S
C493 C494 1.434 . S
C494 C485 1.429 . S
C494 N491 1.350 . S
C494 C493 1.434 . S
C495 C496 1.369 . S
C495 C497 1.419 . S
C495 H499 0.930 . S
C496 C495 1.369 . S
C496 C505 1.429 . S
C497 C495 1.419 . S
C497 C498 1.363 . S
C497 H500 0.929 . S
C498 C497 1.363 . S
C498 C504 1.428 . S
H499 C495 0.930 . S
H500 C497 0.929 . S
S501 N502 1.613 . S
S501 N503 1.610 . S
N502 S501 1.613 . S
N502 C505 1.350 . S
N503 S501 1.610 . S
N503 C504 1.351 . S
C504 C498 1.428 . S
C504 N503 1.351 . S
C504 C505 1.434 . S
C505 C496 1.429 . S
C505 N502 1.350 . S
C505 C504 1.434 . S
C506 C507 1.369 . S
C506 C508 1.419 . S
C506 H510 0.930 . S
C507 C506 1.369 . S
C507 C516 1.429 . S
C508 C506 1.419 . S
C508 C509 1.363 . S
C508 H511 0.929 . S
C509 C508 1.363 . S
C509 C515 1.428 . S
H510 C506 0.930 . S
H511 C508 0.929 . S
S512 N513 1.613 . S
S512 N514 1.610 . S
N513 S512 1.613 . S
N513 C516 1.350 . S
N514 S512 1.610 . S
N514 C515 1.351 . S
C515 C509 1.428 . S
C515 N514 1.351 . S
C515 C516 1.434 . S
C516 C507 1.429 . S
C516 N513 1.350 . S
C516 C515 1.434 . S
C517 C518 1.369 . S
C517 C519 1.419 . S
C517 H521 0.930 . S
C518 C517 1.369 . S
C518 C527 1.429 . S
C519 C517 1.419 . S
C519 C520 1.363 . S
C519 H522 0.929 . S
C520 C519 1.363 . S
C520 C526 1.428 . S
H521 C517 0.930 . S
H522 C519 0.929 . S
S523 N524 1.613 . S
S523 N525 1.610 . S
N524 S523 1.613 . S
N524 C527 1.350 . S
N525 S523 1.610 . S
N525 C526 1.351 . S
C526 C520 1.428 . S
C526 N525 1.351 . S
C526 C527 1.434 . S
C527 C518 1.429 . S
C527 N524 1.350 . S
C527 C526 1.434 . S
C528 C529 1.369 . S
C528 C530 1.419 . S
C528 H532 0.930 . S
C529 C528 1.369 . S
C529 C538 1.429 . S
C530 C528 1.419 . S
C530 C531 1.363 . S
C530 H533 0.929 . S
C531 C530 1.363 . S
C531 C537 1.428 . S
H532 C528 0.930 . S
H533 C530 0.929 . S
S534 N535 1.613 . S
S534 N536 1.610 . S
N535 S534 1.613 . S
N535 C538 1.350 . S
N536 S534 1.610 . S
N536 C537 1.351 . S
C537 C531 1.428 . S
C537 N536 1.351 . S
C537 C538 1.434 . S
C538 C529 1.429 . S
C538 N535 1.350 . S
C538 C537 1.434 . S
C539 C540 1.369 . S
C539 C541 1.419 . S
C539 H543 0.930 . S
C540 C539 1.369 . S
C540 C549 1.429 . S
C541 C539 1.419 . S
C541 C542 1.363 . S
C541 H544 0.929 . S
C542 C541 1.363 . S
C542 C548 1.428 . S
H543 C539 0.930 . S
H544 C541 0.929 . S
S545 N546 1.613 . S
S545 N547 1.610 . S
N546 S545 1.613 . S
N546 C549 1.350 . S
N547 S545 1.610 . S
N547 C548 1.351 . S
C548 C542 1.428 . S
C548 N547 1.351 . S
C548 C549 1.434 . S
C549 C540 1.429 . S
C549 N546 1.350 . S
C549 C548 1.434 . S
C550 C551 1.369 . S
C550 C552 1.419 . S
C550 H554 0.930 . S
C551 C550 1.369 . S
C551 C560 1.429 . S
C552 C550 1.419 . S
C552 C553 1.363 . S
C552 H555 0.929 . S
C553 C552 1.363 . S
C553 C559 1.428 . S
H554 C550 0.930 . S
H555 C552 0.929 . S
S556 N557 1.613 . S
S556 N558 1.610 . S
N557 S556 1.613 . S
N557 C560 1.350 . S
N558 S556 1.610 . S
N558 C559 1.351 . S
C559 C553 1.428 . S
C559 N558 1.351 . S
C559 C560 1.434 . S
C560 C551 1.429 . S
C560 N557 1.350 . S
C560 C559 1.434 . S
C561 C562 1.369 . S
C561 C563 1.419 . S
C561 H565 0.930 . S
C562 C561 1.369 . S
C562 C571 1.429 . S
C563 C561 1.419 . S
C563 C564 1.363 . S
C563 H566 0.929 . S
C564 C563 1.363 . S
C564 C570 1.428 . S
H565 C561 0.930 . S
H566 C563 0.929 . S
S567 N568 1.613 . S
S567 N569 1.610 . S
N568 S567 1.613 . S
N568 C571 1.350 . S
N569 S567 1.610 . S
N569 C570 1.351 . S
C570 C564 1.428 . S
C570 N569 1.351 . S
C570 C571 1.434 . S
C571 C562 1.429 . S
C571 N568 1.350 . S
C571 C570 1.434 . S
C572 C573 1.369 . S
C572 C574 1.419 . S
C572 H576 0.930 . S
C573 C572 1.369 . S
C573 C582 1.429 . S
C574 C572 1.419 . S
C574 C575 1.363 . S
C574 H577 0.929 . S
C575 C574 1.363 . S
C575 C581 1.428 . S
H576 C572 0.930 . S
H577 C574 0.929 . S
S578 N579 1.613 . S
S578 N580 1.610 . S
N579 S578 1.613 . S
N579 C582 1.350 . S
N580 S578 1.610 . S
N580 C581 1.351 . S
C581 C575 1.428 . S
C581 N580 1.351 . S
C581 C582 1.434 . S
C582 C573 1.429 . S
C582 N579 1.350 . S
C582 C581 1.434 . S
C583 C584 1.369 . S
C583 C585 1.419 . S
C583 H587 0.930 . S
C584 C583 1.369 . S
C584 C593 1.429 . S
C585 C583 1.419 . S
C585 C586 1.363 . S
C585 H588 0.929 . S
C586 C585 1.363 . S
C586 C592 1.428 . S
H587 C583 0.930 . S
H588 C585 0.929 . S
S589 N590 1.613 . S
S589 N591 1.610 . S
N590 S589 1.613 . S
N590 C593 1.350 . S
N591 S589 1.610 . S
N591 C592 1.351 . S
C592 C586 1.428 . S
C592 N591 1.351 . S
C592 C593 1.434 . S
C593 C584 1.429 . S
C593 N590 1.350 . S
C593 C592 1.434 . S
C594 C595 1.369 . S
C594 C596 1.419 . S
C594 H598 0.930 . S
C595 C594 1.369 . S
C595 C604 1.429 . S
C596 C594 1.419 . S
C596 C597 1.363 . S
C596 H599 0.929 . S
C597 C596 1.363 . S
C597 C603 1.428 . S
H598 C594 0.930 . S
H599 C596 0.929 . S
S600 N601 1.613 . S
S600 N602 1.610 . S
N601 S600 1.613 . S
N601 C604 1.350 . S
N602 S600 1.610 . S
N602 C603 1.351 . S
C603 C597 1.428 . S
C603 N602 1.351 . S
C603 C604 1.434 . S
C604 C595 1.429 . S
C604 N601 1.350 . S
C604 C603 1.434 . S
C605 C606 1.369 . S
C605 C607 1.419 . S
C605 H609 0.930 . S
C606 C605 1.369 . S
C606 C615 1.429 . S
C607 C605 1.419 . S
C607 C608 1.363 . S
C607 H610 0.929 . S
C608 C607 1.363 . S
C608 C614 1.428 . S
H609 C605 0.930 . S
H610 C607 0.929 . S
S611 N612 1.613 . S
S611 N613 1.610 . S
N612 S611 1.613 . S
N612 C615 1.350 . S
N613 S611 1.610 . S
N613 C614 1.351 . S
C614 C608 1.428 . S
C614 N613 1.351 . S
C614 C615 1.434 . S
C615 C606 1.429 . S
C615 N612 1.350 . S
C615 C614 1.434 . S
C616 C617 1.369 . S
C616 C618 1.419 1_455 S
C616 H620 0.930 . S
C617 C616 1.369 . S
C617 C626 1.429 . S
C618 C616 1.419 1_655 S
C618 C619 1.363 . S
C618 H621 0.929 . S
C619 C618 1.363 . S
C619 C625 1.428 . S
H620 C616 0.930 . S
H621 C618 0.929 . S
S622 N623 1.625 . S
S622 N624 1.598 1_455 S
N623 S622 1.625 . S
N623 C626 1.350 . S
N624 S622 1.598 1_655 S
N624 C625 1.351 . S
C625 C619 1.428 . S
C625 N624 1.351 . S
C625 C626 1.434 1_655 S
C626 C617 1.429 . S
C626 N623 1.350 . S
C626 C625 1.434 1_455 S
C627 C628 1.369 . S
C627 C629 1.419 . S
C627 H631 0.930 . S
C628 C627 1.369 . S
C628 C637 1.429 . S
C629 C627 1.419 . S
C629 C630 1.363 . S
C629 H632 0.929 . S
C630 C629 1.363 . S
C630 C636 1.428 . S
H631 C627 0.930 . S
H632 C629 0.929 . S
S633 N634 1.613 . S
S633 N635 1.610 . S
N634 S633 1.613 . S
N634 C637 1.350 . S
N635 S633 1.610 . S
N635 C636 1.351 . S
C636 C630 1.428 . S
C636 N635 1.351 . S
C636 C637 1.434 . S
C637 C628 1.429 . S
C637 N634 1.350 . S
C637 C636 1.434 . S
C638 C639 1.369 . S
C638 C640 1.419 1_655 S
C638 H642 0.930 . S
C639 C638 1.369 . S
C639 C648 1.429 . S
C640 C638 1.419 1_455 S
C640 C641 1.363 . S
C640 H643 0.929 . S
C641 C640 1.363 . S
C641 C647 1.428 . S
H642 C638 0.930 . S
H643 C640 0.929 . S
S644 N645 1.599 1_455 S
S644 N646 1.624 . S
N645 S644 1.599 1_655 S
N645 C648 1.350 . S
N646 S644 1.624 . S
N646 C647 1.351 . S
C647 C641 1.428 . S
C647 N646 1.351 . S
C647 C648 1.434 1_455 S
C648 C639 1.429 . S
C648 N645 1.350 . S
C648 C647 1.434 1_655 S
C649 C650 1.369 . S
C649 C651 1.419 . S
C649 H653 0.930 . S
C650 C649 1.369 . S
C650 C659 1.429 . S
C651 C649 1.419 . S
C651 C652 1.363 . S
C651 H654 0.929 . S
C652 C651 1.363 . S
C652 C658 1.428 . S
H653 C649 0.930 . S
H654 C651 0.929 . S
S655 N656 1.613 . S
S655 N657 1.610 . S
N656 S655 1.613 . S
N656 C659 1.350 . S
N657 S655 1.610 . S
N657 C658 1.351 . S
C658 C652 1.428 . S
C658 N657 1.351 . S
C658 C659 1.434 . S
C659 C650 1.429 . S
C659 N656 1.350 . S
C659 C658 1.434 . S
C660 C661 1.369 . S
C660 C662 1.419 . S
C660 H664 0.930 . S
C661 C660 1.369 . S
C661 C670 1.429 . S
C662 C660 1.419 . S
C662 C663 1.363 . S
C662 H665 0.929 . S
C663 C662 1.363 . S
C663 C669 1.428 . S
H664 C660 0.930 . S
H665 C662 0.929 . S
S666 N667 1.613 . S
S666 N668 1.610 . S
N667 S666 1.613 . S
N667 C670 1.350 . S
N668 S666 1.610 . S
N668 C669 1.351 . S
C669 C663 1.428 . S
C669 N668 1.351 . S
C669 C670 1.434 . S
C670 C661 1.429 . S
C670 N667 1.350 . S
C670 C669 1.434 . S
C671 C672 1.369 . S
C671 C673 1.419 1_655 S
C671 H675 0.930 . S
C672 C671 1.369 . S
C672 C681 1.429 . S
C673 C671 1.419 1_455 S
C673 C674 1.363 . S
C673 H676 0.929 . S
C674 C673 1.363 . S
C674 C680 1.428 . S
H675 C671 0.930 . S
H676 C673 0.929 . S
S677 N678 1.609 1_455 S
S677 N679 1.614 . S
N678 S677 1.609 1_655 S
N678 C681 1.350 . S
N679 S677 1.614 . S
N679 C680 1.351 . S
C680 C674 1.428 . S
C680 N679 1.351 . S
C680 C681 1.434 1_455 S
C681 C672 1.429 . S
C681 N678 1.350 . S
C681 C680 1.434 1_655 S
C682 C683 1.369 . S
C682 C684 1.419 . S
C682 H686 0.930 . S
C683 C682 1.369 . S
C683 C692 1.429 . S
C684 C682 1.419 . S
C684 C685 1.363 . S
C684 H687 0.929 . S
C685 C684 1.363 . S
C685 C691 1.428 . S
H686 C682 0.930 . S
H687 C684 0.929 . S
S688 N689 1.613 . S
S688 N690 1.610 . S
N689 S688 1.613 . S
N689 C692 1.350 1_554 S
N690 S688 1.610 . S
N690 C691 1.351 1_554 S
C691 C685 1.428 . S
C691 N690 1.351 1_556 S
C691 C692 1.434 . S
C692 C683 1.429 . S
C692 N689 1.350 1_556 S
C692 C691 1.434 . S
C693 C694 1.369 . S
C693 C695 1.419 1_455 S
C693 H697 0.930 . S
C694 C693 1.369 . S
C694 C703 1.429 . S
C695 C693 1.419 1_655 S
C695 C696 1.363 . S
C695 H698 0.929 . S
C696 C695 1.363 . S
C696 C702 1.428 . S
H697 C693 0.930 . S
H698 C695 0.929 . S
S699 N700 1.616 1_655 S
S699 N701 1.608 . S
N700 S699 1.616 1_455 S
N700 C703 1.350 . S
N701 S699 1.608 . S
N701 C702 1.351 . S
C702 C696 1.428 . S
C702 N701 1.351 . S
C702 C703 1.434 1_655 S
C703 C694 1.429 . S
C703 N700 1.350 . S
C703 C702 1.434 1_455 S
C704 C705 1.369 . S
C704 C706 1.419 1_544 S
C704 H708 0.930 . S
C705 C704 1.369 . S
C705 C714 1.429 . S
C706 C704 1.419 1_566 S
C706 C707 1.363 . S
C706 H709 0.929 . S
C707 C706 1.363 . S
C707 C713 1.428 . S
H708 C704 0.930 . S
H709 C706 0.929 . S
S710 N711 1.596 1_565 S
S710 N712 1.627 1_554 S
N711 S710 1.596 1_545 S
N711 C714 1.350 . S
N712 S710 1.627 1_556 S
N712 C713 1.351 . S
C713 C707 1.428 . S
C713 N712 1.351 . S
C713 C714 1.434 1_566 S
C714 C705 1.429 . S
C714 N711 1.350 . S
C714 C713 1.434 1_544 S
C715 C716 1.369 . S
C715 C717 1.419 1_565 S
C715 H719 0.930 . S
C716 C715 1.369 . S
C716 C725 1.429 . S
C717 C715 1.419 1_545 S
C717 C718 1.363 . S
C717 H720 0.929 . S
C718 C717 1.363 . S
C718 C724 1.428 . S
H719 C715 0.930 . S
H720 C717 0.929 . S
S721 N722 1.613 1_545 S
S721 N723 1.610 . S
N722 S721 1.613 1_565 S
N722 C725 1.350 . S
N723 S721 1.610 . S
N723 C724 1.351 . S
C724 C718 1.428 . S
C724 N723 1.351 . S
C724 C725 1.434 1_545 S
C725 C716 1.429 . S
C725 N722 1.350 . S
C725 C724 1.434 1_565 S
C726 C727 1.369 . S
C726 C728 1.419 1_544 S
C726 H730 0.930 . S
C727 C726 1.369 . S
C727 C736 1.429 . S
C728 C726 1.419 1_566 S
C728 C729 1.363 . S
C728 H731 0.929 . S
C729 C728 1.363 . S
C729 C735 1.428 . S
H730 C726 0.930 . S
H731 C728 0.929 . S
S732 N733 1.593 1_565 S
S732 N734 1.630 1_554 S
N733 S732 1.593 1_545 S
N733 C736 1.350 . S
N734 S732 1.630 1_556 S
N734 C735 1.351 . S
C735 C729 1.428 . S
C735 N734 1.351 . S
C735 C736 1.434 1_566 S
C736 C727 1.429 . S
C736 N733 1.350 . S
C736 C735 1.434 1_544 S
C737 C738 1.369 . S
C737 C739 1.419 1_545 S
C737 H741 0.930 . S
C738 C737 1.369 . S
C738 C747 1.429 . S
C739 C737 1.419 1_565 S
C739 C740 1.363 . S
C739 H742 0.929 . S
C740 C739 1.363 . S
C740 C746 1.428 . S
H741 C737 0.930 . S
H742 C739 0.929 . S
S743 N744 1.613 1_565 S
S743 N745 1.610 . S
N744 S743 1.613 1_545 S
N744 C747 1.350 . S
N745 S743 1.610 . S
N745 C746 1.351 . S
C746 C740 1.428 . S
C746 N745 1.351 . S
C746 C747 1.434 1_565 S
C747 C738 1.429 . S
C747 N744 1.350 . S
C747 C746 1.434 1_545 S
C748 C749 1.369 . S
C748 C750 1.419 . S
C748 H752 0.930 . S
C749 C748 1.369 . S
C749 C758 1.429 1_554 S
C750 C748 1.419 . S
C750 C751 1.363 1_554 S
C750 H753 0.929 . S
C751 C750 1.363 1_556 S
C751 C757 1.428 . S
H752 C748 0.930 . S
H753 C750 0.929 . S
S754 N755 1.613 . S
S754 N756 1.610 . S
N755 S754 1.613 . S
N755 C758 1.350 . S
N756 S754 1.610 . S
N756 C757 1.351 . S
C757 C751 1.428 . S
C757 N756 1.351 . S
C757 C758 1.434 . S
C758 C749 1.429 1_556 S
C758 N755 1.350 . S
C758 C757 1.434 . S
C759 C760 1.369 . S
C759 C761 1.419 . S
C759 H763 0.930 . S
C760 C759 1.369 . S
C760 C769 1.429 . S
C761 C759 1.419 . S
C761 C762 1.363 . S
C761 H764 0.929 . S
C762 C761 1.363 . S
C762 C768 1.428 . S
H763 C759 0.930 . S
H764 C761 0.929 . S
S765 N766 1.613 . S
S765 N767 1.610 . S
N766 S765 1.613 . S
N766 C769 1.350 . S
N767 S765 1.610 . S
N767 C768 1.351 . S
C768 C762 1.428 . S
C768 N767 1.351 . S
C768 C769 1.434 . S
C769 C760 1.429 . S
C769 N766 1.350 . S
C769 C768 1.434 . S
C770 C771 1.369 . S
C770 C772 1.419 . S
C770 H774 0.930 . S
C771 C770 1.369 . S
C771 C780 1.429 1_556 S
C772 C770 1.419 . S
C772 C773 1.363 1_556 S
C772 H775 0.929 . S
C773 C772 1.363 1_554 S
C773 C779 1.428 . S
H774 C770 0.930 . S
H775 C772 0.929 . S
S776 N777 1.613 . S
S776 N778 1.610 . S
N777 S776 1.613 . S
N777 C780 1.350 . S
N778 S776 1.610 . S
N778 C779 1.351 . S
C779 C773 1.428 . S
C779 N778 1.351 . S
C779 C780 1.434 . S
C780 C771 1.429 1_554 S
C780 N777 1.350 . S
C780 C779 1.434 . S
C781 C782 1.369 . S
C781 C783 1.419 . S
C781 H785 0.930 . S
C782 C781 1.369 . S
C782 C791 1.429 . S
C783 C781 1.419 . S
C783 C784 1.363 . S
C783 H786 0.929 . S
C784 C783 1.363 . S
C784 C790 1.428 . S
H785 C781 0.930 . S
H786 C783 0.929 . S
S787 N788 1.613 . S
S787 N789 1.610 . S
N788 S787 1.613 . S
N788 C791 1.350 . S
N789 S787 1.610 . S
N789 C790 1.351 . S
C790 C784 1.428 . S
C790 N789 1.351 . S
C790 C791 1.434 . S
C791 C782 1.429 . S
C791 N788 1.350 . S
C791 C790 1.434 . S
C792 C793 1.369 1_556 S
C792 C794 1.419 . S
C792 H796 0.930 . S
C793 C792 1.369 1_554 S
C793 C802 1.429 . S
C794 C792 1.419 . S
C794 C795 1.363 . S
C794 H797 0.929 . S
C795 C794 1.363 . S
C795 C801 1.428 1_556 S
H796 C792 0.930 . S
H797 C794 0.929 . S
S798 N799 1.613 . S
S798 N800 1.610 . S
N799 S798 1.613 . S
N799 C802 1.350 . S
N800 S798 1.610 . S
N800 C801 1.351 . S
C801 C795 1.428 1_554 S
C801 N800 1.351 . S
C801 C802 1.434 . S
C802 C793 1.429 . S
C802 N799 1.350 . S
C802 C801 1.434 . S
C803 C804 1.369 . S
C803 C805 1.419 . S
C803 H807 0.930 . S
C804 C803 1.369 . S
C804 C813 1.429 . S
C805 C803 1.419 . S
C805 C806 1.363 . S
C805 H808 0.929 . S
C806 C805 1.363 . S
C806 C812 1.428 . S
H807 C803 0.930 . S
H808 C805 0.929 . S
S809 N810 1.613 . S
S809 N811 1.610 . S
N810 S809 1.613 . S
N810 C813 1.350 . S
N811 S809 1.610 . S
N811 C812 1.351 . S
C812 C806 1.428 . S
C812 N811 1.351 . S
C812 C813 1.434 . S
C813 C804 1.429 . S
C813 N810 1.350 . S
C813 C812 1.434 . S
C814 C815 1.369 . S
C814 C816 1.419 . S
C814 H818 0.930 . S
C815 C814 1.369 . S
C815 C824 1.429 1_556 S
C816 C814 1.419 . S
C816 C817 1.363 1_556 S
C816 H819 0.929 . S
C817 C816 1.363 1_554 S
C817 C823 1.428 . S
H818 C814 0.930 . S
H819 C816 0.929 . S
S820 N821 1.613 . S
S820 N822 1.610 . S
N821 S820 1.613 . S
N821 C824 1.350 . S
N822 S820 1.610 . S
N822 C823 1.351 . S
C823 C817 1.428 . S
C823 N822 1.351 . S
C823 C824 1.434 . S
C824 C815 1.429 1_554 S
C824 N821 1.350 . S
C824 C823 1.434 . S
C825 C826 1.369 . S
C825 C827 1.419 . S
C825 H829 0.930 . S
C826 C825 1.369 . S
C826 C835 1.429 . S
C827 C825 1.419 . S
C827 C828 1.363 . S
C827 H830 0.929 . S
C828 C827 1.363 . S
C828 C834 1.428 . S
H829 C825 0.930 . S
H830 C827 0.929 . S
S831 N832 1.613 . S
S831 N833 1.610 . S
N832 S831 1.613 . S
N832 C835 1.350 . S
N833 S831 1.610 . S
N833 C834 1.351 . S
C834 C828 1.428 . S
C834 N833 1.351 . S
C834 C835 1.434 . S
C835 C826 1.429 . S
C835 N832 1.350 . S
C835 C834 1.434 . S
C836 C837 1.369 1_554 S
C836 C838 1.419 . S
C836 H840 0.930 . S
C837 C836 1.369 1_556 S
C837 C846 1.429 . S
C838 C836 1.419 . S
C838 C839 1.363 . S
C838 H841 0.929 . S
C839 C838 1.363 . S
C839 C845 1.428 1_554 S
H840 C836 0.930 . S
H841 C838 0.929 . S
S842 N843 1.613 . S
S842 N844 1.610 . S
N843 S842 1.613 . S
N843 C846 1.350 . S
N844 S842 1.610 . S
N844 C845 1.351 . S
C845 C839 1.428 1_556 S
C845 N844 1.351 . S
C845 C846 1.434 . S
C846 C837 1.429 . S
C846 N843 1.350 . S
C846 C845 1.434 . S
C847 C848 1.369 . S
C847 C849 1.419 . S
C847 H851 0.930 . S
C848 C847 1.369 . S
C848 C857 1.429 . S
C849 C847 1.419 . S
C849 C850 1.363 . S
C849 H852 0.929 . S
C850 C849 1.363 . S
C850 C856 1.428 . S
H851 C847 0.930 . S
H852 C849 0.929 . S
S853 N854 1.613 . S
S853 N855 1.610 . S
N854 S853 1.613 . S
N854 C857 1.350 . S
N855 S853 1.610 . S
N855 C856 1.351 . S
C856 C850 1.428 . S
C856 N855 1.351 . S
C856 C857 1.434 . S
C857 C848 1.429 . S
C857 N854 1.350 . S
C857 C856 1.434 . S
C858 C859 1.369 . S
C858 C860 1.419 . S
C858 H862 0.930 . S
C859 C858 1.369 . S
C859 C868 1.429 1_556 S
C860 C858 1.419 . S
C860 C861 1.363 1_556 S
C860 H863 0.929 . S
C861 C860 1.363 1_554 S
C861 C867 1.428 . S
H862 C858 0.930 . S
H863 C860 0.929 . S
S864 N865 1.613 . S
S864 N866 1.610 . S
N865 S864 1.613 . S
N865 C868 1.350 . S
N866 S864 1.610 . S
N866 C867 1.351 . S
C867 C861 1.428 . S
C867 N866 1.351 . S
C867 C868 1.434 . S
C868 C859 1.429 1_554 S
C868 N865 1.350 . S
C868 C867 1.434 . S
C869 C870 1.369 . S
C869 C871 1.419 . S
C869 H873 0.930 . S
C870 C869 1.369 . S
C870 C879 1.429 . S
C871 C869 1.419 . S
C871 C872 1.363 . S
C871 H874 0.929 . S
C872 C871 1.363 . S
C872 C878 1.428 . S
H873 C869 0.930 . S
H874 C871 0.929 . S
S875 N876 1.613 . S
S875 N877 1.610 . S
N876 S875 1.613 . S
N876 C879 1.350 . S
N877 S875 1.610 . S
N877 C878 1.351 . S
C878 C872 1.428 . S
C878 N877 1.351 . S
C878 C879 1.434 . S
C879 C870 1.429 . S
C879 N876 1.350 . S
C879 C878 1.434 . S
C353 C15 1.512 . S
C355 C73 1.515 . S
C364 C59 1.516 . S
C366 C29 1.515 . S
C375 C169 1.525 . S
C377 C109 1.524 . S
C386 C117 1.526 . S
C388 C153 1.525 . S
C397 C257 1.516 . S
C399 C191 1.514 . S
C408 C235 1.515 . S
C410 C205 1.513 . S
C419 C285 1.526 . S
C421 C345 1.527 . S
C430 C323 1.525 . S
C432 C293 1.524 . S
C441 C8 1.559 . S
C443 C351 1.626 . S
C452 C32 1.550 . S
C454 C329 1.627 . S
C463 C301 1.626 . S
C465 C52 1.553 . S
C474 C271 1.627 . S
C476 C76 1.554 . S
C485 C98 1.571 . S
C487 C249 1.627 . S
C496 C118 1.572 . S
C498 C227 1.627 . S
C507 C219 1.626 . S
C509 C142 1.572 . S
C518 C183 1.629 . S
C520 C172 1.565 . S
C529 C184 1.559 . S
C531 C175 1.626 . S
C540 C208 1.550 . S
C542 C139 1.627 . S
C551 C228 1.558 . S
C553 C125 1.626 . S
C562 C250 1.559 . S
C564 C95 1.626 . S
C573 C87 1.626 . S
C575 C274 1.571 . S
C584 C51 1.627 . S
C586 C294 1.571 . S
C595 C326 1.566 . S
C597 C43 1.628 . S
C606 C348 1.571 . S
C608 C7 1.627 . S
C617 C18 1.456 . S
C619 C150 1.455 . S
C628 C30 1.456 . S
C630 C162 1.456 . S
C639 C106 1.456 . S
C641 C62 1.457 . S
C650 C74 1.457 . S
C652 C120 1.456 . S
C661 C194 1.456 . S
C663 C316 1.455 . S
C672 C206 1.457 . S
C674 C338 1.457 . S
C683 C238 1.457 . S
C685 C282 1.456 . S
C694 C296 1.455 . S
C696 C260 1.456 . S
C705 C10 1.530 . S
C707 C54 1.530 . S
C716 C40 1.531 . S
C718 C84 1.531 . S
C727 C140 1.532 . S
C729 C96 1.532 . S
C738 C128 1.532 . S
C740 C164 1.532 . S
C749 C186 1.530 . S
C751 C230 1.531 . S
C760 C252 1.531 . S
C762 C216 1.531 . S
C771 C272 1.531 . S
C773 C318 1.532 . S
C782 C304 1.531 . S
C784 C340 1.531 . S
C793 C21 1.144 . S
C795 C279 1.143 . S
C804 C37 1.144 . S
C806 C307 1.143 . S
C815 C65 1.138 . S
C817 C315 1.147 . S
C826 C81 1.128 . S
C828 C337 1.154 . S
C837 C103 1.142 . S
C839 C197 1.141 . S
C848 C213 1.143 . S
C850 C131 1.143 . S
C859 C241 1.130 . S
C861 C147 1.153 . S
C870 C263 1.127 . S
C872 C161 1.155 . S
