# Generated by pormake.
# Topology uox, (4)-cn, num edge types: 1
# Building blocks:
#     Node 0, Type 0, BuildingBlock: QUQFOY_clean_sbu_3, # of connection points: 4
#     Node 1, Type 0, BuildingBlock: QUQFOY_clean_sbu_3, # of connection points: 4
#     Node 2, Type 0, BuildingBlock: QUQFOY_clean_sbu_3, # of connection points: 4
#     Node 3, Type 0, BuildingBlock: QUQFOY_clean_sbu_3, # of connection points: 4
#     Node 4, Type 0, BuildingBlock: QUQFOY_clean_sbu_3, # of connection points: 4
#     Node 5, Type 0, BuildingBlock: QUQFOY_clean_sbu_3, # of connection points: 4
#     Node 6, Type 0, BuildingBlock: QUQFOY_clean_sbu_3, # of connection points: 4
#     Node 7, Type 0, BuildingBlock: QUQFOY_clean_sbu_3, # of connection points: 4
#     Node 8, Type 0, BuildingBlock: QUQFOY_clean_sbu_3, # of connection points: 4
#     Node 9, Type 0, BuildingBlock: QUQFOY_clean_sbu_3, # of connection points: 4
#     Node 10, Type 0, BuildingBlock: QUQFOY_clean_sbu_3, # of connection points: 4
#     Node 11, Type 0, BuildingBlock: QUQFOY_clean_sbu_3, # of connection points: 4
#     Node 12, Type 0, BuildingBlock: QUQFOY_clean_sbu_3, # of connection points: 4
#     Node 13, Type 0, BuildingBlock: QUQFOY_clean_sbu_3, # of connection points: 4
#     Node 14, Type 0, BuildingBlock: QUQFOY_clean_sbu_3, # of connection points: 4
#     Node 15, Type 0, BuildingBlock: QUQFOY_clean_sbu_3, # of connection points: 4
#     Node 16, Type 0, BuildingBlock: QUQFOY_clean_sbu_3, # of connection points: 4
#     Node 17, Type 0, BuildingBlock: QUQFOY_clean_sbu_3, # of connection points: 4
#     Node 18, Type 0, BuildingBlock: QUQFOY_clean_sbu_3, # of connection points: 4
#     Node 19, Type 0, BuildingBlock: QUQFOY_clean_sbu_3, # of connection points: 4
#     Node 20, Type 0, BuildingBlock: QUQFOY_clean_sbu_3, # of connection points: 4
#     Node 21, Type 0, BuildingBlock: QUQFOY_clean_sbu_3, # of connection points: 4
#     Node 22, Type 0, BuildingBlock: QUQFOY_clean_sbu_3, # of connection points: 4
#     Node 23, Type 0, BuildingBlock: QUQFOY_clean_sbu_3, # of connection points: 4
#     Node 24, Type 0, BuildingBlock: QUQFOY_clean_sbu_3, # of connection points: 4
#     Node 25, Type 0, BuildingBlock: QUQFOY_clean_sbu_3, # of connection points: 4
#     Node 26, Type 0, BuildingBlock: QUQFOY_clean_sbu_3, # of connection points: 4
#     Node 27, Type 0, BuildingBlock: QUQFOY_clean_sbu_3, # of connection points: 4
#     Node 28, Type 0, BuildingBlock: QUQFOY_clean_sbu_3, # of connection points: 4
#     Node 29, Type 0, BuildingBlock: QUQFOY_clean_sbu_3, # of connection points: 4
#     Node 30, Type 0, BuildingBlock: QUQFOY_clean_sbu_3, # of connection points: 4
#     Node 31, Type 0, BuildingBlock: QUQFOY_clean_sbu_3, # of connection points: 4
#     Edge 32, Type (0, 0), BuildingBlock: UVAHIK_clean_linker_0, # of connection points: 2
#     Edge 33, Type (0, 0), BuildingBlock: UVAHIK_clean_linker_0, # of connection points: 2
#     Edge 34, Type (0, 0), BuildingBlock: UVAHIK_clean_linker_0, # of connection points: 2
#     Edge 35, Type (0, 0), BuildingBlock: UVAHIK_clean_linker_0, # of connection points: 2
#     Edge 36, Type (0, 0), BuildingBlock: UVAHIK_clean_linker_0, # of connection points: 2
#     Edge 37, Type (0, 0), BuildingBlock: UVAHIK_clean_linker_0, # of connection points: 2
#     Edge 38, Type (0, 0), BuildingBlock: UVAHIK_clean_linker_0, # of connection points: 2
#     Edge 39, Type (0, 0), BuildingBlock: UVAHIK_clean_linker_0, # of connection points: 2
#     Edge 40, Type (0, 0), BuildingBlock: UVAHIK_clean_linker_0, # of connection points: 2
#     Edge 41, Type (0, 0), BuildingBlock: UVAHIK_clean_linker_0, # of connection points: 2
#     Edge 42, Type (0, 0), BuildingBlock: UVAHIK_clean_linker_0, # of connection points: 2
#     Edge 43, Type (0, 0), BuildingBlock: UVAHIK_clean_linker_0, # of connection points: 2
#     Edge 44, Type (0, 0), BuildingBlock: UVAHIK_clean_linker_0, # of connection points: 2
#     Edge 45, Type (0, 0), BuildingBlock: UVAHIK_clean_linker_0, # of connection points: 2
#     Edge 46, Type (0, 0), BuildingBlock: UVAHIK_clean_linker_0, # of connection points: 2
#     Edge 47, Type (0, 0), BuildingBlock: UVAHIK_clean_linker_0, # of connection points: 2
#     Edge 48, Type (0, 0), BuildingBlock: UVAHIK_clean_linker_0, # of connection points: 2
#     Edge 49, Type (0, 0), BuildingBlock: UVAHIK_clean_linker_0, # of connection points: 2
#     Edge 50, Type (0, 0), BuildingBlock: UVAHIK_clean_linker_0, # of connection points: 2
#     Edge 51, Type (0, 0), BuildingBlock: UVAHIK_clean_linker_0, # of connection points: 2
#     Edge 52, Type (0, 0), BuildingBlock: UVAHIK_clean_linker_0, # of connection points: 2
#     Edge 53, Type (0, 0), BuildingBlock: UVAHIK_clean_linker_0, # of connection points: 2
#     Edge 54, Type (0, 0), BuildingBlock: UVAHIK_clean_linker_0, # of connection points: 2
#     Edge 55, Type (0, 0), BuildingBlock: UVAHIK_clean_linker_0, # of connection points: 2
#     Edge 56, Type (0, 0), BuildingBlock: UVAHIK_clean_linker_0, # of connection points: 2
#     Edge 57, Type (0, 0), BuildingBlock: UVAHIK_clean_linker_0, # of connection points: 2
#     Edge 58, Type (0, 0), BuildingBlock: UVAHIK_clean_linker_0, # of connection points: 2
#     Edge 59, Type (0, 0), BuildingBlock: UVAHIK_clean_linker_0, # of connection points: 2
#     Edge 60, Type (0, 0), BuildingBlock: UVAHIK_clean_linker_0, # of connection points: 2
#     Edge 61, Type (0, 0), BuildingBlock: UVAHIK_clean_linker_0, # of connection points: 2
#     Edge 62, Type (0, 0), BuildingBlock: UVAHIK_clean_linker_0, # of connection points: 2
#     Edge 63, Type (0, 0), BuildingBlock: UVAHIK_clean_linker_0, # of connection points: 2
#     Edge 64, Type (0, 0), BuildingBlock: UVAHIK_clean_linker_0, # of connection points: 2
#     Edge 65, Type (0, 0), BuildingBlock: UVAHIK_clean_linker_0, # of connection points: 2
#     Edge 66, Type (0, 0), BuildingBlock: UVAHIK_clean_linker_0, # of connection points: 2
#     Edge 67, Type (0, 0), BuildingBlock: UVAHIK_clean_linker_0, # of connection points: 2
#     Edge 68, Type (0, 0), BuildingBlock: UVAHIK_clean_linker_0, # of connection points: 2
#     Edge 69, Type (0, 0), BuildingBlock: UVAHIK_clean_linker_0, # of connection points: 2
#     Edge 70, Type (0, 0), BuildingBlock: UVAHIK_clean_linker_0, # of connection points: 2
#     Edge 71, Type (0, 0), BuildingBlock: UVAHIK_clean_linker_0, # of connection points: 2
#     Edge 72, Type (0, 0), BuildingBlock: UVAHIK_clean_linker_0, # of connection points: 2
#     Edge 73, Type (0, 0), BuildingBlock: UVAHIK_clean_linker_0, # of connection points: 2
#     Edge 74, Type (0, 0), BuildingBlock: UVAHIK_clean_linker_0, # of connection points: 2
#     Edge 75, Type (0, 0), BuildingBlock: UVAHIK_clean_linker_0, # of connection points: 2
#     Edge 76, Type (0, 0), BuildingBlock: UVAHIK_clean_linker_0, # of connection points: 2
#     Edge 77, Type (0, 0), BuildingBlock: UVAHIK_clean_linker_0, # of connection points: 2
#     Edge 78, Type (0, 0), BuildingBlock: UVAHIK_clean_linker_0, # of connection points: 2
#     Edge 79, Type (0, 0), BuildingBlock: UVAHIK_clean_linker_0, # of connection points: 2
#     Edge 80, Type (0, 0), BuildingBlock: UVAHIK_clean_linker_0, # of connection points: 2
#     Edge 81, Type (0, 0), BuildingBlock: UVAHIK_clean_linker_0, # of connection points: 2
#     Edge 82, Type (0, 0), BuildingBlock: UVAHIK_clean_linker_0, # of connection points: 2
#     Edge 83, Type (0, 0), BuildingBlock: UVAHIK_clean_linker_0, # of connection points: 2
#     Edge 84, Type (0, 0), BuildingBlock: UVAHIK_clean_linker_0, # of connection points: 2
#     Edge 85, Type (0, 0), BuildingBlock: UVAHIK_clean_linker_0, # of connection points: 2
#     Edge 86, Type (0, 0), BuildingBlock: UVAHIK_clean_linker_0, # of connection points: 2
#     Edge 87, Type (0, 0), BuildingBlock: UVAHIK_clean_linker_0, # of connection points: 2
#     Edge 88, Type (0, 0), BuildingBlock: UVAHIK_clean_linker_0, # of connection points: 2
#     Edge 89, Type (0, 0), BuildingBlock: UVAHIK_clean_linker_0, # of connection points: 2
#     Edge 90, Type (0, 0), BuildingBlock: UVAHIK_clean_linker_0, # of connection points: 2
#     Edge 91, Type (0, 0), BuildingBlock: UVAHIK_clean_linker_0, # of connection points: 2
#     Edge 92, Type (0, 0), BuildingBlock: UVAHIK_clean_linker_0, # of connection points: 2
#     Edge 93, Type (0, 0), BuildingBlock: UVAHIK_clean_linker_0, # of connection points: 2
#     Edge 94, Type (0, 0), BuildingBlock: UVAHIK_clean_linker_0, # of connection points: 2
#     Edge 95, Type (0, 0), BuildingBlock: UVAHIK_clean_linker_0, # of connection points: 2
# Relax obj value: 0.059
# Max RMSD: 0.086
# Mean RMSD: 0.086
data_MOF--net-uox--node1-QUQFOY_clean_sbu_3--edge1-UVAHIK_clean_linker_0
_symmetry_space_group_name_H-M    P1
_symmetry_Int_Tables_number       1
_symmetry_cell_setting            triclinic
loop_
_symmetry_equiv_pos_as_xyz
'x, y, z'
_cell_length_a     60.182746
_cell_length_b     60.067592
_cell_length_c     103.16629
_cell_angle_alpha  89.92497
_cell_angle_beta   89.963549
_cell_angle_gamma 90.079128
loop_
_atom_site_label
_atom_site_type_symbol
_atom_site_fract_x
_atom_site_fract_y
_atom_site_fract_z
_atom_type_partial_charge
C0 C 0.48582 0.0352 0.13079 0.0
O1 O 0.47678 0.02622 0.12098 0.0
Cd2 Cd 0.43966 0.01146 0.12121 0.0
O3 O 0.47596 0.03523 0.14174 0.0
Cd4 Cd 0.44108 0.02035 0.1514 0.0
C5 C 0.41101 0.05643 0.13322 0.0
O6 O 0.43674 0.98576 0.13893 0.0
O7 O 0.40846 -0.00352 0.15016 0.0
O8 O 0.46117 0.00663 0.17043 0.0
C9 C 0.41726 0.98175 0.14304 0.0
O10 O 0.41508 0.0437 0.12363 0.0
C11 C 0.44932 0.01702 0.17862 0.0
O12 O 0.41928 0.05239 0.14433 0.0
O13 O 0.43407 0.0294 0.1741 0.0
C14 C 0.20332 0.23768 0.37839 0.0
O15 O 0.21122 0.22728 0.36872 0.0
Cd16 Cd 0.22714 0.1907 0.3698 0.0
O17 O 0.20416 0.22915 0.3897 0.0
Cd18 Cd 0.21821 0.19457 0.40012 0.0
C19 C 0.18261 0.16249 0.38258 0.0
O20 O 0.25258 0.18955 0.38765 0.0
O21 O 0.24236 0.16212 0.3998 0.0
O22 O 0.23255 0.21566 0.41858 0.0
C23 C 0.25683 0.17047 0.39231 0.0
O24 O 0.19548 0.16587 0.37297 0.0
C25 C 0.22175 0.20487 0.42711 0.0
O26 O 0.18631 0.1718 0.39346 0.0
O27 O 0.2088 0.18969 0.42304 0.0
C28 C 0.00253 0.96176 0.62608 0.0
O29 O 0.01318 0.96956 0.61645 0.0
Cd30 Cd 0.04979 0.98542 0.61773 0.0
O31 O 0.0109 0.96243 0.63742 0.0
Cd32 Cd 0.04571 0.97571 0.64782 0.0
C33 C 0.07772 0.94051 0.62992 0.0
O34 O 0.05077 0.01066 0.63576 0.0
O35 O 0.07805 5e-05 0.64781 0.0
O36 O 0.02526 0.9885 0.66699 0.0
C37 C 0.06975 0.01484 0.64052 0.0
O38 O 0.0747 0.95368 0.6204 0.0
C39 C 0.03661 0.9772 0.67502 0.0
O40 O 0.06815 0.94396 0.64075 0.0
O41 O 0.05167 0.9648 0.67033 0.0
C42 C 0.28476 0.75331 0.87739 0.0
O43 O 0.27718 0.76381 0.86766 0.0
Cd44 Cd 0.26051 0.80008 0.86876 0.0
O45 O 0.28329 0.76159 0.88873 0.0
Cd46 Cd 0.2686 0.79583 0.89915 0.0
C47 C 0.30403 0.82894 0.88201 0.0
O48 O 0.23448 0.80034 0.88639 0.0
O49 O 0.24368 0.82769 0.89882 0.0
O50 O 0.25457 0.77456 0.91771 0.0
C51 C 0.22965 0.81921 0.89112 0.0
O52 O 0.29154 0.82559 0.87224 0.0
C53 C 0.26536 0.78549 0.92616 0.0
O54 O 0.30016 0.81928 0.89278 0.0
O55 O 0.27806 0.80082 0.922 0.0
C56 C 0.48378 0.96011 0.365 0.0
O57 O 0.47255 0.96775 0.37443 0.0
Cd58 Cd 0.43599 0.98363 0.37261 0.0
O59 O 0.47594 0.96056 0.35353 0.0
Cd60 Cd 0.44117 0.9728 0.34275 0.0
C61 C 0.40872 0.93818 0.3608 0.0
O62 O 0.43568 0.00811 0.35426 0.0
O63 O 0.40848 -0.00325 0.34238 0.0
O64 O 0.46185 0.98519 0.32356 0.0
C65 C 0.41668 0.01193 0.34943 0.0
O66 O 0.41052 0.9523 0.36994 0.0
C67 C 0.45057 0.97373 0.31557 0.0
O68 O 0.41949 0.94067 0.35026 0.0
O69 O 0.43547 0.96135 0.3203 0.0
C70 C 0.28696 0.23712 0.61202 0.0
O71 O 0.27888 0.22684 0.62171 0.0
Cd72 Cd 0.2619 0.19069 0.62055 0.0
O73 O 0.28581 0.22869 0.60071 0.0
Cd74 Cd 0.27094 0.19444 0.59033 0.0
C75 C 0.30558 0.16135 0.60789 0.0
O76 O 0.23631 0.19034 0.60272 0.0
O77 O 0.24584 0.16267 0.59062 0.0
O78 O 0.2574 0.21588 0.57178 0.0
C79 C 0.23151 0.17142 0.59803 0.0
O80 O 0.29279 0.16496 0.6175 0.0
C81 C 0.26793 0.20477 0.56331 0.0
O82 O 0.30217 0.17086 0.59702 0.0
O83 O 0.28038 0.18925 0.56745 0.0
C84 C 0.00314 0.02917 0.86135 0.0
O85 O 0.01363 0.02101 0.87092 0.0
Cd86 Cd 0.05034 0.00555 0.86967 0.0
O87 O 0.0117 0.02902 0.85005 0.0
Cd88 Cd 0.04664 0.01621 0.83957 0.0
C89 C 0.07797 0.05125 0.858 0.0
O90 O 0.05157 0.98104 0.85134 0.0
O91 O 0.07907 0.99197 0.83952 0.0
O92 O 0.02607 0.00389 0.82037 0.0
C93 C 0.07065 0.97702 0.84668 0.0
O94 O 0.07488 0.03774 0.86735 0.0
C95 C 0.0375 0.01522 0.81238 0.0
O96 O 0.06869 0.04802 0.84707 0.0
O97 O 0.05271 0.02744 0.8171 0.0
C98 C 0.20855 0.75411 0.11204 0.0
O99 O 0.21668 0.76468 0.12158 0.0
Cd100 Cd 0.23249 0.80133 0.12018 0.0
O101 O 0.20901 0.76252 0.10068 0.0
Cd102 Cd 0.22244 0.79704 0.08986 0.0
C103 C 0.18744 0.82915 0.1078 0.0
O104 O 0.25713 0.80226 0.10193 0.0
O105 O 0.24684 0.82944 0.08965 0.0
O106 O 0.23576 0.77558 0.07129 0.0
C107 C 0.26137 0.82127 0.09715 0.0
O108 O 0.20064 0.82592 0.11726 0.0
C109 C 0.22463 0.78626 0.06288 0.0
O110 O 0.19077 0.81976 0.0969 0.0
O111 O 0.21202 0.8016 0.06708 0.0
C112 C 0.50177 0.96018 0.86416 0.0
O113 O 0.5126 0.96784 0.87373 0.0
Cd114 Cd 0.54946 0.983 0.8724 0.0
O115 O 0.51009 0.96065 0.85279 0.0
Cd116 Cd 0.54502 0.97335 0.8422 0.0
C117 C 0.57643 0.93755 0.86012 0.0
O118 O 0.55063 0.00808 0.85428 0.0
O119 O 0.57767 -0.00269 0.84209 0.0
O120 O 0.52445 0.98644 0.82315 0.0
C121 C 0.56963 0.01208 0.84948 0.0
O122 O 0.57365 0.95074 0.86964 0.0
C123 C 0.53564 0.97515 0.81504 0.0
O124 O 0.56696 0.94123 0.84929 0.0
O125 O 0.55067 0.9626 0.81964 0.0
C126 C 0.78325 0.75436 0.61407 0.0
O127 O 0.77596 0.76539 0.62366 0.0
Cd128 Cd 0.76054 0.80213 0.62227 0.0
O129 O 0.7823 0.76242 0.60264 0.0
Cd130 Cd 0.76903 0.79711 0.59195 0.0
C131 C 0.80505 0.82958 0.60903 0.0
O132 O 0.73488 0.80256 0.60451 0.0
O133 O 0.74478 0.82958 0.59198 0.0
O134 O 0.75476 0.77603 0.57342 0.0
C135 C 0.73047 0.82146 0.59967 0.0
O136 O 0.79231 0.82672 0.61875 0.0
C137 C 0.76588 0.78665 0.56496 0.0
O138 O 0.80113 0.81982 0.59831 0.0
O139 O 0.77891 0.80169 0.5691 0.0
C140 C 0.98504 0.03191 0.36212 0.0
O141 O 0.97426 0.02386 0.37163 0.0
Cd142 Cd 0.93756 0.00843 0.37028 0.0
O143 O 0.97678 0.03166 0.35074 0.0
Cd144 Cd 0.94197 0.01877 0.34005 0.0
C145 C 0.91056 0.05415 0.35817 0.0
O146 O 0.93662 0.98386 0.35202 0.0
O147 O 0.90934 0.99465 0.34004 0.0
O148 O 0.96273 0.00606 0.32099 0.0
C149 C 0.91755 0.97984 0.34734 0.0
O150 O 0.91337 0.04071 0.36758 0.0
C151 C 0.95134 0.01714 0.31288 0.0
O152 O 0.92001 0.05079 0.34729 0.0
O153 O 0.93612 0.02945 0.31747 0.0
C154 C 0.70872 0.23796 0.11134 0.0
O155 O 0.71771 0.22817 0.1209 0.0
Cd156 Cd 0.73074 0.19037 0.11985 0.0
O157 O 0.70758 0.22839 0.10035 0.0
Cd158 Cd 0.71974 0.19293 0.09033 0.0
C159 C 0.68356 0.16422 0.1089 0.0
O160 O 0.755 0.1862 0.10161 0.0
O161 O 0.74007 0.15801 0.09202 0.0
O162 O 0.7346 0.21257 0.07149 0.0
C163 C 0.75661 0.16609 0.098 0.0
O164 O 0.69783 0.16645 0.11793 0.0
C165 C 0.72334 0.20184 0.06317 0.0
O166 O 0.68637 0.17369 0.09796 0.0
O167 O 0.70991 0.18728 0.0675 0.0
C168 C 0.50193 0.02982 0.62857 0.0
O169 O 0.51282 0.02187 0.6191 0.0
Cd170 Cd 0.5497 0.00698 0.62056 0.0
O171 O 0.51017 0.02976 0.63996 0.0
Cd172 Cd 0.54507 0.01743 0.65073 0.0
C173 C 0.57626 0.05308 0.63252 0.0
O174 O 0.55086 0.98252 0.63891 0.0
O175 O 0.57793 0.99375 0.65093 0.0
O176 O 0.52444 0.00455 0.66984 0.0
C177 C 0.56993 0.97878 0.64366 0.0
O178 O 0.57357 0.03958 0.62314 0.0
C179 C 0.53558 0.01599 0.67789 0.0
O180 O 0.56681 0.04962 0.6434 0.0
O181 O 0.5506 0.02855 0.67325 0.0
C182 C 0.70365 0.7566 0.37984 0.0
O183 O 0.71096 0.76726 0.37009 0.0
Cd184 Cd 0.72685 0.80391 0.37112 0.0
O185 O 0.7049 0.76497 0.39117 0.0
Cd186 Cd 0.71878 0.79964 0.40155 0.0
C187 C 0.68278 0.83195 0.38438 0.0
O188 O 0.75279 0.80452 0.38876 0.0
O189 O 0.74347 0.83183 0.40117 0.0
O190 O 0.73294 0.77829 0.42 0.0
C191 C 0.75752 0.82346 0.39344 0.0
O192 O 0.69537 0.82876 0.37463 0.0
C193 C 0.72227 0.78911 0.42853 0.0
O194 O 0.68677 0.82243 0.39517 0.0
O195 O 0.70956 0.80448 0.42448 0.0
C196 C 0.98947 0.95903 0.12747 0.0
O197 O 0.97901 0.96689 0.11782 0.0
Cd198 Cd 0.94154 0.9804 0.11902 0.0
O199 O 0.98052 0.95881 0.13867 0.0
Cd200 Cd 0.94485 0.97052 0.1487 0.0
C201 C 0.91593 0.93347 0.13063 0.0
O202 O 0.93727 0.00547 0.137 0.0
O203 O 0.90994 0.9905 0.14741 0.0
O204 O 0.96374 0.98558 0.16783 0.0
C205 C 0.91738 0.00692 0.14102 0.0
O206 O 0.91844 0.94711 0.12128 0.0
C207 C 0.95305 0.97382 0.17596 0.0
O208 O 0.92502 0.93714 0.14158 0.0
O209 O 0.93902 0.96013 0.17137 0.0
C210 C 0.78525 0.2359 0.87816 0.0
O211 O 0.77617 0.22638 0.86854 0.0
Cd212 Cd 0.7614 0.18926 0.86945 0.0
O213 O 0.78553 0.22651 0.88925 0.0
Cd214 Cd 0.77111 0.19193 0.89955 0.0
C215 C 0.80635 0.16067 0.88151 0.0
O216 O 0.73628 0.18743 0.88746 0.0
O217 O 0.74689 0.15946 0.89904 0.0
O218 O 0.75745 0.2128 0.91825 0.0
C219 C 0.73211 0.16818 0.89192 0.0
O220 O 0.79347 0.16455 0.87198 0.0
C221 C 0.76816 0.20162 0.92662 0.0
O222 O 0.80268 0.16939 0.89255 0.0
O223 O 0.78077 0.18635 0.92236 0.0
C224 C 0.98312 0.5325 0.62862 0.0
O225 O 0.97258 0.52464 0.61899 0.0
Cd226 Cd 0.93618 0.50834 0.62045 0.0
O227 O 0.97483 0.5315 0.63998 0.0
Cd228 Cd 0.94069 0.51738 0.65073 0.0
C229 C 0.90824 0.55285 0.63328 0.0
O230 O 0.93596 0.48287 0.63839 0.0
O231 O 0.90876 0.49245 0.65081 0.0
O232 O 0.96253 0.50407 0.66916 0.0
C233 C 0.91716 0.47815 0.64324 0.0
O234 O 0.91132 0.53997 0.62365 0.0
C235 C 0.95174 0.51489 0.67764 0.0
O236 O 0.91781 0.54912 0.64408 0.0
O237 O 0.93613 0.52727 0.67356 0.0
C238 C 0.70483 0.73781 0.87855 0.0
O239 O 0.71276 0.72741 0.86889 0.0
Cd240 Cd 0.72885 0.69088 0.86992 0.0
O241 O 0.70554 0.72925 0.88985 0.0
Cd242 Cd 0.71921 0.6945 0.90026 0.0
C243 C 0.68436 0.66215 0.88234 0.0
O244 O 0.7538 0.68975 0.88798 0.0
O245 O 0.74359 0.66223 0.90006 0.0
O246 O 0.73303 0.7153 0.91896 0.0
C247 C 0.75809 0.67065 0.89261 0.0
O248 O 0.69742 0.66569 0.87284 0.0
C249 C 0.72194 0.70442 0.92732 0.0
O250 O 0.68766 0.67152 0.89326 0.0
O251 O 0.70908 0.68934 0.92305 0.0
C252 C 0.50619 0.45698 0.1297 0.0
O253 O 0.5163 0.46616 0.12029 0.0
Cd254 Cd 0.55284 0.48225 0.12184 0.0
O255 O 0.51481 0.45673 0.14098 0.0
Cd256 Cd 0.54891 0.47076 0.15176 0.0
C257 C 0.58154 0.4372 0.13343 0.0
O258 O 0.55306 0.50632 0.1403 0.0
O259 O 0.58097 0.49565 0.15182 0.0
O260 O 0.52764 0.48244 0.17082 0.0
C261 C 0.57211 0.51065 0.1449 0.0
O262 O 0.57884 0.45118 0.12427 0.0
C263 C 0.53938 0.47168 0.1789 0.0
O264 O 0.57132 0.43946 0.14416 0.0
O265 O 0.55503 0.45994 0.1743 0.0
C266 C 0.78339 0.25407 0.37882 0.0
O267 O 0.77561 0.26496 0.36929 0.0
Cd268 Cd 0.75855 0.3011 0.37099 0.0
O269 O 0.78239 0.262 0.39026 0.0
Cd270 Cd 0.76875 0.29622 0.40103 0.0
C271 C 0.8026 0.33004 0.38337 0.0
O272 O 0.73376 0.30093 0.38914 0.0
O273 O 0.74407 0.32829 0.40127 0.0
O274 O 0.75562 0.27455 0.4196 0.0
C275 C 0.72938 0.31983 0.39398 0.0
O276 O 0.78884 0.32757 0.37411 0.0
C277 C 0.7665 0.28546 0.42801 0.0
O278 O 0.80033 0.31922 0.39393 0.0
O279 O 0.779 0.30094 0.42382 0.0
C280 C 0.98317 0.45971 0.86404 0.0
O281 O 0.97154 0.46688 0.87342 0.0
Cd282 Cd 0.93506 0.48283 0.8712 0.0
O283 O 0.97586 0.4608 0.85246 0.0
Cd284 Cd 0.94182 0.4736 0.8412 0.0
C285 C 0.90889 0.43775 0.85813 0.0
O286 O 0.93581 0.50816 0.85325 0.0
O287 O 0.90916 0.49766 0.8407 0.0
O288 O 0.96374 0.48705 0.82277 0.0
C289 C 0.91708 0.51236 0.84819 0.0
O290 O 0.91004 0.45142 0.86753 0.0
C291 C 0.95324 0.47584 0.81432 0.0
O292 O 0.92011 0.44092 0.84781 0.0
O293 O 0.93786 0.46317 0.81844 0.0
C294 C 0.78374 0.73586 0.11239 0.0
O295 O 0.77587 0.72573 0.12218 0.0
Cd296 Cd 0.75928 0.68935 0.12141 0.0
O297 O 0.78261 0.72715 0.10114 0.0
Cd298 Cd 0.76816 0.69258 0.09097 0.0
C299 C 0.80333 0.66039 0.10877 0.0
O300 O 0.73384 0.68838 0.10356 0.0
O301 O 0.74327 0.66065 0.09149 0.0
O302 O 0.7544 0.71371 0.07236 0.0
C303 C 0.72911 0.66933 0.09903 0.0
O304 O 0.79052 0.66405 0.11837 0.0
C305 C 0.765 0.70259 0.06392 0.0
O306 O 0.79975 0.6696 0.09783 0.0
O307 O 0.77755 0.68718 0.0681 0.0
C308 C 0.5043 0.53249 0.36426 0.0
O309 O 0.51466 0.52455 0.37394 0.0
Cd310 Cd 0.55133 0.50902 0.37298 0.0
O311 O 0.51297 0.53196 0.35298 0.0
Cd312 Cd 0.54791 0.51858 0.34277 0.0
C313 C 0.57894 0.55439 0.36082 0.0
O314 O 0.55269 0.48384 0.35498 0.0
O315 O 0.5804 0.49446 0.34322 0.0
O316 O 0.52742 0.50524 0.3238 0.0
C317 C 0.57184 0.47969 0.35045 0.0
O318 O 0.57578 0.54118 0.37032 0.0
C319 C 0.53891 0.51608 0.3156 0.0
O320 O 0.56981 0.55075 0.34989 0.0
O321 O 0.55409 0.52858 0.3201 0.0
C322 C 0.70467 0.25305 0.61318 0.0
O323 O 0.71278 0.26328 0.62285 0.0
Cd324 Cd 0.72954 0.29956 0.62171 0.0
O325 O 0.70556 0.26165 0.60189 0.0
Cd326 Cd 0.71987 0.29612 0.59145 0.0
C327 C 0.68558 0.32901 0.60933 0.0
O328 O 0.7546 0.30034 0.60365 0.0
O329 O 0.7448 0.32799 0.59158 0.0
O330 O 0.73338 0.2748 0.57289 0.0
C331 C 0.75921 0.31934 0.59897 0.0
O332 O 0.69858 0.32524 0.61881 0.0
C333 C 0.72263 0.28575 0.56444 0.0
O334 O 0.68869 0.31961 0.59841 0.0
O335 O 0.71006 0.30115 0.56859 0.0
C336 C -0.00089 0.46167 0.36125 0.0
O337 O 0.00882 0.47026 0.37095 0.0
Cd338 Cd 0.04675 0.48256 0.37039 0.0
O339 O 0.00882 0.46081 0.35027 0.0
Cd340 Cd 0.04454 0.47309 0.34042 0.0
C341 C 0.0727 0.43569 0.35858 0.0
O342 O 0.05205 0.5074 0.35246 0.0
O343 O 0.07988 0.49251 0.34251 0.0
O344 O 0.02818 0.49127 0.32152 0.0
C345 C 0.0722 0.50877 0.34893 0.0
O346 O 0.06934 0.44884 0.36806 0.0
C347 C 0.03639 0.47801 0.31324 0.0
O348 O 0.06457 0.43986 0.34743 0.0
O349 O 0.04805 0.46205 0.31759 0.0
C350 C 0.28405 0.25609 0.11196 0.0
O351 O 0.27648 0.26735 0.12139 0.0
Cd352 Cd 0.26079 0.30404 0.11942 0.0
O353 O 0.28343 0.26388 0.10047 0.0
Cd354 Cd 0.27077 0.29827 0.08941 0.0
C355 C 0.30602 0.33089 0.10676 0.0
O356 O 0.236 0.30418 0.1013 0.0
O357 O 0.247 0.33111 0.08902 0.0
O358 O 0.25731 0.27627 0.07111 0.0
C359 C 0.23211 0.32314 0.09638 0.0
O360 O 0.29218 0.32916 0.11606 0.0
C361 C 0.26818 0.28691 0.06255 0.0
O362 O 0.30325 0.32004 0.09628 0.0
O363 O 0.28078 0.30244 0.06654 0.0
C364 C 0.48829 0.52884 0.86356 0.0
O365 O 0.47743 0.52187 0.87332 0.0
Cd366 Cd 0.43995 0.50814 0.87236 0.0
O367 O 0.4797 0.52826 0.85227 0.0
Cd368 Cd 0.44426 0.51657 0.84197 0.0
C369 C 0.41433 0.55407 0.85947 0.0
O370 O 0.43672 0.48276 0.85455 0.0
O371 O 0.41007 0.49496 0.84247 0.0
O372 O 0.46209 0.49897 0.82334 0.0
C373 C 0.41736 0.4799 0.84996 0.0
O374 O 0.4171 0.54118 0.86914 0.0
C375 C 0.45407 0.51219 0.81496 0.0
O376 O 0.42326 0.5497 0.84856 0.0
O377 O 0.44192 0.52788 0.81915 0.0
C378 C 0.20546 0.74006 0.61415 0.0
O379 O 0.21258 0.72972 0.62404 0.0
Cd380 Cd 0.22576 0.69201 0.62321 0.0
O381 O 0.20586 0.73082 0.60304 0.0
Cd382 Cd 0.21776 0.69479 0.59358 0.0
C383 C 0.17965 0.66614 0.61098 0.0
O384 O 0.25205 0.68713 0.60583 0.0
O385 O 0.23725 0.65965 0.59547 0.0
O386 O 0.23436 0.71325 0.57476 0.0
C387 C 0.2535 0.66714 0.60194 0.0
O388 O 0.19271 0.66877 0.62057 0.0
C389 C 0.22273 0.70299 0.56641 0.0
O390 O 0.18395 0.67513 0.60008 0.0
O391 O 0.20846 0.68926 0.57073 0.0
C392 C 0.00261 0.53203 0.12715 0.0
O393 O 0.01338 0.5252 0.11734 0.0
Cd394 Cd 0.05056 0.51075 0.11809 0.0
O395 O 0.01121 0.53114 0.13843 0.0
Cd396 Cd 0.04669 0.51904 0.14855 0.0
C397 C 0.07769 0.55581 0.13093 0.0
O398 O 0.0531 0.4852 0.13589 0.0
O399 O 0.08022 0.49644 0.14793 0.0
O400 O 0.02934 0.50174 0.16751 0.0
C401 C 0.0724 0.48172 0.1404 0.0
O402 O 0.07445 0.54314 0.12122 0.0
C403 C 0.03745 0.51528 0.17568 0.0
O404 O 0.06868 0.55155 0.14184 0.0
O405 O 0.04943 0.53094 0.17122 0.0
C406 C 0.20271 0.25306 0.87797 0.0
O407 O 0.20982 0.264 0.86828 0.0
Cd408 Cd 0.2246 0.30111 0.86961 0.0
O409 O 0.20366 0.26137 0.88932 0.0
Cd410 Cd 0.21662 0.29629 0.89977 0.0
C411 C 0.17981 0.32786 0.88288 0.0
O412 O 0.25067 0.30281 0.88718 0.0
O413 O 0.23958 0.32963 0.89948 0.0
O414 O 0.23197 0.27541 0.91804 0.0
C415 C 0.25432 0.32194 0.89195 0.0
O416 O 0.19256 0.32518 0.87315 0.0
C417 C 0.2209 0.28561 0.92667 0.0
O418 O 0.18391 0.31818 0.89361 0.0
O419 O 0.20738 0.30036 0.92274 0.0
C420 C 0.49059 0.46287 0.62888 0.0
O421 O 0.47995 0.47037 0.6192 0.0
Cd422 Cd 0.4422 0.48308 0.62032 0.0
O423 O 0.48163 0.46252 0.64008 0.0
Cd424 Cd 0.44565 0.47307 0.65016 0.0
C425 C 0.41721 0.43572 0.63193 0.0
O426 O 0.43731 0.5076 0.63847 0.0
O427 O 0.41007 0.49206 0.64871 0.0
O428 O 0.46162 0.49086 0.66931 0.0
C429 C 0.41732 0.50862 0.64234 0.0
O430 O 0.41983 0.44929 0.62255 0.0
C431 C 0.45411 0.47675 0.67737 0.0
O432 O 0.42591 0.43961 0.64296 0.0
O433 O 0.443 0.4606 0.67277 0.0
C434 C 0.28213 0.73751 0.38165 0.0
O435 O 0.273 0.72802 0.37204 0.0
Cd436 Cd 0.26039 0.6901 0.37292 0.0
O437 O 0.28322 0.72766 0.39257 0.0
Cd438 Cd 0.27048 0.69221 0.40253 0.0
C439 C 0.30727 0.66383 0.38427 0.0
O440 O 0.23549 0.68518 0.39091 0.0
O441 O 0.25022 0.65735 0.40099 0.0
O442 O 0.25536 0.71167 0.42135 0.0
C443 C 0.23388 0.66513 0.39471 0.0
O444 O 0.29385 0.66707 0.3749 0.0
C445 C 0.26674 0.70108 0.42967 0.0
O446 O 0.30349 0.67222 0.39538 0.0
O447 O 0.28025 0.68665 0.42534 0.0
C448 C 0.46928 0.99102 0.29629 0.0
C449 C 0.45375 0.97585 0.3014 0.0
C450 C 0.47065 0.99464 0.28292 0.0
C451 C 0.43622 0.99063 0.25361 0.0
H452 H 0.49179 -8e-05 0.23532 0.0
C453 C 0.46849 -0.00076 0.19756 0.0
C454 C 0.45227 0.0139 0.19275 0.0
C455 C 0.47004 0.99496 0.21087 0.0
C456 C 0.47615 -0.00274 0.24029 0.0
H457 H 0.42815 0.95189 0.29643 0.0
H458 H 0.43069 0.95805 0.27312 0.0
H459 H 0.49228 0.9902 0.25836 0.0
H460 H 0.42547 0.03616 0.19816 0.0
H461 H 0.42831 0.02884 0.22134 0.0
H462 H 0.42006 -0.00259 0.23559 0.0
C463 C 0.44155 0.96742 0.27946 0.0
C464 C 0.47643 0.99187 0.25349 0.0
C465 C 0.4402 0.96379 0.29282 0.0
C466 C 0.43808 0.02468 0.20154 0.0
C467 C 0.43961 0.02038 0.21482 0.0
C468 C 0.43594 -0.00391 0.24046 0.0
C469 C 0.45648 0.9832 0.27438 0.0
C470 C 0.45644 0.98847 0.26029 0.0
C471 C 0.45537 0.00522 0.21962 0.0
C472 C 0.45588 -0.00048 0.23364 0.0
H473 H 0.47995 0.00059 0.30265 0.0
H474 H 0.48223 0.00701 0.27932 0.0
H475 H 0.42052 0.98842 0.25859 0.0
H476 H 0.47966 0.99066 0.19104 0.0
H477 H 0.48226 0.98308 0.21424 0.0
C478 C 0.249 0.22433 0.54492 0.0
C479 C 0.26481 0.20883 0.54928 0.0
C480 C 0.24469 0.2268 0.53168 0.0
C481 C 0.22824 0.21596 0.50449 0.0
H482 H 0.27532 0.21469 0.47882 0.0
C483 C 0.21281 0.19688 0.45038 0.0
C484 C 0.22508 0.2089 0.44113 0.0
C485 C 0.21717 0.19941 0.4636 0.0
C486 C 0.26198 0.21531 0.48587 0.0
H487 H 0.28899 0.18426 0.54313 0.0
H488 H 0.28147 0.18857 0.52004 0.0
H489 H 0.28471 0.21498 0.50183 0.0
H490 H 0.25116 0.23348 0.43851 0.0
H491 H 0.25874 0.2379 0.46161 0.0
H492 H 0.2055 0.21615 0.48853 0.0
C493 C 0.27248 0.1989 0.52685 0.0
C494 C 0.26737 0.21524 0.49905 0.0
C495 C 0.27671 0.19636 0.54009 0.0
C496 C 0.24144 0.22393 0.4454 0.0
C497 C 0.24588 0.22637 0.45862 0.0
C498 C 0.22285 0.2159 0.49131 0.0
C499 C 0.25618 0.21391 0.52251 0.0
C500 C 0.25055 0.21536 0.50851 0.0
C501 C 0.23398 0.21394 0.46786 0.0
C502 C 0.23966 0.21537 0.48185 0.0
H503 H 0.23958 0.23423 0.55175 0.0
H504 H 0.23224 0.2387 0.52863 0.0
H505 H 0.21489 0.21585 0.51154 0.0
H506 H 0.20011 0.18516 0.4474 0.0
H507 H 0.20785 0.18943 0.47047 0.0
C508 C 0.04799 0.02513 0.78962 0.0
C509 C 0.03423 0.01328 0.79821 0.0
C510 C 0.04636 0.0218 0.77626 0.0
C511 C 0.05061 -0.00095 0.75024 0.0
H512 H -0.00551 0.99244 0.73217 0.0
C513 C 0.04713 0.96751 0.69778 0.0
C514 C 0.03346 0.9794 0.68919 0.0
C515 C 0.04568 0.97106 0.71113 0.0
C516 C 0.01028 0.99434 0.73708 0.0
H517 H 0.00739 0.98924 0.79949 0.0
H518 H 0.00462 0.98335 0.77612 0.0
H519 H -0.00534 0.00127 0.75532 0.0
H520 H 0.00698 0.00376 0.68789 0.0
H521 H 0.00452 0.01002 0.71124 0.0
H522 H 0.06627 0.9924 0.73206 0.0
C523 C 0.01658 0.99531 0.77973 0.0
C524 C 0.01038 -0.00078 0.75035 0.0
C525 C 0.01824 -0.00138 0.79312 0.0
C526 C 0.01775 0.99434 0.69426 0.0
C527 C 0.01628 -0.00213 0.70764 0.0
C528 C 0.05051 0.99408 0.73703 0.0
C529 C 0.03092 0.00656 0.77117 0.0
C530 C 0.03056 0.00168 0.75706 0.0
C531 C 0.03053 0.98657 0.7162 0.0
C532 C 0.03037 0.99163 0.73029 0.0
H533 H 0.06039 0.03665 0.79322 0.0
H534 H 0.05739 0.03101 0.7699 0.0
H535 H 0.06644 0.00054 0.75515 0.0
H536 H 0.05932 0.95578 0.69419 0.0
H537 H 0.05662 0.96181 0.71749 0.0
C538 C 0.24633 0.76619 0.94466 0.0
C539 C 0.26242 0.78137 0.94021 0.0
C540 C 0.24237 0.7636 0.95794 0.0
C541 C 0.22725 0.77428 0.98545 0.0
H542 H 0.2754 0.77439 0.01042 0.0
C543 C 0.21467 0.79397 0.03974 0.0
C544 C 0.22716 0.7819 0.04884 0.0
C545 C 0.21831 0.79113 0.02646 0.0
C546 C 0.26176 0.77408 0.00357 0.0
H547 H 0.28742 0.80526 0.94621 0.0
H548 H 0.28051 0.80076 0.96934 0.0
H549 H 0.28383 0.77399 0.98728 0.0
H550 H 0.2528 0.75686 0.05115 0.0
H551 H 0.2591 0.75186 0.02796 0.0
H552 H 0.20519 0.77453 0.00175 0.0
C553 C 0.27103 0.79075 0.96259 0.0
C554 C 0.2666 0.77408 0.99032 0.0
C555 C 0.27491 0.79342 0.94932 0.0
C556 C 0.24295 0.76647 0.04438 0.0
C557 C 0.24665 0.76369 0.0311 0.0
C558 C 0.22241 0.77439 -0.00129 0.0
C559 C 0.25452 0.77604 0.96704 0.0
C560 C 0.24941 0.77444 0.98111 0.0
C561 C 0.23458 0.77621 0.02199 0.0
C562 C 0.23961 0.77453 0.00792 0.0
H563 H 0.23645 0.75662 0.93788 0.0
H564 H 0.22971 0.75194 0.96108 0.0
H565 H 0.21363 0.77475 0.9786 0.0
H566 H 0.20239 0.806 0.04286 0.0
H567 H 0.20888 0.80118 0.0197 0.0
C568 C 0.51653 0.99249 0.79593 0.0
C569 C 0.53236 0.97755 0.80089 0.0
C570 C 0.51493 -0.00377 0.78257 0.0
C571 C 0.50875 0.99314 0.75312 0.0
H572 H 0.56475 0.00026 0.73495 0.0
C573 C 0.51648 -0.00124 0.69707 0.0
C574 C 0.53227 0.01374 0.69205 0.0
C575 C 0.51489 0.99513 0.71044 0.0
C576 C 0.54896 -0.0015 0.73989 0.0
H577 H 0.55831 0.95417 0.7957 0.0
H578 H 0.55541 0.96058 0.77244 0.0
H579 H 0.56478 0.99159 0.75799 0.0
H580 H 0.55814 0.03733 0.69716 0.0
H581 H 0.55524 0.03111 0.72045 0.0
H582 H 0.49297 0.00032 0.73496 0.0
C583 C 0.54446 0.96965 0.77887 0.0
C584 C 0.54898 0.99324 0.75307 0.0
C585 C 0.54603 0.96588 0.7922 0.0
C586 C 0.54588 0.02558 0.70071 0.0
C587 C 0.54432 0.02192 0.71405 0.0
C588 C 0.50873 -0.00169 0.73988 0.0
C589 C 0.52918 0.98516 0.77391 0.0
C590 C 0.5289 0.99048 0.75984 0.0
C591 C 0.5291 0.00635 0.71905 0.0
C592 C 0.52886 0.00111 0.73314 0.0
H593 H 0.50576 0.00174 0.80238 0.0
H594 H 0.50308 0.00837 0.77906 0.0
H595 H 0.49301 0.991 0.75807 0.0
H596 H 0.50575 0.98938 0.69066 0.0
H597 H 0.50308 0.98293 0.71399 0.0
C598 C 0.74118 0.76925 0.44683 0.0
C599 C 0.72536 0.7848 0.44254 0.0
C600 C 0.74528 0.7664 0.46007 0.0
C601 C 0.72189 0.77697 0.49267 0.0
H602 H 0.78352 0.77564 0.50363 0.0
C603 C 0.77547 0.79453 0.54178 0.0
C604 C 0.76286 0.7826 0.55092 0.0
C605 C 0.77141 0.79207 0.52852 0.0
C606 C 0.76623 0.77599 0.50072 0.0
H607 H 0.701 0.8091 0.4488 0.0
H608 H 0.70819 0.80416 0.47188 0.0
H609 H 0.77463 0.77652 0.48056 0.0
H610 H 0.73655 0.75822 0.5533 0.0
H611 H 0.72953 0.75387 0.53013 0.0
H612 H 0.7135 0.77711 0.51284 0.0
C613 C 0.71732 0.79405 0.46502 0.0
C614 C 0.76113 0.77627 0.48751 0.0
C615 C 0.71329 0.79697 0.45179 0.0
C616 C 0.74652 0.76769 0.5465 0.0
C617 C 0.7424 0.7653 0.53324 0.0
C618 C 0.72699 0.77659 0.50589 0.0
C619 C 0.73358 0.77895 0.46931 0.0
C620 C 0.7389 0.77705 0.48333 0.0
C621 C 0.75461 0.77767 0.5241 0.0
C622 C 0.74923 0.7764 0.51006 0.0
H623 H 0.75073 0.75957 0.43995 0.0
H624 H 0.75772 0.75444 0.46307 0.0
H625 H 0.70461 0.77735 0.48976 0.0
H626 H 0.78817 0.80617 0.54486 0.0
H627 H 0.78096 0.80201 0.52174 0.0
C628 C 0.94057 0.02594 0.29001 0.0
C629 C 0.9546 0.01473 0.29872 0.0
C630 C 0.94216 0.02208 0.2767 0.0
C631 C 0.9382 -0.00187 0.25099 0.0
H632 H 0.99436 0.99242 0.23284 0.0
C633 C 0.94249 0.9648 0.19885 0.0
C634 C 0.95585 0.9768 0.19011 0.0
C635 C 0.94374 0.96893 0.21215 0.0
C636 C 0.97855 0.99405 0.23777 0.0
H637 H 0.98185 0.99127 0.30024 0.0
H638 H 0.98458 0.98451 0.27695 0.0
H639 H 0.9941 0.00202 0.25589 0.0
H640 H 0.98155 0.00201 0.18852 0.0
H641 H 0.9837 0.00923 0.21178 0.0
H642 H 0.92261 0.99041 0.23293 0.0
C643 C 0.97242 -0.00364 0.28044 0.0
C644 C 0.97841 -0.00062 0.25098 0.0
C645 C 0.97079 0.00017 0.29378 0.0
C646 C 0.97102 0.99249 0.195 0.0
C647 C 0.97233 -0.00344 0.20833 0.0
C648 C 0.93835 0.9927 0.23784 0.0
C649 C 0.95783 0.00696 0.27177 0.0
C650 C 0.95821 0.00154 0.25772 0.0
C651 C 0.95842 0.98509 0.21703 0.0
C652 C 0.95851 0.99058 0.23107 0.0
H653 H 0.92799 0.03734 0.29349 0.0
H654 H 0.93093 0.03079 0.27025 0.0
H655 H 0.92237 -0.00062 0.25593 0.0
H656 H 0.9307 0.95253 0.1954 0.0
H657 H 0.93306 0.95956 0.21862 0.0
C658 C 0.77713 0.19277 0.94977 0.0
C659 C 0.76508 0.20534 0.94069 0.0
C660 C 0.77297 0.19502 0.96303 0.0
C661 C 0.7289 0.21153 0.98567 0.0
H662 H 0.77635 0.2104 0.01107 0.0
C663 C 0.74299 0.22021 0.0446 0.0
C664 C 0.72661 0.20537 0.04909 0.0
C665 C 0.74726 0.22234 0.03134 0.0
C666 C 0.76291 0.21096 0.0041 0.0
H667 H 0.73963 0.2306 0.93842 0.0
H668 H 0.73244 0.23456 0.96159 0.0
H669 H 0.78542 0.21077 0.98801 0.0
H670 H 0.70145 0.18159 0.04317 0.0
H671 H 0.70893 0.1853 0.02002 0.0
H672 H 0.70639 0.21165 0.00176 0.0
C673 C 0.74494 0.2228 0.95843 0.0
C674 C 0.76811 0.21094 0.99089 0.0
C675 C 0.74917 0.22063 0.94517 0.0
C676 C 0.71417 0.19318 0.04002 0.0
C677 C 0.71838 0.19538 0.02675 0.0
C678 C 0.7237 0.21143 -0.00112 0.0
C679 C 0.75661 0.20983 0.9675 0.0
C680 C 0.75116 0.21105 0.98153 0.0
C681 C 0.73519 0.20976 0.02227 0.0
C682 C 0.74065 0.21098 0.00824 0.0
H683 H 0.78948 0.18083 0.94662 0.0
H684 H 0.78209 0.18463 0.96976 0.0
H685 H 0.71545 0.2114 0.9787 0.0
H686 H 0.75282 0.22989 0.05134 0.0
H687 H 0.76011 0.23377 0.02819 0.0
C688 C 0.94428 0.5247 0.70082 0.0
C689 C 0.95635 0.51236 0.69165 0.0
C690 C 0.94746 0.52115 0.71408 0.0
C691 C 0.96561 0.47807 0.73695 0.0
H692 H 0.96452 0.52652 0.76175 0.0
C693 C 0.97293 0.49447 0.79583 0.0
C694 C 0.9578 0.47834 0.8003 0.0
C695 C 0.97577 0.49814 0.78254 0.0
C696 C 0.96513 0.51281 0.75495 0.0
H697 H 0.98168 0.48704 0.68921 0.0
H698 H 0.98725 0.48089 0.71238 0.0
H699 H 0.96443 0.53476 0.73858 0.0
H700 H 0.93433 0.45291 0.79433 0.0
H701 H 0.93926 0.45933 0.77118 0.0
H702 H 0.96612 0.45612 0.75332 0.0
C703 C 0.97518 0.49316 0.7093 0.0
C704 C 0.96484 0.51753 0.74168 0.0
C705 C 0.97208 0.49678 0.69603 0.0
C706 C 0.94612 0.46547 0.7912 0.0
C707 C 0.94904 0.46906 0.77793 0.0
C708 C 0.96579 0.47335 0.75022 0.0
C709 C 0.96272 0.50512 0.71847 0.0
C710 C 0.96478 0.50021 0.73253 0.0
C711 C 0.96363 0.48567 0.77345 0.0
C712 C 0.96526 0.49066 0.75937 0.0
H713 H 0.93204 0.53681 0.69777 0.0
H714 H 0.93742 0.53046 0.72089 0.0
H715 H 0.96539 0.46434 0.73016 0.0
H716 H 0.98222 0.50463 0.8026 0.0
H717 H 0.98733 0.51088 0.77939 0.0
C718 C 0.77405 0.69424 0.04072 0.0
C719 C 0.76197 0.70661 0.04987 0.0
C720 C 0.77003 0.69688 0.02747 0.0
C721 C 0.76554 0.71362 -0.00028 0.0
H722 H 0.70395 0.7146 0.98867 0.0
C723 C 0.74105 0.72323 0.94591 0.0
C724 C 0.72485 0.70825 0.94139 0.0
C725 C 0.74511 0.72546 0.95919 0.0
C726 C 0.72123 0.71433 0.9916 0.0
H727 H 0.73659 0.73189 0.05227 0.0
H728 H 0.72962 0.73651 0.02911 0.0
H729 H 0.71275 0.71389 0.01176 0.0
H730 H 0.69973 0.68437 0.94729 0.0
H731 H 0.7068 0.68826 0.97045 0.0
H732 H 0.77401 0.71347 0.97957 0.0
C733 C 0.74205 0.72463 0.03221 0.0
C734 C 0.72628 0.71415 0.00483 0.0
C735 C 0.74615 0.72207 0.04547 0.0
C736 C 0.71232 0.69607 0.95046 0.0
C737 C 0.7163 0.69837 0.96373 0.0
C738 C 0.76049 0.71392 0.9865 0.0
C739 C 0.75377 0.71188 0.02307 0.0
C740 C 0.74849 0.71353 0.00903 0.0
C741 C 0.73297 0.71285 0.96824 0.0
C742 C 0.73828 0.71401 0.98229 0.0
H743 H 0.78634 0.68218 0.0438 0.0
H744 H 0.77919 0.68665 0.02068 0.0
H745 H 0.78282 0.71335 0.00265 0.0
H746 H 0.75096 0.7329 0.93917 0.0
H747 H 0.75786 0.73695 0.96236 0.0
C748 C 0.54947 0.52464 0.29267 0.0
C749 C 0.53577 0.51321 0.30148 0.0
C750 C 0.54801 0.5204 0.27939 0.0
C751 C 0.51245 0.4956 0.25394 0.0
H752 H 0.56849 0.48893 0.23578 0.0
C753 C 0.55005 0.46271 0.20176 0.0
C754 C 0.53604 0.47394 0.19306 0.0
C755 C 0.54848 0.46657 0.21507 0.0
C756 C 0.55269 0.49053 0.24073 0.0
H757 H 0.50921 0.48894 0.30322 0.0
H758 H 0.50674 0.48145 0.28001 0.0
H759 H 0.56847 0.49829 0.25872 0.0
H760 H 0.5088 0.49741 0.19154 0.0
H761 H 0.50614 0.50425 0.21481 0.0
H762 H 0.49672 0.48752 0.2359 0.0
C763 C 0.51852 0.49379 0.28337 0.0
C764 C 0.55267 0.49621 0.25384 0.0
C765 C 0.52001 0.49802 0.29667 0.0
C766 C 0.51984 0.48849 0.198 0.0
C767 C 0.51825 0.49234 0.21134 0.0
C768 C 0.51247 0.48998 0.24077 0.0
C769 C 0.5328 0.50464 0.2746 0.0
C770 C 0.53257 0.49885 0.2606 0.0
C771 C 0.53286 0.48176 0.22 0.0
C772 C 0.53261 0.48734 0.23403 0.0
H773 H 0.56171 0.53653 0.29604 0.0
H774 H 0.55897 0.52933 0.27286 0.0
H775 H 0.49669 0.49764 0.25886 0.0
H776 H 0.56263 0.4513 0.19827 0.0
H777 H 0.55971 0.45785 0.22152 0.0
C778 C 0.71346 0.29389 0.54122 0.0
C779 C 0.72562 0.28163 0.5504 0.0
C780 C 0.71755 0.29126 0.52797 0.0
C781 C 0.72248 0.27465 0.50023 0.0
H782 H 0.7842 0.27449 0.48938 0.0
C783 C 0.74768 0.26593 0.44648 0.0
C784 C 0.76366 0.28126 0.44206 0.0
C785 C 0.74356 0.26344 0.45974 0.0
C786 C 0.7669 0.27452 0.49226 0.0
H787 H 0.75117 0.25654 0.55286 0.0
H788 H 0.75827 0.25195 0.52972 0.0
H789 H 0.77513 0.27491 0.51244 0.0
H790 H 0.78835 0.30545 0.44809 0.0
H791 H 0.78117 0.30108 0.47122 0.0
H792 H 0.71425 0.27486 0.48005 0.0
C793 C 0.74572 0.26373 0.53279 0.0
C794 C 0.76169 0.27454 0.50547 0.0
C795 C 0.74155 0.26627 0.54604 0.0
C796 C 0.77594 0.29349 0.45119 0.0
C797 C 0.7719 0.29091 0.46445 0.0
C798 C 0.72768 0.27451 0.48703 0.0
C799 C 0.73397 0.2764 0.52362 0.0
C800 C 0.73942 0.27487 0.5096 0.0
C801 C 0.75541 0.27612 0.46887 0.0
C802 C 0.74995 0.27472 0.48289 0.0
H803 H 0.70109 0.30587 0.54427 0.0
H804 H 0.70836 0.30142 0.52116 0.0
H805 H 0.70517 0.27471 0.50311 0.0
H806 H 0.73797 0.25622 0.4397 0.0
H807 H 0.73096 0.2517 0.46286 0.0
C808 C 0.02767 0.50284 0.29447 0.0
C809 C 0.03337 0.48164 0.29918 0.0
C810 C 0.02628 0.50678 0.28115 0.0
C811 C 0.01575 0.48153 0.24999 0.0
H812 H 0.055 0.52658 0.23575 0.0
C813 C 0.02863 0.49125 0.19479 0.0
C814 C 0.03403 0.51229 0.18976 0.0
C815 C 0.02705 0.48794 0.20817 0.0
C816 C 0.04353 0.51428 0.23952 0.0
H817 H 0.04135 0.44776 0.29368 0.0
H818 H 0.03816 0.45454 0.2703 0.0
H819 H 0.05429 0.52007 0.25903 0.0
H820 H 0.04108 0.5466 0.1947 0.0
H821 H 0.03711 0.54123 0.21799 0.0
H822 H 0.00431 0.47613 0.23065 0.0
C823 C 0.03508 0.46811 0.27698 0.0
C824 C 0.04331 0.51046 0.25288 0.0
C825 C 0.03698 0.46427 0.29031 0.0
C826 C 0.03709 0.53015 0.19833 0.0
C827 C 0.03501 0.52697 0.21171 0.0
C828 C 0.01559 0.48567 0.23664 0.0
C829 C 0.03005 0.48947 0.2723 0.0
C830 C 0.02958 0.49393 0.2582 0.0
C831 C 0.03035 0.50572 0.21686 0.0
C832 C 0.02966 0.50196 0.23118 0.0
H833 H 0.02489 0.51657 0.30108 0.0
H834 H 0.02232 0.52338 0.27774 0.0
H835 H 0.00489 0.46881 0.25393 0.0
H836 H 0.02637 0.47712 0.18841 0.0
H837 H 0.02386 0.47124 0.21167 0.0
C838 C 0.2496 0.26654 0.04436 0.0
C839 C 0.26523 0.28237 0.04856 0.0
C840 C 0.24534 0.26369 0.03115 0.0
C841 C 0.26762 0.27525 -0.00165 0.0
H842 H 0.20566 0.27314 0.98809 0.0
C843 C 0.21207 0.29295 0.95 0.0
C844 C 0.22451 0.28141 0.94065 0.0
C845 C 0.21666 0.29031 0.96319 0.0
C846 C 0.22303 0.27372 0.9908 0.0
H847 H 0.28917 0.30709 0.04219 0.0
H848 H 0.28168 0.30216 0.01915 0.0
H849 H 0.2153 0.27364 0.01105 0.0
H850 H 0.2511 0.25755 0.93781 0.0
H851 H 0.25903 0.25289 0.96086 0.0
H852 H 0.27532 0.27602 0.9781 0.0
C853 C 0.27282 0.29184 0.02605 0.0
C854 C 0.22857 0.27377 0.00395 0.0
C855 C 0.27703 0.29475 0.03926 0.0
C856 C 0.24125 0.26672 0.94478 0.0
C857 C 0.24589 0.26416 0.95797 0.0
C858 C 0.26208 0.27511 0.9852 0.0
C859 C 0.25666 0.27654 0.02185 0.0
C860 C 0.25092 0.27483 0.00788 0.0
C861 C 0.23383 0.27613 0.96732 0.0
C862 C 0.23971 0.27464 0.98128 0.0
H863 H 0.24027 0.25668 0.05128 0.0
H864 H 0.23301 0.25155 0.02821 0.0
H865 H 0.28499 0.27586 0.00107 0.0
H866 H 0.19909 0.30441 0.94713 0.0
H867 H 0.20721 0.29995 0.97013 0.0
C868 C 0.45403 0.52608 0.79205 0.0
C869 C 0.4577 0.50872 0.80094 0.0
C870 C 0.45622 0.52232 0.77873 0.0
C871 C 0.44889 0.47983 0.75466 0.0
H872 H 0.4867 0.5155 0.73237 0.0
C873 C 0.45491 0.46141 0.69994 0.0
C874 C 0.45734 0.47955 0.69147 0.0
C875 C 0.45704 0.46434 0.71333 0.0
C876 C 0.47576 0.50558 0.73839 0.0
H877 H 0.46668 0.47392 0.80289 0.0
H878 H 0.4698 0.46725 0.77956 0.0
H879 H 0.48622 0.52246 0.75568 0.0
H880 H 0.4639 0.51497 0.69032 0.0
H881 H 0.46651 0.52037 0.71361 0.0
H882 H 0.43741 0.46367 0.73752 0.0
C883 C 0.46554 0.48377 0.78295 0.0
C884 C 0.47566 0.5095 0.75175 0.0
C885 C 0.46384 0.48763 0.79627 0.0
C886 C 0.46212 0.50063 0.69662 0.0
C887 C 0.46377 0.50367 0.71002 0.0
C888 C 0.4486 0.47621 0.74129 0.0
C889 C 0.46163 0.50105 0.77407 0.0
C890 C 0.46223 0.49665 0.75998 0.0
C891 C 0.46116 0.48559 0.71859 0.0
C892 C 0.46202 0.48904 0.73293 0.0
H893 H 0.44931 0.5425 0.79538 0.0
H894 H 0.45303 0.53586 0.77204 0.0
H895 H 0.4382 0.46987 0.76083 0.0
H896 H 0.45141 0.44492 0.69622 0.0
H897 H 0.45545 0.44988 0.71953 0.0
C898 C 0.24322 0.72034 0.5478 0.0
C899 C 0.22632 0.70615 0.55234 0.0
C900 C 0.24753 0.72223 0.53453 0.0
C901 C 0.22321 0.71176 0.50216 0.0
H902 H 0.28472 0.70994 0.49097 0.0
C903 C 0.27587 0.69218 0.4528 0.0
C904 C 0.26364 0.70465 0.44375 0.0
C905 C 0.27188 0.69449 0.46608 0.0
C906 C 0.26746 0.71041 0.49394 0.0
H907 H 0.20036 0.68319 0.54648 0.0
H908 H 0.20795 0.6864 0.52334 0.0
H909 H 0.27602 0.70987 0.51407 0.0
H910 H 0.23806 0.72978 0.44155 0.0
H911 H 0.23123 0.73393 0.46473 0.0
H912 H 0.21462 0.71164 0.48204 0.0
C913 C 0.21775 0.69622 0.53003 0.0
C914 C 0.26248 0.71062 0.50718 0.0
C915 C 0.21348 0.69429 0.5433 0.0
C916 C 0.24771 0.71986 0.44827 0.0
C917 C 0.24369 0.72215 0.46155 0.0
C918 C 0.22819 0.71161 0.48893 0.0
C919 C 0.23499 0.71003 0.5255 0.0
C920 C 0.24029 0.71107 0.51144 0.0
C921 C 0.25555 0.70931 0.4706 0.0
C922 C 0.25037 0.71071 0.48466 0.0
H923 H 0.25337 0.72975 0.55452 0.0
H924 H 0.26073 0.73322 0.53134 0.0
H925 H 0.20595 0.71234 0.50513 0.0
H926 H 0.28824 0.68029 0.44962 0.0
H927 H 0.28114 0.68418 0.47278 0.0
C928 C 0.41295 0.94761 0.12927 0.0
C929 C 0.40456 0.96195 0.13884 0.0
C930 C 0.40024 0.92962 0.12486 0.0
C931 C 0.35197 0.89417 0.13332 0.0
H932 H 0.34638 0.88649 0.09615 0.0
C933 C 0.28542 0.85507 0.09535 0.0
C934 C 0.28102 0.83436 0.10115 0.0
C935 C 0.30313 0.86818 0.09961 0.0
C936 C 0.34781 0.8884 0.10655 0.0
H937 H 0.37654 0.96837 0.15153 0.0
H938 H 0.35443 0.93712 0.14384 0.0
H939 H 0.37241 0.91399 0.10469 0.0
H940 H 0.29211 0.81084 0.11574 0.0
H941 H 0.32312 0.83382 0.12321 0.0
H942 H 0.32678 0.86919 0.13517 0.0
C943 C 0.37086 0.93963 0.1398 0.0
C944 C 0.36288 0.90399 0.11145 0.0
C945 C 0.38347 0.95764 0.14413 0.0
C946 C 0.29505 0.82676 0.1111 0.0
C947 C 0.31273 0.83996 0.11542 0.0
C948 C 0.33698 0.87852 0.12842 0.0
C949 C 0.37899 0.92554 0.13002 0.0
C950 C 0.36479 0.90736 0.12488 0.0
C951 C 0.3168 0.86092 0.10981 0.0
C952 C 0.33441 0.87578 0.11498 0.0
H953 H 0.42916 0.95049 0.12502 0.0
H954 H 0.40701 0.91894 0.11739 0.0
H955 H 0.35325 0.89622 0.14372 0.0
H956 H 0.27494 0.86138 0.08765 0.0
H957 H 0.30564 0.88436 0.0952 0.0
C958 C 0.28119 0.137 0.39418 0.0
C959 C 0.2766 0.1576 0.38832 0.0
C960 C 0.29916 0.12418 0.39005 0.0
C961 C 0.33403 0.11412 0.36162 0.0
H962 H 0.36958 0.08025 0.386 0.0
C963 C 0.41139 0.04675 0.36245 0.0
C964 C 0.40362 0.03182 0.353 0.0
C965 C 0.39826 0.06472 0.36638 0.0
C966 C 0.36003 0.08982 0.37906 0.0
H967 H 0.28754 0.18117 0.37369 0.0
H968 H 0.31902 0.15867 0.36644 0.0
H969 H 0.3427 0.10727 0.39405 0.0
H970 H 0.37634 0.02442 0.33996 0.0
H971 H 0.35345 0.05563 0.34684 0.0
H972 H 0.35116 0.09645 0.34664 0.0
C973 C 0.30858 0.15242 0.37419 0.0
C974 C 0.34447 0.10512 0.38367 0.0
C975 C 0.29064 0.16534 0.37839 0.0
C976 C 0.38278 0.0356 0.34728 0.0
C977 C 0.36972 0.05359 0.35116 0.0
C978 C 0.34953 0.09875 0.357 0.0
C979 C 0.31292 0.13163 0.37992 0.0
C980 C 0.33102 0.11714 0.37501 0.0
C981 C 0.37718 0.06818 0.36087 0.0
C982 C 0.36241 0.08614 0.36568 0.0
H983 H 0.2707 0.13059 0.40187 0.0
H984 H 0.30187 0.10811 0.39455 0.0
H985 H 0.32381 0.12302 0.3547 0.0
H986 H 0.42741 0.04431 0.367 0.0
H987 H 0.40454 0.07581 0.37379 0.0
C988 C 0.10322 0.03914 0.6427 0.0
C989 C 0.08259 0.03488 0.63684 0.0
C990 C 0.1161 0.05728 0.63878 0.0
C991 C 0.12611 0.09304 0.61067 0.0
H992 H 0.16185 0.12663 0.63508 0.0
C993 C 0.19703 0.16745 0.61153 0.0
C994 C 0.21119 0.15919 0.60183 0.0
C995 C 0.17854 0.1551 0.61556 0.0
C996 C 0.15176 0.11766 0.62814 0.0
H997 H 0.05896 0.04663 0.62253 0.0
H998 H 0.08156 0.07842 0.61566 0.0
H999 H 0.1341 0.10038 0.64311 0.0
H1000 H 0.21674 0.13185 0.5885 0.0
H1001 H 0.18468 0.11033 0.59556 0.0
H1002 H 0.14398 0.11008 0.5957 0.0
C1003 C 0.0878 0.06759 0.62323 0.0
C1004 C 0.13602 0.10245 0.63274 0.0
C1005 C 0.07483 0.04946 0.6272 0.0
C1006 C 0.20617 0.13866 0.59601 0.0
C1007 C 0.18768 0.1264 0.59999 0.0
C1008 C 0.14188 0.1082 0.60607 0.0
C1009 C 0.10868 0.07155 0.62889 0.0
C1010 C 0.12338 0.08962 0.62406 0.0
C1011 C 0.17379 0.13434 0.6099 0.0
C1012 C 0.15522 0.12031 0.61475 0.0
H1013 H 0.10965 0.02824 0.65018 0.0
H1014 H 0.13223 0.05967 0.64322 0.0
H1015 H 0.11673 0.08332 0.60373 0.0
H1016 H 0.20044 0.18325 0.61617 0.0
H1017 H 0.16802 0.16173 0.62315 0.0
C1018 C 0.10443 0.9531 0.84488 0.0
C1019 C 0.08347 0.95704 0.85041 0.0
C1020 C 0.11725 0.93502 0.8489 0.0
C1021 C 0.13713 0.88985 0.855 0.0
H1022 H 0.14277 0.88124 0.89211 0.0
C1023 C 0.19614 0.82388 0.87692 0.0
C1024 C 0.20974 0.83174 0.887 0.0
C1025 C 0.1781 0.83653 0.87258 0.0
C1026 C 0.14133 0.88341 0.88172 0.0
H1027 H 0.0592 0.94474 0.86423 0.0
H1028 H 0.08165 0.91306 0.87126 0.0
H1029 H 0.1161 0.90821 0.88377 0.0
H1030 H 0.21475 0.85869 0.90067 0.0
H1031 H 0.18346 0.88073 0.89309 0.0
H1032 H 0.16301 0.86571 0.85297 0.0
C1033 C 0.08821 0.92411 0.86389 0.0
C1034 C 0.12589 0.89868 0.87694 0.0
C1035 C 0.07533 0.94218 0.85982 0.0
C1036 C 0.20461 0.85218 0.89287 0.0
C1037 C 0.18656 0.86474 0.88859 0.0
C1038 C 0.15253 0.87452 0.85978 0.0
C1039 C 0.10942 0.92048 0.85856 0.0
C1040 C 0.12395 0.90243 0.86353 0.0
C1041 C 0.17324 0.85719 0.87831 0.0
C1042 C 0.15514 0.87149 0.87321 0.0
H1043 H 0.11116 0.96423 0.8376 0.0
H1044 H 0.13362 0.93287 0.84473 0.0
H1045 H 0.13583 0.89218 0.84461 0.0
H1046 H 0.19965 0.80815 0.87222 0.0
H1047 H 0.16802 0.8302 0.86471 0.0
C1048 C 0.69737 0.16402 0.87873 0.0
C1049 C 0.71197 0.15565 0.88817 0.0
C1050 C 0.679 0.15148 0.87474 0.0
C1051 C 0.65248 0.11406 0.86204 0.0
H1052 H 0.6183 0.07879 0.88648 0.0
C1053 C 0.60333 0.03607 0.84726 0.0
C1054 C 0.58277 0.03184 0.85323 0.0
C1055 C 0.61647 0.05396 0.85123 0.0
C1056 C 0.62746 0.08876 0.87954 0.0
H1057 H 0.71846 0.1279 0.9011 0.0
H1058 H 0.68656 0.10605 0.89412 0.0
H1059 H 0.64572 0.10538 0.89448 0.0
H1060 H 0.55957 0.04339 0.86784 0.0
H1061 H 0.58263 0.07471 0.87482 0.0
H1062 H 0.63444 0.09721 0.8471 0.0
C1063 C 0.68915 0.12234 0.88986 0.0
C1064 C 0.64332 0.10382 0.88412 0.0
C1065 C 0.70754 0.13479 0.89378 0.0
C1066 C 0.57537 0.0462 0.86307 0.0
C1067 C 0.5886 0.06406 0.86711 0.0
C1068 C 0.63668 0.09894 0.85746 0.0
C1069 C 0.67481 0.13043 0.8802 0.0
C1070 C 0.65631 0.11631 0.87541 0.0
C1071 C 0.60939 0.06799 0.86131 0.0
C1072 C 0.62431 0.08581 0.86616 0.0
H1073 H 0.70033 0.18008 0.87426 0.0
H1074 H 0.66813 0.15822 0.86736 0.0
H1075 H 0.66231 0.12334 0.85509 0.0
H1076 H 0.60948 0.02534 0.83963 0.0
H1077 H 0.63253 0.05635 0.84669 0.0
C1078 C 0.60412 0.95546 0.64553 0.0
C1079 C 0.58324 0.95919 0.63985 0.0
C1080 C 0.61737 0.93774 0.64146 0.0
C1081 C 0.63789 0.89289 0.63527 0.0
H1082 H 0.64484 0.88511 0.59818 0.0
C1083 C 0.69675 0.82665 0.61362 0.0
C1084 C 0.71077 0.8344 0.60369 0.0
C1085 C 0.67885 0.83957 0.61786 0.0
C1086 C 0.64305 0.88707 0.60856 0.0
H1087 H 0.5596 0.94691 0.62569 0.0
H1088 H 0.58282 0.91587 0.61858 0.0
H1089 H 0.61787 0.91191 0.60639 0.0
H1090 H 0.71669 0.86146 0.59018 0.0
H1091 H 0.6856 0.88399 0.59759 0.0
H1092 H 0.66365 0.86865 0.63744 0.0
C1093 C 0.58898 0.9268 0.62611 0.0
C1094 C 0.62744 0.90224 0.61327 0.0
C1095 C 0.57565 0.9445 0.63022 0.0
C1096 C 0.70621 0.85504 0.59786 0.0
C1097 C 0.68829 0.86788 0.60205 0.0
C1098 C 0.65345 0.87766 0.63057 0.0
C1099 C 0.61007 0.92337 0.6316 0.0
C1100 C 0.62499 0.90563 0.62667 0.0
C1101 C 0.67454 0.86042 0.61218 0.0
C1102 C 0.65649 0.8749 0.61716 0.0
H1103 H 0.61043 0.96646 0.65298 0.0
H1104 H 0.63365 0.93573 0.64577 0.0
H1105 H 0.63621 0.89496 0.64565 0.0
H1106 H 0.69981 0.81077 0.61828 0.0
H1107 H 0.66842 0.83329 0.6256 0.0
C1108 C 0.79104 0.82811 0.37924 0.0
C1109 C 0.7773 0.83614 0.38921 0.0
C1110 C 0.80901 0.84081 0.3748 0.0
C1111 C 0.83451 0.8785 0.36163 0.0
H1112 H 0.87073 0.91312 0.38529 0.0
C1113 C 0.88349 0.95618 0.34579 0.0
C1114 C 0.90444 0.96015 0.35132 0.0
C1115 C 0.8704 0.93842 0.35004 0.0
C1116 C 0.86099 0.90334 0.37855 0.0
H1117 H 0.77196 0.86346 0.40257 0.0
H1118 H 0.80314 0.88561 0.3948 0.0
H1119 H 0.84384 0.8865 0.39389 0.0
H1120 H 0.92839 0.94823 0.3654 0.0
H1121 H 0.90545 0.91711 0.37284 0.0
H1122 H 0.85149 0.89553 0.34629 0.0
C1123 C 0.8002 0.86945 0.39047 0.0
C1124 C 0.84542 0.88827 0.38348 0.0
C1125 C 0.78221 0.85682 0.39486 0.0
C1126 C 0.91228 0.94564 0.36098 0.0
C1127 C 0.89912 0.92789 0.36528 0.0
C1128 C 0.85002 0.89363 0.3567 0.0
C1129 C 0.81365 0.86171 0.3803 0.0
C1130 C 0.83173 0.87599 0.37508 0.0
C1131 C 0.87793 0.92424 0.35994 0.0
C1132 C 0.86314 0.90651 0.36511 0.0
H1133 H 0.78771 0.81219 0.37471 0.0
H1134 H 0.81921 0.83432 0.36702 0.0
H1135 H 0.82411 0.8694 0.3549 0.0
H1136 H 0.87699 0.96704 0.33831 0.0
H1137 H 0.85405 0.93624 0.34584 0.0
C1138 C 0.79547 0.16112 0.10625 0.0
C1139 C 0.77516 0.1518 0.10225 0.0
C1140 C 0.81269 0.14741 0.11067 0.0
C1141 C 0.82272 0.09715 0.12789 0.0
H1142 H 0.87804 0.08929 0.10917 0.0
C1143 C 0.87957 0.02319 0.13858 0.0
C1144 C 0.90266 0.02548 0.13724 0.0
C1145 C 0.86536 0.04031 0.13481 0.0
C1146 C 0.86292 0.0916 0.11469 0.0
H1147 H 0.75692 0.12093 0.09971 0.0
H1148 H 0.78675 0.09715 0.10783 0.0
H1149 H 0.85095 0.11674 0.10161 0.0
H1150 H 0.92908 0.04763 0.13106 0.0
H1151 H 0.90425 0.07804 0.12488 0.0
H1152 H 0.83448 0.07257 0.14114 0.0
C1153 C 0.78939 0.11498 0.10736 0.0
C1154 C 0.84741 0.10723 0.1103 0.0
C1155 C 0.77241 0.12858 0.10269 0.0
C1156 C 0.91131 0.04539 0.13215 0.0
C1157 C 0.89706 0.06275 0.12855 0.0
C1158 C 0.83833 0.08188 0.13243 0.0
C1159 C 0.80959 0.12429 0.11141 0.0
C1160 C 0.82703 0.10971 0.11672 0.0
C1161 C 0.87386 0.0604 0.12981 0.0
C1162 C 0.8584 0.07843 0.1257 0.0
H1163 H 0.79803 0.17897 0.10597 0.0
H1164 H 0.82819 0.15486 0.11378 0.0
H1165 H 0.80713 0.09901 0.13304 0.0
H1166 H 0.87237 0.00796 0.14234 0.0
H1167 H 0.84763 0.03755 0.13561 0.0
C1168 C 0.79337 0.32375 0.61266 0.0
C1169 C 0.77926 0.33186 0.60289 0.0
C1170 C 0.8115 0.33643 0.61687 0.0
C1171 C 0.84733 0.38428 0.60784 0.0
H1172 H 0.85402 0.39164 0.64497 0.0
C1173 C 0.88398 0.45333 0.6451 0.0
C1174 C 0.90464 0.45805 0.63937 0.0
C1175 C 0.87145 0.43509 0.641 0.0
C1176 C 0.85239 0.38971 0.63458 0.0
H1177 H 0.77347 0.35925 0.58959 0.0
H1178 H 0.80491 0.38133 0.59696 0.0
H1179 H 0.82703 0.36495 0.63661 0.0
H1180 H 0.92868 0.44699 0.62511 0.0
H1181 H 0.90673 0.41502 0.61793 0.0
H1182 H 0.87199 0.40972 0.60579 0.0
C1183 C 0.80214 0.36514 0.60131 0.0
C1184 C 0.8371 0.37425 0.62979 0.0
C1185 C 0.784 0.35255 0.59716 0.0
C1186 C 0.91277 0.44382 0.62967 0.0
C1187 C 0.90017 0.42558 0.62553 0.0
C1188 C 0.86265 0.3997 0.61262 0.0
C1189 C 0.81594 0.35736 0.61132 0.0
C1190 C 0.83405 0.37173 0.61637 0.0
C1191 C 0.87927 0.42116 0.63106 0.0
C1192 C 0.86498 0.40294 0.62604 0.0
H1193 H 0.79017 0.30783 0.61724 0.0
H1194 H 0.82196 0.32992 0.62452 0.0
H1195 H 0.84554 0.38251 0.59744 0.0
H1196 H 0.87726 0.46395 0.65262 0.0
H1197 H 0.85528 0.43233 0.64534 0.0
C1198 C 0.91172 0.54672 0.86158 0.0
C1199 C 0.90398 0.53213 0.85195 0.0
C1200 C 0.89863 0.5646 0.86567 0.0
C1201 C 0.86058 0.58954 0.87855 0.0
H1202 H 0.82448 0.62357 0.85454 0.0
C1203 C 0.78229 0.63704 0.89425 0.0
C1204 C 0.77779 0.65778 0.88852 0.0
C1205 C 0.80012 0.62417 0.88998 0.0
C1206 C 0.83466 0.61443 0.86136 0.0
H1207 H 0.87677 0.52521 0.83877 0.0
H1208 H 0.85391 0.55626 0.84595 0.0
H1209 H 0.8516 0.59701 0.8462 0.0
H1210 H 0.78876 0.68154 0.87401 0.0
H1211 H 0.82001 0.65895 0.86653 0.0
H1212 H 0.84349 0.60677 0.89372 0.0
C1213 C 0.87015 0.55404 0.85028 0.0
C1214 C 0.85003 0.59906 0.85659 0.0
C1215 C 0.88319 0.53614 0.84623 0.0
C1216 C 0.79179 0.6656 0.8786 0.0
C1217 C 0.80961 0.65264 0.87427 0.0
C1218 C 0.84517 0.60485 0.88332 0.0
C1219 C 0.87759 0.5683 0.86016 0.0
C1220 C 0.86288 0.58617 0.86514 0.0
C1221 C 0.81384 0.6317 0.87985 0.0
C1222 C 0.83176 0.61717 0.87479 0.0
H1223 H 0.92772 0.54412 0.86613 0.0
H1224 H 0.90492 0.57545 0.8732 0.0
H1225 H 0.8701 0.57975 0.8854 0.0
H1226 H 0.77182 0.63056 0.90193 0.0
H1227 H 0.80275 0.60799 0.89437 0.0
C1228 C 0.69564 0.66486 0.11331 0.0
C1229 C 0.70923 0.65682 0.10327 0.0
C1230 C 0.67768 0.6522 0.11781 0.0
C1231 C 0.65256 0.61423 0.13103 0.0
H1232 H 0.61598 0.57976 0.10748 0.0
C1233 C 0.60556 0.53516 0.14653 0.0
C1234 C 0.58456 0.53089 0.14114 0.0
C1235 C 0.61807 0.55343 0.14241 0.0
C1236 C 0.62581 0.58951 0.11419 0.0
H1237 H 0.71427 0.62957 0.08982 0.0
H1238 H 0.68308 0.60753 0.09766 0.0
H1239 H 0.64233 0.60685 0.09881 0.0
H1240 H 0.55986 0.54282 0.12751 0.0
H1241 H 0.58178 0.57481 0.12029 0.0
H1242 H 0.63626 0.59664 0.14641 0.0
C1243 C 0.68615 0.62364 0.10201 0.0
C1244 C 0.64106 0.60485 0.10922 0.0
C1245 C 0.70413 0.63621 0.09758 0.0
C1246 C 0.57604 0.54563 0.1318 0.0
C1247 C 0.58861 0.56388 0.12763 0.0
C1248 C 0.63735 0.59882 0.136 0.0
C1249 C 0.67288 0.63136 0.11228 0.0
C1250 C 0.65492 0.61704 0.11758 0.0
C1251 C 0.60988 0.56782 0.13278 0.0
C1252 C 0.62414 0.58597 0.12763 0.0
H1253 H 0.69913 0.68071 0.11787 0.0
H1254 H 0.66763 0.65865 0.12566 0.0
H1255 H 0.6631 0.62326 0.13772 0.0
H1256 H 0.61257 0.52414 0.15377 0.0
H1257 H 0.63451 0.55583 0.14645 0.0
C1258 C 0.70487 0.35313 0.39611 0.0
C1259 C 0.70939 0.33255 0.39022 0.0
C1260 C 0.68684 0.36595 0.39206 0.0
C1261 C 0.65209 0.37605 0.36362 0.0
H1262 H 0.61713 0.41091 0.38779 0.0
C1263 C 0.57628 0.44514 0.36387 0.0
C1264 C 0.5845 0.4597 0.35433 0.0
C1265 C 0.58896 0.42696 0.36799 0.0
C1266 C 0.62651 0.40106 0.38091 0.0
H1267 H 0.6982 0.30896 0.37573 0.0
H1268 H 0.66662 0.33145 0.36862 0.0
H1269 H 0.64347 0.38346 0.396 0.0
H1270 H 0.61213 0.46629 0.34136 0.0
H1271 H 0.63423 0.43473 0.34858 0.0
H1272 H 0.63536 0.39387 0.34853 0.0
C1273 C 0.67716 0.33769 0.37632 0.0
C1274 C 0.64175 0.38551 0.38562 0.0
C1275 C 0.69517 0.32478 0.38042 0.0
C1276 C 0.60535 0.4554 0.34875 0.0
C1277 C 0.61795 0.4372 0.35281 0.0
C1278 C 0.63691 0.39166 0.35891 0.0
C1279 C 0.67295 0.35852 0.382 0.0
C1280 C 0.65502 0.37315 0.37703 0.0
C1281 C 0.61002 0.42292 0.36258 0.0
C1282 C 0.62428 0.40465 0.36751 0.0
H1283 H 0.7155 0.35956 0.4037 0.0
H1284 H 0.68423 0.38205 0.39652 0.0
H1285 H 0.66217 0.3669 0.35675 0.0
H1286 H 0.56023 0.448 0.36832 0.0
H1287 H 0.58234 0.41613 0.37546 0.0
C1288 C 0.07811 0.54703 0.35798 0.0
C1289 C 0.08691 0.52668 0.35366 0.0
C1290 C 0.09219 0.56366 0.36277 0.0
C1291 C 0.14285 0.57158 0.38012 0.0
H1292 H 0.15089 0.62826 0.3627 0.0
C1293 C 0.2173 0.62747 0.3917 0.0
C1294 C 0.21518 0.65068 0.39082 0.0
C1295 C 0.20005 0.61354 0.38774 0.0
C1296 C 0.14855 0.61274 0.36787 0.0
H1297 H 0.11722 0.50772 0.35097 0.0
H1298 H 0.14165 0.53651 0.35974 0.0
H1299 H 0.12306 0.60193 0.35472 0.0
H1300 H 0.19319 0.6776 0.38532 0.0
H1301 H 0.16256 0.65328 0.37885 0.0
H1302 H 0.16776 0.58221 0.39345 0.0
C1303 C 0.12394 0.53964 0.35924 0.0
C1304 C 0.13269 0.59767 0.36323 0.0
C1305 C 0.10998 0.52326 0.35419 0.0
C1306 C 0.1953 0.65973 0.38604 0.0
C1307 C 0.17782 0.64577 0.38227 0.0
C1308 C 0.15835 0.58676 0.38491 0.0
C1309 C 0.11516 0.55992 0.36358 0.0
C1310 C 0.13012 0.57681 0.36917 0.0
C1311 C 0.18001 0.62246 0.38302 0.0
C1312 C 0.16185 0.60733 0.37866 0.0
H1313 H 0.06039 0.55009 0.35763 0.0
H1314 H 0.08515 0.57923 0.36609 0.0
H1315 H 0.14092 0.55562 0.3849 0.0
H1316 H 0.23251 0.61997 0.39522 0.0
H1317 H 0.20268 0.59573 0.38817 0.0
C1318 C 0.19792 0.32885 0.10986 0.0
C1319 C 0.21248 0.33641 0.10014 0.0
C1320 C 0.18019 0.34214 0.11394 0.0
C1321 C 0.14586 0.39067 0.10462 0.0
H1322 H 0.13832 0.39805 0.1417 0.0
C1323 C 0.10685 0.4587 0.14189 0.0
C1324 C 0.08596 0.46251 0.13625 0.0
C1325 C 0.12016 0.44115 0.13765 0.0
C1326 C 0.14022 0.39614 0.13132 0.0
H1327 H 0.21949 0.36349 0.08681 0.0
H1328 H 0.18867 0.38666 0.09397 0.0
H1329 H 0.1654 0.37132 0.13354 0.0
H1330 H 0.06244 0.45065 0.1219 0.0
H1331 H 0.08578 0.41992 0.11447 0.0
H1332 H 0.1212 0.41604 0.10241 0.0
C1333 C 0.19082 0.37043 0.09838 0.0
C1334 C 0.15555 0.38067 0.12665 0.0
C1335 C 0.20859 0.35721 0.09434 0.0
C1336 C 0.07849 0.44816 0.12642 0.0
C1337 C 0.09188 0.43064 0.12212 0.0
C1338 C 0.13045 0.40607 0.1093 0.0
C1339 C 0.1766 0.36317 0.10833 0.0
C1340 C 0.15882 0.37805 0.11324 0.0
C1341 C 0.11292 0.42704 0.12765 0.0
C1342 C 0.12775 0.40925 0.1227 0.0
H1343 H 0.20046 0.31286 0.11448 0.0
H1344 H 0.16937 0.33601 0.12155 0.0
H1345 H 0.14785 0.38885 0.09424 0.0
H1346 H 0.11308 0.46946 0.14949 0.0
H1347 H 0.13641 0.43899 0.14199 0.0
C1348 C 0.38251 0.45754 0.84795 0.0
C1349 C 0.40322 0.46094 0.85391 0.0
C1350 C 0.36866 0.44018 0.85195 0.0
C1351 C 0.34759 0.39536 0.85787 0.0
H1352 H 0.33804 0.38789 0.89481 0.0
C1353 C 0.2886 0.32801 0.87855 0.0
C1354 C 0.2738 0.33546 0.88815 0.0
C1355 C 0.3064 0.34141 0.8746 0.0
C1356 C 0.34055 0.38976 0.88446 0.0
H1357 H 0.42583 0.44859 0.86861 0.0
H1358 H 0.40152 0.41822 0.87564 0.0
H1359 H 0.3654 0.41488 0.88711 0.0
H1360 H 0.26633 0.36256 0.90133 0.0
H1361 H 0.29724 0.3859 0.89441 0.0
H1362 H 0.32225 0.37075 0.85521 0.0
C1363 C 0.396 0.42909 0.86791 0.0
C1364 C 0.35637 0.40506 0.88006 0.0
C1365 C 0.40994 0.4464 0.86384 0.0
C1366 C 0.27743 0.35634 0.8939 0.0
C1367 C 0.29524 0.36966 0.89 0.0
C1368 C 0.33184 0.37999 0.86227 0.0
C1369 C 0.37516 0.42588 0.86205 0.0
C1370 C 0.35979 0.40828 0.86672 0.0
C1371 C 0.30981 0.36244 0.88023 0.0
C1372 C 0.3279 0.37729 0.87561 0.0
H1373 H 0.37686 0.46845 0.84026 0.0
H1374 H 0.35259 0.43832 0.84735 0.0
H1375 H 0.35003 0.39732 0.84753 0.0
H1376 H 0.28626 0.31197 0.87396 0.0
H1377 H 0.31747 0.33532 0.86713 0.0
C1378 C 0.41079 0.54734 0.63408 0.0
C1379 C 0.40231 0.52668 0.6382 0.0
C1380 C 0.39637 0.56418 0.62994 0.0
C1381 C 0.3444 0.5728 0.61402 0.0
H1382 H 0.33797 0.62868 0.63241 0.0
C1383 C 0.26964 0.6293 0.6048 0.0
C1384 C 0.27207 0.65248 0.60573 0.0
C1385 C 0.28693 0.61517 0.60839 0.0
C1386 C 0.33983 0.61338 0.62698 0.0
H1387 H 0.37222 0.50742 0.64121 0.0
H1388 H 0.34719 0.53659 0.63357 0.0
H1389 H 0.3663 0.60197 0.63927 0.0
H1390 H 0.29458 0.67912 0.61104 0.0
H1391 H 0.32527 0.65443 0.61685 0.0
H1392 H 0.31852 0.58404 0.60152 0.0
C1393 C 0.36492 0.53979 0.63373 0.0
C1394 C 0.35598 0.5981 0.63097 0.0
C1395 C 0.37923 0.52318 0.63812 0.0
C1396 C 0.29224 0.66129 0.61028 0.0
C1397 C 0.30976 0.64711 0.61367 0.0
C1398 C 0.3286 0.58819 0.60987 0.0
C1399 C 0.37337 0.56038 0.62959 0.0
C1400 C 0.35801 0.57752 0.62468 0.0
C1401 C 0.30732 0.62384 0.61276 0.0
C1402 C 0.32568 0.60847 0.61649 0.0
H1403 H 0.42852 0.55047 0.63409 0.0
H1404 H 0.40317 0.57998 0.62676 0.0
H1405 H 0.3459 0.55708 0.60895 0.0
H1406 H 0.2542 0.622 0.60147 0.0
H1407 H 0.28411 0.59739 0.60789 0.0
C1408 C 0.38944 0.08232 0.1189 0.0
C1409 C 0.3966 0.07617 0.13137 0.0
C1410 C 0.37607 0.10107 0.11711 0.0
C1411 C 0.35959 0.1537 0.13303 0.0
H1412 H 0.31267 0.15328 0.10727 0.0
C1413 C 0.29832 0.22681 0.12717 0.0
C1414 C 0.29461 0.23421 0.11442 0.0
C1415 C 0.30952 0.20684 0.1295 0.0
C1416 C 0.3258 0.15368 0.11444 0.0
H1417 H 0.39502 0.08478 0.15177 0.0
H1418 H 0.37139 0.11724 0.14867 0.0
H1419 H 0.33456 0.1197 0.11095 0.0
H1420 H 0.29928 0.22607 0.09411 0.0
H1421 H 0.31878 0.1912 0.0982 0.0
H1422 H 0.35076 0.18768 0.13653 0.0
C1423 C 0.37645 0.10781 0.14023 0.0
C1424 C 0.33839 0.13447 0.11654 0.0
C1425 C 0.38992 0.08911 0.14202 0.0
C1426 C 0.30187 0.22089 0.10405 0.0
C1427 C 0.31295 0.20084 0.10639 0.0
C1428 C 0.34692 0.17286 0.13098 0.0
C1429 C 0.36943 0.11408 0.12775 0.0
C1430 C 0.35554 0.13428 0.1258 0.0
C1431 C 0.31713 0.19374 0.11914 0.0
C1432 C 0.32999 0.1731 0.12161 0.0
H1433 H 0.39434 0.07279 0.11046 0.0
H1434 H 0.37128 0.10559 0.10734 0.0
H1435 H 0.37289 0.1543 0.14008 0.0
H1436 H 0.29292 0.23662 0.13539 0.0
H1437 H 0.31227 0.20166 0.13943 0.0
C1438 C 0.15017 0.14119 0.39166 0.0
C1439 C 0.16307 0.14771 0.38095 0.0
C1440 C 0.1317 0.1273 0.39002 0.0
C1441 C 0.1058 0.08813 0.36652 0.0
H1442 H 0.05241 0.09975 0.38643 0.0
C1443 C 0.01985 0.05042 0.35405 0.0
C1444 C 0.00682 0.04272 0.36445 0.0
C1445 C 0.03974 0.06182 0.35635 0.0
C1446 C 0.06729 0.09614 0.3809 0.0
H1447 H 0.16656 0.14483 0.36007 0.0
H1448 H 0.13419 0.12117 0.35718 0.0
H1449 H 0.0854 0.12251 0.38997 0.0
H1450 H 0.00476 0.04061 0.38544 0.0
H1451 H 0.03937 0.06056 0.38939 0.0
H1452 H 0.08739 0.06207 0.35725 0.0
C1453 C 0.13857 0.12631 0.36691 0.0
C1454 C 0.08622 0.10915 0.38295 0.0
C1455 C 0.15708 0.14004 0.36856 0.0
C1456 C 0.01435 0.04633 0.37719 0.0
C1457 C 0.03412 0.05788 0.37947 0.0
C1458 C 0.0868 0.07524 0.36441 0.0
C1459 C 0.12563 0.11974 0.3776 0.0
C1460 C 0.1057 0.10539 0.37574 0.0
C1461 C 0.04692 0.06593 0.36909 0.0
C1462 C 0.06732 0.07916 0.37154 0.0
H1463 H 0.15438 0.1467 0.40135 0.0
H1464 H 0.12231 0.12234 0.3985 0.0
H1465 H 0.12062 0.08448 0.36096 0.0
H1466 H 0.01456 0.04791 0.34413 0.0
H1467 H 0.04919 0.06798 0.34815 0.0
C1468 C 0.09823 0.90762 0.639 0.0
C1469 C 0.09237 0.9209 0.6283 0.0
C1470 C 0.1119 0.88902 0.63739 0.0
C1471 C 0.1295 0.84832 0.613 0.0
H1472 H 0.1778 0.83624 0.63684 0.0
C1473 C 0.1893 0.77496 0.6047 0.0
C1474 C 0.1954 0.76241 0.61564 0.0
C1475 C 0.17829 0.79528 0.60611 0.0
C1476 C 0.16424 0.83923 0.63017 0.0
H1477 H 0.09641 0.92504 0.60752 0.0
H1478 H 0.12014 0.89255 0.60475 0.0
H1479 H 0.15519 0.86958 0.6397 0.0
H1480 H 0.19508 0.76165 0.63667 0.0
H1481 H 0.17548 0.79679 0.63912 0.0
H1482 H 0.1381 0.81782 0.60362 0.0
C1483 C 0.11407 0.8965 0.61436 0.0
C1484 C 0.15132 0.85836 0.63181 0.0
C1485 C 0.10056 0.91518 0.61597 0.0
C1486 C 0.19071 0.77092 0.62803 0.0
C1487 C 0.17954 0.79116 0.62944 0.0
C1488 C 0.1423 0.82913 0.61141 0.0
C1489 C 0.11985 0.88319 0.62504 0.0
C1490 C 0.1338 0.86307 0.62325 0.0
C1491 C 0.17294 0.80347 0.6185 0.0
C1492 C 0.15982 0.82431 0.61999 0.0
H1493 H 0.09224 0.91155 0.64863 0.0
H1494 H 0.11592 0.87895 0.64578 0.0
H1495 H 0.11591 0.85135 0.60635 0.0
H1496 H 0.19281 0.76897 0.59501 0.0
H1497 H 0.17385 0.80451 0.59747 0.0
C1498 C 0.47215 0.94563 0.87903 0.0
C1499 C 0.47984 0.94958 0.86635 0.0
C1500 C 0.45223 0.93423 0.88115 0.0
C1501 C 0.39959 0.91772 0.8657 0.0
H1502 H 0.40049 0.86942 0.89068 0.0
C1503 C 0.32958 0.85236 0.86848 0.0
C1504 C 0.32337 0.84409 0.88071 0.0
C1505 C 0.34799 0.86636 0.86715 0.0
C1506 C 0.3998 0.88307 0.88382 0.0
H1507 H 0.47222 0.9452 0.84596 0.0
H1508 H 0.43736 0.92539 0.84968 0.0
H1509 H 0.43354 0.89231 0.88762 0.0
H1510 H 0.33148 0.8444 0.9012 0.0
H1511 H 0.36335 0.86919 0.89892 0.0
H1512 H 0.36586 0.90859 0.86191 0.0
C1513 C 0.44678 0.93116 0.85797 0.0
C1514 C 0.41877 0.89616 0.88206 0.0
C1515 C 0.46681 0.94241 0.85584 0.0
C1516 C 0.33589 0.85035 0.89162 0.0
C1517 C 0.35424 0.86449 0.8903 0.0
C1518 C 0.38055 0.90474 0.86753 0.0
C1519 C 0.43944 0.92668 0.87065 0.0
C1520 C 0.41893 0.91349 0.8729 0.0
C1521 C 0.36058 0.87259 0.87804 0.0
C1522 C 0.38048 0.8871 0.87652 0.0
H1523 H 0.48174 0.95094 0.88735 0.0
H1524 H 0.44685 0.93124 0.89102 0.0
H1525 H 0.39915 0.93116 0.85869 0.0
H1526 H 0.32039 0.8478 0.85985 0.0
H1527 H 0.35258 0.87194 0.85753 0.0
C1528 C 0.30828 0.76739 0.38898 0.0
C1529 C 0.29262 0.75963 0.37995 0.0
C1530 C 0.31944 0.78749 0.38692 0.0
C1531 C 0.33374 0.82763 0.36075 0.0
H1532 H 0.35196 0.86422 0.38978 0.0
C1533 C 0.37777 0.91847 0.3723 0.0
C1534 C 0.39411 0.91857 0.36257 0.0
C1535 C 0.36422 0.89984 0.37418 0.0
C1536 C 0.34677 0.85442 0.38151 0.0
H1537 H 0.27578 0.7673 0.36192 0.0
H1538 H 0.29459 0.80277 0.35857 0.0
H1539 H 0.32944 0.83133 0.39364 0.0
H1540 H 0.4091 0.89915 0.34718 0.0
H1541 H 0.38608 0.86634 0.35075 0.0
H1542 H 0.35033 0.8512 0.34858 0.0
C1543 C 0.29883 0.79301 0.36704 0.0
C1544 C 0.33411 0.83528 0.38376 0.0
C1545 C 0.28789 0.77274 0.36901 0.0
C1546 C 0.39655 0.89965 0.35471 0.0
C1547 C 0.38323 0.88087 0.35672 0.0
C1548 C 0.34616 0.84693 0.35849 0.0
C1549 C 0.31499 0.80052 0.37587 0.0
C1550 C 0.3276 0.82149 0.37343 0.0
C1551 C 0.3669 0.88068 0.3665 0.0
C1552 C 0.35302 0.86049 0.36885 0.0
H1553 H 0.31244 0.7576 0.39746 0.0
H1554 H 0.33202 0.79247 0.39384 0.0
H1555 H 0.32933 0.81732 0.35254 0.0
H1556 H 0.37531 0.93288 0.37844 0.0
H1557 H 0.35155 0.90056 0.38162 0.0
C1558 C 0.3375 0.13943 0.59879 0.0
C1559 C 0.32474 0.14613 0.60951 0.0
C1560 C 0.35569 0.12523 0.60043 0.0
C1561 C 0.38115 0.08573 0.62393 0.0
H1562 H 0.43464 0.09705 0.60401 0.0
C1563 C 0.46697 0.04803 0.63655 0.0
C1564 C 0.48006 0.04036 0.62619 0.0
C1565 C 0.44705 0.05929 0.63421 0.0
C1566 C 0.41974 0.09351 0.60954 0.0
H1567 H 0.32119 0.14316 0.63038 0.0
H1568 H 0.35311 0.11895 0.63326 0.0
H1569 H 0.40187 0.11999 0.60044 0.0
H1570 H 0.48215 0.0381 0.60521 0.0
H1571 H 0.44748 0.05782 0.60117 0.0
H1572 H 0.39936 0.05958 0.63325 0.0
C1573 C 0.34881 0.12421 0.62354 0.0
C1574 C 0.40091 0.10663 0.60747 0.0
C1575 C 0.33056 0.13825 0.62189 0.0
C1576 C 0.47252 0.0438 0.61344 0.0
C1577 C 0.45272 0.05522 0.6111 0.0
C1578 C 0.40005 0.07273 0.62607 0.0
C1579 C 0.36164 0.11753 0.61284 0.0
C1580 C 0.38141 0.10299 0.61469 0.0
C1581 C 0.4399 0.06329 0.62145 0.0
C1582 C 0.41956 0.07655 0.61893 0.0
H1583 H 0.33339 0.14508 0.58911 0.0
H1584 H 0.36499 0.12018 0.59194 0.0
H1585 H 0.36631 0.08217 0.62951 0.0
H1586 H 0.47227 0.04564 0.64649 0.0
H1587 H 0.43759 0.06547 0.64238 0.0
C1588 C 0.10015 0.07642 0.87242 0.0
C1589 C 0.09225 0.07109 0.85997 0.0
C1590 C 0.11319 0.09537 0.87439 0.0
C1591 C 0.14969 0.13539 0.85773 0.0
H1592 H 0.13529 0.17397 0.88664 0.0
C1593 C 0.18766 0.22323 0.86342 0.0
C1594 C 0.19232 0.23094 0.87599 0.0
C1595 C 0.1766 0.20302 0.86155 0.0
C1596 C 0.1398 0.16322 0.87864 0.0
H1597 H 0.09219 0.08138 0.8398 0.0
H1598 H 0.11506 0.11446 0.84327 0.0
H1599 H 0.11386 0.14008 0.88319 0.0
H1600 H 0.18964 0.22303 0.89646 0.0
H1601 H 0.17082 0.18755 0.8932 0.0
H1602 H 0.17574 0.15842 0.85322 0.0
C1603 C 0.11117 0.10389 0.85148 0.0
C1604 C 0.12745 0.14382 0.87665 0.0
C1605 C 0.09796 0.08501 0.84951 0.0
C1606 C 0.18617 0.21768 0.88665 0.0
C1607 C 0.17524 0.19738 0.88477 0.0
C1608 C 0.16217 0.15473 0.85978 0.0
C1609 C 0.11879 0.10934 0.86396 0.0
C1610 C 0.1322 0.12975 0.86614 0.0
C1611 C 0.17006 0.18993 0.87221 0.0
C1612 C 0.15731 0.16895 0.87023 0.0
H1613 H 0.09611 0.06607 0.8807 0.0
H1614 H 0.11903 0.09901 0.88409 0.0
H1615 H 0.15391 0.1247 0.84965 0.0
H1616 H 0.19208 0.23306 0.85499 0.0
H1617 H 0.17265 0.19798 0.85175 0.0
C1618 C 0.16233 0.85154 0.1221 0.0
C1619 C 0.16789 0.8438 0.10965 0.0
C1620 C 0.14376 0.86505 0.12397 0.0
C1621 C 0.10581 0.90342 0.10733 0.0
H1622 H 0.06584 0.88931 0.13568 0.0
C1623 C 0.01958 0.94463 0.11294 0.0
C1624 C 0.01155 0.94867 0.12552 0.0
C1625 C 0.03947 0.9331 0.11105 0.0
C1626 C 0.07699 0.89376 0.12785 0.0
H1627 H 0.15836 0.84448 0.08937 0.0
H1628 H 0.1259 0.86825 0.09267 0.0
H1629 H 0.0988 0.86665 0.13221 0.0
H1630 H 0.01865 0.94456 0.146 0.0
H1631 H 0.05362 0.92498 0.14271 0.0
H1632 H 0.08414 0.93067 0.10303 0.0
C1633 C 0.13603 0.86383 0.10095 0.0
C1634 C 0.09585 0.88068 0.12583 0.0
C1635 C 0.15453 0.85012 0.09909 0.0
C1636 C 0.02426 0.94158 0.13617 0.0
C1637 C 0.04425 0.9302 0.13428 0.0
C1638 C 0.08703 0.91663 0.10941 0.0
C1639 C 0.13038 0.87131 0.11343 0.0
C1640 C 0.11042 0.88533 0.11554 0.0
C1641 C 0.05192 0.92547 0.1217 0.0
C1642 C 0.07233 0.91192 0.11968 0.0
H1643 H 0.17224 0.84703 0.13046 0.0
H1644 H 0.13996 0.87076 0.13368 0.0
H1645 H 0.11691 0.90755 0.09941 0.0
H1646 H 0.01018 0.94977 0.10451 0.0
H1647 H 0.04469 0.92954 0.10122 0.0
C1648 C 0.68964 0.76744 0.86391 0.0
C1649 C 0.6938 0.75958 0.87653 0.0
C1650 C 0.67805 0.7873 0.86195 0.0
C1651 C 0.6618 0.83975 0.87766 0.0
H1652 H 0.61375 0.83936 0.85263 0.0
C1653 C 0.59851 0.91155 0.87409 0.0
C1654 C 0.59073 0.91767 0.86175 0.0
C1655 C 0.61179 0.89269 0.87569 0.0
C1656 C 0.62732 0.83991 0.85951 0.0
H1657 H 0.68951 0.76679 0.89698 0.0
H1658 H 0.66939 0.80156 0.89353 0.0
H1659 H 0.63608 0.806 0.85575 0.0
H1660 H 0.59111 0.90889 0.84136 0.0
H1661 H 0.61466 0.87627 0.8441 0.0
H1662 H 0.65322 0.8737 0.88136 0.0
C1663 C 0.67513 0.79231 0.88517 0.0
C1664 C 0.64008 0.82075 0.86132 0.0
C1665 C 0.68657 0.77234 0.88714 0.0
C1666 C 0.59669 0.90457 0.85102 0.0
C1667 C 0.61011 0.88578 0.85261 0.0
C1668 C 0.64915 0.85899 0.87578 0.0
C1669 C 0.67052 0.79985 0.87256 0.0
C1670 C 0.65739 0.82043 0.87045 0.0
C1671 C 0.61776 0.87955 0.86498 0.0
C1672 C 0.63165 0.85928 0.86673 0.0
H1673 H 0.69498 0.75807 0.85551 0.0
H1674 H 0.67497 0.79284 0.85212 0.0
H1675 H 0.67521 0.84007 0.88466 0.0
H1676 H 0.59415 0.92119 0.88259 0.0
H1677 H 0.61704 0.88821 0.88539 0.0
C1678 C 0.97314 0.94648 0.61134 0.0
C1679 C 0.98076 0.95078 0.62398 0.0
C1680 C 0.95336 0.93477 0.60932 0.0
C1681 C 0.90089 0.91809 0.62494 0.0
H1682 H 0.90209 0.86939 0.6003 0.0
C1683 C 0.83086 0.85273 0.62249 0.0
C1684 C 0.82466 0.84439 0.61029 0.0
C1685 C 0.84937 0.8666 0.62378 0.0
C1686 C 0.90132 0.88314 0.60707 0.0
H1687 H 0.9732 0.94666 0.64441 0.0
H1688 H 0.9386 0.92634 0.64087 0.0
H1689 H 0.93501 0.89252 0.60319 0.0
H1690 H 0.83295 0.84434 0.58983 0.0
H1691 H 0.86501 0.86891 0.59202 0.0
H1692 H 0.86719 0.90885 0.62879 0.0
C1693 C 0.94795 0.93206 0.63253 0.0
C1694 C 0.92022 0.89636 0.60874 0.0
C1695 C 0.96783 0.94362 0.63455 0.0
C1696 C 0.83735 0.85036 0.59938 0.0
C1697 C 0.8558 0.86437 0.60065 0.0
C1698 C 0.88192 0.90497 0.6232 0.0
C1699 C 0.94067 0.92726 0.61989 0.0
C1700 C 0.92026 0.91386 0.61776 0.0
C1701 C 0.86208 0.87263 0.61288 0.0
C1702 C 0.88196 0.88719 0.61433 0.0
H1703 H 0.98265 0.95176 0.60296 0.0
H1704 H 0.94802 0.93153 0.59948 0.0
H1705 H 0.90035 0.93165 0.63184 0.0
H1706 H 0.82155 0.84838 0.63112 0.0
H1707 H 0.85392 0.87229 0.63337 0.0
C1708 C 0.8011 0.21905 0.38707 0.0
C1709 C 0.79453 0.23243 0.37657 0.0
C1710 C 0.81259 0.19918 0.38498 0.0
C1711 C 0.82655 0.15756 0.35961 0.0
H1712 H 0.87484 0.14323 0.38303 0.0
C1713 C 0.89095 0.08797 0.34952 0.0
C1714 C 0.8964 0.07407 0.36003 0.0
C1715 C 0.87783 0.1069 0.35139 0.0
C1716 C 0.86127 0.1469 0.37648 0.0
H1717 H 0.7947 0.23525 0.3556 0.0
H1718 H 0.81513 0.20087 0.35196 0.0
H1719 H 0.85308 0.17682 0.38658 0.0
H1720 H 0.89218 0.06917 0.38074 0.0
H1721 H 0.86942 0.10219 0.38398 0.0
H1722 H 0.83512 0.12773 0.34939 0.0
C1723 C 0.81106 0.2055 0.36182 0.0
C1724 C 0.84873 0.16612 0.37853 0.0
C1725 C 0.79942 0.2253 0.36391 0.0
C1726 C 0.88834 0.07949 0.37243 0.0
C1727 C 0.8754 0.09849 0.37431 0.0
C1728 C 0.83921 0.1384 0.3575 0.0
C1729 C 0.81796 0.19228 0.37233 0.0
C1730 C 0.83116 0.17168 0.37015 0.0
C1731 C 0.87005 0.11244 0.36383 0.0
C1732 C 0.85666 0.13284 0.36594 0.0
H1733 H 0.79746 0.22396 0.39695 0.0
H1734 H 0.81726 0.18922 0.39329 0.0
H1735 H 0.81295 0.16115 0.35306 0.0
H1736 H 0.89685 0.08426 0.33984 0.0
H1737 H 0.87412 0.11745 0.34315 0.0
C1738 C 0.66353 0.13411 0.12099 0.0
C1739 C 0.66359 0.15037 0.11117 0.0
C1740 C 0.64473 0.12094 0.12315 0.0
C1741 C 0.58476 0.12071 0.1202 0.0
H1742 H 0.58926 0.05628 0.1212 0.0
C1743 C 0.51376 0.06342 0.13812 0.0
C1744 C 0.5074 0.04676 0.12931 0.0
C1745 C 0.53329 0.0756 0.13615 0.0
C1746 C 0.58782 0.07425 0.12096 0.0
H1747 H 0.64392 0.16569 0.09599 0.0
H1748 H 0.61079 0.143 0.10003 0.0
H1749 H 0.62257 0.07881 0.11709 0.0
H1750 H 0.51689 0.02927 0.11178 0.0
H1751 H 0.55138 0.05019 0.10856 0.0
H1752 H 0.55011 0.1162 0.12427 0.0
C1753 C 0.62543 0.14038 0.10594 0.0
C1754 C 0.60682 0.0871 0.11866 0.0
C1755 C 0.64439 0.15327 0.1036 0.0
C1756 C 0.52133 0.04204 0.11872 0.0
C1757 C 0.54107 0.05393 0.11689 0.0
C1758 C 0.56586 0.10789 0.12275 0.0
C1759 C 0.62548 0.12406 0.1157 0.0
C1760 C 0.60542 0.11043 0.11819 0.0
C1761 C 0.54704 0.07104 0.12548 0.0
C1762 C 0.56721 0.08455 0.12309 0.0
H1763 H 0.6781 0.13142 0.12695 0.0
H1764 H 0.64511 0.10853 0.13078 0.0
H1765 H 0.5833 0.13869 0.11996 0.0
H1766 H 0.50334 0.06751 0.14634 0.0
H1767 H 0.53763 0.08863 0.14294 0.0
C1768 C 0.68859 0.22367 0.62771 0.0
C1769 C 0.69328 0.23142 0.61514 0.0
C1770 C 0.67678 0.20387 0.62958 0.0
C1771 C 0.63843 0.16547 0.61258 0.0
H1772 H 0.65227 0.1259 0.64119 0.0
C1773 C 0.59812 0.07881 0.61823 0.0
C1774 C 0.59034 0.07309 0.63066 0.0
C1775 C 0.61113 0.09782 0.61638 0.0
C1776 C 0.64812 0.13689 0.63322 0.0
H1777 H 0.68978 0.22407 0.59466 0.0
H1778 H 0.66968 0.18928 0.59791 0.0
H1779 H 0.67472 0.15924 0.63771 0.0
H1780 H 0.59035 0.08281 0.65091 0.0
H1781 H 0.6132 0.116 0.64765 0.0
H1782 H 0.61198 0.14293 0.60803 0.0
C1783 C 0.67465 0.19877 0.60634 0.0
C1784 C 0.66094 0.15602 0.63123 0.0
C1785 C 0.68631 0.21866 0.60447 0.0
C1786 C 0.59605 0.08674 0.64121 0.0
C1787 C 0.60924 0.10568 0.63936 0.0
C1788 C 0.62573 0.14626 0.61452 0.0
C1789 C 0.66952 0.19124 0.61891 0.0
C1790 C 0.65622 0.17059 0.6209 0.0
C1791 C 0.61681 0.11147 0.62692 0.0
C1792 C 0.6304 0.1318 0.62487 0.0
H1793 H 0.69361 0.23313 0.63615 0.0
H1794 H 0.67288 0.19878 0.63939 0.0
H1795 H 0.63401 0.1765 0.60469 0.0
H1796 H 0.59406 0.06867 0.60988 0.0
H1797 H 0.61692 0.10174 0.6067 0.0
C1798 C 0.51288 0.94569 0.38023 0.0
C1799 C 0.50567 0.94966 0.36747 0.0
C1800 C 0.53286 0.93457 0.38258 0.0
C1801 C 0.58632 0.91918 0.36768 0.0
H1802 H 0.58547 0.87071 0.39255 0.0
C1803 C 0.6571 0.85498 0.37077 0.0
C1804 C 0.66321 0.84673 0.38302 0.0
C1805 C 0.63853 0.86867 0.36938 0.0
C1806 C 0.58614 0.88441 0.38573 0.0
H1807 H 0.51415 0.94554 0.34717 0.0
H1808 H 0.54907 0.92621 0.35128 0.0
H1809 H 0.55215 0.89301 0.38924 0.0
H1810 H 0.6547 0.84672 0.40346 0.0
H1811 H 0.62249 0.87098 0.40106 0.0
H1812 H 0.62029 0.91068 0.36417 0.0
C1813 C 0.53925 0.93177 0.35947 0.0
C1814 C 0.56701 0.89717 0.38382 0.0
C1815 C 0.51918 0.94274 0.35711 0.0
C1816 C 0.65039 0.85267 0.39387 0.0
C1817 C 0.63185 0.8665 0.39248 0.0
C1818 C 0.6055 0.90653 0.36965 0.0
C1819 C 0.54617 0.92732 0.37222 0.0
C1820 C 0.56683 0.91454 0.37468 0.0
C1821 C 0.62564 0.87461 0.3802 0.0
C1822 C 0.60558 0.88882 0.3786 0.0
H1823 H 0.50291 0.95081 0.38844 0.0
H1824 H 0.53789 0.93159 0.39251 0.0
H1825 H 0.58676 0.93267 0.3607 0.0
H1826 H 0.66652 0.85066 0.36219 0.0
H1827 H 0.63404 0.87425 0.35974 0.0
C1828 C 0.80244 0.7699 0.10338 0.0
C1829 C 0.79532 0.75743 0.11416 0.0
C1830 C 0.81452 0.78957 0.10508 0.0
C1831 C 0.82951 0.83231 0.12964 0.0
H1832 H 0.87889 0.84354 0.10635 0.0
C1833 C 0.89611 0.89981 0.13934 0.0
C1834 C 0.90209 0.91332 0.12875 0.0
C1835 C 0.88265 0.88108 0.13753 0.0
C1836 C 0.86503 0.84073 0.11286 0.0
H1837 H 0.7951 0.75606 0.13518 0.0
H1838 H 0.81651 0.79003 0.13812 0.0
H1839 H 0.85579 0.81065 0.10321 0.0
H1840 H 0.89872 0.91759 0.10794 0.0
H1841 H 0.87537 0.88485 0.10483 0.0
H1842 H 0.83911 0.86225 0.13942 0.0
C1843 C 0.81243 0.78488 0.12836 0.0
C1844 C 0.85172 0.82192 0.11104 0.0
C1845 C 0.80022 0.7653 0.12666 0.0
C1846 C 0.89444 0.90756 0.11631 0.0
C1847 C 0.88115 0.88874 0.11451 0.0
C1848 C 0.84293 0.85103 0.13152 0.0
C1849 C 0.81992 0.79716 0.11759 0.0
C1850 C 0.83378 0.81746 0.1194 0.0
C1851 C 0.87505 0.87534 0.1251 0.0
C1852 C 0.86083 0.85544 0.12315 0.0
H1853 H 0.79883 0.7644 0.09361 0.0
H1854 H 0.81965 0.79882 0.09657 0.0
H1855 H 0.81563 0.8296 0.13615 0.0
H1856 H 0.90169 0.90378 0.14904 0.0
H1857 H 0.87838 0.87093 0.14586 0.0
C1858 C 0.9734 0.04343 0.87619 0.0
C1859 C 0.98134 0.04001 0.86352 0.0
C1860 C 0.95367 0.05508 0.87832 0.0
C1861 C 0.90177 0.07343 0.86276 0.0
H1862 H 0.90303 0.12 0.88876 0.0
C1863 C 0.8319 0.1387 0.86722 0.0
C1864 C 0.8258 0.14589 0.87968 0.0
C1865 C 0.85034 0.12492 0.86545 0.0
C1866 C 0.90224 0.10685 0.88161 0.0
H1867 H 0.97435 0.04561 0.84314 0.0
H1868 H 0.93981 0.06588 0.84689 0.0
H1869 H 0.93578 0.09696 0.88535 0.0
H1870 H 0.83417 0.14392 0.90011 0.0
H1871 H 0.86604 0.11953 0.89706 0.0
H1872 H 0.86819 0.08318 0.85906 0.0
C1873 C 0.9489 0.05949 0.85516 0.0
C1874 C 0.92104 0.09367 0.87964 0.0
C1875 C 0.96874 0.04797 0.85302 0.0
C1876 C 0.83848 0.13882 0.89036 0.0
C1877 C 0.85684 0.12491 0.8886 0.0
C1878 C 0.88288 0.08651 0.86479 0.0
C1879 C 0.94133 0.06345 0.86784 0.0
C1880 C 0.92106 0.07691 0.87015 0.0
C1881 C 0.86306 0.11785 0.87612 0.0
C1882 C 0.88292 0.10348 0.87419 0.0
H1883 H 0.98264 0.0375 0.88451 0.0
H1884 H 0.9481 0.05764 0.88819 0.0
H1885 H 0.90122 0.06046 0.85549 0.0
H1886 H 0.82257 0.1439 0.85877 0.0
H1887 H 0.85483 0.12013 0.85568 0.0
C1888 C 0.79792 0.72487 0.62898 0.0
C1889 C 0.79376 0.73238 0.61629 0.0
C1890 C 0.80893 0.70474 0.63113 0.0
C1891 C 0.82339 0.65128 0.61594 0.0
H1892 H 0.8718 0.65108 0.64073 0.0
C1893 C 0.88563 0.57861 0.61946 0.0
C1894 C 0.89369 0.57257 0.63176 0.0
C1895 C 0.87241 0.59752 0.61791 0.0
C1896 C 0.85811 0.6507 0.63393 0.0
H1897 H 0.79747 0.7243 0.59591 0.0
H1898 H 0.81661 0.68907 0.59969 0.0
H1899 H 0.85029 0.68493 0.63741 0.0
H1900 H 0.89377 0.58149 0.65213 0.0
H1901 H 0.87032 0.61423 0.64947 0.0
H1902 H 0.83108 0.61704 0.61248 0.0
C1903 C 0.81129 0.69879 0.60796 0.0
C1904 C 0.84582 0.67014 0.63201 0.0
C1905 C 0.80042 0.71903 0.6058 0.0
C1906 C 0.88796 0.58574 0.64251 0.0
C1907 C 0.87461 0.60459 0.64097 0.0
C1908 C 0.83558 0.63177 0.61792 0.0
C1909 C 0.81588 0.69157 0.62064 0.0
C1910 C 0.82842 0.67068 0.62293 0.0
C1911 C 0.86678 0.6108 0.62863 0.0
C1912 C 0.85321 0.63128 0.62688 0.0
H1913 H 0.793 0.7347 0.63729 0.0
H1914 H 0.81201 0.69947 0.64101 0.0
H1915 H 0.80988 0.65112 0.609 0.0
H1916 H 0.8898 0.56892 0.61096 0.0
H1917 H 0.867 0.60196 0.60824 0.0
C1918 C 0.65178 0.64066 0.89114 0.0
C1919 C 0.6651 0.64705 0.88056 0.0
C1920 C 0.63359 0.62645 0.88933 0.0
C1921 C 0.59415 0.6079 0.86443 0.0
H1922 H 0.58278 0.55869 0.88789 0.0
C1923 C 0.52336 0.54567 0.85474 0.0
C1924 C 0.51042 0.53918 0.86545 0.0
C1925 C 0.54331 0.5572 0.85653 0.0
C1926 C 0.58559 0.57249 0.88132 0.0
H1927 H 0.66976 0.6434 0.85979 0.0
H1928 H 0.63806 0.61877 0.85669 0.0
H1929 H 0.61517 0.5825 0.89132 0.0
H1930 H 0.50869 0.53918 0.88646 0.0
H1931 H 0.54318 0.55963 0.88956 0.0
H1932 H 0.56444 0.59832 0.85458 0.0
C1933 C 0.64161 0.62483 0.86636 0.0
C1934 C 0.60415 0.58611 0.88329 0.0
C1935 C 0.65985 0.63887 0.86816 0.0
C1936 C 0.51825 0.54388 0.87799 0.0
C1937 C 0.53812 0.55554 0.87978 0.0
C1938 C 0.57554 0.5944 0.86251 0.0
C1939 C 0.62826 0.6185 0.87691 0.0
C1940 C 0.60862 0.60395 0.87487 0.0
C1941 C 0.55074 0.56265 0.86906 0.0
C1942 C 0.571 0.57652 0.87093 0.0
H1943 H 0.65537 0.64662 0.90082 0.0
H1944 H 0.62347 0.622 0.89763 0.0
H1945 H 0.59698 0.62173 0.85789 0.0
H1946 H 0.51791 0.54217 0.84495 0.0
H1947 H 0.55282 0.56202 0.84806 0.0
C1948 C 0.61251 0.41828 0.12155 0.0
C1949 C 0.59652 0.41797 0.13148 0.0
C1950 C 0.62642 0.39999 0.11955 0.0
C1951 C 0.64592 0.34737 0.13511 0.0
H1952 H 0.66172 0.33209 0.09981 0.0
C1953 C 0.68272 0.26806 0.10424 0.0
C1954 C 0.69847 0.26012 0.11315 0.0
C1955 C 0.67179 0.28822 0.10639 0.0
C1956 C 0.65731 0.33595 0.10973 0.0
H1957 H 0.58251 0.3982 0.14707 0.0
H1958 H 0.60608 0.36598 0.14328 0.0
H1959 H 0.63909 0.36473 0.10388 0.0
H1960 H 0.71575 0.26752 0.13107 0.0
H1961 H 0.69737 0.30311 0.13458 0.0
H1962 H 0.66304 0.31787 0.1409 0.0
C1963 C 0.60843 0.38057 0.13726 0.0
C1964 C 0.64459 0.35496 0.1121 0.0
C1965 C 0.59478 0.39901 0.13939 0.0
C1966 C 0.70355 0.27311 0.12407 0.0
C1967 C 0.69286 0.29345 0.12613 0.0
C1968 C 0.65837 0.32819 0.13273 0.0
C1969 C 0.62443 0.38078 0.1273 0.0
C1970 C 0.63861 0.36089 0.12482 0.0
C1971 C 0.67658 0.30114 0.11742 0.0
C1972 C 0.66414 0.32213 0.12 0.0
H1973 H 0.61442 0.43275 0.11537 0.0
H1974 H 0.63881 0.40101 0.11196 0.0
H1975 H 0.642 0.35155 0.14506 0.0
H1976 H 0.67829 0.25837 0.09577 0.0
H1977 H 0.65911 0.29331 0.09957 0.0
C1978 C 0.84064 0.34364 0.38941 0.0
C1979 C 0.82155 0.3455 0.38167 0.0
C1980 C 0.85889 0.35765 0.38732 0.0
C1981 C 0.88342 0.3951 0.36231 0.0
H1982 H 0.92105 0.41332 0.39086 0.0
C1983 C 0.96417 0.45569 0.37402 0.0
C1984 C 0.97701 0.45121 0.36295 0.0
C1985 C 0.94413 0.44446 0.37615 0.0
C1986 C 0.91057 0.40871 0.38277 0.0
H1987 H 0.80626 0.36407 0.366 0.0
H1988 H 0.83759 0.38902 0.3627 0.0
H1989 H 0.88796 0.39137 0.39519 0.0
H1990 H 0.97876 0.43162 0.34534 0.0
H1991 H 0.94431 0.41153 0.34922 0.0
H1992 H 0.90553 0.41315 0.34994 0.0
C1993 C 0.83891 0.37626 0.37008 0.0
C1994 C 0.89173 0.39574 0.38524 0.0
C1995 C 0.82085 0.36203 0.37203 0.0
C1996 C 0.96917 0.43559 0.35392 0.0
C1997 C 0.94931 0.42412 0.35613 0.0
C1998 C 0.90208 0.40831 0.35986 0.0
C1999 C 0.85832 0.3741 0.37758 0.0
C2000 C 0.87799 0.38858 0.37503 0.0
C2001 C 0.93661 0.42823 0.36735 0.0
C2002 C 0.91606 0.41511 0.37003 0.0
H2003 H 0.84173 0.33097 0.39687 0.0
H2004 H 0.87362 0.35521 0.39316 0.0
H2005 H 0.87348 0.3897 0.35415 0.0
H2006 H 0.96967 0.46777 0.38112 0.0
H2007 H 0.93461 0.44845 0.38474 0.0
C2008 C 0.89885 0.39878 0.85174 0.0
C2009 C 0.89479 0.41768 0.8594 0.0
C2010 C 0.88627 0.37941 0.85347 0.0
C2011 C 0.83297 0.35838 0.86496 0.0
H2012 H 0.86428 0.303 0.87132 0.0
C2013 C 0.79137 0.27105 0.86553 0.0
C2014 C 0.79637 0.25766 0.87633 0.0
C2015 C 0.80261 0.29113 0.86349 0.0
C2016 C 0.85535 0.31837 0.86956 0.0
H2017 H 0.87396 0.43132 0.87461 0.0
H2018 H 0.85165 0.3976 0.87738 0.0
H2019 H 0.88538 0.33718 0.86718 0.0
H2020 H 0.81702 0.25488 0.89348 0.0
H2021 H 0.837 0.28978 0.88973 0.0
H2022 H 0.80293 0.33947 0.86718 0.0
C2023 C 0.8647 0.39777 0.87015 0.0
C2024 C 0.86739 0.33783 0.86711 0.0
C2025 C 0.87754 0.417 0.86859 0.0
C2026 C 0.81273 0.26486 0.8851 0.0
C2027 C 0.82425 0.28474 0.88293 0.0
C2028 C 0.82092 0.33882 0.86717 0.0
C2029 C 0.86914 0.37873 0.86271 0.0
C2030 C 0.85631 0.35802 0.86487 0.0
C2031 C 0.81935 0.29799 0.87208 0.0
C2032 C 0.83202 0.31869 0.86959 0.0
H2033 H 0.91206 0.39878 0.84461 0.0
H2034 H 0.88991 0.36495 0.84758 0.0
H2035 H 0.82407 0.37376 0.86321 0.0
H2036 H 0.77881 0.26597 0.85862 0.0
H2037 H 0.79861 0.30105 0.85503 0.0
C2038 C 0.97245 0.54695 0.11282 0.0
C2039 C 0.98045 0.5423 0.12534 0.0
C2040 C 0.95235 0.55818 0.11109 0.0
C2041 C 0.91392 0.5958 0.12842 0.0
H2042 H 0.87442 0.58247 0.09976 0.0
C2043 C 0.82829 0.63752 0.12291 0.0
C2044 C 0.82277 0.64556 0.11051 0.0
C2045 C 0.84688 0.62399 0.1247 0.0
C2046 C 0.88539 0.58647 0.10775 0.0
H2047 H 0.9731 0.54509 0.14586 0.0
H2048 H 0.93781 0.56422 0.14285 0.0
H2049 H 0.9076 0.55984 0.10312 0.0
H2050 H 0.83234 0.64533 0.09023 0.0
H2051 H 0.86484 0.62159 0.09338 0.0
H2052 H 0.89164 0.62235 0.13307 0.0
C2053 C 0.94735 0.55966 0.13435 0.0
C2054 C 0.90441 0.57353 0.10968 0.0
C2055 C 0.96753 0.54855 0.13608 0.0
C2056 C 0.83613 0.63946 0.09991 0.0
C2057 C 0.85467 0.62576 0.1017 0.0
C2058 C 0.89485 0.60862 0.12654 0.0
C2059 C 0.93967 0.56492 0.12184 0.0
C2060 C 0.91897 0.5781 0.12001 0.0
C2061 C 0.86033 0.61803 0.11413 0.0
C2062 C 0.88042 0.60416 0.11616 0.0
H2063 H 0.982 0.54245 0.10432 0.0
H2064 H 0.94713 0.56218 0.10132 0.0
H2065 H 0.92496 0.60011 0.13631 0.0
H2066 H 0.81837 0.64183 0.1313 0.0
H2067 H 0.85067 0.61807 0.13437 0.0
C2068 C 0.60079 0.5801 0.37508 0.0
C2069 C 0.59305 0.57438 0.36266 0.0
C2070 C 0.61363 0.59922 0.37693 0.0
C2071 C 0.64996 0.63908 0.36005 0.0
H2072 H 0.63519 0.67816 0.38867 0.0
C2073 C 0.68809 0.72689 0.3654 0.0
C2074 C 0.69281 0.73467 0.37795 0.0
C2075 C 0.67683 0.70678 0.36359 0.0
C2076 C 0.63979 0.66728 0.38075 0.0
H2077 H 0.59306 0.58417 0.3424 0.0
H2078 H 0.61559 0.61755 0.34565 0.0
H2079 H 0.61388 0.64414 0.38537 0.0
H2080 H 0.68993 0.72706 0.39844 0.0
H2081 H 0.67074 0.69174 0.39529 0.0
H2082 H 0.67598 0.6621 0.35548 0.0
C2083 C 0.61172 0.60714 0.35394 0.0
C2084 C 0.62751 0.64781 0.37884 0.0
C2085 C 0.59872 0.58809 0.3521 0.0
C2086 C 0.68643 0.72163 0.38864 0.0
C2087 C 0.67529 0.70144 0.38683 0.0
C2088 C 0.66235 0.65849 0.36201 0.0
C2089 C 0.61917 0.61298 0.36639 0.0
C2090 C 0.63242 0.63354 0.36845 0.0
C2091 C 0.67014 0.69386 0.37429 0.0
C2092 C 0.65737 0.67288 0.37237 0.0
H2093 H 0.59677 0.56992 0.38343 0.0
H2094 H 0.61934 0.60316 0.38661 0.0
H2095 H 0.65429 0.62825 0.35205 0.0
H2096 H 0.69267 0.73655 0.35693 0.0
H2097 H 0.67288 0.70164 0.3538 0.0
C2098 C 0.65335 0.35104 0.60062 0.0
C2099 C 0.66657 0.34436 0.61117 0.0
C2100 C 0.63536 0.36543 0.6025 0.0
C2101 C 0.59607 0.38383 0.62749 0.0
H2102 H 0.58533 0.43369 0.60443 0.0
C2103 C 0.52561 0.44597 0.63763 0.0
C2104 C 0.51282 0.45282 0.62695 0.0
C2105 C 0.54556 0.43452 0.63577 0.0
C2106 C 0.58796 0.41971 0.61089 0.0
H2107 H 0.67127 0.34771 0.63195 0.0
H2108 H 0.6399 0.37263 0.63517 0.0
H2109 H 0.61747 0.40969 0.60082 0.0
H2110 H 0.51136 0.45359 0.60594 0.0
H2111 H 0.54581 0.43324 0.60272 0.0
H2112 H 0.56641 0.39336 0.63739 0.0
C2113 C 0.64339 0.36667 0.62548 0.0
C2114 C 0.60638 0.40599 0.60881 0.0
C2115 C 0.66144 0.35246 0.6236 0.0
C2116 C 0.52082 0.44861 0.61438 0.0
C2117 C 0.54067 0.43701 0.61253 0.0
C2118 C 0.57759 0.39741 0.6295 0.0
C2119 C 0.63012 0.37326 0.61497 0.0
C2120 C 0.61062 0.38791 0.6171 0.0
C2121 C 0.55311 0.42948 0.6232 0.0
C2122 C 0.57327 0.41554 0.62124 0.0
H2123 H 0.65687 0.34515 0.59092 0.0
H2124 H 0.6253 0.37009 0.59423 0.0
H2125 H 0.59873 0.36982 0.63392 0.0
H2126 H 0.52003 0.44911 0.64744 0.0
H2127 H 0.55495 0.42941 0.64421 0.0
C2128 C 0.09317 0.4025 0.34992 0.0
C2129 C 0.08648 0.41553 0.36053 0.0
C2130 C 0.10653 0.38374 0.35176 0.0
C2131 C 0.14461 0.35747 0.3756 0.0
H2132 H 0.13385 0.30447 0.35511 0.0
C2133 C 0.18418 0.27176 0.38696 0.0
C2134 C 0.19199 0.2593 0.37636 0.0
C2135 C 0.17229 0.29145 0.38497 0.0
C2136 C 0.13721 0.31923 0.36081 0.0
H2137 H 0.0884 0.41885 0.38144 0.0
H2138 H 0.11122 0.38591 0.38469 0.0
H2139 H 0.11082 0.3373 0.3518 0.0
H2140 H 0.19378 0.25809 0.35535 0.0
H2141 H 0.17303 0.2924 0.35192 0.0
H2142 H 0.17078 0.33913 0.38476 0.0
C2143 C 0.10657 0.39044 0.37489 0.0
C2144 C 0.12403 0.33807 0.3589 0.0
C2145 C 0.09334 0.40927 0.37304 0.0
C2146 C 0.18799 0.26723 0.36375 0.0
C2147 C 0.17597 0.28681 0.36176 0.0
C2148 C 0.15769 0.33855 0.37757 0.0
C2149 C 0.1134 0.37747 0.36428 0.0
C2150 C 0.12755 0.35744 0.36627 0.0
C2151 C 0.16781 0.29902 0.37234 0.0
C2152 C 0.15414 0.31924 0.37019 0.0
H2153 H 0.08831 0.40691 0.34014 0.0
H2154 H 0.11173 0.37434 0.34335 0.0
H2155 H 0.14804 0.3722 0.38129 0.0
H2156 H 0.18697 0.26614 0.39681 0.0
H2157 H 0.16607 0.30043 0.39331 0.0
C2158 C 0.32582 0.3621 0.11789 0.0
C2159 C 0.3257 0.34541 0.10837 0.0
C2160 C 0.34461 0.37534 0.11979 0.0
C2161 C 0.38996 0.39177 0.1276 0.0
H2162 H 0.42874 0.40788 0.09909 0.0
C2163 C 0.47647 0.4301 0.13637 0.0
C2164 C 0.48465 0.44574 0.12742 0.0
C2165 C 0.45671 0.41862 0.13393 0.0
C2166 C 0.41797 0.40382 0.10717 0.0
H2167 H 0.34519 0.32958 0.09331 0.0
H2168 H 0.37832 0.3521 0.09693 0.0
H2169 H 0.39471 0.38739 0.09477 0.0
H2170 H 0.47818 0.46206 0.10905 0.0
H2171 H 0.44328 0.4427 0.10501 0.0
H2172 H 0.41267 0.40898 0.13994 0.0
C2173 C 0.36369 0.35543 0.10272 0.0
C2174 C 0.39857 0.39171 0.1047 0.0
C2175 C 0.34473 0.3424 0.10068 0.0
C2176 C 0.4724 0.44998 0.1161 0.0
C2177 C 0.45245 0.43874 0.11374 0.0
C2178 C 0.40917 0.40413 0.13005 0.0
C2179 C 0.36394 0.372 0.11237 0.0
C2180 C 0.38436 0.38539 0.1149 0.0
C2181 C 0.44443 0.42274 0.12257 0.0
C2182 C 0.42355 0.41018 0.11988 0.0
H2183 H 0.31131 0.36501 0.12387 0.0
H2184 H 0.34392 0.38826 0.12709 0.0
H2185 H 0.37967 0.38697 0.13576 0.0
H2186 H 0.48562 0.4263 0.14514 0.0
H2187 H 0.45135 0.40616 0.14085 0.0
C2188 C 0.30339 0.7191 0.88612 0.0
C2189 C 0.29634 0.73181 0.87545 0.0
C2190 C 0.3154 0.69946 0.88428 0.0
C2191 C 0.32998 0.65703 0.85951 0.0
H2192 H 0.37913 0.64507 0.88279 0.0
C2193 C 0.39492 0.58761 0.85029 0.0
C2194 C 0.40062 0.57438 0.86104 0.0
C2195 C 0.38189 0.60669 0.85188 0.0
C2196 C 0.36534 0.64809 0.87627 0.0
H2197 H 0.29618 0.73364 0.85443 0.0
H2198 H 0.31745 0.69967 0.85124 0.0
H2199 H 0.35663 0.6783 0.88593 0.0
H2200 H 0.39709 0.57091 0.88189 0.0
H2201 H 0.37449 0.60414 0.88462 0.0
H2202 H 0.339 0.62687 0.84977 0.0
C2203 C 0.31339 0.70465 0.86104 0.0
C2204 C 0.35238 0.6671 0.8781 0.0
C2205 C 0.30126 0.72422 0.86288 0.0
C2206 C 0.39304 0.5807 0.8734 0.0
C2207 C 0.38018 0.59982 0.87499 0.0
C2208 C 0.34305 0.63807 0.85764 0.0
C2209 C 0.32079 0.69212 0.87172 0.0
C2210 C 0.33448 0.67178 0.86977 0.0
C2211 C 0.37446 0.61303 0.86425 0.0
C2212 C 0.36081 0.63336 0.86604 0.0
H2213 H 0.29977 0.72438 0.89593 0.0
H2214 H 0.32047 0.69001 0.89272 0.0
H2215 H 0.31615 0.65994 0.85302 0.0
H2216 H 0.40046 0.58321 0.84064 0.0
H2217 H 0.37788 0.61665 0.84344 0.0
C2218 C 0.01737 0.55129 0.63713 0.0
C2219 C 0.00463 0.54398 0.62653 0.0
C2220 C 0.03697 0.56334 0.63514 0.0
C2221 C 0.06403 0.59988 0.61143 0.0
H2222 H 0.11721 0.58824 0.6315 0.0
C2223 C 0.14668 0.6461 0.6017 0.0
C2224 C 0.15954 0.65212 0.61251 0.0
C2225 C 0.12809 0.63234 0.60314 0.0
C2226 C 0.10242 0.59189 0.62592 0.0
H2227 H 0.00279 0.54323 0.60552 0.0
H2228 H 0.03696 0.5643 0.60209 0.0
H2229 H 0.08447 0.56484 0.63454 0.0
H2230 H 0.1627 0.64865 0.63337 0.0
H2231 H 0.13006 0.62513 0.63593 0.0
H2232 H 0.08173 0.62718 0.60299 0.0
C2233 C 0.03167 0.56081 0.61193 0.0
C2234 C 0.08369 0.57843 0.62765 0.0
C2235 C 0.01217 0.54862 0.6139 0.0
C2236 C 0.15325 0.64424 0.62482 0.0
C2237 C 0.1346 0.6306 0.62627 0.0
C2238 C 0.08269 0.61345 0.60977 0.0
C2239 C 0.04417 0.56847 0.62252 0.0
C2240 C 0.06428 0.58232 0.62045 0.0
C2241 C 0.12185 0.62437 0.61545 0.0
C2242 C 0.1021 0.60968 0.61703 0.0
H2243 H 0.01206 0.54799 0.64698 0.0
H2244 H 0.04616 0.56917 0.6435 0.0
H2245 H 0.04919 0.60348 0.60588 0.0
H2246 H 0.15113 0.65177 0.59207 0.0
H2247 H 0.11882 0.62765 0.59457 0.0
C2248 C 0.09968 0.58211 0.11708 0.0
C2249 C 0.09211 0.57567 0.12942 0.0
C2250 C 0.11329 0.60077 0.11557 0.0
C2251 C 0.13051 0.65271 0.13207 0.0
H2252 H 0.1777 0.65205 0.10644 0.0
C2253 C 0.19362 0.72464 0.12693 0.0
C2254 C 0.19748 0.73238 0.11425 0.0
C2255 C 0.18191 0.70488 0.12908 0.0
C2256 C 0.1645 0.65251 0.11358 0.0
H2257 H 0.09313 0.58376 0.1499 0.0
H2258 H 0.11726 0.61611 0.1473 0.0
H2259 H 0.15513 0.61878 0.10982 0.0
H2260 H 0.19252 0.72502 0.09387 0.0
H2261 H 0.17217 0.69044 0.09763 0.0
H2262 H 0.14003 0.68644 0.13586 0.0
C2263 C 0.11231 0.60694 0.13874 0.0
C2264 C 0.15152 0.63348 0.1155 0.0
C2265 C 0.09856 0.58832 0.14024 0.0
C2266 C 0.18983 0.71957 0.10376 0.0
C2267 C 0.17826 0.6997 0.10591 0.0
C2268 C 0.1436 0.67169 0.13021 0.0
C2269 C 0.11984 0.61342 0.12638 0.0
C2270 C 0.13422 0.6334 0.12469 0.0
C2271 C 0.17395 0.69229 0.11859 0.0
C2272 C 0.16063 0.67184 0.12088 0.0
H2273 H 0.09494 0.57283 0.10851 0.0
H2274 H 0.11841 0.60548 0.10588 0.0
H2275 H 0.11713 0.65339 0.13908 0.0
H2276 H 0.19929 0.73406 0.13525 0.0
H2277 H 0.17906 0.69944 0.13896 0.0
C2278 C 0.15423 0.35132 0.86948 0.0
C2279 C 0.16011 0.34249 0.88163 0.0
C2280 C 0.1358 0.36523 0.86821 0.0
C2281 C 0.0834 0.3811 0.88447 0.0
H2282 H 0.08586 0.43096 0.86057 0.0
C2283 C 0.01144 0.44406 0.87939 0.0
C2284 C 0.00485 0.44893 0.86662 0.0
C2285 C 0.03115 0.43248 0.88178 0.0
C2286 C 0.0849 0.41703 0.86723 0.0
H2287 H 0.15122 0.34149 0.902 0.0
H2288 H 0.11922 0.3661 0.89982 0.0
H2289 H 0.11876 0.408 0.86385 0.0
H2290 H 0.01416 0.44598 0.84637 0.0
H2291 H 0.04857 0.42586 0.85057 0.0
H2292 H 0.0495 0.39022 0.88783 0.0
C2293 C 0.12869 0.36196 0.89123 0.0
C2294 C 0.10372 0.40383 0.86909 0.0
C2295 C 0.1471 0.34792 0.89249 0.0
C2296 C 0.01872 0.44249 0.85632 0.0
C2297 C 0.0385 0.43105 0.85872 0.0
C2298 C 0.06462 0.3944 0.88266 0.0
C2299 C 0.12283 0.37079 0.87907 0.0
C2300 C 0.10313 0.38553 0.87762 0.0
C2301 C 0.04478 0.42568 0.87147 0.0
C2302 C 0.0651 0.41236 0.87392 0.0
H2303 H 0.16378 0.34739 0.86088 0.0
H2304 H 0.13154 0.37137 0.85866 0.0
H2305 H 0.08225 0.36698 0.89097 0.0
H2306 H 0.00117 0.4488 0.88756 0.0
H2307 H 0.03569 0.42878 0.89171 0.0
C2308 C 0.30614 0.27117 0.60337 0.0
C2309 C 0.29871 0.25855 0.61401 0.0
C2310 C 0.31823 0.29078 0.60527 0.0
C2311 C 0.3324 0.33318 0.63018 0.0
H2312 H 0.38217 0.3452 0.60731 0.0
C2313 C 0.39772 0.40173 0.64049 0.0
C2314 C 0.40373 0.41534 0.62995 0.0
C2315 C 0.38464 0.38275 0.63858 0.0
C2316 C 0.36821 0.34216 0.61371 0.0
H2317 H 0.29804 0.2568 0.63502 0.0
H2318 H 0.31947 0.29067 0.63833 0.0
H2319 H 0.35949 0.3121 0.60386 0.0
H2320 H 0.40081 0.41952 0.60911 0.0
H2321 H 0.37813 0.38639 0.60581 0.0
H2322 H 0.34145 0.36313 0.64013 0.0
C2323 C 0.31561 0.28568 0.6285 0.0
C2324 C 0.35514 0.32323 0.61171 0.0
C2325 C 0.30339 0.26617 0.62659 0.0
C2326 C 0.3965 0.40943 0.61745 0.0
C2327 C 0.3836 0.39037 0.61554 0.0
C2328 C 0.34558 0.35203 0.63223 0.0
C2329 C 0.32333 0.29816 0.61787 0.0
C2330 C 0.33705 0.3185 0.61991 0.0
C2331 C 0.37747 0.37687 0.62608 0.0
C2332 C 0.3636 0.35674 0.624 0.0
H2333 H 0.30272 0.26586 0.59354 0.0
H2334 H 0.32357 0.30017 0.59686 0.0
H2335 H 0.31841 0.33026 0.63656 0.0
H2336 H 0.40298 0.4058 0.65024 0.0
H2337 H 0.38034 0.37253 0.64687 0.0
C2338 C 0.47021 0.55147 0.35565 0.0
C2339 C 0.48261 0.54361 0.36625 0.0
C2340 C 0.45052 0.56333 0.35763 0.0
C2341 C 0.423 0.59851 0.38175 0.0
H2342 H 0.36994 0.58788 0.36137 0.0
C2343 C 0.34035 0.64314 0.3928 0.0
C2344 C 0.32725 0.64988 0.38223 0.0
C2345 C 0.35894 0.62961 0.3909 0.0
C2346 C 0.3847 0.59126 0.36704 0.0
H2347 H 0.4837 0.54161 0.38726 0.0
H2348 H 0.44942 0.56232 0.39067 0.0
H2349 H 0.40282 0.56491 0.35788 0.0
H2350 H 0.32361 0.64789 0.36134 0.0
H2351 H 0.3563 0.62479 0.358 0.0
H2352 H 0.40519 0.62509 0.39075 0.0
C2353 C 0.45503 0.55944 0.38084 0.0
C2354 C 0.4035 0.57804 0.36505 0.0
C2355 C 0.47461 0.54745 0.37886 0.0
C2356 C 0.33326 0.64291 0.36971 0.0
C2357 C 0.35194 0.62952 0.3678 0.0
C2358 C 0.40429 0.61183 0.38367 0.0
C2359 C 0.44292 0.56772 0.37025 0.0
C2360 C 0.42283 0.58152 0.3724 0.0
C2361 C 0.36499 0.62265 0.37838 0.0
C2362 C 0.38489 0.60838 0.37634 0.0
H2363 H 0.47588 0.54879 0.34581 0.0
H2364 H 0.44159 0.56963 0.34928 0.0
H2365 H 0.43779 0.60181 0.38742 0.0
H2366 H 0.33611 0.64807 0.40259 0.0
H2367 H 0.36839 0.62437 0.3993 0.0
loop_
_geom_bond_atom_site_label_1
_geom_bond_atom_site_label_2
_geom_bond_distance
_geom_bond_site_symmetry_2
_ccdc_geom_bond_type
C0 O1 1.306 . S
C0 O3 1.160 . S
O1 C0 1.306 . S
O1 Cd2 2.228 . S
Cd2 O1 2.228 . S
Cd2 O6 2.273 . S
Cd2 O10 2.277 . S
O3 C0 1.160 . S
O3 Cd4 2.203 . S
Cd4 O3 2.203 . S
Cd4 O6 2.411 . S
Cd4 O7 2.333 . S
Cd4 O8 2.352 . S
Cd4 O12 2.277 . S
Cd4 O13 2.356 . S
C5 O10 1.209 . S
C5 O12 1.226 . S
O6 Cd2 2.273 . S
O6 Cd4 2.411 . S
O6 C9 1.320 . S
O7 Cd4 2.333 . S
O7 C9 1.214 . S
O8 Cd4 2.352 . S
O8 C11 1.258 . S
C9 O6 1.320 . S
C9 O7 1.214 . S
O10 Cd2 2.277 . S
O10 C5 1.209 . S
C11 O8 1.258 . S
C11 O13 1.282 . S
O12 Cd4 2.277 . S
O12 C5 1.226 . S
O13 Cd4 2.356 . S
O13 C11 1.282 . S
C14 O15 1.306 . S
C14 O17 1.160 . S
O15 C14 1.306 . S
O15 Cd16 2.228 . S
Cd16 O15 2.228 . S
Cd16 O20 2.273 . S
Cd16 O24 2.277 . S
O17 C14 1.160 . S
O17 Cd18 2.203 . S
Cd18 O17 2.203 . S
Cd18 O20 2.411 . S
Cd18 O21 2.333 . S
Cd18 O22 2.352 . S
Cd18 O26 2.277 . S
Cd18 O27 2.356 . S
C19 O24 1.209 . S
C19 O26 1.226 . S
O20 Cd16 2.273 . S
O20 Cd18 2.411 . S
O20 C23 1.320 . S
O21 Cd18 2.333 . S
O21 C23 1.214 . S
O22 Cd18 2.352 . S
O22 C25 1.258 . S
C23 O20 1.320 . S
C23 O21 1.214 . S
O24 Cd16 2.277 . S
O24 C19 1.209 . S
C25 O22 1.258 . S
C25 O27 1.282 . S
O26 Cd18 2.277 . S
O26 C19 1.226 . S
O27 Cd18 2.356 . S
O27 C25 1.282 . S
C28 O29 1.306 . S
C28 O31 1.160 . S
O29 C28 1.306 . S
O29 Cd30 2.228 . S
Cd30 O29 2.228 . S
Cd30 O34 2.273 . S
Cd30 O38 2.277 . S
O31 C28 1.160 . S
O31 Cd32 2.203 . S
Cd32 O31 2.203 . S
Cd32 O34 2.411 . S
Cd32 O35 2.333 . S
Cd32 O36 2.352 . S
Cd32 O40 2.277 . S
Cd32 O41 2.356 . S
C33 O38 1.209 . S
C33 O40 1.226 . S
O34 Cd30 2.273 . S
O34 Cd32 2.411 . S
O34 C37 1.320 . S
O35 Cd32 2.333 . S
O35 C37 1.214 . S
O36 Cd32 2.352 . S
O36 C39 1.258 . S
C37 O34 1.320 . S
C37 O35 1.214 . S
O38 Cd30 2.277 . S
O38 C33 1.209 . S
C39 O36 1.258 . S
C39 O41 1.282 . S
O40 Cd32 2.277 . S
O40 C33 1.226 . S
O41 Cd32 2.356 . S
O41 C39 1.282 . S
C42 O43 1.306 . S
C42 O45 1.160 . S
O43 C42 1.306 . S
O43 Cd44 2.228 . S
Cd44 O43 2.228 . S
Cd44 O48 2.273 . S
Cd44 O52 2.277 . S
O45 C42 1.160 . S
O45 Cd46 2.203 . S
Cd46 O45 2.203 . S
Cd46 O48 2.411 . S
Cd46 O49 2.333 . S
Cd46 O50 2.352 . S
Cd46 O54 2.277 . S
Cd46 O55 2.356 . S
C47 O52 1.209 . S
C47 O54 1.226 . S
O48 Cd44 2.273 . S
O48 Cd46 2.411 . S
O48 C51 1.320 . S
O49 Cd46 2.333 . S
O49 C51 1.214 . S
O50 Cd46 2.352 . S
O50 C53 1.258 . S
C51 O48 1.320 . S
C51 O49 1.214 . S
O52 Cd44 2.277 . S
O52 C47 1.209 . S
C53 O50 1.258 . S
C53 O55 1.282 . S
O54 Cd46 2.277 . S
O54 C47 1.226 . S
O55 Cd46 2.356 . S
O55 C53 1.282 . S
C56 O57 1.306 . S
C56 O59 1.160 . S
O57 C56 1.306 . S
O57 Cd58 2.228 . S
Cd58 O57 2.228 . S
Cd58 O62 2.273 . S
Cd58 O66 2.277 . S
O59 C56 1.160 . S
O59 Cd60 2.203 . S
Cd60 O59 2.203 . S
Cd60 O62 2.411 . S
Cd60 O63 2.333 . S
Cd60 O64 2.352 . S
Cd60 O68 2.277 . S
Cd60 O69 2.356 . S
C61 O66 1.209 . S
C61 O68 1.226 . S
O62 Cd58 2.273 . S
O62 Cd60 2.411 . S
O62 C65 1.320 . S
O63 Cd60 2.333 . S
O63 C65 1.214 . S
O64 Cd60 2.352 . S
O64 C67 1.258 . S
C65 O62 1.320 . S
C65 O63 1.214 . S
O66 Cd58 2.277 . S
O66 C61 1.209 . S
C67 O64 1.258 . S
C67 O69 1.282 . S
O68 Cd60 2.277 . S
O68 C61 1.226 . S
O69 Cd60 2.356 . S
O69 C67 1.282 . S
C70 O71 1.306 . S
C70 O73 1.160 . S
O71 C70 1.306 . S
O71 Cd72 2.228 . S
Cd72 O71 2.228 . S
Cd72 O76 2.273 . S
Cd72 O80 2.277 . S
O73 C70 1.160 . S
O73 Cd74 2.203 . S
Cd74 O73 2.203 . S
Cd74 O76 2.411 . S
Cd74 O77 2.333 . S
Cd74 O78 2.352 . S
Cd74 O82 2.277 . S
Cd74 O83 2.356 . S
C75 O80 1.209 . S
C75 O82 1.226 . S
O76 Cd72 2.273 . S
O76 Cd74 2.411 . S
O76 C79 1.320 . S
O77 Cd74 2.333 . S
O77 C79 1.214 . S
O78 Cd74 2.352 . S
O78 C81 1.258 . S
C79 O76 1.320 . S
C79 O77 1.214 . S
O80 Cd72 2.277 . S
O80 C75 1.209 . S
C81 O78 1.258 . S
C81 O83 1.282 . S
O82 Cd74 2.277 . S
O82 C75 1.226 . S
O83 Cd74 2.356 . S
O83 C81 1.282 . S
C84 O85 1.306 . S
C84 O87 1.160 . S
O85 C84 1.306 . S
O85 Cd86 2.228 . S
Cd86 O85 2.228 . S
Cd86 O90 2.273 . S
Cd86 O94 2.277 . S
O87 C84 1.160 . S
O87 Cd88 2.203 . S
Cd88 O87 2.203 . S
Cd88 O90 2.411 . S
Cd88 O91 2.333 . S
Cd88 O92 2.352 . S
Cd88 O96 2.277 . S
Cd88 O97 2.356 . S
C89 O94 1.209 . S
C89 O96 1.226 . S
O90 Cd86 2.273 . S
O90 Cd88 2.411 . S
O90 C93 1.320 . S
O91 Cd88 2.333 . S
O91 C93 1.214 . S
O92 Cd88 2.352 . S
O92 C95 1.258 . S
C93 O90 1.320 . S
C93 O91 1.214 . S
O94 Cd86 2.277 . S
O94 C89 1.209 . S
C95 O92 1.258 . S
C95 O97 1.282 . S
O96 Cd88 2.277 . S
O96 C89 1.226 . S
O97 Cd88 2.356 . S
O97 C95 1.282 . S
C98 O99 1.306 . S
C98 O101 1.160 . S
O99 C98 1.306 . S
O99 Cd100 2.228 . S
Cd100 O99 2.228 . S
Cd100 O104 2.273 . S
Cd100 O108 2.277 . S
O101 C98 1.160 . S
O101 Cd102 2.203 . S
Cd102 O101 2.203 . S
Cd102 O104 2.411 . S
Cd102 O105 2.333 . S
Cd102 O106 2.352 . S
Cd102 O110 2.277 . S
Cd102 O111 2.356 . S
C103 O108 1.209 . S
C103 O110 1.226 . S
O104 Cd100 2.273 . S
O104 Cd102 2.411 . S
O104 C107 1.320 . S
O105 Cd102 2.333 . S
O105 C107 1.214 . S
O106 Cd102 2.352 . S
O106 C109 1.258 . S
C107 O104 1.320 . S
C107 O105 1.214 . S
O108 Cd100 2.277 . S
O108 C103 1.209 . S
C109 O106 1.258 . S
C109 O111 1.282 . S
O110 Cd102 2.277 . S
O110 C103 1.226 . S
O111 Cd102 2.356 . S
O111 C109 1.282 . S
C112 O113 1.306 . S
C112 O115 1.160 . S
O113 C112 1.306 . S
O113 Cd114 2.228 . S
Cd114 O113 2.228 . S
Cd114 O118 2.273 . S
Cd114 O122 2.277 . S
O115 C112 1.160 . S
O115 Cd116 2.203 . S
Cd116 O115 2.203 . S
Cd116 O118 2.411 . S
Cd116 O119 2.333 . S
Cd116 O120 2.352 . S
Cd116 O124 2.277 . S
Cd116 O125 2.356 . S
C117 O122 1.209 . S
C117 O124 1.226 . S
O118 Cd114 2.273 . S
O118 Cd116 2.411 . S
O118 C121 1.320 . S
O119 Cd116 2.333 . S
O119 C121 1.214 . S
O120 Cd116 2.352 . S
O120 C123 1.258 . S
C121 O118 1.320 . S
C121 O119 1.214 . S
O122 Cd114 2.277 . S
O122 C117 1.209 . S
C123 O120 1.258 . S
C123 O125 1.282 . S
O124 Cd116 2.277 . S
O124 C117 1.226 . S
O125 Cd116 2.356 . S
O125 C123 1.282 . S
C126 O127 1.306 . S
C126 O129 1.160 . S
O127 C126 1.306 . S
O127 Cd128 2.228 . S
Cd128 O127 2.228 . S
Cd128 O132 2.273 . S
Cd128 O136 2.277 . S
O129 C126 1.160 . S
O129 Cd130 2.203 . S
Cd130 O129 2.203 . S
Cd130 O132 2.411 . S
Cd130 O133 2.333 . S
Cd130 O134 2.352 . S
Cd130 O138 2.277 . S
Cd130 O139 2.356 . S
C131 O136 1.209 . S
C131 O138 1.226 . S
O132 Cd128 2.273 . S
O132 Cd130 2.411 . S
O132 C135 1.320 . S
O133 Cd130 2.333 . S
O133 C135 1.214 . S
O134 Cd130 2.352 . S
O134 C137 1.258 . S
C135 O132 1.320 . S
C135 O133 1.214 . S
O136 Cd128 2.277 . S
O136 C131 1.209 . S
C137 O134 1.258 . S
C137 O139 1.282 . S
O138 Cd130 2.277 . S
O138 C131 1.226 . S
O139 Cd130 2.356 . S
O139 C137 1.282 . S
C140 O141 1.306 . S
C140 O143 1.160 . S
O141 C140 1.306 . S
O141 Cd142 2.228 . S
Cd142 O141 2.228 . S
Cd142 O146 2.273 . S
Cd142 O150 2.277 . S
O143 C140 1.160 . S
O143 Cd144 2.203 . S
Cd144 O143 2.203 . S
Cd144 O146 2.411 . S
Cd144 O147 2.333 . S
Cd144 O148 2.352 . S
Cd144 O152 2.277 . S
Cd144 O153 2.356 . S
C145 O150 1.209 . S
C145 O152 1.226 . S
O146 Cd142 2.273 . S
O146 Cd144 2.411 . S
O146 C149 1.320 . S
O147 Cd144 2.333 . S
O147 C149 1.214 . S
O148 Cd144 2.352 . S
O148 C151 1.258 . S
C149 O146 1.320 . S
C149 O147 1.214 . S
O150 Cd142 2.277 . S
O150 C145 1.209 . S
C151 O148 1.258 . S
C151 O153 1.282 . S
O152 Cd144 2.277 . S
O152 C145 1.226 . S
O153 Cd144 2.356 . S
O153 C151 1.282 . S
C154 O155 1.306 . S
C154 O157 1.160 . S
O155 C154 1.306 . S
O155 Cd156 2.228 . S
Cd156 O155 2.228 . S
Cd156 O160 2.273 . S
Cd156 O164 2.277 . S
O157 C154 1.160 . S
O157 Cd158 2.203 . S
Cd158 O157 2.203 . S
Cd158 O160 2.411 . S
Cd158 O161 2.333 . S
Cd158 O162 2.352 . S
Cd158 O166 2.277 . S
Cd158 O167 2.356 . S
C159 O164 1.209 . S
C159 O166 1.226 . S
O160 Cd156 2.273 . S
O160 Cd158 2.411 . S
O160 C163 1.320 . S
O161 Cd158 2.333 . S
O161 C163 1.214 . S
O162 Cd158 2.352 . S
O162 C165 1.258 . S
C163 O160 1.320 . S
C163 O161 1.214 . S
O164 Cd156 2.277 . S
O164 C159 1.209 . S
C165 O162 1.258 . S
C165 O167 1.282 . S
O166 Cd158 2.277 . S
O166 C159 1.226 . S
O167 Cd158 2.356 . S
O167 C165 1.282 . S
C168 O169 1.306 . S
C168 O171 1.160 . S
O169 C168 1.306 . S
O169 Cd170 2.228 . S
Cd170 O169 2.228 . S
Cd170 O174 2.273 . S
Cd170 O178 2.277 . S
O171 C168 1.160 . S
O171 Cd172 2.203 . S
Cd172 O171 2.203 . S
Cd172 O174 2.411 . S
Cd172 O175 2.333 . S
Cd172 O176 2.352 . S
Cd172 O180 2.277 . S
Cd172 O181 2.356 . S
C173 O178 1.209 . S
C173 O180 1.226 . S
O174 Cd170 2.273 . S
O174 Cd172 2.411 . S
O174 C177 1.320 . S
O175 Cd172 2.333 . S
O175 C177 1.214 . S
O176 Cd172 2.352 . S
O176 C179 1.258 . S
C177 O174 1.320 . S
C177 O175 1.214 . S
O178 Cd170 2.277 . S
O178 C173 1.209 . S
C179 O176 1.258 . S
C179 O181 1.282 . S
O180 Cd172 2.277 . S
O180 C173 1.226 . S
O181 Cd172 2.356 . S
O181 C179 1.282 . S
C182 O183 1.306 . S
C182 O185 1.160 . S
O183 C182 1.306 . S
O183 Cd184 2.228 . S
Cd184 O183 2.228 . S
Cd184 O188 2.273 . S
Cd184 O192 2.277 . S
O185 C182 1.160 . S
O185 Cd186 2.203 . S
Cd186 O185 2.203 . S
Cd186 O188 2.411 . S
Cd186 O189 2.333 . S
Cd186 O190 2.352 . S
Cd186 O194 2.277 . S
Cd186 O195 2.356 . S
C187 O192 1.209 . S
C187 O194 1.226 . S
O188 Cd184 2.273 . S
O188 Cd186 2.411 . S
O188 C191 1.320 . S
O189 Cd186 2.333 . S
O189 C191 1.214 . S
O190 Cd186 2.352 . S
O190 C193 1.258 . S
C191 O188 1.320 . S
C191 O189 1.214 . S
O192 Cd184 2.277 . S
O192 C187 1.209 . S
C193 O190 1.258 . S
C193 O195 1.282 . S
O194 Cd186 2.277 . S
O194 C187 1.226 . S
O195 Cd186 2.356 . S
O195 C193 1.282 . S
C196 O197 1.306 . S
C196 O199 1.160 . S
O197 C196 1.306 . S
O197 Cd198 2.228 . S
Cd198 O197 2.228 . S
Cd198 O202 2.273 . S
Cd198 O206 2.277 . S
O199 C196 1.160 . S
O199 Cd200 2.203 . S
Cd200 O199 2.203 . S
Cd200 O202 2.411 . S
Cd200 O203 2.333 . S
Cd200 O204 2.352 . S
Cd200 O208 2.277 . S
Cd200 O209 2.356 . S
C201 O206 1.209 . S
C201 O208 1.226 . S
O202 Cd198 2.273 . S
O202 Cd200 2.411 . S
O202 C205 1.320 . S
O203 Cd200 2.333 . S
O203 C205 1.214 . S
O204 Cd200 2.352 . S
O204 C207 1.258 . S
C205 O202 1.320 . S
C205 O203 1.214 . S
O206 Cd198 2.277 . S
O206 C201 1.209 . S
C207 O204 1.258 . S
C207 O209 1.282 . S
O208 Cd200 2.277 . S
O208 C201 1.226 . S
O209 Cd200 2.356 . S
O209 C207 1.282 . S
C210 O211 1.306 . S
C210 O213 1.160 . S
O211 C210 1.306 . S
O211 Cd212 2.228 . S
Cd212 O211 2.228 . S
Cd212 O216 2.273 . S
Cd212 O220 2.277 . S
O213 C210 1.160 . S
O213 Cd214 2.203 . S
Cd214 O213 2.203 . S
Cd214 O216 2.411 . S
Cd214 O217 2.333 . S
Cd214 O218 2.352 . S
Cd214 O222 2.277 . S
Cd214 O223 2.356 . S
C215 O220 1.209 . S
C215 O222 1.226 . S
O216 Cd212 2.273 . S
O216 Cd214 2.411 . S
O216 C219 1.320 . S
O217 Cd214 2.333 . S
O217 C219 1.214 . S
O218 Cd214 2.352 . S
O218 C221 1.258 . S
C219 O216 1.320 . S
C219 O217 1.214 . S
O220 Cd212 2.277 . S
O220 C215 1.209 . S
C221 O218 1.258 . S
C221 O223 1.282 . S
O222 Cd214 2.277 . S
O222 C215 1.226 . S
O223 Cd214 2.356 . S
O223 C221 1.282 . S
C224 O225 1.306 . S
C224 O227 1.160 . S
O225 C224 1.306 . S
O225 Cd226 2.228 . S
Cd226 O225 2.228 . S
Cd226 O230 2.273 . S
Cd226 O234 2.277 . S
O227 C224 1.160 . S
O227 Cd228 2.203 . S
Cd228 O227 2.203 . S
Cd228 O230 2.411 . S
Cd228 O231 2.333 . S
Cd228 O232 2.352 . S
Cd228 O236 2.277 . S
Cd228 O237 2.356 . S
C229 O234 1.209 . S
C229 O236 1.226 . S
O230 Cd226 2.273 . S
O230 Cd228 2.411 . S
O230 C233 1.320 . S
O231 Cd228 2.333 . S
O231 C233 1.214 . S
O232 Cd228 2.352 . S
O232 C235 1.258 . S
C233 O230 1.320 . S
C233 O231 1.214 . S
O234 Cd226 2.277 . S
O234 C229 1.209 . S
C235 O232 1.258 . S
C235 O237 1.282 . S
O236 Cd228 2.277 . S
O236 C229 1.226 . S
O237 Cd228 2.356 . S
O237 C235 1.282 . S
C238 O239 1.306 . S
C238 O241 1.160 . S
O239 C238 1.306 . S
O239 Cd240 2.228 . S
Cd240 O239 2.228 . S
Cd240 O244 2.273 . S
Cd240 O248 2.277 . S
O241 C238 1.160 . S
O241 Cd242 2.203 . S
Cd242 O241 2.203 . S
Cd242 O244 2.411 . S
Cd242 O245 2.333 . S
Cd242 O246 2.352 . S
Cd242 O250 2.277 . S
Cd242 O251 2.356 . S
C243 O248 1.209 . S
C243 O250 1.226 . S
O244 Cd240 2.273 . S
O244 Cd242 2.411 . S
O244 C247 1.320 . S
O245 Cd242 2.333 . S
O245 C247 1.214 . S
O246 Cd242 2.352 . S
O246 C249 1.258 . S
C247 O244 1.320 . S
C247 O245 1.214 . S
O248 Cd240 2.277 . S
O248 C243 1.209 . S
C249 O246 1.258 . S
C249 O251 1.282 . S
O250 Cd242 2.277 . S
O250 C243 1.226 . S
O251 Cd242 2.356 . S
O251 C249 1.282 . S
C252 O253 1.306 . S
C252 O255 1.160 . S
O253 C252 1.306 . S
O253 Cd254 2.228 . S
Cd254 O253 2.228 . S
Cd254 O258 2.273 . S
Cd254 O262 2.277 . S
O255 C252 1.160 . S
O255 Cd256 2.203 . S
Cd256 O255 2.203 . S
Cd256 O258 2.411 . S
Cd256 O259 2.333 . S
Cd256 O260 2.352 . S
Cd256 O264 2.277 . S
Cd256 O265 2.356 . S
C257 O262 1.209 . S
C257 O264 1.226 . S
O258 Cd254 2.273 . S
O258 Cd256 2.411 . S
O258 C261 1.320 . S
O259 Cd256 2.333 . S
O259 C261 1.214 . S
O260 Cd256 2.352 . S
O260 C263 1.258 . S
C261 O258 1.320 . S
C261 O259 1.214 . S
O262 Cd254 2.277 . S
O262 C257 1.209 . S
C263 O260 1.258 . S
C263 O265 1.282 . S
O264 Cd256 2.277 . S
O264 C257 1.226 . S
O265 Cd256 2.356 . S
O265 C263 1.282 . S
C266 O267 1.306 . S
C266 O269 1.160 . S
O267 C266 1.306 . S
O267 Cd268 2.228 . S
Cd268 O267 2.228 . S
Cd268 O272 2.273 . S
Cd268 O276 2.277 . S
O269 C266 1.160 . S
O269 Cd270 2.203 . S
Cd270 O269 2.203 . S
Cd270 O272 2.411 . S
Cd270 O273 2.333 . S
Cd270 O274 2.352 . S
Cd270 O278 2.277 . S
Cd270 O279 2.356 . S
C271 O276 1.209 . S
C271 O278 1.226 . S
O272 Cd268 2.273 . S
O272 Cd270 2.411 . S
O272 C275 1.320 . S
O273 Cd270 2.333 . S
O273 C275 1.214 . S
O274 Cd270 2.352 . S
O274 C277 1.258 . S
C275 O272 1.320 . S
C275 O273 1.214 . S
O276 Cd268 2.277 . S
O276 C271 1.209 . S
C277 O274 1.258 . S
C277 O279 1.282 . S
O278 Cd270 2.277 . S
O278 C271 1.226 . S
O279 Cd270 2.356 . S
O279 C277 1.282 . S
C280 O281 1.306 . S
C280 O283 1.160 . S
O281 C280 1.306 . S
O281 Cd282 2.228 . S
Cd282 O281 2.228 . S
Cd282 O286 2.273 . S
Cd282 O290 2.277 . S
O283 C280 1.160 . S
O283 Cd284 2.203 . S
Cd284 O283 2.203 . S
Cd284 O286 2.411 . S
Cd284 O287 2.333 . S
Cd284 O288 2.352 . S
Cd284 O292 2.277 . S
Cd284 O293 2.356 . S
C285 O290 1.209 . S
C285 O292 1.226 . S
O286 Cd282 2.273 . S
O286 Cd284 2.411 . S
O286 C289 1.320 . S
O287 Cd284 2.333 . S
O287 C289 1.214 . S
O288 Cd284 2.352 . S
O288 C291 1.258 . S
C289 O286 1.320 . S
C289 O287 1.214 . S
O290 Cd282 2.277 . S
O290 C285 1.209 . S
C291 O288 1.258 . S
C291 O293 1.282 . S
O292 Cd284 2.277 . S
O292 C285 1.226 . S
O293 Cd284 2.356 . S
O293 C291 1.282 . S
C294 O295 1.306 . S
C294 O297 1.160 . S
O295 C294 1.306 . S
O295 Cd296 2.228 . S
Cd296 O295 2.228 . S
Cd296 O300 2.273 . S
Cd296 O304 2.277 . S
O297 C294 1.160 . S
O297 Cd298 2.203 . S
Cd298 O297 2.203 . S
Cd298 O300 2.411 . S
Cd298 O301 2.333 . S
Cd298 O302 2.352 . S
Cd298 O306 2.277 . S
Cd298 O307 2.356 . S
C299 O304 1.209 . S
C299 O306 1.226 . S
O300 Cd296 2.273 . S
O300 Cd298 2.411 . S
O300 C303 1.320 . S
O301 Cd298 2.333 . S
O301 C303 1.214 . S
O302 Cd298 2.352 . S
O302 C305 1.258 . S
C303 O300 1.320 . S
C303 O301 1.214 . S
O304 Cd296 2.277 . S
O304 C299 1.209 . S
C305 O302 1.258 . S
C305 O307 1.282 . S
O306 Cd298 2.277 . S
O306 C299 1.226 . S
O307 Cd298 2.356 . S
O307 C305 1.282 . S
C308 O309 1.306 . S
C308 O311 1.160 . S
O309 C308 1.306 . S
O309 Cd310 2.228 . S
Cd310 O309 2.228 . S
Cd310 O314 2.273 . S
Cd310 O318 2.277 . S
O311 C308 1.160 . S
O311 Cd312 2.203 . S
Cd312 O311 2.203 . S
Cd312 O314 2.411 . S
Cd312 O315 2.333 . S
Cd312 O316 2.352 . S
Cd312 O320 2.277 . S
Cd312 O321 2.356 . S
C313 O318 1.209 . S
C313 O320 1.226 . S
O314 Cd310 2.273 . S
O314 Cd312 2.411 . S
O314 C317 1.320 . S
O315 Cd312 2.333 . S
O315 C317 1.214 . S
O316 Cd312 2.352 . S
O316 C319 1.258 . S
C317 O314 1.320 . S
C317 O315 1.214 . S
O318 Cd310 2.277 . S
O318 C313 1.209 . S
C319 O316 1.258 . S
C319 O321 1.282 . S
O320 Cd312 2.277 . S
O320 C313 1.226 . S
O321 Cd312 2.356 . S
O321 C319 1.282 . S
C322 O323 1.306 . S
C322 O325 1.160 . S
O323 C322 1.306 . S
O323 Cd324 2.228 . S
Cd324 O323 2.228 . S
Cd324 O328 2.273 . S
Cd324 O332 2.277 . S
O325 C322 1.160 . S
O325 Cd326 2.203 . S
Cd326 O325 2.203 . S
Cd326 O328 2.411 . S
Cd326 O329 2.333 . S
Cd326 O330 2.352 . S
Cd326 O334 2.277 . S
Cd326 O335 2.356 . S
C327 O332 1.209 . S
C327 O334 1.226 . S
O328 Cd324 2.273 . S
O328 Cd326 2.411 . S
O328 C331 1.320 . S
O329 Cd326 2.333 . S
O329 C331 1.214 . S
O330 Cd326 2.352 . S
O330 C333 1.258 . S
C331 O328 1.320 . S
C331 O329 1.214 . S
O332 Cd324 2.277 . S
O332 C327 1.209 . S
C333 O330 1.258 . S
C333 O335 1.282 . S
O334 Cd326 2.277 . S
O334 C327 1.226 . S
O335 Cd326 2.356 . S
O335 C333 1.282 . S
C336 O337 1.306 . S
C336 O339 1.160 . S
O337 C336 1.306 . S
O337 Cd338 2.228 . S
Cd338 O337 2.228 . S
Cd338 O342 2.273 . S
Cd338 O346 2.277 . S
O339 C336 1.160 . S
O339 Cd340 2.203 . S
Cd340 O339 2.203 . S
Cd340 O342 2.411 . S
Cd340 O343 2.333 . S
Cd340 O344 2.352 . S
Cd340 O348 2.277 . S
Cd340 O349 2.356 . S
C341 O346 1.209 . S
C341 O348 1.226 . S
O342 Cd338 2.273 . S
O342 Cd340 2.411 . S
O342 C345 1.320 . S
O343 Cd340 2.333 . S
O343 C345 1.214 . S
O344 Cd340 2.352 . S
O344 C347 1.258 . S
C345 O342 1.320 . S
C345 O343 1.214 . S
O346 Cd338 2.277 . S
O346 C341 1.209 . S
C347 O344 1.258 . S
C347 O349 1.282 . S
O348 Cd340 2.277 . S
O348 C341 1.226 . S
O349 Cd340 2.356 . S
O349 C347 1.282 . S
C350 O351 1.306 . S
C350 O353 1.160 . S
O351 C350 1.306 . S
O351 Cd352 2.228 . S
Cd352 O351 2.228 . S
Cd352 O356 2.273 . S
Cd352 O360 2.277 . S
O353 C350 1.160 . S
O353 Cd354 2.203 . S
Cd354 O353 2.203 . S
Cd354 O356 2.411 . S
Cd354 O357 2.333 . S
Cd354 O358 2.352 . S
Cd354 O362 2.277 . S
Cd354 O363 2.356 . S
C355 O360 1.209 . S
C355 O362 1.226 . S
O356 Cd352 2.273 . S
O356 Cd354 2.411 . S
O356 C359 1.320 . S
O357 Cd354 2.333 . S
O357 C359 1.214 . S
O358 Cd354 2.352 . S
O358 C361 1.258 . S
C359 O356 1.320 . S
C359 O357 1.214 . S
O360 Cd352 2.277 . S
O360 C355 1.209 . S
C361 O358 1.258 . S
C361 O363 1.282 . S
O362 Cd354 2.277 . S
O362 C355 1.226 . S
O363 Cd354 2.356 . S
O363 C361 1.282 . S
C364 O365 1.306 . S
C364 O367 1.160 . S
O365 C364 1.306 . S
O365 Cd366 2.228 . S
Cd366 O365 2.228 . S
Cd366 O370 2.273 . S
Cd366 O374 2.277 . S
O367 C364 1.160 . S
O367 Cd368 2.203 . S
Cd368 O367 2.203 . S
Cd368 O370 2.411 . S
Cd368 O371 2.333 . S
Cd368 O372 2.352 . S
Cd368 O376 2.277 . S
Cd368 O377 2.356 . S
C369 O374 1.209 . S
C369 O376 1.226 . S
O370 Cd366 2.273 . S
O370 Cd368 2.411 . S
O370 C373 1.320 . S
O371 Cd368 2.333 . S
O371 C373 1.214 . S
O372 Cd368 2.352 . S
O372 C375 1.258 . S
C373 O370 1.320 . S
C373 O371 1.214 . S
O374 Cd366 2.277 . S
O374 C369 1.209 . S
C375 O372 1.258 . S
C375 O377 1.282 . S
O376 Cd368 2.277 . S
O376 C369 1.226 . S
O377 Cd368 2.356 . S
O377 C375 1.282 . S
C378 O379 1.306 . S
C378 O381 1.160 . S
O379 C378 1.306 . S
O379 Cd380 2.228 . S
Cd380 O379 2.228 . S
Cd380 O384 2.273 . S
Cd380 O388 2.277 . S
O381 C378 1.160 . S
O381 Cd382 2.203 . S
Cd382 O381 2.203 . S
Cd382 O384 2.411 . S
Cd382 O385 2.333 . S
Cd382 O386 2.352 . S
Cd382 O390 2.277 . S
Cd382 O391 2.356 . S
C383 O388 1.209 . S
C383 O390 1.226 . S
O384 Cd380 2.273 . S
O384 Cd382 2.411 . S
O384 C387 1.320 . S
O385 Cd382 2.333 . S
O385 C387 1.214 . S
O386 Cd382 2.352 . S
O386 C389 1.258 . S
C387 O384 1.320 . S
C387 O385 1.214 . S
O388 Cd380 2.277 . S
O388 C383 1.209 . S
C389 O386 1.258 . S
C389 O391 1.282 . S
O390 Cd382 2.277 . S
O390 C383 1.226 . S
O391 Cd382 2.356 . S
O391 C389 1.282 . S
C392 O393 1.306 . S
C392 O395 1.160 . S
O393 C392 1.306 . S
O393 Cd394 2.228 . S
Cd394 O393 2.228 . S
Cd394 O398 2.273 . S
Cd394 O402 2.277 . S
O395 C392 1.160 . S
O395 Cd396 2.203 . S
Cd396 O395 2.203 . S
Cd396 O398 2.411 . S
Cd396 O399 2.333 . S
Cd396 O400 2.352 . S
Cd396 O404 2.277 . S
Cd396 O405 2.356 . S
C397 O402 1.209 . S
C397 O404 1.226 . S
O398 Cd394 2.273 . S
O398 Cd396 2.411 . S
O398 C401 1.320 . S
O399 Cd396 2.333 . S
O399 C401 1.214 . S
O400 Cd396 2.352 . S
O400 C403 1.258 . S
C401 O398 1.320 . S
C401 O399 1.214 . S
O402 Cd394 2.277 . S
O402 C397 1.209 . S
C403 O400 1.258 . S
C403 O405 1.282 . S
O404 Cd396 2.277 . S
O404 C397 1.226 . S
O405 Cd396 2.356 . S
O405 C403 1.282 . S
C406 O407 1.306 . S
C406 O409 1.160 . S
O407 C406 1.306 . S
O407 Cd408 2.228 . S
Cd408 O407 2.228 . S
Cd408 O412 2.273 . S
Cd408 O416 2.277 . S
O409 C406 1.160 . S
O409 Cd410 2.203 . S
Cd410 O409 2.203 . S
Cd410 O412 2.411 . S
Cd410 O413 2.333 . S
Cd410 O414 2.352 . S
Cd410 O418 2.277 . S
Cd410 O419 2.356 . S
C411 O416 1.209 . S
C411 O418 1.226 . S
O412 Cd408 2.273 . S
O412 Cd410 2.411 . S
O412 C415 1.320 . S
O413 Cd410 2.333 . S
O413 C415 1.214 . S
O414 Cd410 2.352 . S
O414 C417 1.258 . S
C415 O412 1.320 . S
C415 O413 1.214 . S
O416 Cd408 2.277 . S
O416 C411 1.209 . S
C417 O414 1.258 . S
C417 O419 1.282 . S
O418 Cd410 2.277 . S
O418 C411 1.226 . S
O419 Cd410 2.356 . S
O419 C417 1.282 . S
C420 O421 1.306 . S
C420 O423 1.160 . S
O421 C420 1.306 . S
O421 Cd422 2.228 . S
Cd422 O421 2.228 . S
Cd422 O426 2.273 . S
Cd422 O430 2.277 . S
O423 C420 1.160 . S
O423 Cd424 2.203 . S
Cd424 O423 2.203 . S
Cd424 O426 2.411 . S
Cd424 O427 2.333 . S
Cd424 O428 2.352 . S
Cd424 O432 2.277 . S
Cd424 O433 2.356 . S
C425 O430 1.209 . S
C425 O432 1.226 . S
O426 Cd422 2.273 . S
O426 Cd424 2.411 . S
O426 C429 1.320 . S
O427 Cd424 2.333 . S
O427 C429 1.214 . S
O428 Cd424 2.352 . S
O428 C431 1.258 . S
C429 O426 1.320 . S
C429 O427 1.214 . S
O430 Cd422 2.277 . S
O430 C425 1.209 . S
C431 O428 1.258 . S
C431 O433 1.282 . S
O432 Cd424 2.277 . S
O432 C425 1.226 . S
O433 Cd424 2.356 . S
O433 C431 1.282 . S
C434 O435 1.306 . S
C434 O437 1.160 . S
O435 C434 1.306 . S
O435 Cd436 2.228 . S
Cd436 O435 2.228 . S
Cd436 O440 2.273 . S
Cd436 O444 2.277 . S
O437 C434 1.160 . S
O437 Cd438 2.203 . S
Cd438 O437 2.203 . S
Cd438 O440 2.411 . S
Cd438 O441 2.333 . S
Cd438 O442 2.352 . S
Cd438 O446 2.277 . S
Cd438 O447 2.356 . S
C439 O444 1.209 . S
C439 O446 1.226 . S
O440 Cd436 2.273 . S
O440 Cd438 2.411 . S
O440 C443 1.320 . S
O441 Cd438 2.333 . S
O441 C443 1.214 . S
O442 Cd438 2.352 . S
O442 C445 1.258 . S
C443 O440 1.320 . S
C443 O441 1.214 . S
O444 Cd436 2.277 . S
O444 C439 1.209 . S
C445 O442 1.258 . S
C445 O447 1.282 . S
O446 Cd438 2.277 . S
O446 C439 1.226 . S
O447 Cd438 2.356 . S
O447 C445 1.282 . S
C448 C449 1.349 . S
C448 C450 1.343 . S
C448 H473 0.926 1_565 S
C449 C448 1.349 . S
C449 C465 1.349 . S
C450 C448 1.343 . S
C450 C469 1.455 . S
C450 H474 0.909 1_565 S
C451 C468 1.574 . S
C451 C470 1.368 . S
C451 H475 0.949 . S
H452 C456 0.949 . S
C453 C454 1.349 . S
C453 C455 1.343 . S
C453 H476 0.926 1_545 S
C454 C453 1.349 . S
C454 C466 1.349 . S
C455 C453 1.343 . S
C455 C471 1.455 . S
C455 H477 0.909 1_545 S
C456 H452 0.949 . S
C456 C464 1.574 . S
C456 C472 1.368 . S
H457 C465 0.950 . S
H458 C463 0.950 . S
H459 C464 0.949 . S
H460 C466 0.950 . S
H461 C467 0.950 . S
H462 C468 0.949 . S
C463 H458 0.950 . S
C463 C465 1.327 . S
C463 C469 1.429 . S
C464 C456 1.574 . S
C464 H459 0.949 . S
C464 C470 1.368 1_545 S
C465 C449 1.349 . S
C465 H457 0.950 . S
C465 C463 1.327 . S
C466 C454 1.349 . S
C466 H460 0.950 . S
C466 C467 1.327 . S
C467 H461 0.950 . S
C467 C466 1.327 . S
C467 C471 1.429 . S
C468 C451 1.574 . S
C468 H462 0.949 . S
C468 C472 1.368 1_565 S
C469 C450 1.455 . S
C469 C463 1.429 . S
C469 C470 1.523 . S
C470 C451 1.368 . S
C470 C464 1.368 1_565 S
C470 C469 1.523 . S
C471 C455 1.455 . S
C471 C467 1.429 . S
C471 C472 1.523 . S
C472 C456 1.368 . S
C472 C468 1.368 1_545 S
C472 C471 1.523 . S
H473 C448 0.926 1_545 S
H474 C450 0.909 1_545 S
H475 C451 0.949 . S
H476 C453 0.926 1_565 S
H477 C455 0.909 1_565 S
C478 C479 1.349 . S
C478 C480 1.327 . S
C478 H503 0.950 . S
C479 C478 1.349 . S
C479 C495 1.349 . S
C480 C478 1.327 . S
C480 C499 1.429 . S
C480 H504 0.950 . S
C481 C498 1.574 . S
C481 C500 1.368 . S
C481 H505 0.949 . S
H482 C486 0.949 . S
C483 C484 1.349 . S
C483 C485 1.327 . S
C483 H506 0.950 . S
C484 C483 1.349 . S
C484 C496 1.349 . S
C485 C483 1.327 . S
C485 C501 1.429 . S
C485 H507 0.950 . S
C486 H482 0.949 . S
C486 C494 1.574 . S
C486 C502 1.368 . S
H487 C495 0.950 . S
H488 C493 0.950 . S
H489 C494 0.949 . S
H490 C496 0.950 . S
H491 C497 0.950 . S
H492 C498 0.949 . S
C493 H488 0.950 . S
C493 C495 1.327 . S
C493 C499 1.429 . S
C494 C486 1.574 . S
C494 H489 0.949 . S
C494 C500 1.368 . S
C495 C479 1.349 . S
C495 H487 0.950 . S
C495 C493 1.327 . S
C496 C484 1.349 . S
C496 H490 0.950 . S
C496 C497 1.327 . S
C497 H491 0.950 . S
C497 C496 1.327 . S
C497 C501 1.429 . S
C498 C481 1.574 . S
C498 H492 0.949 . S
C498 C502 1.368 . S
C499 C480 1.429 . S
C499 C493 1.429 . S
C499 C500 1.523 . S
C500 C481 1.368 . S
C500 C494 1.368 . S
C500 C499 1.523 . S
C501 C485 1.429 . S
C501 C497 1.429 . S
C501 C502 1.523 . S
C502 C486 1.368 . S
C502 C498 1.368 . S
C502 C501 1.523 . S
H503 C478 0.950 . S
H504 C480 0.950 . S
H505 C481 0.949 . S
H506 C483 0.950 . S
H507 C485 0.950 . S
C508 C509 1.349 . S
C508 C510 1.327 . S
C508 H533 0.950 . S
C509 C508 1.349 . S
C509 C525 1.349 . S
C510 C508 1.327 . S
C510 C529 1.429 . S
C510 H534 0.950 . S
C511 C528 1.574 . S
C511 C530 1.368 1_565 S
C511 H535 0.949 . S
H512 C516 0.949 . S
C513 C514 1.349 . S
C513 C515 1.327 . S
C513 H536 0.950 . S
C514 C513 1.349 . S
C514 C526 1.349 . S
C515 C513 1.327 . S
C515 C531 1.429 . S
C515 H537 0.950 . S
C516 H512 0.949 . S
C516 C524 1.574 . S
C516 C532 1.368 1_545 S
H517 C525 0.950 1_565 S
H518 C523 0.950 . S
H519 C524 0.949 . S
H520 C526 0.950 1_545 S
H521 C527 0.950 . S
H522 C528 0.949 . S
C523 H518 0.950 . S
C523 C525 1.327 1_565 S
C523 C529 1.429 1_565 S
C524 C516 1.574 . S
C524 H519 0.949 . S
C524 C530 1.368 . S
C525 C509 1.349 . S
C525 H517 0.950 1_545 S
C525 C523 1.327 1_545 S
C526 C514 1.349 . S
C526 H520 0.950 1_565 S
C526 C527 1.327 1_565 S
C527 H521 0.950 . S
C527 C526 1.327 1_545 S
C527 C531 1.429 1_545 S
C528 C511 1.574 . S
C528 H522 0.949 . S
C528 C532 1.368 . S
C529 C510 1.429 . S
C529 C523 1.429 1_545 S
C529 C530 1.523 . S
C530 C511 1.368 1_545 S
C530 C524 1.368 . S
C530 C529 1.523 . S
C531 C515 1.429 . S
C531 C527 1.429 1_565 S
C531 C532 1.523 . S
C532 C516 1.368 1_565 S
C532 C528 1.368 . S
C532 C531 1.523 . S
H533 C508 0.950 . S
H534 C510 0.950 . S
H535 C511 0.949 . S
H536 C513 0.950 . S
H537 C515 0.950 . S
C538 C539 1.349 . S
C538 C540 1.327 . S
C538 H563 0.950 . S
C539 C538 1.349 . S
C539 C555 1.349 . S
C540 C538 1.327 . S
C540 C559 1.429 . S
C540 H564 0.950 . S
C541 C558 1.574 1_556 S
C541 C560 1.368 . S
C541 H565 0.949 . S
H542 C546 0.949 . S
C543 C544 1.349 . S
C543 C545 1.327 . S
C543 H566 0.950 . S
C544 C543 1.349 . S
C544 C556 1.349 . S
C545 C543 1.327 . S
C545 C561 1.429 . S
C545 H567 0.950 . S
C546 H542 0.949 . S
C546 C554 1.574 1_554 S
C546 C562 1.368 . S
H547 C555 0.950 . S
H548 C553 0.950 . S
H549 C554 0.949 . S
H550 C556 0.950 . S
H551 C557 0.950 . S
H552 C558 0.949 . S
C553 H548 0.950 . S
C553 C555 1.327 . S
C553 C559 1.429 . S
C554 C546 1.574 1_556 S
C554 H549 0.949 . S
C554 C560 1.368 . S
C555 C539 1.349 . S
C555 H547 0.950 . S
C555 C553 1.327 . S
C556 C544 1.349 . S
C556 H550 0.950 . S
C556 C557 1.327 . S
C557 H551 0.950 . S
C557 C556 1.327 . S
C557 C561 1.429 . S
C558 C541 1.574 1_554 S
C558 H552 0.949 . S
C558 C562 1.368 . S
C559 C540 1.429 . S
C559 C553 1.429 . S
C559 C560 1.523 . S
C560 C541 1.368 . S
C560 C554 1.368 . S
C560 C559 1.523 . S
C561 C545 1.429 . S
C561 C557 1.429 . S
C561 C562 1.523 . S
C562 C546 1.368 . S
C562 C558 1.368 . S
C562 C561 1.523 . S
H563 C538 0.950 . S
H564 C540 0.950 . S
H565 C541 0.949 . S
H566 C543 0.950 . S
H567 C545 0.950 . S
C568 C569 1.349 . S
C568 C570 1.327 1_565 S
C568 H593 0.950 1_565 S
C569 C568 1.349 . S
C569 C585 1.349 . S
C570 C568 1.327 1_545 S
C570 C589 1.429 1_545 S
C570 H594 0.950 . S
C571 C588 1.574 . S
C571 C590 1.368 . S
C571 H595 0.949 . S
H572 C576 0.949 . S
C573 C574 1.349 . S
C573 C575 1.327 1_545 S
C573 H596 0.950 1_545 S
C574 C573 1.349 . S
C574 C586 1.349 . S
C575 C573 1.327 1_565 S
C575 C591 1.429 1_565 S
C575 H597 0.950 . S
C576 H572 0.949 . S
C576 C584 1.574 . S
C576 C592 1.368 . S
H577 C585 0.950 . S
H578 C583 0.950 . S
H579 C584 0.949 . S
H580 C586 0.950 . S
H581 C587 0.950 . S
H582 C588 0.949 . S
C583 H578 0.950 . S
C583 C585 1.327 . S
C583 C589 1.429 . S
C584 C576 1.574 . S
C584 H579 0.949 . S
C584 C590 1.368 1_545 S
C585 C569 1.349 . S
C585 H577 0.950 . S
C585 C583 1.327 . S
C586 C574 1.349 . S
C586 H580 0.950 . S
C586 C587 1.327 . S
C587 H581 0.950 . S
C587 C586 1.327 . S
C587 C591 1.429 . S
C588 C571 1.574 . S
C588 H582 0.949 . S
C588 C592 1.368 1_565 S
C589 C570 1.429 1_565 S
C589 C583 1.429 . S
C589 C590 1.523 . S
C590 C571 1.368 . S
C590 C584 1.368 1_565 S
C590 C589 1.523 . S
C591 C575 1.429 1_545 S
C591 C587 1.429 . S
C591 C592 1.523 . S
C592 C576 1.368 . S
C592 C588 1.368 1_545 S
C592 C591 1.523 . S
H593 C568 0.950 1_545 S
H594 C570 0.950 . S
H595 C571 0.949 . S
H596 C573 0.950 1_565 S
H597 C575 0.950 . S
C598 C599 1.349 . S
C598 C600 1.327 . S
C598 H623 0.950 . S
C599 C598 1.349 . S
C599 C615 1.349 . S
C600 C598 1.327 . S
C600 C619 1.429 . S
C600 H624 0.950 . S
C601 C618 1.574 . S
C601 C620 1.368 . S
C601 H625 0.949 . S
H602 C606 0.949 . S
C603 C604 1.349 . S
C603 C605 1.327 . S
C603 H626 0.950 . S
C604 C603 1.349 . S
C604 C616 1.349 . S
C605 C603 1.327 . S
C605 C621 1.429 . S
C605 H627 0.950 . S
C606 H602 0.949 . S
C606 C614 1.574 . S
C606 C622 1.368 . S
H607 C615 0.950 . S
H608 C613 0.950 . S
H609 C614 0.949 . S
H610 C616 0.950 . S
H611 C617 0.950 . S
H612 C618 0.949 . S
C613 H608 0.950 . S
C613 C615 1.327 . S
C613 C619 1.429 . S
C614 C606 1.574 . S
C614 H609 0.949 . S
C614 C620 1.368 . S
C615 C599 1.349 . S
C615 H607 0.950 . S
C615 C613 1.327 . S
C616 C604 1.349 . S
C616 H610 0.950 . S
C616 C617 1.327 . S
C617 H611 0.950 . S
C617 C616 1.327 . S
C617 C621 1.429 . S
C618 C601 1.574 . S
C618 H612 0.949 . S
C618 C622 1.368 . S
C619 C600 1.429 . S
C619 C613 1.429 . S
C619 C620 1.523 . S
C620 C601 1.368 . S
C620 C614 1.368 . S
C620 C619 1.523 . S
C621 C605 1.429 . S
C621 C617 1.429 . S
C621 C622 1.523 . S
C622 C606 1.368 . S
C622 C618 1.368 . S
C622 C621 1.523 . S
H623 C598 0.950 . S
H624 C600 0.950 . S
H625 C601 0.949 . S
H626 C603 0.950 . S
H627 C605 0.950 . S
C628 C629 1.349 . S
C628 C630 1.327 . S
C628 H653 0.950 . S
C629 C628 1.349 . S
C629 C645 1.349 . S
C630 C628 1.327 . S
C630 C649 1.429 . S
C630 H654 0.950 . S
C631 C648 1.574 . S
C631 C650 1.368 1_565 S
C631 H655 0.949 . S
H632 C636 0.949 . S
C633 C634 1.349 . S
C633 C635 1.327 . S
C633 H656 0.950 . S
C634 C633 1.349 . S
C634 C646 1.349 . S
C635 C633 1.327 . S
C635 C651 1.429 . S
C635 H657 0.950 . S
C636 H632 0.949 . S
C636 C644 1.574 . S
C636 C652 1.368 1_545 S
H637 C645 0.950 1_565 S
H638 C643 0.945 . S
H639 C644 0.949 . S
H640 C646 0.950 1_545 S
H641 C647 0.945 . S
H642 C648 0.949 . S
C643 H638 0.945 . S
C643 C645 1.329 1_565 S
C643 C649 1.431 1_565 S
C644 C636 1.574 . S
C644 H639 0.949 . S
C644 C650 1.368 . S
C645 C629 1.349 . S
C645 H637 0.950 1_545 S
C645 C643 1.329 1_545 S
C646 C634 1.349 . S
C646 H640 0.950 1_565 S
C646 C647 1.329 1_565 S
C647 H641 0.945 . S
C647 C646 1.329 1_545 S
C647 C651 1.431 1_545 S
C648 C631 1.574 . S
C648 H642 0.949 . S
C648 C652 1.368 . S
C649 C630 1.429 . S
C649 C643 1.431 1_545 S
C649 C650 1.523 . S
C650 C631 1.368 1_545 S
C650 C644 1.368 . S
C650 C649 1.523 . S
C651 C635 1.429 . S
C651 C647 1.431 1_565 S
C651 C652 1.523 . S
C652 C636 1.368 1_565 S
C652 C648 1.368 . S
C652 C651 1.523 . S
H653 C628 0.950 . S
H654 C630 0.950 . S
H655 C631 0.949 . S
H656 C633 0.950 . S
H657 C635 0.950 . S
C658 C659 1.349 . S
C658 C660 1.327 . S
C658 H683 0.950 . S
C659 C658 1.349 . S
C659 C675 1.349 . S
C660 C658 1.327 . S
C660 C679 1.429 . S
C660 H684 0.950 . S
C661 C678 1.574 1_556 S
C661 C680 1.368 . S
C661 H685 0.949 . S
H662 C666 0.949 . S
C663 C664 1.349 . S
C663 C665 1.327 . S
C663 H686 0.950 . S
C664 C663 1.349 . S
C664 C676 1.349 . S
C665 C663 1.327 . S
C665 C681 1.429 . S
C665 H687 0.950 . S
C666 H662 0.949 . S
C666 C674 1.574 1_554 S
C666 C682 1.368 . S
H667 C675 0.950 . S
H668 C673 0.950 . S
H669 C674 0.949 . S
H670 C676 0.950 . S
H671 C677 0.950 . S
H672 C678 0.949 . S
C673 H668 0.950 . S
C673 C675 1.327 . S
C673 C679 1.429 . S
C674 C666 1.574 1_556 S
C674 H669 0.949 . S
C674 C680 1.368 . S
C675 C659 1.349 . S
C675 H667 0.950 . S
C675 C673 1.327 . S
C676 C664 1.349 . S
C676 H670 0.950 . S
C676 C677 1.327 . S
C677 H671 0.950 . S
C677 C676 1.327 . S
C677 C681 1.429 . S
C678 C661 1.574 1_554 S
C678 H672 0.949 . S
C678 C682 1.368 . S
C679 C660 1.429 . S
C679 C673 1.429 . S
C679 C680 1.523 . S
C680 C661 1.368 . S
C680 C674 1.368 . S
C680 C679 1.523 . S
C681 C665 1.429 . S
C681 C677 1.429 . S
C681 C682 1.523 . S
C682 C666 1.368 . S
C682 C678 1.368 . S
C682 C681 1.523 . S
H683 C658 0.950 . S
H684 C660 0.950 . S
H685 C661 0.949 . S
H686 C663 0.950 . S
H687 C665 0.950 . S
C688 C689 1.349 . S
C688 C690 1.327 . S
C688 H713 0.950 . S
C689 C688 1.349 . S
C689 C705 1.349 . S
C690 C688 1.327 . S
C690 C709 1.429 . S
C690 H714 0.950 . S
C691 C708 1.574 . S
C691 C710 1.368 . S
C691 H715 0.949 . S
H692 C696 0.949 . S
C693 C694 1.349 . S
C693 C695 1.327 . S
C693 H716 0.950 . S
C694 C693 1.349 . S
C694 C706 1.349 . S
C695 C693 1.327 . S
C695 C711 1.429 . S
C695 H717 0.950 . S
C696 H692 0.949 . S
C696 C704 1.574 . S
C696 C712 1.368 . S
H697 C705 0.950 . S
H698 C703 0.950 . S
H699 C704 0.949 . S
H700 C706 0.950 . S
H701 C707 0.950 . S
H702 C708 0.949 . S
C703 H698 0.950 . S
C703 C705 1.327 . S
C703 C709 1.429 . S
C704 C696 1.574 . S
C704 H699 0.949 . S
C704 C710 1.368 . S
C705 C689 1.349 . S
C705 H697 0.950 . S
C705 C703 1.327 . S
C706 C694 1.349 . S
C706 H700 0.950 . S
C706 C707 1.327 . S
C707 H701 0.950 . S
C707 C706 1.327 . S
C707 C711 1.429 . S
C708 C691 1.574 . S
C708 H702 0.949 . S
C708 C712 1.368 . S
C709 C690 1.429 . S
C709 C703 1.429 . S
C709 C710 1.523 . S
C710 C691 1.368 . S
C710 C704 1.368 . S
C710 C709 1.523 . S
C711 C695 1.429 . S
C711 C707 1.429 . S
C711 C712 1.523 . S
C712 C696 1.368 . S
C712 C708 1.368 . S
C712 C711 1.523 . S
H713 C688 0.950 . S
H714 C690 0.950 . S
H715 C691 0.949 . S
H716 C693 0.950 . S
H717 C695 0.950 . S
C718 C719 1.349 . S
C718 C720 1.327 . S
C718 H743 0.950 . S
C719 C718 1.349 . S
C719 C735 1.349 . S
C720 C718 1.327 . S
C720 C739 1.429 . S
C720 H744 0.950 . S
C721 C738 1.574 1_554 S
C721 C740 1.368 . S
C721 H745 0.949 . S
H722 C726 0.949 . S
C723 C724 1.349 . S
C723 C725 1.327 . S
C723 H746 0.950 . S
C724 C723 1.349 . S
C724 C736 1.349 . S
C725 C723 1.327 . S
C725 C741 1.429 . S
C725 H747 0.950 . S
C726 H722 0.949 . S
C726 C734 1.574 1_556 S
C726 C742 1.368 . S
H727 C735 0.950 . S
H728 C733 0.950 . S
H729 C734 0.949 . S
H730 C736 0.950 . S
H731 C737 0.950 . S
H732 C738 0.949 . S
C733 H728 0.950 . S
C733 C735 1.327 . S
C733 C739 1.429 . S
C734 C726 1.574 1_554 S
C734 H729 0.949 . S
C734 C740 1.368 . S
C735 C719 1.349 . S
C735 H727 0.950 . S
C735 C733 1.327 . S
C736 C724 1.349 . S
C736 H730 0.950 . S
C736 C737 1.327 . S
C737 H731 0.950 . S
C737 C736 1.327 . S
C737 C741 1.429 . S
C738 C721 1.574 1_556 S
C738 H732 0.949 . S
C738 C742 1.368 . S
C739 C720 1.429 . S
C739 C733 1.429 . S
C739 C740 1.523 . S
C740 C721 1.368 . S
C740 C734 1.368 . S
C740 C739 1.523 . S
C741 C725 1.429 . S
C741 C737 1.429 . S
C741 C742 1.523 . S
C742 C726 1.368 . S
C742 C738 1.368 . S
C742 C741 1.523 . S
H743 C718 0.950 . S
H744 C720 0.950 . S
H745 C721 0.949 . S
H746 C723 0.950 . S
H747 C725 0.950 . S
C748 C749 1.349 . S
C748 C750 1.327 . S
C748 H773 0.950 . S
C749 C748 1.349 . S
C749 C765 1.349 . S
C750 C748 1.327 . S
C750 C769 1.429 . S
C750 H774 0.950 . S
C751 C768 1.574 . S
C751 C770 1.368 . S
C751 H775 0.949 . S
H752 C756 0.949 . S
C753 C754 1.349 . S
C753 C755 1.327 . S
C753 H776 0.950 . S
C754 C753 1.349 . S
C754 C766 1.349 . S
C755 C753 1.327 . S
C755 C771 1.429 . S
C755 H777 0.950 . S
C756 H752 0.949 . S
C756 C764 1.574 . S
C756 C772 1.368 . S
H757 C765 0.950 . S
H758 C763 0.950 . S
H759 C764 0.949 . S
H760 C766 0.950 . S
H761 C767 0.950 . S
H762 C768 0.949 . S
C763 H758 0.950 . S
C763 C765 1.327 . S
C763 C769 1.429 . S
C764 C756 1.574 . S
C764 H759 0.949 . S
C764 C770 1.368 . S
C765 C749 1.349 . S
C765 H757 0.950 . S
C765 C763 1.327 . S
C766 C754 1.349 . S
C766 H760 0.950 . S
C766 C767 1.327 . S
C767 H761 0.950 . S
C767 C766 1.327 . S
C767 C771 1.429 . S
C768 C751 1.574 . S
C768 H762 0.949 . S
C768 C772 1.368 . S
C769 C750 1.429 . S
C769 C763 1.429 . S
C769 C770 1.523 . S
C770 C751 1.368 . S
C770 C764 1.368 . S
C770 C769 1.523 . S
C771 C755 1.429 . S
C771 C767 1.429 . S
C771 C772 1.523 . S
C772 C756 1.368 . S
C772 C768 1.368 . S
C772 C771 1.523 . S
H773 C748 0.950 . S
H774 C750 0.950 . S
H775 C751 0.949 . S
H776 C753 0.950 . S
H777 C755 0.950 . S
C778 C779 1.349 . S
C778 C780 1.327 . S
C778 H803 0.950 . S
C779 C778 1.349 . S
C779 C795 1.349 . S
C780 C778 1.327 . S
C780 C799 1.429 . S
C780 H804 0.950 . S
C781 C798 1.574 . S
C781 C800 1.368 . S
C781 H805 0.949 . S
H782 C786 0.949 . S
C783 C784 1.349 . S
C783 C785 1.327 . S
C783 H806 0.950 . S
C784 C783 1.349 . S
C784 C796 1.349 . S
C785 C783 1.327 . S
C785 C801 1.429 . S
C785 H807 0.950 . S
C786 H782 0.949 . S
C786 C794 1.574 . S
C786 C802 1.368 . S
H787 C795 0.950 . S
H788 C793 0.950 . S
H789 C794 0.949 . S
H790 C796 0.950 . S
H791 C797 0.950 . S
H792 C798 0.949 . S
C793 H788 0.950 . S
C793 C795 1.327 . S
C793 C799 1.429 . S
C794 C786 1.574 . S
C794 H789 0.949 . S
C794 C800 1.368 . S
C795 C779 1.349 . S
C795 H787 0.950 . S
C795 C793 1.327 . S
C796 C784 1.349 . S
C796 H790 0.950 . S
C796 C797 1.327 . S
C797 H791 0.950 . S
C797 C796 1.327 . S
C797 C801 1.429 . S
C798 C781 1.574 . S
C798 H792 0.949 . S
C798 C802 1.368 . S
C799 C780 1.429 . S
C799 C793 1.429 . S
C799 C800 1.523 . S
C800 C781 1.368 . S
C800 C794 1.368 . S
C800 C799 1.523 . S
C801 C785 1.429 . S
C801 C797 1.429 . S
C801 C802 1.523 . S
C802 C786 1.368 . S
C802 C798 1.368 . S
C802 C801 1.523 . S
H803 C778 0.950 . S
H804 C780 0.950 . S
H805 C781 0.949 . S
H806 C783 0.950 . S
H807 C785 0.950 . S
C808 C809 1.349 . S
C808 C810 1.327 . S
C808 H833 0.950 . S
C809 C808 1.349 . S
C809 C825 1.349 . S
C810 C808 1.327 . S
C810 C829 1.429 . S
C810 H834 0.950 . S
C811 C828 1.574 . S
C811 C830 1.368 . S
C811 H835 0.949 . S
H812 C816 0.949 . S
C813 C814 1.349 . S
C813 C815 1.327 . S
C813 H836 0.950 . S
C814 C813 1.349 . S
C814 C826 1.349 . S
C815 C813 1.327 . S
C815 C831 1.429 . S
C815 H837 0.950 . S
C816 H812 0.949 . S
C816 C824 1.574 . S
C816 C832 1.368 . S
H817 C825 0.950 . S
H818 C823 0.950 . S
H819 C824 0.949 . S
H820 C826 0.950 . S
H821 C827 0.950 . S
H822 C828 0.949 . S
C823 H818 0.950 . S
C823 C825 1.327 . S
C823 C829 1.429 . S
C824 C816 1.574 . S
C824 H819 0.949 . S
C824 C830 1.368 . S
C825 C809 1.349 . S
C825 H817 0.950 . S
C825 C823 1.327 . S
C826 C814 1.349 . S
C826 H820 0.950 . S
C826 C827 1.327 . S
C827 H821 0.950 . S
C827 C826 1.327 . S
C827 C831 1.429 . S
C828 C811 1.574 . S
C828 H822 0.949 . S
C828 C832 1.368 . S
C829 C810 1.429 . S
C829 C823 1.429 . S
C829 C830 1.523 . S
C830 C811 1.368 . S
C830 C824 1.368 . S
C830 C829 1.523 . S
C831 C815 1.429 . S
C831 C827 1.429 . S
C831 C832 1.523 . S
C832 C816 1.368 . S
C832 C828 1.368 . S
C832 C831 1.523 . S
H833 C808 0.950 . S
H834 C810 0.950 . S
H835 C811 0.949 . S
H836 C813 0.950 . S
H837 C815 0.950 . S
C838 C839 1.349 . S
C838 C840 1.327 . S
C838 H863 0.950 . S
C839 C838 1.349 . S
C839 C855 1.349 . S
C840 C838 1.327 . S
C840 C859 1.429 . S
C840 H864 0.950 . S
C841 C858 1.574 1_554 S
C841 C860 1.368 . S
C841 H865 0.949 . S
H842 C846 0.949 . S
C843 C844 1.349 . S
C843 C845 1.327 . S
C843 H866 0.950 . S
C844 C843 1.349 . S
C844 C856 1.349 . S
C845 C843 1.327 . S
C845 C861 1.429 . S
C845 H867 0.950 . S
C846 H842 0.949 . S
C846 C854 1.574 1_556 S
C846 C862 1.368 . S
H847 C855 0.950 . S
H848 C853 0.950 . S
H849 C854 0.949 . S
H850 C856 0.950 . S
H851 C857 0.950 . S
H852 C858 0.949 . S
C853 H848 0.950 . S
C853 C855 1.327 . S
C853 C859 1.429 . S
C854 C846 1.574 1_554 S
C854 H849 0.949 . S
C854 C860 1.368 . S
C855 C839 1.349 . S
C855 H847 0.950 . S
C855 C853 1.327 . S
C856 C844 1.349 . S
C856 H850 0.950 . S
C856 C857 1.327 . S
C857 H851 0.950 . S
C857 C856 1.327 . S
C857 C861 1.429 . S
C858 C841 1.574 1_556 S
C858 H852 0.949 . S
C858 C862 1.368 . S
C859 C840 1.429 . S
C859 C853 1.429 . S
C859 C860 1.523 . S
C860 C841 1.368 . S
C860 C854 1.368 . S
C860 C859 1.523 . S
C861 C845 1.429 . S
C861 C857 1.429 . S
C861 C862 1.523 . S
C862 C846 1.368 . S
C862 C858 1.368 . S
C862 C861 1.523 . S
H863 C838 0.950 . S
H864 C840 0.950 . S
H865 C841 0.949 . S
H866 C843 0.950 . S
H867 C845 0.950 . S
C868 C869 1.349 . S
C868 C870 1.327 . S
C868 H893 0.950 . S
C869 C868 1.349 . S
C869 C885 1.349 . S
C870 C868 1.327 . S
C870 C889 1.429 . S
C870 H894 0.950 . S
C871 C888 1.574 . S
C871 C890 1.368 . S
C871 H895 0.949 . S
H872 C876 0.949 . S
C873 C874 1.349 . S
C873 C875 1.327 . S
C873 H896 0.950 . S
C874 C873 1.349 . S
C874 C886 1.349 . S
C875 C873 1.327 . S
C875 C891 1.429 . S
C875 H897 0.950 . S
C876 H872 0.949 . S
C876 C884 1.574 . S
C876 C892 1.368 . S
H877 C885 0.950 . S
H878 C883 0.950 . S
H879 C884 0.949 . S
H880 C886 0.950 . S
H881 C887 0.950 . S
H882 C888 0.949 . S
C883 H878 0.950 . S
C883 C885 1.327 . S
C883 C889 1.429 . S
C884 C876 1.574 . S
C884 H879 0.949 . S
C884 C890 1.368 . S
C885 C869 1.349 . S
C885 H877 0.950 . S
C885 C883 1.327 . S
C886 C874 1.349 . S
C886 H880 0.950 . S
C886 C887 1.327 . S
C887 H881 0.950 . S
C887 C886 1.327 . S
C887 C891 1.429 . S
C888 C871 1.574 . S
C888 H882 0.949 . S
C888 C892 1.368 . S
C889 C870 1.429 . S
C889 C883 1.429 . S
C889 C890 1.523 . S
C890 C871 1.368 . S
C890 C884 1.368 . S
C890 C889 1.523 . S
C891 C875 1.429 . S
C891 C887 1.429 . S
C891 C892 1.523 . S
C892 C876 1.368 . S
C892 C888 1.368 . S
C892 C891 1.523 . S
H893 C868 0.950 . S
H894 C870 0.950 . S
H895 C871 0.949 . S
H896 C873 0.950 . S
H897 C875 0.950 . S
C898 C899 1.349 . S
C898 C900 1.327 . S
C898 H923 0.950 . S
C899 C898 1.349 . S
C899 C915 1.349 . S
C900 C898 1.327 . S
C900 C919 1.429 . S
C900 H924 0.950 . S
C901 C918 1.574 . S
C901 C920 1.368 . S
C901 H925 0.949 . S
H902 C906 0.949 . S
C903 C904 1.349 . S
C903 C905 1.327 . S
C903 H926 0.950 . S
C904 C903 1.349 . S
C904 C916 1.349 . S
C905 C903 1.327 . S
C905 C921 1.429 . S
C905 H927 0.950 . S
C906 H902 0.949 . S
C906 C914 1.574 . S
C906 C922 1.368 . S
H907 C915 0.950 . S
H908 C913 0.950 . S
H909 C914 0.949 . S
H910 C916 0.950 . S
H911 C917 0.950 . S
H912 C918 0.949 . S
C913 H908 0.950 . S
C913 C915 1.327 . S
C913 C919 1.429 . S
C914 C906 1.574 . S
C914 H909 0.949 . S
C914 C920 1.368 . S
C915 C899 1.349 . S
C915 H907 0.950 . S
C915 C913 1.327 . S
C916 C904 1.349 . S
C916 H910 0.950 . S
C916 C917 1.327 . S
C917 H911 0.950 . S
C917 C916 1.327 . S
C917 C921 1.429 . S
C918 C901 1.574 . S
C918 H912 0.949 . S
C918 C922 1.368 . S
C919 C900 1.429 . S
C919 C913 1.429 . S
C919 C920 1.523 . S
C920 C901 1.368 . S
C920 C914 1.368 . S
C920 C919 1.523 . S
C921 C905 1.429 . S
C921 C917 1.429 . S
C921 C922 1.523 . S
C922 C906 1.368 . S
C922 C918 1.368 . S
C922 C921 1.523 . S
H923 C898 0.950 . S
H924 C900 0.950 . S
H925 C901 0.949 . S
H926 C903 0.950 . S
H927 C905 0.950 . S
C928 C929 1.349 1_565 S
C928 C930 1.327 . S
C928 H953 0.950 . S
C929 C928 1.349 1_545 S
C929 C945 1.349 . S
C930 C928 1.327 . S
C930 C949 1.429 . S
C930 H954 0.950 . S
C931 C948 1.574 . S
C931 C950 1.368 . S
C931 H955 0.949 . S
H932 C936 0.949 . S
C933 C934 1.349 . S
C933 C935 1.327 . S
C933 H956 0.950 . S
C934 C933 1.349 . S
C934 C946 1.349 . S
C935 C933 1.327 . S
C935 C951 1.429 . S
C935 H957 0.950 . S
C936 H932 0.949 . S
C936 C944 1.574 . S
C936 C952 1.368 . S
H937 C945 0.950 . S
H938 C943 0.950 . S
H939 C944 0.949 . S
H940 C946 0.950 . S
H941 C947 0.950 . S
H942 C948 0.949 . S
C943 H938 0.950 . S
C943 C945 1.327 1_565 S
C943 C949 1.429 . S
C944 C936 1.574 . S
C944 H939 0.949 . S
C944 C950 1.368 . S
C945 C929 1.349 . S
C945 H937 0.950 . S
C945 C943 1.327 1_545 S
C946 C934 1.349 . S
C946 H940 0.950 . S
C946 C947 1.327 . S
C947 H941 0.950 . S
C947 C946 1.327 . S
C947 C951 1.429 . S
C948 C931 1.574 . S
C948 H942 0.949 . S
C948 C952 1.368 . S
C949 C930 1.429 . S
C949 C943 1.429 . S
C949 C950 1.523 . S
C950 C931 1.368 . S
C950 C944 1.368 . S
C950 C949 1.523 . S
C951 C935 1.429 . S
C951 C947 1.429 . S
C951 C952 1.523 . S
C952 C936 1.368 . S
C952 C948 1.368 . S
C952 C951 1.523 . S
H953 C928 0.950 . S
H954 C930 0.950 . S
H955 C931 0.949 . S
H956 C933 0.950 . S
H957 C935 0.950 . S
C958 C959 1.349 . S
C958 C960 1.327 . S
C958 H983 0.950 . S
C959 C958 1.349 . S
C959 C975 1.349 . S
C960 C958 1.327 . S
C960 C979 1.429 . S
C960 H984 0.950 . S
C961 C978 1.574 . S
C961 C980 1.368 . S
C961 H985 0.949 . S
H962 C966 0.949 . S
C963 C964 1.349 1_545 S
C963 C965 1.327 . S
C963 H986 0.950 . S
C964 C963 1.349 1_565 S
C964 C976 1.349 . S
C965 C963 1.327 . S
C965 C981 1.429 . S
C965 H987 0.950 . S
C966 H962 0.949 . S
C966 C974 1.574 . S
C966 C982 1.368 . S
H967 C975 0.950 . S
H968 C973 0.950 . S
H969 C974 0.949 . S
H970 C976 0.950 . S
H971 C977 0.950 1_565 S
H972 C978 0.949 . S
C973 H968 0.950 . S
C973 C975 1.327 . S
C973 C979 1.429 . S
C974 C966 1.574 . S
C974 H969 0.949 . S
C974 C980 1.368 . S
C975 C959 1.349 . S
C975 H967 0.950 . S
C975 C973 1.327 . S
C976 C964 1.349 . S
C976 H970 0.950 . S
C976 C977 1.327 1_565 S
C977 H971 0.950 1_545 S
C977 C976 1.327 1_545 S
C977 C981 1.429 . S
C978 C961 1.574 . S
C978 H972 0.949 . S
C978 C982 1.368 . S
C979 C960 1.429 . S
C979 C973 1.429 . S
C979 C980 1.523 . S
C980 C961 1.368 . S
C980 C974 1.368 . S
C980 C979 1.523 . S
C981 C965 1.429 . S
C981 C977 1.429 . S
C981 C982 1.523 . S
C982 C966 1.368 . S
C982 C978 1.368 . S
C982 C981 1.523 . S
H983 C958 0.950 . S
H984 C960 0.950 . S
H985 C961 0.949 . S
H986 C963 0.950 . S
H987 C965 0.950 . S
C988 C989 1.349 . S
C988 C990 1.327 1_565 S
C988 H1013 0.950 . S
C989 C988 1.349 . S
C989 C1005 1.349 1_565 S
C990 C988 1.327 1_545 S
C990 C1009 1.429 . S
C990 H1014 0.950 . S
C991 C1008 1.574 . S
C991 C1010 1.368 . S
C991 H1015 0.949 . S
H992 C996 0.949 . S
C993 C994 1.349 . S
C993 C995 1.327 . S
C993 H1016 0.950 . S
C994 C993 1.349 . S
C994 C1006 1.349 . S
C995 C993 1.327 . S
C995 C1011 1.429 . S
C995 H1017 0.950 . S
C996 H992 0.949 . S
C996 C1004 1.574 . S
C996 C1012 1.368 . S
H997 C1005 0.950 . S
H998 C1003 0.950 . S
H999 C1004 0.949 . S
H1000 C1006 0.950 . S
H1001 C1007 0.950 . S
H1002 C1008 0.949 . S
C1003 H998 0.950 . S
C1003 C1005 1.327 . S
C1003 C1009 1.429 . S
C1004 C996 1.574 . S
C1004 H999 0.949 . S
C1004 C1010 1.368 . S
C1005 C989 1.349 1_545 S
C1005 H997 0.950 . S
C1005 C1003 1.327 . S
C1006 C994 1.349 . S
C1006 H1000 0.950 . S
C1006 C1007 1.327 . S
C1007 H1001 0.950 . S
C1007 C1006 1.327 . S
C1007 C1011 1.429 . S
C1008 C991 1.574 . S
C1008 H1002 0.949 . S
C1008 C1012 1.368 . S
C1009 C990 1.429 . S
C1009 C1003 1.429 . S
C1009 C1010 1.523 . S
C1010 C991 1.368 . S
C1010 C1004 1.368 . S
C1010 C1009 1.523 . S
C1011 C995 1.429 . S
C1011 C1007 1.429 . S
C1011 C1012 1.523 . S
C1012 C996 1.368 . S
C1012 C1008 1.368 . S
C1012 C1011 1.523 . S
H1013 C988 0.950 . S
H1014 C990 0.950 . S
H1015 C991 0.949 . S
H1016 C993 0.950 . S
H1017 C995 0.950 . S
C1018 C1019 1.349 . S
C1018 C1020 1.327 1_545 S
C1018 H1043 0.950 . S
C1019 C1018 1.349 . S
C1019 C1035 1.349 1_545 S
C1020 C1018 1.327 1_565 S
C1020 C1039 1.429 . S
C1020 H1044 0.950 . S
C1021 C1038 1.574 . S
C1021 C1040 1.368 . S
C1021 H1045 0.949 . S
H1022 C1026 0.949 . S
C1023 C1024 1.349 . S
C1023 C1025 1.327 . S
C1023 H1046 0.950 . S
C1024 C1023 1.349 . S
C1024 C1036 1.349 . S
C1025 C1023 1.327 . S
C1025 C1041 1.429 . S
C1025 H1047 0.950 . S
C1026 H1022 0.949 . S
C1026 C1034 1.574 . S
C1026 C1042 1.368 . S
H1027 C1035 0.950 . S
H1028 C1033 0.950 . S
H1029 C1034 0.949 . S
H1030 C1036 0.950 . S
H1031 C1037 0.950 . S
H1032 C1038 0.949 . S
C1033 H1028 0.950 . S
C1033 C1035 1.327 . S
C1033 C1039 1.429 . S
C1034 C1026 1.574 . S
C1034 H1029 0.949 . S
C1034 C1040 1.368 . S
C1035 C1019 1.349 1_565 S
C1035 H1027 0.950 . S
C1035 C1033 1.327 . S
C1036 C1024 1.349 . S
C1036 H1030 0.950 . S
C1036 C1037 1.327 . S
C1037 H1031 0.950 . S
C1037 C1036 1.327 . S
C1037 C1041 1.429 . S
C1038 C1021 1.574 . S
C1038 H1032 0.949 . S
C1038 C1042 1.368 . S
C1039 C1020 1.429 . S
C1039 C1033 1.429 . S
C1039 C1040 1.523 . S
C1040 C1021 1.368 . S
C1040 C1034 1.368 . S
C1040 C1039 1.523 . S
C1041 C1025 1.429 . S
C1041 C1037 1.429 . S
C1041 C1042 1.523 . S
C1042 C1026 1.368 . S
C1042 C1038 1.368 . S
C1042 C1041 1.523 . S
H1043 C1018 0.950 . S
H1044 C1020 0.950 . S
H1045 C1021 0.949 . S
H1046 C1023 0.950 . S
H1047 C1025 0.950 . S
C1048 C1049 1.349 . S
C1048 C1050 1.327 . S
C1048 H1073 0.950 . S
C1049 C1048 1.349 . S
C1049 C1065 1.349 . S
C1050 C1048 1.327 . S
C1050 C1069 1.429 . S
C1050 H1074 0.950 . S
C1051 C1068 1.574 . S
C1051 C1070 1.368 . S
C1051 H1075 0.949 . S
H1052 C1056 0.949 . S
C1053 C1054 1.349 . S
C1053 C1055 1.327 1_565 S
C1053 H1076 0.950 . S
C1054 C1053 1.349 . S
C1054 C1066 1.349 1_565 S
C1055 C1053 1.327 1_545 S
C1055 C1071 1.429 . S
C1055 H1077 0.950 . S
C1056 H1052 0.949 . S
C1056 C1064 1.574 . S
C1056 C1072 1.368 . S
H1057 C1065 0.950 . S
H1058 C1063 0.950 . S
H1059 C1064 0.949 . S
H1060 C1066 0.950 1_565 S
H1061 C1067 0.950 . S
H1062 C1068 0.949 . S
C1063 H1058 0.950 . S
C1063 C1065 1.327 . S
C1063 C1069 1.429 . S
C1064 C1056 1.574 . S
C1064 H1059 0.949 . S
C1064 C1070 1.368 . S
C1065 C1049 1.349 . S
C1065 H1057 0.950 . S
C1065 C1063 1.327 . S
C1066 C1054 1.349 1_545 S
C1066 H1060 0.950 1_545 S
C1066 C1067 1.327 . S
C1067 H1061 0.950 . S
C1067 C1066 1.327 . S
C1067 C1071 1.429 . S
C1068 C1051 1.574 . S
C1068 H1062 0.949 . S
C1068 C1072 1.368 . S
C1069 C1050 1.429 . S
C1069 C1063 1.429 . S
C1069 C1070 1.523 . S
C1070 C1051 1.368 . S
C1070 C1064 1.368 . S
C1070 C1069 1.523 . S
C1071 C1055 1.429 . S
C1071 C1067 1.429 . S
C1071 C1072 1.523 . S
C1072 C1056 1.368 . S
C1072 C1068 1.368 . S
C1072 C1071 1.523 . S
H1073 C1048 0.950 . S
H1074 C1050 0.950 . S
H1075 C1051 0.949 . S
H1076 C1053 0.950 . S
H1077 C1055 0.950 . S
C1078 C1079 1.349 . S
C1078 C1080 1.327 1_545 S
C1078 H1103 0.950 . S
C1079 C1078 1.349 . S
C1079 C1095 1.349 1_545 S
C1080 C1078 1.327 1_565 S
C1080 C1099 1.429 . S
C1080 H1104 0.950 1_565 S
C1081 C1098 1.574 . S
C1081 C1100 1.368 . S
C1081 H1105 0.949 . S
H1082 C1086 0.949 . S
C1083 C1084 1.349 . S
C1083 C1085 1.327 . S
C1083 H1106 0.950 . S
C1084 C1083 1.349 . S
C1084 C1096 1.349 . S
C1085 C1083 1.327 . S
C1085 C1101 1.429 . S
C1085 H1107 0.950 . S
C1086 H1082 0.949 . S
C1086 C1094 1.574 . S
C1086 C1102 1.368 . S
H1087 C1095 0.950 . S
H1088 C1093 0.950 . S
H1089 C1094 0.949 . S
H1090 C1096 0.950 . S
H1091 C1097 0.950 . S
H1092 C1098 0.949 . S
C1093 H1088 0.950 . S
C1093 C1095 1.327 . S
C1093 C1099 1.429 . S
C1094 C1086 1.574 . S
C1094 H1089 0.949 . S
C1094 C1100 1.368 . S
C1095 C1079 1.349 1_565 S
C1095 H1087 0.950 . S
C1095 C1093 1.327 . S
C1096 C1084 1.349 . S
C1096 H1090 0.950 . S
C1096 C1097 1.327 . S
C1097 H1091 0.950 . S
C1097 C1096 1.327 . S
C1097 C1101 1.429 . S
C1098 C1081 1.574 . S
C1098 H1092 0.949 . S
C1098 C1102 1.368 . S
C1099 C1080 1.429 . S
C1099 C1093 1.429 . S
C1099 C1100 1.523 . S
C1100 C1081 1.368 . S
C1100 C1094 1.368 . S
C1100 C1099 1.523 . S
C1101 C1085 1.429 . S
C1101 C1097 1.429 . S
C1101 C1102 1.523 . S
C1102 C1086 1.368 . S
C1102 C1098 1.368 . S
C1102 C1101 1.523 . S
H1103 C1078 0.950 . S
H1104 C1080 0.950 1_545 S
H1105 C1081 0.949 . S
H1106 C1083 0.950 . S
H1107 C1085 0.950 . S
C1108 C1109 1.349 . S
C1108 C1110 1.327 . S
C1108 H1133 0.950 . S
C1109 C1108 1.349 . S
C1109 C1125 1.349 . S
C1110 C1108 1.327 . S
C1110 C1129 1.429 . S
C1110 H1134 0.950 . S
C1111 C1128 1.574 . S
C1111 C1130 1.368 . S
C1111 H1135 0.949 . S
H1112 C1116 0.949 . S
C1113 C1114 1.349 1_565 S
C1113 C1115 1.327 . S
C1113 H1136 0.950 1_565 S
C1114 C1113 1.349 1_545 S
C1114 C1126 1.363 . S
C1115 C1113 1.327 . S
C1115 C1131 1.429 . S
C1115 H1137 0.950 . S
C1116 H1112 0.949 . S
C1116 C1124 1.574 . S
C1116 C1132 1.368 . S
H1117 C1125 0.950 . S
H1118 C1123 0.950 . S
H1119 C1124 0.949 . S
H1120 C1126 0.969 . S
H1121 C1127 0.950 . S
H1122 C1128 0.949 . S
C1123 H1118 0.950 . S
C1123 C1125 1.327 . S
C1123 C1129 1.429 . S
C1124 C1116 1.574 . S
C1124 H1119 0.949 . S
C1124 C1130 1.368 . S
C1125 C1109 1.349 . S
C1125 H1117 0.950 . S
C1125 C1123 1.327 . S
C1126 C1114 1.363 . S
C1126 H1120 0.969 . S
C1126 C1127 1.296 1_545 S
C1127 H1121 0.950 . S
C1127 C1126 1.296 1_565 S
C1127 C1131 1.429 . S
C1128 C1111 1.574 . S
C1128 H1122 0.949 . S
C1128 C1132 1.368 . S
C1129 C1110 1.429 . S
C1129 C1123 1.429 . S
C1129 C1130 1.523 . S
C1130 C1111 1.368 . S
C1130 C1124 1.368 . S
C1130 C1129 1.523 . S
C1131 C1115 1.429 . S
C1131 C1127 1.429 . S
C1131 C1132 1.523 . S
C1132 C1116 1.368 . S
C1132 C1128 1.368 . S
C1132 C1131 1.523 . S
H1133 C1108 0.950 . S
H1134 C1110 0.950 . S
H1135 C1111 0.949 . S
H1136 C1113 0.950 1_545 S
H1137 C1115 0.950 . S
C1138 C1139 1.349 . S
C1138 C1140 1.327 . S
C1138 H1163 0.950 . S
C1139 C1138 1.349 . S
C1139 C1155 1.349 . S
C1140 C1138 1.327 . S
C1140 C1159 1.429 . S
C1140 H1164 0.950 . S
C1141 C1158 1.574 . S
C1141 C1160 1.368 . S
C1141 H1165 0.949 . S
H1142 C1146 0.949 . S
C1143 C1144 1.349 . S
C1143 C1145 1.327 1_565 S
C1143 H1166 0.950 . S
C1144 C1143 1.349 . S
C1144 C1156 1.349 1_565 S
C1145 C1143 1.327 1_545 S
C1145 C1161 1.429 . S
C1145 H1167 0.950 . S
C1146 H1142 0.949 . S
C1146 C1154 1.574 . S
C1146 C1162 1.368 . S
H1147 C1155 0.950 . S
H1148 C1153 0.950 . S
H1149 C1154 0.949 . S
H1150 C1156 0.950 1_565 S
H1151 C1157 0.950 . S
H1152 C1158 0.949 . S
C1153 H1148 0.950 . S
C1153 C1155 1.327 . S
C1153 C1159 1.429 . S
C1154 C1146 1.574 . S
C1154 H1149 0.949 . S
C1154 C1160 1.368 . S
C1155 C1139 1.349 . S
C1155 H1147 0.950 . S
C1155 C1153 1.327 . S
C1156 C1144 1.349 1_545 S
C1156 H1150 0.950 1_545 S
C1156 C1157 1.327 . S
C1157 H1151 0.950 . S
C1157 C1156 1.327 . S
C1157 C1161 1.429 . S
C1158 C1141 1.574 . S
C1158 H1152 0.949 . S
C1158 C1162 1.368 . S
C1159 C1140 1.429 . S
C1159 C1153 1.429 . S
C1159 C1160 1.523 . S
C1160 C1141 1.368 . S
C1160 C1154 1.368 . S
C1160 C1159 1.523 . S
C1161 C1145 1.429 . S
C1161 C1157 1.429 . S
C1161 C1162 1.523 . S
C1162 C1146 1.368 . S
C1162 C1158 1.368 . S
C1162 C1161 1.523 . S
H1163 C1138 0.950 . S
H1164 C1140 0.950 . S
H1165 C1141 0.949 . S
H1166 C1143 0.950 . S
H1167 C1145 0.950 . S
C1168 C1169 1.349 . S
C1168 C1170 1.327 . S
C1168 H1193 0.950 . S
C1169 C1168 1.349 . S
C1169 C1185 1.349 . S
C1170 C1168 1.327 . S
C1170 C1189 1.429 . S
C1170 H1194 0.950 . S
C1171 C1188 1.574 . S
C1171 C1190 1.368 . S
C1171 H1195 0.949 . S
H1172 C1176 0.949 . S
C1173 C1174 1.349 . S
C1173 C1175 1.327 . S
C1173 H1196 0.950 . S
C1174 C1173 1.349 . S
C1174 C1186 1.349 . S
C1175 C1173 1.327 . S
C1175 C1191 1.429 . S
C1175 H1197 0.950 . S
C1176 H1172 0.949 . S
C1176 C1184 1.574 . S
C1176 C1192 1.368 . S
H1177 C1185 0.950 . S
H1178 C1183 0.950 . S
H1179 C1184 0.949 . S
H1180 C1186 0.950 . S
H1181 C1187 0.950 . S
H1182 C1188 0.949 . S
C1183 H1178 0.950 . S
C1183 C1185 1.327 . S
C1183 C1189 1.429 . S
C1184 C1176 1.574 . S
C1184 H1179 0.949 . S
C1184 C1190 1.368 . S
C1185 C1169 1.349 . S
C1185 H1177 0.950 . S
C1185 C1183 1.327 . S
C1186 C1174 1.349 . S
C1186 H1180 0.950 . S
C1186 C1187 1.327 . S
C1187 H1181 0.950 . S
C1187 C1186 1.327 . S
C1187 C1191 1.429 . S
C1188 C1171 1.574 . S
C1188 H1182 0.949 . S
C1188 C1192 1.368 . S
C1189 C1170 1.429 . S
C1189 C1183 1.429 . S
C1189 C1190 1.523 . S
C1190 C1171 1.368 . S
C1190 C1184 1.368 . S
C1190 C1189 1.523 . S
C1191 C1175 1.429 . S
C1191 C1187 1.429 . S
C1191 C1192 1.523 . S
C1192 C1176 1.368 . S
C1192 C1188 1.368 . S
C1192 C1191 1.523 . S
H1193 C1168 0.950 . S
H1194 C1170 0.950 . S
H1195 C1171 0.949 . S
H1196 C1173 0.950 . S
H1197 C1175 0.950 . S
C1198 C1199 1.349 . S
C1198 C1200 1.327 . S
C1198 H1223 0.950 . S
C1199 C1198 1.349 . S
C1199 C1215 1.349 . S
C1200 C1198 1.327 . S
C1200 C1219 1.429 . S
C1200 H1224 0.950 . S
C1201 C1218 1.574 . S
C1201 C1220 1.368 . S
C1201 H1225 0.949 . S
H1202 C1206 0.949 . S
C1203 C1204 1.349 . S
C1203 C1205 1.327 . S
C1203 H1226 0.950 . S
C1204 C1203 1.349 . S
C1204 C1216 1.349 . S
C1205 C1203 1.327 . S
C1205 C1221 1.429 . S
C1205 H1227 0.950 . S
C1206 H1202 0.949 . S
C1206 C1214 1.574 . S
C1206 C1222 1.368 . S
H1207 C1215 0.950 . S
H1208 C1213 0.950 . S
H1209 C1214 0.949 . S
H1210 C1216 0.950 . S
H1211 C1217 0.950 . S
H1212 C1218 0.949 . S
C1213 H1208 0.950 . S
C1213 C1215 1.327 . S
C1213 C1219 1.429 . S
C1214 C1206 1.574 . S
C1214 H1209 0.949 . S
C1214 C1220 1.368 . S
C1215 C1199 1.349 . S
C1215 H1207 0.950 . S
C1215 C1213 1.327 . S
C1216 C1204 1.349 . S
C1216 H1210 0.950 . S
C1216 C1217 1.327 . S
C1217 H1211 0.950 . S
C1217 C1216 1.327 . S
C1217 C1221 1.429 . S
C1218 C1201 1.574 . S
C1218 H1212 0.949 . S
C1218 C1222 1.368 . S
C1219 C1200 1.429 . S
C1219 C1213 1.429 . S
C1219 C1220 1.523 . S
C1220 C1201 1.368 . S
C1220 C1214 1.368 . S
C1220 C1219 1.523 . S
C1221 C1205 1.429 . S
C1221 C1217 1.429 . S
C1221 C1222 1.523 . S
C1222 C1206 1.368 . S
C1222 C1218 1.368 . S
C1222 C1221 1.523 . S
H1223 C1198 0.950 . S
H1224 C1200 0.950 . S
H1225 C1201 0.949 . S
H1226 C1203 0.950 . S
H1227 C1205 0.950 . S
C1228 C1229 1.349 . S
C1228 C1230 1.327 . S
C1228 H1253 0.950 . S
C1229 C1228 1.349 . S
C1229 C1245 1.349 . S
C1230 C1228 1.327 . S
C1230 C1249 1.429 . S
C1230 H1254 0.950 . S
C1231 C1248 1.574 . S
C1231 C1250 1.368 . S
C1231 H1255 0.949 . S
H1232 C1236 0.949 . S
C1233 C1234 1.349 . S
C1233 C1235 1.327 . S
C1233 H1256 0.950 . S
C1234 C1233 1.349 . S
C1234 C1246 1.349 . S
C1235 C1233 1.327 . S
C1235 C1251 1.429 . S
C1235 H1257 0.950 . S
C1236 H1232 0.949 . S
C1236 C1244 1.574 . S
C1236 C1252 1.368 . S
H1237 C1245 0.950 . S
H1238 C1243 0.950 . S
H1239 C1244 0.949 . S
H1240 C1246 0.950 . S
H1241 C1247 0.950 . S
H1242 C1248 0.949 . S
C1243 H1238 0.950 . S
C1243 C1245 1.327 . S
C1243 C1249 1.429 . S
C1244 C1236 1.574 . S
C1244 H1239 0.949 . S
C1244 C1250 1.368 . S
C1245 C1229 1.349 . S
C1245 H1237 0.950 . S
C1245 C1243 1.327 . S
C1246 C1234 1.349 . S
C1246 H1240 0.950 . S
C1246 C1247 1.327 . S
C1247 H1241 0.950 . S
C1247 C1246 1.327 . S
C1247 C1251 1.429 . S
C1248 C1231 1.574 . S
C1248 H1242 0.949 . S
C1248 C1252 1.368 . S
C1249 C1230 1.429 . S
C1249 C1243 1.429 . S
C1249 C1250 1.523 . S
C1250 C1231 1.368 . S
C1250 C1244 1.368 . S
C1250 C1249 1.523 . S
C1251 C1235 1.429 . S
C1251 C1247 1.429 . S
C1251 C1252 1.523 . S
C1252 C1236 1.368 . S
C1252 C1248 1.368 . S
C1252 C1251 1.523 . S
H1253 C1228 0.950 . S
H1254 C1230 0.950 . S
H1255 C1231 0.949 . S
H1256 C1233 0.950 . S
H1257 C1235 0.950 . S
C1258 C1259 1.349 . S
C1258 C1260 1.327 . S
C1258 H1283 0.950 . S
C1259 C1258 1.349 . S
C1259 C1275 1.349 . S
C1260 C1258 1.327 . S
C1260 C1279 1.429 . S
C1260 H1284 0.950 . S
C1261 C1278 1.574 . S
C1261 C1280 1.368 . S
C1261 H1285 0.949 . S
H1262 C1266 0.949 . S
C1263 C1264 1.349 . S
C1263 C1265 1.327 . S
C1263 H1286 0.950 . S
C1264 C1263 1.349 . S
C1264 C1276 1.349 . S
C1265 C1263 1.327 . S
C1265 C1281 1.429 . S
C1265 H1287 0.950 . S
C1266 H1262 0.949 . S
C1266 C1274 1.574 . S
C1266 C1282 1.368 . S
H1267 C1275 0.950 . S
H1268 C1273 0.950 . S
H1269 C1274 0.949 . S
H1270 C1276 0.950 . S
H1271 C1277 0.950 . S
H1272 C1278 0.949 . S
C1273 H1268 0.950 . S
C1273 C1275 1.327 . S
C1273 C1279 1.429 . S
C1274 C1266 1.574 . S
C1274 H1269 0.949 . S
C1274 C1280 1.368 . S
C1275 C1259 1.349 . S
C1275 H1267 0.950 . S
C1275 C1273 1.327 . S
C1276 C1264 1.349 . S
C1276 H1270 0.950 . S
C1276 C1277 1.327 . S
C1277 H1271 0.950 . S
C1277 C1276 1.327 . S
C1277 C1281 1.429 . S
C1278 C1261 1.574 . S
C1278 H1272 0.949 . S
C1278 C1282 1.368 . S
C1279 C1260 1.429 . S
C1279 C1273 1.429 . S
C1279 C1280 1.523 . S
C1280 C1261 1.368 . S
C1280 C1274 1.368 . S
C1280 C1279 1.523 . S
C1281 C1265 1.429 . S
C1281 C1277 1.429 . S
C1281 C1282 1.523 . S
C1282 C1266 1.368 . S
C1282 C1278 1.368 . S
C1282 C1281 1.523 . S
H1283 C1258 0.950 . S
H1284 C1260 0.950 . S
H1285 C1261 0.949 . S
H1286 C1263 0.950 . S
H1287 C1265 0.950 . S
C1288 C1289 1.349 . S
C1288 C1290 1.327 . S
C1288 H1313 0.950 . S
C1289 C1288 1.349 . S
C1289 C1305 1.349 . S
C1290 C1288 1.327 . S
C1290 C1309 1.429 . S
C1290 H1314 0.950 . S
C1291 C1308 1.574 . S
C1291 C1310 1.368 . S
C1291 H1315 0.949 . S
H1292 C1296 0.949 . S
C1293 C1294 1.349 . S
C1293 C1295 1.327 . S
C1293 H1316 0.950 . S
C1294 C1293 1.349 . S
C1294 C1306 1.349 . S
C1295 C1293 1.327 . S
C1295 C1311 1.429 . S
C1295 H1317 0.950 . S
C1296 H1292 0.949 . S
C1296 C1304 1.574 . S
C1296 C1312 1.368 . S
H1297 C1305 0.950 . S
H1298 C1303 0.950 . S
H1299 C1304 0.949 . S
H1300 C1306 0.950 . S
H1301 C1307 0.950 . S
H1302 C1308 0.949 . S
C1303 H1298 0.950 . S
C1303 C1305 1.327 . S
C1303 C1309 1.429 . S
C1304 C1296 1.574 . S
C1304 H1299 0.949 . S
C1304 C1310 1.368 . S
C1305 C1289 1.349 . S
C1305 H1297 0.950 . S
C1305 C1303 1.327 . S
C1306 C1294 1.349 . S
C1306 H1300 0.950 . S
C1306 C1307 1.327 . S
C1307 H1301 0.950 . S
C1307 C1306 1.327 . S
C1307 C1311 1.429 . S
C1308 C1291 1.574 . S
C1308 H1302 0.949 . S
C1308 C1312 1.368 . S
C1309 C1290 1.429 . S
C1309 C1303 1.429 . S
C1309 C1310 1.523 . S
C1310 C1291 1.368 . S
C1310 C1304 1.368 . S
C1310 C1309 1.523 . S
C1311 C1295 1.429 . S
C1311 C1307 1.429 . S
C1311 C1312 1.523 . S
C1312 C1296 1.368 . S
C1312 C1308 1.368 . S
C1312 C1311 1.523 . S
H1313 C1288 0.950 . S
H1314 C1290 0.950 . S
H1315 C1291 0.949 . S
H1316 C1293 0.950 . S
H1317 C1295 0.950 . S
C1318 C1319 1.349 . S
C1318 C1320 1.327 . S
C1318 H1343 0.950 . S
C1319 C1318 1.349 . S
C1319 C1335 1.349 . S
C1320 C1318 1.327 . S
C1320 C1339 1.429 . S
C1320 H1344 0.950 . S
C1321 C1338 1.574 . S
C1321 C1340 1.368 . S
C1321 H1345 0.949 . S
H1322 C1326 0.949 . S
C1323 C1324 1.349 . S
C1323 C1325 1.327 . S
C1323 H1346 0.950 . S
C1324 C1323 1.349 . S
C1324 C1336 1.349 . S
C1325 C1323 1.327 . S
C1325 C1341 1.429 . S
C1325 H1347 0.950 . S
C1326 H1322 0.949 . S
C1326 C1334 1.574 . S
C1326 C1342 1.368 . S
H1327 C1335 0.950 . S
H1328 C1333 0.950 . S
H1329 C1334 0.949 . S
H1330 C1336 0.950 . S
H1331 C1337 0.950 . S
H1332 C1338 0.949 . S
C1333 H1328 0.950 . S
C1333 C1335 1.327 . S
C1333 C1339 1.429 . S
C1334 C1326 1.574 . S
C1334 H1329 0.949 . S
C1334 C1340 1.368 . S
C1335 C1319 1.349 . S
C1335 H1327 0.950 . S
C1335 C1333 1.327 . S
C1336 C1324 1.349 . S
C1336 H1330 0.950 . S
C1336 C1337 1.327 . S
C1337 H1331 0.950 . S
C1337 C1336 1.327 . S
C1337 C1341 1.429 . S
C1338 C1321 1.574 . S
C1338 H1332 0.949 . S
C1338 C1342 1.368 . S
C1339 C1320 1.429 . S
C1339 C1333 1.429 . S
C1339 C1340 1.523 . S
C1340 C1321 1.368 . S
C1340 C1334 1.368 . S
C1340 C1339 1.523 . S
C1341 C1325 1.429 . S
C1341 C1337 1.429 . S
C1341 C1342 1.523 . S
C1342 C1326 1.368 . S
C1342 C1338 1.368 . S
C1342 C1341 1.523 . S
H1343 C1318 0.950 . S
H1344 C1320 0.950 . S
H1345 C1321 0.949 . S
H1346 C1323 0.950 . S
H1347 C1325 0.950 . S
C1348 C1349 1.349 . S
C1348 C1350 1.327 . S
C1348 H1373 0.950 . S
C1349 C1348 1.349 . S
C1349 C1365 1.349 . S
C1350 C1348 1.327 . S
C1350 C1369 1.429 . S
C1350 H1374 0.950 . S
C1351 C1368 1.574 . S
C1351 C1370 1.368 . S
C1351 H1375 0.949 . S
H1352 C1356 0.949 . S
C1353 C1354 1.349 . S
C1353 C1355 1.327 . S
C1353 H1376 0.950 . S
C1354 C1353 1.349 . S
C1354 C1366 1.349 . S
C1355 C1353 1.327 . S
C1355 C1371 1.429 . S
C1355 H1377 0.950 . S
C1356 H1352 0.949 . S
C1356 C1364 1.574 . S
C1356 C1372 1.368 . S
H1357 C1365 0.950 . S
H1358 C1363 0.950 . S
H1359 C1364 0.949 . S
H1360 C1366 0.950 . S
H1361 C1367 0.950 . S
H1362 C1368 0.949 . S
C1363 H1358 0.950 . S
C1363 C1365 1.327 . S
C1363 C1369 1.429 . S
C1364 C1356 1.574 . S
C1364 H1359 0.949 . S
C1364 C1370 1.368 . S
C1365 C1349 1.349 . S
C1365 H1357 0.950 . S
C1365 C1363 1.327 . S
C1366 C1354 1.349 . S
C1366 H1360 0.950 . S
C1366 C1367 1.327 . S
C1367 H1361 0.950 . S
C1367 C1366 1.327 . S
C1367 C1371 1.429 . S
C1368 C1351 1.574 . S
C1368 H1362 0.949 . S
C1368 C1372 1.368 . S
C1369 C1350 1.429 . S
C1369 C1363 1.429 . S
C1369 C1370 1.523 . S
C1370 C1351 1.368 . S
C1370 C1364 1.368 . S
C1370 C1369 1.523 . S
C1371 C1355 1.429 . S
C1371 C1367 1.429 . S
C1371 C1372 1.523 . S
C1372 C1356 1.368 . S
C1372 C1368 1.368 . S
C1372 C1371 1.523 . S
H1373 C1348 0.950 . S
H1374 C1350 0.950 . S
H1375 C1351 0.949 . S
H1376 C1353 0.950 . S
H1377 C1355 0.950 . S
C1378 C1379 1.349 . S
C1378 C1380 1.327 . S
C1378 H1403 0.950 . S
C1379 C1378 1.349 . S
C1379 C1395 1.349 . S
C1380 C1378 1.327 . S
C1380 C1399 1.429 . S
C1380 H1404 0.950 . S
C1381 C1398 1.574 . S
C1381 C1400 1.368 . S
C1381 H1405 0.949 . S
H1382 C1386 0.949 . S
C1383 C1384 1.349 . S
C1383 C1385 1.327 . S
C1383 H1406 0.950 . S
C1384 C1383 1.349 . S
C1384 C1396 1.349 . S
C1385 C1383 1.327 . S
C1385 C1401 1.429 . S
C1385 H1407 0.950 . S
C1386 H1382 0.949 . S
C1386 C1394 1.574 . S
C1386 C1402 1.368 . S
H1387 C1395 0.950 . S
H1388 C1393 0.950 . S
H1389 C1394 0.949 . S
H1390 C1396 0.950 . S
H1391 C1397 0.950 . S
H1392 C1398 0.949 . S
C1393 H1388 0.950 . S
C1393 C1395 1.327 . S
C1393 C1399 1.429 . S
C1394 C1386 1.574 . S
C1394 H1389 0.949 . S
C1394 C1400 1.368 . S
C1395 C1379 1.349 . S
C1395 H1387 0.950 . S
C1395 C1393 1.327 . S
C1396 C1384 1.349 . S
C1396 H1390 0.950 . S
C1396 C1397 1.327 . S
C1397 H1391 0.950 . S
C1397 C1396 1.327 . S
C1397 C1401 1.429 . S
C1398 C1381 1.574 . S
C1398 H1392 0.949 . S
C1398 C1402 1.368 . S
C1399 C1380 1.429 . S
C1399 C1393 1.429 . S
C1399 C1400 1.523 . S
C1400 C1381 1.368 . S
C1400 C1394 1.368 . S
C1400 C1399 1.523 . S
C1401 C1385 1.429 . S
C1401 C1397 1.429 . S
C1401 C1402 1.523 . S
C1402 C1386 1.368 . S
C1402 C1398 1.368 . S
C1402 C1401 1.523 . S
H1403 C1378 0.950 . S
H1404 C1380 0.950 . S
H1405 C1381 0.949 . S
H1406 C1383 0.950 . S
H1407 C1385 0.950 . S
C1408 C1409 1.349 . S
C1408 C1410 1.327 . S
C1408 H1433 0.950 . S
C1409 C1408 1.349 . S
C1409 C1425 1.349 . S
C1410 C1408 1.327 . S
C1410 C1429 1.429 . S
C1410 H1434 0.950 . S
C1411 C1428 1.574 . S
C1411 C1430 1.368 . S
C1411 H1435 0.949 . S
H1412 C1416 0.949 . S
C1413 C1414 1.349 . S
C1413 C1415 1.327 . S
C1413 H1436 0.950 . S
C1414 C1413 1.349 . S
C1414 C1426 1.349 . S
C1415 C1413 1.327 . S
C1415 C1431 1.429 . S
C1415 H1437 0.950 . S
C1416 H1412 0.949 . S
C1416 C1424 1.574 . S
C1416 C1432 1.368 . S
H1417 C1425 0.950 . S
H1418 C1423 0.950 . S
H1419 C1424 0.949 . S
H1420 C1426 0.950 . S
H1421 C1427 0.950 . S
H1422 C1428 0.949 . S
C1423 H1418 0.950 . S
C1423 C1425 1.327 . S
C1423 C1429 1.429 . S
C1424 C1416 1.574 . S
C1424 H1419 0.949 . S
C1424 C1430 1.368 . S
C1425 C1409 1.349 . S
C1425 H1417 0.950 . S
C1425 C1423 1.327 . S
C1426 C1414 1.349 . S
C1426 H1420 0.950 . S
C1426 C1427 1.327 . S
C1427 H1421 0.950 . S
C1427 C1426 1.327 . S
C1427 C1431 1.429 . S
C1428 C1411 1.574 . S
C1428 H1422 0.949 . S
C1428 C1432 1.368 . S
C1429 C1410 1.429 . S
C1429 C1423 1.429 . S
C1429 C1430 1.523 . S
C1430 C1411 1.368 . S
C1430 C1424 1.368 . S
C1430 C1429 1.523 . S
C1431 C1415 1.429 . S
C1431 C1427 1.429 . S
C1431 C1432 1.523 . S
C1432 C1416 1.368 . S
C1432 C1428 1.368 . S
C1432 C1431 1.523 . S
H1433 C1408 0.950 . S
H1434 C1410 0.950 . S
H1435 C1411 0.949 . S
H1436 C1413 0.950 . S
H1437 C1415 0.950 . S
C1438 C1439 1.349 . S
C1438 C1440 1.327 . S
C1438 H1463 0.950 . S
C1439 C1438 1.349 . S
C1439 C1455 1.349 . S
C1440 C1438 1.327 . S
C1440 C1459 1.429 . S
C1440 H1464 0.950 . S
C1441 C1458 1.574 . S
C1441 C1460 1.368 . S
C1441 H1465 0.949 . S
H1442 C1446 0.949 . S
C1443 C1444 1.349 . S
C1443 C1445 1.327 1_655 S
C1443 H1466 0.950 . S
C1444 C1443 1.349 . S
C1444 C1456 1.349 . S
C1445 C1443 1.327 1_455 S
C1445 C1461 1.429 . S
C1445 H1467 0.950 . S
C1446 H1442 0.949 . S
C1446 C1454 1.574 . S
C1446 C1462 1.368 . S
H1447 C1455 0.950 . S
H1448 C1453 0.950 . S
H1449 C1454 0.949 . S
H1450 C1456 0.950 . S
H1451 C1457 0.950 . S
H1452 C1458 0.949 . S
C1453 H1448 0.950 . S
C1453 C1455 1.327 . S
C1453 C1459 1.429 . S
C1454 C1446 1.574 . S
C1454 H1449 0.949 . S
C1454 C1460 1.368 . S
C1455 C1439 1.349 . S
C1455 H1447 0.950 . S
C1455 C1453 1.327 . S
C1456 C1444 1.349 . S
C1456 H1450 0.950 . S
C1456 C1457 1.327 1_655 S
C1457 H1451 0.950 . S
C1457 C1456 1.327 1_455 S
C1457 C1461 1.429 . S
C1458 C1441 1.574 . S
C1458 H1452 0.949 . S
C1458 C1462 1.368 . S
C1459 C1440 1.429 . S
C1459 C1453 1.429 . S
C1459 C1460 1.523 . S
C1460 C1441 1.368 . S
C1460 C1454 1.368 . S
C1460 C1459 1.523 . S
C1461 C1445 1.429 . S
C1461 C1457 1.429 . S
C1461 C1462 1.523 . S
C1462 C1446 1.368 . S
C1462 C1458 1.368 . S
C1462 C1461 1.523 . S
H1463 C1438 0.950 . S
H1464 C1440 0.950 . S
H1465 C1441 0.949 . S
H1466 C1443 0.950 . S
H1467 C1445 0.950 . S
C1468 C1469 1.349 . S
C1468 C1470 1.327 . S
C1468 H1493 0.950 . S
C1469 C1468 1.349 . S
C1469 C1485 1.349 . S
C1470 C1468 1.327 . S
C1470 C1489 1.429 . S
C1470 H1494 0.950 . S
C1471 C1488 1.574 . S
C1471 C1490 1.368 . S
C1471 H1495 0.949 . S
H1472 C1476 0.949 . S
C1473 C1474 1.349 . S
C1473 C1475 1.327 . S
C1473 H1496 0.950 . S
C1474 C1473 1.349 . S
C1474 C1486 1.349 . S
C1475 C1473 1.327 . S
C1475 C1491 1.429 . S
C1475 H1497 0.950 . S
C1476 H1472 0.949 . S
C1476 C1484 1.574 . S
C1476 C1492 1.368 . S
H1477 C1485 0.950 . S
H1478 C1483 0.950 . S
H1479 C1484 0.949 . S
H1480 C1486 0.950 . S
H1481 C1487 0.950 . S
H1482 C1488 0.949 . S
C1483 H1478 0.950 . S
C1483 C1485 1.327 . S
C1483 C1489 1.429 . S
C1484 C1476 1.574 . S
C1484 H1479 0.949 . S
C1484 C1490 1.368 . S
C1485 C1469 1.349 . S
C1485 H1477 0.950 . S
C1485 C1483 1.327 . S
C1486 C1474 1.349 . S
C1486 H1480 0.950 . S
C1486 C1487 1.327 . S
C1487 H1481 0.950 . S
C1487 C1486 1.327 . S
C1487 C1491 1.429 . S
C1488 C1471 1.574 . S
C1488 H1482 0.949 . S
C1488 C1492 1.368 . S
C1489 C1470 1.429 . S
C1489 C1483 1.429 . S
C1489 C1490 1.523 . S
C1490 C1471 1.368 . S
C1490 C1484 1.368 . S
C1490 C1489 1.523 . S
C1491 C1475 1.429 . S
C1491 C1487 1.429 . S
C1491 C1492 1.523 . S
C1492 C1476 1.368 . S
C1492 C1488 1.368 . S
C1492 C1491 1.523 . S
H1493 C1468 0.950 . S
H1494 C1470 0.950 . S
H1495 C1471 0.949 . S
H1496 C1473 0.950 . S
H1497 C1475 0.950 . S
C1498 C1499 1.349 . S
C1498 C1500 1.327 . S
C1498 H1523 0.950 . S
C1499 C1498 1.349 . S
C1499 C1515 1.349 . S
C1500 C1498 1.327 . S
C1500 C1519 1.429 . S
C1500 H1524 0.950 . S
C1501 C1518 1.574 . S
C1501 C1520 1.368 . S
C1501 H1525 0.949 . S
H1502 C1506 0.949 . S
C1503 C1504 1.349 . S
C1503 C1505 1.327 . S
C1503 H1526 0.950 . S
C1504 C1503 1.349 . S
C1504 C1516 1.349 . S
C1505 C1503 1.327 . S
C1505 C1521 1.429 . S
C1505 H1527 0.950 . S
C1506 H1502 0.949 . S
C1506 C1514 1.574 . S
C1506 C1522 1.368 . S
H1507 C1515 0.950 . S
H1508 C1513 0.950 . S
H1509 C1514 0.949 . S
H1510 C1516 0.950 . S
H1511 C1517 0.950 . S
H1512 C1518 0.949 . S
C1513 H1508 0.950 . S
C1513 C1515 1.327 . S
C1513 C1519 1.429 . S
C1514 C1506 1.574 . S
C1514 H1509 0.949 . S
C1514 C1520 1.368 . S
C1515 C1499 1.349 . S
C1515 H1507 0.950 . S
C1515 C1513 1.327 . S
C1516 C1504 1.349 . S
C1516 H1510 0.950 . S
C1516 C1517 1.327 . S
C1517 H1511 0.950 . S
C1517 C1516 1.327 . S
C1517 C1521 1.429 . S
C1518 C1501 1.574 . S
C1518 H1512 0.949 . S
C1518 C1522 1.368 . S
C1519 C1500 1.429 . S
C1519 C1513 1.429 . S
C1519 C1520 1.523 . S
C1520 C1501 1.368 . S
C1520 C1514 1.368 . S
C1520 C1519 1.523 . S
C1521 C1505 1.429 . S
C1521 C1517 1.429 . S
C1521 C1522 1.523 . S
C1522 C1506 1.368 . S
C1522 C1518 1.368 . S
C1522 C1521 1.523 . S
H1523 C1498 0.950 . S
H1524 C1500 0.950 . S
H1525 C1501 0.949 . S
H1526 C1503 0.950 . S
H1527 C1505 0.950 . S
C1528 C1529 1.349 . S
C1528 C1530 1.327 . S
C1528 H1553 0.950 . S
C1529 C1528 1.349 . S
C1529 C1545 1.349 . S
C1530 C1528 1.327 . S
C1530 C1549 1.429 . S
C1530 H1554 0.950 . S
C1531 C1548 1.574 . S
C1531 C1550 1.368 . S
C1531 H1555 0.949 . S
H1532 C1536 0.949 . S
C1533 C1534 1.349 . S
C1533 C1535 1.327 . S
C1533 H1556 0.950 . S
C1534 C1533 1.349 . S
C1534 C1546 1.349 . S
C1535 C1533 1.327 . S
C1535 C1551 1.429 . S
C1535 H1557 0.950 . S
C1536 H1532 0.949 . S
C1536 C1544 1.574 . S
C1536 C1552 1.368 . S
H1537 C1545 0.950 . S
H1538 C1543 0.950 . S
H1539 C1544 0.949 . S
H1540 C1546 0.950 . S
H1541 C1547 0.950 . S
H1542 C1548 0.949 . S
C1543 H1538 0.950 . S
C1543 C1545 1.327 . S
C1543 C1549 1.429 . S
C1544 C1536 1.574 . S
C1544 H1539 0.949 . S
C1544 C1550 1.368 . S
C1545 C1529 1.349 . S
C1545 H1537 0.950 . S
C1545 C1543 1.327 . S
C1546 C1534 1.349 . S
C1546 H1540 0.950 . S
C1546 C1547 1.327 . S
C1547 H1541 0.950 . S
C1547 C1546 1.327 . S
C1547 C1551 1.429 . S
C1548 C1531 1.574 . S
C1548 H1542 0.949 . S
C1548 C1552 1.368 . S
C1549 C1530 1.429 . S
C1549 C1543 1.429 . S
C1549 C1550 1.523 . S
C1550 C1531 1.368 . S
C1550 C1544 1.368 . S
C1550 C1549 1.523 . S
C1551 C1535 1.429 . S
C1551 C1547 1.429 . S
C1551 C1552 1.523 . S
C1552 C1536 1.368 . S
C1552 C1548 1.368 . S
C1552 C1551 1.523 . S
H1553 C1528 0.950 . S
H1554 C1530 0.950 . S
H1555 C1531 0.949 . S
H1556 C1533 0.950 . S
H1557 C1535 0.950 . S
C1558 C1559 1.349 . S
C1558 C1560 1.327 . S
C1558 H1583 0.950 . S
C1559 C1558 1.349 . S
C1559 C1575 1.349 . S
C1560 C1558 1.327 . S
C1560 C1579 1.429 . S
C1560 H1584 0.950 . S
C1561 C1578 1.574 . S
C1561 C1580 1.368 . S
C1561 H1585 0.949 . S
H1562 C1566 0.949 . S
C1563 C1564 1.349 . S
C1563 C1565 1.327 . S
C1563 H1586 0.950 . S
C1564 C1563 1.349 . S
C1564 C1576 1.349 . S
C1565 C1563 1.327 . S
C1565 C1581 1.429 . S
C1565 H1587 0.950 . S
C1566 H1562 0.949 . S
C1566 C1574 1.574 . S
C1566 C1582 1.368 . S
H1567 C1575 0.950 . S
H1568 C1573 0.950 . S
H1569 C1574 0.949 . S
H1570 C1576 0.950 . S
H1571 C1577 0.950 . S
H1572 C1578 0.949 . S
C1573 H1568 0.950 . S
C1573 C1575 1.327 . S
C1573 C1579 1.429 . S
C1574 C1566 1.574 . S
C1574 H1569 0.949 . S
C1574 C1580 1.368 . S
C1575 C1559 1.349 . S
C1575 H1567 0.950 . S
C1575 C1573 1.327 . S
C1576 C1564 1.349 . S
C1576 H1570 0.950 . S
C1576 C1577 1.327 . S
C1577 H1571 0.950 . S
C1577 C1576 1.327 . S
C1577 C1581 1.429 . S
C1578 C1561 1.574 . S
C1578 H1572 0.949 . S
C1578 C1582 1.368 . S
C1579 C1560 1.429 . S
C1579 C1573 1.429 . S
C1579 C1580 1.523 . S
C1580 C1561 1.368 . S
C1580 C1574 1.368 . S
C1580 C1579 1.523 . S
C1581 C1565 1.429 . S
C1581 C1577 1.429 . S
C1581 C1582 1.523 . S
C1582 C1566 1.368 . S
C1582 C1578 1.368 . S
C1582 C1581 1.523 . S
H1583 C1558 0.950 . S
H1584 C1560 0.950 . S
H1585 C1561 0.949 . S
H1586 C1563 0.950 . S
H1587 C1565 0.950 . S
C1588 C1589 1.349 . S
C1588 C1590 1.327 . S
C1588 H1613 0.950 . S
C1589 C1588 1.349 . S
C1589 C1605 1.349 . S
C1590 C1588 1.327 . S
C1590 C1609 1.429 . S
C1590 H1614 0.950 . S
C1591 C1608 1.574 . S
C1591 C1610 1.368 . S
C1591 H1615 0.949 . S
H1592 C1596 0.949 . S
C1593 C1594 1.349 . S
C1593 C1595 1.327 . S
C1593 H1616 0.950 . S
C1594 C1593 1.349 . S
C1594 C1606 1.349 . S
C1595 C1593 1.327 . S
C1595 C1611 1.429 . S
C1595 H1617 0.950 . S
C1596 H1592 0.949 . S
C1596 C1604 1.574 . S
C1596 C1612 1.368 . S
H1597 C1605 0.950 . S
H1598 C1603 0.950 . S
H1599 C1604 0.949 . S
H1600 C1606 0.950 . S
H1601 C1607 0.950 . S
H1602 C1608 0.949 . S
C1603 H1598 0.950 . S
C1603 C1605 1.327 . S
C1603 C1609 1.429 . S
C1604 C1596 1.574 . S
C1604 H1599 0.949 . S
C1604 C1610 1.368 . S
C1605 C1589 1.349 . S
C1605 H1597 0.950 . S
C1605 C1603 1.327 . S
C1606 C1594 1.349 . S
C1606 H1600 0.950 . S
C1606 C1607 1.327 . S
C1607 H1601 0.950 . S
C1607 C1606 1.327 . S
C1607 C1611 1.429 . S
C1608 C1591 1.574 . S
C1608 H1602 0.949 . S
C1608 C1612 1.368 . S
C1609 C1590 1.429 . S
C1609 C1603 1.429 . S
C1609 C1610 1.523 . S
C1610 C1591 1.368 . S
C1610 C1604 1.368 . S
C1610 C1609 1.523 . S
C1611 C1595 1.429 . S
C1611 C1607 1.429 . S
C1611 C1612 1.523 . S
C1612 C1596 1.368 . S
C1612 C1608 1.368 . S
C1612 C1611 1.523 . S
H1613 C1588 0.950 . S
H1614 C1590 0.950 . S
H1615 C1591 0.949 . S
H1616 C1593 0.950 . S
H1617 C1595 0.950 . S
C1618 C1619 1.349 . S
C1618 C1620 1.327 . S
C1618 H1643 0.950 . S
C1619 C1618 1.349 . S
C1619 C1635 1.349 . S
C1620 C1618 1.327 . S
C1620 C1639 1.429 . S
C1620 H1644 0.950 . S
C1621 C1638 1.574 . S
C1621 C1640 1.368 . S
C1621 H1645 0.949 . S
H1622 C1626 0.949 . S
C1623 C1624 1.349 . S
C1623 C1625 1.327 . S
C1623 H1646 0.950 . S
C1624 C1623 1.349 . S
C1624 C1636 1.349 . S
C1625 C1623 1.327 . S
C1625 C1641 1.429 1_655 S
C1625 H1647 0.950 . S
C1626 H1622 0.949 . S
C1626 C1634 1.574 . S
C1626 C1642 1.368 . S
H1627 C1635 0.950 . S
H1628 C1633 0.950 . S
H1629 C1634 0.949 . S
H1630 C1636 0.950 . S
H1631 C1637 0.950 . S
H1632 C1638 0.949 . S
C1633 H1628 0.950 . S
C1633 C1635 1.327 . S
C1633 C1639 1.429 . S
C1634 C1626 1.574 . S
C1634 H1629 0.949 . S
C1634 C1640 1.368 . S
C1635 C1619 1.349 . S
C1635 H1627 0.950 . S
C1635 C1633 1.327 . S
C1636 C1624 1.349 . S
C1636 H1630 0.950 . S
C1636 C1637 1.327 1_655 S
C1637 H1631 0.950 . S
C1637 C1636 1.327 1_455 S
C1637 C1641 1.429 . S
C1638 C1621 1.574 . S
C1638 H1632 0.949 . S
C1638 C1642 1.368 . S
C1639 C1620 1.429 . S
C1639 C1633 1.429 . S
C1639 C1640 1.523 . S
C1640 C1621 1.368 . S
C1640 C1634 1.368 . S
C1640 C1639 1.523 . S
C1641 C1625 1.429 1_455 S
C1641 C1637 1.429 . S
C1641 C1642 1.523 . S
C1642 C1626 1.368 . S
C1642 C1638 1.368 . S
C1642 C1641 1.523 . S
H1643 C1618 0.950 . S
H1644 C1620 0.950 . S
H1645 C1621 0.949 . S
H1646 C1623 0.950 . S
H1647 C1625 0.950 . S
C1648 C1649 1.349 . S
C1648 C1650 1.327 . S
C1648 H1673 0.950 . S
C1649 C1648 1.349 . S
C1649 C1665 1.349 . S
C1650 C1648 1.327 . S
C1650 C1669 1.429 . S
C1650 H1674 0.950 . S
C1651 C1668 1.574 . S
C1651 C1670 1.368 . S
C1651 H1675 0.949 . S
H1652 C1656 0.949 . S
C1653 C1654 1.349 . S
C1653 C1655 1.327 . S
C1653 H1676 0.950 . S
C1654 C1653 1.349 . S
C1654 C1666 1.349 . S
C1655 C1653 1.327 . S
C1655 C1671 1.429 . S
C1655 H1677 0.950 . S
C1656 H1652 0.949 . S
C1656 C1664 1.574 . S
C1656 C1672 1.368 . S
H1657 C1665 0.950 . S
H1658 C1663 0.950 . S
H1659 C1664 0.949 . S
H1660 C1666 0.950 . S
H1661 C1667 0.950 . S
H1662 C1668 0.949 . S
C1663 H1658 0.950 . S
C1663 C1665 1.327 . S
C1663 C1669 1.429 . S
C1664 C1656 1.574 . S
C1664 H1659 0.949 . S
C1664 C1670 1.368 . S
C1665 C1649 1.349 . S
C1665 H1657 0.950 . S
C1665 C1663 1.327 . S
C1666 C1654 1.349 . S
C1666 H1660 0.950 . S
C1666 C1667 1.327 . S
C1667 H1661 0.950 . S
C1667 C1666 1.327 . S
C1667 C1671 1.429 . S
C1668 C1651 1.574 . S
C1668 H1662 0.949 . S
C1668 C1672 1.368 . S
C1669 C1650 1.429 . S
C1669 C1663 1.429 . S
C1669 C1670 1.523 . S
C1670 C1651 1.368 . S
C1670 C1664 1.368 . S
C1670 C1669 1.523 . S
C1671 C1655 1.429 . S
C1671 C1667 1.429 . S
C1671 C1672 1.523 . S
C1672 C1656 1.368 . S
C1672 C1668 1.368 . S
C1672 C1671 1.523 . S
H1673 C1648 0.950 . S
H1674 C1650 0.950 . S
H1675 C1651 0.949 . S
H1676 C1653 0.950 . S
H1677 C1655 0.950 . S
C1678 C1679 1.349 . S
C1678 C1680 1.327 1_455 S
C1678 H1703 0.950 . S
C1679 C1678 1.349 . S
C1679 C1695 1.349 . S
C1680 C1678 1.327 1_655 S
C1680 C1699 1.429 . S
C1680 H1704 0.950 . S
C1681 C1698 1.574 . S
C1681 C1700 1.368 . S
C1681 H1705 0.949 . S
H1682 C1686 0.949 . S
C1683 C1684 1.349 . S
C1683 C1685 1.327 . S
C1683 H1706 0.950 . S
C1684 C1683 1.349 . S
C1684 C1696 1.349 . S
C1685 C1683 1.327 . S
C1685 C1701 1.429 . S
C1685 H1707 0.950 . S
C1686 H1682 0.949 . S
C1686 C1694 1.574 . S
C1686 C1702 1.368 . S
H1687 C1695 0.950 . S
H1688 C1693 0.950 . S
H1689 C1694 0.949 . S
H1690 C1696 0.950 . S
H1691 C1697 0.950 . S
H1692 C1698 0.949 . S
C1693 H1688 0.950 . S
C1693 C1695 1.327 1_655 S
C1693 C1699 1.429 . S
C1694 C1686 1.574 . S
C1694 H1689 0.949 . S
C1694 C1700 1.368 . S
C1695 C1679 1.349 . S
C1695 H1687 0.950 . S
C1695 C1693 1.327 1_455 S
C1696 C1684 1.349 . S
C1696 H1690 0.950 . S
C1696 C1697 1.327 . S
C1697 H1691 0.950 . S
C1697 C1696 1.327 . S
C1697 C1701 1.429 . S
C1698 C1681 1.574 . S
C1698 H1692 0.949 . S
C1698 C1702 1.368 . S
C1699 C1680 1.429 . S
C1699 C1693 1.429 . S
C1699 C1700 1.523 . S
C1700 C1681 1.368 . S
C1700 C1694 1.368 . S
C1700 C1699 1.523 . S
C1701 C1685 1.429 . S
C1701 C1697 1.429 . S
C1701 C1702 1.523 . S
C1702 C1686 1.368 . S
C1702 C1698 1.368 . S
C1702 C1701 1.523 . S
H1703 C1678 0.950 . S
H1704 C1680 0.950 . S
H1705 C1681 0.949 . S
H1706 C1683 0.950 . S
H1707 C1685 0.950 . S
C1708 C1709 1.349 . S
C1708 C1710 1.327 . S
C1708 H1733 0.950 . S
C1709 C1708 1.349 . S
C1709 C1725 1.349 . S
C1710 C1708 1.327 . S
C1710 C1729 1.429 . S
C1710 H1734 0.950 . S
C1711 C1728 1.574 . S
C1711 C1730 1.368 . S
C1711 H1735 0.949 . S
H1712 C1716 0.949 . S
C1713 C1714 1.349 . S
C1713 C1715 1.327 . S
C1713 H1736 0.950 . S
C1714 C1713 1.349 . S
C1714 C1726 1.349 . S
C1715 C1713 1.327 . S
C1715 C1731 1.429 . S
C1715 H1737 0.950 . S
C1716 H1712 0.949 . S
C1716 C1724 1.574 . S
C1716 C1732 1.368 . S
H1717 C1725 0.950 . S
H1718 C1723 0.950 . S
H1719 C1724 0.949 . S
H1720 C1726 0.950 . S
H1721 C1727 0.950 . S
H1722 C1728 0.949 . S
C1723 H1718 0.950 . S
C1723 C1725 1.327 . S
C1723 C1729 1.429 . S
C1724 C1716 1.574 . S
C1724 H1719 0.949 . S
C1724 C1730 1.368 . S
C1725 C1709 1.349 . S
C1725 H1717 0.950 . S
C1725 C1723 1.327 . S
C1726 C1714 1.349 . S
C1726 H1720 0.950 . S
C1726 C1727 1.327 . S
C1727 H1721 0.950 . S
C1727 C1726 1.327 . S
C1727 C1731 1.429 . S
C1728 C1711 1.574 . S
C1728 H1722 0.949 . S
C1728 C1732 1.368 . S
C1729 C1710 1.429 . S
C1729 C1723 1.429 . S
C1729 C1730 1.523 . S
C1730 C1711 1.368 . S
C1730 C1724 1.368 . S
C1730 C1729 1.523 . S
C1731 C1715 1.429 . S
C1731 C1727 1.429 . S
C1731 C1732 1.523 . S
C1732 C1716 1.368 . S
C1732 C1728 1.368 . S
C1732 C1731 1.523 . S
H1733 C1708 0.950 . S
H1734 C1710 0.950 . S
H1735 C1711 0.949 . S
H1736 C1713 0.950 . S
H1737 C1715 0.950 . S
C1738 C1739 1.349 . S
C1738 C1740 1.327 . S
C1738 H1763 0.950 . S
C1739 C1738 1.349 . S
C1739 C1755 1.349 . S
C1740 C1738 1.327 . S
C1740 C1759 1.429 . S
C1740 H1764 0.950 . S
C1741 C1758 1.574 . S
C1741 C1760 1.368 . S
C1741 H1765 0.949 . S
H1742 C1746 0.949 . S
C1743 C1744 1.349 . S
C1743 C1745 1.327 . S
C1743 H1766 0.950 . S
C1744 C1743 1.349 . S
C1744 C1756 1.349 . S
C1745 C1743 1.327 . S
C1745 C1761 1.429 . S
C1745 H1767 0.950 . S
C1746 H1742 0.949 . S
C1746 C1754 1.574 . S
C1746 C1762 1.368 . S
H1747 C1755 0.950 . S
H1748 C1753 0.950 . S
H1749 C1754 0.949 . S
H1750 C1756 0.950 . S
H1751 C1757 0.950 . S
H1752 C1758 0.949 . S
C1753 H1748 0.950 . S
C1753 C1755 1.327 . S
C1753 C1759 1.429 . S
C1754 C1746 1.574 . S
C1754 H1749 0.949 . S
C1754 C1760 1.368 . S
C1755 C1739 1.349 . S
C1755 H1747 0.950 . S
C1755 C1753 1.327 . S
C1756 C1744 1.349 . S
C1756 H1750 0.950 . S
C1756 C1757 1.327 . S
C1757 H1751 0.950 . S
C1757 C1756 1.327 . S
C1757 C1761 1.429 . S
C1758 C1741 1.574 . S
C1758 H1752 0.949 . S
C1758 C1762 1.368 . S
C1759 C1740 1.429 . S
C1759 C1753 1.429 . S
C1759 C1760 1.523 . S
C1760 C1741 1.368 . S
C1760 C1754 1.368 . S
C1760 C1759 1.523 . S
C1761 C1745 1.429 . S
C1761 C1757 1.429 . S
C1761 C1762 1.523 . S
C1762 C1746 1.368 . S
C1762 C1758 1.368 . S
C1762 C1761 1.523 . S
H1763 C1738 0.950 . S
H1764 C1740 0.950 . S
H1765 C1741 0.949 . S
H1766 C1743 0.950 . S
H1767 C1745 0.950 . S
C1768 C1769 1.349 . S
C1768 C1770 1.327 . S
C1768 H1793 0.950 . S
C1769 C1768 1.349 . S
C1769 C1785 1.349 . S
C1770 C1768 1.327 . S
C1770 C1789 1.429 . S
C1770 H1794 0.950 . S
C1771 C1788 1.574 . S
C1771 C1790 1.368 . S
C1771 H1795 0.949 . S
H1772 C1776 0.949 . S
C1773 C1774 1.349 . S
C1773 C1775 1.327 . S
C1773 H1796 0.950 . S
C1774 C1773 1.349 . S
C1774 C1786 1.349 . S
C1775 C1773 1.327 . S
C1775 C1791 1.429 . S
C1775 H1797 0.950 . S
C1776 H1772 0.949 . S
C1776 C1784 1.574 . S
C1776 C1792 1.368 . S
H1777 C1785 0.950 . S
H1778 C1783 0.950 . S
H1779 C1784 0.949 . S
H1780 C1786 0.950 . S
H1781 C1787 0.950 . S
H1782 C1788 0.949 . S
C1783 H1778 0.950 . S
C1783 C1785 1.327 . S
C1783 C1789 1.429 . S
C1784 C1776 1.574 . S
C1784 H1779 0.949 . S
C1784 C1790 1.368 . S
C1785 C1769 1.349 . S
C1785 H1777 0.950 . S
C1785 C1783 1.327 . S
C1786 C1774 1.349 . S
C1786 H1780 0.950 . S
C1786 C1787 1.327 . S
C1787 H1781 0.950 . S
C1787 C1786 1.327 . S
C1787 C1791 1.429 . S
C1788 C1771 1.574 . S
C1788 H1782 0.949 . S
C1788 C1792 1.368 . S
C1789 C1770 1.429 . S
C1789 C1783 1.429 . S
C1789 C1790 1.523 . S
C1790 C1771 1.368 . S
C1790 C1784 1.368 . S
C1790 C1789 1.523 . S
C1791 C1775 1.429 . S
C1791 C1787 1.429 . S
C1791 C1792 1.523 . S
C1792 C1776 1.368 . S
C1792 C1788 1.368 . S
C1792 C1791 1.523 . S
H1793 C1768 0.950 . S
H1794 C1770 0.950 . S
H1795 C1771 0.949 . S
H1796 C1773 0.950 . S
H1797 C1775 0.950 . S
C1798 C1799 1.349 . S
C1798 C1800 1.327 . S
C1798 H1823 0.950 . S
C1799 C1798 1.349 . S
C1799 C1815 1.349 . S
C1800 C1798 1.327 . S
C1800 C1819 1.429 . S
C1800 H1824 0.950 . S
C1801 C1818 1.574 . S
C1801 C1820 1.368 . S
C1801 H1825 0.949 . S
H1802 C1806 0.949 . S
C1803 C1804 1.349 . S
C1803 C1805 1.327 . S
C1803 H1826 0.950 . S
C1804 C1803 1.349 . S
C1804 C1816 1.349 . S
C1805 C1803 1.327 . S
C1805 C1821 1.429 . S
C1805 H1827 0.950 . S
C1806 H1802 0.949 . S
C1806 C1814 1.574 . S
C1806 C1822 1.368 . S
H1807 C1815 0.950 . S
H1808 C1813 0.950 . S
H1809 C1814 0.949 . S
H1810 C1816 0.950 . S
H1811 C1817 0.950 . S
H1812 C1818 0.949 . S
C1813 H1808 0.950 . S
C1813 C1815 1.327 . S
C1813 C1819 1.429 . S
C1814 C1806 1.574 . S
C1814 H1809 0.949 . S
C1814 C1820 1.368 . S
C1815 C1799 1.349 . S
C1815 H1807 0.950 . S
C1815 C1813 1.327 . S
C1816 C1804 1.349 . S
C1816 H1810 0.950 . S
C1816 C1817 1.327 . S
C1817 H1811 0.950 . S
C1817 C1816 1.327 . S
C1817 C1821 1.429 . S
C1818 C1801 1.574 . S
C1818 H1812 0.949 . S
C1818 C1822 1.368 . S
C1819 C1800 1.429 . S
C1819 C1813 1.429 . S
C1819 C1820 1.523 . S
C1820 C1801 1.368 . S
C1820 C1814 1.368 . S
C1820 C1819 1.523 . S
C1821 C1805 1.429 . S
C1821 C1817 1.429 . S
C1821 C1822 1.523 . S
C1822 C1806 1.368 . S
C1822 C1818 1.368 . S
C1822 C1821 1.523 . S
H1823 C1798 0.950 . S
H1824 C1800 0.950 . S
H1825 C1801 0.949 . S
H1826 C1803 0.950 . S
H1827 C1805 0.950 . S
C1828 C1829 1.349 . S
C1828 C1830 1.327 . S
C1828 H1853 0.950 . S
C1829 C1828 1.349 . S
C1829 C1845 1.349 . S
C1830 C1828 1.327 . S
C1830 C1849 1.429 . S
C1830 H1854 0.950 . S
C1831 C1848 1.574 . S
C1831 C1850 1.368 . S
C1831 H1855 0.949 . S
H1832 C1836 0.949 . S
C1833 C1834 1.349 . S
C1833 C1835 1.327 . S
C1833 H1856 0.950 . S
C1834 C1833 1.349 . S
C1834 C1846 1.349 . S
C1835 C1833 1.327 . S
C1835 C1851 1.429 . S
C1835 H1857 0.950 . S
C1836 H1832 0.949 . S
C1836 C1844 1.574 . S
C1836 C1852 1.368 . S
H1837 C1845 0.950 . S
H1838 C1843 0.950 . S
H1839 C1844 0.949 . S
H1840 C1846 0.950 . S
H1841 C1847 0.950 . S
H1842 C1848 0.949 . S
C1843 H1838 0.950 . S
C1843 C1845 1.327 . S
C1843 C1849 1.429 . S
C1844 C1836 1.574 . S
C1844 H1839 0.949 . S
C1844 C1850 1.368 . S
C1845 C1829 1.349 . S
C1845 H1837 0.950 . S
C1845 C1843 1.327 . S
C1846 C1834 1.349 . S
C1846 H1840 0.950 . S
C1846 C1847 1.327 . S
C1847 H1841 0.950 . S
C1847 C1846 1.327 . S
C1847 C1851 1.429 . S
C1848 C1831 1.574 . S
C1848 H1842 0.949 . S
C1848 C1852 1.368 . S
C1849 C1830 1.429 . S
C1849 C1843 1.429 . S
C1849 C1850 1.523 . S
C1850 C1831 1.368 . S
C1850 C1844 1.368 . S
C1850 C1849 1.523 . S
C1851 C1835 1.429 . S
C1851 C1847 1.429 . S
C1851 C1852 1.523 . S
C1852 C1836 1.368 . S
C1852 C1848 1.368 . S
C1852 C1851 1.523 . S
H1853 C1828 0.950 . S
H1854 C1830 0.950 . S
H1855 C1831 0.949 . S
H1856 C1833 0.950 . S
H1857 C1835 0.950 . S
C1858 C1859 1.349 . S
C1858 C1860 1.327 . S
C1858 H1883 0.950 . S
C1859 C1858 1.349 . S
C1859 C1875 1.349 . S
C1860 C1858 1.327 . S
C1860 C1879 1.429 1_455 S
C1860 H1884 0.950 1_455 S
C1861 C1878 1.574 . S
C1861 C1880 1.368 . S
C1861 H1885 0.949 . S
H1862 C1866 0.949 . S
C1863 C1864 1.349 . S
C1863 C1865 1.327 . S
C1863 H1886 0.950 . S
C1864 C1863 1.349 . S
C1864 C1876 1.349 . S
C1865 C1863 1.327 . S
C1865 C1881 1.429 . S
C1865 H1887 0.950 . S
C1866 H1862 0.949 . S
C1866 C1874 1.574 . S
C1866 C1882 1.368 . S
H1867 C1875 0.950 . S
H1868 C1873 0.950 . S
H1869 C1874 0.949 . S
H1870 C1876 0.950 . S
H1871 C1877 0.950 . S
H1872 C1878 0.949 . S
C1873 H1868 0.950 . S
C1873 C1875 1.327 1_655 S
C1873 C1879 1.429 . S
C1874 C1866 1.574 . S
C1874 H1869 0.949 . S
C1874 C1880 1.368 . S
C1875 C1859 1.349 . S
C1875 H1867 0.950 . S
C1875 C1873 1.327 1_455 S
C1876 C1864 1.349 . S
C1876 H1870 0.950 . S
C1876 C1877 1.327 . S
C1877 H1871 0.950 . S
C1877 C1876 1.327 . S
C1877 C1881 1.429 . S
C1878 C1861 1.574 . S
C1878 H1872 0.949 . S
C1878 C1882 1.368 . S
C1879 C1860 1.429 1_655 S
C1879 C1873 1.429 . S
C1879 C1880 1.523 . S
C1880 C1861 1.368 . S
C1880 C1874 1.368 . S
C1880 C1879 1.523 . S
C1881 C1865 1.429 . S
C1881 C1877 1.429 . S
C1881 C1882 1.523 . S
C1882 C1866 1.368 . S
C1882 C1878 1.368 . S
C1882 C1881 1.523 . S
H1883 C1858 0.950 . S
H1884 C1860 0.950 1_655 S
H1885 C1861 0.949 . S
H1886 C1863 0.950 . S
H1887 C1865 0.950 . S
C1888 C1889 1.349 . S
C1888 C1890 1.327 . S
C1888 H1913 0.950 . S
C1889 C1888 1.349 . S
C1889 C1905 1.349 . S
C1890 C1888 1.327 . S
C1890 C1909 1.429 . S
C1890 H1914 0.950 . S
C1891 C1908 1.574 . S
C1891 C1910 1.368 . S
C1891 H1915 0.949 . S
H1892 C1896 0.949 . S
C1893 C1894 1.349 . S
C1893 C1895 1.327 . S
C1893 H1916 0.950 . S
C1894 C1893 1.349 . S
C1894 C1906 1.349 . S
C1895 C1893 1.327 . S
C1895 C1911 1.429 . S
C1895 H1917 0.950 . S
C1896 H1892 0.949 . S
C1896 C1904 1.574 . S
C1896 C1912 1.368 . S
H1897 C1905 0.950 . S
H1898 C1903 0.950 . S
H1899 C1904 0.949 . S
H1900 C1906 0.950 . S
H1901 C1907 0.950 . S
H1902 C1908 0.949 . S
C1903 H1898 0.950 . S
C1903 C1905 1.327 . S
C1903 C1909 1.429 . S
C1904 C1896 1.574 . S
C1904 H1899 0.949 . S
C1904 C1910 1.368 . S
C1905 C1889 1.349 . S
C1905 H1897 0.950 . S
C1905 C1903 1.327 . S
C1906 C1894 1.349 . S
C1906 H1900 0.950 . S
C1906 C1907 1.327 . S
C1907 H1901 0.950 . S
C1907 C1906 1.327 . S
C1907 C1911 1.429 . S
C1908 C1891 1.574 . S
C1908 H1902 0.949 . S
C1908 C1912 1.368 . S
C1909 C1890 1.429 . S
C1909 C1903 1.429 . S
C1909 C1910 1.523 . S
C1910 C1891 1.368 . S
C1910 C1904 1.368 . S
C1910 C1909 1.523 . S
C1911 C1895 1.429 . S
C1911 C1907 1.429 . S
C1911 C1912 1.523 . S
C1912 C1896 1.368 . S
C1912 C1908 1.368 . S
C1912 C1911 1.523 . S
H1913 C1888 0.950 . S
H1914 C1890 0.950 . S
H1915 C1891 0.949 . S
H1916 C1893 0.950 . S
H1917 C1895 0.950 . S
C1918 C1919 1.349 . S
C1918 C1920 1.327 . S
C1918 H1943 0.950 . S
C1919 C1918 1.349 . S
C1919 C1935 1.349 . S
C1920 C1918 1.327 . S
C1920 C1939 1.429 . S
C1920 H1944 0.950 . S
C1921 C1938 1.574 . S
C1921 C1940 1.368 . S
C1921 H1945 0.949 . S
H1922 C1926 0.949 . S
C1923 C1924 1.349 . S
C1923 C1925 1.327 . S
C1923 H1946 0.950 . S
C1924 C1923 1.349 . S
C1924 C1936 1.349 . S
C1925 C1923 1.327 . S
C1925 C1941 1.429 . S
C1925 H1947 0.950 . S
C1926 H1922 0.949 . S
C1926 C1934 1.574 . S
C1926 C1942 1.368 . S
H1927 C1935 0.950 . S
H1928 C1933 0.950 . S
H1929 C1934 0.949 . S
H1930 C1936 0.950 . S
H1931 C1937 0.950 . S
H1932 C1938 0.949 . S
C1933 H1928 0.950 . S
C1933 C1935 1.327 . S
C1933 C1939 1.429 . S
C1934 C1926 1.574 . S
C1934 H1929 0.949 . S
C1934 C1940 1.368 . S
C1935 C1919 1.349 . S
C1935 H1927 0.950 . S
C1935 C1933 1.327 . S
C1936 C1924 1.349 . S
C1936 H1930 0.950 . S
C1936 C1937 1.327 . S
C1937 H1931 0.950 . S
C1937 C1936 1.327 . S
C1937 C1941 1.429 . S
C1938 C1921 1.574 . S
C1938 H1932 0.949 . S
C1938 C1942 1.368 . S
C1939 C1920 1.429 . S
C1939 C1933 1.429 . S
C1939 C1940 1.523 . S
C1940 C1921 1.368 . S
C1940 C1934 1.368 . S
C1940 C1939 1.523 . S
C1941 C1925 1.429 . S
C1941 C1937 1.429 . S
C1941 C1942 1.523 . S
C1942 C1926 1.368 . S
C1942 C1938 1.368 . S
C1942 C1941 1.523 . S
H1943 C1918 0.950 . S
H1944 C1920 0.950 . S
H1945 C1921 0.949 . S
H1946 C1923 0.950 . S
H1947 C1925 0.950 . S
C1948 C1949 1.349 . S
C1948 C1950 1.327 . S
C1948 H1973 0.950 . S
C1949 C1948 1.349 . S
C1949 C1965 1.349 . S
C1950 C1948 1.327 . S
C1950 C1969 1.429 . S
C1950 H1974 0.950 . S
C1951 C1968 1.574 . S
C1951 C1970 1.368 . S
C1951 H1975 0.949 . S
H1952 C1956 0.949 . S
C1953 C1954 1.349 . S
C1953 C1955 1.327 . S
C1953 H1976 0.950 . S
C1954 C1953 1.349 . S
C1954 C1966 1.349 . S
C1955 C1953 1.327 . S
C1955 C1971 1.429 . S
C1955 H1977 0.950 . S
C1956 H1952 0.949 . S
C1956 C1964 1.574 . S
C1956 C1972 1.368 . S
H1957 C1965 0.950 . S
H1958 C1963 0.950 . S
H1959 C1964 0.949 . S
H1960 C1966 0.950 . S
H1961 C1967 0.950 . S
H1962 C1968 0.949 . S
C1963 H1958 0.950 . S
C1963 C1965 1.327 . S
C1963 C1969 1.429 . S
C1964 C1956 1.574 . S
C1964 H1959 0.949 . S
C1964 C1970 1.368 . S
C1965 C1949 1.349 . S
C1965 H1957 0.950 . S
C1965 C1963 1.327 . S
C1966 C1954 1.349 . S
C1966 H1960 0.950 . S
C1966 C1967 1.327 . S
C1967 H1961 0.950 . S
C1967 C1966 1.327 . S
C1967 C1971 1.429 . S
C1968 C1951 1.574 . S
C1968 H1962 0.949 . S
C1968 C1972 1.368 . S
C1969 C1950 1.429 . S
C1969 C1963 1.429 . S
C1969 C1970 1.523 . S
C1970 C1951 1.368 . S
C1970 C1964 1.368 . S
C1970 C1969 1.523 . S
C1971 C1955 1.429 . S
C1971 C1967 1.429 . S
C1971 C1972 1.523 . S
C1972 C1956 1.368 . S
C1972 C1968 1.368 . S
C1972 C1971 1.523 . S
H1973 C1948 0.950 . S
H1974 C1950 0.950 . S
H1975 C1951 0.949 . S
H1976 C1953 0.950 . S
H1977 C1955 0.950 . S
C1978 C1979 1.349 . S
C1978 C1980 1.327 . S
C1978 H2003 0.950 . S
C1979 C1978 1.349 . S
C1979 C1995 1.349 . S
C1980 C1978 1.327 . S
C1980 C1999 1.429 . S
C1980 H2004 0.950 . S
C1981 C1998 1.574 . S
C1981 C2000 1.368 . S
C1981 H2005 0.949 . S
H1982 C1986 0.949 . S
C1983 C1984 1.349 . S
C1983 C1985 1.327 1_455 S
C1983 H2006 0.950 . S
C1984 C1983 1.349 . S
C1984 C1996 1.349 . S
C1985 C1983 1.327 1_655 S
C1985 C2001 1.429 . S
C1985 H2007 0.950 . S
C1986 H1982 0.949 . S
C1986 C1994 1.574 . S
C1986 C2002 1.368 . S
H1987 C1995 0.950 . S
H1988 C1993 0.950 . S
H1989 C1994 0.949 . S
H1990 C1996 0.950 . S
H1991 C1997 0.955 . S
H1992 C1998 0.949 . S
C1993 H1988 0.950 . S
C1993 C1995 1.327 . S
C1993 C1999 1.429 . S
C1994 C1986 1.574 . S
C1994 H1989 0.949 . S
C1994 C2000 1.368 . S
C1995 C1979 1.349 . S
C1995 H1987 0.950 . S
C1995 C1993 1.327 . S
C1996 C1984 1.349 . S
C1996 H1990 0.950 . S
C1996 C1997 1.327 . S
C1997 H1991 0.955 . S
C1997 C1996 1.327 . S
C1997 C2001 1.429 1_455 S
C1998 C1981 1.574 . S
C1998 H1992 0.949 . S
C1998 C2002 1.368 . S
C1999 C1980 1.429 . S
C1999 C1993 1.429 . S
C1999 C2000 1.523 . S
C2000 C1981 1.368 . S
C2000 C1994 1.368 . S
C2000 C1999 1.523 . S
C2001 C1985 1.429 . S
C2001 C1997 1.429 1_655 S
C2001 C2002 1.523 . S
C2002 C1986 1.368 . S
C2002 C1998 1.368 . S
C2002 C2001 1.523 . S
H2003 C1978 0.950 . S
H2004 C1980 0.950 . S
H2005 C1981 0.949 . S
H2006 C1983 0.950 . S
H2007 C1985 0.950 . S
C2008 C2009 1.349 . S
C2008 C2010 1.327 . S
C2008 H2033 0.950 . S
C2009 C2008 1.349 . S
C2009 C2025 1.349 . S
C2010 C2008 1.327 . S
C2010 C2029 1.429 . S
C2010 H2034 0.950 . S
C2011 C2028 1.574 . S
C2011 C2030 1.368 . S
C2011 H2035 0.949 . S
H2012 C2016 0.949 . S
C2013 C2014 1.349 . S
C2013 C2015 1.327 . S
C2013 H2036 0.950 . S
C2014 C2013 1.349 . S
C2014 C2026 1.349 . S
C2015 C2013 1.327 . S
C2015 C2031 1.429 . S
C2015 H2037 0.950 . S
C2016 H2012 0.949 . S
C2016 C2024 1.574 . S
C2016 C2032 1.368 . S
H2017 C2025 0.950 . S
H2018 C2023 0.950 . S
H2019 C2024 0.949 . S
H2020 C2026 0.950 . S
H2021 C2027 0.950 . S
H2022 C2028 0.949 . S
C2023 H2018 0.950 . S
C2023 C2025 1.327 . S
C2023 C2029 1.429 . S
C2024 C2016 1.574 . S
C2024 H2019 0.949 . S
C2024 C2030 1.368 . S
C2025 C2009 1.349 . S
C2025 H2017 0.950 . S
C2025 C2023 1.327 . S
C2026 C2014 1.349 . S
C2026 H2020 0.950 . S
C2026 C2027 1.327 . S
C2027 H2021 0.950 . S
C2027 C2026 1.327 . S
C2027 C2031 1.429 . S
C2028 C2011 1.574 . S
C2028 H2022 0.949 . S
C2028 C2032 1.368 . S
C2029 C2010 1.429 . S
C2029 C2023 1.429 . S
C2029 C2030 1.523 . S
C2030 C2011 1.368 . S
C2030 C2024 1.368 . S
C2030 C2029 1.523 . S
C2031 C2015 1.429 . S
C2031 C2027 1.429 . S
C2031 C2032 1.523 . S
C2032 C2016 1.368 . S
C2032 C2028 1.368 . S
C2032 C2031 1.523 . S
H2033 C2008 0.950 . S
H2034 C2010 0.950 . S
H2035 C2011 0.949 . S
H2036 C2013 0.950 . S
H2037 C2015 0.950 . S
C2038 C2039 1.349 . S
C2038 C2040 1.327 . S
C2038 H2063 0.950 . S
C2039 C2038 1.349 . S
C2039 C2055 1.349 . S
C2040 C2038 1.327 . S
C2040 C2059 1.429 1_455 S
C2040 H2064 0.950 . S
C2041 C2058 1.574 . S
C2041 C2060 1.368 . S
C2041 H2065 0.949 . S
H2042 C2046 0.949 . S
C2043 C2044 1.349 . S
C2043 C2045 1.327 . S
C2043 H2066 0.950 . S
C2044 C2043 1.349 . S
C2044 C2056 1.349 . S
C2045 C2043 1.327 . S
C2045 C2061 1.429 . S
C2045 H2067 0.950 . S
C2046 H2042 0.949 . S
C2046 C2054 1.574 . S
C2046 C2062 1.368 . S
H2047 C2055 0.950 . S
H2048 C2053 0.950 . S
H2049 C2054 0.949 . S
H2050 C2056 0.950 . S
H2051 C2057 0.950 . S
H2052 C2058 0.949 . S
C2053 H2048 0.950 . S
C2053 C2055 1.327 1_655 S
C2053 C2059 1.429 . S
C2054 C2046 1.574 . S
C2054 H2049 0.949 . S
C2054 C2060 1.368 . S
C2055 C2039 1.349 . S
C2055 H2047 0.950 . S
C2055 C2053 1.327 1_455 S
C2056 C2044 1.349 . S
C2056 H2050 0.950 . S
C2056 C2057 1.327 . S
C2057 H2051 0.950 . S
C2057 C2056 1.327 . S
C2057 C2061 1.429 . S
C2058 C2041 1.574 . S
C2058 H2052 0.949 . S
C2058 C2062 1.368 . S
C2059 C2040 1.429 1_655 S
C2059 C2053 1.429 . S
C2059 C2060 1.523 . S
C2060 C2041 1.368 . S
C2060 C2054 1.368 . S
C2060 C2059 1.523 . S
C2061 C2045 1.429 . S
C2061 C2057 1.429 . S
C2061 C2062 1.523 . S
C2062 C2046 1.368 . S
C2062 C2058 1.368 . S
C2062 C2061 1.523 . S
H2063 C2038 0.950 . S
H2064 C2040 0.950 . S
H2065 C2041 0.949 . S
H2066 C2043 0.950 . S
H2067 C2045 0.950 . S
C2068 C2069 1.349 . S
C2068 C2070 1.327 . S
C2068 H2093 0.950 . S
C2069 C2068 1.349 . S
C2069 C2085 1.349 . S
C2070 C2068 1.327 . S
C2070 C2089 1.429 . S
C2070 H2094 0.950 . S
C2071 C2088 1.574 . S
C2071 C2090 1.368 . S
C2071 H2095 0.949 . S
H2072 C2076 0.949 . S
C2073 C2074 1.349 . S
C2073 C2075 1.327 . S
C2073 H2096 0.950 . S
C2074 C2073 1.349 . S
C2074 C2086 1.349 . S
C2075 C2073 1.327 . S
C2075 C2091 1.429 . S
C2075 H2097 0.950 . S
C2076 H2072 0.949 . S
C2076 C2084 1.574 . S
C2076 C2092 1.368 . S
H2077 C2085 0.950 . S
H2078 C2083 0.950 . S
H2079 C2084 0.949 . S
H2080 C2086 0.950 . S
H2081 C2087 0.950 . S
H2082 C2088 0.949 . S
C2083 H2078 0.950 . S
C2083 C2085 1.327 . S
C2083 C2089 1.429 . S
C2084 C2076 1.574 . S
C2084 H2079 0.949 . S
C2084 C2090 1.368 . S
C2085 C2069 1.349 . S
C2085 H2077 0.950 . S
C2085 C2083 1.327 . S
C2086 C2074 1.349 . S
C2086 H2080 0.950 . S
C2086 C2087 1.327 . S
C2087 H2081 0.950 . S
C2087 C2086 1.327 . S
C2087 C2091 1.429 . S
C2088 C2071 1.574 . S
C2088 H2082 0.949 . S
C2088 C2092 1.368 . S
C2089 C2070 1.429 . S
C2089 C2083 1.429 . S
C2089 C2090 1.523 . S
C2090 C2071 1.368 . S
C2090 C2084 1.368 . S
C2090 C2089 1.523 . S
C2091 C2075 1.429 . S
C2091 C2087 1.429 . S
C2091 C2092 1.523 . S
C2092 C2076 1.368 . S
C2092 C2088 1.368 . S
C2092 C2091 1.523 . S
H2093 C2068 0.950 . S
H2094 C2070 0.950 . S
H2095 C2071 0.949 . S
H2096 C2073 0.950 . S
H2097 C2075 0.950 . S
C2098 C2099 1.349 . S
C2098 C2100 1.327 . S
C2098 H2123 0.950 . S
C2099 C2098 1.349 . S
C2099 C2115 1.349 . S
C2100 C2098 1.327 . S
C2100 C2119 1.429 . S
C2100 H2124 0.950 . S
C2101 C2118 1.574 . S
C2101 C2120 1.368 . S
C2101 H2125 0.949 . S
H2102 C2106 0.949 . S
C2103 C2104 1.349 . S
C2103 C2105 1.327 . S
C2103 H2126 0.950 . S
C2104 C2103 1.349 . S
C2104 C2116 1.349 . S
C2105 C2103 1.327 . S
C2105 C2121 1.429 . S
C2105 H2127 0.950 . S
C2106 H2102 0.949 . S
C2106 C2114 1.574 . S
C2106 C2122 1.368 . S
H2107 C2115 0.950 . S
H2108 C2113 0.950 . S
H2109 C2114 0.949 . S
H2110 C2116 0.950 . S
H2111 C2117 0.950 . S
H2112 C2118 0.949 . S
C2113 H2108 0.950 . S
C2113 C2115 1.327 . S
C2113 C2119 1.429 . S
C2114 C2106 1.574 . S
C2114 H2109 0.949 . S
C2114 C2120 1.368 . S
C2115 C2099 1.349 . S
C2115 H2107 0.950 . S
C2115 C2113 1.327 . S
C2116 C2104 1.349 . S
C2116 H2110 0.950 . S
C2116 C2117 1.327 . S
C2117 H2111 0.950 . S
C2117 C2116 1.327 . S
C2117 C2121 1.429 . S
C2118 C2101 1.574 . S
C2118 H2112 0.949 . S
C2118 C2122 1.368 . S
C2119 C2100 1.429 . S
C2119 C2113 1.429 . S
C2119 C2120 1.523 . S
C2120 C2101 1.368 . S
C2120 C2114 1.368 . S
C2120 C2119 1.523 . S
C2121 C2105 1.429 . S
C2121 C2117 1.429 . S
C2121 C2122 1.523 . S
C2122 C2106 1.368 . S
C2122 C2118 1.368 . S
C2122 C2121 1.523 . S
H2123 C2098 0.950 . S
H2124 C2100 0.950 . S
H2125 C2101 0.949 . S
H2126 C2103 0.950 . S
H2127 C2105 0.950 . S
C2128 C2129 1.349 . S
C2128 C2130 1.327 . S
C2128 H2153 0.950 . S
C2129 C2128 1.349 . S
C2129 C2145 1.349 . S
C2130 C2128 1.327 . S
C2130 C2149 1.429 . S
C2130 H2154 0.950 . S
C2131 C2148 1.574 . S
C2131 C2150 1.368 . S
C2131 H2155 0.949 . S
H2132 C2136 0.949 . S
C2133 C2134 1.349 . S
C2133 C2135 1.327 . S
C2133 H2156 0.950 . S
C2134 C2133 1.349 . S
C2134 C2146 1.349 . S
C2135 C2133 1.327 . S
C2135 C2151 1.429 . S
C2135 H2157 0.950 . S
C2136 H2132 0.949 . S
C2136 C2144 1.574 . S
C2136 C2152 1.368 . S
H2137 C2145 0.950 . S
H2138 C2143 0.950 . S
H2139 C2144 0.949 . S
H2140 C2146 0.950 . S
H2141 C2147 0.950 . S
H2142 C2148 0.949 . S
C2143 H2138 0.950 . S
C2143 C2145 1.327 . S
C2143 C2149 1.429 . S
C2144 C2136 1.574 . S
C2144 H2139 0.949 . S
C2144 C2150 1.368 . S
C2145 C2129 1.349 . S
C2145 H2137 0.950 . S
C2145 C2143 1.327 . S
C2146 C2134 1.349 . S
C2146 H2140 0.950 . S
C2146 C2147 1.327 . S
C2147 H2141 0.950 . S
C2147 C2146 1.327 . S
C2147 C2151 1.429 . S
C2148 C2131 1.574 . S
C2148 H2142 0.949 . S
C2148 C2152 1.368 . S
C2149 C2130 1.429 . S
C2149 C2143 1.429 . S
C2149 C2150 1.523 . S
C2150 C2131 1.368 . S
C2150 C2144 1.368 . S
C2150 C2149 1.523 . S
C2151 C2135 1.429 . S
C2151 C2147 1.429 . S
C2151 C2152 1.523 . S
C2152 C2136 1.368 . S
C2152 C2148 1.368 . S
C2152 C2151 1.523 . S
H2153 C2128 0.950 . S
H2154 C2130 0.950 . S
H2155 C2131 0.949 . S
H2156 C2133 0.950 . S
H2157 C2135 0.950 . S
C2158 C2159 1.349 . S
C2158 C2160 1.327 . S
C2158 H2183 0.950 . S
C2159 C2158 1.349 . S
C2159 C2175 1.349 . S
C2160 C2158 1.327 . S
C2160 C2179 1.429 . S
C2160 H2184 0.950 . S
C2161 C2178 1.574 . S
C2161 C2180 1.368 . S
C2161 H2185 0.949 . S
H2162 C2166 0.949 . S
C2163 C2164 1.349 . S
C2163 C2165 1.327 . S
C2163 H2186 0.950 . S
C2164 C2163 1.349 . S
C2164 C2176 1.349 . S
C2165 C2163 1.327 . S
C2165 C2181 1.429 . S
C2165 H2187 0.950 . S
C2166 H2162 0.949 . S
C2166 C2174 1.574 . S
C2166 C2182 1.368 . S
H2167 C2175 0.950 . S
H2168 C2173 0.950 . S
H2169 C2174 0.949 . S
H2170 C2176 0.950 . S
H2171 C2177 0.950 . S
H2172 C2178 0.949 . S
C2173 H2168 0.950 . S
C2173 C2175 1.327 . S
C2173 C2179 1.429 . S
C2174 C2166 1.574 . S
C2174 H2169 0.949 . S
C2174 C2180 1.368 . S
C2175 C2159 1.349 . S
C2175 H2167 0.950 . S
C2175 C2173 1.327 . S
C2176 C2164 1.349 . S
C2176 H2170 0.950 . S
C2176 C2177 1.327 . S
C2177 H2171 0.950 . S
C2177 C2176 1.327 . S
C2177 C2181 1.429 . S
C2178 C2161 1.574 . S
C2178 H2172 0.949 . S
C2178 C2182 1.368 . S
C2179 C2160 1.429 . S
C2179 C2173 1.429 . S
C2179 C2180 1.523 . S
C2180 C2161 1.368 . S
C2180 C2174 1.368 . S
C2180 C2179 1.523 . S
C2181 C2165 1.429 . S
C2181 C2177 1.429 . S
C2181 C2182 1.523 . S
C2182 C2166 1.368 . S
C2182 C2178 1.368 . S
C2182 C2181 1.523 . S
H2183 C2158 0.950 . S
H2184 C2160 0.950 . S
H2185 C2161 0.949 . S
H2186 C2163 0.950 . S
H2187 C2165 0.950 . S
C2188 C2189 1.349 . S
C2188 C2190 1.327 . S
C2188 H2213 0.950 . S
C2189 C2188 1.349 . S
C2189 C2205 1.349 . S
C2190 C2188 1.327 . S
C2190 C2209 1.429 . S
C2190 H2214 0.950 . S
C2191 C2208 1.574 . S
C2191 C2210 1.368 . S
C2191 H2215 0.949 . S
H2192 C2196 0.949 . S
C2193 C2194 1.349 . S
C2193 C2195 1.327 . S
C2193 H2216 0.950 . S
C2194 C2193 1.349 . S
C2194 C2206 1.349 . S
C2195 C2193 1.327 . S
C2195 C2211 1.429 . S
C2195 H2217 0.950 . S
C2196 H2192 0.949 . S
C2196 C2204 1.574 . S
C2196 C2212 1.368 . S
H2197 C2205 0.950 . S
H2198 C2203 0.950 . S
H2199 C2204 0.949 . S
H2200 C2206 0.950 . S
H2201 C2207 0.950 . S
H2202 C2208 0.949 . S
C2203 H2198 0.950 . S
C2203 C2205 1.327 . S
C2203 C2209 1.429 . S
C2204 C2196 1.574 . S
C2204 H2199 0.949 . S
C2204 C2210 1.368 . S
C2205 C2189 1.349 . S
C2205 H2197 0.950 . S
C2205 C2203 1.327 . S
C2206 C2194 1.349 . S
C2206 H2200 0.950 . S
C2206 C2207 1.327 . S
C2207 H2201 0.950 . S
C2207 C2206 1.327 . S
C2207 C2211 1.429 . S
C2208 C2191 1.574 . S
C2208 H2202 0.949 . S
C2208 C2212 1.368 . S
C2209 C2190 1.429 . S
C2209 C2203 1.429 . S
C2209 C2210 1.523 . S
C2210 C2191 1.368 . S
C2210 C2204 1.368 . S
C2210 C2209 1.523 . S
C2211 C2195 1.429 . S
C2211 C2207 1.429 . S
C2211 C2212 1.523 . S
C2212 C2196 1.368 . S
C2212 C2208 1.368 . S
C2212 C2211 1.523 . S
H2213 C2188 0.950 . S
H2214 C2190 0.950 . S
H2215 C2191 0.949 . S
H2216 C2193 0.950 . S
H2217 C2195 0.950 . S
C2218 C2219 1.349 . S
C2218 C2220 1.327 1_655 S
C2218 H2243 0.950 . S
C2219 C2218 1.349 . S
C2219 C2235 1.349 . S
C2220 C2218 1.327 1_455 S
C2220 C2239 1.429 . S
C2220 H2244 0.950 . S
C2221 C2238 1.574 . S
C2221 C2240 1.368 . S
C2221 H2245 0.949 . S
H2222 C2226 0.949 . S
C2223 C2224 1.349 . S
C2223 C2225 1.327 . S
C2223 H2246 0.950 . S
C2224 C2223 1.349 . S
C2224 C2236 1.349 . S
C2225 C2223 1.327 . S
C2225 C2241 1.429 . S
C2225 H2247 0.950 . S
C2226 H2222 0.949 . S
C2226 C2234 1.574 . S
C2226 C2242 1.368 . S
H2227 C2235 0.950 . S
H2228 C2233 0.950 . S
H2229 C2234 0.949 . S
H2230 C2236 0.950 . S
H2231 C2237 0.950 . S
H2232 C2238 0.949 . S
C2233 H2228 0.950 . S
C2233 C2235 1.327 1_455 S
C2233 C2239 1.429 . S
C2234 C2226 1.574 . S
C2234 H2229 0.949 . S
C2234 C2240 1.368 . S
C2235 C2219 1.349 . S
C2235 H2227 0.950 . S
C2235 C2233 1.327 1_655 S
C2236 C2224 1.349 . S
C2236 H2230 0.950 . S
C2236 C2237 1.327 . S
C2237 H2231 0.950 . S
C2237 C2236 1.327 . S
C2237 C2241 1.429 . S
C2238 C2221 1.574 . S
C2238 H2232 0.949 . S
C2238 C2242 1.368 . S
C2239 C2220 1.429 . S
C2239 C2233 1.429 . S
C2239 C2240 1.523 . S
C2240 C2221 1.368 . S
C2240 C2234 1.368 . S
C2240 C2239 1.523 . S
C2241 C2225 1.429 . S
C2241 C2237 1.429 . S
C2241 C2242 1.523 . S
C2242 C2226 1.368 . S
C2242 C2238 1.368 . S
C2242 C2241 1.523 . S
H2243 C2218 0.950 . S
H2244 C2220 0.950 . S
H2245 C2221 0.949 . S
H2246 C2223 0.950 . S
H2247 C2225 0.950 . S
C2248 C2249 1.349 . S
C2248 C2250 1.327 . S
C2248 H2273 0.950 . S
C2249 C2248 1.349 . S
C2249 C2265 1.349 . S
C2250 C2248 1.327 . S
C2250 C2269 1.429 . S
C2250 H2274 0.950 . S
C2251 C2268 1.574 . S
C2251 C2270 1.368 . S
C2251 H2275 0.949 . S
H2252 C2256 0.949 . S
C2253 C2254 1.349 . S
C2253 C2255 1.327 . S
C2253 H2276 0.950 . S
C2254 C2253 1.349 . S
C2254 C2266 1.349 . S
C2255 C2253 1.327 . S
C2255 C2271 1.429 . S
C2255 H2277 0.950 . S
C2256 H2252 0.949 . S
C2256 C2264 1.574 . S
C2256 C2272 1.368 . S
H2257 C2265 0.950 . S
H2258 C2263 0.950 . S
H2259 C2264 0.949 . S
H2260 C2266 0.950 . S
H2261 C2267 0.950 . S
H2262 C2268 0.949 . S
C2263 H2258 0.950 . S
C2263 C2265 1.327 . S
C2263 C2269 1.429 . S
C2264 C2256 1.574 . S
C2264 H2259 0.949 . S
C2264 C2270 1.368 . S
C2265 C2249 1.349 . S
C2265 H2257 0.950 . S
C2265 C2263 1.327 . S
C2266 C2254 1.349 . S
C2266 H2260 0.950 . S
C2266 C2267 1.327 . S
C2267 H2261 0.950 . S
C2267 C2266 1.327 . S
C2267 C2271 1.429 . S
C2268 C2251 1.574 . S
C2268 H2262 0.949 . S
C2268 C2272 1.368 . S
C2269 C2250 1.429 . S
C2269 C2263 1.429 . S
C2269 C2270 1.523 . S
C2270 C2251 1.368 . S
C2270 C2264 1.368 . S
C2270 C2269 1.523 . S
C2271 C2255 1.429 . S
C2271 C2267 1.429 . S
C2271 C2272 1.523 . S
C2272 C2256 1.368 . S
C2272 C2268 1.368 . S
C2272 C2271 1.523 . S
H2273 C2248 0.950 . S
H2274 C2250 0.950 . S
H2275 C2251 0.949 . S
H2276 C2253 0.950 . S
H2277 C2255 0.950 . S
C2278 C2279 1.349 . S
C2278 C2280 1.327 . S
C2278 H2303 0.950 . S
C2279 C2278 1.349 . S
C2279 C2295 1.349 . S
C2280 C2278 1.327 . S
C2280 C2299 1.429 . S
C2280 H2304 0.950 . S
C2281 C2298 1.574 . S
C2281 C2300 1.368 . S
C2281 H2305 0.949 . S
H2282 C2286 0.949 . S
C2283 C2284 1.349 . S
C2283 C2285 1.327 1_655 S
C2283 H2306 0.950 . S
C2284 C2283 1.349 . S
C2284 C2296 1.349 . S
C2285 C2283 1.327 1_455 S
C2285 C2301 1.429 . S
C2285 H2307 0.950 . S
C2286 H2282 0.949 . S
C2286 C2294 1.574 . S
C2286 C2302 1.368 . S
H2287 C2295 0.950 . S
H2288 C2293 0.950 . S
H2289 C2294 0.949 . S
H2290 C2296 0.950 . S
H2291 C2297 0.959 . S
H2292 C2298 0.949 . S
C2293 H2288 0.950 . S
C2293 C2295 1.327 . S
C2293 C2299 1.429 . S
C2294 C2286 1.574 . S
C2294 H2289 0.949 . S
C2294 C2300 1.368 . S
C2295 C2279 1.349 . S
C2295 H2287 0.950 . S
C2295 C2293 1.327 . S
C2296 C2284 1.349 . S
C2296 H2290 0.950 . S
C2296 C2297 1.297 1_655 S
C2297 H2291 0.959 . S
C2297 C2296 1.297 1_455 S
C2297 C2301 1.451 . S
C2298 C2281 1.574 . S
C2298 H2292 0.949 . S
C2298 C2302 1.368 . S
C2299 C2280 1.429 . S
C2299 C2293 1.429 . S
C2299 C2300 1.523 . S
C2300 C2281 1.368 . S
C2300 C2294 1.368 . S
C2300 C2299 1.523 . S
C2301 C2285 1.429 . S
C2301 C2297 1.451 . S
C2301 C2302 1.523 . S
C2302 C2286 1.368 . S
C2302 C2298 1.368 . S
C2302 C2301 1.523 . S
H2303 C2278 0.950 . S
H2304 C2280 0.950 . S
H2305 C2281 0.949 . S
H2306 C2283 0.950 . S
H2307 C2285 0.950 . S
C2308 C2309 1.349 . S
C2308 C2310 1.327 . S
C2308 H2333 0.950 . S
C2309 C2308 1.349 . S
C2309 C2325 1.349 . S
C2310 C2308 1.327 . S
C2310 C2329 1.429 . S
C2310 H2334 0.950 . S
C2311 C2328 1.574 . S
C2311 C2330 1.368 . S
C2311 H2335 0.949 . S
H2312 C2316 0.949 . S
C2313 C2314 1.349 . S
C2313 C2315 1.327 . S
C2313 H2336 0.950 . S
C2314 C2313 1.349 . S
C2314 C2326 1.349 . S
C2315 C2313 1.327 . S
C2315 C2331 1.429 . S
C2315 H2337 0.950 . S
C2316 H2312 0.949 . S
C2316 C2324 1.574 . S
C2316 C2332 1.368 . S
H2317 C2325 0.950 . S
H2318 C2323 0.950 . S
H2319 C2324 0.949 . S
H2320 C2326 0.950 . S
H2321 C2327 0.950 . S
H2322 C2328 0.949 . S
C2323 H2318 0.950 . S
C2323 C2325 1.327 . S
C2323 C2329 1.429 . S
C2324 C2316 1.574 . S
C2324 H2319 0.949 . S
C2324 C2330 1.368 . S
C2325 C2309 1.349 . S
C2325 H2317 0.950 . S
C2325 C2323 1.327 . S
C2326 C2314 1.349 . S
C2326 H2320 0.950 . S
C2326 C2327 1.327 . S
C2327 H2321 0.950 . S
C2327 C2326 1.327 . S
C2327 C2331 1.429 . S
C2328 C2311 1.574 . S
C2328 H2322 0.949 . S
C2328 C2332 1.368 . S
C2329 C2310 1.429 . S
C2329 C2323 1.429 . S
C2329 C2330 1.523 . S
C2330 C2311 1.368 . S
C2330 C2324 1.368 . S
C2330 C2329 1.523 . S
C2331 C2315 1.429 . S
C2331 C2327 1.429 . S
C2331 C2332 1.523 . S
C2332 C2316 1.368 . S
C2332 C2328 1.368 . S
C2332 C2331 1.523 . S
H2333 C2308 0.950 . S
H2334 C2310 0.950 . S
H2335 C2311 0.949 . S
H2336 C2313 0.950 . S
H2337 C2315 0.950 . S
C2338 C2339 1.349 . S
C2338 C2340 1.327 . S
C2338 H2363 0.950 . S
C2339 C2338 1.349 . S
C2339 C2355 1.349 . S
C2340 C2338 1.327 . S
C2340 C2359 1.429 . S
C2340 H2364 0.950 . S
C2341 C2358 1.574 . S
C2341 C2360 1.368 . S
C2341 H2365 0.949 . S
H2342 C2346 0.949 . S
C2343 C2344 1.349 . S
C2343 C2345 1.327 . S
C2343 H2366 0.950 . S
C2344 C2343 1.349 . S
C2344 C2356 1.349 . S
C2345 C2343 1.327 . S
C2345 C2361 1.429 . S
C2345 H2367 0.950 . S
C2346 H2342 0.949 . S
C2346 C2354 1.574 . S
C2346 C2362 1.368 . S
H2347 C2355 0.950 . S
H2348 C2353 0.950 . S
H2349 C2354 0.949 . S
H2350 C2356 0.950 . S
H2351 C2357 0.950 . S
H2352 C2358 0.949 . S
C2353 H2348 0.950 . S
C2353 C2355 1.327 . S
C2353 C2359 1.429 . S
C2354 C2346 1.574 . S
C2354 H2349 0.949 . S
C2354 C2360 1.368 . S
C2355 C2339 1.349 . S
C2355 H2347 0.950 . S
C2355 C2353 1.327 . S
C2356 C2344 1.349 . S
C2356 H2350 0.950 . S
C2356 C2357 1.327 . S
C2357 H2351 0.950 . S
C2357 C2356 1.327 . S
C2357 C2361 1.429 . S
C2358 C2341 1.574 . S
C2358 H2352 0.949 . S
C2358 C2362 1.368 . S
C2359 C2340 1.429 . S
C2359 C2353 1.429 . S
C2359 C2360 1.523 . S
C2360 C2341 1.368 . S
C2360 C2354 1.368 . S
C2360 C2359 1.523 . S
C2361 C2345 1.429 . S
C2361 C2357 1.429 . S
C2361 C2362 1.523 . S
C2362 C2346 1.368 . S
C2362 C2358 1.368 . S
C2362 C2361 1.523 . S
H2363 C2338 0.950 . S
H2364 C2340 0.950 . S
H2365 C2341 0.949 . S
H2366 C2343 0.950 . S
H2367 C2345 0.950 . S
C449 C67 1.511 . S
C454 C11 1.511 . S
C479 C81 1.511 . S
C484 C25 1.511 . S
C509 C95 1.511 . S
C514 C39 1.511 . S
C539 C53 1.511 . S
C544 C109 1.511 . S
C569 C123 1.511 . S
C574 C179 1.511 . S
C599 C193 1.511 . S
C604 C137 1.511 . S
C629 C151 1.511 . S
C634 C207 1.511 . S
C659 C221 1.511 . S
C664 C165 1.511 . S
C689 C235 1.511 . S
C694 C291 1.511 . S
C719 C305 1.511 . S
C724 C249 1.511 . S
C749 C319 1.511 . S
C754 C263 1.511 . S
C779 C333 1.511 . S
C784 C277 1.511 . S
C809 C347 1.511 . S
C814 C403 1.511 . S
C839 C361 1.511 . S
C844 C417 1.511 . S
C869 C375 1.511 . S
C874 C431 1.511 . S
C899 C389 1.511 . S
C904 C445 1.511 . S
C929 C9 1.209 . S
C934 C107 1.209 . S
C959 C23 1.209 . S
C964 C65 1.209 . S
C989 C37 1.209 . S
C994 C79 1.209 . S
C1019 C93 1.209 . S
C1024 C51 1.209 . S
C1049 C219 1.209 . S
C1054 C121 1.209 . S
C1079 C177 1.209 . S
C1084 C135 1.209 . S
C1109 C191 1.209 . S
C1114 C149 1.209 . S
C1139 C163 1.209 . S
C1144 C205 1.209 . S
C1169 C331 1.208 . S
C1174 C233 1.208 . S
C1199 C289 1.208 . S
C1204 C247 1.208 . S
C1229 C303 1.208 . S
C1234 C261 1.208 . S
C1259 C275 1.208 . S
C1264 C317 1.208 . S
C1289 C345 1.208 . S
C1294 C443 1.208 . S
C1319 C359 1.208 . S
C1324 C401 1.208 . S
C1349 C373 1.208 . S
C1354 C415 1.208 . S
C1379 C429 1.208 . S
C1384 C387 1.208 . S
C1409 C5 1.444 . S
C1414 C350 1.427 . S
C1439 C19 1.444 . S
C1444 C140 1.427 . S
C1469 C33 1.444 . S
C1474 C378 1.427 . S
C1499 C112 1.427 . S
C1504 C47 1.444 . S
C1529 C434 1.427 . S
C1534 C61 1.444 . S
C1559 C75 1.444 . S
C1564 C168 1.427 . S
C1589 C89 1.444 . S
C1594 C406 1.427 . S
C1619 C103 1.444 . S
C1624 C196 1.427 . S
C1649 C238 1.427 . S
C1654 C117 1.444 . S
C1679 C28 1.427 . S
C1684 C131 1.444 . S
C1709 C266 1.427 . S
C1714 C145 1.444 . S
C1739 C159 1.444 . S
C1744 C0 1.427 . S
C1769 C322 1.427 . S
C1774 C173 1.444 . S
C1799 C56 1.427 . S
C1804 C187 1.444 . S
C1829 C294 1.427 . S
C1834 C201 1.444 . S
C1859 C84 1.427 . S
C1864 C215 1.444 . S
C1889 C126 1.427 . S
C1894 C229 1.444 . S
C1919 C243 1.444 . S
C1924 C364 1.427 . S
C1949 C257 1.444 . S
C1954 C154 1.427 . S
C1979 C271 1.444 . S
C1984 C336 1.427 . S
C2009 C285 1.444 . S
C2014 C210 1.427 . S
C2039 C392 1.427 . S
C2044 C299 1.444 . S
C2069 C313 1.444 . S
C2074 C182 1.427 . S
C2099 C327 1.444 . S
C2104 C420 1.427 . S
C2129 C341 1.444 . S
C2134 C14 1.427 . S
C2159 C355 1.444 . S
C2164 C252 1.427 . S
C2189 C42 1.427 . S
C2194 C369 1.444 . S
C2219 C224 1.427 . S
C2224 C383 1.444 . S
C2249 C397 1.444 . S
C2254 C98 1.427 . S
C2279 C411 1.444 . S
C2284 C280 1.427 . S
C2309 C70 1.427 . S
C2314 C425 1.444 . S
C2339 C308 1.427 . S
C2344 C439 1.444 . S
