# Generated by pormake.
# Topology ukp, (4)-cn, num edge types: 1
# Building blocks:
#     Node 0, Type 0, BuildingBlock: QUQFOY_clean_sbu_3, # of connection points: 4
#     Node 1, Type 0, BuildingBlock: QUQFOY_clean_sbu_3, # of connection points: 4
#     Node 2, Type 0, BuildingBlock: QUQFOY_clean_sbu_3, # of connection points: 4
#     Node 3, Type 0, BuildingBlock: QUQFOY_clean_sbu_3, # of connection points: 4
#     Node 4, Type 0, BuildingBlock: QUQFOY_clean_sbu_3, # of connection points: 4
#     Node 5, Type 0, BuildingBlock: QUQFOY_clean_sbu_3, # of connection points: 4
#     Node 6, Type 0, BuildingBlock: QUQFOY_clean_sbu_3, # of connection points: 4
#     Node 7, Type 0, BuildingBlock: QUQFOY_clean_sbu_3, # of connection points: 4
#     Node 8, Type 0, BuildingBlock: QUQFOY_clean_sbu_3, # of connection points: 4
#     Node 9, Type 0, BuildingBlock: QUQFOY_clean_sbu_3, # of connection points: 4
#     Node 10, Type 0, BuildingBlock: QUQFOY_clean_sbu_3, # of connection points: 4
#     Node 11, Type 0, BuildingBlock: QUQFOY_clean_sbu_3, # of connection points: 4
#     Node 12, Type 0, BuildingBlock: QUQFOY_clean_sbu_3, # of connection points: 4
#     Node 13, Type 0, BuildingBlock: QUQFOY_clean_sbu_3, # of connection points: 4
#     Node 14, Type 0, BuildingBlock: QUQFOY_clean_sbu_3, # of connection points: 4
#     Node 15, Type 0, BuildingBlock: QUQFOY_clean_sbu_3, # of connection points: 4
#     Node 16, Type 0, BuildingBlock: QUQFOY_clean_sbu_3, # of connection points: 4
#     Node 17, Type 0, BuildingBlock: QUQFOY_clean_sbu_3, # of connection points: 4
#     Node 18, Type 0, BuildingBlock: QUQFOY_clean_sbu_3, # of connection points: 4
#     Node 19, Type 0, BuildingBlock: QUQFOY_clean_sbu_3, # of connection points: 4
#     Node 20, Type 0, BuildingBlock: QUQFOY_clean_sbu_3, # of connection points: 4
#     Node 21, Type 0, BuildingBlock: QUQFOY_clean_sbu_3, # of connection points: 4
#     Node 22, Type 0, BuildingBlock: QUQFOY_clean_sbu_3, # of connection points: 4
#     Node 23, Type 0, BuildingBlock: QUQFOY_clean_sbu_3, # of connection points: 4
#     Node 24, Type 0, BuildingBlock: QUQFOY_clean_sbu_3, # of connection points: 4
#     Node 25, Type 0, BuildingBlock: QUQFOY_clean_sbu_3, # of connection points: 4
#     Node 26, Type 0, BuildingBlock: QUQFOY_clean_sbu_3, # of connection points: 4
#     Node 27, Type 0, BuildingBlock: QUQFOY_clean_sbu_3, # of connection points: 4
#     Node 28, Type 0, BuildingBlock: QUQFOY_clean_sbu_3, # of connection points: 4
#     Node 29, Type 0, BuildingBlock: QUQFOY_clean_sbu_3, # of connection points: 4
#     Node 30, Type 0, BuildingBlock: QUQFOY_clean_sbu_3, # of connection points: 4
#     Node 31, Type 0, BuildingBlock: QUQFOY_clean_sbu_3, # of connection points: 4
#     Node 32, Type 0, BuildingBlock: QUQFOY_clean_sbu_3, # of connection points: 4
#     Node 33, Type 0, BuildingBlock: QUQFOY_clean_sbu_3, # of connection points: 4
#     Node 34, Type 0, BuildingBlock: QUQFOY_clean_sbu_3, # of connection points: 4
#     Node 35, Type 0, BuildingBlock: QUQFOY_clean_sbu_3, # of connection points: 4
#     Node 36, Type 0, BuildingBlock: QUQFOY_clean_sbu_3, # of connection points: 4
#     Node 37, Type 0, BuildingBlock: QUQFOY_clean_sbu_3, # of connection points: 4
#     Node 38, Type 0, BuildingBlock: QUQFOY_clean_sbu_3, # of connection points: 4
#     Node 39, Type 0, BuildingBlock: QUQFOY_clean_sbu_3, # of connection points: 4
#     Node 40, Type 0, BuildingBlock: QUQFOY_clean_sbu_3, # of connection points: 4
#     Node 41, Type 0, BuildingBlock: QUQFOY_clean_sbu_3, # of connection points: 4
#     Node 42, Type 0, BuildingBlock: QUQFOY_clean_sbu_3, # of connection points: 4
#     Node 43, Type 0, BuildingBlock: QUQFOY_clean_sbu_3, # of connection points: 4
#     Node 44, Type 0, BuildingBlock: QUQFOY_clean_sbu_3, # of connection points: 4
#     Node 45, Type 0, BuildingBlock: QUQFOY_clean_sbu_3, # of connection points: 4
#     Node 46, Type 0, BuildingBlock: QUQFOY_clean_sbu_3, # of connection points: 4
#     Node 47, Type 0, BuildingBlock: QUQFOY_clean_sbu_3, # of connection points: 4
#     Edge 48, Type (0, 0), BuildingBlock: AJUNOK_clean_linker_0, # of connection points: 2
#     Edge 49, Type (0, 0), BuildingBlock: AJUNOK_clean_linker_0, # of connection points: 2
#     Edge 50, Type (0, 0), BuildingBlock: AJUNOK_clean_linker_0, # of connection points: 2
#     Edge 51, Type (0, 0), BuildingBlock: AJUNOK_clean_linker_0, # of connection points: 2
#     Edge 52, Type (0, 0), BuildingBlock: AJUNOK_clean_linker_0, # of connection points: 2
#     Edge 53, Type (0, 0), BuildingBlock: AJUNOK_clean_linker_0, # of connection points: 2
#     Edge 54, Type (0, 0), BuildingBlock: AJUNOK_clean_linker_0, # of connection points: 2
#     Edge 55, Type (0, 0), BuildingBlock: AJUNOK_clean_linker_0, # of connection points: 2
#     Edge 56, Type (0, 0), BuildingBlock: AJUNOK_clean_linker_0, # of connection points: 2
#     Edge 57, Type (0, 0), BuildingBlock: AJUNOK_clean_linker_0, # of connection points: 2
#     Edge 58, Type (0, 0), BuildingBlock: AJUNOK_clean_linker_0, # of connection points: 2
#     Edge 59, Type (0, 0), BuildingBlock: AJUNOK_clean_linker_0, # of connection points: 2
#     Edge 60, Type (0, 0), BuildingBlock: AJUNOK_clean_linker_0, # of connection points: 2
#     Edge 61, Type (0, 0), BuildingBlock: AJUNOK_clean_linker_0, # of connection points: 2
#     Edge 62, Type (0, 0), BuildingBlock: AJUNOK_clean_linker_0, # of connection points: 2
#     Edge 63, Type (0, 0), BuildingBlock: AJUNOK_clean_linker_0, # of connection points: 2
#     Edge 64, Type (0, 0), BuildingBlock: AJUNOK_clean_linker_0, # of connection points: 2
#     Edge 65, Type (0, 0), BuildingBlock: AJUNOK_clean_linker_0, # of connection points: 2
#     Edge 66, Type (0, 0), BuildingBlock: AJUNOK_clean_linker_0, # of connection points: 2
#     Edge 67, Type (0, 0), BuildingBlock: AJUNOK_clean_linker_0, # of connection points: 2
#     Edge 68, Type (0, 0), BuildingBlock: AJUNOK_clean_linker_0, # of connection points: 2
#     Edge 69, Type (0, 0), BuildingBlock: AJUNOK_clean_linker_0, # of connection points: 2
#     Edge 70, Type (0, 0), BuildingBlock: AJUNOK_clean_linker_0, # of connection points: 2
#     Edge 71, Type (0, 0), BuildingBlock: AJUNOK_clean_linker_0, # of connection points: 2
#     Edge 72, Type (0, 0), BuildingBlock: AJUNOK_clean_linker_0, # of connection points: 2
#     Edge 73, Type (0, 0), BuildingBlock: AJUNOK_clean_linker_0, # of connection points: 2
#     Edge 74, Type (0, 0), BuildingBlock: AJUNOK_clean_linker_0, # of connection points: 2
#     Edge 75, Type (0, 0), BuildingBlock: AJUNOK_clean_linker_0, # of connection points: 2
#     Edge 76, Type (0, 0), BuildingBlock: AJUNOK_clean_linker_0, # of connection points: 2
#     Edge 77, Type (0, 0), BuildingBlock: AJUNOK_clean_linker_0, # of connection points: 2
#     Edge 78, Type (0, 0), BuildingBlock: AJUNOK_clean_linker_0, # of connection points: 2
#     Edge 79, Type (0, 0), BuildingBlock: AJUNOK_clean_linker_0, # of connection points: 2
#     Edge 80, Type (0, 0), BuildingBlock: AJUNOK_clean_linker_0, # of connection points: 2
#     Edge 81, Type (0, 0), BuildingBlock: AJUNOK_clean_linker_0, # of connection points: 2
#     Edge 82, Type (0, 0), BuildingBlock: AJUNOK_clean_linker_0, # of connection points: 2
#     Edge 83, Type (0, 0), BuildingBlock: AJUNOK_clean_linker_0, # of connection points: 2
#     Edge 84, Type (0, 0), BuildingBlock: AJUNOK_clean_linker_0, # of connection points: 2
#     Edge 85, Type (0, 0), BuildingBlock: AJUNOK_clean_linker_0, # of connection points: 2
#     Edge 86, Type (0, 0), BuildingBlock: AJUNOK_clean_linker_0, # of connection points: 2
#     Edge 87, Type (0, 0), BuildingBlock: AJUNOK_clean_linker_0, # of connection points: 2
#     Edge 88, Type (0, 0), BuildingBlock: AJUNOK_clean_linker_0, # of connection points: 2
#     Edge 89, Type (0, 0), BuildingBlock: AJUNOK_clean_linker_0, # of connection points: 2
#     Edge 90, Type (0, 0), BuildingBlock: AJUNOK_clean_linker_0, # of connection points: 2
#     Edge 91, Type (0, 0), BuildingBlock: AJUNOK_clean_linker_0, # of connection points: 2
#     Edge 92, Type (0, 0), BuildingBlock: AJUNOK_clean_linker_0, # of connection points: 2
#     Edge 93, Type (0, 0), BuildingBlock: AJUNOK_clean_linker_0, # of connection points: 2
#     Edge 94, Type (0, 0), BuildingBlock: AJUNOK_clean_linker_0, # of connection points: 2
#     Edge 95, Type (0, 0), BuildingBlock: AJUNOK_clean_linker_0, # of connection points: 2
#     Edge 96, Type (0, 0), BuildingBlock: AJUNOK_clean_linker_0, # of connection points: 2
#     Edge 97, Type (0, 0), BuildingBlock: AJUNOK_clean_linker_0, # of connection points: 2
#     Edge 98, Type (0, 0), BuildingBlock: AJUNOK_clean_linker_0, # of connection points: 2
#     Edge 99, Type (0, 0), BuildingBlock: AJUNOK_clean_linker_0, # of connection points: 2
#     Edge 100, Type (0, 0), BuildingBlock: AJUNOK_clean_linker_0, # of connection points: 2
#     Edge 101, Type (0, 0), BuildingBlock: AJUNOK_clean_linker_0, # of connection points: 2
#     Edge 102, Type (0, 0), BuildingBlock: AJUNOK_clean_linker_0, # of connection points: 2
#     Edge 103, Type (0, 0), BuildingBlock: AJUNOK_clean_linker_0, # of connection points: 2
#     Edge 104, Type (0, 0), BuildingBlock: AJUNOK_clean_linker_0, # of connection points: 2
#     Edge 105, Type (0, 0), BuildingBlock: AJUNOK_clean_linker_0, # of connection points: 2
#     Edge 106, Type (0, 0), BuildingBlock: AJUNOK_clean_linker_0, # of connection points: 2
#     Edge 107, Type (0, 0), BuildingBlock: AJUNOK_clean_linker_0, # of connection points: 2
#     Edge 108, Type (0, 0), BuildingBlock: AJUNOK_clean_linker_0, # of connection points: 2
#     Edge 109, Type (0, 0), BuildingBlock: AJUNOK_clean_linker_0, # of connection points: 2
#     Edge 110, Type (0, 0), BuildingBlock: AJUNOK_clean_linker_0, # of connection points: 2
#     Edge 111, Type (0, 0), BuildingBlock: AJUNOK_clean_linker_0, # of connection points: 2
#     Edge 112, Type (0, 0), BuildingBlock: AJUNOK_clean_linker_0, # of connection points: 2
#     Edge 113, Type (0, 0), BuildingBlock: AJUNOK_clean_linker_0, # of connection points: 2
#     Edge 114, Type (0, 0), BuildingBlock: AJUNOK_clean_linker_0, # of connection points: 2
#     Edge 115, Type (0, 0), BuildingBlock: AJUNOK_clean_linker_0, # of connection points: 2
#     Edge 116, Type (0, 0), BuildingBlock: AJUNOK_clean_linker_0, # of connection points: 2
#     Edge 117, Type (0, 0), BuildingBlock: AJUNOK_clean_linker_0, # of connection points: 2
#     Edge 118, Type (0, 0), BuildingBlock: AJUNOK_clean_linker_0, # of connection points: 2
#     Edge 119, Type (0, 0), BuildingBlock: AJUNOK_clean_linker_0, # of connection points: 2
#     Edge 120, Type (0, 0), BuildingBlock: AJUNOK_clean_linker_0, # of connection points: 2
#     Edge 121, Type (0, 0), BuildingBlock: AJUNOK_clean_linker_0, # of connection points: 2
#     Edge 122, Type (0, 0), BuildingBlock: AJUNOK_clean_linker_0, # of connection points: 2
#     Edge 123, Type (0, 0), BuildingBlock: AJUNOK_clean_linker_0, # of connection points: 2
#     Edge 124, Type (0, 0), BuildingBlock: AJUNOK_clean_linker_0, # of connection points: 2
#     Edge 125, Type (0, 0), BuildingBlock: AJUNOK_clean_linker_0, # of connection points: 2
#     Edge 126, Type (0, 0), BuildingBlock: AJUNOK_clean_linker_0, # of connection points: 2
#     Edge 127, Type (0, 0), BuildingBlock: AJUNOK_clean_linker_0, # of connection points: 2
#     Edge 128, Type (0, 0), BuildingBlock: AJUNOK_clean_linker_0, # of connection points: 2
#     Edge 129, Type (0, 0), BuildingBlock: AJUNOK_clean_linker_0, # of connection points: 2
#     Edge 130, Type (0, 0), BuildingBlock: AJUNOK_clean_linker_0, # of connection points: 2
#     Edge 131, Type (0, 0), BuildingBlock: AJUNOK_clean_linker_0, # of connection points: 2
#     Edge 132, Type (0, 0), BuildingBlock: AJUNOK_clean_linker_0, # of connection points: 2
#     Edge 133, Type (0, 0), BuildingBlock: AJUNOK_clean_linker_0, # of connection points: 2
#     Edge 134, Type (0, 0), BuildingBlock: AJUNOK_clean_linker_0, # of connection points: 2
#     Edge 135, Type (0, 0), BuildingBlock: AJUNOK_clean_linker_0, # of connection points: 2
#     Edge 136, Type (0, 0), BuildingBlock: AJUNOK_clean_linker_0, # of connection points: 2
#     Edge 137, Type (0, 0), BuildingBlock: AJUNOK_clean_linker_0, # of connection points: 2
#     Edge 138, Type (0, 0), BuildingBlock: AJUNOK_clean_linker_0, # of connection points: 2
#     Edge 139, Type (0, 0), BuildingBlock: AJUNOK_clean_linker_0, # of connection points: 2
#     Edge 140, Type (0, 0), BuildingBlock: AJUNOK_clean_linker_0, # of connection points: 2
#     Edge 141, Type (0, 0), BuildingBlock: AJUNOK_clean_linker_0, # of connection points: 2
#     Edge 142, Type (0, 0), BuildingBlock: AJUNOK_clean_linker_0, # of connection points: 2
#     Edge 143, Type (0, 0), BuildingBlock: AJUNOK_clean_linker_0, # of connection points: 2
# Relax obj value: 0.206
# Max RMSD: 0.306
# Mean RMSD: 0.306
data_MOF--net-ukp--node1-QUQFOY_clean_sbu_3--edge1-AJUNOK_clean_linker_0
_symmetry_space_group_name_H-M    P1
_symmetry_Int_Tables_number       1
_symmetry_cell_setting            triclinic
loop_
_symmetry_equiv_pos_as_xyz
'x, y, z'
_cell_length_a     46.797581
_cell_length_b     46.743028
_cell_length_c     46.772136
_cell_angle_alpha  90.148375
_cell_angle_beta   90.060565
_cell_angle_gamma 90.154424
loop_
_atom_site_label
_atom_site_type_symbol
_atom_site_fract_x
_atom_site_fract_y
_atom_site_fract_z
_atom_type_partial_charge
C0 C 0.21524 0.23568 0.33576 0.0
O1 O 0.22816 0.2573 0.3464 0.0
Cd2 Cd 0.20392 0.30225 0.35323 0.0
O3 O 0.18817 0.23504 0.33291 0.0
Cd4 Cd 0.14048 0.25526 0.34227 0.0
C5 C 0.15838 0.29012 0.29316 0.0
O6 O 0.16112 0.2891 0.37581 0.0
O7 O 0.11602 0.29373 0.36776 0.0
O8 O 0.1505 0.21784 0.37217 0.0
C9 C 0.13863 0.30369 0.37916 0.0
O10 O 0.17095 0.29118 0.31688 0.0
C11 C 0.12639 0.20561 0.37167 0.0
O12 O 0.13798 0.27222 0.29076 0.0
O13 O 0.10707 0.2162 0.35551 0.0
C14 C -0.00175 0.96309 0.59084 0.0
O15 O 0.97917 0.97497 0.60606 0.0
Cd16 Cd 0.934 0.95193 0.61043 0.0
O17 O -0.00327 0.93687 0.58391 0.0
Cd18 Cd 0.97383 0.89159 0.59583 0.0
C19 C 0.93993 0.91742 0.54187 0.0
O20 O 0.94085 0.90747 0.63043 0.0
O21 O 0.93169 0.86566 0.6127 0.0
O22 O 0.00972 0.89962 0.62801 0.0
C23 C 0.92363 0.88669 0.62796 0.0
O24 O 0.93217 0.93452 0.5616 0.0
C25 C 0.02377 0.877 0.62326 0.0
O26 O 0.95809 0.89758 0.54631 0.0
O27 O 0.01341 0.85871 0.60557 0.0
C28 C 0.26592 0.74284 0.83883 0.0
O29 O 0.25564 0.71994 0.84934 0.0
Cd30 Cd 0.2864 0.67854 0.85728 0.0
O31 O 0.29261 0.74633 0.83621 0.0
Cd32 Cd 0.33916 0.7276 0.8478 0.0
C33 C 0.32005 0.69018 0.79088 0.0
O34 O 0.32902 0.69055 0.88101 0.0
O35 O 0.37105 0.6901 0.86191 0.0
O36 O 0.3298 0.75985 0.88327 0.0
C37 C 0.35257 0.67753 0.8774 0.0
O38 O 0.30439 0.67728 0.80904 0.0
C39 C 0.35096 0.77625 0.87911 0.0
O40 O 0.33474 0.7123 0.79756 0.0
O41 O 0.36836 0.76972 0.859 0.0
C42 C 0.49571 0.01908 0.08726 0.0
O43 O 0.51884 0.01005 0.09848 0.0
Cd44 Cd 0.55935 0.04058 0.10586 0.0
O45 O 0.49129 0.04574 0.08377 0.0
Cd46 Cd 0.50663 0.0959 0.09209 0.0
C47 C 0.53951 0.0786 0.04242 0.0
O48 O 0.53977 0.08001 0.12954 0.0
O49 O 0.54494 0.12328 0.11533 0.0
O50 O 0.46312 0.08498 0.11382 0.0
C51 C 0.55476 0.10253 0.12976 0.0
O52 O 0.54451 0.06919 0.06709 0.0
C53 C 0.45405 0.11039 0.11484 0.0
O54 O 0.52159 0.09884 0.04046 0.0
O55 O 0.46941 0.13 0.10368 0.0
C56 C 0.21532 0.74068 0.15 0.0
O57 O 0.22562 0.71754 0.13966 0.0
Cd58 Cd 0.19698 0.6751 0.12886 0.0
O59 O 0.18845 0.74421 0.1522 0.0
Cd60 Cd 0.13914 0.72786 0.14302 0.0
C61 C 0.15761 0.69126 0.19096 0.0
O62 O 0.15464 0.69249 0.10752 0.0
O63 O 0.11041 0.69096 0.12007 0.0
O64 O 0.14923 0.76375 0.11105 0.0
C65 C 0.13106 0.67907 0.10698 0.0
O66 O 0.16663 0.68903 0.16581 0.0
C67 C 0.12654 0.77808 0.114 0.0
O68 O 0.13842 0.71009 0.19497 0.0
O69 O 0.10837 0.76969 0.13261 0.0
C70 C 0.4842 0.96027 0.39599 0.0
O71 O 0.50327 0.97044 0.37962 0.0
Cd72 Cd 0.54899 0.94881 0.37808 0.0
O73 O 0.48619 0.93482 0.40528 0.0
Cd74 Cd 0.5108 0.89223 0.38548 0.0
C75 C 0.54436 0.90973 0.44244 0.0
O76 O 0.54585 0.90806 0.35052 0.0
O77 O 0.55312 0.86671 0.36987 0.0
O78 O 0.47548 0.89997 0.35219 0.0
C79 C 0.56226 0.88681 0.35399 0.0
O80 O 0.55275 0.9287 0.42491 0.0
C81 C 0.46186 0.87674 0.35557 0.0
O82 O 0.52559 0.89117 0.43548 0.0
O83 O 0.47187 0.85866 0.37349 0.0
C84 C 0.26636 0.2378 0.64497 0.0
O85 O 0.25464 0.25897 0.63243 0.0
Cd86 Cd 0.28034 0.3039 0.62585 0.0
O87 O 0.29319 0.23699 0.64925 0.0
Cd88 Cd 0.34062 0.25738 0.63891 0.0
C89 C 0.32385 0.29285 0.68824 0.0
O90 O 0.32412 0.2928 0.60381 0.0
O91 O 0.36806 0.29565 0.61701 0.0
O92 O 0.33242 0.21834 0.60931 0.0
C93 C 0.34711 0.30733 0.60431 0.0
O94 O 0.31065 0.29433 0.66485 0.0
C95 C 0.35647 0.20647 0.61253 0.0
O96 O 0.34342 0.27414 0.69028 0.0
O97 O 0.37462 0.2187 0.62898 0.0
C98 C -0.00136 0.02109 0.89897 0.0
O99 O 0.97839 0.01039 0.88416 0.0
Cd100 Cd 0.93372 0.03533 0.87849 0.0
O101 O -0.00118 0.04741 0.90571 0.0
Cd102 Cd 0.97723 0.09282 0.89279 0.0
C103 C 0.93854 0.07043 0.94609 0.0
O104 O 0.9457 0.07793 0.85689 0.0
O105 O 0.93724 0.12008 0.87375 0.0
O106 O 0.01297 0.08254 0.86124 0.0
C107 C 0.92938 0.09937 0.85789 0.0
O108 O 0.92955 0.05315 0.92695 0.0
C109 C 0.02739 0.10522 0.86483 0.0
O110 O 0.95872 0.0882 0.94128 0.0
O111 O 0.01781 0.12405 0.88234 0.0
C112 C 0.33425 0.21684 0.23702 0.0
O113 O 0.3435 0.22999 0.25914 0.0
Cd114 Cd 0.35277 0.20265 0.30307 0.0
O115 O 0.3334 0.1898 0.23584 0.0
Cd116 Cd 0.34354 0.14266 0.25394 0.0
C117 C 0.29252 0.15731 0.28775 0.0
O118 O 0.37646 0.15931 0.29128 0.0
O119 O 0.36321 0.11506 0.29151 0.0
O120 O 0.37716 0.15165 0.21948 0.0
C121 C 0.37567 0.13551 0.30444 0.0
O122 O 0.3154 0.17117 0.29078 0.0
C123 C 0.37428 0.12853 0.20565 0.0
O124 O 0.29175 0.13836 0.26821 0.0
O125 O 0.35558 0.1106 0.21439 0.0
C126 C 0.01831 0.09485 0.49251 0.0
O127 O 0.00991 0.10759 0.5151 0.0
Cd128 Cd 0.04048 0.11044 0.55623 0.0
O129 O 0.0446 0.08858 0.48919 0.0
Cd130 Cd 0.09508 0.09279 0.50551 0.0
C131 C 0.07342 0.04232 0.53775 0.0
O132 O 0.08317 0.13015 0.53987 0.0
O133 O 0.12501 0.11197 0.54422 0.0
O134 O 0.08516 0.11497 0.46197 0.0
C135 C 0.10532 0.12713 0.55509 0.0
O136 O 0.0627 0.06639 0.54366 0.0
C137 C 0.11055 0.11553 0.45288 0.0
O138 O 0.0937 0.04139 0.51976 0.0
O139 O 0.12992 0.10415 0.46833 0.0
C140 C 0.14138 0.76916 0.74249 0.0
O141 O 0.13107 0.75853 0.76541 0.0
Cd142 Cd 0.12625 0.78857 0.80773 0.0
O143 O 0.14489 0.79601 0.74013 0.0
Cd144 Cd 0.14027 0.84575 0.75582 0.0
C145 C 0.19133 0.82444 0.78767 0.0
O146 O 0.10535 0.83155 0.7918 0.0
O147 O 0.11903 0.87541 0.79319 0.0
O148 O 0.11208 0.83465 0.71619 0.0
C149 C 0.10565 0.8551 0.80531 0.0
O150 O 0.16703 0.81432 0.79312 0.0
C151 C 0.1137 0.85873 0.70402 0.0
O152 O 0.19266 0.84446 0.76934 0.0
O153 O 0.12921 0.87792 0.71591 0.0
C154 C 0.46247 0.88799 0.99121 0.0
O155 O 0.47299 0.87484 0.0127 0.0
Cd156 Cd 0.44479 0.87003 0.05628 0.0
O157 O 0.43601 0.89403 0.99045 0.0
Cd158 Cd 0.38634 0.89267 0.00777 0.0
C159 C 0.41294 0.93769 0.04225 0.0
O160 O 0.39974 0.85375 0.04056 0.0
O161 O 0.35682 0.86929 0.0441 0.0
O162 O 0.39474 0.87102 0.96326 0.0
C163 C 0.37687 0.85463 0.05502 0.0
O164 O 0.41861 0.91152 0.04461 0.0
C165 C 0.36906 0.87126 0.95491 0.0
O166 O 0.39181 0.94386 0.02631 0.0
O167 O 0.35077 0.88412 0.97055 0.0
C168 C 0.33298 0.76943 0.23761 0.0
O169 O 0.34265 0.75902 0.21425 0.0
Cd170 Cd 0.35414 0.78797 0.17245 0.0
O171 O 0.33202 0.79633 0.24161 0.0
Cd172 Cd 0.34213 0.84569 0.22694 0.0
C173 C 0.29499 0.82809 0.18992 0.0
O174 O 0.37824 0.8278 0.1924 0.0
O175 O 0.36858 0.87264 0.19081 0.0
O176 O 0.36505 0.8341 0.27056 0.0
C177 C 0.3799 0.8511 0.1787 0.0
O178 O 0.321 0.82323 0.1855 0.0
C179 C 0.36628 0.85937 0.28022 0.0
O180 O 0.28991 0.84728 0.20855 0.0
O181 O 0.35447 0.87905 0.26548 0.0
C182 C 0.46072 0.0888 0.49404 0.0
O183 O 0.47217 0.10312 0.47384 0.0
Cd184 Cd 0.44513 0.11098 0.43012 0.0
O185 O 0.43397 0.0843 0.49465 0.0
Cd186 Cd 0.38618 0.09362 0.47639 0.0
C187 C 0.40804 0.04376 0.44183 0.0
O188 O 0.40053 0.12997 0.44252 0.0
O189 O 0.35747 0.11418 0.43817 0.0
O190 O 0.39819 0.12327 0.51379 0.0
C191 C 0.37808 0.12826 0.42741 0.0
O192 O 0.42056 0.06739 0.43814 0.0
C193 C 0.37551 0.12014 0.52812 0.0
O194 O 0.38814 0.04249 0.46033 0.0
O195 O 0.35599 0.10383 0.51783 0.0
C196 C 0.14134 0.216 0.73886 0.0
O197 O 0.12939 0.22603 0.71655 0.0
Cd198 Cd 0.12097 0.19542 0.67577 0.0
O199 O 0.14493 0.18932 0.74218 0.0
Cd200 Cd 0.13667 0.14016 0.72712 0.0
C201 C 0.1872 0.15816 0.69078 0.0
O202 O 0.10048 0.15258 0.6919 0.0
O203 O 0.11636 0.1095 0.69028 0.0
O204 O 0.10808 0.14962 0.76682 0.0
C205 C 0.10194 0.12911 0.67829 0.0
O206 O 0.16383 0.17069 0.68606 0.0
C207 C 0.11193 0.12588 0.77917 0.0
O208 O 0.18808 0.14015 0.7111 0.0
O209 O 0.12855 0.10783 0.7672 0.0
C210 C 0.01749 0.8938 0.98938 0.0
O211 O 0.00766 0.88247 0.96653 0.0
Cd212 Cd 0.03816 0.87323 0.92587 0.0
O213 O 0.04425 0.89684 -0.00686 0.0
Cd214 Cd 0.09391 0.88861 0.97811 0.0
C215 C 0.07684 0.93863 0.94168 0.0
O216 O 0.08004 0.8523 0.94312 0.0
O217 O 0.12343 0.86723 0.94074 0.0
O218 O 0.0848 0.86431 0.02112 0.0
C219 C 0.10289 0.85409 0.92871 0.0
O220 O 0.06423 0.91518 0.93711 0.0
C221 C 0.10998 0.86588 0.03081 0.0
O222 O 0.09545 0.93946 0.96154 0.0
O223 O 0.1287 0.87895 0.0159 0.0
C224 C 0.2383 0.33841 0.21477 0.0
O225 O 0.25952 0.35193 0.22526 0.0
Cd226 Cd 0.30245 0.35692 0.19651 0.0
O227 O 0.23655 0.33361 0.1881 0.0
Cd228 Cd 0.25618 0.34782 0.14192 0.0
C229 C 0.29147 0.29139 0.15879 0.0
O230 O 0.29102 0.38268 0.15557 0.0
O231 O 0.29406 0.36708 0.11232 0.0
O232 O 0.22095 0.37947 0.1524 0.0
C233 C 0.30516 0.38169 0.13248 0.0
O234 O 0.30209 0.30943 0.17628 0.0
C235 C 0.20721 0.3771 0.12919 0.0
O236 O 0.27112 0.29804 0.14196 0.0
O237 O 0.21576 0.35886 0.11063 0.0
C238 C 0.73346 0.14126 0.76641 0.0
O239 O 0.75341 0.12662 0.75537 0.0
Cd240 Cd 0.79717 0.12324 0.78102 0.0
O241 O 0.73382 0.14774 0.79277 0.0
Cd242 Cd 0.75781 0.1324 0.83671 0.0
C243 C 0.79213 0.18894 0.81848 0.0
O244 O 0.79272 0.09701 0.82285 0.0
O245 O 0.79867 0.11722 0.86423 0.0
O246 O 0.71972 0.10126 0.83115 0.0
C247 C 0.80844 0.10107 0.84468 0.0
O248 O 0.80133 0.17112 0.80006 0.0
C249 C 0.708 0.10693 0.85491 0.0
O250 O 0.77278 0.18213 0.83636 0.0
O251 O 0.72052 0.12457 0.87175 0.0
C252 C 0.09215 0.48781 0.01842 0.0
O253 O 0.10489 0.50939 0.00772 0.0
Cd254 Cd 0.11018 0.5535 0.03553 0.0
O255 O 0.08693 0.48664 0.04496 0.0
Cd256 Cd 0.09586 0.50771 0.09117 0.0
C257 C 0.04186 0.5461 0.06786 0.0
O258 O 0.13216 0.54131 0.07848 0.0
O259 O 0.11735 0.54351 0.12192 0.0
O260 O 0.12109 0.46563 0.08455 0.0
C261 C 0.13061 0.55557 0.10153 0.0
O262 O 0.06089 0.55646 0.05134 0.0
C263 C 0.11707 0.45602 0.1095 0.0
O264 O 0.04746 0.52604 0.08545 0.0
O265 O 0.10185 0.47063 0.12684 0.0
C266 C 0.74727 0.83866 0.27033 0.0
O267 O 0.72851 0.85404 0.25799 0.0
Cd268 Cd 0.68544 0.86414 0.2847 0.0
O269 O 0.74651 0.83401 0.29704 0.0
Cd270 Cd 0.72937 0.83931 0.34586 0.0
C271 C 0.69045 0.79536 0.31923 0.0
O272 O 0.70032 0.87917 0.33028 0.0
O273 O 0.691 0.86269 0.37214 0.0
O274 O 0.77388 0.86118 0.3371 0.0
C275 C 0.68368 0.87877 0.35158 0.0
O276 O 0.69097 0.82056 0.30984 0.0
C277 C 0.78198 0.86294 0.36284 0.0
O278 O 0.70733 0.78975 0.33991 0.0
O279 O 0.76635 0.85092 0.38175 0.0
C280 C 0.89108 -0.00535 0.02086 0.0
O281 O 0.88111 0.97456 0.00529 0.0
Cd282 Cd 0.87431 0.92987 0.03018 0.0
O283 O 0.89318 -0.00815 0.0477 0.0
Cd284 Cd 0.89082 0.97485 0.0968 0.0
C285 C 0.93735 0.94275 0.07041 0.0
O286 O 0.85579 0.94228 0.07569 0.0
O287 O 0.86501 0.93527 0.12022 0.0
O288 O 0.87241 0.02101 0.08681 0.0
C289 C 0.85347 0.92622 0.09731 0.0
O290 O 0.91165 0.94146 0.06274 0.0
C291 C 0.86726 0.02813 0.11235 0.0
O292 O 0.94256 0.95733 0.09288 0.0
O293 O 0.87499 0.01079 0.13196 0.0
C294 C 0.24778 0.646 0.7093 0.0
O295 O 0.2286 0.63161 0.72236 0.0
Cd296 Cd 0.18231 0.62244 0.70017 0.0
O297 O 0.24647 0.65083 0.68261 0.0
Cd298 Cd 0.2242 0.64049 0.63623 0.0
C299 C 0.19128 0.68849 0.6629 0.0
O300 O 0.19057 0.6049 0.65367 0.0
O301 O 0.18186 0.62181 0.61171 0.0
O302 O 0.25858 0.60629 0.64569 0.0
C303 C 0.17339 0.60688 0.6328 0.0
O304 O 0.19068 0.6635 0.67271 0.0
C305 C 0.27363 0.60928 0.62342 0.0
O306 O 0.20726 0.69255 0.64124 0.0
O307 O 0.26536 0.6278 0.60501 0.0
C308 C 0.08737 0.49777 0.4635 0.0
O309 O 0.10086 0.47709 0.47481 0.0
Cd310 Cd 0.10342 0.4325 0.44957 0.0
O311 O 0.08168 0.49796 0.43689 0.0
Cd312 Cd 0.09638 0.47533 0.39166 0.0
C313 C 0.03872 0.44312 0.4095 0.0
O314 O 0.12955 0.44097 0.40852 0.0
O315 O 0.11334 0.43303 0.36603 0.0
O316 O 0.12982 0.50965 0.40099 0.0
C317 C 0.12827 0.42452 0.38705 0.0
O318 O 0.05614 0.43382 0.4282 0.0
C319 C 0.12854 0.52283 0.37743 0.0
O320 O 0.04614 0.46174 0.39107 0.0
O321 O 0.11049 0.51403 0.35875 0.0
C322 C 0.39416 0.48734 0.96303 0.0
O323 O 0.38066 0.50783 0.97487 0.0
Cd324 Cd 0.37323 0.55116 0.94725 0.0
O325 O 0.3982 0.48648 0.93626 0.0
Cd326 Cd 0.38927 0.50431 0.88861 0.0
C327 C 0.44147 0.53948 0.91252 0.0
O328 O 0.35488 0.53931 0.90248 0.0
O329 O 0.37173 0.54352 0.8598 0.0
O330 O 0.35576 0.47021 0.8978 0.0
C331 C 0.35797 0.55467 0.88042 0.0
O332 O 0.41986 0.54659 0.9272 0.0
C333 C 0.35916 0.45537 0.8754 0.0
O334 O 0.43954 0.51998 0.89344 0.0
O335 O 0.37859 0.46283 0.85764 0.0
C336 C 0.71335 0.7366 0.83778 0.0
O337 O 0.7248 0.75761 0.85085 0.0
Cd338 Cd 0.69916 0.80129 0.85685 0.0
O339 O 0.68652 0.73544 0.8337 0.0
Cd340 Cd 0.64114 0.75786 0.84771 0.0
C341 C 0.66127 0.7898 0.7911 0.0
O342 O 0.65616 0.79406 0.88 0.0
O343 O 0.61423 0.80032 0.86147 0.0
O344 O 0.64762 0.72541 0.88335 0.0
C345 C 0.63471 0.81018 0.87645 0.0
O346 O 0.6791 0.79955 0.80927 0.0
C347 C 0.62482 0.71125 0.87949 0.0
O348 O 0.64288 0.77077 0.79767 0.0
O349 O 0.60805 0.71877 0.85923 0.0
C350 C 0.49517 0.46286 0.08853 0.0
O351 O 0.47491 0.47266 0.10384 0.0
Cd352 Cd 0.43154 0.44502 0.11078 0.0
O353 O 0.49635 0.43643 0.08243 0.0
Cd354 Cd 0.47679 0.39021 0.09635 0.0
C355 C 0.43773 0.41191 0.04271 0.0
O356 O 0.44337 0.40206 0.13225 0.0
O357 O 0.43739 0.36061 0.11276 0.0
O358 O 0.51151 0.40161 0.12869 0.0
C359 C 0.42753 0.38035 0.1287 0.0
O360 O 0.42737 0.42807 0.06206 0.0
C361 C 0.52719 0.37991 0.12482 0.0
O362 O 0.45894 0.39547 0.04753 0.0
O363 O 0.51888 0.36111 0.10657 0.0
C364 C 0.77226 0.24043 0.33334 0.0
O365 O 0.75928 0.21922 0.34465 0.0
Cd366 Cd 0.78517 0.17513 0.3555 0.0
O367 O 0.79931 0.24163 0.33199 0.0
Cd368 Cd 0.84754 0.2247 0.34217 0.0
C369 C 0.82507 0.19027 0.29454 0.0
O370 O 0.82884 0.19028 0.37677 0.0
O371 O 0.87389 0.18798 0.36783 0.0
O372 O 0.83234 0.26275 0.36987 0.0
C373 C 0.85174 0.1759 0.37796 0.0
O374 O 0.8184 0.18741 0.32035 0.0
C375 C 0.85553 0.27663 0.37051 0.0
O376 O 0.84625 0.20669 0.28975 0.0
O377 O 0.87653 0.26665 0.35606 0.0
C378 C 0.98787 0.51763 0.58455 0.0
O379 O 0.01018 0.50542 0.59433 0.0
Cd380 Cd 0.05375 0.53275 0.60193 0.0
O381 O 0.98628 0.54469 0.58254 0.0
Cd382 Cd 0.0043 0.59324 0.59071 0.0
C383 C 0.04037 0.5779 0.54195 0.0
O384 O 0.03808 0.57391 0.62655 0.0
O385 O 0.04094 0.61876 0.61706 0.0
O386 O 0.95934 0.58539 0.61214 0.0
C387 C 0.05171 0.59724 0.62951 0.0
O388 O 0.04187 0.56534 0.56563 0.0
C389 C 0.95337 0.6115 0.61581 0.0
O390 O 0.02179 0.59757 0.53966 0.0
O391 O 0.9704 0.63007 0.60539 0.0
C392 C 0.70577 0.24877 0.64705 0.0
O393 O 0.71926 0.22807 0.63541 0.0
Cd394 Cd 0.6967 0.18196 0.62738 0.0
O395 O 0.67877 0.24844 0.65024 0.0
Cd396 Cd 0.63182 0.2263 0.63978 0.0
C397 C 0.65553 0.196 0.68857 0.0
O398 O 0.65227 0.19225 0.60603 0.0
O399 O 0.60893 0.18389 0.61918 0.0
O400 O 0.64335 0.25998 0.6064 0.0
C401 C 0.63113 0.17532 0.60606 0.0
O402 O 0.6641 0.19419 0.66324 0.0
C403 C 0.62039 0.27412 0.60702 0.0
O404 O 0.63327 0.21099 0.69268 0.0
O405 O 0.60087 0.26635 0.62459 0.0
C406 C 0.99009 0.46708 0.90072 0.0
O407 O 0.01266 0.47836 0.89029 0.0
Cd408 Cd 0.05549 0.45225 0.87968 0.0
O409 O 0.98745 0.44004 0.90289 0.0
Cd410 Cd 0.00593 0.39157 0.89216 0.0
C411 C 0.04408 0.40735 0.94026 0.0
O412 O 0.03903 0.41063 0.85695 0.0
O413 O 0.04229 0.36538 0.86425 0.0
O414 O 0.965 0.40338 0.86679 0.0
C415 C 0.05276 0.38768 0.85282 0.0
O416 O 0.04491 0.41995 0.91658 0.0
C417 C 0.95358 0.37887 0.86642 0.0
O418 O 0.02533 0.38778 0.94298 0.0
O419 O 0.96647 0.35881 0.87975 0.0
C420 C 0.76415 0.73821 0.14684 0.0
O421 O 0.75252 0.76124 0.13818 0.0
Cd422 Cd 0.7796 0.80437 0.13325 0.0
O423 O 0.79118 0.73603 0.14922 0.0
Cd424 Cd 0.83974 0.75521 0.14154 0.0
C425 C 0.82473 0.78811 0.19404 0.0
O426 O 0.82028 0.79001 0.10836 0.0
O427 O 0.86512 0.79448 0.11756 0.0
O428 O 0.83298 0.71259 0.11587 0.0
C429 C 0.84288 0.8047 0.10593 0.0
O430 O 0.80994 0.79283 0.17204 0.0
C431 C 0.85882 0.70486 0.11584 0.0
O432 O 0.8441 0.76915 0.19274 0.0
O433 O 0.87702 0.72066 0.12866 0.0
C434 C 0.4908 0.51925 0.39567 0.0
O435 O 0.46807 0.50778 0.38563 0.0
Cd436 Cd 0.42521 0.53602 0.37589 0.0
O437 O 0.49329 0.54618 0.39844 0.0
Cd438 Cd 0.47691 0.59545 0.39166 0.0
C439 C 0.44301 0.57211 0.43914 0.0
O440 O 0.44095 0.58032 0.35643 0.0
O441 O 0.43952 0.62423 0.37031 0.0
O442 O 0.51224 0.58482 0.35936 0.0
C443 C 0.42758 0.60393 0.35659 0.0
O444 O 0.43988 0.56578 0.41324 0.0
C445 C 0.52645 0.60776 0.36164 0.0
O446 O 0.46042 0.59244 0.44429 0.0
O447 O 0.51853 0.6262 0.38026 0.0
C448 C 0.83297 0.71352 0.74109 0.0
O449 O 0.84208 0.72557 0.7639 0.0
Cd450 Cd 0.84851 0.69891 0.80827 0.0
O451 O 0.83151 0.68641 0.73874 0.0
Cd452 Cd 0.84202 0.63795 0.7567 0.0
C453 C 0.79203 0.65511 0.78925 0.0
O454 O 0.87478 0.65847 0.79259 0.0
O455 O 0.86779 0.61305 0.79446 0.0
O456 O 0.87227 0.65079 0.71995 0.0
C457 C 0.87849 0.63528 0.80606 0.0
O458 O 0.81741 0.66248 0.79382 0.0
C459 C 0.8731 0.62687 0.70731 0.0
O460 O 0.7887 0.63461 0.77165 0.0
O461 O 0.85718 0.60674 0.71682 0.0
C462 C 0.5177 0.58522 -0.00689 0.0
O463 O 0.50518 0.59665 0.0145 0.0
Cd464 Cd 0.53355 0.60715 0.05716 0.0
O465 O 0.54472 0.5839 -0.00837 0.0
Cd466 Cd 0.59382 0.59246 0.00654 0.0
C467 C 0.57539 0.54491 0.04342 0.0
O468 O 0.57634 0.62848 0.04072 0.0
O469 O 0.62126 0.61919 0.04194 0.0
O470 O 0.58397 0.61324 0.96152 0.0
C471 C 0.5996 0.62939 0.05467 0.0
O472 O 0.56469 0.56949 0.04517 0.0
C473 C 0.60976 0.61537 0.9538 0.0
O474 O 0.59557 0.54174 0.02546 0.0
O475 O 0.62879 0.60449 0.96997 0.0
C476 C 0.64599 0.26605 0.23929 0.0
O477 O 0.63485 0.2547 0.26136 0.0
Cd478 Cd 0.62552 0.28286 0.30413 0.0
O479 O 0.64831 0.29296 0.23732 0.0
Cd480 Cd 0.63598 0.33828 0.25873 0.0
C481 C 0.69179 0.31796 0.29654 0.0
O482 O 0.59998 0.32438 0.2926 0.0
O483 O 0.61535 0.3677 0.29603 0.0
O484 O 0.60854 0.33252 0.21762 0.0
C485 C 0.60068 0.34754 0.30687 0.0
O486 O 0.67348 0.30111 0.30759 0.0
C487 C 0.61364 0.3571 0.20743 0.0
O488 O 0.68535 0.33462 0.27594 0.0
O489 O 0.63008 0.37391 0.22149 0.0
C490 C 0.96482 0.39936 0.486 0.0
O491 O 0.98006 0.39203 0.50735 0.0
Cd492 Cd 0.95601 0.38361 0.55238 0.0
O493 O 0.93777 0.39881 0.48702 0.0
Cd494 Cd 0.89123 0.38859 0.50735 0.0
C495 C 0.90638 0.43997 0.54045 0.0
O496 O 0.91451 0.35597 0.54168 0.0
O497 O 0.86898 0.36099 0.54519 0.0
O498 O 0.89937 0.36409 0.46427 0.0
C499 C 0.89193 0.35141 0.55605 0.0
O500 O 0.92058 0.41726 0.54164 0.0
C501 C 0.87356 0.36299 0.45627 0.0
O502 O 0.88538 0.44038 0.52322 0.0
O503 O 0.85494 0.37507 0.47212 0.0
C504 C 0.83724 0.27087 0.74737 0.0
O505 O 0.84955 0.25872 0.72639 0.0
Cd506 Cd 0.85618 0.28519 0.68251 0.0
O507 O 0.83304 0.29759 0.74785 0.0
Cd508 Cd 0.84518 0.34264 0.72623 0.0
C509 C 0.78928 0.32044 0.68915 0.0
O510 O 0.88032 0.3274 0.69365 0.0
O511 O 0.8624 0.36898 0.6849 0.0
O512 O 0.87742 0.33513 0.76291 0.0
C513 C 0.87869 0.34869 0.67709 0.0
O514 O 0.80759 0.30322 0.67862 0.0
C515 C 0.87291 0.35835 0.77616 0.0
O516 O 0.79554 0.33748 0.70963 0.0
O517 O 0.85475 0.37583 0.76553 0.0
C518 C 0.95853 0.58385 -0.00819 0.0
O519 O 0.97075 0.59399 0.96963 0.0
Cd520 Cd 0.9442 0.60523 0.9263 0.0
O521 O 0.93149 0.58239 -0.00599 0.0
Cd522 Cd 0.88306 0.59298 0.97669 0.0
C523 C 0.90304 0.54558 0.94133 0.0
O524 O 0.90282 0.62857 0.9436 0.0
O525 O 0.85849 0.61772 0.9378 0.0
O526 O 0.89544 0.62312 0.01366 0.0
C527 C 0.88057 0.6305 0.92834 0.0
O528 O 0.90899 0.57157 0.93812 0.0
C529 C 0.87236 0.62168 0.02759 0.0
O530 O 0.88278 0.54041 0.95866 0.0
O531 O 0.85263 0.60505 0.01829 0.0
C532 C 0.64194 0.71401 0.23901 0.0
O533 O 0.63074 0.7232 0.21588 0.0
Cd534 Cd 0.62296 0.6928 0.17421 0.0
O535 O 0.64604 0.68733 0.2428 0.0
Cd536 Cd 0.63984 0.63691 0.22739 0.0
C537 C 0.68649 0.6544 0.18979 0.0
O538 O 0.60315 0.65001 0.19194 0.0
O539 O 0.61787 0.60658 0.19091 0.0
O540 O 0.61371 0.64629 0.26885 0.0
C541 C 0.60421 0.62642 0.17849 0.0
O542 O 0.66146 0.66384 0.18803 0.0
C543 C 0.6156 0.62156 0.27948 0.0
O544 O 0.69104 0.63609 0.20935 0.0
O545 O 0.63026 0.60285 0.26608 0.0
C546 C 0.51642 0.39042 0.49121 0.0
O547 O 0.50822 0.37744 0.46865 0.0
Cd548 Cd 0.53914 0.37269 0.42806 0.0
O549 O 0.54274 0.39649 0.49499 0.0
Cd550 Cd 0.59273 0.39075 0.4779 0.0
C551 C 0.57122 0.44237 0.44215 0.0
O552 O 0.58029 0.3522 0.44551 0.0
O553 O 0.62121 0.37156 0.4384 0.0
O554 O 0.58551 0.37067 0.52314 0.0
C555 C 0.60181 0.35476 0.42943 0.0
O556 O 0.55736 0.42025 0.43464 0.0
C557 C 0.61156 0.36814 0.52967 0.0
O558 O 0.59033 0.44064 0.46151 0.0
O559 O 0.63006 0.37852 0.51256 0.0
C560 C 0.73869 0.83302 0.71634 0.0
O561 O 0.76038 0.84164 0.7305 0.0
Cd562 Cd 0.80403 0.85156 0.7049 0.0
O563 O 0.73826 0.83286 0.68925 0.0
Cd564 Cd 0.75541 0.84223 0.64143 0.0
C565 C 0.78994 0.79169 0.6589 0.0
O566 O 0.78878 0.87502 0.66315 0.0
O567 O 0.79403 0.86806 0.61785 0.0
O568 O 0.71743 0.87268 0.65078 0.0
C569 C 0.80347 0.87908 0.64087 0.0
O570 O 0.79219 0.81515 0.67192 0.0
C571 C 0.70622 0.87171 0.62622 0.0
O572 O 0.77173 0.79043 0.6387 0.0
O573 O 0.71717 0.85505 0.60754 0.0
C574 C 0.24198 0.64586 0.26831 0.0
O575 O 0.26424 0.63541 0.25648 0.0
Cd576 Cd 0.30708 0.62726 0.28492 0.0
O577 O 0.24031 0.6482 0.29535 0.0
Cd578 Cd 0.25614 0.64268 0.34516 0.0
C579 C 0.28987 0.68964 0.32256 0.0
O580 O 0.29013 0.6062 0.32777 0.0
O581 O 0.29334 0.61785 0.3721 0.0
O582 O 0.21151 0.62087 0.33593 0.0
C583 C 0.30465 0.60563 0.35065 0.0
O584 O 0.29321 0.66368 0.31652 0.0
C585 C 0.20427 0.61836 0.36183 0.0
O586 O 0.27336 0.69489 0.34352 0.0
O587 O 0.22035 0.62982 0.38073 0.0
C588 C 0.58735 0.98768 0.51703 0.0
O589 O 0.5987 0.00861 0.50379 0.0
Cd590 Cd 0.60665 0.05226 0.53113 0.0
O591 O 0.58477 0.98767 0.54395 0.0
Cd592 Cd 0.59211 0.00558 0.59141 0.0
C593 C 0.54104 0.04074 0.57105 0.0
O594 O 0.62767 0.03958 0.57507 0.0
O595 O 0.61309 0.0439 0.6186 0.0
O596 O 0.62412 0.96852 0.58435 0.0
C597 C 0.62771 0.05401 0.59808 0.0
O598 O 0.56386 0.04469 0.55723 0.0
C599 C 0.62072 0.95662 0.60834 0.0
O600 O 0.54086 0.0218 0.59059 0.0
O601 O 0.60218 0.96693 0.62552 0.0
C602 C 0.24871 0.34365 0.76833 0.0
O603 O 0.22718 0.35518 0.75624 0.0
Cd604 Cd 0.18118 0.35679 0.77881 0.0
O605 O 0.24843 0.33736 0.79486 0.0
Cd606 Cd 0.22524 0.34151 0.84263 0.0
C607 C 0.19679 0.2926 0.81698 0.0
O608 O 0.19053 0.37545 0.82426 0.0
O609 O 0.18287 0.36094 0.86727 0.0
O610 O 0.26358 0.37225 0.83697 0.0
C611 C 0.17391 0.37448 0.84554 0.0
O612 O 0.19377 0.31779 0.80819 0.0
C613 C 0.27426 0.36906 0.86155 0.0
O614 O 0.21177 0.28904 0.83936 0.0
O615 O 0.26166 0.3524 0.87915 0.0
C616 C 0.39305 0.49155 0.51979 0.0
O617 O 0.37905 0.47028 0.50971 0.0
Cd618 Cd 0.36719 0.42857 0.53838 0.0
O619 O 0.39773 0.4939 0.54652 0.0
Cd620 Cd 0.3907 0.47775 0.59642 0.0
C621 C 0.4344 0.43906 0.57179 0.0
O622 O 0.35063 0.44619 0.58239 0.0
O623 O 0.36702 0.44088 0.62493 0.0
O624 O 0.36963 0.52239 0.58592 0.0
C625 C 0.35174 0.43093 0.60473 0.0
O626 O 0.40826 0.43848 0.56572 0.0
C627 C 0.36824 0.5316 0.61131 0.0
O628 O 0.44129 0.45577 0.59225 0.0
O629 O 0.37948 0.51625 0.63089 0.0
C630 C 0.73972 0.15054 0.21298 0.0
O631 O 0.71553 0.14265 0.22286 0.0
Cd632 Cd 0.6722 0.13592 0.1943 0.0
O633 O 0.74417 0.15171 0.18616 0.0
Cd634 Cd 0.72667 0.14091 0.13755 0.0
C635 C 0.69109 0.19091 0.15163 0.0
O636 O 0.69071 0.10741 0.15703 0.0
O637 O 0.68887 0.11497 0.11179 0.0
O638 O 0.76438 0.11119 0.14964 0.0
C639 C 0.67739 0.10368 0.13371 0.0
O640 O 0.68318 0.16539 0.1548 0.0
C641 C 0.77742 0.11132 0.12597 0.0
O642 O 0.7123 0.19439 0.13504 0.0
O643 O 0.7672 0.12699 0.10607 0.0
C644 C 0.58294 -0.00639 0.96664 0.0
O645 O 0.59327 0.97155 0.97885 0.0
Cd646 Cd 0.60492 0.92903 0.95213 0.0
O647 O 0.58065 -0.00468 0.93961 0.0
Cd648 Cd 0.58796 0.97842 0.89046 0.0
C649 C 0.54199 0.94039 0.91192 0.0
O650 O 0.62368 0.946 0.90859 0.0
O651 O 0.61417 0.94165 0.86371 0.0
O652 O 0.61454 0.01845 0.90288 0.0
C653 C 0.62651 0.93173 0.88575 0.0
O654 O 0.56722 0.94032 0.92106 0.0
C655 C 0.61539 0.03013 0.87858 0.0
O656 O 0.53686 0.95786 0.8917 0.0
O657 O 0.60091 0.01835 0.85848 0.0
C658 C 0.89542 0.99065 0.4595 0.0
O659 O 0.87901 0.00994 0.46979 0.0
Cd660 Cd 0.86861 0.05351 0.44266 0.0
O661 O 0.9017 0.98967 0.43311 0.0
Cd662 Cd 0.89358 0.00614 0.38422 0.0
C663 C 0.93726 0.04417 0.41182 0.0
O664 O 0.85538 0.03905 0.39613 0.0
O665 O 0.87251 0.04233 0.3536 0.0
O666 O 0.86207 0.97087 0.39876 0.0
C667 C 0.85693 0.0532 0.37306 0.0
O668 O 0.91113 0.04448 0.4178 0.0
C669 C 0.86378 0.95464 0.37716 0.0
O670 O 0.94429 0.0275 0.39141 0.0
O671 O 0.88136 0.9619 0.35739 0.0
C672 C 0.13879 0.15456 0.43241 0.0
C673 C 0.11708 0.13427 0.42888 0.0
C674 C 0.1411 0.17757 0.41376 0.0
C675 C 0.12201 0.18098 0.39065 0.0
H676 H 0.15305 0.15363 0.45067 0.0
H677 H 0.15774 0.19319 0.41798 0.0
S678 S 0.06195 0.13265 0.37185 0.0
N679 N 0.07635 0.11823 0.40068 0.0
N680 N 0.08104 0.16163 0.36495 0.0
C681 C 0.10043 0.16051 0.38657 0.0
C682 C 0.09798 0.13702 0.40579 0.0
C683 C 0.08155 0.84077 0.66568 0.0
C684 C 0.09534 0.86416 0.67906 0.0
C685 C 0.05945 0.8449 0.64601 0.0
C686 C 0.05042 0.87257 0.63918 0.0
H687 H 0.0869 0.81899 0.67145 0.0
H688 H 0.04833 0.82638 0.63749 0.0
S689 S 0.08159 0.94102 0.66547 0.0
N690 N 0.09991 0.91592 0.68212 0.0
N691 N 0.05868 0.92382 0.64477 0.0
C692 C 0.06533 0.89616 0.65081 0.0
C693 C 0.08778 0.89194 0.67085 0.0
C694 C 0.37994 0.84555 0.90983 0.0
C695 C 0.36079 0.85114 0.93236 0.0
C696 C 0.37657 0.82143 0.89232 0.0
C697 C 0.35422 0.80194 0.89717 0.0
H698 H 0.39827 0.85935 0.90645 0.0
H699 H 0.39192 0.81772 0.8754 0.0
S700 S 0.30002 0.8058 0.95538 0.0
N701 N 0.31962 0.83491 0.95938 0.0
N702 N 0.31342 0.78925 0.92727 0.0
C703 C 0.33496 0.80737 0.9198 0.0
C704 C 0.33814 0.83215 0.93714 0.0
C705 C 0.41451 0.14373 0.17514 0.0
C706 C 0.39268 0.12366 0.18074 0.0
C707 C 0.43282 0.14046 0.15202 0.0
C708 C 0.43026 0.1168 0.13385 0.0
H709 H 0.418 0.162 0.18903 0.0
H710 H 0.4501 0.15572 0.14939 0.0
S711 S 0.37688 0.05815 0.13872 0.0
N712 N 0.36932 0.07946 0.16591 0.0
N713 N 0.40437 0.07302 0.12227 0.0
C714 C 0.40841 0.09666 0.1388 0.0
C715 C 0.38951 0.1001 0.16237 0.0
C716 C 0.13232 0.79863 0.06614 0.0
C717 C 0.12163 0.8017 0.09409 0.0
C718 C 0.13044 0.82079 0.04645 0.0
C719 C 0.11772 0.84676 0.05399 0.0
H720 H 0.14198 0.77872 0.05923 0.0
H721 H 0.13786 0.81713 0.02479 0.0
S722 S 0.08684 0.86607 0.12428 0.0
N723 N 0.09833 0.83291 0.12852 0.0
N724 N 0.09422 0.8748 0.09084 0.0
C725 C 0.10684 0.8503 0.08173 0.0
C726 C 0.10887 0.82764 0.102 0.0
C727 C 0.42835 0.89265 0.31788 0.0
C728 C 0.43551 0.87216 0.33878 0.0
C729 C 0.40416 0.88959 0.30078 0.0
C730 C 0.38631 0.86571 0.30356 0.0
H731 H 0.4419 0.91107 0.31404 0.0
H732 H 0.4005 0.90516 0.28406 0.0
S733 S 0.39368 0.80704 0.35644 0.0
N734 N 0.42142 0.82811 0.3627 0.0
N735 N 0.37599 0.82197 0.32979 0.0
C736 C 0.39243 0.84548 0.32499 0.0
C737 C 0.41707 0.84874 0.34275 0.0
C738 C 0.33962 0.1651 0.58402 0.0
C739 C 0.3627 0.18063 0.59578 0.0
C740 C 0.344 0.14386 0.5635 0.0
C741 C 0.37163 0.13752 0.554 0.0
H742 H 0.31779 0.17028 0.58971 0.0
H743 H 0.32554 0.13367 0.55382 0.0
S744 S 0.43957 0.16979 0.58027 0.0
N745 N 0.41427 0.18666 0.59816 0.0
N746 N 0.42279 0.14632 0.55981 0.0
C747 C 0.39511 0.15146 0.56704 0.0
C748 C 0.39059 0.17314 0.58794 0.0
C749 C 0.08343 0.14219 0.82068 0.0
C750 C 0.09512 0.11938 0.8048 0.0
C751 C 0.06272 0.13737 0.84161 0.0
C752 C 0.05294 0.1096 0.84717 0.0
H753 H 0.0894 0.16411 0.81603 0.0
H754 H 0.05322 0.15563 0.85226 0.0
S755 S 0.07816 0.04234 0.81281 0.0
N756 N 0.09659 0.06798 0.79704 0.0
N757 N 0.05791 0.05862 0.83666 0.0
C758 C 0.06565 0.0864 0.83256 0.0
C759 C 0.08676 0.09136 0.81129 0.0
C760 C 0.15865 0.38785 0.10984 0.0
C761 C 0.18343 0.39661 0.12436 0.0
C762 C 0.13548 0.40659 0.10706 0.0
C763 C 0.13653 0.43409 0.11927 0.0
H764 H 0.15724 0.36661 0.1006 0.0
H765 H 0.11709 0.39997 0.09458 0.0
S766 S 0.19824 0.46842 0.15528 0.0
N767 N 0.20887 0.43554 0.14814 0.0
N768 N 0.16497 0.47014 0.14368 0.0
C769 C 0.16128 0.44307 0.13348 0.0
C770 C 0.18491 0.42444 0.13578 0.0
C771 C 0.66346 0.08233 0.84031 0.0
C772 C 0.68155 0.09201 0.8624 0.0
C773 C 0.64076 0.06372 0.84592 0.0
C774 C 0.63561 0.05394 0.87378 0.0
H775 H 0.66751 0.08835 0.81832 0.0
H776 H 0.62814 0.05586 0.82811 0.0
S777 S 0.67693 0.0738 0.93917 0.0
N778 N 0.69244 0.09172 0.91309 0.0
N779 N 0.65039 0.05611 0.92395 0.0
C780 C 0.65302 0.06452 0.89627 0.0
C781 C 0.67584 0.08379 0.89051 0.0
C782 C 0.82695 0.88776 0.34909 0.0
C783 C 0.8057 0.88256 0.36979 0.0
C784 C 0.84621 0.91062 0.35188 0.0
C785 C 0.84477 0.92927 0.37539 0.0
H786 H 0.82806 0.87462 0.33 0.0
H787 H 0.86178 0.91411 0.33511 0.0
S788 S 0.79163 0.92594 0.4347 0.0
N789 N 0.78368 0.89836 0.41405 0.0
N790 N 0.81954 0.94133 0.4196 0.0
C791 C 0.82367 0.92408 0.39648 0.0
C792 C 0.80426 0.90068 0.39366 0.0
C793 C 0.828 0.05017 0.13988 0.0
C794 C 0.84806 0.05244 0.11781 0.0
C795 C 0.80551 0.06954 0.14207 0.0
C796 C 0.80221 0.09216 0.12243 0.0
H797 H 0.82875 0.03241 0.15471 0.0
H798 H 0.7901 0.06618 0.15903 0.0
S799 S 0.85033 0.10859 0.06171 0.0
N800 N 0.86421 0.0797 0.07649 0.0
N801 N 0.82175 0.11648 0.08088 0.0
C802 C 0.82255 0.09522 0.10063 0.0
C803 C 0.84558 0.07532 0.09833 0.0
C804 C 0.30342 0.56851 0.6397 0.0
C805 C 0.29951 0.59138 0.62039 0.0
C806 C 0.32741 0.55087 0.63835 0.0
C807 C 0.34836 0.55512 0.61744 0.0
H808 H 0.28748 0.56366 0.65577 0.0
H809 H 0.32862 0.5327 0.65266 0.0
S810 S 0.3496 0.61256 0.56281 0.0
N811 N 0.3196 0.61806 0.58059 0.0
N812 N 0.36462 0.58431 0.57769 0.0
C813 C 0.34526 0.57822 0.59842 0.0
C814 C 0.32082 0.59644 0.59991 0.0
C815 C 0.15812 0.59383 0.35205 0.0
C816 C 0.18286 0.59672 0.369 0.0
C817 C 0.14056 0.56957 0.35428 0.0
C818 C 0.14766 0.5474 0.37316 0.0
H819 H 0.15269 0.61015 0.33656 0.0
H820 H 0.12143 0.56822 0.34128 0.0
S821 S 0.21278 0.54278 0.41859 0.0
N822 N 0.21486 0.57445 0.40323 0.0
N823 N 0.18271 0.52852 0.40679 0.0
C824 C 0.1729 0.54973 0.38949 0.0
C825 C 0.19027 0.57456 0.38766 0.0
C826 C 0.31003 0.43788 0.8774 0.0
C827 C 0.33867 0.43237 0.87028 0.0
C828 C 0.28968 0.41619 0.87701 0.0
C829 C 0.29732 0.38823 0.86961 0.0
H830 H 0.30324 0.45926 0.88332 0.0
H831 H 0.26759 0.42154 0.88144 0.0
S832 S 0.36912 0.36267 0.84851 0.0
N833 N 0.37375 0.39711 0.85538 0.0
N834 N 0.33485 0.35596 0.85404 0.0
C835 C 0.32574 0.38232 0.86212 0.0
C836 C 0.34665 0.40456 0.86252 0.0
C837 C 0.60538 0.63725 0.90556 0.0
C838 C 0.6168 0.63776 0.93339 0.0
C839 C 0.60697 0.66154 0.88802 0.0
C840 C 0.61932 0.68696 0.89835 0.0
H841 H 0.59492 0.61815 0.89753 0.0
H842 H 0.59892 0.66032 0.86632 0.0
S843 S 0.64717 0.70041 0.97154 0.0
N844 N 0.63798 0.6663 0.97139 0.0
N845 N 0.63996 0.71216 0.9391 0.0
C846 C 0.62953 0.68795 0.92662 0.0
C847 C 0.62857 0.66323 0.944 0.0
C848 C 0.5906 0.34604 0.1612 0.0
C849 C 0.59737 0.3663 0.18247 0.0
C850 C 0.56883 0.35117 0.1414 0.0
C851 C 0.55299 0.37659 0.14255 0.0
H852 H 0.60115 0.32542 0.16089 0.0
H853 H 0.56345 0.33451 0.12616 0.0
S854 S 0.56351 0.43688 0.19382 0.0
N855 N 0.58772 0.413 0.20298 0.0
N856 N 0.54681 0.42307 0.16592 0.0
C857 C 0.56076 0.39773 0.16285 0.0
C858 C 0.58304 0.39249 0.18279 0.0
C859 C 0.88728 0.33923 0.41088 0.0
C860 C 0.86609 0.34526 0.4314 0.0
C861 C 0.88328 0.31785 0.39029 0.0
C862 C 0.85796 0.30176 0.38956 0.0
H863 H 0.90765 0.35031 0.41147 0.0
H864 H 0.90056 0.31322 0.3756 0.0
S865 S 0.79554 0.30984 0.43841 0.0
N866 N 0.81872 0.33415 0.44941 0.0
N867 N 0.81074 0.2941 0.41073 0.0
C868 C 0.836 0.30853 0.40925 0.0
C869 C 0.84016 0.33031 0.43016 0.0
C870 C 0.88689 0.60502 0.66051 0.0
C871 C 0.89317 0.6233 0.6835 0.0
C872 C 0.90578 0.60275 0.63739 0.0
C873 C 0.93122 0.61886 0.63656 0.0
H874 H 0.86738 0.5925 0.66039 0.0
H875 H 0.90081 0.58779 0.62034 0.0
S876 S 0.95927 0.66649 0.69357 0.0
N877 N 0.92787 0.65563 0.70542 0.0
N878 N 0.96295 0.65155 0.66177 0.0
C879 C 0.93786 0.63691 0.6596 0.0
C880 C 0.91892 0.639 0.68319 0.0
C881 C 0.60478 0.34782 0.57795 0.0
C882 C 0.61876 0.34698 0.55132 0.0
C883 C 0.6045 0.32387 0.59594 0.0
C884 C 0.61779 0.29839 0.58744 0.0
H885 H 0.59324 0.36683 0.58443 0.0
H886 H 0.594 0.32533 0.61652 0.0
S887 S 0.6537 0.28414 0.51803 0.0
N888 N 0.64425 0.3181 0.51647 0.0
N889 N 0.6432 0.2729 0.54976 0.0
C890 C 0.63132 0.29718 0.56058 0.0
C891 C 0.63205 0.32159 0.54265 0.0
C892 C 0.90304 0.34129 0.81623 0.0
C893 C 0.88943 0.36425 0.80227 0.0
C894 C 0.92229 0.346 0.83858 0.0
C895 C 0.92873 0.37387 0.84767 0.0
H896 H 0.89959 0.31944 0.80919 0.0
H897 H 0.93332 0.32779 0.84764 0.0
S898 S 0.8973 0.44125 0.81945 0.0
N899 N 0.88243 0.41565 0.80009 0.0
N900 N 0.91848 0.4248 0.84232 0.0
C901 C 0.91407 0.39698 0.83492 0.0
C902 C 0.89442 0.39211 0.81214 0.0
C903 C 0.87735 0.68981 0.06953 0.0
C904 C 0.86702 0.68199 0.09647 0.0
C905 C 0.8782 0.66994 0.04733 0.0
C906 C 0.86865 0.64166 0.05134 0.0
H907 H 0.88347 0.71177 0.0652 0.0
H908 H 0.886 0.67689 0.02665 0.0
S909 S 0.84135 0.61046 0.11867 0.0
N910 N 0.84789 0.64434 0.1266 0.0
N911 N 0.85001 0.60641 0.08462 0.0
C912 C 0.85877 0.63339 0.07835 0.0
C913 C 0.85788 0.65377 0.10105 0.0
C914 C 0.5767 0.62171 0.3497 0.0
C915 C 0.54942 0.61258 0.34106 0.0
C916 C 0.59927 0.62265 0.32993 0.0
C917 C 0.59502 0.61396 0.30144 0.0
H918 H 0.58064 0.62777 0.37173 0.0
H919 H 0.6199 0.63076 0.33673 0.0
S920 S 0.5267 0.59207 0.26772 0.0
N921 N 0.51878 0.59742 0.3017 0.0
N922 N 0.5613 0.59853 0.265 0.0
C923 C 0.56774 0.60534 0.29259 0.0
C924 C 0.54486 0.60485 0.31234 0.0
C925 C 0.65578 0.8848 0.61569 0.0
C926 C 0.68445 0.89284 0.61952 0.0
C927 C 0.63433 0.90569 0.61405 0.0
C928 C 0.64125 0.93484 0.61652 0.0
H929 H 0.64993 0.8624 0.61444 0.0
H930 H 0.61246 0.89912 0.61011 0.0
S931 S 0.71335 0.96652 0.62601 0.0
N932 N 0.71875 0.93161 0.62535 0.0
N933 N 0.67852 0.97075 0.6222 0.0
C934 C 0.66986 0.94299 0.6203 0.0
C935 C 0.69151 0.92194 0.62184 0.0
C936 C 0.20062 0.30239 0.22642 0.0
C937 C 0.21469 0.32831 0.23311 0.0
C938 C 0.17938 0.29116 0.24438 0.0
C939 C 0.17139 0.30577 0.26933 0.0
H940 H 0.20714 0.28993 0.20798 0.0
H941 H 0.17089 0.27002 0.23991 0.0
S942 S 0.19739 0.37687 0.29345 0.0
N943 N 0.21629 0.36991 0.26444 0.0
N944 N 0.17584 0.34917 0.29768 0.0
C945 C 0.18336 0.33287 0.27478 0.0
C946 C 0.2053 0.34401 0.2569 0.0
C947 C 0.93613 0.96226 0.47808 0.0
C948 C 0.90654 0.96756 0.47747 0.0
C949 C 0.94753 0.94119 0.49604 0.0
C950 C 0.9295 0.92464 0.51342 0.0
H951 H 0.95064 0.97567 0.46596 0.0
H952 H 0.97052 0.94005 0.49862 0.0
S953 S 0.8504 0.92524 0.51381 0.0
N954 N 0.85933 0.95136 0.49178 0.0
N955 N 0.88078 0.91106 0.52482 0.0
C956 C 0.89983 0.92731 0.51008 0.0
C957 C 0.88827 0.94921 0.4925 0.0
C958 C 0.29468 0.70003 0.74655 0.0
C959 C 0.31416 0.68247 0.76115 0.0
C960 C 0.27381 0.68799 0.72865 0.0
C961 C 0.27202 0.6582 0.72499 0.0
H962 H 0.29308 0.72256 0.75188 0.0
H963 H 0.25776 0.7018 0.71931 0.0
S964 S 0.3236 0.60445 0.75135 0.0
N965 N 0.33466 0.63504 0.76535 0.0
N966 N 0.29507 0.61225 0.73202 0.0
C967 C 0.29373 0.64098 0.73622 0.0
C968 C 0.31522 0.65332 0.75396 0.0
C969 C 0.54854 0.01039 0.00258 0.0
C970 C 0.57092 0.01675 0.98384 0.0
C971 C 0.53637 0.03179 0.01932 0.0
C972 C 0.5466 0.06007 0.01834 0.0
H973 H 0.54055 0.98868 0.00449 0.0
H974 H 0.51976 0.02587 0.03422 0.0
S975 S 0.60339 0.08806 0.97109 0.0
N976 N 0.60134 0.0536 0.96321 0.0
N977 N 0.57916 0.09383 -0.00388 0.0
C978 C 0.56803 0.06709 -0.00127 0.0
C979 C 0.58009 0.04531 0.98112 0.0
C980 C 0.19059 0.65296 0.20629 0.0
C981 C 0.17389 0.67687 0.2139 0.0
C982 C 0.21213 0.64268 0.22424 0.0
C983 C 0.21752 0.65557 0.25079 0.0
H984 H 0.18802 0.64293 0.18552 0.0
H985 H 0.22505 0.6249 0.21695 0.0
S986 S 0.17795 0.71694 0.28228 0.0
N987 N 0.16278 0.71184 0.25076 0.0
N988 N 0.20296 0.69221 0.28499 0.0
C989 C 0.19967 0.67826 0.25965 0.0
C990 C 0.17782 0.68893 0.24113 0.0
C991 C 0.59227 0.94017 0.49365 0.0
C992 C 0.57511 0.96334 0.50183 0.0
C993 C 0.58027 0.91681 0.47905 0.0
C994 C 0.551 0.91645 0.47207 0.0
H995 H 0.61513 0.94074 0.49736 0.0
H996 H 0.59449 0.90102 0.46985 0.0
S997 S 0.49665 0.96927 0.49456 0.0
N998 N 0.5272 0.98248 0.50646 0.0
N999 N 0.50459 0.93829 0.47949 0.0
C1000 C 0.53326 0.93737 0.48421 0.0
C1001 C 0.54546 0.96136 0.49842 0.0
C1002 C 0.30911 0.29838 0.73927 0.0
C1003 C 0.31315 0.31033 0.71208 0.0
C1004 C 0.28966 0.31074 0.75852 0.0
C1005 C 0.27356 0.33507 0.75087 0.0
H1006 H 0.31891 0.27813 0.74468 0.0
H1007 H 0.28554 0.2998 0.7785 0.0
S1008 S 0.28156 0.37758 0.68446 0.0
N1009 N 0.30376 0.3505 0.6805 0.0
N1010 N 0.2667 0.37313 0.71616 0.0
C1011 C 0.27982 0.34875 0.72494 0.0
C1012 C 0.29988 0.33654 0.70571 0.0
C1013 C 0.88697 0.04123 -0.00427 0.0
C1014 C 0.90398 0.01989 0.00795 0.0
C1015 C 0.89955 0.06311 0.97965 0.0
C1016 C 0.92927 0.06363 0.975 0.0
H1017 H 0.86389 0.03994 -0.00293 0.0
H1018 H 0.88573 0.0773 0.96768 0.0
S1019 S 0.98291 0.01509 0.00692 0.0
N1020 N 0.95183 0.00281 0.01834 0.0
N1021 N 0.97547 0.04372 0.98766 0.0
C1022 C 0.94655 0.0446 0.99039 0.0
C1023 C 0.93381 0.02239 0.00671 0.0
C1024 C 0.24308 0.17624 0.28866 0.0
C1025 C 0.2676 0.16762 0.30359 0.0
C1026 C 0.22509 0.1973 0.30016 0.0
C1027 C 0.23156 0.2105 0.32652 0.0
H1028 H 0.23936 0.16889 0.26698 0.0
H1029 H 0.20733 0.20484 0.28737 0.0
S1030 S 0.28965 0.19028 0.37639 0.0
N1031 N 0.29435 0.16958 0.34813 0.0
N1032 N 0.26123 0.20993 0.36923 0.0
C1033 C 0.25429 0.19985 0.34281 0.0
C1034 C 0.27204 0.17799 0.33149 0.0
C1035 C 0.04809 0.97993 0.5815 0.0
C1036 C 0.01862 0.98098 0.57561 0.0
C1037 C 0.06715 -0.00184 0.56705 0.0
C1038 C 0.05698 0.01705 0.54606 0.0
H1039 H 0.05615 0.96599 0.59811 0.0
H1040 H 0.08938 -0.00124 0.5735 0.0
S1041 S 0.9825 0.02358 0.51983 0.0
N1042 N 0.98072 -0.00022 0.54576 0.0
N1043 N 0.01652 0.03275 0.51759 0.0
C1044 C 0.02797 0.01612 0.53843 0.0
C1045 C 0.00869 -0.00158 0.55357 0.0
C1046 C 0.23064 0.81368 0.82173 0.0
C1047 C 0.21591 0.80718 0.79633 0.0
C1048 C 0.24676 0.79259 0.83581 0.0
C1049 C 0.24737 0.76425 0.82552 0.0
H1050 H 0.22858 0.83465 0.83142 0.0
H1051 H 0.25811 0.79822 0.85524 0.0
S1052 S 0.21461 0.73732 0.75861 0.0
N1053 N 0.2054 0.77138 0.7601 0.0
N1054 N 0.23396 0.73145 0.78754 0.0
C1055 C 0.23353 0.75787 0.79975 0.0
C1056 C 0.21824 0.77946 0.7849 0.0
C1057 C 0.44565 0.00638 0.0719 0.0
C1058 C 0.47447 -0.00159 0.07604 0.0
C1059 C 0.42557 0.98697 0.06049 0.0
C1060 C 0.43375 0.95904 0.05298 0.0
H1061 H 0.43852 0.02764 0.07772 0.0
H1062 H 0.40355 -0.00634 0.05802 0.0
S1063 S 0.50731 0.92914 0.05572 0.0
N1064 N 0.51046 0.96169 0.06899 0.0
N1065 N 0.47314 0.92546 0.04803 0.0
C1066 C 0.46267 0.9513 0.05619 0.0
C1067 C 0.48293 0.9709 0.06763 0.0
C1068 C 0.28238 0.77876 0.17477 0.0
C1069 C 0.27339 0.80699 0.18017 0.0
C1070 C 0.26352 0.75771 0.16507 0.0
C1071 C 0.2347 0.76394 0.15988 0.0
H1072 H 0.30431 0.7726 0.17815 0.0
H1073 H 0.2717 0.7363 0.16177 0.0
S1074 S 0.20046 0.83535 0.16813 0.0
N1075 N 0.2339 0.84059 0.17837 0.0
N1076 N 0.1981 0.80113 0.15944 0.0
C1077 C 0.22526 0.79232 0.16471 0.0
C1078 C 0.24464 0.8138 0.17501 0.0
C1079 C 0.44529 0.97327 0.43072 0.0
C1080 C 0.46014 0.97864 0.40501 0.0
C1081 C 0.42562 -0.00681 0.44168 0.0
C1082 C 0.42024 0.01884 0.42706 0.0
H1083 H 0.45016 0.95448 0.44332 0.0
H1084 H 0.41642 0.98956 0.46262 0.0
S1085 S 0.44996 0.0408 0.35683 0.0
N1086 N 0.46501 0.00966 0.36356 0.0
N1087 N 0.42884 0.04705 0.38431 0.0
C1088 C 0.43315 0.02315 0.40026 0.0
C1089 C 0.45295 0.00308 0.38919 0.0
C1090 C 0.23619 0.17916 0.69212 0.0
C1091 C 0.21258 0.16962 0.67614 0.0
C1092 C 0.25439 0.20049 0.68124 0.0
C1093 C 0.24909 0.21311 0.65439 0.0
H1094 H 0.23907 0.17215 0.714 0.0
H1095 H 0.27148 0.20853 0.69473 0.0
S1096 S 0.19375 0.1906 0.60215 0.0
N1097 N 0.18816 0.17017 0.63034 0.0
N1098 N 0.22136 0.21115 0.61044 0.0
C1099 C 0.22723 0.20168 0.63726 0.0
C1100 C 0.20937 0.1795 0.64797 0.0
C1101 C 0.05054 0.95962 0.90143 0.0
C1102 C 0.0649 0.96401 0.92758 0.0
C1103 C 0.02975 0.97866 0.89189 0.0
C1104 C 0.02298 0.00316 0.90781 0.0
H1105 H 0.05372 0.94005 0.88935 0.0
H1106 H 0.01818 0.97356 0.87244 0.0
S1107 S 0.05847 0.0274 0.97479 0.0
N1108 N 0.0738 -0.00352 0.96726 0.0
N1109 N 0.03523 0.03311 0.94883 0.0
C1110 C 0.03939 0.00947 0.93239 0.0
C1111 C 0.0604 0.98974 0.94234 0.0
C1112 C 0.2804 0.25103 0.18826 0.0
C1113 C 0.29755 0.26179 0.16606 0.0
C1114 C 0.29277 0.23693 0.21153 0.0
C1115 C 0.32234 0.2322 0.21256 0.0
H1116 H 0.25815 0.25726 0.18982 0.0
H1117 H 0.27931 0.2307 0.22933 0.0
S1118 S 0.37418 0.24648 0.15444 0.0
N1119 N 0.3438 0.26023 0.14283 0.0
N1120 N 0.36711 0.23256 0.18615 0.0
C1121 C 0.33881 0.2386 0.18833 0.0
C1122 C 0.3262 0.25322 0.16482 0.0
C1123 C 0.82563 0.22911 0.81537 0.0
C1124 C 0.79771 0.21865 0.81122 0.0
C1125 C 0.83844 0.24691 0.79491 0.0
C1126 C 0.82373 0.25392 0.76971 0.0
H1127 H 0.83857 0.22104 0.83279 0.0
H1128 H 0.86038 0.25376 0.79794 0.0
S1129 S 0.74928 0.23498 0.75093 0.0
N1130 N 0.75458 0.22009 0.78245 0.0
N1131 N 0.77934 0.25176 0.74306 0.0
C1132 C 0.79511 0.24581 0.76671 0.0
C1133 C 0.78175 0.22892 0.78803 0.0
C1134 C 0.98229 0.58876 0.0393 0.0
C1135 C 0.97567 0.57208 0.01513 0.0
C1136 C 0.00102 0.57835 0.06031 0.0
C1137 C 0.01267 0.55075 0.05798 0.0
H1138 H 0.97446 0.61049 0.04101 0.0
H1139 H 0.00845 0.5928 0.0769 0.0
S1140 S -0.00163 0.49769 0.00073 0.0
N1141 N 0.97992 0.52621 0.99127 0.0
N1142 N 0.01343 0.50592 0.03165 0.0
C1143 C 0.00335 0.5329 0.03563 0.0
C1144 C 0.98542 0.54387 0.01374 0.0
C1145 C 0.66969 0.72516 0.28382 0.0
C1146 C 0.65088 0.73426 0.26198 0.0
C1147 C 0.68108 0.74453 0.3039 0.0
C1148 C 0.67387 0.77365 0.30298 0.0
H1149 H 0.67677 0.70313 0.28467 0.0
H1150 H 0.69676 0.73694 0.31914 0.0
S1151 S 0.62125 0.80741 0.25383 0.0
N1152 N 0.62276 0.77373 0.24329 0.0
N1153 N 0.6434 0.80983 0.28118 0.0
C1154 C 0.65316 0.78248 0.28286 0.0
C1155 C 0.64191 0.76291 0.26228 0.0
C1156 C 0.97047 0.91427 0.00271 0.0
C1157 C -0.00226 0.90534 0.01121 0.0
C1158 C 0.95173 0.92679 0.02216 0.0
C1159 C 0.95926 0.93084 0.05109 0.0
H1160 H 0.96365 0.91209 0.98066 0.0
H1161 H 0.93105 0.9335 0.01424 0.0
S1162 S 0.02781 0.91004 0.08474 0.0
N1163 N 0.0314 0.90075 0.05081 0.0
N1164 N -0.00433 0.92433 0.08756 0.0
C1165 C 0.98645 0.92204 0.06009 0.0
C1166 C 0.00577 0.90922 0.04012 0.0
C1167 C 0.15594 0.70206 0.69987 0.0
C1168 C 0.17573 0.71101 0.67892 0.0
C1169 C 0.14396 0.72119 0.71934 0.0
C1170 C 0.15105 0.7503 0.71879 0.0
H1171 H 0.15035 0.67967 0.70211 0.0
H1172 H 0.12976 0.71281 0.73559 0.0
S1173 S 0.19919 0.78568 0.66612 0.0
N1174 N 0.20004 0.75147 0.65719 0.0
N1175 N 0.17723 0.78793 0.69365 0.0
C1176 C 0.1693 0.7601 0.69668 0.0
C1177 C 0.18172 0.74036 0.67679 0.0
C1178 C 0.98129 0.44123 0.45873 0.0
C1179 C 0.97796 0.41147 0.46048 0.0
C1180 C -0.00388 0.45351 0.43589 0.0
C1181 C 0.00893 0.43611 0.41501 0.0
H1182 H 0.97393 0.45489 0.47596 0.0
H1183 H 0.00144 0.47607 0.43715 0.0
S1184 S -0.00251 0.35831 0.4051 0.0
N1185 N 0.98162 0.36578 0.4358 0.0
N1186 N 0.01051 0.38896 0.39318 0.0
C1187 C 0.0015 0.40701 0.41411 0.0
C1188 C 0.98621 0.39447 0.43721 0.0
C1189 C 0.46852 0.58058 0.92948 0.0
C1190 C 0.46852 0.55109 0.9231 0.0
C1191 C 0.48438 0.59159 0.95235 0.0
C1192 C 0.50143 0.57356 0.96898 0.0
H1193 H 0.4537 0.59472 0.91874 0.0
H1194 H 0.48268 0.61413 0.95753 0.0
S1195 S 0.5121 0.49562 0.959 0.0
N1196 N 0.48896 0.50455 0.93382 0.0
N1197 N 0.52008 0.52562 0.97604 0.0
C1198 C 0.50384 0.54458 0.96124 0.0
C1199 C 0.48724 0.53325 0.93825 0.0
C1200 C 0.66804 0.8248 0.7537 0.0
C1201 C 0.66878 0.7958 0.76164 0.0
C1202 C 0.69073 0.83699 0.73845 0.0
C1203 C 0.71435 0.82027 0.73077 0.0
H1204 H 0.65189 0.83885 0.76255 0.0
H1205 H 0.69058 0.85975 0.73411 0.0
S1206 S 0.7233 0.74238 0.74086 0.0
N1207 N 0.69233 0.74987 0.75606 0.0
N1208 N 0.73521 0.77292 0.72771 0.0
C1209 C 0.71357 0.79073 0.73533 0.0
C1210 C 0.6903 0.77829 0.75027 0.0
C1211 C 0.44713 0.43965 4e-05 0.0
C1212 C 0.42935 0.41965 0.01373 0.0
C1213 C 0.43538 0.46151 0.98339 0.0
C1214 C 0.40568 0.4637 0.97982 0.0
H1215 H 0.46974 0.4406 0.00509 0.0
H1216 H 0.44941 0.47769 0.97457 0.0
S1217 S 0.35117 0.41177 0.00431 0.0
N1218 N 0.38156 0.39981 0.01773 0.0
N1219 N 0.3594 0.44095 0.98613 0.0
C1220 C 0.38812 0.44183 0.99033 0.0
C1221 C 0.4001 0.4195 0.00711 0.0
C1222 C 0.7757 0.17799 0.28001 0.0
C1223 C 0.80471 0.18041 0.27237 0.0
C1224 C 0.75515 0.16811 0.26076 0.0
C1225 C 0.76263 0.15987 0.23292 0.0
H1226 H 0.76855 0.18399 0.30116 0.0
H1227 H 0.73311 0.16727 0.2678 0.0
S1228 S 0.8362 0.15955 0.20273 0.0
N1229 N 0.84029 0.17244 0.23544 0.0
N1230 N 0.80163 0.15325 0.19891 0.0
C1231 C 0.79174 0.16167 0.22491 0.0
C1232 C 0.81278 0.17209 0.24469 0.0
C1233 C 0.04115 0.55736 0.49293 0.0
C1234 C 0.05591 0.56521 0.51787 0.0
C1235 C 0.05216 0.5362 0.4747 0.0
C1236 C 0.07801 0.52216 0.48114 0.0
H1237 H 0.02 0.56577 0.48874 0.0
H1238 H 0.03948 0.52956 0.45644 0.0
S1239 S 0.12695 0.53912 0.54131 0.0
N1240 N 0.09941 0.56065 0.54593 0.0
N1241 N 0.11978 0.52047 0.51211 0.0
C1242 C 0.09395 0.53155 0.50482 0.0
C1243 C 0.08301 0.55334 0.52299 0.0
C1244 C 0.70349 0.18381 0.70577 0.0
C1245 C 0.6739 0.18421 0.71117 0.0
C1246 C 0.72227 0.1692 0.7235 0.0
C1247 C 0.71235 0.15486 0.74775 0.0
H1248 H 0.71231 0.19454 0.68724 0.0
H1249 H 0.74487 0.16953 0.71841 0.0
S1250 S 0.63702 0.14859 0.77154 0.0
N1251 N 0.63536 0.16837 0.74229 0.0
N1252 N 0.67125 0.14149 0.77666 0.0
C1253 C 0.68294 0.15543 0.75404 0.0
C1254 C 0.66353 0.17008 0.73553 0.0
C1255 C 0.04705 0.42642 0.98998 0.0
C1256 C 0.0605 0.42006 0.96396 0.0
C1257 C 0.0583 0.44761 0.00814 0.0
C1258 C 0.08291 0.46341 0.00049 0.0
H1259 H 0.02664 0.41679 -0.00479 0.0
H1260 H 0.04662 0.45284 0.02744 0.0
S1261 S 0.12928 0.44969 0.9378 0.0
N1262 N 0.10245 0.42697 0.93415 0.0
N1263 N 0.12281 0.46765 0.96756 0.0
C1264 C 0.09785 0.45528 0.97585 0.0
C1265 C 0.08686 0.43325 0.95785 0.0
C1266 C 0.7887 0.84283 0.23741 0.0
C1267 C 0.77069 0.82578 0.25417 0.0
C1268 C 0.8103 0.83035 0.22097 0.0
C1269 C 0.8142 0.80051 0.22059 0.0
H1270 H 0.78547 0.86575 0.2363 0.0
H1271 H 0.8223 0.84383 0.20642 0.0
S1272 S 0.77293 0.7469 0.26172 0.0
N1273 N 0.75889 0.77799 0.2709 0.0
N1274 N 0.79908 0.75444 0.23921 0.0
C1275 C 0.79749 0.78348 0.23871 0.0
C1276 C 0.77564 0.79618 0.25561 0.0
C1277 C 0.41045 0.50561 0.4716 0.0
C1278 C 0.40539 0.51321 0.50016 0.0
C1279 C 0.42282 0.52492 0.45254 0.0
C1280 C 0.4309 0.55274 0.46108 0.0
H1281 H 0.40516 0.48438 0.46387 0.0
H1282 H 0.42628 0.51768 0.43081 0.0
S1283 S 0.42191 0.58375 0.53348 0.0
N1284 N 0.40919 0.55085 0.53626 0.0
N1285 N 0.43269 0.58716 0.50003 0.0
C1286 C 0.42621 0.56076 0.48962 0.0
C1287 C 0.41341 0.541 0.50923 0.0
C1288 C 0.75709 0.72373 0.81143 0.0
C1289 C 0.73169 0.71483 0.82447 0.0
C1290 C 0.77525 0.70405 0.79854 0.0
C1291 C 0.76903 0.67459 0.79832 0.0
H1292 H 0.76304 0.74616 0.81116 0.0
H1293 H 0.79486 0.71202 0.78933 0.0
S1294 S 0.70456 0.64033 0.82915 0.0
N1295 N 0.70031 0.67483 0.83576 0.0
N1296 N 0.73515 0.6374 0.81171 0.0
C1297 C 0.74316 0.66532 0.81042 0.0
C1298 C 0.72435 0.68559 0.82352 0.0
C1299 C 0.52243 0.50871 0.09152 0.0
C1300 C 0.51841 0.48194 0.07845 0.0
C1301 C 0.54302 0.52785 0.08141 0.0
C1302 C 0.56023 0.5212 0.05762 0.0
H1303 H 0.50919 0.51525 0.10935 0.0
H1304 H 0.5445 0.5487 0.09153 0.0
S1305 S 0.56007 0.45296 0.01715 0.0
N1306 N 0.53501 0.44878 0.04164 0.0
N1307 N 0.57349 0.48525 0.02251 0.0
C1308 C 0.55774 0.49392 0.04533 0.0
C1309 C 0.53677 0.47422 0.05571 0.0
C1310 C 0.72899 0.30827 0.3317 0.0
C1311 C 0.72139 0.3102 0.30265 0.0
C1312 C 0.74612 0.28582 0.34154 0.0
C1313 C 0.75637 0.26504 0.3225 0.0
H1314 H 0.71875 0.32201 0.34731 0.0
H1315 H 0.75009 0.28384 0.36428 0.0
S1316 S 0.74792 0.26413 0.24378 0.0
N1317 N 0.72947 0.2923 0.25447 0.0
N1318 N 0.76206 0.25028 0.27302 0.0
C1319 C 0.75209 0.26882 0.29308 0.0
C1320 C 0.73476 0.29171 0.28306 0.0
C1321 C 0.94896 0.50667 0.54974 0.0
C1322 C 0.96279 0.50069 0.57584 0.0
C1323 C 0.92703 0.48886 0.53942 0.0
C1324 C 0.91809 0.46502 0.5553 0.0
H1325 H 0.95646 0.52403 0.53636 0.0
H1326 H 0.91902 0.49219 0.51794 0.0
S1327 S 0.94268 0.4444 0.62772 0.0
N1328 N 0.96283 0.47219 0.6192 0.0
N1329 N 0.921 0.43933 0.60027 0.0
C1330 C 0.92946 0.46097 0.58281 0.0
C1331 C 0.95215 0.47855 0.59295 0.0
C1332 C 0.74356 0.29729 0.69909 0.0
C1333 C 0.75965 0.31483 0.68078 0.0
C1334 C 0.7248 0.27668 0.6879 0.0
C1335 C 0.72155 0.27346 0.65822 0.0
H1336 H 0.74807 0.2971 0.72181 0.0
H1337 H 0.71437 0.26188 0.70234 0.0
S1338 S 0.7511 0.32098 0.60234 0.0
N1339 N 0.76559 0.33265 0.63246 0.0
N1340 N 0.73018 0.29389 0.6113 0.0
C1341 C 0.73415 0.29366 0.64008 0.0
C1342 C 0.75305 0.31468 0.65151 0.0
C1343 C 0.95249 0.53257 0.92856 0.0
C1344 C 0.92384 0.5239 0.93159 0.0
C1345 C 0.97346 0.51398 0.91871 0.0
C1346 C 0.96678 0.4858 0.91098 0.0
H1347 H 0.95906 0.55404 0.93401 0.0
H1348 H -0.00479 0.52187 0.91735 0.0
S1349 S 0.89431 0.45287 0.91187 0.0
N1350 N 0.88932 0.48557 0.92446 0.0
N1351 N 0.92892 0.4502 0.90533 0.0
C1352 C 0.93805 0.47664 0.91338 0.0
C1353 C 0.91652 0.49578 0.92379 0.0
C1354 C 0.73649 0.67288 0.18588 0.0
C1355 C 0.70914 0.66949 0.17396 0.0
C1356 C 0.7549 0.69441 0.17593 0.0
C1357 C 0.74627 0.71328 0.1541 0.0
H1358 H 0.74286 0.66041 0.20429 0.0
H1359 H 0.77523 0.69745 0.18665 0.0
S1360 S 0.67939 0.70879 0.11173 0.0
N1361 N 0.67654 0.68306 0.13567 0.0
N1362 N 0.71061 0.72416 0.11792 0.0
C1363 C 0.7201 0.7083 0.14033 0.0
C1364 C 0.70172 0.68609 0.14995 0.0
C1365 C 0.54072 0.50011 0.39696 0.0
C1366 C 0.51306 0.50155 0.40872 0.0
C1367 C 0.56203 0.48341 0.41001 0.0
C1368 C 0.55651 0.46911 0.43583 0.0
H1369 H 0.54544 0.51084 0.37701 0.0
H1370 H 0.58213 0.48018 0.399 0.0
S1371 S 0.4888 0.4699 0.47694 0.0
N1372 N 0.48206 0.48937 0.44835 0.0
N1373 N 0.52248 0.45987 0.47392 0.0
C1374 C 0.52973 0.47276 0.44891 0.0
C1375 C 0.50783 0.48843 0.43502 0.0
C1376 C 0.78764 0.74339 0.68105 0.0
C1377 C 0.80404 0.76681 0.67179 0.0
C1378 C 0.79775 0.72546 0.7029 0.0
C1379 C 0.82419 0.73085 0.71636 0.0
H1380 H 0.76605 0.74037 0.6732 0.0
H1381 H 0.78404 0.7084 0.71053 0.0
S1382 S 0.87724 0.78597 0.69562 0.0
N1383 N 0.8497 0.79154 0.67427 0.0
N1384 N 0.86821 0.75852 0.71594 0.0
C1385 C 0.84166 0.7527 0.70561 0.0
C1386 C 0.8317 0.77042 0.68302 0.0
C1387 C 0.30545 0.70266 0.27379 0.0
C1388 C 0.30011 0.71142 0.30213 0.0
C1389 C 0.31609 0.72154 0.25337 0.0
C1390 C 0.32201 0.75015 0.26029 0.0
H1391 H 0.30129 0.68087 0.26707 0.0
H1392 H 0.3195 0.71355 0.23189 0.0
S1393 S 0.31197 0.78405 0.33176 0.0
N1394 N 0.30146 0.75059 0.3363 0.0
N1395 N 0.3217 0.78658 0.2979 0.0
C1396 C 0.31657 0.75947 0.28862 0.0
C1397 C 0.30554 0.74001 0.30953 0.0
C1398 C 0.5017 0.09392 0.52759 0.0
C1399 C 0.47801 0.07815 0.51814 0.0
C1400 C 0.51988 0.08299 0.54855 0.0
C1401 C 0.51554 0.05556 0.56022 0.0
H1402 H 0.50681 0.1144 0.51804 0.0
H1403 H 0.539 0.09507 0.55383 0.0
S1404 S 0.45354 0.00799 0.54642 0.0
N1405 N 0.44844 0.0357 0.52516 0.0
N1406 N 0.48356 0.01466 0.56391 0.0
C1407 C 0.4904 0.04075 0.55309 0.0
C1408 C 0.47148 0.05212 0.532 0.0
C1409 C 0.16714 0.24883 0.80847 0.0
C1410 C 0.18661 0.26941 0.79854 0.0
C1411 C 0.15203 0.23154 0.78895 0.0
C1412 C 0.15551 0.23518 0.75922 0.0
H1413 H 0.1627 0.24697 0.83112 0.0
H1414 H 0.13708 0.21578 0.79704 0.0
S1415 S 0.20725 0.28308 0.72324 0.0
N1416 N 0.21128 0.28975 0.75766 0.0
N1417 N 0.18196 0.25846 0.72117 0.0
C1418 C 0.17579 0.25481 0.74935 0.0
C1419 C 0.19163 0.27159 0.76903 0.0
C1420 C 0.48395 0.4209 0.55979 0.0
C1421 C 0.45525 0.42532 0.55202 0.0
C1422 C 0.50351 0.40875 0.54035 0.0
C1423 C 0.49507 0.40053 0.51248 0.0
H1424 H 0.49138 0.42703 0.58088 0.0
H1425 H 0.5255 0.4061 0.54711 0.0
S1426 S 0.42278 0.4092 0.48096 0.0
N1427 N 0.41984 0.42129 0.51393 0.0
N1428 N 0.45619 0.39856 0.47804 0.0
C1429 C 0.4664 0.40459 0.50465 0.0
C1430 C 0.44666 0.41701 0.52422 0.0
C1431 C 0.66878 0.22107 0.22293 0.0
C1432 C 0.65803 0.24813 0.21621 0.0
C1433 C 0.68073 0.20372 0.20187 0.0
C1434 C 0.68269 0.21245 0.17323 0.0
H1435 H 0.66796 0.21314 0.24467 0.0
H1436 H 0.68792 0.18291 0.20809 0.0
S1437 S 0.65754 0.2817 0.14419 0.0
N1438 N 0.65016 0.28344 0.1787 0.0
N1439 N 0.67288 0.25027 0.13902 0.0
C1440 C 0.67269 0.23982 0.16611 0.0
C1441 C 0.66029 0.25774 0.18766 0.0
C1442 C 0.5107 0.89263 0.96893 0.0
C1443 C 0.48127 0.89811 0.96763 0.0
C1444 C 0.52959 0.9051 0.9495 0.0
C1445 C 0.52009 0.92394 0.92797 0.0
H1446 H 0.51949 0.87939 0.98574 0.0
H1447 H 0.55215 0.90073 0.95227 0.0
S1448 S 0.44459 0.94201 0.91227 0.0
N1449 N 0.44292 0.921 0.94057 0.0
N1450 N 0.47888 0.94488 0.90437 0.0
C1451 C 0.49054 0.92813 0.92501 0.0
C1452 C 0.47106 0.91516 0.94478 0.0
C1453 C 0.0064 0.07392 0.44416 0.0
C1454 C -0.00279 0.08479 0.47084 0.0
C1455 C 0.98708 0.06115 0.42478 0.0
C1456 C 0.95787 0.05873 0.43141 0.0
H1457 H 0.02879 0.07478 0.43836 0.0
H1458 H -0.00486 0.05285 0.40471 0.0
S1459 S 0.92297 0.08323 0.49878 0.0
N1460 N 0.95681 0.09232 0.50259 0.0
N1461 N 0.92093 0.06807 0.46701 0.0
C1462 C 0.94846 0.06992 0.45791 0.0
C1463 C 0.96796 0.0831 0.47734 0.0
C1464 C 0.15797 0.38173 0.37763 0.0
C1465 C 0.13381 0.394 0.39027 0.0
C1466 C 0.16093 0.35196 0.3765 0.0
C1467 C 0.13958 0.33386 0.38762 0.0
H1468 H 0.17386 0.3951 0.36737 0.0
H1469 H 0.17883 0.34334 0.36486 0.0
S1470 S 0.07398 0.35599 0.42574 0.0
N1471 N 0.08955 0.38623 0.41623 0.0
N1472 N 0.09516 0.33028 0.41413 0.0
C1473 C 0.11637 0.34603 0.40198 0.0
C1474 C 0.11343 0.37621 0.40324 0.0
C1475 C 0.88153 0.87035 0.6551 0.0
C1476 C 0.89349 0.88958 0.63554 0.0
C1477 C 0.85195 0.86892 0.65879 0.0
C1478 C 0.83365 0.88646 0.64274 0.0
H1479 H 0.89499 0.85537 0.66649 0.0
H1480 H 0.8434 0.85242 0.6725 0.0
S1481 S 0.85434 0.9417 0.5903 0.0
N1482 N 0.88483 0.92757 0.60101 0.0
N1483 N 0.82913 0.92481 0.60831 0.0
C1484 C 0.84533 0.90681 0.62433 0.0
C1485 C 0.87541 0.9084 0.62061 0.0
C1486 C 0.33159 0.63034 0.89194 0.0
C1487 C 0.35552 0.64667 0.88346 0.0
C1488 C 0.33254 0.60031 0.89188 0.0
C1489 C 0.35726 0.58593 0.8829 0.0
H1490 H 0.31164 0.64073 0.89736 0.0
H1491 H 0.31354 0.58834 0.89763 0.0
S1492 S 0.42714 0.6184 0.86422 0.0
N1493 N 0.40592 0.64588 0.87032 0.0
N1494 N 0.40725 0.58972 0.86946 0.0
C1495 C 0.38185 0.60191 0.87655 0.0
C1496 C 0.38111 0.63226 0.87707 0.0
C1497 C 0.63162 0.09925 0.10723 0.0
C1498 C 0.64648 0.09674 0.13325 0.0
C1499 C 0.60189 0.10086 0.10661 0.0
C1500 C 0.58584 0.0996 0.1319 0.0
H1501 H 0.64304 0.10165 0.08723 0.0
H1502 H 0.59137 0.10378 0.08617 0.0
S1503 S 0.6135 0.08615 0.2048 0.0
N1504 N 0.64235 0.08762 0.18449 0.0
N1505 N 0.58608 0.09118 0.18309 0.0
C1506 C 0.59994 0.09419 0.15775 0.0
C1507 C 0.63042 0.09248 0.15846 0.0
C1508 C 0.10957 0.63171 0.11633 0.0
C1509 C 0.13015 0.64795 0.10171 0.0
C1510 C 0.11053 0.602 0.11631 0.0
C1511 C 0.1317 0.58707 0.10113 0.0
H1512 H 0.0931 0.64193 0.12897 0.0
H1513 H 0.09427 0.59067 0.12829 0.0
S1514 S 0.18859 0.61934 0.05634 0.0
N1515 N 0.17126 0.64705 0.0698 0.0
N1516 N 0.1724 0.59053 0.06897 0.0
C1517 C 0.15159 0.60283 0.08502 0.0
C1518 C 0.15097 0.63344 0.08551 0.0
C1519 C 0.63608 0.86025 0.33902 0.0
C1520 C 0.65322 0.88357 0.34717 0.0
C1521 C 0.60635 0.86237 0.33876 0.0
C1522 C 0.59283 0.88793 0.34663 0.0
H1523 H 0.64561 0.8397 0.33444 0.0
H1524 H 0.59384 0.8434 0.33398 0.0
S1525 S 0.62885 0.95588 0.36759 0.0
N1526 N 0.65529 0.93328 0.36174 0.0
N1527 N 0.59922 0.93789 0.36056 0.0
C1528 C 0.60996 0.91209 0.35285 0.0
C1529 C 0.64032 0.90972 0.35345 0.0
C1530 C 0.3739 0.38329 0.60739 0.0
C1531 C 0.34935 0.39963 0.60213 0.0
C1532 C 0.37324 0.35353 0.60577 0.0
C1533 C 0.34782 0.33868 0.59933 0.0
H1534 H 0.39391 0.39361 0.61304 0.0
H1535 H 0.39271 0.34211 0.61082 0.0
S1536 S 0.27853 0.37201 0.57964 0.0
N1537 N 0.29969 0.39944 0.58701 0.0
N1538 N 0.29812 0.343 0.58422 0.0
C1539 C 0.32344 0.35488 0.59213 0.0
C1540 C 0.32427 0.3855 0.59354 0.0
C1541 C 0.88135 0.08401 0.87291 0.0
C1542 C 0.89916 0.09564 0.85178 0.0
C1543 C 0.8517 0.08373 0.86939 0.0
C1544 C 0.83916 0.09469 0.84446 0.0
H1545 H 0.89028 0.07643 0.89285 0.0
H1546 H 0.83844 0.0762 0.88682 0.0
S1547 S 0.87757 0.12578 0.7822 0.0
N1548 N 0.90312 0.11691 0.80484 0.0
N1549 N 0.84739 0.11614 0.79771 0.0
C1550 C 0.85714 0.10477 0.82247 0.0
C1551 C 0.88728 0.10535 0.82628 0.0
C1552 C 0.38702 0.15581 0.38232 0.0
C1553 C 0.38009 0.13008 0.39616 0.0
C1554 C 0.38722 0.15736 0.35228 0.0
C1555 C 0.38116 0.133 0.33546 0.0
H1556 H 0.39117 0.17499 0.39472 0.0
H1557 H 0.39104 0.17788 0.34228 0.0
S1558 S 0.36564 0.05971 0.36221 0.0
N1559 N 0.36928 0.07946 0.39127 0.0
N1560 N 0.37139 0.08169 0.3353 0.0
C1561 C 0.37643 0.10671 0.34939 0.0
C1562 C 0.37536 0.10543 0.37966 0.0
C1563 C 0.09548 0.15282 0.60107 0.0
C1564 C 0.10231 0.12754 0.58637 0.0
C1565 C 0.09299 0.15293 0.63101 0.0
C1566 C 0.0971 0.12771 0.64701 0.0
H1567 H 0.09289 0.17269 0.58947 0.0
H1568 H 0.0889 0.17308 0.64163 0.0
S1569 S 0.10784 0.05476 0.61734 0.0
N1570 N 0.1083 0.076 0.58922 0.0
N1571 N 0.10274 0.07597 0.64514 0.0
C1572 C 0.10106 0.10188 0.63207 0.0
C1573 C 0.10405 0.10188 0.60183 0.0
C1574 C 0.0925 0.83067 0.88153 0.0
C1575 C 0.10124 0.85475 0.89729 0.0
C1576 C 0.09206 0.83137 0.85148 0.0
C1577 C 0.09981 0.85635 0.83642 0.0
H1578 H 0.08701 0.81098 0.89241 0.0
H1579 H 0.08668 0.81192 0.84003 0.0
S1580 S 0.11815 0.92681 0.8686 0.0
N1581 N 0.1142 0.90513 0.89609 0.0
N1582 N 0.11174 0.90701 0.84004 0.0
C1583 C 0.10591 0.88126 0.85225 0.0
C1584 C 0.10716 0.88028 0.88261 0.0
C1585 C 0.35557 0.86249 0.10291 0.0
C1586 C 0.37689 0.8494 0.08627 0.0
C1587 C 0.35739 0.86325 0.13262 0.0
C1588 C 0.38023 0.85038 0.14719 0.0
H1589 H 0.33774 0.87338 0.09298 0.0
H1590 H 0.34051 0.87395 0.14431 0.0
S1591 S 0.43965 0.80971 0.11425 0.0
N1592 N 0.42043 0.82087 0.08678 0.0
N1593 N 0.4233 0.8217 0.14321 0.0
C1594 C 0.40086 0.83559 0.13117 0.0
C1595 C 0.3993 0.83521 0.10058 0.0
C1596 C 0.38041 0.38112 0.10535 0.0
C1597 C 0.39652 0.38388 0.13051 0.0
C1598 C 0.35075 0.38343 0.10584 0.0
C1599 C 0.33607 0.38807 0.13165 0.0
H1600 H 0.39079 0.37665 0.08511 0.0
H1601 H 0.3392 0.37992 0.08604 0.0
S1602 S 0.36935 0.4027 0.20244 0.0
N1603 N 0.39661 0.39592 0.18105 0.0
N1604 N 0.34041 0.40024 0.18229 0.0
C1605 C 0.35221 0.39367 0.15657 0.0
C1606 C 0.38262 0.39144 0.15595 0.0
C1607 C 0.82523 0.88324 0.11008 0.0
C1608 C 0.84748 0.89554 0.09428 0.0
C1609 C 0.82248 0.85348 0.11199 0.0
C1610 C 0.84213 0.83516 0.09845 0.0
H1611 H 0.81072 0.89668 0.12212 0.0
H1612 H 0.8062 0.84505 0.12593 0.0
S1613 S 0.90411 0.85677 0.05436 0.0
N1614 N 0.88932 0.88714 0.06457 0.0
N1615 N 0.88397 0.83126 0.06816 0.0
C1616 C 0.86386 0.8472 0.08182 0.0
C1617 C 0.86658 0.87744 0.0797 0.0
C1618 C 0.1295 0.57635 0.63554 0.0
C1619 C 0.14259 0.60334 0.63731 0.0
C1620 C 0.09955 0.57386 0.63593 0.0
C1621 C 0.0821 0.59834 0.63803 0.0
H1622 H 0.14234 0.55735 0.63237 0.0
H1623 H 0.09018 0.55293 0.63277 0.0
S1624 S 0.1068 0.67308 0.64874 0.0
N1625 N 0.13637 0.65434 0.64469 0.0
N1626 N 0.08044 0.64963 0.64679 0.0
C1627 C 0.09529 0.62497 0.64275 0.0
C1628 C 0.12551 0.62751 0.64183 0.0
C1629 C 0.61579 0.88325 0.90375 0.0
C1630 C 0.63294 0.90122 0.88679 0.0
C1631 C 0.61749 0.85352 0.90126 0.0
C1632 C 0.6365 0.84096 0.8819 0.0
H1633 H 0.59959 0.89209 0.9176 0.0
H1634 H 0.60308 0.84032 0.91372 0.0
S1635 S 0.68571 0.87882 0.83243 0.0
N1636 N 0.66948 0.90465 0.85023 0.0
N1637 N 0.67257 0.84864 0.84522 0.0
C1638 C 0.65424 0.8587 0.8653 0.0
C1639 C 0.65244 0.88896 0.8678 0.0
C1640 C 0.83968 0.12807 0.3988 0.0
C1641 C 0.85011 0.14465 0.37613 0.0
C1642 C 0.83982 0.09806 0.39697 0.0
C1643 C 0.84995 0.08401 0.37224 0.0
H1644 H 0.83252 0.13825 0.41835 0.0
H1645 H 0.83314 0.08588 0.41547 0.0
S1646 S 0.8732 0.11886 0.30476 0.0
N1647 N 0.86697 0.14551 0.32703 0.0
N1648 N 0.86579 0.08952 0.32288 0.0
C1649 C 0.85763 0.10074 0.34846 0.0
C1650 C 0.85821 0.131 0.35065 0.0
C1651 C 0.63525 0.13119 0.57634 0.0
C1652 C 0.63586 0.14458 0.6032 0.0
C1653 C 0.63562 0.10123 0.57429 0.0
C1654 C 0.6365 0.0842 0.59911 0.0
H1655 H 0.63293 0.1438 0.55707 0.0
H1656 H 0.63319 0.09153 0.55342 0.0
S1657 S 0.64467 0.10978 0.67379 0.0
N1658 N 0.64154 0.13912 0.65451 0.0
N1659 N 0.64322 0.08306 0.65067 0.0
C1660 C 0.64023 0.09765 0.6257 0.0
C1661 C 0.63948 0.12788 0.62777 0.0
C1662 C 0.10183 0.40593 0.86126 0.0
C1663 C 0.08328 0.38811 0.84556 0.0
C1664 C 0.13146 0.40231 0.86005 0.0
C1665 C 0.14344 0.38102 0.84276 0.0
H1666 H 0.09353 0.42131 0.87627 0.0
H1667 H 0.14498 0.41542 0.87363 0.0
S1668 S 0.10425 0.32968 0.79634 0.0
N1669 N 0.07895 0.34928 0.81126 0.0
N1670 N 0.13478 0.34232 0.80892 0.0
C1671 C 0.12526 0.36388 0.82591 0.0
C1672 C 0.09507 0.36746 0.82733 0.0
C1673 C 0.35124 0.58075 0.34142 0.0
C1674 C 0.33598 0.60544 0.34899 0.0
C1675 C 0.3813 0.58076 0.34193 0.0
C1676 C 0.39677 0.6056 0.34959 0.0
H1677 H 0.33994 0.56114 0.33624 0.0
H1678 H 0.39236 0.56092 0.33751 0.0
S1679 S 0.36599 0.6772 0.36517 0.0
N1680 N 0.33809 0.65602 0.36078 0.0
N1681 N 0.39417 0.65665 0.36015 0.0
C1682 C 0.38147 0.63103 0.35447 0.0
C1683 C 0.35114 0.63076 0.3547 0.0
C1684 C 0.88219 0.60779 0.8811 0.0
C1685 C 0.88387 0.63294 0.89739 0.0
C1686 C 0.88342 0.60865 0.8514 0.0
C1687 C 0.88571 0.63482 0.83682 0.0
H1688 H 0.87902 0.58728 0.89138 0.0
H1689 H 0.88077 0.5887 0.83984 0.0
S1690 S 0.89677 0.7062 0.87036 0.0
N1691 N 0.89235 0.68421 0.89765 0.0
N1692 N 0.89469 0.68612 0.84127 0.0
C1693 C 0.89018 0.65996 0.85303 0.0
C1694 C 0.88909 0.65897 0.88354 0.0
C1695 C 0.58591 0.64944 0.10264 0.0
C1696 C 0.59912 0.62811 0.08615 0.0
C1697 C 0.58639 0.64816 0.1327 0.0
C1698 C 0.5995 0.62515 0.14711 0.0
H1699 H 0.57595 0.66758 0.09229 0.0
H1700 H 0.57709 0.66565 0.1447 0.0
S1701 S 0.63332 0.56174 0.11292 0.0
N1702 N 0.62326 0.5821 0.08602 0.0
N1703 N 0.62344 0.5791 0.14201 0.0
C1704 C 0.61111 0.60279 0.13055 0.0
C1705 C 0.61115 0.60446 0.1002 0.0
C1706 C 0.59687 0.37521 0.35192 0.0
C1707 C 0.59383 0.34878 0.33778 0.0
C1708 C 0.59907 0.37668 0.38162 0.0
C1709 C 0.59787 0.35186 0.3984 0.0
H1710 H 0.59927 0.39486 0.3399 0.0
H1711 H 0.6024 0.39743 0.39151 0.0
S1712 S 0.5832 0.27825 0.37279 0.0
N1713 N 0.58453 0.2977 0.34336 0.0
N1714 N 0.58875 0.30073 0.39959 0.0
C1715 C 0.59178 0.32566 0.38503 0.0
C1716 C 0.5896 0.32407 0.35455 0.0
C1717 C 0.86178 0.33695 0.62869 0.0
C1718 C 0.88441 0.34478 0.64673 0.0
C1719 C 0.86549 0.33611 0.59911 0.0
C1720 C 0.89191 0.34329 0.58661 0.0
H1721 H 0.84076 0.33268 0.63742 0.0
H1722 H 0.84698 0.33162 0.58587 0.0
S1723 S 0.95916 0.35943 0.62593 0.0
N1724 N 0.93479 0.35594 0.65121 0.0
N1725 N 0.94235 0.35333 0.59543 0.0
C1726 C 0.91547 0.3481 0.60486 0.0
C1727 C 0.91151 0.3493 0.63508 0.0
loop_
_geom_bond_atom_site_label_1
_geom_bond_atom_site_label_2
_geom_bond_distance
_geom_bond_site_symmetry_2
_ccdc_geom_bond_type
C0 O1 1.306 . S
C0 O3 1.160 . S
O1 C0 1.306 . S
O1 Cd2 2.228 . S
Cd2 O1 2.228 . S
Cd2 O6 2.273 . S
Cd2 O10 2.277 . S
O3 C0 1.160 . S
O3 Cd4 2.203 . S
Cd4 O3 2.203 . S
Cd4 O6 2.411 . S
Cd4 O7 2.333 . S
Cd4 O8 2.352 . S
Cd4 O12 2.277 . S
Cd4 O13 2.356 . S
C5 O10 1.209 . S
C5 O12 1.226 . S
O6 Cd2 2.273 . S
O6 Cd4 2.411 . S
O6 C9 1.320 . S
O7 Cd4 2.333 . S
O7 C9 1.214 . S
O8 Cd4 2.352 . S
O8 C11 1.258 . S
C9 O6 1.320 . S
C9 O7 1.214 . S
O10 Cd2 2.277 . S
O10 C5 1.209 . S
C11 O8 1.258 . S
C11 O13 1.282 . S
O12 Cd4 2.277 . S
O12 C5 1.226 . S
O13 Cd4 2.356 . S
O13 C11 1.282 . S
C14 O15 1.306 1_455 S
C14 O17 1.160 . S
O15 C14 1.306 1_655 S
O15 Cd16 2.228 . S
Cd16 O15 2.228 . S
Cd16 O20 2.273 . S
Cd16 O24 2.277 . S
O17 C14 1.160 . S
O17 Cd18 2.203 1_455 S
Cd18 O17 2.203 1_655 S
Cd18 O20 2.411 . S
Cd18 O21 2.333 . S
Cd18 O22 2.352 1_655 S
Cd18 O26 2.277 . S
Cd18 O27 2.356 1_655 S
C19 O24 1.209 . S
C19 O26 1.226 . S
O20 Cd16 2.273 . S
O20 Cd18 2.411 . S
O20 C23 1.320 . S
O21 Cd18 2.333 . S
O21 C23 1.214 . S
O22 Cd18 2.352 1_455 S
O22 C25 1.258 . S
C23 O20 1.320 . S
C23 O21 1.214 . S
O24 Cd16 2.277 . S
O24 C19 1.209 . S
C25 O22 1.258 . S
C25 O27 1.282 . S
O26 Cd18 2.277 . S
O26 C19 1.226 . S
O27 Cd18 2.356 1_455 S
O27 C25 1.282 . S
C28 O29 1.306 . S
C28 O31 1.160 . S
O29 C28 1.306 . S
O29 Cd30 2.228 . S
Cd30 O29 2.228 . S
Cd30 O34 2.273 . S
Cd30 O38 2.277 . S
O31 C28 1.160 . S
O31 Cd32 2.203 . S
Cd32 O31 2.203 . S
Cd32 O34 2.411 . S
Cd32 O35 2.333 . S
Cd32 O36 2.352 . S
Cd32 O40 2.277 . S
Cd32 O41 2.356 . S
C33 O38 1.209 . S
C33 O40 1.226 . S
O34 Cd30 2.273 . S
O34 Cd32 2.411 . S
O34 C37 1.320 . S
O35 Cd32 2.333 . S
O35 C37 1.214 . S
O36 Cd32 2.352 . S
O36 C39 1.258 . S
C37 O34 1.320 . S
C37 O35 1.214 . S
O38 Cd30 2.277 . S
O38 C33 1.209 . S
C39 O36 1.258 . S
C39 O41 1.282 . S
O40 Cd32 2.277 . S
O40 C33 1.226 . S
O41 Cd32 2.356 . S
O41 C39 1.282 . S
C42 O43 1.306 . S
C42 O45 1.160 . S
O43 C42 1.306 . S
O43 Cd44 2.228 . S
Cd44 O43 2.228 . S
Cd44 O48 2.273 . S
Cd44 O52 2.277 . S
O45 C42 1.160 . S
O45 Cd46 2.203 . S
Cd46 O45 2.203 . S
Cd46 O48 2.411 . S
Cd46 O49 2.333 . S
Cd46 O50 2.352 . S
Cd46 O54 2.277 . S
Cd46 O55 2.356 . S
C47 O52 1.209 . S
C47 O54 1.226 . S
O48 Cd44 2.273 . S
O48 Cd46 2.411 . S
O48 C51 1.320 . S
O49 Cd46 2.333 . S
O49 C51 1.214 . S
O50 Cd46 2.352 . S
O50 C53 1.258 . S
C51 O48 1.320 . S
C51 O49 1.214 . S
O52 Cd44 2.277 . S
O52 C47 1.209 . S
C53 O50 1.258 . S
C53 O55 1.282 . S
O54 Cd46 2.277 . S
O54 C47 1.226 . S
O55 Cd46 2.356 . S
O55 C53 1.282 . S
C56 O57 1.306 . S
C56 O59 1.160 . S
O57 C56 1.306 . S
O57 Cd58 2.228 . S
Cd58 O57 2.228 . S
Cd58 O62 2.273 . S
Cd58 O66 2.277 . S
O59 C56 1.160 . S
O59 Cd60 2.203 . S
Cd60 O59 2.203 . S
Cd60 O62 2.411 . S
Cd60 O63 2.333 . S
Cd60 O64 2.352 . S
Cd60 O68 2.277 . S
Cd60 O69 2.356 . S
C61 O66 1.209 . S
C61 O68 1.226 . S
O62 Cd58 2.273 . S
O62 Cd60 2.411 . S
O62 C65 1.320 . S
O63 Cd60 2.333 . S
O63 C65 1.214 . S
O64 Cd60 2.352 . S
O64 C67 1.258 . S
C65 O62 1.320 . S
C65 O63 1.214 . S
O66 Cd58 2.277 . S
O66 C61 1.209 . S
C67 O64 1.258 . S
C67 O69 1.282 . S
O68 Cd60 2.277 . S
O68 C61 1.226 . S
O69 Cd60 2.356 . S
O69 C67 1.282 . S
C70 O71 1.306 . S
C70 O73 1.160 . S
O71 C70 1.306 . S
O71 Cd72 2.228 . S
Cd72 O71 2.228 . S
Cd72 O76 2.273 . S
Cd72 O80 2.277 . S
O73 C70 1.160 . S
O73 Cd74 2.203 . S
Cd74 O73 2.203 . S
Cd74 O76 2.411 . S
Cd74 O77 2.333 . S
Cd74 O78 2.352 . S
Cd74 O82 2.277 . S
Cd74 O83 2.356 . S
C75 O80 1.209 . S
C75 O82 1.226 . S
O76 Cd72 2.273 . S
O76 Cd74 2.411 . S
O76 C79 1.320 . S
O77 Cd74 2.333 . S
O77 C79 1.214 . S
O78 Cd74 2.352 . S
O78 C81 1.258 . S
C79 O76 1.320 . S
C79 O77 1.214 . S
O80 Cd72 2.277 . S
O80 C75 1.209 . S
C81 O78 1.258 . S
C81 O83 1.282 . S
O82 Cd74 2.277 . S
O82 C75 1.226 . S
O83 Cd74 2.356 . S
O83 C81 1.282 . S
C84 O85 1.306 . S
C84 O87 1.160 . S
O85 C84 1.306 . S
O85 Cd86 2.228 . S
Cd86 O85 2.228 . S
Cd86 O90 2.273 . S
Cd86 O94 2.277 . S
O87 C84 1.160 . S
O87 Cd88 2.203 . S
Cd88 O87 2.203 . S
Cd88 O90 2.411 . S
Cd88 O91 2.333 . S
Cd88 O92 2.352 . S
Cd88 O96 2.277 . S
Cd88 O97 2.356 . S
C89 O94 1.209 . S
C89 O96 1.226 . S
O90 Cd86 2.273 . S
O90 Cd88 2.411 . S
O90 C93 1.320 . S
O91 Cd88 2.333 . S
O91 C93 1.214 . S
O92 Cd88 2.352 . S
O92 C95 1.258 . S
C93 O90 1.320 . S
C93 O91 1.214 . S
O94 Cd86 2.277 . S
O94 C89 1.209 . S
C95 O92 1.258 . S
C95 O97 1.282 . S
O96 Cd88 2.277 . S
O96 C89 1.226 . S
O97 Cd88 2.356 . S
O97 C95 1.282 . S
C98 O99 1.306 1_455 S
C98 O101 1.160 . S
O99 C98 1.306 1_655 S
O99 Cd100 2.228 . S
Cd100 O99 2.228 . S
Cd100 O104 2.273 . S
Cd100 O108 2.277 . S
O101 C98 1.160 . S
O101 Cd102 2.203 1_455 S
Cd102 O101 2.203 1_655 S
Cd102 O104 2.411 . S
Cd102 O105 2.333 . S
Cd102 O106 2.352 1_655 S
Cd102 O110 2.277 . S
Cd102 O111 2.356 1_655 S
C103 O108 1.209 . S
C103 O110 1.226 . S
O104 Cd100 2.273 . S
O104 Cd102 2.411 . S
O104 C107 1.320 . S
O105 Cd102 2.333 . S
O105 C107 1.214 . S
O106 Cd102 2.352 1_455 S
O106 C109 1.258 . S
C107 O104 1.320 . S
C107 O105 1.214 . S
O108 Cd100 2.277 . S
O108 C103 1.209 . S
C109 O106 1.258 . S
C109 O111 1.282 . S
O110 Cd102 2.277 . S
O110 C103 1.226 . S
O111 Cd102 2.356 1_455 S
O111 C109 1.282 . S
C112 O113 1.306 . S
C112 O115 1.160 . S
O113 C112 1.306 . S
O113 Cd114 2.228 . S
Cd114 O113 2.228 . S
Cd114 O118 2.273 . S
Cd114 O122 2.277 . S
O115 C112 1.160 . S
O115 Cd116 2.203 . S
Cd116 O115 2.203 . S
Cd116 O118 2.411 . S
Cd116 O119 2.333 . S
Cd116 O120 2.352 . S
Cd116 O124 2.277 . S
Cd116 O125 2.356 . S
C117 O122 1.209 . S
C117 O124 1.226 . S
O118 Cd114 2.273 . S
O118 Cd116 2.411 . S
O118 C121 1.320 . S
O119 Cd116 2.333 . S
O119 C121 1.214 . S
O120 Cd116 2.352 . S
O120 C123 1.258 . S
C121 O118 1.320 . S
C121 O119 1.214 . S
O122 Cd114 2.277 . S
O122 C117 1.209 . S
C123 O120 1.258 . S
C123 O125 1.282 . S
O124 Cd116 2.277 . S
O124 C117 1.226 . S
O125 Cd116 2.356 . S
O125 C123 1.282 . S
C126 O127 1.306 . S
C126 O129 1.160 . S
O127 C126 1.306 . S
O127 Cd128 2.228 . S
Cd128 O127 2.228 . S
Cd128 O132 2.273 . S
Cd128 O136 2.277 . S
O129 C126 1.160 . S
O129 Cd130 2.203 . S
Cd130 O129 2.203 . S
Cd130 O132 2.411 . S
Cd130 O133 2.333 . S
Cd130 O134 2.352 . S
Cd130 O138 2.277 . S
Cd130 O139 2.356 . S
C131 O136 1.209 . S
C131 O138 1.226 . S
O132 Cd128 2.273 . S
O132 Cd130 2.411 . S
O132 C135 1.320 . S
O133 Cd130 2.333 . S
O133 C135 1.214 . S
O134 Cd130 2.352 . S
O134 C137 1.258 . S
C135 O132 1.320 . S
C135 O133 1.214 . S
O136 Cd128 2.277 . S
O136 C131 1.209 . S
C137 O134 1.258 . S
C137 O139 1.282 . S
O138 Cd130 2.277 . S
O138 C131 1.226 . S
O139 Cd130 2.356 . S
O139 C137 1.282 . S
C140 O141 1.306 . S
C140 O143 1.160 . S
O141 C140 1.306 . S
O141 Cd142 2.228 . S
Cd142 O141 2.228 . S
Cd142 O146 2.273 . S
Cd142 O150 2.277 . S
O143 C140 1.160 . S
O143 Cd144 2.203 . S
Cd144 O143 2.203 . S
Cd144 O146 2.411 . S
Cd144 O147 2.333 . S
Cd144 O148 2.352 . S
Cd144 O152 2.277 . S
Cd144 O153 2.356 . S
C145 O150 1.209 . S
C145 O152 1.226 . S
O146 Cd142 2.273 . S
O146 Cd144 2.411 . S
O146 C149 1.320 . S
O147 Cd144 2.333 . S
O147 C149 1.214 . S
O148 Cd144 2.352 . S
O148 C151 1.258 . S
C149 O146 1.320 . S
C149 O147 1.214 . S
O150 Cd142 2.277 . S
O150 C145 1.209 . S
C151 O148 1.258 . S
C151 O153 1.282 . S
O152 Cd144 2.277 . S
O152 C145 1.226 . S
O153 Cd144 2.356 . S
O153 C151 1.282 . S
C154 O155 1.306 1_556 S
C154 O157 1.160 . S
O155 C154 1.306 1_554 S
O155 Cd156 2.228 . S
Cd156 O155 2.228 . S
Cd156 O160 2.273 . S
Cd156 O164 2.277 . S
O157 C154 1.160 . S
O157 Cd158 2.203 1_556 S
Cd158 O157 2.203 1_554 S
Cd158 O160 2.411 . S
Cd158 O161 2.333 . S
Cd158 O162 2.352 1_554 S
Cd158 O166 2.277 . S
Cd158 O167 2.356 1_554 S
C159 O164 1.209 . S
C159 O166 1.226 . S
O160 Cd156 2.273 . S
O160 Cd158 2.411 . S
O160 C163 1.320 . S
O161 Cd158 2.333 . S
O161 C163 1.214 . S
O162 Cd158 2.352 1_556 S
O162 C165 1.258 . S
C163 O160 1.320 . S
C163 O161 1.214 . S
O164 Cd156 2.277 . S
O164 C159 1.209 . S
C165 O162 1.258 . S
C165 O167 1.282 . S
O166 Cd158 2.277 . S
O166 C159 1.226 . S
O167 Cd158 2.356 1_556 S
O167 C165 1.282 . S
C168 O169 1.306 . S
C168 O171 1.160 . S
O169 C168 1.306 . S
O169 Cd170 2.228 . S
Cd170 O169 2.228 . S
Cd170 O174 2.273 . S
Cd170 O178 2.277 . S
O171 C168 1.160 . S
O171 Cd172 2.203 . S
Cd172 O171 2.203 . S
Cd172 O174 2.411 . S
Cd172 O175 2.333 . S
Cd172 O176 2.352 . S
Cd172 O180 2.277 . S
Cd172 O181 2.356 . S
C173 O178 1.209 . S
C173 O180 1.226 . S
O174 Cd170 2.273 . S
O174 Cd172 2.411 . S
O174 C177 1.320 . S
O175 Cd172 2.333 . S
O175 C177 1.214 . S
O176 Cd172 2.352 . S
O176 C179 1.258 . S
C177 O174 1.320 . S
C177 O175 1.214 . S
O178 Cd170 2.277 . S
O178 C173 1.209 . S
C179 O176 1.258 . S
C179 O181 1.282 . S
O180 Cd172 2.277 . S
O180 C173 1.226 . S
O181 Cd172 2.356 . S
O181 C179 1.282 . S
C182 O183 1.306 . S
C182 O185 1.160 . S
O183 C182 1.306 . S
O183 Cd184 2.228 . S
Cd184 O183 2.228 . S
Cd184 O188 2.273 . S
Cd184 O192 2.277 . S
O185 C182 1.160 . S
O185 Cd186 2.203 . S
Cd186 O185 2.203 . S
Cd186 O188 2.411 . S
Cd186 O189 2.333 . S
Cd186 O190 2.352 . S
Cd186 O194 2.277 . S
Cd186 O195 2.356 . S
C187 O192 1.209 . S
C187 O194 1.226 . S
O188 Cd184 2.273 . S
O188 Cd186 2.411 . S
O188 C191 1.320 . S
O189 Cd186 2.333 . S
O189 C191 1.214 . S
O190 Cd186 2.352 . S
O190 C193 1.258 . S
C191 O188 1.320 . S
C191 O189 1.214 . S
O192 Cd184 2.277 . S
O192 C187 1.209 . S
C193 O190 1.258 . S
C193 O195 1.282 . S
O194 Cd186 2.277 . S
O194 C187 1.226 . S
O195 Cd186 2.356 . S
O195 C193 1.282 . S
C196 O197 1.306 . S
C196 O199 1.160 . S
O197 C196 1.306 . S
O197 Cd198 2.228 . S
Cd198 O197 2.228 . S
Cd198 O202 2.273 . S
Cd198 O206 2.277 . S
O199 C196 1.160 . S
O199 Cd200 2.203 . S
Cd200 O199 2.203 . S
Cd200 O202 2.411 . S
Cd200 O203 2.333 . S
Cd200 O204 2.352 . S
Cd200 O208 2.277 . S
Cd200 O209 2.356 . S
C201 O206 1.209 . S
C201 O208 1.226 . S
O202 Cd198 2.273 . S
O202 Cd200 2.411 . S
O202 C205 1.320 . S
O203 Cd200 2.333 . S
O203 C205 1.214 . S
O204 Cd200 2.352 . S
O204 C207 1.258 . S
C205 O202 1.320 . S
C205 O203 1.214 . S
O206 Cd198 2.277 . S
O206 C201 1.209 . S
C207 O204 1.258 . S
C207 O209 1.282 . S
O208 Cd200 2.277 . S
O208 C201 1.226 . S
O209 Cd200 2.356 . S
O209 C207 1.282 . S
C210 O211 1.306 1_554 S
C210 O213 1.160 . S
O211 C210 1.306 1_556 S
O211 Cd212 2.228 . S
Cd212 O211 2.228 . S
Cd212 O216 2.273 . S
Cd212 O220 2.277 . S
O213 C210 1.160 . S
O213 Cd214 2.203 1_554 S
Cd214 O213 2.203 1_556 S
Cd214 O216 2.411 . S
Cd214 O217 2.333 . S
Cd214 O218 2.352 1_556 S
Cd214 O222 2.277 . S
Cd214 O223 2.356 1_556 S
C215 O220 1.209 . S
C215 O222 1.226 . S
O216 Cd212 2.273 . S
O216 Cd214 2.411 . S
O216 C219 1.320 . S
O217 Cd214 2.333 . S
O217 C219 1.214 . S
O218 Cd214 2.352 1_554 S
O218 C221 1.258 . S
C219 O216 1.320 . S
C219 O217 1.214 . S
O220 Cd212 2.277 . S
O220 C215 1.209 . S
C221 O218 1.258 . S
C221 O223 1.282 . S
O222 Cd214 2.277 . S
O222 C215 1.226 . S
O223 Cd214 2.356 1_554 S
O223 C221 1.282 . S
C224 O225 1.306 . S
C224 O227 1.160 . S
O225 C224 1.306 . S
O225 Cd226 2.228 . S
Cd226 O225 2.228 . S
Cd226 O230 2.273 . S
Cd226 O234 2.277 . S
O227 C224 1.160 . S
O227 Cd228 2.203 . S
Cd228 O227 2.203 . S
Cd228 O230 2.411 . S
Cd228 O231 2.333 . S
Cd228 O232 2.352 . S
Cd228 O236 2.277 . S
Cd228 O237 2.356 . S
C229 O234 1.209 . S
C229 O236 1.226 . S
O230 Cd226 2.273 . S
O230 Cd228 2.411 . S
O230 C233 1.320 . S
O231 Cd228 2.333 . S
O231 C233 1.214 . S
O232 Cd228 2.352 . S
O232 C235 1.258 . S
C233 O230 1.320 . S
C233 O231 1.214 . S
O234 Cd226 2.277 . S
O234 C229 1.209 . S
C235 O232 1.258 . S
C235 O237 1.282 . S
O236 Cd228 2.277 . S
O236 C229 1.226 . S
O237 Cd228 2.356 . S
O237 C235 1.282 . S
C238 O239 1.306 . S
C238 O241 1.160 . S
O239 C238 1.306 . S
O239 Cd240 2.228 . S
Cd240 O239 2.228 . S
Cd240 O244 2.273 . S
Cd240 O248 2.277 . S
O241 C238 1.160 . S
O241 Cd242 2.203 . S
Cd242 O241 2.203 . S
Cd242 O244 2.411 . S
Cd242 O245 2.333 . S
Cd242 O246 2.352 . S
Cd242 O250 2.277 . S
Cd242 O251 2.356 . S
C243 O248 1.209 . S
C243 O250 1.226 . S
O244 Cd240 2.273 . S
O244 Cd242 2.411 . S
O244 C247 1.320 . S
O245 Cd242 2.333 . S
O245 C247 1.214 . S
O246 Cd242 2.352 . S
O246 C249 1.258 . S
C247 O244 1.320 . S
C247 O245 1.214 . S
O248 Cd240 2.277 . S
O248 C243 1.209 . S
C249 O246 1.258 . S
C249 O251 1.282 . S
O250 Cd242 2.277 . S
O250 C243 1.226 . S
O251 Cd242 2.356 . S
O251 C249 1.282 . S
C252 O253 1.306 . S
C252 O255 1.160 . S
O253 C252 1.306 . S
O253 Cd254 2.228 . S
Cd254 O253 2.228 . S
Cd254 O258 2.273 . S
Cd254 O262 2.277 . S
O255 C252 1.160 . S
O255 Cd256 2.203 . S
Cd256 O255 2.203 . S
Cd256 O258 2.411 . S
Cd256 O259 2.333 . S
Cd256 O260 2.352 . S
Cd256 O264 2.277 . S
Cd256 O265 2.356 . S
C257 O262 1.209 . S
C257 O264 1.226 . S
O258 Cd254 2.273 . S
O258 Cd256 2.411 . S
O258 C261 1.320 . S
O259 Cd256 2.333 . S
O259 C261 1.214 . S
O260 Cd256 2.352 . S
O260 C263 1.258 . S
C261 O258 1.320 . S
C261 O259 1.214 . S
O262 Cd254 2.277 . S
O262 C257 1.209 . S
C263 O260 1.258 . S
C263 O265 1.282 . S
O264 Cd256 2.277 . S
O264 C257 1.226 . S
O265 Cd256 2.356 . S
O265 C263 1.282 . S
C266 O267 1.306 . S
C266 O269 1.160 . S
O267 C266 1.306 . S
O267 Cd268 2.228 . S
Cd268 O267 2.228 . S
Cd268 O272 2.273 . S
Cd268 O276 2.277 . S
O269 C266 1.160 . S
O269 Cd270 2.203 . S
Cd270 O269 2.203 . S
Cd270 O272 2.411 . S
Cd270 O273 2.333 . S
Cd270 O274 2.352 . S
Cd270 O278 2.277 . S
Cd270 O279 2.356 . S
C271 O276 1.209 . S
C271 O278 1.226 . S
O272 Cd268 2.273 . S
O272 Cd270 2.411 . S
O272 C275 1.320 . S
O273 Cd270 2.333 . S
O273 C275 1.214 . S
O274 Cd270 2.352 . S
O274 C277 1.258 . S
C275 O272 1.320 . S
C275 O273 1.214 . S
O276 Cd268 2.277 . S
O276 C271 1.209 . S
C277 O274 1.258 . S
C277 O279 1.282 . S
O278 Cd270 2.277 . S
O278 C271 1.226 . S
O279 Cd270 2.356 . S
O279 C277 1.282 . S
C280 O281 1.306 1_545 S
C280 O283 1.160 . S
O281 C280 1.306 1_565 S
O281 Cd282 2.228 . S
Cd282 O281 2.228 . S
Cd282 O286 2.273 . S
Cd282 O290 2.277 . S
O283 C280 1.160 . S
O283 Cd284 2.203 1_545 S
Cd284 O283 2.203 1_565 S
Cd284 O286 2.411 . S
Cd284 O287 2.333 . S
Cd284 O288 2.352 1_565 S
Cd284 O292 2.277 . S
Cd284 O293 2.356 1_565 S
C285 O290 1.209 . S
C285 O292 1.226 . S
O286 Cd282 2.273 . S
O286 Cd284 2.411 . S
O286 C289 1.320 . S
O287 Cd284 2.333 . S
O287 C289 1.214 . S
O288 Cd284 2.352 1_545 S
O288 C291 1.258 . S
C289 O286 1.320 . S
C289 O287 1.214 . S
O290 Cd282 2.277 . S
O290 C285 1.209 . S
C291 O288 1.258 . S
C291 O293 1.282 . S
O292 Cd284 2.277 . S
O292 C285 1.226 . S
O293 Cd284 2.356 1_545 S
O293 C291 1.282 . S
C294 O295 1.306 . S
C294 O297 1.160 . S
O295 C294 1.306 . S
O295 Cd296 2.228 . S
Cd296 O295 2.228 . S
Cd296 O300 2.273 . S
Cd296 O304 2.277 . S
O297 C294 1.160 . S
O297 Cd298 2.203 . S
Cd298 O297 2.203 . S
Cd298 O300 2.411 . S
Cd298 O301 2.333 . S
Cd298 O302 2.352 . S
Cd298 O306 2.277 . S
Cd298 O307 2.356 . S
C299 O304 1.209 . S
C299 O306 1.226 . S
O300 Cd296 2.273 . S
O300 Cd298 2.411 . S
O300 C303 1.320 . S
O301 Cd298 2.333 . S
O301 C303 1.214 . S
O302 Cd298 2.352 . S
O302 C305 1.258 . S
C303 O300 1.320 . S
C303 O301 1.214 . S
O304 Cd296 2.277 . S
O304 C299 1.209 . S
C305 O302 1.258 . S
C305 O307 1.282 . S
O306 Cd298 2.277 . S
O306 C299 1.226 . S
O307 Cd298 2.356 . S
O307 C305 1.282 . S
C308 O309 1.306 . S
C308 O311 1.160 . S
O309 C308 1.306 . S
O309 Cd310 2.228 . S
Cd310 O309 2.228 . S
Cd310 O314 2.273 . S
Cd310 O318 2.277 . S
O311 C308 1.160 . S
O311 Cd312 2.203 . S
Cd312 O311 2.203 . S
Cd312 O314 2.411 . S
Cd312 O315 2.333 . S
Cd312 O316 2.352 . S
Cd312 O320 2.277 . S
Cd312 O321 2.356 . S
C313 O318 1.209 . S
C313 O320 1.226 . S
O314 Cd310 2.273 . S
O314 Cd312 2.411 . S
O314 C317 1.320 . S
O315 Cd312 2.333 . S
O315 C317 1.214 . S
O316 Cd312 2.352 . S
O316 C319 1.258 . S
C317 O314 1.320 . S
C317 O315 1.214 . S
O318 Cd310 2.277 . S
O318 C313 1.209 . S
C319 O316 1.258 . S
C319 O321 1.282 . S
O320 Cd312 2.277 . S
O320 C313 1.226 . S
O321 Cd312 2.356 . S
O321 C319 1.282 . S
C322 O323 1.306 . S
C322 O325 1.160 . S
O323 C322 1.306 . S
O323 Cd324 2.228 . S
Cd324 O323 2.228 . S
Cd324 O328 2.273 . S
Cd324 O332 2.277 . S
O325 C322 1.160 . S
O325 Cd326 2.203 . S
Cd326 O325 2.203 . S
Cd326 O328 2.411 . S
Cd326 O329 2.333 . S
Cd326 O330 2.352 . S
Cd326 O334 2.277 . S
Cd326 O335 2.356 . S
C327 O332 1.209 . S
C327 O334 1.226 . S
O328 Cd324 2.273 . S
O328 Cd326 2.411 . S
O328 C331 1.320 . S
O329 Cd326 2.333 . S
O329 C331 1.214 . S
O330 Cd326 2.352 . S
O330 C333 1.258 . S
C331 O328 1.320 . S
C331 O329 1.214 . S
O332 Cd324 2.277 . S
O332 C327 1.209 . S
C333 O330 1.258 . S
C333 O335 1.282 . S
O334 Cd326 2.277 . S
O334 C327 1.226 . S
O335 Cd326 2.356 . S
O335 C333 1.282 . S
C336 O337 1.306 . S
C336 O339 1.160 . S
O337 C336 1.306 . S
O337 Cd338 2.228 . S
Cd338 O337 2.228 . S
Cd338 O342 2.273 . S
Cd338 O346 2.277 . S
O339 C336 1.160 . S
O339 Cd340 2.203 . S
Cd340 O339 2.203 . S
Cd340 O342 2.411 . S
Cd340 O343 2.333 . S
Cd340 O344 2.352 . S
Cd340 O348 2.277 . S
Cd340 O349 2.356 . S
C341 O346 1.209 . S
C341 O348 1.226 . S
O342 Cd338 2.273 . S
O342 Cd340 2.411 . S
O342 C345 1.320 . S
O343 Cd340 2.333 . S
O343 C345 1.214 . S
O344 Cd340 2.352 . S
O344 C347 1.258 . S
C345 O342 1.320 . S
C345 O343 1.214 . S
O346 Cd338 2.277 . S
O346 C341 1.209 . S
C347 O344 1.258 . S
C347 O349 1.282 . S
O348 Cd340 2.277 . S
O348 C341 1.226 . S
O349 Cd340 2.356 . S
O349 C347 1.282 . S
C350 O351 1.306 . S
C350 O353 1.160 . S
O351 C350 1.306 . S
O351 Cd352 2.228 . S
Cd352 O351 2.228 . S
Cd352 O356 2.273 . S
Cd352 O360 2.277 . S
O353 C350 1.160 . S
O353 Cd354 2.203 . S
Cd354 O353 2.203 . S
Cd354 O356 2.411 . S
Cd354 O357 2.333 . S
Cd354 O358 2.352 . S
Cd354 O362 2.277 . S
Cd354 O363 2.356 . S
C355 O360 1.209 . S
C355 O362 1.226 . S
O356 Cd352 2.273 . S
O356 Cd354 2.411 . S
O356 C359 1.320 . S
O357 Cd354 2.333 . S
O357 C359 1.214 . S
O358 Cd354 2.352 . S
O358 C361 1.258 . S
C359 O356 1.320 . S
C359 O357 1.214 . S
O360 Cd352 2.277 . S
O360 C355 1.209 . S
C361 O358 1.258 . S
C361 O363 1.282 . S
O362 Cd354 2.277 . S
O362 C355 1.226 . S
O363 Cd354 2.356 . S
O363 C361 1.282 . S
C364 O365 1.306 . S
C364 O367 1.160 . S
O365 C364 1.306 . S
O365 Cd366 2.228 . S
Cd366 O365 2.228 . S
Cd366 O370 2.273 . S
Cd366 O374 2.277 . S
O367 C364 1.160 . S
O367 Cd368 2.203 . S
Cd368 O367 2.203 . S
Cd368 O370 2.411 . S
Cd368 O371 2.333 . S
Cd368 O372 2.352 . S
Cd368 O376 2.277 . S
Cd368 O377 2.356 . S
C369 O374 1.209 . S
C369 O376 1.226 . S
O370 Cd366 2.273 . S
O370 Cd368 2.411 . S
O370 C373 1.320 . S
O371 Cd368 2.333 . S
O371 C373 1.214 . S
O372 Cd368 2.352 . S
O372 C375 1.258 . S
C373 O370 1.320 . S
C373 O371 1.214 . S
O374 Cd366 2.277 . S
O374 C369 1.209 . S
C375 O372 1.258 . S
C375 O377 1.282 . S
O376 Cd368 2.277 . S
O376 C369 1.226 . S
O377 Cd368 2.356 . S
O377 C375 1.282 . S
C378 O379 1.306 1_655 S
C378 O381 1.160 . S
O379 C378 1.306 1_455 S
O379 Cd380 2.228 . S
Cd380 O379 2.228 . S
Cd380 O384 2.273 . S
Cd380 O388 2.277 . S
O381 C378 1.160 . S
O381 Cd382 2.203 1_655 S
Cd382 O381 2.203 1_455 S
Cd382 O384 2.411 . S
Cd382 O385 2.333 . S
Cd382 O386 2.352 1_455 S
Cd382 O390 2.277 . S
Cd382 O391 2.356 1_455 S
C383 O388 1.209 . S
C383 O390 1.226 . S
O384 Cd380 2.273 . S
O384 Cd382 2.411 . S
O384 C387 1.320 . S
O385 Cd382 2.333 . S
O385 C387 1.214 . S
O386 Cd382 2.352 1_655 S
O386 C389 1.258 . S
C387 O384 1.320 . S
C387 O385 1.214 . S
O388 Cd380 2.277 . S
O388 C383 1.209 . S
C389 O386 1.258 . S
C389 O391 1.282 . S
O390 Cd382 2.277 . S
O390 C383 1.226 . S
O391 Cd382 2.356 1_655 S
O391 C389 1.282 . S
C392 O393 1.306 . S
C392 O395 1.160 . S
O393 C392 1.306 . S
O393 Cd394 2.228 . S
Cd394 O393 2.228 . S
Cd394 O398 2.273 . S
Cd394 O402 2.277 . S
O395 C392 1.160 . S
O395 Cd396 2.203 . S
Cd396 O395 2.203 . S
Cd396 O398 2.411 . S
Cd396 O399 2.333 . S
Cd396 O400 2.352 . S
Cd396 O404 2.277 . S
Cd396 O405 2.356 . S
C397 O402 1.209 . S
C397 O404 1.226 . S
O398 Cd394 2.273 . S
O398 Cd396 2.411 . S
O398 C401 1.320 . S
O399 Cd396 2.333 . S
O399 C401 1.214 . S
O400 Cd396 2.352 . S
O400 C403 1.258 . S
C401 O398 1.320 . S
C401 O399 1.214 . S
O402 Cd394 2.277 . S
O402 C397 1.209 . S
C403 O400 1.258 . S
C403 O405 1.282 . S
O404 Cd396 2.277 . S
O404 C397 1.226 . S
O405 Cd396 2.356 . S
O405 C403 1.282 . S
C406 O407 1.306 1_655 S
C406 O409 1.160 . S
O407 C406 1.306 1_455 S
O407 Cd408 2.228 . S
Cd408 O407 2.228 . S
Cd408 O412 2.273 . S
Cd408 O416 2.277 . S
O409 C406 1.160 . S
O409 Cd410 2.203 1_655 S
Cd410 O409 2.203 1_455 S
Cd410 O412 2.411 . S
Cd410 O413 2.333 . S
Cd410 O414 2.352 1_455 S
Cd410 O418 2.277 . S
Cd410 O419 2.356 1_455 S
C411 O416 1.209 . S
C411 O418 1.226 . S
O412 Cd408 2.273 . S
O412 Cd410 2.411 . S
O412 C415 1.320 . S
O413 Cd410 2.333 . S
O413 C415 1.214 . S
O414 Cd410 2.352 1_655 S
O414 C417 1.258 . S
C415 O412 1.320 . S
C415 O413 1.214 . S
O416 Cd408 2.277 . S
O416 C411 1.209 . S
C417 O414 1.258 . S
C417 O419 1.282 . S
O418 Cd410 2.277 . S
O418 C411 1.226 . S
O419 Cd410 2.356 1_655 S
O419 C417 1.282 . S
C420 O421 1.306 . S
C420 O423 1.160 . S
O421 C420 1.306 . S
O421 Cd422 2.228 . S
Cd422 O421 2.228 . S
Cd422 O426 2.273 . S
Cd422 O430 2.277 . S
O423 C420 1.160 . S
O423 Cd424 2.203 . S
Cd424 O423 2.203 . S
Cd424 O426 2.411 . S
Cd424 O427 2.333 . S
Cd424 O428 2.352 . S
Cd424 O432 2.277 . S
Cd424 O433 2.356 . S
C425 O430 1.209 . S
C425 O432 1.226 . S
O426 Cd422 2.273 . S
O426 Cd424 2.411 . S
O426 C429 1.320 . S
O427 Cd424 2.333 . S
O427 C429 1.214 . S
O428 Cd424 2.352 . S
O428 C431 1.258 . S
C429 O426 1.320 . S
C429 O427 1.214 . S
O430 Cd422 2.277 . S
O430 C425 1.209 . S
C431 O428 1.258 . S
C431 O433 1.282 . S
O432 Cd424 2.277 . S
O432 C425 1.226 . S
O433 Cd424 2.356 . S
O433 C431 1.282 . S
C434 O435 1.306 . S
C434 O437 1.160 . S
O435 C434 1.306 . S
O435 Cd436 2.228 . S
Cd436 O435 2.228 . S
Cd436 O440 2.273 . S
Cd436 O444 2.277 . S
O437 C434 1.160 . S
O437 Cd438 2.203 . S
Cd438 O437 2.203 . S
Cd438 O440 2.411 . S
Cd438 O441 2.333 . S
Cd438 O442 2.352 . S
Cd438 O446 2.277 . S
Cd438 O447 2.356 . S
C439 O444 1.209 . S
C439 O446 1.226 . S
O440 Cd436 2.273 . S
O440 Cd438 2.411 . S
O440 C443 1.320 . S
O441 Cd438 2.333 . S
O441 C443 1.214 . S
O442 Cd438 2.352 . S
O442 C445 1.258 . S
C443 O440 1.320 . S
C443 O441 1.214 . S
O444 Cd436 2.277 . S
O444 C439 1.209 . S
C445 O442 1.258 . S
C445 O447 1.282 . S
O446 Cd438 2.277 . S
O446 C439 1.226 . S
O447 Cd438 2.356 . S
O447 C445 1.282 . S
C448 O449 1.306 . S
C448 O451 1.160 . S
O449 C448 1.306 . S
O449 Cd450 2.228 . S
Cd450 O449 2.228 . S
Cd450 O454 2.273 . S
Cd450 O458 2.277 . S
O451 C448 1.160 . S
O451 Cd452 2.203 . S
Cd452 O451 2.203 . S
Cd452 O454 2.411 . S
Cd452 O455 2.333 . S
Cd452 O456 2.352 . S
Cd452 O460 2.277 . S
Cd452 O461 2.356 . S
C453 O458 1.209 . S
C453 O460 1.226 . S
O454 Cd450 2.273 . S
O454 Cd452 2.411 . S
O454 C457 1.320 . S
O455 Cd452 2.333 . S
O455 C457 1.214 . S
O456 Cd452 2.352 . S
O456 C459 1.258 . S
C457 O454 1.320 . S
C457 O455 1.214 . S
O458 Cd450 2.277 . S
O458 C453 1.209 . S
C459 O456 1.258 . S
C459 O461 1.282 . S
O460 Cd452 2.277 . S
O460 C453 1.226 . S
O461 Cd452 2.356 . S
O461 C459 1.282 . S
C462 O463 1.306 1_556 S
C462 O465 1.160 . S
O463 C462 1.306 1_554 S
O463 Cd464 2.228 . S
Cd464 O463 2.228 . S
Cd464 O468 2.273 . S
Cd464 O472 2.277 . S
O465 C462 1.160 . S
O465 Cd466 2.203 1_556 S
Cd466 O465 2.203 1_554 S
Cd466 O468 2.411 . S
Cd466 O469 2.333 . S
Cd466 O470 2.352 1_554 S
Cd466 O474 2.277 . S
Cd466 O475 2.356 1_554 S
C467 O472 1.209 . S
C467 O474 1.226 . S
O468 Cd464 2.273 . S
O468 Cd466 2.411 . S
O468 C471 1.320 . S
O469 Cd466 2.333 . S
O469 C471 1.214 . S
O470 Cd466 2.352 1_556 S
O470 C473 1.258 . S
C471 O468 1.320 . S
C471 O469 1.214 . S
O472 Cd464 2.277 . S
O472 C467 1.209 . S
C473 O470 1.258 . S
C473 O475 1.282 . S
O474 Cd466 2.277 . S
O474 C467 1.226 . S
O475 Cd466 2.356 1_556 S
O475 C473 1.282 . S
C476 O477 1.306 . S
C476 O479 1.160 . S
O477 C476 1.306 . S
O477 Cd478 2.228 . S
Cd478 O477 2.228 . S
Cd478 O482 2.273 . S
Cd478 O486 2.277 . S
O479 C476 1.160 . S
O479 Cd480 2.203 . S
Cd480 O479 2.203 . S
Cd480 O482 2.411 . S
Cd480 O483 2.333 . S
Cd480 O484 2.352 . S
Cd480 O488 2.277 . S
Cd480 O489 2.356 . S
C481 O486 1.209 . S
C481 O488 1.226 . S
O482 Cd478 2.273 . S
O482 Cd480 2.411 . S
O482 C485 1.320 . S
O483 Cd480 2.333 . S
O483 C485 1.214 . S
O484 Cd480 2.352 . S
O484 C487 1.258 . S
C485 O482 1.320 . S
C485 O483 1.214 . S
O486 Cd478 2.277 . S
O486 C481 1.209 . S
C487 O484 1.258 . S
C487 O489 1.282 . S
O488 Cd480 2.277 . S
O488 C481 1.226 . S
O489 Cd480 2.356 . S
O489 C487 1.282 . S
C490 O491 1.306 . S
C490 O493 1.160 . S
O491 C490 1.306 . S
O491 Cd492 2.228 . S
Cd492 O491 2.228 . S
Cd492 O496 2.273 . S
Cd492 O500 2.277 . S
O493 C490 1.160 . S
O493 Cd494 2.203 . S
Cd494 O493 2.203 . S
Cd494 O496 2.411 . S
Cd494 O497 2.333 . S
Cd494 O498 2.352 . S
Cd494 O502 2.277 . S
Cd494 O503 2.356 . S
C495 O500 1.209 . S
C495 O502 1.226 . S
O496 Cd492 2.273 . S
O496 Cd494 2.411 . S
O496 C499 1.320 . S
O497 Cd494 2.333 . S
O497 C499 1.214 . S
O498 Cd494 2.352 . S
O498 C501 1.258 . S
C499 O496 1.320 . S
C499 O497 1.214 . S
O500 Cd492 2.277 . S
O500 C495 1.209 . S
C501 O498 1.258 . S
C501 O503 1.282 . S
O502 Cd494 2.277 . S
O502 C495 1.226 . S
O503 Cd494 2.356 . S
O503 C501 1.282 . S
C504 O505 1.306 . S
C504 O507 1.160 . S
O505 C504 1.306 . S
O505 Cd506 2.228 . S
Cd506 O505 2.228 . S
Cd506 O510 2.273 . S
Cd506 O514 2.277 . S
O507 C504 1.160 . S
O507 Cd508 2.203 . S
Cd508 O507 2.203 . S
Cd508 O510 2.411 . S
Cd508 O511 2.333 . S
Cd508 O512 2.352 . S
Cd508 O516 2.277 . S
Cd508 O517 2.356 . S
C509 O514 1.209 . S
C509 O516 1.226 . S
O510 Cd506 2.273 . S
O510 Cd508 2.411 . S
O510 C513 1.320 . S
O511 Cd508 2.333 . S
O511 C513 1.214 . S
O512 Cd508 2.352 . S
O512 C515 1.258 . S
C513 O510 1.320 . S
C513 O511 1.214 . S
O514 Cd506 2.277 . S
O514 C509 1.209 . S
C515 O512 1.258 . S
C515 O517 1.282 . S
O516 Cd508 2.277 . S
O516 C509 1.226 . S
O517 Cd508 2.356 . S
O517 C515 1.282 . S
C518 O519 1.306 1_554 S
C518 O521 1.160 . S
O519 C518 1.306 1_556 S
O519 Cd520 2.228 . S
Cd520 O519 2.228 . S
Cd520 O524 2.273 . S
Cd520 O528 2.277 . S
O521 C518 1.160 . S
O521 Cd522 2.203 1_554 S
Cd522 O521 2.203 1_556 S
Cd522 O524 2.411 . S
Cd522 O525 2.333 . S
Cd522 O526 2.352 1_556 S
Cd522 O530 2.277 . S
Cd522 O531 2.356 1_556 S
C523 O528 1.209 . S
C523 O530 1.226 . S
O524 Cd520 2.273 . S
O524 Cd522 2.411 . S
O524 C527 1.320 . S
O525 Cd522 2.333 . S
O525 C527 1.214 . S
O526 Cd522 2.352 1_554 S
O526 C529 1.258 . S
C527 O524 1.320 . S
C527 O525 1.214 . S
O528 Cd520 2.277 . S
O528 C523 1.209 . S
C529 O526 1.258 . S
C529 O531 1.282 . S
O530 Cd522 2.277 . S
O530 C523 1.226 . S
O531 Cd522 2.356 1_554 S
O531 C529 1.282 . S
C532 O533 1.306 . S
C532 O535 1.160 . S
O533 C532 1.306 . S
O533 Cd534 2.228 . S
Cd534 O533 2.228 . S
Cd534 O538 2.273 . S
Cd534 O542 2.277 . S
O535 C532 1.160 . S
O535 Cd536 2.203 . S
Cd536 O535 2.203 . S
Cd536 O538 2.411 . S
Cd536 O539 2.333 . S
Cd536 O540 2.352 . S
Cd536 O544 2.277 . S
Cd536 O545 2.356 . S
C537 O542 1.209 . S
C537 O544 1.226 . S
O538 Cd534 2.273 . S
O538 Cd536 2.411 . S
O538 C541 1.320 . S
O539 Cd536 2.333 . S
O539 C541 1.214 . S
O540 Cd536 2.352 . S
O540 C543 1.258 . S
C541 O538 1.320 . S
C541 O539 1.214 . S
O542 Cd534 2.277 . S
O542 C537 1.209 . S
C543 O540 1.258 . S
C543 O545 1.282 . S
O544 Cd536 2.277 . S
O544 C537 1.226 . S
O545 Cd536 2.356 . S
O545 C543 1.282 . S
C546 O547 1.306 . S
C546 O549 1.160 . S
O547 C546 1.306 . S
O547 Cd548 2.228 . S
Cd548 O547 2.228 . S
Cd548 O552 2.273 . S
Cd548 O556 2.277 . S
O549 C546 1.160 . S
O549 Cd550 2.203 . S
Cd550 O549 2.203 . S
Cd550 O552 2.411 . S
Cd550 O553 2.333 . S
Cd550 O554 2.352 . S
Cd550 O558 2.277 . S
Cd550 O559 2.356 . S
C551 O556 1.209 . S
C551 O558 1.226 . S
O552 Cd548 2.273 . S
O552 Cd550 2.411 . S
O552 C555 1.320 . S
O553 Cd550 2.333 . S
O553 C555 1.214 . S
O554 Cd550 2.352 . S
O554 C557 1.258 . S
C555 O552 1.320 . S
C555 O553 1.214 . S
O556 Cd548 2.277 . S
O556 C551 1.209 . S
C557 O554 1.258 . S
C557 O559 1.282 . S
O558 Cd550 2.277 . S
O558 C551 1.226 . S
O559 Cd550 2.356 . S
O559 C557 1.282 . S
C560 O561 1.306 . S
C560 O563 1.160 . S
O561 C560 1.306 . S
O561 Cd562 2.228 . S
Cd562 O561 2.228 . S
Cd562 O566 2.273 . S
Cd562 O570 2.277 . S
O563 C560 1.160 . S
O563 Cd564 2.203 . S
Cd564 O563 2.203 . S
Cd564 O566 2.411 . S
Cd564 O567 2.333 . S
Cd564 O568 2.352 . S
Cd564 O572 2.277 . S
Cd564 O573 2.356 . S
C565 O570 1.209 . S
C565 O572 1.226 . S
O566 Cd562 2.273 . S
O566 Cd564 2.411 . S
O566 C569 1.320 . S
O567 Cd564 2.333 . S
O567 C569 1.214 . S
O568 Cd564 2.352 . S
O568 C571 1.258 . S
C569 O566 1.320 . S
C569 O567 1.214 . S
O570 Cd562 2.277 . S
O570 C565 1.209 . S
C571 O568 1.258 . S
C571 O573 1.282 . S
O572 Cd564 2.277 . S
O572 C565 1.226 . S
O573 Cd564 2.356 . S
O573 C571 1.282 . S
C574 O575 1.306 . S
C574 O577 1.160 . S
O575 C574 1.306 . S
O575 Cd576 2.228 . S
Cd576 O575 2.228 . S
Cd576 O580 2.273 . S
Cd576 O584 2.277 . S
O577 C574 1.160 . S
O577 Cd578 2.203 . S
Cd578 O577 2.203 . S
Cd578 O580 2.411 . S
Cd578 O581 2.333 . S
Cd578 O582 2.352 . S
Cd578 O586 2.277 . S
Cd578 O587 2.356 . S
C579 O584 1.209 . S
C579 O586 1.226 . S
O580 Cd576 2.273 . S
O580 Cd578 2.411 . S
O580 C583 1.320 . S
O581 Cd578 2.333 . S
O581 C583 1.214 . S
O582 Cd578 2.352 . S
O582 C585 1.258 . S
C583 O580 1.320 . S
C583 O581 1.214 . S
O584 Cd576 2.277 . S
O584 C579 1.209 . S
C585 O582 1.258 . S
C585 O587 1.282 . S
O586 Cd578 2.277 . S
O586 C579 1.226 . S
O587 Cd578 2.356 . S
O587 C585 1.282 . S
C588 O589 1.306 1_565 S
C588 O591 1.160 . S
O589 C588 1.306 1_545 S
O589 Cd590 2.228 . S
Cd590 O589 2.228 . S
Cd590 O594 2.273 . S
Cd590 O598 2.277 . S
O591 C588 1.160 . S
O591 Cd592 2.203 1_565 S
Cd592 O591 2.203 1_545 S
Cd592 O594 2.411 . S
Cd592 O595 2.333 . S
Cd592 O596 2.352 1_545 S
Cd592 O600 2.277 . S
Cd592 O601 2.356 1_545 S
C593 O598 1.209 . S
C593 O600 1.226 . S
O594 Cd590 2.273 . S
O594 Cd592 2.411 . S
O594 C597 1.320 . S
O595 Cd592 2.333 . S
O595 C597 1.214 . S
O596 Cd592 2.352 1_565 S
O596 C599 1.258 . S
C597 O594 1.320 . S
C597 O595 1.214 . S
O598 Cd590 2.277 . S
O598 C593 1.209 . S
C599 O596 1.258 . S
C599 O601 1.282 . S
O600 Cd592 2.277 . S
O600 C593 1.226 . S
O601 Cd592 2.356 1_565 S
O601 C599 1.282 . S
C602 O603 1.306 . S
C602 O605 1.160 . S
O603 C602 1.306 . S
O603 Cd604 2.228 . S
Cd604 O603 2.228 . S
Cd604 O608 2.273 . S
Cd604 O612 2.277 . S
O605 C602 1.160 . S
O605 Cd606 2.203 . S
Cd606 O605 2.203 . S
Cd606 O608 2.411 . S
Cd606 O609 2.333 . S
Cd606 O610 2.352 . S
Cd606 O614 2.277 . S
Cd606 O615 2.356 . S
C607 O612 1.209 . S
C607 O614 1.226 . S
O608 Cd604 2.273 . S
O608 Cd606 2.411 . S
O608 C611 1.320 . S
O609 Cd606 2.333 . S
O609 C611 1.214 . S
O610 Cd606 2.352 . S
O610 C613 1.258 . S
C611 O608 1.320 . S
C611 O609 1.214 . S
O612 Cd604 2.277 . S
O612 C607 1.209 . S
C613 O610 1.258 . S
C613 O615 1.282 . S
O614 Cd606 2.277 . S
O614 C607 1.226 . S
O615 Cd606 2.356 . S
O615 C613 1.282 . S
C616 O617 1.306 . S
C616 O619 1.160 . S
O617 C616 1.306 . S
O617 Cd618 2.228 . S
Cd618 O617 2.228 . S
Cd618 O622 2.273 . S
Cd618 O626 2.277 . S
O619 C616 1.160 . S
O619 Cd620 2.203 . S
Cd620 O619 2.203 . S
Cd620 O622 2.411 . S
Cd620 O623 2.333 . S
Cd620 O624 2.352 . S
Cd620 O628 2.277 . S
Cd620 O629 2.356 . S
C621 O626 1.209 . S
C621 O628 1.226 . S
O622 Cd618 2.273 . S
O622 Cd620 2.411 . S
O622 C625 1.320 . S
O623 Cd620 2.333 . S
O623 C625 1.214 . S
O624 Cd620 2.352 . S
O624 C627 1.258 . S
C625 O622 1.320 . S
C625 O623 1.214 . S
O626 Cd618 2.277 . S
O626 C621 1.209 . S
C627 O624 1.258 . S
C627 O629 1.282 . S
O628 Cd620 2.277 . S
O628 C621 1.226 . S
O629 Cd620 2.356 . S
O629 C627 1.282 . S
C630 O631 1.306 . S
C630 O633 1.160 . S
O631 C630 1.306 . S
O631 Cd632 2.228 . S
Cd632 O631 2.228 . S
Cd632 O636 2.273 . S
Cd632 O640 2.277 . S
O633 C630 1.160 . S
O633 Cd634 2.203 . S
Cd634 O633 2.203 . S
Cd634 O636 2.411 . S
Cd634 O637 2.333 . S
Cd634 O638 2.352 . S
Cd634 O642 2.277 . S
Cd634 O643 2.356 . S
C635 O640 1.209 . S
C635 O642 1.226 . S
O636 Cd632 2.273 . S
O636 Cd634 2.411 . S
O636 C639 1.320 . S
O637 Cd634 2.333 . S
O637 C639 1.214 . S
O638 Cd634 2.352 . S
O638 C641 1.258 . S
C639 O636 1.320 . S
C639 O637 1.214 . S
O640 Cd632 2.277 . S
O640 C635 1.209 . S
C641 O638 1.258 . S
C641 O643 1.282 . S
O642 Cd634 2.277 . S
O642 C635 1.226 . S
O643 Cd634 2.356 . S
O643 C641 1.282 . S
C644 O645 1.306 1_545 S
C644 O647 1.160 . S
O645 C644 1.306 1_565 S
O645 Cd646 2.228 . S
Cd646 O645 2.228 . S
Cd646 O650 2.273 . S
Cd646 O654 2.277 . S
O647 C644 1.160 . S
O647 Cd648 2.203 1_545 S
Cd648 O647 2.203 1_565 S
Cd648 O650 2.411 . S
Cd648 O651 2.333 . S
Cd648 O652 2.352 1_565 S
Cd648 O656 2.277 . S
Cd648 O657 2.356 1_565 S
C649 O654 1.209 . S
C649 O656 1.226 . S
O650 Cd646 2.273 . S
O650 Cd648 2.411 . S
O650 C653 1.320 . S
O651 Cd648 2.333 . S
O651 C653 1.214 . S
O652 Cd648 2.352 1_545 S
O652 C655 1.258 . S
C653 O650 1.320 . S
C653 O651 1.214 . S
O654 Cd646 2.277 . S
O654 C649 1.209 . S
C655 O652 1.258 . S
C655 O657 1.282 . S
O656 Cd648 2.277 . S
O656 C649 1.226 . S
O657 Cd648 2.356 1_545 S
O657 C655 1.282 . S
C658 O659 1.306 1_565 S
C658 O661 1.160 . S
O659 C658 1.306 1_545 S
O659 Cd660 2.228 . S
Cd660 O659 2.228 . S
Cd660 O664 2.273 . S
Cd660 O668 2.277 . S
O661 C658 1.160 . S
O661 Cd662 2.203 1_565 S
Cd662 O661 2.203 1_545 S
Cd662 O664 2.411 . S
Cd662 O665 2.333 . S
Cd662 O666 2.352 1_545 S
Cd662 O670 2.277 . S
Cd662 O671 2.356 1_545 S
C663 O668 1.209 . S
C663 O670 1.226 . S
O664 Cd660 2.273 . S
O664 Cd662 2.411 . S
O664 C667 1.320 . S
O665 Cd662 2.333 . S
O665 C667 1.214 . S
O666 Cd662 2.352 1_565 S
O666 C669 1.258 . S
C667 O664 1.320 . S
C667 O665 1.214 . S
O668 Cd660 2.277 . S
O668 C663 1.209 . S
C669 O666 1.258 . S
C669 O671 1.282 . S
O670 Cd662 2.277 . S
O670 C663 1.226 . S
O671 Cd662 2.356 1_565 S
O671 C669 1.282 . S
C672 C673 1.369 . S
C672 C674 1.419 . S
C672 H676 0.930 . S
C673 C672 1.369 . S
C673 C682 1.429 . S
C674 C672 1.419 . S
C674 C675 1.363 . S
C674 H677 0.929 . S
C675 C674 1.363 . S
C675 C681 1.428 . S
H676 C672 0.930 . S
H677 C674 0.929 . S
S678 N679 1.613 . S
S678 N680 1.610 . S
N679 S678 1.613 . S
N679 C682 1.350 . S
N680 S678 1.610 . S
N680 C681 1.351 . S
C681 C675 1.428 . S
C681 N680 1.351 . S
C681 C682 1.434 . S
C682 C673 1.429 . S
C682 N679 1.350 . S
C682 C681 1.434 . S
C683 C684 1.369 . S
C683 C685 1.419 . S
C683 H687 0.930 . S
C684 C683 1.369 . S
C684 C693 1.429 . S
C685 C683 1.419 . S
C685 C686 1.363 . S
C685 H688 0.929 . S
C686 C685 1.363 . S
C686 C692 1.428 . S
H687 C683 0.930 . S
H688 C685 0.929 . S
S689 N690 1.613 . S
S689 N691 1.610 . S
N690 S689 1.613 . S
N690 C693 1.350 . S
N691 S689 1.610 . S
N691 C692 1.351 . S
C692 C686 1.428 . S
C692 N691 1.351 . S
C692 C693 1.434 . S
C693 C684 1.429 . S
C693 N690 1.350 . S
C693 C692 1.434 . S
C694 C695 1.369 . S
C694 C696 1.419 . S
C694 H698 0.930 . S
C695 C694 1.369 . S
C695 C704 1.429 . S
C696 C694 1.419 . S
C696 C697 1.363 . S
C696 H699 0.929 . S
C697 C696 1.363 . S
C697 C703 1.428 . S
H698 C694 0.930 . S
H699 C696 0.929 . S
S700 N701 1.613 . S
S700 N702 1.610 . S
N701 S700 1.613 . S
N701 C704 1.350 . S
N702 S700 1.610 . S
N702 C703 1.351 . S
C703 C697 1.428 . S
C703 N702 1.351 . S
C703 C704 1.434 . S
C704 C695 1.429 . S
C704 N701 1.350 . S
C704 C703 1.434 . S
C705 C706 1.369 . S
C705 C707 1.419 . S
C705 H709 0.930 . S
C706 C705 1.369 . S
C706 C715 1.429 . S
C707 C705 1.419 . S
C707 C708 1.363 . S
C707 H710 0.929 . S
C708 C707 1.363 . S
C708 C714 1.428 . S
H709 C705 0.930 . S
H710 C707 0.929 . S
S711 N712 1.613 . S
S711 N713 1.610 . S
N712 S711 1.613 . S
N712 C715 1.350 . S
N713 S711 1.610 . S
N713 C714 1.351 . S
C714 C708 1.428 . S
C714 N713 1.351 . S
C714 C715 1.434 . S
C715 C706 1.429 . S
C715 N712 1.350 . S
C715 C714 1.434 . S
C716 C717 1.369 . S
C716 C718 1.419 . S
C716 H720 0.930 . S
C717 C716 1.369 . S
C717 C726 1.429 . S
C718 C716 1.419 . S
C718 C719 1.363 . S
C718 H721 0.929 . S
C719 C718 1.363 . S
C719 C725 1.428 . S
H720 C716 0.930 . S
H721 C718 0.929 . S
S722 N723 1.613 . S
S722 N724 1.610 . S
N723 S722 1.613 . S
N723 C726 1.350 . S
N724 S722 1.610 . S
N724 C725 1.351 . S
C725 C719 1.428 . S
C725 N724 1.351 . S
C725 C726 1.434 . S
C726 C717 1.429 . S
C726 N723 1.350 . S
C726 C725 1.434 . S
C727 C728 1.369 . S
C727 C729 1.419 . S
C727 H731 0.930 . S
C728 C727 1.369 . S
C728 C737 1.429 . S
C729 C727 1.419 . S
C729 C730 1.363 . S
C729 H732 0.929 . S
C730 C729 1.363 . S
C730 C736 1.428 . S
H731 C727 0.930 . S
H732 C729 0.929 . S
S733 N734 1.613 . S
S733 N735 1.610 . S
N734 S733 1.613 . S
N734 C737 1.350 . S
N735 S733 1.610 . S
N735 C736 1.351 . S
C736 C730 1.428 . S
C736 N735 1.351 . S
C736 C737 1.434 . S
C737 C728 1.429 . S
C737 N734 1.350 . S
C737 C736 1.434 . S
C738 C739 1.369 . S
C738 C740 1.419 . S
C738 H742 0.930 . S
C739 C738 1.369 . S
C739 C748 1.429 . S
C740 C738 1.419 . S
C740 C741 1.363 . S
C740 H743 0.929 . S
C741 C740 1.363 . S
C741 C747 1.428 . S
H742 C738 0.930 . S
H743 C740 0.929 . S
S744 N745 1.613 . S
S744 N746 1.610 . S
N745 S744 1.613 . S
N745 C748 1.350 . S
N746 S744 1.610 . S
N746 C747 1.351 . S
C747 C741 1.428 . S
C747 N746 1.351 . S
C747 C748 1.434 . S
C748 C739 1.429 . S
C748 N745 1.350 . S
C748 C747 1.434 . S
C749 C750 1.369 . S
C749 C751 1.419 . S
C749 H753 0.930 . S
C750 C749 1.369 . S
C750 C759 1.429 . S
C751 C749 1.419 . S
C751 C752 1.363 . S
C751 H754 0.929 . S
C752 C751 1.363 . S
C752 C758 1.428 . S
H753 C749 0.930 . S
H754 C751 0.929 . S
S755 N756 1.613 . S
S755 N757 1.610 . S
N756 S755 1.613 . S
N756 C759 1.350 . S
N757 S755 1.610 . S
N757 C758 1.351 . S
C758 C752 1.428 . S
C758 N757 1.351 . S
C758 C759 1.434 . S
C759 C750 1.429 . S
C759 N756 1.350 . S
C759 C758 1.434 . S
C760 C761 1.369 . S
C760 C762 1.419 . S
C760 H764 0.930 . S
C761 C760 1.369 . S
C761 C770 1.429 . S
C762 C760 1.419 . S
C762 C763 1.363 . S
C762 H765 0.929 . S
C763 C762 1.363 . S
C763 C769 1.428 . S
H764 C760 0.930 . S
H765 C762 0.929 . S
S766 N767 1.613 . S
S766 N768 1.610 . S
N767 S766 1.613 . S
N767 C770 1.350 . S
N768 S766 1.610 . S
N768 C769 1.351 . S
C769 C763 1.428 . S
C769 N768 1.351 . S
C769 C770 1.434 . S
C770 C761 1.429 . S
C770 N767 1.350 . S
C770 C769 1.434 . S
C771 C772 1.369 . S
C771 C773 1.419 . S
C771 H775 0.930 . S
C772 C771 1.369 . S
C772 C781 1.429 . S
C773 C771 1.419 . S
C773 C774 1.363 . S
C773 H776 0.929 . S
C774 C773 1.363 . S
C774 C780 1.428 . S
H775 C771 0.930 . S
H776 C773 0.929 . S
S777 N778 1.613 . S
S777 N779 1.610 . S
N778 S777 1.613 . S
N778 C781 1.350 . S
N779 S777 1.610 . S
N779 C780 1.351 . S
C780 C774 1.428 . S
C780 N779 1.351 . S
C780 C781 1.434 . S
C781 C772 1.429 . S
C781 N778 1.350 . S
C781 C780 1.434 . S
C782 C783 1.369 . S
C782 C784 1.419 . S
C782 H786 0.930 . S
C783 C782 1.369 . S
C783 C792 1.429 . S
C784 C782 1.419 . S
C784 C785 1.363 . S
C784 H787 0.929 . S
C785 C784 1.363 . S
C785 C791 1.428 . S
H786 C782 0.930 . S
H787 C784 0.929 . S
S788 N789 1.613 . S
S788 N790 1.610 . S
N789 S788 1.613 . S
N789 C792 1.350 . S
N790 S788 1.610 . S
N790 C791 1.351 . S
C791 C785 1.428 . S
C791 N790 1.351 . S
C791 C792 1.434 . S
C792 C783 1.429 . S
C792 N789 1.350 . S
C792 C791 1.434 . S
C793 C794 1.369 . S
C793 C795 1.419 . S
C793 H797 0.930 . S
C794 C793 1.369 . S
C794 C803 1.429 . S
C795 C793 1.419 . S
C795 C796 1.363 . S
C795 H798 0.929 . S
C796 C795 1.363 . S
C796 C802 1.428 . S
H797 C793 0.930 . S
H798 C795 0.929 . S
S799 N800 1.613 . S
S799 N801 1.610 . S
N800 S799 1.613 . S
N800 C803 1.350 . S
N801 S799 1.610 . S
N801 C802 1.351 . S
C802 C796 1.428 . S
C802 N801 1.351 . S
C802 C803 1.434 . S
C803 C794 1.429 . S
C803 N800 1.350 . S
C803 C802 1.434 . S
C804 C805 1.369 . S
C804 C806 1.419 . S
C804 H808 0.930 . S
C805 C804 1.369 . S
C805 C814 1.429 . S
C806 C804 1.419 . S
C806 C807 1.363 . S
C806 H809 0.929 . S
C807 C806 1.363 . S
C807 C813 1.428 . S
H808 C804 0.930 . S
H809 C806 0.929 . S
S810 N811 1.613 . S
S810 N812 1.610 . S
N811 S810 1.613 . S
N811 C814 1.350 . S
N812 S810 1.610 . S
N812 C813 1.351 . S
C813 C807 1.428 . S
C813 N812 1.351 . S
C813 C814 1.434 . S
C814 C805 1.429 . S
C814 N811 1.350 . S
C814 C813 1.434 . S
C815 C816 1.369 . S
C815 C817 1.419 . S
C815 H819 0.930 . S
C816 C815 1.369 . S
C816 C825 1.429 . S
C817 C815 1.419 . S
C817 C818 1.363 . S
C817 H820 0.929 . S
C818 C817 1.363 . S
C818 C824 1.428 . S
H819 C815 0.930 . S
H820 C817 0.929 . S
S821 N822 1.613 . S
S821 N823 1.610 . S
N822 S821 1.613 . S
N822 C825 1.350 . S
N823 S821 1.610 . S
N823 C824 1.351 . S
C824 C818 1.428 . S
C824 N823 1.351 . S
C824 C825 1.434 . S
C825 C816 1.429 . S
C825 N822 1.350 . S
C825 C824 1.434 . S
C826 C827 1.369 . S
C826 C828 1.419 . S
C826 H830 0.930 . S
C827 C826 1.369 . S
C827 C836 1.429 . S
C828 C826 1.419 . S
C828 C829 1.363 . S
C828 H831 0.929 . S
C829 C828 1.363 . S
C829 C835 1.428 . S
H830 C826 0.930 . S
H831 C828 0.929 . S
S832 N833 1.613 . S
S832 N834 1.610 . S
N833 S832 1.613 . S
N833 C836 1.350 . S
N834 S832 1.610 . S
N834 C835 1.351 . S
C835 C829 1.428 . S
C835 N834 1.351 . S
C835 C836 1.434 . S
C836 C827 1.429 . S
C836 N833 1.350 . S
C836 C835 1.434 . S
C837 C838 1.369 . S
C837 C839 1.419 . S
C837 H841 0.930 . S
C838 C837 1.369 . S
C838 C847 1.429 . S
C839 C837 1.419 . S
C839 C840 1.363 . S
C839 H842 0.929 . S
C840 C839 1.363 . S
C840 C846 1.428 . S
H841 C837 0.930 . S
H842 C839 0.929 . S
S843 N844 1.613 . S
S843 N845 1.610 . S
N844 S843 1.613 . S
N844 C847 1.350 . S
N845 S843 1.610 . S
N845 C846 1.351 . S
C846 C840 1.428 . S
C846 N845 1.351 . S
C846 C847 1.434 . S
C847 C838 1.429 . S
C847 N844 1.350 . S
C847 C846 1.434 . S
C848 C849 1.369 . S
C848 C850 1.419 . S
C848 H852 0.930 . S
C849 C848 1.369 . S
C849 C858 1.429 . S
C850 C848 1.419 . S
C850 C851 1.363 . S
C850 H853 0.929 . S
C851 C850 1.363 . S
C851 C857 1.428 . S
H852 C848 0.930 . S
H853 C850 0.929 . S
S854 N855 1.613 . S
S854 N856 1.610 . S
N855 S854 1.613 . S
N855 C858 1.350 . S
N856 S854 1.610 . S
N856 C857 1.351 . S
C857 C851 1.428 . S
C857 N856 1.351 . S
C857 C858 1.434 . S
C858 C849 1.429 . S
C858 N855 1.350 . S
C858 C857 1.434 . S
C859 C860 1.369 . S
C859 C861 1.419 . S
C859 H863 0.930 . S
C860 C859 1.369 . S
C860 C869 1.429 . S
C861 C859 1.419 . S
C861 C862 1.363 . S
C861 H864 0.929 . S
C862 C861 1.363 . S
C862 C868 1.428 . S
H863 C859 0.930 . S
H864 C861 0.929 . S
S865 N866 1.613 . S
S865 N867 1.610 . S
N866 S865 1.613 . S
N866 C869 1.350 . S
N867 S865 1.610 . S
N867 C868 1.351 . S
C868 C862 1.428 . S
C868 N867 1.351 . S
C868 C869 1.434 . S
C869 C860 1.429 . S
C869 N866 1.350 . S
C869 C868 1.434 . S
C870 C871 1.369 . S
C870 C872 1.419 . S
C870 H874 0.930 . S
C871 C870 1.369 . S
C871 C880 1.429 . S
C872 C870 1.419 . S
C872 C873 1.363 . S
C872 H875 0.929 . S
C873 C872 1.363 . S
C873 C879 1.428 . S
H874 C870 0.930 . S
H875 C872 0.929 . S
S876 N877 1.613 . S
S876 N878 1.610 . S
N877 S876 1.613 . S
N877 C880 1.350 . S
N878 S876 1.610 . S
N878 C879 1.351 . S
C879 C873 1.428 . S
C879 N878 1.351 . S
C879 C880 1.434 . S
C880 C871 1.429 . S
C880 N877 1.350 . S
C880 C879 1.434 . S
C881 C882 1.369 . S
C881 C883 1.419 . S
C881 H885 0.930 . S
C882 C881 1.369 . S
C882 C891 1.429 . S
C883 C881 1.419 . S
C883 C884 1.363 . S
C883 H886 0.929 . S
C884 C883 1.363 . S
C884 C890 1.428 . S
H885 C881 0.930 . S
H886 C883 0.929 . S
S887 N888 1.613 . S
S887 N889 1.610 . S
N888 S887 1.613 . S
N888 C891 1.350 . S
N889 S887 1.610 . S
N889 C890 1.351 . S
C890 C884 1.428 . S
C890 N889 1.351 . S
C890 C891 1.434 . S
C891 C882 1.429 . S
C891 N888 1.350 . S
C891 C890 1.434 . S
C892 C893 1.369 . S
C892 C894 1.419 . S
C892 H896 0.930 . S
C893 C892 1.369 . S
C893 C902 1.429 . S
C894 C892 1.419 . S
C894 C895 1.363 . S
C894 H897 0.929 . S
C895 C894 1.363 . S
C895 C901 1.428 . S
H896 C892 0.930 . S
H897 C894 0.929 . S
S898 N899 1.613 . S
S898 N900 1.610 . S
N899 S898 1.613 . S
N899 C902 1.350 . S
N900 S898 1.610 . S
N900 C901 1.351 . S
C901 C895 1.428 . S
C901 N900 1.351 . S
C901 C902 1.434 . S
C902 C893 1.429 . S
C902 N899 1.350 . S
C902 C901 1.434 . S
C903 C904 1.369 . S
C903 C905 1.419 . S
C903 H907 0.930 . S
C904 C903 1.369 . S
C904 C913 1.429 . S
C905 C903 1.419 . S
C905 C906 1.363 . S
C905 H908 0.929 . S
C906 C905 1.363 . S
C906 C912 1.428 . S
H907 C903 0.930 . S
H908 C905 0.929 . S
S909 N910 1.613 . S
S909 N911 1.610 . S
N910 S909 1.613 . S
N910 C913 1.350 . S
N911 S909 1.610 . S
N911 C912 1.351 . S
C912 C906 1.428 . S
C912 N911 1.351 . S
C912 C913 1.434 . S
C913 C904 1.429 . S
C913 N910 1.350 . S
C913 C912 1.434 . S
C914 C915 1.369 . S
C914 C916 1.419 . S
C914 H918 0.930 . S
C915 C914 1.369 . S
C915 C924 1.429 . S
C916 C914 1.419 . S
C916 C917 1.363 . S
C916 H919 0.929 . S
C917 C916 1.363 . S
C917 C923 1.428 . S
H918 C914 0.930 . S
H919 C916 0.929 . S
S920 N921 1.613 . S
S920 N922 1.610 . S
N921 S920 1.613 . S
N921 C924 1.350 . S
N922 S920 1.610 . S
N922 C923 1.351 . S
C923 C917 1.428 . S
C923 N922 1.351 . S
C923 C924 1.434 . S
C924 C915 1.429 . S
C924 N921 1.350 . S
C924 C923 1.434 . S
C925 C926 1.369 . S
C925 C927 1.419 . S
C925 H929 0.930 . S
C926 C925 1.369 . S
C926 C935 1.429 . S
C927 C925 1.419 . S
C927 C928 1.363 . S
C927 H930 0.929 . S
C928 C927 1.363 . S
C928 C934 1.428 . S
H929 C925 0.930 . S
H930 C927 0.929 . S
S931 N932 1.613 . S
S931 N933 1.610 . S
N932 S931 1.613 . S
N932 C935 1.350 . S
N933 S931 1.610 . S
N933 C934 1.351 . S
C934 C928 1.428 . S
C934 N933 1.351 . S
C934 C935 1.434 . S
C935 C926 1.429 . S
C935 N932 1.350 . S
C935 C934 1.434 . S
C936 C937 1.369 . S
C936 C938 1.419 . S
C936 H940 0.930 . S
C937 C936 1.369 . S
C937 C946 1.429 . S
C938 C936 1.419 . S
C938 C939 1.363 . S
C938 H941 0.929 . S
C939 C938 1.363 . S
C939 C945 1.428 . S
H940 C936 0.930 . S
H941 C938 0.929 . S
S942 N943 1.613 . S
S942 N944 1.610 . S
N943 S942 1.613 . S
N943 C946 1.350 . S
N944 S942 1.610 . S
N944 C945 1.351 . S
C945 C939 1.428 . S
C945 N944 1.351 . S
C945 C946 1.434 . S
C946 C937 1.429 . S
C946 N943 1.350 . S
C946 C945 1.434 . S
C947 C948 1.369 . S
C947 C949 1.419 . S
C947 H951 0.930 . S
C948 C947 1.369 . S
C948 C957 1.429 . S
C949 C947 1.419 . S
C949 C950 1.363 . S
C949 H952 0.929 . S
C950 C949 1.363 . S
C950 C956 1.428 . S
H951 C947 0.930 . S
H952 C949 0.929 . S
S953 N954 1.613 . S
S953 N955 1.610 . S
N954 S953 1.613 . S
N954 C957 1.350 . S
N955 S953 1.610 . S
N955 C956 1.351 . S
C956 C950 1.428 . S
C956 N955 1.351 . S
C956 C957 1.434 . S
C957 C948 1.429 . S
C957 N954 1.350 . S
C957 C956 1.434 . S
C958 C959 1.369 . S
C958 C960 1.419 . S
C958 H962 0.930 . S
C959 C958 1.369 . S
C959 C968 1.429 . S
C960 C958 1.419 . S
C960 C961 1.363 . S
C960 H963 0.929 . S
C961 C960 1.363 . S
C961 C967 1.428 . S
H962 C958 0.930 . S
H963 C960 0.929 . S
S964 N965 1.613 . S
S964 N966 1.610 . S
N965 S964 1.613 . S
N965 C968 1.350 . S
N966 S964 1.610 . S
N966 C967 1.351 . S
C967 C961 1.428 . S
C967 N966 1.351 . S
C967 C968 1.434 . S
C968 C959 1.429 . S
C968 N965 1.350 . S
C968 C967 1.434 . S
C969 C970 1.369 1_554 S
C969 C971 1.419 . S
C969 H973 0.904 1_545 S
C970 C969 1.369 1_556 S
C970 C979 1.429 . S
C971 C969 1.419 . S
C971 C972 1.363 . S
C971 H974 0.929 . S
C972 C971 1.363 . S
C972 C978 1.428 . S
H973 C969 0.904 1_565 S
H974 C971 0.929 . S
S975 N976 1.613 . S
S975 N977 1.603 1_556 S
N976 S975 1.613 . S
N976 C979 1.350 . S
N977 S975 1.603 1_554 S
N977 C978 1.353 . S
C978 C972 1.428 . S
C978 N977 1.353 . S
C978 C979 1.434 1_554 S
C979 C970 1.429 . S
C979 N976 1.350 . S
C979 C978 1.434 1_556 S
C980 C981 1.369 . S
C980 C982 1.419 . S
C980 H984 0.930 . S
C981 C980 1.369 . S
C981 C990 1.429 . S
C982 C980 1.419 . S
C982 C983 1.363 . S
C982 H985 0.929 . S
C983 C982 1.363 . S
C983 C989 1.428 . S
H984 C980 0.930 . S
H985 C982 0.929 . S
S986 N987 1.613 . S
S986 N988 1.610 . S
N987 S986 1.613 . S
N987 C990 1.350 . S
N988 S986 1.610 . S
N988 C989 1.351 . S
C989 C983 1.428 . S
C989 N988 1.351 . S
C989 C990 1.434 . S
C990 C981 1.429 . S
C990 N987 1.350 . S
C990 C989 1.434 . S
C991 C992 1.369 . S
C991 C993 1.419 . S
C991 H995 0.930 . S
C992 C991 1.369 . S
C992 C1001 1.429 . S
C993 C991 1.419 . S
C993 C994 1.363 . S
C993 H996 0.929 . S
C994 C993 1.363 . S
C994 C1000 1.428 . S
H995 C991 0.930 . S
H996 C993 0.929 . S
S997 N998 1.609 1_565 S
S997 N999 1.610 . S
N998 S997 1.609 1_545 S
N998 C1001 1.335 1_545 S
N999 S997 1.610 . S
N999 C1000 1.351 . S
C1000 C994 1.428 . S
C1000 N999 1.351 . S
C1000 C1001 1.434 . S
C1001 C992 1.429 . S
C1001 N998 1.335 1_565 S
C1001 C1000 1.434 . S
C1002 C1003 1.369 . S
C1002 C1004 1.419 . S
C1002 H1006 0.930 . S
C1003 C1002 1.369 . S
C1003 C1012 1.429 . S
C1004 C1002 1.419 . S
C1004 C1005 1.363 . S
C1004 H1007 0.929 . S
C1005 C1004 1.363 . S
C1005 C1011 1.428 . S
H1006 C1002 0.930 . S
H1007 C1004 0.929 . S
S1008 N1009 1.613 . S
S1008 N1010 1.610 . S
N1009 S1008 1.613 . S
N1009 C1012 1.350 . S
N1010 S1008 1.610 . S
N1010 C1011 1.351 . S
C1011 C1005 1.428 . S
C1011 N1010 1.351 . S
C1011 C1012 1.434 . S
C1012 C1003 1.429 . S
C1012 N1009 1.350 . S
C1012 C1011 1.434 . S
C1013 C1014 1.369 1_556 S
C1013 C1015 1.419 . S
C1013 H1017 0.930 . S
C1014 C1013 1.369 1_554 S
C1014 C1023 1.429 . S
C1015 C1013 1.419 . S
C1015 C1016 1.363 . S
C1015 H1018 0.929 . S
C1016 C1015 1.363 . S
C1016 C1022 1.428 . S
H1017 C1013 0.930 . S
H1018 C1015 0.929 . S
S1019 N1020 1.613 1_545 S
S1019 N1021 1.610 1_554 S
N1020 S1019 1.613 1_565 S
N1020 C1023 1.350 1_565 S
N1021 S1019 1.610 1_556 S
N1021 C1022 1.351 . S
C1022 C1016 1.428 . S
C1022 N1021 1.351 . S
C1022 C1023 1.434 1_556 S
C1023 C1014 1.429 . S
C1023 N1020 1.350 1_545 S
C1023 C1022 1.434 1_554 S
C1024 C1025 1.369 . S
C1024 C1026 1.419 . S
C1024 H1028 0.930 . S
C1025 C1024 1.369 . S
C1025 C1034 1.429 . S
C1026 C1024 1.419 . S
C1026 C1027 1.363 . S
C1026 H1029 0.929 . S
C1027 C1026 1.363 . S
C1027 C1033 1.428 . S
H1028 C1024 0.930 . S
H1029 C1026 0.929 . S
S1030 N1031 1.613 . S
S1030 N1032 1.610 . S
N1031 S1030 1.613 . S
N1031 C1034 1.350 . S
N1032 S1030 1.610 . S
N1032 C1033 1.351 . S
C1033 C1027 1.428 . S
C1033 N1032 1.351 . S
C1033 C1034 1.434 . S
C1034 C1025 1.429 . S
C1034 N1031 1.350 . S
C1034 C1033 1.434 . S
C1035 C1036 1.369 . S
C1035 C1037 1.412 1_565 S
C1035 H1039 0.930 . S
C1036 C1035 1.369 . S
C1036 C1045 1.429 1_565 S
C1037 C1035 1.412 1_545 S
C1037 C1038 1.374 . S
C1037 H1040 0.925 1_545 S
C1038 C1037 1.374 . S
C1038 C1044 1.428 . S
H1039 C1035 0.930 . S
H1040 C1037 0.925 1_565 S
S1041 N1042 1.613 . S
S1041 N1043 1.610 1_655 S
N1042 S1041 1.613 . S
N1042 C1045 1.350 1_655 S
N1043 S1041 1.610 1_455 S
N1043 C1044 1.351 . S
C1044 C1038 1.428 . S
C1044 N1043 1.351 . S
C1044 C1045 1.434 . S
C1045 C1036 1.429 1_545 S
C1045 N1042 1.350 1_455 S
C1045 C1044 1.434 . S
C1046 C1047 1.369 . S
C1046 C1048 1.419 . S
C1046 H1050 0.930 . S
C1047 C1046 1.369 . S
C1047 C1056 1.429 . S
C1048 C1046 1.419 . S
C1048 C1049 1.363 . S
C1048 H1051 0.929 . S
C1049 C1048 1.363 . S
C1049 C1055 1.428 . S
H1050 C1046 0.930 . S
H1051 C1048 0.929 . S
S1052 N1053 1.613 . S
S1052 N1054 1.610 . S
N1053 S1052 1.613 . S
N1053 C1056 1.350 . S
N1054 S1052 1.610 . S
N1054 C1055 1.351 . S
C1055 C1049 1.428 . S
C1055 N1054 1.351 . S
C1055 C1056 1.434 . S
C1056 C1047 1.429 . S
C1056 N1053 1.350 . S
C1056 C1055 1.434 . S
C1057 C1058 1.369 . S
C1057 C1059 1.419 . S
C1057 H1061 0.930 . S
C1058 C1057 1.369 . S
C1058 C1067 1.429 1_545 S
C1059 C1057 1.419 . S
C1059 C1060 1.363 1_545 S
C1059 H1062 0.929 . S
C1060 C1059 1.363 1_565 S
C1060 C1066 1.428 . S
H1061 C1057 0.930 . S
H1062 C1059 0.929 . S
S1063 N1064 1.613 . S
S1063 N1065 1.610 . S
N1064 S1063 1.613 . S
N1064 C1067 1.350 . S
N1065 S1063 1.610 . S
N1065 C1066 1.351 . S
C1066 C1060 1.428 . S
C1066 N1065 1.351 . S
C1066 C1067 1.434 . S
C1067 C1058 1.429 1_565 S
C1067 N1064 1.350 . S
C1067 C1066 1.434 . S
C1068 C1069 1.369 . S
C1068 C1070 1.419 . S
C1068 H1072 0.930 . S
C1069 C1068 1.369 . S
C1069 C1078 1.429 . S
C1070 C1068 1.419 . S
C1070 C1071 1.363 . S
C1070 H1073 0.929 . S
C1071 C1070 1.363 . S
C1071 C1077 1.428 . S
H1072 C1068 0.930 . S
H1073 C1070 0.929 . S
S1074 N1075 1.613 . S
S1074 N1076 1.610 . S
N1075 S1074 1.613 . S
N1075 C1078 1.350 . S
N1076 S1074 1.610 . S
N1076 C1077 1.351 . S
C1077 C1071 1.428 . S
C1077 N1076 1.351 . S
C1077 C1078 1.434 . S
C1078 C1069 1.429 . S
C1078 N1075 1.350 . S
C1078 C1077 1.434 . S
C1079 C1080 1.369 . S
C1079 C1081 1.419 1_565 S
C1079 H1083 0.930 . S
C1080 C1079 1.369 . S
C1080 C1089 1.429 1_565 S
C1081 C1079 1.419 1_545 S
C1081 C1082 1.363 . S
C1081 H1084 0.929 1_545 S
C1082 C1081 1.363 . S
C1082 C1088 1.428 . S
H1083 C1079 0.930 . S
H1084 C1081 0.929 1_565 S
S1085 N1086 1.613 . S
S1085 N1087 1.610 . S
N1086 S1085 1.613 . S
N1086 C1089 1.350 . S
N1087 S1085 1.610 . S
N1087 C1088 1.351 . S
C1088 C1082 1.428 . S
C1088 N1087 1.351 . S
C1088 C1089 1.434 . S
C1089 C1080 1.429 1_545 S
C1089 N1086 1.350 . S
C1089 C1088 1.434 . S
C1090 C1091 1.369 . S
C1090 C1092 1.419 . S
C1090 H1094 0.930 . S
C1091 C1090 1.369 . S
C1091 C1100 1.429 . S
C1092 C1090 1.419 . S
C1092 C1093 1.363 . S
C1092 H1095 0.929 . S
C1093 C1092 1.363 . S
C1093 C1099 1.428 . S
H1094 C1090 0.930 . S
H1095 C1092 0.929 . S
S1096 N1097 1.613 . S
S1096 N1098 1.610 . S
N1097 S1096 1.613 . S
N1097 C1100 1.350 . S
N1098 S1096 1.610 . S
N1098 C1099 1.351 . S
C1099 C1093 1.428 . S
C1099 N1098 1.351 . S
C1099 C1100 1.434 . S
C1100 C1091 1.429 . S
C1100 N1097 1.350 . S
C1100 C1099 1.434 . S
C1101 C1102 1.369 . S
C1101 C1103 1.419 . S
C1101 H1105 0.930 . S
C1102 C1101 1.369 . S
C1102 C1111 1.427 1_565 S
C1103 C1101 1.419 . S
C1103 C1104 1.363 1_565 S
C1103 H1106 0.929 . S
C1104 C1103 1.363 1_545 S
C1104 C1110 1.428 . S
H1105 C1101 0.930 . S
H1106 C1103 0.929 . S
S1107 N1108 1.613 . S
S1107 N1109 1.610 . S
N1108 S1107 1.613 . S
N1108 C1111 1.350 . S
N1109 S1107 1.610 . S
N1109 C1110 1.351 . S
C1110 C1104 1.428 . S
C1110 N1109 1.351 . S
C1110 C1111 1.435 . S
C1111 C1102 1.427 1_545 S
C1111 N1108 1.350 . S
C1111 C1110 1.435 . S
C1112 C1113 1.369 . S
C1112 C1114 1.419 . S
C1112 H1116 0.930 . S
C1113 C1112 1.369 . S
C1113 C1122 1.429 . S
C1114 C1112 1.419 . S
C1114 C1115 1.363 . S
C1114 H1117 0.929 . S
C1115 C1114 1.363 . S
C1115 C1121 1.428 . S
H1116 C1112 0.930 . S
H1117 C1114 0.929 . S
S1118 N1119 1.613 . S
S1118 N1120 1.610 . S
N1119 S1118 1.613 . S
N1119 C1122 1.350 . S
N1120 S1118 1.610 . S
N1120 C1121 1.351 . S
C1121 C1115 1.428 . S
C1121 N1120 1.351 . S
C1121 C1122 1.434 . S
C1122 C1113 1.429 . S
C1122 N1119 1.350 . S
C1122 C1121 1.434 . S
C1123 C1124 1.369 . S
C1123 C1125 1.419 . S
C1123 H1127 0.930 . S
C1124 C1123 1.369 . S
C1124 C1133 1.429 . S
C1125 C1123 1.419 . S
C1125 C1126 1.363 . S
C1125 H1128 0.929 . S
C1126 C1125 1.363 . S
C1126 C1132 1.428 . S
H1127 C1123 0.930 . S
H1128 C1125 0.929 . S
S1129 N1130 1.613 . S
S1129 N1131 1.610 . S
N1130 S1129 1.613 . S
N1130 C1133 1.350 . S
N1131 S1129 1.610 . S
N1131 C1132 1.351 . S
C1132 C1126 1.428 . S
C1132 N1131 1.351 . S
C1132 C1133 1.434 . S
C1133 C1124 1.429 . S
C1133 N1130 1.350 . S
C1133 C1132 1.434 . S
C1134 C1135 1.369 . S
C1134 C1136 1.419 1_655 S
C1134 H1138 0.930 . S
C1135 C1134 1.369 . S
C1135 C1144 1.429 1_655 S
C1136 C1134 1.419 1_455 S
C1136 C1137 1.363 . S
C1136 H1139 0.929 . S
C1137 C1136 1.363 . S
C1137 C1143 1.428 . S
H1138 C1134 0.930 . S
H1139 C1136 0.929 . S
S1140 N1141 1.615 1_455 S
S1140 N1142 1.610 1_556 S
N1141 S1140 1.615 1_655 S
N1141 C1144 1.350 1_656 S
N1142 S1140 1.610 1_554 S
N1142 C1143 1.351 . S
C1143 C1137 1.428 . S
C1143 N1142 1.351 . S
C1143 C1144 1.434 . S
C1144 C1135 1.429 1_455 S
C1144 N1141 1.350 1_454 S
C1144 C1143 1.434 . S
C1145 C1146 1.369 . S
C1145 C1147 1.419 . S
C1145 H1149 0.930 . S
C1146 C1145 1.369 . S
C1146 C1155 1.429 . S
C1147 C1145 1.419 . S
C1147 C1148 1.363 . S
C1147 H1150 0.929 . S
C1148 C1147 1.363 . S
C1148 C1154 1.428 . S
H1149 C1145 0.930 . S
H1150 C1147 0.929 . S
S1151 N1152 1.613 . S
S1151 N1153 1.610 . S
N1152 S1151 1.613 . S
N1152 C1155 1.350 . S
N1153 S1151 1.610 . S
N1153 C1154 1.351 . S
C1154 C1148 1.428 . S
C1154 N1153 1.351 . S
C1154 C1155 1.434 . S
C1155 C1146 1.429 . S
C1155 N1152 1.350 . S
C1155 C1154 1.434 . S
C1156 C1157 1.369 1_655 S
C1156 C1158 1.419 . S
C1156 H1160 0.930 . S
C1157 C1156 1.369 1_455 S
C1157 C1166 1.429 . S
C1158 C1156 1.419 . S
C1158 C1159 1.363 . S
C1158 H1161 0.929 . S
C1159 C1158 1.363 . S
C1159 C1165 1.428 1_655 S
H1160 C1156 0.930 . S
H1161 C1158 0.929 . S
S1162 N1163 1.613 . S
S1162 N1164 1.610 . S
N1163 S1162 1.613 . S
N1163 C1166 1.350 . S
N1164 S1162 1.610 . S
N1164 C1165 1.351 . S
C1165 C1159 1.428 1_455 S
C1165 N1164 1.351 . S
C1165 C1166 1.434 . S
C1166 C1157 1.429 . S
C1166 N1163 1.350 . S
C1166 C1165 1.434 . S
C1167 C1168 1.369 . S
C1167 C1169 1.419 . S
C1167 H1171 0.930 . S
C1168 C1167 1.369 . S
C1168 C1177 1.429 . S
C1169 C1167 1.419 . S
C1169 C1170 1.363 . S
C1169 H1172 0.929 . S
C1170 C1169 1.363 . S
C1170 C1176 1.428 . S
H1171 C1167 0.930 . S
H1172 C1169 0.929 . S
S1173 N1174 1.613 . S
S1173 N1175 1.610 . S
N1174 S1173 1.613 . S
N1174 C1177 1.350 . S
N1175 S1173 1.610 . S
N1175 C1176 1.351 . S
C1176 C1170 1.428 . S
C1176 N1175 1.351 . S
C1176 C1177 1.434 . S
C1177 C1168 1.429 . S
C1177 N1174 1.350 . S
C1177 C1176 1.434 . S
C1178 C1179 1.369 . S
C1178 C1180 1.419 1_655 S
C1178 H1182 0.930 . S
C1179 C1178 1.369 . S
C1179 C1188 1.429 1_655 S
C1180 C1178 1.419 1_455 S
C1180 C1181 1.363 . S
C1180 H1183 0.929 . S
C1181 C1180 1.363 . S
C1181 C1187 1.428 . S
H1182 C1178 0.930 . S
H1183 C1180 0.929 . S
S1184 N1185 1.613 . S
S1184 N1186 1.610 . S
N1185 S1184 1.613 . S
N1185 C1188 1.350 . S
N1186 S1184 1.610 . S
N1186 C1187 1.351 . S
C1187 C1181 1.428 . S
C1187 N1186 1.351 . S
C1187 C1188 1.434 . S
C1188 C1179 1.429 1_455 S
C1188 N1185 1.350 . S
C1188 C1187 1.434 . S
C1189 C1190 1.369 . S
C1189 C1191 1.419 . S
C1189 H1193 0.930 . S
C1190 C1189 1.369 . S
C1190 C1199 1.429 . S
C1191 C1189 1.419 . S
C1191 C1192 1.363 . S
C1191 H1194 0.929 . S
C1192 C1191 1.363 . S
C1192 C1198 1.428 . S
H1193 C1189 0.930 . S
H1194 C1191 0.929 . S
S1195 N1196 1.613 . S
S1195 N1197 1.610 . S
N1196 S1195 1.613 . S
N1196 C1199 1.350 . S
N1197 S1195 1.610 . S
N1197 C1198 1.351 . S
C1198 C1192 1.428 . S
C1198 N1197 1.351 . S
C1198 C1199 1.434 . S
C1199 C1190 1.429 . S
C1199 N1196 1.350 . S
C1199 C1198 1.434 . S
C1200 C1201 1.369 . S
C1200 C1202 1.419 . S
C1200 H1204 0.930 . S
C1201 C1200 1.369 . S
C1201 C1210 1.429 . S
C1202 C1200 1.419 . S
C1202 C1203 1.363 . S
C1202 H1205 0.929 . S
C1203 C1202 1.363 . S
C1203 C1209 1.428 . S
H1204 C1200 0.930 . S
H1205 C1202 0.929 . S
S1206 N1207 1.613 . S
S1206 N1208 1.610 . S
N1207 S1206 1.613 . S
N1207 C1210 1.350 . S
N1208 S1206 1.610 . S
N1208 C1209 1.351 . S
C1209 C1203 1.428 . S
C1209 N1208 1.351 . S
C1209 C1210 1.434 . S
C1210 C1201 1.429 . S
C1210 N1207 1.350 . S
C1210 C1209 1.434 . S
C1211 C1212 1.369 . S
C1211 C1213 1.419 1_554 S
C1211 H1215 0.930 . S
C1212 C1211 1.369 . S
C1212 C1221 1.429 . S
C1213 C1211 1.419 1_556 S
C1213 C1214 1.363 . S
C1213 H1216 0.929 . S
C1214 C1213 1.363 . S
C1214 C1220 1.428 1_556 S
H1215 C1211 0.930 . S
H1216 C1213 0.929 . S
S1217 N1218 1.613 . S
S1217 N1219 1.610 . S
N1218 S1217 1.613 . S
N1218 C1221 1.350 . S
N1219 S1217 1.610 . S
N1219 C1220 1.351 . S
C1220 C1214 1.428 1_554 S
C1220 N1219 1.351 . S
C1220 C1221 1.434 . S
C1221 C1212 1.429 . S
C1221 N1218 1.350 . S
C1221 C1220 1.434 . S
C1222 C1223 1.369 . S
C1222 C1224 1.419 . S
C1222 H1226 0.930 . S
C1223 C1222 1.369 . S
C1223 C1232 1.429 . S
C1224 C1222 1.419 . S
C1224 C1225 1.363 . S
C1224 H1227 0.929 . S
C1225 C1224 1.363 . S
C1225 C1231 1.428 . S
H1226 C1222 0.930 . S
H1227 C1224 0.929 . S
S1228 N1229 1.613 . S
S1228 N1230 1.610 . S
N1229 S1228 1.613 . S
N1229 C1232 1.350 . S
N1230 S1228 1.610 . S
N1230 C1231 1.351 . S
C1231 C1225 1.428 . S
C1231 N1230 1.351 . S
C1231 C1232 1.434 . S
C1232 C1223 1.429 . S
C1232 N1229 1.350 . S
C1232 C1231 1.434 . S
C1233 C1234 1.369 . S
C1233 C1235 1.419 . S
C1233 H1237 0.930 . S
C1234 C1233 1.369 . S
C1234 C1243 1.429 . S
C1235 C1233 1.419 . S
C1235 C1236 1.363 . S
C1235 H1238 0.929 . S
C1236 C1235 1.363 . S
C1236 C1242 1.428 . S
H1237 C1233 0.930 . S
H1238 C1235 0.929 . S
S1239 N1240 1.613 . S
S1239 N1241 1.610 . S
N1240 S1239 1.613 . S
N1240 C1243 1.350 . S
N1241 S1239 1.610 . S
N1241 C1242 1.351 . S
C1242 C1236 1.428 . S
C1242 N1241 1.351 . S
C1242 C1243 1.434 . S
C1243 C1234 1.429 . S
C1243 N1240 1.350 . S
C1243 C1242 1.434 . S
C1244 C1245 1.369 . S
C1244 C1246 1.419 . S
C1244 H1248 0.930 . S
C1245 C1244 1.369 . S
C1245 C1254 1.429 . S
C1246 C1244 1.419 . S
C1246 C1247 1.363 . S
C1246 H1249 0.929 . S
C1247 C1246 1.363 . S
C1247 C1253 1.428 . S
H1248 C1244 0.930 . S
H1249 C1246 0.929 . S
S1250 N1251 1.613 . S
S1250 N1252 1.610 . S
N1251 S1250 1.613 . S
N1251 C1254 1.350 . S
N1252 S1250 1.610 . S
N1252 C1253 1.351 . S
C1253 C1247 1.428 . S
C1253 N1252 1.351 . S
C1253 C1254 1.434 . S
C1254 C1245 1.429 . S
C1254 N1251 1.350 . S
C1254 C1253 1.434 . S
C1255 C1256 1.369 1_554 S
C1255 C1257 1.419 . S
C1255 H1259 0.930 . S
C1256 C1255 1.369 1_556 S
C1256 C1265 1.429 . S
C1257 C1255 1.419 . S
C1257 C1258 1.363 . S
C1257 H1260 0.929 . S
C1258 C1257 1.363 . S
C1258 C1264 1.428 1_554 S
H1259 C1255 0.930 . S
H1260 C1257 0.929 . S
S1261 N1262 1.613 . S
S1261 N1263 1.610 . S
N1262 S1261 1.613 . S
N1262 C1265 1.350 . S
N1263 S1261 1.610 . S
N1263 C1264 1.351 . S
C1264 C1258 1.428 1_556 S
C1264 N1263 1.351 . S
C1264 C1265 1.434 . S
C1265 C1256 1.429 . S
C1265 N1262 1.350 . S
C1265 C1264 1.434 . S
C1266 C1267 1.369 . S
C1266 C1268 1.419 . S
C1266 H1270 0.930 . S
C1267 C1266 1.369 . S
C1267 C1276 1.429 . S
C1268 C1266 1.419 . S
C1268 C1269 1.363 . S
C1268 H1271 0.929 . S
C1269 C1268 1.363 . S
C1269 C1275 1.428 . S
H1270 C1266 0.930 . S
H1271 C1268 0.929 . S
S1272 N1273 1.613 . S
S1272 N1274 1.610 . S
N1273 S1272 1.613 . S
N1273 C1276 1.350 . S
N1274 S1272 1.610 . S
N1274 C1275 1.351 . S
C1275 C1269 1.428 . S
C1275 N1274 1.351 . S
C1275 C1276 1.434 . S
C1276 C1267 1.429 . S
C1276 N1273 1.350 . S
C1276 C1275 1.434 . S
C1277 C1278 1.369 . S
C1277 C1279 1.419 . S
C1277 H1281 0.930 . S
C1278 C1277 1.369 . S
C1278 C1287 1.429 . S
C1279 C1277 1.419 . S
C1279 C1280 1.363 . S
C1279 H1282 0.929 . S
C1280 C1279 1.363 . S
C1280 C1286 1.428 . S
H1281 C1277 0.930 . S
H1282 C1279 0.929 . S
S1283 N1284 1.613 . S
S1283 N1285 1.610 . S
N1284 S1283 1.613 . S
N1284 C1287 1.350 . S
N1285 S1283 1.610 . S
N1285 C1286 1.351 . S
C1286 C1280 1.428 . S
C1286 N1285 1.351 . S
C1286 C1287 1.434 . S
C1287 C1278 1.429 . S
C1287 N1284 1.350 . S
C1287 C1286 1.434 . S
C1288 C1289 1.369 . S
C1288 C1290 1.419 . S
C1288 H1292 0.930 . S
C1289 C1288 1.369 . S
C1289 C1298 1.429 . S
C1290 C1288 1.419 . S
C1290 C1291 1.363 . S
C1290 H1293 0.929 . S
C1291 C1290 1.363 . S
C1291 C1297 1.428 . S
H1292 C1288 0.930 . S
H1293 C1290 0.929 . S
S1294 N1295 1.613 . S
S1294 N1296 1.610 . S
N1295 S1294 1.613 . S
N1295 C1298 1.350 . S
N1296 S1294 1.610 . S
N1296 C1297 1.351 . S
C1297 C1291 1.428 . S
C1297 N1296 1.351 . S
C1297 C1298 1.434 . S
C1298 C1289 1.429 . S
C1298 N1295 1.350 . S
C1298 C1297 1.434 . S
C1299 C1300 1.369 . S
C1299 C1301 1.419 . S
C1299 H1303 0.930 . S
C1300 C1299 1.369 . S
C1300 C1309 1.429 . S
C1301 C1299 1.419 . S
C1301 C1302 1.363 . S
C1301 H1304 0.929 . S
C1302 C1301 1.363 . S
C1302 C1308 1.428 . S
H1303 C1299 0.930 . S
H1304 C1301 0.929 . S
S1305 N1306 1.613 . S
S1305 N1307 1.610 . S
N1306 S1305 1.613 . S
N1306 C1309 1.350 . S
N1307 S1305 1.610 . S
N1307 C1308 1.351 . S
C1308 C1302 1.428 . S
C1308 N1307 1.351 . S
C1308 C1309 1.434 . S
C1309 C1300 1.429 . S
C1309 N1306 1.350 . S
C1309 C1308 1.434 . S
C1310 C1311 1.369 . S
C1310 C1312 1.419 . S
C1310 H1314 0.930 . S
C1311 C1310 1.369 . S
C1311 C1320 1.429 . S
C1312 C1310 1.419 . S
C1312 C1313 1.363 . S
C1312 H1315 0.929 . S
C1313 C1312 1.363 . S
C1313 C1319 1.428 . S
H1314 C1310 0.930 . S
H1315 C1312 0.929 . S
S1316 N1317 1.613 . S
S1316 N1318 1.610 . S
N1317 S1316 1.613 . S
N1317 C1320 1.350 . S
N1318 S1316 1.610 . S
N1318 C1319 1.351 . S
C1319 C1313 1.428 . S
C1319 N1318 1.351 . S
C1319 C1320 1.434 . S
C1320 C1311 1.429 . S
C1320 N1317 1.350 . S
C1320 C1319 1.434 . S
C1321 C1322 1.369 . S
C1321 C1323 1.419 . S
C1321 H1325 0.930 . S
C1322 C1321 1.369 . S
C1322 C1331 1.429 . S
C1323 C1321 1.419 . S
C1323 C1324 1.363 . S
C1323 H1326 0.929 . S
C1324 C1323 1.363 . S
C1324 C1330 1.428 . S
H1325 C1321 0.930 . S
H1326 C1323 0.929 . S
S1327 N1328 1.613 . S
S1327 N1329 1.610 . S
N1328 S1327 1.613 . S
N1328 C1331 1.350 . S
N1329 S1327 1.610 . S
N1329 C1330 1.351 . S
C1330 C1324 1.428 . S
C1330 N1329 1.351 . S
C1330 C1331 1.434 . S
C1331 C1322 1.429 . S
C1331 N1328 1.350 . S
C1331 C1330 1.434 . S
C1332 C1333 1.369 . S
C1332 C1334 1.419 . S
C1332 H1336 0.930 . S
C1333 C1332 1.369 . S
C1333 C1342 1.429 . S
C1334 C1332 1.419 . S
C1334 C1335 1.363 . S
C1334 H1337 0.929 . S
C1335 C1334 1.363 . S
C1335 C1341 1.428 . S
H1336 C1332 0.930 . S
H1337 C1334 0.929 . S
S1338 N1339 1.613 . S
S1338 N1340 1.610 . S
N1339 S1338 1.613 . S
N1339 C1342 1.350 . S
N1340 S1338 1.610 . S
N1340 C1341 1.351 . S
C1341 C1335 1.428 . S
C1341 N1340 1.351 . S
C1341 C1342 1.434 . S
C1342 C1333 1.429 . S
C1342 N1339 1.350 . S
C1342 C1341 1.434 . S
C1343 C1344 1.369 . S
C1343 C1345 1.419 . S
C1343 H1347 0.930 . S
C1344 C1343 1.369 . S
C1344 C1353 1.429 . S
C1345 C1343 1.419 . S
C1345 C1346 1.363 . S
C1345 H1348 0.929 . S
C1346 C1345 1.363 . S
C1346 C1352 1.428 . S
H1347 C1343 0.930 . S
H1348 C1345 0.929 . S
S1349 N1350 1.613 . S
S1349 N1351 1.610 . S
N1350 S1349 1.613 . S
N1350 C1353 1.350 . S
N1351 S1349 1.610 . S
N1351 C1352 1.351 . S
C1352 C1346 1.428 . S
C1352 N1351 1.351 . S
C1352 C1353 1.434 . S
C1353 C1344 1.429 . S
C1353 N1350 1.350 . S
C1353 C1352 1.434 . S
C1354 C1355 1.369 . S
C1354 C1356 1.419 . S
C1354 H1358 0.930 . S
C1355 C1354 1.369 . S
C1355 C1364 1.429 . S
C1356 C1354 1.419 . S
C1356 C1357 1.363 . S
C1356 H1359 0.929 . S
C1357 C1356 1.363 . S
C1357 C1363 1.428 . S
H1358 C1354 0.930 . S
H1359 C1356 0.929 . S
S1360 N1361 1.613 . S
S1360 N1362 1.610 . S
N1361 S1360 1.613 . S
N1361 C1364 1.350 . S
N1362 S1360 1.610 . S
N1362 C1363 1.351 . S
C1363 C1357 1.428 . S
C1363 N1362 1.351 . S
C1363 C1364 1.434 . S
C1364 C1355 1.429 . S
C1364 N1361 1.350 . S
C1364 C1363 1.434 . S
C1365 C1366 1.369 . S
C1365 C1367 1.419 . S
C1365 H1369 0.930 . S
C1366 C1365 1.369 . S
C1366 C1375 1.429 . S
C1367 C1365 1.419 . S
C1367 C1368 1.363 . S
C1367 H1370 0.929 . S
C1368 C1367 1.363 . S
C1368 C1374 1.428 . S
H1369 C1365 0.930 . S
H1370 C1367 0.929 . S
S1371 N1372 1.613 . S
S1371 N1373 1.610 . S
N1372 S1371 1.613 . S
N1372 C1375 1.350 . S
N1373 S1371 1.610 . S
N1373 C1374 1.351 . S
C1374 C1368 1.428 . S
C1374 N1373 1.351 . S
C1374 C1375 1.434 . S
C1375 C1366 1.429 . S
C1375 N1372 1.350 . S
C1375 C1374 1.434 . S
C1376 C1377 1.369 . S
C1376 C1378 1.419 . S
C1376 H1380 0.930 . S
C1377 C1376 1.369 . S
C1377 C1386 1.429 . S
C1378 C1376 1.419 . S
C1378 C1379 1.363 . S
C1378 H1381 0.929 . S
C1379 C1378 1.363 . S
C1379 C1385 1.428 . S
H1380 C1376 0.930 . S
H1381 C1378 0.929 . S
S1382 N1383 1.613 . S
S1382 N1384 1.610 . S
N1383 S1382 1.613 . S
N1383 C1386 1.350 . S
N1384 S1382 1.610 . S
N1384 C1385 1.351 . S
C1385 C1379 1.428 . S
C1385 N1384 1.351 . S
C1385 C1386 1.434 . S
C1386 C1377 1.429 . S
C1386 N1383 1.350 . S
C1386 C1385 1.434 . S
C1387 C1388 1.369 . S
C1387 C1389 1.419 . S
C1387 H1391 0.930 . S
C1388 C1387 1.369 . S
C1388 C1397 1.429 . S
C1389 C1387 1.419 . S
C1389 C1390 1.363 . S
C1389 H1392 0.929 . S
C1390 C1389 1.363 . S
C1390 C1396 1.428 . S
H1391 C1387 0.930 . S
H1392 C1389 0.929 . S
S1393 N1394 1.613 . S
S1393 N1395 1.610 . S
N1394 S1393 1.613 . S
N1394 C1397 1.350 . S
N1395 S1393 1.610 . S
N1395 C1396 1.351 . S
C1396 C1390 1.428 . S
C1396 N1395 1.351 . S
C1396 C1397 1.434 . S
C1397 C1388 1.429 . S
C1397 N1394 1.350 . S
C1397 C1396 1.434 . S
C1398 C1399 1.369 . S
C1398 C1400 1.419 . S
C1398 H1402 0.930 . S
C1399 C1398 1.369 . S
C1399 C1408 1.429 . S
C1400 C1398 1.419 . S
C1400 C1401 1.363 . S
C1400 H1403 0.929 . S
C1401 C1400 1.363 . S
C1401 C1407 1.428 . S
H1402 C1398 0.930 . S
H1403 C1400 0.929 . S
S1404 N1405 1.613 . S
S1404 N1406 1.610 . S
N1405 S1404 1.613 . S
N1405 C1408 1.350 . S
N1406 S1404 1.610 . S
N1406 C1407 1.351 . S
C1407 C1401 1.428 . S
C1407 N1406 1.351 . S
C1407 C1408 1.434 . S
C1408 C1399 1.429 . S
C1408 N1405 1.350 . S
C1408 C1407 1.434 . S
C1409 C1410 1.369 . S
C1409 C1411 1.419 . S
C1409 H1413 0.930 . S
C1410 C1409 1.369 . S
C1410 C1419 1.429 . S
C1411 C1409 1.419 . S
C1411 C1412 1.363 . S
C1411 H1414 0.929 . S
C1412 C1411 1.363 . S
C1412 C1418 1.428 . S
H1413 C1409 0.930 . S
H1414 C1411 0.929 . S
S1415 N1416 1.613 . S
S1415 N1417 1.610 . S
N1416 S1415 1.613 . S
N1416 C1419 1.350 . S
N1417 S1415 1.610 . S
N1417 C1418 1.351 . S
C1418 C1412 1.428 . S
C1418 N1417 1.351 . S
C1418 C1419 1.434 . S
C1419 C1410 1.429 . S
C1419 N1416 1.350 . S
C1419 C1418 1.434 . S
C1420 C1421 1.369 . S
C1420 C1422 1.419 . S
C1420 H1424 0.930 . S
C1421 C1420 1.369 . S
C1421 C1430 1.429 . S
C1422 C1420 1.419 . S
C1422 C1423 1.363 . S
C1422 H1425 0.929 . S
C1423 C1422 1.363 . S
C1423 C1429 1.428 . S
H1424 C1420 0.930 . S
H1425 C1422 0.929 . S
S1426 N1427 1.613 . S
S1426 N1428 1.610 . S
N1427 S1426 1.613 . S
N1427 C1430 1.350 . S
N1428 S1426 1.610 . S
N1428 C1429 1.351 . S
C1429 C1423 1.428 . S
C1429 N1428 1.351 . S
C1429 C1430 1.434 . S
C1430 C1421 1.429 . S
C1430 N1427 1.350 . S
C1430 C1429 1.434 . S
C1431 C1432 1.369 . S
C1431 C1433 1.419 . S
C1431 H1435 0.930 . S
C1432 C1431 1.369 . S
C1432 C1441 1.429 . S
C1433 C1431 1.419 . S
C1433 C1434 1.363 . S
C1433 H1436 0.929 . S
C1434 C1433 1.363 . S
C1434 C1440 1.428 . S
H1435 C1431 0.930 . S
H1436 C1433 0.929 . S
S1437 N1438 1.613 . S
S1437 N1439 1.610 . S
N1438 S1437 1.613 . S
N1438 C1441 1.350 . S
N1439 S1437 1.610 . S
N1439 C1440 1.351 . S
C1440 C1434 1.428 . S
C1440 N1439 1.351 . S
C1440 C1441 1.434 . S
C1441 C1432 1.429 . S
C1441 N1438 1.350 . S
C1441 C1440 1.434 . S
C1442 C1443 1.369 . S
C1442 C1444 1.419 . S
C1442 H1446 0.930 . S
C1443 C1442 1.369 . S
C1443 C1452 1.429 . S
C1444 C1442 1.419 . S
C1444 C1445 1.363 . S
C1444 H1447 0.929 . S
C1445 C1444 1.363 . S
C1445 C1451 1.428 . S
H1446 C1442 0.930 . S
H1447 C1444 0.929 . S
S1448 N1449 1.613 . S
S1448 N1450 1.610 . S
N1449 S1448 1.613 . S
N1449 C1452 1.350 . S
N1450 S1448 1.610 . S
N1450 C1451 1.351 . S
C1451 C1445 1.428 . S
C1451 N1450 1.351 . S
C1451 C1452 1.434 . S
C1452 C1443 1.429 . S
C1452 N1449 1.350 . S
C1452 C1451 1.434 . S
C1453 C1454 1.369 . S
C1453 C1455 1.419 . S
C1453 H1457 0.930 . S
C1454 C1453 1.369 . S
C1454 C1463 1.429 1_455 S
C1455 C1453 1.419 . S
C1455 C1456 1.363 1_455 S
C1455 H1458 0.929 . S
C1456 C1455 1.363 1_655 S
C1456 C1462 1.428 . S
H1457 C1453 0.930 . S
H1458 C1455 0.929 . S
S1459 N1460 1.613 . S
S1459 N1461 1.610 . S
N1460 S1459 1.613 . S
N1460 C1463 1.350 . S
N1461 S1459 1.610 . S
N1461 C1462 1.351 . S
C1462 C1456 1.428 . S
C1462 N1461 1.351 . S
C1462 C1463 1.434 . S
C1463 C1454 1.429 1_655 S
C1463 N1460 1.350 . S
C1463 C1462 1.434 . S
C1464 C1465 1.369 . S
C1464 C1466 1.419 . S
C1464 H1468 0.930 . S
C1465 C1464 1.369 . S
C1465 C1474 1.429 . S
C1466 C1464 1.419 . S
C1466 C1467 1.363 . S
C1466 H1469 0.929 . S
C1467 C1466 1.363 . S
C1467 C1473 1.428 . S
H1468 C1464 0.930 . S
H1469 C1466 0.929 . S
S1470 N1471 1.613 . S
S1470 N1472 1.610 . S
N1471 S1470 1.613 . S
N1471 C1474 1.350 . S
N1472 S1470 1.610 . S
N1472 C1473 1.351 . S
C1473 C1467 1.428 . S
C1473 N1472 1.351 . S
C1473 C1474 1.434 . S
C1474 C1465 1.429 . S
C1474 N1471 1.350 . S
C1474 C1473 1.434 . S
C1475 C1476 1.369 . S
C1475 C1477 1.419 . S
C1475 H1479 0.930 . S
C1476 C1475 1.369 . S
C1476 C1485 1.429 . S
C1477 C1475 1.419 . S
C1477 C1478 1.363 . S
C1477 H1480 0.929 . S
C1478 C1477 1.363 . S
C1478 C1484 1.428 . S
H1479 C1475 0.930 . S
H1480 C1477 0.929 . S
S1481 N1482 1.613 . S
S1481 N1483 1.610 . S
N1482 S1481 1.613 . S
N1482 C1485 1.350 . S
N1483 S1481 1.610 . S
N1483 C1484 1.351 . S
C1484 C1478 1.428 . S
C1484 N1483 1.351 . S
C1484 C1485 1.434 . S
C1485 C1476 1.429 . S
C1485 N1482 1.350 . S
C1485 C1484 1.434 . S
C1486 C1487 1.369 . S
C1486 C1488 1.419 . S
C1486 H1490 0.930 . S
C1487 C1486 1.369 . S
C1487 C1496 1.429 . S
C1488 C1486 1.419 . S
C1488 C1489 1.363 . S
C1488 H1491 0.929 . S
C1489 C1488 1.363 . S
C1489 C1495 1.428 . S
H1490 C1486 0.930 . S
H1491 C1488 0.929 . S
S1492 N1493 1.613 . S
S1492 N1494 1.610 . S
N1493 S1492 1.613 . S
N1493 C1496 1.350 . S
N1494 S1492 1.610 . S
N1494 C1495 1.351 . S
C1495 C1489 1.428 . S
C1495 N1494 1.351 . S
C1495 C1496 1.434 . S
C1496 C1487 1.429 . S
C1496 N1493 1.350 . S
C1496 C1495 1.434 . S
C1497 C1498 1.369 . S
C1497 C1499 1.419 . S
C1497 H1501 0.930 . S
C1498 C1497 1.369 . S
C1498 C1507 1.429 . S
C1499 C1497 1.419 . S
C1499 C1500 1.363 . S
C1499 H1502 0.929 . S
C1500 C1499 1.363 . S
C1500 C1506 1.428 . S
H1501 C1497 0.930 . S
H1502 C1499 0.929 . S
S1503 N1504 1.613 . S
S1503 N1505 1.610 . S
N1504 S1503 1.613 . S
N1504 C1507 1.350 . S
N1505 S1503 1.610 . S
N1505 C1506 1.351 . S
C1506 C1500 1.428 . S
C1506 N1505 1.351 . S
C1506 C1507 1.434 . S
C1507 C1498 1.429 . S
C1507 N1504 1.350 . S
C1507 C1506 1.434 . S
C1508 C1509 1.369 . S
C1508 C1510 1.419 . S
C1508 H1512 0.930 . S
C1509 C1508 1.369 . S
C1509 C1518 1.429 . S
C1510 C1508 1.419 . S
C1510 C1511 1.363 . S
C1510 H1513 0.929 . S
C1511 C1510 1.363 . S
C1511 C1517 1.428 . S
H1512 C1508 0.930 . S
H1513 C1510 0.929 . S
S1514 N1515 1.613 . S
S1514 N1516 1.610 . S
N1515 S1514 1.613 . S
N1515 C1518 1.350 . S
N1516 S1514 1.610 . S
N1516 C1517 1.351 . S
C1517 C1511 1.428 . S
C1517 N1516 1.351 . S
C1517 C1518 1.434 . S
C1518 C1509 1.429 . S
C1518 N1515 1.350 . S
C1518 C1517 1.434 . S
C1519 C1520 1.369 . S
C1519 C1521 1.419 . S
C1519 H1523 0.930 . S
C1520 C1519 1.369 . S
C1520 C1529 1.429 . S
C1521 C1519 1.419 . S
C1521 C1522 1.363 . S
C1521 H1524 0.929 . S
C1522 C1521 1.363 . S
C1522 C1528 1.428 . S
H1523 C1519 0.930 . S
H1524 C1521 0.929 . S
S1525 N1526 1.613 . S
S1525 N1527 1.610 . S
N1526 S1525 1.613 . S
N1526 C1529 1.350 . S
N1527 S1525 1.610 . S
N1527 C1528 1.351 . S
C1528 C1522 1.428 . S
C1528 N1527 1.351 . S
C1528 C1529 1.434 . S
C1529 C1520 1.429 . S
C1529 N1526 1.350 . S
C1529 C1528 1.434 . S
C1530 C1531 1.369 . S
C1530 C1532 1.419 . S
C1530 H1534 0.930 . S
C1531 C1530 1.369 . S
C1531 C1540 1.429 . S
C1532 C1530 1.419 . S
C1532 C1533 1.363 . S
C1532 H1535 0.929 . S
C1533 C1532 1.363 . S
C1533 C1539 1.428 . S
H1534 C1530 0.930 . S
H1535 C1532 0.929 . S
S1536 N1537 1.613 . S
S1536 N1538 1.610 . S
N1537 S1536 1.613 . S
N1537 C1540 1.350 . S
N1538 S1536 1.610 . S
N1538 C1539 1.351 . S
C1539 C1533 1.428 . S
C1539 N1538 1.351 . S
C1539 C1540 1.434 . S
C1540 C1531 1.429 . S
C1540 N1537 1.350 . S
C1540 C1539 1.434 . S
C1541 C1542 1.369 . S
C1541 C1543 1.419 . S
C1541 H1545 0.930 . S
C1542 C1541 1.369 . S
C1542 C1551 1.429 . S
C1543 C1541 1.419 . S
C1543 C1544 1.363 . S
C1543 H1546 0.929 . S
C1544 C1543 1.363 . S
C1544 C1550 1.428 . S
H1545 C1541 0.930 . S
H1546 C1543 0.929 . S
S1547 N1548 1.613 . S
S1547 N1549 1.610 . S
N1548 S1547 1.613 . S
N1548 C1551 1.350 . S
N1549 S1547 1.610 . S
N1549 C1550 1.351 . S
C1550 C1544 1.428 . S
C1550 N1549 1.351 . S
C1550 C1551 1.434 . S
C1551 C1542 1.429 . S
C1551 N1548 1.350 . S
C1551 C1550 1.434 . S
C1552 C1553 1.369 . S
C1552 C1554 1.419 . S
C1552 H1556 0.930 . S
C1553 C1552 1.369 . S
C1553 C1562 1.429 . S
C1554 C1552 1.419 . S
C1554 C1555 1.363 . S
C1554 H1557 0.929 . S
C1555 C1554 1.363 . S
C1555 C1561 1.428 . S
H1556 C1552 0.930 . S
H1557 C1554 0.929 . S
S1558 N1559 1.613 . S
S1558 N1560 1.610 . S
N1559 S1558 1.613 . S
N1559 C1562 1.350 . S
N1560 S1558 1.610 . S
N1560 C1561 1.351 . S
C1561 C1555 1.428 . S
C1561 N1560 1.351 . S
C1561 C1562 1.434 . S
C1562 C1553 1.429 . S
C1562 N1559 1.350 . S
C1562 C1561 1.434 . S
C1563 C1564 1.369 . S
C1563 C1565 1.419 . S
C1563 H1567 0.930 . S
C1564 C1563 1.369 . S
C1564 C1573 1.429 . S
C1565 C1563 1.419 . S
C1565 C1566 1.363 . S
C1565 H1568 0.929 . S
C1566 C1565 1.363 . S
C1566 C1572 1.428 . S
H1567 C1563 0.930 . S
H1568 C1565 0.929 . S
S1569 N1570 1.613 . S
S1569 N1571 1.610 . S
N1570 S1569 1.613 . S
N1570 C1573 1.350 . S
N1571 S1569 1.610 . S
N1571 C1572 1.351 . S
C1572 C1566 1.428 . S
C1572 N1571 1.351 . S
C1572 C1573 1.434 . S
C1573 C1564 1.429 . S
C1573 N1570 1.350 . S
C1573 C1572 1.434 . S
C1574 C1575 1.369 . S
C1574 C1576 1.419 . S
C1574 H1578 0.930 . S
C1575 C1574 1.369 . S
C1575 C1584 1.429 . S
C1576 C1574 1.419 . S
C1576 C1577 1.363 . S
C1576 H1579 0.929 . S
C1577 C1576 1.363 . S
C1577 C1583 1.428 . S
H1578 C1574 0.930 . S
H1579 C1576 0.929 . S
S1580 N1581 1.613 . S
S1580 N1582 1.610 . S
N1581 S1580 1.613 . S
N1581 C1584 1.350 . S
N1582 S1580 1.610 . S
N1582 C1583 1.351 . S
C1583 C1577 1.428 . S
C1583 N1582 1.351 . S
C1583 C1584 1.434 . S
C1584 C1575 1.429 . S
C1584 N1581 1.350 . S
C1584 C1583 1.434 . S
C1585 C1586 1.369 . S
C1585 C1587 1.419 . S
C1585 H1589 0.930 . S
C1586 C1585 1.369 . S
C1586 C1595 1.429 . S
C1587 C1585 1.419 . S
C1587 C1588 1.363 . S
C1587 H1590 0.929 . S
C1588 C1587 1.363 . S
C1588 C1594 1.428 . S
H1589 C1585 0.930 . S
H1590 C1587 0.929 . S
S1591 N1592 1.613 . S
S1591 N1593 1.610 . S
N1592 S1591 1.613 . S
N1592 C1595 1.350 . S
N1593 S1591 1.610 . S
N1593 C1594 1.351 . S
C1594 C1588 1.428 . S
C1594 N1593 1.351 . S
C1594 C1595 1.434 . S
C1595 C1586 1.429 . S
C1595 N1592 1.350 . S
C1595 C1594 1.434 . S
C1596 C1597 1.369 . S
C1596 C1598 1.419 . S
C1596 H1600 0.930 . S
C1597 C1596 1.369 . S
C1597 C1606 1.429 . S
C1598 C1596 1.419 . S
C1598 C1599 1.363 . S
C1598 H1601 0.929 . S
C1599 C1598 1.363 . S
C1599 C1605 1.428 . S
H1600 C1596 0.930 . S
H1601 C1598 0.929 . S
S1602 N1603 1.613 . S
S1602 N1604 1.610 . S
N1603 S1602 1.613 . S
N1603 C1606 1.350 . S
N1604 S1602 1.610 . S
N1604 C1605 1.351 . S
C1605 C1599 1.428 . S
C1605 N1604 1.351 . S
C1605 C1606 1.434 . S
C1606 C1597 1.429 . S
C1606 N1603 1.350 . S
C1606 C1605 1.434 . S
C1607 C1608 1.369 . S
C1607 C1609 1.419 . S
C1607 H1611 0.930 . S
C1608 C1607 1.369 . S
C1608 C1617 1.429 . S
C1609 C1607 1.419 . S
C1609 C1610 1.363 . S
C1609 H1612 0.929 . S
C1610 C1609 1.363 . S
C1610 C1616 1.428 . S
H1611 C1607 0.930 . S
H1612 C1609 0.929 . S
S1613 N1614 1.613 . S
S1613 N1615 1.610 . S
N1614 S1613 1.613 . S
N1614 C1617 1.350 . S
N1615 S1613 1.610 . S
N1615 C1616 1.351 . S
C1616 C1610 1.428 . S
C1616 N1615 1.351 . S
C1616 C1617 1.434 . S
C1617 C1608 1.429 . S
C1617 N1614 1.350 . S
C1617 C1616 1.434 . S
C1618 C1619 1.369 . S
C1618 C1620 1.419 . S
C1618 H1622 0.930 . S
C1619 C1618 1.369 . S
C1619 C1628 1.429 . S
C1620 C1618 1.419 . S
C1620 C1621 1.363 . S
C1620 H1623 0.929 . S
C1621 C1620 1.363 . S
C1621 C1627 1.428 . S
H1622 C1618 0.930 . S
H1623 C1620 0.929 . S
S1624 N1625 1.613 . S
S1624 N1626 1.610 . S
N1625 S1624 1.613 . S
N1625 C1628 1.350 . S
N1626 S1624 1.610 . S
N1626 C1627 1.351 . S
C1627 C1621 1.428 . S
C1627 N1626 1.351 . S
C1627 C1628 1.434 . S
C1628 C1619 1.429 . S
C1628 N1625 1.350 . S
C1628 C1627 1.434 . S
C1629 C1630 1.369 . S
C1629 C1631 1.419 . S
C1629 H1633 0.930 . S
C1630 C1629 1.369 . S
C1630 C1639 1.429 . S
C1631 C1629 1.419 . S
C1631 C1632 1.363 . S
C1631 H1634 0.929 . S
C1632 C1631 1.363 . S
C1632 C1638 1.428 . S
H1633 C1629 0.930 . S
H1634 C1631 0.929 . S
S1635 N1636 1.613 . S
S1635 N1637 1.610 . S
N1636 S1635 1.613 . S
N1636 C1639 1.350 . S
N1637 S1635 1.610 . S
N1637 C1638 1.351 . S
C1638 C1632 1.428 . S
C1638 N1637 1.351 . S
C1638 C1639 1.434 . S
C1639 C1630 1.429 . S
C1639 N1636 1.350 . S
C1639 C1638 1.434 . S
C1640 C1641 1.369 . S
C1640 C1642 1.419 . S
C1640 H1644 0.930 . S
C1641 C1640 1.369 . S
C1641 C1650 1.429 . S
C1642 C1640 1.419 . S
C1642 C1643 1.363 . S
C1642 H1645 0.929 . S
C1643 C1642 1.363 . S
C1643 C1649 1.428 . S
H1644 C1640 0.930 . S
H1645 C1642 0.929 . S
S1646 N1647 1.613 . S
S1646 N1648 1.610 . S
N1647 S1646 1.613 . S
N1647 C1650 1.350 . S
N1648 S1646 1.610 . S
N1648 C1649 1.351 . S
C1649 C1643 1.428 . S
C1649 N1648 1.351 . S
C1649 C1650 1.434 . S
C1650 C1641 1.429 . S
C1650 N1647 1.350 . S
C1650 C1649 1.434 . S
C1651 C1652 1.369 . S
C1651 C1653 1.419 . S
C1651 H1655 0.930 . S
C1652 C1651 1.369 . S
C1652 C1661 1.429 . S
C1653 C1651 1.419 . S
C1653 C1654 1.363 . S
C1653 H1656 0.929 . S
C1654 C1653 1.363 . S
C1654 C1660 1.428 . S
H1655 C1651 0.930 . S
H1656 C1653 0.929 . S
S1657 N1658 1.613 . S
S1657 N1659 1.610 . S
N1658 S1657 1.613 . S
N1658 C1661 1.350 . S
N1659 S1657 1.610 . S
N1659 C1660 1.351 . S
C1660 C1654 1.428 . S
C1660 N1659 1.351 . S
C1660 C1661 1.434 . S
C1661 C1652 1.429 . S
C1661 N1658 1.350 . S
C1661 C1660 1.434 . S
C1662 C1663 1.369 . S
C1662 C1664 1.419 . S
C1662 H1666 0.930 . S
C1663 C1662 1.369 . S
C1663 C1672 1.429 . S
C1664 C1662 1.419 . S
C1664 C1665 1.363 . S
C1664 H1667 0.929 . S
C1665 C1664 1.363 . S
C1665 C1671 1.428 . S
H1666 C1662 0.930 . S
H1667 C1664 0.929 . S
S1668 N1669 1.613 . S
S1668 N1670 1.610 . S
N1669 S1668 1.613 . S
N1669 C1672 1.350 . S
N1670 S1668 1.610 . S
N1670 C1671 1.351 . S
C1671 C1665 1.428 . S
C1671 N1670 1.351 . S
C1671 C1672 1.434 . S
C1672 C1663 1.429 . S
C1672 N1669 1.350 . S
C1672 C1671 1.434 . S
C1673 C1674 1.369 . S
C1673 C1675 1.419 . S
C1673 H1677 0.930 . S
C1674 C1673 1.369 . S
C1674 C1683 1.429 . S
C1675 C1673 1.419 . S
C1675 C1676 1.363 . S
C1675 H1678 0.929 . S
C1676 C1675 1.363 . S
C1676 C1682 1.428 . S
H1677 C1673 0.930 . S
H1678 C1675 0.929 . S
S1679 N1680 1.613 . S
S1679 N1681 1.610 . S
N1680 S1679 1.613 . S
N1680 C1683 1.350 . S
N1681 S1679 1.610 . S
N1681 C1682 1.351 . S
C1682 C1676 1.428 . S
C1682 N1681 1.351 . S
C1682 C1683 1.434 . S
C1683 C1674 1.429 . S
C1683 N1680 1.350 . S
C1683 C1682 1.434 . S
C1684 C1685 1.369 . S
C1684 C1686 1.419 . S
C1684 H1688 0.930 . S
C1685 C1684 1.369 . S
C1685 C1694 1.429 . S
C1686 C1684 1.419 . S
C1686 C1687 1.363 . S
C1686 H1689 0.929 . S
C1687 C1686 1.363 . S
C1687 C1693 1.428 . S
H1688 C1684 0.930 . S
H1689 C1686 0.929 . S
S1690 N1691 1.613 . S
S1690 N1692 1.610 . S
N1691 S1690 1.613 . S
N1691 C1694 1.350 . S
N1692 S1690 1.610 . S
N1692 C1693 1.351 . S
C1693 C1687 1.428 . S
C1693 N1692 1.351 . S
C1693 C1694 1.434 . S
C1694 C1685 1.429 . S
C1694 N1691 1.350 . S
C1694 C1693 1.434 . S
C1695 C1696 1.369 . S
C1695 C1697 1.419 . S
C1695 H1699 0.930 . S
C1696 C1695 1.369 . S
C1696 C1705 1.429 . S
C1697 C1695 1.419 . S
C1697 C1698 1.363 . S
C1697 H1700 0.929 . S
C1698 C1697 1.363 . S
C1698 C1704 1.428 . S
H1699 C1695 0.930 . S
H1700 C1697 0.929 . S
S1701 N1702 1.613 . S
S1701 N1703 1.610 . S
N1702 S1701 1.613 . S
N1702 C1705 1.350 . S
N1703 S1701 1.610 . S
N1703 C1704 1.351 . S
C1704 C1698 1.428 . S
C1704 N1703 1.351 . S
C1704 C1705 1.434 . S
C1705 C1696 1.429 . S
C1705 N1702 1.350 . S
C1705 C1704 1.434 . S
C1706 C1707 1.369 . S
C1706 C1708 1.419 . S
C1706 H1710 0.930 . S
C1707 C1706 1.369 . S
C1707 C1716 1.429 . S
C1708 C1706 1.419 . S
C1708 C1709 1.363 . S
C1708 H1711 0.929 . S
C1709 C1708 1.363 . S
C1709 C1715 1.428 . S
H1710 C1706 0.930 . S
H1711 C1708 0.929 . S
S1712 N1713 1.613 . S
S1712 N1714 1.610 . S
N1713 S1712 1.613 . S
N1713 C1716 1.350 . S
N1714 S1712 1.610 . S
N1714 C1715 1.351 . S
C1715 C1709 1.428 . S
C1715 N1714 1.351 . S
C1715 C1716 1.434 . S
C1716 C1707 1.429 . S
C1716 N1713 1.350 . S
C1716 C1715 1.434 . S
C1717 C1718 1.369 . S
C1717 C1719 1.419 . S
C1717 H1721 0.930 . S
C1718 C1717 1.369 . S
C1718 C1727 1.429 . S
C1719 C1717 1.419 . S
C1719 C1720 1.363 . S
C1719 H1722 0.929 . S
C1720 C1719 1.363 . S
C1720 C1726 1.428 . S
H1721 C1717 0.930 . S
H1722 C1719 0.929 . S
S1723 N1724 1.613 . S
S1723 N1725 1.610 . S
N1724 S1723 1.613 . S
N1724 C1727 1.350 . S
N1725 S1723 1.610 . S
N1725 C1726 1.351 . S
C1726 C1720 1.428 . S
C1726 N1725 1.351 . S
C1726 C1727 1.434 . S
C1727 C1718 1.429 . S
C1727 N1724 1.350 . S
C1727 C1726 1.434 . S
C673 C137 1.716 . S
C675 C11 1.719 . S
C684 C151 1.721 . S
C686 C25 1.714 . S
C695 C165 1.719 . S
C697 C39 1.715 . S
C706 C123 1.721 . S
C708 C53 1.715 . S
C717 C67 1.720 . S
C719 C221 1.716 . S
C728 C81 1.721 . S
C730 C179 1.715 . S
C739 C95 1.720 . S
C741 C193 1.714 . S
C750 C207 1.720 . S
C752 C109 1.714 . S
C761 C235 1.714 . S
C763 C263 1.719 . S
C772 C249 1.720 . S
C774 C655 1.714 . S
C783 C277 1.719 . S
C785 C669 1.715 . S
C794 C291 1.716 . S
C796 C641 1.719 . S
C805 C305 1.721 . S
C807 C627 1.715 . S
C816 C585 1.718 . S
C818 C319 1.715 . S
C827 C333 1.720 . S
C829 C613 1.716 . S
C838 C473 1.717 . S
C840 C347 1.716 . S
C849 C487 1.719 . S
C851 C361 1.715 . S
C860 C501 1.719 . S
C862 C375 1.715 . S
C871 C459 1.713 . S
C873 C389 1.719 . S
C882 C557 1.717 . S
C884 C403 1.716 . S
C893 C515 1.721 . S
C895 C417 1.714 . S
C904 C431 1.718 . S
C906 C529 1.718 . S
C915 C445 1.714 . S
C917 C543 1.718 . S
C926 C571 1.715 . S
C928 C599 1.718 . S
C937 C224 1.338 . S
C939 C5 1.250 . S
C948 C658 1.339 . S
C950 C19 1.251 . S
C959 C33 1.260 . S
C961 C294 1.335 . S
C970 C644 1.336 . S
C972 C47 1.258 . S
C981 C61 1.260 . S
C983 C574 1.328 . S
C992 C588 1.326 . S
C994 C75 1.257 . S
C1003 C89 1.251 . S
C1005 C602 1.338 . S
C1014 C280 1.326 . S
C1016 C103 1.257 . S
C1025 C117 1.254 . S
C1027 C0 1.337 . S
C1036 C14 1.330 . S
C1038 C131 1.251 . S
C1047 C145 1.248 . S
C1049 C28 1.333 . S
C1058 C42 1.333 . S
C1060 C159 1.249 . S
C1069 C173 1.264 . S
C1071 C56 1.329 . S
C1080 C70 1.339 . S
C1082 C187 1.251 . S
C1091 C201 1.254 . S
C1093 C84 1.337 . S
C1102 C215 1.255 . S
C1104 C98 1.328 . S
C1113 C229 1.261 . S
C1115 C112 1.334 . S
C1124 C243 1.248 . S
C1126 C504 1.332 . S
C1135 C518 1.327 . S
C1137 C257 1.255 . S
C1146 C532 1.335 . S
C1148 C271 1.249 . S
C1157 C210 1.333 . S
C1159 C285 1.261 . S
C1168 C299 1.262 . S
C1170 C140 1.328 . S
C1179 C490 1.339 . S
C1181 C313 1.254 . S
C1190 C327 1.254 . S
C1192 C462 1.329 . S
C1201 C341 1.251 . S
C1203 C560 1.330 . S
C1212 C355 1.260 . S
C1214 C322 1.335 . S
C1223 C369 1.264 . S
C1225 C630 1.330 . S
C1234 C383 1.253 . S
C1236 C308 1.338 . S
C1245 C397 1.264 . S
C1247 C238 1.331 . S
C1256 C411 1.252 . S
C1258 C252 1.338 . S
C1267 C266 1.326 . S
C1269 C425 1.259 . S
C1278 C616 1.333 . S
C1280 C439 1.261 . S
C1289 C336 1.334 . S
C1291 C453 1.261 . S
C1300 C350 1.328 . S
C1302 C467 1.262 . S
C1311 C481 1.252 . S
C1313 C364 1.330 . S
C1322 C378 1.338 . S
C1324 C495 1.250 . S
C1333 C509 1.261 . S
C1335 C392 1.334 . S
C1344 C523 1.264 . S
C1346 C406 1.330 . S
C1355 C537 1.249 . S
C1357 C420 1.337 . S
C1366 C434 1.329 . S
C1368 C551 1.252 . S
C1377 C565 1.254 . S
C1379 C448 1.337 . S
C1388 C579 1.264 . S
C1390 C168 1.329 . S
C1399 C182 1.326 . S
C1401 C593 1.260 . S
C1410 C607 1.247 . S
C1412 C196 1.335 . S
C1421 C621 1.247 . S
C1423 C546 1.335 . S
C1432 C476 1.333 . S
C1434 C635 1.261 . S
C1443 C154 1.330 . S
C1445 C649 1.262 . S
C1454 C126 1.334 . S
C1456 C663 1.249 . S
C1465 C317 1.405 . S
C1467 C9 1.406 . S
C1476 C23 1.405 . S
C1478 C569 1.406 . S
C1487 C37 1.403 . S
C1489 C331 1.403 . S
C1498 C639 1.407 . S
C1500 C51 1.407 . S
C1509 C65 1.407 . S
C1511 C261 1.407 . S
C1520 C275 1.406 . S
C1522 C79 1.405 . S
C1531 C625 1.407 . S
C1533 C93 1.406 . S
C1542 C107 1.406 . S
C1544 C247 1.405 . S
C1553 C191 1.404 . S
C1555 C121 1.405 . S
C1564 C135 1.403 . S
C1566 C205 1.404 . S
C1575 C219 1.403 . S
C1577 C149 1.404 . S
C1586 C163 1.407 . S
C1588 C177 1.407 . S
C1597 C359 1.407 . S
C1599 C233 1.406 . S
C1608 C289 1.405 . S
C1610 C429 1.406 . S
C1619 C303 1.404 . S
C1621 C387 1.405 . S
C1630 C653 1.405 . S
C1632 C345 1.404 . S
C1641 C373 1.403 . S
C1643 C667 1.404 . S
C1652 C401 1.404 . S
C1654 C597 1.405 . S
C1663 C415 1.405 . S
C1665 C611 1.404 . S
C1674 C583 1.403 . S
C1676 C443 1.404 . S
C1685 C527 1.407 . S
C1687 C457 1.406 . S
C1696 C471 1.403 . S
C1698 C541 1.404 . S
C1707 C485 1.407 . S
C1709 C555 1.407 . S
C1718 C513 1.405 . S
C1720 C499 1.404 . S
