# Generated by pormake.
# Topology zfe, (5)-cn, num edge types: 1
# Building blocks:
#     Node 0, Type 0, BuildingBlock: BEQFEK_clean_sbu_0, # of connection points: 5
#     Node 1, Type 0, BuildingBlock: BEQFEK_clean_sbu_0, # of connection points: 5
#     Node 2, Type 0, BuildingBlock: BEQFEK_clean_sbu_0, # of connection points: 5
#     Node 3, Type 0, BuildingBlock: BEQFEK_clean_sbu_0, # of connection points: 5
#     Node 4, Type 0, BuildingBlock: BEQFEK_clean_sbu_0, # of connection points: 5
#     Node 5, Type 0, BuildingBlock: BEQFEK_clean_sbu_0, # of connection points: 5
#     Node 6, Type 0, BuildingBlock: BEQFEK_clean_sbu_0, # of connection points: 5
#     Node 7, Type 0, BuildingBlock: BEQFEK_clean_sbu_0, # of connection points: 5
#     Node 8, Type 0, BuildingBlock: BEQFEK_clean_sbu_0, # of connection points: 5
#     Node 9, Type 0, BuildingBlock: BEQFEK_clean_sbu_0, # of connection points: 5
#     Node 10, Type 0, BuildingBlock: BEQFEK_clean_sbu_0, # of connection points: 5
#     Node 11, Type 0, BuildingBlock: BEQFEK_clean_sbu_0, # of connection points: 5
#     Node 12, Type 0, BuildingBlock: BEQFEK_clean_sbu_0, # of connection points: 5
#     Node 13, Type 0, BuildingBlock: BEQFEK_clean_sbu_0, # of connection points: 5
#     Node 14, Type 0, BuildingBlock: BEQFEK_clean_sbu_0, # of connection points: 5
#     Node 15, Type 0, BuildingBlock: BEQFEK_clean_sbu_0, # of connection points: 5
#     Edge 16, Type (0, 0), BuildingBlock: KIFKEQ_clean_linker_1, # of connection points: 2
#     Edge 17, Type (0, 0), BuildingBlock: KIFKEQ_clean_linker_1, # of connection points: 2
#     Edge 18, Type (0, 0), BuildingBlock: KIFKEQ_clean_linker_1, # of connection points: 2
#     Edge 19, Type (0, 0), BuildingBlock: KIFKEQ_clean_linker_1, # of connection points: 2
#     Edge 20, Type (0, 0), BuildingBlock: KIFKEQ_clean_linker_1, # of connection points: 2
#     Edge 21, Type (0, 0), BuildingBlock: KIFKEQ_clean_linker_1, # of connection points: 2
#     Edge 22, Type (0, 0), BuildingBlock: KIFKEQ_clean_linker_1, # of connection points: 2
#     Edge 23, Type (0, 0), BuildingBlock: KIFKEQ_clean_linker_1, # of connection points: 2
#     Edge 24, Type (0, 0), BuildingBlock: KIFKEQ_clean_linker_1, # of connection points: 2
#     Edge 25, Type (0, 0), BuildingBlock: KIFKEQ_clean_linker_1, # of connection points: 2
#     Edge 26, Type (0, 0), BuildingBlock: KIFKEQ_clean_linker_1, # of connection points: 2
#     Edge 27, Type (0, 0), BuildingBlock: KIFKEQ_clean_linker_1, # of connection points: 2
#     Edge 28, Type (0, 0), BuildingBlock: KIFKEQ_clean_linker_1, # of connection points: 2
#     Edge 29, Type (0, 0), BuildingBlock: KIFKEQ_clean_linker_1, # of connection points: 2
#     Edge 30, Type (0, 0), BuildingBlock: KIFKEQ_clean_linker_1, # of connection points: 2
#     Edge 31, Type (0, 0), BuildingBlock: KIFKEQ_clean_linker_1, # of connection points: 2
#     Edge 32, Type (0, 0), BuildingBlock: KIFKEQ_clean_linker_1, # of connection points: 2
#     Edge 33, Type (0, 0), BuildingBlock: KIFKEQ_clean_linker_1, # of connection points: 2
#     Edge 34, Type (0, 0), BuildingBlock: KIFKEQ_clean_linker_1, # of connection points: 2
#     Edge 35, Type (0, 0), BuildingBlock: KIFKEQ_clean_linker_1, # of connection points: 2
#     Edge 36, Type (0, 0), BuildingBlock: KIFKEQ_clean_linker_1, # of connection points: 2
#     Edge 37, Type (0, 0), BuildingBlock: KIFKEQ_clean_linker_1, # of connection points: 2
#     Edge 38, Type (0, 0), BuildingBlock: KIFKEQ_clean_linker_1, # of connection points: 2
#     Edge 39, Type (0, 0), BuildingBlock: KIFKEQ_clean_linker_1, # of connection points: 2
#     Edge 40, Type (0, 0), BuildingBlock: KIFKEQ_clean_linker_1, # of connection points: 2
#     Edge 41, Type (0, 0), BuildingBlock: KIFKEQ_clean_linker_1, # of connection points: 2
#     Edge 42, Type (0, 0), BuildingBlock: KIFKEQ_clean_linker_1, # of connection points: 2
#     Edge 43, Type (0, 0), BuildingBlock: KIFKEQ_clean_linker_1, # of connection points: 2
#     Edge 44, Type (0, 0), BuildingBlock: KIFKEQ_clean_linker_1, # of connection points: 2
#     Edge 45, Type (0, 0), BuildingBlock: KIFKEQ_clean_linker_1, # of connection points: 2
#     Edge 46, Type (0, 0), BuildingBlock: KIFKEQ_clean_linker_1, # of connection points: 2
#     Edge 47, Type (0, 0), BuildingBlock: KIFKEQ_clean_linker_1, # of connection points: 2
#     Edge 48, Type (0, 0), BuildingBlock: KIFKEQ_clean_linker_1, # of connection points: 2
#     Edge 49, Type (0, 0), BuildingBlock: KIFKEQ_clean_linker_1, # of connection points: 2
#     Edge 50, Type (0, 0), BuildingBlock: KIFKEQ_clean_linker_1, # of connection points: 2
#     Edge 51, Type (0, 0), BuildingBlock: KIFKEQ_clean_linker_1, # of connection points: 2
#     Edge 52, Type (0, 0), BuildingBlock: KIFKEQ_clean_linker_1, # of connection points: 2
#     Edge 53, Type (0, 0), BuildingBlock: KIFKEQ_clean_linker_1, # of connection points: 2
#     Edge 54, Type (0, 0), BuildingBlock: KIFKEQ_clean_linker_1, # of connection points: 2
#     Edge 55, Type (0, 0), BuildingBlock: KIFKEQ_clean_linker_1, # of connection points: 2
# Relax obj value: 0.096
# Max RMSD: 0.100
# Mean RMSD: 0.100
data_MOF--net-zfe--node1-BEQFEK_clean_sbu_0--edge1-KIFKEQ_clean_linker_1
_symmetry_space_group_name_H-M    P1
_symmetry_Int_Tables_number       1
_symmetry_cell_setting            triclinic
loop_
_symmetry_equiv_pos_as_xyz
'x, y, z'
_cell_length_a     56.698359
_cell_length_b     56.69525
_cell_length_c     31.204286
_cell_angle_alpha  90.018131
_cell_angle_beta   90.007052
_cell_angle_gamma 90.014582
loop_
_atom_site_label
_atom_site_type_symbol
_atom_site_fract_x
_atom_site_fract_y
_atom_site_fract_z
_atom_type_partial_charge
Co0 Co 0.00667 0.19065 0.05641 0.0
Co1 Co 0.04857 0.22696 0.04924 0.0
C2 C 0.01683 0.22678 0.12553 0.0
O3 O 0.005 0.20982 0.10945 0.0
O4 O 0.0345 0.23562 0.10592 0.0
C5 C 0.95891 0.17497 0.07091 0.0
O6 O 0.95666 0.19502 0.09162 0.0
C7 C 0.08224 0.26811 0.04531 0.0
C8 C 0.10471 0.25552 0.99217 0.0
C9 C 0.10166 0.27431 0.02004 0.0
N10 N 0.07419 0.24693 0.03202 0.0
N11 N 0.08793 0.23953 1.00061 0.0
C12 C 0.07247 0.28105 0.08313 0.0
H13 H 0.06265 0.26893 0.10439 0.0
H14 H 0.06017 0.29493 0.07179 0.0
H15 H 0.08686 0.28944 0.10179 0.0
C16 C 0.99682 0.20905 0.97 0.0
N17 N 0.00857 0.21005 0.00742 0.0
N18 N 0.0252 0.2262 0.00487 0.0
C19 C 0.02394 0.23651 0.96589 0.0
C20 C 0.00617 0.22575 0.94233 0.0
C21 C 0.9783 0.19108 0.95993 0.0
H22 H 0.9856 0.17313 0.96494 0.0
H23 H 0.96327 0.19336 0.98228 0.0
H24 H 0.97175 0.19279 0.92656 0.0
O25 O 0.03427 0.16959 0.05894 0.0
O26 O 0.06356 0.19535 0.05449 0.0
H27 H 0.05667 0.24547 0.93625 0.0
H28 H 0.03293 0.2651 0.92331 0.0
C29 C 0.04094 0.25454 0.94944 0.0
H30 H 0.0464 0.26655 0.97562 0.0
H31 H 0.08574 0.22346 0.98475 0.0
O32 O 0.9785 0.16999 0.05332 0.0
C33 C 0.05621 0.17421 0.05785 0.0
Co34 Co 0.80877 0.00736 0.05935 0.0
Co35 Co 0.77291 0.04919 0.05198 0.0
C36 C 0.7723 0.01756 0.12795 0.0
O37 O 0.78936 0.00575 0.11218 0.0
O38 O 0.76357 0.03523 0.10822 0.0
C39 C 0.82392 0.95941 0.07322 0.0
O40 O 0.80385 0.9572 0.09385 0.0
C41 C 0.72971 0.0785 0.04186 0.0
C42 C 0.74428 0.10719 1.00183 0.0
C43 C 0.72362 0.09909 0.02032 0.0
N44 N 0.75288 0.07459 0.03575 0.0
N45 N 0.76146 0.09195 0.01221 0.0
C46 C 0.71367 0.06188 0.06494 0.0
H47 H 0.72093 0.0437 0.06394 0.0
H48 H 0.69574 0.06218 0.05063 0.0
H49 H 0.71233 0.06739 0.09897 0.0
C50 C 0.79056 0.99758 0.97258 0.0
N51 N 0.78957 0.00929 0.01005 0.0
N52 N 0.77385 0.02628 0.00718 0.0
C53 C 0.76404 0.02561 0.96776 0.0
C54 C 0.77441 0.0075 0.94448 0.0
C55 C 0.80806 0.97856 0.96289 0.0
H56 H 0.80536 0.96369 0.98544 0.0
H57 H 0.80624 0.97192 0.9296 0.0
H58 H 0.82618 0.98543 0.96789 0.0
O59 O 0.83013 0.03489 0.06206 0.0
O60 O 0.80438 0.06417 0.05794 0.0
H61 H 0.75696 0.06074 0.94676 0.0
H62 H 0.73999 0.0386 0.91921 0.0
C63 C 0.74741 0.04382 0.95069 0.0
H64 H 0.73277 0.04646 0.97368 0.0
H65 H 0.77901 0.0931 1.00237 0.0
O66 O 0.82914 0.97908 0.05619 0.0
C67 C 0.82551 0.05684 0.06123 0.0
Co68 Co 0.98986 0.80819 0.05465 0.0
Co69 Co 0.94781 0.77222 0.04973 0.0
C70 C 0.98003 0.77291 0.1252 0.0
O71 O 0.99194 0.78957 0.10835 0.0
O72 O 0.96215 0.76407 0.10623 0.0
C73 C 0.03795 0.82345 0.06644 0.0
O74 O 0.04042 0.80318 0.0863 0.0
C75 C 0.91792 0.72927 0.04901 0.0
C76 C 0.89203 0.73901 0.99902 0.0
C77 C 0.8986 0.72096 0.0263 0.0
N78 N 0.92277 0.75123 0.03524 0.0
N79 N 0.90702 0.757 0.0058 0.0
C80 C 0.93227 0.71629 0.08154 0.0
H81 H 0.95131 0.71949 0.0757 0.0
H82 H 0.92855 0.69707 0.08067 0.0
H83 H 0.92798 0.7232 0.1139 0.0
C84 C 0.9991 0.78871 0.96849 0.0
N85 N 0.9876 0.78831 0.00626 0.0
N86 N 0.97053 0.7726 0.00455 0.0
C87 C 0.97096 0.76221 0.96564 0.0
C88 C 0.98884 0.77223 0.94138 0.0
C89 C 0.01734 0.80674 0.95706 0.0
H90 H 0.01079 0.82458 0.96556 0.0
H91 H 0.03351 0.80339 0.97613 0.0
H92 H 0.02184 0.80627 0.92248 0.0
O93 O 0.96212 0.82924 0.05729 0.0
O94 O 0.93261 0.80363 0.05424 0.0
H95 H 0.93735 0.75242 0.94039 0.0
H96 H 0.96121 0.73387 0.92302 0.0
C97 C 0.95394 0.74379 0.95071 0.0
H98 H 0.95007 0.73128 0.97703 0.0
H99 H 0.90681 0.77314 0.98972 0.0
O100 O 0.01807 0.82877 0.05032 0.0
C101 C 0.94013 0.82473 0.05686 0.0
Co102 Co 0.18758 0.99144 0.05693 0.0
Co103 Co 0.22396 0.94972 0.04992 0.0
C104 C 0.22341 0.9813 0.12647 0.0
O105 O 0.2065 0.99315 0.11035 0.0
O106 O 0.23228 0.96368 0.10679 0.0
C107 C 0.17248 0.03939 0.07048 0.0
O108 O 0.19273 0.04156 0.09057 0.0
C109 C 0.26604 0.91748 0.04506 0.0
C110 C 0.25311 0.89334 0.99465 0.0
C111 C 0.27243 0.89781 0.02062 0.0
N112 N 0.24422 0.92431 0.03311 0.0
N113 N 0.23663 0.90961 0.00332 0.0
C114 C 0.27962 0.9288 0.08066 0.0
H115 H 0.26774 0.93866 0.10227 0.0
H116 H 0.29258 0.94136 0.06692 0.0
H117 H 0.28919 0.91529 0.09962 0.0
C118 C 0.20641 0.00152 0.97075 0.0
N119 N 0.20724 0.98973 0.00816 0.0
N120 N 0.22334 0.97307 0.00568 0.0
C121 C 0.23371 0.97423 0.96675 0.0
C122 C 0.2231 0.99207 0.94314 0.0
C123 C 0.18863 0.02022 0.96067 0.0
H124 H 0.19095 0.03515 0.98324 0.0
H125 H 0.19054 0.02689 0.92742 0.0
H126 H 0.1706 0.01304 0.96533 0.0
O127 O 0.16648 0.96371 0.05882 0.0
O128 O 0.19243 0.93459 0.0544 0.0
H129 H 0.24212 0.94084 0.93908 0.0
H130 H 0.26152 0.96422 0.923 0.0
C131 C 0.25142 0.95688 0.95034 0.0
H132 H 0.26392 0.95203 0.97617 0.0
H133 H 0.22015 0.91084 0.98859 0.0
O134 O 0.16708 0.01969 0.05368 0.0
C135 C 0.17123 0.94179 0.05747 0.0
Co136 Co 0.00555 0.80941 0.50684 0.0
Co137 Co 0.04766 0.77345 0.51082 0.0
C138 C 0.01488 0.77388 0.43625 0.0
O139 O 0.00319 0.79071 0.45313 0.0
O140 O 0.03279 0.76499 0.45501 0.0
C141 C 0.95776 0.82565 0.49416 0.0
O142 O 0.95531 0.80598 0.47234 0.0
C143 C 0.07673 0.72991 0.51569 0.0
C144 C 0.10627 0.74293 0.55547 0.0
C145 C 0.0977 0.72298 0.53515 0.0
N146 N 0.07313 0.75287 0.52456 0.0
N147 N 0.09096 0.76052 0.54803 0.0
C148 C 0.05949 0.71483 0.49194 0.0
H149 H 0.0414 0.72205 0.4954 0.0
H150 H 0.06004 0.69639 0.50383 0.0
H151 H 0.06412 0.71486 0.45739 0.0
C152 C 0.99695 0.78979 0.59325 0.0
N153 N 0.0082 0.7895 0.55523 0.0
N154 N 0.02552 0.77407 0.55672 0.0
C155 C 0.02571 0.76395 0.59582 0.0
C156 C 0.00775 0.77365 0.62033 0.0
C157 C 0.97837 0.80743 0.60483 0.0
H158 H 0.98484 0.82545 0.59744 0.0
H159 H 0.96248 0.80422 0.58492 0.0
H160 H 0.97348 0.80642 0.63919 0.0
O161 O 0.03327 0.83059 0.50369 0.0
O162 O 0.06264 0.80483 0.50549 0.0
H163 H 0.06071 0.75536 0.61571 0.0
H164 H 0.03812 0.73785 0.64106 0.0
C165 C 0.04359 0.74634 0.61061 0.0
H166 H 0.04591 0.73254 0.58585 0.0
H167 H 0.09245 0.77773 0.55961 0.0
O168 O 0.97745 0.83016 0.51186 0.0
C169 C 0.05523 0.82597 0.50334 0.0
Co170 Co 0.19019 0.00608 0.50668 0.0
Co171 Co 0.22749 0.04692 0.51398 0.0
C172 C 0.22649 0.01549 0.43746 0.0
O173 O 0.20926 0.0041 0.45355 0.0
O174 O 0.23585 0.03287 0.45714 0.0
C175 C 0.17384 0.95872 0.49197 0.0
O176 O 0.19392 0.95623 0.47149 0.0
C177 C 0.26908 0.07989 0.51834 0.0
C178 C 0.25685 0.10228 0.57189 0.0
C179 C 0.27555 0.09909 0.54393 0.0
N180 N 0.24781 0.07208 0.53155 0.0
N181 N 0.24062 0.08577 0.5632 0.0
C182 C 0.28182 0.07016 0.48026 0.0
H183 H 0.26951 0.06073 0.45877 0.0
H184 H 0.29546 0.05751 0.49128 0.0
H185 H 0.29049 0.08453 0.46197 0.0
C186 C 0.20823 0.99571 0.59314 0.0
N187 N 0.20962 0.00737 0.55569 0.0
N188 N 0.2262 0.02355 0.55828 0.0
C189 C 0.2364 0.02208 0.59735 0.0
C190 C 0.22508 0.00467 0.62095 0.0
C191 C 0.18976 0.97765 0.60309 0.0
H192 H 0.19164 0.9626 0.58062 0.0
H193 H 0.19132 0.97098 0.6364 0.0
H194 H 0.17202 0.98544 0.59815 0.0
O195 O 0.16972 0.03412 0.50443 0.0
O196 O 0.1963 0.06265 0.5087 0.0
H197 H 0.24618 0.05446 0.62746 0.0
H198 H 0.26537 0.03027 0.63967 0.0
C199 C 0.25485 0.03862 0.61384 0.0
H200 H 0.26689 0.04395 0.58761 0.0
H201 H 0.22453 0.08373 0.57903 0.0
O202 O 0.16903 0.97836 0.50953 0.0
C203 C 0.17497 0.05591 0.50545 0.0
Co204 Co 0.99528 0.19074 0.50575 0.0
Co205 Co 0.95142 0.2242 0.51201 0.0
C206 C 0.98393 0.22597 0.43648 0.0
O207 O 0.99684 0.20996 0.4529 0.0
O208 O 0.96545 0.23341 0.45555 0.0
C209 C 0.04348 0.17573 0.49201 0.0
O210 O 0.04548 0.19513 0.4693 0.0
C211 C 0.9202 0.26614 0.51384 0.0
C212 C 0.89365 0.25454 0.56128 0.0
C213 C 0.9001 0.27335 0.53558 0.0
N214 N 0.92552 0.24411 0.52657 0.0
N215 N 0.90943 0.23724 0.55456 0.0
C216 C 0.93485 0.28026 0.48337 0.0
H217 H 0.95383 0.27644 0.48863 0.0
H218 H 0.93153 0.29944 0.48722 0.0
H219 H 0.93037 0.27502 0.45008 0.0
C220 C 0.00358 0.20961 0.59244 0.0
N221 N 0.99201 0.20989 0.55479 0.0
N222 N 0.97421 0.22472 0.55724 0.0
C223 C 0.9743 0.23476 0.59652 0.0
C224 C 0.99276 0.22534 0.62023 0.0
C225 C 0.02339 0.1931 0.60259 0.0
H226 H 0.038 0.19604 0.57958 0.0
H227 H 0.03012 0.19572 0.63565 0.0
H228 H 0.01725 0.17463 0.59869 0.0
O229 O 0.96863 0.16851 0.50183 0.0
O230 O 0.93755 0.19204 0.50693 0.0
H231 H 0.93964 0.24025 0.6212 0.0
H232 H 0.96129 0.26024 0.64239 0.0
C233 C 0.95547 0.25082 0.61309 0.0
H234 H 0.95073 0.26397 0.58829 0.0
H235 H 0.90944 0.22079 0.56958 0.0
O236 O 0.02398 0.17104 0.51017 0.0
C237 C 0.94641 0.17152 0.50297 0.0
Co238 Co 0.80776 0.99402 0.50822 0.0
Co239 Co 0.77234 0.95171 0.51399 0.0
C240 C 0.77202 0.98386 0.43858 0.0
O241 O 0.7888 0.9958 0.45496 0.0
O242 O 0.7634 0.96598 0.45783 0.0
C243 C 0.84207 0.02753 0.48292 0.0
O244 O 0.8447 0.01251 0.4512 0.0
C245 C 0.72886 0.92289 0.5205 0.0
C246 C 0.74227 0.89265 0.55799 0.0
C247 C 0.72207 0.90168 0.5392 0.0
N248 N 0.75198 0.92617 0.52826 0.0
N249 N 0.75987 0.90796 0.5504 0.0
C250 C 0.71358 0.94061 0.49842 0.0
H251 H 0.72106 0.95859 0.50234 0.0
H252 H 0.69534 0.94007 0.51131 0.0
H253 H 0.713 0.93649 0.46367 0.0
C254 C 0.78902 0.00287 0.59479 0.0
N255 N 0.78819 0.99151 0.55696 0.0
N256 N 0.77276 0.97423 0.55933 0.0
C257 C 0.76306 0.97426 0.59885 0.0
C258 C 0.77315 0.99233 0.62269 0.0
C259 C 0.80628 0.02203 0.60503 0.0
H260 H 0.80408 0.03666 0.58178 0.0
H261 H 0.80377 0.02897 0.63797 0.0
H262 H 0.82449 0.01511 0.60154 0.0
O263 O 0.82961 0.9667 0.50562 0.0
O264 O 0.80401 0.93717 0.50875 0.0
H265 H 0.75703 0.9386 0.61788 0.0
H266 H 0.73994 0.95983 0.64755 0.0
C267 C 0.74707 0.95537 0.61547 0.0
H268 H 0.73221 0.95279 0.5929 0.0
H269 H 0.77725 0.90614 0.56088 0.0
O270 O 0.8269 0.02316 0.51179 0.0
C271 C 0.82512 0.94468 0.50608 0.0
Co272 Co 0.50938 0.69019 0.55755 0.0
Co273 Co 0.55144 0.72598 0.55327 0.0
C274 C 0.51836 0.72608 0.62743 0.0
O275 O 0.50662 0.70931 0.61055 0.0
O276 O 0.53647 0.7347 0.6089 0.0
C277 C 0.46023 0.67662 0.55615 0.0
O278 O 0.45606 0.69939 0.55799 0.0
C279 C 0.57964 0.76994 0.54809 0.0
C280 C 0.61017 0.75724 0.51056 0.0
C281 C 0.60077 0.77719 0.52963 0.0
N282 N 0.57675 0.74682 0.53989 0.0
N283 N 0.59516 0.73935 0.51776 0.0
C284 C 0.56158 0.78484 0.57014 0.0
H285 H 0.54376 0.77707 0.56597 0.0
H286 H 0.56183 0.80313 0.55742 0.0
H287 H 0.56559 0.78541 0.60493 0.0
C288 C 0.50129 0.70904 0.46983 0.0
N289 N 0.51217 0.70957 0.50826 0.0
N290 N 0.52945 0.72509 0.50698 0.0
C291 C 0.52989 0.73508 0.46775 0.0
C292 C 0.51215 0.72523 0.44296 0.0
C293 C 0.48312 0.69116 0.4573 0.0
H294 H 0.48737 0.67385 0.4719 0.0
H295 H 0.46566 0.69694 0.46941 0.0
H296 H 0.48198 0.68918 0.42198 0.0
O297 O 0.53708 0.6691 0.5616 0.0
O298 O 0.56662 0.69467 0.55912 0.0
H299 H 0.56514 0.74377 0.44945 0.0
H300 H 0.54282 0.7607 0.42204 0.0
C301 C 0.54785 0.75266 0.45315 0.0
H302 H 0.5496 0.76682 0.4774 0.0
H303 H 0.59727 0.72206 0.50694 0.0
O304 O 0.4814 0.66934 0.55477 0.0
C305 C 0.55908 0.67359 0.56181 0.0
Co306 Co 0.30871 0.50957 0.55266 0.0
Co307 Co 0.27353 0.55225 0.55115 0.0
C308 C 0.27427 0.51899 0.62501 0.0
O309 O 0.29085 0.50734 0.60731 0.0
O310 O 0.26524 0.53701 0.60682 0.0
C311 C 0.32332 0.46121 0.56308 0.0
O312 O 0.30342 0.45906 0.58429 0.0
C313 C 0.22985 0.58094 0.54636 0.0
C314 C 0.24321 0.61197 0.51102 0.0
C315 C 0.22295 0.60239 0.52868 0.0
N316 N 0.25305 0.57805 0.53901 0.0
N317 N 0.26092 0.59676 0.51823 0.0
C318 C 0.21455 0.56257 0.5666 0.0
H319 H 0.22256 0.54484 0.56262 0.0
H320 H 0.19662 0.5628 0.55233 0.0
H321 H 0.21304 0.56629 0.6014 0.0
C322 C 0.28785 0.50153 0.4672 0.0
N323 N 0.28818 0.51268 0.50532 0.0
N324 N 0.27335 0.53052 0.50436 0.0
C325 C 0.26311 0.53126 0.46534 0.0
C326 C 0.27197 0.51298 0.44051 0.0
C327 C 0.30482 0.48245 0.45503 0.0
H328 H 0.3231 0.48839 0.46182 0.0
H329 H 0.30135 0.46664 0.475 0.0
H330 H 0.30334 0.47759 0.42071 0.0
O331 O 0.33049 0.5369 0.55437 0.0
O332 O 0.30522 0.56675 0.5562 0.0
H333 H 0.25587 0.56709 0.44869 0.0
H334 H 0.23859 0.54581 0.41916 0.0
C335 C 0.24637 0.55003 0.45088 0.0
H336 H 0.23194 0.55186 0.47456 0.0
H337 H 0.27833 0.59892 0.50817 0.0
O338 O 0.32863 0.48101 0.54662 0.0
C339 C 0.32625 0.55893 0.55628 0.0
Co340 Co 0.49037 0.31073 0.55275 0.0
Co341 Co 0.44864 0.27455 0.54817 0.0
C342 C 0.48023 0.27605 0.62426 0.0
O343 O 0.49211 0.29267 0.60719 0.0
O344 O 0.46255 0.26694 0.60517 0.0
C345 C 0.53852 0.3252 0.56436 0.0
O346 O 0.54068 0.30461 0.58327 0.0
C347 C 0.41891 0.23155 0.54829 0.0
C348 C 0.39299 0.24094 0.49814 0.0
C349 C 0.39947 0.22311 0.526 0.0
N350 N 0.42381 0.25335 0.53382 0.0
N351 N 0.4081 0.2589 0.50419 0.0
C352 C 0.4334 0.21879 0.58092 0.0
H353 H 0.45235 0.22298 0.5763 0.0
H354 H 0.43066 0.19944 0.57881 0.0
H355 H 0.42822 0.22489 0.61338 0.0
C356 C 0.50051 0.29008 0.46762 0.0
N357 N 0.48864 0.29028 0.50503 0.0
N358 N 0.47173 0.2744 0.50369 0.0
C359 C 0.47264 0.26327 0.46552 0.0
C360 C 0.49068 0.27299 0.44121 0.0
C361 C 0.51876 0.30801 0.45574 0.0
H362 H 0.51242 0.32589 0.46449 0.0
H363 H 0.53508 0.30452 0.4743 0.0
H364 H 0.52295 0.30755 0.42104 0.0
O365 O 0.46258 0.33184 0.5537 0.0
O366 O 0.43329 0.30597 0.55101 0.0
H367 H 0.43933 0.25237 0.44041 0.0
H368 H 0.46363 0.23393 0.42457 0.0
C369 C 0.45604 0.24426 0.45147 0.0
H370 H 0.45225 0.2322 0.47853 0.0
H371 H 0.40793 0.27489 0.48762 0.0
O372 O 0.51869 0.33109 0.5487 0.0
C373 C 0.44062 0.32717 0.55287 0.0
Co374 Co 0.69038 0.49092 0.55895 0.0
Co375 Co 0.72639 0.44882 0.55303 0.0
C376 C 0.72549 0.48053 0.62948 0.0
O377 O 0.70889 0.49252 0.61267 0.0
O378 O 0.73436 0.46274 0.61029 0.0
C379 C 0.67536 0.53881 0.57278 0.0
O380 O 0.69542 0.54078 0.59355 0.0
C381 C 0.7683 0.4162 0.54834 0.0
C382 C 0.75459 0.39148 0.4996 0.0
C383 C 0.77424 0.39602 0.52473 0.0
N384 N 0.74642 0.42308 0.53681 0.0
N385 N 0.73839 0.40806 0.50797 0.0
C386 C 0.78245 0.42824 0.58238 0.0
H387 H 0.7713 0.44027 0.60151 0.0
H388 H 0.79661 0.43882 0.56713 0.0
H389 H 0.79056 0.41502 0.60405 0.0
C390 C 0.70949 0.50043 0.47297 0.0
N391 N 0.71029 0.48892 0.51064 0.0
N392 N 0.72618 0.47203 0.50845 0.0
C393 C 0.73638 0.47273 0.46933 0.0
C394 C 0.72592 0.49052 0.44537 0.0
C395 C 0.69176 0.51912 0.46249 0.0
H396 H 0.69394 0.53408 0.48505 0.0
H397 H 0.69386 0.52574 0.42925 0.0
H398 H 0.67371 0.51193 0.46683 0.0
O399 O 0.66904 0.46343 0.56054 0.0
O400 O 0.69468 0.43402 0.55688 0.0
H401 H 0.74389 0.43885 0.4428 0.0
H402 H 0.76349 0.4617 0.42497 0.0
C403 C 0.7536 0.45487 0.453 0.0
H404 H 0.76629 0.45013 0.47856 0.0
H405 H 0.72179 0.40925 0.49369 0.0
O406 O 0.67007 0.51926 0.55531 0.0
C407 C 0.67356 0.44146 0.55942 0.0
Co408 Co 0.50497 0.30571 0.00917 0.0
Co409 Co 0.54891 0.27214 0.00936 0.0
C410 C 0.51534 0.27239 0.93589 0.0
O411 O 0.50297 0.28816 0.95433 0.0
O412 O 0.53384 0.26407 0.95351 0.0
C413 C 0.47093 0.33907 0.98667 0.0
O414 O 0.48607 0.34189 0.95519 0.0
C415 C 0.58 0.22985 0.01214 0.0
C416 C 0.61272 0.24623 0.03663 0.0
C417 C 0.6033 0.22507 0.02268 0.0
N418 N 0.57589 0.25287 0.01965 0.0
N419 N 0.59549 0.26243 0.03463 0.0
C420 C 0.56239 0.21317 0.99328 0.0
H421 H 0.5706 0.20298 0.96681 0.0
H422 H 0.54666 0.22278 0.98148 0.0
H423 H 0.5567 0.20046 0.01824 0.0
C424 C 0.49868 0.28435 0.09466 0.0
N425 N 0.50931 0.28504 0.05611 0.0
N426 N 0.52763 0.27079 0.05634 0.0
C427 C 0.52928 0.26063 0.09527 0.0
C428 C 0.51102 0.26887 0.12088 0.0
C429 C 0.47931 0.30081 0.10759 0.0
H430 H 0.48488 0.31925 0.10125 0.0
H431 H 0.46351 0.29724 0.08763 0.0
H432 H 0.47462 0.29895 0.14192 0.0
O433 O 0.53131 0.32885 0.00666 0.0
O434 O 0.5618 0.30442 0.00533 0.0
H435 H 0.56577 0.25495 0.10904 0.0
H436 H 0.54593 0.23726 0.14113 0.0
C437 C 0.54904 0.24481 0.10881 0.0
H438 H 0.55084 0.23019 0.08546 0.0
H439 H 0.59724 0.28019 0.04282 0.0
O440 O 0.47529 0.32375 0.01532 0.0
C441 C 0.55345 0.32524 0.00499 0.0
Co442 Co 0.68717 0.50692 0.01063 0.0
Co443 Co 0.72489 0.54728 0.01726 0.0
C444 C 0.72299 0.51631 0.94036 0.0
O445 O 0.70567 0.50513 0.95667 0.0
O446 O 0.73273 0.53346 0.96011 0.0
C447 C 0.66968 0.46022 0.99391 0.0
O448 O 0.68931 0.45804 0.9719 0.0
C449 C 0.76824 0.57675 0.01856 0.0
C450 C 0.75952 0.60108 0.07167 0.0
C451 C 0.77701 0.59538 0.04262 0.0
N452 N 0.74657 0.57146 0.03327 0.0
N453 N 0.74141 0.58627 0.06462 0.0
C454 C 0.78044 0.56362 0.98344 0.0
H455 H 0.7776 0.54439 0.98757 0.0
H456 H 0.79962 0.56754 0.98298 0.0
H457 H 0.77261 0.56882 0.95225 0.0
C458 C 0.70632 0.49542 0.09583 0.0
N459 N 0.70724 0.50749 0.05876 0.0
N460 N 0.72383 0.52368 0.06127 0.0
C461 C 0.73446 0.52185 0.0999 0.0
C462 C 0.72347 0.50413 0.1233 0.0
C463 C 0.688 0.47722 0.10584 0.0
H464 H 0.6893 0.46266 0.08224 0.0
H465 H 0.69023 0.46988 0.13855 0.0
H466 H 0.6702 0.48519 0.10271 0.0
O467 O 0.66716 0.53532 0.01071 0.0
O468 O 0.69396 0.56378 0.01337 0.0
H469 H 0.74427 0.55455 0.12876 0.0
H470 H 0.7631 0.53036 0.14289 0.0
C471 C 0.75291 0.5384 0.11632 0.0
H472 H 0.76525 0.54323 0.09024 0.0
H473 H 0.72555 0.58606 0.08161 0.0
O474 O 0.66552 0.47946 0.0134 0.0
C475 C 0.67255 0.5571 0.01157 0.0
Co476 Co 0.49176 0.69087 0.00869 0.0
Co477 Co 0.45078 0.72781 0.01382 0.0
C478 C 0.48235 0.7265 0.93807 0.0
O479 O 0.49378 0.7095 0.95491 0.0
O480 O 0.46484 0.73588 0.95719 0.0
C481 C 0.54085 0.6772 0.00953 0.0
O482 O 0.54507 0.69999 0.00928 0.0
C483 C 0.42047 0.77052 0.01392 0.0
C484 C 0.39541 0.76109 0.06547 0.0
C485 C 0.40114 0.77876 0.03676 0.0
N486 N 0.42604 0.74898 0.02891 0.0
N487 N 0.41084 0.74341 0.05938 0.0
C488 C 0.43403 0.78313 0.97982 0.0
H489 H 0.45318 0.77989 0.98409 0.0
H490 H 0.43046 0.80238 0.98054 0.0
H491 H 0.42882 0.77602 0.94806 0.0
C492 C 0.5015 0.70995 0.0955 0.0
N493 N 0.49028 0.71069 0.05742 0.0
N494 N 0.47379 0.72704 0.05873 0.0
C495 C 0.47455 0.73766 0.09742 0.0
C496 C 0.49191 0.72707 0.12207 0.0
C497 C 0.51849 0.69101 0.10831 0.0
H498 H 0.51375 0.67413 0.09255 0.0
H499 H 0.53648 0.69614 0.09793 0.0
H500 H 0.51871 0.68847 0.14357 0.0
O501 O 0.46371 0.67025 0.00767 0.0
O502 O 0.43488 0.69666 0.0094 0.0
H503 H 0.44168 0.74911 0.12357 0.0
H504 H 0.46639 0.76717 0.13839 0.0
C505 C 0.45837 0.75694 0.11176 0.0
H506 H 0.4545 0.76902 0.08476 0.0
H507 H 0.41115 0.72755 0.07634 0.0
O508 O 0.51967 0.6699 0.01013 0.0
C509 C 0.44185 0.67535 0.00782 0.0
Co510 Co 0.30929 0.49375 0.00617 0.0
Co511 Co 0.27522 0.4503 0.01123 0.0
C512 C 0.27426 0.48278 0.93596 0.0
O513 O 0.29024 0.49546 0.9531 0.0
O514 O 0.26646 0.46431 0.95455 0.0
C515 C 0.32195 0.54343 0.00774 0.0
O516 O 0.29915 0.54757 0.0074 0.0
C517 C 0.23325 0.41894 0.01201 0.0
C518 C 0.24424 0.393 0.061 0.0
C519 C 0.2258 0.39904 0.03413 0.0
N520 N 0.25507 0.42452 0.02563 0.0
N521 N 0.26158 0.40877 0.05455 0.0
C522 C 0.21951 0.43323 0.98042 0.0
H523 H 0.22524 0.42846 0.94754 0.0
H524 H 0.22318 0.45228 0.98528 0.0
H525 H 0.2003 0.42986 0.98347 0.0
C526 C 0.29 0.50182 0.09351 0.0
N527 N 0.29 0.49062 0.05537 0.0
N528 N 0.27478 0.47308 0.0566 0.0
C529 C 0.26416 0.47303 0.09531 0.0
C530 C 0.27359 0.49104 0.12009 0.0
C531 C 0.30764 0.52019 0.1062 0.0
H532 H 0.3248 0.51669 0.09044 0.0
H533 H 0.30119 0.53774 0.09573 0.0
H534 H 0.31021 0.52064 0.14144 0.0
O535 O 0.33122 0.46687 0.00272 0.0
O536 O 0.30724 0.43608 0.00686 0.0
H537 H 0.25452 0.43914 0.11948 0.0
H538 H 0.23548 0.46266 0.13667 0.0
C539 C 0.24581 0.4557 0.10923 0.0
H540 H 0.23364 0.45183 0.08235 0.0
H541 H 0.27778 0.40905 0.07043 0.0
O542 O 0.32934 0.52228 0.00823 0.0
C543 C 0.32791 0.44469 0.00363 0.0
H544 H 0.14623 0.27732 0.98894 0.0
H545 H 0.09272 0.31969 0.05105 0.0
H546 H 0.17275 0.31096 0.98914 0.0
H547 H 0.12019 0.35281 0.05372 0.0
H548 H 0.19789 0.38345 0.09862 0.0
H549 H 0.16456 0.35606 0.09324 0.0
H550 H 0.17158 0.35577 0.95556 0.0
H551 H 0.20457 0.38365 0.96087 0.0
C552 C 0.14006 0.29367 0.00294 0.0
C553 C 0.11741 0.29533 0.02124 0.0
C554 C 0.15531 0.31296 0.00285 0.0
C555 C 0.14846 0.33435 0.02151 0.0
C556 C 0.12586 0.33633 0.03948 0.0
C557 C 0.1103 0.31713 0.03866 0.0
C558 C 0.19187 0.37796 0.0672 0.0
C559 C 0.20361 0.38567 0.03013 0.0
C560 C 0.17281 0.36243 0.06414 0.0
C561 C 0.16561 0.35391 0.02402 0.0
C562 C 0.17682 0.36224 0.98682 0.0
C563 C 0.19556 0.37821 0.98983 0.0
H564 H 0.70626 0.12044 0.94981 0.0
H565 H 0.6897 0.10571 0.08217 0.0
H566 H 0.67292 0.14741 0.94578 0.0
H567 H 0.65621 0.13292 0.07816 0.0
H568 H 0.59137 0.17988 0.04633 0.0
H569 H 0.61657 0.14465 0.04194 0.0
H570 H 0.67138 0.18654 0.98319 0.0
H571 H 0.64643 0.2213 0.98754 0.0
C572 C 0.69515 0.12259 0.97778 0.0
C573 C 0.70064 0.11112 0.01637 0.0
C574 C 0.67608 0.13802 0.97546 0.0
C575 C 0.66221 0.14249 0.01182 0.0
C576 C 0.66654 0.12965 0.04957 0.0
C577 C 0.68568 0.11406 0.05186 0.0
C578 C 0.6086 0.1813 0.03164 0.0
C579 C 0.61695 0.20318 0.01687 0.0
C580 C 0.62305 0.16126 0.02949 0.0
C581 C 0.64582 0.16284 0.01188 0.0
C582 C 0.65378 0.18467 0.99625 0.0
C583 C 0.63957 0.20461 0.99899 0.0
H584 H 0.79386 0.61725 0.97163 0.0
H585 H 0.8098 0.603 0.10411 0.0
H586 H 0.82681 0.64466 0.96799 0.0
H587 H 0.84405 0.62892 0.10017 0.0
H588 H 0.87843 0.70216 0.0973 0.0
H589 H 0.85212 0.6683 0.10044 0.0
H590 H 0.86585 0.65416 0.96629 0.0
H591 H 0.8906 0.68929 0.96305 0.0
C592 C 0.80503 0.61944 0.99952 0.0
C593 C 0.79943 0.60818 0.03811 0.0
C594 C 0.82406 0.63508 0.99755 0.0
C595 C 0.8382 0.63938 0.03397 0.0
C596 C 0.83329 0.62673 0.07179 0.0
C597 C 0.81386 0.61163 0.07402 0.0
C598 C 0.87601 0.69149 0.06882 0.0
C599 C 0.88634 0.6982 0.02996 0.0
C600 C 0.86103 0.67193 0.0705 0.0
C601 C 0.8565 0.65836 0.03345 0.0
C602 C 0.86823 0.66443 0.99521 0.0
C603 C 0.88265 0.68438 0.99334 0.0
H604 H 0.31813 0.90969 0.04618 0.0
H605 H 0.27663 0.85266 0.99304 0.0
H606 H 0.35249 0.88381 0.04836 0.0
H607 H 0.3114 0.82765 0.99261 0.0
H608 H 0.38395 0.79718 0.96243 0.0
H609 H 0.35516 0.82926 0.95557 0.0
H610 H 0.35851 0.84119 0.09201 0.0
H611 H 0.38683 0.80878 0.09901 0.0
C612 C 0.31605 0.89168 0.03566 0.0
C613 C 0.29416 0.8831 0.02103 0.0
C614 C 0.33594 0.87702 0.03614 0.0
C615 C 0.33449 0.85386 0.02053 0.0
C616 C 0.31298 0.84555 0.00444 0.0
C617 C 0.29305 0.85993 0.00491 0.0
C618 C 0.37903 0.80713 0.99068 0.0
C619 C 0.38758 0.80069 0.03121 0.0
C620 C 0.36253 0.82533 0.9868 0.0
C621 C 0.35476 0.8376 0.0233 0.0
C622 C 0.36445 0.83211 0.06343 0.0
C623 C 0.38052 0.81358 0.06742 0.0
H624 H 0.10146 0.69093 0.46932 0.0
H625 H 0.12208 0.70342 0.60058 0.0
H626 H 0.12681 0.6561 0.4672 0.0
H627 H 0.14787 0.6692 0.59815 0.0
H628 H 0.18857 0.60272 0.59093 0.0
H629 H 0.15275 0.62665 0.59183 0.0
H630 H 0.16968 0.65317 0.46573 0.0
H631 H 0.20491 0.62877 0.46436 0.0
C632 C 0.11083 0.68586 0.49809 0.0
C633 C 0.10973 0.69984 0.53518 0.0
C634 C 0.12558 0.66606 0.49673 0.0
C635 C 0.13946 0.65993 0.53244 0.0
C636 C 0.13723 0.67319 0.57025 0.0
C637 C 0.12262 0.69296 0.57152 0.0
C638 C 0.18419 0.613 0.56284 0.0
C639 C 0.1995 0.6138 0.5275 0.0
C640 C 0.16381 0.62692 0.56353 0.0
C641 C 0.1584 0.6419 0.52892 0.0
C642 C 0.1731 0.64164 0.49269 0.0
C643 C 0.19344 0.62783 0.49208 0.0
H644 H 0.3847 0.19387 0.46283 0.0
H645 H 0.38457 0.20265 0.60022 0.0
H646 H 0.35779 0.16027 0.46971 0.0
H647 H 0.35723 0.16933 0.60701 0.0
H648 H 0.27896 0.14366 0.57473 0.0
H649 H 0.31279 0.1699 0.57409 0.0
H650 H 0.35417 0.1167 0.51016 0.0
H651 H 0.3208 0.08953 0.51324 0.0
C652 C 0.37929 0.18823 0.49452 0.0
C653 C 0.38671 0.20066 0.53103 0.0
C654 C 0.36404 0.169 0.49843 0.0
C655 C 0.35553 0.16233 0.53885 0.0
C656 C 0.36369 0.17417 0.57554 0.0
C657 C 0.37936 0.19308 0.57169 0.0
C658 C 0.29525 0.13729 0.56082 0.0
C659 C 0.29672 0.11458 0.54274 0.0
C660 C 0.31465 0.15237 0.56068 0.0
C661 C 0.33596 0.14526 0.54203 0.0
C662 C 0.33776 0.12256 0.5244 0.0
C663 C 0.31843 0.10718 0.52544 0.0
H664 H 0.77805 0.35163 0.49296 0.0
H665 H 0.82002 0.40579 0.55441 0.0
H666 H 0.81209 0.32576 0.49224 0.0
H667 H 0.85348 0.37893 0.55613 0.0
H668 H 0.88423 0.30069 0.60064 0.0
H669 H 0.85679 0.33399 0.59575 0.0
H670 H 0.85724 0.32816 0.4579 0.0
H671 H 0.88521 0.29523 0.46271 0.0
C672 C 0.79436 0.35814 0.50659 0.0
C673 C 0.79573 0.38082 0.52498 0.0
C674 C 0.81389 0.34324 0.50595 0.0
C675 C 0.83527 0.35042 0.52419 0.0
C676 C 0.83701 0.37302 0.54218 0.0
C677 C 0.81756 0.38826 0.54188 0.0
C678 C 0.87892 0.30699 0.5693 0.0
C679 C 0.88683 0.29559 0.53202 0.0
C680 C 0.86337 0.32603 0.56654 0.0
C681 C 0.85503 0.33353 0.52648 0.0
C682 C 0.86359 0.32269 0.48909 0.0
C683 C 0.8796 0.30399 0.49183 0.0
H684 H 0.60217 0.81019 0.59422 0.0
H685 H 0.62615 0.79656 0.46525 0.0
H686 H 0.62629 0.84587 0.59652 0.0
H687 H 0.65076 0.83165 0.46795 0.0
H688 H 0.68904 0.89948 0.47474 0.0
H689 H 0.65403 0.87441 0.4725 0.0
H690 H 0.66894 0.85037 0.60107 0.0
H691 H 0.70335 0.87591 0.60371 0.0
C692 C 0.61202 0.81516 0.56594 0.0
C693 C 0.6122 0.80064 0.52947 0.0
C694 C 0.62606 0.83545 0.56742 0.0
C695 C 0.64054 0.84156 0.5325 0.0
C696 C 0.63963 0.82768 0.49522 0.0
C697 C 0.6257 0.80742 0.49382 0.0
C698 C 0.68434 0.88952 0.50305 0.0
C699 C 0.69888 0.88974 0.53949 0.0
C700 C 0.66444 0.87493 0.50159 0.0
C701 C 0.65875 0.86029 0.53652 0.0
C702 C 0.67259 0.8616 0.5738 0.0
C703 C 0.69246 0.87608 0.57517 0.0
H704 H 0.13056 0.04134 0.02748 0.0
H705 H 0.17691 0.08296 0.10735 0.0
H706 H 0.10289 0.07412 0.02407 0.0
H707 H 0.14896 0.11562 0.10462 0.0
H708 H 0.10438 0.17698 0.05315 0.0
H709 H 0.1327 0.14467 0.05536 0.0
H710 H 0.07559 0.0949 0.07045 0.0
H711 H 0.04723 0.12707 0.06738 0.0
C712 C 0.13482 0.05746 0.04443 0.0
C713 C 0.15592 0.05951 0.0678 0.0
C714 C 0.11888 0.07621 0.04267 0.0
C715 C 0.12364 0.09745 0.06426 0.0
C716 C 0.14487 0.09959 0.08726 0.0
C717 C 0.16084 0.08083 0.089 0.0
C718 C 0.09784 0.15915 0.05698 0.0
C719 C 0.0735 0.15464 0.06003 0.0
C720 C 0.11411 0.14064 0.05846 0.0
C721 C 0.10641 0.1172 0.06301 0.0
C722 C 0.08209 0.11271 0.06627 0.0
C723 C 0.06583 0.1312 0.06478 0.0
H724 H 0.95731 0.13295 0.02807 0.0
H725 H 0.91561 0.17861 0.10905 0.0
H726 H 0.92501 0.10465 0.02576 0.0
H727 H 0.88345 0.15006 0.10739 0.0
H728 H 0.82235 0.10495 0.05703 0.0
H729 H 0.85437 0.13355 0.0587 0.0
H730 H 0.90479 0.07694 0.07245 0.0
H731 H 0.87283 0.04823 0.06992 0.0
C732 C 0.94127 0.13693 0.04548 0.0
C733 C 0.93906 0.15804 0.06882 0.0
C734 C 0.9228 0.12063 0.04436 0.0
C735 C 0.90168 0.12503 0.06654 0.0
C736 C 0.89939 0.14624 0.08957 0.0
C737 C 0.91787 0.16256 0.09068 0.0
C738 C 0.84026 0.09856 0.0605 0.0
C739 C 0.84499 0.07425 0.06333 0.0
C740 C 0.85861 0.115 0.06166 0.0
C741 C 0.88214 0.10754 0.06568 0.0
C742 C 0.88688 0.08325 0.06872 0.0
C743 C 0.86853 0.0668 0.06755 0.0
H744 H 0.9493 0.87191 0.06551 0.0
H745 H 0.89195 0.82204 0.05361 0.0
H746 H 0.92098 0.90412 0.06955 0.0
H747 H 0.8637 0.85434 0.05678 0.0
H748 H 0.82007 0.9159 0.11054 0.0
H749 H 0.8481 0.88332 0.10682 0.0
H750 H 0.89305 0.92485 0.02431 0.0
H751 H 0.86533 0.95754 0.02868 0.0
C752 C 0.93067 0.8678 0.06359 0.0
C753 C 0.92293 0.84436 0.05926 0.0
C754 C 0.91444 0.8863 0.06566 0.0
C755 C 0.89008 0.8818 0.0634 0.0
C756 C 0.88232 0.85837 0.05915 0.0
C757 C 0.89855 0.83987 0.05711 0.0
C758 C 0.83592 0.91806 0.09156 0.0
C759 C 0.84051 0.93934 0.07007 0.0
C760 C 0.85193 0.89935 0.08926 0.0
C761 C 0.87285 0.90152 0.06538 0.0
C762 C 0.87729 0.92274 0.04355 0.0
C763 C 0.86132 0.94143 0.04588 0.0
H764 H 0.12391 0.95014 0.06665 0.0
H765 H 0.17452 0.89374 0.05135 0.0
H766 H 0.09205 0.92133 0.06858 0.0
H767 H 0.1426 0.86501 0.05239 0.0
H768 H 0.08169 0.81938 0.10274 0.0
H769 H 0.11386 0.84791 0.10082 0.0
H770 H 0.07154 0.89402 0.02184 0.0
H771 H 0.03922 0.86575 0.02448 0.0
C772 C 0.12826 0.93162 0.06357 0.0
C773 C 0.15181 0.92429 0.05891 0.0
C774 C 0.10996 0.9151 0.0644 0.0
C775 C 0.11476 0.89085 0.06054 0.0
C776 C 0.13831 0.88352 0.05598 0.0
C777 C 0.15661 0.90003 0.05519 0.0
C778 C 0.07927 0.83557 0.08487 0.0
C779 C 0.05785 0.84032 0.06391 0.0
C780 C 0.09776 0.85189 0.0836 0.0
C781 C 0.09526 0.8733 0.06129 0.0
C782 C 0.07392 0.87788 0.03991 0.0
C783 C 0.05544 0.8616 0.04121 0.0
H784 H 0.13205 0.95743 0.53548 0.0
H785 H 0.17687 0.91556 0.45321 0.0
H786 H 0.10354 0.92533 0.53815 0.0
H787 H 0.14809 0.88363 0.4552 0.0
H788 H 0.10331 0.82272 0.50645 0.0
H789 H 0.13195 0.85465 0.50424 0.0
H790 H 0.07536 0.90524 0.49222 0.0
H791 H 0.04659 0.87333 0.49535 0.0
C792 C 0.13579 0.9414 0.51783 0.0
C793 C 0.15673 0.93906 0.49408 0.0
C794 C 0.11937 0.92306 0.51917 0.0
C795 C 0.12349 0.90195 0.49676 0.0
C796 C 0.1445 0.89956 0.47321 0.0
C797 C 0.16095 0.91791 0.47192 0.0
C798 C 0.09692 0.84064 0.50325 0.0
C799 C 0.07261 0.84544 0.50108 0.0
C800 C 0.11338 0.85894 0.50177 0.0
C801 C 0.10595 0.88249 0.49803 0.0
C802 C 0.08165 0.88731 0.49569 0.0
C803 C 0.06516 0.86899 0.49723 0.0
H804 H 0.08675 0.17849 0.45334 0.0
H805 H 0.04517 0.13489 0.53823 0.0
H806 H 0.11872 0.14972 0.45646 0.0
H807 H 0.07722 0.10642 0.54186 0.0
H808 H 0.12747 0.04837 0.49801 0.0
H809 H 0.09621 0.07775 0.49504 0.0
H810 H 0.14799 0.13334 0.50591 0.0
H811 H 0.17937 0.104 0.50814 0.0
C812 C 0.08448 0.16287 0.47289 0.0
C813 C 0.06336 0.15893 0.49534 0.0
C814 C 0.10284 0.14644 0.47482 0.0
C815 C 0.10045 0.12572 0.49922 0.0
C816 C 0.07946 0.122 0.52219 0.0
C817 C 0.06114 0.13841 0.52029 0.0
C818 C 0.13223 0.06684 0.49971 0.0
C819 C 0.15595 0.07379 0.50332 0.0
C820 C 0.11428 0.08369 0.49827 0.0
C821 C 0.11961 0.10788 0.50039 0.0
C822 C 0.14332 0.11486 0.50375 0.0
C823 C 0.16129 0.09801 0.50523 0.0
H824 H 0.83984 0.06307 0.54222 0.0
H825 H 0.87753 0.0408 0.4288 0.0
H826 H 0.86467 0.09817 0.54662 0.0
H827 H 0.90214 0.07597 0.43306 0.0
H828 H 0.95883 0.12592 0.48571 0.0
H829 H 0.93318 0.0916 0.48066 0.0
H830 H 0.87267 0.13547 0.50728 0.0
H831 H 0.89836 0.16992 0.51279 0.0
C832 C 0.85335 0.06569 0.51814 0.0
C833 C 0.85676 0.04909 0.48522 0.0
C834 C 0.86747 0.08587 0.52054 0.0
C835 C 0.88539 0.08981 0.49025 0.0
C836 C 0.88867 0.07328 0.45719 0.0
C837 C 0.87448 0.05318 0.45465 0.0
C838 C 0.94006 0.12831 0.49051 0.0
C839 C 0.93067 0.15071 0.49964 0.0
C840 C 0.92535 0.10864 0.48734 0.0
C841 C 0.9009 0.11084 0.49346 0.0
C842 C 0.89147 0.13319 0.50276 0.0
C843 C 0.90619 0.15294 0.50567 0.0
H844 H 0.95676 0.86742 0.53808 0.0
H845 H 0.91441 0.82289 0.45607 0.0
H846 H 0.92481 0.89614 0.54108 0.0
H847 H 0.88266 0.85182 0.45842 0.0
H848 H 0.82198 0.89661 0.50956 0.0
H849 H 0.85388 0.86799 0.50759 0.0
H850 H 0.90452 0.92455 0.49561 0.0
H851 H 0.87257 0.95335 0.49844 0.0
C852 C 0.94065 0.86377 0.52062 0.0
C853 C 0.93814 0.84284 0.49683 0.0
C854 C 0.92239 0.88032 0.52212 0.0
C855 C 0.90119 0.87633 0.49989 0.0
C856 C 0.89865 0.85533 0.47633 0.0
C857 C 0.9169 0.83877 0.47484 0.0
C858 C 0.8399 0.90301 0.50644 0.0
C859 C 0.84468 0.92733 0.50412 0.0
C860 C 0.8582 0.88655 0.50509 0.0
C861 C 0.88176 0.89395 0.50136 0.0
C862 C 0.88658 0.91827 0.49903 0.0
C863 C 0.86825 0.93477 0.50038 0.0
H864 H 0.63369 0.54111 0.52905 0.0
H865 H 0.67945 0.58195 0.61136 0.0
H866 H 0.60589 0.57381 0.5265 0.0
H867 H 0.65137 0.61451 0.60948 0.0
H868 H 0.60724 0.6763 0.55889 0.0
H869 H 0.63548 0.64397 0.56088 0.0
H870 H 0.57822 0.59412 0.57302 0.0
H871 H 0.54989 0.62638 0.57013 0.0
C872 C 0.6378 0.55705 0.5467 0.0
C873 C 0.65877 0.55891 0.57049 0.0
C874 C 0.62178 0.57574 0.54545 0.0
C875 C 0.62634 0.59673 0.56797 0.0
C876 C 0.64744 0.59867 0.59142 0.0
C877 C 0.66349 0.57997 0.59264 0.0
C878 C 0.60063 0.65845 0.56208 0.0
C879 C 0.57626 0.65395 0.5643 0.0
C880 C 0.61686 0.63992 0.56343 0.0
C881 C 0.60911 0.61646 0.56705 0.0
C882 C 0.58476 0.61197 0.56958 0.0
C883 C 0.56852 0.63049 0.5682 0.0
H884 H 0.32499 0.60512 0.58092 0.0
H885 H 0.37223 0.55126 0.53386 0.0
H886 H 0.35728 0.63335 0.58172 0.0
H887 H 0.40433 0.57974 0.53256 0.0
H888 H 0.46242 0.62964 0.57401 0.0
H889 H 0.43023 0.60136 0.57555 0.0
H890 H 0.38158 0.65626 0.53752 0.0
H891 H 0.41375 0.68479 0.53814 0.0
C892 C 0.34227 0.59935 0.57047 0.0
C893 C 0.34606 0.57592 0.55745 0.0
C894 C 0.36079 0.61561 0.57058 0.0
C895 C 0.3835 0.60896 0.55703 0.0
C896 C 0.38723 0.58548 0.54395 0.0
C897 C 0.36878 0.56912 0.54449 0.0
C898 C 0.44484 0.63566 0.56598 0.0
C899 C 0.44061 0.65945 0.55602 0.0
C900 C 0.42635 0.61939 0.56658 0.0
C901 C 0.4032 0.62641 0.55657 0.0
C902 C 0.39905 0.65023 0.54621 0.0
C903 C 0.41752 0.6666 0.54627 0.0
H904 H 0.36477 0.45926 0.51851 0.0
H905 H 0.31942 0.41769 0.60028 0.0
H906 H 0.39274 0.42671 0.51506 0.0
H907 H 0.34765 0.3853 0.59753 0.0
H908 H 0.39251 0.32401 0.54826 0.0
H909 H 0.36393 0.35606 0.54912 0.0
H910 H 0.42062 0.40656 0.5612 0.0
H911 H 0.44928 0.37458 0.55945 0.0
C912 C 0.36077 0.44319 0.5358 0.0
C913 C 0.33988 0.4411 0.55978 0.0
C914 C 0.37688 0.42457 0.53403 0.0
C915 C 0.37251 0.40344 0.55621 0.0
C916 C 0.35145 0.40124 0.5797 0.0
C917 C 0.33531 0.41986 0.58143 0.0
C918 C 0.39892 0.34194 0.5511 0.0
C919 C 0.42323 0.34669 0.55379 0.0
C920 C 0.3825 0.36032 0.5518 0.0
C921 C 0.38997 0.38388 0.55522 0.0
C922 C 0.41428 0.38863 0.55792 0.0
C923 C 0.43071 0.37026 0.55719 0.0
H924 H 0.54057 0.36779 0.52359 0.0
H925 H 0.58211 0.32004 0.60075 0.0
H926 H 0.57337 0.39552 0.52193 0.0
H927 H 0.61475 0.34804 0.59987 0.0
H928 H 0.67622 0.39342 0.55226 0.0
H929 H 0.64388 0.36514 0.5523 0.0
H930 H 0.59411 0.42205 0.56959 0.0
H931 H 0.62637 0.45041 0.5686 0.0
C932 C 0.55668 0.36322 0.54029 0.0
C933 C 0.5587 0.34172 0.56239 0.0
C934 C 0.57544 0.3792 0.53955 0.0
C935 C 0.59665 0.37407 0.56096 0.0
C936 C 0.59875 0.35243 0.58266 0.0
C937 C 0.58 0.33642 0.58333 0.0
C938 C 0.65839 0.39993 0.55614 0.0
C939 C 0.65391 0.42422 0.5604 0.0
C940 C 0.63985 0.38368 0.55636 0.0
C941 C 0.6164 0.39132 0.5609 0.0
C942 C 0.61194 0.4156 0.56538 0.0
C943 C 0.63047 0.43185 0.56508 0.0
H944 H 0.67171 0.41809 0.95161 0.0
H945 H 0.62855 0.45809 0.03967 0.0
H946 H 0.64311 0.38607 0.95338 0.0
H947 H 0.60016 0.42579 0.04212 0.0
H948 H 0.54313 0.37256 1.0012 0.0
H949 H 0.57096 0.40543 0.99797 0.0
H950 H 0.62913 0.35628 0.00243 0.0
H951 H 0.60155 0.32357 0.00471 0.0
C952 C 0.65618 0.42001 0.97153 0.0
C953 C 0.65244 0.44064 0.99553 0.0
C954 C 0.63982 0.4016 0.97268 0.0
C955 C 0.61936 0.40334 0.99796 0.0
C956 C 0.61558 0.42401 0.02189 0.0
C957 C 0.63194 0.44246 0.0207 0.0
C958 C 0.56186 0.36879 1.00141 0.0
C959 C 0.57007 0.34541 0.00308 0.0
C960 C 0.5778 0.38763 0.9998 0.0
C961 C 0.60227 0.38347 0.99981 0.0
C962 C 0.61042 0.3601 1.00165 0.0
C963 C 0.59454 0.34132 0.00321 0.0
H964 H 0.58703 0.68482 0.03089 0.0
H965 H 0.53889 0.63077 0.98777 0.0
H966 H 0.61898 0.65602 0.0323 0.0
H967 H 0.57086 0.60228 0.98701 0.0
H968 H 0.62614 0.55064 0.03125 0.0
H969 H 0.59487 0.57992 0.0319 0.0
H970 H 0.64442 0.63311 0.98982 0.0
H971 H 0.67596 0.60393 0.99133 0.0
C972 C 0.58335 0.66683 0.0213 0.0
C973 C 0.56045 0.66002 0.00944 0.0
C974 C 0.60169 0.65032 0.02183 0.0
C975 C 0.59759 0.62671 0.0099 0.0
C976 C 0.57467 0.62011 0.99739 0.0
C977 C 0.55631 0.6365 0.99753 0.0
C978 C 0.63035 0.56859 0.02211 0.0
C979 C 0.65352 0.57495 0.01115 0.0
C980 C 0.61236 0.5854 0.02222 0.0
C981 C 0.61698 0.60895 0.01064 0.0
C982 C 0.64021 0.61527 0.99958 0.0
C983 C 0.6583 0.5985 1.00014 0.0
H984 H 0.3144 0.5897 0.02871 0.0
H985 H 0.36831 0.54138 0.98573 0.0
H986 H 0.34326 0.62165 0.02946 0.0
H987 H 0.39681 0.57332 0.98434 0.0
H988 H 0.44858 0.62893 0.02749 0.0
H989 H 0.41936 0.59757 0.02863 0.0
H990 H 0.36601 0.64681 0.98611 0.0
H991 H 0.3951 0.67842 0.98708 0.0
C992 C 0.33237 0.58598 0.01902 0.0
C993 C 0.33912 0.56304 0.00737 0.0
C994 C 0.34891 0.60431 0.01918 0.0
C995 C 0.37248 0.60014 0.00706 0.0
C996 C 0.37902 0.57718 0.99482 0.0
C997 C 0.36261 0.55884 0.99533 0.0
C998 C 0.43062 0.63305 0.01831 0.0
C999 C 0.42417 0.65615 0.00713 0.0
C1000 C 0.41383 0.61501 0.01873 0.0
C1001 C 0.39024 0.61954 0.00727 0.0
C1002 C 0.38387 0.64268 0.99582 0.0
C1003 C 0.4006 0.6608 0.99606 0.0
H1004 H 0.43502 0.33675 0.04534 0.0
H1005 H 0.4582 0.37475 0.93289 0.0
H1006 H 0.40005 0.36188 0.04938 0.0
H1007 H 0.42326 0.3996 0.93678 0.0
H1008 H 0.37384 0.45662 0.9885 0.0
H1009 H 0.40789 0.43059 0.98471 0.0
H1010 H 0.363 0.37051 0.009 0.0
H1011 H 0.32879 0.3966 0.01325 0.0
C1012 C 0.43262 0.35038 0.02142 0.0
C1013 C 0.44943 0.35381 0.98888 0.0
C1014 C 0.41254 0.36468 0.02361 0.0
C1015 C 0.40896 0.38276 0.99349 0.0
C1016 C 0.42568 0.38602 0.96079 0.0
C1017 C 0.44566 0.37169 0.95846 0.0
C1018 C 0.37116 0.43787 0.99305 0.0
C1019 C 0.34854 0.42871 1.0011 0.0
C1020 C 0.39069 0.42294 0.99064 0.0
C1021 C 0.38811 0.3985 0.99641 0.0
C1022 C 0.36555 0.3893 0.00475 0.0
C1023 C 0.34595 0.40424 0.00691 0.0
H1024 H 0.95492 0.24869 0.37943 0.0
H1025 H 0.0257 0.22161 0.3939 0.0
H1026 H 0.9625 0.2558 0.30331 0.0
H1027 H 0.03317 0.22864 0.31824 0.0
H1028 H 0.04471 0.25099 0.18248 0.0
H1029 H 0.03684 0.25775 0.25865 0.0
H1030 H 0.96773 0.22675 0.24403 0.0
H1031 H 0.97548 0.22007 0.16836 0.0
C1032 C 0.97223 0.24474 0.36665 0.0
C1033 C 0.98959 0.23428 0.39261 0.0
C1034 C 0.97653 0.24872 0.32303 0.0
C1035 C 0.99837 0.24261 0.30469 0.0
C1036 C 0.01623 0.23372 0.33137 0.0
C1037 C 0.01187 0.22951 0.37475 0.0
C1038 C 0.02765 0.24612 0.19535 0.0
C1039 C 0.01084 0.23472 0.16948 0.0
C1040 C 0.02319 0.24989 0.23899 0.0
C1041 C 0.00173 0.24264 0.25742 0.0
C1042 C 0.98436 0.23273 0.23083 0.0
C1043 C 0.98889 0.22872 0.18745 0.0
H1044 H 0.74814 0.95588 0.38141 0.0
H1045 H 0.77841 0.02537 0.39606 0.0
H1046 H 0.74138 0.96382 0.30528 0.0
H1047 H 0.77162 0.03322 0.32039 0.0
H1048 H 0.77802 0.97594 0.17035 0.0
H1049 H 0.77115 0.96818 0.24601 0.0
H1050 H 0.74185 0.03797 0.26115 0.0
H1051 H 0.7487 0.04581 0.18499 0.0
C1052 C 0.75286 0.97302 0.36866 0.0
C1053 C 0.76408 0.98989 0.39466 0.0
C1054 C 0.74907 0.97751 0.32506 0.0
C1055 C 0.75609 0.99909 0.30682 0.0
C1056 C 0.76582 0.01651 0.33351 0.0
C1057 C 0.76988 0.01192 0.37686 0.0
C1058 C 0.76967 0.98949 0.18956 0.0
C1059 C 0.76417 0.0116 0.17176 0.0
C1060 C 0.76557 0.98496 0.2329 0.0
C1061 C 0.75609 0.00251 0.2596 0.0
C1062 C 0.74934 0.02418 0.24136 0.0
C1063 C 0.75317 0.02862 0.19774 0.0
H1064 H 0.02173 0.7792 0.16722 0.0
H1065 H 0.95183 0.75014 0.18339 0.0
H1066 H 0.02968 0.77303 0.24306 0.0
H1067 H 0.95985 0.74405 0.25969 0.0
H1068 H 0.97334 0.78106 0.39406 0.0
H1069 H 0.96513 0.77437 0.31843 0.0
H1070 H 0.03403 0.74316 0.30261 0.0
H1071 H 0.04231 0.74978 0.37864 0.0
C1072 C 0.0082 0.77108 0.18681 0.0
C1073 C 0.98605 0.7654 0.16936 0.0
C1074 C 0.01284 0.7674 0.23025 0.0
C1075 C 0.99534 0.75818 0.25738 0.0
C1076 C 0.9736 0.75134 0.23956 0.0
C1077 C 0.96906 0.75473 0.19586 0.0
C1078 C 0.98659 0.77236 0.37471 0.0
C1079 C 0.00859 0.7662 0.39229 0.0
C1080 C 0.98181 0.76837 0.33139 0.0
C1081 C 0.99899 0.75836 0.30453 0.0
C1082 C 0.02053 0.75107 0.32253 0.0
C1083 C 0.02521 0.75477 0.36608 0.0
H1084 H 0.24935 0.04361 0.3792 0.0
H1085 H 0.22016 0.9738 0.3956 0.0
H1086 H 0.25508 0.03561 0.30276 0.0
H1087 H 0.22594 0.96587 0.31968 0.0
H1088 H 0.24758 0.95334 0.18324 0.0
H1089 H 0.255 0.96137 0.25916 0.0
H1090 H 0.22443 0.03066 0.24482 0.0
H1091 H 0.21697 0.02271 0.16937 0.0
C1092 C 0.24469 0.02639 0.36675 0.0
C1093 C 0.23405 0.00944 0.39334 0.0
C1094 C 0.24786 0.02186 0.32298 0.0
C1095 C 0.24082 0.00016 0.30517 0.0
C1096 C 0.23172 0.98268 0.33242 0.0
C1097 C 0.22825 0.9873 0.37593 0.0
C1098 C 0.2429 0.97046 0.19611 0.0
C1099 C 0.23143 0.98728 0.17039 0.0
C1100 C 0.24707 0.97501 0.23959 0.0
C1101 C 0.2402 0.9966 0.25799 0.0
C1102 C 0.23013 0.01394 0.23157 0.0
C1103 C 0.22568 0.00929 0.18835 0.0
H1104 H 0.02811 0.75954 0.89658 0.0
H1105 H 0.95587 0.78159 0.88112 0.0
H1106 H 0.03265 0.75771 0.81861 0.0
H1107 H 0.96039 0.78081 0.80349 0.0
H1108 H 0.96899 0.75932 0.66478 0.0
H1109 H 0.96454 0.75668 0.74267 0.0
H1110 H 0.03582 0.78255 0.75848 0.0
H1111 H 0.0403 0.78411 0.68084 0.0
C1112 C 0.01326 0.76401 0.87629 0.0
C1113 C 0.99165 0.77056 0.89447 0.0
C1114 C 0.01582 0.76314 0.83172 0.0
C1115 C 0.99688 0.76913 0.80454 0.0
C1116 C 0.97522 0.7756 0.82318 0.0
C1117 C 0.97263 0.77619 0.86764 0.0
C1118 C 0.98364 0.76425 0.6852 0.0
C1119 C 0.00497 0.7718 0.66722 0.0
C1120 C 0.98112 0.76291 0.72973 0.0
C1121 C -0.00017 0.76942 0.75708 0.0
C1122 C 0.02119 0.77694 0.73864 0.0
C1123 C 0.02375 0.77799 0.69419 0.0
H1124 H 0.26085 0.98882 0.67205 0.0
H1125 H 0.18986 0.01592 0.67538 0.0
H1126 H 0.26092 0.986 0.75053 0.0
H1127 H 0.18989 0.01372 0.75342 0.0
H1128 H 0.18798 0.98257 0.88732 0.0
H1129 H 0.18897 0.98503 0.80933 0.0
H1130 H 0.261 0.00992 0.81515 0.0
H1131 H 0.25994 0.00685 0.89358 0.0
C1132 C 0.24532 0.99418 0.68976 0.0
C1133 C 0.22527 0.00234 0.66805 0.0
C1134 C 0.24537 0.99275 0.73457 0.0
C1135 C 0.22537 -0.00044 0.75832 0.0
C1136 C 0.20542 0.0079 0.73621 0.0
C1137 C 0.20538 0.00922 0.69158 0.0
C1138 C 0.20392 0.98873 0.87178 0.0
C1139 C 0.22382 0.99472 0.89611 0.0
C1140 C 0.20452 0.9902 0.82717 0.0
C1141 C 0.22504 0.99779 0.8059 0.0
C1142 C 0.24501 0.00376 0.83046 0.0
C1143 C 0.2444 0.00219 0.87524 0.0
H1144 H 0.98976 0.26165 0.89225 0.0
H1145 H 0.0176 0.19099 0.8871 0.0
H1146 H 0.98642 0.26211 0.81386 0.0
H1147 H 0.01512 0.19147 0.80911 0.0
H1148 H 0.98448 0.1896 0.6753 0.0
H1149 H 0.98693 0.19022 0.7533 0.0
H1150 H 0.0092 0.26316 0.74886 0.0
H1151 H 0.00589 0.26249 0.67048 0.0
C1152 C 0.99518 0.24628 0.87414 0.0
C1153 C 0.00367 0.22621 0.89529 0.0
C1154 C 0.99347 0.24655 0.82936 0.0
C1155 C 0.00041 0.22678 0.80508 0.0
C1156 C 0.00914 0.20682 0.82668 0.0
C1157 C 0.01066 0.20653 0.87129 0.0
C1158 C 0.99 0.20568 0.69118 0.0
C1159 C 0.99518 0.22594 0.66727 0.0
C1160 C 0.9915 0.20607 0.7358 0.0
C1161 C 0.99842 0.22671 0.75749 0.0
C1162 C 0.00356 0.24705 0.73329 0.0
C1163 C 0.00187 0.24667 0.68852 0.0
H1164 H 0.73657 0.00633 0.67335 0.0
H1165 H 0.80887 0.98302 0.67732 0.0
H1166 H 0.73637 0.00997 0.75167 0.0
H1167 H 0.80868 0.98569 0.75531 0.0
H1168 H 0.80947 0.01711 0.88865 0.0
H1169 H 0.80863 0.01398 0.81074 0.0
H1170 H 0.73701 0.98785 0.81702 0.0
H1171 H 0.73785 0.99194 0.89526 0.0
C1172 C 0.75236 0.00194 0.69122 0.0
C1173 C 0.7728 0.99468 0.66974 0.0
C1174 C 0.75224 0.00381 0.73596 0.0
C1175 C 0.77256 0.99823 0.75991 0.0
C1176 C 0.79288 0.99064 0.738 0.0
C1177 C 0.79302 0.98899 0.6934 0.0
C1178 C 0.79365 0.0106 0.87318 0.0
C1179 C 0.7738 0.00457 0.89754 0.0
C1180 C 0.79314 0.00869 0.82862 0.0
C1181 C 0.77279 0.0005 0.80746 0.0
C1182 C 0.75288 0.99448 0.83214 0.0
C1183 C 0.75336 0.9966 0.87684 0.0
H1184 H 0.52389 0.7192 0.89614 0.0
H1185 H 0.4548 0.75007 0.8799 0.0
H1186 H 0.5322 0.72559 0.82047 0.0
H1187 H 0.46316 0.75635 0.80375 0.0
H1188 H 0.47639 0.71983 0.66864 0.0
H1189 H 0.46796 0.72631 0.74427 0.0
H1190 H 0.53748 0.75588 0.76175 0.0
H1191 H 0.54597 0.74948 0.68574 0.0
C1192 C 0.51062 0.72774 0.87656 0.0
C1193 C 0.48859 0.7339 0.89395 0.0
C1194 C 0.51546 0.73155 0.83323 0.0
C1195 C 0.49829 0.74137 0.80612 0.0
C1196 C 0.47667 0.74861 0.82388 0.0
C1197 C 0.47193 0.74511 0.86748 0.0
C1198 C 0.48973 0.72815 0.68837 0.0
C1199 C 0.51195 0.73389 0.67126 0.0
C1200 C 0.48483 0.73202 0.73168 0.0
C1201 C 0.50211 0.74146 0.75901 0.0
C1202 C 0.52389 0.7484 0.74147 0.0
C1203 C 0.5287 0.74483 0.69792 0.0
H1204 H 0.25289 0.4539 0.87695 0.0
H1205 H 0.27855 0.52498 0.89487 0.0
H1206 H 0.24667 0.46209 0.80074 0.0
H1207 H 0.27234 0.53308 0.81914 0.0
H1208 H 0.28264 0.47751 0.66672 0.0
H1209 H 0.27623 0.46877 0.74218 0.0
H1210 H 0.24325 0.53676 0.75919 0.0
H1211 H 0.24967 0.54561 0.68333 0.0
C1212 C 0.25671 0.4714 0.86488 0.0
C1213 C 0.26647 0.4887 0.89188 0.0
C1214 C 0.25326 0.47604 0.82121 0.0
C1215 C 0.25917 0.49818 0.80386 0.0
C1216 C 0.26743 0.51592 0.8315 0.0
C1217 C 0.27115 0.5112 0.87491 0.0
C1218 C 0.27364 0.49047 0.6863 0.0
C1219 C 0.26693 0.51239 0.66906 0.0
C1220 C 0.2698 0.48536 0.72954 0.0
C1221 C 0.25935 0.50213 0.75673 0.0
C1222 C 0.25153 0.52358 0.73907 0.0
C1223 C 0.25512 0.52859 0.6956 0.0
H1224 H 0.5434 0.25066 0.8762 0.0
H1225 H 0.4734 0.27905 0.89469 0.0
H1226 H 0.53512 0.24562 0.7998 0.0
H1227 H 0.46521 0.27395 0.81863 0.0
H1228 H 0.52147 0.28365 0.66714 0.0
H1229 H 0.52959 0.2766 0.74266 0.0
H1230 H 0.4608 0.24498 0.75761 0.0
H1231 H 0.45259 0.25197 0.68164 0.0
C1232 C 0.52609 0.25534 0.8642 0.0
C1233 C 0.50915 0.2655 0.89145 0.0
C1234 C 0.52141 0.25255 0.82043 0.0
C1235 C 0.49958 0.25954 0.8032 0.0
C1236 C 0.48213 0.26824 0.83097 0.0
C1237 C 0.4869 0.2713 0.87454 0.0
C1238 C 0.50819 0.27483 0.68629 0.0
C1239 C 0.48628 0.2686 0.66845 0.0
C1240 C 0.51294 0.27063 0.72954 0.0
C1241 C 0.4958 0.26032 0.75611 0.0
C1242 C 0.47428 0.2531 0.73791 0.0
C1243 C 0.46963 0.25702 0.69441 0.0
H1244 H 0.72019 0.52259 0.6706 0.0
H1245 H 0.7471 0.452 0.68868 0.0
H1246 H 0.72594 0.53078 0.74644 0.0
H1247 H 0.75279 0.46027 0.76506 0.0
H1248 H 0.74789 0.54333 0.88307 0.0
H1249 H 0.755 0.53474 0.80721 0.0
H1250 H 0.72218 0.46654 0.82257 0.0
H1251 H 0.71501 0.47506 0.89788 0.0
C1252 C 0.72776 0.50895 0.69063 0.0
C1253 C 0.73293 0.48654 0.6737 0.0
C1254 C 0.73122 0.51372 0.73409 0.0
C1255 C 0.73968 0.49613 0.76179 0.0
C1256 C 0.74607 0.47412 0.74449 0.0
C1257 C 0.74292 0.46942 0.70076 0.0
C1258 C 0.74262 0.52634 0.87041 0.0
C1259 C 0.73063 0.51 0.89638 0.0
C1260 C 0.74662 0.52146 0.82697 0.0
C1261 C 0.73906 0.5 0.8089 0.0
C1262 C 0.72841 0.48314 0.83557 0.0
C1263 C 0.72412 0.48812 0.8787 0.0
H1264 H 0.47385 0.25166 0.1661 0.0
H1265 H 0.54325 0.2816 0.18075 0.0
H1266 H 0.46949 0.25001 0.24405 0.0
H1267 H 0.53881 0.28093 0.25854 0.0
H1268 H 0.53111 0.26118 0.39885 0.0
H1269 H 0.53658 0.25741 0.32124 0.0
H1270 H 0.4634 0.27616 0.3018 0.0
H1271 H 0.45803 0.27906 0.379 0.0
C1272 C 0.48816 0.25781 0.18622 0.0
C1273 C 0.50887 0.26665 0.16782 0.0
C1274 C 0.48567 0.25706 0.23078 0.0
C1275 C 0.50376 0.26546 0.25776 0.0
C1276 C 0.52466 0.27395 0.23897 0.0
C1277 C 0.52721 0.27446 0.19445 0.0
C1278 C 0.51627 0.26429 0.37771 0.0
C1279 C 0.49415 0.27022 0.39458 0.0
C1280 C 0.51936 0.26227 0.33335 0.0
C1281 C 0.50041 0.26641 0.30509 0.0
C1282 C 0.47827 0.27231 0.32241 0.0
C1283 C 0.47518 0.2741 0.36664 0.0
H1284 H 0.76224 0.50477 0.39405 0.0
H1285 H 0.69027 0.48034 0.3911 0.0
H1286 H 0.76225 0.50771 0.31557 0.0
H1287 H 0.69023 0.4826 0.31307 0.0
H1288 H 0.68892 0.51444 0.17975 0.0
H1289 H 0.69012 0.5115 0.25765 0.0
H1290 H 0.76126 0.48428 0.25047 0.0
H1291 H 0.76001 0.48786 0.17212 0.0
C1292 C 0.74649 0.5 0.37642 0.0
C1293 C 0.72619 0.4926 0.39823 0.0
C1294 C 0.74649 0.5015 0.33161 0.0
C1295 C 0.72619 0.4955 0.30796 0.0
C1296 C 0.70601 0.48782 0.33018 0.0
C1297 C 0.70601 0.48645 0.37481 0.0
C1298 C 0.70471 0.50767 0.19497 0.0
C1299 C 0.72431 0.50119 0.17027 0.0
C1300 C 0.70542 0.50591 0.23953 0.0
C1301 C 0.72575 0.49752 0.26041 0.0
C1302 C 0.74542 0.49105 0.23548 0.0
C1303 C 0.7447 0.49292 0.19074 0.0
H1304 H 0.54436 0.71444 0.38201 0.0
H1305 H 0.4735 0.74019 0.39911 0.0
H1306 H 0.53953 0.716 0.30445 0.0
H1307 H 0.46879 0.74316 0.32139 0.0
H1308 H 0.45864 0.7198 0.18282 0.0
H1309 H 0.46356 0.72033 0.26032 0.0
H1310 H 0.53682 0.73987 0.24406 0.0
H1311 H 0.53187 0.73799 0.16625 0.0
C1312 C 0.52786 0.72081 0.36888 0.0
C1313 C 0.5093 0.72727 0.39612 0.0
C1314 C 0.52509 0.7219 0.32446 0.0
C1315 C 0.50377 0.7298 0.3063 0.0
C1316 C 0.48532 0.73659 0.33399 0.0
C1317 C 0.488 0.7351 0.37847 0.0
C1318 C 0.4757 0.7244 0.19604 0.0
C1319 C 0.49487 0.729 0.16892 0.0
C1320 C 0.47855 0.72484 0.24047 0.0
C1321 C 0.5006 0.73021 0.25882 0.0
C1322 C 0.51968 0.73525 0.2313 0.0
C1323 C 0.51688 0.7344 0.18677 0.0
H1324 H 0.27965 0.45817 0.18221 0.0
H1325 H 0.26213 0.53137 0.16281 0.0
H1326 H 0.27764 0.46366 0.25951 0.0
H1327 H 0.25911 0.53694 0.24039 0.0
H1328 H 0.28408 0.54465 0.3794 0.0
H1329 H 0.28292 0.53953 0.30183 0.0
H1330 H 0.25307 0.46991 0.31894 0.0
H1331 H 0.25536 0.47494 0.39673 0.0
C1332 C 0.27488 0.47535 0.19469 0.0
C1333 C 0.2709 0.49434 0.16681 0.0
C1334 C 0.27363 0.47853 0.239 0.0
C1335 C 0.26813 0.50075 0.25647 0.0
C1336 C 0.26375 0.51966 0.22825 0.0
C1337 C 0.2653 0.51651 0.18386 0.0
C1338 C 0.27713 0.52837 0.36633 0.0
C1339 C 0.26977 0.51018 0.39365 0.0
C1340 C 0.27631 0.52543 0.32191 0.0
C1341 C 0.26788 0.50429 0.30385 0.0
C1342 C 0.26005 0.48627 0.33156 0.0
C1343 C 0.26116 0.48914 0.37605 0.0
loop_
_geom_bond_atom_site_label_1
_geom_bond_atom_site_label_2
_geom_bond_distance
_geom_bond_site_symmetry_2
_ccdc_geom_bond_type
Co0 O3 1.970 . S
Co0 N17 1.989 . S
Co0 O25 1.967 . S
Co0 O32 1.920 1_455 S
Co1 O4 1.966 . S
Co1 N10 2.022 . S
Co1 N18 1.993 . S
Co1 O26 1.941 . S
C2 O3 1.258 . S
C2 O4 1.263 . S
O3 Co0 1.970 . S
O3 C2 1.258 . S
O4 Co1 1.966 . S
O4 C2 1.263 . S
C5 O6 1.235 . S
C5 O32 1.289 . S
O6 C5 1.235 . S
C7 C9 1.400 . S
C7 N10 1.351 . S
C7 C12 1.501 . S
C8 C9 1.387 . S
C8 N11 1.341 . S
C9 C7 1.400 . S
C9 C8 1.387 . S
N10 Co1 2.022 . S
N10 C7 1.351 . S
N10 N11 1.365 . S
N11 C8 1.341 . S
N11 N10 1.365 . S
N11 H31 0.862 1_554 S
C12 C7 1.501 . S
C12 H13 0.961 . S
C12 H14 0.961 . S
C12 H15 0.960 . S
H13 C12 0.961 . S
H14 C12 0.961 . S
H15 C12 0.960 . S
C16 N17 1.342 1_656 S
C16 C20 1.401 1_655 S
C16 C21 1.499 . S
N17 Co0 1.989 . S
N17 C16 1.342 1_454 S
N17 N18 1.388 . S
N18 Co1 1.993 . S
N18 N17 1.388 . S
N18 C19 1.346 1_554 S
C19 N18 1.346 1_556 S
C19 C20 1.396 . S
C19 C29 1.510 . S
C20 C16 1.401 1_455 S
C20 C19 1.396 . S
C21 C16 1.499 . S
C21 H22 0.959 . S
C21 H23 0.960 . S
C21 H24 0.961 . S
H22 C21 0.959 . S
H23 C21 0.960 . S
H24 C21 0.961 . S
O25 Co0 1.967 . S
O25 C33 1.258 . S
O26 Co1 1.941 . S
O26 C33 1.266 . S
H27 C29 0.959 . S
H28 C29 0.961 . S
C29 C19 1.510 . S
C29 H27 0.959 . S
C29 H28 0.961 . S
C29 H30 0.960 . S
H30 C29 0.960 . S
H31 N11 0.862 1_556 S
O32 Co0 1.920 1_655 S
O32 C5 1.289 . S
C33 O25 1.258 . S
C33 O26 1.266 . S
Co34 O37 1.970 . S
Co34 N51 1.989 . S
Co34 O59 1.967 . S
Co34 O66 1.920 1_545 S
Co35 O38 1.966 . S
Co35 N44 2.022 . S
Co35 N52 1.993 . S
Co35 O60 1.941 . S
C36 O37 1.258 . S
C36 O38 1.263 . S
O37 Co34 1.970 . S
O37 C36 1.258 . S
O38 Co35 1.966 . S
O38 C36 1.263 . S
C39 O40 1.235 . S
C39 O66 1.289 . S
O40 C39 1.235 . S
C41 C43 1.400 . S
C41 N44 1.351 . S
C41 C46 1.501 . S
C42 C43 1.387 . S
C42 N45 1.341 . S
C43 C41 1.400 . S
C43 C42 1.387 . S
N44 Co35 2.022 . S
N44 C41 1.351 . S
N44 N45 1.365 . S
N45 C42 1.341 . S
N45 N44 1.365 . S
N45 H65 0.862 1_554 S
C46 C41 1.501 . S
C46 H47 0.961 . S
C46 H48 0.961 . S
C46 H49 0.960 . S
H47 C46 0.961 . S
H48 C46 0.961 . S
H49 C46 0.960 . S
C50 N51 1.342 1_566 S
C50 C54 1.401 1_565 S
C50 C55 1.499 . S
N51 Co34 1.989 . S
N51 C50 1.342 1_544 S
N51 N52 1.388 . S
N52 Co35 1.993 . S
N52 N51 1.388 . S
N52 C53 1.346 1_554 S
C53 N52 1.346 1_556 S
C53 C54 1.396 . S
C53 C63 1.510 . S
C54 C50 1.401 1_545 S
C54 C53 1.396 . S
C55 C50 1.499 . S
C55 H56 0.959 . S
C55 H57 0.960 . S
C55 H58 0.961 . S
H56 C55 0.959 . S
H57 C55 0.960 . S
H58 C55 0.961 . S
O59 Co34 1.967 . S
O59 C67 1.258 . S
O60 Co35 1.941 . S
O60 C67 1.266 . S
H61 C63 0.959 . S
H62 C63 0.961 . S
C63 C53 1.510 . S
C63 H61 0.959 . S
C63 H62 0.961 . S
C63 H64 0.960 . S
H64 C63 0.960 . S
H65 N45 0.862 1_556 S
O66 Co34 1.920 1_565 S
O66 C39 1.289 . S
C67 O59 1.258 . S
C67 O60 1.266 . S
Co68 O71 1.970 . S
Co68 N85 1.989 . S
Co68 O93 1.967 . S
Co68 O100 1.920 1_655 S
Co69 O72 1.966 . S
Co69 N78 2.022 . S
Co69 N86 1.993 . S
Co69 O94 1.941 . S
C70 O71 1.258 . S
C70 O72 1.263 . S
O71 Co68 1.970 . S
O71 C70 1.258 . S
O72 Co69 1.966 . S
O72 C70 1.263 . S
C73 O74 1.235 . S
C73 O100 1.289 . S
O74 C73 1.235 . S
C75 C77 1.400 . S
C75 N78 1.351 . S
C75 C80 1.501 . S
C76 C77 1.387 . S
C76 N79 1.341 . S
C77 C75 1.400 . S
C77 C76 1.387 . S
N78 Co69 2.022 . S
N78 C75 1.351 . S
N78 N79 1.365 . S
N79 C76 1.341 . S
N79 N78 1.365 . S
N79 H99 0.862 1_554 S
C80 C75 1.501 . S
C80 H81 0.961 . S
C80 H82 0.961 . S
C80 H83 0.960 . S
H81 C80 0.961 . S
H82 C80 0.961 . S
H83 C80 0.960 . S
C84 N85 1.342 1_456 S
C84 C88 1.401 1_455 S
C84 C89 1.499 . S
N85 Co68 1.989 . S
N85 C84 1.342 1_654 S
N85 N86 1.388 . S
N86 Co69 1.993 . S
N86 N85 1.388 . S
N86 C87 1.346 1_554 S
C87 N86 1.346 1_556 S
C87 C88 1.396 . S
C87 C97 1.510 . S
C88 C84 1.401 1_655 S
C88 C87 1.396 . S
C89 C84 1.499 . S
C89 H90 0.959 . S
C89 H91 0.960 . S
C89 H92 0.961 . S
H90 C89 0.959 . S
H91 C89 0.960 . S
H92 C89 0.961 . S
O93 Co68 1.967 . S
O93 C101 1.258 . S
O94 Co69 1.941 . S
O94 C101 1.266 . S
H95 C97 0.959 . S
H96 C97 0.961 . S
C97 C87 1.510 . S
C97 H95 0.959 . S
C97 H96 0.961 . S
C97 H98 0.960 . S
H98 C97 0.960 . S
H99 N79 0.862 1_556 S
O100 Co68 1.920 1_455 S
O100 C73 1.289 . S
C101 O93 1.258 . S
C101 O94 1.266 . S
Co102 O105 1.970 . S
Co102 N119 1.989 . S
Co102 O127 1.967 . S
Co102 O134 1.920 1_565 S
Co103 O106 1.966 . S
Co103 N112 2.022 . S
Co103 N120 1.993 . S
Co103 O128 1.941 . S
C104 O105 1.258 . S
C104 O106 1.263 . S
O105 Co102 1.970 . S
O105 C104 1.258 . S
O106 Co103 1.966 . S
O106 C104 1.263 . S
C107 O108 1.235 . S
C107 O134 1.289 . S
O108 C107 1.235 . S
C109 C111 1.400 . S
C109 N112 1.351 . S
C109 C114 1.501 . S
C110 C111 1.387 . S
C110 N113 1.341 . S
C111 C109 1.400 . S
C111 C110 1.387 . S
N112 Co103 2.022 . S
N112 C109 1.351 . S
N112 N113 1.365 . S
N113 C110 1.341 . S
N113 N112 1.365 . S
N113 H133 0.862 1_554 S
C114 C109 1.501 . S
C114 H115 0.961 . S
C114 H116 0.961 . S
C114 H117 0.960 . S
H115 C114 0.961 . S
H116 C114 0.961 . S
H117 C114 0.960 . S
C118 N119 1.342 1_546 S
C118 C122 1.401 1_545 S
C118 C123 1.499 . S
N119 Co102 1.989 . S
N119 C118 1.342 1_564 S
N119 N120 1.388 . S
N120 Co103 1.993 . S
N120 N119 1.388 . S
N120 C121 1.346 1_554 S
C121 N120 1.346 1_556 S
C121 C122 1.396 . S
C121 C131 1.510 . S
C122 C118 1.401 1_565 S
C122 C121 1.396 . S
C123 C118 1.499 . S
C123 H124 0.959 . S
C123 H125 0.960 . S
C123 H126 0.961 . S
H124 C123 0.959 . S
H125 C123 0.960 . S
H126 C123 0.961 . S
O127 Co102 1.967 . S
O127 C135 1.258 . S
O128 Co103 1.941 . S
O128 C135 1.266 . S
H129 C131 0.959 . S
H130 C131 0.961 . S
C131 C121 1.510 . S
C131 H129 0.959 . S
C131 H130 0.961 . S
C131 H132 0.960 . S
H132 C131 0.960 . S
H133 N113 0.862 1_556 S
O134 Co102 1.920 1_545 S
O134 C107 1.289 . S
C135 O127 1.258 . S
C135 O128 1.266 . S
Co136 O139 1.970 . S
Co136 N153 1.989 . S
Co136 O161 1.967 . S
Co136 O168 1.920 1_455 S
Co137 O140 1.966 . S
Co137 N146 2.022 . S
Co137 N154 1.993 . S
Co137 O162 1.941 . S
C138 O139 1.258 . S
C138 O140 1.263 . S
O139 Co136 1.970 . S
O139 C138 1.258 . S
O140 Co137 1.966 . S
O140 C138 1.263 . S
C141 O142 1.235 . S
C141 O168 1.289 . S
O142 C141 1.235 . S
C143 C145 1.400 . S
C143 N146 1.351 . S
C143 C148 1.501 . S
C144 C145 1.387 . S
C144 N147 1.341 . S
C145 C143 1.400 . S
C145 C144 1.387 . S
N146 Co137 2.022 . S
N146 C143 1.351 . S
N146 N147 1.365 . S
N147 C144 1.341 . S
N147 N146 1.365 . S
N147 H167 0.862 . S
C148 C143 1.501 . S
C148 H149 0.961 . S
C148 H150 0.961 . S
C148 H151 0.960 . S
H149 C148 0.961 . S
H150 C148 0.961 . S
H151 C148 0.960 . S
C152 N153 1.342 1_655 S
C152 C156 1.401 1_655 S
C152 C157 1.499 . S
N153 Co136 1.989 . S
N153 C152 1.342 1_455 S
N153 N154 1.388 . S
N154 Co137 1.993 . S
N154 N153 1.388 . S
N154 C155 1.346 . S
C155 N154 1.346 . S
C155 C156 1.396 . S
C155 C165 1.510 . S
C156 C152 1.401 1_455 S
C156 C155 1.396 . S
C157 C152 1.499 . S
C157 H158 0.959 . S
C157 H159 0.960 . S
C157 H160 0.961 . S
H158 C157 0.959 . S
H159 C157 0.960 . S
H160 C157 0.961 . S
O161 Co136 1.967 . S
O161 C169 1.258 . S
O162 Co137 1.941 . S
O162 C169 1.266 . S
H163 C165 0.959 . S
H164 C165 0.961 . S
C165 C155 1.510 . S
C165 H163 0.959 . S
C165 H164 0.961 . S
C165 H166 0.960 . S
H166 C165 0.960 . S
H167 N147 0.862 . S
O168 Co136 1.920 1_655 S
O168 C141 1.289 . S
C169 O161 1.258 . S
C169 O162 1.266 . S
Co170 O173 1.970 . S
Co170 N187 1.989 . S
Co170 O195 1.967 . S
Co170 O202 1.920 1_545 S
Co171 O174 1.966 . S
Co171 N180 2.022 . S
Co171 N188 1.993 . S
Co171 O196 1.941 . S
C172 O173 1.258 . S
C172 O174 1.263 . S
O173 Co170 1.970 . S
O173 C172 1.258 . S
O174 Co171 1.966 . S
O174 C172 1.263 . S
C175 O176 1.235 . S
C175 O202 1.289 . S
O176 C175 1.235 . S
C177 C179 1.400 . S
C177 N180 1.351 . S
C177 C182 1.501 . S
C178 C179 1.387 . S
C178 N181 1.341 . S
C179 C177 1.400 . S
C179 C178 1.387 . S
N180 Co171 2.022 . S
N180 C177 1.351 . S
N180 N181 1.365 . S
N181 C178 1.341 . S
N181 N180 1.365 . S
N181 H201 0.862 . S
C182 C177 1.501 . S
C182 H183 0.961 . S
C182 H184 0.961 . S
C182 H185 0.960 . S
H183 C182 0.961 . S
H184 C182 0.961 . S
H185 C182 0.960 . S
C186 N187 1.342 1_565 S
C186 C190 1.401 1_565 S
C186 C191 1.499 . S
N187 Co170 1.989 . S
N187 C186 1.342 1_545 S
N187 N188 1.388 . S
N188 Co171 1.993 . S
N188 N187 1.388 . S
N188 C189 1.346 . S
C189 N188 1.346 . S
C189 C190 1.396 . S
C189 C199 1.510 . S
C190 C186 1.401 1_545 S
C190 C189 1.396 . S
C191 C186 1.499 . S
C191 H192 0.959 . S
C191 H193 0.960 . S
C191 H194 0.961 . S
H192 C191 0.959 . S
H193 C191 0.960 . S
H194 C191 0.961 . S
O195 Co170 1.967 . S
O195 C203 1.258 . S
O196 Co171 1.941 . S
O196 C203 1.266 . S
H197 C199 0.959 . S
H198 C199 0.961 . S
C199 C189 1.510 . S
C199 H197 0.959 . S
C199 H198 0.961 . S
C199 H200 0.960 . S
H200 C199 0.960 . S
H201 N181 0.862 . S
O202 Co170 1.920 1_565 S
O202 C175 1.289 . S
C203 O195 1.258 . S
C203 O196 1.266 . S
Co204 O207 1.970 . S
Co204 N221 1.989 . S
Co204 O229 1.967 . S
Co204 O236 1.920 1_655 S
Co205 O208 1.966 . S
Co205 N214 2.022 . S
Co205 N222 1.993 . S
Co205 O230 1.941 . S
C206 O207 1.258 . S
C206 O208 1.263 . S
O207 Co204 1.970 . S
O207 C206 1.258 . S
O208 Co205 1.966 . S
O208 C206 1.263 . S
C209 O210 1.235 . S
C209 O236 1.289 . S
O210 C209 1.235 . S
C211 C213 1.400 . S
C211 N214 1.351 . S
C211 C216 1.501 . S
C212 C213 1.387 . S
C212 N215 1.341 . S
C213 C211 1.400 . S
C213 C212 1.387 . S
N214 Co205 2.022 . S
N214 C211 1.351 . S
N214 N215 1.365 . S
N215 C212 1.341 . S
N215 N214 1.365 . S
N215 H235 0.862 . S
C216 C211 1.501 . S
C216 H217 0.961 . S
C216 H218 0.961 . S
C216 H219 0.960 . S
H217 C216 0.961 . S
H218 C216 0.961 . S
H219 C216 0.960 . S
C220 N221 1.342 1_455 S
C220 C224 1.401 1_455 S
C220 C225 1.499 . S
N221 Co204 1.989 . S
N221 C220 1.342 1_655 S
N221 N222 1.388 . S
N222 Co205 1.993 . S
N222 N221 1.388 . S
N222 C223 1.346 . S
C223 N222 1.346 . S
C223 C224 1.396 . S
C223 C233 1.510 . S
C224 C220 1.401 1_655 S
C224 C223 1.396 . S
C225 C220 1.499 . S
C225 H226 0.959 . S
C225 H227 0.960 . S
C225 H228 0.961 . S
H226 C225 0.959 . S
H227 C225 0.960 . S
H228 C225 0.961 . S
O229 Co204 1.967 . S
O229 C237 1.258 . S
O230 Co205 1.941 . S
O230 C237 1.266 . S
H231 C233 0.959 . S
H232 C233 0.961 . S
C233 C223 1.510 . S
C233 H231 0.959 . S
C233 H232 0.961 . S
C233 H234 0.960 . S
H234 C233 0.960 . S
H235 N215 0.862 . S
O236 Co204 1.920 1_455 S
O236 C209 1.289 . S
C237 O229 1.258 . S
C237 O230 1.266 . S
Co238 O241 1.970 . S
Co238 N255 1.989 . S
Co238 O263 1.967 . S
Co238 O270 1.920 1_565 S
Co239 O242 1.966 . S
Co239 N248 2.022 . S
Co239 N256 1.993 . S
Co239 O264 1.941 . S
C240 O241 1.258 . S
C240 O242 1.263 . S
O241 Co238 1.970 . S
O241 C240 1.258 . S
O242 Co239 1.966 . S
O242 C240 1.263 . S
C243 O244 1.235 . S
C243 O270 1.289 . S
O244 C243 1.235 . S
C245 C247 1.400 . S
C245 N248 1.351 . S
C245 C250 1.501 . S
C246 C247 1.387 . S
C246 N249 1.341 . S
C247 C245 1.400 . S
C247 C246 1.387 . S
N248 Co239 2.022 . S
N248 C245 1.351 . S
N248 N249 1.365 . S
N249 C246 1.341 . S
N249 N248 1.365 . S
N249 H269 0.862 . S
C250 C245 1.501 . S
C250 H251 0.961 . S
C250 H252 0.961 . S
C250 H253 0.960 . S
H251 C250 0.961 . S
H252 C250 0.961 . S
H253 C250 0.960 . S
C254 N255 1.342 1_545 S
C254 C258 1.401 1_545 S
C254 C259 1.499 . S
N255 Co238 1.989 . S
N255 C254 1.342 1_565 S
N255 N256 1.388 . S
N256 Co239 1.993 . S
N256 N255 1.388 . S
N256 C257 1.346 . S
C257 N256 1.346 . S
C257 C258 1.396 . S
C257 C267 1.510 . S
C258 C254 1.401 1_565 S
C258 C257 1.396 . S
C259 C254 1.499 . S
C259 H260 0.959 . S
C259 H261 0.960 . S
C259 H262 0.961 . S
H260 C259 0.959 . S
H261 C259 0.960 . S
H262 C259 0.961 . S
O263 Co238 1.967 . S
O263 C271 1.258 . S
O264 Co239 1.941 . S
O264 C271 1.266 . S
H265 C267 0.959 . S
H266 C267 0.961 . S
C267 C257 1.510 . S
C267 H265 0.959 . S
C267 H266 0.961 . S
C267 H268 0.960 . S
H268 C267 0.960 . S
H269 N249 0.862 . S
O270 Co238 1.920 1_545 S
O270 C243 1.289 . S
C271 O263 1.258 . S
C271 O264 1.266 . S
Co272 O275 1.970 . S
Co272 N289 1.989 . S
Co272 O297 1.967 . S
Co272 O304 1.920 . S
Co273 O276 1.966 . S
Co273 N282 2.022 . S
Co273 N290 1.993 . S
Co273 O298 1.941 . S
C274 O275 1.258 . S
C274 O276 1.263 . S
O275 Co272 1.970 . S
O275 C274 1.258 . S
O276 Co273 1.966 . S
O276 C274 1.263 . S
C277 O278 1.235 . S
C277 O304 1.289 . S
O278 C277 1.235 . S
C279 C281 1.400 . S
C279 N282 1.351 . S
C279 C284 1.501 . S
C280 C281 1.387 . S
C280 N283 1.341 . S
C281 C279 1.400 . S
C281 C280 1.387 . S
N282 Co273 2.022 . S
N282 C279 1.351 . S
N282 N283 1.365 . S
N283 C280 1.341 . S
N283 N282 1.365 . S
N283 H303 0.862 . S
C284 C279 1.501 . S
C284 H285 0.961 . S
C284 H286 0.961 . S
C284 H287 0.960 . S
H285 C284 0.961 . S
H286 C284 0.961 . S
H287 C284 0.960 . S
C288 N289 1.342 . S
C288 C292 1.401 . S
C288 C293 1.499 . S
N289 Co272 1.989 . S
N289 C288 1.342 . S
N289 N290 1.388 . S
N290 Co273 1.993 . S
N290 N289 1.388 . S
N290 C291 1.346 . S
C291 N290 1.346 . S
C291 C292 1.396 . S
C291 C301 1.510 . S
C292 C288 1.401 . S
C292 C291 1.396 . S
C293 C288 1.499 . S
C293 H294 0.959 . S
C293 H295 0.960 . S
C293 H296 0.961 . S
H294 C293 0.959 . S
H295 C293 0.960 . S
H296 C293 0.961 . S
O297 Co272 1.967 . S
O297 C305 1.258 . S
O298 Co273 1.941 . S
O298 C305 1.266 . S
H299 C301 0.959 . S
H300 C301 0.961 . S
C301 C291 1.510 . S
C301 H299 0.959 . S
C301 H300 0.961 . S
C301 H302 0.960 . S
H302 C301 0.960 . S
H303 N283 0.862 . S
O304 Co272 1.920 . S
O304 C277 1.289 . S
C305 O297 1.258 . S
C305 O298 1.266 . S
Co306 O309 1.970 . S
Co306 N323 1.989 . S
Co306 O331 1.967 . S
Co306 O338 1.920 . S
Co307 O310 1.966 . S
Co307 N316 2.022 . S
Co307 N324 1.993 . S
Co307 O332 1.941 . S
C308 O309 1.258 . S
C308 O310 1.263 . S
O309 Co306 1.970 . S
O309 C308 1.258 . S
O310 Co307 1.966 . S
O310 C308 1.263 . S
C311 O312 1.235 . S
C311 O338 1.289 . S
O312 C311 1.235 . S
C313 C315 1.400 . S
C313 N316 1.351 . S
C313 C318 1.501 . S
C314 C315 1.387 . S
C314 N317 1.341 . S
C315 C313 1.400 . S
C315 C314 1.387 . S
N316 Co307 2.022 . S
N316 C313 1.351 . S
N316 N317 1.365 . S
N317 C314 1.341 . S
N317 N316 1.365 . S
N317 H337 0.862 . S
C318 C313 1.501 . S
C318 H319 0.961 . S
C318 H320 0.961 . S
C318 H321 0.960 . S
H319 C318 0.961 . S
H320 C318 0.961 . S
H321 C318 0.960 . S
C322 N323 1.342 . S
C322 C326 1.401 . S
C322 C327 1.499 . S
N323 Co306 1.989 . S
N323 C322 1.342 . S
N323 N324 1.388 . S
N324 Co307 1.993 . S
N324 N323 1.388 . S
N324 C325 1.346 . S
C325 N324 1.346 . S
C325 C326 1.396 . S
C325 C335 1.510 . S
C326 C322 1.401 . S
C326 C325 1.396 . S
C327 C322 1.499 . S
C327 H328 0.959 . S
C327 H329 0.960 . S
C327 H330 0.961 . S
H328 C327 0.959 . S
H329 C327 0.960 . S
H330 C327 0.961 . S
O331 Co306 1.967 . S
O331 C339 1.258 . S
O332 Co307 1.941 . S
O332 C339 1.266 . S
H333 C335 0.959 . S
H334 C335 0.961 . S
C335 C325 1.510 . S
C335 H333 0.959 . S
C335 H334 0.961 . S
C335 H336 0.960 . S
H336 C335 0.960 . S
H337 N317 0.862 . S
O338 Co306 1.920 . S
O338 C311 1.289 . S
C339 O331 1.258 . S
C339 O332 1.266 . S
Co340 O343 1.970 . S
Co340 N357 1.989 . S
Co340 O365 1.967 . S
Co340 O372 1.920 . S
Co341 O344 1.966 . S
Co341 N350 2.022 . S
Co341 N358 1.993 . S
Co341 O366 1.941 . S
C342 O343 1.258 . S
C342 O344 1.263 . S
O343 Co340 1.970 . S
O343 C342 1.258 . S
O344 Co341 1.966 . S
O344 C342 1.263 . S
C345 O346 1.235 . S
C345 O372 1.289 . S
O346 C345 1.235 . S
C347 C349 1.400 . S
C347 N350 1.351 . S
C347 C352 1.501 . S
C348 C349 1.387 . S
C348 N351 1.341 . S
C349 C347 1.400 . S
C349 C348 1.387 . S
N350 Co341 2.022 . S
N350 C347 1.351 . S
N350 N351 1.365 . S
N351 C348 1.341 . S
N351 N350 1.365 . S
N351 H371 0.862 . S
C352 C347 1.501 . S
C352 H353 0.961 . S
C352 H354 0.961 . S
C352 H355 0.960 . S
H353 C352 0.961 . S
H354 C352 0.961 . S
H355 C352 0.960 . S
C356 N357 1.342 . S
C356 C360 1.401 . S
C356 C361 1.499 . S
N357 Co340 1.989 . S
N357 C356 1.342 . S
N357 N358 1.388 . S
N358 Co341 1.993 . S
N358 N357 1.388 . S
N358 C359 1.346 . S
C359 N358 1.346 . S
C359 C360 1.396 . S
C359 C369 1.510 . S
C360 C356 1.401 . S
C360 C359 1.396 . S
C361 C356 1.499 . S
C361 H362 0.959 . S
C361 H363 0.960 . S
C361 H364 0.961 . S
H362 C361 0.959 . S
H363 C361 0.960 . S
H364 C361 0.961 . S
O365 Co340 1.967 . S
O365 C373 1.258 . S
O366 Co341 1.941 . S
O366 C373 1.266 . S
H367 C369 0.959 . S
H368 C369 0.961 . S
C369 C359 1.510 . S
C369 H367 0.959 . S
C369 H368 0.961 . S
C369 H370 0.960 . S
H370 C369 0.960 . S
H371 N351 0.862 . S
O372 Co340 1.920 . S
O372 C345 1.289 . S
C373 O365 1.258 . S
C373 O366 1.266 . S
Co374 O377 1.970 . S
Co374 N391 1.989 . S
Co374 O399 1.967 . S
Co374 O406 1.920 . S
Co375 O378 1.966 . S
Co375 N384 2.022 . S
Co375 N392 1.993 . S
Co375 O400 1.941 . S
C376 O377 1.258 . S
C376 O378 1.263 . S
O377 Co374 1.970 . S
O377 C376 1.258 . S
O378 Co375 1.966 . S
O378 C376 1.263 . S
C379 O380 1.235 . S
C379 O406 1.289 . S
O380 C379 1.235 . S
C381 C383 1.400 . S
C381 N384 1.351 . S
C381 C386 1.501 . S
C382 C383 1.387 . S
C382 N385 1.341 . S
C383 C381 1.400 . S
C383 C382 1.387 . S
N384 Co375 2.022 . S
N384 C381 1.351 . S
N384 N385 1.365 . S
N385 C382 1.341 . S
N385 N384 1.365 . S
N385 H405 0.862 . S
C386 C381 1.501 . S
C386 H387 0.961 . S
C386 H388 0.961 . S
C386 H389 0.960 . S
H387 C386 0.961 . S
H388 C386 0.961 . S
H389 C386 0.960 . S
C390 N391 1.342 . S
C390 C394 1.401 . S
C390 C395 1.499 . S
N391 Co374 1.989 . S
N391 C390 1.342 . S
N391 N392 1.388 . S
N392 Co375 1.993 . S
N392 N391 1.388 . S
N392 C393 1.346 . S
C393 N392 1.346 . S
C393 C394 1.396 . S
C393 C403 1.510 . S
C394 C390 1.401 . S
C394 C393 1.396 . S
C395 C390 1.499 . S
C395 H396 0.959 . S
C395 H397 0.960 . S
C395 H398 0.961 . S
H396 C395 0.959 . S
H397 C395 0.960 . S
H398 C395 0.961 . S
O399 Co374 1.967 . S
O399 C407 1.258 . S
O400 Co375 1.941 . S
O400 C407 1.266 . S
H401 C403 0.959 . S
H402 C403 0.961 . S
C403 C393 1.510 . S
C403 H401 0.959 . S
C403 H402 0.961 . S
C403 H404 0.960 . S
H404 C403 0.960 . S
H405 N385 0.862 . S
O406 Co374 1.920 . S
O406 C379 1.289 . S
C407 O399 1.258 . S
C407 O400 1.266 . S
Co408 O411 1.970 1_554 S
Co408 N425 1.989 . S
Co408 O433 1.967 1_554 S
Co408 O440 1.920 . S
Co409 O412 1.966 1_554 S
Co409 N418 2.022 . S
Co409 N426 1.993 . S
Co409 O434 1.941 . S
C410 O411 1.258 . S
C410 O412 1.263 . S
O411 Co408 1.970 1_556 S
O411 C410 1.258 . S
O412 Co409 1.966 1_556 S
O412 C410 1.263 . S
C413 O414 1.235 . S
C413 O440 1.289 . S
O414 C413 1.235 . S
C415 C417 1.400 1_556 S
C415 N418 1.351 1_556 S
C415 C420 1.501 . S
C416 C417 1.387 . S
C416 N419 1.341 . S
C417 C415 1.400 1_554 S
C417 C416 1.387 . S
N418 Co409 2.022 . S
N418 C415 1.351 1_554 S
N418 N419 1.365 . S
N419 C416 1.341 . S
N419 N418 1.365 . S
N419 H439 0.862 . S
C420 C415 1.501 . S
C420 H421 0.961 . S
C420 H422 0.961 . S
C420 H423 0.960 . S
H421 C420 0.961 . S
H422 C420 0.961 . S
H423 C420 0.960 . S
C424 N425 1.342 . S
C424 C428 1.401 . S
C424 C429 1.499 . S
N425 Co408 1.989 . S
N425 C424 1.342 . S
N425 N426 1.388 . S
N426 Co409 1.993 . S
N426 N425 1.388 . S
N426 C427 1.346 . S
C427 N426 1.346 . S
C427 C428 1.396 . S
C427 C437 1.510 . S
C428 C424 1.401 . S
C428 C427 1.396 . S
C429 C424 1.499 . S
C429 H430 0.959 . S
C429 H431 0.960 . S
C429 H432 0.961 . S
H430 C429 0.959 . S
H431 C429 0.960 . S
H432 C429 0.961 . S
O433 Co408 1.967 1_556 S
O433 C441 1.258 . S
O434 Co409 1.941 . S
O434 C441 1.266 1_554 S
H435 C437 0.959 . S
H436 C437 0.961 . S
C437 C427 1.510 . S
C437 H435 0.959 . S
C437 H436 0.961 . S
C437 H438 0.960 . S
H438 C437 0.960 . S
H439 N419 0.862 . S
O440 Co408 1.920 . S
O440 C413 1.289 . S
C441 O433 1.258 . S
C441 O434 1.266 1_556 S
Co442 O445 1.970 1_554 S
Co442 N459 1.989 . S
Co442 O467 1.967 1_554 S
Co442 O474 1.920 . S
Co443 O446 1.966 1_554 S
Co443 N452 2.022 . S
Co443 N460 1.993 . S
Co443 O468 1.941 . S
C444 O445 1.258 . S
C444 O446 1.263 . S
O445 Co442 1.970 1_556 S
O445 C444 1.258 . S
O446 Co443 1.966 1_556 S
O446 C444 1.263 . S
C447 O448 1.235 . S
C447 O474 1.289 . S
O448 C447 1.235 . S
C449 C451 1.400 1_556 S
C449 N452 1.351 1_556 S
C449 C454 1.501 . S
C450 C451 1.387 . S
C450 N453 1.341 . S
C451 C449 1.400 1_554 S
C451 C450 1.387 . S
N452 Co443 2.022 . S
N452 C449 1.351 1_554 S
N452 N453 1.365 . S
N453 C450 1.341 . S
N453 N452 1.365 . S
N453 H473 0.862 . S
C454 C449 1.501 . S
C454 H455 0.961 . S
C454 H456 0.961 . S
C454 H457 0.960 . S
H455 C454 0.961 . S
H456 C454 0.961 . S
H457 C454 0.960 . S
C458 N459 1.342 . S
C458 C462 1.401 . S
C458 C463 1.499 . S
N459 Co442 1.989 . S
N459 C458 1.342 . S
N459 N460 1.388 . S
N460 Co443 1.993 . S
N460 N459 1.388 . S
N460 C461 1.346 . S
C461 N460 1.346 . S
C461 C462 1.396 . S
C461 C471 1.510 . S
C462 C458 1.401 . S
C462 C461 1.396 . S
C463 C458 1.499 . S
C463 H464 0.959 . S
C463 H465 0.960 . S
C463 H466 0.961 . S
H464 C463 0.959 . S
H465 C463 0.960 . S
H466 C463 0.961 . S
O467 Co442 1.967 1_556 S
O467 C475 1.258 . S
O468 Co443 1.941 . S
O468 C475 1.266 1_554 S
H469 C471 0.959 . S
H470 C471 0.961 . S
C471 C461 1.510 . S
C471 H469 0.959 . S
C471 H470 0.961 . S
C471 H472 0.960 . S
H472 C471 0.960 . S
H473 N453 0.862 . S
O474 Co442 1.920 . S
O474 C447 1.289 . S
C475 O467 1.258 . S
C475 O468 1.266 1_556 S
Co476 O479 1.970 1_554 S
Co476 N493 1.989 . S
Co476 O501 1.967 1_554 S
Co476 O508 1.920 . S
Co477 O480 1.966 1_554 S
Co477 N486 2.022 . S
Co477 N494 1.993 . S
Co477 O502 1.941 . S
C478 O479 1.258 . S
C478 O480 1.263 . S
O479 Co476 1.970 1_556 S
O479 C478 1.258 . S
O480 Co477 1.966 1_556 S
O480 C478 1.263 . S
C481 O482 1.235 . S
C481 O508 1.289 . S
O482 C481 1.235 . S
C483 C485 1.400 1_556 S
C483 N486 1.351 1_556 S
C483 C488 1.501 . S
C484 C485 1.387 . S
C484 N487 1.341 . S
C485 C483 1.400 1_554 S
C485 C484 1.387 . S
N486 Co477 2.022 . S
N486 C483 1.351 1_554 S
N486 N487 1.365 . S
N487 C484 1.341 . S
N487 N486 1.365 . S
N487 H507 0.862 . S
C488 C483 1.501 . S
C488 H489 0.961 . S
C488 H490 0.961 . S
C488 H491 0.960 . S
H489 C488 0.961 . S
H490 C488 0.961 . S
H491 C488 0.960 . S
C492 N493 1.342 . S
C492 C496 1.401 . S
C492 C497 1.499 . S
N493 Co476 1.989 . S
N493 C492 1.342 . S
N493 N494 1.388 . S
N494 Co477 1.993 . S
N494 N493 1.388 . S
N494 C495 1.346 . S
C495 N494 1.346 . S
C495 C496 1.396 . S
C495 C505 1.510 . S
C496 C492 1.401 . S
C496 C495 1.396 . S
C497 C492 1.499 . S
C497 H498 0.959 . S
C497 H499 0.960 . S
C497 H500 0.961 . S
H498 C497 0.959 . S
H499 C497 0.960 . S
H500 C497 0.961 . S
O501 Co476 1.967 1_556 S
O501 C509 1.258 . S
O502 Co477 1.941 . S
O502 C509 1.266 1_554 S
H503 C505 0.959 . S
H504 C505 0.961 . S
C505 C495 1.510 . S
C505 H503 0.959 . S
C505 H504 0.961 . S
C505 H506 0.960 . S
H506 C505 0.960 . S
H507 N487 0.862 . S
O508 Co476 1.920 . S
O508 C481 1.289 . S
C509 O501 1.258 . S
C509 O502 1.266 1_556 S
Co510 O513 1.970 1_554 S
Co510 N527 1.989 . S
Co510 O535 1.967 1_554 S
Co510 O542 1.920 . S
Co511 O514 1.966 1_554 S
Co511 N520 2.022 . S
Co511 N528 1.993 . S
Co511 O536 1.941 . S
C512 O513 1.258 . S
C512 O514 1.263 . S
O513 Co510 1.970 1_556 S
O513 C512 1.258 . S
O514 Co511 1.966 1_556 S
O514 C512 1.263 . S
C515 O516 1.235 . S
C515 O542 1.289 . S
O516 C515 1.235 . S
C517 C519 1.400 1_556 S
C517 N520 1.351 1_556 S
C517 C522 1.501 . S
C518 C519 1.387 . S
C518 N521 1.341 . S
C519 C517 1.400 1_554 S
C519 C518 1.387 . S
N520 Co511 2.022 . S
N520 C517 1.351 1_554 S
N520 N521 1.365 . S
N521 C518 1.341 . S
N521 N520 1.365 . S
N521 H541 0.862 . S
C522 C517 1.501 . S
C522 H523 0.961 . S
C522 H524 0.961 . S
C522 H525 0.960 . S
H523 C522 0.961 . S
H524 C522 0.961 . S
H525 C522 0.960 . S
C526 N527 1.342 . S
C526 C530 1.401 . S
C526 C531 1.499 . S
N527 Co510 1.989 . S
N527 C526 1.342 . S
N527 N528 1.388 . S
N528 Co511 1.993 . S
N528 N527 1.388 . S
N528 C529 1.346 . S
C529 N528 1.346 . S
C529 C530 1.396 . S
C529 C539 1.510 . S
C530 C526 1.401 . S
C530 C529 1.396 . S
C531 C526 1.499 . S
C531 H532 0.959 . S
C531 H533 0.960 . S
C531 H534 0.961 . S
H532 C531 0.959 . S
H533 C531 0.960 . S
H534 C531 0.961 . S
O535 Co510 1.967 1_556 S
O535 C543 1.258 . S
O536 Co511 1.941 . S
O536 C543 1.266 1_554 S
H537 C539 0.959 . S
H538 C539 0.961 . S
C539 C529 1.510 . S
C539 H537 0.959 . S
C539 H538 0.961 . S
C539 H540 0.960 . S
H540 C539 0.960 . S
H541 N521 0.862 . S
O542 Co510 1.920 . S
O542 C515 1.289 . S
C543 O535 1.258 . S
C543 O536 1.266 1_556 S
H544 C552 0.950 . S
H545 C557 0.950 . S
H546 C554 0.950 . S
H547 C556 0.950 . S
H548 C558 0.950 . S
H549 C560 0.950 . S
H550 C562 0.950 . S
H551 C563 0.950 . S
C552 H544 0.950 . S
C552 C553 1.386 . S
C552 C554 1.391 . S
C553 C552 1.386 . S
C553 C557 1.393 . S
C554 H546 0.950 . S
C554 C552 1.391 . S
C554 C555 1.400 . S
C555 C554 1.400 . S
C555 C556 1.398 . S
C555 C561 1.491 . S
C556 H547 0.950 . S
C556 C555 1.398 . S
C556 C557 1.391 . S
C557 H545 0.950 . S
C557 C553 1.393 . S
C557 C556 1.391 . S
C558 H548 0.950 . S
C558 C559 1.386 . S
C558 C560 1.391 . S
C559 C558 1.386 . S
C559 C563 1.393 . S
C560 H549 0.950 . S
C560 C558 1.391 . S
C560 C561 1.400 . S
C561 C555 1.491 . S
C561 C560 1.400 . S
C561 C562 1.398 . S
C562 H550 0.950 . S
C562 C561 1.398 . S
C562 C563 1.391 . S
C563 H551 0.950 . S
C563 C559 1.393 . S
C563 C562 1.391 . S
H564 C572 0.950 1_556 S
H565 C577 0.950 . S
H566 C574 0.950 1_556 S
H567 C576 0.950 . S
H568 C578 0.950 . S
H569 C580 0.950 . S
H570 C582 0.950 . S
H571 C583 0.950 . S
C572 H564 0.950 1_554 S
C572 C573 1.386 . S
C572 C574 1.391 . S
C573 C572 1.386 . S
C573 C577 1.393 . S
C574 H566 0.950 1_554 S
C574 C572 1.391 . S
C574 C575 1.400 . S
C575 C574 1.400 . S
C575 C576 1.398 . S
C575 C581 1.491 . S
C576 H567 0.950 . S
C576 C575 1.398 . S
C576 C577 1.391 . S
C577 H565 0.950 . S
C577 C573 1.393 . S
C577 C576 1.391 . S
C578 H568 0.950 . S
C578 C579 1.386 . S
C578 C580 1.391 . S
C579 C578 1.386 . S
C579 C583 1.393 1_554 S
C580 H569 0.950 . S
C580 C578 1.391 . S
C580 C581 1.400 . S
C581 C575 1.491 . S
C581 C580 1.400 . S
C581 C582 1.398 1_554 S
C582 H570 0.950 . S
C582 C581 1.398 1_556 S
C582 C583 1.391 . S
C583 H571 0.950 . S
C583 C579 1.393 1_556 S
C583 C582 1.391 . S
H584 C592 0.950 . S
H585 C597 0.950 . S
H586 C594 0.950 . S
H587 C596 0.950 . S
H588 C598 0.950 . S
H589 C600 0.950 . S
H590 C602 0.950 1_556 S
H591 C603 0.950 1_556 S
C592 H584 0.950 . S
C592 C593 1.386 1_556 S
C592 C594 1.391 . S
C593 C592 1.386 1_554 S
C593 C597 1.393 . S
C594 H586 0.950 . S
C594 C592 1.391 . S
C594 C595 1.400 1_556 S
C595 C594 1.400 1_554 S
C595 C596 1.398 . S
C595 C601 1.491 . S
C596 H587 0.950 . S
C596 C595 1.398 . S
C596 C597 1.391 . S
C597 H585 0.950 . S
C597 C593 1.393 . S
C597 C596 1.391 . S
C598 H588 0.950 . S
C598 C599 1.386 . S
C598 C600 1.391 . S
C599 C598 1.386 . S
C599 C603 1.393 . S
C600 H589 0.950 . S
C600 C598 1.391 . S
C600 C601 1.400 . S
C601 C595 1.491 . S
C601 C600 1.400 . S
C601 C602 1.398 . S
C602 H590 0.950 1_554 S
C602 C601 1.398 . S
C602 C603 1.391 . S
C603 H591 0.950 1_554 S
C603 C599 1.393 . S
C603 C602 1.391 . S
H604 C612 0.950 . S
H605 C617 0.950 . S
H606 C614 0.950 . S
H607 C616 0.950 . S
H608 C618 0.950 1_556 S
H609 C620 0.950 . S
H610 C622 0.950 . S
H611 C623 0.950 . S
C612 H604 0.950 . S
C612 C613 1.386 . S
C612 C614 1.391 . S
C613 C612 1.386 . S
C613 C617 1.393 . S
C614 H606 0.950 . S
C614 C612 1.391 . S
C614 C615 1.400 . S
C615 C614 1.400 . S
C615 C616 1.398 . S
C615 C621 1.491 . S
C616 H607 0.950 . S
C616 C615 1.398 . S
C616 C617 1.391 . S
C617 H605 0.950 . S
C617 C613 1.393 . S
C617 C616 1.391 . S
C618 H608 0.950 1_554 S
C618 C619 1.386 . S
C618 C620 1.391 . S
C619 C618 1.386 . S
C619 C623 1.393 . S
C620 H609 0.950 . S
C620 C618 1.391 . S
C620 C621 1.400 . S
C621 C615 1.491 . S
C621 C620 1.400 . S
C621 C622 1.398 . S
C622 H610 0.950 . S
C622 C621 1.398 . S
C622 C623 1.391 . S
C623 H611 0.950 . S
C623 C619 1.393 . S
C623 C622 1.391 . S
H624 C632 0.950 . S
H625 C637 0.950 . S
H626 C634 0.950 . S
H627 C636 0.950 . S
H628 C638 0.950 . S
H629 C640 0.950 . S
H630 C642 0.950 . S
H631 C643 0.950 . S
C632 H624 0.950 . S
C632 C633 1.386 . S
C632 C634 1.391 . S
C633 C632 1.386 . S
C633 C637 1.393 . S
C634 H626 0.950 . S
C634 C632 1.391 . S
C634 C635 1.400 . S
C635 C634 1.400 . S
C635 C636 1.398 . S
C635 C641 1.491 . S
C636 H627 0.950 . S
C636 C635 1.398 . S
C636 C637 1.391 . S
C637 H625 0.950 . S
C637 C633 1.393 . S
C637 C636 1.391 . S
C638 H628 0.950 . S
C638 C639 1.386 . S
C638 C640 1.391 . S
C639 C638 1.386 . S
C639 C643 1.393 . S
C640 H629 0.950 . S
C640 C638 1.391 . S
C640 C641 1.400 . S
C641 C635 1.491 . S
C641 C640 1.400 . S
C641 C642 1.398 . S
C642 H630 0.950 . S
C642 C641 1.398 . S
C642 C643 1.391 . S
C643 H631 0.950 . S
C643 C639 1.393 . S
C643 C642 1.391 . S
H644 C652 0.950 . S
H645 C657 0.950 . S
H646 C654 0.950 . S
H647 C656 0.950 . S
H648 C658 0.950 . S
H649 C660 0.950 . S
H650 C662 0.950 . S
H651 C663 0.950 . S
C652 H644 0.950 . S
C652 C653 1.386 . S
C652 C654 1.391 . S
C653 C652 1.386 . S
C653 C657 1.393 . S
C654 H646 0.950 . S
C654 C652 1.391 . S
C654 C655 1.400 . S
C655 C654 1.400 . S
C655 C656 1.398 . S
C655 C661 1.491 . S
C656 H647 0.950 . S
C656 C655 1.398 . S
C656 C657 1.391 . S
C657 H645 0.950 . S
C657 C653 1.393 . S
C657 C656 1.391 . S
C658 H648 0.950 . S
C658 C659 1.386 . S
C658 C660 1.391 . S
C659 C658 1.386 . S
C659 C663 1.393 . S
C660 H649 0.950 . S
C660 C658 1.391 . S
C660 C661 1.400 . S
C661 C655 1.491 . S
C661 C660 1.400 . S
C661 C662 1.398 . S
C662 H650 0.950 . S
C662 C661 1.398 . S
C662 C663 1.391 . S
C663 H651 0.950 . S
C663 C659 1.393 . S
C663 C662 1.391 . S
H664 C672 0.950 . S
H665 C677 0.950 . S
H666 C674 0.950 . S
H667 C676 0.950 . S
H668 C678 0.950 . S
H669 C680 0.950 . S
H670 C682 0.950 . S
H671 C683 0.950 . S
C672 H664 0.950 . S
C672 C673 1.386 . S
C672 C674 1.391 . S
C673 C672 1.386 . S
C673 C677 1.393 . S
C674 H666 0.950 . S
C674 C672 1.391 . S
C674 C675 1.400 . S
C675 C674 1.400 . S
C675 C676 1.398 . S
C675 C681 1.491 . S
C676 H667 0.950 . S
C676 C675 1.398 . S
C676 C677 1.391 . S
C677 H665 0.950 . S
C677 C673 1.393 . S
C677 C676 1.391 . S
C678 H668 0.950 . S
C678 C679 1.386 . S
C678 C680 1.391 . S
C679 C678 1.386 . S
C679 C683 1.393 . S
C680 H669 0.950 . S
C680 C678 1.391 . S
C680 C681 1.400 . S
C681 C675 1.491 . S
C681 C680 1.400 . S
C681 C682 1.398 . S
C682 H670 0.950 . S
C682 C681 1.398 . S
C682 C683 1.391 . S
C683 H671 0.950 . S
C683 C679 1.393 . S
C683 C682 1.391 . S
H684 C692 0.950 . S
H685 C697 0.950 . S
H686 C694 0.950 . S
H687 C696 0.950 . S
H688 C698 0.950 . S
H689 C700 0.950 . S
H690 C702 0.950 . S
H691 C703 0.950 . S
C692 H684 0.950 . S
C692 C693 1.386 . S
C692 C694 1.391 . S
C693 C692 1.386 . S
C693 C697 1.393 . S
C694 H686 0.950 . S
C694 C692 1.391 . S
C694 C695 1.400 . S
C695 C694 1.400 . S
C695 C696 1.398 . S
C695 C701 1.491 . S
C696 H687 0.950 . S
C696 C695 1.398 . S
C696 C697 1.391 . S
C697 H685 0.950 . S
C697 C693 1.393 . S
C697 C696 1.391 . S
C698 H688 0.950 . S
C698 C699 1.386 . S
C698 C700 1.391 . S
C699 C698 1.386 . S
C699 C703 1.393 . S
C700 H689 0.950 . S
C700 C698 1.391 . S
C700 C701 1.400 . S
C701 C695 1.491 . S
C701 C700 1.400 . S
C701 C702 1.398 . S
C702 H690 0.950 . S
C702 C701 1.398 . S
C702 C703 1.391 . S
C703 H691 0.950 . S
C703 C699 1.393 . S
C703 C702 1.391 . S
H704 C712 0.950 . S
H705 C717 0.950 . S
H706 C714 0.950 . S
H707 C716 0.950 . S
H708 C718 0.950 . S
H709 C720 0.950 . S
H710 C722 0.950 . S
H711 C723 0.950 . S
C712 H704 0.950 . S
C712 C713 1.386 . S
C712 C714 1.391 . S
C713 C712 1.386 . S
C713 C717 1.393 . S
C714 H706 0.950 . S
C714 C712 1.391 . S
C714 C715 1.400 . S
C715 C714 1.400 . S
C715 C716 1.398 . S
C715 C721 1.491 . S
C716 H707 0.950 . S
C716 C715 1.398 . S
C716 C717 1.391 . S
C717 H705 0.950 . S
C717 C713 1.393 . S
C717 C716 1.391 . S
C718 H708 0.950 . S
C718 C719 1.386 . S
C718 C720 1.391 . S
C719 C718 1.386 . S
C719 C723 1.393 . S
C720 H709 0.950 . S
C720 C718 1.391 . S
C720 C721 1.400 . S
C721 C715 1.491 . S
C721 C720 1.400 . S
C721 C722 1.398 . S
C722 H710 0.950 . S
C722 C721 1.398 . S
C722 C723 1.391 . S
C723 H711 0.950 . S
C723 C719 1.393 . S
C723 C722 1.391 . S
H724 C732 0.950 . S
H725 C737 0.950 . S
H726 C734 0.950 . S
H727 C736 0.950 . S
H728 C738 0.950 . S
H729 C740 0.950 . S
H730 C742 0.950 . S
H731 C743 0.950 . S
C732 H724 0.950 . S
C732 C733 1.386 . S
C732 C734 1.391 . S
C733 C732 1.386 . S
C733 C737 1.393 . S
C734 H726 0.950 . S
C734 C732 1.391 . S
C734 C735 1.400 . S
C735 C734 1.400 . S
C735 C736 1.398 . S
C735 C741 1.491 . S
C736 H727 0.950 . S
C736 C735 1.398 . S
C736 C737 1.391 . S
C737 H725 0.950 . S
C737 C733 1.393 . S
C737 C736 1.391 . S
C738 H728 0.950 . S
C738 C739 1.386 . S
C738 C740 1.391 . S
C739 C738 1.386 . S
C739 C743 1.393 . S
C740 H729 0.950 . S
C740 C738 1.391 . S
C740 C741 1.400 . S
C741 C735 1.491 . S
C741 C740 1.400 . S
C741 C742 1.398 . S
C742 H730 0.950 . S
C742 C741 1.398 . S
C742 C743 1.391 . S
C743 H731 0.950 . S
C743 C739 1.393 . S
C743 C742 1.391 . S
H744 C752 0.950 . S
H745 C757 0.950 . S
H746 C754 0.950 . S
H747 C756 0.950 . S
H748 C758 0.950 . S
H749 C760 0.950 . S
H750 C762 0.950 . S
H751 C763 0.950 . S
C752 H744 0.950 . S
C752 C753 1.386 . S
C752 C754 1.391 . S
C753 C752 1.386 . S
C753 C757 1.393 . S
C754 H746 0.950 . S
C754 C752 1.391 . S
C754 C755 1.400 . S
C755 C754 1.400 . S
C755 C756 1.398 . S
C755 C761 1.491 . S
C756 H747 0.950 . S
C756 C755 1.398 . S
C756 C757 1.391 . S
C757 H745 0.950 . S
C757 C753 1.393 . S
C757 C756 1.391 . S
C758 H748 0.950 . S
C758 C759 1.386 . S
C758 C760 1.391 . S
C759 C758 1.386 . S
C759 C763 1.393 . S
C760 H749 0.950 . S
C760 C758 1.391 . S
C760 C761 1.400 . S
C761 C755 1.491 . S
C761 C760 1.400 . S
C761 C762 1.398 . S
C762 H750 0.950 . S
C762 C761 1.398 . S
C762 C763 1.391 . S
C763 H751 0.950 . S
C763 C759 1.393 . S
C763 C762 1.391 . S
H764 C772 0.950 . S
H765 C777 0.950 . S
H766 C774 0.950 . S
H767 C776 0.950 . S
H768 C778 0.950 . S
H769 C780 0.950 . S
H770 C782 0.950 . S
H771 C783 0.950 . S
C772 H764 0.950 . S
C772 C773 1.386 . S
C772 C774 1.391 . S
C773 C772 1.386 . S
C773 C777 1.393 . S
C774 H766 0.950 . S
C774 C772 1.391 . S
C774 C775 1.400 . S
C775 C774 1.400 . S
C775 C776 1.398 . S
C775 C781 1.491 . S
C776 H767 0.950 . S
C776 C775 1.398 . S
C776 C777 1.391 . S
C777 H765 0.950 . S
C777 C773 1.393 . S
C777 C776 1.391 . S
C778 H768 0.950 . S
C778 C779 1.386 . S
C778 C780 1.391 . S
C779 C778 1.386 . S
C779 C783 1.393 . S
C780 H769 0.950 . S
C780 C778 1.391 . S
C780 C781 1.400 . S
C781 C775 1.491 . S
C781 C780 1.400 . S
C781 C782 1.398 . S
C782 H770 0.950 . S
C782 C781 1.398 . S
C782 C783 1.391 . S
C783 H771 0.950 . S
C783 C779 1.393 . S
C783 C782 1.391 . S
H784 C792 0.950 . S
H785 C797 0.950 . S
H786 C794 0.950 . S
H787 C796 0.950 . S
H788 C798 0.950 . S
H789 C800 0.950 . S
H790 C802 0.950 . S
H791 C803 0.950 . S
C792 H784 0.950 . S
C792 C793 1.386 . S
C792 C794 1.391 . S
C793 C792 1.386 . S
C793 C797 1.393 . S
C794 H786 0.950 . S
C794 C792 1.391 . S
C794 C795 1.400 . S
C795 C794 1.400 . S
C795 C796 1.398 . S
C795 C801 1.491 . S
C796 H787 0.950 . S
C796 C795 1.398 . S
C796 C797 1.391 . S
C797 H785 0.950 . S
C797 C793 1.393 . S
C797 C796 1.391 . S
C798 H788 0.950 . S
C798 C799 1.386 . S
C798 C800 1.391 . S
C799 C798 1.386 . S
C799 C803 1.393 . S
C800 H789 0.950 . S
C800 C798 1.391 . S
C800 C801 1.400 . S
C801 C795 1.491 . S
C801 C800 1.400 . S
C801 C802 1.398 . S
C802 H790 0.950 . S
C802 C801 1.398 . S
C802 C803 1.391 . S
C803 H791 0.950 . S
C803 C799 1.393 . S
C803 C802 1.391 . S
H804 C812 0.950 . S
H805 C817 0.950 . S
H806 C814 0.950 . S
H807 C816 0.950 . S
H808 C818 0.950 . S
H809 C820 0.950 . S
H810 C822 0.950 . S
H811 C823 0.950 . S
C812 H804 0.950 . S
C812 C813 1.386 . S
C812 C814 1.391 . S
C813 C812 1.386 . S
C813 C817 1.393 . S
C814 H806 0.950 . S
C814 C812 1.391 . S
C814 C815 1.400 . S
C815 C814 1.400 . S
C815 C816 1.398 . S
C815 C821 1.491 . S
C816 H807 0.950 . S
C816 C815 1.398 . S
C816 C817 1.391 . S
C817 H805 0.950 . S
C817 C813 1.393 . S
C817 C816 1.391 . S
C818 H808 0.950 . S
C818 C819 1.386 . S
C818 C820 1.391 . S
C819 C818 1.386 . S
C819 C823 1.393 . S
C820 H809 0.950 . S
C820 C818 1.391 . S
C820 C821 1.400 . S
C821 C815 1.491 . S
C821 C820 1.400 . S
C821 C822 1.398 . S
C822 H810 0.950 . S
C822 C821 1.398 . S
C822 C823 1.391 . S
C823 H811 0.950 . S
C823 C819 1.393 . S
C823 C822 1.391 . S
H824 C832 0.950 . S
H825 C837 0.950 . S
H826 C834 0.950 . S
H827 C836 0.950 . S
H828 C838 0.950 . S
H829 C840 0.950 . S
H830 C842 0.950 . S
H831 C843 0.950 . S
C832 H824 0.950 . S
C832 C833 1.386 . S
C832 C834 1.391 . S
C833 C832 1.386 . S
C833 C837 1.393 . S
C834 H826 0.950 . S
C834 C832 1.391 . S
C834 C835 1.400 . S
C835 C834 1.400 . S
C835 C836 1.398 . S
C835 C841 1.491 . S
C836 H827 0.950 . S
C836 C835 1.398 . S
C836 C837 1.391 . S
C837 H825 0.950 . S
C837 C833 1.393 . S
C837 C836 1.391 . S
C838 H828 0.950 . S
C838 C839 1.386 . S
C838 C840 1.391 . S
C839 C838 1.386 . S
C839 C843 1.393 . S
C840 H829 0.950 . S
C840 C838 1.391 . S
C840 C841 1.400 . S
C841 C835 1.491 . S
C841 C840 1.400 . S
C841 C842 1.398 . S
C842 H830 0.950 . S
C842 C841 1.398 . S
C842 C843 1.391 . S
C843 H831 0.950 . S
C843 C839 1.393 . S
C843 C842 1.391 . S
H844 C852 0.950 . S
H845 C857 0.950 . S
H846 C854 0.950 . S
H847 C856 0.950 . S
H848 C858 0.950 . S
H849 C860 0.950 . S
H850 C862 0.950 . S
H851 C863 0.950 . S
C852 H844 0.950 . S
C852 C853 1.386 . S
C852 C854 1.391 . S
C853 C852 1.386 . S
C853 C857 1.393 . S
C854 H846 0.950 . S
C854 C852 1.391 . S
C854 C855 1.400 . S
C855 C854 1.400 . S
C855 C856 1.398 . S
C855 C861 1.491 . S
C856 H847 0.950 . S
C856 C855 1.398 . S
C856 C857 1.391 . S
C857 H845 0.950 . S
C857 C853 1.393 . S
C857 C856 1.391 . S
C858 H848 0.950 . S
C858 C859 1.386 . S
C858 C860 1.391 . S
C859 C858 1.386 . S
C859 C863 1.393 . S
C860 H849 0.950 . S
C860 C858 1.391 . S
C860 C861 1.400 . S
C861 C855 1.491 . S
C861 C860 1.400 . S
C861 C862 1.398 . S
C862 H850 0.950 . S
C862 C861 1.398 . S
C862 C863 1.391 . S
C863 H851 0.950 . S
C863 C859 1.393 . S
C863 C862 1.391 . S
H864 C872 0.950 . S
H865 C877 0.950 . S
H866 C874 0.950 . S
H867 C876 0.950 . S
H868 C878 0.950 . S
H869 C880 0.950 . S
H870 C882 0.950 . S
H871 C883 0.950 . S
C872 H864 0.950 . S
C872 C873 1.386 . S
C872 C874 1.391 . S
C873 C872 1.386 . S
C873 C877 1.393 . S
C874 H866 0.950 . S
C874 C872 1.391 . S
C874 C875 1.400 . S
C875 C874 1.400 . S
C875 C876 1.398 . S
C875 C881 1.491 . S
C876 H867 0.950 . S
C876 C875 1.398 . S
C876 C877 1.391 . S
C877 H865 0.950 . S
C877 C873 1.393 . S
C877 C876 1.391 . S
C878 H868 0.950 . S
C878 C879 1.386 . S
C878 C880 1.391 . S
C879 C878 1.386 . S
C879 C883 1.393 . S
C880 H869 0.950 . S
C880 C878 1.391 . S
C880 C881 1.400 . S
C881 C875 1.491 . S
C881 C880 1.400 . S
C881 C882 1.398 . S
C882 H870 0.950 . S
C882 C881 1.398 . S
C882 C883 1.391 . S
C883 H871 0.950 . S
C883 C879 1.393 . S
C883 C882 1.391 . S
H884 C892 0.950 . S
H885 C897 0.950 . S
H886 C894 0.950 . S
H887 C896 0.950 . S
H888 C898 0.950 . S
H889 C900 0.950 . S
H890 C902 0.950 . S
H891 C903 0.950 . S
C892 H884 0.950 . S
C892 C893 1.386 . S
C892 C894 1.391 . S
C893 C892 1.386 . S
C893 C897 1.393 . S
C894 H886 0.950 . S
C894 C892 1.391 . S
C894 C895 1.400 . S
C895 C894 1.400 . S
C895 C896 1.398 . S
C895 C901 1.491 . S
C896 H887 0.950 . S
C896 C895 1.398 . S
C896 C897 1.391 . S
C897 H885 0.950 . S
C897 C893 1.393 . S
C897 C896 1.391 . S
C898 H888 0.950 . S
C898 C899 1.386 . S
C898 C900 1.391 . S
C899 C898 1.386 . S
C899 C903 1.393 . S
C900 H889 0.950 . S
C900 C898 1.391 . S
C900 C901 1.400 . S
C901 C895 1.491 . S
C901 C900 1.400 . S
C901 C902 1.398 . S
C902 H890 0.950 . S
C902 C901 1.398 . S
C902 C903 1.391 . S
C903 H891 0.950 . S
C903 C899 1.393 . S
C903 C902 1.391 . S
H904 C912 0.950 . S
H905 C917 0.950 . S
H906 C914 0.950 . S
H907 C916 0.950 . S
H908 C918 0.950 . S
H909 C920 0.950 . S
H910 C922 0.950 . S
H911 C923 0.950 . S
C912 H904 0.950 . S
C912 C913 1.386 . S
C912 C914 1.391 . S
C913 C912 1.386 . S
C913 C917 1.393 . S
C914 H906 0.950 . S
C914 C912 1.391 . S
C914 C915 1.400 . S
C915 C914 1.400 . S
C915 C916 1.398 . S
C915 C921 1.491 . S
C916 H907 0.950 . S
C916 C915 1.398 . S
C916 C917 1.391 . S
C917 H905 0.950 . S
C917 C913 1.393 . S
C917 C916 1.391 . S
C918 H908 0.950 . S
C918 C919 1.386 . S
C918 C920 1.391 . S
C919 C918 1.386 . S
C919 C923 1.393 . S
C920 H909 0.950 . S
C920 C918 1.391 . S
C920 C921 1.400 . S
C921 C915 1.491 . S
C921 C920 1.400 . S
C921 C922 1.398 . S
C922 H910 0.950 . S
C922 C921 1.398 . S
C922 C923 1.391 . S
C923 H911 0.950 . S
C923 C919 1.393 . S
C923 C922 1.391 . S
H924 C932 0.950 . S
H925 C937 0.950 . S
H926 C934 0.950 . S
H927 C936 0.950 . S
H928 C938 0.950 . S
H929 C940 0.950 . S
H930 C942 0.950 . S
H931 C943 0.950 . S
C932 H924 0.950 . S
C932 C933 1.386 . S
C932 C934 1.391 . S
C933 C932 1.386 . S
C933 C937 1.393 . S
C934 H926 0.950 . S
C934 C932 1.391 . S
C934 C935 1.400 . S
C935 C934 1.400 . S
C935 C936 1.398 . S
C935 C941 1.491 . S
C936 H927 0.950 . S
C936 C935 1.398 . S
C936 C937 1.391 . S
C937 H925 0.950 . S
C937 C933 1.393 . S
C937 C936 1.391 . S
C938 H928 0.950 . S
C938 C939 1.386 . S
C938 C940 1.391 . S
C939 C938 1.386 . S
C939 C943 1.393 . S
C940 H929 0.950 . S
C940 C938 1.391 . S
C940 C941 1.400 . S
C941 C935 1.491 . S
C941 C940 1.400 . S
C941 C942 1.398 . S
C942 H930 0.950 . S
C942 C941 1.398 . S
C942 C943 1.391 . S
C943 H931 0.950 . S
C943 C939 1.393 . S
C943 C942 1.391 . S
H944 C952 0.950 . S
H945 C957 0.950 . S
H946 C954 0.950 . S
H947 C956 0.950 . S
H948 C958 0.950 . S
H949 C960 0.950 . S
H950 C962 0.950 . S
H951 C963 0.950 . S
C952 H944 0.950 . S
C952 C953 1.386 1_556 S
C952 C954 1.391 . S
C953 C952 1.386 1_554 S
C953 C957 1.393 . S
C954 H946 0.950 . S
C954 C952 1.391 . S
C954 C955 1.400 1_556 S
C955 C954 1.400 1_554 S
C955 C956 1.398 . S
C955 C961 1.489 1_554 S
C956 H947 0.950 . S
C956 C955 1.398 . S
C956 C957 1.391 . S
C957 H945 0.950 . S
C957 C953 1.393 . S
C957 C956 1.391 . S
C958 H948 0.950 . S
C958 C959 1.386 1_554 S
C958 C960 1.391 . S
C959 C958 1.386 1_556 S
C959 C963 1.393 . S
C960 H949 0.950 . S
C960 C958 1.391 . S
C960 C961 1.392 1_554 S
C961 C955 1.489 1_556 S
C961 C960 1.392 1_556 S
C961 C962 1.409 . S
C962 H950 0.950 . S
C962 C961 1.409 . S
C962 C963 1.391 . S
C963 H951 0.950 . S
C963 C959 1.393 . S
C963 C962 1.391 . S
H964 C972 0.950 . S
H965 C977 0.950 . S
H966 C974 0.950 . S
H967 C976 0.950 . S
H968 C978 0.950 . S
H969 C980 0.950 . S
H970 C982 0.950 . S
H971 C983 0.950 . S
C972 H964 0.950 . S
C972 C973 1.386 . S
C972 C974 1.391 . S
C973 C972 1.386 . S
C973 C977 1.393 1_554 S
C974 H966 0.950 . S
C974 C972 1.391 . S
C974 C975 1.400 . S
C975 C974 1.400 . S
C975 C976 1.398 1_554 S
C975 C981 1.489 1_554 S
C976 H967 0.950 . S
C976 C975 1.398 1_556 S
C976 C977 1.391 . S
C977 H965 0.950 . S
C977 C973 1.393 1_556 S
C977 C976 1.391 . S
C978 H968 0.950 . S
C978 C979 1.386 . S
C978 C980 1.391 . S
C979 C978 1.386 . S
C979 C983 1.393 1_556 S
C980 H969 0.950 . S
C980 C978 1.391 . S
C980 C981 1.410 . S
C981 C975 1.489 1_556 S
C981 C980 1.410 . S
C981 C982 1.390 1_556 S
C982 H970 0.950 . S
C982 C981 1.390 1_554 S
C982 C983 1.391 . S
C983 H971 0.950 . S
C983 C979 1.393 1_554 S
C983 C982 1.391 . S
H984 C992 0.950 . S
H985 C997 0.950 . S
H986 C994 0.950 . S
H987 C996 0.950 . S
H988 C998 0.950 . S
H989 C1000 0.950 . S
H990 C1002 0.950 . S
H991 C1003 0.950 . S
C992 H984 0.950 . S
C992 C993 1.386 . S
C992 C994 1.391 . S
C993 C992 1.386 . S
C993 C997 1.393 1_554 S
C994 H986 0.950 . S
C994 C992 1.391 . S
C994 C995 1.400 . S
C995 C994 1.400 . S
C995 C996 1.398 1_554 S
C995 C1001 1.489 1_554 S
C996 H987 0.950 . S
C996 C995 1.398 1_556 S
C996 C997 1.391 . S
C997 H985 0.950 . S
C997 C993 1.393 1_556 S
C997 C996 1.391 . S
C998 H988 0.950 . S
C998 C999 1.386 . S
C998 C1000 1.391 . S
C999 C998 1.386 . S
C999 C1003 1.393 1_556 S
C1000 H989 0.950 . S
C1000 C998 1.391 . S
C1000 C1001 1.411 . S
C1001 C995 1.489 1_556 S
C1001 C1000 1.411 . S
C1001 C1002 1.389 1_556 S
C1002 H990 0.950 . S
C1002 C1001 1.389 1_554 S
C1002 C1003 1.391 . S
C1003 H991 0.950 . S
C1003 C999 1.393 1_554 S
C1003 C1002 1.391 . S
H1004 C1012 0.950 . S
H1005 C1017 0.950 . S
H1006 C1014 0.950 . S
H1007 C1016 0.950 . S
H1008 C1018 0.950 . S
H1009 C1020 0.950 . S
H1010 C1022 0.950 . S
H1011 C1023 0.950 . S
C1012 H1004 0.950 . S
C1012 C1013 1.386 . S
C1012 C1014 1.391 . S
C1013 C1012 1.386 . S
C1013 C1017 1.393 1_554 S
C1014 H1006 0.950 . S
C1014 C1012 1.391 . S
C1014 C1015 1.400 . S
C1015 C1014 1.400 . S
C1015 C1016 1.398 1_554 S
C1015 C1021 1.490 1_554 S
C1016 H1007 0.950 . S
C1016 C1015 1.398 1_556 S
C1016 C1017 1.391 . S
C1017 H1005 0.950 . S
C1017 C1013 1.393 1_556 S
C1017 C1016 1.391 . S
C1018 H1008 0.950 . S
C1018 C1019 1.386 . S
C1018 C1020 1.391 . S
C1019 C1018 1.386 . S
C1019 C1023 1.393 1_556 S
C1020 H1009 0.950 . S
C1020 C1018 1.391 . S
C1020 C1021 1.404 . S
C1021 C1015 1.490 1_556 S
C1021 C1020 1.404 . S
C1021 C1022 1.395 1_556 S
C1022 H1010 0.950 . S
C1022 C1021 1.395 1_554 S
C1022 C1023 1.391 . S
C1023 H1011 0.950 . S
C1023 C1019 1.393 1_554 S
C1023 C1022 1.391 . S
H1024 C1032 0.950 . S
H1025 C1037 0.950 . S
H1026 C1034 0.950 . S
H1027 C1036 0.950 . S
H1028 C1038 0.950 . S
H1029 C1040 0.950 . S
H1030 C1042 0.950 . S
H1031 C1043 0.950 . S
C1032 H1024 0.950 . S
C1032 C1033 1.386 . S
C1032 C1034 1.391 . S
C1033 C1032 1.386 . S
C1033 C1037 1.393 1_655 S
C1034 H1026 0.950 . S
C1034 C1032 1.391 . S
C1034 C1035 1.400 . S
C1035 C1034 1.400 . S
C1035 C1036 1.398 1_655 S
C1035 C1041 1.491 1_655 S
C1036 H1027 0.950 . S
C1036 C1035 1.398 1_455 S
C1036 C1037 1.391 . S
C1037 H1025 0.950 . S
C1037 C1033 1.393 1_455 S
C1037 C1036 1.391 . S
C1038 H1028 0.950 . S
C1038 C1039 1.386 . S
C1038 C1040 1.391 . S
C1039 C1038 1.386 . S
C1039 C1043 1.393 1_455 S
C1040 H1029 0.950 . S
C1040 C1038 1.391 . S
C1040 C1041 1.400 . S
C1041 C1035 1.491 1_455 S
C1041 C1040 1.400 . S
C1041 C1042 1.398 1_455 S
C1042 H1030 0.950 . S
C1042 C1041 1.398 1_655 S
C1042 C1043 1.391 . S
C1043 H1031 0.950 . S
C1043 C1039 1.393 1_655 S
C1043 C1042 1.391 . S
H1044 C1052 0.950 . S
H1045 C1057 0.958 . S
H1046 C1054 0.950 . S
H1047 C1056 0.950 . S
H1048 C1058 0.950 . S
H1049 C1060 0.950 . S
H1050 C1062 0.950 . S
H1051 C1063 0.958 . S
C1052 H1044 0.950 . S
C1052 C1053 1.386 . S
C1052 C1054 1.391 . S
C1053 C1052 1.386 . S
C1053 C1057 1.379 1_565 S
C1054 H1046 0.950 . S
C1054 C1052 1.391 . S
C1054 C1055 1.400 . S
C1055 C1054 1.400 . S
C1055 C1056 1.398 1_565 S
C1055 C1061 1.491 1_565 S
C1056 H1047 0.950 . S
C1056 C1055 1.398 1_545 S
C1056 C1057 1.397 . S
C1057 H1045 0.958 . S
C1057 C1053 1.379 1_545 S
C1057 C1056 1.397 . S
C1058 H1048 0.950 . S
C1058 C1059 1.386 . S
C1058 C1060 1.391 . S
C1059 C1058 1.386 . S
C1059 C1063 1.379 1_545 S
C1060 H1049 0.950 . S
C1060 C1058 1.391 . S
C1060 C1061 1.400 . S
C1061 C1055 1.491 1_545 S
C1061 C1060 1.400 . S
C1061 C1062 1.398 1_545 S
C1062 H1050 0.950 . S
C1062 C1061 1.398 1_565 S
C1062 C1063 1.397 . S
C1063 H1051 0.958 . S
C1063 C1059 1.379 1_565 S
C1063 C1062 1.397 . S
H1064 C1072 0.950 . S
H1065 C1077 0.950 . S
H1066 C1074 0.950 . S
H1067 C1076 0.950 . S
H1068 C1078 0.950 . S
H1069 C1080 0.950 . S
H1070 C1082 0.950 . S
H1071 C1083 0.950 . S
C1072 H1064 0.950 . S
C1072 C1073 1.386 1_455 S
C1072 C1074 1.391 . S
C1073 C1072 1.386 1_655 S
C1073 C1077 1.393 . S
C1074 H1066 0.950 . S
C1074 C1072 1.391 . S
C1074 C1075 1.400 1_455 S
C1075 C1074 1.400 1_655 S
C1075 C1076 1.398 . S
C1075 C1081 1.491 1_655 S
C1076 H1067 0.950 . S
C1076 C1075 1.398 . S
C1076 C1077 1.391 . S
C1077 H1065 0.950 . S
C1077 C1073 1.393 . S
C1077 C1076 1.391 . S
C1078 H1068 0.950 . S
C1078 C1079 1.386 1_655 S
C1078 C1080 1.391 . S
C1079 C1078 1.386 1_455 S
C1079 C1083 1.393 . S
C1080 H1069 0.950 . S
C1080 C1078 1.391 . S
C1080 C1081 1.400 1_655 S
C1081 C1075 1.491 1_455 S
C1081 C1080 1.400 1_455 S
C1081 C1082 1.398 . S
C1082 H1070 0.950 . S
C1082 C1081 1.398 . S
C1082 C1083 1.391 . S
C1083 H1071 0.950 . S
C1083 C1079 1.393 . S
C1083 C1082 1.391 . S
H1084 C1092 0.950 . S
H1085 C1097 0.950 . S
H1086 C1094 0.950 . S
H1087 C1096 0.950 . S
H1088 C1098 0.950 . S
H1089 C1100 0.950 . S
H1090 C1102 0.950 . S
H1091 C1103 0.950 . S
C1092 H1084 0.950 . S
C1092 C1093 1.386 . S
C1092 C1094 1.391 . S
C1093 C1092 1.386 . S
C1093 C1097 1.393 1_545 S
C1094 H1086 0.950 . S
C1094 C1092 1.391 . S
C1094 C1095 1.400 . S
C1095 C1094 1.400 . S
C1095 C1096 1.398 1_545 S
C1095 C1101 1.491 1_545 S
C1096 H1087 0.950 . S
C1096 C1095 1.398 1_565 S
C1096 C1097 1.391 . S
C1097 H1085 0.950 . S
C1097 C1093 1.393 1_565 S
C1097 C1096 1.391 . S
C1098 H1088 0.950 . S
C1098 C1099 1.386 . S
C1098 C1100 1.391 . S
C1099 C1098 1.386 . S
C1099 C1103 1.393 1_565 S
C1100 H1089 0.950 . S
C1100 C1098 1.391 . S
C1100 C1101 1.400 . S
C1101 C1095 1.491 1_565 S
C1101 C1100 1.400 . S
C1101 C1102 1.398 1_565 S
C1102 H1090 0.950 . S
C1102 C1101 1.398 1_545 S
C1102 C1103 1.391 . S
C1103 H1091 0.950 . S
C1103 C1099 1.393 1_545 S
C1103 C1102 1.391 . S
H1104 C1112 0.950 . S
H1105 C1117 0.950 . S
H1106 C1114 0.950 . S
H1107 C1116 0.950 . S
H1108 C1118 0.950 . S
H1109 C1120 0.950 . S
H1110 C1122 0.950 . S
H1111 C1123 0.950 . S
C1112 H1104 0.950 . S
C1112 C1113 1.386 1_455 S
C1112 C1114 1.391 . S
C1113 C1112 1.386 1_655 S
C1113 C1117 1.393 . S
C1114 H1106 0.950 . S
C1114 C1112 1.391 . S
C1114 C1115 1.400 1_455 S
C1115 C1114 1.400 1_655 S
C1115 C1116 1.398 . S
C1115 C1121 1.491 1_655 S
C1116 H1107 0.950 . S
C1116 C1115 1.398 . S
C1116 C1117 1.391 . S
C1117 H1105 0.950 . S
C1117 C1113 1.393 . S
C1117 C1116 1.391 . S
C1118 H1108 0.950 . S
C1118 C1119 1.386 1_655 S
C1118 C1120 1.391 . S
C1119 C1118 1.386 1_455 S
C1119 C1123 1.393 . S
C1120 H1109 0.950 . S
C1120 C1118 1.391 . S
C1120 C1121 1.400 1_655 S
C1121 C1115 1.491 1_455 S
C1121 C1120 1.400 1_455 S
C1121 C1122 1.398 . S
C1122 H1110 0.950 . S
C1122 C1121 1.398 . S
C1122 C1123 1.391 . S
C1123 H1111 0.950 . S
C1123 C1119 1.393 . S
C1123 C1122 1.391 . S
H1124 C1132 0.950 . S
H1125 C1137 0.944 1_565 S
H1126 C1134 0.950 . S
H1127 C1136 0.950 . S
H1128 C1138 0.950 . S
H1129 C1140 0.950 . S
H1130 C1142 0.950 . S
H1131 C1143 0.944 1_545 S
C1132 H1124 0.950 . S
C1132 C1133 1.386 . S
C1132 C1134 1.391 . S
C1133 C1132 1.386 . S
C1133 C1137 1.403 . S
C1134 H1126 0.950 . S
C1134 C1132 1.391 . S
C1134 C1135 1.400 . S
C1135 C1134 1.400 . S
C1135 C1136 1.398 1_545 S
C1135 C1141 1.491 1_545 S
C1136 H1127 0.950 . S
C1136 C1135 1.398 1_565 S
C1136 C1137 1.388 1_565 S
C1137 H1125 0.944 1_545 S
C1137 C1133 1.403 . S
C1137 C1136 1.388 1_545 S
C1138 H1128 0.950 . S
C1138 C1139 1.386 . S
C1138 C1140 1.391 . S
C1139 C1138 1.386 . S
C1139 C1143 1.403 . S
C1140 H1129 0.950 . S
C1140 C1138 1.391 . S
C1140 C1141 1.400 . S
C1141 C1135 1.491 1_565 S
C1141 C1140 1.400 . S
C1141 C1142 1.398 1_565 S
C1142 H1130 0.950 . S
C1142 C1141 1.398 1_545 S
C1142 C1143 1.388 1_545 S
C1143 H1131 0.944 1_565 S
C1143 C1139 1.403 . S
C1143 C1142 1.388 1_565 S
H1144 C1152 0.950 . S
H1145 C1157 0.950 . S
H1146 C1154 0.950 . S
H1147 C1156 0.950 . S
H1148 C1158 0.950 . S
H1149 C1160 0.950 . S
H1150 C1162 0.950 . S
H1151 C1163 0.950 . S
C1152 H1144 0.950 . S
C1152 C1153 1.386 1_655 S
C1152 C1154 1.391 . S
C1153 C1152 1.386 1_455 S
C1153 C1157 1.393 . S
C1154 H1146 0.950 . S
C1154 C1152 1.391 . S
C1154 C1155 1.400 1_655 S
C1155 C1154 1.400 1_455 S
C1155 C1156 1.398 . S
C1155 C1161 1.491 1_455 S
C1156 H1147 0.950 . S
C1156 C1155 1.398 . S
C1156 C1157 1.391 . S
C1157 H1145 0.950 . S
C1157 C1153 1.393 . S
C1157 C1156 1.391 . S
C1158 H1148 0.950 . S
C1158 C1159 1.386 1_455 S
C1158 C1160 1.391 . S
C1159 C1158 1.386 1_655 S
C1159 C1163 1.393 . S
C1160 H1149 0.950 . S
C1160 C1158 1.391 . S
C1160 C1161 1.400 1_455 S
C1161 C1155 1.491 1_655 S
C1161 C1160 1.400 1_655 S
C1161 C1162 1.398 . S
C1162 H1150 0.950 . S
C1162 C1161 1.398 . S
C1162 C1163 1.391 . S
C1163 H1151 0.950 . S
C1163 C1159 1.393 . S
C1163 C1162 1.391 . S
H1164 C1172 0.950 . S
H1165 C1177 0.947 1_545 S
H1166 C1174 0.950 . S
H1167 C1176 0.950 . S
H1168 C1178 0.950 . S
H1169 C1180 0.950 . S
H1170 C1182 0.950 . S
H1171 C1183 0.947 1_565 S
C1172 H1164 0.950 . S
C1172 C1173 1.386 . S
C1172 C1174 1.391 . S
C1173 C1172 1.386 . S
C1173 C1177 1.397 . S
C1174 H1166 0.950 . S
C1174 C1172 1.391 . S
C1174 C1175 1.400 . S
C1175 C1174 1.400 . S
C1175 C1176 1.398 1_565 S
C1175 C1181 1.491 1_565 S
C1176 H1167 0.950 . S
C1176 C1175 1.398 1_545 S
C1176 C1177 1.389 1_545 S
C1177 H1165 0.947 1_565 S
C1177 C1173 1.397 . S
C1177 C1176 1.389 1_565 S
C1178 H1168 0.950 . S
C1178 C1179 1.386 . S
C1178 C1180 1.391 . S
C1179 C1178 1.386 . S
C1179 C1183 1.397 . S
C1180 H1169 0.950 . S
C1180 C1178 1.391 . S
C1180 C1181 1.400 . S
C1181 C1175 1.491 1_545 S
C1181 C1180 1.400 . S
C1181 C1182 1.398 1_545 S
C1182 H1170 0.950 . S
C1182 C1181 1.398 1_565 S
C1182 C1183 1.389 1_565 S
C1183 H1171 0.947 1_545 S
C1183 C1179 1.397 . S
C1183 C1182 1.389 1_545 S
H1184 C1192 0.950 . S
H1185 C1197 0.950 . S
H1186 C1194 0.950 . S
H1187 C1196 0.950 . S
H1188 C1198 0.950 . S
H1189 C1200 0.950 . S
H1190 C1202 0.950 . S
H1191 C1203 0.950 . S
C1192 H1184 0.950 . S
C1192 C1193 1.386 . S
C1192 C1194 1.391 . S
C1193 C1192 1.386 . S
C1193 C1197 1.393 . S
C1194 H1186 0.950 . S
C1194 C1192 1.391 . S
C1194 C1195 1.400 . S
C1195 C1194 1.400 . S
C1195 C1196 1.398 . S
C1195 C1201 1.491 . S
C1196 H1187 0.950 . S
C1196 C1195 1.398 . S
C1196 C1197 1.391 . S
C1197 H1185 0.950 . S
C1197 C1193 1.393 . S
C1197 C1196 1.391 . S
C1198 H1188 0.950 . S
C1198 C1199 1.386 . S
C1198 C1200 1.391 . S
C1199 C1198 1.386 . S
C1199 C1203 1.393 . S
C1200 H1189 0.950 . S
C1200 C1198 1.391 . S
C1200 C1201 1.400 . S
C1201 C1195 1.491 . S
C1201 C1200 1.400 . S
C1201 C1202 1.398 . S
C1202 H1190 0.950 . S
C1202 C1201 1.398 . S
C1202 C1203 1.391 . S
C1203 H1191 0.950 . S
C1203 C1199 1.393 . S
C1203 C1202 1.391 . S
H1204 C1212 0.950 . S
H1205 C1217 0.950 . S
H1206 C1214 0.950 . S
H1207 C1216 0.950 . S
H1208 C1218 0.950 . S
H1209 C1220 0.950 . S
H1210 C1222 0.950 . S
H1211 C1223 0.950 . S
C1212 H1204 0.950 . S
C1212 C1213 1.386 . S
C1212 C1214 1.391 . S
C1213 C1212 1.386 . S
C1213 C1217 1.393 . S
C1214 H1206 0.950 . S
C1214 C1212 1.391 . S
C1214 C1215 1.400 . S
C1215 C1214 1.400 . S
C1215 C1216 1.398 . S
C1215 C1221 1.491 . S
C1216 H1207 0.950 . S
C1216 C1215 1.398 . S
C1216 C1217 1.391 . S
C1217 H1205 0.950 . S
C1217 C1213 1.393 . S
C1217 C1216 1.391 . S
C1218 H1208 0.950 . S
C1218 C1219 1.386 . S
C1218 C1220 1.391 . S
C1219 C1218 1.386 . S
C1219 C1223 1.393 . S
C1220 H1209 0.950 . S
C1220 C1218 1.391 . S
C1220 C1221 1.400 . S
C1221 C1215 1.491 . S
C1221 C1220 1.400 . S
C1221 C1222 1.398 . S
C1222 H1210 0.950 . S
C1222 C1221 1.398 . S
C1222 C1223 1.391 . S
C1223 H1211 0.950 . S
C1223 C1219 1.393 . S
C1223 C1222 1.391 . S
H1224 C1232 0.950 . S
H1225 C1237 0.950 . S
H1226 C1234 0.950 . S
H1227 C1236 0.950 . S
H1228 C1238 0.950 . S
H1229 C1240 0.950 . S
H1230 C1242 0.950 . S
H1231 C1243 0.950 . S
C1232 H1224 0.950 . S
C1232 C1233 1.386 . S
C1232 C1234 1.391 . S
C1233 C1232 1.386 . S
C1233 C1237 1.393 . S
C1234 H1226 0.950 . S
C1234 C1232 1.391 . S
C1234 C1235 1.400 . S
C1235 C1234 1.400 . S
C1235 C1236 1.398 . S
C1235 C1241 1.491 . S
C1236 H1227 0.950 . S
C1236 C1235 1.398 . S
C1236 C1237 1.391 . S
C1237 H1225 0.950 . S
C1237 C1233 1.393 . S
C1237 C1236 1.391 . S
C1238 H1228 0.950 . S
C1238 C1239 1.386 . S
C1238 C1240 1.391 . S
C1239 C1238 1.386 . S
C1239 C1243 1.393 . S
C1240 H1229 0.950 . S
C1240 C1238 1.391 . S
C1240 C1241 1.400 . S
C1241 C1235 1.491 . S
C1241 C1240 1.400 . S
C1241 C1242 1.398 . S
C1242 H1230 0.950 . S
C1242 C1241 1.398 . S
C1242 C1243 1.391 . S
C1243 H1231 0.950 . S
C1243 C1239 1.393 . S
C1243 C1242 1.391 . S
H1244 C1252 0.950 . S
H1245 C1257 0.950 . S
H1246 C1254 0.950 . S
H1247 C1256 0.950 . S
H1248 C1258 0.950 . S
H1249 C1260 0.950 . S
H1250 C1262 0.950 . S
H1251 C1263 0.950 . S
C1252 H1244 0.950 . S
C1252 C1253 1.386 . S
C1252 C1254 1.391 . S
C1253 C1252 1.386 . S
C1253 C1257 1.393 . S
C1254 H1246 0.950 . S
C1254 C1252 1.391 . S
C1254 C1255 1.400 . S
C1255 C1254 1.400 . S
C1255 C1256 1.398 . S
C1255 C1261 1.491 . S
C1256 H1247 0.950 . S
C1256 C1255 1.398 . S
C1256 C1257 1.391 . S
C1257 H1245 0.950 . S
C1257 C1253 1.393 . S
C1257 C1256 1.391 . S
C1258 H1248 0.950 . S
C1258 C1259 1.386 . S
C1258 C1260 1.391 . S
C1259 C1258 1.386 . S
C1259 C1263 1.393 . S
C1260 H1249 0.950 . S
C1260 C1258 1.391 . S
C1260 C1261 1.400 . S
C1261 C1255 1.491 . S
C1261 C1260 1.400 . S
C1261 C1262 1.398 . S
C1262 H1250 0.950 . S
C1262 C1261 1.398 . S
C1262 C1263 1.391 . S
C1263 H1251 0.950 . S
C1263 C1259 1.393 . S
C1263 C1262 1.391 . S
H1264 C1272 0.950 . S
H1265 C1277 0.950 . S
H1266 C1274 0.950 . S
H1267 C1276 0.950 . S
H1268 C1278 0.950 . S
H1269 C1280 0.950 . S
H1270 C1282 0.950 . S
H1271 C1283 0.950 . S
C1272 H1264 0.950 . S
C1272 C1273 1.386 . S
C1272 C1274 1.391 . S
C1273 C1272 1.386 . S
C1273 C1277 1.393 . S
C1274 H1266 0.950 . S
C1274 C1272 1.391 . S
C1274 C1275 1.400 . S
C1275 C1274 1.400 . S
C1275 C1276 1.398 . S
C1275 C1281 1.491 . S
C1276 H1267 0.950 . S
C1276 C1275 1.398 . S
C1276 C1277 1.391 . S
C1277 H1265 0.950 . S
C1277 C1273 1.393 . S
C1277 C1276 1.391 . S
C1278 H1268 0.950 . S
C1278 C1279 1.386 . S
C1278 C1280 1.391 . S
C1279 C1278 1.386 . S
C1279 C1283 1.393 . S
C1280 H1269 0.950 . S
C1280 C1278 1.391 . S
C1280 C1281 1.400 . S
C1281 C1275 1.491 . S
C1281 C1280 1.400 . S
C1281 C1282 1.398 . S
C1282 H1270 0.950 . S
C1282 C1281 1.398 . S
C1282 C1283 1.391 . S
C1283 H1271 0.950 . S
C1283 C1279 1.393 . S
C1283 C1282 1.391 . S
H1284 C1292 0.950 . S
H1285 C1297 0.950 . S
H1286 C1294 0.950 . S
H1287 C1296 0.950 . S
H1288 C1298 0.950 . S
H1289 C1300 0.950 . S
H1290 C1302 0.950 . S
H1291 C1303 0.950 . S
C1292 H1284 0.950 . S
C1292 C1293 1.386 . S
C1292 C1294 1.391 . S
C1293 C1292 1.386 . S
C1293 C1297 1.393 . S
C1294 H1286 0.950 . S
C1294 C1292 1.391 . S
C1294 C1295 1.400 . S
C1295 C1294 1.400 . S
C1295 C1296 1.398 . S
C1295 C1301 1.491 . S
C1296 H1287 0.950 . S
C1296 C1295 1.398 . S
C1296 C1297 1.391 . S
C1297 H1285 0.950 . S
C1297 C1293 1.393 . S
C1297 C1296 1.391 . S
C1298 H1288 0.950 . S
C1298 C1299 1.386 . S
C1298 C1300 1.391 . S
C1299 C1298 1.386 . S
C1299 C1303 1.393 . S
C1300 H1289 0.950 . S
C1300 C1298 1.391 . S
C1300 C1301 1.400 . S
C1301 C1295 1.491 . S
C1301 C1300 1.400 . S
C1301 C1302 1.398 . S
C1302 H1290 0.950 . S
C1302 C1301 1.398 . S
C1302 C1303 1.391 . S
C1303 H1291 0.950 . S
C1303 C1299 1.393 . S
C1303 C1302 1.391 . S
H1304 C1312 0.950 . S
H1305 C1317 0.950 . S
H1306 C1314 0.950 . S
H1307 C1316 0.950 . S
H1308 C1318 0.950 . S
H1309 C1320 0.950 . S
H1310 C1322 0.950 . S
H1311 C1323 0.950 . S
C1312 H1304 0.950 . S
C1312 C1313 1.386 . S
C1312 C1314 1.391 . S
C1313 C1312 1.386 . S
C1313 C1317 1.393 . S
C1314 H1306 0.950 . S
C1314 C1312 1.391 . S
C1314 C1315 1.400 . S
C1315 C1314 1.400 . S
C1315 C1316 1.398 . S
C1315 C1321 1.491 . S
C1316 H1307 0.950 . S
C1316 C1315 1.398 . S
C1316 C1317 1.391 . S
C1317 H1305 0.950 . S
C1317 C1313 1.393 . S
C1317 C1316 1.391 . S
C1318 H1308 0.950 . S
C1318 C1319 1.386 . S
C1318 C1320 1.391 . S
C1319 C1318 1.386 . S
C1319 C1323 1.393 . S
C1320 H1309 0.950 . S
C1320 C1318 1.391 . S
C1320 C1321 1.400 . S
C1321 C1315 1.491 . S
C1321 C1320 1.400 . S
C1321 C1322 1.398 . S
C1322 H1310 0.950 . S
C1322 C1321 1.398 . S
C1322 C1323 1.391 . S
C1323 H1311 0.950 . S
C1323 C1319 1.393 . S
C1323 C1322 1.391 . S
H1324 C1332 0.950 . S
H1325 C1337 0.950 . S
H1326 C1334 0.950 . S
H1327 C1336 0.950 . S
H1328 C1338 0.950 . S
H1329 C1340 0.950 . S
H1330 C1342 0.950 . S
H1331 C1343 0.950 . S
C1332 H1324 0.950 . S
C1332 C1333 1.386 . S
C1332 C1334 1.391 . S
C1333 C1332 1.386 . S
C1333 C1337 1.393 . S
C1334 H1326 0.950 . S
C1334 C1332 1.391 . S
C1334 C1335 1.400 . S
C1335 C1334 1.400 . S
C1335 C1336 1.398 . S
C1335 C1341 1.491 . S
C1336 H1327 0.950 . S
C1336 C1335 1.398 . S
C1336 C1337 1.391 . S
C1337 H1325 0.950 . S
C1337 C1333 1.393 . S
C1337 C1336 1.391 . S
C1338 H1328 0.950 . S
C1338 C1339 1.386 . S
C1338 C1340 1.391 . S
C1339 C1338 1.386 . S
C1339 C1343 1.393 . S
C1340 H1329 0.950 . S
C1340 C1338 1.391 . S
C1340 C1341 1.400 . S
C1341 C1335 1.491 . S
C1341 C1340 1.400 . S
C1341 C1342 1.398 . S
C1342 H1330 0.950 . S
C1342 C1341 1.398 . S
C1342 C1343 1.391 . S
C1343 H1331 0.950 . S
C1343 C1339 1.393 . S
C1343 C1342 1.391 . S
C553 C9 1.404 . S
C559 C519 1.391 . S
C573 C43 1.413 . S
C579 C417 1.387 . S
C593 C451 1.392 . S
C599 C77 1.420 . S
C613 C111 1.403 . S
C619 C485 1.415 . S
C633 C145 1.392 . S
C639 C315 1.402 . S
C653 C349 1.414 . S
C659 C179 1.404 . S
C673 C383 1.402 . S
C679 C213 1.392 . S
C693 C281 1.395 . S
C699 C247 1.419 . S
C713 C107 1.525 . S
C719 C33 1.522 . S
C733 C5 1.520 . S
C739 C67 1.525 . S
C753 C101 1.522 . S
C759 C39 1.526 . S
C773 C135 1.522 . S
C779 C73 1.526 . S
C793 C175 1.520 . S
C799 C169 1.527 . S
C813 C209 1.528 . S
C819 C203 1.529 . S
C833 C243 1.529 . S
C839 C237 1.523 . S
C853 C141 1.522 . S
C859 C271 1.523 . S
C873 C379 1.520 . S
C879 C305 1.525 . S
C893 C339 1.530 . S
C899 C277 1.528 . S
C913 C311 1.526 . S
C919 C373 1.522 . S
C933 C345 1.520 . S
C939 C407 1.526 . S
C953 C447 1.526 . S
C959 C441 1.531 . S
C973 C481 1.529 . S
C979 C475 1.528 . S
C993 C515 1.530 . S
C999 C509 1.526 . S
C1013 C413 1.530 . S
C1019 C543 1.524 . S
C1033 C206 1.389 . S
C1039 C2 1.377 . S
C1053 C240 1.384 . S
C1059 C36 1.380 . S
C1073 C70 1.379 . S
C1079 C138 1.390 . S
C1093 C172 1.388 . S
C1099 C104 1.377 . S
C1113 C88 1.510 . S
C1119 C156 1.499 . S
C1133 C190 1.501 . S
C1139 C122 1.505 . S
C1153 C20 1.504 . S
C1159 C224 1.501 . S
C1173 C258 1.501 . S
C1179 C54 1.505 . S
C1193 C478 1.378 . S
C1199 C274 1.390 . S
C1213 C512 1.378 . S
C1219 C308 1.386 . S
C1233 C410 1.378 . S
C1239 C342 1.387 . S
C1253 C376 1.385 . S
C1259 C444 1.386 . S
C1273 C428 1.510 . S
C1279 C360 1.498 . S
C1293 C394 1.502 . S
C1299 C462 1.503 . S
C1313 C292 1.498 . S
C1319 C496 1.510 . S
C1333 C530 1.498 . S
C1339 C326 1.508 . S
