# Generated by pormake.
# Topology lhb, (8)-cn, num edge types: 1
# Building blocks:
#     Node 0, Type 0, BuildingBlock: TAGTUT_clean_sbu_1, # of connection points: 8
#     Node 1, Type 0, BuildingBlock: TAGTUT_clean_sbu_1, # of connection points: 8
#     Node 2, Type 0, BuildingBlock: TAGTUT_clean_sbu_1, # of connection points: 8
#     Node 3, Type 0, BuildingBlock: TAGTUT_clean_sbu_1, # of connection points: 8
#     Node 4, Type 0, BuildingBlock: TAGTUT_clean_sbu_1, # of connection points: 8
#     Node 5, Type 0, BuildingBlock: TAGTUT_clean_sbu_1, # of connection points: 8
#     Node 6, Type 0, BuildingBlock: TAGTUT_clean_sbu_1, # of connection points: 8
#     Node 7, Type 0, BuildingBlock: TAGTUT_clean_sbu_1, # of connection points: 8
#     Edge 8, Type (0, 0), BuildingBlock: XUDNAN_clean_linker_2, # of connection points: 2
#     Edge 9, Type (0, 0), BuildingBlock: XUDNAN_clean_linker_2, # of connection points: 2
#     Edge 10, Type (0, 0), BuildingBlock: XUDNAN_clean_linker_2, # of connection points: 2
#     Edge 11, Type (0, 0), BuildingBlock: XUDNAN_clean_linker_2, # of connection points: 2
#     Edge 12, Type (0, 0), BuildingBlock: XUDNAN_clean_linker_2, # of connection points: 2
#     Edge 13, Type (0, 0), BuildingBlock: XUDNAN_clean_linker_2, # of connection points: 2
#     Edge 14, Type (0, 0), BuildingBlock: XUDNAN_clean_linker_2, # of connection points: 2
#     Edge 15, Type (0, 0), BuildingBlock: XUDNAN_clean_linker_2, # of connection points: 2
#     Edge 16, Type (0, 0), BuildingBlock: XUDNAN_clean_linker_2, # of connection points: 2
#     Edge 17, Type (0, 0), BuildingBlock: XUDNAN_clean_linker_2, # of connection points: 2
#     Edge 18, Type (0, 0), BuildingBlock: XUDNAN_clean_linker_2, # of connection points: 2
#     Edge 19, Type (0, 0), BuildingBlock: XUDNAN_clean_linker_2, # of connection points: 2
#     Edge 20, Type (0, 0), BuildingBlock: XUDNAN_clean_linker_2, # of connection points: 2
#     Edge 21, Type (0, 0), BuildingBlock: XUDNAN_clean_linker_2, # of connection points: 2
#     Edge 22, Type (0, 0), BuildingBlock: XUDNAN_clean_linker_2, # of connection points: 2
#     Edge 23, Type (0, 0), BuildingBlock: XUDNAN_clean_linker_2, # of connection points: 2
#     Edge 24, Type (0, 0), BuildingBlock: XUDNAN_clean_linker_2, # of connection points: 2
#     Edge 25, Type (0, 0), BuildingBlock: XUDNAN_clean_linker_2, # of connection points: 2
#     Edge 26, Type (0, 0), BuildingBlock: XUDNAN_clean_linker_2, # of connection points: 2
#     Edge 27, Type (0, 0), BuildingBlock: XUDNAN_clean_linker_2, # of connection points: 2
#     Edge 28, Type (0, 0), BuildingBlock: XUDNAN_clean_linker_2, # of connection points: 2
#     Edge 29, Type (0, 0), BuildingBlock: XUDNAN_clean_linker_2, # of connection points: 2
#     Edge 30, Type (0, 0), BuildingBlock: XUDNAN_clean_linker_2, # of connection points: 2
#     Edge 31, Type (0, 0), BuildingBlock: XUDNAN_clean_linker_2, # of connection points: 2
#     Edge 32, Type (0, 0), BuildingBlock: XUDNAN_clean_linker_2, # of connection points: 2
#     Edge 33, Type (0, 0), BuildingBlock: XUDNAN_clean_linker_2, # of connection points: 2
#     Edge 34, Type (0, 0), BuildingBlock: XUDNAN_clean_linker_2, # of connection points: 2
#     Edge 35, Type (0, 0), BuildingBlock: XUDNAN_clean_linker_2, # of connection points: 2
#     Edge 36, Type (0, 0), BuildingBlock: XUDNAN_clean_linker_2, # of connection points: 2
#     Edge 37, Type (0, 0), BuildingBlock: XUDNAN_clean_linker_2, # of connection points: 2
#     Edge 38, Type (0, 0), BuildingBlock: XUDNAN_clean_linker_2, # of connection points: 2
#     Edge 39, Type (0, 0), BuildingBlock: XUDNAN_clean_linker_2, # of connection points: 2
# Relax obj value: 0.064
# Max RMSD: 0.159
# Mean RMSD: 0.159
data_MOF--net-lhb--node1-TAGTUT_clean_sbu_1--edge1-XUDNAN_clean_linker_2
_symmetry_space_group_name_H-M    P1
_symmetry_Int_Tables_number       1
_symmetry_cell_setting            triclinic
loop_
_symmetry_equiv_pos_as_xyz
'x, y, z'
_cell_length_a     33.418757
_cell_length_b     14.776211
_cell_length_c     59.932908
_cell_angle_alpha  95.065644
_cell_angle_beta   90.065189
_cell_angle_gamma 90.220247
loop_
_atom_site_label
_atom_site_type_symbol
_atom_site_fract_x
_atom_site_fract_y
_atom_site_fract_z
_atom_type_partial_charge
C0 C 0.05995 0.061 0.08374 0.0
C1 C 0.11562 0.05799 0.01857 0.0
C2 C 0.977 0.17551 0.98986 0.0
Mg3 Mg 0.06169 0.92237 0.04157 0.0
O4 O 0.0195 -0.01184 0.03199 0.0
Mg5 Mg 0.02338 0.12421 0.03492 0.0
Mg6 Mg 0.98985 0.96913 1.00262 0.0
O7 O 0.95857 0.9591 0.97438 0.0
Mg8 Mg 0.91306 0.03176 0.97447 0.0
Mg9 Mg 0.94932 0.82793 0.97009 0.0
C10 C 0.01083 0.76687 0.01169 0.0
C11 C 0.04398 0.86963 0.9623 0.0
O12 O 0.0478 0.11982 0.0708 0.0
O13 O 0.0648 -0.02291 0.07666 0.0
O14 O 0.08861 0.11942 0.02141 0.0
O15 O 0.11062 -0.02246 0.02427 0.0
O16 O 0.03862 0.79417 0.02568 0.0
O17 O 0.98319 0.81969 0.00523 0.0
C18 C 0.93341 0.05078 0.04363 0.0
O19 O 0.93598 -0.0022 0.02559 0.0
O20 O 0.96024 0.11118 0.04893 0.0
O21 O 0.9218 0.85737 0.93458 0.0
O22 O 0.89705 -0.00148 0.94093 0.0
O23 O 0.88477 0.83618 0.98582 0.0
C24 C 0.90392 0.9274 0.92785 0.0
O25 O 0.86844 -0.01894 0.99481 0.0
O26 O 0.94251 0.15904 0.98112 0.0
C27 C 0.86048 0.89668 0.99442 0.0
O28 O 0.997 0.11609 0.99925 0.0
O29 O 0.04481 0.92928 0.97938 0.0
O30 O 0.01178 0.82755 0.95609 0.0
C31 C 0.35552 0.18996 0.18072 0.0
C32 C 0.3986 0.07667 0.24214 0.0
C33 C 0.24082 0.0235 0.2601 0.0
Mg34 Mg 0.36453 0.25772 0.23078 0.0
O35 O 0.31262 0.21153 0.23061 0.0
Mg36 Mg 0.30476 0.08077 0.21992 0.0
Mg37 Mg 0.27982 0.22245 0.25822 0.0
O38 O 0.24659 0.23438 0.28608 0.0
Mg39 Mg 0.19418 0.19184 0.286 0.0
Mg40 Mg 0.25629 0.36555 0.29512 0.0
C41 C 0.32567 0.41744 0.26102 0.0
C42 C 0.33476 0.24366 0.30299 0.0
O43 O 0.3344 0.12101 0.18571 0.0
O44 O 0.36993 0.24802 0.19571 0.0
O45 O 0.36724 0.03703 0.23365 0.0
O46 O 0.40258 0.16255 0.24411 0.0
O47 O 0.35561 0.38784 0.24925 0.0
O48 O 0.29338 0.37124 0.26284 0.0
C49 C 0.21903 0.18122 0.21571 0.0
O50 O 0.22508 0.23287 0.23386 0.0
O51 O 0.24485 0.123 0.20806 0.0
O52 O 0.21996 0.34814 0.32721 0.0
O53 O 0.18326 0.2199 0.32186 0.0
O54 O 0.1978 0.40884 0.27873 0.0
C55 C 0.1959 0.28933 0.33429 0.0
O56 O 0.16002 0.28646 0.26866 0.0
O57 O 0.21012 0.05709 0.27083 0.0
C58 C 0.16608 0.37213 0.26988 0.0
O59 O 0.27017 0.07274 0.25435 0.0
O60 O 0.33147 0.20549 0.28297 0.0
O61 O 0.31154 0.30802 0.31056 0.0
C62 C 0.87631 0.75961 0.17919 0.0
C63 C 0.91019 0.65826 0.24466 0.0
C64 C 0.75482 0.59233 0.25622 0.0
Mg65 Mg 0.8773 0.83316 0.22882 0.0
O66 O 0.82573 0.78524 0.22687 0.0
Mg67 Mg 0.82127 0.65289 0.21724 0.0
Mg68 Mg 0.79138 0.79299 0.25397 0.0
O69 O 0.75774 0.80151 0.28174 0.0
Mg70 Mg 0.70551 0.75886 0.27973 0.0
Mg71 Mg 0.76571 0.93308 0.29118 0.0
C72 C 0.83496 -0.00954 0.25791 0.0
C73 C 0.84753 0.81869 0.29811 0.0
O74 O 0.85457 0.69161 0.18413 0.0
O75 O 0.88885 0.82033 0.19411 0.0
O76 O 0.88165 0.61429 0.23428 0.0
O77 O 0.91254 0.7443 0.24579 0.0
O78 O 0.86562 0.96203 0.24665 0.0
O79 O 0.80263 0.94359 0.259 0.0
C80 C 0.73651 0.75159 0.20927 0.0
O81 O 0.73844 0.79951 0.2283 0.0
O82 O 0.76367 0.69468 0.20274 0.0
O83 O 0.73048 0.9105 0.32302 0.0
O84 O 0.6882 0.7935 0.31455 0.0
O85 O 0.70418 0.97249 0.2755 0.0
C86 C 0.70275 0.85646 0.32839 0.0
O87 O 0.67521 0.84665 0.25945 0.0
O88 O 0.72309 0.62401 0.2662 0.0
C89 C 0.67589 0.93241 0.26388 0.0
O90 O 0.78318 0.64378 0.25023 0.0
O91 O 0.84233 0.77769 0.27861 0.0
O92 O 0.82392 0.88155 0.30621 0.0
C93 C 0.05255 0.45651 0.58423 0.0
C94 C 0.10171 0.55195 0.52389 0.0
C95 C 0.95026 0.68266 0.51559 0.0
Mg96 Mg 0.05365 0.37982 0.53407 0.0
O97 O 0.00611 0.44885 0.53459 0.0
Mg98 Mg 0.00938 0.58085 0.54657 0.0
Mg99 Mg 0.97413 0.46792 0.50642 0.0
O100 O 0.94481 0.49089 0.47902 0.0
Mg101 Mg 0.8995 0.56421 0.47911 0.0
Mg102 Mg 0.94348 0.36894 0.46245 0.0
C103 C 0.9955 0.26895 0.50393 0.0
C104 C 0.0365 0.43015 0.46462 0.0
O105 O 0.03791 0.52898 0.57734 0.0
O106 O 0.05941 0.38488 0.57091 0.0
O107 O 0.07367 0.60554 0.53138 0.0
O108 O 0.09856 0.46622 0.52372 0.0
O109 O 0.0303 0.30402 0.50362 0.0
O110 O 0.96549 0.3128 0.49694 0.0
C111 C 0.92058 0.48951 0.55099 0.0
O112 O 0.92016 0.46229 0.53003 0.0
O113 O 0.94806 0.54281 0.55959 0.0
O114 O 0.92659 0.44585 0.43053 0.0
O115 O 0.90281 0.58216 0.4443 0.0
O116 O 0.87592 0.35057 0.47106 0.0
C117 C 0.91432 0.52693 0.42793 0.0
O118 O 0.84988 0.48046 0.48655 0.0
O119 O 0.91894 0.67352 0.50318 0.0
C120 C 0.84679 0.39614 0.48021 0.0
O121 O 0.97696 0.62029 0.51558 0.0
O122 O 0.0319 0.46819 0.48447 0.0
O123 O 0.00801 0.38854 0.45396 0.0
C124 C 0.36247 0.68 0.67982 0.0
C125 C 0.41022 0.56859 0.73849 0.0
C126 C 0.25692 0.45381 0.75122 0.0
Mg127 Mg 0.36149 0.73227 0.73112 0.0
O128 O 0.31244 0.67114 0.72561 0.0
Mg129 Mg 0.31764 0.54205 0.71455 0.0
Mg130 Mg 0.28057 0.66242 0.75304 0.0
O131 O 0.25108 0.659 0.78205 0.0
Mg132 Mg 0.20585 0.58994 0.78641 0.0
Mg133 Mg 0.24955 0.79339 0.79048 0.0
C134 C 0.30331 0.87213 0.75247 0.0
C135 C 0.33942 0.71371 0.79528 0.0
O136 O 0.34439 0.60422 0.68256 0.0
O137 O 0.37245 0.73677 0.69632 0.0
O138 O 0.38259 0.52445 0.72747 0.0
O139 O 0.40636 0.65225 0.74489 0.0
O140 O 0.34027 0.85003 0.75117 0.0
O141 O 0.27597 0.81431 0.75593 0.0
C142 C 0.22379 0.59316 0.71059 0.0
O143 O 0.22416 0.64169 0.72955 0.0
O144 O 0.25542 0.55562 0.70234 0.0
O145 O 0.22431 0.76131 0.82439 0.0
O146 O 0.20014 0.61879 0.82298 0.0
O147 O 0.18462 0.80548 0.77668 0.0
C148 C 0.20862 0.69546 0.83389 0.0
O149 O 0.1597 0.66426 0.77148 0.0
O150 O 0.22769 0.47075 0.76506 0.0
C151 C 0.15655 0.74973 0.77022 0.0
O152 O 0.28518 0.51115 0.74848 0.0
O153 O 0.3355 0.67138 0.77584 0.0
O154 O 0.31252 0.76878 0.80335 0.0
C155 C 0.86263 0.14528 0.67585 0.0
C156 C 0.90497 0.05733 0.73934 0.0
C157 C 0.74891 0.02732 0.76298 0.0
Mg158 Mg 0.87475 0.23624 0.72412 0.0
O159 O 0.82159 0.19542 0.72583 0.0
Mg160 Mg 0.80979 0.06421 0.71842 0.0
Mg161 Mg 0.79009 0.21919 0.75378 0.0
O162 O 0.75957 0.24659 0.78251 0.0
Mg163 Mg 0.70806 0.20745 0.78749 0.0
Mg164 Mg 0.77317 0.37815 0.78809 0.0
C165 C 0.83819 0.40977 0.75018 0.0
C166 C 0.84828 0.24401 0.79697 0.0
O167 O 0.83902 0.08512 0.68312 0.0
O168 O 0.87924 0.20795 0.68884 0.0
O169 O 0.87154 0.0224 0.73234 0.0
O170 O 0.91192 0.14238 0.73973 0.0
O171 O 0.86745 0.37629 0.73837 0.0
O172 O 0.8073 0.36375 0.75477 0.0
C173 C 0.72879 0.1775 0.71171 0.0
O174 O 0.73539 0.23083 0.72953 0.0
O175 O 0.7521 0.11201 0.70543 0.0
O176 O 0.73974 0.38336 0.8218 0.0
O177 O 0.70182 0.2581 0.82268 0.0
O178 O 0.71393 0.42053 0.771 0.0
C179 C 0.71595 0.33301 0.83206 0.0
O180 O 0.67505 0.29506 0.76774 0.0
O181 O 0.72204 0.0655 0.77604 0.0
C182 C 0.68181 0.37806 0.76444 0.0
O183 O 0.77564 0.07267 0.75329 0.0
O184 O 0.84227 0.20157 0.77766 0.0
O185 O 0.82804 0.31496 0.80383 0.0
C186 C 0.56382 0.07756 0.57911 0.0
C187 C 0.5866 0.14451 0.51171 0.0
C188 C 0.43333 0.17724 0.50151 0.0
Mg189 Mg 0.56502 0.96592 0.53227 0.0
O190 O 0.51194 0.00318 0.53242 0.0
Mg191 Mg 0.49932 0.13542 0.53975 0.0
Mg192 Mg 0.478 -0.01802 0.50484 0.0
O193 O 0.44323 0.96268 0.47792 0.0
Mg194 Mg 0.39014 0.00316 0.4789 0.0
Mg195 Mg 0.45296 0.83173 0.46975 0.0
C196 C 0.5237 0.79045 0.50633 0.0
C197 C 0.53374 0.94318 0.4604 0.0
O198 O 0.5365 0.1285 0.57197 0.0
O199 O 0.57883 0.00993 0.56704 0.0
O200 O 0.55626 0.18344 0.5214 0.0
O201 O 0.59368 0.05985 0.5122 0.0
O202 O 0.5536 0.82509 0.51777 0.0
O203 O 0.49195 0.83521 0.5025 0.0
C204 C 0.42321 0.00548 0.54958 0.0
O205 O 0.42805 0.96401 0.53007 0.0
O206 O 0.445 0.0741 0.55652 0.0
O207 O 0.41904 0.85301 0.43642 0.0
O208 O 0.37943 0.97481 0.44394 0.0
O209 O 0.39362 0.78965 0.48658 0.0
C210 C 0.3944 0.9127 0.43023 0.0
O211 O 0.35614 0.91125 0.49678 0.0
O212 O 0.40233 0.14287 0.49126 0.0
C213 C 0.36213 0.82583 0.49571 0.0
O214 O 0.46259 0.1284 0.50711 0.0
O215 O 0.53016 -0.00652 0.47897 0.0
O216 O 0.50867 0.88045 0.45433 0.0
C217 C 0.5709 0.55344 0.08217 0.0
C218 C 0.59768 0.63144 0.01706 0.0
C219 C 0.44485 0.65918 0.00551 0.0
Mg220 Mg 0.57609 0.44967 0.0343 0.0
O221 O 0.52215 0.47915 0.03413 0.0
Mg222 Mg 0.50805 0.60961 0.04235 0.0
Mg223 Mg 0.49189 0.46393 0.00499 0.0
O224 O 0.46156 0.45303 0.97665 0.0
Mg225 Mg 0.40851 0.49378 0.97734 0.0
Mg226 Mg 0.47181 0.32372 0.96631 0.0
C227 C 0.53681 0.27286 0.00704 0.0
C228 C 0.55554 0.43339 0.9637 0.0
O229 O 0.54217 0.60058 0.07519 0.0
O230 O 0.58845 0.49068 0.06962 0.0
O231 O 0.56608 0.66456 0.02672 0.0
O232 O 0.60516 0.54658 0.01569 0.0
O233 O 0.56528 0.31186 0.01891 0.0
O234 O 0.5057 0.3159 1.00106 0.0
C235 C 0.43131 0.47499 0.04737 0.0
O236 O 0.43855 0.43785 0.02764 0.0
O237 O 0.45229 0.5423 0.05604 0.0
O238 O 0.44185 0.36188 0.93203 0.0
O239 O 0.40125 0.47917 0.94247 0.0
O240 O 0.41004 0.27626 0.9795 0.0
C241 C 0.41763 0.42557 0.92729 0.0
O242 O 0.37312 0.39598 0.99189 0.0
O243 O 0.41535 0.62998 0.99326 0.0
C244 C 0.37835 0.31052 0.98881 0.0
O245 O 0.47488 0.60947 0.00929 0.0
O246 O 0.54789 0.48278 0.98199 0.0
O247 O 0.53111 0.37283 0.95534 0.0
H248 H 0.09136 0.96248 0.11641 0.0
H249 H 0.05382 0.2344 0.10404 0.0
H250 H 0.07974 0.29299 0.14104 0.0
H251 H 0.07343 -0.01227 0.17894 0.0
H252 H 0.11711 0.92098 0.18382 0.0
H253 H 0.08852 0.89794 0.1584 0.0
H254 H 0.15258 0.91762 0.13487 0.0
H255 H 0.18119 0.94025 0.1601 0.0
H256 H 0.18118 0.0214 0.13934 0.0
H257 H 0.12023 0.32641 0.17681 0.0
H258 H 0.1728 0.32867 0.20628 0.0
H259 H 0.18161 0.0357 0.19534 0.0
C260 C 0.08756 0.03389 0.1217 0.0
C261 C 0.07062 0.09351 0.1072 0.0
C262 C 0.06669 0.1869 0.11477 0.0
C263 C 0.08114 0.22101 0.13588 0.0
C264 C 0.09895 0.16089 0.14948 0.0
C265 C 0.10174 0.069 0.14274 0.0
C266 C 0.126 0.02005 0.15919 0.0
C267 C 0.09969 0.9527 0.17078 0.0
C268 C 0.16238 0.97212 0.14769 0.0
C269 C 0.13853 0.09938 0.17543 0.0
C270 C 0.12195 0.18004 0.17001 0.0
C271 C 0.13276 0.26334 0.18148 0.0
C272 C 0.1625 0.26425 0.19824 0.0
C273 C 0.18121 0.18248 0.20295 0.0
C274 C 0.16763 0.09927 0.19208 0.0
H275 H 0.94745 0.08149 0.08839 0.0
H276 H 0.86747 0.93774 0.04047 0.0
H277 H 0.84364 0.84337 0.06984 0.0
H278 H 0.98037 0.89273 0.11127 0.0
H279 H 0.98501 0.94364 0.13962 0.0
H280 H 0.98945 0.01302 0.11658 0.0
H281 H 0.93254 0.11811 0.13231 0.0
H282 H 0.92889 0.05176 0.15603 0.0
H283 H 0.88516 0.06932 0.13934 0.0
H284 H 0.83421 0.75305 0.10445 0.0
H285 H 0.8352 0.68894 0.14135 0.0
H286 H 0.92751 0.88359 0.16387 0.0
C287 C 0.92352 0.03333 0.08419 0.0
C288 C 0.90886 0.01835 0.06202 0.0
C289 C 0.87862 0.95179 0.05732 0.0
C290 C 0.86527 0.89702 0.07389 0.0
C291 C 0.88274 0.90913 0.09511 0.0
C292 C 0.91082 -0.02325 0.10031 0.0
C293 C 0.92794 0.97135 0.1235 0.0
C294 C 0.97336 0.9541 0.12267 0.0
C295 C 0.91801 0.05773 0.13869 0.0
C296 C 0.90541 0.88969 0.13054 0.0
C297 C 0.87919 0.85473 0.11414 0.0
C298 C 0.85469 0.78009 0.11739 0.0
C299 C 0.85585 0.74314 0.13829 0.0
C300 C 0.8816 0.78054 0.15556 0.0
C301 C 0.90753 0.85274 0.15111 0.0
H302 H 0.05768 0.52136 0.42945 0.0
H303 H 0.09931 0.3223 0.47275 0.0
H304 H 0.15107 0.27211 0.44487 0.0
H305 H 0.0611 0.39202 0.38164 0.0
H306 H 0.07876 0.47504 0.36362 0.0
H307 H 0.05196 0.51126 0.38878 0.0
H308 H 0.11067 0.61612 0.4028 0.0
H309 H 0.13734 0.58286 0.37727 0.0
H310 H 0.16045 0.57021 0.404 0.0
H311 H 0.18599 0.21964 0.40859 0.0
H312 H 0.20998 0.18799 0.36946 0.0
H313 H 0.14837 0.42714 0.3507 0.0
C314 C 0.07944 0.47129 0.43359 0.0
C315 C 0.07552 0.42731 0.45341 0.0
C316 C 0.10291 0.35865 0.45795 0.0
C317 C 0.13206 0.32917 0.44209 0.0
C318 C 0.13365 0.37024 0.422 0.0
C319 C 0.10892 0.44211 0.41805 0.0
C320 C 0.11388 0.46913 0.39441 0.0
C321 C 0.07407 0.46133 0.38137 0.0
C322 C 0.13166 0.56528 0.39464 0.0
C323 C 0.14349 0.39816 0.38525 0.0
C324 C 0.15467 0.34167 0.40137 0.0
C325 C 0.1784 0.26513 0.39605 0.0
C326 C 0.19153 0.24702 0.37382 0.0
C327 C 0.1811 0.30566 0.35737 0.0
C328 C 0.15711 0.38228 0.3632 0.0
H329 H 0.85205 0.64258 0.30653 0.0
H330 H 0.90242 0.90853 0.32566 0.0
H331 H 0.93789 0.84667 0.35716 0.0
H332 H 0.82535 0.6012 0.35813 0.0
H333 H 0.83507 0.48083 0.35624 0.0
H334 H 0.82431 0.53533 0.33131 0.0
H335 H 0.89057 0.47644 0.31342 0.0
H336 H 0.90163 0.42007 0.33819 0.0
H337 H 0.93712 0.49911 0.32811 0.0
H338 H 0.95635 0.76773 0.38971 0.0
H339 H 0.9539 0.6811 0.42282 0.0
H340 H 0.88762 0.46569 0.38518 0.0
C341 C 0.87228 0.68629 0.31674 0.0
C342 C 0.8757 0.77957 0.31343 0.0
C343 C 0.90039 0.83655 0.32771 0.0
C344 C 0.92064 0.80175 0.34556 0.0
C345 C 0.91528 0.71024 0.34905 0.0
C346 C 0.89167 0.65302 0.33505 0.0
C347 C 0.88468 0.56278 0.34486 0.0
C348 C 0.8397 0.54406 0.34781 0.0
C349 C 0.90471 0.48499 0.33028 0.0
C350 C 0.90581 0.58048 0.36728 0.0
C351 C 0.9244 0.66482 0.36885 0.0
C352 C 0.94263 0.70102 0.38852 0.0
C353 C 0.94083 0.65151 0.40728 0.0
C354 C 0.92065 0.56687 0.40647 0.0
C355 C 0.90392 0.52938 0.38603 0.0
H356 H 0.11258 0.36629 0.60446 0.0
H357 H 0.01784 0.56296 0.61801 0.0
H358 H 0.04573 0.60498 0.6555 0.0
H359 H 0.12373 0.30596 0.66545 0.0
H360 H 0.17715 0.29585 0.66204 0.0
H361 H 0.14434 0.26555 0.63863 0.0
H362 H 0.1827 0.37716 0.61528 0.0
H363 H 0.21511 0.40876 0.63858 0.0
H364 H 0.18721 0.49488 0.62585 0.0
H365 H 0.09237 0.65081 0.68776 0.0
H366 H 0.15108 0.68437 0.71272 0.0
H367 H 0.21266 0.45328 0.67896 0.0
C368 C 0.09669 0.41487 0.61574 0.0
C369 C 0.06324 0.46145 0.60829 0.0
C370 C 0.04378 0.52666 0.62333 0.0
C371 C 0.05927 0.55089 0.64475 0.0
C372 C 0.09391 0.50822 0.65114 0.0
C373 C 0.11182 0.43979 0.63729 0.0
C374 C 0.15119 0.41202 0.64702 0.0
C375 C 0.14895 0.31403 0.65369 0.0
C376 C 0.18607 0.42401 0.63072 0.0
C377 C 0.1538 0.47955 0.66749 0.0
C378 C 0.12031 0.53365 0.66994 0.0
C379 C 0.11833 0.60711 0.68638 0.0
C380 C 0.15171 0.62597 0.70048 0.0
C381 C 0.18644 0.57192 0.69781 0.0
C382 C 0.18668 0.49657 0.68147 0.0
H383 H 0.92829 0.20059 0.65482 0.0
H384 H 0.80468 0.12222 0.6432 0.0
H385 H 0.80586 0.19245 0.60708 0.0
H386 H 0.91927 0.41006 0.64089 0.0
H387 H 0.96713 0.42059 0.62753 0.0
H388 H 0.96105 0.34216 0.64848 0.0
H389 H 0.9847 0.20782 0.62094 0.0
H390 H 0.99291 0.28685 0.60015 0.0
H391 H 0.96145 0.18862 0.59375 0.0
H392 H 0.81965 0.29394 0.57402 0.0
H393 H 0.84482 0.40785 0.54894 0.0
H394 H 0.95543 0.42891 0.58693 0.0
C395 C 0.90209 0.19414 0.64412 0.0
C396 C 0.86663 0.15481 0.65158 0.0
C397 C 0.8325 0.14985 0.63747 0.0
C398 C 0.83284 0.19055 0.61703 0.0
C399 C 0.86766 0.23512 0.61097 0.0
C400 C 0.90189 0.23526 0.62406 0.0
C401 C 0.93382 0.29696 0.61598 0.0
C402 C 0.94597 0.37181 0.63431 0.0
C403 C 0.97036 0.24175 0.60717 0.0
C404 C 0.91165 0.33578 0.59714 0.0
C405 C 0.87407 0.29786 0.59376 0.0
C406 C 0.84903 0.32405 0.5767 0.0
C407 C 0.86323 0.38951 0.56271 0.0
C408 C 0.90132 0.43033 0.56659 0.0
C409 C 0.92542 0.40236 0.58405 0.0
H410 H 0.14951 0.6149 0.85736 0.0
H411 H 0.24221 0.82168 0.86424 0.0
H412 H 0.21576 0.87696 0.90127 0.0
H413 H 0.07382 0.74776 0.87773 0.0
H414 H 0.04824 0.66445 0.89278 0.0
H415 H 0.07911 0.62831 0.86918 0.0
H416 H 0.12068 0.52767 0.89382 0.0
H417 H 0.08959 0.56304 0.91755 0.0
H418 H 0.14309 0.57765 0.9194 0.0
H419 H 0.17172 0.92842 0.93423 0.0
H420 H 0.11549 0.96441 0.96054 0.0
H421 H 0.0537 0.72108 0.93281 0.0
C422 C 0.1652 0.66926 0.86707 0.0
C423 C 0.19789 0.71381 0.85788 0.0
C424 C 0.21698 0.78653 0.87089 0.0
C425 C 0.20229 0.81835 0.89203 0.0
C426 C 0.16871 0.77613 0.90017 0.0
C427 C 0.15084 0.70197 0.88827 0.0
C428 C 0.11272 0.67488 0.89959 0.0
C429 C 0.07636 0.67919 0.88389 0.0
C430 C 0.11678 0.58019 0.9081 0.0
C431 C 0.11091 0.74811 0.9189 0.0
C432 C 0.14368 0.80525 0.91927 0.0
C433 C 0.14635 0.88276 0.93443 0.0
C434 C 0.11437 0.90281 0.94935 0.0
C435 C 0.08025 0.84576 0.94882 0.0
C436 C 0.07931 0.76641 0.93373 0.0
H437 H 0.82733 0.24432 0.84032 0.0
H438 H 0.91088 0.12174 0.79142 0.0
H439 H 0.93163 0.01271 0.81854 0.0
H440 H 0.88324 0.21776 0.8907 0.0
H441 H 0.83868 0.19173 0.90583 0.0
H442 H 0.83565 0.26372 0.88323 0.0
H443 H 0.78155 0.156 0.86444 0.0
H444 H 0.78565 0.08151 0.88653 0.0
H445 H 0.793 0.03754 0.85781 0.0
H446 H 0.9429 0.91776 0.85298 0.0
H447 H 0.94513 0.85588 0.89024 0.0
H448 H 0.84534 0.02802 0.91194 0.0
C449 C 0.85106 0.19685 0.83548 0.0
C450 C 0.86844 0.19349 0.814 0.0
C451 C 0.89796 0.12701 0.80804 0.0
C452 C 0.9095 0.06418 0.82325 0.0
C453 C 0.89026 0.06716 0.84401 0.0
C454 C 0.86159 0.13209 0.84995 0.0
C455 C 0.84316 0.11906 0.87239 0.0
C456 C 0.85067 0.20299 0.88901 0.0
C457 C 0.79819 0.09721 0.87014 0.0
C458 C 0.86651 0.03776 0.8786 0.0
C459 C 0.89382 0.00843 0.86225 0.0
C460 C 0.92112 0.93935 0.86568 0.0
C461 C 0.92183 0.90343 0.88677 0.0
C462 C 0.89514 0.93641 0.90392 0.0
C463 C 0.86584 0.00048 0.89911 0.0
H464 H 0.73682 0.18263 0.66763 0.0
H465 H 0.64778 0.19462 0.7202 0.0
H466 H 0.59393 0.18458 0.69135 0.0
H467 H 0.68125 0.29605 0.62467 0.0
H468 H 0.70007 0.21712 0.60254 0.0
H469 H 0.73 0.24601 0.62718 0.0
H470 H 0.73562 0.07508 0.63336 0.0
H471 H 0.70533 0.0458 0.609 0.0
H472 H 0.69071 0.00876 0.63568 0.0
H473 H 0.55052 0.15888 0.65585 0.0
H474 H 0.52226 0.11435 0.61808 0.0
H475 H 0.64192 0.09866 0.59038 0.0
C476 C 0.7059 0.18662 0.67307 0.0
C477 C 0.69616 0.19294 0.69604 0.0
C478 C 0.6556 0.19368 0.70264 0.0
C479 C 0.625 0.18712 0.68637 0.0
C480 C 0.63582 0.17763 0.66373 0.0
C481 C 0.67548 0.17714 0.65719 0.0
C482 C 0.68011 0.15348 0.63228 0.0
C483 C 0.69895 0.23292 0.62101 0.0
C484 C 0.70436 0.06558 0.62731 0.0
C485 C 0.63686 0.13941 0.62566 0.0
C486 C 0.61155 0.15537 0.64385 0.0
C487 C 0.57014 0.14629 0.64157 0.0
C488 C 0.55439 0.12068 0.62016 0.0
C489 C 0.58015 0.10187 0.60161 0.0
C490 C 0.62176 0.11125 0.60445 0.0
H491 H 0.42529 0.03784 0.59514 0.0
H492 H 0.3699 0.86407 0.54167 0.0
H493 H 0.34609 0.76144 0.56916 0.0
H494 H 0.46433 0.86769 0.62281 0.0
H495 H 0.45673 0.92031 0.65077 0.0
H496 H 0.46254 -0.01027 0.62781 0.0
H497 H 0.39462 0.06828 0.6371 0.0
H498 H 0.3891 0.00124 0.66061 0.0
H499 H 0.35035 -0.00011 0.63965 0.0
H500 H 0.33612 0.66687 0.6026 0.0
H501 H 0.33474 0.59978 0.63912 0.0
H502 H 0.40074 0.83352 0.66916 0.0
C503 C 0.40677 -0.01964 0.58922 0.0
C504 C 0.39924 0.9596 0.56614 0.0
C505 C 0.37573 0.88202 0.55921 0.0
C506 C 0.36232 0.82285 0.57474 0.0
C507 C 0.37265 0.84226 0.5972 0.0
C508 C 0.39373 0.92019 0.60443 0.0
C509 C 0.40399 0.9224 0.62903 0.0
C510 C 0.44959 0.92517 0.6328 0.0
C511 C 0.38327 0.00269 0.64238 0.0
C512 C 0.38632 0.83259 0.6344 0.0
C513 C 0.36802 0.78732 0.61599 0.0
C514 C 0.3501 0.70224 0.61717 0.0
C515 C 0.34984 0.66413 0.63791 0.0
C516 C 0.36769 0.7109 0.65708 0.0
C517 C 0.38676 0.79538 0.65495 0.0
H518 H 0.59656 0.29354 0.94395 0.0
H519 H 0.59838 0.58721 0.95461 0.0
H520 H 0.65006 0.59202 0.92488 0.0
H521 H 0.70474 0.25875 0.92599 0.0
H522 H 0.69001 0.16745 0.90567 0.0
H523 H 0.66273 0.18731 0.93157 0.0
H524 H 0.59705 0.19874 0.90901 0.0
H525 H 0.62394 0.18114 0.88311 0.0
H526 H 0.59352 0.28108 0.88861 0.0
H527 H 0.6911 0.56353 0.88896 0.0
H528 H 0.71803 0.50734 0.85195 0.0
H529 H 0.68454 0.2322 0.86413 0.0
C530 C 0.60898 0.35886 0.94062 0.0
C531 C 0.59363 0.44007 0.95147 0.0
C532 C 0.61016 0.52428 0.94663 0.0
C533 C 0.63935 0.52735 0.9297 0.0
C534 C 0.65167 0.44561 0.91814 0.0
C535 C 0.63736 0.36278 0.92376 0.0
C536 C 0.65034 0.28538 0.90714 0.0
C537 C 0.67865 0.22093 0.91826 0.0
C538 C 0.61406 0.23367 0.89634 0.0
C539 C 0.67236 0.33756 0.89042 0.0
C540 C 0.67388 0.42953 0.89727 0.0
C541 C 0.69063 0.49154 0.88372 0.0
C542 C 0.70577 0.45888 0.86267 0.0
C543 C 0.70328 0.36521 0.85511 0.0
C544 C 0.68688 0.30404 0.86941 0.0
H545 H 0.37593 0.56954 0.91468 0.0
H546 H 0.44845 0.3433 0.88712 0.0
H547 H 0.44429 0.40369 0.84966 0.0
H548 H 0.31128 0.58694 0.86905 0.0
H549 H 0.30986 0.70917 0.87314 0.0
H550 H 0.31858 0.64408 0.89659 0.0
H551 H 0.38415 0.73562 0.90529 0.0
H552 H 0.37612 0.799 0.88136 0.0
H553 H 0.42217 0.73769 0.88403 0.0
H554 H 0.42718 0.48906 0.81458 0.0
H555 H 0.39656 0.58071 0.78662 0.0
H556 H 0.34459 0.75884 0.84017 0.0
C557 C 0.39095 0.53127 0.90092 0.0
C558 C 0.41232 0.45072 0.90397 0.0
C559 C 0.43153 0.40449 0.88523 0.0
C560 C 0.42965 0.43895 0.86398 0.0
C561 C 0.40925 0.52049 0.86197 0.0
C562 C 0.39037 0.56561 0.88011 0.0
C563 C 0.37028 0.65164 0.87423 0.0
C564 C 0.32484 0.64763 0.87849 0.0
C565 C 0.38934 0.73594 0.88699 0.0
C566 C 0.37967 0.64757 0.84959 0.0
C567 C 0.40214 0.57173 0.84264 0.0
C568 C 0.41031 0.54939 0.82001 0.0
C569 C 0.39319 0.6028 0.80419 0.0
C570 C 0.36853 0.67822 0.81108 0.0
C571 C 0.36384 0.70313 0.83418 0.0
H572 H 0.64842 0.59072 0.09203 0.0
H573 H 0.53022 0.58967 0.12153 0.0
H574 H 0.55792 0.65935 0.15756 0.0
H575 H 0.70543 0.54293 0.13988 0.0
H576 H 0.74547 0.61905 0.13381 0.0
H577 H 0.71538 0.56629 0.11138 0.0
H578 H 0.69922 0.72603 0.09889 0.0
H579 H 0.72836 0.77896 0.12179 0.0
H580 H 0.67672 0.81014 0.11856 0.0
H581 H 0.6012 0.72087 0.19127 0.0
H582 H 0.65542 0.76331 0.21867 0.0
H583 H 0.74179 0.74176 0.16463 0.0
C584 C 0.62859 0.60347 0.10624 0.0
C585 C 0.58755 0.58279 0.10437 0.0
C586 C 0.56201 0.60363 0.12295 0.0
C587 C 0.5774 0.64387 0.14333 0.0
C588 C 0.61809 0.66533 0.14452 0.0
C589 C 0.64316 0.64616 0.12635 0.0
C590 C 0.68544 0.67728 0.13153 0.0
C591 C 0.71463 0.59659 0.12902 0.0
C592 C 0.69816 0.75258 0.11682 0.0
C593 C 0.68072 0.71405 0.1557 0.0
C594 C 0.64177 0.70712 0.16306 0.0
C595 C 0.63161 0.7287 0.18556 0.0
C596 C 0.66245 0.75378 0.201 0.0
C597 C 0.70261 0.75679 0.19369 0.0
C598 C 0.7112 0.74121 0.17062 0.0
H599 H 0.37825 0.353 0.16766 0.0
H600 H 0.34092 0.08376 0.14047 0.0
H601 H 0.34712 0.13378 0.10196 0.0
H602 H 0.32662 0.47924 0.12755 0.0
H603 H 0.36612 0.56267 0.12753 0.0
H604 H 0.35654 0.50558 0.15234 0.0
H605 H 0.4304 0.45199 0.15292 0.0
H606 H 0.44031 0.51024 0.12844 0.0
H607 H 0.45112 0.39077 0.12827 0.0
H608 H 0.36355 0.21518 0.06614 0.0
H609 H 0.39156 0.31147 0.03823 0.0
H610 H 0.41304 0.52695 0.09089 0.0
C611 C 0.37134 0.30347 0.15377 0.0
C612 C 0.35959 0.21365 0.1572 0.0
C613 C 0.35029 0.15265 0.13831 0.0
C614 C 0.35348 0.18081 0.11642 0.0
C615 C 0.36515 0.27051 0.11385 0.0
C616 C 0.37373 0.33053 0.1322 0.0
C617 C 0.38716 0.42207 0.12561 0.0
C618 C 0.35732 0.49677 0.13374 0.0
C619 C 0.42976 0.44502 0.13431 0.0
C620 C 0.38624 0.40427 0.10047 0.0
C621 C 0.37312 0.31702 0.09381 0.0
C622 C 0.37327 0.28383 0.07127 0.0
C623 C 0.38899 0.3395 0.05547 0.0
C624 C 0.40444 0.42735 0.06229 0.0
C625 C 0.40114 0.46088 0.08497 0.0
H626 H 0.52618 0.9373 0.4158 0.0
H627 H 0.61446 0.96566 0.46894 0.0
H628 H 0.6687 0.95516 0.44047 0.0
H629 H 0.57519 0.76447 0.3847 0.0
H630 H 0.56073 0.79852 0.3577 0.0
H631 H 0.5294 0.82643 0.38169 0.0
H632 H 0.53267 -0.00302 0.37512 0.0
H633 H 0.56335 0.9699 0.35077 0.0
H634 H 0.58068 0.0515 0.37283 0.0
H635 H 0.71274 0.93155 0.4055 0.0
H636 H 0.74251 0.89333 0.36796 0.0
H637 H 0.62381 0.86116 0.33912 0.0
C638 C 0.55697 0.94412 0.42143 0.0
C639 C 0.56636 0.95555 0.44447 0.0
C640 C 0.60683 0.96068 0.45131 0.0
C641 C 0.63767 0.95378 0.43526 0.0
C642 C 0.62722 0.9397 0.41261 0.0
C643 C 0.58772 0.93486 0.40578 0.0
C644 C 0.58383 0.90962 0.38086 0.0
C645 C 0.56095 0.8194 0.37597 0.0
C646 C 0.56398 -0.01339 0.36921 0.0
C647 C 0.62741 0.89963 0.3746 0.0
C648 C 0.6521 0.91886 0.393 0.0
C649 C 0.69365 0.91602 0.39106 0.0
C650 C 0.71026 0.89393 0.36976 0.0
C651 C 0.68531 0.87266 0.3509 0.0
C652 C 0.64345 0.87501 0.35343 0.0
H653 H 0.32829 0.97342 0.41029 0.0
H654 H 0.45049 0.88819 0.39705 0.0
H655 H 0.44911 0.96036 0.36131 0.0
H656 H 0.29356 0.95592 0.34989 0.0
H657 H 0.2625 0.05469 0.35554 0.0
H658 H 0.2711 -0.02052 0.37712 0.0
H659 H 0.29609 0.11698 0.4033 0.0
H660 H 0.2893 0.19207 0.38162 0.0
H661 H 0.33762 0.18386 0.39466 0.0
H662 H 0.43713 0.06625 0.32996 0.0
H663 H 0.4119 0.17594 0.30385 0.0
H664 H 0.29918 0.19085 0.33946 0.0
C665 C 0.35407 0.96619 0.39934 0.0
C666 C 0.38926 0.92449 0.40624 0.0
C667 C 0.42286 0.91806 0.39178 0.0
C668 C 0.4225 0.9599 0.37159 0.0
C669 C 0.3881 0.00637 0.36604 0.0
C670 C 0.35411 0.00729 0.37927 0.0
C671 C 0.32204 0.06744 0.37087 0.0
C672 C 0.28513 0.011 0.36287 0.0
C673 C 0.31064 0.14461 0.38868 0.0
C674 C 0.34378 0.10357 0.35148 0.0
C675 C 0.38166 0.06732 0.34862 0.0
C676 C 0.40723 0.09369 0.33186 0.0
C677 C 0.39294 0.15599 0.31722 0.0
C678 C 0.35389 0.19143 0.31979 0.0
C679 C 0.32952 0.16584 0.33735 0.0
H680 H 0.05701 0.63217 0.02525 0.0
H681 H 0.97741 0.69495 0.97191 0.0
H682 H 0.9935 0.55351 0.95099 0.0
H683 H 0.12108 0.44143 0.98775 0.0
H684 H 0.12047 0.37213 0.01101 0.0
H685 H 0.1262 0.49383 0.01592 0.0
H686 H 0.06586 0.50078 0.04281 0.0
H687 H 0.0607 0.38047 0.03846 0.0
H688 H 0.01862 0.45194 0.0332 0.0
H689 H 0.99508 0.39897 0.94227 0.0
H690 H 0.96633 0.25561 0.95166 0.0
H691 H 0.03642 0.26867 0.01263 0.0
C692 C 0.04406 0.61663 0.00879 0.0
C693 C 0.01715 0.67708 0.99981 0.0
C694 C 0.99943 0.65322 0.97882 0.0
C695 C 0.00898 0.57216 0.96659 0.0
C696 C 0.03438 0.51189 0.97617 0.0
C697 C 0.05143 0.53271 0.99712 0.0
C698 C 0.06533 0.4481 0.00725 0.0
C699 C 0.11099 0.4384 0.00535 0.0
C700 C 0.05167 0.44523 0.03183 0.0
C701 C 0.04481 0.3776 0.99138 0.0
C702 C 0.03175 0.41491 0.97218 0.0
C703 C 0.00547 0.36912 0.95706 0.0
C704 C 0.98844 0.28889 0.96283 0.0
C705 C 0.99815 0.25497 0.98343 0.0
C706 C 0.02862 0.29553 0.997 0.0
H707 H 0.35456 0.55934 0.24079 0.0
H708 H 0.29798 0.48766 0.30181 0.0
H709 H 0.27342 0.64368 0.3092 0.0
H710 H 0.37689 0.81462 0.26438 0.0
H711 H 0.36898 0.84836 0.23655 0.0
H712 H 0.39208 0.74082 0.24034 0.0
H713 H 0.33802 0.66391 0.21388 0.0
H714 H 0.31298 0.76985 0.21149 0.0
H715 H 0.28593 0.67562 0.22144 0.0
H716 H 0.23671 0.77927 0.30245 0.0
H717 H 0.20825 0.91942 0.29055 0.0
H718 H 0.29353 0.91363 0.23567 0.0
C719 C 0.33911 0.57821 0.25638 0.0
C720 C 0.32617 0.51179 0.27022 0.0
C721 C 0.30589 0.53722 0.2904 0.0
C722 C 0.29253 0.62593 0.29492 0.0
C723 C 0.30143 0.68783 0.27947 0.0
C724 C 0.3262 0.66713 0.26127 0.0
C725 C 0.3274 0.74352 0.24604 0.0
C726 C 0.36878 0.78959 0.2469 0.0
C727 C 0.31534 0.71117 0.2218 0.0
C728 C 0.29612 0.80505 0.25725 0.0
C729 C 0.28176 0.77159 0.27652 0.0
C730 C 0.249 0.80909 0.28808 0.0
C731 C 0.2324 0.88743 0.28078 0.0
C732 C 0.2492 0.92795 0.26233 0.0
C733 C 0.28056 0.88456 0.24998 0.0
H734 H 0.86861 0.13234 0.24012 0.0
H735 H 0.80425 0.05792 0.29845 0.0
H736 H 0.78491 0.2165 0.30747 0.0
H737 H 0.89412 0.38556 0.26671 0.0
H738 H 0.88889 0.42272 0.23902 0.0
H739 H 0.9108 0.31365 0.24267 0.0
H740 H 0.85896 0.24163 0.21425 0.0
H741 H 0.83528 0.34884 0.21177 0.0
H742 H 0.80627 0.2547 0.22027 0.0
H743 H 0.75157 0.35495 0.30095 0.0
H744 H 0.72255 0.49129 0.28742 0.0
H745 H 0.81184 0.48579 0.2346 0.0
C746 C 0.85242 0.15069 0.25549 0.0
C747 C 0.83585 0.08359 0.26796 0.0
C748 C 0.81483 0.10824 0.28792 0.0
C749 C 0.80464 0.19852 0.29348 0.0
C750 C 0.81703 0.26229 0.2792 0.0
C751 C 0.8423 0.24084 0.26123 0.0
C752 C 0.84582 0.31845 0.2465 0.0
C753 C 0.88741 0.36274 0.2489 0.0
C754 C 0.83595 0.28901 0.22176 0.0
C755 C 0.81427 0.38049 0.25713 0.0
C756 C 0.79874 0.34763 0.27621 0.0
C757 C 0.76487 0.38442 0.2868 0.0
C758 C 0.74794 0.46043 0.27853 0.0
C759 C 0.76533 0.49939 0.26002 0.0
C760 C 0.79838 0.4578 0.24893 0.0
H761 H 0.89754 0.82217 0.52132 0.0
H762 H 0.01725 0.74303 0.53919 0.0
H763 H 0.03249 0.90076 0.55252 0.0
H764 H 0.92031 -0.01905 0.49396 0.0
H765 H 0.88216 0.06372 0.50186 0.0
H766 H 0.8728 0.94649 0.50483 0.0
H767 H 0.85719 -0.01629 0.54696 0.0
H768 H 0.86635 0.10249 0.54398 0.0
H769 H 0.89306 0.04605 0.56485 0.0
H770 H 0.04354 0.06019 0.5504 0.0
H771 H 0.05061 0.19889 0.53142 0.0
H772 H 0.92532 0.1837 0.51257 0.0
C773 C 0.92632 0.83761 0.52905 0.0
C774 C 0.95623 0.77033 0.52911 0.0
C775 C 0.99365 0.79284 0.53913 0.0
C776 C 1.00248 0.88277 0.54691 0.0
C777 C 0.97357 0.94939 0.54466 0.0
C778 C 0.93572 0.9276 0.53636 0.0
C779 C 0.91362 0.01164 0.53034 0.0
C780 C 0.89634 -9e-05 0.50633 0.0
C781 C 0.88061 0.03747 0.54756 0.0
C782 C 0.94734 0.08037 0.53262 0.0
C783 C 0.98059 0.045 0.54259 0.0
C784 C 0.0174 0.08956 0.54323 0.0
C785 C 0.0212 0.16834 0.53215 0.0
C786 C 0.98843 0.20152 0.5203 0.0
C787 C 0.9506 0.16006 0.52172 0.0
H788 H 0.23284 0.96187 0.75553 0.0
H789 H 0.3463 0.94975 0.7205 0.0
H790 H 0.32843 0.08364 0.70175 0.0
H791 H 0.17701 0.09925 0.70766 0.0
H792 H 0.14903 0.16017 0.72981 0.0
H793 H 0.15955 0.04103 0.731 0.0
H794 H 0.1911 0.07624 0.7701 0.0
H795 H 0.18081 0.19394 0.76903 0.0
H796 H 0.23146 0.15792 0.77373 0.0
H797 H 0.31643 0.23827 0.70143 0.0
H798 H 0.31186 0.39062 0.7197 0.0
H799 H 0.20153 0.31949 0.75188 0.0
C800 C 0.25303 -0.01345 0.7433 0.0
C801 C 0.29119 0.94811 0.73998 0.0
C802 C 0.31729 -0.01966 0.7239 0.0
C803 C 0.30688 0.05513 0.71266 0.0
C804 C 0.27034 0.09715 0.71764 0.0
C805 C 0.24306 0.06248 0.73217 0.0
C806 C 0.2108 0.13097 0.73888 0.0
C807 C 0.17182 0.10639 0.72606 0.0
C808 C 0.20328 0.14038 0.76443 0.0
C809 C 0.22984 0.21472 0.73051 0.0
C810 C 0.26217 0.19226 0.71663 0.0
C811 C 0.29028 0.25697 0.71139 0.0
C812 C 0.28758 0.34423 0.72203 0.0
C813 C 0.25624 0.36715 0.73719 0.0
C814 C 0.22568 0.30342 0.74021 0.0
H815 H 0.84086 0.54705 0.72358 0.0
H816 H 0.83041 0.48548 0.79269 0.0
H817 H 0.80218 0.63747 0.80288 0.0
H818 H 0.86671 0.79 0.73726 0.0
H819 H 0.83956 0.82608 0.71353 0.0
H820 H 0.86262 0.71555 0.71186 0.0
H821 H 0.79456 0.63952 0.70151 0.0
H822 H 0.77039 0.74859 0.70329 0.0
H823 H 0.75234 0.66107 0.7199 0.0
H824 H 0.76493 0.78124 0.80399 0.0
H825 H 0.7378 0.93248 0.79887 0.0
H826 H 0.77652 0.90635 0.72946 0.0
C827 C 0.83443 0.56761 0.74101 0.0
C828 C 0.83738 0.50583 0.75744 0.0
C829 C 0.82786 0.53278 0.77999 0.0
C830 C 0.81161 0.61831 0.78585 0.0
C831 C 0.80587 0.67535 0.76891 0.0
C832 C 0.81823 0.6528 0.74713 0.0
C833 C 0.80818 0.72651 0.73216 0.0
C834 C 0.84655 0.76704 0.72311 0.0
C835 C 0.77967 0.69178 0.71309 0.0
C836 C 0.78757 0.79308 0.74886 0.0
C837 C 0.78586 0.76109 0.76982 0.0
C838 C 0.76669 0.80813 0.7878 0.0
C839 C 0.75086 0.89315 0.7846 0.0
C840 C 0.75525 0.93026 0.76375 0.0
C841 C 0.77289 0.8789 0.74551 0.0
H842 H 0.54189 0.6498 0.53058 0.0
H843 H 0.50359 0.71631 0.46493 0.0
H844 H 0.477 0.562 0.45674 0.0
H845 H 0.56587 0.39585 0.51126 0.0
H846 H 0.54952 0.36432 0.53818 0.0
H847 H 0.57379 0.47224 0.53603 0.0
H848 H 0.51242 0.54878 0.55646 0.0
H849 H 0.48695 0.4416 0.55694 0.0
H850 H 0.46342 0.53338 0.54402 0.0
H851 H 0.43873 0.42372 0.46004 0.0
H852 H 0.40945 0.27825 0.46865 0.0
H853 H 0.47693 0.29151 0.53087 0.0
C854 C 0.53007 0.6298 0.51404 0.0
C855 C 0.52374 0.69443 0.49851 0.0
C856 C 0.50752 0.66774 0.47718 0.0
C857 C 0.49255 0.58026 0.47235 0.0
C858 C 0.49543 0.52036 0.48885 0.0
C859 C 0.51554 0.54178 0.50882 0.0
C860 C 0.51175 0.46611 0.52417 0.0
C861 C 0.55265 0.42197 0.52759 0.0
C862 C 0.49248 0.49956 0.54672 0.0
C863 C 0.48406 0.40255 0.51029 0.0
C864 C 0.47489 0.43585 0.49009 0.0
C865 C 0.44676 0.39474 0.47539 0.0
C866 C 0.4296 0.31335 0.4807 0.0
C867 C 0.44127 0.27378 0.50035 0.0
C868 C 0.46791 0.32017 0.51565 0.0
H869 H 0.43143 0.79649 0.97969 0.0
H870 H 0.4676 0.73784 0.04637 0.0
H871 H 0.50159 0.88644 0.05188 0.0
H872 H 0.51656 0.90239 0.96462 0.0
H873 H 0.49361 -0.0085 0.95044 0.0
H874 H 0.46779 0.88509 0.95202 0.0
H875 H 0.40636 0.96675 0.97091 0.0
H876 H 0.43131 0.07337 0.96804 0.0
H877 H 0.41391 0.04631 0.99516 0.0
H878 H 0.54187 0.02264 0.04701 0.0
H879 H 0.56635 0.17256 0.03884 0.0
H880 H 0.49767 0.15314 0.97694 0.0
C881 C 0.44477 0.81699 0.99584 0.0
C882 C 0.4484 0.7556 0.01238 0.0
C883 C 0.46627 0.78333 0.03323 0.0
C884 C 0.48552 0.86726 0.0365 0.0
C885 C 0.48509 0.92266 0.01893 0.0
C886 C 0.46353 0.90122 0.9995 0.0
C887 C 0.46798 0.97367 0.98338 0.0
C888 C 0.48766 0.93582 0.96131 0.0
C889 C 0.42745 0.01762 0.97914 0.0
C890 C 0.49567 0.0386 0.99678 0.0
C891 C 0.50612 0.00594 0.01688 0.0
C892 C 0.53312 0.05054 0.03164 0.0
C893 C 0.54733 0.135 0.02661 0.0
C894 C 0.53337 0.17453 0.00735 0.0
C895 C 0.50856 0.12426 0.99178 0.0
H896 H 0.31385 0.35436 0.01546 0.0
H897 H 0.36462 0.13578 0.97148 0.0
H898 H 0.30333 0.04491 0.97516 0.0
H899 H 0.25606 0.21213 0.05144 0.0
H900 H 0.21483 0.2907 0.05352 0.0
H901 H 0.26507 0.33181 0.05002 0.0
H902 H 0.24254 0.40834 0.01459 0.0
H903 H 0.19255 0.36759 0.01851 0.0
H904 H 0.21769 0.3405 0.99217 0.0
H905 H 0.23507 -0.01803 0.98195 0.0
H906 H 0.16512 0.94963 0.9921 0.0
H907 H 0.15651 0.2168 0.02804 0.0
C908 C 0.31245 0.28658 0.00698 0.0
C909 C 0.34451 0.25097 0.99365 0.0
C910 C 0.3412 0.16271 0.98253 0.0
C911 C 0.30622 0.11123 0.98425 0.0
C912 C 0.27472 0.14966 0.99695 0.0
C913 C 0.27757 0.23514 0.0082 0.0
C914 C 0.23861 0.2633 0.01956 0.0
C915 C 0.24396 0.27515 0.04515 0.0
C916 C 0.22188 0.35003 0.01064 0.0
C917 C 0.21297 0.18127 0.01239 0.0
C918 C 0.23459 0.11586 0.99968 0.0
C919 C 0.21777 0.03278 0.99178 0.0
C920 C 0.17804 0.01532 0.99746 0.0
C921 C 0.15539 0.08158 0.01038 0.0
C922 C 0.17293 0.16601 0.01765 0.0
H923 H 0.8223 0.73247 0.98513 0.0
H924 H 0.80596 0.00348 0.01817 0.0
H925 H 0.73473 0.96973 0.02407 0.0
H926 H 0.72795 0.71873 0.95651 0.0
H927 H 0.71989 0.60032 0.96019 0.0
H928 H 0.7701 0.64422 0.95869 0.0
H929 H 0.78729 0.58564 0.99711 0.0
H930 H 0.73752 0.53949 0.99836 0.0
H931 H 0.75588 0.61738 0.02094 0.0
H932 H 0.66487 0.90856 0.02555 0.0
H933 H 0.60378 0.81542 0.02773 0.0
H934 H 0.66551 0.58553 0.9933 0.0
C935 C 0.80394 0.78421 0.99394 0.0
C936 C 0.81979 0.87058 1.00119 0.0
C937 C 0.79453 0.93674 0.01244 0.0
C938 C 0.75393 0.91857 0.01572 0.0
C939 C 0.73894 0.83408 0.0076 0.0
C940 C 0.76323 0.76746 0.99725 0.0
C941 C 0.73973 0.68158 0.99055 0.0
C942 C 0.73942 0.65999 0.96497 0.0
C943 C 0.75607 0.60131 1.00246 0.0
C944 C 0.69867 0.70998 0.99911 0.0
C945 C 0.69868 0.79864 0.00856 0.0
C946 C 0.66444 0.83898 0.01819 0.0
C947 C 0.62978 0.78573 0.01919 0.0
C948 C 0.62991 0.69301 0.01082 0.0
C949 C 0.6644 0.65616 0.99987 0.0
H950 H 0.10364 0.34288 0.23986 0.0
H951 H 0.14966 0.5316 0.29357 0.0
H952 H 0.08552 0.61243 0.29529 0.0
H953 H 0.04848 0.51875 0.21256 0.0
H954 H 0.00812 0.44257 0.2037 0.0
H955 H 0.05788 0.3989 0.20678 0.0
H956 H 0.03057 0.28634 0.23412 0.0
H957 H 0.98105 0.33084 0.23087 0.0
H958 H 1.00261 0.32985 0.25844 0.0
H959 H 0.01584 0.66348 0.29414 0.0
H960 H 0.94908 0.71252 0.28292 0.0
H961 H 0.94854 0.50281 0.22743 0.0
C962 C 0.10034 0.40238 0.25162 0.0
C963 C 0.13154 0.43096 0.2666 0.0
C964 C 0.12634 0.50911 0.28176 0.0
C965 C 0.08979 0.55468 0.28313 0.0
C966 C 0.05907 0.5225 0.26888 0.0
C967 C 0.06427 0.45062 0.2528 0.0
C968 C 0.02693 0.43486 0.23853 0.0
C969 C 0.03589 0.44971 0.21394 0.0
C970 C 0.00926 0.33981 0.24064 0.0
C971 C 0.99993 0.50853 0.24938 0.0
C972 C 0.01898 0.55638 0.26722 0.0
C973 C 1.00068 0.62746 0.28005 0.0
C974 C 0.96271 0.65435 0.27364 0.0
C975 C 0.94375 0.61117 0.2544 0.0
C976 C 0.96198 0.5354 0.24252 0.0
H977 H 0.29518 0.87379 0.52078 0.0
H978 H 0.35284 0.64481 0.48344 0.0
H979 H 0.29134 0.55441 0.48597 0.0
H980 H 0.23727 0.73289 0.55823 0.0
H981 H 0.1948 0.80792 0.55887 0.0
H982 H 0.24456 0.85243 0.55565 0.0
H983 H 0.22173 0.9209 0.51942 0.0
H984 H 0.17225 0.87447 0.52214 0.0
H985 H 0.20045 0.84743 0.49682 0.0
H986 H 0.22244 0.49699 0.48753 0.0
H987 H 0.15291 0.45912 0.49561 0.0
H988 H 0.13875 0.71981 0.53439 0.0
C989 C 0.29515 0.80392 0.51359 0.0
C990 C 0.3288 0.76661 0.50176 0.0
C991 C 0.32761 0.67492 0.49264 0.0
C992 C 0.29266 0.62319 0.49382 0.0
C993 C 0.25947 0.66354 0.50455 0.0
C994 C 0.26064 0.75062 0.51492 0.0
C995 C 0.2205 0.77677 0.52548 0.0
C996 C 0.22452 0.79346 0.55108 0.0
C997 C 0.2027 0.85983 0.51535 0.0
C998 C 0.19631 0.69151 0.51879 0.0
C999 C 0.21956 0.62789 0.50651 0.0
C1000 C 0.20416 0.54522 0.49757 0.0
C1001 C 0.16445 0.52472 0.5022 0.0
C1002 C 0.14044 0.58592 0.51596 0.0
C1003 C 0.1563 0.6717 0.52386 0.0
H1004 H 0.79236 0.4125 0.51452 0.0
H1005 H 0.81168 0.28489 0.44746 0.0
H1006 H 0.74233 0.22577 0.44661 0.0
H1007 H 0.73628 0.22527 0.53317 0.0
H1008 H 0.70356 0.29634 0.55096 0.0
H1009 H 0.75348 0.3344 0.54538 0.0
H1010 H 0.7241 0.48097 0.53115 0.0
H1011 H 0.67397 0.4421 0.53616 0.0
H1012 H 0.68793 0.47208 0.50871 0.0
H1013 H 0.67089 0.1842 0.45251 0.0
H1014 H 0.60673 0.13361 0.46791 0.0
H1015 H 0.63571 0.27363 0.53234 0.0
C1016 C 0.78183 0.37203 0.49971 0.0
C1017 C 0.80703 0.35336 0.48099 0.0
C1018 C 0.79273 0.29926 0.46198 0.0
C1019 C 0.75331 0.26649 0.46125 0.0
C1020 C 0.72889 0.28732 0.47981 0.0
C1021 C 0.74285 0.33666 0.49893 0.0
C1022 C 0.71166 0.34146 0.51736 0.0
C1023 C 0.72716 0.29667 0.53793 0.0
C1024 C 0.69866 0.44004 0.52371 0.0
C1025 C 0.67813 0.28656 0.50563 0.0
C1026 C 0.68838 0.25818 0.48377 0.0
C1027 C 0.66271 0.20527 0.46965 0.0
C1028 C 0.62656 0.17639 0.47848 0.0
C1029 C 0.61699 0.19857 0.50121 0.0
C1030 C 0.64227 0.25712 0.51475 0.0
H1031 H 0.97458 0.09777 0.76323 0.0
H1032 H 0.91335 0.88215 0.7228 0.0
H1033 H 0.97054 0.78082 0.72668 0.0
H1034 H 0.07101 0.05197 0.73869 0.0
H1035 H 0.09861 0.07825 0.7643 0.0
H1036 H 0.05134 0.13266 0.76019 0.0
H1037 H 0.02427 0.07533 0.79699 0.0
H1038 H 0.07166 0.02176 0.80131 0.0
H1039 H 0.02613 0.95574 0.80076 0.0
H1040 H 0.03415 0.70423 0.7338 0.0
H1041 H 0.10092 0.65402 0.74463 0.0
H1042 H 0.12477 0.92172 0.77811 0.0
C1043 C 0.973 0.02868 0.75557 0.0
C1044 C 0.9385 -0.00387 0.74364 0.0
C1045 C 0.93816 0.90635 0.73325 0.0
C1046 C 0.97095 0.84898 0.73494 0.0
C1047 C 1.00441 0.88301 0.74671 0.0
C1048 C 0.0059 0.97067 0.75683 0.0
C1049 C 0.04636 -0.00937 0.76777 0.0
C1050 C 0.0681 0.06796 0.75709 0.0
C1051 C 0.04183 0.01211 0.79322 0.0
C1052 C 0.06716 0.90038 0.76217 0.0
C1053 C 0.04225 0.83952 0.75003 0.0
C1054 C 0.05403 0.75119 0.74327 0.0
C1055 C 0.09208 0.72343 0.74947 0.0
C1056 C 0.11818 0.78405 0.7621 0.0
C1057 C 0.10569 0.87421 0.76822 0.0
H1058 H 0.62966 0.4951 0.78624 0.0
H1059 H 0.65923 0.3645 0.72101 0.0
H1060 H 0.59104 0.39561 0.70739 0.0
H1061 H 0.53373 0.42056 0.79008 0.0
H1062 H 0.51184 0.52421 0.80257 0.0
H1063 H 0.56412 0.50205 0.80672 0.0
H1064 H 0.58377 0.65319 0.7907 0.0
H1065 H 0.53143 0.67764 0.7873 0.0
H1066 H 0.56484 0.67761 0.7637 0.0
H1067 H 0.517 0.41452 0.70373 0.0
H1068 H 0.44573 0.4575 0.7061 0.0
H1069 H 0.46603 0.59399 0.77227 0.0
C1070 C 0.62226 0.47726 0.7688 0.0
C1071 C 0.64904 0.42642 0.75454 0.0
C1072 C 0.6384 0.40176 0.73206 0.0
C1073 C 0.59993 0.4194 0.72427 0.0
C1074 C 0.57309 0.46428 0.73916 0.0
C1075 C 0.58422 0.49654 0.76065 0.0
C1076 C 0.54934 0.54196 0.77329 0.0
C1077 C 0.53919 0.49431 0.79441 0.0
C1078 C 0.55785 0.64365 0.77908 0.0
C1079 C 0.51662 0.52716 0.75583 0.0
C1080 C 0.53086 0.48088 0.73642 0.0
C1081 C 0.50567 0.45281 0.71861 0.0
C1082 C 0.46515 0.47625 0.72025 0.0
C1083 C 0.45044 0.52871 0.73939 0.0
C1084 C 0.47649 0.5537 0.75748 0.0
H1085 H 0.62711 0.94958 0.22749 0.0
H1086 H 0.63501 0.00199 0.29969 0.0
H1087 H 0.5618 0.02134 0.30183 0.0
H1088 H 0.5475 0.12354 0.22175 0.0
H1089 H 0.5245 0.05658 0.19856 0.0
H1090 H 0.57759 0.04931 0.20316 0.0
H1091 H 0.56991 0.87552 0.20361 0.0
H1092 H 0.51645 0.8821 0.20034 0.0
H1093 H 0.53727 0.82993 0.22381 0.0
H1094 H 0.48742 0.0125 0.29661 0.0
H1095 H 0.41788 0.03289 0.28356 0.0
H1096 H 0.45853 0.01047 0.2149 0.0
C1097 C 0.61348 0.96907 0.24358 0.0
C1098 C 0.63659 0.97602 0.2634 0.0
C1099 C 0.61783 -0.00093 0.28428 0.0
C1100 C 0.57621 0.00817 0.28571 0.0
C1101 C 0.55398 -0.00356 0.26601 0.0
C1102 C 0.572 -0.01793 0.24524 0.0
C1103 C 0.54115 -0.02125 0.22662 0.0
C1104 C 0.54808 0.05671 0.21164 0.0
C1105 C 0.54121 0.88601 0.21279 0.0
C1106 C 0.50303 -0.00781 0.24021 0.0
C1107 C 0.51112 -0.00093 0.26292 0.0
C1108 C 0.4808 0.00954 0.27888 0.0
C1109 C 0.44153 0.02077 0.27143 0.0
C1110 C 0.43336 0.02459 0.24846 0.0
C1111 C 0.46409 0.00618 0.23258 0.0
loop_
_geom_bond_atom_site_label_1
_geom_bond_atom_site_label_2
_geom_bond_distance
_geom_bond_site_symmetry_2
_ccdc_geom_bond_type
C0 O12 1.241 1_565 S
C0 O13 1.280 . S
C1 O14 1.277 . S
C1 O15 1.245 . S
C2 O26 1.241 1_554 S
C2 O28 1.302 1_655 S
Mg3 O4 1.926 . S
Mg3 O13 1.984 . S
Mg3 O15 1.988 1_565 S
Mg3 O16 2.061 . S
O4 Mg3 1.926 . S
O4 Mg5 1.986 1_565 S
O4 Mg6 1.916 1_565 S
Mg5 O4 1.986 1_545 S
Mg5 O12 2.042 . S
Mg5 O14 2.041 . S
Mg5 O20 2.038 1_455 S
Mg5 O28 2.238 . S
Mg6 O4 1.916 1_545 S
Mg6 O7 1.918 1_454 S
Mg6 O17 2.096 1_444 S
Mg6 O19 2.078 1_445 S
Mg6 O28 2.117 . S
Mg6 O29 2.080 1_554 S
O7 Mg6 1.918 1_656 S
O7 Mg8 1.926 . S
O7 Mg9 1.986 1_545 S
Mg8 O7 1.926 . S
Mg8 O22 1.984 . S
Mg8 O25 1.988 1_545 S
Mg8 O26 2.061 . S
Mg9 O7 1.986 1_565 S
Mg9 O17 2.238 . S
Mg9 O21 2.042 . S
Mg9 O23 2.041 . S
Mg9 O30 2.038 1_655 S
C10 O16 1.247 . S
C10 O17 1.289 1_454 S
C11 O29 1.245 1_565 S
C11 O30 1.274 . S
O12 C0 1.241 1_545 S
O12 Mg5 2.042 . S
O13 C0 1.280 . S
O13 Mg3 1.984 . S
O14 C1 1.277 . S
O14 Mg5 2.041 . S
O15 C1 1.245 . S
O15 Mg3 1.988 1_545 S
O16 Mg3 2.061 . S
O16 C10 1.247 . S
O17 Mg6 2.096 1_666 S
O17 Mg9 2.238 . S
O17 C10 1.289 1_656 S
C18 O19 1.245 1_545 S
C18 O20 1.274 . S
O19 Mg6 2.078 1_665 S
O19 C18 1.245 1_565 S
O20 Mg5 2.038 1_655 S
O20 C18 1.274 . S
O21 Mg9 2.042 . S
O21 C24 1.241 1_565 S
O22 Mg8 1.984 . S
O22 C24 1.280 . S
O23 Mg9 2.041 . S
O23 C27 1.277 . S
C24 O21 1.241 1_545 S
C24 O22 1.280 . S
O25 Mg8 1.988 1_565 S
O25 C27 1.245 . S
O26 C2 1.241 1_556 S
O26 Mg8 2.061 . S
C27 O23 1.277 . S
C27 O25 1.245 . S
O28 C2 1.302 1_455 S
O28 Mg5 2.238 . S
O28 Mg6 2.117 . S
O29 Mg6 2.080 1_556 S
O29 C11 1.245 1_545 S
O30 Mg9 2.038 1_455 S
O30 C11 1.274 . S
C31 O43 1.241 . S
C31 O44 1.280 . S
C32 O45 1.277 . S
C32 O46 1.245 . S
C33 O57 1.247 . S
C33 O59 1.289 . S
Mg34 O35 1.926 . S
Mg34 O44 1.984 . S
Mg34 O46 1.988 . S
Mg34 O47 2.061 . S
O35 Mg34 1.926 . S
O35 Mg36 1.986 . S
O35 Mg37 1.917 . S
Mg36 O35 1.986 . S
Mg36 O43 2.042 . S
Mg36 O45 2.041 . S
Mg36 O51 2.038 . S
Mg36 O59 2.238 . S
Mg37 O35 1.917 . S
Mg37 O38 1.917 . S
Mg37 O48 2.106 . S
Mg37 O50 2.079 . S
Mg37 O59 2.106 . S
Mg37 O60 2.079 . S
O38 Mg37 1.917 . S
O38 Mg39 1.926 . S
O38 Mg40 1.986 . S
Mg39 O38 1.926 . S
Mg39 O53 1.984 . S
Mg39 O56 1.988 . S
Mg39 O57 2.061 . S
Mg40 O38 1.986 . S
Mg40 O48 2.238 . S
Mg40 O52 2.042 . S
Mg40 O54 2.041 . S
Mg40 O61 2.038 . S
C41 O47 1.247 . S
C41 O48 1.289 . S
C42 O60 1.245 . S
C42 O61 1.274 . S
O43 C31 1.241 . S
O43 Mg36 2.042 . S
O44 C31 1.280 . S
O44 Mg34 1.984 . S
O45 C32 1.277 . S
O45 Mg36 2.041 . S
O46 C32 1.245 . S
O46 Mg34 1.988 . S
O47 Mg34 2.061 . S
O47 C41 1.247 . S
O48 Mg37 2.106 . S
O48 Mg40 2.238 . S
O48 C41 1.289 . S
C49 O50 1.245 . S
C49 O51 1.274 . S
O50 Mg37 2.079 . S
O50 C49 1.245 . S
O51 Mg36 2.038 . S
O51 C49 1.274 . S
O52 Mg40 2.042 . S
O52 C55 1.241 . S
O53 Mg39 1.984 . S
O53 C55 1.280 . S
O54 Mg40 2.041 . S
O54 C58 1.277 . S
C55 O52 1.241 . S
C55 O53 1.280 . S
O56 Mg39 1.988 . S
O56 C58 1.245 . S
O57 C33 1.247 . S
O57 Mg39 2.061 . S
C58 O54 1.277 . S
C58 O56 1.245 . S
O59 C33 1.289 . S
O59 Mg36 2.238 . S
O59 Mg37 2.106 . S
O60 Mg37 2.079 . S
O60 C42 1.245 . S
O61 Mg40 2.038 . S
O61 C42 1.274 . S
C62 O74 1.241 . S
C62 O75 1.280 . S
C63 O76 1.277 . S
C63 O77 1.245 . S
C64 O88 1.247 . S
C64 O90 1.289 . S
Mg65 O66 1.926 . S
Mg65 O75 1.984 . S
Mg65 O77 1.988 . S
Mg65 O78 2.061 . S
O66 Mg65 1.926 . S
O66 Mg67 1.986 . S
O66 Mg68 1.917 . S
Mg67 O66 1.986 . S
Mg67 O74 2.042 . S
Mg67 O76 2.041 . S
Mg67 O82 2.038 . S
Mg67 O90 2.238 . S
Mg68 O66 1.917 . S
Mg68 O69 1.917 . S
Mg68 O79 2.106 . S
Mg68 O81 2.079 . S
Mg68 O90 2.106 . S
Mg68 O91 2.079 . S
O69 Mg68 1.917 . S
O69 Mg70 1.926 . S
O69 Mg71 1.986 . S
Mg70 O69 1.926 . S
Mg70 O84 1.984 . S
Mg70 O87 1.988 . S
Mg70 O88 2.061 . S
Mg71 O69 1.986 . S
Mg71 O79 2.238 . S
Mg71 O83 2.042 . S
Mg71 O85 2.041 . S
Mg71 O92 2.038 . S
C72 O78 1.247 . S
C72 O79 1.289 . S
C73 O91 1.245 . S
C73 O92 1.274 . S
O74 C62 1.241 . S
O74 Mg67 2.042 . S
O75 C62 1.280 . S
O75 Mg65 1.984 . S
O76 C63 1.277 . S
O76 Mg67 2.041 . S
O77 C63 1.245 . S
O77 Mg65 1.988 . S
O78 Mg65 2.061 . S
O78 C72 1.247 . S
O79 Mg68 2.106 . S
O79 Mg71 2.238 . S
O79 C72 1.289 . S
C80 O81 1.245 . S
C80 O82 1.274 . S
O81 Mg68 2.079 . S
O81 C80 1.245 . S
O82 Mg67 2.038 . S
O82 C80 1.274 . S
O83 Mg71 2.042 . S
O83 C86 1.241 . S
O84 Mg70 1.984 . S
O84 C86 1.280 . S
O85 Mg71 2.041 . S
O85 C89 1.277 . S
C86 O83 1.241 . S
C86 O84 1.280 . S
O87 Mg70 1.988 . S
O87 C89 1.245 . S
O88 C64 1.247 . S
O88 Mg70 2.061 . S
C89 O85 1.277 . S
C89 O87 1.245 . S
O90 C64 1.289 . S
O90 Mg67 2.238 . S
O90 Mg68 2.106 . S
O91 Mg68 2.079 . S
O91 C73 1.245 . S
O92 Mg71 2.038 . S
O92 C73 1.274 . S
C93 O105 1.241 . S
C93 O106 1.280 . S
C94 O107 1.277 . S
C94 O108 1.245 . S
C95 O119 1.247 . S
C95 O121 1.289 1_655 S
Mg96 O97 1.926 . S
Mg96 O106 1.984 . S
Mg96 O108 1.988 . S
Mg96 O109 2.061 . S
O97 Mg96 1.926 . S
O97 Mg98 1.986 . S
O97 Mg99 1.917 . S
Mg98 O97 1.986 . S
Mg98 O105 2.042 . S
Mg98 O107 2.041 . S
Mg98 O113 2.038 1_455 S
Mg98 O121 2.238 . S
Mg99 O97 1.917 . S
Mg99 O100 1.917 1_455 S
Mg99 O110 2.106 1_455 S
Mg99 O112 2.079 1_455 S
Mg99 O121 2.106 . S
Mg99 O122 2.079 . S
O100 Mg99 1.917 1_655 S
O100 Mg101 1.926 . S
O100 Mg102 1.986 . S
Mg101 O100 1.926 . S
Mg101 O115 1.984 . S
Mg101 O118 1.988 . S
Mg101 O119 2.061 . S
Mg102 O100 1.986 . S
Mg102 O110 2.238 . S
Mg102 O114 2.042 . S
Mg102 O116 2.041 . S
Mg102 O123 2.038 1_655 S
C103 O109 1.247 . S
C103 O110 1.289 1_455 S
C104 O122 1.245 . S
C104 O123 1.274 . S
O105 C93 1.241 . S
O105 Mg98 2.042 . S
O106 C93 1.280 . S
O106 Mg96 1.984 . S
O107 C94 1.277 . S
O107 Mg98 2.041 . S
O108 C94 1.245 . S
O108 Mg96 1.988 . S
O109 Mg96 2.061 . S
O109 C103 1.247 . S
O110 Mg99 2.106 1_655 S
O110 Mg102 2.238 . S
O110 C103 1.289 1_655 S
C111 O112 1.245 . S
C111 O113 1.274 . S
O112 Mg99 2.079 1_655 S
O112 C111 1.245 . S
O113 Mg98 2.038 1_655 S
O113 C111 1.274 . S
O114 Mg102 2.042 . S
O114 C117 1.241 . S
O115 Mg101 1.984 . S
O115 C117 1.280 . S
O116 Mg102 2.041 . S
O116 C120 1.277 . S
C117 O114 1.241 . S
C117 O115 1.280 . S
O118 Mg101 1.988 . S
O118 C120 1.245 . S
O119 C95 1.247 . S
O119 Mg101 2.061 . S
C120 O116 1.277 . S
C120 O118 1.245 . S
O121 C95 1.289 1_455 S
O121 Mg98 2.238 . S
O121 Mg99 2.106 . S
O122 Mg99 2.079 . S
O122 C104 1.245 . S
O123 Mg102 2.038 1_455 S
O123 C104 1.274 . S
C124 O136 1.241 . S
C124 O137 1.280 . S
C125 O138 1.277 . S
C125 O139 1.245 . S
C126 O150 1.247 . S
C126 O152 1.289 . S
Mg127 O128 1.926 . S
Mg127 O137 1.984 . S
Mg127 O139 1.988 . S
Mg127 O140 2.061 . S
O128 Mg127 1.926 . S
O128 Mg129 1.986 . S
O128 Mg130 1.917 . S
Mg129 O128 1.986 . S
Mg129 O136 2.042 . S
Mg129 O138 2.041 . S
Mg129 O144 2.038 . S
Mg129 O152 2.238 . S
Mg130 O128 1.917 . S
Mg130 O131 1.917 . S
Mg130 O141 2.106 . S
Mg130 O143 2.079 . S
Mg130 O152 2.106 . S
Mg130 O153 2.079 . S
O131 Mg130 1.917 . S
O131 Mg132 1.926 . S
O131 Mg133 1.986 . S
Mg132 O131 1.926 . S
Mg132 O146 1.984 . S
Mg132 O149 1.988 . S
Mg132 O150 2.061 . S
Mg133 O131 1.986 . S
Mg133 O141 2.238 . S
Mg133 O145 2.042 . S
Mg133 O147 2.041 . S
Mg133 O154 2.038 . S
C134 O140 1.247 . S
C134 O141 1.289 . S
C135 O153 1.245 . S
C135 O154 1.274 . S
O136 C124 1.241 . S
O136 Mg129 2.042 . S
O137 C124 1.280 . S
O137 Mg127 1.984 . S
O138 C125 1.277 . S
O138 Mg129 2.041 . S
O139 C125 1.245 . S
O139 Mg127 1.988 . S
O140 Mg127 2.061 . S
O140 C134 1.247 . S
O141 Mg130 2.106 . S
O141 Mg133 2.238 . S
O141 C134 1.289 . S
C142 O143 1.245 . S
C142 O144 1.274 . S
O143 Mg130 2.079 . S
O143 C142 1.245 . S
O144 Mg129 2.038 . S
O144 C142 1.274 . S
O145 Mg133 2.042 . S
O145 C148 1.241 . S
O146 Mg132 1.984 . S
O146 C148 1.280 . S
O147 Mg133 2.041 . S
O147 C151 1.277 . S
C148 O145 1.241 . S
C148 O146 1.280 . S
O149 Mg132 1.988 . S
O149 C151 1.245 . S
O150 C126 1.247 . S
O150 Mg132 2.061 . S
C151 O147 1.277 . S
C151 O149 1.245 . S
O152 C126 1.289 . S
O152 Mg129 2.238 . S
O152 Mg130 2.106 . S
O153 Mg130 2.079 . S
O153 C135 1.245 . S
O154 Mg133 2.038 . S
O154 C135 1.274 . S
C155 O167 1.241 . S
C155 O168 1.280 . S
C156 O169 1.277 . S
C156 O170 1.245 . S
C157 O181 1.247 . S
C157 O183 1.289 . S
Mg158 O159 1.926 . S
Mg158 O168 1.984 . S
Mg158 O170 1.988 . S
Mg158 O171 2.061 . S
O159 Mg158 1.926 . S
O159 Mg160 1.986 . S
O159 Mg161 1.917 . S
Mg160 O159 1.986 . S
Mg160 O167 2.042 . S
Mg160 O169 2.041 . S
Mg160 O175 2.038 . S
Mg160 O183 2.238 . S
Mg161 O159 1.917 . S
Mg161 O162 1.917 . S
Mg161 O172 2.106 . S
Mg161 O174 2.079 . S
Mg161 O183 2.106 . S
Mg161 O184 2.079 . S
O162 Mg161 1.917 . S
O162 Mg163 1.926 . S
O162 Mg164 1.986 . S
Mg163 O162 1.926 . S
Mg163 O177 1.984 . S
Mg163 O180 1.988 . S
Mg163 O181 2.061 . S
Mg164 O162 1.986 . S
Mg164 O172 2.238 . S
Mg164 O176 2.042 . S
Mg164 O178 2.041 . S
Mg164 O185 2.038 . S
C165 O171 1.247 . S
C165 O172 1.289 . S
C166 O184 1.245 . S
C166 O185 1.274 . S
O167 C155 1.241 . S
O167 Mg160 2.042 . S
O168 C155 1.280 . S
O168 Mg158 1.984 . S
O169 C156 1.277 . S
O169 Mg160 2.041 . S
O170 C156 1.245 . S
O170 Mg158 1.988 . S
O171 Mg158 2.061 . S
O171 C165 1.247 . S
O172 Mg161 2.106 . S
O172 Mg164 2.238 . S
O172 C165 1.289 . S
C173 O174 1.245 . S
C173 O175 1.274 . S
O174 Mg161 2.079 . S
O174 C173 1.245 . S
O175 Mg160 2.038 . S
O175 C173 1.274 . S
O176 Mg164 2.042 . S
O176 C179 1.241 . S
O177 Mg163 1.984 . S
O177 C179 1.280 . S
O178 Mg164 2.041 . S
O178 C182 1.277 . S
C179 O176 1.241 . S
C179 O177 1.280 . S
O180 Mg163 1.988 . S
O180 C182 1.245 . S
O181 C157 1.247 . S
O181 Mg163 2.061 . S
C182 O178 1.277 . S
C182 O180 1.245 . S
O183 C157 1.289 . S
O183 Mg160 2.238 . S
O183 Mg161 2.106 . S
O184 Mg161 2.079 . S
O184 C166 1.245 . S
O185 Mg164 2.038 . S
O185 C166 1.274 . S
C186 O198 1.241 1_565 S
C186 O199 1.280 . S
C187 O200 1.277 . S
C187 O201 1.245 . S
C188 O212 1.247 . S
C188 O214 1.289 . S
Mg189 O190 1.926 . S
Mg189 O199 1.984 . S
Mg189 O201 1.988 1_565 S
Mg189 O202 2.061 . S
O190 Mg189 1.926 . S
O190 Mg191 1.986 1_565 S
O190 Mg192 1.916 1_565 S
Mg191 O190 1.986 1_545 S
Mg191 O198 2.042 . S
Mg191 O200 2.041 . S
Mg191 O206 2.038 . S
Mg191 O214 2.238 . S
Mg192 O190 1.916 1_545 S
Mg192 O193 1.918 . S
Mg192 O203 2.098 1_545 S
Mg192 O205 2.078 1_545 S
Mg192 O214 2.114 . S
Mg192 O215 2.080 . S
O193 Mg192 1.918 . S
O193 Mg194 1.926 . S
O193 Mg195 1.986 1_545 S
Mg194 O193 1.926 . S
Mg194 O208 1.984 . S
Mg194 O211 1.988 1_545 S
Mg194 O212 2.061 . S
Mg195 O193 1.986 1_565 S
Mg195 O203 2.238 . S
Mg195 O207 2.042 . S
Mg195 O209 2.041 . S
Mg195 O216 2.038 . S
C196 O202 1.247 . S
C196 O203 1.289 . S
C197 O215 1.245 1_565 S
C197 O216 1.274 . S
O198 C186 1.241 1_545 S
O198 Mg191 2.042 . S
O199 C186 1.280 . S
O199 Mg189 1.984 . S
O200 C187 1.277 . S
O200 Mg191 2.041 . S
O201 C187 1.245 . S
O201 Mg189 1.988 1_545 S
O202 Mg189 2.061 . S
O202 C196 1.247 . S
O203 Mg192 2.098 1_565 S
O203 Mg195 2.238 . S
O203 C196 1.289 . S
C204 O205 1.245 1_545 S
C204 O206 1.274 . S
O205 Mg192 2.078 1_565 S
O205 C204 1.245 1_565 S
O206 Mg191 2.038 . S
O206 C204 1.274 . S
O207 Mg195 2.042 . S
O207 C210 1.241 1_565 S
O208 Mg194 1.984 . S
O208 C210 1.280 . S
O209 Mg195 2.041 . S
O209 C213 1.277 . S
C210 O207 1.241 1_545 S
C210 O208 1.280 . S
O211 Mg194 1.988 1_565 S
O211 C213 1.245 . S
O212 C188 1.247 . S
O212 Mg194 2.061 . S
C213 O209 1.277 . S
C213 O211 1.245 . S
O214 C188 1.289 . S
O214 Mg191 2.238 . S
O214 Mg192 2.114 . S
O215 Mg192 2.080 . S
O215 C197 1.245 1_545 S
O216 Mg195 2.038 . S
O216 C197 1.274 . S
C217 O229 1.241 . S
C217 O230 1.280 . S
C218 O231 1.277 . S
C218 O232 1.245 . S
C219 O243 1.241 1_554 S
C219 O245 1.302 . S
Mg220 O221 1.926 . S
Mg220 O230 1.984 . S
Mg220 O232 1.988 . S
Mg220 O233 2.061 . S
O221 Mg220 1.926 . S
O221 Mg222 1.986 . S
O221 Mg223 1.917 . S
Mg222 O221 1.986 . S
Mg222 O229 2.042 . S
Mg222 O231 2.041 . S
Mg222 O237 2.038 . S
Mg222 O245 2.238 . S
Mg223 O221 1.917 . S
Mg223 O224 1.917 1_554 S
Mg223 O234 2.106 1_554 S
Mg223 O236 2.079 . S
Mg223 O245 2.106 . S
Mg223 O246 2.079 1_554 S
O224 Mg223 1.917 1_556 S
O224 Mg225 1.926 . S
O224 Mg226 1.986 . S
Mg225 O224 1.926 . S
Mg225 O239 1.984 . S
Mg225 O242 1.988 . S
Mg225 O243 2.061 . S
Mg226 O224 1.986 . S
Mg226 O234 2.238 . S
Mg226 O238 2.042 . S
Mg226 O240 2.041 . S
Mg226 O247 2.038 . S
C227 O233 1.247 . S
C227 O234 1.289 1_554 S
C228 O246 1.245 . S
C228 O247 1.274 . S
O229 C217 1.241 . S
O229 Mg222 2.042 . S
O230 C217 1.280 . S
O230 Mg220 1.984 . S
O231 C218 1.277 . S
O231 Mg222 2.041 . S
O232 C218 1.245 . S
O232 Mg220 1.988 . S
O233 Mg220 2.061 . S
O233 C227 1.247 . S
O234 Mg223 2.106 1_556 S
O234 Mg226 2.238 . S
O234 C227 1.289 1_556 S
C235 O236 1.245 . S
C235 O237 1.274 . S
O236 Mg223 2.079 . S
O236 C235 1.245 . S
O237 Mg222 2.038 . S
O237 C235 1.274 . S
O238 Mg226 2.042 . S
O238 C241 1.241 . S
O239 Mg225 1.984 . S
O239 C241 1.280 . S
O240 Mg226 2.041 . S
O240 C244 1.277 . S
C241 O238 1.241 . S
C241 O239 1.280 . S
O242 Mg225 1.988 . S
O242 C244 1.245 . S
O243 C219 1.241 1_556 S
O243 Mg225 2.061 . S
C244 O240 1.277 . S
C244 O242 1.245 . S
O245 C219 1.302 . S
O245 Mg222 2.238 . S
O245 Mg223 2.106 . S
O246 Mg223 2.079 1_556 S
O246 C228 1.245 . S
O247 Mg226 2.038 . S
O247 C228 1.274 . S
H248 C260 0.930 . S
H249 C262 0.930 . S
H250 C263 0.930 . S
H251 C267 0.959 1_545 S
H252 C267 0.959 . S
H253 C267 0.961 . S
H254 C268 0.960 . S
H255 C268 0.961 . S
H256 C268 0.959 . S
H257 C271 0.929 . S
H258 C272 0.931 . S
H259 C274 0.930 . S
C260 H248 0.930 . S
C260 C261 1.399 1_565 S
C260 C265 1.399 1_565 S
C261 C260 1.399 1_545 S
C261 C262 1.376 . S
C262 H249 0.930 . S
C262 C261 1.376 . S
C262 C263 1.388 . S
C263 H250 0.930 . S
C263 C262 1.388 . S
C263 C264 1.390 . S
C264 C263 1.390 . S
C264 C265 1.394 . S
C264 C270 1.465 . S
C265 C260 1.399 1_545 S
C265 C264 1.394 . S
C265 C266 1.516 . S
C266 C265 1.516 . S
C266 C267 1.502 1_545 S
C266 C268 1.561 1_545 S
C266 C269 1.526 . S
C267 H251 0.959 1_565 S
C267 H252 0.959 . S
C267 H253 0.961 . S
C267 C266 1.502 1_565 S
C268 H254 0.960 . S
C268 H255 0.961 . S
C268 H256 0.959 . S
C268 C266 1.561 1_565 S
C269 C266 1.526 . S
C269 C270 1.396 . S
C269 C274 1.390 . S
C270 C264 1.465 . S
C270 C269 1.396 . S
C270 C271 1.399 . S
C271 H257 0.929 . S
C271 C270 1.399 . S
C271 C272 1.385 . S
C272 H258 0.931 . S
C272 C271 1.385 . S
C272 C273 1.389 . S
C273 C272 1.389 . S
C273 C274 1.387 . S
C274 H259 0.930 . S
C274 C269 1.390 . S
C274 C273 1.387 . S
H275 C287 0.930 . S
H276 C289 0.930 . S
H277 C290 0.930 . S
H278 C294 0.959 1_565 S
H279 C294 0.959 . S
H280 C294 0.961 . S
H281 C295 0.960 . S
H282 C295 0.961 . S
H283 C295 0.959 . S
H284 C298 0.929 . S
H285 C299 0.931 . S
H286 C301 0.930 . S
C287 H275 0.930 . S
C287 C288 1.399 1_545 S
C287 C292 1.399 1_545 S
C288 C287 1.399 1_565 S
C288 C289 1.376 . S
C289 H276 0.930 . S
C289 C288 1.376 . S
C289 C290 1.388 . S
C290 H277 0.930 . S
C290 C289 1.388 . S
C290 C291 1.390 . S
C291 C290 1.390 . S
C291 C292 1.394 . S
C291 C297 1.465 . S
C292 C287 1.399 1_565 S
C292 C291 1.394 . S
C292 C293 1.516 1_565 S
C293 C292 1.516 1_545 S
C293 C294 1.502 . S
C293 C295 1.561 . S
C293 C296 1.526 1_545 S
C294 H278 0.959 1_545 S
C294 H279 0.959 . S
C294 H280 0.961 . S
C294 C293 1.502 . S
C295 H281 0.960 . S
C295 H282 0.961 . S
C295 H283 0.959 . S
C295 C293 1.561 . S
C296 C293 1.526 1_565 S
C296 C297 1.396 . S
C296 C301 1.390 . S
C297 C291 1.465 . S
C297 C296 1.396 . S
C297 C298 1.399 . S
C298 H284 0.929 . S
C298 C297 1.399 . S
C298 C299 1.385 . S
C299 H285 0.931 . S
C299 C298 1.385 . S
C299 C300 1.389 . S
C300 C299 1.389 . S
C300 C301 1.387 . S
C301 H286 0.930 . S
C301 C296 1.390 . S
C301 C300 1.387 . S
H302 C314 0.930 . S
H303 C316 0.930 . S
H304 C317 0.930 . S
H305 C321 0.959 . S
H306 C321 0.959 . S
H307 C321 0.961 . S
H308 C322 0.960 . S
H309 C322 0.961 . S
H310 C322 0.959 . S
H311 C325 0.929 . S
H312 C326 0.931 . S
H313 C328 0.930 . S
C314 H302 0.930 . S
C314 C315 1.399 . S
C314 C319 1.399 . S
C315 C314 1.399 . S
C315 C316 1.376 . S
C316 H303 0.930 . S
C316 C315 1.376 . S
C316 C317 1.388 . S
C317 H304 0.930 . S
C317 C316 1.388 . S
C317 C318 1.390 . S
C318 C317 1.390 . S
C318 C319 1.394 . S
C318 C324 1.465 . S
C319 C314 1.399 . S
C319 C318 1.394 . S
C319 C320 1.516 . S
C320 C319 1.516 . S
C320 C321 1.502 . S
C320 C322 1.561 . S
C320 C323 1.526 . S
C321 H305 0.959 . S
C321 H306 0.959 . S
C321 H307 0.961 . S
C321 C320 1.502 . S
C322 H308 0.960 . S
C322 H309 0.961 . S
C322 H310 0.959 . S
C322 C320 1.561 . S
C323 C320 1.526 . S
C323 C324 1.396 . S
C323 C328 1.390 . S
C324 C318 1.465 . S
C324 C323 1.396 . S
C324 C325 1.399 . S
C325 H311 0.929 . S
C325 C324 1.399 . S
C325 C326 1.385 . S
C326 H312 0.931 . S
C326 C325 1.385 . S
C326 C327 1.389 . S
C327 C326 1.389 . S
C327 C328 1.387 . S
C328 H313 0.930 . S
C328 C323 1.390 . S
C328 C327 1.387 . S
H329 C341 0.930 . S
H330 C343 0.930 . S
H331 C344 0.930 . S
H332 C348 0.959 . S
H333 C348 0.959 . S
H334 C348 0.961 . S
H335 C349 0.960 . S
H336 C349 0.961 . S
H337 C349 0.959 . S
H338 C352 0.929 . S
H339 C353 0.931 . S
H340 C355 0.930 . S
C341 H329 0.930 . S
C341 C342 1.399 . S
C341 C346 1.399 . S
C342 C341 1.399 . S
C342 C343 1.376 . S
C343 H330 0.930 . S
C343 C342 1.376 . S
C343 C344 1.388 . S
C344 H331 0.930 . S
C344 C343 1.388 . S
C344 C345 1.390 . S
C345 C344 1.390 . S
C345 C346 1.394 . S
C345 C351 1.465 . S
C346 C341 1.399 . S
C346 C345 1.394 . S
C346 C347 1.516 . S
C347 C346 1.516 . S
C347 C348 1.502 . S
C347 C349 1.561 . S
C347 C350 1.526 . S
C348 H332 0.959 . S
C348 H333 0.959 . S
C348 H334 0.961 . S
C348 C347 1.502 . S
C349 H335 0.960 . S
C349 H336 0.961 . S
C349 H337 0.959 . S
C349 C347 1.561 . S
C350 C347 1.526 . S
C350 C351 1.396 . S
C350 C355 1.390 . S
C351 C345 1.465 . S
C351 C350 1.396 . S
C351 C352 1.399 . S
C352 H338 0.929 . S
C352 C351 1.399 . S
C352 C353 1.385 . S
C353 H339 0.931 . S
C353 C352 1.385 . S
C353 C354 1.389 . S
C354 C353 1.389 . S
C354 C355 1.387 . S
C355 H340 0.930 . S
C355 C350 1.390 . S
C355 C354 1.387 . S
H356 C368 0.930 . S
H357 C370 0.930 . S
H358 C371 0.930 . S
H359 C375 0.959 . S
H360 C375 0.959 . S
H361 C375 0.961 . S
H362 C376 0.960 . S
H363 C376 0.961 . S
H364 C376 0.959 . S
H365 C379 0.929 . S
H366 C380 0.931 . S
H367 C382 0.930 . S
C368 H356 0.930 . S
C368 C369 1.399 . S
C368 C373 1.399 . S
C369 C368 1.399 . S
C369 C370 1.376 . S
C370 H357 0.930 . S
C370 C369 1.376 . S
C370 C371 1.388 . S
C371 H358 0.930 . S
C371 C370 1.388 . S
C371 C372 1.390 . S
C372 C371 1.390 . S
C372 C373 1.394 . S
C372 C378 1.465 . S
C373 C368 1.399 . S
C373 C372 1.394 . S
C373 C374 1.516 . S
C374 C373 1.516 . S
C374 C375 1.502 . S
C374 C376 1.561 . S
C374 C377 1.526 . S
C375 H359 0.959 . S
C375 H360 0.959 . S
C375 H361 0.961 . S
C375 C374 1.502 . S
C376 H362 0.960 . S
C376 H363 0.961 . S
C376 H364 0.959 . S
C376 C374 1.561 . S
C377 C374 1.526 . S
C377 C378 1.396 . S
C377 C382 1.390 . S
C378 C372 1.465 . S
C378 C377 1.396 . S
C378 C379 1.399 . S
C379 H365 0.929 . S
C379 C378 1.399 . S
C379 C380 1.385 . S
C380 H366 0.931 . S
C380 C379 1.385 . S
C380 C381 1.389 . S
C381 C380 1.389 . S
C381 C382 1.387 . S
C382 H367 0.930 . S
C382 C377 1.390 . S
C382 C381 1.387 . S
H383 C395 0.930 . S
H384 C397 0.930 . S
H385 C398 0.930 . S
H386 C402 0.959 . S
H387 C402 0.959 . S
H388 C402 0.961 . S
H389 C403 0.960 . S
H390 C403 0.961 . S
H391 C403 0.959 . S
H392 C406 0.929 . S
H393 C407 0.931 . S
H394 C409 0.930 . S
C395 H383 0.930 . S
C395 C396 1.399 . S
C395 C400 1.399 . S
C396 C395 1.399 . S
C396 C397 1.376 . S
C397 H384 0.930 . S
C397 C396 1.376 . S
C397 C398 1.388 . S
C398 H385 0.930 . S
C398 C397 1.388 . S
C398 C399 1.390 . S
C399 C398 1.390 . S
C399 C400 1.394 . S
C399 C405 1.465 . S
C400 C395 1.399 . S
C400 C399 1.394 . S
C400 C401 1.516 . S
C401 C400 1.516 . S
C401 C402 1.502 . S
C401 C403 1.561 . S
C401 C404 1.526 . S
C402 H386 0.959 . S
C402 H387 0.959 . S
C402 H388 0.961 . S
C402 C401 1.502 . S
C403 H389 0.960 . S
C403 H390 0.961 . S
C403 H391 0.959 . S
C403 C401 1.561 . S
C404 C401 1.526 . S
C404 C405 1.396 . S
C404 C409 1.390 . S
C405 C399 1.465 . S
C405 C404 1.396 . S
C405 C406 1.399 . S
C406 H392 0.929 . S
C406 C405 1.399 . S
C406 C407 1.385 . S
C407 H393 0.931 . S
C407 C406 1.385 . S
C407 C408 1.389 . S
C408 C407 1.389 . S
C408 C409 1.387 . S
C409 H394 0.930 . S
C409 C404 1.390 . S
C409 C408 1.387 . S
H410 C422 0.930 . S
H411 C424 0.930 . S
H412 C425 0.930 . S
H413 C429 0.959 . S
H414 C429 0.959 . S
H415 C429 0.961 . S
H416 C430 0.960 . S
H417 C430 0.961 . S
H418 C430 0.959 . S
H419 C433 0.929 . S
H420 C434 0.931 . S
H421 C436 0.930 . S
C422 H410 0.930 . S
C422 C423 1.399 . S
C422 C427 1.399 . S
C423 C422 1.399 . S
C423 C424 1.376 . S
C424 H411 0.930 . S
C424 C423 1.376 . S
C424 C425 1.388 . S
C425 H412 0.930 . S
C425 C424 1.388 . S
C425 C426 1.390 . S
C426 C425 1.390 . S
C426 C427 1.394 . S
C426 C432 1.465 . S
C427 C422 1.399 . S
C427 C426 1.394 . S
C427 C428 1.516 . S
C428 C427 1.516 . S
C428 C429 1.502 . S
C428 C430 1.561 . S
C428 C431 1.526 . S
C429 H413 0.959 . S
C429 H414 0.959 . S
C429 H415 0.961 . S
C429 C428 1.502 . S
C430 H416 0.960 . S
C430 H417 0.961 . S
C430 H418 0.959 . S
C430 C428 1.561 . S
C431 C428 1.526 . S
C431 C432 1.396 . S
C431 C436 1.390 . S
C432 C426 1.465 . S
C432 C431 1.396 . S
C432 C433 1.399 . S
C433 H419 0.929 . S
C433 C432 1.399 . S
C433 C434 1.385 . S
C434 H420 0.931 . S
C434 C433 1.385 . S
C434 C435 1.389 . S
C435 C434 1.389 . S
C435 C436 1.387 . S
C436 H421 0.930 . S
C436 C431 1.390 . S
C436 C435 1.387 . S
H437 C449 0.930 . S
H438 C451 0.930 . S
H439 C452 0.930 . S
H440 C456 0.959 . S
H441 C456 0.959 . S
H442 C456 0.961 . S
H443 C457 0.960 . S
H444 C457 0.961 . S
H445 C457 0.959 . S
H446 C460 0.929 1_565 S
H447 C461 0.931 . S
H448 C463 0.930 . S
C449 H437 0.930 . S
C449 C450 1.399 . S
C449 C454 1.399 . S
C450 C449 1.399 . S
C450 C451 1.376 . S
C451 H438 0.930 . S
C451 C450 1.376 . S
C451 C452 1.388 . S
C452 H439 0.930 . S
C452 C451 1.388 . S
C452 C453 1.390 . S
C453 C452 1.390 . S
C453 C454 1.394 . S
C453 C459 1.465 . S
C454 C449 1.399 . S
C454 C453 1.394 . S
C454 C455 1.516 . S
C455 C454 1.516 . S
C455 C456 1.502 . S
C455 C457 1.561 . S
C455 C458 1.526 . S
C456 H440 0.959 . S
C456 H441 0.959 . S
C456 H442 0.961 . S
C456 C455 1.502 . S
C457 H443 0.960 . S
C457 H444 0.961 . S
C457 H445 0.959 . S
C457 C455 1.561 . S
C458 C455 1.526 . S
C458 C459 1.396 . S
C458 C463 1.390 . S
C459 C453 1.465 . S
C459 C458 1.396 . S
C459 C460 1.399 . S
C460 H446 0.929 1_545 S
C460 C459 1.399 . S
C460 C461 1.385 1_545 S
C461 H447 0.931 . S
C461 C460 1.385 1_565 S
C461 C462 1.389 1_565 S
C462 C461 1.389 1_545 S
C462 C463 1.387 . S
C463 H448 0.930 . S
C463 C458 1.390 . S
C463 C462 1.387 . S
H464 C476 0.930 . S
H465 C478 0.930 . S
H466 C479 0.930 1_565 S
H467 C483 0.959 . S
H468 C483 0.959 . S
H469 C483 0.961 . S
H470 C484 0.960 . S
H471 C484 0.961 . S
H472 C484 0.959 . S
H473 C487 0.929 . S
H474 C488 0.931 . S
H475 C490 0.930 . S
C476 H464 0.930 . S
C476 C477 1.399 . S
C476 C481 1.399 . S
C477 C476 1.399 . S
C477 C478 1.376 . S
C478 H465 0.930 . S
C478 C477 1.376 . S
C478 C479 1.388 . S
C479 H466 0.930 1_545 S
C479 C478 1.388 . S
C479 C480 1.390 . S
C480 C479 1.390 . S
C480 C481 1.394 . S
C480 C486 1.465 . S
C481 C476 1.399 . S
C481 C480 1.394 . S
C481 C482 1.516 . S
C482 C481 1.516 . S
C482 C483 1.502 . S
C482 C484 1.561 . S
C482 C485 1.526 . S
C483 H467 0.959 . S
C483 H468 0.959 . S
C483 H469 0.961 . S
C483 C482 1.502 . S
C484 H470 0.960 . S
C484 H471 0.961 . S
C484 H472 0.959 . S
C484 C482 1.561 . S
C485 C482 1.526 . S
C485 C486 1.396 . S
C485 C490 1.390 . S
C486 C480 1.465 . S
C486 C485 1.396 . S
C486 C487 1.399 1_545 S
C487 H473 0.929 . S
C487 C486 1.399 1_565 S
C487 C488 1.385 . S
C488 H474 0.931 . S
C488 C487 1.385 . S
C488 C489 1.389 . S
C489 C488 1.389 . S
C489 C490 1.387 1_565 S
C490 H475 0.930 . S
C490 C485 1.390 . S
C490 C489 1.387 1_545 S
H491 C503 0.930 . S
H492 C505 0.930 . S
H493 C506 0.931 . S
H494 C510 0.959 . S
H495 C510 0.959 . S
H496 C510 0.961 . S
H497 C511 0.960 . S
H498 C511 0.961 . S
H499 C511 0.959 . S
H500 C514 0.929 . S
H501 C515 0.931 . S
H502 C517 0.930 . S
C503 H491 0.930 . S
C503 C504 1.399 . S
C503 C508 1.399 . S
C504 C503 1.399 . S
C504 C505 1.376 1_565 S
C505 H492 0.930 . S
C505 C504 1.376 1_545 S
C505 C506 1.389 . S
C506 H493 0.931 . S
C506 C505 1.389 . S
C506 C507 1.388 1_545 S
C507 C506 1.388 1_565 S
C507 C508 1.394 . S
C507 C513 1.465 . S
C508 C503 1.399 . S
C508 C507 1.394 . S
C508 C509 1.516 . S
C509 C508 1.516 . S
C509 C510 1.502 . S
C509 C511 1.561 . S
C509 C512 1.526 . S
C510 H494 0.959 . S
C510 H495 0.959 . S
C510 H496 0.961 . S
C510 C509 1.502 . S
C511 H497 0.960 . S
C511 H498 0.961 . S
C511 H499 0.959 . S
C511 C509 1.561 . S
C512 C509 1.526 . S
C512 C513 1.396 . S
C512 C517 1.390 . S
C513 C507 1.465 . S
C513 C512 1.396 . S
C513 C514 1.399 . S
C514 H500 0.929 . S
C514 C513 1.399 . S
C514 C515 1.385 . S
C515 H501 0.931 . S
C515 C514 1.385 . S
C515 C516 1.389 . S
C516 C515 1.389 . S
C516 C517 1.387 . S
C517 H502 0.930 . S
C517 C512 1.390 . S
C517 C516 1.387 . S
H518 C530 0.930 . S
H519 C532 0.930 . S
H520 C533 0.930 . S
H521 C537 0.959 . S
H522 C537 0.959 . S
H523 C537 0.961 . S
H524 C538 0.960 . S
H525 C538 0.961 . S
H526 C538 0.959 . S
H527 C541 0.929 . S
H528 C542 0.931 . S
H529 C544 0.930 . S
C530 H518 0.930 . S
C530 C531 1.399 . S
C530 C535 1.399 . S
C531 C530 1.399 . S
C531 C532 1.376 . S
C532 H519 0.930 . S
C532 C531 1.376 . S
C532 C533 1.388 . S
C533 H520 0.930 . S
C533 C532 1.388 . S
C533 C534 1.390 . S
C534 C533 1.390 . S
C534 C535 1.394 . S
C534 C540 1.465 . S
C535 C530 1.399 . S
C535 C534 1.394 . S
C535 C536 1.516 . S
C536 C535 1.516 . S
C536 C537 1.502 . S
C536 C538 1.561 . S
C536 C539 1.526 . S
C537 H521 0.959 . S
C537 H522 0.959 . S
C537 H523 0.961 . S
C537 C536 1.502 . S
C538 H524 0.960 . S
C538 H525 0.961 . S
C538 H526 0.959 . S
C538 C536 1.561 . S
C539 C536 1.526 . S
C539 C540 1.396 . S
C539 C544 1.390 . S
C540 C534 1.465 . S
C540 C539 1.396 . S
C540 C541 1.399 . S
C541 H527 0.929 . S
C541 C540 1.399 . S
C541 C542 1.385 . S
C542 H528 0.931 . S
C542 C541 1.385 . S
C542 C543 1.389 . S
C543 C542 1.389 . S
C543 C544 1.387 . S
C544 H529 0.930 . S
C544 C539 1.390 . S
C544 C543 1.387 . S
H545 C557 0.930 . S
H546 C559 0.930 . S
H547 C560 0.930 . S
H548 C564 0.959 . S
H549 C564 0.959 . S
H550 C564 0.961 . S
H551 C565 0.960 . S
H552 C565 0.961 . S
H553 C565 0.959 . S
H554 C568 0.929 . S
H555 C569 0.931 . S
H556 C571 0.930 . S
C557 H545 0.930 . S
C557 C558 1.399 . S
C557 C562 1.399 . S
C558 C557 1.399 . S
C558 C559 1.376 . S
C559 H546 0.930 . S
C559 C558 1.376 . S
C559 C560 1.388 . S
C560 H547 0.930 . S
C560 C559 1.388 . S
C560 C561 1.390 . S
C561 C560 1.390 . S
C561 C562 1.394 . S
C561 C567 1.465 . S
C562 C557 1.399 . S
C562 C561 1.394 . S
C562 C563 1.516 . S
C563 C562 1.516 . S
C563 C564 1.502 . S
C563 C565 1.561 . S
C563 C566 1.526 . S
C564 H548 0.959 . S
C564 H549 0.959 . S
C564 H550 0.961 . S
C564 C563 1.502 . S
C565 H551 0.960 . S
C565 H552 0.961 . S
C565 H553 0.959 . S
C565 C563 1.561 . S
C566 C563 1.526 . S
C566 C567 1.396 . S
C566 C571 1.390 . S
C567 C561 1.465 . S
C567 C566 1.396 . S
C567 C568 1.399 . S
C568 H554 0.929 . S
C568 C567 1.399 . S
C568 C569 1.385 . S
C569 H555 0.931 . S
C569 C568 1.385 . S
C569 C570 1.389 . S
C570 C569 1.389 . S
C570 C571 1.387 . S
C571 H556 0.930 . S
C571 C566 1.390 . S
C571 C570 1.387 . S
H572 C584 0.930 . S
H573 C586 0.930 . S
H574 C587 0.930 . S
H575 C591 0.959 . S
H576 C591 0.959 . S
H577 C591 0.961 . S
H578 C592 0.960 . S
H579 C592 0.961 . S
H580 C592 0.959 . S
H581 C595 0.929 . S
H582 C596 0.931 . S
H583 C598 0.930 . S
C584 H572 0.930 . S
C584 C585 1.399 . S
C584 C589 1.399 . S
C585 C584 1.399 . S
C585 C586 1.376 . S
C586 H573 0.930 . S
C586 C585 1.376 . S
C586 C587 1.388 . S
C587 H574 0.930 . S
C587 C586 1.388 . S
C587 C588 1.390 . S
C588 C587 1.390 . S
C588 C589 1.394 . S
C588 C594 1.465 . S
C589 C584 1.399 . S
C589 C588 1.394 . S
C589 C590 1.516 . S
C590 C589 1.516 . S
C590 C591 1.502 . S
C590 C592 1.561 . S
C590 C593 1.526 . S
C591 H575 0.959 . S
C591 H576 0.959 . S
C591 H577 0.961 . S
C591 C590 1.502 . S
C592 H578 0.960 . S
C592 H579 0.961 . S
C592 H580 0.959 . S
C592 C590 1.561 . S
C593 C590 1.526 . S
C593 C594 1.396 . S
C593 C598 1.390 . S
C594 C588 1.465 . S
C594 C593 1.396 . S
C594 C595 1.399 . S
C595 H581 0.929 . S
C595 C594 1.399 . S
C595 C596 1.385 . S
C596 H582 0.931 . S
C596 C595 1.385 . S
C596 C597 1.389 . S
C597 C596 1.389 . S
C597 C598 1.387 . S
C598 H583 0.930 . S
C598 C593 1.390 . S
C598 C597 1.387 . S
H599 C611 0.930 . S
H600 C613 0.930 . S
H601 C614 0.930 . S
H602 C618 0.959 . S
H603 C618 0.959 . S
H604 C618 0.961 . S
H605 C619 0.960 . S
H606 C619 0.961 . S
H607 C619 0.959 . S
H608 C622 0.929 . S
H609 C623 0.931 . S
H610 C625 0.930 . S
C611 H599 0.930 . S
C611 C612 1.399 . S
C611 C616 1.399 . S
C612 C611 1.399 . S
C612 C613 1.376 . S
C613 H600 0.930 . S
C613 C612 1.376 . S
C613 C614 1.388 . S
C614 H601 0.930 . S
C614 C613 1.388 . S
C614 C615 1.390 . S
C615 C614 1.390 . S
C615 C616 1.394 . S
C615 C621 1.465 . S
C616 C611 1.399 . S
C616 C615 1.394 . S
C616 C617 1.516 . S
C617 C616 1.516 . S
C617 C618 1.502 . S
C617 C619 1.561 . S
C617 C620 1.526 . S
C618 H602 0.959 . S
C618 H603 0.959 . S
C618 H604 0.961 . S
C618 C617 1.502 . S
C619 H605 0.960 . S
C619 H606 0.961 . S
C619 H607 0.959 . S
C619 C617 1.561 . S
C620 C617 1.526 . S
C620 C621 1.396 . S
C620 C625 1.390 . S
C621 C615 1.465 . S
C621 C620 1.396 . S
C621 C622 1.399 . S
C622 H608 0.929 . S
C622 C621 1.399 . S
C622 C623 1.385 . S
C623 H609 0.931 . S
C623 C622 1.385 . S
C623 C624 1.389 . S
C624 C623 1.389 . S
C624 C625 1.387 . S
C625 H610 0.930 . S
C625 C620 1.390 . S
C625 C624 1.387 . S
H626 C638 0.930 1_545 S
H627 C640 0.930 . S
H628 C641 0.930 . S
H629 C645 0.959 . S
H630 C645 0.962 . S
H631 C645 0.961 1_545 S
H632 C646 0.960 . S
H633 C646 0.961 . S
H634 C646 0.959 . S
H635 C649 0.929 . S
H636 C650 0.931 . S
H637 C652 0.930 . S
C638 H626 0.930 1_565 S
C638 C639 1.399 . S
C638 C643 1.399 . S
C639 C638 1.399 . S
C639 C640 1.376 . S
C640 H627 0.930 . S
C640 C639 1.376 . S
C640 C641 1.388 . S
C641 H628 0.930 . S
C641 C640 1.388 . S
C641 C642 1.390 . S
C642 C641 1.390 . S
C642 C643 1.394 . S
C642 C648 1.465 . S
C643 C638 1.399 . S
C643 C642 1.394 . S
C643 C644 1.516 . S
C644 C643 1.516 . S
C644 C645 1.502 . S
C644 C646 1.561 1_565 S
C644 C647 1.526 . S
C645 H629 0.959 . S
C645 H630 0.962 . S
C645 H631 0.961 1_565 S
C645 C644 1.502 . S
C646 H632 0.960 . S
C646 H633 0.961 . S
C646 H634 0.959 . S
C646 C644 1.561 1_545 S
C647 C644 1.526 . S
C647 C648 1.396 . S
C647 C652 1.390 . S
C648 C642 1.465 . S
C648 C647 1.396 . S
C648 C649 1.399 . S
C649 H635 0.929 . S
C649 C648 1.399 . S
C649 C650 1.385 . S
C650 H636 0.931 . S
C650 C649 1.385 . S
C650 C651 1.389 . S
C651 C650 1.389 . S
C651 C652 1.387 . S
C652 H637 0.930 . S
C652 C647 1.390 . S
C652 C651 1.387 . S
H653 C665 0.923 1_565 S
H654 C667 0.930 . S
H655 C668 0.930 . S
H656 C672 0.959 . S
H657 C672 0.959 . S
H658 C672 0.961 . S
H659 C673 0.960 . S
H660 C673 0.961 . S
H661 C673 0.959 . S
H662 C676 0.929 . S
H663 C677 0.931 . S
H664 C679 0.930 . S
C665 H653 0.923 1_545 S
C665 C666 1.399 . S
C665 C670 1.399 . S
C666 C665 1.399 . S
C666 C667 1.376 . S
C667 H654 0.930 . S
C667 C666 1.376 . S
C667 C668 1.388 . S
C668 H655 0.930 . S
C668 C667 1.388 . S
C668 C669 1.390 . S
C669 C668 1.390 . S
C669 C670 1.394 . S
C669 C675 1.465 . S
C670 C665 1.399 . S
C670 C669 1.394 . S
C670 C671 1.516 . S
C671 C670 1.516 . S
C671 C672 1.502 . S
C671 C673 1.561 1_545 S
C671 C674 1.526 . S
C672 H656 0.959 . S
C672 H657 0.959 . S
C672 H658 0.961 . S
C672 C671 1.502 . S
C673 H659 0.960 . S
C673 H660 0.961 . S
C673 H661 0.959 . S
C673 C671 1.561 1_565 S
C674 C671 1.526 . S
C674 C675 1.396 . S
C674 C679 1.390 . S
C675 C669 1.465 . S
C675 C674 1.396 . S
C675 C676 1.399 . S
C676 H662 0.929 . S
C676 C675 1.399 . S
C676 C677 1.385 . S
C677 H663 0.931 . S
C677 C676 1.385 . S
C677 C678 1.389 . S
C678 C677 1.389 . S
C678 C679 1.387 . S
C679 H664 0.930 . S
C679 C674 1.390 . S
C679 C678 1.387 . S
H680 C692 0.930 . S
H681 C694 0.930 . S
H682 C695 0.930 . S
H683 C699 0.959 . S
H684 C699 0.959 . S
H685 C699 0.961 . S
H686 C700 0.960 . S
H687 C700 0.961 . S
H688 C700 0.959 . S
H689 C703 0.929 . S
H690 C704 0.931 . S
H691 C706 0.930 . S
C692 H680 0.930 . S
C692 C693 1.399 . S
C692 C697 1.399 . S
C693 C692 1.399 . S
C693 C694 1.376 1_454 S
C694 H681 0.930 . S
C694 C693 1.376 1_656 S
C694 C695 1.388 . S
C695 H682 0.930 . S
C695 C694 1.388 . S
C695 C696 1.390 . S
C696 C695 1.390 . S
C696 C697 1.394 1_656 S
C696 C702 1.465 . S
C697 C692 1.399 . S
C697 C696 1.394 1_454 S
C697 C698 1.516 . S
C698 C697 1.516 . S
C698 C699 1.502 . S
C698 C700 1.561 1_455 S
C698 C701 1.526 . S
C699 H683 0.959 . S
C699 H684 0.959 . S
C699 H685 0.961 . S
C699 C698 1.502 . S
C700 H686 0.960 . S
C700 H687 0.961 . S
C700 H688 0.959 . S
C700 C698 1.561 1_655 S
C701 C698 1.526 . S
C701 C702 1.396 1_454 S
C701 C706 1.390 . S
C702 C696 1.465 . S
C702 C701 1.396 1_656 S
C702 C703 1.399 . S
C703 H689 0.929 . S
C703 C702 1.399 . S
C703 C704 1.385 . S
C704 H690 0.931 . S
C704 C703 1.385 . S
C704 C705 1.389 . S
C705 C704 1.389 . S
C705 C706 1.387 1_656 S
C706 H691 0.930 . S
C706 C701 1.390 . S
C706 C705 1.387 1_454 S
H707 C719 0.930 . S
H708 C721 0.930 . S
H709 C722 0.930 . S
H710 C726 0.959 . S
H711 C726 0.959 . S
H712 C726 0.961 . S
H713 C727 0.960 . S
H714 C727 0.961 . S
H715 C727 0.959 . S
H716 C730 0.929 . S
H717 C731 0.931 1_545 S
H718 C733 0.930 . S
C719 H707 0.930 . S
C719 C720 1.399 . S
C719 C724 1.399 . S
C720 C719 1.399 . S
C720 C721 1.376 . S
C721 H708 0.930 . S
C721 C720 1.376 . S
C721 C722 1.388 . S
C722 H709 0.930 . S
C722 C721 1.388 . S
C722 C723 1.390 . S
C723 C722 1.390 . S
C723 C724 1.394 . S
C723 C729 1.465 . S
C724 C719 1.399 . S
C724 C723 1.394 . S
C724 C725 1.516 . S
C725 C724 1.516 . S
C725 C726 1.502 . S
C725 C727 1.561 . S
C725 C728 1.526 . S
C726 H710 0.959 . S
C726 H711 0.959 . S
C726 H712 0.961 . S
C726 C725 1.502 . S
C727 H713 0.960 . S
C727 H714 0.961 . S
C727 H715 0.959 . S
C727 C725 1.561 . S
C728 C725 1.526 . S
C728 C729 1.396 . S
C728 C733 1.390 . S
C729 C723 1.465 . S
C729 C728 1.396 . S
C729 C730 1.399 . S
C730 H716 0.929 . S
C730 C729 1.399 . S
C730 C731 1.385 . S
C731 H717 0.931 1_565 S
C731 C730 1.385 . S
C731 C732 1.389 . S
C732 C731 1.389 . S
C732 C733 1.387 . S
C733 H718 0.930 . S
C733 C728 1.390 . S
C733 C732 1.387 . S
H734 C746 0.930 . S
H735 C748 0.930 1_565 S
H736 C749 0.930 . S
H737 C753 0.959 . S
H738 C753 0.959 . S
H739 C753 0.961 . S
H740 C754 0.960 . S
H741 C754 0.961 . S
H742 C754 0.959 . S
H743 C757 0.929 . S
H744 C758 0.931 . S
H745 C760 0.930 . S
C746 H734 0.930 . S
C746 C747 1.399 . S
C746 C751 1.399 . S
C747 C746 1.399 . S
C747 C748 1.376 . S
C748 H735 0.930 1_545 S
C748 C747 1.376 . S
C748 C749 1.388 . S
C749 H736 0.930 . S
C749 C748 1.388 . S
C749 C750 1.390 . S
C750 C749 1.390 . S
C750 C751 1.394 . S
C750 C756 1.465 . S
C751 C746 1.399 . S
C751 C750 1.394 . S
C751 C752 1.516 . S
C752 C751 1.516 . S
C752 C753 1.502 . S
C752 C754 1.561 . S
C752 C755 1.526 . S
C753 H737 0.959 . S
C753 H738 0.959 . S
C753 H739 0.961 . S
C753 C752 1.502 . S
C754 H740 0.960 . S
C754 H741 0.961 . S
C754 H742 0.959 . S
C754 C752 1.561 . S
C755 C752 1.526 . S
C755 C756 1.396 . S
C755 C760 1.390 . S
C756 C750 1.465 . S
C756 C755 1.396 . S
C756 C757 1.399 . S
C757 H743 0.929 . S
C757 C756 1.399 . S
C757 C758 1.385 . S
C758 H744 0.931 . S
C758 C757 1.385 . S
C758 C759 1.389 . S
C759 C758 1.389 . S
C759 C760 1.387 . S
C760 H745 0.930 . S
C760 C755 1.390 . S
C760 C759 1.387 . S
H761 C773 0.930 . S
H762 C775 0.930 . S
H763 C776 0.930 . S
H764 C780 0.959 . S
H765 C780 0.959 . S
H766 C780 0.961 1_565 S
H767 C781 0.960 1_565 S
H768 C781 0.961 . S
H769 C781 0.959 . S
H770 C784 0.929 . S
H771 C785 0.931 . S
H772 C787 0.930 . S
C773 H761 0.930 . S
C773 C774 1.399 1_655 S
C773 C778 1.399 . S
C774 C773 1.399 1_455 S
C774 C775 1.376 . S
C775 H762 0.930 . S
C775 C774 1.376 . S
C775 C776 1.388 . S
C776 H763 0.930 . S
C776 C775 1.388 . S
C776 C777 1.390 . S
C777 C776 1.390 . S
C777 C778 1.394 1_455 S
C777 C783 1.465 1_565 S
C778 C773 1.399 . S
C778 C777 1.394 1_655 S
C778 C779 1.516 1_565 S
C779 C778 1.516 1_545 S
C779 C780 1.502 . S
C779 C781 1.561 . S
C779 C782 1.526 . S
C780 H764 0.959 . S
C780 H765 0.959 . S
C780 H766 0.961 1_545 S
C780 C779 1.502 . S
C781 H767 0.960 1_545 S
C781 H768 0.961 . S
C781 H769 0.959 . S
C781 C779 1.561 . S
C782 C779 1.526 . S
C782 C783 1.396 1_655 S
C782 C787 1.390 . S
C783 C777 1.465 1_545 S
C783 C782 1.396 1_455 S
C783 C784 1.399 . S
C784 H770 0.929 . S
C784 C783 1.399 . S
C784 C785 1.385 . S
C785 H771 0.931 . S
C785 C784 1.385 . S
C785 C786 1.389 . S
C786 C785 1.389 . S
C786 C787 1.387 1_455 S
C787 H772 0.930 . S
C787 C782 1.390 . S
C787 C786 1.387 1_655 S
H788 C800 0.930 . S
H789 C802 0.930 1_565 S
H790 C803 0.930 . S
H791 C807 0.959 . S
H792 C807 0.959 . S
H793 C807 0.961 . S
H794 C808 0.960 . S
H795 C808 0.961 . S
H796 C808 0.959 . S
H797 C811 0.929 . S
H798 C812 0.931 . S
H799 C814 0.930 . S
C800 H788 0.930 . S
C800 C801 1.399 . S
C800 C805 1.399 . S
C801 C800 1.399 . S
C801 C802 1.376 . S
C802 H789 0.930 1_545 S
C802 C801 1.376 . S
C802 C803 1.388 . S
C803 H790 0.930 . S
C803 C802 1.388 . S
C803 C804 1.390 . S
C804 C803 1.390 . S
C804 C805 1.394 . S
C804 C810 1.465 . S
C805 C800 1.399 . S
C805 C804 1.394 . S
C805 C806 1.516 . S
C806 C805 1.516 . S
C806 C807 1.502 . S
C806 C808 1.561 . S
C806 C809 1.526 . S
C807 H791 0.959 . S
C807 H792 0.959 . S
C807 H793 0.961 . S
C807 C806 1.502 . S
C808 H794 0.960 . S
C808 H795 0.961 . S
C808 H796 0.959 . S
C808 C806 1.561 . S
C809 C806 1.526 . S
C809 C810 1.396 . S
C809 C814 1.390 . S
C810 C804 1.465 . S
C810 C809 1.396 . S
C810 C811 1.399 . S
C811 H797 0.929 . S
C811 C810 1.399 . S
C811 C812 1.385 . S
C812 H798 0.931 . S
C812 C811 1.385 . S
C812 C813 1.389 . S
C813 C812 1.389 . S
C813 C814 1.387 . S
C814 H799 0.930 . S
C814 C809 1.390 . S
C814 C813 1.387 . S
H815 C827 0.930 . S
H816 C829 0.930 . S
H817 C830 0.930 . S
H818 C834 0.959 . S
H819 C834 0.959 . S
H820 C834 0.961 . S
H821 C835 0.960 . S
H822 C835 0.961 . S
H823 C835 0.959 . S
H824 C838 0.929 . S
H825 C839 0.931 1_545 S
H826 C841 0.930 . S
C827 H815 0.930 . S
C827 C828 1.399 . S
C827 C832 1.399 . S
C828 C827 1.399 . S
C828 C829 1.376 . S
C829 H816 0.930 . S
C829 C828 1.376 . S
C829 C830 1.388 . S
C830 H817 0.930 . S
C830 C829 1.388 . S
C830 C831 1.390 . S
C831 C830 1.390 . S
C831 C832 1.394 . S
C831 C837 1.465 . S
C832 C827 1.399 . S
C832 C831 1.394 . S
C832 C833 1.516 . S
C833 C832 1.516 . S
C833 C834 1.502 . S
C833 C835 1.561 . S
C833 C836 1.526 . S
C834 H818 0.959 . S
C834 H819 0.959 . S
C834 H820 0.961 . S
C834 C833 1.502 . S
C835 H821 0.960 . S
C835 H822 0.961 . S
C835 H823 0.959 . S
C835 C833 1.561 . S
C836 C833 1.526 . S
C836 C837 1.396 . S
C836 C841 1.390 . S
C837 C831 1.465 . S
C837 C836 1.396 . S
C837 C838 1.399 . S
C838 H824 0.929 . S
C838 C837 1.399 . S
C838 C839 1.385 . S
C839 H825 0.931 1_565 S
C839 C838 1.385 . S
C839 C840 1.389 . S
C840 C839 1.389 . S
C840 C841 1.387 . S
C841 H826 0.930 . S
C841 C836 1.390 . S
C841 C840 1.387 . S
H842 C854 0.930 . S
H843 C856 0.930 . S
H844 C857 0.930 . S
H845 C861 0.959 . S
H846 C861 0.959 . S
H847 C861 0.961 . S
H848 C862 0.960 . S
H849 C862 0.961 . S
H850 C862 0.959 . S
H851 C865 0.929 . S
H852 C866 0.931 . S
H853 C868 0.930 . S
C854 H842 0.930 . S
C854 C855 1.399 . S
C854 C859 1.399 . S
C855 C854 1.399 . S
C855 C856 1.376 . S
C856 H843 0.930 . S
C856 C855 1.376 . S
C856 C857 1.388 . S
C857 H844 0.930 . S
C857 C856 1.388 . S
C857 C858 1.390 . S
C858 C857 1.390 . S
C858 C859 1.394 . S
C858 C864 1.465 . S
C859 C854 1.399 . S
C859 C858 1.394 . S
C859 C860 1.516 . S
C860 C859 1.516 . S
C860 C861 1.502 . S
C860 C862 1.561 . S
C860 C863 1.526 . S
C861 H845 0.959 . S
C861 H846 0.959 . S
C861 H847 0.961 . S
C861 C860 1.502 . S
C862 H848 0.960 . S
C862 H849 0.961 . S
C862 H850 0.959 . S
C862 C860 1.561 . S
C863 C860 1.526 . S
C863 C864 1.396 . S
C863 C868 1.390 . S
C864 C858 1.465 . S
C864 C863 1.396 . S
C864 C865 1.399 . S
C865 H851 0.929 . S
C865 C864 1.399 . S
C865 C866 1.385 . S
C866 H852 0.931 . S
C866 C865 1.385 . S
C866 C867 1.389 . S
C867 C866 1.389 . S
C867 C868 1.387 . S
C868 H853 0.930 . S
C868 C863 1.390 . S
C868 C867 1.387 . S
H869 C881 0.930 . S
H870 C883 0.930 . S
H871 C884 0.930 . S
H872 C888 0.959 . S
H873 C888 0.959 1_545 S
H874 C888 0.961 . S
H875 C889 0.960 . S
H876 C889 0.961 1_545 S
H877 C889 0.959 1_545 S
H878 C892 0.929 . S
H879 C893 0.931 . S
H880 C895 0.930 . S
C881 H869 0.930 . S
C881 C882 1.376 1_556 S
C881 C886 1.399 . S
C882 C881 1.376 1_554 S
C882 C883 1.404 . S
C883 H870 0.930 . S
C883 C882 1.404 . S
C883 C884 1.388 . S
C884 H871 0.930 . S
C884 C883 1.388 . S
C884 C885 1.390 . S
C885 C884 1.390 . S
C885 C886 1.394 1_554 S
C885 C891 1.465 1_565 S
C886 C881 1.399 . S
C886 C885 1.394 1_556 S
C886 C887 1.516 . S
C887 C886 1.516 . S
C887 C888 1.502 . S
C887 C889 1.561 . S
C887 C890 1.526 1_565 S
C888 H872 0.959 . S
C888 H873 0.959 1_565 S
C888 H874 0.961 . S
C888 C887 1.502 . S
C889 H875 0.960 . S
C889 H876 0.961 1_565 S
C889 H877 0.959 1_565 S
C889 C887 1.561 . S
C890 C887 1.526 1_545 S
C890 C891 1.396 1_556 S
C890 C895 1.390 . S
C891 C885 1.465 1_545 S
C891 C890 1.396 1_554 S
C891 C892 1.399 . S
C892 H878 0.929 . S
C892 C891 1.399 . S
C892 C893 1.385 . S
C893 H879 0.931 . S
C893 C892 1.385 . S
C893 C894 1.389 . S
C894 C893 1.389 . S
C894 C895 1.387 1_554 S
C895 H880 0.930 . S
C895 C890 1.390 . S
C895 C894 1.387 1_556 S
H896 C908 0.930 . S
H897 C910 0.930 . S
H898 C911 0.930 . S
H899 C915 0.959 . S
H900 C915 0.959 . S
H901 C915 0.961 . S
H902 C916 0.960 . S
H903 C916 0.961 . S
H904 C916 0.959 . S
H905 C919 0.929 . S
H906 C920 0.931 . S
H907 C922 0.930 . S
C908 H896 0.930 . S
C908 C909 1.399 1_554 S
C908 C913 1.399 . S
C909 C908 1.399 1_556 S
C909 C910 1.376 . S
C910 H897 0.930 . S
C910 C909 1.376 . S
C910 C911 1.388 . S
C911 H898 0.930 . S
C911 C910 1.388 . S
C911 C912 1.390 . S
C912 C911 1.390 . S
C912 C913 1.394 1_556 S
C912 C918 1.465 . S
C913 C908 1.399 . S
C913 C912 1.394 1_554 S
C913 C914 1.516 . S
C914 C913 1.516 . S
C914 C915 1.502 . S
C914 C916 1.561 . S
C914 C917 1.526 . S
C915 H899 0.959 . S
C915 H900 0.959 . S
C915 H901 0.961 . S
C915 C914 1.502 . S
C916 H902 0.960 . S
C916 H903 0.961 . S
C916 H904 0.959 . S
C916 C914 1.561 . S
C917 C914 1.526 . S
C917 C918 1.396 1_554 S
C917 C922 1.390 . S
C918 C912 1.465 . S
C918 C917 1.396 1_556 S
C918 C919 1.399 . S
C919 H905 0.929 . S
C919 C918 1.399 . S
C919 C920 1.385 . S
C920 H906 0.931 . S
C920 C919 1.385 . S
C920 C921 1.389 1_556 S
C921 C920 1.389 1_554 S
C921 C922 1.387 . S
C922 H907 0.930 . S
C922 C917 1.390 . S
C922 C921 1.387 . S
H923 C935 0.930 . S
H924 C937 0.930 . S
H925 C938 0.930 . S
H926 C942 0.959 . S
H927 C942 0.959 . S
H928 C942 0.961 . S
H929 C943 0.960 . S
H930 C943 0.961 . S
H931 C943 0.959 . S
H932 C946 0.929 . S
H933 C947 0.931 . S
H934 C949 0.930 . S
C935 H923 0.930 . S
C935 C936 1.424 . S
C935 C940 1.399 . S
C936 C935 1.424 . S
C936 C937 1.341 1_556 S
C937 H924 0.930 . S
C937 C936 1.341 1_554 S
C937 C938 1.388 . S
C938 H925 0.930 . S
C938 C937 1.388 . S
C938 C939 1.390 . S
C939 C938 1.390 . S
C939 C940 1.394 1_554 S
C939 C945 1.465 . S
C940 C935 1.399 . S
C940 C939 1.394 1_556 S
C940 C941 1.516 . S
C941 C940 1.516 . S
C941 C942 1.502 . S
C941 C943 1.561 . S
C941 C944 1.526 . S
C942 H926 0.959 . S
C942 H927 0.959 . S
C942 H928 0.961 . S
C942 C941 1.502 . S
C943 H929 0.960 . S
C943 H930 0.961 . S
C943 H931 0.959 . S
C943 C941 1.561 . S
C944 C941 1.526 . S
C944 C945 1.396 1_556 S
C944 C949 1.390 . S
C945 C939 1.465 . S
C945 C944 1.396 1_554 S
C945 C946 1.399 . S
C946 H932 0.929 . S
C946 C945 1.399 . S
C946 C947 1.385 . S
C947 H933 0.931 . S
C947 C946 1.385 . S
C947 C948 1.389 . S
C948 C947 1.389 . S
C948 C949 1.387 1_554 S
C949 H934 0.930 . S
C949 C944 1.390 . S
C949 C948 1.387 1_556 S
H950 C962 0.930 . S
H951 C964 0.930 . S
H952 C965 0.930 . S
H953 C969 0.959 . S
H954 C969 0.959 . S
H955 C969 0.961 . S
H956 C970 0.960 . S
H957 C970 0.961 1_655 S
H958 C970 0.959 1_655 S
H959 C973 0.929 . S
H960 C974 0.931 . S
H961 C976 0.930 . S
C962 H950 0.930 . S
C962 C963 1.399 . S
C962 C967 1.399 . S
C963 C962 1.399 . S
C963 C964 1.376 . S
C964 H951 0.930 . S
C964 C963 1.376 . S
C964 C965 1.388 . S
C965 H952 0.930 . S
C965 C964 1.388 . S
C965 C966 1.390 . S
C966 C965 1.390 . S
C966 C967 1.394 . S
C966 C972 1.465 1_455 S
C967 C962 1.399 . S
C967 C966 1.394 . S
C967 C968 1.516 . S
C968 C967 1.516 . S
C968 C969 1.502 . S
C968 C970 1.561 . S
C968 C971 1.526 1_455 S
C969 H953 0.959 . S
C969 H954 0.959 . S
C969 H955 0.961 . S
C969 C968 1.502 . S
C970 H956 0.960 . S
C970 H957 0.961 1_455 S
C970 H958 0.959 1_455 S
C970 C968 1.561 . S
C971 C968 1.526 1_655 S
C971 C972 1.396 . S
C971 C976 1.390 . S
C972 C966 1.465 1_655 S
C972 C971 1.396 . S
C972 C973 1.399 . S
C973 H959 0.929 . S
C973 C972 1.399 . S
C973 C974 1.385 . S
C974 H960 0.931 . S
C974 C973 1.385 . S
C974 C975 1.389 . S
C975 C974 1.389 . S
C975 C976 1.387 . S
C976 H961 0.930 . S
C976 C971 1.390 . S
C976 C975 1.387 . S
H977 C989 0.930 . S
H978 C991 0.930 . S
H979 C992 0.930 . S
H980 C996 0.959 . S
H981 C996 0.959 . S
H982 C996 0.961 . S
H983 C997 0.960 . S
H984 C997 0.961 . S
H985 C997 0.959 . S
H986 C1000 0.929 . S
H987 C1001 0.931 . S
H988 C1003 0.930 . S
C989 H977 0.930 . S
C989 C990 1.399 . S
C989 C994 1.399 . S
C990 C989 1.399 . S
C990 C991 1.376 . S
C991 H978 0.930 . S
C991 C990 1.376 . S
C991 C992 1.388 . S
C992 H979 0.930 . S
C992 C991 1.388 . S
C992 C993 1.390 . S
C993 C992 1.390 . S
C993 C994 1.394 . S
C993 C999 1.465 . S
C994 C989 1.399 . S
C994 C993 1.394 . S
C994 C995 1.516 . S
C995 C994 1.516 . S
C995 C996 1.502 . S
C995 C997 1.561 . S
C995 C998 1.526 . S
C996 H980 0.959 . S
C996 H981 0.959 . S
C996 H982 0.961 . S
C996 C995 1.502 . S
C997 H983 0.960 . S
C997 H984 0.961 . S
C997 H985 0.959 . S
C997 C995 1.561 . S
C998 C995 1.526 . S
C998 C999 1.396 . S
C998 C1003 1.390 . S
C999 C993 1.465 . S
C999 C998 1.396 . S
C999 C1000 1.399 . S
C1000 H986 0.929 . S
C1000 C999 1.399 . S
C1000 C1001 1.385 . S
C1001 H987 0.931 . S
C1001 C1000 1.385 . S
C1001 C1002 1.389 . S
C1002 C1001 1.389 . S
C1002 C1003 1.387 . S
C1003 H988 0.930 . S
C1003 C998 1.390 . S
C1003 C1002 1.387 . S
H1004 C1016 0.930 . S
H1005 C1018 0.930 . S
H1006 C1019 0.930 . S
H1007 C1023 0.959 . S
H1008 C1023 0.959 . S
H1009 C1023 0.961 . S
H1010 C1024 0.960 . S
H1011 C1024 0.961 . S
H1012 C1024 0.959 . S
H1013 C1027 0.929 . S
H1014 C1028 0.931 . S
H1015 C1030 0.930 . S
C1016 H1004 0.930 . S
C1016 C1017 1.399 . S
C1016 C1021 1.399 . S
C1017 C1016 1.399 . S
C1017 C1018 1.376 . S
C1018 H1005 0.930 . S
C1018 C1017 1.376 . S
C1018 C1019 1.388 . S
C1019 H1006 0.930 . S
C1019 C1018 1.388 . S
C1019 C1020 1.390 . S
C1020 C1019 1.390 . S
C1020 C1021 1.394 . S
C1020 C1026 1.465 . S
C1021 C1016 1.399 . S
C1021 C1020 1.394 . S
C1021 C1022 1.516 . S
C1022 C1021 1.516 . S
C1022 C1023 1.502 . S
C1022 C1024 1.561 . S
C1022 C1025 1.526 . S
C1023 H1007 0.959 . S
C1023 H1008 0.959 . S
C1023 H1009 0.961 . S
C1023 C1022 1.502 . S
C1024 H1010 0.960 . S
C1024 H1011 0.961 . S
C1024 H1012 0.959 . S
C1024 C1022 1.561 . S
C1025 C1022 1.526 . S
C1025 C1026 1.396 . S
C1025 C1030 1.390 . S
C1026 C1020 1.465 . S
C1026 C1025 1.396 . S
C1026 C1027 1.399 . S
C1027 H1013 0.929 . S
C1027 C1026 1.399 . S
C1027 C1028 1.385 . S
C1028 H1014 0.931 . S
C1028 C1027 1.385 . S
C1028 C1029 1.389 . S
C1029 C1028 1.389 . S
C1029 C1030 1.387 . S
C1030 H1015 0.930 . S
C1030 C1025 1.390 . S
C1030 C1029 1.387 . S
H1031 C1043 0.930 . S
H1032 C1045 0.930 . S
H1033 C1046 0.930 1_565 S
H1034 C1050 0.959 . S
H1035 C1050 0.959 . S
H1036 C1050 0.961 1_655 S
H1037 C1051 0.960 . S
H1038 C1051 0.961 1_455 S
H1039 C1051 0.959 . S
H1040 C1054 0.929 . S
H1041 C1055 0.931 . S
H1042 C1057 0.930 . S
C1043 H1031 0.930 . S
C1043 C1044 1.399 . S
C1043 C1048 1.399 . S
C1044 C1043 1.399 . S
C1044 C1045 1.376 . S
C1045 H1032 0.930 . S
C1045 C1044 1.376 . S
C1045 C1046 1.388 . S
C1046 H1033 0.930 1_545 S
C1046 C1045 1.388 . S
C1046 C1047 1.389 1_545 S
C1047 C1046 1.389 1_565 S
C1047 C1048 1.392 1_565 S
C1047 C1053 1.467 1_655 S
C1048 C1043 1.399 . S
C1048 C1047 1.392 1_545 S
C1048 C1049 1.516 1_655 S
C1049 C1048 1.516 1_455 S
C1049 C1050 1.502 . S
C1049 C1051 1.561 1_445 S
C1049 C1052 1.526 1_545 S
C1050 H1034 0.959 . S
C1050 H1035 0.959 . S
C1050 H1036 0.961 1_455 S
C1050 C1049 1.502 . S
C1051 H1037 0.960 . S
C1051 H1038 0.961 1_655 S
C1051 H1039 0.959 . S
C1051 C1049 1.561 1_665 S
C1052 C1049 1.526 1_565 S
C1052 C1053 1.396 . S
C1052 C1057 1.390 . S
C1053 C1047 1.467 1_455 S
C1053 C1052 1.396 . S
C1053 C1054 1.399 . S
C1054 H1040 0.929 . S
C1054 C1053 1.399 . S
C1054 C1055 1.385 . S
C1055 H1041 0.931 . S
C1055 C1054 1.385 . S
C1055 C1056 1.389 . S
C1056 C1055 1.389 . S
C1056 C1057 1.387 . S
C1057 H1042 0.930 . S
C1057 C1052 1.390 . S
C1057 C1056 1.387 . S
H1058 C1070 0.930 . S
H1059 C1072 0.930 . S
H1060 C1073 0.930 . S
H1061 C1077 0.959 . S
H1062 C1077 0.959 . S
H1063 C1077 0.961 . S
H1064 C1078 0.960 . S
H1065 C1078 0.961 . S
H1066 C1078 0.959 . S
H1067 C1081 0.929 . S
H1068 C1082 0.931 . S
H1069 C1084 0.930 . S
C1070 H1058 0.930 . S
C1070 C1071 1.399 . S
C1070 C1075 1.399 . S
C1071 C1070 1.399 . S
C1071 C1072 1.376 . S
C1072 H1059 0.930 . S
C1072 C1071 1.376 . S
C1072 C1073 1.388 . S
C1073 H1060 0.930 . S
C1073 C1072 1.388 . S
C1073 C1074 1.390 . S
C1074 C1073 1.390 . S
C1074 C1075 1.394 . S
C1074 C1080 1.465 . S
C1075 C1070 1.399 . S
C1075 C1074 1.394 . S
C1075 C1076 1.516 . S
C1076 C1075 1.516 . S
C1076 C1077 1.502 . S
C1076 C1078 1.561 . S
C1076 C1079 1.526 . S
C1077 H1061 0.959 . S
C1077 H1062 0.959 . S
C1077 H1063 0.961 . S
C1077 C1076 1.502 . S
C1078 H1064 0.960 . S
C1078 H1065 0.961 . S
C1078 H1066 0.959 . S
C1078 C1076 1.561 . S
C1079 C1076 1.526 . S
C1079 C1080 1.396 . S
C1079 C1084 1.390 . S
C1080 C1074 1.465 . S
C1080 C1079 1.396 . S
C1080 C1081 1.399 . S
C1081 H1067 0.929 . S
C1081 C1080 1.399 . S
C1081 C1082 1.385 . S
C1082 H1068 0.931 . S
C1082 C1081 1.385 . S
C1082 C1083 1.389 . S
C1083 C1082 1.389 . S
C1083 C1084 1.387 . S
C1084 H1069 0.930 . S
C1084 C1079 1.390 . S
C1084 C1083 1.387 . S
H1085 C1097 0.930 . S
H1086 C1099 0.930 . S
H1087 C1100 0.930 . S
H1088 C1104 0.959 . S
H1089 C1104 0.959 . S
H1090 C1104 0.961 . S
H1091 C1105 0.960 . S
H1092 C1105 0.961 . S
H1093 C1105 0.959 . S
H1094 C1108 0.929 1_565 S
H1095 C1109 0.931 . S
H1096 C1111 0.930 . S
C1097 H1085 0.930 . S
C1097 C1098 1.399 . S
C1097 C1102 1.399 . S
C1098 C1097 1.399 . S
C1098 C1099 1.376 . S
C1099 H1086 0.930 . S
C1099 C1098 1.376 . S
C1099 C1100 1.388 . S
C1100 H1087 0.930 . S
C1100 C1099 1.388 . S
C1100 C1101 1.390 . S
C1101 C1100 1.390 . S
C1101 C1102 1.394 . S
C1101 C1107 1.463 1_565 S
C1102 C1097 1.399 . S
C1102 C1101 1.394 . S
C1102 C1103 1.516 1_565 S
C1103 C1102 1.516 1_545 S
C1103 C1104 1.502 . S
C1103 C1105 1.561 1_545 S
C1103 C1106 1.526 . S
C1104 H1088 0.959 . S
C1104 H1089 0.959 . S
C1104 H1090 0.961 . S
C1104 C1103 1.502 . S
C1105 H1091 0.960 . S
C1105 H1092 0.961 . S
C1105 H1093 0.959 . S
C1105 C1103 1.561 1_565 S
C1106 C1103 1.526 . S
C1106 C1107 1.398 . S
C1106 C1111 1.390 . S
C1107 C1101 1.463 1_545 S
C1107 C1106 1.398 . S
C1107 C1108 1.399 . S
C1108 H1094 0.929 1_545 S
C1108 C1107 1.399 . S
C1108 C1109 1.385 . S
C1109 H1095 0.931 . S
C1109 C1108 1.385 . S
C1109 C1110 1.389 . S
C1110 C1109 1.389 . S
C1110 C1111 1.387 . S
C1111 H1096 0.930 . S
C1111 C1106 1.390 . S
C1111 C1110 1.387 . S
C261 C0 1.479 1_545 S
C273 C49 1.595 . S
C288 C18 1.799 1_565 S
C300 C62 1.789 . S
C315 C104 1.613 . S
C327 C55 1.535 . S
C342 C73 1.804 . S
C354 C117 1.782 . S
C369 C93 1.479 . S
C381 C142 1.597 . S
C396 C155 1.785 . S
C408 C111 1.797 . S
C423 C148 1.481 . S
C435 C11 1.563 . S
C450 C166 1.769 . S
C462 C24 1.761 . S
C477 C173 1.522 . S
C489 C186 1.558 . S
C504 C204 1.770 1_565 S
C516 C124 1.752 . S
C531 C228 1.569 . S
C543 C179 1.480 . S
C558 C241 1.751 . S
C570 C135 1.770 . S
C585 C217 1.585 . S
C597 C80 1.523 . S
C612 C31 1.788 . S
C624 C235 1.799 . S
C639 C197 1.552 . S
C651 C86 1.586 . S
C666 C210 1.750 . S
C678 C42 1.775 . S
C693 C10 0.744 . S
C705 C2 0.717 1_556 S
C720 C41 0.746 . S
C732 C33 0.726 1_565 S
C747 C72 0.727 1_545 S
C759 C64 0.745 . S
C774 C95 0.761 1_455 S
C786 C103 0.680 . S
C801 C134 0.725 1_545 S
C813 C126 0.712 . S
C828 C165 0.748 . S
C840 C157 0.724 1_565 S
C855 C196 0.729 . S
C867 C188 0.743 . S
C882 C219 0.671 . S
C894 C227 0.771 . S
C909 C244 1.456 . S
C921 C1 1.499 . S
C936 C27 1.523 . S
C948 C218 1.456 . S
C963 C58 1.450 . S
C975 C63 1.509 . S
C990 C213 1.454 . S
C1002 C94 1.501 . S
C1017 C120 1.451 . S
C1029 C187 1.506 . S
C1044 C156 1.472 . S
C1056 C151 1.498 . S
C1071 C182 1.511 . S
C1083 C125 1.454 . S
C1098 C89 1.450 . S
C1110 C32 1.510 . S
