# Generated by pormake.
# Topology ukw, (4)-cn, num edge types: 1
# Building blocks:
#     Node 0, Type 0, BuildingBlock: QUQFOY_clean_sbu_1, # of connection points: 4
#     Node 1, Type 0, BuildingBlock: QUQFOY_clean_sbu_1, # of connection points: 4
#     Node 2, Type 0, BuildingBlock: QUQFOY_clean_sbu_1, # of connection points: 4
#     Node 3, Type 0, BuildingBlock: QUQFOY_clean_sbu_1, # of connection points: 4
#     Node 4, Type 0, BuildingBlock: QUQFOY_clean_sbu_1, # of connection points: 4
#     Node 5, Type 0, BuildingBlock: QUQFOY_clean_sbu_1, # of connection points: 4
#     Node 6, Type 0, BuildingBlock: QUQFOY_clean_sbu_1, # of connection points: 4
#     Node 7, Type 0, BuildingBlock: QUQFOY_clean_sbu_1, # of connection points: 4
#     Node 8, Type 0, BuildingBlock: QUQFOY_clean_sbu_1, # of connection points: 4
#     Node 9, Type 0, BuildingBlock: QUQFOY_clean_sbu_1, # of connection points: 4
#     Node 10, Type 0, BuildingBlock: QUQFOY_clean_sbu_1, # of connection points: 4
#     Node 11, Type 0, BuildingBlock: QUQFOY_clean_sbu_1, # of connection points: 4
#     Node 12, Type 0, BuildingBlock: QUQFOY_clean_sbu_1, # of connection points: 4
#     Node 13, Type 0, BuildingBlock: QUQFOY_clean_sbu_1, # of connection points: 4
#     Node 14, Type 0, BuildingBlock: QUQFOY_clean_sbu_1, # of connection points: 4
#     Node 15, Type 0, BuildingBlock: QUQFOY_clean_sbu_1, # of connection points: 4
#     Node 16, Type 0, BuildingBlock: QUQFOY_clean_sbu_1, # of connection points: 4
#     Node 17, Type 0, BuildingBlock: QUQFOY_clean_sbu_1, # of connection points: 4
#     Node 18, Type 0, BuildingBlock: QUQFOY_clean_sbu_1, # of connection points: 4
#     Node 19, Type 0, BuildingBlock: QUQFOY_clean_sbu_1, # of connection points: 4
#     Node 20, Type 0, BuildingBlock: QUQFOY_clean_sbu_1, # of connection points: 4
#     Node 21, Type 0, BuildingBlock: QUQFOY_clean_sbu_1, # of connection points: 4
#     Node 22, Type 0, BuildingBlock: QUQFOY_clean_sbu_1, # of connection points: 4
#     Node 23, Type 0, BuildingBlock: QUQFOY_clean_sbu_1, # of connection points: 4
#     Node 24, Type 0, BuildingBlock: QUQFOY_clean_sbu_1, # of connection points: 4
#     Node 25, Type 0, BuildingBlock: QUQFOY_clean_sbu_1, # of connection points: 4
#     Node 26, Type 0, BuildingBlock: QUQFOY_clean_sbu_1, # of connection points: 4
#     Node 27, Type 0, BuildingBlock: QUQFOY_clean_sbu_1, # of connection points: 4
#     Node 28, Type 0, BuildingBlock: QUQFOY_clean_sbu_1, # of connection points: 4
#     Node 29, Type 0, BuildingBlock: QUQFOY_clean_sbu_1, # of connection points: 4
#     Node 30, Type 0, BuildingBlock: QUQFOY_clean_sbu_1, # of connection points: 4
#     Node 31, Type 0, BuildingBlock: QUQFOY_clean_sbu_1, # of connection points: 4
#     Node 32, Type 0, BuildingBlock: QUQFOY_clean_sbu_1, # of connection points: 4
#     Node 33, Type 0, BuildingBlock: QUQFOY_clean_sbu_1, # of connection points: 4
#     Node 34, Type 0, BuildingBlock: QUQFOY_clean_sbu_1, # of connection points: 4
#     Node 35, Type 0, BuildingBlock: QUQFOY_clean_sbu_1, # of connection points: 4
#     Node 36, Type 0, BuildingBlock: QUQFOY_clean_sbu_1, # of connection points: 4
#     Node 37, Type 0, BuildingBlock: QUQFOY_clean_sbu_1, # of connection points: 4
#     Node 38, Type 0, BuildingBlock: QUQFOY_clean_sbu_1, # of connection points: 4
#     Node 39, Type 0, BuildingBlock: QUQFOY_clean_sbu_1, # of connection points: 4
#     Node 40, Type 0, BuildingBlock: QUQFOY_clean_sbu_1, # of connection points: 4
#     Node 41, Type 0, BuildingBlock: QUQFOY_clean_sbu_1, # of connection points: 4
#     Node 42, Type 0, BuildingBlock: QUQFOY_clean_sbu_1, # of connection points: 4
#     Node 43, Type 0, BuildingBlock: QUQFOY_clean_sbu_1, # of connection points: 4
#     Node 44, Type 0, BuildingBlock: QUQFOY_clean_sbu_1, # of connection points: 4
#     Node 45, Type 0, BuildingBlock: QUQFOY_clean_sbu_1, # of connection points: 4
#     Node 46, Type 0, BuildingBlock: QUQFOY_clean_sbu_1, # of connection points: 4
#     Node 47, Type 0, BuildingBlock: QUQFOY_clean_sbu_1, # of connection points: 4
#     Node 48, Type 0, BuildingBlock: QUQFOY_clean_sbu_1, # of connection points: 4
#     Node 49, Type 0, BuildingBlock: QUQFOY_clean_sbu_1, # of connection points: 4
#     Node 50, Type 0, BuildingBlock: QUQFOY_clean_sbu_1, # of connection points: 4
#     Node 51, Type 0, BuildingBlock: QUQFOY_clean_sbu_1, # of connection points: 4
#     Node 52, Type 0, BuildingBlock: QUQFOY_clean_sbu_1, # of connection points: 4
#     Node 53, Type 0, BuildingBlock: QUQFOY_clean_sbu_1, # of connection points: 4
#     Node 54, Type 0, BuildingBlock: QUQFOY_clean_sbu_1, # of connection points: 4
#     Node 55, Type 0, BuildingBlock: QUQFOY_clean_sbu_1, # of connection points: 4
#     Node 56, Type 0, BuildingBlock: QUQFOY_clean_sbu_1, # of connection points: 4
#     Node 57, Type 0, BuildingBlock: QUQFOY_clean_sbu_1, # of connection points: 4
#     Node 58, Type 0, BuildingBlock: QUQFOY_clean_sbu_1, # of connection points: 4
#     Node 59, Type 0, BuildingBlock: QUQFOY_clean_sbu_1, # of connection points: 4
#     Node 60, Type 0, BuildingBlock: QUQFOY_clean_sbu_1, # of connection points: 4
#     Node 61, Type 0, BuildingBlock: QUQFOY_clean_sbu_1, # of connection points: 4
#     Node 62, Type 0, BuildingBlock: QUQFOY_clean_sbu_1, # of connection points: 4
#     Node 63, Type 0, BuildingBlock: QUQFOY_clean_sbu_1, # of connection points: 4
#     Node 64, Type 0, BuildingBlock: QUQFOY_clean_sbu_1, # of connection points: 4
#     Node 65, Type 0, BuildingBlock: QUQFOY_clean_sbu_1, # of connection points: 4
#     Node 66, Type 0, BuildingBlock: QUQFOY_clean_sbu_1, # of connection points: 4
#     Node 67, Type 0, BuildingBlock: QUQFOY_clean_sbu_1, # of connection points: 4
#     Node 68, Type 0, BuildingBlock: QUQFOY_clean_sbu_1, # of connection points: 4
#     Node 69, Type 0, BuildingBlock: QUQFOY_clean_sbu_1, # of connection points: 4
#     Node 70, Type 0, BuildingBlock: QUQFOY_clean_sbu_1, # of connection points: 4
#     Node 71, Type 0, BuildingBlock: QUQFOY_clean_sbu_1, # of connection points: 4
#     Node 72, Type 0, BuildingBlock: QUQFOY_clean_sbu_1, # of connection points: 4
#     Node 73, Type 0, BuildingBlock: QUQFOY_clean_sbu_1, # of connection points: 4
#     Node 74, Type 0, BuildingBlock: QUQFOY_clean_sbu_1, # of connection points: 4
#     Node 75, Type 0, BuildingBlock: QUQFOY_clean_sbu_1, # of connection points: 4
#     Node 76, Type 0, BuildingBlock: QUQFOY_clean_sbu_1, # of connection points: 4
#     Node 77, Type 0, BuildingBlock: QUQFOY_clean_sbu_1, # of connection points: 4
#     Node 78, Type 0, BuildingBlock: QUQFOY_clean_sbu_1, # of connection points: 4
#     Node 79, Type 0, BuildingBlock: QUQFOY_clean_sbu_1, # of connection points: 4
#     Node 80, Type 0, BuildingBlock: QUQFOY_clean_sbu_1, # of connection points: 4
#     Node 81, Type 0, BuildingBlock: QUQFOY_clean_sbu_1, # of connection points: 4
#     Node 82, Type 0, BuildingBlock: QUQFOY_clean_sbu_1, # of connection points: 4
#     Node 83, Type 0, BuildingBlock: QUQFOY_clean_sbu_1, # of connection points: 4
#     Node 84, Type 0, BuildingBlock: QUQFOY_clean_sbu_1, # of connection points: 4
#     Node 85, Type 0, BuildingBlock: QUQFOY_clean_sbu_1, # of connection points: 4
#     Node 86, Type 0, BuildingBlock: QUQFOY_clean_sbu_1, # of connection points: 4
#     Node 87, Type 0, BuildingBlock: QUQFOY_clean_sbu_1, # of connection points: 4
#     Node 88, Type 0, BuildingBlock: QUQFOY_clean_sbu_1, # of connection points: 4
#     Node 89, Type 0, BuildingBlock: QUQFOY_clean_sbu_1, # of connection points: 4
#     Node 90, Type 0, BuildingBlock: QUQFOY_clean_sbu_1, # of connection points: 4
#     Node 91, Type 0, BuildingBlock: QUQFOY_clean_sbu_1, # of connection points: 4
#     Node 92, Type 0, BuildingBlock: QUQFOY_clean_sbu_1, # of connection points: 4
#     Node 93, Type 0, BuildingBlock: QUQFOY_clean_sbu_1, # of connection points: 4
#     Node 94, Type 0, BuildingBlock: QUQFOY_clean_sbu_1, # of connection points: 4
#     Node 95, Type 0, BuildingBlock: QUQFOY_clean_sbu_1, # of connection points: 4
#     Edge 96, Type (0, 0), None
#     Edge 97, Type (0, 0), None
#     Edge 98, Type (0, 0), None
#     Edge 99, Type (0, 0), None
#     Edge 100, Type (0, 0), None
#     Edge 101, Type (0, 0), None
#     Edge 102, Type (0, 0), None
#     Edge 103, Type (0, 0), None
#     Edge 104, Type (0, 0), None
#     Edge 105, Type (0, 0), None
#     Edge 106, Type (0, 0), None
#     Edge 107, Type (0, 0), None
#     Edge 108, Type (0, 0), None
#     Edge 109, Type (0, 0), None
#     Edge 110, Type (0, 0), None
#     Edge 111, Type (0, 0), None
#     Edge 112, Type (0, 0), None
#     Edge 113, Type (0, 0), None
#     Edge 114, Type (0, 0), None
#     Edge 115, Type (0, 0), None
#     Edge 116, Type (0, 0), None
#     Edge 117, Type (0, 0), None
#     Edge 118, Type (0, 0), None
#     Edge 119, Type (0, 0), None
#     Edge 120, Type (0, 0), None
#     Edge 121, Type (0, 0), None
#     Edge 122, Type (0, 0), None
#     Edge 123, Type (0, 0), None
#     Edge 124, Type (0, 0), None
#     Edge 125, Type (0, 0), None
#     Edge 126, Type (0, 0), None
#     Edge 127, Type (0, 0), None
#     Edge 128, Type (0, 0), None
#     Edge 129, Type (0, 0), None
#     Edge 130, Type (0, 0), None
#     Edge 131, Type (0, 0), None
#     Edge 132, Type (0, 0), None
#     Edge 133, Type (0, 0), None
#     Edge 134, Type (0, 0), None
#     Edge 135, Type (0, 0), None
#     Edge 136, Type (0, 0), None
#     Edge 137, Type (0, 0), None
#     Edge 138, Type (0, 0), None
#     Edge 139, Type (0, 0), None
#     Edge 140, Type (0, 0), None
#     Edge 141, Type (0, 0), None
#     Edge 142, Type (0, 0), None
#     Edge 143, Type (0, 0), None
#     Edge 144, Type (0, 0), None
#     Edge 145, Type (0, 0), None
#     Edge 146, Type (0, 0), None
#     Edge 147, Type (0, 0), None
#     Edge 148, Type (0, 0), None
#     Edge 149, Type (0, 0), None
#     Edge 150, Type (0, 0), None
#     Edge 151, Type (0, 0), None
#     Edge 152, Type (0, 0), None
#     Edge 153, Type (0, 0), None
#     Edge 154, Type (0, 0), None
#     Edge 155, Type (0, 0), None
#     Edge 156, Type (0, 0), None
#     Edge 157, Type (0, 0), None
#     Edge 158, Type (0, 0), None
#     Edge 159, Type (0, 0), None
#     Edge 160, Type (0, 0), None
#     Edge 161, Type (0, 0), None
#     Edge 162, Type (0, 0), None
#     Edge 163, Type (0, 0), None
#     Edge 164, Type (0, 0), None
#     Edge 165, Type (0, 0), None
#     Edge 166, Type (0, 0), None
#     Edge 167, Type (0, 0), None
#     Edge 168, Type (0, 0), None
#     Edge 169, Type (0, 0), None
#     Edge 170, Type (0, 0), None
#     Edge 171, Type (0, 0), None
#     Edge 172, Type (0, 0), None
#     Edge 173, Type (0, 0), None
#     Edge 174, Type (0, 0), None
#     Edge 175, Type (0, 0), None
#     Edge 176, Type (0, 0), None
#     Edge 177, Type (0, 0), None
#     Edge 178, Type (0, 0), None
#     Edge 179, Type (0, 0), None
#     Edge 180, Type (0, 0), None
#     Edge 181, Type (0, 0), None
#     Edge 182, Type (0, 0), None
#     Edge 183, Type (0, 0), None
#     Edge 184, Type (0, 0), None
#     Edge 185, Type (0, 0), None
#     Edge 186, Type (0, 0), None
#     Edge 187, Type (0, 0), None
#     Edge 188, Type (0, 0), None
#     Edge 189, Type (0, 0), None
#     Edge 190, Type (0, 0), None
#     Edge 191, Type (0, 0), None
#     Edge 192, Type (0, 0), None
#     Edge 193, Type (0, 0), None
#     Edge 194, Type (0, 0), None
#     Edge 195, Type (0, 0), None
#     Edge 196, Type (0, 0), None
#     Edge 197, Type (0, 0), None
#     Edge 198, Type (0, 0), None
#     Edge 199, Type (0, 0), None
#     Edge 200, Type (0, 0), None
#     Edge 201, Type (0, 0), None
#     Edge 202, Type (0, 0), None
#     Edge 203, Type (0, 0), None
#     Edge 204, Type (0, 0), None
#     Edge 205, Type (0, 0), None
#     Edge 206, Type (0, 0), None
#     Edge 207, Type (0, 0), None
#     Edge 208, Type (0, 0), None
#     Edge 209, Type (0, 0), None
#     Edge 210, Type (0, 0), None
#     Edge 211, Type (0, 0), None
#     Edge 212, Type (0, 0), None
#     Edge 213, Type (0, 0), None
#     Edge 214, Type (0, 0), None
#     Edge 215, Type (0, 0), None
#     Edge 216, Type (0, 0), None
#     Edge 217, Type (0, 0), None
#     Edge 218, Type (0, 0), None
#     Edge 219, Type (0, 0), None
#     Edge 220, Type (0, 0), None
#     Edge 221, Type (0, 0), None
#     Edge 222, Type (0, 0), None
#     Edge 223, Type (0, 0), None
#     Edge 224, Type (0, 0), None
#     Edge 225, Type (0, 0), None
#     Edge 226, Type (0, 0), None
#     Edge 227, Type (0, 0), None
#     Edge 228, Type (0, 0), None
#     Edge 229, Type (0, 0), None
#     Edge 230, Type (0, 0), None
#     Edge 231, Type (0, 0), None
#     Edge 232, Type (0, 0), None
#     Edge 233, Type (0, 0), None
#     Edge 234, Type (0, 0), None
#     Edge 235, Type (0, 0), None
#     Edge 236, Type (0, 0), None
#     Edge 237, Type (0, 0), None
#     Edge 238, Type (0, 0), None
#     Edge 239, Type (0, 0), None
#     Edge 240, Type (0, 0), None
#     Edge 241, Type (0, 0), None
#     Edge 242, Type (0, 0), None
#     Edge 243, Type (0, 0), None
#     Edge 244, Type (0, 0), None
#     Edge 245, Type (0, 0), None
#     Edge 246, Type (0, 0), None
#     Edge 247, Type (0, 0), None
#     Edge 248, Type (0, 0), None
#     Edge 249, Type (0, 0), None
#     Edge 250, Type (0, 0), None
#     Edge 251, Type (0, 0), None
#     Edge 252, Type (0, 0), None
#     Edge 253, Type (0, 0), None
#     Edge 254, Type (0, 0), None
#     Edge 255, Type (0, 0), None
#     Edge 256, Type (0, 0), None
#     Edge 257, Type (0, 0), None
#     Edge 258, Type (0, 0), None
#     Edge 259, Type (0, 0), None
#     Edge 260, Type (0, 0), None
#     Edge 261, Type (0, 0), None
#     Edge 262, Type (0, 0), None
#     Edge 263, Type (0, 0), None
#     Edge 264, Type (0, 0), None
#     Edge 265, Type (0, 0), None
#     Edge 266, Type (0, 0), None
#     Edge 267, Type (0, 0), None
#     Edge 268, Type (0, 0), None
#     Edge 269, Type (0, 0), None
#     Edge 270, Type (0, 0), None
#     Edge 271, Type (0, 0), None
#     Edge 272, Type (0, 0), None
#     Edge 273, Type (0, 0), None
#     Edge 274, Type (0, 0), None
#     Edge 275, Type (0, 0), None
#     Edge 276, Type (0, 0), None
#     Edge 277, Type (0, 0), None
#     Edge 278, Type (0, 0), None
#     Edge 279, Type (0, 0), None
#     Edge 280, Type (0, 0), None
#     Edge 281, Type (0, 0), None
#     Edge 282, Type (0, 0), None
#     Edge 283, Type (0, 0), None
#     Edge 284, Type (0, 0), None
#     Edge 285, Type (0, 0), None
#     Edge 286, Type (0, 0), None
#     Edge 287, Type (0, 0), None
# Relax obj value: 0.096
# Max RMSD: 0.129
# Mean RMSD: 0.129
data_MOF--net-ukw--node1-QUQFOY_clean_sbu_1--edge1-none
_symmetry_space_group_name_H-M    P1
_symmetry_Int_Tables_number       1
_symmetry_cell_setting            triclinic
loop_
_symmetry_equiv_pos_as_xyz
'x, y, z'
_cell_length_a     35.99826
_cell_length_b     35.998255
_cell_length_c     35.998244
_cell_angle_alpha  90.002299
_cell_angle_beta   90.002291
_cell_angle_gamma 90.002315
loop_
_atom_site_label
_atom_site_type_symbol
_atom_site_fract_x
_atom_site_fract_y
_atom_site_fract_z
_atom_type_partial_charge
O0 O 0.99702 0.07272 0.41438 0.0
Cd1 Cd 0.98781 0.12704 0.40307 0.0
Cd2 Cd 0.05574 0.09424 0.37449 0.0
O3 O 1.01038 0.06036 0.35737 0.0
O4 O 0.93419 0.13414 0.39326 0.0
O5 O 0.97824 0.1374 0.34971 0.0
C6 C 0.94336 0.13626 0.35856 0.0
C7 C 0.11653 0.09399 0.35037 0.0
C8 C 0.98979 0.05453 0.38545 0.0
C9 C 0.04134 0.14022 0.45129 0.0
O10 O 0.05526 0.11649 0.42872 0.0
O11 O 0.01279 0.15892 0.44237 0.0
O12 O 0.10541 0.06822 0.37267 0.0
O13 O 0.09224 0.11789 0.33901 0.0
O14 O 0.20041 0.74701 0.66441 0.0
Cd15 Cd 0.14609 0.73778 0.65311 0.0
Cd16 Cd 0.17888 0.80573 0.62451 0.0
O17 O 0.21276 0.76037 0.6074 0.0
O18 O 0.13899 0.68416 0.6433 0.0
O19 O 0.13573 0.7282 0.59974 0.0
C20 C 0.13687 0.69333 0.60859 0.0
C21 C 0.17913 0.86652 0.6004 0.0
C22 C 0.21859 0.73978 0.63547 0.0
C23 C 0.1329 0.79131 0.70132 0.0
O24 O 0.15663 0.80524 0.67874 0.0
O25 O 0.1142 0.76277 0.6924 0.0
O26 O 0.2049 0.8554 0.6227 0.0
O27 O 0.15523 0.84222 0.58903 0.0
O28 O 0.52613 0.95041 0.9144 0.0
Cd29 Cd 0.53533 0.8961 0.90309 0.0
Cd30 Cd 0.4674 0.9289 0.8745 0.0
O31 O 0.51276 0.96277 0.85738 0.0
O32 O 0.58895 0.889 0.89327 0.0
O33 O 0.5449 0.88573 0.84972 0.0
C34 C 0.57978 0.88687 0.85857 0.0
C35 C 0.40661 0.92914 0.85038 0.0
C36 C 0.53336 0.9686 0.88546 0.0
C37 C 0.4818 0.88292 0.95131 0.0
O38 O 0.46788 0.90665 0.92873 0.0
O39 O 0.51034 0.86422 0.94239 0.0
O40 O 0.41773 0.95492 0.87268 0.0
O41 O 0.4309 0.90524 0.83902 0.0
O42 O 0.32272 0.27614 0.16441 0.0
Cd43 Cd 0.37703 0.28537 0.1531 0.0
Cd44 Cd 0.34423 0.21742 0.1245 0.0
O45 O 0.31035 0.26278 0.10739 0.0
O46 O 0.38413 0.33899 0.14329 0.0
O47 O 0.38739 0.29494 0.09974 0.0
C48 C 0.38625 0.32982 0.10859 0.0
C49 C 0.34399 0.15663 0.10039 0.0
C50 C 0.30453 0.28337 0.13547 0.0
C51 C 0.39023 0.23183 0.20131 0.0
O52 O 0.3665 0.21791 0.17873 0.0
O53 O 0.40892 0.26038 0.1924 0.0
O54 O 0.31822 0.16775 0.12269 0.0
O55 O 0.36788 0.18092 0.08902 0.0
O56 O 0.997 0.95043 0.10873 0.0
Cd57 Cd 0.9878 0.89612 0.12005 0.0
Cd58 Cd 0.05573 0.92892 0.14863 0.0
O59 O 1.01037 0.9628 0.16574 0.0
O60 O 0.93418 0.88902 0.12987 0.0
O61 O 0.97823 0.88576 0.17342 0.0
C62 C 0.94335 0.8869 0.16457 0.0
C63 C 0.11652 0.92916 0.17275 0.0
C64 C 0.98978 0.96862 0.13767 0.0
C65 C 0.04132 0.88292 0.07183 0.0
O66 O 0.05524 0.90666 0.09441 0.0
O67 O 0.01278 0.86422 0.08076 0.0
O68 O 0.10541 0.95493 0.15045 0.0
O69 O 0.09223 0.90527 0.18412 0.0
O70 O 0.32273 0.747 0.35873 0.0
Cd71 Cd 0.37705 0.73779 0.37003 0.0
Cd72 Cd 0.34425 0.80573 0.39862 0.0
O73 O 0.31038 0.76036 0.41574 0.0
O74 O 0.38415 0.68417 0.37983 0.0
O75 O 0.38742 0.72821 0.42339 0.0
C76 C 0.38628 0.69333 0.41453 0.0
C77 C 0.344 0.86652 0.42274 0.0
C78 C 0.30455 0.73977 0.38766 0.0
C79 C 0.39023 0.79132 0.32182 0.0
O80 O 0.3665 0.80525 0.3444 0.0
O81 O 0.40893 0.76278 0.33073 0.0
O82 O 0.31823 0.8554 0.40044 0.0
O83 O 0.3679 0.84223 0.43411 0.0
O84 O 0.52612 0.07272 0.60873 0.0
Cd85 Cd 0.53533 0.12703 0.62005 0.0
Cd86 Cd 0.46739 0.09423 0.64862 0.0
O87 O 0.51275 0.06035 0.66574 0.0
O88 O 0.58895 0.13413 0.62987 0.0
O89 O 0.5449 0.13739 0.67342 0.0
C90 C 0.57978 0.13624 0.66457 0.0
C91 C 0.4066 0.09399 0.67274 0.0
C92 C 0.53334 0.05452 0.63766 0.0
C93 C 0.48181 0.14022 0.57183 0.0
O94 O 0.46788 0.11649 0.5944 0.0
O95 O 0.51035 0.15892 0.58075 0.0
O96 O 0.41772 0.06822 0.65044 0.0
O97 O 0.4309 0.11789 0.68411 0.0
O98 O 0.20041 0.27612 0.85874 0.0
Cd99 Cd 0.14609 0.28533 0.87005 0.0
Cd100 Cd 0.17889 0.2174 0.89864 0.0
O101 O 0.21277 0.26277 0.91575 0.0
O102 O 0.13899 0.33895 0.87986 0.0
O103 O 0.13573 0.29491 0.92341 0.0
C104 C 0.13687 0.32978 0.91456 0.0
C105 C 0.17914 0.15661 0.92275 0.0
C106 C 0.21859 0.28335 0.88768 0.0
C107 C 0.1329 0.2318 0.82183 0.0
O108 O 0.15664 0.21788 0.84441 0.0
O109 O 0.1142 0.26034 0.83075 0.0
O110 O 0.20491 0.16773 0.90046 0.0
O111 O 0.15524 0.1809 0.93412 0.0
O112 O 0.4144 0.99701 0.07272 0.0
Cd113 Cd 0.40309 0.9878 0.12703 0.0
Cd114 Cd 0.3745 0.05574 0.09424 0.0
O115 O 0.35738 1.01037 0.06036 0.0
O116 O 0.39328 0.93418 0.13413 0.0
O117 O 0.34973 0.97822 0.1374 0.0
C118 C 0.35858 0.94334 0.13625 0.0
C119 C 0.35039 0.11653 0.094 0.0
C120 C 0.38546 0.98978 0.05453 0.0
C121 C 0.45131 0.04133 0.14023 0.0
O122 O 0.42873 0.05525 0.11649 0.0
O123 O 0.44239 0.01278 0.15892 0.0
O124 O 0.37269 0.10541 0.06822 0.0
O125 O 0.33902 0.09224 0.11789 0.0
O126 O 0.27614 0.16441 0.32271 0.0
Cd127 Cd 0.28537 0.15311 0.37703 0.0
Cd128 Cd 0.21742 0.1245 0.34423 0.0
O129 O 0.26279 0.10739 0.31035 0.0
O130 O 0.33899 0.1433 0.38412 0.0
O131 O 0.29495 0.09974 0.38739 0.0
C132 C 0.32982 0.10859 0.38624 0.0
C133 C 0.15663 0.1004 0.34398 0.0
C134 C 0.28337 0.13547 0.30453 0.0
C135 C 0.23183 0.20131 0.39023 0.0
O136 O 0.21791 0.17873 0.36649 0.0
O137 O 0.26038 0.1924 0.40892 0.0
O138 O 0.16775 0.12269 0.31821 0.0
O139 O 0.18092 0.08902 0.36788 0.0
O140 O 0.10872 0.02613 0.57272 0.0
Cd141 Cd 0.12002 0.03536 0.62704 0.0
Cd142 Cd 0.14862 0.96741 0.59425 0.0
O143 O 0.16573 0.01277 0.56037 0.0
O144 O 0.12983 0.08898 0.63413 0.0
O145 O 0.17338 0.04494 0.63741 0.0
C146 C 0.16453 0.07981 0.63626 0.0
C147 C 0.17272 0.90662 0.59401 0.0
C148 C 0.13766 0.03335 0.55454 0.0
C149 C 0.07181 0.98182 0.64023 0.0
O150 O 0.09439 0.96789 0.6165 0.0
O151 O 0.08072 1.01037 0.65892 0.0
O152 O 0.15043 0.91773 0.56823 0.0
O153 O 0.1841 0.93091 0.6179 0.0
O154 O 0.24699 0.85873 0.82272 0.0
Cd155 Cd 0.23778 0.87002 0.87704 0.0
Cd156 Cd 0.30572 0.89863 0.84424 0.0
O157 O 0.26035 0.91574 0.81037 0.0
O158 O 0.18416 0.87983 0.88414 0.0
O159 O 0.2282 0.92338 0.88741 0.0
C160 C 0.19333 0.91453 0.88627 0.0
C161 C 0.36651 0.92274 0.84399 0.0
C162 C 0.23976 0.88767 0.80454 0.0
C163 C 0.29132 0.82182 0.89022 0.0
O164 O 0.30524 0.8444 0.86649 0.0
O165 O 0.26277 0.83073 0.90892 0.0
O166 O 0.35538 0.90045 0.81822 0.0
O167 O 0.34222 0.93411 0.86789 0.0
O168 O 0.41441 0.02614 0.4504 0.0
Cd169 Cd 0.40311 0.03536 0.39609 0.0
Cd170 Cd 0.37451 0.96741 0.42888 0.0
O171 O 0.35739 0.01278 0.46275 0.0
O172 O 0.39331 0.08898 0.38899 0.0
O173 O 0.34975 0.04494 0.38571 0.0
C174 C 0.3586 0.07981 0.38686 0.0
C175 C 0.3504 0.90662 0.42913 0.0
C176 C 0.38547 0.03337 0.46858 0.0
C177 C 0.45132 0.98182 0.3829 0.0
O178 O 0.42873 0.9679 0.40663 0.0
O179 O 0.44241 1.01037 0.3642 0.0
O180 O 0.37269 0.91774 0.4549 0.0
O181 O 0.33902 0.93091 0.40523 0.0
O182 O 0.247 0.16441 0.70041 0.0
Cd183 Cd 0.23777 0.15311 0.64609 0.0
Cd184 Cd 0.30572 0.12451 0.67888 0.0
O185 O 0.26035 0.10739 0.71276 0.0
O186 O 0.18415 0.1433 0.639 0.0
O187 O 0.22819 0.09974 0.63573 0.0
C188 C 0.19331 0.10859 0.63687 0.0
C189 C 0.3665 0.1004 0.67913 0.0
C190 C 0.23977 0.13547 0.71859 0.0
C191 C 0.29131 0.20131 0.6329 0.0
O192 O 0.30523 0.17873 0.65663 0.0
O193 O 0.26276 0.1924 0.6142 0.0
O194 O 0.35539 0.12269 0.7049 0.0
O195 O 0.34221 0.08902 0.65523 0.0
O196 O 0.10873 0.997 0.95041 0.0
Cd197 Cd 0.12003 0.98777 0.8961 0.0
Cd198 Cd 0.14863 0.05572 0.9289 0.0
O199 O 0.16575 1.01035 0.96277 0.0
O200 O 0.12984 0.93414 0.88901 0.0
O201 O 0.1734 0.97819 0.88574 0.0
C202 C 0.16454 0.94331 0.88689 0.0
C203 C 0.17274 0.11651 0.92914 0.0
C204 C 0.13767 0.98977 0.9686 0.0
C205 C 0.07183 0.0413 0.8829 0.0
O206 O 0.09441 0.05523 0.90663 0.0
O207 O 0.08074 0.01275 0.86421 0.0
O208 O 0.15044 0.10539 0.95491 0.0
O209 O 0.18412 0.09222 0.90525 0.0
O210 O 0.27613 0.85874 0.20041 0.0
Cd211 Cd 0.28534 0.87005 0.1461 0.0
Cd212 Cd 0.21741 0.89864 0.1789 0.0
O213 O 0.26278 0.91576 0.21277 0.0
O214 O 0.33897 0.87986 0.13899 0.0
O215 O 0.29492 0.92341 0.13573 0.0
C216 C 0.3298 0.91456 0.13687 0.0
C217 C 0.15662 0.92276 0.17914 0.0
C218 C 0.28336 0.88768 0.2186 0.0
C219 C 0.23181 0.82184 0.13291 0.0
O220 O 0.21789 0.84442 0.15664 0.0
O221 O 0.26035 0.83075 0.11421 0.0
O222 O 0.16774 0.90046 0.20491 0.0
O223 O 0.18091 0.93413 0.15524 0.0
O224 O 0.07272 0.41439 0.99701 0.0
Cd225 Cd 0.12703 0.40308 0.9878 0.0
Cd226 Cd 0.09424 0.37449 0.05574 0.0
O227 O 0.06036 0.35738 1.01037 0.0
O228 O 0.13413 0.39327 0.93418 0.0
O229 O 0.1374 0.34972 0.97822 0.0
C230 C 0.13625 0.35857 0.94334 0.0
C231 C 0.094 0.35038 0.11653 0.0
C232 C 0.05453 0.38545 0.98978 0.0
C233 C 0.14023 0.4513 0.04133 0.0
O234 O 0.11649 0.42872 0.05525 0.0
O235 O 0.15892 0.44238 0.01278 0.0
O236 O 0.06823 0.37268 0.10541 0.0
O237 O 0.11789 0.33901 0.09224 0.0
O238 O 0.57272 0.10873 0.02613 0.0
Cd239 Cd 0.62703 0.12003 0.03535 0.0
Cd240 Cd 0.59425 0.14863 0.96741 0.0
O241 O 0.56037 0.16575 0.01278 0.0
O242 O 0.63413 0.12984 0.08897 0.0
O243 O 0.6374 0.17339 0.04493 0.0
C244 C 0.63625 0.16455 0.07981 0.0
C245 C 0.59401 0.17275 0.90663 0.0
C246 C 0.55454 0.13767 0.03336 0.0
C247 C 0.64022 0.07182 0.98182 0.0
O248 O 0.61649 0.0944 0.96789 0.0
O249 O 0.65892 0.08073 1.01036 0.0
O250 O 0.56823 0.15046 0.91774 0.0
O251 O 0.6179 0.18411 0.93092 0.0
O252 O 0.16441 0.32272 0.27614 0.0
Cd253 Cd 0.15311 0.37703 0.28537 0.0
Cd254 Cd 0.12451 0.34423 0.21742 0.0
O255 O 0.10739 0.31036 0.26278 0.0
O256 O 0.1433 0.38412 0.339 0.0
O257 O 0.09975 0.38739 0.29495 0.0
C258 C 0.1086 0.38625 0.32983 0.0
C259 C 0.1004 0.34399 0.15663 0.0
C260 C 0.13547 0.30453 0.28337 0.0
C261 C 0.20131 0.39023 0.23183 0.0
O262 O 0.17873 0.3665 0.21791 0.0
O263 O 0.1924 0.40892 0.26039 0.0
O264 O 0.12269 0.31822 0.16775 0.0
O265 O 0.08902 0.36788 0.18092 0.0
O266 O 0.95041 0.9144 0.52613 0.0
Cd267 Cd 0.89609 0.90309 0.53533 0.0
Cd268 Cd 0.9289 0.8745 0.46741 0.0
O269 O 0.96277 0.85738 0.51278 0.0
O270 O 0.88899 0.89328 0.58895 0.0
O271 O 0.88572 0.84973 0.5449 0.0
C272 C 0.88687 0.85858 0.57978 0.0
C273 C 0.92914 0.85037 0.40662 0.0
C274 C 0.96859 0.88546 0.53337 0.0
C275 C 0.88292 0.95131 0.4818 0.0
O276 O 0.90666 0.92873 0.46788 0.0
O277 O 0.86422 0.94239 0.51034 0.0
O278 O 0.95492 0.87266 0.41774 0.0
O279 O 0.90524 0.83901 0.43091 0.0
O280 O 0.85874 0.20041 0.27612 0.0
Cd281 Cd 0.87006 0.14609 0.28532 0.0
Cd282 Cd 0.89865 0.1789 0.2174 0.0
O283 O 0.91575 0.21278 0.26277 0.0
O284 O 0.87987 0.13899 0.33894 0.0
O285 O 0.92343 0.13574 0.2949 0.0
C286 C 0.91458 0.13688 0.32978 0.0
C287 C 0.92278 0.17914 0.15661 0.0
C288 C 0.88768 0.2186 0.28335 0.0
C289 C 0.82185 0.1329 0.23179 0.0
O290 O 0.84442 0.15664 0.21787 0.0
O291 O 0.83077 0.1142 0.26033 0.0
O292 O 0.90048 0.20491 0.16773 0.0
O293 O 0.93414 0.15525 0.18091 0.0
O294 O 0.45043 0.60874 0.49699 0.0
Cd295 Cd 0.39611 0.62004 0.48777 0.0
Cd296 Cd 0.4289 0.64863 0.55572 0.0
O297 O 0.46279 0.66575 0.51036 0.0
O298 O 0.38902 0.62985 0.43415 0.0
O299 O 0.38575 0.6734 0.47819 0.0
C300 C 0.3869 0.66455 0.44331 0.0
C301 C 0.42915 0.67275 0.61651 0.0
C302 C 0.46861 0.63767 0.48977 0.0
C303 C 0.38291 0.57183 0.5413 0.0
O304 O 0.40664 0.59441 0.55523 0.0
O305 O 0.36422 0.58074 0.51275 0.0
O306 O 0.45491 0.65045 0.60539 0.0
O307 O 0.40525 0.68412 0.59222 0.0
O308 O 0.16442 0.70041 0.247 0.0
Cd309 Cd 0.15311 0.6461 0.23778 0.0
Cd310 Cd 0.12452 0.67889 0.30572 0.0
O311 O 0.1074 0.71277 0.26036 0.0
O312 O 0.1433 0.639 0.18416 0.0
O313 O 0.09975 0.63573 0.2282 0.0
C314 C 0.1086 0.63688 0.19333 0.0
C315 C 0.1004 0.67913 0.36651 0.0
C316 C 0.13548 0.7186 0.23977 0.0
C317 C 0.20133 0.6329 0.29131 0.0
O318 O 0.17874 0.65663 0.30524 0.0
O319 O 0.19241 0.61421 0.26276 0.0
O320 O 0.1227 0.7049 0.3554 0.0
O321 O 0.08904 0.65524 0.34222 0.0
O322 O 0.35872 0.32272 0.747 0.0
Cd323 Cd 0.37002 0.37704 0.73778 0.0
Cd324 Cd 0.39862 0.34424 0.80572 0.0
O325 O 0.41574 0.31037 0.76035 0.0
O326 O 0.37983 0.38414 0.68416 0.0
O327 O 0.42338 0.38741 0.72821 0.0
C328 C 0.41454 0.38627 0.69333 0.0
C329 C 0.42274 0.34399 0.86652 0.0
C330 C 0.38766 0.30454 0.73976 0.0
C331 C 0.32181 0.39022 0.79132 0.0
O332 O 0.34439 0.36649 0.80524 0.0
O333 O 0.33072 0.40892 0.76277 0.0
O334 O 0.40044 0.31822 0.85539 0.0
O335 O 0.4341 0.36789 0.84222 0.0
O336 O 0.02614 0.95037 0.60871 0.0
Cd337 Cd 0.0353 0.89607 0.62008 0.0
Cd338 Cd 0.96738 0.92891 0.64862 0.0
O339 O 0.01274 0.9628 0.66572 0.0
O340 O 0.08891 0.88896 0.6299 0.0
O341 O 0.04487 0.88574 0.67345 0.0
C342 C 0.07974 0.88687 0.66461 0.0
C343 C 0.90659 0.92916 0.67274 0.0
C344 C 0.03334 0.96858 0.63765 0.0
C345 C 0.98178 0.88287 0.57185 0.0
O346 O 0.96786 0.90664 0.5944 0.0
O347 O 1.01031 0.86416 0.58079 0.0
O348 O 0.91771 0.95492 0.65044 0.0
O349 O 0.93089 0.90527 0.68412 0.0
O350 O 0.82274 0.27613 0.35871 0.0
Cd351 Cd 0.87705 0.28532 0.37006 0.0
Cd352 Cd 0.84425 0.2174 0.39861 0.0
O353 O 0.81036 0.26276 0.41572 0.0
O354 O 0.88415 0.33894 0.37987 0.0
O355 O 0.88739 0.2949 0.42342 0.0
C356 C 0.88625 0.32978 0.41458 0.0
C357 C 0.84401 0.15661 0.42274 0.0
C358 C 0.80454 0.28335 0.38765 0.0
C359 C 0.89026 0.2318 0.32183 0.0
O360 O 0.8665 0.21788 0.34439 0.0
O361 O 0.90895 0.26035 0.33077 0.0
O362 O 0.81824 0.16772 0.40044 0.0
O363 O 0.8679 0.18091 0.4341 0.0
O364 O 0.49698 0.07276 0.10871 0.0
Cd365 Cd 0.48783 0.12707 0.12007 0.0
Cd366 Cd 0.55574 0.09423 0.14862 0.0
O367 O 0.51038 0.06034 0.16572 0.0
O368 O 0.43421 0.13419 0.12988 0.0
O369 O 0.47826 0.13741 0.17344 0.0
C370 C 0.44338 0.13628 0.16459 0.0
C371 C 0.61653 0.09398 0.17274 0.0
C372 C 0.48978 0.05457 0.13764 0.0
C373 C 0.54134 0.14025 0.07184 0.0
O374 O 0.55526 0.11649 0.0944 0.0
O375 O 0.51282 0.15897 0.08078 0.0
O376 O 0.60541 0.06821 0.15044 0.0
O377 O 0.59224 0.11787 0.18411 0.0
O378 O 0.70042 0.747 0.85874 0.0
Cd379 Cd 0.64611 0.73779 0.87005 0.0
Cd380 Cd 0.6789 0.80572 0.89864 0.0
O381 O 0.71278 0.76036 0.91575 0.0
O382 O 0.63901 0.68417 0.87986 0.0
O383 O 0.63575 0.72822 0.92341 0.0
C384 C 0.63689 0.69334 0.91456 0.0
C385 C 0.67914 0.86651 0.92276 0.0
C386 C 0.71861 0.73977 0.88767 0.0
C387 C 0.63292 0.79131 0.82183 0.0
O388 O 0.65665 0.80524 0.84441 0.0
O389 O 0.61422 0.76277 0.83075 0.0
O390 O 0.70491 0.85539 0.90047 0.0
O391 O 0.65524 0.84221 0.93412 0.0
O392 O 0.02616 0.07273 0.91442 0.0
Cd393 Cd 0.03533 0.12705 0.90308 0.0
Cd394 Cd 0.96741 0.09421 0.87451 0.0
O395 O 0.01276 0.06032 0.8574 0.0
O396 O 0.08895 0.13415 0.89326 0.0
O397 O 0.0449 0.13738 0.84971 0.0
C398 C 0.07978 0.13625 0.85855 0.0
C399 C 0.90662 0.09397 0.85039 0.0
C400 C 0.03336 0.05454 0.88548 0.0
C401 C 0.98182 0.14023 0.9513 0.0
O402 O 0.9679 0.11648 0.92873 0.0
O403 O 1.01035 0.15894 0.94237 0.0
O404 O 0.91773 0.0682 0.87269 0.0
O405 O 0.93091 0.11786 0.83902 0.0
O406 O 0.70041 0.27613 0.6644 0.0
Cd407 Cd 0.64609 0.28534 0.6531 0.0
Cd408 Cd 0.67889 0.21741 0.6245 0.0
O409 O 0.71276 0.26277 0.60739 0.0
O410 O 0.63899 0.33896 0.6433 0.0
O411 O 0.63572 0.29492 0.59974 0.0
C412 C 0.63686 0.32979 0.60859 0.0
C413 C 0.67913 0.15661 0.60039 0.0
C414 C 0.71859 0.28336 0.63546 0.0
C415 C 0.63291 0.23181 0.70132 0.0
O416 O 0.65664 0.21788 0.67873 0.0
O417 O 0.61421 0.26035 0.6924 0.0
O418 O 0.7049 0.16774 0.62268 0.0
O419 O 0.65523 0.18091 0.58902 0.0
O420 O 0.49699 0.95039 0.41443 0.0
Cd421 Cd 0.48781 0.89608 0.40308 0.0
Cd422 Cd 0.55574 0.9289 0.37452 0.0
O423 O 0.51038 0.96279 0.35741 0.0
O424 O 0.43419 0.88897 0.39326 0.0
O425 O 0.47824 0.88573 0.34971 0.0
C426 C 0.44336 0.88687 0.35856 0.0
C427 C 0.61653 0.92915 0.3504 0.0
C428 C 0.48979 0.96858 0.38549 0.0
C429 C 0.54133 0.8829 0.45131 0.0
O430 O 0.55525 0.90664 0.42874 0.0
O431 O 0.5128 0.86418 0.44238 0.0
O432 O 0.60541 0.95491 0.37271 0.0
O433 O 0.59223 0.90525 0.33903 0.0
O434 O 0.82273 0.74701 0.16439 0.0
Cd435 Cd 0.87704 0.73781 0.15308 0.0
Cd436 Cd 0.84424 0.80573 0.12449 0.0
O437 O 0.81037 0.76037 0.10737 0.0
O438 O 0.88415 0.68419 0.14327 0.0
O439 O 0.88741 0.72823 0.09972 0.0
C440 C 0.88626 0.69335 0.10857 0.0
C441 C 0.844 0.86652 0.10037 0.0
C442 C 0.80454 0.73978 0.13545 0.0
C443 C 0.89023 0.79134 0.2013 0.0
O444 O 0.86649 0.80526 0.17872 0.0
O445 O 0.90893 0.7628 0.19238 0.0
O446 O 0.81823 0.8554 0.12266 0.0
O447 O 0.8679 0.84223 0.08901 0.0
O448 O 0.6087 0.02615 0.95037 0.0
Cd449 Cd 0.62006 0.03532 0.89607 0.0
Cd450 Cd 0.64862 0.96739 0.9289 0.0
O451 O 0.66571 0.01275 0.96279 0.0
O452 O 0.62987 0.08894 0.88896 0.0
O453 O 0.67343 0.04489 0.88574 0.0
C454 C 0.66458 0.07977 0.88686 0.0
C455 C 0.67273 0.90661 0.92915 0.0
C456 C 0.63764 0.03335 0.96858 0.0
C457 C 0.57184 0.98179 0.88287 0.0
O458 O 0.5944 0.96787 0.90663 0.0
O459 O 0.58077 1.01033 0.86416 0.0
O460 O 0.65043 0.91772 0.95492 0.0
O461 O 0.68411 0.9309 0.90526 0.0
O462 O 0.74699 0.85874 0.70042 0.0
Cd463 Cd 0.73778 0.87004 0.6461 0.0
Cd464 Cd 0.80571 0.89864 0.6789 0.0
O465 O 0.76035 0.91575 0.71277 0.0
O466 O 0.68415 0.87984 0.639 0.0
O467 O 0.7282 0.9234 0.63574 0.0
C468 C 0.69332 0.91455 0.63688 0.0
C469 C 0.86649 0.92276 0.67914 0.0
C470 C 0.73976 0.88768 0.71861 0.0
C471 C 0.79131 0.82183 0.63292 0.0
O472 O 0.80523 0.84441 0.65665 0.0
O473 O 0.76276 0.83074 0.61422 0.0
O474 O 0.85538 0.90047 0.70492 0.0
O475 O 0.8422 0.93413 0.65524 0.0
O476 O 0.91445 0.99698 0.45037 0.0
Cd477 Cd 0.9031 0.9878 0.39606 0.0
Cd478 Cd 0.87453 0.05573 0.42889 0.0
O479 O 0.85743 1.01037 0.46278 0.0
O480 O 0.89329 0.93418 0.38895 0.0
O481 O 0.84973 0.97822 0.38572 0.0
C482 C 0.85858 0.94334 0.38686 0.0
C483 C 0.85041 0.11651 0.42913 0.0
C484 C 0.88551 0.98978 0.46856 0.0
C485 C 0.95131 0.04133 0.38286 0.0
O486 O 0.92875 0.05525 0.40662 0.0
O487 O 0.94238 0.01279 0.36416 0.0
O488 O 0.87272 0.1054 0.4549 0.0
O489 O 0.83904 0.09222 0.40524 0.0
O490 O 0.77616 0.16442 0.20037 0.0
Cd491 Cd 0.78533 0.15309 0.14606 0.0
Cd492 Cd 0.71742 0.1245 0.1789 0.0
O493 O 0.76278 0.1074 0.21277 0.0
O494 O 0.83895 0.14329 0.13894 0.0
O495 O 0.79491 0.09972 0.13571 0.0
C496 C 0.82979 0.10858 0.13684 0.0
C497 C 0.65663 0.10038 0.17914 0.0
C498 C 0.78338 0.13548 0.21856 0.0
C499 C 0.7318 0.2013 0.13289 0.0
O500 O 0.71789 0.17873 0.15664 0.0
O501 O 0.76033 0.19238 0.11418 0.0
O502 O 0.66775 0.12268 0.20491 0.0
O503 O 0.68092 0.08901 0.15524 0.0
O504 O 0.60871 0.99699 0.57274 0.0
Cd505 Cd 0.62003 0.98778 0.62705 0.0
Cd506 Cd 0.64861 0.05573 0.59425 0.0
O507 O 0.66572 1.01036 0.56038 0.0
O508 O 0.62983 0.93416 0.63415 0.0
O509 O 0.67339 0.97821 0.63741 0.0
C510 C 0.66454 0.94333 0.63627 0.0
C511 C 0.67272 0.11651 0.594 0.0
C512 C 0.63765 0.98977 0.55455 0.0
C513 C 0.57182 0.04131 0.64026 0.0
O514 O 0.59439 0.05524 0.61651 0.0
O515 O 0.58074 0.01277 0.65895 0.0
O516 O 0.65042 0.10539 0.56823 0.0
O517 O 0.6841 0.09223 0.6179 0.0
O518 O 0.77613 0.85873 0.32272 0.0
Cd519 Cd 0.78535 0.87004 0.37703 0.0
Cd520 Cd 0.71741 0.89863 0.34424 0.0
O521 O 0.76277 0.91575 0.31037 0.0
O522 O 0.83897 0.87985 0.38413 0.0
O523 O 0.79492 0.9234 0.3874 0.0
C524 C 0.8298 0.91456 0.38625 0.0
C525 C 0.65663 0.92274 0.34401 0.0
C526 C 0.78336 0.88767 0.30453 0.0
C527 C 0.73182 0.82182 0.39023 0.0
O528 O 0.71789 0.8444 0.36649 0.0
O529 O 0.76037 0.83074 0.40892 0.0
O530 O 0.66774 0.90045 0.31823 0.0
O531 O 0.68092 0.93411 0.3679 0.0
O532 O 0.91442 0.02614 0.07272 0.0
Cd533 Cd 0.90309 0.03536 0.12703 0.0
Cd534 Cd 0.87452 0.96741 0.09423 0.0
O535 O 0.85741 0.01277 0.06035 0.0
O536 O 0.89328 0.08898 0.13412 0.0
O537 O 0.84973 0.04493 0.13738 0.0
C538 C 0.85857 0.0798 0.13623 0.0
C539 C 0.85041 0.90662 0.09398 0.0
C540 C 0.88548 0.03336 0.05453 0.0
C541 C 0.9513 0.98183 0.14025 0.0
O542 O 0.92874 0.9679 0.1165 0.0
O543 O 0.94238 1.01038 0.15894 0.0
O544 O 0.87271 0.91774 0.06821 0.0
O545 O 0.83903 0.93091 0.11787 0.0
O546 O 0.74701 0.16438 0.82272 0.0
Cd547 Cd 0.73781 0.15307 0.87704 0.0
Cd548 Cd 0.80573 0.12449 0.84423 0.0
O549 O 0.76036 0.10737 0.81036 0.0
O550 O 0.68419 0.14326 0.88414 0.0
O551 O 0.72823 0.09971 0.8874 0.0
C552 C 0.69336 0.10855 0.88625 0.0
C553 C 0.86652 0.10037 0.84399 0.0
C554 C 0.73978 0.13545 0.80453 0.0
C555 C 0.79133 0.20129 0.89022 0.0
O556 O 0.80525 0.17871 0.86648 0.0
O557 O 0.76279 0.19237 0.90892 0.0
O558 O 0.8554 0.12266 0.81822 0.0
O559 O 0.84222 0.089 0.86789 0.0
O560 O 0.95041 0.60873 0.02613 0.0
Cd561 Cd 0.89609 0.62006 0.03533 0.0
Cd562 Cd 0.92889 0.64864 0.9674 0.0
O563 O 0.96278 0.66574 0.01276 0.0
O564 O 0.889 0.62987 0.08895 0.0
O565 O 0.88574 0.67342 0.04491 0.0
C566 C 0.88688 0.66457 0.07979 0.0
C567 C 0.92914 0.67275 0.90661 0.0
C568 C 0.9686 0.63767 0.03335 0.0
C569 C 0.88289 0.57184 0.98181 0.0
O570 O 0.90663 0.59441 0.96788 0.0
O571 O 0.8642 0.58076 1.01035 0.0
O572 O 0.95491 0.65045 0.91773 0.0
O573 O 0.90525 0.68412 0.9309 0.0
O574 O 0.45037 0.91444 0.99698 0.0
Cd575 Cd 0.39606 0.90308 0.98781 0.0
Cd576 Cd 0.4289 0.87452 0.05573 0.0
O577 O 0.46279 0.85743 1.01037 0.0
O578 O 0.38896 0.89326 0.93419 0.0
O579 O 0.38573 0.84971 0.97824 0.0
C580 C 0.38686 0.85856 0.94336 0.0
C581 C 0.42914 0.8504 0.11651 0.0
C582 C 0.46857 0.8855 0.98978 0.0
C583 C 0.38287 0.9513 0.04134 0.0
O584 O 0.40664 0.92875 0.05525 0.0
O585 O 0.36416 0.94237 0.0128 0.0
O586 O 0.45491 0.8727 0.1054 0.0
O587 O 0.40525 0.83903 0.09222 0.0
O588 O 0.85873 0.70043 0.747 0.0
Cd589 Cd 0.87004 0.64611 0.73778 0.0
Cd590 Cd 0.89863 0.67891 0.80572 0.0
O591 O 0.91575 0.71279 0.76036 0.0
O592 O 0.87985 0.63902 0.68416 0.0
O593 O 0.9234 0.63575 0.72821 0.0
C594 C 0.91456 0.6369 0.69333 0.0
C595 C 0.92274 0.67915 0.86651 0.0
C596 C 0.88767 0.71861 0.73977 0.0
C597 C 0.82182 0.63292 0.7913 0.0
O598 O 0.84441 0.65665 0.80523 0.0
O599 O 0.83074 0.61422 0.76276 0.0
O600 O 0.90045 0.70492 0.85539 0.0
O601 O 0.93411 0.65525 0.84222 0.0
O602 O 0.07276 0.1087 0.49697 0.0
Cd603 Cd 0.12707 0.12006 0.48782 0.0
Cd604 Cd 0.09423 0.14862 0.55573 0.0
O605 O 0.06035 0.16572 0.51036 0.0
O606 O 0.13419 0.12987 0.4342 0.0
O607 O 0.13741 0.17343 0.47825 0.0
C608 C 0.13628 0.16458 0.44337 0.0
C609 C 0.09398 0.17275 0.61652 0.0
C610 C 0.05457 0.13764 0.48977 0.0
C611 C 0.14025 0.07184 0.54134 0.0
O612 O 0.11649 0.09439 0.55526 0.0
O613 O 0.15896 0.08077 0.51281 0.0
O614 O 0.06821 0.15045 0.6054 0.0
O615 O 0.11788 0.18411 0.59222 0.0
O616 O 0.16441 0.82276 0.74699 0.0
Cd617 Cd 0.15304 0.87707 0.73784 0.0
Cd618 Cd 0.1245 0.84422 0.80574 0.0
O619 O 0.1074 0.81033 0.76038 0.0
O620 O 0.14323 0.88418 0.68422 0.0
O621 O 0.09967 0.88739 0.72827 0.0
C622 C 0.10852 0.88627 0.69339 0.0
C623 C 0.10037 0.84398 0.86653 0.0
C624 C 0.13548 0.80456 0.73979 0.0
C625 C 0.20127 0.89025 0.79135 0.0
O626 O 0.17872 0.86648 0.80527 0.0
O627 O 0.19233 0.90897 0.76283 0.0
O628 O 0.12267 0.81821 0.85542 0.0
O629 O 0.089 0.86787 0.84223 0.0
O630 O 0.57272 0.4144 0.52614 0.0
Cd631 Cd 0.62703 0.40309 0.53536 0.0
Cd632 Cd 0.59424 0.3745 0.46742 0.0
O633 O 0.56035 0.35739 0.51278 0.0
O634 O 0.63413 0.39328 0.58898 0.0
O635 O 0.63739 0.34972 0.54494 0.0
C636 C 0.63624 0.35857 0.57981 0.0
C637 C 0.59399 0.35038 0.40663 0.0
C638 C 0.55453 0.38547 0.53336 0.0
C639 C 0.64024 0.4513 0.48183 0.0
O640 O 0.6165 0.42872 0.4679 0.0
O641 O 0.65893 0.44238 0.51038 0.0
O642 O 0.56823 0.37268 0.41774 0.0
O643 O 0.61789 0.33901 0.43093 0.0
O644 O 0.85872 0.32272 0.77613 0.0
Cd645 Cd 0.87003 0.37703 0.78535 0.0
Cd646 Cd 0.89863 0.34425 0.71741 0.0
O647 O 0.91574 0.31037 0.76277 0.0
O648 O 0.87984 0.38413 0.83897 0.0
O649 O 0.92339 0.3874 0.79493 0.0
C650 C 0.91455 0.38625 0.8298 0.0
C651 C 0.92275 0.34401 0.65662 0.0
C652 C 0.88766 0.30453 0.78336 0.0
C653 C 0.82182 0.39022 0.73182 0.0
O654 O 0.8444 0.36649 0.71789 0.0
O655 O 0.83073 0.40892 0.76037 0.0
O656 O 0.90045 0.31824 0.66774 0.0
O657 O 0.93411 0.36791 0.68092 0.0
O658 O 0.66441 0.70042 0.27613 0.0
Cd659 Cd 0.6531 0.6461 0.28534 0.0
Cd660 Cd 0.6245 0.67889 0.21741 0.0
O661 O 0.60739 0.71277 0.26278 0.0
O662 O 0.6433 0.639 0.33896 0.0
O663 O 0.59974 0.63573 0.29491 0.0
C664 C 0.60859 0.63688 0.32979 0.0
C665 C 0.60038 0.67913 0.15662 0.0
C666 C 0.63547 0.7186 0.28336 0.0
C667 C 0.70132 0.63292 0.23181 0.0
O668 O 0.67873 0.65665 0.21789 0.0
O669 O 0.6924 0.61422 0.26035 0.0
O670 O 0.62267 0.70491 0.16774 0.0
O671 O 0.58902 0.65523 0.18091 0.0
O672 O 0.497 0.57272 0.91439 0.0
Cd673 Cd 0.4878 0.62704 0.90309 0.0
Cd674 Cd 0.55572 0.59424 0.87449 0.0
O675 O 0.51036 0.56036 0.85737 0.0
O676 O 0.43417 0.63414 0.89328 0.0
O677 O 0.47822 0.6374 0.84972 0.0
C678 C 0.44334 0.63626 0.85857 0.0
C679 C 0.61651 0.594 0.85036 0.0
C680 C 0.48977 0.55453 0.88545 0.0
C681 C 0.54133 0.64022 0.9513 0.0
O682 O 0.55525 0.61648 0.92872 0.0
O683 O 0.51279 0.65892 0.94238 0.0
O684 O 0.60539 0.56823 0.87265 0.0
O685 O 0.59221 0.6179 0.839 0.0
O686 O 0.70039 0.24698 0.16442 0.0
Cd687 Cd 0.64607 0.23778 0.1531 0.0
Cd688 Cd 0.67889 0.30572 0.12451 0.0
O689 O 0.71278 0.26037 0.1074 0.0
O690 O 0.63897 0.18416 0.14329 0.0
O691 O 0.63572 0.2282 0.09974 0.0
C692 C 0.63686 0.19333 0.10859 0.0
C693 C 0.67914 0.36651 0.10039 0.0
C694 C 0.71857 0.23977 0.13548 0.0
C695 C 0.63289 0.29132 0.20131 0.0
O696 O 0.65663 0.30524 0.17873 0.0
O697 O 0.61419 0.26278 0.19239 0.0
O698 O 0.70491 0.3554 0.1227 0.0
O699 O 0.65525 0.34222 0.08902 0.0
O700 O 0.02614 0.45041 0.41441 0.0
Cd701 Cd 0.03536 0.39609 0.40312 0.0
Cd702 Cd 0.96742 0.42889 0.3745 0.0
O703 O 0.01279 0.46276 0.35739 0.0
O704 O 0.08898 0.38899 0.39331 0.0
O705 O 0.04494 0.38572 0.34975 0.0
C706 C 0.07981 0.38687 0.35861 0.0
C707 C 0.90663 0.42913 0.35038 0.0
C708 C 0.03337 0.46859 0.38547 0.0
C709 C 0.98181 0.38291 0.45132 0.0
O710 O 0.96789 0.40664 0.42873 0.0
O711 O 1.01036 0.36422 0.44241 0.0
O712 O 0.91775 0.4549 0.37268 0.0
O713 O 0.93092 0.40523 0.33902 0.0
O714 O 0.82275 0.77616 0.66443 0.0
Cd715 Cd 0.87706 0.78534 0.65308 0.0
Cd716 Cd 0.84422 0.71741 0.62451 0.0
O717 O 0.81033 0.76276 0.60742 0.0
O718 O 0.88416 0.83896 0.64327 0.0
O719 O 0.88739 0.79492 0.59971 0.0
C720 C 0.88625 0.8298 0.60856 0.0
C721 C 0.84396 0.65662 0.60039 0.0
C722 C 0.80455 0.78336 0.6355 0.0
C723 C 0.89026 0.73182 0.70129 0.0
O724 O 0.8665 0.71789 0.67873 0.0
O725 O 0.90896 0.76035 0.69236 0.0
O726 O 0.81821 0.66773 0.6227 0.0
O727 O 0.86785 0.68091 0.58902 0.0
O728 O 0.49699 0.45041 0.60872 0.0
Cd729 Cd 0.48778 0.3961 0.62005 0.0
Cd730 Cd 0.55572 0.4289 0.64863 0.0
O731 O 0.51035 0.46278 0.66574 0.0
O732 O 0.43415 0.389 0.62985 0.0
O733 O 0.47819 0.38575 0.67341 0.0
C734 C 0.44332 0.38689 0.66456 0.0
C735 C 0.6165 0.42914 0.67276 0.0
C736 C 0.48977 0.4686 0.63766 0.0
C737 C 0.54131 0.38289 0.57184 0.0
O738 O 0.55524 0.40664 0.59441 0.0
O739 O 0.51276 0.3642 0.58076 0.0
O740 O 0.60539 0.45491 0.65046 0.0
O741 O 0.59221 0.40525 0.68412 0.0
O742 O 0.82276 0.24697 0.8587 0.0
Cd743 Cd 0.87707 0.23781 0.87006 0.0
Cd744 Cd 0.84423 0.30573 0.89862 0.0
O745 O 0.81034 0.26036 0.91572 0.0
O746 O 0.88418 0.18419 0.87987 0.0
O747 O 0.88741 0.22823 0.92343 0.0
C748 C 0.88628 0.19336 0.91457 0.0
C749 C 0.84398 0.36652 0.92275 0.0
C750 C 0.80456 0.23976 0.88764 0.0
C751 C 0.89025 0.29134 0.82184 0.0
O752 O 0.86649 0.30525 0.8444 0.0
O753 O 0.90896 0.26281 0.83077 0.0
O754 O 0.81821 0.3554 0.90044 0.0
O755 O 0.86787 0.34222 0.93412 0.0
O756 O 0.02613 0.57274 0.10872 0.0
Cd757 Cd 0.03535 0.62705 0.12004 0.0
Cd758 Cd 0.96741 0.59426 0.14862 0.0
O759 O 0.01277 0.56038 0.16573 0.0
O760 O 0.08898 0.63415 0.12984 0.0
O761 O 0.04494 0.63741 0.1734 0.0
C762 C 0.07981 0.63626 0.16455 0.0
C763 C 0.90663 0.59401 0.17275 0.0
C764 C 0.03336 0.55455 0.13765 0.0
C765 C 0.98181 0.64026 0.07183 0.0
O766 O 0.96789 0.61651 0.0944 0.0
O767 O 1.01036 0.65895 0.08075 0.0
O768 O 0.91774 0.56824 0.15044 0.0
O769 O 0.93092 0.61791 0.18411 0.0
O770 O 0.70038 0.77615 0.35871 0.0
Cd771 Cd 0.64607 0.78531 0.37008 0.0
Cd772 Cd 0.67892 0.71739 0.39862 0.0
O773 O 0.71281 0.76275 0.41572 0.0
O774 O 0.63897 0.83893 0.37989 0.0
O775 O 0.63575 0.79488 0.42345 0.0
C776 C 0.63688 0.82976 0.4146 0.0
C777 C 0.67917 0.65661 0.42275 0.0
C778 C 0.71858 0.78335 0.38764 0.0
C779 C 0.63288 0.73179 0.32185 0.0
O780 O 0.65665 0.71787 0.3444 0.0
O781 O 0.61417 0.76032 0.33079 0.0
O782 O 0.70493 0.66772 0.40044 0.0
O783 O 0.65527 0.6809 0.43412 0.0
O784 O 0.91438 0.49701 0.57272 0.0
Cd785 Cd 0.90306 0.48782 0.62703 0.0
Cd786 Cd 0.87448 0.55573 0.59423 0.0
O787 O 0.85737 0.51037 0.56036 0.0
O788 O 0.89325 0.4342 0.63414 0.0
O789 O 0.8497 0.47824 0.6374 0.0
C790 C 0.85855 0.44336 0.63625 0.0
C791 C 0.85036 0.61652 0.59399 0.0
C792 C 0.88544 0.48978 0.55453 0.0
C793 C 0.95129 0.54134 0.64021 0.0
O794 O 0.92871 0.55526 0.61647 0.0
O795 O 0.94237 0.5128 0.65892 0.0
O796 O 0.87265 0.6054 0.56821 0.0
O797 O 0.839 0.59223 0.61789 0.0
O798 O 0.77615 0.66443 0.82275 0.0
Cd799 Cd 0.78533 0.65307 0.87705 0.0
Cd800 Cd 0.7174 0.62452 0.84421 0.0
O801 O 0.76276 0.60742 0.81032 0.0
O802 O 0.83895 0.64325 0.88415 0.0
O803 O 0.7949 0.5997 0.88738 0.0
C804 C 0.82978 0.60855 0.88625 0.0
C805 C 0.65661 0.6004 0.84396 0.0
C806 C 0.78336 0.6355 0.80454 0.0
C807 C 0.73181 0.70129 0.89025 0.0
O808 O 0.71789 0.67873 0.86649 0.0
O809 O 0.76035 0.69236 0.90896 0.0
O810 O 0.66772 0.62271 0.8182 0.0
O811 O 0.6809 0.58902 0.86785 0.0
O812 O 0.60874 0.52612 0.07272 0.0
Cd813 Cd 0.62005 0.53534 0.12703 0.0
Cd814 Cd 0.64863 0.4674 0.09424 0.0
O815 O 0.66575 0.51276 0.06036 0.0
O816 O 0.62987 0.58896 0.13413 0.0
O817 O 0.67342 0.54491 0.1374 0.0
C818 C 0.66457 0.57979 0.13625 0.0
C819 C 0.67274 0.40661 0.094 0.0
C820 C 0.63768 0.53335 0.05453 0.0
C821 C 0.57183 0.48181 0.14022 0.0
O822 O 0.59441 0.46789 0.11649 0.0
O823 O 0.58075 0.51036 0.15892 0.0
O824 O 0.65045 0.41773 0.06822 0.0
O825 O 0.68411 0.43091 0.11789 0.0
O826 O 0.747 0.35872 0.32272 0.0
Cd827 Cd 0.7378 0.37004 0.37704 0.0
Cd828 Cd 0.80574 0.39862 0.34423 0.0
O829 O 0.76037 0.41573 0.31036 0.0
O830 O 0.68418 0.37986 0.38414 0.0
O831 O 0.72823 0.42341 0.3874 0.0
C832 C 0.69335 0.41456 0.38626 0.0
C833 C 0.86653 0.42273 0.34399 0.0
C834 C 0.73978 0.38766 0.30454 0.0
C835 C 0.79133 0.32183 0.39023 0.0
O836 O 0.80526 0.34439 0.36649 0.0
O837 O 0.76278 0.33075 0.40893 0.0
O838 O 0.85541 0.40043 0.31821 0.0
O839 O 0.84224 0.4341 0.36788 0.0
O840 O 0.91441 0.52615 0.95039 0.0
Cd841 Cd 0.90307 0.53531 0.89607 0.0
Cd842 Cd 0.8745 0.4674 0.92891 0.0
O843 O 0.8574 0.51277 0.96279 0.0
O844 O 0.89327 0.58893 0.88896 0.0
O845 O 0.84971 0.54489 0.88572 0.0
C846 C 0.85856 0.57977 0.88686 0.0
C847 C 0.85038 0.40662 0.92915 0.0
C848 C 0.88548 0.53336 0.96858 0.0
C849 C 0.9513 0.48179 0.88292 0.0
O850 O 0.92872 0.46788 0.90666 0.0
O851 O 0.94237 0.51031 0.86419 0.0
O852 O 0.87267 0.41773 0.95493 0.0
O853 O 0.83901 0.43091 0.90526 0.0
O854 O 0.74699 0.66444 0.20037 0.0
Cd855 Cd 0.73781 0.65309 0.14606 0.0
Cd856 Cd 0.80574 0.62453 0.1789 0.0
O857 O 0.76038 0.60743 0.21279 0.0
O858 O 0.68419 0.64327 0.13895 0.0
O859 O 0.72823 0.59972 0.13573 0.0
C860 C 0.69335 0.60857 0.13686 0.0
C861 C 0.86653 0.60041 0.17914 0.0
C862 C 0.73979 0.63551 0.21857 0.0
C863 C 0.79134 0.7013 0.13286 0.0
O864 O 0.80526 0.67874 0.15662 0.0
O865 O 0.7628 0.69237 0.11416 0.0
O866 O 0.85541 0.62272 0.20491 0.0
O867 O 0.84223 0.58903 0.15525 0.0
O868 O 0.60872 0.49697 0.4504 0.0
Cd869 Cd 0.62006 0.4878 0.39608 0.0
Cd870 Cd 0.64864 0.55572 0.42892 0.0
O871 O 0.66574 0.51036 0.46281 0.0
O872 O 0.62987 0.43418 0.38897 0.0
O873 O 0.67343 0.47822 0.38574 0.0
C874 C 0.66457 0.44334 0.38687 0.0
C875 C 0.67276 0.61651 0.42916 0.0
C876 C 0.63766 0.48977 0.46859 0.0
C877 C 0.57185 0.54133 0.38291 0.0
O878 O 0.59442 0.55524 0.40666 0.0
O879 O 0.58077 0.5128 0.3642 0.0
O880 O 0.65047 0.6054 0.45493 0.0
O881 O 0.68413 0.59221 0.40527 0.0
O882 O 0.77614 0.35871 0.70037 0.0
Cd883 Cd 0.78531 0.37007 0.64607 0.0
Cd884 Cd 0.71739 0.39862 0.67891 0.0
O885 O 0.76275 0.41572 0.7128 0.0
O886 O 0.83893 0.37988 0.63896 0.0
O887 O 0.79489 0.42344 0.63574 0.0
C888 C 0.82976 0.41458 0.63687 0.0
C889 C 0.6566 0.42274 0.67916 0.0
C890 C 0.78335 0.38764 0.71858 0.0
C891 C 0.73178 0.32185 0.63288 0.0
O892 O 0.71787 0.3444 0.65664 0.0
O893 O 0.76032 0.33078 0.61417 0.0
O894 O 0.66772 0.40044 0.70492 0.0
O895 O 0.6809 0.43412 0.65527 0.0
O896 O 0.57275 0.91441 0.49699 0.0
Cd897 Cd 0.62706 0.90306 0.48783 0.0
Cd898 Cd 0.59422 0.8745 0.55574 0.0
O899 O 0.56034 0.8574 0.51037 0.0
O900 O 0.63417 0.89325 0.43421 0.0
O901 O 0.6374 0.84969 0.47826 0.0
C902 C 0.63627 0.85854 0.44338 0.0
C903 C 0.59398 0.85037 0.61652 0.0
C904 C 0.55456 0.88548 0.48978 0.0
C905 C 0.64024 0.95128 0.54135 0.0
O906 O 0.61648 0.92873 0.55527 0.0
O907 O 0.65895 0.94235 0.51283 0.0
O908 O 0.56821 0.87267 0.60541 0.0
O909 O 0.61787 0.83901 0.59223 0.0
O910 O 0.07272 0.60873 0.52613 0.0
Cd911 Cd 0.12704 0.62003 0.53535 0.0
Cd912 Cd 0.09425 0.64863 0.4674 0.0
O913 O 0.06037 0.66574 0.51276 0.0
O914 O 0.13413 0.62984 0.58898 0.0
O915 O 0.1374 0.6734 0.54493 0.0
C916 C 0.13625 0.66455 0.57981 0.0
C917 C 0.09401 0.67273 0.40661 0.0
C918 C 0.05454 0.63767 0.53335 0.0
C919 C 0.14024 0.57182 0.48182 0.0
O920 O 0.11651 0.59441 0.46789 0.0
O921 O 0.15893 0.58074 0.51037 0.0
O922 O 0.06824 0.65044 0.41773 0.0
O923 O 0.1179 0.68411 0.43091 0.0
O924 O 0.66443 0.82275 0.77616 0.0
Cd925 Cd 0.65307 0.87706 0.78533 0.0
Cd926 Cd 0.62451 0.84422 0.71741 0.0
O927 O 0.60741 0.81033 0.76277 0.0
O928 O 0.64326 0.88417 0.83895 0.0
O929 O 0.5997 0.88739 0.79491 0.0
C930 C 0.60856 0.88626 0.82979 0.0
C931 C 0.60038 0.84397 0.65662 0.0
C932 C 0.63549 0.80455 0.78336 0.0
C933 C 0.70128 0.89026 0.73181 0.0
O934 O 0.67872 0.86649 0.71789 0.0
O935 O 0.69235 0.90896 0.76034 0.0
O936 O 0.62269 0.81821 0.66773 0.0
O937 O 0.58901 0.86786 0.68092 0.0
O938 O 0.45041 0.4144 0.02613 0.0
Cd939 Cd 0.39609 0.40311 0.03535 0.0
Cd940 Cd 0.42889 0.3745 0.96741 0.0
O941 O 0.46276 0.35739 0.01277 0.0
O942 O 0.38899 0.3933 0.08897 0.0
O943 O 0.38572 0.34975 0.04493 0.0
C944 C 0.38687 0.3586 0.07981 0.0
C945 C 0.42913 0.35039 0.90662 0.0
C946 C 0.46859 0.38546 0.03336 0.0
C947 C 0.38291 0.45131 0.98181 0.0
O948 O 0.40664 0.42873 0.96789 0.0
O949 O 0.36421 0.4424 1.01036 0.0
O950 O 0.45491 0.37269 0.91774 0.0
O951 O 0.40524 0.33902 0.93091 0.0
O952 O 0.35874 0.70041 0.77613 0.0
Cd953 Cd 0.37004 0.6461 0.78534 0.0
Cd954 Cd 0.39863 0.6789 0.7174 0.0
O955 O 0.41575 0.71277 0.76277 0.0
O956 O 0.37985 0.639 0.83896 0.0
O957 O 0.4234 0.63573 0.79492 0.0
C958 C 0.41456 0.63688 0.8298 0.0
C959 C 0.42274 0.67914 0.65661 0.0
C960 C 0.38767 0.7186 0.78336 0.0
C961 C 0.32183 0.63291 0.73181 0.0
O962 O 0.34441 0.65664 0.71788 0.0
O963 O 0.33074 0.61421 0.76035 0.0
O964 O 0.40045 0.70491 0.66773 0.0
O965 O 0.43412 0.65525 0.6809 0.0
O966 O 0.95039 0.10871 0.99698 0.0
Cd967 Cd 0.89609 0.12006 0.9878 0.0
Cd968 Cd 0.92892 0.14862 0.05573 0.0
O969 O 0.96281 0.16573 1.01037 0.0
O970 O 0.88898 0.12987 0.93418 0.0
O971 O 0.88575 0.17342 0.97823 0.0
C972 C 0.88688 0.16458 0.94335 0.0
C973 C 0.92917 0.17274 0.11652 0.0
C974 C 0.96859 0.13765 0.98977 0.0
C975 C 0.8829 0.07184 0.04133 0.0
O976 O 0.90666 0.0944 0.05525 0.0
O977 O 0.86419 0.08077 0.01279 0.0
O978 O 0.95494 0.15044 0.1054 0.0
O979 O 0.90528 0.18411 0.09222 0.0
O980 O 0.66443 0.20037 0.74699 0.0
Cd981 Cd 0.65308 0.14606 0.73781 0.0
Cd982 Cd 0.62452 0.1789 0.80574 0.0
O983 O 0.60742 0.21278 0.76038 0.0
O984 O 0.64326 0.13895 0.68419 0.0
O985 O 0.59971 0.13572 0.72823 0.0
C986 C 0.60856 0.13686 0.69335 0.0
C987 C 0.60041 0.17914 0.86653 0.0
C988 C 0.6355 0.21857 0.73978 0.0
C989 C 0.70129 0.13286 0.79133 0.0
O990 O 0.67874 0.15662 0.80525 0.0
O991 O 0.69236 0.11416 0.7628 0.0
O992 O 0.62272 0.20491 0.85541 0.0
O993 O 0.58903 0.15525 0.84223 0.0
O994 O 0.85871 0.82277 0.24697 0.0
Cd995 Cd 0.87006 0.87708 0.23781 0.0
Cd996 Cd 0.89862 0.84423 0.30573 0.0
O997 O 0.91572 0.81035 0.26037 0.0
O998 O 0.87986 0.88419 0.18419 0.0
O999 O 0.92343 0.88742 0.22823 0.0
C1000 C 0.91457 0.88629 0.19336 0.0
C1001 C 0.92273 0.84398 0.36652 0.0
C1002 C 0.88764 0.80457 0.23977 0.0
C1003 C 0.82184 0.89026 0.29134 0.0
O1004 O 0.8444 0.8665 0.30525 0.0
O1005 O 0.83077 0.90897 0.2628 0.0
O1006 O 0.90043 0.81821 0.3554 0.0
O1007 O 0.93411 0.86787 0.34223 0.0
O1008 O 0.52615 0.45037 0.10871 0.0
Cd1009 Cd 0.53531 0.39607 0.12007 0.0
Cd1010 Cd 0.4674 0.42891 0.14863 0.0
O1011 O 0.51276 0.4628 0.16572 0.0
O1012 O 0.58893 0.38896 0.12988 0.0
O1013 O 0.54489 0.38574 0.17344 0.0
C1014 C 0.57976 0.38687 0.16459 0.0
C1015 C 0.40662 0.42916 0.17276 0.0
C1016 C 0.53336 0.46858 0.13764 0.0
C1017 C 0.48179 0.38288 0.07185 0.0
O1018 O 0.46787 0.40664 0.0944 0.0
O1019 O 0.51032 0.36417 0.08078 0.0
O1020 O 0.41773 0.45492 0.15045 0.0
O1021 O 0.43091 0.40526 0.18412 0.0
O1022 O 0.32276 0.77615 0.8587 0.0
Cd1023 Cd 0.37707 0.78532 0.87006 0.0
Cd1024 Cd 0.34424 0.7174 0.89862 0.0
O1025 O 0.31034 0.76276 0.91571 0.0
O1026 O 0.38417 0.83894 0.87988 0.0
O1027 O 0.3874 0.7949 0.92343 0.0
C1028 C 0.38626 0.82977 0.91458 0.0
C1029 C 0.34399 0.65661 0.92274 0.0
C1030 C 0.30456 0.78335 0.88764 0.0
C1031 C 0.39026 0.7318 0.82184 0.0
O1032 O 0.3665 0.71788 0.84439 0.0
O1033 O 0.40897 0.76033 0.83077 0.0
O1034 O 0.31823 0.66773 0.90044 0.0
O1035 O 0.36788 0.68091 0.93411 0.0
O1036 O 0.99697 0.57277 0.60869 0.0
Cd1037 Cd 0.9878 0.62708 0.62004 0.0
Cd1038 Cd 0.05572 0.59424 0.64861 0.0
O1039 O 1.01036 0.56036 0.66571 0.0
O1040 O 0.93418 0.63419 0.62984 0.0
O1041 O 0.97822 0.63742 0.67341 0.0
C1042 C 0.94334 0.63629 0.66455 0.0
C1043 C 0.11651 0.59399 0.67275 0.0
C1044 C 0.98976 0.55457 0.63763 0.0
C1045 C 0.04133 0.64026 0.57183 0.0
O1046 O 0.05525 0.6165 0.59439 0.0
O1047 O 0.0128 0.65897 0.58076 0.0
O1048 O 0.10539 0.56822 0.65044 0.0
O1049 O 0.09221 0.61789 0.68411 0.0
O1050 O 0.20039 0.24698 0.35871 0.0
Cd1051 Cd 0.14608 0.23781 0.37007 0.0
Cd1052 Cd 0.17892 0.30573 0.39863 0.0
O1053 O 0.21281 0.26037 0.41573 0.0
O1054 O 0.13898 0.18419 0.37989 0.0
O1055 O 0.13575 0.22824 0.42344 0.0
C1056 C 0.13689 0.19336 0.41459 0.0
C1057 C 0.17917 0.36652 0.42276 0.0
C1058 C 0.21859 0.23978 0.38765 0.0
C1059 C 0.13289 0.29133 0.32185 0.0
O1060 O 0.15665 0.30525 0.34441 0.0
O1061 O 0.11418 0.2628 0.33079 0.0
O1062 O 0.20493 0.3554 0.40045 0.0
O1063 O 0.15527 0.34222 0.43413 0.0
O1064 O 0.52617 0.57276 0.41443 0.0
Cd1065 Cd 0.53535 0.62706 0.40308 0.0
Cd1066 Cd 0.46742 0.59423 0.37451 0.0
O1067 O 0.51278 0.56035 0.35741 0.0
O1068 O 0.58897 0.63417 0.39328 0.0
O1069 O 0.54493 0.6374 0.34972 0.0
C1070 C 0.57981 0.63626 0.35857 0.0
C1071 C 0.40664 0.59398 0.35038 0.0
C1072 C 0.53338 0.55456 0.38549 0.0
C1073 C 0.48182 0.64026 0.45129 0.0
O1074 O 0.4679 0.6165 0.42873 0.0
O1075 O 0.51036 0.65896 0.44237 0.0
O1076 O 0.41775 0.56822 0.37268 0.0
O1077 O 0.43093 0.61788 0.33901 0.0
O1078 O 0.20038 0.77616 0.16442 0.0
Cd1079 Cd 0.14607 0.78532 0.15307 0.0
Cd1080 Cd 0.17891 0.7174 0.12451 0.0
O1081 O 0.21279 0.76277 0.10741 0.0
O1082 O 0.13896 0.83894 0.14326 0.0
O1083 O 0.13573 0.79489 0.0997 0.0
C1084 C 0.13686 0.82977 0.10855 0.0
C1085 C 0.17915 0.65662 0.10038 0.0
C1086 C 0.21858 0.78337 0.13549 0.0
C1087 C 0.13289 0.73179 0.20129 0.0
O1088 O 0.15665 0.71788 0.17873 0.0
O1089 O 0.11418 0.76032 0.19236 0.0
O1090 O 0.20492 0.66773 0.12268 0.0
O1091 O 0.15526 0.68091 0.08901 0.0
O1092 O 0.99698 0.45037 0.91444 0.0
Cd1093 Cd 0.98779 0.39606 0.9031 0.0
Cd1094 Cd 0.05572 0.42888 0.87452 0.0
O1095 O 1.01036 0.46277 0.85742 0.0
O1096 O 0.93417 0.38895 0.89329 0.0
O1097 O 0.97821 0.38572 0.84973 0.0
C1098 C 0.94333 0.38685 0.85858 0.0
C1099 C 0.1165 0.42913 0.85039 0.0
C1100 C 0.98977 0.46856 0.8855 0.0
C1101 C 0.04132 0.38286 0.9513 0.0
O1102 O 0.05524 0.40662 0.92874 0.0
O1103 O 0.01278 0.36416 0.94238 0.0
O1104 O 0.10539 0.45489 0.8727 0.0
O1105 O 0.09221 0.40523 0.83902 0.0
O1106 O 0.32275 0.24699 0.66441 0.0
Cd1107 Cd 0.37706 0.23783 0.65305 0.0
Cd1108 Cd 0.34422 0.30574 0.6245 0.0
O1109 O 0.31033 0.26038 0.6074 0.0
O1110 O 0.38417 0.18421 0.64324 0.0
O1111 O 0.38739 0.22826 0.59968 0.0
C1112 C 0.38626 0.19338 0.60853 0.0
C1113 C 0.34398 0.36652 0.60037 0.0
C1114 C 0.30455 0.23978 0.63548 0.0
C1115 C 0.39025 0.29135 0.70128 0.0
O1116 O 0.36648 0.30527 0.67872 0.0
O1117 O 0.40896 0.26282 0.69234 0.0
O1118 O 0.31821 0.35541 0.62267 0.0
O1119 O 0.36787 0.34222 0.589 0.0
O1120 O 0.10872 0.52615 0.45037 0.0
Cd1121 Cd 0.12009 0.5353 0.39607 0.0
Cd1122 Cd 0.14864 0.4674 0.42891 0.0
O1123 O 0.16573 0.51276 0.4628 0.0
O1124 O 0.12991 0.58892 0.38895 0.0
O1125 O 0.17346 0.54487 0.38574 0.0
C1126 C 0.16461 0.57975 0.38687 0.0
C1127 C 0.17276 0.40661 0.42916 0.0
C1128 C 0.13765 0.53336 0.46858 0.0
C1129 C 0.07186 0.48178 0.38288 0.0
O1130 O 0.09441 0.46787 0.40665 0.0
O1131 O 0.0808 0.51031 0.36417 0.0
O1132 O 0.15046 0.41773 0.45493 0.0
O1133 O 0.18413 0.43091 0.40526 0.0
O1134 O 0.24698 0.35872 0.20039 0.0
Cd1135 Cd 0.23781 0.37007 0.14608 0.0
Cd1136 Cd 0.30573 0.39863 0.17892 0.0
O1137 O 0.26038 0.41573 0.21281 0.0
O1138 O 0.18419 0.37989 0.13897 0.0
O1139 O 0.22824 0.42345 0.13575 0.0
C1140 C 0.19336 0.41459 0.13688 0.0
C1141 C 0.36652 0.42275 0.17916 0.0
C1142 C 0.23978 0.38765 0.21859 0.0
C1143 C 0.29133 0.32185 0.13289 0.0
O1144 O 0.30525 0.34441 0.15665 0.0
O1145 O 0.2628 0.33079 0.11418 0.0
O1146 O 0.35541 0.40045 0.20493 0.0
O1147 O 0.34222 0.43412 0.15527 0.0
O1148 O 0.41443 0.49698 0.95037 0.0
Cd1149 Cd 0.40306 0.48782 0.89606 0.0
Cd1150 Cd 0.37451 0.55573 0.9289 0.0
O1151 O 0.35742 0.51038 0.96279 0.0
O1152 O 0.39325 0.4342 0.88896 0.0
O1153 O 0.34969 0.47824 0.88573 0.0
C1154 C 0.35854 0.44337 0.88687 0.0
C1155 C 0.3504 0.61652 0.92914 0.0
C1156 C 0.38549 0.48978 0.96857 0.0
C1157 C 0.45129 0.54134 0.88287 0.0
O1158 O 0.42873 0.55526 0.90663 0.0
O1159 O 0.44235 0.5128 0.86416 0.0
O1160 O 0.3727 0.60541 0.95491 0.0
O1161 O 0.33902 0.59222 0.90525 0.0
O1162 O 0.27615 0.66443 0.70037 0.0
Cd1163 Cd 0.28531 0.65307 0.64606 0.0
Cd1164 Cd 0.21739 0.62451 0.67891 0.0
O1165 O 0.26276 0.60741 0.71279 0.0
O1166 O 0.33893 0.64326 0.63895 0.0
O1167 O 0.29488 0.5997 0.63572 0.0
C1168 C 0.32976 0.60855 0.63685 0.0
C1169 C 0.15661 0.60039 0.67914 0.0
C1170 C 0.28336 0.63549 0.71857 0.0
C1171 C 0.23179 0.70129 0.63289 0.0
O1172 O 0.21787 0.67874 0.65665 0.0
O1173 O 0.26032 0.69236 0.61417 0.0
O1174 O 0.16772 0.62269 0.70492 0.0
O1175 O 0.1809 0.58902 0.65525 0.0
O1176 O 0.10871 0.49698 0.07275 0.0
Cd1177 Cd 0.12006 0.48782 0.12706 0.0
Cd1178 Cd 0.14862 0.55574 0.09422 0.0
O1179 O 0.16572 0.51037 0.06034 0.0
O1180 O 0.12988 0.43421 0.13418 0.0
O1181 O 0.17343 0.47825 0.1374 0.0
C1182 C 0.16458 0.44338 0.13627 0.0
C1183 C 0.17275 0.61652 0.09398 0.0
C1184 C 0.13764 0.48977 0.05456 0.0
C1185 C 0.07184 0.54135 0.14024 0.0
O1186 O 0.0944 0.55526 0.11648 0.0
O1187 O 0.08077 0.51282 0.15895 0.0
O1188 O 0.15045 0.60541 0.0682 0.0
O1189 O 0.18412 0.59223 0.11787 0.0
O1190 O 0.27614 0.3587 0.82276 0.0
Cd1191 Cd 0.28531 0.37006 0.87707 0.0
Cd1192 Cd 0.21739 0.39861 0.84423 0.0
O1193 O 0.26274 0.41571 0.81034 0.0
O1194 O 0.33893 0.37988 0.88417 0.0
O1195 O 0.29488 0.42343 0.8874 0.0
C1196 C 0.32976 0.41458 0.88626 0.0
C1197 C 0.1566 0.42272 0.84399 0.0
C1198 C 0.28334 0.38763 0.80456 0.0
C1199 C 0.23179 0.32184 0.89026 0.0
O1200 O 0.21787 0.34439 0.8665 0.0
O1201 O 0.26033 0.33077 0.90897 0.0
O1202 O 0.16771 0.40042 0.81822 0.0
O1203 O 0.1809 0.4341 0.86788 0.0
O1204 O 0.41442 0.52616 0.57274 0.0
Cd1205 Cd 0.40306 0.53532 0.62705 0.0
Cd1206 Cd 0.37451 0.46741 0.59421 0.0
O1207 O 0.35741 0.51276 0.56032 0.0
O1208 O 0.39325 0.58894 0.63416 0.0
O1209 O 0.34969 0.54489 0.63738 0.0
C1210 C 0.35854 0.57977 0.63625 0.0
C1211 C 0.35039 0.40662 0.59397 0.0
C1212 C 0.38549 0.53336 0.55454 0.0
C1213 C 0.45128 0.4818 0.64024 0.0
O1214 O 0.42873 0.46788 0.61647 0.0
O1215 O 0.44235 0.51034 0.65895 0.0
O1216 O 0.37269 0.41773 0.5682 0.0
O1217 O 0.33901 0.43092 0.61786 0.0
O1218 O 0.247 0.66442 0.32276 0.0
Cd1219 Cd 0.23784 0.65305 0.37706 0.0
Cd1220 Cd 0.30575 0.62451 0.34422 0.0
O1221 O 0.26039 0.60741 0.31033 0.0
O1222 O 0.18422 0.64324 0.38417 0.0
O1223 O 0.22827 0.59968 0.38739 0.0
C1224 C 0.19339 0.60853 0.38626 0.0
C1225 C 0.36654 0.60039 0.34398 0.0
C1226 C 0.23979 0.63549 0.30455 0.0
C1227 C 0.29136 0.70128 0.39025 0.0
O1228 O 0.30528 0.67873 0.36649 0.0
O1229 O 0.26283 0.69234 0.40896 0.0
O1230 O 0.35543 0.62269 0.31821 0.0
O1231 O 0.34224 0.58901 0.36787 0.0
O1232 O 0.45037 0.10871 0.52614 0.0
Cd1233 Cd 0.39607 0.12008 0.5353 0.0
Cd1234 Cd 0.42891 0.14863 0.4674 0.0
O1235 O 0.4628 0.16573 0.51276 0.0
O1236 O 0.38895 0.12989 0.58892 0.0
O1237 O 0.38574 0.17345 0.54487 0.0
C1238 C 0.38687 0.1646 0.57975 0.0
C1239 C 0.42916 0.17276 0.40661 0.0
C1240 C 0.46858 0.13764 0.53335 0.0
C1241 C 0.38288 0.07185 0.48178 0.0
O1242 O 0.40665 0.09441 0.46786 0.0
O1243 O 0.36417 0.08079 0.5103 0.0
O1244 O 0.45492 0.15046 0.41773 0.0
O1245 O 0.40526 0.18413 0.43091 0.0
O1246 O 0.95037 0.41444 0.49698 0.0
Cd1247 Cd 0.89606 0.40308 0.48781 0.0
Cd1248 Cd 0.92889 0.37453 0.55574 0.0
O1249 O 0.96279 0.35743 0.51039 0.0
O1250 O 0.88896 0.39326 0.43419 0.0
O1251 O 0.88573 0.34971 0.47823 0.0
C1252 C 0.88686 0.35856 0.44336 0.0
C1253 C 0.92914 0.35041 0.61653 0.0
C1254 C 0.96857 0.3855 0.48979 0.0
C1255 C 0.88286 0.4513 0.54133 0.0
O1256 O 0.90662 0.42874 0.55525 0.0
O1257 O 0.86416 0.44236 0.5128 0.0
O1258 O 0.95491 0.37272 0.60541 0.0
O1259 O 0.90525 0.33903 0.59223 0.0
O1260 O 0.35872 0.20039 0.24698 0.0
Cd1261 Cd 0.37008 0.14608 0.23782 0.0
Cd1262 Cd 0.39863 0.17892 0.30573 0.0
O1263 O 0.41573 0.21281 0.26037 0.0
O1264 O 0.37989 0.13897 0.1842 0.0
O1265 O 0.42345 0.13575 0.22825 0.0
C1266 C 0.4146 0.13688 0.19337 0.0
C1267 C 0.42275 0.17916 0.36652 0.0
C1268 C 0.38765 0.21859 0.23978 0.0
C1269 C 0.32186 0.13289 0.29133 0.0
O1270 O 0.34441 0.15666 0.30525 0.0
O1271 O 0.33079 0.11418 0.2628 0.0
O1272 O 0.40045 0.20493 0.35541 0.0
O1273 O 0.43413 0.15527 0.34222 0.0
O1274 O 0.57277 0.6087 0.99697 0.0
Cd1275 Cd 0.62707 0.62004 0.9878 0.0
Cd1276 Cd 0.59424 0.64861 0.05573 0.0
O1277 O 0.56035 0.66571 1.01037 0.0
O1278 O 0.63418 0.62985 0.93418 0.0
O1279 O 0.63741 0.67341 0.97822 0.0
C1280 C 0.63628 0.66456 0.94334 0.0
C1281 C 0.59399 0.67273 0.11652 0.0
C1282 C 0.55457 0.63763 0.98977 0.0
C1283 C 0.64026 0.57183 0.04133 0.0
O1284 O 0.61651 0.59439 0.05525 0.0
O1285 O 0.65897 0.58076 0.01279 0.0
O1286 O 0.56822 0.65042 0.1054 0.0
O1287 O 0.61788 0.6841 0.09223 0.0
O1288 O 0.66442 0.32275 0.24699 0.0
Cd1289 Cd 0.65307 0.37706 0.23782 0.0
Cd1290 Cd 0.62451 0.34423 0.30574 0.0
O1291 O 0.6074 0.31034 0.26038 0.0
O1292 O 0.64325 0.38417 0.1842 0.0
O1293 O 0.5997 0.3874 0.22825 0.0
C1294 C 0.60855 0.38626 0.19337 0.0
C1295 C 0.6004 0.34398 0.36653 0.0
C1296 C 0.63548 0.30456 0.23978 0.0
C1297 C 0.70129 0.39025 0.29134 0.0
O1298 O 0.67874 0.36649 0.30526 0.0
O1299 O 0.69236 0.40896 0.26281 0.0
O1300 O 0.6227 0.31821 0.35541 0.0
O1301 O 0.58902 0.36787 0.34224 0.0
O1302 O 0.07275 0.91443 0.02615 0.0
Cd1303 Cd 0.12706 0.90307 0.03532 0.0
Cd1304 Cd 0.09422 0.87451 0.96741 0.0
O1305 O 0.06033 0.85742 0.01277 0.0
O1306 O 0.13417 0.89326 0.08894 0.0
O1307 O 0.13739 0.8497 0.0449 0.0
C1308 C 0.13626 0.85855 0.07977 0.0
C1309 C 0.09397 0.85039 0.90663 0.0
C1310 C 0.05455 0.8855 0.03336 0.0
C1311 C 0.14025 0.95129 0.9818 0.0
O1312 O 0.11649 0.92873 0.96788 0.0
O1313 O 0.15896 0.94235 1.01033 0.0
O1314 O 0.0682 0.87269 0.91774 0.0
O1315 O 0.11786 0.83901 0.93092 0.0
O1316 O 0.35871 0.82276 0.27615 0.0
Cd1317 Cd 0.37007 0.87707 0.28532 0.0
Cd1318 Cd 0.39862 0.84424 0.2174 0.0
O1319 O 0.41572 0.81035 0.26275 0.0
O1320 O 0.37988 0.88417 0.33894 0.0
O1321 O 0.42344 0.8874 0.2949 0.0
C1322 C 0.41458 0.88627 0.32977 0.0
C1323 C 0.42274 0.844 0.15661 0.0
C1324 C 0.38764 0.80456 0.28335 0.0
C1325 C 0.32185 0.89026 0.2318 0.0
O1326 O 0.3444 0.8665 0.21788 0.0
O1327 O 0.33078 0.90897 0.26033 0.0
O1328 O 0.40044 0.81823 0.16772 0.0
O1329 O 0.43412 0.86789 0.18091 0.0
O1330 O 0.16442 0.20037 0.77615 0.0
Cd1331 Cd 0.15307 0.14606 0.78532 0.0
Cd1332 Cd 0.12451 0.1789 0.7174 0.0
O1333 O 0.10741 0.21278 0.76276 0.0
O1334 O 0.14326 0.13895 0.83894 0.0
O1335 O 0.0997 0.13572 0.79489 0.0
C1336 C 0.10856 0.13686 0.82977 0.0
C1337 C 0.10039 0.17915 0.65661 0.0
C1338 C 0.13549 0.21857 0.78336 0.0
C1339 C 0.20129 0.13288 0.73179 0.0
O1340 O 0.17873 0.15664 0.71788 0.0
O1341 O 0.19235 0.11417 0.76032 0.0
O1342 O 0.12269 0.20492 0.66773 0.0
O1343 O 0.08901 0.15525 0.68091 0.0
loop_
_geom_bond_atom_site_label_1
_geom_bond_atom_site_label_2
_geom_bond_distance
_geom_bond_site_symmetry_2
_ccdc_geom_bond_type
O0 Cd1 2.223 . S
O0 C8 1.315 . S
Cd1 O0 2.223 . S
Cd1 O4 2.297 . S
Cd1 O5 2.439 . S
Cd1 O11 2.240 1_655 S
Cd2 O3 2.240 1_455 S
Cd2 O10 2.223 . S
Cd2 O12 2.297 . S
Cd2 O13 2.439 . S
O3 Cd2 2.240 1_655 S
O3 C8 1.279 . S
O4 Cd1 2.297 . S
O4 C6 1.247 . S
O5 Cd1 2.439 . S
O5 C6 1.208 . S
C6 O4 1.247 . S
C6 O5 1.208 . S
C7 O12 1.247 . S
C7 O13 1.208 . S
C8 O0 1.315 . S
C8 O3 1.279 . S
C9 O10 1.315 . S
C9 O11 1.279 . S
O10 Cd2 2.223 . S
O10 C9 1.315 . S
O11 Cd1 2.240 1_455 S
O11 C9 1.279 . S
O12 Cd2 2.297 . S
O12 C7 1.247 . S
O13 Cd2 2.439 . S
O13 C7 1.208 . S
O14 Cd15 2.223 . S
O14 C22 1.315 . S
Cd15 O14 2.223 . S
Cd15 O18 2.297 . S
Cd15 O19 2.439 . S
Cd15 O25 2.240 . S
Cd16 O17 2.240 . S
Cd16 O24 2.223 . S
Cd16 O26 2.297 . S
Cd16 O27 2.439 . S
O17 Cd16 2.240 . S
O17 C22 1.279 . S
O18 Cd15 2.297 . S
O18 C20 1.247 . S
O19 Cd15 2.439 . S
O19 C20 1.208 . S
C20 O18 1.247 . S
C20 O19 1.208 . S
C21 O26 1.247 . S
C21 O27 1.208 . S
C22 O14 1.315 . S
C22 O17 1.279 . S
C23 O24 1.315 . S
C23 O25 1.279 . S
O24 Cd16 2.223 . S
O24 C23 1.315 . S
O25 Cd15 2.240 . S
O25 C23 1.279 . S
O26 Cd16 2.297 . S
O26 C21 1.247 . S
O27 Cd16 2.439 . S
O27 C21 1.208 . S
O28 Cd29 2.223 . S
O28 C36 1.315 . S
Cd29 O28 2.223 . S
Cd29 O32 2.297 . S
Cd29 O33 2.439 . S
Cd29 O39 2.240 . S
Cd30 O31 2.240 . S
Cd30 O38 2.223 . S
Cd30 O40 2.297 . S
Cd30 O41 2.439 . S
O31 Cd30 2.240 . S
O31 C36 1.279 . S
O32 Cd29 2.297 . S
O32 C34 1.247 . S
O33 Cd29 2.439 . S
O33 C34 1.208 . S
C34 O32 1.247 . S
C34 O33 1.208 . S
C35 O40 1.247 . S
C35 O41 1.208 . S
C36 O28 1.315 . S
C36 O31 1.279 . S
C37 O38 1.315 . S
C37 O39 1.279 . S
O38 Cd30 2.223 . S
O38 C37 1.315 . S
O39 Cd29 2.240 . S
O39 C37 1.279 . S
O40 Cd30 2.297 . S
O40 C35 1.247 . S
O41 Cd30 2.439 . S
O41 C35 1.208 . S
O42 Cd43 2.223 . S
O42 C50 1.315 . S
Cd43 O42 2.223 . S
Cd43 O46 2.297 . S
Cd43 O47 2.439 . S
Cd43 O53 2.240 . S
Cd44 O45 2.240 . S
Cd44 O52 2.223 . S
Cd44 O54 2.297 . S
Cd44 O55 2.439 . S
O45 Cd44 2.240 . S
O45 C50 1.279 . S
O46 Cd43 2.297 . S
O46 C48 1.247 . S
O47 Cd43 2.439 . S
O47 C48 1.208 . S
C48 O46 1.247 . S
C48 O47 1.208 . S
C49 O54 1.247 . S
C49 O55 1.208 . S
C50 O42 1.315 . S
C50 O45 1.279 . S
C51 O52 1.315 . S
C51 O53 1.279 . S
O52 Cd44 2.223 . S
O52 C51 1.315 . S
O53 Cd43 2.240 . S
O53 C51 1.279 . S
O54 Cd44 2.297 . S
O54 C49 1.247 . S
O55 Cd44 2.439 . S
O55 C49 1.208 . S
O56 Cd57 2.223 . S
O56 C64 1.315 . S
Cd57 O56 2.223 . S
Cd57 O60 2.297 . S
Cd57 O61 2.439 . S
Cd57 O67 2.240 1_655 S
Cd58 O59 2.240 1_455 S
Cd58 O66 2.223 . S
Cd58 O68 2.297 . S
Cd58 O69 2.439 . S
O59 Cd58 2.240 1_655 S
O59 C64 1.279 . S
O60 Cd57 2.297 . S
O60 C62 1.247 . S
O61 Cd57 2.439 . S
O61 C62 1.208 . S
C62 O60 1.247 . S
C62 O61 1.208 . S
C63 O68 1.247 . S
C63 O69 1.208 . S
C64 O56 1.315 . S
C64 O59 1.279 . S
C65 O66 1.315 . S
C65 O67 1.279 . S
O66 Cd58 2.223 . S
O66 C65 1.315 . S
O67 Cd57 2.240 1_455 S
O67 C65 1.279 . S
O68 Cd58 2.297 . S
O68 C63 1.247 . S
O69 Cd58 2.439 . S
O69 C63 1.208 . S
O70 Cd71 2.223 . S
O70 C78 1.315 . S
Cd71 O70 2.223 . S
Cd71 O74 2.297 . S
Cd71 O75 2.439 . S
Cd71 O81 2.240 . S
Cd72 O73 2.240 . S
Cd72 O80 2.223 . S
Cd72 O82 2.297 . S
Cd72 O83 2.439 . S
O73 Cd72 2.240 . S
O73 C78 1.279 . S
O74 Cd71 2.297 . S
O74 C76 1.247 . S
O75 Cd71 2.439 . S
O75 C76 1.208 . S
C76 O74 1.247 . S
C76 O75 1.208 . S
C77 O82 1.247 . S
C77 O83 1.208 . S
C78 O70 1.315 . S
C78 O73 1.279 . S
C79 O80 1.315 . S
C79 O81 1.279 . S
O80 Cd72 2.223 . S
O80 C79 1.315 . S
O81 Cd71 2.240 . S
O81 C79 1.279 . S
O82 Cd72 2.297 . S
O82 C77 1.247 . S
O83 Cd72 2.439 . S
O83 C77 1.208 . S
O84 Cd85 2.223 . S
O84 C92 1.315 . S
Cd85 O84 2.223 . S
Cd85 O88 2.297 . S
Cd85 O89 2.439 . S
Cd85 O95 2.240 . S
Cd86 O87 2.240 . S
Cd86 O94 2.223 . S
Cd86 O96 2.297 . S
Cd86 O97 2.439 . S
O87 Cd86 2.240 . S
O87 C92 1.279 . S
O88 Cd85 2.297 . S
O88 C90 1.247 . S
O89 Cd85 2.439 . S
O89 C90 1.208 . S
C90 O88 1.247 . S
C90 O89 1.208 . S
C91 O96 1.247 . S
C91 O97 1.208 . S
C92 O84 1.315 . S
C92 O87 1.279 . S
C93 O94 1.315 . S
C93 O95 1.279 . S
O94 Cd86 2.223 . S
O94 C93 1.315 . S
O95 Cd85 2.240 . S
O95 C93 1.279 . S
O96 Cd86 2.297 . S
O96 C91 1.247 . S
O97 Cd86 2.439 . S
O97 C91 1.208 . S
O98 Cd99 2.223 . S
O98 C106 1.315 . S
Cd99 O98 2.223 . S
Cd99 O102 2.297 . S
Cd99 O103 2.439 . S
Cd99 O109 2.240 . S
Cd100 O101 2.240 . S
Cd100 O108 2.223 . S
Cd100 O110 2.297 . S
Cd100 O111 2.439 . S
O101 Cd100 2.240 . S
O101 C106 1.279 . S
O102 Cd99 2.297 . S
O102 C104 1.247 . S
O103 Cd99 2.439 . S
O103 C104 1.208 . S
C104 O102 1.247 . S
C104 O103 1.208 . S
C105 O110 1.247 . S
C105 O111 1.208 . S
C106 O98 1.315 . S
C106 O101 1.279 . S
C107 O108 1.315 . S
C107 O109 1.279 . S
O108 Cd100 2.223 . S
O108 C107 1.315 . S
O109 Cd99 2.240 . S
O109 C107 1.279 . S
O110 Cd100 2.297 . S
O110 C105 1.247 . S
O111 Cd100 2.439 . S
O111 C105 1.208 . S
O112 Cd113 2.223 . S
O112 C120 1.315 . S
Cd113 O112 2.223 . S
Cd113 O116 2.297 . S
Cd113 O117 2.439 . S
Cd113 O123 2.240 1_565 S
Cd114 O115 2.240 1_545 S
Cd114 O122 2.223 . S
Cd114 O124 2.297 . S
Cd114 O125 2.439 . S
O115 Cd114 2.240 1_565 S
O115 C120 1.279 . S
O116 Cd113 2.297 . S
O116 C118 1.247 . S
O117 Cd113 2.439 . S
O117 C118 1.208 . S
C118 O116 1.247 . S
C118 O117 1.208 . S
C119 O124 1.247 . S
C119 O125 1.208 . S
C120 O112 1.315 . S
C120 O115 1.279 . S
C121 O122 1.315 . S
C121 O123 1.279 . S
O122 Cd114 2.223 . S
O122 C121 1.315 . S
O123 Cd113 2.240 1_545 S
O123 C121 1.279 . S
O124 Cd114 2.297 . S
O124 C119 1.247 . S
O125 Cd114 2.439 . S
O125 C119 1.208 . S
O126 Cd127 2.223 . S
O126 C134 1.315 . S
Cd127 O126 2.223 . S
Cd127 O130 2.297 . S
Cd127 O131 2.439 . S
Cd127 O137 2.240 . S
Cd128 O129 2.240 . S
Cd128 O136 2.223 . S
Cd128 O138 2.297 . S
Cd128 O139 2.439 . S
O129 Cd128 2.240 . S
O129 C134 1.279 . S
O130 Cd127 2.297 . S
O130 C132 1.247 . S
O131 Cd127 2.439 . S
O131 C132 1.208 . S
C132 O130 1.247 . S
C132 O131 1.208 . S
C133 O138 1.247 . S
C133 O139 1.208 . S
C134 O126 1.315 . S
C134 O129 1.279 . S
C135 O136 1.315 . S
C135 O137 1.279 . S
O136 Cd128 2.223 . S
O136 C135 1.315 . S
O137 Cd127 2.240 . S
O137 C135 1.279 . S
O138 Cd128 2.297 . S
O138 C133 1.247 . S
O139 Cd128 2.439 . S
O139 C133 1.208 . S
O140 Cd141 2.223 . S
O140 C148 1.315 . S
Cd141 O140 2.223 . S
Cd141 O144 2.297 . S
Cd141 O145 2.439 . S
Cd141 O151 2.240 1_545 S
Cd142 O143 2.240 1_565 S
Cd142 O150 2.223 . S
Cd142 O152 2.297 . S
Cd142 O153 2.439 . S
O143 Cd142 2.240 1_545 S
O143 C148 1.279 . S
O144 Cd141 2.297 . S
O144 C146 1.247 . S
O145 Cd141 2.439 . S
O145 C146 1.208 . S
C146 O144 1.247 . S
C146 O145 1.208 . S
C147 O152 1.247 . S
C147 O153 1.208 . S
C148 O140 1.315 . S
C148 O143 1.279 . S
C149 O150 1.315 . S
C149 O151 1.279 . S
O150 Cd142 2.223 . S
O150 C149 1.315 . S
O151 Cd141 2.240 1_565 S
O151 C149 1.279 . S
O152 Cd142 2.297 . S
O152 C147 1.247 . S
O153 Cd142 2.439 . S
O153 C147 1.208 . S
O154 Cd155 2.223 . S
O154 C162 1.315 . S
Cd155 O154 2.223 . S
Cd155 O158 2.297 . S
Cd155 O159 2.439 . S
Cd155 O165 2.240 . S
Cd156 O157 2.240 . S
Cd156 O164 2.223 . S
Cd156 O166 2.297 . S
Cd156 O167 2.439 . S
O157 Cd156 2.240 . S
O157 C162 1.279 . S
O158 Cd155 2.297 . S
O158 C160 1.247 . S
O159 Cd155 2.439 . S
O159 C160 1.208 . S
C160 O158 1.247 . S
C160 O159 1.208 . S
C161 O166 1.247 . S
C161 O167 1.208 . S
C162 O154 1.315 . S
C162 O157 1.279 . S
C163 O164 1.315 . S
C163 O165 1.279 . S
O164 Cd156 2.223 . S
O164 C163 1.315 . S
O165 Cd155 2.240 . S
O165 C163 1.279 . S
O166 Cd156 2.297 . S
O166 C161 1.247 . S
O167 Cd156 2.439 . S
O167 C161 1.208 . S
O168 Cd169 2.223 . S
O168 C176 1.315 . S
Cd169 O168 2.223 . S
Cd169 O172 2.297 . S
Cd169 O173 2.439 . S
Cd169 O179 2.240 1_545 S
Cd170 O171 2.240 1_565 S
Cd170 O178 2.223 . S
Cd170 O180 2.297 . S
Cd170 O181 2.439 . S
O171 Cd170 2.240 1_545 S
O171 C176 1.279 . S
O172 Cd169 2.297 . S
O172 C174 1.247 . S
O173 Cd169 2.439 . S
O173 C174 1.208 . S
C174 O172 1.247 . S
C174 O173 1.208 . S
C175 O180 1.247 . S
C175 O181 1.208 . S
C176 O168 1.315 . S
C176 O171 1.279 . S
C177 O178 1.315 . S
C177 O179 1.279 . S
O178 Cd170 2.223 . S
O178 C177 1.315 . S
O179 Cd169 2.240 1_565 S
O179 C177 1.279 . S
O180 Cd170 2.297 . S
O180 C175 1.247 . S
O181 Cd170 2.439 . S
O181 C175 1.208 . S
O182 Cd183 2.223 . S
O182 C190 1.315 . S
Cd183 O182 2.223 . S
Cd183 O186 2.297 . S
Cd183 O187 2.439 . S
Cd183 O193 2.240 . S
Cd184 O185 2.240 . S
Cd184 O192 2.223 . S
Cd184 O194 2.297 . S
Cd184 O195 2.439 . S
O185 Cd184 2.240 . S
O185 C190 1.279 . S
O186 Cd183 2.297 . S
O186 C188 1.247 . S
O187 Cd183 2.439 . S
O187 C188 1.208 . S
C188 O186 1.247 . S
C188 O187 1.208 . S
C189 O194 1.247 . S
C189 O195 1.208 . S
C190 O182 1.315 . S
C190 O185 1.279 . S
C191 O192 1.315 . S
C191 O193 1.279 . S
O192 Cd184 2.223 . S
O192 C191 1.315 . S
O193 Cd183 2.240 . S
O193 C191 1.279 . S
O194 Cd184 2.297 . S
O194 C189 1.247 . S
O195 Cd184 2.439 . S
O195 C189 1.208 . S
O196 Cd197 2.223 . S
O196 C204 1.315 . S
Cd197 O196 2.223 . S
Cd197 O200 2.297 . S
Cd197 O201 2.439 . S
Cd197 O207 2.240 1_565 S
Cd198 O199 2.240 1_545 S
Cd198 O206 2.223 . S
Cd198 O208 2.297 . S
Cd198 O209 2.439 . S
O199 Cd198 2.240 1_565 S
O199 C204 1.279 . S
O200 Cd197 2.297 . S
O200 C202 1.247 . S
O201 Cd197 2.439 . S
O201 C202 1.208 . S
C202 O200 1.247 . S
C202 O201 1.208 . S
C203 O208 1.247 . S
C203 O209 1.208 . S
C204 O196 1.315 . S
C204 O199 1.279 . S
C205 O206 1.315 . S
C205 O207 1.279 . S
O206 Cd198 2.223 . S
O206 C205 1.315 . S
O207 Cd197 2.240 1_545 S
O207 C205 1.279 . S
O208 Cd198 2.297 . S
O208 C203 1.247 . S
O209 Cd198 2.439 . S
O209 C203 1.208 . S
O210 Cd211 2.223 . S
O210 C218 1.315 . S
Cd211 O210 2.223 . S
Cd211 O214 2.297 . S
Cd211 O215 2.439 . S
Cd211 O221 2.240 . S
Cd212 O213 2.240 . S
Cd212 O220 2.223 . S
Cd212 O222 2.297 . S
Cd212 O223 2.439 . S
O213 Cd212 2.240 . S
O213 C218 1.279 . S
O214 Cd211 2.297 . S
O214 C216 1.247 . S
O215 Cd211 2.439 . S
O215 C216 1.208 . S
C216 O214 1.247 . S
C216 O215 1.208 . S
C217 O222 1.247 . S
C217 O223 1.208 . S
C218 O210 1.315 . S
C218 O213 1.279 . S
C219 O220 1.315 . S
C219 O221 1.279 . S
O220 Cd212 2.223 . S
O220 C219 1.315 . S
O221 Cd211 2.240 . S
O221 C219 1.279 . S
O222 Cd212 2.297 . S
O222 C217 1.247 . S
O223 Cd212 2.439 . S
O223 C217 1.208 . S
O224 Cd225 2.223 . S
O224 C232 1.315 . S
Cd225 O224 2.223 . S
Cd225 O228 2.297 . S
Cd225 O229 2.439 . S
Cd225 O235 2.240 1_556 S
Cd226 O227 2.240 1_554 S
Cd226 O234 2.223 . S
Cd226 O236 2.297 . S
Cd226 O237 2.439 . S
O227 Cd226 2.240 1_556 S
O227 C232 1.279 . S
O228 Cd225 2.297 . S
O228 C230 1.247 . S
O229 Cd225 2.439 . S
O229 C230 1.208 . S
C230 O228 1.247 . S
C230 O229 1.208 . S
C231 O236 1.247 . S
C231 O237 1.208 . S
C232 O224 1.315 . S
C232 O227 1.279 . S
C233 O234 1.315 . S
C233 O235 1.279 . S
O234 Cd226 2.223 . S
O234 C233 1.315 . S
O235 Cd225 2.240 1_554 S
O235 C233 1.279 . S
O236 Cd226 2.297 . S
O236 C231 1.247 . S
O237 Cd226 2.439 . S
O237 C231 1.208 . S
O238 Cd239 2.223 . S
O238 C246 1.315 . S
Cd239 O238 2.223 . S
Cd239 O242 2.297 . S
Cd239 O243 2.439 . S
Cd239 O249 2.240 1_554 S
Cd240 O241 2.240 1_556 S
Cd240 O248 2.223 . S
Cd240 O250 2.297 . S
Cd240 O251 2.439 . S
O241 Cd240 2.240 1_554 S
O241 C246 1.279 . S
O242 Cd239 2.297 . S
O242 C244 1.247 . S
O243 Cd239 2.439 . S
O243 C244 1.208 . S
C244 O242 1.247 . S
C244 O243 1.208 . S
C245 O250 1.247 . S
C245 O251 1.208 . S
C246 O238 1.315 . S
C246 O241 1.279 . S
C247 O248 1.315 . S
C247 O249 1.279 . S
O248 Cd240 2.223 . S
O248 C247 1.315 . S
O249 Cd239 2.240 1_556 S
O249 C247 1.279 . S
O250 Cd240 2.297 . S
O250 C245 1.247 . S
O251 Cd240 2.439 . S
O251 C245 1.208 . S
O252 Cd253 2.223 . S
O252 C260 1.315 . S
Cd253 O252 2.223 . S
Cd253 O256 2.297 . S
Cd253 O257 2.439 . S
Cd253 O263 2.240 . S
Cd254 O255 2.240 . S
Cd254 O262 2.223 . S
Cd254 O264 2.297 . S
Cd254 O265 2.439 . S
O255 Cd254 2.240 . S
O255 C260 1.279 . S
O256 Cd253 2.297 . S
O256 C258 1.247 . S
O257 Cd253 2.439 . S
O257 C258 1.208 . S
C258 O256 1.247 . S
C258 O257 1.208 . S
C259 O264 1.247 . S
C259 O265 1.208 . S
C260 O252 1.315 . S
C260 O255 1.279 . S
C261 O262 1.315 . S
C261 O263 1.279 . S
O262 Cd254 2.223 . S
O262 C261 1.315 . S
O263 Cd253 2.240 . S
O263 C261 1.279 . S
O264 Cd254 2.297 . S
O264 C259 1.247 . S
O265 Cd254 2.439 . S
O265 C259 1.208 . S
O266 Cd267 2.223 . S
O266 C274 1.315 . S
Cd267 O266 2.223 . S
Cd267 O270 2.297 . S
Cd267 O271 2.439 . S
Cd267 O277 2.240 . S
Cd268 O269 2.240 . S
Cd268 O276 2.223 . S
Cd268 O278 2.297 . S
Cd268 O279 2.439 . S
O269 Cd268 2.240 . S
O269 C274 1.279 . S
O270 Cd267 2.297 . S
O270 C272 1.247 . S
O271 Cd267 2.439 . S
O271 C272 1.208 . S
C272 O270 1.247 . S
C272 O271 1.208 . S
C273 O278 1.247 . S
C273 O279 1.208 . S
C274 O266 1.315 . S
C274 O269 1.279 . S
C275 O276 1.315 . S
C275 O277 1.279 . S
O276 Cd268 2.223 . S
O276 C275 1.315 . S
O277 Cd267 2.240 . S
O277 C275 1.279 . S
O278 Cd268 2.297 . S
O278 C273 1.247 . S
O279 Cd268 2.439 . S
O279 C273 1.208 . S
O280 Cd281 2.223 . S
O280 C288 1.315 . S
Cd281 O280 2.223 . S
Cd281 O284 2.297 . S
Cd281 O285 2.439 . S
Cd281 O291 2.240 . S
Cd282 O283 2.240 . S
Cd282 O290 2.223 . S
Cd282 O292 2.297 . S
Cd282 O293 2.439 . S
O283 Cd282 2.240 . S
O283 C288 1.279 . S
O284 Cd281 2.297 . S
O284 C286 1.247 . S
O285 Cd281 2.439 . S
O285 C286 1.208 . S
C286 O284 1.247 . S
C286 O285 1.208 . S
C287 O292 1.247 . S
C287 O293 1.208 . S
C288 O280 1.315 . S
C288 O283 1.279 . S
C289 O290 1.315 . S
C289 O291 1.279 . S
O290 Cd282 2.223 . S
O290 C289 1.315 . S
O291 Cd281 2.240 . S
O291 C289 1.279 . S
O292 Cd282 2.297 . S
O292 C287 1.247 . S
O293 Cd282 2.439 . S
O293 C287 1.208 . S
O294 Cd295 2.223 . S
O294 C302 1.315 . S
Cd295 O294 2.223 . S
Cd295 O298 2.297 . S
Cd295 O299 2.439 . S
Cd295 O305 2.240 . S
Cd296 O297 2.240 . S
Cd296 O304 2.223 . S
Cd296 O306 2.297 . S
Cd296 O307 2.439 . S
O297 Cd296 2.240 . S
O297 C302 1.279 . S
O298 Cd295 2.297 . S
O298 C300 1.247 . S
O299 Cd295 2.439 . S
O299 C300 1.208 . S
C300 O298 1.247 . S
C300 O299 1.208 . S
C301 O306 1.247 . S
C301 O307 1.208 . S
C302 O294 1.315 . S
C302 O297 1.279 . S
C303 O304 1.315 . S
C303 O305 1.279 . S
O304 Cd296 2.223 . S
O304 C303 1.315 . S
O305 Cd295 2.240 . S
O305 C303 1.279 . S
O306 Cd296 2.297 . S
O306 C301 1.247 . S
O307 Cd296 2.439 . S
O307 C301 1.208 . S
O308 Cd309 2.223 . S
O308 C316 1.315 . S
Cd309 O308 2.223 . S
Cd309 O312 2.297 . S
Cd309 O313 2.439 . S
Cd309 O319 2.240 . S
Cd310 O311 2.240 . S
Cd310 O318 2.223 . S
Cd310 O320 2.297 . S
Cd310 O321 2.439 . S
O311 Cd310 2.240 . S
O311 C316 1.279 . S
O312 Cd309 2.297 . S
O312 C314 1.247 . S
O313 Cd309 2.439 . S
O313 C314 1.208 . S
C314 O312 1.247 . S
C314 O313 1.208 . S
C315 O320 1.247 . S
C315 O321 1.208 . S
C316 O308 1.315 . S
C316 O311 1.279 . S
C317 O318 1.315 . S
C317 O319 1.279 . S
O318 Cd310 2.223 . S
O318 C317 1.315 . S
O319 Cd309 2.240 . S
O319 C317 1.279 . S
O320 Cd310 2.297 . S
O320 C315 1.247 . S
O321 Cd310 2.439 . S
O321 C315 1.208 . S
O322 Cd323 2.223 . S
O322 C330 1.315 . S
Cd323 O322 2.223 . S
Cd323 O326 2.297 . S
Cd323 O327 2.439 . S
Cd323 O333 2.240 . S
Cd324 O325 2.240 . S
Cd324 O332 2.223 . S
Cd324 O334 2.297 . S
Cd324 O335 2.439 . S
O325 Cd324 2.240 . S
O325 C330 1.279 . S
O326 Cd323 2.297 . S
O326 C328 1.247 . S
O327 Cd323 2.439 . S
O327 C328 1.208 . S
C328 O326 1.247 . S
C328 O327 1.208 . S
C329 O334 1.247 . S
C329 O335 1.208 . S
C330 O322 1.315 . S
C330 O325 1.279 . S
C331 O332 1.315 . S
C331 O333 1.279 . S
O332 Cd324 2.223 . S
O332 C331 1.315 . S
O333 Cd323 2.240 . S
O333 C331 1.279 . S
O334 Cd324 2.297 . S
O334 C329 1.247 . S
O335 Cd324 2.439 . S
O335 C329 1.208 . S
O336 Cd337 2.223 . S
O336 C344 1.315 . S
Cd337 O336 2.223 . S
Cd337 O340 2.297 . S
Cd337 O341 2.439 . S
Cd337 O347 2.240 1_455 S
Cd338 O339 2.240 1_655 S
Cd338 O346 2.223 . S
Cd338 O348 2.297 . S
Cd338 O349 2.439 . S
O339 Cd338 2.240 1_455 S
O339 C344 1.279 . S
O340 Cd337 2.297 . S
O340 C342 1.247 . S
O341 Cd337 2.439 . S
O341 C342 1.208 . S
C342 O340 1.247 . S
C342 O341 1.208 . S
C343 O348 1.247 . S
C343 O349 1.208 . S
C344 O336 1.315 . S
C344 O339 1.279 . S
C345 O346 1.315 . S
C345 O347 1.279 . S
O346 Cd338 2.223 . S
O346 C345 1.315 . S
O347 Cd337 2.240 1_655 S
O347 C345 1.279 . S
O348 Cd338 2.297 . S
O348 C343 1.247 . S
O349 Cd338 2.439 . S
O349 C343 1.208 . S
O350 Cd351 2.223 . S
O350 C358 1.315 . S
Cd351 O350 2.223 . S
Cd351 O354 2.297 . S
Cd351 O355 2.439 . S
Cd351 O361 2.240 . S
Cd352 O353 2.240 . S
Cd352 O360 2.223 . S
Cd352 O362 2.297 . S
Cd352 O363 2.439 . S
O353 Cd352 2.240 . S
O353 C358 1.279 . S
O354 Cd351 2.297 . S
O354 C356 1.247 . S
O355 Cd351 2.439 . S
O355 C356 1.208 . S
C356 O354 1.247 . S
C356 O355 1.208 . S
C357 O362 1.247 . S
C357 O363 1.208 . S
C358 O350 1.315 . S
C358 O353 1.279 . S
C359 O360 1.315 . S
C359 O361 1.279 . S
O360 Cd352 2.223 . S
O360 C359 1.315 . S
O361 Cd351 2.240 . S
O361 C359 1.279 . S
O362 Cd352 2.297 . S
O362 C357 1.247 . S
O363 Cd352 2.439 . S
O363 C357 1.208 . S
O364 Cd365 2.223 . S
O364 C372 1.315 . S
Cd365 O364 2.223 . S
Cd365 O368 2.297 . S
Cd365 O369 2.439 . S
Cd365 O375 2.240 . S
Cd366 O367 2.240 . S
Cd366 O374 2.223 . S
Cd366 O376 2.297 . S
Cd366 O377 2.439 . S
O367 Cd366 2.240 . S
O367 C372 1.279 . S
O368 Cd365 2.297 . S
O368 C370 1.247 . S
O369 Cd365 2.439 . S
O369 C370 1.208 . S
C370 O368 1.247 . S
C370 O369 1.208 . S
C371 O376 1.247 . S
C371 O377 1.208 . S
C372 O364 1.315 . S
C372 O367 1.279 . S
C373 O374 1.315 . S
C373 O375 1.279 . S
O374 Cd366 2.223 . S
O374 C373 1.315 . S
O375 Cd365 2.240 . S
O375 C373 1.279 . S
O376 Cd366 2.297 . S
O376 C371 1.247 . S
O377 Cd366 2.439 . S
O377 C371 1.208 . S
O378 Cd379 2.223 . S
O378 C386 1.315 . S
Cd379 O378 2.223 . S
Cd379 O382 2.297 . S
Cd379 O383 2.439 . S
Cd379 O389 2.240 . S
Cd380 O381 2.240 . S
Cd380 O388 2.223 . S
Cd380 O390 2.297 . S
Cd380 O391 2.439 . S
O381 Cd380 2.240 . S
O381 C386 1.279 . S
O382 Cd379 2.297 . S
O382 C384 1.247 . S
O383 Cd379 2.439 . S
O383 C384 1.208 . S
C384 O382 1.247 . S
C384 O383 1.208 . S
C385 O390 1.247 . S
C385 O391 1.208 . S
C386 O378 1.315 . S
C386 O381 1.279 . S
C387 O388 1.315 . S
C387 O389 1.279 . S
O388 Cd380 2.223 . S
O388 C387 1.315 . S
O389 Cd379 2.240 . S
O389 C387 1.279 . S
O390 Cd380 2.297 . S
O390 C385 1.247 . S
O391 Cd380 2.439 . S
O391 C385 1.208 . S
O392 Cd393 2.223 . S
O392 C400 1.315 . S
Cd393 O392 2.223 . S
Cd393 O396 2.297 . S
Cd393 O397 2.439 . S
Cd393 O403 2.240 1_455 S
Cd394 O395 2.240 1_655 S
Cd394 O402 2.223 . S
Cd394 O404 2.297 . S
Cd394 O405 2.439 . S
O395 Cd394 2.240 1_455 S
O395 C400 1.279 . S
O396 Cd393 2.297 . S
O396 C398 1.247 . S
O397 Cd393 2.439 . S
O397 C398 1.208 . S
C398 O396 1.247 . S
C398 O397 1.208 . S
C399 O404 1.247 . S
C399 O405 1.208 . S
C400 O392 1.315 . S
C400 O395 1.279 . S
C401 O402 1.315 . S
C401 O403 1.279 . S
O402 Cd394 2.223 . S
O402 C401 1.315 . S
O403 Cd393 2.240 1_655 S
O403 C401 1.279 . S
O404 Cd394 2.297 . S
O404 C399 1.247 . S
O405 Cd394 2.439 . S
O405 C399 1.208 . S
O406 Cd407 2.223 . S
O406 C414 1.315 . S
Cd407 O406 2.223 . S
Cd407 O410 2.297 . S
Cd407 O411 2.439 . S
Cd407 O417 2.240 . S
Cd408 O409 2.240 . S
Cd408 O416 2.223 . S
Cd408 O418 2.297 . S
Cd408 O419 2.439 . S
O409 Cd408 2.240 . S
O409 C414 1.279 . S
O410 Cd407 2.297 . S
O410 C412 1.247 . S
O411 Cd407 2.439 . S
O411 C412 1.208 . S
C412 O410 1.247 . S
C412 O411 1.208 . S
C413 O418 1.247 . S
C413 O419 1.208 . S
C414 O406 1.315 . S
C414 O409 1.279 . S
C415 O416 1.315 . S
C415 O417 1.279 . S
O416 Cd408 2.223 . S
O416 C415 1.315 . S
O417 Cd407 2.240 . S
O417 C415 1.279 . S
O418 Cd408 2.297 . S
O418 C413 1.247 . S
O419 Cd408 2.439 . S
O419 C413 1.208 . S
O420 Cd421 2.223 . S
O420 C428 1.315 . S
Cd421 O420 2.223 . S
Cd421 O424 2.297 . S
Cd421 O425 2.439 . S
Cd421 O431 2.240 . S
Cd422 O423 2.240 . S
Cd422 O430 2.223 . S
Cd422 O432 2.297 . S
Cd422 O433 2.439 . S
O423 Cd422 2.240 . S
O423 C428 1.279 . S
O424 Cd421 2.297 . S
O424 C426 1.247 . S
O425 Cd421 2.439 . S
O425 C426 1.208 . S
C426 O424 1.247 . S
C426 O425 1.208 . S
C427 O432 1.247 . S
C427 O433 1.208 . S
C428 O420 1.315 . S
C428 O423 1.279 . S
C429 O430 1.315 . S
C429 O431 1.279 . S
O430 Cd422 2.223 . S
O430 C429 1.315 . S
O431 Cd421 2.240 . S
O431 C429 1.279 . S
O432 Cd422 2.297 . S
O432 C427 1.247 . S
O433 Cd422 2.439 . S
O433 C427 1.208 . S
O434 Cd435 2.223 . S
O434 C442 1.315 . S
Cd435 O434 2.223 . S
Cd435 O438 2.297 . S
Cd435 O439 2.439 . S
Cd435 O445 2.240 . S
Cd436 O437 2.240 . S
Cd436 O444 2.223 . S
Cd436 O446 2.297 . S
Cd436 O447 2.439 . S
O437 Cd436 2.240 . S
O437 C442 1.279 . S
O438 Cd435 2.297 . S
O438 C440 1.247 . S
O439 Cd435 2.439 . S
O439 C440 1.208 . S
C440 O438 1.247 . S
C440 O439 1.208 . S
C441 O446 1.247 . S
C441 O447 1.208 . S
C442 O434 1.315 . S
C442 O437 1.279 . S
C443 O444 1.315 . S
C443 O445 1.279 . S
O444 Cd436 2.223 . S
O444 C443 1.315 . S
O445 Cd435 2.240 . S
O445 C443 1.279 . S
O446 Cd436 2.297 . S
O446 C441 1.247 . S
O447 Cd436 2.439 . S
O447 C441 1.208 . S
O448 Cd449 2.223 . S
O448 C456 1.315 . S
Cd449 O448 2.223 . S
Cd449 O452 2.297 . S
Cd449 O453 2.439 . S
Cd449 O459 2.240 1_545 S
Cd450 O451 2.240 1_565 S
Cd450 O458 2.223 . S
Cd450 O460 2.297 . S
Cd450 O461 2.439 . S
O451 Cd450 2.240 1_545 S
O451 C456 1.279 . S
O452 Cd449 2.297 . S
O452 C454 1.247 . S
O453 Cd449 2.439 . S
O453 C454 1.208 . S
C454 O452 1.247 . S
C454 O453 1.208 . S
C455 O460 1.247 . S
C455 O461 1.208 . S
C456 O448 1.315 . S
C456 O451 1.279 . S
C457 O458 1.315 . S
C457 O459 1.279 . S
O458 Cd450 2.223 . S
O458 C457 1.315 . S
O459 Cd449 2.240 1_565 S
O459 C457 1.279 . S
O460 Cd450 2.297 . S
O460 C455 1.247 . S
O461 Cd450 2.439 . S
O461 C455 1.208 . S
O462 Cd463 2.223 . S
O462 C470 1.315 . S
Cd463 O462 2.223 . S
Cd463 O466 2.297 . S
Cd463 O467 2.439 . S
Cd463 O473 2.240 . S
Cd464 O465 2.240 . S
Cd464 O472 2.223 . S
Cd464 O474 2.297 . S
Cd464 O475 2.439 . S
O465 Cd464 2.240 . S
O465 C470 1.279 . S
O466 Cd463 2.297 . S
O466 C468 1.247 . S
O467 Cd463 2.439 . S
O467 C468 1.208 . S
C468 O466 1.247 . S
C468 O467 1.208 . S
C469 O474 1.247 . S
C469 O475 1.208 . S
C470 O462 1.315 . S
C470 O465 1.279 . S
C471 O472 1.315 . S
C471 O473 1.279 . S
O472 Cd464 2.223 . S
O472 C471 1.315 . S
O473 Cd463 2.240 . S
O473 C471 1.279 . S
O474 Cd464 2.297 . S
O474 C469 1.247 . S
O475 Cd464 2.439 . S
O475 C469 1.208 . S
O476 Cd477 2.223 . S
O476 C484 1.315 . S
Cd477 O476 2.223 . S
Cd477 O480 2.297 . S
Cd477 O481 2.439 . S
Cd477 O487 2.240 1_565 S
Cd478 O479 2.240 1_545 S
Cd478 O486 2.223 . S
Cd478 O488 2.297 . S
Cd478 O489 2.439 . S
O479 Cd478 2.240 1_565 S
O479 C484 1.279 . S
O480 Cd477 2.297 . S
O480 C482 1.247 . S
O481 Cd477 2.439 . S
O481 C482 1.208 . S
C482 O480 1.247 . S
C482 O481 1.208 . S
C483 O488 1.247 . S
C483 O489 1.208 . S
C484 O476 1.315 . S
C484 O479 1.279 . S
C485 O486 1.315 . S
C485 O487 1.279 . S
O486 Cd478 2.223 . S
O486 C485 1.315 . S
O487 Cd477 2.240 1_545 S
O487 C485 1.279 . S
O488 Cd478 2.297 . S
O488 C483 1.247 . S
O489 Cd478 2.439 . S
O489 C483 1.208 . S
O490 Cd491 2.223 . S
O490 C498 1.315 . S
Cd491 O490 2.223 . S
Cd491 O494 2.297 . S
Cd491 O495 2.439 . S
Cd491 O501 2.240 . S
Cd492 O493 2.240 . S
Cd492 O500 2.223 . S
Cd492 O502 2.297 . S
Cd492 O503 2.439 . S
O493 Cd492 2.240 . S
O493 C498 1.279 . S
O494 Cd491 2.297 . S
O494 C496 1.247 . S
O495 Cd491 2.439 . S
O495 C496 1.208 . S
C496 O494 1.247 . S
C496 O495 1.208 . S
C497 O502 1.247 . S
C497 O503 1.208 . S
C498 O490 1.315 . S
C498 O493 1.279 . S
C499 O500 1.315 . S
C499 O501 1.279 . S
O500 Cd492 2.223 . S
O500 C499 1.315 . S
O501 Cd491 2.240 . S
O501 C499 1.279 . S
O502 Cd492 2.297 . S
O502 C497 1.247 . S
O503 Cd492 2.439 . S
O503 C497 1.208 . S
O504 Cd505 2.223 . S
O504 C512 1.315 . S
Cd505 O504 2.223 . S
Cd505 O508 2.297 . S
Cd505 O509 2.439 . S
Cd505 O515 2.240 1_565 S
Cd506 O507 2.240 1_545 S
Cd506 O514 2.223 . S
Cd506 O516 2.297 . S
Cd506 O517 2.439 . S
O507 Cd506 2.240 1_565 S
O507 C512 1.279 . S
O508 Cd505 2.297 . S
O508 C510 1.247 . S
O509 Cd505 2.439 . S
O509 C510 1.208 . S
C510 O508 1.247 . S
C510 O509 1.208 . S
C511 O516 1.247 . S
C511 O517 1.208 . S
C512 O504 1.315 . S
C512 O507 1.279 . S
C513 O514 1.315 . S
C513 O515 1.279 . S
O514 Cd506 2.223 . S
O514 C513 1.315 . S
O515 Cd505 2.240 1_545 S
O515 C513 1.279 . S
O516 Cd506 2.297 . S
O516 C511 1.247 . S
O517 Cd506 2.439 . S
O517 C511 1.208 . S
O518 Cd519 2.223 . S
O518 C526 1.315 . S
Cd519 O518 2.223 . S
Cd519 O522 2.297 . S
Cd519 O523 2.439 . S
Cd519 O529 2.240 . S
Cd520 O521 2.240 . S
Cd520 O528 2.223 . S
Cd520 O530 2.297 . S
Cd520 O531 2.439 . S
O521 Cd520 2.240 . S
O521 C526 1.279 . S
O522 Cd519 2.297 . S
O522 C524 1.247 . S
O523 Cd519 2.439 . S
O523 C524 1.208 . S
C524 O522 1.247 . S
C524 O523 1.208 . S
C525 O530 1.247 . S
C525 O531 1.208 . S
C526 O518 1.315 . S
C526 O521 1.279 . S
C527 O528 1.315 . S
C527 O529 1.279 . S
O528 Cd520 2.223 . S
O528 C527 1.315 . S
O529 Cd519 2.240 . S
O529 C527 1.279 . S
O530 Cd520 2.297 . S
O530 C525 1.247 . S
O531 Cd520 2.439 . S
O531 C525 1.208 . S
O532 Cd533 2.223 . S
O532 C540 1.315 . S
Cd533 O532 2.223 . S
Cd533 O536 2.297 . S
Cd533 O537 2.439 . S
Cd533 O543 2.240 1_545 S
Cd534 O535 2.240 1_565 S
Cd534 O542 2.223 . S
Cd534 O544 2.297 . S
Cd534 O545 2.439 . S
O535 Cd534 2.240 1_545 S
O535 C540 1.279 . S
O536 Cd533 2.297 . S
O536 C538 1.247 . S
O537 Cd533 2.439 . S
O537 C538 1.208 . S
C538 O536 1.247 . S
C538 O537 1.208 . S
C539 O544 1.247 . S
C539 O545 1.208 . S
C540 O532 1.315 . S
C540 O535 1.279 . S
C541 O542 1.315 . S
C541 O543 1.279 . S
O542 Cd534 2.223 . S
O542 C541 1.315 . S
O543 Cd533 2.240 1_565 S
O543 C541 1.279 . S
O544 Cd534 2.297 . S
O544 C539 1.247 . S
O545 Cd534 2.439 . S
O545 C539 1.208 . S
O546 Cd547 2.223 . S
O546 C554 1.315 . S
Cd547 O546 2.223 . S
Cd547 O550 2.297 . S
Cd547 O551 2.439 . S
Cd547 O557 2.240 . S
Cd548 O549 2.240 . S
Cd548 O556 2.223 . S
Cd548 O558 2.297 . S
Cd548 O559 2.439 . S
O549 Cd548 2.240 . S
O549 C554 1.279 . S
O550 Cd547 2.297 . S
O550 C552 1.247 . S
O551 Cd547 2.439 . S
O551 C552 1.208 . S
C552 O550 1.247 . S
C552 O551 1.208 . S
C553 O558 1.247 . S
C553 O559 1.208 . S
C554 O546 1.315 . S
C554 O549 1.279 . S
C555 O556 1.315 . S
C555 O557 1.279 . S
O556 Cd548 2.223 . S
O556 C555 1.315 . S
O557 Cd547 2.240 . S
O557 C555 1.279 . S
O558 Cd548 2.297 . S
O558 C553 1.247 . S
O559 Cd548 2.439 . S
O559 C553 1.208 . S
O560 Cd561 2.223 . S
O560 C568 1.315 . S
Cd561 O560 2.223 . S
Cd561 O564 2.297 . S
Cd561 O565 2.439 . S
Cd561 O571 2.240 1_554 S
Cd562 O563 2.240 1_556 S
Cd562 O570 2.223 . S
Cd562 O572 2.297 . S
Cd562 O573 2.439 . S
O563 Cd562 2.240 1_554 S
O563 C568 1.279 . S
O564 Cd561 2.297 . S
O564 C566 1.247 . S
O565 Cd561 2.439 . S
O565 C566 1.208 . S
C566 O564 1.247 . S
C566 O565 1.208 . S
C567 O572 1.247 . S
C567 O573 1.208 . S
C568 O560 1.315 . S
C568 O563 1.279 . S
C569 O570 1.315 . S
C569 O571 1.279 . S
O570 Cd562 2.223 . S
O570 C569 1.315 . S
O571 Cd561 2.240 1_556 S
O571 C569 1.279 . S
O572 Cd562 2.297 . S
O572 C567 1.247 . S
O573 Cd562 2.439 . S
O573 C567 1.208 . S
O574 Cd575 2.223 . S
O574 C582 1.315 . S
Cd575 O574 2.223 . S
Cd575 O578 2.297 . S
Cd575 O579 2.439 . S
Cd575 O585 2.240 1_556 S
Cd576 O577 2.240 1_554 S
Cd576 O584 2.223 . S
Cd576 O586 2.297 . S
Cd576 O587 2.439 . S
O577 Cd576 2.240 1_556 S
O577 C582 1.279 . S
O578 Cd575 2.297 . S
O578 C580 1.247 . S
O579 Cd575 2.439 . S
O579 C580 1.208 . S
C580 O578 1.247 . S
C580 O579 1.208 . S
C581 O586 1.247 . S
C581 O587 1.208 . S
C582 O574 1.315 . S
C582 O577 1.279 . S
C583 O584 1.315 . S
C583 O585 1.279 . S
O584 Cd576 2.223 . S
O584 C583 1.315 . S
O585 Cd575 2.240 1_554 S
O585 C583 1.279 . S
O586 Cd576 2.297 . S
O586 C581 1.247 . S
O587 Cd576 2.439 . S
O587 C581 1.208 . S
O588 Cd589 2.223 . S
O588 C596 1.315 . S
Cd589 O588 2.223 . S
Cd589 O592 2.297 . S
Cd589 O593 2.439 . S
Cd589 O599 2.240 . S
Cd590 O591 2.240 . S
Cd590 O598 2.223 . S
Cd590 O600 2.297 . S
Cd590 O601 2.439 . S
O591 Cd590 2.240 . S
O591 C596 1.279 . S
O592 Cd589 2.297 . S
O592 C594 1.247 . S
O593 Cd589 2.439 . S
O593 C594 1.208 . S
C594 O592 1.247 . S
C594 O593 1.208 . S
C595 O600 1.247 . S
C595 O601 1.208 . S
C596 O588 1.315 . S
C596 O591 1.279 . S
C597 O598 1.315 . S
C597 O599 1.279 . S
O598 Cd590 2.223 . S
O598 C597 1.315 . S
O599 Cd589 2.240 . S
O599 C597 1.279 . S
O600 Cd590 2.297 . S
O600 C595 1.247 . S
O601 Cd590 2.439 . S
O601 C595 1.208 . S
O602 Cd603 2.223 . S
O602 C610 1.315 . S
Cd603 O602 2.223 . S
Cd603 O606 2.297 . S
Cd603 O607 2.439 . S
Cd603 O613 2.240 . S
Cd604 O605 2.240 . S
Cd604 O612 2.223 . S
Cd604 O614 2.297 . S
Cd604 O615 2.439 . S
O605 Cd604 2.240 . S
O605 C610 1.279 . S
O606 Cd603 2.297 . S
O606 C608 1.247 . S
O607 Cd603 2.439 . S
O607 C608 1.208 . S
C608 O606 1.247 . S
C608 O607 1.208 . S
C609 O614 1.247 . S
C609 O615 1.208 . S
C610 O602 1.315 . S
C610 O605 1.279 . S
C611 O612 1.315 . S
C611 O613 1.279 . S
O612 Cd604 2.223 . S
O612 C611 1.315 . S
O613 Cd603 2.240 . S
O613 C611 1.279 . S
O614 Cd604 2.297 . S
O614 C609 1.247 . S
O615 Cd604 2.439 . S
O615 C609 1.208 . S
O616 Cd617 2.223 . S
O616 C624 1.315 . S
Cd617 O616 2.223 . S
Cd617 O620 2.297 . S
Cd617 O621 2.439 . S
Cd617 O627 2.240 . S
Cd618 O619 2.240 . S
Cd618 O626 2.223 . S
Cd618 O628 2.297 . S
Cd618 O629 2.439 . S
O619 Cd618 2.240 . S
O619 C624 1.279 . S
O620 Cd617 2.297 . S
O620 C622 1.247 . S
O621 Cd617 2.439 . S
O621 C622 1.208 . S
C622 O620 1.247 . S
C622 O621 1.208 . S
C623 O628 1.247 . S
C623 O629 1.208 . S
C624 O616 1.315 . S
C624 O619 1.279 . S
C625 O626 1.315 . S
C625 O627 1.279 . S
O626 Cd618 2.223 . S
O626 C625 1.315 . S
O627 Cd617 2.240 . S
O627 C625 1.279 . S
O628 Cd618 2.297 . S
O628 C623 1.247 . S
O629 Cd618 2.439 . S
O629 C623 1.208 . S
O630 Cd631 2.223 . S
O630 C638 1.315 . S
Cd631 O630 2.223 . S
Cd631 O634 2.297 . S
Cd631 O635 2.439 . S
Cd631 O641 2.240 . S
Cd632 O633 2.240 . S
Cd632 O640 2.223 . S
Cd632 O642 2.297 . S
Cd632 O643 2.439 . S
O633 Cd632 2.240 . S
O633 C638 1.279 . S
O634 Cd631 2.297 . S
O634 C636 1.247 . S
O635 Cd631 2.439 . S
O635 C636 1.208 . S
C636 O634 1.247 . S
C636 O635 1.208 . S
C637 O642 1.247 . S
C637 O643 1.208 . S
C638 O630 1.315 . S
C638 O633 1.279 . S
C639 O640 1.315 . S
C639 O641 1.279 . S
O640 Cd632 2.223 . S
O640 C639 1.315 . S
O641 Cd631 2.240 . S
O641 C639 1.279 . S
O642 Cd632 2.297 . S
O642 C637 1.247 . S
O643 Cd632 2.439 . S
O643 C637 1.208 . S
O644 Cd645 2.223 . S
O644 C652 1.315 . S
Cd645 O644 2.223 . S
Cd645 O648 2.297 . S
Cd645 O649 2.439 . S
Cd645 O655 2.240 . S
Cd646 O647 2.240 . S
Cd646 O654 2.223 . S
Cd646 O656 2.297 . S
Cd646 O657 2.439 . S
O647 Cd646 2.240 . S
O647 C652 1.279 . S
O648 Cd645 2.297 . S
O648 C650 1.247 . S
O649 Cd645 2.439 . S
O649 C650 1.208 . S
C650 O648 1.247 . S
C650 O649 1.208 . S
C651 O656 1.247 . S
C651 O657 1.208 . S
C652 O644 1.315 . S
C652 O647 1.279 . S
C653 O654 1.315 . S
C653 O655 1.279 . S
O654 Cd646 2.223 . S
O654 C653 1.315 . S
O655 Cd645 2.240 . S
O655 C653 1.279 . S
O656 Cd646 2.297 . S
O656 C651 1.247 . S
O657 Cd646 2.439 . S
O657 C651 1.208 . S
O658 Cd659 2.223 . S
O658 C666 1.315 . S
Cd659 O658 2.223 . S
Cd659 O662 2.297 . S
Cd659 O663 2.439 . S
Cd659 O669 2.240 . S
Cd660 O661 2.240 . S
Cd660 O668 2.223 . S
Cd660 O670 2.297 . S
Cd660 O671 2.439 . S
O661 Cd660 2.240 . S
O661 C666 1.279 . S
O662 Cd659 2.297 . S
O662 C664 1.247 . S
O663 Cd659 2.439 . S
O663 C664 1.208 . S
C664 O662 1.247 . S
C664 O663 1.208 . S
C665 O670 1.247 . S
C665 O671 1.208 . S
C666 O658 1.315 . S
C666 O661 1.279 . S
C667 O668 1.315 . S
C667 O669 1.279 . S
O668 Cd660 2.223 . S
O668 C667 1.315 . S
O669 Cd659 2.240 . S
O669 C667 1.279 . S
O670 Cd660 2.297 . S
O670 C665 1.247 . S
O671 Cd660 2.439 . S
O671 C665 1.208 . S
O672 Cd673 2.223 . S
O672 C680 1.315 . S
Cd673 O672 2.223 . S
Cd673 O676 2.297 . S
Cd673 O677 2.439 . S
Cd673 O683 2.240 . S
Cd674 O675 2.240 . S
Cd674 O682 2.223 . S
Cd674 O684 2.297 . S
Cd674 O685 2.439 . S
O675 Cd674 2.240 . S
O675 C680 1.279 . S
O676 Cd673 2.297 . S
O676 C678 1.247 . S
O677 Cd673 2.439 . S
O677 C678 1.208 . S
C678 O676 1.247 . S
C678 O677 1.208 . S
C679 O684 1.247 . S
C679 O685 1.208 . S
C680 O672 1.315 . S
C680 O675 1.279 . S
C681 O682 1.315 . S
C681 O683 1.279 . S
O682 Cd674 2.223 . S
O682 C681 1.315 . S
O683 Cd673 2.240 . S
O683 C681 1.279 . S
O684 Cd674 2.297 . S
O684 C679 1.247 . S
O685 Cd674 2.439 . S
O685 C679 1.208 . S
O686 Cd687 2.223 . S
O686 C694 1.315 . S
Cd687 O686 2.223 . S
Cd687 O690 2.297 . S
Cd687 O691 2.439 . S
Cd687 O697 2.240 . S
Cd688 O689 2.240 . S
Cd688 O696 2.223 . S
Cd688 O698 2.297 . S
Cd688 O699 2.439 . S
O689 Cd688 2.240 . S
O689 C694 1.279 . S
O690 Cd687 2.297 . S
O690 C692 1.247 . S
O691 Cd687 2.439 . S
O691 C692 1.208 . S
C692 O690 1.247 . S
C692 O691 1.208 . S
C693 O698 1.247 . S
C693 O699 1.208 . S
C694 O686 1.315 . S
C694 O689 1.279 . S
C695 O696 1.315 . S
C695 O697 1.279 . S
O696 Cd688 2.223 . S
O696 C695 1.315 . S
O697 Cd687 2.240 . S
O697 C695 1.279 . S
O698 Cd688 2.297 . S
O698 C693 1.247 . S
O699 Cd688 2.439 . S
O699 C693 1.208 . S
O700 Cd701 2.223 . S
O700 C708 1.315 . S
Cd701 O700 2.223 . S
Cd701 O704 2.297 . S
Cd701 O705 2.439 . S
Cd701 O711 2.240 1_455 S
Cd702 O703 2.240 1_655 S
Cd702 O710 2.223 . S
Cd702 O712 2.297 . S
Cd702 O713 2.439 . S
O703 Cd702 2.240 1_455 S
O703 C708 1.279 . S
O704 Cd701 2.297 . S
O704 C706 1.247 . S
O705 Cd701 2.439 . S
O705 C706 1.208 . S
C706 O704 1.247 . S
C706 O705 1.208 . S
C707 O712 1.247 . S
C707 O713 1.208 . S
C708 O700 1.315 . S
C708 O703 1.279 . S
C709 O710 1.315 . S
C709 O711 1.279 . S
O710 Cd702 2.223 . S
O710 C709 1.315 . S
O711 Cd701 2.240 1_655 S
O711 C709 1.279 . S
O712 Cd702 2.297 . S
O712 C707 1.247 . S
O713 Cd702 2.439 . S
O713 C707 1.208 . S
O714 Cd715 2.223 . S
O714 C722 1.315 . S
Cd715 O714 2.223 . S
Cd715 O718 2.297 . S
Cd715 O719 2.439 . S
Cd715 O725 2.240 . S
Cd716 O717 2.240 . S
Cd716 O724 2.223 . S
Cd716 O726 2.297 . S
Cd716 O727 2.439 . S
O717 Cd716 2.240 . S
O717 C722 1.279 . S
O718 Cd715 2.297 . S
O718 C720 1.247 . S
O719 Cd715 2.439 . S
O719 C720 1.208 . S
C720 O718 1.247 . S
C720 O719 1.208 . S
C721 O726 1.247 . S
C721 O727 1.208 . S
C722 O714 1.315 . S
C722 O717 1.279 . S
C723 O724 1.315 . S
C723 O725 1.279 . S
O724 Cd716 2.223 . S
O724 C723 1.315 . S
O725 Cd715 2.240 . S
O725 C723 1.279 . S
O726 Cd716 2.297 . S
O726 C721 1.247 . S
O727 Cd716 2.439 . S
O727 C721 1.208 . S
O728 Cd729 2.223 . S
O728 C736 1.315 . S
Cd729 O728 2.223 . S
Cd729 O732 2.297 . S
Cd729 O733 2.439 . S
Cd729 O739 2.240 . S
Cd730 O731 2.240 . S
Cd730 O738 2.223 . S
Cd730 O740 2.297 . S
Cd730 O741 2.439 . S
O731 Cd730 2.240 . S
O731 C736 1.279 . S
O732 Cd729 2.297 . S
O732 C734 1.247 . S
O733 Cd729 2.439 . S
O733 C734 1.208 . S
C734 O732 1.247 . S
C734 O733 1.208 . S
C735 O740 1.247 . S
C735 O741 1.208 . S
C736 O728 1.315 . S
C736 O731 1.279 . S
C737 O738 1.315 . S
C737 O739 1.279 . S
O738 Cd730 2.223 . S
O738 C737 1.315 . S
O739 Cd729 2.240 . S
O739 C737 1.279 . S
O740 Cd730 2.297 . S
O740 C735 1.247 . S
O741 Cd730 2.439 . S
O741 C735 1.208 . S
O742 Cd743 2.223 . S
O742 C750 1.315 . S
Cd743 O742 2.223 . S
Cd743 O746 2.297 . S
Cd743 O747 2.439 . S
Cd743 O753 2.240 . S
Cd744 O745 2.240 . S
Cd744 O752 2.223 . S
Cd744 O754 2.297 . S
Cd744 O755 2.439 . S
O745 Cd744 2.240 . S
O745 C750 1.279 . S
O746 Cd743 2.297 . S
O746 C748 1.247 . S
O747 Cd743 2.439 . S
O747 C748 1.208 . S
C748 O746 1.247 . S
C748 O747 1.208 . S
C749 O754 1.247 . S
C749 O755 1.208 . S
C750 O742 1.315 . S
C750 O745 1.279 . S
C751 O752 1.315 . S
C751 O753 1.279 . S
O752 Cd744 2.223 . S
O752 C751 1.315 . S
O753 Cd743 2.240 . S
O753 C751 1.279 . S
O754 Cd744 2.297 . S
O754 C749 1.247 . S
O755 Cd744 2.439 . S
O755 C749 1.208 . S
O756 Cd757 2.223 . S
O756 C764 1.315 . S
Cd757 O756 2.223 . S
Cd757 O760 2.297 . S
Cd757 O761 2.439 . S
Cd757 O767 2.240 1_455 S
Cd758 O759 2.240 1_655 S
Cd758 O766 2.223 . S
Cd758 O768 2.297 . S
Cd758 O769 2.439 . S
O759 Cd758 2.240 1_455 S
O759 C764 1.279 . S
O760 Cd757 2.297 . S
O760 C762 1.247 . S
O761 Cd757 2.439 . S
O761 C762 1.208 . S
C762 O760 1.247 . S
C762 O761 1.208 . S
C763 O768 1.247 . S
C763 O769 1.208 . S
C764 O756 1.315 . S
C764 O759 1.279 . S
C765 O766 1.315 . S
C765 O767 1.279 . S
O766 Cd758 2.223 . S
O766 C765 1.315 . S
O767 Cd757 2.240 1_655 S
O767 C765 1.279 . S
O768 Cd758 2.297 . S
O768 C763 1.247 . S
O769 Cd758 2.439 . S
O769 C763 1.208 . S
O770 Cd771 2.223 . S
O770 C778 1.315 . S
Cd771 O770 2.223 . S
Cd771 O774 2.297 . S
Cd771 O775 2.439 . S
Cd771 O781 2.240 . S
Cd772 O773 2.240 . S
Cd772 O780 2.223 . S
Cd772 O782 2.297 . S
Cd772 O783 2.439 . S
O773 Cd772 2.240 . S
O773 C778 1.279 . S
O774 Cd771 2.297 . S
O774 C776 1.247 . S
O775 Cd771 2.439 . S
O775 C776 1.208 . S
C776 O774 1.247 . S
C776 O775 1.208 . S
C777 O782 1.247 . S
C777 O783 1.208 . S
C778 O770 1.315 . S
C778 O773 1.279 . S
C779 O780 1.315 . S
C779 O781 1.279 . S
O780 Cd772 2.223 . S
O780 C779 1.315 . S
O781 Cd771 2.240 . S
O781 C779 1.279 . S
O782 Cd772 2.297 . S
O782 C777 1.247 . S
O783 Cd772 2.439 . S
O783 C777 1.208 . S
O784 Cd785 2.223 . S
O784 C792 1.315 . S
Cd785 O784 2.223 . S
Cd785 O788 2.297 . S
Cd785 O789 2.439 . S
Cd785 O795 2.240 . S
Cd786 O787 2.240 . S
Cd786 O794 2.223 . S
Cd786 O796 2.297 . S
Cd786 O797 2.439 . S
O787 Cd786 2.240 . S
O787 C792 1.279 . S
O788 Cd785 2.297 . S
O788 C790 1.247 . S
O789 Cd785 2.439 . S
O789 C790 1.208 . S
C790 O788 1.247 . S
C790 O789 1.208 . S
C791 O796 1.247 . S
C791 O797 1.208 . S
C792 O784 1.315 . S
C792 O787 1.279 . S
C793 O794 1.315 . S
C793 O795 1.279 . S
O794 Cd786 2.223 . S
O794 C793 1.315 . S
O795 Cd785 2.240 . S
O795 C793 1.279 . S
O796 Cd786 2.297 . S
O796 C791 1.247 . S
O797 Cd786 2.439 . S
O797 C791 1.208 . S
O798 Cd799 2.223 . S
O798 C806 1.315 . S
Cd799 O798 2.223 . S
Cd799 O802 2.297 . S
Cd799 O803 2.439 . S
Cd799 O809 2.240 . S
Cd800 O801 2.240 . S
Cd800 O808 2.223 . S
Cd800 O810 2.297 . S
Cd800 O811 2.439 . S
O801 Cd800 2.240 . S
O801 C806 1.279 . S
O802 Cd799 2.297 . S
O802 C804 1.247 . S
O803 Cd799 2.439 . S
O803 C804 1.208 . S
C804 O802 1.247 . S
C804 O803 1.208 . S
C805 O810 1.247 . S
C805 O811 1.208 . S
C806 O798 1.315 . S
C806 O801 1.279 . S
C807 O808 1.315 . S
C807 O809 1.279 . S
O808 Cd800 2.223 . S
O808 C807 1.315 . S
O809 Cd799 2.240 . S
O809 C807 1.279 . S
O810 Cd800 2.297 . S
O810 C805 1.247 . S
O811 Cd800 2.439 . S
O811 C805 1.208 . S
O812 Cd813 2.223 . S
O812 C820 1.315 . S
Cd813 O812 2.223 . S
Cd813 O816 2.297 . S
Cd813 O817 2.439 . S
Cd813 O823 2.240 . S
Cd814 O815 2.240 . S
Cd814 O822 2.223 . S
Cd814 O824 2.297 . S
Cd814 O825 2.439 . S
O815 Cd814 2.240 . S
O815 C820 1.279 . S
O816 Cd813 2.297 . S
O816 C818 1.247 . S
O817 Cd813 2.439 . S
O817 C818 1.208 . S
C818 O816 1.247 . S
C818 O817 1.208 . S
C819 O824 1.247 . S
C819 O825 1.208 . S
C820 O812 1.315 . S
C820 O815 1.279 . S
C821 O822 1.315 . S
C821 O823 1.279 . S
O822 Cd814 2.223 . S
O822 C821 1.315 . S
O823 Cd813 2.240 . S
O823 C821 1.279 . S
O824 Cd814 2.297 . S
O824 C819 1.247 . S
O825 Cd814 2.439 . S
O825 C819 1.208 . S
O826 Cd827 2.223 . S
O826 C834 1.315 . S
Cd827 O826 2.223 . S
Cd827 O830 2.297 . S
Cd827 O831 2.439 . S
Cd827 O837 2.240 . S
Cd828 O829 2.240 . S
Cd828 O836 2.223 . S
Cd828 O838 2.297 . S
Cd828 O839 2.439 . S
O829 Cd828 2.240 . S
O829 C834 1.279 . S
O830 Cd827 2.297 . S
O830 C832 1.247 . S
O831 Cd827 2.439 . S
O831 C832 1.208 . S
C832 O830 1.247 . S
C832 O831 1.208 . S
C833 O838 1.247 . S
C833 O839 1.208 . S
C834 O826 1.315 . S
C834 O829 1.279 . S
C835 O836 1.315 . S
C835 O837 1.279 . S
O836 Cd828 2.223 . S
O836 C835 1.315 . S
O837 Cd827 2.240 . S
O837 C835 1.279 . S
O838 Cd828 2.297 . S
O838 C833 1.247 . S
O839 Cd828 2.439 . S
O839 C833 1.208 . S
O840 Cd841 2.223 . S
O840 C848 1.315 . S
Cd841 O840 2.223 . S
Cd841 O844 2.297 . S
Cd841 O845 2.439 . S
Cd841 O851 2.240 . S
Cd842 O843 2.240 . S
Cd842 O850 2.223 . S
Cd842 O852 2.297 . S
Cd842 O853 2.439 . S
O843 Cd842 2.240 . S
O843 C848 1.279 . S
O844 Cd841 2.297 . S
O844 C846 1.247 . S
O845 Cd841 2.439 . S
O845 C846 1.208 . S
C846 O844 1.247 . S
C846 O845 1.208 . S
C847 O852 1.247 . S
C847 O853 1.208 . S
C848 O840 1.315 . S
C848 O843 1.279 . S
C849 O850 1.315 . S
C849 O851 1.279 . S
O850 Cd842 2.223 . S
O850 C849 1.315 . S
O851 Cd841 2.240 . S
O851 C849 1.279 . S
O852 Cd842 2.297 . S
O852 C847 1.247 . S
O853 Cd842 2.439 . S
O853 C847 1.208 . S
O854 Cd855 2.223 . S
O854 C862 1.315 . S
Cd855 O854 2.223 . S
Cd855 O858 2.297 . S
Cd855 O859 2.439 . S
Cd855 O865 2.240 . S
Cd856 O857 2.240 . S
Cd856 O864 2.223 . S
Cd856 O866 2.297 . S
Cd856 O867 2.439 . S
O857 Cd856 2.240 . S
O857 C862 1.279 . S
O858 Cd855 2.297 . S
O858 C860 1.247 . S
O859 Cd855 2.439 . S
O859 C860 1.208 . S
C860 O858 1.247 . S
C860 O859 1.208 . S
C861 O866 1.247 . S
C861 O867 1.208 . S
C862 O854 1.315 . S
C862 O857 1.279 . S
C863 O864 1.315 . S
C863 O865 1.279 . S
O864 Cd856 2.223 . S
O864 C863 1.315 . S
O865 Cd855 2.240 . S
O865 C863 1.279 . S
O866 Cd856 2.297 . S
O866 C861 1.247 . S
O867 Cd856 2.439 . S
O867 C861 1.208 . S
O868 Cd869 2.223 . S
O868 C876 1.315 . S
Cd869 O868 2.223 . S
Cd869 O872 2.297 . S
Cd869 O873 2.439 . S
Cd869 O879 2.240 . S
Cd870 O871 2.240 . S
Cd870 O878 2.223 . S
Cd870 O880 2.297 . S
Cd870 O881 2.439 . S
O871 Cd870 2.240 . S
O871 C876 1.279 . S
O872 Cd869 2.297 . S
O872 C874 1.247 . S
O873 Cd869 2.439 . S
O873 C874 1.208 . S
C874 O872 1.247 . S
C874 O873 1.208 . S
C875 O880 1.247 . S
C875 O881 1.208 . S
C876 O868 1.315 . S
C876 O871 1.279 . S
C877 O878 1.315 . S
C877 O879 1.279 . S
O878 Cd870 2.223 . S
O878 C877 1.315 . S
O879 Cd869 2.240 . S
O879 C877 1.279 . S
O880 Cd870 2.297 . S
O880 C875 1.247 . S
O881 Cd870 2.439 . S
O881 C875 1.208 . S
O882 Cd883 2.223 . S
O882 C890 1.315 . S
Cd883 O882 2.223 . S
Cd883 O886 2.297 . S
Cd883 O887 2.439 . S
Cd883 O893 2.240 . S
Cd884 O885 2.240 . S
Cd884 O892 2.223 . S
Cd884 O894 2.297 . S
Cd884 O895 2.439 . S
O885 Cd884 2.240 . S
O885 C890 1.279 . S
O886 Cd883 2.297 . S
O886 C888 1.247 . S
O887 Cd883 2.439 . S
O887 C888 1.208 . S
C888 O886 1.247 . S
C888 O887 1.208 . S
C889 O894 1.247 . S
C889 O895 1.208 . S
C890 O882 1.315 . S
C890 O885 1.279 . S
C891 O892 1.315 . S
C891 O893 1.279 . S
O892 Cd884 2.223 . S
O892 C891 1.315 . S
O893 Cd883 2.240 . S
O893 C891 1.279 . S
O894 Cd884 2.297 . S
O894 C889 1.247 . S
O895 Cd884 2.439 . S
O895 C889 1.208 . S
O896 Cd897 2.223 . S
O896 C904 1.315 . S
Cd897 O896 2.223 . S
Cd897 O900 2.297 . S
Cd897 O901 2.439 . S
Cd897 O907 2.240 . S
Cd898 O899 2.240 . S
Cd898 O906 2.223 . S
Cd898 O908 2.297 . S
Cd898 O909 2.439 . S
O899 Cd898 2.240 . S
O899 C904 1.279 . S
O900 Cd897 2.297 . S
O900 C902 1.247 . S
O901 Cd897 2.439 . S
O901 C902 1.208 . S
C902 O900 1.247 . S
C902 O901 1.208 . S
C903 O908 1.247 . S
C903 O909 1.208 . S
C904 O896 1.315 . S
C904 O899 1.279 . S
C905 O906 1.315 . S
C905 O907 1.279 . S
O906 Cd898 2.223 . S
O906 C905 1.315 . S
O907 Cd897 2.240 . S
O907 C905 1.279 . S
O908 Cd898 2.297 . S
O908 C903 1.247 . S
O909 Cd898 2.439 . S
O909 C903 1.208 . S
O910 Cd911 2.223 . S
O910 C918 1.315 . S
Cd911 O910 2.223 . S
Cd911 O914 2.297 . S
Cd911 O915 2.439 . S
Cd911 O921 2.240 . S
Cd912 O913 2.240 . S
Cd912 O920 2.223 . S
Cd912 O922 2.297 . S
Cd912 O923 2.439 . S
O913 Cd912 2.240 . S
O913 C918 1.279 . S
O914 Cd911 2.297 . S
O914 C916 1.247 . S
O915 Cd911 2.439 . S
O915 C916 1.208 . S
C916 O914 1.247 . S
C916 O915 1.208 . S
C917 O922 1.247 . S
C917 O923 1.208 . S
C918 O910 1.315 . S
C918 O913 1.279 . S
C919 O920 1.315 . S
C919 O921 1.279 . S
O920 Cd912 2.223 . S
O920 C919 1.315 . S
O921 Cd911 2.240 . S
O921 C919 1.279 . S
O922 Cd912 2.297 . S
O922 C917 1.247 . S
O923 Cd912 2.439 . S
O923 C917 1.208 . S
O924 Cd925 2.223 . S
O924 C932 1.315 . S
Cd925 O924 2.223 . S
Cd925 O928 2.297 . S
Cd925 O929 2.439 . S
Cd925 O935 2.240 . S
Cd926 O927 2.240 . S
Cd926 O934 2.223 . S
Cd926 O936 2.297 . S
Cd926 O937 2.439 . S
O927 Cd926 2.240 . S
O927 C932 1.279 . S
O928 Cd925 2.297 . S
O928 C930 1.247 . S
O929 Cd925 2.439 . S
O929 C930 1.208 . S
C930 O928 1.247 . S
C930 O929 1.208 . S
C931 O936 1.247 . S
C931 O937 1.208 . S
C932 O924 1.315 . S
C932 O927 1.279 . S
C933 O934 1.315 . S
C933 O935 1.279 . S
O934 Cd926 2.223 . S
O934 C933 1.315 . S
O935 Cd925 2.240 . S
O935 C933 1.279 . S
O936 Cd926 2.297 . S
O936 C931 1.247 . S
O937 Cd926 2.439 . S
O937 C931 1.208 . S
O938 Cd939 2.223 . S
O938 C946 1.315 . S
Cd939 O938 2.223 . S
Cd939 O942 2.297 . S
Cd939 O943 2.439 . S
Cd939 O949 2.240 1_554 S
Cd940 O941 2.240 1_556 S
Cd940 O948 2.223 . S
Cd940 O950 2.297 . S
Cd940 O951 2.439 . S
O941 Cd940 2.240 1_554 S
O941 C946 1.279 . S
O942 Cd939 2.297 . S
O942 C944 1.247 . S
O943 Cd939 2.439 . S
O943 C944 1.208 . S
C944 O942 1.247 . S
C944 O943 1.208 . S
C945 O950 1.247 . S
C945 O951 1.208 . S
C946 O938 1.315 . S
C946 O941 1.279 . S
C947 O948 1.315 . S
C947 O949 1.279 . S
O948 Cd940 2.223 . S
O948 C947 1.315 . S
O949 Cd939 2.240 1_556 S
O949 C947 1.279 . S
O950 Cd940 2.297 . S
O950 C945 1.247 . S
O951 Cd940 2.439 . S
O951 C945 1.208 . S
O952 Cd953 2.223 . S
O952 C960 1.315 . S
Cd953 O952 2.223 . S
Cd953 O956 2.297 . S
Cd953 O957 2.439 . S
Cd953 O963 2.240 . S
Cd954 O955 2.240 . S
Cd954 O962 2.223 . S
Cd954 O964 2.297 . S
Cd954 O965 2.439 . S
O955 Cd954 2.240 . S
O955 C960 1.279 . S
O956 Cd953 2.297 . S
O956 C958 1.247 . S
O957 Cd953 2.439 . S
O957 C958 1.208 . S
C958 O956 1.247 . S
C958 O957 1.208 . S
C959 O964 1.247 . S
C959 O965 1.208 . S
C960 O952 1.315 . S
C960 O955 1.279 . S
C961 O962 1.315 . S
C961 O963 1.279 . S
O962 Cd954 2.223 . S
O962 C961 1.315 . S
O963 Cd953 2.240 . S
O963 C961 1.279 . S
O964 Cd954 2.297 . S
O964 C959 1.247 . S
O965 Cd954 2.439 . S
O965 C959 1.208 . S
O966 Cd967 2.223 . S
O966 C974 1.315 . S
Cd967 O966 2.223 . S
Cd967 O970 2.297 . S
Cd967 O971 2.439 . S
Cd967 O977 2.240 1_556 S
Cd968 O969 2.240 1_554 S
Cd968 O976 2.223 . S
Cd968 O978 2.297 . S
Cd968 O979 2.439 . S
O969 Cd968 2.240 1_556 S
O969 C974 1.279 . S
O970 Cd967 2.297 . S
O970 C972 1.247 . S
O971 Cd967 2.439 . S
O971 C972 1.208 . S
C972 O970 1.247 . S
C972 O971 1.208 . S
C973 O978 1.247 . S
C973 O979 1.208 . S
C974 O966 1.315 . S
C974 O969 1.279 . S
C975 O976 1.315 . S
C975 O977 1.279 . S
O976 Cd968 2.223 . S
O976 C975 1.315 . S
O977 Cd967 2.240 1_554 S
O977 C975 1.279 . S
O978 Cd968 2.297 . S
O978 C973 1.247 . S
O979 Cd968 2.439 . S
O979 C973 1.208 . S
O980 Cd981 2.223 . S
O980 C988 1.315 . S
Cd981 O980 2.223 . S
Cd981 O984 2.297 . S
Cd981 O985 2.439 . S
Cd981 O991 2.240 . S
Cd982 O983 2.240 . S
Cd982 O990 2.223 . S
Cd982 O992 2.297 . S
Cd982 O993 2.439 . S
O983 Cd982 2.240 . S
O983 C988 1.279 . S
O984 Cd981 2.297 . S
O984 C986 1.247 . S
O985 Cd981 2.439 . S
O985 C986 1.208 . S
C986 O984 1.247 . S
C986 O985 1.208 . S
C987 O992 1.247 . S
C987 O993 1.208 . S
C988 O980 1.315 . S
C988 O983 1.279 . S
C989 O990 1.315 . S
C989 O991 1.279 . S
O990 Cd982 2.223 . S
O990 C989 1.315 . S
O991 Cd981 2.240 . S
O991 C989 1.279 . S
O992 Cd982 2.297 . S
O992 C987 1.247 . S
O993 Cd982 2.439 . S
O993 C987 1.208 . S
O994 Cd995 2.223 . S
O994 C1002 1.315 . S
Cd995 O994 2.223 . S
Cd995 O998 2.297 . S
Cd995 O999 2.439 . S
Cd995 O1005 2.240 . S
Cd996 O997 2.240 . S
Cd996 O1004 2.223 . S
Cd996 O1006 2.297 . S
Cd996 O1007 2.439 . S
O997 Cd996 2.240 . S
O997 C1002 1.279 . S
O998 Cd995 2.297 . S
O998 C1000 1.247 . S
O999 Cd995 2.439 . S
O999 C1000 1.208 . S
C1000 O998 1.247 . S
C1000 O999 1.208 . S
C1001 O1006 1.247 . S
C1001 O1007 1.208 . S
C1002 O994 1.315 . S
C1002 O997 1.279 . S
C1003 O1004 1.315 . S
C1003 O1005 1.279 . S
O1004 Cd996 2.223 . S
O1004 C1003 1.315 . S
O1005 Cd995 2.240 . S
O1005 C1003 1.279 . S
O1006 Cd996 2.297 . S
O1006 C1001 1.247 . S
O1007 Cd996 2.439 . S
O1007 C1001 1.208 . S
O1008 Cd1009 2.223 . S
O1008 C1016 1.315 . S
Cd1009 O1008 2.223 . S
Cd1009 O1012 2.297 . S
Cd1009 O1013 2.439 . S
Cd1009 O1019 2.240 . S
Cd1010 O1011 2.240 . S
Cd1010 O1018 2.223 . S
Cd1010 O1020 2.297 . S
Cd1010 O1021 2.439 . S
O1011 Cd1010 2.240 . S
O1011 C1016 1.279 . S
O1012 Cd1009 2.297 . S
O1012 C1014 1.247 . S
O1013 Cd1009 2.439 . S
O1013 C1014 1.208 . S
C1014 O1012 1.247 . S
C1014 O1013 1.208 . S
C1015 O1020 1.247 . S
C1015 O1021 1.208 . S
C1016 O1008 1.315 . S
C1016 O1011 1.279 . S
C1017 O1018 1.315 . S
C1017 O1019 1.279 . S
O1018 Cd1010 2.223 . S
O1018 C1017 1.315 . S
O1019 Cd1009 2.240 . S
O1019 C1017 1.279 . S
O1020 Cd1010 2.297 . S
O1020 C1015 1.247 . S
O1021 Cd1010 2.439 . S
O1021 C1015 1.208 . S
O1022 Cd1023 2.223 . S
O1022 C1030 1.315 . S
Cd1023 O1022 2.223 . S
Cd1023 O1026 2.297 . S
Cd1023 O1027 2.439 . S
Cd1023 O1033 2.240 . S
Cd1024 O1025 2.240 . S
Cd1024 O1032 2.223 . S
Cd1024 O1034 2.297 . S
Cd1024 O1035 2.439 . S
O1025 Cd1024 2.240 . S
O1025 C1030 1.279 . S
O1026 Cd1023 2.297 . S
O1026 C1028 1.247 . S
O1027 Cd1023 2.439 . S
O1027 C1028 1.208 . S
C1028 O1026 1.247 . S
C1028 O1027 1.208 . S
C1029 O1034 1.247 . S
C1029 O1035 1.208 . S
C1030 O1022 1.315 . S
C1030 O1025 1.279 . S
C1031 O1032 1.315 . S
C1031 O1033 1.279 . S
O1032 Cd1024 2.223 . S
O1032 C1031 1.315 . S
O1033 Cd1023 2.240 . S
O1033 C1031 1.279 . S
O1034 Cd1024 2.297 . S
O1034 C1029 1.247 . S
O1035 Cd1024 2.439 . S
O1035 C1029 1.208 . S
O1036 Cd1037 2.223 . S
O1036 C1044 1.315 . S
Cd1037 O1036 2.223 . S
Cd1037 O1040 2.297 . S
Cd1037 O1041 2.439 . S
Cd1037 O1047 2.240 1_655 S
Cd1038 O1039 2.240 1_455 S
Cd1038 O1046 2.223 . S
Cd1038 O1048 2.297 . S
Cd1038 O1049 2.439 . S
O1039 Cd1038 2.240 1_655 S
O1039 C1044 1.279 . S
O1040 Cd1037 2.297 . S
O1040 C1042 1.247 . S
O1041 Cd1037 2.439 . S
O1041 C1042 1.208 . S
C1042 O1040 1.247 . S
C1042 O1041 1.208 . S
C1043 O1048 1.247 . S
C1043 O1049 1.208 . S
C1044 O1036 1.315 . S
C1044 O1039 1.279 . S
C1045 O1046 1.315 . S
C1045 O1047 1.279 . S
O1046 Cd1038 2.223 . S
O1046 C1045 1.315 . S
O1047 Cd1037 2.240 1_455 S
O1047 C1045 1.279 . S
O1048 Cd1038 2.297 . S
O1048 C1043 1.247 . S
O1049 Cd1038 2.439 . S
O1049 C1043 1.208 . S
O1050 Cd1051 2.223 . S
O1050 C1058 1.315 . S
Cd1051 O1050 2.223 . S
Cd1051 O1054 2.297 . S
Cd1051 O1055 2.439 . S
Cd1051 O1061 2.240 . S
Cd1052 O1053 2.240 . S
Cd1052 O1060 2.223 . S
Cd1052 O1062 2.297 . S
Cd1052 O1063 2.439 . S
O1053 Cd1052 2.240 . S
O1053 C1058 1.279 . S
O1054 Cd1051 2.297 . S
O1054 C1056 1.247 . S
O1055 Cd1051 2.439 . S
O1055 C1056 1.208 . S
C1056 O1054 1.247 . S
C1056 O1055 1.208 . S
C1057 O1062 1.247 . S
C1057 O1063 1.208 . S
C1058 O1050 1.315 . S
C1058 O1053 1.279 . S
C1059 O1060 1.315 . S
C1059 O1061 1.279 . S
O1060 Cd1052 2.223 . S
O1060 C1059 1.315 . S
O1061 Cd1051 2.240 . S
O1061 C1059 1.279 . S
O1062 Cd1052 2.297 . S
O1062 C1057 1.247 . S
O1063 Cd1052 2.439 . S
O1063 C1057 1.208 . S
O1064 Cd1065 2.223 . S
O1064 C1072 1.315 . S
Cd1065 O1064 2.223 . S
Cd1065 O1068 2.297 . S
Cd1065 O1069 2.439 . S
Cd1065 O1075 2.240 . S
Cd1066 O1067 2.240 . S
Cd1066 O1074 2.223 . S
Cd1066 O1076 2.297 . S
Cd1066 O1077 2.439 . S
O1067 Cd1066 2.240 . S
O1067 C1072 1.279 . S
O1068 Cd1065 2.297 . S
O1068 C1070 1.247 . S
O1069 Cd1065 2.439 . S
O1069 C1070 1.208 . S
C1070 O1068 1.247 . S
C1070 O1069 1.208 . S
C1071 O1076 1.247 . S
C1071 O1077 1.208 . S
C1072 O1064 1.315 . S
C1072 O1067 1.279 . S
C1073 O1074 1.315 . S
C1073 O1075 1.279 . S
O1074 Cd1066 2.223 . S
O1074 C1073 1.315 . S
O1075 Cd1065 2.240 . S
O1075 C1073 1.279 . S
O1076 Cd1066 2.297 . S
O1076 C1071 1.247 . S
O1077 Cd1066 2.439 . S
O1077 C1071 1.208 . S
O1078 Cd1079 2.223 . S
O1078 C1086 1.315 . S
Cd1079 O1078 2.223 . S
Cd1079 O1082 2.297 . S
Cd1079 O1083 2.439 . S
Cd1079 O1089 2.240 . S
Cd1080 O1081 2.240 . S
Cd1080 O1088 2.223 . S
Cd1080 O1090 2.297 . S
Cd1080 O1091 2.439 . S
O1081 Cd1080 2.240 . S
O1081 C1086 1.279 . S
O1082 Cd1079 2.297 . S
O1082 C1084 1.247 . S
O1083 Cd1079 2.439 . S
O1083 C1084 1.208 . S
C1084 O1082 1.247 . S
C1084 O1083 1.208 . S
C1085 O1090 1.247 . S
C1085 O1091 1.208 . S
C1086 O1078 1.315 . S
C1086 O1081 1.279 . S
C1087 O1088 1.315 . S
C1087 O1089 1.279 . S
O1088 Cd1080 2.223 . S
O1088 C1087 1.315 . S
O1089 Cd1079 2.240 . S
O1089 C1087 1.279 . S
O1090 Cd1080 2.297 . S
O1090 C1085 1.247 . S
O1091 Cd1080 2.439 . S
O1091 C1085 1.208 . S
O1092 Cd1093 2.223 . S
O1092 C1100 1.315 . S
Cd1093 O1092 2.223 . S
Cd1093 O1096 2.297 . S
Cd1093 O1097 2.439 . S
Cd1093 O1103 2.240 1_655 S
Cd1094 O1095 2.240 1_455 S
Cd1094 O1102 2.223 . S
Cd1094 O1104 2.297 . S
Cd1094 O1105 2.439 . S
O1095 Cd1094 2.240 1_655 S
O1095 C1100 1.279 . S
O1096 Cd1093 2.297 . S
O1096 C1098 1.247 . S
O1097 Cd1093 2.439 . S
O1097 C1098 1.208 . S
C1098 O1096 1.247 . S
C1098 O1097 1.208 . S
C1099 O1104 1.247 . S
C1099 O1105 1.208 . S
C1100 O1092 1.315 . S
C1100 O1095 1.279 . S
C1101 O1102 1.315 . S
C1101 O1103 1.279 . S
O1102 Cd1094 2.223 . S
O1102 C1101 1.315 . S
O1103 Cd1093 2.240 1_455 S
O1103 C1101 1.279 . S
O1104 Cd1094 2.297 . S
O1104 C1099 1.247 . S
O1105 Cd1094 2.439 . S
O1105 C1099 1.208 . S
O1106 Cd1107 2.223 . S
O1106 C1114 1.315 . S
Cd1107 O1106 2.223 . S
Cd1107 O1110 2.297 . S
Cd1107 O1111 2.439 . S
Cd1107 O1117 2.240 . S
Cd1108 O1109 2.240 . S
Cd1108 O1116 2.223 . S
Cd1108 O1118 2.297 . S
Cd1108 O1119 2.439 . S
O1109 Cd1108 2.240 . S
O1109 C1114 1.279 . S
O1110 Cd1107 2.297 . S
O1110 C1112 1.247 . S
O1111 Cd1107 2.439 . S
O1111 C1112 1.208 . S
C1112 O1110 1.247 . S
C1112 O1111 1.208 . S
C1113 O1118 1.247 . S
C1113 O1119 1.208 . S
C1114 O1106 1.315 . S
C1114 O1109 1.279 . S
C1115 O1116 1.315 . S
C1115 O1117 1.279 . S
O1116 Cd1108 2.223 . S
O1116 C1115 1.315 . S
O1117 Cd1107 2.240 . S
O1117 C1115 1.279 . S
O1118 Cd1108 2.297 . S
O1118 C1113 1.247 . S
O1119 Cd1108 2.439 . S
O1119 C1113 1.208 . S
O1120 Cd1121 2.223 . S
O1120 C1128 1.315 . S
Cd1121 O1120 2.223 . S
Cd1121 O1124 2.297 . S
Cd1121 O1125 2.439 . S
Cd1121 O1131 2.240 . S
Cd1122 O1123 2.240 . S
Cd1122 O1130 2.223 . S
Cd1122 O1132 2.297 . S
Cd1122 O1133 2.439 . S
O1123 Cd1122 2.240 . S
O1123 C1128 1.279 . S
O1124 Cd1121 2.297 . S
O1124 C1126 1.247 . S
O1125 Cd1121 2.439 . S
O1125 C1126 1.208 . S
C1126 O1124 1.247 . S
C1126 O1125 1.208 . S
C1127 O1132 1.247 . S
C1127 O1133 1.208 . S
C1128 O1120 1.315 . S
C1128 O1123 1.279 . S
C1129 O1130 1.315 . S
C1129 O1131 1.279 . S
O1130 Cd1122 2.223 . S
O1130 C1129 1.315 . S
O1131 Cd1121 2.240 . S
O1131 C1129 1.279 . S
O1132 Cd1122 2.297 . S
O1132 C1127 1.247 . S
O1133 Cd1122 2.439 . S
O1133 C1127 1.208 . S
O1134 Cd1135 2.223 . S
O1134 C1142 1.315 . S
Cd1135 O1134 2.223 . S
Cd1135 O1138 2.297 . S
Cd1135 O1139 2.439 . S
Cd1135 O1145 2.240 . S
Cd1136 O1137 2.240 . S
Cd1136 O1144 2.223 . S
Cd1136 O1146 2.297 . S
Cd1136 O1147 2.439 . S
O1137 Cd1136 2.240 . S
O1137 C1142 1.279 . S
O1138 Cd1135 2.297 . S
O1138 C1140 1.247 . S
O1139 Cd1135 2.439 . S
O1139 C1140 1.208 . S
C1140 O1138 1.247 . S
C1140 O1139 1.208 . S
C1141 O1146 1.247 . S
C1141 O1147 1.208 . S
C1142 O1134 1.315 . S
C1142 O1137 1.279 . S
C1143 O1144 1.315 . S
C1143 O1145 1.279 . S
O1144 Cd1136 2.223 . S
O1144 C1143 1.315 . S
O1145 Cd1135 2.240 . S
O1145 C1143 1.279 . S
O1146 Cd1136 2.297 . S
O1146 C1141 1.247 . S
O1147 Cd1136 2.439 . S
O1147 C1141 1.208 . S
O1148 Cd1149 2.223 . S
O1148 C1156 1.315 . S
Cd1149 O1148 2.223 . S
Cd1149 O1152 2.297 . S
Cd1149 O1153 2.439 . S
Cd1149 O1159 2.240 . S
Cd1150 O1151 2.240 . S
Cd1150 O1158 2.223 . S
Cd1150 O1160 2.297 . S
Cd1150 O1161 2.439 . S
O1151 Cd1150 2.240 . S
O1151 C1156 1.279 . S
O1152 Cd1149 2.297 . S
O1152 C1154 1.247 . S
O1153 Cd1149 2.439 . S
O1153 C1154 1.208 . S
C1154 O1152 1.247 . S
C1154 O1153 1.208 . S
C1155 O1160 1.247 . S
C1155 O1161 1.208 . S
C1156 O1148 1.315 . S
C1156 O1151 1.279 . S
C1157 O1158 1.315 . S
C1157 O1159 1.279 . S
O1158 Cd1150 2.223 . S
O1158 C1157 1.315 . S
O1159 Cd1149 2.240 . S
O1159 C1157 1.279 . S
O1160 Cd1150 2.297 . S
O1160 C1155 1.247 . S
O1161 Cd1150 2.439 . S
O1161 C1155 1.208 . S
O1162 Cd1163 2.223 . S
O1162 C1170 1.315 . S
Cd1163 O1162 2.223 . S
Cd1163 O1166 2.297 . S
Cd1163 O1167 2.439 . S
Cd1163 O1173 2.240 . S
Cd1164 O1165 2.240 . S
Cd1164 O1172 2.223 . S
Cd1164 O1174 2.297 . S
Cd1164 O1175 2.439 . S
O1165 Cd1164 2.240 . S
O1165 C1170 1.279 . S
O1166 Cd1163 2.297 . S
O1166 C1168 1.247 . S
O1167 Cd1163 2.439 . S
O1167 C1168 1.208 . S
C1168 O1166 1.247 . S
C1168 O1167 1.208 . S
C1169 O1174 1.247 . S
C1169 O1175 1.208 . S
C1170 O1162 1.315 . S
C1170 O1165 1.279 . S
C1171 O1172 1.315 . S
C1171 O1173 1.279 . S
O1172 Cd1164 2.223 . S
O1172 C1171 1.315 . S
O1173 Cd1163 2.240 . S
O1173 C1171 1.279 . S
O1174 Cd1164 2.297 . S
O1174 C1169 1.247 . S
O1175 Cd1164 2.439 . S
O1175 C1169 1.208 . S
O1176 Cd1177 2.223 . S
O1176 C1184 1.315 . S
Cd1177 O1176 2.223 . S
Cd1177 O1180 2.297 . S
Cd1177 O1181 2.439 . S
Cd1177 O1187 2.240 . S
Cd1178 O1179 2.240 . S
Cd1178 O1186 2.223 . S
Cd1178 O1188 2.297 . S
Cd1178 O1189 2.439 . S
O1179 Cd1178 2.240 . S
O1179 C1184 1.279 . S
O1180 Cd1177 2.297 . S
O1180 C1182 1.247 . S
O1181 Cd1177 2.439 . S
O1181 C1182 1.208 . S
C1182 O1180 1.247 . S
C1182 O1181 1.208 . S
C1183 O1188 1.247 . S
C1183 O1189 1.208 . S
C1184 O1176 1.315 . S
C1184 O1179 1.279 . S
C1185 O1186 1.315 . S
C1185 O1187 1.279 . S
O1186 Cd1178 2.223 . S
O1186 C1185 1.315 . S
O1187 Cd1177 2.240 . S
O1187 C1185 1.279 . S
O1188 Cd1178 2.297 . S
O1188 C1183 1.247 . S
O1189 Cd1178 2.439 . S
O1189 C1183 1.208 . S
O1190 Cd1191 2.223 . S
O1190 C1198 1.315 . S
Cd1191 O1190 2.223 . S
Cd1191 O1194 2.297 . S
Cd1191 O1195 2.439 . S
Cd1191 O1201 2.240 . S
Cd1192 O1193 2.240 . S
Cd1192 O1200 2.223 . S
Cd1192 O1202 2.297 . S
Cd1192 O1203 2.439 . S
O1193 Cd1192 2.240 . S
O1193 C1198 1.279 . S
O1194 Cd1191 2.297 . S
O1194 C1196 1.247 . S
O1195 Cd1191 2.439 . S
O1195 C1196 1.208 . S
C1196 O1194 1.247 . S
C1196 O1195 1.208 . S
C1197 O1202 1.247 . S
C1197 O1203 1.208 . S
C1198 O1190 1.315 . S
C1198 O1193 1.279 . S
C1199 O1200 1.315 . S
C1199 O1201 1.279 . S
O1200 Cd1192 2.223 . S
O1200 C1199 1.315 . S
O1201 Cd1191 2.240 . S
O1201 C1199 1.279 . S
O1202 Cd1192 2.297 . S
O1202 C1197 1.247 . S
O1203 Cd1192 2.439 . S
O1203 C1197 1.208 . S
O1204 Cd1205 2.223 . S
O1204 C1212 1.315 . S
Cd1205 O1204 2.223 . S
Cd1205 O1208 2.297 . S
Cd1205 O1209 2.439 . S
Cd1205 O1215 2.240 . S
Cd1206 O1207 2.240 . S
Cd1206 O1214 2.223 . S
Cd1206 O1216 2.297 . S
Cd1206 O1217 2.439 . S
O1207 Cd1206 2.240 . S
O1207 C1212 1.279 . S
O1208 Cd1205 2.297 . S
O1208 C1210 1.247 . S
O1209 Cd1205 2.439 . S
O1209 C1210 1.208 . S
C1210 O1208 1.247 . S
C1210 O1209 1.208 . S
C1211 O1216 1.247 . S
C1211 O1217 1.208 . S
C1212 O1204 1.315 . S
C1212 O1207 1.279 . S
C1213 O1214 1.315 . S
C1213 O1215 1.279 . S
O1214 Cd1206 2.223 . S
O1214 C1213 1.315 . S
O1215 Cd1205 2.240 . S
O1215 C1213 1.279 . S
O1216 Cd1206 2.297 . S
O1216 C1211 1.247 . S
O1217 Cd1206 2.439 . S
O1217 C1211 1.208 . S
O1218 Cd1219 2.223 . S
O1218 C1226 1.315 . S
Cd1219 O1218 2.223 . S
Cd1219 O1222 2.297 . S
Cd1219 O1223 2.439 . S
Cd1219 O1229 2.240 . S
Cd1220 O1221 2.240 . S
Cd1220 O1228 2.223 . S
Cd1220 O1230 2.297 . S
Cd1220 O1231 2.439 . S
O1221 Cd1220 2.240 . S
O1221 C1226 1.279 . S
O1222 Cd1219 2.297 . S
O1222 C1224 1.247 . S
O1223 Cd1219 2.439 . S
O1223 C1224 1.208 . S
C1224 O1222 1.247 . S
C1224 O1223 1.208 . S
C1225 O1230 1.247 . S
C1225 O1231 1.208 . S
C1226 O1218 1.315 . S
C1226 O1221 1.279 . S
C1227 O1228 1.315 . S
C1227 O1229 1.279 . S
O1228 Cd1220 2.223 . S
O1228 C1227 1.315 . S
O1229 Cd1219 2.240 . S
O1229 C1227 1.279 . S
O1230 Cd1220 2.297 . S
O1230 C1225 1.247 . S
O1231 Cd1220 2.439 . S
O1231 C1225 1.208 . S
O1232 Cd1233 2.223 . S
O1232 C1240 1.315 . S
Cd1233 O1232 2.223 . S
Cd1233 O1236 2.297 . S
Cd1233 O1237 2.439 . S
Cd1233 O1243 2.240 . S
Cd1234 O1235 2.240 . S
Cd1234 O1242 2.223 . S
Cd1234 O1244 2.297 . S
Cd1234 O1245 2.439 . S
O1235 Cd1234 2.240 . S
O1235 C1240 1.279 . S
O1236 Cd1233 2.297 . S
O1236 C1238 1.247 . S
O1237 Cd1233 2.439 . S
O1237 C1238 1.208 . S
C1238 O1236 1.247 . S
C1238 O1237 1.208 . S
C1239 O1244 1.247 . S
C1239 O1245 1.208 . S
C1240 O1232 1.315 . S
C1240 O1235 1.279 . S
C1241 O1242 1.315 . S
C1241 O1243 1.279 . S
O1242 Cd1234 2.223 . S
O1242 C1241 1.315 . S
O1243 Cd1233 2.240 . S
O1243 C1241 1.279 . S
O1244 Cd1234 2.297 . S
O1244 C1239 1.247 . S
O1245 Cd1234 2.439 . S
O1245 C1239 1.208 . S
O1246 Cd1247 2.223 . S
O1246 C1254 1.315 . S
Cd1247 O1246 2.223 . S
Cd1247 O1250 2.297 . S
Cd1247 O1251 2.439 . S
Cd1247 O1257 2.240 . S
Cd1248 O1249 2.240 . S
Cd1248 O1256 2.223 . S
Cd1248 O1258 2.297 . S
Cd1248 O1259 2.439 . S
O1249 Cd1248 2.240 . S
O1249 C1254 1.279 . S
O1250 Cd1247 2.297 . S
O1250 C1252 1.247 . S
O1251 Cd1247 2.439 . S
O1251 C1252 1.208 . S
C1252 O1250 1.247 . S
C1252 O1251 1.208 . S
C1253 O1258 1.247 . S
C1253 O1259 1.208 . S
C1254 O1246 1.315 . S
C1254 O1249 1.279 . S
C1255 O1256 1.315 . S
C1255 O1257 1.279 . S
O1256 Cd1248 2.223 . S
O1256 C1255 1.315 . S
O1257 Cd1247 2.240 . S
O1257 C1255 1.279 . S
O1258 Cd1248 2.297 . S
O1258 C1253 1.247 . S
O1259 Cd1248 2.439 . S
O1259 C1253 1.208 . S
O1260 Cd1261 2.223 . S
O1260 C1268 1.315 . S
Cd1261 O1260 2.223 . S
Cd1261 O1264 2.297 . S
Cd1261 O1265 2.439 . S
Cd1261 O1271 2.240 . S
Cd1262 O1263 2.240 . S
Cd1262 O1270 2.223 . S
Cd1262 O1272 2.297 . S
Cd1262 O1273 2.439 . S
O1263 Cd1262 2.240 . S
O1263 C1268 1.279 . S
O1264 Cd1261 2.297 . S
O1264 C1266 1.247 . S
O1265 Cd1261 2.439 . S
O1265 C1266 1.208 . S
C1266 O1264 1.247 . S
C1266 O1265 1.208 . S
C1267 O1272 1.247 . S
C1267 O1273 1.208 . S
C1268 O1260 1.315 . S
C1268 O1263 1.279 . S
C1269 O1270 1.315 . S
C1269 O1271 1.279 . S
O1270 Cd1262 2.223 . S
O1270 C1269 1.315 . S
O1271 Cd1261 2.240 . S
O1271 C1269 1.279 . S
O1272 Cd1262 2.297 . S
O1272 C1267 1.247 . S
O1273 Cd1262 2.439 . S
O1273 C1267 1.208 . S
O1274 Cd1275 2.223 . S
O1274 C1282 1.315 . S
Cd1275 O1274 2.223 . S
Cd1275 O1278 2.297 . S
Cd1275 O1279 2.439 . S
Cd1275 O1285 2.240 1_556 S
Cd1276 O1277 2.240 1_554 S
Cd1276 O1284 2.223 . S
Cd1276 O1286 2.297 . S
Cd1276 O1287 2.439 . S
O1277 Cd1276 2.240 1_556 S
O1277 C1282 1.279 . S
O1278 Cd1275 2.297 . S
O1278 C1280 1.247 . S
O1279 Cd1275 2.439 . S
O1279 C1280 1.208 . S
C1280 O1278 1.247 . S
C1280 O1279 1.208 . S
C1281 O1286 1.247 . S
C1281 O1287 1.208 . S
C1282 O1274 1.315 . S
C1282 O1277 1.279 . S
C1283 O1284 1.315 . S
C1283 O1285 1.279 . S
O1284 Cd1276 2.223 . S
O1284 C1283 1.315 . S
O1285 Cd1275 2.240 1_554 S
O1285 C1283 1.279 . S
O1286 Cd1276 2.297 . S
O1286 C1281 1.247 . S
O1287 Cd1276 2.439 . S
O1287 C1281 1.208 . S
O1288 Cd1289 2.223 . S
O1288 C1296 1.315 . S
Cd1289 O1288 2.223 . S
Cd1289 O1292 2.297 . S
Cd1289 O1293 2.439 . S
Cd1289 O1299 2.240 . S
Cd1290 O1291 2.240 . S
Cd1290 O1298 2.223 . S
Cd1290 O1300 2.297 . S
Cd1290 O1301 2.439 . S
O1291 Cd1290 2.240 . S
O1291 C1296 1.279 . S
O1292 Cd1289 2.297 . S
O1292 C1294 1.247 . S
O1293 Cd1289 2.439 . S
O1293 C1294 1.208 . S
C1294 O1292 1.247 . S
C1294 O1293 1.208 . S
C1295 O1300 1.247 . S
C1295 O1301 1.208 . S
C1296 O1288 1.315 . S
C1296 O1291 1.279 . S
C1297 O1298 1.315 . S
C1297 O1299 1.279 . S
O1298 Cd1290 2.223 . S
O1298 C1297 1.315 . S
O1299 Cd1289 2.240 . S
O1299 C1297 1.279 . S
O1300 Cd1290 2.297 . S
O1300 C1295 1.247 . S
O1301 Cd1290 2.439 . S
O1301 C1295 1.208 . S
O1302 Cd1303 2.223 . S
O1302 C1310 1.315 . S
Cd1303 O1302 2.223 . S
Cd1303 O1306 2.297 . S
Cd1303 O1307 2.439 . S
Cd1303 O1313 2.240 1_554 S
Cd1304 O1305 2.240 1_556 S
Cd1304 O1312 2.223 . S
Cd1304 O1314 2.297 . S
Cd1304 O1315 2.439 . S
O1305 Cd1304 2.240 1_554 S
O1305 C1310 1.279 . S
O1306 Cd1303 2.297 . S
O1306 C1308 1.247 . S
O1307 Cd1303 2.439 . S
O1307 C1308 1.208 . S
C1308 O1306 1.247 . S
C1308 O1307 1.208 . S
C1309 O1314 1.247 . S
C1309 O1315 1.208 . S
C1310 O1302 1.315 . S
C1310 O1305 1.279 . S
C1311 O1312 1.315 . S
C1311 O1313 1.279 . S
O1312 Cd1304 2.223 . S
O1312 C1311 1.315 . S
O1313 Cd1303 2.240 1_556 S
O1313 C1311 1.279 . S
O1314 Cd1304 2.297 . S
O1314 C1309 1.247 . S
O1315 Cd1304 2.439 . S
O1315 C1309 1.208 . S
O1316 Cd1317 2.223 . S
O1316 C1324 1.315 . S
Cd1317 O1316 2.223 . S
Cd1317 O1320 2.297 . S
Cd1317 O1321 2.439 . S
Cd1317 O1327 2.240 . S
Cd1318 O1319 2.240 . S
Cd1318 O1326 2.223 . S
Cd1318 O1328 2.297 . S
Cd1318 O1329 2.439 . S
O1319 Cd1318 2.240 . S
O1319 C1324 1.279 . S
O1320 Cd1317 2.297 . S
O1320 C1322 1.247 . S
O1321 Cd1317 2.439 . S
O1321 C1322 1.208 . S
C1322 O1320 1.247 . S
C1322 O1321 1.208 . S
C1323 O1328 1.247 . S
C1323 O1329 1.208 . S
C1324 O1316 1.315 . S
C1324 O1319 1.279 . S
C1325 O1326 1.315 . S
C1325 O1327 1.279 . S
O1326 Cd1318 2.223 . S
O1326 C1325 1.315 . S
O1327 Cd1317 2.240 . S
O1327 C1325 1.279 . S
O1328 Cd1318 2.297 . S
O1328 C1323 1.247 . S
O1329 Cd1318 2.439 . S
O1329 C1323 1.208 . S
O1330 Cd1331 2.223 . S
O1330 C1338 1.315 . S
Cd1331 O1330 2.223 . S
Cd1331 O1334 2.297 . S
Cd1331 O1335 2.439 . S
Cd1331 O1341 2.240 . S
Cd1332 O1333 2.240 . S
Cd1332 O1340 2.223 . S
Cd1332 O1342 2.297 . S
Cd1332 O1343 2.439 . S
O1333 Cd1332 2.240 . S
O1333 C1338 1.279 . S
O1334 Cd1331 2.297 . S
O1334 C1336 1.247 . S
O1335 Cd1331 2.439 . S
O1335 C1336 1.208 . S
C1336 O1334 1.247 . S
C1336 O1335 1.208 . S
C1337 O1342 1.247 . S
C1337 O1343 1.208 . S
C1338 O1330 1.315 . S
C1338 O1333 1.279 . S
C1339 O1340 1.315 . S
C1339 O1341 1.279 . S
O1340 Cd1332 2.223 . S
O1340 C1339 1.315 . S
O1341 Cd1331 2.240 . S
O1341 C1339 1.279 . S
O1342 Cd1332 2.297 . S
O1342 C1337 1.247 . S
O1343 Cd1332 2.439 . S
O1343 C1337 1.208 . S
C7 C133 2.226 . S
C147 C21 2.226 . S
C35 C161 2.226 . S
C49 C119 2.226 . S
C63 C217 2.226 . S
C175 C77 2.225 . S
C91 C189 2.226 . S
C203 C105 2.226 . S
C259 C231 2.226 . S
C245 C987 2.226 . S
C1001 C273 2.226 . S
C287 C973 2.226 . S
C959 C301 2.226 . S
C917 C315 2.226 . S
C329 C945 2.225 . S
C343 C469 2.226 . S
C357 C483 2.226 . S
C497 C371 2.226 . S
C455 C385 2.226 . S
C553 C399 2.226 . S
C413 C511 2.225 . S
C427 C525 2.226 . S
C441 C539 2.226 . S
C567 C595 2.226 . S
C581 C1323 2.226 . S
C1337 C609 2.226 . S
C623 C1309 2.226 . S
C637 C1295 2.226 . S
C651 C1253 2.226 . S
C665 C1281 2.225 . S
C679 C805 2.226 . S
C819 C693 2.226 . S
C833 C707 2.225 . S
C721 C791 2.226 . S
C735 C889 2.226 . S
C749 C847 2.226 . S
C763 C861 2.226 . S
C875 C777 2.226 . S
C903 C931 2.226 . S
C1015 C1141 2.226 . S
C1029 C1155 2.226 . S
C1169 C1043 2.225 . S
C1127 C1057 2.226 . S
C1071 C1225 2.226 . S
C1183 C1085 2.226 . S
C1197 C1099 2.226 . S
C1211 C1113 2.226 . S
C1239 C1267 2.226 . S
C6 C286 1.473 . S
C20 C916 1.473 . S
C930 C34 1.473 . S
C944 C48 1.473 . S
C62 C1000 1.473 . S
C300 C76 1.473 . S
C90 C986 1.473 . S
C104 C230 1.473 . S
C118 C216 1.473 . S
C174 C132 1.473 . S
C146 C188 1.473 . S
C160 C202 1.473 . S
C692 C244 1.473 . S
C706 C258 1.473 . S
C720 C272 1.473 . S
C762 C314 1.473 . S
C328 C734 1.473 . S
C342 C622 1.473 . S
C356 C1252 1.473 . S
C1266 C370 1.473 . S
C1280 C384 1.473 . S
C1336 C398 1.473 . S
C636 C412 1.473 . S
C426 C1322 1.473 . S
C440 C566 1.473 . S
C552 C454 1.473 . S
C468 C510 1.473 . S
C524 C482 1.473 . S
C496 C538 1.473 . S
C1028 C580 1.473 . S
C594 C1042 1.473 . S
C608 C1056 1.473 . S
C650 C1098 1.473 . S
C664 C1070 1.473 . S
C678 C958 1.473 . S
C972 C748 1.473 . S
C776 C902 1.473 . S
C888 C790 1.473 . S
C846 C804 1.473 . S
C818 C860 1.473 . S
C832 C874 1.473 . S
C1294 C1014 1.473 . S
C1084 C1308 1.473 . S
C1238 C1112 1.473 . S
C1126 C1224 1.473 . S
C1182 C1140 1.473 . S
C1154 C1196 1.473 . S
C1210 C1168 1.473 . S
C9 C610 1.669 . S
C624 C23 1.669 . S
C582 C37 1.669 . S
C51 C1268 1.669 . S
C65 C1310 1.669 . S
C79 C1324 1.669 . S
C1240 C93 1.669 . S
C1338 C107 1.669 . S
C372 C121 1.669 . S
C135 C1058 1.669 . S
C344 C149 1.669 . S
C1030 C163 1.669 . S
C428 C177 1.669 . S
C191 C1114 1.670 . S
C205 C400 1.669 . S
C219 C1086 1.669 . S
C233 C1184 1.669 . S
C456 C247 1.669 . S
C261 C1142 1.669 . S
C275 C484 1.669 . S
C289 C498 1.669 . S
C303 C1212 1.669 . S
C1226 C317 1.670 . S
C1198 C331 1.669 . S
C274 C345 1.669 . S
C359 C288 1.669 . S
C373 C246 1.669 . S
C387 C932 1.669 . S
C974 C401 1.669 . S
C988 C415 1.669 . S
C429 C904 1.669 . S
C1002 C443 1.669 . S
C457 C36 1.669 . S
C722 C471 1.669 . S
C485 C8 1.669 . S
C694 C499 1.669 . S
C513 C92 1.669 . S
C778 C527 1.670 . S
C64 C541 1.669 . S
C750 C555 1.669 . S
C569 C848 1.669 . S
C583 C120 1.669 . S
C806 C597 1.669 . S
C611 C148 1.669 . S
C162 C625 1.669 . S
C876 C639 1.669 . S
C890 C653 1.670 . S
C862 C667 1.669 . S
C681 C1282 1.669 . S
C695 C1296 1.670 . S
C709 C1254 1.669 . S
C596 C723 1.669 . S
C737 C638 1.669 . S
C652 C751 1.669 . S
C568 C765 1.669 . S
C666 C779 1.669 . S
C793 C1044 1.669 . S
C386 C807 1.669 . S
C821 C1016 1.669 . S
C835 C358 1.669 . S
C849 C1100 1.669 . S
C863 C442 1.669 . S
C1072 C877 1.669 . S
C414 C891 1.669 . S
C905 C512 1.669 . S
C919 C1128 1.669 . S
C933 C470 1.669 . S
C1156 C947 1.669 . S
C961 C1170 1.669 . S
C975 C540 1.669 . S
C554 C989 1.669 . S
C1003 C526 1.669 . S
C1017 C946 1.669 . S
C960 C1031 1.670 . S
C918 C1045 1.669 . S
C1059 C260 1.669 . S
C1073 C302 1.669 . S
C1087 C316 1.669 . S
C232 C1101 1.669 . S
C1115 C330 1.669 . S
C1129 C708 1.669 . S
C1143 C50 1.669 . S
C1157 C680 1.669 . S
C1171 C22 1.669 . S
C1185 C764 1.669 . S
C1199 C106 1.669 . S
C1213 C736 1.669 . S
C1227 C78 1.669 . S
C1241 C176 1.669 . S
C1255 C792 1.669 . S
C1269 C134 1.669 . S
C1283 C820 1.669 . S
C1297 C834 1.669 . S
C204 C1311 1.669 . S
C1325 C218 1.669 . S
C1339 C190 1.669 . S
