# Generated by pormake.
# Topology qtz-x, (6)-cn, num edge types: 1
# Building blocks:
#     Node 0, Type 0, BuildingBlock: BETDAH_clean_sbu_0, # of connection points: 6
#     Node 1, Type 0, BuildingBlock: BETDAH_clean_sbu_0, # of connection points: 6
#     Node 2, Type 0, BuildingBlock: BETDAH_clean_sbu_0, # of connection points: 6
#     Edge 3, Type (0, 0), BuildingBlock: MIFKUJ_clean_linker_0, # of connection points: 2
#     Edge 4, Type (0, 0), BuildingBlock: MIFKUJ_clean_linker_0, # of connection points: 2
#     Edge 5, Type (0, 0), BuildingBlock: MIFKUJ_clean_linker_0, # of connection points: 2
#     Edge 6, Type (0, 0), BuildingBlock: MIFKUJ_clean_linker_0, # of connection points: 2
#     Edge 7, Type (0, 0), BuildingBlock: MIFKUJ_clean_linker_0, # of connection points: 2
#     Edge 8, Type (0, 0), BuildingBlock: MIFKUJ_clean_linker_0, # of connection points: 2
#     Edge 9, Type (0, 0), BuildingBlock: MIFKUJ_clean_linker_0, # of connection points: 2
#     Edge 10, Type (0, 0), BuildingBlock: MIFKUJ_clean_linker_0, # of connection points: 2
#     Edge 11, Type (0, 0), BuildingBlock: MIFKUJ_clean_linker_0, # of connection points: 2
# Relax obj value: 0.172
# Max RMSD: 0.237
# Mean RMSD: 0.217
data_MOF--net-qtz-x--node1-BETDAH_clean_sbu_0--edge1-MIFKUJ_clean_linker_0
_symmetry_space_group_name_H-M    P1
_symmetry_Int_Tables_number       1
_symmetry_cell_setting            triclinic
loop_
_symmetry_equiv_pos_as_xyz
'x, y, z'
_cell_length_a     18.998993
_cell_length_b     19.017347
_cell_length_c     65.756639
_cell_angle_alpha  72.660662
_cell_angle_beta   110.04471
_cell_angle_gamma 120.97432
loop_
_atom_site_label
_atom_site_type_symbol
_atom_site_fract_x
_atom_site_fract_y
_atom_site_fract_z
_atom_type_partial_charge
Ho0 Ho 0.99993 0.58921 0.19336 0.0
Ho1 Ho 0.16942 0.71301 0.18359 0.0
C2 C 0.16583 0.6672 0.23317 0.0
C3 C 0.88084 0.46201 0.2104 0.0
C4 C 0.85892 0.43122 0.23202 0.0
C5 C 0.84188 0.3495 0.24195 0.0
C6 C 0.82075 0.31861 0.26234 0.0
C7 C 0.81554 0.36861 0.27328 0.0
C8 C 0.83291 0.45073 0.26327 0.0
C9 C 0.85467 0.48177 0.24294 0.0
C10 C 0.02884 0.74865 0.18538 0.0
C11 C 1.00624 0.64266 0.14325 0.0
C12 C 0.28924 0.83227 0.16563 0.0
C13 C 0.30814 0.84029 0.14489 0.0
C14 C 0.34882 0.9186 0.133 0.0
C15 C 0.36295 0.9255 0.11277 0.0
C16 C 0.33658 0.85403 0.10411 0.0
C17 C 0.29583 0.77568 0.11621 0.0
C18 C 0.28134 0.76892 0.13629 0.0
C19 C 0.13746 0.55232 0.19092 0.0
O20 O 0.08989 0.60541 0.22709 0.0
O21 O 0.206 0.72645 0.21864 0.0
O22 O 0.87452 0.5288 0.19912 0.0
O23 O 0.94838 0.46168 0.2095 0.0
O24 O 0.95564 0.68668 0.17967 0.0
O25 O 0.08207 0.72246 0.19628 0.0
O26 O 0.08179 0.7025 0.15016 0.0
O27 O 0.96278 0.58264 0.15723 0.0
O28 O 0.29906 0.77374 0.18102 0.0
O29 O 0.21899 0.83353 0.16363 0.0
O30 O 0.21099 0.61304 0.19693 0.0
O31 O 0.08609 0.5806 0.18016 0.0
H32 H 0.84519 0.30942 0.23393 0.0
H33 H 0.80952 0.25571 0.26963 0.0
H34 H 0.82861 0.49095 0.27097 0.0
H35 H 0.8678 0.54524 0.23575 0.0
H36 H 0.36884 0.97433 0.13924 0.0
H37 H 0.39334 -0.0132 0.10378 0.0
H38 H 0.27571 0.71925 0.11031 0.0
H39 H 0.24872 0.70771 0.14507 0.0
Ho40 Ho 0.74666 0.12305 0.54077 0.0
Ho41 Ho 0.68376 0.94551 0.53771 0.0
C42 C 0.74048 -0.01388 0.58541 0.0
C43 C 0.77448 0.25713 0.55127 0.0
C44 C 0.79572 0.28567 0.57216 0.0
C45 C 0.73943 0.30291 0.57663 0.0
C46 C 0.75793 0.32905 0.5964 0.0
C47 C 0.83356 0.33928 0.61199 0.0
C48 C 0.88986 0.32197 0.60754 0.0
C49 C 0.87103 0.29509 0.58787 0.0
C50 C 0.86391 0.08899 0.5377 0.0
C51 C 0.6917 0.08361 0.49312 0.0
C52 C 0.65157 0.81283 0.52555 0.0
C53 C 0.62393 0.79033 0.50344 0.0
C54 C 0.66918 0.84234 0.48719 0.0
C55 C 0.63645 0.82603 0.46562 0.0
C56 C 0.55766 0.75788 0.4598 0.0
C57 C 0.51377 0.70448 0.47616 0.0
C58 C 0.54679 0.72038 0.49778 0.0
C59 C 0.56721 -0.01996 0.54096 0.0
O60 O 0.74027 0.05779 0.57557 0.0
O61 O 0.73089 0.93338 0.57416 0.0
O62 O 0.83219 0.24869 0.54718 0.0
O63 O 0.69881 0.19633 0.54598 0.0
O64 O 0.85806 0.15673 0.52825 0.0
O65 O 0.80987 0.04417 0.54917 0.0
O66 O 0.68859 0.01052 0.50273 0.0
O67 O 0.70355 0.13706 0.50443 0.0
O68 O 0.59654 0.81954 0.53148 0.0
O69 O 0.72817 0.87245 0.53085 0.0
O70 O 0.57337 0.91253 0.55057 0.0
O71 O 0.62067 0.02428 0.52931 0.0
H72 H 0.68104 0.29617 0.56479 0.0
H73 H 0.71379 0.34274 0.59933 0.0
H74 H 0.9482 0.32855 0.61937 0.0
H75 H 0.91553 0.28169 0.58503 0.0
H76 H 0.72843 0.89736 0.49092 0.0
H77 H 0.67099 0.86882 0.45329 0.0
H78 H 0.45321 0.65108 0.47216 0.0
H79 H 0.51064 0.67952 0.50997 0.0
Ho80 Ho 0.71397 0.77995 0.85921 0.0
Ho81 Ho 0.84999 0.7309 0.86487 0.0
C82 C 0.81726 0.73438 0.90822 0.0
C83 C 0.58716 0.78952 0.86235 0.0
C84 C 0.5606 0.7969 0.87993 0.0
C85 C 0.55867 0.74341 0.90003 0.0
C86 C 0.53514 0.75326 0.91657 0.0
C87 C 0.51387 0.81713 0.91336 0.0
C88 C 0.51597 0.87053 0.89327 0.0
C89 C 0.53873 0.86021 0.87668 0.0
C90 C 0.86975 0.90671 0.85855 0.0
C91 C 0.74717 0.77752 0.81552 0.0
C92 C 0.97285 0.72211 0.85934 0.0
C93 C 0.97317 0.69298 0.84104 0.0
C94 C 0.04854 0.71936 0.83529 0.0
C95 C 0.04662 0.69575 0.81676 0.0
C96 C 0.96918 0.64598 0.80368 0.0
C97 C 0.89406 0.61948 0.80968 0.0
C98 C 0.89604 0.64285 0.82811 0.0
C99 C 0.69508 0.60309 0.8655 0.0
O100 O 0.7461 0.73541 0.89571 0.0
O101 O 0.87682 0.74633 0.89961 0.0
O102 O 0.65412 0.85393 0.85671 0.0
O103 O 0.58616 0.71926 0.86333 0.0
O104 O 0.80116 0.91061 0.84675 0.0
O105 O 0.85231 0.83848 0.87108 0.0
O106 O 0.81286 0.76628 0.82818 0.0
O107 O 0.69211 0.77667 0.8237 0.0
O108 O 0.92285 0.66534 0.87202 0.0
O109 O 0.96607 0.79074 0.85397 0.0
O110 O 0.76427 0.59976 0.87697 0.0
O111 O 0.71156 0.67158 0.853 0.0
H112 H 0.57593 0.69445 0.90307 0.0
H113 H 0.53513 0.71193 0.93202 0.0
H114 H 0.49938 0.91992 0.89033 0.0
H115 H 0.53986 0.90218 0.86132 0.0
H116 H 0.10852 0.75907 0.8449 0.0
H117 H 0.10547 0.7178 0.81241 0.0
H118 H 0.8335 0.58032 0.80014 0.0
H119 H 0.83697 0.62257 0.83213 0.0
H120 H 0.91005 0.8033 0.16949 0.0
H121 H 0.92687 0.93859 0.17051 0.0
H122 H 0.19143 0.01935 0.20095 0.0
H123 H 0.17423 0.88277 0.20045 0.0
H124 H 0.12321 0.06327 0.22115 0.0
H125 H 0.11908 0.0855 0.14574 0.0
H126 H 0.05994 0.04028 0.10946 0.0
H127 H 0.83532 0.05517 0.10326 0.0
H128 H 0.89277 0.09964 0.13962 0.0
H129 H 0.2525 0.49303 0.20717 0.0
H130 H 0.23163 0.35617 0.20607 0.0
H131 H 0.96905 0.28313 0.17441 0.0
H132 H 0.99043 0.42133 0.17497 0.0
H133 H 0.033 0.23383 0.15491 0.0
H134 H 0.03393 0.21262 0.2292 0.0
H135 H 0.08844 0.25569 0.26563 0.0
H136 H 0.3122 0.23525 0.27446 0.0
H137 H 0.25958 0.19319 0.23792 0.0
C138 C 0.97195 0.85003 0.17629 0.0
C139 C 0.04087 0.83249 0.18488 0.0
C140 C 0.98158 0.92759 0.17679 0.0
C141 C 0.06067 -0.01016 0.18558 0.0
C142 C 0.12978 0.97248 0.19407 0.0
C143 C 0.12003 0.89459 0.19369 0.0
C144 C 0.07077 0.07225 0.18635 0.0
C145 C 0.10465 0.10112 0.2066 0.0
C146 C 0.04396 0.12062 0.16751 0.0
C147 C 1.00997 0.09524 0.14548 0.0
C148 C 0.05691 0.07873 0.13669 0.0
C149 C 1.02371 0.0533 0.1161 0.0
C150 C 0.94384 0.04467 0.10409 0.0
C151 C 0.89715 0.06182 0.11259 0.0
C152 C 0.93006 0.08727 0.13317 0.0
C153 C 0.19019 0.44767 0.20008 0.0
C154 C 0.12303 0.46779 0.1912 0.0
C155 C 0.17821 0.36922 0.19953 0.0
C156 C 0.09846 0.30861 0.1904 0.0
C157 C 0.03114 0.32863 0.18157 0.0
C158 C 0.04328 0.40745 0.18198 0.0
C159 C 0.08606 0.22518 0.1897 0.0
C160 C 0.05161 0.19605 0.16947 0.0
C161 C 0.1117 0.17624 0.20859 0.0
C162 C 0.14311 0.20046 0.23072 0.0
C163 C 0.09501 0.21782 0.23884 0.0
C164 C 0.12554 0.24199 0.25952 0.0
C165 C 0.20383 0.24841 0.27233 0.0
C166 C 0.25161 0.23035 0.26451 0.0
C167 C 0.22142 0.20625 0.24382 0.0
H168 H 0.22737 0.2672 0.28833 0.0
H169 H 0.91821 0.02484 0.08817 0.0
H170 H 0.46466 0.90146 0.56948 0.0
H171 H 0.34764 0.92143 0.56961 0.0
H172 H 0.39703 0.11253 0.51336 0.0
H173 H 0.51664 0.09466 0.51374 0.0
H174 H 0.3586 0.15719 0.54045 0.0
H175 H 0.23202 0.90609 0.50984 0.0
H176 H 0.20607 0.76546 0.50928 0.0
H177 H 0.11453 0.67512 0.56797 0.0
H178 H 0.14092 0.81546 0.56902 0.0
H179 H 0.97028 0.17018 0.51015 0.0
H180 H 0.08886 0.15124 0.51075 0.0
H181 H 0.03486 0.95734 0.56627 0.0
H182 H 0.91369 0.97411 0.5651 0.0
H183 H 0.07614 0.914 0.53995 0.0
H184 H 0.20091 0.1636 0.57059 0.0
H185 H 0.22754 0.30403 0.57159 0.0
H186 H 0.32338 0.39722 0.51354 0.0
H187 H 0.29628 0.25709 0.51203 0.0
C188 C 0.4507 0.94791 0.55716 0.0
C189 C 0.49916 -0.00412 0.54144 0.0
C190 C 0.38337 0.95898 0.55717 0.0
C191 C 0.36168 0.01705 0.54114 0.0
C192 C 0.41184 0.06687 0.52581 0.0
C193 C 0.48012 0.05657 0.52599 0.0
C194 C 0.28653 0.02534 0.54029 0.0
C195 C 0.29663 0.10411 0.54003 0.0
C196 C 0.20574 0.95596 0.54034 0.0
C197 C 0.1891 0.87141 0.5396 0.0
C198 C 0.20681 0.85632 0.52269 0.0
C199 C 0.19197 0.77666 0.52228 0.0
C200 C 0.15885 0.71144 0.5386 0.0
C201 C 0.14025 0.7257 0.55534 0.0
C202 C 0.15505 0.80526 0.55584 0.0
C203 C 0.98359 0.12334 0.52245 0.0
C204 C 0.93325 0.07416 0.53772 0.0
C205 C 0.05185 0.1129 0.52288 0.0
C206 C 0.07263 0.05426 0.53891 0.0
C207 C 1.0208 0.00345 0.55382 0.0
C208 C 0.9516 0.0131 0.55319 0.0
C209 C 0.1481 0.04593 0.54006 0.0
C210 C 0.13809 0.96712 0.54037 0.0
C211 C 0.22902 0.11527 0.54013 0.0
C212 C 0.24586 0.19969 0.54109 0.0
C213 C 0.22716 0.21393 0.55796 0.0
C214 C 0.24241 0.29349 0.55863 0.0
C215 C 0.27695 0.35946 0.54261 0.0
C216 C 0.29654 0.34605 0.52592 0.0
C217 C 0.28133 0.26659 0.52517 0.0
H218 H 0.28868 0.421 0.54315 0.0
H219 H 0.14745 0.64983 0.53827 0.0
H220 H 1.01879 0.90502 0.88156 0.0
H221 H 0.16115 0.02001 0.88216 0.0
H222 H 0.05583 0.17889 0.83759 0.0
H223 H 0.9138 0.06299 0.83617 0.0
H224 H 0.18757 0.20508 0.8263 0.0
H225 H 0.1276 0.17972 0.89487 0.0
H226 H 0.08803 0.104 0.93006 0.0
H227 H 0.30353 0.05878 0.95162 0.0
H228 H 0.34344 0.1327 0.91637 0.0
H229 H 0.54335 0.59662 0.84114 0.0
H230 H 0.40363 0.4765 0.84018 0.0
H231 H 0.51776 0.32731 0.8863 0.0
H232 H 0.65666 0.44804 0.88808 0.0
H233 H 0.38366 0.29269 0.89697 0.0
H234 H 0.44667 0.31707 0.82986 0.0
H235 H 0.48733 0.38765 0.79459 0.0
H236 H 0.26947 0.42971 0.77034 0.0
H237 H 0.22812 0.3604 0.80559 0.0
C238 C 0.02625 0.96439 0.87179 0.0
C239 C 0.95555 0.97541 0.85886 0.0
C240 C 0.10751 0.03018 0.87225 0.0
C241 C 0.11918 0.10859 0.86021 0.0
C242 C 0.04841 0.11907 0.84704 0.0
C243 C 0.96732 0.05299 0.84632 0.0
C244 C 0.20479 0.1802 0.86138 0.0
C245 C 0.23009 0.22487 0.84174 0.0
C246 C 0.26131 0.20447 0.88156 0.0
C247 C 0.23808 0.16117 0.9029 0.0
C248 C 0.16625 0.15318 0.90706 0.0
C249 C 0.14373 0.1105 0.92701 0.0
C250 C 0.19304 0.07628 0.94302 0.0
C251 C 0.26524 0.08504 0.93916 0.0
C252 C 0.28785 0.12735 0.91921 0.0
C253 C 0.53832 0.53831 0.85118 0.0
C254 C 0.61057 0.53151 0.86471 0.0
C255 C 0.45864 0.46951 0.85049 0.0
C256 C 0.45021 0.39238 0.86292 0.0
C257 C 0.52255 0.38601 0.87656 0.0
C258 C 0.60192 0.45497 0.87749 0.0
C259 C 0.36618 0.31826 0.86186 0.0
C260 C 0.34125 0.27297 0.88151 0.0
C261 C 0.31029 0.29292 0.84171 0.0
C262 C 0.33475 0.33422 0.82044 0.0
C263 C 0.40775 0.34188 0.81706 0.0
C264 C 0.43088 0.3816 0.79707 0.0
C265 C 0.38114 0.41333 0.78026 0.0
C266 C 0.30801 0.4052 0.78339 0.0
C267 C 0.28466 0.36565 0.80336 0.0
H268 H 0.39916 0.44407 0.76479 0.0
H269 H 0.17546 0.0432 0.95845 0.0
H270 H 0.40266 0.69934 0.93819 0.0
H271 H 0.36836 0.71852 0.96827 0.0
H272 H 0.54052 0.97963 0.95892 0.0
H273 H 0.57371 0.96137 0.9285 0.0
H274 H 0.5544 0.8673 1.00502 0.0
H275 H 0.37521 0.96349 0.94543 0.0
H276 H 0.26441 0.95535 0.91154 0.0
H277 H 0.08334 0.73543 0.94268 0.0
H278 H 0.1934 0.74158 0.97668 0.0
H279 H 0.47496 0.96862 0.0872 0.0
H280 H 0.50218 0.97491 0.05287 0.0
H281 H 0.26311 0.75798 0.03878 0.0
H282 H 0.23275 0.75483 0.07228 0.0
H283 H 0.28624 0.85796 1.00295 0.0
H284 H 0.4616 0.75426 0.06142 0.0
H285 H 0.56991 0.75635 0.0956 0.0
H286 H 0.75549 -0.01945 0.067 0.0
H287 H 0.648 -0.01955 0.03277 0.0
C288 C 0.43273 0.76088 0.94248 0.0
C289 C 0.49085 0.82888 0.93105 0.0
C290 C 0.41275 0.77178 0.95952 0.0
C291 C 0.45152 0.85054 0.9656 0.0
C292 C 0.50946 0.91858 0.95425 0.0
C293 C 0.5281 0.90807 0.93689 0.0
C294 C 0.4356 0.86044 0.98479 0.0
C295 C 0.49645 0.86671 1.00457 0.0
C296 C 0.3589 0.85721 0.98414 0.0
C297 C 0.29302 0.85227 0.96352 0.0
C298 C 0.31215 0.91257 0.94495 0.0
C299 C 0.24932 0.90858 0.92575 0.0
C300 C 0.16691 0.84481 0.92493 0.0
C301 C 0.14719 0.78484 0.94333 0.0
C302 C 0.20978 0.78857 0.96257 0.0
C303 C 0.42739 0.92307 0.07664 0.0
C304 C 0.35204 0.86051 0.08272 0.0
C305 C 0.44362 0.92607 0.05711 0.0
C306 C 0.38571 0.8656 0.04345 0.0
C307 C 0.30926 0.80482 0.04912 0.0
C308 C 0.29243 0.80249 0.06846 0.0
C309 C 0.40501 0.86444 1.02347 0.0
C310 C 0.34464 0.8593 1.0035 0.0
C311 C 0.48189 0.8677 1.02399 0.0
C312 C 0.54648 0.86789 0.04462 0.0
C313 C 0.52533 0.80439 0.06249 0.0
C314 C 0.58663 0.80517 0.08186 0.0
C315 C 0.66948 0.86872 0.0835 0.0
C316 C 0.69126 0.9315 0.06574 0.0
C317 C 0.63019 0.9311 0.04635 0.0
H318 H 0.71687 0.86923 0.09851 0.0
H319 H 0.11832 0.84194 0.91007 0.0
H320 H 0.61921 -0.01799 0.462 0.0
H321 H 0.62293 0.02249 0.42326 0.0
H322 H 0.7627 0.28029 0.43197 0.0
H323 H 0.75552 0.24006 0.47036 0.0
H324 H 0.66035 0.27062 0.39469 0.0
H325 H 0.85146 0.15197 0.43204 0.0
H326 H 0.89199 0.04273 0.45387 0.0
H327 H 0.72373 0.8849 0.40487 0.0
H328 H 0.68048 -0.00773 0.38305 0.0
H329 H 0.87665 0.45037 0.30852 0.0
H330 H 0.83888 0.39557 0.34397 0.0
H331 H 0.66679 0.15608 0.3234 0.0
H332 H 0.70189 0.21086 0.28758 0.0
H333 H 0.77141 0.14694 0.3647 0.0
H334 H 0.58707 0.27019 0.32672 0.0
H335 H 0.55062 0.38189 0.30469 0.0
H336 H 0.71478 0.53545 0.35481 0.0
H337 H 0.75302 0.42502 0.37705 0.0
C338 C 0.65008 0.04732 0.45557 0.0
C339 C 0.68751 0.10783 0.46927 0.0
C340 C 0.65257 0.0705 0.43341 0.0
C341 C 0.69482 0.15461 0.42464 0.0
C342 C 0.72981 0.21502 0.43822 0.0
C343 C 0.72574 0.19195 0.46023 0.0
C344 C 0.70511 0.18036 0.4016 0.0
C345 C 0.68548 0.24396 0.38828 0.0
C346 C 0.73581 0.14441 0.39284 0.0
C347 C 0.76175 0.07974 0.40605 0.0
C348 C 0.82239 0.09361 0.42603 0.0
C349 C 0.84587 0.032 0.43842 0.0
C350 C 0.81017 0.95676 0.43082 0.0
C351 C 0.75092 0.94297 0.41082 0.0
C352 C 0.72674 0.00409 0.39846 0.0
C353 C 0.82969 0.38639 0.31131 0.0
C354 C 0.79236 0.33531 0.29501 0.0
C355 C 0.80842 0.35503 0.33168 0.0
C356 C 0.74957 0.27181 0.33631 0.0
C357 C 0.71249 0.22044 0.32021 0.0
C358 C 0.73314 0.2519 0.29975 0.0
C359 C 0.72855 0.23814 0.35817 0.0
C360 C 0.74591 0.17304 0.37117 0.0
C361 C 0.69669 0.2732 0.36674 0.0
C362 C 0.67349 0.33958 0.35346 0.0
C363 C 0.6159 0.32801 0.33297 0.0
C364 C 0.5948 0.39104 0.32047 0.0
C365 C 0.6306 0.46582 0.32831 0.0
C366 C 0.68722 0.47755 0.34874 0.0
C367 C 0.70853 0.41471 0.36132 0.0
H368 H 0.61443 0.51465 0.31857 0.0
H369 H 0.82847 0.90916 0.44041 0.0
H370 H 0.78122 0.70512 0.79276 0.0
H371 H 0.77629 0.73485 0.7537 0.0
H372 H 0.69012 0.91447 0.74514 0.0
H373 H 0.69009 0.88054 0.78422 0.0
H374 H 0.61545 0.84257 0.7112 0.0
H375 H 0.90666 0.97473 0.74752 0.0
H376 H 0.03424 -0.0188 0.7758 0.0
H377 H 1.02542 0.79079 0.75129 0.0
H378 H 0.89638 0.78169 0.72314 0.0
H379 H 0.74277 0.07226 0.61249 0.0
H380 H 0.74483 0.03294 0.65145 0.0
H381 H 0.75712 0.81195 0.65234 0.0
H382 H 0.7546 0.85056 0.61306 0.0
H383 H 0.86995 0.9038 0.68966 0.0
H384 H 0.57658 0.78803 0.65015 0.0
H385 H 0.45552 0.79824 0.62198 0.0
H386 H 0.47733 0.97959 0.65317 0.0
H387 H 0.59953 0.97154 0.68132 0.0
C388 C 0.76048 0.75037 0.7825 0.0
C389 C 0.73653 0.7909 0.79153 0.0
C390 C 0.75834 0.76795 0.76016 0.0
C391 C 0.73531 0.82889 0.74642 0.0
C392 C 0.70856 0.8675 0.75532 0.0
C393 C 0.7085 0.84814 0.77765 0.0
C394 C 0.74083 0.85318 0.72298 0.0
C395 C 0.67154 0.85678 0.7066 0.0
C396 C 0.81365 0.87141 0.71671 0.0
C397 C 0.89216 0.87773 0.7332 0.0
C398 C 0.93192 0.93417 0.74818 0.0
C399 C 1.00425 0.93808 0.76422 0.0
C400 C 0.03779 0.8863 0.76533 0.0
C401 C 0.99926 0.83079 0.75035 0.0
C402 C 0.92664 0.82631 0.73433 0.0
C403 C 0.74656 0.01549 0.6209 0.0
C404 C 0.74791 0.96425 0.6095 0.0
C405 C 0.7477 -0.00685 0.64323 0.0
C406 C 0.75057 0.91928 0.65478 0.0
C407 C 0.75502 0.86931 0.64373 0.0
C408 C 0.75317 0.8913 0.62126 0.0
C409 C 0.74458 0.89276 0.67808 0.0
C410 C 0.81386 0.88906 0.69437 0.0
C411 C 0.67261 0.87656 0.68429 0.0
C412 C 0.59757 0.8796 0.66775 0.0
C413 C 0.55583 0.8304 0.65093 0.0
C414 C 0.48701 0.8358 0.63497 0.0
C415 C 0.45884 0.88964 0.63576 0.0
C416 C 0.49924 0.93795 0.65257 0.0
C417 C 0.56824 0.93294 0.66855 0.0
H418 H 0.40566 0.89385 0.62336 0.0
H419 H 0.09362 0.88916 0.7778 0.0
H420 H 0.69713 0.66353 0.93188 0.0
H421 H 0.71732 0.63711 0.97163 0.0
H422 H 0.98658 0.74919 0.97899 0.0
H423 H 0.96615 0.77268 0.93921 0.0
H424 H 0.94475 0.61967 1.00751 0.0
H425 H 0.87873 0.84718 0.98576 0.0
H426 H 0.79573 0.92298 0.96579 0.0
H427 H 0.58839 0.73518 0.99447 0.0
H428 H 0.66974 0.65744 1.0144 0.0
H429 H 0.09913 0.72962 0.11256 0.0
H430 H 0.05314 0.73166 0.07322 0.0
H431 H 0.79821 0.55852 0.07929 0.0
H432 H 0.84441 0.55512 0.11936 0.0
H433 H 0.81806 0.70332 0.04474 0.0
H434 H 0.89763 0.48473 0.06945 0.0
H435 H 0.99093 0.42088 0.09073 0.0
H436 H 0.18398 0.60601 0.05691 0.0
H437 H 0.09248 0.6721 0.0357 0.0
C438 C 0.7607 0.68283 0.94196 0.0
C439 C 0.8301 0.7203 0.93237 0.0
C440 C 0.77224 0.66802 0.96475 0.0
C441 C 0.85364 0.69221 0.97848 0.0
C442 C 0.92304 0.72972 0.96886 0.0
C443 C 0.91138 0.74326 0.94608 0.0
C444 C 0.8667 0.67725 1.00282 0.0
C445 C 0.91752 0.6388 1.01557 0.0
C446 C 0.82948 0.69992 1.01352 0.0
C447 C 0.78003 0.746 1.00138 0.0
C448 C 0.81515 0.82158 0.98765 0.0
C449 C 0.76845 0.86494 0.97637 0.0
C450 C 0.68684 0.83377 0.97884 0.0
C451 C 0.65161 0.75909 0.99256 0.0
C452 C 0.69799 0.71537 1.00386 0.0
C453 C 0.03307 0.69175 0.10571 0.0
C454 C 0.97535 0.6421 0.11922 0.0
C455 C 1.007 0.69295 0.08311 0.0
C456 C 0.92242 0.64499 0.07331 0.0
C457 C 0.86391 0.59593 0.08658 0.0
C458 C 0.89035 0.59379 0.10943 0.0
C459 C 0.89688 0.64724 0.04917 0.0
C460 C 0.84405 0.68336 0.03653 0.0
C461 C 0.93328 0.62377 0.03854 0.0
C462 C 0.98829 0.58371 0.05108 0.0
C463 C 0.96022 0.51227 0.06666 0.0
C464 C 1.01278 0.47565 0.07871 0.0
C465 C 0.09341 0.50953 0.07521 0.0
C466 C 0.12153 0.57995 0.05961 0.0
C467 C 0.06931 0.61697 0.04756 0.0
H468 H 0.13402 0.48111 0.08455 0.0
H469 H 0.65114 0.86773 0.97023 0.0
H470 H 0.33307 0.74998 0.2519 0.0
H471 H 0.39969 0.76029 0.29076 0.0
H472 H 0.15603 0.60868 0.30645 0.0
H473 H 0.08869 0.5958 0.26759 0.0
H474 H 0.30693 0.80036 0.32163 0.0
H475 H 0.21984 0.50399 0.32391 0.0
H476 H 0.21495 0.39394 0.3101 0.0
H477 H 0.48539 0.51647 0.3224 0.0
H478 H 0.49169 0.62813 0.33586 0.0
H479 H 0.39748 0.72738 0.43704 0.0
H480 H 0.33471 0.71133 0.39839 0.0
H481 H 0.56817 0.74542 0.39124 0.0
H482 H 0.63129 0.76101 0.43009 0.0
H483 H 0.42807 0.61521 0.37106 0.0
H484 H 0.52621 0.89928 0.37066 0.0
H485 H 0.54992 0.02377 0.38194 0.0
H486 H 0.28303 0.94319 0.36405 0.0
H487 H 0.2577 0.81782 0.35276 0.0
C488 C 0.29359 0.71853 0.26361 0.0
C489 C 0.20564 0.67204 0.25671 0.0
C490 C 0.33181 0.72439 0.28578 0.0
C491 C 0.28269 0.68495 0.30137 0.0
C492 C 0.19484 0.63905 0.29459 0.0
C493 C 0.15661 0.63168 0.27244 0.0
C494 C 0.32355 0.69367 0.32468 0.0
C495 C 0.33201 0.75903 0.3326 0.0
C496 C 0.35999 0.64231 0.33852 0.0
C497 C 0.35613 0.57495 0.33058 0.0
C498 C 0.27817 0.50801 0.32339 0.0
C499 C 0.27516 0.44522 0.31569 0.0
C500 C 0.34981 0.44838 0.31529 0.0
C501 C 0.42762 0.51421 0.32266 0.0
C502 C 0.43094 0.57724 0.33032 0.0
C503 C 0.43516 0.73062 0.42728 0.0
C504 C 0.51922 0.74533 0.43655 0.0
C505 C 0.39946 0.72206 0.40518 0.0
C506 C 0.44694 0.72764 0.39193 0.0
C507 C 0.53048 0.74089 0.4012 0.0
C508 C 0.56656 0.75028 0.4233 0.0
C509 C 0.40888 0.72025 0.36836 0.0
C510 C 0.40201 0.65599 0.36025 0.0
C511 C 0.37561 0.77393 0.35418 0.0
C512 C 0.39003 0.84869 0.36111 0.0
C513 C 0.47254 0.90771 0.36934 0.0
C514 C 0.48631 0.97853 0.37569 0.0
C515 C 0.41804 -0.0088 0.37383 0.0
C516 C 0.33586 0.93319 0.36553 0.0
C517 C 0.32176 0.8623 0.35911 0.0
H518 H 0.42884 0.04609 0.37874 0.0
H519 H 0.3474 0.39972 0.30933 0.0
H520 H 0.07013 0.59155 0.79889 0.0
H521 H 0.0592 0.54435 0.76656 0.0
H522 H 0.84945 0.59668 0.73152 0.0
H523 H 0.85996 0.64391 0.76366 0.0
H524 H 0.92067 0.41346 0.7459 0.0
H525 H 0.86173 0.66414 0.67779 0.0
H526 H 0.90377 0.81382 0.67115 0.0
H527 H 0.13315 0.85613 0.72053 0.0
H528 H 0.09268 0.7068 0.7274 0.0
H529 H 0.73151 0.28662 0.63989 0.0
H530 H 0.76558 0.34027 0.67345 0.0
H531 H 1.01659 0.51378 0.66413 0.0
H532 H 0.98279 0.46081 0.63054 0.0
H533 H 0.93842 0.58686 0.67279 0.0
H534 H 0.99128 0.35044 0.70235 0.0
H535 H 0.95606 0.20289 0.70777 0.0
H536 H 0.75087 0.13462 0.73542 0.0
H537 H 0.78409 0.28174 0.72987 0.0
C538 C 1.02238 0.59392 0.7842 0.0
C539 C 0.96582 0.6213 0.78384 0.0
C540 C 1.0159 0.5665 0.76582 0.0
C541 C 0.95374 0.56732 0.74666 0.0
C542 C 0.89817 0.59597 0.74611 0.0
C543 C 0.90383 0.62225 0.76455 0.0
C544 C 0.94441 0.53501 0.72749 0.0
C545 C 0.92481 0.45138 0.72992 0.0
C546 C 0.95015 0.58468 0.7067 0.0
C547 C 0.97382 0.67418 0.70321 0.0
C548 C 0.92113 0.7054 0.68723 0.0
C549 C 0.94472 0.79018 0.68341 0.0
C550 C 1.02114 0.84445 0.69538 0.0
C551 C 0.07401 0.81401 0.71125 0.0
C552 C 0.05054 0.72923 0.71521 0.0
C553 C 0.7939 0.33621 0.64503 0.0
C554 C 0.85454 0.36962 0.63264 0.0
C555 C 0.81344 0.36635 0.66424 0.0
C556 C 0.89374 0.43062 0.6713 0.0
C557 C 0.95436 0.46399 0.65897 0.0
C558 C 0.93514 0.4334 0.63988 0.0
C559 C 0.91365 0.46515 0.69112 0.0
C560 C 0.93463 0.54901 0.68879 0.0
C561 C 0.90944 0.41571 0.71199 0.0
C562 C 0.88975 0.32717 0.71551 0.0
C563 C 0.93823 0.30395 0.70943 0.0
C564 C 0.9187 0.22037 0.71255 0.0
C565 C 0.85113 0.15938 0.72188 0.0
C566 C 0.80313 0.18192 0.72817 0.0
C567 C 0.82235 0.26541 0.72506 0.0
H568 H 0.83608 0.09471 0.72428 0.0
H569 H 0.03919 0.91002 0.69244 0.0
loop_
_geom_bond_atom_site_label_1
_geom_bond_atom_site_label_2
_geom_bond_distance
_geom_bond_site_symmetry_2
_ccdc_geom_bond_type
Ho0 C3 2.811 . S
Ho0 O20 2.322 1_655 S
Ho0 O22 2.378 . S
Ho0 O23 2.524 . S
Ho0 O24 2.381 . S
Ho0 O25 2.669 1_655 S
Ho0 O27 2.346 . S
Ho0 O31 2.305 . S
Ho1 C12 2.811 . S
Ho1 O21 2.346 . S
Ho1 O25 2.305 . S
Ho1 O26 2.322 1_455 S
Ho1 O28 2.378 . S
Ho1 O29 2.524 . S
Ho1 O30 2.381 . S
Ho1 O31 2.669 1_455 S
C2 O20 1.259 . S
C2 O21 1.268 . S
C3 Ho0 2.811 . S
C3 C4 1.488 . S
C3 O22 1.215 . S
C3 O23 1.289 . S
C4 C3 1.488 . S
C4 C5 1.348 . S
C4 C9 1.413 . S
C5 C4 1.348 . S
C5 C6 1.442 . S
C5 H32 0.930 . S
C6 C5 1.442 . S
C6 C7 1.381 . S
C6 H33 0.931 . S
C7 C6 1.381 . S
C7 C8 1.321 . S
C8 C7 1.321 . S
C8 C9 1.403 . S
C8 H34 0.934 . S
C9 C4 1.413 . S
C9 C8 1.403 . S
C9 H35 0.930 . S
C10 O24 1.275 . S
C10 O25 1.256 1_655 S
C11 O26 1.259 . S
C11 O27 1.268 . S
C12 Ho1 2.811 . S
C12 C13 1.488 . S
C12 O28 1.215 . S
C12 O29 1.289 . S
C13 C12 1.488 . S
C13 C14 1.348 . S
C13 C18 1.413 . S
C14 C13 1.348 . S
C14 C15 1.442 . S
C14 H36 0.930 . S
C15 C14 1.442 . S
C15 C16 1.381 . S
C15 H37 0.931 . S
C16 C15 1.381 . S
C16 C17 1.321 . S
C17 C16 1.321 . S
C17 C18 1.403 . S
C17 H38 0.934 . S
C18 C13 1.413 . S
C18 C17 1.403 . S
C18 H39 0.930 . S
C19 O30 1.275 . S
C19 O31 1.256 1_455 S
O20 Ho0 2.322 1_455 S
O20 C2 1.259 . S
O21 Ho1 2.346 . S
O21 C2 1.268 . S
O22 Ho0 2.378 . S
O22 C3 1.215 . S
O23 Ho0 2.524 . S
O23 C3 1.289 . S
O24 Ho0 2.381 . S
O24 C10 1.275 . S
O25 Ho0 2.669 1_455 S
O25 Ho1 2.305 . S
O25 C10 1.256 1_455 S
O26 Ho1 2.322 1_655 S
O26 C11 1.259 . S
O27 Ho0 2.346 . S
O27 C11 1.268 . S
O28 Ho1 2.378 . S
O28 C12 1.215 . S
O29 Ho1 2.524 . S
O29 C12 1.289 . S
O30 Ho1 2.381 . S
O30 C19 1.275 . S
O31 Ho0 2.305 . S
O31 Ho1 2.669 1_655 S
O31 C19 1.256 1_655 S
H32 C5 0.930 . S
H33 C6 0.931 . S
H34 C8 0.934 . S
H35 C9 0.930 . S
H36 C14 0.930 . S
H37 C15 0.931 . S
H38 C17 0.934 . S
H39 C18 0.930 . S
Ho40 C43 2.811 . S
Ho40 O60 2.322 . S
Ho40 O62 2.378 . S
Ho40 O63 2.524 . S
Ho40 O64 2.381 . S
Ho40 O65 2.669 1_545 S
Ho40 O67 2.346 . S
Ho40 O71 2.305 . S
Ho41 C52 2.811 . S
Ho41 O61 2.346 . S
Ho41 O65 2.305 . S
Ho41 O66 2.322 1_565 S
Ho41 O68 2.378 . S
Ho41 O69 2.524 . S
Ho41 O70 2.381 . S
Ho41 O71 2.669 1_565 S
C42 O60 1.259 1_565 S
C42 O61 1.268 . S
C43 Ho40 2.811 . S
C43 C44 1.488 . S
C43 O62 1.215 . S
C43 O63 1.289 . S
C44 C43 1.488 . S
C44 C45 1.348 . S
C44 C49 1.413 . S
C45 C44 1.348 . S
C45 C46 1.442 . S
C45 H72 0.930 . S
C46 C45 1.442 . S
C46 C47 1.381 . S
C46 H73 0.931 . S
C47 C46 1.381 . S
C47 C48 1.321 . S
C48 C47 1.321 . S
C48 C49 1.403 . S
C48 H74 0.934 . S
C49 C44 1.413 . S
C49 C48 1.403 . S
C49 H75 0.930 . S
C50 O64 1.275 . S
C50 O65 1.256 1_545 S
C51 O66 1.259 . S
C51 O67 1.268 . S
C52 Ho41 2.811 . S
C52 C53 1.488 . S
C52 O68 1.215 . S
C52 O69 1.289 . S
C53 C52 1.488 . S
C53 C54 1.348 . S
C53 C58 1.413 . S
C54 C53 1.348 . S
C54 C55 1.442 . S
C54 H76 0.930 . S
C55 C54 1.442 . S
C55 C56 1.381 . S
C55 H77 0.931 . S
C56 C55 1.381 . S
C56 C57 1.321 . S
C57 C56 1.321 . S
C57 C58 1.403 . S
C57 H78 0.934 . S
C58 C53 1.413 . S
C58 C57 1.403 . S
C58 H79 0.930 . S
C59 O70 1.275 . S
C59 O71 1.256 1_565 S
O60 Ho40 2.322 . S
O60 C42 1.259 1_545 S
O61 Ho41 2.346 . S
O61 C42 1.268 . S
O62 Ho40 2.378 . S
O62 C43 1.215 . S
O63 Ho40 2.524 . S
O63 C43 1.289 . S
O64 Ho40 2.381 . S
O64 C50 1.275 . S
O65 Ho40 2.669 1_565 S
O65 Ho41 2.305 . S
O65 C50 1.256 1_565 S
O66 Ho41 2.322 1_545 S
O66 C51 1.259 . S
O67 Ho40 2.346 . S
O67 C51 1.268 . S
O68 Ho41 2.378 . S
O68 C52 1.215 . S
O69 Ho41 2.524 . S
O69 C52 1.289 . S
O70 Ho41 2.381 . S
O70 C59 1.275 . S
O71 Ho40 2.305 . S
O71 Ho41 2.669 1_545 S
O71 C59 1.256 1_545 S
H72 C45 0.930 . S
H73 C46 0.931 . S
H74 C48 0.934 . S
H75 C49 0.930 . S
H76 C54 0.930 . S
H77 C55 0.931 . S
H78 C57 0.934 . S
H79 C58 0.930 . S
Ho80 C83 2.811 . S
Ho80 O100 2.322 . S
Ho80 O102 2.378 . S
Ho80 O103 2.524 . S
Ho80 O104 2.381 1_565 S
Ho80 O105 2.669 . S
Ho80 O107 2.346 . S
Ho80 O111 2.305 . S
Ho81 C92 2.811 . S
Ho81 O101 2.346 . S
Ho81 O105 2.305 . S
Ho81 O106 2.322 . S
Ho81 O108 2.378 . S
Ho81 O109 2.524 . S
Ho81 O110 2.381 . S
Ho81 O111 2.669 . S
C82 O100 1.259 . S
C82 O101 1.268 . S
C83 Ho80 2.811 . S
C83 C84 1.488 . S
C83 O102 1.215 . S
C83 O103 1.289 . S
C84 C83 1.488 . S
C84 C85 1.348 . S
C84 C89 1.413 1_565 S
C85 C84 1.348 . S
C85 C86 1.442 . S
C85 H112 0.930 . S
C86 C85 1.442 . S
C86 C87 1.381 . S
C86 H113 0.931 . S
C87 C86 1.381 . S
C87 C88 1.321 1_565 S
C88 C87 1.321 1_545 S
C88 C89 1.403 . S
C88 H114 0.934 . S
C89 C84 1.413 1_545 S
C89 C88 1.403 . S
C89 H115 0.930 . S
C90 O104 1.275 1_565 S
C90 O105 1.256 . S
C91 O106 1.259 . S
C91 O107 1.268 . S
C92 Ho81 2.811 . S
C92 C93 1.488 . S
C92 O108 1.215 . S
C92 O109 1.289 . S
C93 C92 1.488 . S
C93 C94 1.348 . S
C93 C98 1.413 . S
C94 C93 1.348 . S
C94 C95 1.442 . S
C94 H116 0.930 . S
C95 C94 1.442 . S
C95 C96 1.381 . S
C95 H117 0.931 1_655 S
C96 C95 1.381 . S
C96 C97 1.321 . S
C97 C96 1.321 . S
C97 C98 1.403 . S
C97 H118 0.934 . S
C98 C93 1.413 . S
C98 C97 1.403 . S
C98 H119 0.930 . S
C99 O110 1.275 . S
C99 O111 1.256 . S
O100 Ho80 2.322 . S
O100 C82 1.259 . S
O101 Ho81 2.346 . S
O101 C82 1.268 . S
O102 Ho80 2.378 . S
O102 C83 1.215 . S
O103 Ho80 2.524 . S
O103 C83 1.289 . S
O104 Ho80 2.381 1_545 S
O104 C90 1.275 1_545 S
O105 Ho80 2.669 . S
O105 Ho81 2.305 . S
O105 C90 1.256 . S
O106 Ho81 2.322 . S
O106 C91 1.259 . S
O107 Ho80 2.346 . S
O107 C91 1.268 . S
O108 Ho81 2.378 . S
O108 C92 1.215 . S
O109 Ho81 2.524 . S
O109 C92 1.289 . S
O110 Ho81 2.381 . S
O110 C99 1.275 . S
O111 Ho80 2.305 . S
O111 Ho81 2.669 . S
O111 C99 1.256 . S
H112 C85 0.930 . S
H113 C86 0.931 . S
H114 C88 0.934 . S
H115 C89 0.930 . S
H116 C94 0.930 . S
H117 C95 0.931 1_455 S
H118 C97 0.934 . S
H119 C98 0.930 . S
H120 C138 0.951 . S
H121 C140 0.951 . S
H122 C142 0.950 . S
H123 C143 0.950 . S
H124 C145 0.950 . S
H125 C148 0.950 . S
H126 C149 0.950 . S
H127 C151 0.950 1_655 S
H128 C152 0.950 . S
H129 C153 0.951 . S
H130 C155 0.951 . S
H131 C157 0.950 . S
H132 C158 0.950 . S
H133 C160 0.950 . S
H134 C163 0.950 . S
H135 C164 0.950 . S
H136 C166 0.950 1_455 S
H137 C167 0.950 . S
C138 H120 0.951 . S
C138 C139 1.366 1_655 S
C138 C140 1.388 . S
C139 C138 1.366 1_455 S
C139 C143 1.385 . S
C140 H121 0.951 . S
C140 C138 1.388 . S
C140 C141 1.366 1_655 S
C141 C140 1.366 1_455 S
C141 C142 1.414 . S
C141 C144 1.499 1_565 S
C142 H122 0.950 . S
C142 C141 1.414 . S
C142 C143 1.374 . S
C143 H123 0.950 . S
C143 C139 1.385 . S
C143 C142 1.374 . S
C144 C141 1.499 1_545 S
C144 C145 1.373 1_455 S
C144 C146 1.389 . S
C145 H124 0.950 . S
C145 C144 1.373 1_655 S
C145 C161 1.377 . S
C146 C144 1.389 . S
C146 C147 1.524 . S
C146 C160 1.377 . S
C147 C146 1.524 . S
C147 C148 1.397 . S
C147 C152 1.363 1_455 S
C148 H125 0.950 . S
C148 C147 1.397 . S
C148 C149 1.334 . S
C149 H126 0.950 . S
C149 C148 1.334 . S
C149 C150 1.287 . S
C150 C149 1.287 . S
C150 C151 1.524 . S
C150 H169 0.913 . S
C151 H127 0.950 1_455 S
C151 C150 1.524 . S
C151 C152 1.415 1_455 S
C152 H128 0.950 . S
C152 C147 1.363 1_655 S
C152 C151 1.415 1_655 S
C153 H129 0.951 . S
C153 C154 1.366 1_455 S
C153 C155 1.388 . S
C154 C153 1.366 1_655 S
C154 C158 1.385 . S
C155 H130 0.951 . S
C155 C153 1.388 . S
C155 C156 1.366 1_455 S
C156 C155 1.366 1_655 S
C156 C157 1.414 . S
C156 C159 1.499 . S
C157 H131 0.950 . S
C157 C156 1.414 . S
C157 C158 1.374 . S
C158 H132 0.950 . S
C158 C154 1.385 . S
C158 C157 1.374 . S
C159 C156 1.499 . S
C159 C160 1.373 1_655 S
C159 C161 1.389 . S
C160 H133 0.950 . S
C160 C146 1.377 . S
C160 C159 1.373 1_455 S
C161 C145 1.377 . S
C161 C159 1.389 . S
C161 C162 1.524 . S
C162 C161 1.524 . S
C162 C163 1.397 . S
C162 C167 1.363 1_655 S
C163 H134 0.950 . S
C163 C162 1.397 . S
C163 C164 1.334 . S
C164 H135 0.950 . S
C164 C163 1.334 . S
C164 C165 1.287 . S
C165 C164 1.287 . S
C165 C166 1.524 . S
C165 H168 0.999 . S
C166 H136 0.950 1_655 S
C166 C165 1.524 . S
C166 C167 1.415 1_655 S
C167 H137 0.950 . S
C167 C162 1.363 1_455 S
C167 C166 1.415 1_455 S
H168 C165 0.999 . S
H169 C150 0.913 . S
H170 C188 0.951 . S
H171 C190 0.951 . S
H172 C192 0.950 . S
H173 C193 0.950 . S
H174 C195 0.950 . S
H175 C198 0.950 . S
H176 C199 0.950 . S
H177 C201 0.950 . S
H178 C202 0.950 . S
H179 C203 0.951 . S
H180 C205 0.951 . S
H181 C207 0.950 . S
H182 C208 0.950 . S
H183 C210 0.950 . S
H184 C213 0.950 . S
H185 C214 0.950 . S
H186 C216 0.950 . S
H187 C217 0.950 . S
C188 H170 0.951 . S
C188 C189 1.366 . S
C188 C190 1.388 . S
C189 C188 1.366 . S
C189 C193 1.385 1_545 S
C190 H171 0.951 . S
C190 C188 1.388 . S
C190 C191 1.366 . S
C191 C190 1.366 . S
C191 C192 1.414 1_545 S
C191 C194 1.506 1_545 S
C192 H172 0.950 . S
C192 C191 1.414 1_565 S
C192 C193 1.374 . S
C193 H173 0.950 . S
C193 C189 1.385 1_565 S
C193 C192 1.374 . S
C194 C191 1.506 1_565 S
C194 C195 1.364 1_565 S
C194 C196 1.390 . S
C195 H174 0.950 . S
C195 C194 1.364 1_545 S
C195 C211 1.377 . S
C196 C194 1.390 . S
C196 C197 1.524 . S
C196 C210 1.377 . S
C197 C196 1.524 . S
C197 C198 1.397 . S
C197 C202 1.363 . S
C198 H175 0.950 . S
C198 C197 1.397 . S
C198 C199 1.334 . S
C199 H176 0.950 . S
C199 C198 1.334 . S
C199 C200 1.287 . S
C200 C199 1.287 . S
C200 C201 1.524 . S
C200 H219 0.913 . S
C201 H177 0.950 . S
C201 C200 1.524 . S
C201 C202 1.415 . S
C202 H178 0.950 . S
C202 C197 1.363 . S
C202 C201 1.415 . S
C203 H179 0.951 . S
C203 C204 1.366 1_565 S
C203 C205 1.388 . S
C204 C203 1.366 1_545 S
C204 C208 1.385 . S
C205 H180 0.951 . S
C205 C203 1.388 . S
C205 C206 1.366 1_665 S
C206 C205 1.366 1_445 S
C206 C207 1.414 . S
C206 C209 1.499 . S
C207 H181 0.950 . S
C207 C206 1.414 . S
C207 C208 1.374 1_455 S
C208 H182 0.950 . S
C208 C204 1.385 . S
C208 C207 1.374 1_655 S
C209 C206 1.499 . S
C209 C210 1.373 1_545 S
C209 C211 1.389 . S
C210 H183 0.950 . S
C210 C196 1.377 . S
C210 C209 1.373 1_565 S
C211 C195 1.377 . S
C211 C209 1.389 . S
C211 C212 1.524 . S
C212 C211 1.524 . S
C212 C213 1.397 . S
C212 C217 1.363 . S
C213 H184 0.950 . S
C213 C212 1.397 . S
C213 C214 1.334 . S
C214 H185 0.950 . S
C214 C213 1.334 . S
C214 C215 1.287 . S
C215 C214 1.287 . S
C215 C216 1.524 . S
C215 H218 0.999 . S
C216 H186 0.950 . S
C216 C215 1.524 . S
C216 C217 1.415 . S
C217 H187 0.950 . S
C217 C212 1.363 . S
C217 C216 1.415 . S
H218 C215 0.999 . S
H219 C200 0.913 . S
H220 C238 0.951 1_565 S
H221 C240 0.951 . S
H222 C242 0.950 . S
H223 C243 0.950 . S
H224 C245 0.950 . S
H225 C248 0.950 . S
H226 C249 0.950 . S
H227 C251 0.950 . S
H228 C252 0.950 . S
H229 C253 0.951 . S
H230 C255 0.951 . S
H231 C257 0.950 . S
H232 C258 0.950 . S
H233 C260 0.950 . S
H234 C263 0.950 . S
H235 C264 0.950 . S
H236 C266 0.950 . S
H237 C267 0.950 . S
C238 H220 0.951 1_545 S
C238 C239 1.366 1_455 S
C238 C240 1.388 . S
C239 C238 1.366 1_655 S
C239 C243 1.385 . S
C240 H221 0.951 . S
C240 C238 1.388 . S
C240 C241 1.366 . S
C241 C240 1.366 . S
C241 C242 1.414 . S
C241 C244 1.499 . S
C242 H222 0.950 . S
C242 C241 1.414 . S
C242 C243 1.374 1_455 S
C243 H223 0.950 . S
C243 C239 1.385 . S
C243 C242 1.374 1_655 S
C244 C241 1.499 . S
C244 C245 1.373 . S
C244 C246 1.389 . S
C245 H224 0.950 . S
C245 C244 1.373 . S
C245 C261 1.377 . S
C246 C244 1.389 . S
C246 C247 1.524 . S
C246 C260 1.377 . S
C247 C246 1.524 . S
C247 C248 1.397 . S
C247 C252 1.363 . S
C248 H225 0.950 . S
C248 C247 1.397 . S
C248 C249 1.334 . S
C249 H226 0.950 . S
C249 C248 1.334 . S
C249 C250 1.287 . S
C250 C249 1.287 . S
C250 C251 1.524 . S
C250 H269 0.913 . S
C251 H227 0.950 . S
C251 C250 1.524 . S
C251 C252 1.415 . S
C252 H228 0.950 . S
C252 C247 1.363 . S
C252 C251 1.415 . S
C253 H229 0.951 . S
C253 C254 1.366 . S
C253 C255 1.388 . S
C254 C253 1.366 . S
C254 C258 1.385 . S
C255 H230 0.951 . S
C255 C253 1.388 . S
C255 C256 1.366 . S
C256 C255 1.366 . S
C256 C257 1.414 . S
C256 C259 1.499 . S
C257 H231 0.950 . S
C257 C256 1.414 . S
C257 C258 1.374 . S
C258 H232 0.950 . S
C258 C254 1.385 . S
C258 C257 1.374 . S
C259 C256 1.499 . S
C259 C260 1.373 . S
C259 C261 1.389 . S
C260 H233 0.950 . S
C260 C246 1.377 . S
C260 C259 1.373 . S
C261 C245 1.377 . S
C261 C259 1.389 . S
C261 C262 1.524 . S
C262 C261 1.524 . S
C262 C263 1.397 . S
C262 C267 1.363 . S
C263 H234 0.950 . S
C263 C262 1.397 . S
C263 C264 1.334 . S
C264 H235 0.950 . S
C264 C263 1.334 . S
C264 C265 1.287 . S
C265 C264 1.287 . S
C265 C266 1.524 . S
C265 H268 0.999 . S
C266 H236 0.950 . S
C266 C265 1.524 . S
C266 C267 1.415 . S
C267 H237 0.950 . S
C267 C262 1.363 . S
C267 C266 1.415 . S
H268 C265 0.999 . S
H269 C250 0.913 . S
H270 C288 0.951 . S
H271 C290 0.951 . S
H272 C292 0.950 . S
H273 C293 0.950 . S
H274 C295 0.950 . S
H275 C298 0.950 1_545 S
H276 C299 0.950 1_545 S
H277 C301 0.950 . S
H278 C302 0.950 . S
H279 C303 0.951 . S
H280 C305 0.951 . S
H281 C307 0.950 . S
H282 C308 0.950 . S
H283 C310 0.950 . S
H284 C313 0.950 . S
H285 C314 0.950 . S
H286 C316 0.950 . S
H287 C317 0.945 1_545 S
C288 H270 0.951 . S
C288 C289 1.366 . S
C288 C290 1.388 . S
C289 C288 1.366 . S
C289 C293 1.385 1_565 S
C290 H271 0.951 . S
C290 C288 1.388 . S
C290 C291 1.366 . S
C291 C290 1.366 . S
C291 C292 1.414 1_565 S
C291 C294 1.499 . S
C292 H272 0.950 . S
C292 C291 1.414 1_545 S
C292 C293 1.374 . S
C293 H273 0.950 . S
C293 C289 1.385 1_545 S
C293 C292 1.374 . S
C294 C291 1.499 . S
C294 C295 1.373 . S
C294 C296 1.389 . S
C295 H274 0.950 . S
C295 C294 1.373 . S
C295 C311 1.377 1_556 S
C296 C294 1.389 . S
C296 C297 1.524 . S
C296 C310 1.377 . S
C297 C296 1.524 . S
C297 C298 1.397 . S
C297 C302 1.363 . S
C298 H275 0.950 1_565 S
C298 C297 1.397 . S
C298 C299 1.334 . S
C299 H276 0.950 1_565 S
C299 C298 1.334 . S
C299 C300 1.287 . S
C300 C299 1.287 . S
C300 C301 1.524 . S
C300 H319 0.913 . S
C301 H277 0.950 . S
C301 C300 1.524 . S
C301 C302 1.415 . S
C302 H278 0.950 . S
C302 C297 1.363 . S
C302 C301 1.415 . S
C303 H279 0.951 . S
C303 C304 1.366 . S
C303 C305 1.388 . S
C304 C303 1.366 . S
C304 C308 1.385 . S
C305 H280 0.951 . S
C305 C303 1.388 . S
C305 C306 1.366 . S
C306 C305 1.366 . S
C306 C307 1.414 . S
C306 C309 1.511 . S
C307 H281 0.950 . S
C307 C306 1.414 . S
C307 C308 1.374 . S
C308 H282 0.950 . S
C308 C304 1.385 . S
C308 C307 1.374 . S
C309 C306 1.511 . S
C309 C310 1.361 1_554 S
C309 C311 1.389 . S
C310 H283 0.950 . S
C310 C296 1.377 . S
C310 C309 1.361 1_556 S
C311 C295 1.377 1_554 S
C311 C309 1.389 . S
C311 C312 1.524 . S
C312 C311 1.524 . S
C312 C313 1.397 . S
C312 C317 1.368 . S
C313 H284 0.950 . S
C313 C312 1.397 . S
C313 C314 1.334 . S
C314 H285 0.950 . S
C314 C313 1.334 . S
C314 C315 1.287 . S
C315 C314 1.287 . S
C315 C316 1.524 1_565 S
C315 H318 0.999 . S
C316 H286 0.950 . S
C316 C315 1.524 1_545 S
C316 C317 1.416 1_545 S
C317 H287 0.945 1_565 S
C317 C312 1.368 . S
C317 C316 1.416 1_565 S
H318 C315 0.999 . S
H319 C300 0.913 . S
H320 C338 0.951 . S
H321 C340 0.951 . S
H322 C342 0.950 . S
H323 C343 0.950 . S
H324 C345 0.950 . S
H325 C348 0.950 . S
H326 C349 0.950 . S
H327 C351 0.950 . S
H328 C352 0.950 . S
H329 C353 0.951 . S
H330 C355 0.951 . S
H331 C357 0.950 . S
H332 C358 0.950 . S
H333 C360 0.950 . S
H334 C363 0.950 . S
H335 C364 0.950 . S
H336 C366 0.950 . S
H337 C367 0.950 . S
C338 H320 0.951 . S
C338 C339 1.366 . S
C338 C340 1.388 . S
C339 C338 1.366 . S
C339 C343 1.385 . S
C340 H321 0.951 . S
C340 C338 1.388 . S
C340 C341 1.366 . S
C341 C340 1.366 . S
C341 C342 1.414 . S
C341 C344 1.499 . S
C342 H322 0.950 . S
C342 C341 1.414 . S
C342 C343 1.374 . S
C343 H323 0.950 . S
C343 C339 1.385 . S
C343 C342 1.374 . S
C344 C341 1.499 . S
C344 C345 1.373 . S
C344 C346 1.389 . S
C345 H324 0.950 . S
C345 C344 1.373 . S
C345 C361 1.377 . S
C346 C344 1.389 . S
C346 C347 1.524 . S
C346 C360 1.377 . S
C347 C346 1.524 . S
C347 C348 1.397 . S
C347 C352 1.363 . S
C348 H325 0.950 . S
C348 C347 1.397 . S
C348 C349 1.334 1_545 S
C349 H326 0.950 . S
C349 C348 1.334 1_565 S
C349 C350 1.287 . S
C350 C349 1.287 . S
C350 C351 1.524 . S
C350 H369 0.913 . S
C351 H327 0.950 . S
C351 C350 1.524 . S
C351 C352 1.415 1_565 S
C352 H328 0.950 . S
C352 C347 1.363 . S
C352 C351 1.415 1_545 S
C353 H329 0.951 . S
C353 C354 1.366 . S
C353 C355 1.388 . S
C354 C353 1.366 . S
C354 C358 1.385 . S
C355 H330 0.951 . S
C355 C353 1.388 . S
C355 C356 1.366 . S
C356 C355 1.366 . S
C356 C357 1.414 . S
C356 C359 1.499 . S
C357 H331 0.950 . S
C357 C356 1.414 . S
C357 C358 1.374 . S
C358 H332 0.950 . S
C358 C354 1.385 . S
C358 C357 1.374 . S
C359 C356 1.499 . S
C359 C360 1.373 . S
C359 C361 1.389 . S
C360 H333 0.950 . S
C360 C346 1.377 . S
C360 C359 1.373 . S
C361 C345 1.377 . S
C361 C359 1.389 . S
C361 C362 1.524 . S
C362 C361 1.524 . S
C362 C363 1.397 . S
C362 C367 1.363 . S
C363 H334 0.950 . S
C363 C362 1.397 . S
C363 C364 1.334 . S
C364 H335 0.950 . S
C364 C363 1.334 . S
C364 C365 1.287 . S
C365 C364 1.287 . S
C365 C366 1.524 . S
C365 H368 0.999 . S
C366 H336 0.950 . S
C366 C365 1.524 . S
C366 C367 1.415 . S
C367 H337 0.950 . S
C367 C362 1.363 . S
C367 C366 1.415 . S
H368 C365 0.999 . S
H369 C350 0.913 . S
H370 C388 0.951 . S
H371 C390 0.951 . S
H372 C392 0.950 . S
H373 C393 0.950 . S
H374 C395 0.950 . S
H375 C398 0.950 . S
H376 C399 0.950 1_455 S
H377 C401 0.950 . S
H378 C402 0.950 . S
H379 C403 0.951 1_545 S
H380 C405 0.951 1_545 S
H381 C407 0.950 . S
H382 C408 0.950 . S
H383 C410 0.950 . S
H384 C413 0.950 . S
H385 C414 0.950 . S
H386 C416 0.950 1_545 S
H387 C417 0.950 1_545 S
C388 H370 0.951 . S
C388 C389 1.366 . S
C388 C390 1.388 . S
C389 C388 1.366 . S
C389 C393 1.385 . S
C390 H371 0.951 . S
C390 C388 1.388 . S
C390 C391 1.366 . S
C391 C390 1.366 . S
C391 C392 1.414 . S
C391 C394 1.499 . S
C392 H372 0.950 . S
C392 C391 1.414 . S
C392 C393 1.374 . S
C393 H373 0.950 . S
C393 C389 1.385 . S
C393 C392 1.374 . S
C394 C391 1.499 . S
C394 C395 1.373 . S
C394 C396 1.389 . S
C395 H374 0.950 . S
C395 C394 1.373 . S
C395 C411 1.377 . S
C396 C394 1.389 . S
C396 C397 1.524 . S
C396 C410 1.377 . S
C397 C396 1.524 . S
C397 C398 1.397 . S
C397 C402 1.363 . S
C398 H375 0.950 . S
C398 C397 1.397 . S
C398 C399 1.334 . S
C399 H376 0.950 1_655 S
C399 C398 1.334 . S
C399 C400 1.287 . S
C400 C399 1.287 . S
C400 C401 1.524 . S
C400 H419 0.913 1_655 S
C401 H377 0.950 . S
C401 C400 1.524 . S
C401 C402 1.415 . S
C402 H378 0.950 . S
C402 C397 1.363 . S
C402 C401 1.415 . S
C403 H379 0.951 1_565 S
C403 C404 1.366 . S
C403 C405 1.388 . S
C404 C403 1.366 . S
C404 C408 1.385 . S
C405 H380 0.951 1_565 S
C405 C403 1.388 . S
C405 C406 1.366 . S
C406 C405 1.366 . S
C406 C407 1.414 . S
C406 C409 1.499 . S
C407 H381 0.950 . S
C407 C406 1.414 . S
C407 C408 1.374 . S
C408 H382 0.950 . S
C408 C404 1.385 . S
C408 C407 1.374 . S
C409 C406 1.499 . S
C409 C410 1.373 . S
C409 C411 1.389 . S
C410 H383 0.950 . S
C410 C396 1.377 . S
C410 C409 1.373 . S
C411 C395 1.377 . S
C411 C409 1.389 . S
C411 C412 1.524 . S
C412 C411 1.524 . S
C412 C413 1.397 . S
C412 C417 1.363 . S
C413 H384 0.950 . S
C413 C412 1.397 . S
C413 C414 1.334 . S
C414 H385 0.950 . S
C414 C413 1.334 . S
C414 C415 1.287 . S
C415 C414 1.287 . S
C415 C416 1.524 . S
C415 H418 0.999 . S
C416 H386 0.950 1_565 S
C416 C415 1.524 . S
C416 C417 1.415 . S
C417 H387 0.950 1_565 S
C417 C412 1.363 . S
C417 C416 1.415 . S
H418 C415 0.999 . S
H419 C400 0.913 1_455 S
H420 C438 0.951 . S
H421 C440 0.951 . S
H422 C442 0.950 . S
H423 C443 0.950 . S
H424 C445 0.950 . S
H425 C448 0.950 . S
H426 C449 0.950 1_545 S
H427 C451 0.950 . S
H428 C452 0.950 . S
H429 C453 0.951 1_455 S
H430 C455 0.951 . S
H431 C457 0.950 . S
H432 C458 0.950 . S
H433 C460 0.950 . S
H434 C463 0.950 . S
H435 C464 0.950 . S
H436 C466 0.950 1_455 S
H437 C467 0.950 1_455 S
C438 H420 0.951 . S
C438 C439 1.366 . S
C438 C440 1.388 . S
C439 C438 1.366 . S
C439 C443 1.385 . S
C440 H421 0.951 . S
C440 C438 1.388 . S
C440 C441 1.366 . S
C441 C440 1.366 . S
C441 C442 1.414 . S
C441 C444 1.499 . S
C442 H422 0.950 . S
C442 C441 1.414 . S
C442 C443 1.374 . S
C443 H423 0.950 . S
C443 C439 1.385 . S
C443 C442 1.374 . S
C444 C441 1.499 . S
C444 C445 1.373 . S
C444 C446 1.389 . S
C445 H424 0.950 . S
C445 C444 1.373 . S
C445 C461 1.377 1_556 S
C446 C444 1.389 . S
C446 C447 1.524 . S
C446 C460 1.377 1_556 S
C447 C446 1.524 . S
C447 C448 1.397 . S
C447 C452 1.363 . S
C448 H425 0.950 . S
C448 C447 1.397 . S
C448 C449 1.334 . S
C449 H426 0.950 1_565 S
C449 C448 1.334 . S
C449 C450 1.287 . S
C450 C449 1.287 . S
C450 C451 1.524 . S
C450 H469 0.913 1_565 S
C451 H427 0.950 . S
C451 C450 1.524 . S
C451 C452 1.415 . S
C452 H428 0.950 . S
C452 C447 1.363 . S
C452 C451 1.415 . S
C453 H429 0.951 1_655 S
C453 C454 1.366 . S
C453 C455 1.388 . S
C454 C453 1.366 . S
C454 C458 1.385 . S
C455 H430 0.951 . S
C455 C453 1.388 . S
C455 C456 1.366 . S
C456 C455 1.366 . S
C456 C457 1.414 . S
C456 C459 1.499 . S
C457 H431 0.950 . S
C457 C456 1.414 . S
C457 C458 1.374 . S
C458 H432 0.950 . S
C458 C454 1.385 . S
C458 C457 1.374 . S
C459 C456 1.499 . S
C459 C460 1.373 . S
C459 C461 1.389 . S
C460 H433 0.950 . S
C460 C446 1.377 1_554 S
C460 C459 1.373 . S
C461 C445 1.377 1_554 S
C461 C459 1.389 . S
C461 C462 1.524 . S
C462 C461 1.524 . S
C462 C463 1.397 . S
C462 C467 1.363 . S
C463 H434 0.950 . S
C463 C462 1.397 . S
C463 C464 1.334 . S
C464 H435 0.950 . S
C464 C463 1.334 . S
C464 C465 1.287 . S
C465 C464 1.287 . S
C465 C466 1.524 . S
C465 H468 0.999 . S
C466 H436 0.950 1_655 S
C466 C465 1.524 . S
C466 C467 1.415 . S
C467 H437 0.950 1_655 S
C467 C462 1.363 . S
C467 C466 1.415 . S
H468 C465 0.999 . S
H469 C450 0.913 1_545 S
H470 C488 0.951 . S
H471 C490 0.951 . S
H472 C492 0.950 . S
H473 C493 0.950 . S
H474 C495 0.950 . S
H475 C498 0.950 . S
H476 C499 0.950 . S
H477 C501 0.950 . S
H478 C502 0.950 . S
H479 C503 0.951 . S
H480 C505 0.951 . S
H481 C507 0.950 . S
H482 C508 0.950 . S
H483 C510 0.950 . S
H484 C513 0.950 . S
H485 C514 0.950 . S
H486 C516 0.950 . S
H487 C517 0.950 . S
C488 H470 0.951 . S
C488 C489 1.366 . S
C488 C490 1.388 . S
C489 C488 1.366 . S
C489 C493 1.385 . S
C490 H471 0.951 . S
C490 C488 1.388 . S
C490 C491 1.366 . S
C491 C490 1.366 . S
C491 C492 1.414 . S
C491 C494 1.499 . S
C492 H472 0.950 . S
C492 C491 1.414 . S
C492 C493 1.374 . S
C493 H473 0.950 . S
C493 C489 1.385 . S
C493 C492 1.374 . S
C494 C491 1.499 . S
C494 C495 1.373 . S
C494 C496 1.389 . S
C495 H474 0.950 . S
C495 C494 1.373 . S
C495 C511 1.377 . S
C496 C494 1.389 . S
C496 C497 1.524 . S
C496 C510 1.377 . S
C497 C496 1.524 . S
C497 C498 1.397 . S
C497 C502 1.363 . S
C498 H475 0.950 . S
C498 C497 1.397 . S
C498 C499 1.334 . S
C499 H476 0.950 . S
C499 C498 1.334 . S
C499 C500 1.287 . S
C500 C499 1.287 . S
C500 C501 1.524 . S
C500 H519 0.913 . S
C501 H477 0.950 . S
C501 C500 1.524 . S
C501 C502 1.415 . S
C502 H478 0.950 . S
C502 C497 1.363 . S
C502 C501 1.415 . S
C503 H479 0.951 . S
C503 C504 1.366 . S
C503 C505 1.388 . S
C504 C503 1.366 . S
C504 C508 1.385 . S
C505 H480 0.951 . S
C505 C503 1.388 . S
C505 C506 1.366 . S
C506 C505 1.366 . S
C506 C507 1.414 . S
C506 C509 1.499 . S
C507 H481 0.950 . S
C507 C506 1.414 . S
C507 C508 1.374 . S
C508 H482 0.950 . S
C508 C504 1.385 . S
C508 C507 1.374 . S
C509 C506 1.499 . S
C509 C510 1.373 . S
C509 C511 1.389 . S
C510 H483 0.950 . S
C510 C496 1.377 . S
C510 C509 1.373 . S
C511 C495 1.377 . S
C511 C509 1.389 . S
C511 C512 1.524 . S
C512 C511 1.524 . S
C512 C513 1.397 . S
C512 C517 1.363 . S
C513 H484 0.950 . S
C513 C512 1.397 . S
C513 C514 1.334 . S
C514 H485 0.950 . S
C514 C513 1.334 . S
C514 C515 1.287 . S
C515 C514 1.287 . S
C515 C516 1.524 . S
C515 H518 0.999 . S
C516 H486 0.950 . S
C516 C515 1.524 . S
C516 C517 1.415 . S
C517 H487 0.950 . S
C517 C512 1.363 . S
C517 C516 1.415 . S
H518 C515 0.999 . S
H519 C500 0.913 . S
H520 C538 0.951 . S
H521 C540 0.951 . S
H522 C542 0.950 . S
H523 C543 0.950 . S
H524 C545 0.950 . S
H525 C548 0.950 . S
H526 C549 0.950 . S
H527 C551 0.950 . S
H528 C552 0.950 . S
H529 C553 0.951 . S
H530 C555 0.951 . S
H531 C557 0.950 1_455 S
H532 C558 0.950 1_455 S
H533 C560 0.950 . S
H534 C563 0.950 . S
H535 C564 0.950 . S
H536 C566 0.950 . S
H537 C567 0.950 . S
C538 H520 0.951 . S
C538 C539 1.366 1_455 S
C538 C540 1.388 . S
C539 C538 1.366 1_655 S
C539 C543 1.385 . S
C540 H521 0.951 . S
C540 C538 1.388 . S
C540 C541 1.366 1_455 S
C541 C540 1.366 1_655 S
C541 C542 1.414 . S
C541 C544 1.499 . S
C542 H522 0.950 . S
C542 C541 1.414 . S
C542 C543 1.374 . S
C543 H523 0.950 . S
C543 C539 1.385 . S
C543 C542 1.374 . S
C544 C541 1.499 . S
C544 C545 1.373 . S
C544 C546 1.389 . S
C545 H524 0.950 . S
C545 C544 1.373 . S
C545 C561 1.377 . S
C546 C544 1.389 . S
C546 C547 1.524 . S
C546 C560 1.377 . S
C547 C546 1.524 . S
C547 C548 1.397 . S
C547 C552 1.363 1_655 S
C548 H525 0.950 . S
C548 C547 1.397 . S
C548 C549 1.334 . S
C549 H526 0.950 . S
C549 C548 1.334 . S
C549 C550 1.287 1_655 S
C550 C549 1.287 1_455 S
C550 C551 1.524 . S
C550 H569 0.913 . S
C551 H527 0.950 . S
C551 C550 1.524 . S
C551 C552 1.415 . S
C552 H528 0.950 . S
C552 C547 1.363 1_455 S
C552 C551 1.415 . S
C553 H529 0.951 . S
C553 C554 1.366 . S
C553 C555 1.388 . S
C554 C553 1.366 . S
C554 C558 1.385 . S
C555 H530 0.951 . S
C555 C553 1.388 . S
C555 C556 1.366 . S
C556 C555 1.366 . S
C556 C557 1.414 . S
C556 C559 1.499 . S
C557 H531 0.950 1_655 S
C557 C556 1.414 . S
C557 C558 1.374 . S
C558 H532 0.950 1_655 S
C558 C554 1.385 . S
C558 C557 1.374 . S
C559 C556 1.499 . S
C559 C560 1.373 . S
C559 C561 1.389 . S
C560 H533 0.950 . S
C560 C546 1.377 . S
C560 C559 1.373 . S
C561 C545 1.377 . S
C561 C559 1.389 . S
C561 C562 1.524 . S
C562 C561 1.524 . S
C562 C563 1.397 . S
C562 C567 1.363 . S
C563 H534 0.950 . S
C563 C562 1.397 . S
C563 C564 1.334 . S
C564 H535 0.950 . S
C564 C563 1.334 . S
C564 C565 1.287 . S
C565 C564 1.287 . S
C565 C566 1.524 . S
C565 H568 0.999 . S
C566 H536 0.950 . S
C566 C565 1.524 . S
C566 C567 1.415 . S
C567 H537 0.950 . S
C567 C562 1.363 . S
C567 C566 1.415 . S
H568 C565 0.999 . S
H569 C550 0.913 . S
C139 C10 1.309 1_455 S
C154 C19 1.309 1_655 S
C189 C59 1.395 1_545 S
C204 C50 1.395 . S
C239 C90 1.168 1_545 S
C254 C99 1.168 . S
C289 C87 0.911 . S
C304 C16 0.912 . S
C339 C51 1.842 . S
C354 C7 1.814 . S
C389 C91 2.293 . S
C404 C42 2.288 . S
C439 C82 2.208 . S
C454 C11 2.187 . S
C489 C2 1.471 . S
C504 C56 1.425 . S
C539 C96 0.899 . S
C554 C47 0.906 . S
