# Generated by pormake.
# Topology reo, (8)-cn, num edge types: 1
# Building blocks:
#     Node 0, Type 0, BuildingBlock: VETTIZ_charged_sbu_0, # of connection points: 8
#     Node 1, Type 0, BuildingBlock: VETTIZ_charged_sbu_0, # of connection points: 8
#     Node 2, Type 0, BuildingBlock: VETTIZ_charged_sbu_0, # of connection points: 8
#     Edge 3, Type (0, 0), BuildingBlock: EZIPEK_clean_linker_0, # of connection points: 2
#     Edge 4, Type (0, 0), BuildingBlock: EZIPEK_clean_linker_0, # of connection points: 2
#     Edge 5, Type (0, 0), BuildingBlock: EZIPEK_clean_linker_0, # of connection points: 2
#     Edge 6, Type (0, 0), BuildingBlock: EZIPEK_clean_linker_0, # of connection points: 2
#     Edge 7, Type (0, 0), BuildingBlock: EZIPEK_clean_linker_0, # of connection points: 2
#     Edge 8, Type (0, 0), BuildingBlock: EZIPEK_clean_linker_0, # of connection points: 2
#     Edge 9, Type (0, 0), BuildingBlock: EZIPEK_clean_linker_0, # of connection points: 2
#     Edge 10, Type (0, 0), BuildingBlock: EZIPEK_clean_linker_0, # of connection points: 2
#     Edge 11, Type (0, 0), BuildingBlock: EZIPEK_clean_linker_0, # of connection points: 2
#     Edge 12, Type (0, 0), BuildingBlock: EZIPEK_clean_linker_0, # of connection points: 2
#     Edge 13, Type (0, 0), BuildingBlock: EZIPEK_clean_linker_0, # of connection points: 2
#     Edge 14, Type (0, 0), BuildingBlock: EZIPEK_clean_linker_0, # of connection points: 2
# Relax obj value: 0.145
# Max RMSD: 0.165
# Mean RMSD: 0.165
data_MOF--net-reo--node1-VETTIZ_charged_sbu_0--edge1-EZIPEK_clean_linker_0
_symmetry_space_group_name_H-M    P1
_symmetry_Int_Tables_number       1
_symmetry_cell_setting            triclinic
loop_
_symmetry_equiv_pos_as_xyz
'x, y, z'
_cell_length_a     18.011483
_cell_length_b     18.101791
_cell_length_c     18.121696
_cell_angle_alpha  91.891407
_cell_angle_beta   90.470876
_cell_angle_gamma 89.627011
loop_
_atom_site_label
_atom_site_type_symbol
_atom_site_fract_x
_atom_site_fract_y
_atom_site_fract_z
_atom_type_partial_charge
Fe0 Fe 0.98673 0.97275 0.33345 0.0
O1 O 0.97402 0.97342 0.4411 0.0
Fe2 Fe 0.06746 0.94207 0.50428 0.0
Fe3 Fe 0.94422 0.06468 0.4994 0.0
O4 O 0.97878 0.96633 0.44196 0.0
O5 O 0.03511 0.03183 0.56342 0.0
O6 O 0.03046 0.03802 0.56287 0.0
Fe7 Fe 0.02535 0.03672 0.67064 0.0
C8 C 1.00344 0.13914 0.36972 0.0
O9 O 0.87294 0.98247 0.33708 0.0
O10 O 0.85613 0.07784 0.42401 0.0
O11 O 0.02329 0.92468 0.67929 0.0
O12 O 0.00812 0.87112 0.56768 0.0
O13 O 0.0862 0.84855 0.4314 0.0
O14 O 0.99561 0.86086 0.34148 0.0
O15 O 0.87306 0.00291 0.55997 0.0
O16 O 0.90983 0.03774 0.67368 0.0
C17 C 0.04462 0.82275 0.3768 0.0
O18 O 0.1403 0.02597 0.66387 0.0
O19 O 0.15819 0.93204 0.57593 0.0
O20 O 0.98463 0.086 0.32626 0.0
O21 O 0.01105 0.13135 0.43875 0.0
C22 C 0.83378 0.03443 0.36946 0.0
C23 C 0.86035 0.01371 0.62831 0.0
C24 C 0.96737 0.1854 0.62425 0.0
O25 O 0.92634 0.1588 0.56996 0.0
O26 O 0.01772 0.14864 0.6593 0.0
C27 C 0.01317 0.8677 0.63773 0.0
O28 O 0.13443 0.0093 0.44589 0.0
O29 O 0.10267 0.97234 0.33242 0.0
C30 C 0.18141 0.97721 0.62838 0.0
C31 C 0.15006 0.99866 0.37867 0.0
Fe32 Fe 0.33425 0.04344 0.01772 0.0
O33 O 0.44213 0.03643 0.02871 0.0
Fe34 Fe 0.50716 0.05234 0.93435 0.0
Fe35 Fe 0.4946 0.94842 0.06927 0.0
O36 O 0.44404 0.04362 0.02413 0.0
O37 O 0.55978 0.9647 0.97533 0.0
O38 O 0.55778 0.95729 0.97975 0.0
Fe39 Fe 0.66743 0.95743 0.98512 0.0
C40 C 0.37312 0.0057 0.17837 0.0
O41 O 0.31713 0.93199 0.02893 0.0
O42 O 0.42464 0.87227 0.01579 0.0
O43 O 0.65973 0.94991 0.87171 0.0
O44 O 0.57961 0.04478 0.84348 0.0
O45 O 0.44104 0.98048 0.87519 0.0
O46 O 0.33063 0.02828 0.90303 0.0
O47 O 0.56029 0.8554 0.09838 0.0
O48 O 0.64966 0.84802 0.00745 0.0
C49 C 0.37454 0.99481 0.85808 0.0
O50 O 0.68414 0.06883 0.97119 0.0
O51 O 0.57686 0.12842 0.98674 0.0
O52 O 0.34017 0.04924 0.13229 0.0
O53 O 0.42258 0.9559 0.15946 0.0
C54 C 0.35393 0.87214 0.01972 0.0
C55 C 0.61281 0.82068 0.06132 0.0
C56 C 0.62954 0.0073 0.14432 0.0
O57 O 0.5617 0.01924 0.1297 0.0
O58 O 0.67297 0.97479 0.09851 0.0
C59 C 0.62874 0.99422 0.8252 0.0
O60 O 0.44028 0.14552 0.906 0.0
O61 O 0.35209 0.15305 0.99806 0.0
C62 C 0.64721 0.12877 0.97989 0.0
C63 C 0.38833 0.18041 0.94394 0.0
Fe64 Fe 0.04766 0.33488 0.00657 0.0
O65 O 0.03748 0.44121 0.02631 0.0
Fe66 Fe 0.0552 0.5122 0.93937 0.0
Fe67 Fe 0.94528 0.48757 0.0679 0.0
O68 O 0.04377 0.44308 0.02199 0.0
O69 O 0.9631 0.55865 0.98026 0.0
O70 O 0.95617 0.55624 0.98404 0.0
Fe71 Fe 0.95262 0.66506 0.99605 0.0
C72 C 0.87742 0.34811 0.0054 0.0
O73 O 0.05206 0.3367 0.11918 0.0
O74 O 0.95192 0.40976 0.15288 0.0
O75 O 0.06445 0.68669 0.98305 0.0
O76 O 0.12382 0.58129 0.00354 0.0
O77 O 0.15229 0.45262 0.90674 0.0
O78 O 0.15759 0.35709 0.9877 0.0
O79 O 0.01073 0.55297 0.13599 0.0
O80 O 0.96688 0.66498 0.11086 0.0
C81 C 0.187 0.39913 0.93957 0.0
O82 O 0.95 0.66254 0.88118 0.0
O83 O 0.05172 0.58818 0.85648 0.0
O84 O 0.93636 0.31274 0.02079 0.0
O85 O 0.87692 0.41852 0.00349 0.0
C86 C 0.00649 0.36448 0.1682 0.0
C87 C 1.00094 0.62067 0.15329 0.0
C88 C 0.81326 0.60176 0.06495 0.0
O89 O 0.84755 0.54833 0.0989 0.0
O90 O 0.84281 0.64254 0.01557 0.0
C91 C 0.12344 0.65164 0.99935 0.0
O92 O 0.98891 0.44921 0.8706 0.0
O93 O 0.03303 0.33694 0.89208 0.0
C94 C 1.00156 0.63588 0.83759 0.0
C95 C 0.99927 0.38243 0.85093 0.0
C96 C 0.08065 0.29026 0.25439 0.0
C97 C 0.01619 0.33355 0.24373 0.0
C98 C 0.96136 0.27034 0.34782 0.0
C99 C 0.01438 0.21218 0.33693 0.0
N100 N 0.1178 0.16428 0.2648 0.0
N101 N 0.90061 0.37773 0.29639 0.0
C102 C 0.073 0.2216 0.28682 0.0
C103 C 0.95822 0.32853 0.29611 0.0
N104 N 0.14791 0.31293 0.23 0.0
N105 N 0.91361 0.26924 0.40586 0.0
H106 H 0.90281 0.42741 0.26919 0.0
H107 H 0.85158 0.36998 0.32512 0.0
H108 H 0.91311 0.22646 0.44285 0.0
H109 H 0.87821 0.31298 0.42024 0.0
H110 H 0.19672 0.28311 0.23932 0.0
H111 H 0.15472 0.36515 0.20816 0.0
H112 H 0.15701 0.16914 0.22315 0.0
H113 H 0.11174 0.11103 0.28357 0.0
C114 C 0.76147 0.10235 0.27693 0.0
C115 C 0.76224 0.04988 0.33312 0.0
C116 C 0.65183 0.99033 0.27957 0.0
C117 C 0.66099 0.03311 0.21627 0.0
N118 N 0.70468 0.14401 0.16385 0.0
N119 N 0.70376 0.95243 0.39717 0.0
C120 C 0.70944 0.09419 0.21831 0.0
C121 C 0.70455 0.99761 0.33826 0.0
N122 N 0.81394 0.15647 0.27752 0.0
N123 N 0.59343 0.94284 0.28264 0.0
H124 H 0.74048 0.95978 0.4417 0.0
H125 H 0.6681 0.90794 0.40205 0.0
H126 H 0.55463 0.93717 0.23988 0.0
H127 H 0.58062 0.91244 0.32848 0.0
H128 H 0.82265 0.19247 0.23496 0.0
H129 H 0.84987 0.16506 0.32206 0.0
H130 H 0.73591 0.19194 0.16163 0.0
H131 H 0.66365 0.13924 0.12347 0.0
C132 C 0.98289 0.70402 0.34534 0.0
C133 C 0.05001 0.74439 0.34955 0.0
C134 C 0.09735 0.67262 0.24263 0.0
C135 C 0.02412 0.64786 0.22836 0.0
N136 N 0.91222 0.60605 0.28336 0.0
N137 N 0.17873 0.75054 0.31936 0.0
C138 C 0.97136 0.65261 0.28551 0.0
C139 C 0.11039 0.72212 0.30424 0.0
N140 N 0.92865 0.7194 0.39582 0.0
N141 N 0.15356 0.64738 0.1983 0.0
H142 H 0.18864 0.77916 0.36905 0.0
H143 H 0.22498 0.74322 0.28586 0.0
H144 H 0.14433 0.609 0.15505 0.0
H145 H 0.20912 0.66107 0.206 0.0
H146 H 0.87483 0.699 0.39156 0.0
H147 H 0.93813 0.75491 0.44148 0.0
H148 H 0.87431 0.60227 0.32609 0.0
H149 H 0.90608 0.56558 0.24144 0.0
C150 C 0.33391 0.94498 0.29709 0.0
C151 C 0.34526 0.00987 0.25627 0.0
C152 C 0.25625 0.07644 0.33622 0.0
C153 C 0.2281 0.0073 0.35513 0.0
N154 N 0.26687 0.88951 0.397 0.0
N155 N 0.34004 0.143 0.25793 0.0
C156 C 0.275 0.94497 0.34878 0.0
C157 C 0.31461 0.07798 0.28385 0.0
N158 N 0.3772 0.8836 0.28579 0.0
N159 N 0.22946 0.13904 0.37078 0.0
H160 H 0.3871 0.14486 0.22475 0.0
H161 H 0.31515 0.19414 0.26911 0.0
H162 H 0.18787 0.13708 0.41046 0.0
H163 H 0.25086 0.19155 0.36361 0.0
H164 H 0.36307 0.83158 0.3039 0.0
H165 H 0.42878 0.8851 0.26057 0.0
H166 H 0.30393 0.84548 0.40142 0.0
H167 H 0.22649 0.89204 0.43799 0.0
C168 C 0.95633 0.74317 0.66639 0.0
C169 C 0.01531 0.79508 0.67425 0.0
C170 C 0.07855 0.71062 0.7567 0.0
C171 C 0.0117 0.6727 0.76664 0.0
N172 N 0.88659 0.64774 0.72647 0.0
N173 N 0.12807 0.83016 0.74252 0.0
C174 C 0.95048 0.68685 0.7194 0.0
C175 C 0.0753 0.77933 0.72342 0.0
N176 N 0.90545 0.74813 0.61053 0.0
N177 N 0.14534 0.68257 0.7791 0.0
H178 H 0.13334 0.88085 0.71878 0.0
H179 H 0.16418 0.82308 0.78707 0.0
H180 H 0.15247 0.62879 0.79642 0.0
H181 H 0.19548 0.70875 0.76887 0.0
H182 H 0.86562 0.70777 0.59919 0.0
H183 H 0.90603 0.78975 0.57229 0.0
H184 H 0.83702 0.66127 0.69996 0.0
H185 H 0.88315 0.6032 0.76146 0.0
C186 C 0.35249 0.03572 0.72917 0.0
C187 C 0.34965 0.97922 0.78112 0.0
C188 C 0.28005 0.9039 0.6911 0.0
C189 C 0.25848 0.9696 0.65649 0.0
N190 N 0.28704 0.09533 0.62976 0.0
N191 N 0.32338 0.85245 0.80564 0.0
C192 C 0.3002 0.03447 0.67041 0.0
C193 C 0.31843 0.91029 0.75971 0.0
N194 N 0.40547 0.08896 0.73547 0.0
N195 N 0.26402 0.83678 0.65882 0.0
H196 H 0.35217 0.8569 0.8556 0.0
H197 H 0.297 0.80209 0.79542 0.0
H198 H 0.23851 0.83178 0.60707 0.0
H199 H 0.28264 0.78705 0.67991 0.0
H200 H 0.41326 0.12875 0.69605 0.0
H201 H 0.44556 0.08842 0.77719 0.0
H202 H 0.30981 0.14696 0.6428 0.0
H203 H 0.25119 0.09362 0.58411 0.0
C204 C 0.02857 0.35895 0.71736 0.0
C205 C 0.97664 0.35796 0.77514 0.0
C206 C 0.89532 0.27876 0.69938 0.0
C207 C 0.95672 0.26226 0.65307 0.0
N208 N 0.07466 0.29771 0.60537 0.0
N209 N 0.8477 0.3507 0.8052 0.0
C210 C 0.02029 0.30785 0.65682 0.0
C211 C 0.90522 0.32887 0.76091 0.0
N212 N 0.08346 0.41041 0.71963 0.0
N213 N 0.82979 0.24335 0.6865 0.0
H214 H 0.85492 0.38932 0.84866 0.0
H215 H 0.79286 0.33475 0.79658 0.0
H216 H 0.82144 0.21082 0.63885 0.0
H217 H 0.78397 0.24739 0.72096 0.0
H218 H 0.12007 0.41815 0.67645 0.0
H219 H 0.08752 0.45005 0.76262 0.0
H220 H 0.12662 0.32246 0.60932 0.0
H221 H 0.06732 0.26231 0.55919 0.0
C222 C 0.70232 0.92561 0.73002 0.0
C223 C 0.66101 0.99011 0.74893 0.0
C224 C 0.72904 0.05428 0.65357 0.0
C225 C 0.78508 0.99918 0.65694 0.0
N226 N 0.82218 0.87796 0.69416 0.0
N227 N 0.62072 0.11109 0.71062 0.0
C228 C 0.77028 0.93279 0.6928 0.0
C229 C 0.66887 0.05287 0.70427 0.0
N230 N 0.67672 0.85812 0.74908 0.0
N231 N 0.73244 0.1062 0.60084 0.0
H232 H 0.56953 0.10739 0.73619 0.0
H233 H 0.63111 0.16255 0.68891 0.0
H234 H 0.77511 0.10672 0.56228 0.0
H235 H 0.69014 0.14422 0.59115 0.0
H236 H 0.70235 0.80853 0.73265 0.0
H237 H 0.62519 0.85246 0.77431 0.0
H238 H 0.81751 0.83169 0.72654 0.0
H239 H 0.87171 0.88177 0.66581 0.0
C240 C 0.26918 0.32761 0.85595 0.0
C241 C 0.26339 0.37641 0.91765 0.0
C242 C 0.37158 0.31553 0.97264 0.0
C243 C 0.36151 0.25467 0.92216 0.0
N244 N 0.29423 0.2014 0.81778 0.0
N245 N 0.31657 0.42664 0.02961 0.0
C246 C 0.31014 0.26105 0.86274 0.0
C247 C 0.31866 0.37458 0.97348 0.0
N248 N 0.23231 0.34354 0.79266 0.0
N249 N 0.42986 0.31485 0.02114 0.0
H250 H 0.27925 0.47107 0.02868 0.0
H251 H 0.34976 0.42493 0.07683 0.0
H252 H 0.46835 0.27153 0.02074 0.0
H253 H 0.44332 0.35907 0.05683 0.0
H254 H 0.23663 0.31153 0.74397 0.0
H255 H 0.20591 0.3945 0.78776 0.0
H256 H 0.25209 0.2013 0.77801 0.0
H257 H 0.31821 0.15002 0.82582 0.0
C258 C 0.18946 0.75747 0.06572 0.0
C259 C 0.19224 0.69686 0.0137 0.0
C260 C 0.3156 0.74046 0.97366 0.0
C261 C 0.31019 0.80154 0.02498 0.0
N262 N 0.26009 0.84326 0.14163 0.0
N263 N 0.26477 0.62355 0.92626 0.0
C264 C 0.2528 0.80179 0.0778 0.0
C265 C 0.25807 0.68544 0.971 0.0
N266 N 0.12584 0.775 0.10302 0.0
N267 N 0.37372 0.73624 0.92584 0.0
H268 H 0.22231 0.58547 0.91786 0.0
H269 H 0.31378 0.60737 0.90023 0.0
H270 H 0.41796 0.77286 0.92862 0.0
H271 H 0.37698 0.6988 0.88119 0.0
H272 H 0.11888 0.82446 0.13341 0.0
H273 H 0.07867 0.74256 0.10123 0.0
H274 H 0.2231 0.84107 0.18545 0.0
H275 H 0.30858 0.87192 0.1541 0.0
C276 C 0.68379 0.26122 0.02533 0.0
C277 C 0.69058 0.19951 0.97485 0.0
C278 C 0.81257 0.24255 0.9372 0.0
C279 C 0.80875 0.30337 0.98904 0.0
N280 N 0.73344 0.37831 0.07296 0.0
N281 N 0.74327 0.15669 0.85982 0.0
C282 C 0.74146 0.31592 0.02914 0.0
C283 C 0.74925 0.1986 0.92355 0.0
N284 N 0.62505 0.26575 0.07248 0.0
N285 N 0.87692 0.22479 0.90126 0.0
H286 H 0.69448 0.12912 0.84576 0.0
H287 H 0.78199 0.1572 0.81744 0.0
H288 H 0.92378 0.25764 0.90301 0.0
H289 H 0.88459 0.17502 0.8716 0.0
H290 H 0.62128 0.30365 0.11673 0.0
H291 H 0.58143 0.22846 0.07061 0.0
H292 H 0.6831 0.39563 0.0956 0.0
H293 H 0.77605 0.41563 0.08392 0.0
C294 C 0.68394 0.62858 0.02489 0.0
C295 C 0.73556 0.62385 0.08386 0.0
C296 C 0.67998 0.73299 0.14504 0.0
C297 C 0.63615 0.74453 0.08088 0.0
N298 N 0.57737 0.69212 0.9721 0.0
N299 N 0.75665 0.64681 0.21272 0.0
C300 C 0.63112 0.68762 0.02531 0.0
C301 C 0.72432 0.66775 0.14859 0.0
N302 N 0.68966 0.57925 0.96658 0.0
N303 N 0.68356 0.78641 0.19979 0.0
H304 H 0.78363 0.59586 0.21531 0.0
H305 H 0.74826 0.67412 0.26348 0.0
H306 H 0.65112 0.83415 0.19899 0.0
H307 H 0.72102 0.78486 0.24382 0.0
H308 H 0.65951 0.58294 0.91761 0.0
H309 H 0.72668 0.53458 0.96779 0.0
H310 H 0.56741 0.65107 0.93176 0.0
H311 H 0.53873 0.73535 0.97243 0.0
loop_
_geom_bond_atom_site_label_1
_geom_bond_atom_site_label_2
_geom_bond_distance
_geom_bond_site_symmetry_2
_ccdc_geom_bond_type
Fe0 O1 1.886 . S
Fe0 O4 1.715 1_645 S
Fe0 O9 2.077 1_545 S
Fe0 O14 1.935 1_545 S
Fe0 O20 2.077 1_655 S
Fe0 O29 1.935 1_655 S
O1 Fe0 1.886 . S
O1 Fe3 1.715 . S
Fe2 O4 1.886 . S
Fe2 O5 1.715 . S
Fe2 O12 1.935 . S
Fe2 O13 2.077 . S
Fe2 O19 1.935 . S
Fe2 O28 2.077 . S
Fe3 O1 1.715 . S
Fe3 O6 1.886 . S
Fe3 O10 1.935 . S
Fe3 O15 2.077 . S
Fe3 O21 1.935 . S
Fe3 O25 2.077 . S
O4 Fe0 1.715 1_465 S
O4 Fe2 1.886 . S
O5 Fe2 1.715 . S
O5 Fe7 1.893 . S
O6 Fe3 1.886 . S
O6 Fe7 1.708 1_645 S
Fe7 O5 1.893 . S
Fe7 O6 1.708 1_465 S
Fe7 O11 2.091 1_455 S
Fe7 O16 1.938 1_455 S
Fe7 O18 2.077 1_565 S
Fe7 O26 1.921 1_565 S
C8 O20 1.381 1_655 S
C8 O21 1.421 . S
O9 Fe0 2.077 1_565 S
O9 C22 1.381 1_565 S
O10 Fe3 1.935 . S
O10 C22 1.421 . S
O11 Fe7 2.091 1_655 S
O11 C27 1.381 1_655 S
O12 Fe2 1.935 . S
O12 C27 1.421 . S
O13 Fe2 2.077 . S
O13 C17 1.381 . S
O14 Fe0 1.935 1_565 S
O14 C17 1.421 1_655 S
O15 Fe3 2.077 . S
O15 C23 1.381 . S
O16 Fe7 1.938 1_655 S
O16 C23 1.421 1_565 S
C17 O13 1.381 . S
C17 O14 1.421 1_455 S
O18 Fe7 2.077 1_545 S
O18 C30 1.381 1_545 S
O19 Fe2 1.935 . S
O19 C30 1.421 . S
O20 Fe0 2.077 1_455 S
O20 C8 1.381 1_455 S
O21 Fe3 1.935 . S
O21 C8 1.421 . S
C22 O9 1.381 1_545 S
C22 O10 1.421 . S
C23 O15 1.381 . S
C23 O16 1.421 1_545 S
C24 O25 1.381 . S
C24 O26 1.421 1_655 S
O25 Fe3 2.077 . S
O25 C24 1.381 . S
O26 Fe7 1.921 1_545 S
O26 C24 1.421 1_455 S
C27 O11 1.381 1_455 S
C27 O12 1.421 . S
O28 Fe2 2.077 . S
O28 C31 1.381 . S
O29 Fe0 1.935 1_455 S
O29 C31 1.421 1_545 S
C30 O18 1.381 1_565 S
C30 O19 1.421 . S
C31 O28 1.381 . S
C31 O29 1.421 1_565 S
Fe32 O33 1.886 . S
Fe32 O36 1.715 1_564 S
Fe32 O41 2.077 1_554 S
Fe32 O46 1.935 1_554 S
Fe32 O52 2.077 1_565 S
Fe32 O61 1.935 1_565 S
O33 Fe32 1.886 . S
O33 Fe35 1.715 . S
Fe34 O36 1.886 . S
Fe34 O37 1.715 . S
Fe34 O44 1.935 . S
Fe34 O45 2.077 . S
Fe34 O51 1.935 . S
Fe34 O60 2.077 . S
Fe35 O33 1.715 . S
Fe35 O38 1.886 . S
Fe35 O42 1.935 . S
Fe35 O47 2.077 . S
Fe35 O53 1.935 . S
Fe35 O57 2.077 . S
O36 Fe32 1.715 1_546 S
O36 Fe34 1.886 . S
O37 Fe34 1.715 . S
O37 Fe39 1.893 . S
O38 Fe35 1.886 . S
O38 Fe39 1.708 1_564 S
Fe39 O37 1.893 . S
Fe39 O38 1.708 1_546 S
Fe39 O43 2.091 1_545 S
Fe39 O48 1.938 1_545 S
Fe39 O50 2.077 1_556 S
Fe39 O58 1.921 1_556 S
C40 O52 1.381 1_565 S
C40 O53 1.421 . S
O41 Fe32 2.077 1_556 S
O41 C54 1.381 1_556 S
O42 Fe35 1.935 . S
O42 C54 1.421 . S
O43 Fe39 2.091 1_565 S
O43 C59 1.381 1_565 S
O44 Fe34 1.935 . S
O44 C59 1.421 . S
O45 Fe34 2.077 . S
O45 C49 1.381 . S
O46 Fe32 1.935 1_556 S
O46 C49 1.421 1_565 S
O47 Fe35 2.077 . S
O47 C55 1.381 . S
O48 Fe39 1.938 1_565 S
O48 C55 1.421 1_556 S
C49 O45 1.381 . S
C49 O46 1.421 1_545 S
O50 Fe39 2.077 1_554 S
O50 C62 1.381 1_554 S
O51 Fe34 1.935 . S
O51 C62 1.421 . S
O52 Fe32 2.077 1_545 S
O52 C40 1.381 1_545 S
O53 Fe35 1.935 . S
O53 C40 1.421 . S
C54 O41 1.381 1_554 S
C54 O42 1.421 . S
C55 O47 1.381 . S
C55 O48 1.421 1_554 S
C56 O57 1.381 . S
C56 O58 1.421 1_565 S
O57 Fe35 2.077 . S
O57 C56 1.381 . S
O58 Fe39 1.921 1_554 S
O58 C56 1.421 1_545 S
C59 O43 1.381 1_545 S
C59 O44 1.421 . S
O60 Fe34 2.077 . S
O60 C63 1.381 . S
O61 Fe32 1.935 1_545 S
O61 C63 1.421 1_554 S
C62 O50 1.381 1_556 S
C62 O51 1.421 . S
C63 O60 1.381 . S
C63 O61 1.421 1_556 S
Fe64 O65 1.886 . S
Fe64 O68 1.715 1_654 S
Fe64 O73 2.077 1_655 S
Fe64 O78 1.935 1_655 S
Fe64 O84 2.077 1_554 S
Fe64 O93 1.935 1_554 S
O65 Fe64 1.886 . S
O65 Fe67 1.715 . S
Fe66 O68 1.886 . S
Fe66 O69 1.715 . S
Fe66 O76 1.935 . S
Fe66 O77 2.077 . S
Fe66 O83 1.935 . S
Fe66 O92 2.077 . S
Fe67 O65 1.715 . S
Fe67 O70 1.886 . S
Fe67 O74 1.935 . S
Fe67 O79 2.077 . S
Fe67 O85 1.935 . S
Fe67 O89 2.077 . S
O68 Fe64 1.715 1_456 S
O68 Fe66 1.886 . S
O69 Fe66 1.715 . S
O69 Fe71 1.893 . S
O70 Fe67 1.886 . S
O70 Fe71 1.708 1_654 S
Fe71 O69 1.893 . S
Fe71 O70 1.708 1_456 S
Fe71 O75 2.077 1_556 S
Fe71 O80 1.921 1_556 S
Fe71 O82 2.091 1_455 S
Fe71 O90 1.938 1_455 S
C72 O84 1.381 1_554 S
C72 O85 1.421 . S
O73 Fe64 2.077 1_455 S
O73 C86 1.381 1_455 S
O74 Fe67 1.935 . S
O74 C86 1.421 . S
O75 Fe71 2.077 1_554 S
O75 C91 1.381 1_554 S
O76 Fe66 1.935 . S
O76 C91 1.421 . S
O77 Fe66 2.077 . S
O77 C81 1.381 . S
O78 Fe64 1.935 1_455 S
O78 C81 1.421 1_554 S
O79 Fe67 2.077 . S
O79 C87 1.381 . S
O80 Fe71 1.921 1_554 S
O80 C87 1.421 1_455 S
C81 O77 1.381 . S
C81 O78 1.421 1_556 S
O82 Fe71 2.091 1_655 S
O82 C94 1.381 1_655 S
O83 Fe66 1.935 . S
O83 C94 1.421 . S
O84 Fe64 2.077 1_556 S
O84 C72 1.381 1_556 S
O85 Fe67 1.935 . S
O85 C72 1.421 . S
C86 O73 1.381 1_655 S
C86 O74 1.421 . S
C87 O79 1.381 . S
C87 O80 1.421 1_655 S
C88 O89 1.381 . S
C88 O90 1.421 1_554 S
O89 Fe67 2.077 . S
O89 C88 1.381 . S
O90 Fe71 1.938 1_655 S
O90 C88 1.421 1_556 S
C91 O75 1.381 1_556 S
C91 O76 1.421 . S
O92 Fe66 2.077 . S
O92 C95 1.381 . S
O93 Fe64 1.935 1_556 S
O93 C95 1.421 1_655 S
C94 O82 1.381 1_455 S
C94 O83 1.421 . S
C95 O92 1.381 . S
C95 O93 1.421 1_455 S
C96 C97 1.363 1_455 S
C96 C102 1.379 . S
C96 N104 1.356 . S
C97 C96 1.363 1_655 S
C97 C103 1.363 . S
C98 C99 1.363 . S
C98 C103 1.379 . S
C98 N105 1.356 . S
C99 C98 1.363 . S
C99 C102 1.363 1_655 S
N100 C102 1.356 . S
N100 H112 0.984 . S
N100 H113 0.985 . S
N101 C103 1.356 . S
N101 H106 0.984 . S
N101 H107 0.985 . S
C102 C96 1.379 . S
C102 C99 1.363 1_455 S
C102 N100 1.356 . S
C103 C97 1.363 . S
C103 C98 1.379 . S
C103 N101 1.356 . S
N104 C96 1.356 . S
N104 H110 0.984 . S
N104 H111 0.984 . S
N105 C98 1.356 . S
N105 H108 0.984 . S
N105 H109 0.985 . S
H106 N101 0.984 . S
H107 N101 0.985 . S
H108 N105 0.984 . S
H109 N105 0.985 . S
H110 N104 0.984 . S
H111 N104 0.984 . S
H112 N100 0.984 . S
H113 N100 0.985 . S
C114 C115 1.363 . S
C114 C120 1.379 . S
C114 N122 1.356 . S
C115 C114 1.363 . S
C115 C121 1.363 1_545 S
C116 C117 1.373 . S
C116 C121 1.379 . S
C116 N123 1.356 . S
C117 C116 1.373 . S
C117 C120 1.353 1_565 S
N118 C120 1.356 . S
N118 H130 0.984 . S
N118 H131 0.985 . S
N119 C121 1.356 . S
N119 H124 0.984 . S
N119 H125 0.985 . S
C120 C114 1.379 . S
C120 C117 1.353 1_545 S
C120 N118 1.356 . S
C121 C115 1.363 1_565 S
C121 C116 1.379 . S
C121 N119 1.356 . S
N122 C114 1.356 . S
N122 H128 0.984 . S
N122 H129 0.984 . S
N123 C116 1.356 . S
N123 H126 0.984 . S
N123 H127 0.985 . S
H124 N119 0.984 . S
H125 N119 0.985 . S
H126 N123 0.984 . S
H127 N123 0.985 . S
H128 N122 0.984 . S
H129 N122 0.984 . S
H130 N118 0.984 . S
H131 N118 0.985 . S
C132 C133 1.363 1_655 S
C132 C138 1.379 . S
C132 N140 1.356 . S
C133 C132 1.363 1_455 S
C133 C139 1.363 . S
C134 C135 1.353 1_455 S
C134 C139 1.379 . S
C134 N141 1.356 . S
C135 C134 1.353 1_655 S
C135 C138 1.373 . S
N136 C138 1.356 . S
N136 H148 0.984 . S
N136 H149 0.985 . S
N137 C139 1.356 . S
N137 H142 0.984 . S
N137 H143 0.985 . S
C138 C132 1.379 . S
C138 C135 1.373 . S
C138 N136 1.356 . S
C139 C133 1.363 . S
C139 C134 1.379 . S
C139 N137 1.356 . S
N140 C132 1.356 . S
N140 H146 0.984 . S
N140 H147 0.984 . S
N141 C134 1.356 . S
N141 H144 0.984 . S
N141 H145 0.985 . S
H142 N137 0.984 . S
H143 N137 0.985 . S
H144 N141 0.984 . S
H145 N141 0.985 . S
H146 N140 0.984 . S
H147 N140 0.984 . S
H148 N136 0.984 . S
H149 N136 0.985 . S
C150 C151 1.363 . S
C150 C156 1.379 . S
C150 N158 1.356 . S
C151 C150 1.363 . S
C151 C157 1.363 1_565 S
C152 C153 1.363 1_545 S
C152 C157 1.379 . S
C152 N159 1.356 . S
C153 C152 1.363 1_565 S
C153 C156 1.363 . S
N154 C156 1.356 . S
N154 H166 0.984 . S
N154 H167 0.985 . S
N155 C157 1.356 . S
N155 H160 0.984 . S
N155 H161 0.985 . S
C156 C150 1.379 . S
C156 C153 1.363 . S
C156 N154 1.356 . S
C157 C151 1.363 1_545 S
C157 C152 1.379 . S
C157 N155 1.356 . S
N158 C150 1.356 . S
N158 H164 0.984 . S
N158 H165 0.984 . S
N159 C152 1.356 . S
N159 H162 0.984 . S
N159 H163 0.985 . S
H160 N155 0.984 . S
H161 N155 0.985 . S
H162 N159 0.984 . S
H163 N159 0.985 . S
H164 N158 0.984 . S
H165 N158 0.984 . S
H166 N154 0.984 . S
H167 N154 0.985 . S
C168 C169 1.363 1_655 S
C168 C174 1.379 . S
C168 N176 1.356 . S
C169 C168 1.363 1_455 S
C169 C175 1.363 . S
C170 C171 1.363 . S
C170 C175 1.379 . S
C170 N177 1.356 . S
C171 C170 1.363 . S
C171 C174 1.363 1_455 S
N172 C174 1.356 . S
N172 H184 0.984 . S
N172 H185 0.985 . S
N173 C175 1.356 . S
N173 H178 0.984 . S
N173 H179 0.985 . S
C174 C168 1.379 . S
C174 C171 1.363 1_655 S
C174 N172 1.356 . S
C175 C169 1.363 . S
C175 C170 1.379 . S
C175 N173 1.356 . S
N176 C168 1.356 . S
N176 H182 0.984 . S
N176 H183 0.984 . S
N177 C170 1.356 . S
N177 H180 0.984 . S
N177 H181 0.985 . S
H178 N173 0.984 . S
H179 N173 0.985 . S
H180 N177 0.984 . S
H181 N177 0.985 . S
H182 N176 0.984 . S
H183 N176 0.984 . S
H184 N172 0.984 . S
H185 N172 0.985 . S
C186 C187 1.363 . S
C186 C192 1.379 . S
C186 N194 1.356 . S
C187 C186 1.363 . S
C187 C193 1.363 1_545 S
C188 C189 1.373 . S
C188 C193 1.379 . S
C188 N195 1.356 . S
C189 C188 1.373 . S
C189 C192 1.353 1_565 S
N190 C192 1.356 . S
N190 H202 0.984 . S
N190 H203 0.985 . S
N191 C193 1.356 . S
N191 H196 0.984 . S
N191 H197 0.985 . S
C192 C186 1.379 . S
C192 C189 1.353 1_545 S
C192 N190 1.356 . S
C193 C187 1.363 1_565 S
C193 C188 1.379 . S
C193 N191 1.356 . S
N194 C186 1.356 . S
N194 H200 0.984 . S
N194 H201 0.984 . S
N195 C188 1.356 . S
N195 H198 0.984 . S
N195 H199 0.985 . S
H196 N191 0.984 . S
H197 N191 0.985 . S
H198 N195 0.984 . S
H199 N195 0.985 . S
H200 N194 0.984 . S
H201 N194 0.984 . S
H202 N190 0.984 . S
H203 N190 0.985 . S
C204 C205 1.363 . S
C204 C210 1.379 . S
C204 N212 1.356 . S
C205 C204 1.363 . S
C205 C211 1.363 1_455 S
C206 C207 1.375 . S
C206 C211 1.379 . S
C206 N213 1.356 . S
C207 C206 1.375 . S
C207 C210 1.351 1_655 S
N208 C210 1.356 . S
N208 H220 0.984 . S
N208 H221 0.985 . S
N209 C211 1.356 . S
N209 H214 0.984 . S
N209 H215 0.985 . S
C210 C204 1.379 . S
C210 C207 1.351 1_455 S
C210 N208 1.356 . S
C211 C205 1.363 1_655 S
C211 C206 1.379 . S
C211 N209 1.356 . S
N212 C204 1.356 . S
N212 H218 0.984 . S
N212 H219 0.984 . S
N213 C206 1.356 . S
N213 H216 0.984 . S
N213 H217 0.985 . S
H214 N209 0.984 . S
H215 N209 0.985 . S
H216 N213 0.984 . S
H217 N213 0.985 . S
H218 N212 0.984 . S
H219 N212 0.984 . S
H220 N208 0.984 . S
H221 N208 0.985 . S
C222 C223 1.363 1_565 S
C222 C228 1.379 . S
C222 N230 1.356 . S
C223 C222 1.363 1_545 S
C223 C229 1.363 . S
C224 C225 1.363 . S
C224 C229 1.379 . S
C224 N231 1.356 . S
C225 C224 1.363 . S
C225 C228 1.363 1_545 S
N226 C228 1.356 . S
N226 H238 0.984 . S
N226 H239 0.985 . S
N227 C229 1.356 . S
N227 H232 0.984 . S
N227 H233 0.985 . S
C228 C222 1.379 . S
C228 C225 1.363 1_565 S
C228 N226 1.356 . S
C229 C223 1.363 . S
C229 C224 1.379 . S
C229 N227 1.356 . S
N230 C222 1.356 . S
N230 H236 0.984 . S
N230 H237 0.984 . S
N231 C224 1.356 . S
N231 H234 0.984 . S
N231 H235 0.985 . S
H232 N227 0.984 . S
H233 N227 0.985 . S
H234 N231 0.984 . S
H235 N231 0.985 . S
H236 N230 0.984 . S
H237 N230 0.984 . S
H238 N226 0.984 . S
H239 N226 0.985 . S
C240 C241 1.363 . S
C240 C246 1.379 . S
C240 N248 1.356 . S
C241 C240 1.363 . S
C241 C247 1.363 1_556 S
C242 C243 1.363 1_554 S
C242 C247 1.379 . S
C242 N249 1.356 . S
C243 C242 1.363 1_556 S
C243 C246 1.363 . S
N244 C246 1.356 . S
N244 H256 0.984 . S
N244 H257 0.985 . S
N245 C247 1.356 . S
N245 H250 0.984 . S
N245 H251 0.985 . S
C246 C240 1.379 . S
C246 C243 1.363 . S
C246 N244 1.356 . S
C247 C241 1.363 1_554 S
C247 C242 1.379 . S
C247 N245 1.356 . S
N248 C240 1.356 . S
N248 H254 0.984 . S
N248 H255 0.984 . S
N249 C242 1.356 . S
N249 H252 0.984 . S
N249 H253 0.985 . S
H250 N245 0.984 . S
H251 N245 0.985 . S
H252 N249 0.984 . S
H253 N249 0.985 . S
H254 N248 0.984 . S
H255 N248 0.984 . S
H256 N244 0.984 . S
H257 N244 0.985 . S
C258 C259 1.353 1_554 S
C258 C264 1.379 . S
C258 N266 1.356 . S
C259 C258 1.353 1_556 S
C259 C265 1.373 . S
C260 C261 1.363 1_556 S
C260 C265 1.379 . S
C260 N267 1.356 . S
C261 C260 1.363 1_554 S
C261 C264 1.363 . S
N262 C264 1.356 . S
N262 H274 0.984 . S
N262 H275 0.985 . S
N263 C265 1.356 . S
N263 H268 0.984 . S
N263 H269 0.985 . S
C264 C258 1.379 . S
C264 C261 1.363 . S
C264 N262 1.356 . S
C265 C259 1.373 . S
C265 C260 1.379 . S
C265 N263 1.356 . S
N266 C258 1.356 . S
N266 H272 0.984 . S
N266 H273 0.984 . S
N267 C260 1.356 . S
N267 H270 0.984 . S
N267 H271 0.985 . S
H268 N263 0.984 . S
H269 N263 0.985 . S
H270 N267 0.984 . S
H271 N267 0.985 . S
H272 N266 0.984 . S
H273 N266 0.984 . S
H274 N262 0.984 . S
H275 N262 0.985 . S
C276 C277 1.353 1_554 S
C276 C282 1.379 . S
C276 N284 1.356 . S
C277 C276 1.353 1_556 S
C277 C283 1.373 . S
C278 C279 1.363 1_556 S
C278 C283 1.379 . S
C278 N285 1.356 . S
C279 C278 1.363 1_554 S
C279 C282 1.363 . S
N280 C282 1.356 . S
N280 H292 0.984 . S
N280 H293 0.985 . S
N281 C283 1.356 . S
N281 H286 0.984 . S
N281 H287 0.985 . S
C282 C276 1.379 . S
C282 C279 1.363 . S
C282 N280 1.356 . S
C283 C277 1.373 . S
C283 C278 1.379 . S
C283 N281 1.356 . S
N284 C276 1.356 . S
N284 H290 0.984 . S
N284 H291 0.984 . S
N285 C278 1.356 . S
N285 H288 0.984 . S
N285 H289 0.985 . S
H286 N281 0.984 . S
H287 N281 0.985 . S
H288 N285 0.984 . S
H289 N285 0.985 . S
H290 N284 0.984 . S
H291 N284 0.984 . S
H292 N280 0.984 . S
H293 N280 0.985 . S
C294 C295 1.363 1_556 S
C294 C300 1.379 . S
C294 N302 1.356 . S
C295 C294 1.363 1_554 S
C295 C301 1.363 . S
C296 C297 1.363 . S
C296 C301 1.379 . S
C296 N303 1.356 . S
C297 C296 1.363 . S
C297 C300 1.363 1_554 S
N298 C300 1.356 . S
N298 H310 0.984 . S
N298 H311 0.985 . S
N299 C301 1.356 . S
N299 H304 0.984 . S
N299 H305 0.985 . S
C300 C294 1.379 . S
C300 C297 1.363 1_556 S
C300 N298 1.356 . S
C301 C295 1.363 . S
C301 C296 1.379 . S
C301 N299 1.356 . S
N302 C294 1.356 . S
N302 H308 0.984 . S
N302 H309 0.984 . S
N303 C296 1.356 . S
N303 H306 0.984 . S
N303 H307 0.985 . S
H304 N299 0.984 . S
H305 N299 0.985 . S
H306 N303 0.984 . S
H307 N303 0.985 . S
H308 N302 0.984 . S
H309 N302 0.984 . S
H310 N298 0.984 . S
H311 N298 0.985 . S
C97 C86 1.248 . S
C99 C8 1.246 . S
C115 C22 1.218 . S
C117 C56 1.211 . S
C133 C17 1.209 . S
C135 C87 1.211 . S
C151 C40 1.248 . S
C153 C31 1.237 . S
C169 C27 1.248 . S
C171 C94 1.250 . S
C187 C49 1.209 . S
C189 C30 1.221 . S
C205 C95 1.209 . S
C207 C24 1.211 . S
C223 C59 1.248 . S
C225 C23 1.241 . S
C241 C81 1.239 . S
C243 C63 1.237 . S
C259 C91 1.222 . S
C261 C54 1.218 . S
C277 C62 1.222 . S
C279 C72 1.218 . S
C295 C88 1.239 . S
C297 C55 1.241 . S
