# Generated by pormake.
# Topology mmt, (4)-cn, num edge types: 1
# Building blocks:
#     Node 0, Type 0, BuildingBlock: QUQFOY_clean_sbu_3, # of connection points: 4
#     Node 1, Type 0, BuildingBlock: QUQFOY_clean_sbu_3, # of connection points: 4
#     Node 2, Type 0, BuildingBlock: QUQFOY_clean_sbu_3, # of connection points: 4
#     Node 3, Type 0, BuildingBlock: QUQFOY_clean_sbu_3, # of connection points: 4
#     Node 4, Type 0, BuildingBlock: QUQFOY_clean_sbu_3, # of connection points: 4
#     Node 5, Type 0, BuildingBlock: QUQFOY_clean_sbu_3, # of connection points: 4
#     Node 6, Type 0, BuildingBlock: QUQFOY_clean_sbu_3, # of connection points: 4
#     Node 7, Type 0, BuildingBlock: QUQFOY_clean_sbu_3, # of connection points: 4
#     Edge 8, Type (0, 0), BuildingBlock: CIFDUS_clean_linker_0, # of connection points: 2
#     Edge 9, Type (0, 0), BuildingBlock: CIFDUS_clean_linker_0, # of connection points: 2
#     Edge 10, Type (0, 0), BuildingBlock: CIFDUS_clean_linker_0, # of connection points: 2
#     Edge 11, Type (0, 0), BuildingBlock: CIFDUS_clean_linker_0, # of connection points: 2
#     Edge 12, Type (0, 0), BuildingBlock: CIFDUS_clean_linker_0, # of connection points: 2
#     Edge 13, Type (0, 0), BuildingBlock: CIFDUS_clean_linker_0, # of connection points: 2
#     Edge 14, Type (0, 0), BuildingBlock: CIFDUS_clean_linker_0, # of connection points: 2
#     Edge 15, Type (0, 0), BuildingBlock: CIFDUS_clean_linker_0, # of connection points: 2
#     Edge 16, Type (0, 0), BuildingBlock: CIFDUS_clean_linker_0, # of connection points: 2
#     Edge 17, Type (0, 0), BuildingBlock: CIFDUS_clean_linker_0, # of connection points: 2
#     Edge 18, Type (0, 0), BuildingBlock: CIFDUS_clean_linker_0, # of connection points: 2
#     Edge 19, Type (0, 0), BuildingBlock: CIFDUS_clean_linker_0, # of connection points: 2
#     Edge 20, Type (0, 0), BuildingBlock: CIFDUS_clean_linker_0, # of connection points: 2
#     Edge 21, Type (0, 0), BuildingBlock: CIFDUS_clean_linker_0, # of connection points: 2
#     Edge 22, Type (0, 0), BuildingBlock: CIFDUS_clean_linker_0, # of connection points: 2
#     Edge 23, Type (0, 0), BuildingBlock: CIFDUS_clean_linker_0, # of connection points: 2
# Relax obj value: 0.025
# Max RMSD: 0.041
# Mean RMSD: 0.041
data_MOF--net-mmt--node1-QUQFOY_clean_sbu_3--edge1-CIFDUS_clean_linker_0
_symmetry_space_group_name_H-M    P1
_symmetry_Int_Tables_number       1
_symmetry_cell_setting            triclinic
loop_
_symmetry_equiv_pos_as_xyz
'x, y, z'
_cell_length_a     20.263287
_cell_length_b     33.943083
_cell_length_c     41.485819
_cell_angle_alpha  89.885589
_cell_angle_beta   89.685729
_cell_angle_gamma 89.502833
loop_
_atom_site_label
_atom_site_type_symbol
_atom_site_fract_x
_atom_site_fract_y
_atom_site_fract_z
_atom_type_partial_charge
C0 C 0.08488 0.66152 0.3267 0.0
O1 O 0.03958 0.67299 0.30784 0.0
Cd2 Cd -0.01026 0.62202 0.27625 0.0
O3 O 0.08902 0.62541 0.33477 0.0
Cd4 Cd 0.01862 0.56608 0.33031 0.0
C5 C 0.11716 0.55334 0.2679 0.0
O6 O 0.91264 0.58069 0.30327 0.0
O7 O 0.95935 0.52385 0.29477 0.0
O8 O 0.97424 0.57289 0.38442 0.0
C9 C 0.91 0.5465 0.2908 0.0
O10 O 0.08104 0.58077 0.25624 0.0
C11 C -0.00515 0.53981 0.39479 0.0
O12 O 0.10822 0.54101 0.29664 0.0
O13 O 0.02809 0.51864 0.37514 0.0
C14 C 0.34139 0.83475 0.32551 0.0
O15 O 0.38052 0.82472 0.30299 0.0
Cd16 Cd 0.43886 0.87486 0.27433 0.0
O17 O 0.34287 0.86952 0.33695 0.0
Cd18 Cd 0.41693 0.92761 0.33091 0.0
C19 C 0.32329 0.95021 0.26853 0.0
O20 O 0.52177 0.9054 0.30623 0.0
O21 O 0.48862 0.96471 0.29546 0.0
O22 O 0.45966 0.92619 0.38563 0.0
C23 C 0.53429 0.939 0.29431 0.0
O24 O 0.35588 0.9226 0.25481 0.0
C25 C 0.43872 0.96029 0.39327 0.0
O26 O 0.33303 0.95841 0.29803 0.0
O27 O 0.40564 0.9789 0.37213 0.0
C28 C 0.59059 0.32633 0.18183 0.0
O29 O 0.55754 0.33299 0.20742 0.0
Cd30 Cd 0.48075 0.38538 0.21973 0.0
O31 O 0.58456 0.34885 0.15734 0.0
Cd32 Cd 0.52071 0.41079 0.14634 0.0
C33 C 0.59356 0.45815 0.20922 0.0
O34 O 0.41538 0.39813 0.17392 0.0
O35 O 0.43452 0.45794 0.15941 0.0
O36 O 0.49447 0.39366 0.09045 0.0
C37 C 0.39536 0.43361 0.1723 0.0
O38 O 0.55157 0.44183 0.22776 0.0
C39 C 0.51837 0.42495 0.0784 0.0
O40 O 0.59756 0.44929 0.17936 0.0
O41 O 0.54676 0.44824 0.09774 0.0
C42 C 0.86125 0.15543 0.15918 0.0
O43 O 0.88662 0.1466 0.18623 0.0
Cd44 Cd 0.95085 0.08931 0.20093 0.0
O45 O 0.86871 0.13264 0.13502 0.0
Cd46 Cd 0.91939 0.06587 0.12894 0.0
C47 C 0.82428 0.02751 0.18924 0.0
O48 O 0.02406 0.07089 0.15845 0.0
O49 O -0.00858 0.01256 0.1457 0.0
O50 O 0.96 0.07354 0.07347 0.0
C51 C 0.03618 0.03416 0.15713 0.0
O52 O 0.86735 0.03934 0.20914 0.0
C53 C 0.92654 0.04506 0.06253 0.0
O54 O 0.82816 0.03629 0.15941 0.0
O55 O 0.88663 0.02863 0.08196 0.0
C56 C 0.88166 0.32357 0.64719 0.0
O57 O 0.92974 0.31448 0.66527 0.0
Cd58 Cd 0.98297 0.36844 0.69218 0.0
O59 O 0.87464 0.35875 0.63701 0.0
Cd60 Cd 0.93854 0.42084 0.63509 0.0
C61 C 0.84969 0.43264 0.70199 0.0
O62 O 0.04936 0.40848 0.65793 0.0
O63 O 0.01002 0.4683 0.65875 0.0
O64 O 0.96862 0.40927 0.57918 0.0
C65 C 0.05752 0.44478 0.66441 0.0
O66 O 0.88999 0.40696 0.71296 0.0
C67 C 0.94461 0.44132 0.56836 0.0
O68 O 0.85387 0.44476 0.67293 0.0
O69 O 0.9151 0.46363 0.58856 0.0
C70 C 0.63542 0.14326 0.64983 0.0
O71 O 0.59811 0.14904 0.67407 0.0
Cd72 Cd 0.53449 0.09745 0.69882 0.0
O73 O 0.63334 0.11103 0.6342 0.0
Cd74 Cd 0.56482 0.05046 0.63388 0.0
C75 C 0.65088 0.02221 0.69915 0.0
O76 O 0.46075 0.06975 0.66088 0.0
O77 O 0.48366 0.00755 0.65712 0.0
O78 O 0.53004 0.05721 0.5779 0.0
C79 C 0.44336 0.03432 0.66571 0.0
O80 O 0.61625 0.04763 0.71443 0.0
C81 C 0.5553 0.02468 0.56875 0.0
O82 O 0.64442 0.0177 0.66885 0.0
O83 O 0.58743 0.00506 0.58965 0.0
C84 C 0.36825 0.64056 0.82732 0.0
O85 O 0.40538 0.64738 0.80326 0.0
Cd86 Cd 0.46436 0.59559 0.77581 0.0
O87 O 0.36972 0.60715 0.84142 0.0
Cd88 Cd 0.43919 0.54584 0.8397 0.0
C89 C 0.34622 0.52178 0.77612 0.0
O90 O 0.54114 0.56517 0.81108 0.0
O91 O 0.518 0.50314 0.81331 0.0
O92 O 0.47727 0.55556 0.89463 0.0
C93 C 0.55772 0.52983 0.80466 0.0
O94 O 0.37999 0.54775 0.76132 0.0
C95 C 0.45865 0.52233 0.90528 0.0
O96 O 0.3551 0.51504 0.80605 0.0
O97 O 0.42834 0.50026 0.88564 0.0
C98 C 0.12791 0.8248 0.82932 0.0
O99 O 0.08366 0.81576 0.8092 0.0
Cd100 Cd 0.02776 0.86714 0.77981 0.0
O101 O 0.13339 0.86026 0.8389 0.0
Cd102 Cd 0.0697 0.92322 0.83363 0.0
C103 C 0.15417 0.93258 0.76492 0.0
O104 O 0.95862 0.9075 0.81294 0.0
O105 O -0.00405 0.96679 0.80599 0.0
O106 O 0.03253 0.92588 0.88908 0.0
C107 C 0.94836 0.94296 0.80419 0.0
O108 O 0.11545 0.90589 0.75499 0.0
C109 C 0.05995 0.95832 0.8958 0.0
O110 O 0.15054 0.94522 0.79379 0.0
O111 O 0.09648 0.97344 0.87411 0.0
H112 H 0.17015 0.4793 0.27153 0.0
H113 H 0.17979 0.58798 0.21756 0.0
H114 H 0.26404 0.55962 0.18224 0.0
H115 H 0.33646 0.5048 0.16729 0.0
H116 H 0.32627 0.39509 0.21966 0.0
H117 H 0.23983 0.42271 0.25463 0.0
C118 C 0.19104 0.49675 0.25212 0.0
C119 C 0.16924 0.53577 0.24732 0.0
C120 C 0.23877 0.47999 0.23145 0.0
C121 C 0.19582 0.55789 0.22177 0.0
C122 C 0.24393 0.5417 0.20153 0.0
C123 C 0.315 0.48681 0.18622 0.0
C124 C 0.33788 0.44807 0.191 0.0
C125 C 0.26581 0.50287 0.20618 0.0
C126 C 0.30927 0.42498 0.21542 0.0
C127 C 0.26022 0.44085 0.23556 0.0
H128 H 0.10498 0.06163 0.20828 0.0
H129 H 0.09691 0.96592 0.14024 0.0
H130 H 0.18789 0.93247 0.1677 0.0
H131 H 0.26537 0.92869 0.21263 0.0
H132 H 0.26855 0.02188 0.2832 0.0
H133 H 0.18377 0.05801 0.25329 0.0
C134 C 0.12389 0.03372 0.1993 0.0
C135 C 0.09476 0.01626 0.17227 0.0
C136 C 0.17477 0.01404 0.21584 0.0
C137 C 0.11873 0.97982 0.16107 0.0
C138 C 0.17059 0.96067 0.17677 0.0
C139 C 0.24786 0.95703 0.22136 0.0
C140 C 0.27317 0.97255 0.25008 0.0
C141 C 0.19828 0.97722 0.20444 0.0
C142 C 0.24955 0.00917 0.26123 0.0
C143 C 0.20121 0.0299 0.24411 0.0
H144 H 0.72138 0.46602 0.19197 0.0
H145 H 0.57522 0.50819 0.25976 0.0
H146 H 0.66001 0.54422 0.28906 0.0
H147 H 0.77795 0.55755 0.29878 0.0
H148 H 0.92422 0.50848 0.23422 0.0
H149 H 0.83769 0.4817 0.20013 0.0
C150 C 0.708 0.48381 0.21274 0.0
C151 C 0.64242 0.48459 0.22371 0.0
C152 C 0.75733 0.50288 0.23025 0.0
C153 C 0.62566 0.50715 0.25097 0.0
C154 C 0.67408 0.52764 0.26777 0.0
C155 C 0.79044 0.54156 0.27694 0.0
C156 C 0.85689 0.53482 0.26891 0.0
C157 C 0.74041 0.5248 0.25817 0.0
C158 C 0.87308 0.51369 0.24085 0.0
C159 C 0.82374 0.49841 0.22138 0.0
H160 H 0.81689 0.97918 0.24133 0.0
H161 H 0.69991 0.03079 0.16532 0.0
H162 H 0.59929 0.00612 0.19064 0.0
H163 H 0.54414 0.97531 0.23697 0.0
H164 H 0.66011 0.91981 0.3113 0.0
H165 H 0.76205 0.94036 0.28403 0.0
C166 C 0.76936 0.98449 0.23014 0.0
C167 C 0.76554 0.00711 0.20176 0.0
C168 C 0.71181 0.96986 0.24465 0.0
C169 C 0.70398 0.0134 0.18716 0.0
C170 C 0.64645 -0.00046 0.20172 0.0
C171 C 0.59189 0.96742 0.24693 0.0
C172 C 0.59525 0.94673 0.27619 0.0
C173 C 0.64972 0.97863 0.23085 0.0
C174 C 0.65688 0.93589 0.28877 0.0
C175 C 0.71491 0.94774 0.27327 0.0
H176 H 0.62011 0.4598 0.80212 0.0
H177 H 0.62555 0.57725 0.76253 0.0
H178 H 0.71586 0.55753 0.72617 0.0
H179 H 0.79131 0.50563 0.70462 0.0
H180 H 0.78726 0.38958 0.74725 0.0
H181 H 0.69798 0.40988 0.78321 0.0
C182 C 0.64126 0.48116 0.78563 0.0
C183 C 0.61612 0.51979 0.78482 0.0
C184 C 0.69307 0.46973 0.76516 0.0
C185 C 0.6444 0.54732 0.76364 0.0
C186 C 0.69568 0.53599 0.74273 0.0
C187 C 0.77058 0.48492 0.72177 0.0
C188 C 0.79546 0.44615 0.72321 0.0
C189 C 0.71999 0.49709 0.74304 0.0
C190 C 0.769 0.41963 0.74578 0.0
C191 C 0.71794 0.43117 0.76634 0.0
H192 H 0.70143 0.03829 0.75778 0.0
H193 H 0.71386 0.9544 0.6799 0.0
H194 H 0.80216 0.91887 0.70796 0.0
H195 H 0.88202 0.91496 0.7528 0.0
H196 H 0.87523 0.00302 0.8274 0.0
H197 H 0.7777 0.03331 0.80287 0.0
C198 C 0.72287 0.01198 0.74707 0.0
C199 C 0.70128 -0.00091 0.71677 0.0
C200 C 0.77455 -0.00758 0.76286 0.0
C201 C 0.72998 0.9651 0.70312 0.0
C202 C 0.78035 0.94473 0.71917 0.0
C203 C 0.85799 0.94025 0.76389 0.0
C204 C 0.88458 0.95667 0.79191 0.0
C205 C 0.80382 0.95852 0.7488 0.0
C206 C 0.85473 -0.01006 0.80589 0.0
C207 C 0.79938 0.00731 0.79181 0.0
H208 H 0.29243 0.54248 0.71903 0.0
H209 H 0.28514 0.45265 0.79269 0.0
H210 H 0.19964 0.41808 0.76257 0.0
H211 H 0.12279 0.41539 0.71629 0.0
H212 H 0.12519 0.50887 0.64586 0.0
H213 H 0.21767 0.53971 0.67335 0.0
C214 C 0.27258 0.51517 0.72846 0.0
C215 C 0.29519 0.50016 0.75806 0.0
C216 C 0.22278 0.49602 0.71142 0.0
C217 C 0.26834 0.46495 0.77003 0.0
C218 C 0.21963 0.44511 0.75277 0.0
C219 C 0.14466 0.44208 0.70679 0.0
C220 C 0.11826 0.45973 0.67898 0.0
C221 C 0.19605 0.46055 0.72354 0.0
C222 C 0.14539 0.4948 0.66715 0.0
C223 C 0.19792 0.51248 0.68292 0.0
H224 H 0.21187 0.00497 0.76495 0.0
H225 H 0.21053 0.89362 0.71486 0.0
H226 H 0.29754 0.91627 0.67875 0.0
H227 H 0.37711 0.96629 0.66282 0.0
H228 H 0.37699 0.07903 0.71048 0.0
H229 H 0.28666 0.05759 0.74584 0.0
C230 C 0.23072 0.98579 0.74609 0.0
C231 C 0.20533 0.94758 0.74274 0.0
C232 C 0.28011 -0.00071 0.72493 0.0
C233 C 0.2293 0.92317 0.71791 0.0
C234 C 0.27909 0.93605 0.69727 0.0
C235 C 0.3569 0.98628 0.68078 0.0
C236 C 0.38376 0.02399 0.68429 0.0
C237 C 0.30519 0.97385 0.70074 0.0
C238 C 0.35678 0.04986 0.70732 0.0
C239 C 0.30554 0.03751 0.72765 0.0
H240 H 0.02272 0.46861 0.4224 0.0
H241 H 0.93219 0.58169 0.44201 0.0
H242 H 0.9061 0.56076 0.49684 0.0
H243 H 0.91072 0.51086 0.53974 0.0
H244 H 0.0015 0.39783 0.5203 0.0
H245 H 0.0251 0.41811 0.465 0.0
C246 C -0.00265 0.48868 0.43868 0.0
C247 C 0.97974 0.52671 0.4281 0.0
C248 C 0.98222 0.47642 0.47026 0.0
C249 C 0.94652 0.55226 0.44949 0.0
C250 C 0.93145 0.54032 0.4809 0.0
C251 C 0.93519 0.49055 0.52334 0.0
C252 C 0.95428 0.4529 0.53421 0.0
C253 C 0.94918 0.50251 0.49158 0.0
C254 C -0.01379 0.42701 0.51262 0.0
C255 C -7e-05 0.43861 0.48097 0.0
H256 H 0.52045 0.93076 0.43909 0.0
H257 H 0.39225 0.02968 0.41826 0.0
H258 H 0.41938 0.05923 0.47015 0.0
H259 H 0.47816 0.05641 0.52178 0.0
H260 H 0.60623 0.95733 0.54242 0.0
H261 H 0.581 0.92865 0.49006 0.0
C262 C 0.49827 0.95874 0.44592 0.0
C263 C 0.4541 0.97787 0.42492 0.0
C264 C 0.51439 0.97567 0.47566 0.0
C265 C 0.42624 0.01427 0.43403 0.0
C266 C 0.44182 0.03123 0.46367 0.0
C267 C 0.50099 0.0287 0.51472 0.0
C268 C 0.54402 0.00906 0.536 0.0
C269 C 0.48578 0.01216 0.48469 0.0
C270 C 0.57297 0.9731 0.52651 0.0
C271 C 0.55841 0.95659 0.49661 0.0
H272 H 0.54727 0.49435 0.04921 0.0
H273 H 0.46506 0.3798 0.03072 0.0
H274 H 0.43879 0.39978 0.97556 0.0
H275 H 0.43611 0.45064 0.93304 0.0
H276 H 0.51718 0.56536 0.95233 0.0
H277 H 0.54634 0.54452 0.00672 0.0
C278 C 0.52422 0.47357 0.03304 0.0
C279 C 0.50833 0.4356 0.04409 0.0
C280 C 0.5083 0.48546 0.00156 0.0
C281 C 0.47801 0.40918 0.02284 0.0
C282 C 0.46268 0.42065 -0.00868 0.0
C283 C 0.45994 0.47111 0.94919 0.0
C284 C 0.47408 0.50959 0.93862 0.0
C285 C 0.4769 0.45889 0.98052 0.0
C286 C 0.50544 0.53564 0.95981 0.0
C287 C 0.52235 0.52372 -0.00906 0.0
H288 H 0.95882 0.94379 0.9366 0.0
H289 H 0.12585 0.02008 0.92291 0.0
H290 H 0.09668 0.05573 0.97236 0.0
H291 H 0.02459 0.06409 0.02008 0.0
H292 H 0.85675 0.9879 0.03246 0.0
H293 H 0.88471 0.95385 0.9825 0.0
C294 C -0.01079 0.96803 0.94453 0.0
C295 C 0.04494 0.97895 0.92637 0.0
C296 C 0.97147 -0.01126 0.97251 0.0
C297 C 0.08301 0.01091 0.93664 0.0
C298 C 0.06618 0.03139 0.96481 0.0
C299 C -0.00638 0.04041 0.0116 0.0
C300 C 0.93867 0.02855 0.03003 0.0
C301 C 0.01045 0.02055 0.98295 0.0
C302 C 0.89928 -0.00235 0.01878 0.0
C303 C 0.91543 0.97798 -0.00971 0.0
H304 H 0.07739 0.74083 0.33616 0.0
H305 H 0.21409 0.64274 0.33447 0.0
H306 H 0.30701 0.68788 0.33701 0.0
H307 H 0.34929 0.7555 0.33271 0.0
H308 H 0.21339 0.85369 0.33798 0.0
H309 H 0.12032 0.80841 0.34156 0.0
C310 C 0.12753 0.72943 0.33701 0.0
C311 C 0.13897 0.68863 0.33473 0.0
C312 C 0.18082 0.75556 0.33889 0.0
C313 C 0.20404 0.67406 0.33624 0.0
C314 C 0.25725 0.69986 0.33747 0.0
C315 C 0.29934 0.76686 0.33537 0.0
C316 C 0.28793 0.80771 0.33475 0.0
C317 C 0.24625 0.74068 0.33778 0.0
C318 C 0.22324 0.82227 0.33852 0.0
C319 C 0.17001 0.79641 0.3403 0.0
H320 H 0.79838 0.19124 0.20867 0.0
H321 H 0.82007 0.19597 0.10526 0.0
H322 H 0.73844 0.24972 0.10282 0.0
H323 H 0.65873 0.29445 0.13044 0.0
H324 H 0.63466 0.28519 0.23374 0.0
H325 H 0.7189 0.23398 0.23568 0.0
C326 C 0.78598 0.20428 0.18556 0.0
C327 C 0.8159 0.18989 0.15722 0.0
C328 C 0.73786 0.23414 0.18428 0.0
C329 C 0.79805 0.20666 0.12746 0.0
C330 C 0.75121 0.23729 0.12606 0.0
C331 C 0.67185 0.28114 0.15333 0.0
C332 C 0.64007 0.29378 0.18187 0.0
C333 C 0.72031 0.25107 0.15434 0.0
C334 C 0.65769 0.27604 0.21132 0.0
C335 C 0.70624 0.24679 0.21254 0.0
H336 H 0.62286 0.22281 0.64878 0.0
H337 H 0.76367 0.12844 0.63483 0.0
H338 H 0.85354 0.17603 0.63129 0.0
H339 H 0.8929 0.24443 0.6372 0.0
H340 H 0.75052 0.33893 0.64646 0.0
H341 H 0.66044 0.2916 0.64645 0.0
C342 C 0.67315 0.21285 0.64442 0.0
C343 C 0.68696 0.17234 0.64233 0.0
C344 C 0.72426 0.24039 0.64177 0.0
C345 C 0.75202 0.15959 0.63638 0.0
C346 C 0.80341 0.18675 0.63457 0.0
C347 C 0.84204 0.25455 0.6387 0.0
C348 C 0.82826 0.29497 0.64211 0.0
C349 C 0.7903 0.22719 0.63799 0.0
C350 C 0.76225 0.30791 0.6437 0.0
C351 C 0.71074 0.28087 0.64389 0.0
H352 H 0.38338 0.71945 0.83369 0.0
H353 H 0.23882 0.62733 0.83966 0.0
H354 H 0.15011 0.67655 0.84352 0.0
H355 H 0.11339 0.74593 0.83858 0.0
H356 H 0.25867 0.83799 0.83684 0.0
H357 H 0.34741 0.78885 0.83853 0.0
C358 C 0.3325 0.7103 0.83653 0.0
C359 C 0.31732 0.67001 0.83608 0.0
C360 C 0.28197 0.73874 0.83929 0.0
C361 C 0.25149 0.65827 0.84005 0.0
C362 C 0.20078 0.68639 0.84203 0.0
C363 C 0.1645 0.75514 0.83927 0.0
C364 C 0.17958 0.79542 0.83724 0.0
C365 C 0.21532 0.72671 0.84071 0.0
C366 C 0.24587 0.80712 0.83848 0.0
C367 C 0.29666 0.77903 0.83919 0.0
loop_
_geom_bond_atom_site_label_1
_geom_bond_atom_site_label_2
_geom_bond_distance
_geom_bond_site_symmetry_2
_ccdc_geom_bond_type
C0 O1 1.306 . S
C0 O3 1.160 . S
O1 C0 1.306 . S
O1 Cd2 2.228 . S
Cd2 O1 2.228 . S
Cd2 O6 2.273 . S
Cd2 O10 2.277 . S
O3 C0 1.160 . S
O3 Cd4 2.203 . S
Cd4 O3 2.203 . S
Cd4 O6 2.411 . S
Cd4 O7 2.333 . S
Cd4 O8 2.352 . S
Cd4 O12 2.277 . S
Cd4 O13 2.356 . S
C5 O10 1.209 . S
C5 O12 1.226 . S
O6 Cd2 2.273 . S
O6 Cd4 2.411 . S
O6 C9 1.320 . S
O7 Cd4 2.333 . S
O7 C9 1.214 . S
O8 Cd4 2.352 . S
O8 C11 1.258 . S
C9 O6 1.320 . S
C9 O7 1.214 . S
O10 Cd2 2.277 . S
O10 C5 1.209 . S
C11 O8 1.258 . S
C11 O13 1.282 . S
O12 Cd4 2.277 . S
O12 C5 1.226 . S
O13 Cd4 2.356 . S
O13 C11 1.282 . S
C14 O15 1.306 . S
C14 O17 1.160 . S
O15 C14 1.306 . S
O15 Cd16 2.228 . S
Cd16 O15 2.228 . S
Cd16 O20 2.273 . S
Cd16 O24 2.277 . S
O17 C14 1.160 . S
O17 Cd18 2.203 . S
Cd18 O17 2.203 . S
Cd18 O20 2.411 . S
Cd18 O21 2.333 . S
Cd18 O22 2.352 . S
Cd18 O26 2.277 . S
Cd18 O27 2.356 . S
C19 O24 1.209 . S
C19 O26 1.226 . S
O20 Cd16 2.273 . S
O20 Cd18 2.411 . S
O20 C23 1.320 . S
O21 Cd18 2.333 . S
O21 C23 1.214 . S
O22 Cd18 2.352 . S
O22 C25 1.258 . S
C23 O20 1.320 . S
C23 O21 1.214 . S
O24 Cd16 2.277 . S
O24 C19 1.209 . S
C25 O22 1.258 . S
C25 O27 1.282 . S
O26 Cd18 2.277 . S
O26 C19 1.226 . S
O27 Cd18 2.356 . S
O27 C25 1.282 . S
C28 O29 1.306 . S
C28 O31 1.160 . S
O29 C28 1.306 . S
O29 Cd30 2.228 . S
Cd30 O29 2.228 . S
Cd30 O34 2.273 . S
Cd30 O38 2.277 . S
O31 C28 1.160 . S
O31 Cd32 2.203 . S
Cd32 O31 2.203 . S
Cd32 O34 2.411 . S
Cd32 O35 2.333 . S
Cd32 O36 2.352 . S
Cd32 O40 2.277 . S
Cd32 O41 2.356 . S
C33 O38 1.209 . S
C33 O40 1.226 . S
O34 Cd30 2.273 . S
O34 Cd32 2.411 . S
O34 C37 1.320 . S
O35 Cd32 2.333 . S
O35 C37 1.214 . S
O36 Cd32 2.352 . S
O36 C39 1.258 . S
C37 O34 1.320 . S
C37 O35 1.214 . S
O38 Cd30 2.277 . S
O38 C33 1.209 . S
C39 O36 1.258 . S
C39 O41 1.282 . S
O40 Cd32 2.277 . S
O40 C33 1.226 . S
O41 Cd32 2.356 . S
O41 C39 1.282 . S
C42 O43 1.306 . S
C42 O45 1.160 . S
O43 C42 1.306 . S
O43 Cd44 2.228 . S
Cd44 O43 2.228 . S
Cd44 O48 2.273 . S
Cd44 O52 2.277 . S
O45 C42 1.160 . S
O45 Cd46 2.203 . S
Cd46 O45 2.203 . S
Cd46 O48 2.411 . S
Cd46 O49 2.333 . S
Cd46 O50 2.352 . S
Cd46 O54 2.277 . S
Cd46 O55 2.356 . S
C47 O52 1.209 . S
C47 O54 1.226 . S
O48 Cd44 2.273 . S
O48 Cd46 2.411 . S
O48 C51 1.320 . S
O49 Cd46 2.333 . S
O49 C51 1.214 . S
O50 Cd46 2.352 . S
O50 C53 1.258 . S
C51 O48 1.320 . S
C51 O49 1.214 . S
O52 Cd44 2.277 . S
O52 C47 1.209 . S
C53 O50 1.258 . S
C53 O55 1.282 . S
O54 Cd46 2.277 . S
O54 C47 1.226 . S
O55 Cd46 2.356 . S
O55 C53 1.282 . S
C56 O57 1.306 . S
C56 O59 1.160 . S
O57 C56 1.306 . S
O57 Cd58 2.228 . S
Cd58 O57 2.228 . S
Cd58 O62 2.273 . S
Cd58 O66 2.277 . S
O59 C56 1.160 . S
O59 Cd60 2.203 . S
Cd60 O59 2.203 . S
Cd60 O62 2.411 . S
Cd60 O63 2.333 . S
Cd60 O64 2.352 . S
Cd60 O68 2.277 . S
Cd60 O69 2.356 . S
C61 O66 1.209 . S
C61 O68 1.226 . S
O62 Cd58 2.273 . S
O62 Cd60 2.411 . S
O62 C65 1.320 . S
O63 Cd60 2.333 . S
O63 C65 1.214 . S
O64 Cd60 2.352 . S
O64 C67 1.258 . S
C65 O62 1.320 . S
C65 O63 1.214 . S
O66 Cd58 2.277 . S
O66 C61 1.209 . S
C67 O64 1.258 . S
C67 O69 1.282 . S
O68 Cd60 2.277 . S
O68 C61 1.226 . S
O69 Cd60 2.356 . S
O69 C67 1.282 . S
C70 O71 1.306 . S
C70 O73 1.160 . S
O71 C70 1.306 . S
O71 Cd72 2.228 . S
Cd72 O71 2.228 . S
Cd72 O76 2.273 . S
Cd72 O80 2.277 . S
O73 C70 1.160 . S
O73 Cd74 2.203 . S
Cd74 O73 2.203 . S
Cd74 O76 2.411 . S
Cd74 O77 2.333 . S
Cd74 O78 2.352 . S
Cd74 O82 2.277 . S
Cd74 O83 2.356 . S
C75 O80 1.209 . S
C75 O82 1.226 . S
O76 Cd72 2.273 . S
O76 Cd74 2.411 . S
O76 C79 1.320 . S
O77 Cd74 2.333 . S
O77 C79 1.214 . S
O78 Cd74 2.352 . S
O78 C81 1.258 . S
C79 O76 1.320 . S
C79 O77 1.214 . S
O80 Cd72 2.277 . S
O80 C75 1.209 . S
C81 O78 1.258 . S
C81 O83 1.282 . S
O82 Cd74 2.277 . S
O82 C75 1.226 . S
O83 Cd74 2.356 . S
O83 C81 1.282 . S
C84 O85 1.306 . S
C84 O87 1.160 . S
O85 C84 1.306 . S
O85 Cd86 2.228 . S
Cd86 O85 2.228 . S
Cd86 O90 2.273 . S
Cd86 O94 2.277 . S
O87 C84 1.160 . S
O87 Cd88 2.203 . S
Cd88 O87 2.203 . S
Cd88 O90 2.411 . S
Cd88 O91 2.333 . S
Cd88 O92 2.352 . S
Cd88 O96 2.277 . S
Cd88 O97 2.356 . S
C89 O94 1.209 . S
C89 O96 1.226 . S
O90 Cd86 2.273 . S
O90 Cd88 2.411 . S
O90 C93 1.320 . S
O91 Cd88 2.333 . S
O91 C93 1.214 . S
O92 Cd88 2.352 . S
O92 C95 1.258 . S
C93 O90 1.320 . S
C93 O91 1.214 . S
O94 Cd86 2.277 . S
O94 C89 1.209 . S
C95 O92 1.258 . S
C95 O97 1.282 . S
O96 Cd88 2.277 . S
O96 C89 1.226 . S
O97 Cd88 2.356 . S
O97 C95 1.282 . S
C98 O99 1.306 . S
C98 O101 1.160 . S
O99 C98 1.306 . S
O99 Cd100 2.228 . S
Cd100 O99 2.228 . S
Cd100 O104 2.273 . S
Cd100 O108 2.277 . S
O101 C98 1.160 . S
O101 Cd102 2.203 . S
Cd102 O101 2.203 . S
Cd102 O104 2.411 . S
Cd102 O105 2.333 . S
Cd102 O106 2.352 . S
Cd102 O110 2.277 . S
Cd102 O111 2.356 . S
C103 O108 1.209 . S
C103 O110 1.226 . S
O104 Cd100 2.273 . S
O104 Cd102 2.411 . S
O104 C107 1.320 . S
O105 Cd102 2.333 . S
O105 C107 1.214 . S
O106 Cd102 2.352 . S
O106 C109 1.258 . S
C107 O104 1.320 . S
C107 O105 1.214 . S
O108 Cd100 2.277 . S
O108 C103 1.209 . S
C109 O106 1.258 . S
C109 O111 1.282 . S
O110 Cd102 2.277 . S
O110 C103 1.226 . S
O111 Cd102 2.356 . S
O111 C109 1.282 . S
H112 C118 0.930 . S
H113 C121 0.930 . S
H114 C122 0.930 . S
H115 C123 0.930 . S
H116 C126 0.930 . S
H117 C127 0.930 . S
C118 H112 0.930 . S
C118 C119 1.355 . S
C118 C120 1.415 . S
C119 C118 1.355 . S
C119 C121 1.419 . S
C120 C118 1.415 . S
C120 C125 1.425 . S
C120 C127 1.409 . S
C121 H113 0.930 . S
C121 C119 1.419 . S
C121 C122 1.362 . S
C122 H114 0.930 . S
C122 C121 1.362 . S
C122 C125 1.409 . S
C123 H115 0.930 . S
C123 C124 1.355 . S
C123 C125 1.415 . S
C124 C123 1.355 . S
C124 C126 1.419 . S
C125 C120 1.425 . S
C125 C122 1.409 . S
C125 C123 1.415 . S
C126 H116 0.930 . S
C126 C124 1.419 . S
C126 C127 1.362 . S
C127 H117 0.930 . S
C127 C120 1.409 . S
C127 C126 1.362 . S
H128 C134 0.930 . S
H129 C137 0.930 1_655 S
H130 C138 0.930 . S
H131 C139 0.930 . S
H132 C142 0.930 . S
H133 C143 0.930 . S
C134 H128 0.930 . S
C134 C135 1.355 . S
C134 C136 1.415 . S
C135 C134 1.355 . S
C135 C137 1.419 1_545 S
C136 C134 1.415 . S
C136 C141 1.425 1_545 S
C136 C143 1.409 . S
C137 H129 0.930 1_455 S
C137 C135 1.419 1_565 S
C137 C138 1.362 . S
C138 H130 0.930 . S
C138 C137 1.362 . S
C138 C141 1.409 . S
C139 H131 0.930 . S
C139 C140 1.355 . S
C139 C141 1.415 . S
C140 C139 1.355 . S
C140 C142 1.419 1_565 S
C141 C136 1.425 1_565 S
C141 C138 1.409 . S
C141 C139 1.415 . S
C142 H132 0.930 . S
C142 C140 1.419 1_545 S
C142 C143 1.362 . S
C143 H133 0.930 . S
C143 C136 1.409 . S
C143 C142 1.362 . S
H144 C150 0.930 . S
H145 C153 0.930 . S
H146 C154 0.930 . S
H147 C155 0.930 . S
H148 C158 0.930 . S
H149 C159 0.930 . S
C150 H144 0.930 . S
C150 C151 1.355 . S
C150 C152 1.415 . S
C151 C150 1.355 . S
C151 C153 1.419 . S
C152 C150 1.415 . S
C152 C157 1.425 . S
C152 C159 1.409 . S
C153 H145 0.930 . S
C153 C151 1.419 . S
C153 C154 1.362 . S
C154 H146 0.930 . S
C154 C153 1.362 . S
C154 C157 1.409 . S
C155 H147 0.930 . S
C155 C156 1.355 . S
C155 C157 1.415 . S
C156 C155 1.355 . S
C156 C158 1.419 1_655 S
C157 C152 1.425 . S
C157 C154 1.409 . S
C157 C155 1.415 . S
C158 H148 0.930 . S
C158 C156 1.419 1_455 S
C158 C159 1.362 1_455 S
C159 H149 0.930 . S
C159 C152 1.409 . S
C159 C158 1.362 1_655 S
H160 C166 0.930 . S
H161 C169 0.930 . S
H162 C170 0.930 . S
H163 C171 0.925 1_545 S
H164 C174 0.930 . S
H165 C175 0.930 . S
C166 H160 0.930 . S
C166 C167 1.355 1_565 S
C166 C168 1.415 . S
C167 C166 1.355 1_545 S
C167 C169 1.419 . S
C168 C166 1.415 . S
C168 C173 1.425 1_565 S
C168 C175 1.409 . S
C169 H161 0.930 . S
C169 C167 1.419 . S
C169 C170 1.362 . S
C170 H162 0.930 . S
C170 C169 1.362 . S
C170 C173 1.409 . S
C171 H163 0.925 1_565 S
C171 C172 1.361 . S
C171 C173 1.413 1_565 S
C172 C171 1.361 . S
C172 C174 1.419 . S
C173 C168 1.425 1_545 S
C173 C170 1.409 . S
C173 C171 1.413 1_545 S
C174 H164 0.930 . S
C174 C172 1.419 . S
C174 C175 1.362 . S
C175 H165 0.930 . S
C175 C168 1.409 . S
C175 C174 1.362 . S
H176 C182 0.930 . S
H177 C185 0.930 . S
H178 C186 0.930 . S
H179 C187 0.930 . S
H180 C190 0.930 . S
H181 C191 0.930 . S
C182 H176 0.930 . S
C182 C183 1.355 . S
C182 C184 1.415 . S
C183 C182 1.355 . S
C183 C185 1.419 . S
C184 C182 1.415 . S
C184 C189 1.425 . S
C184 C191 1.409 . S
C185 H177 0.930 . S
C185 C183 1.419 . S
C185 C186 1.362 . S
C186 H178 0.930 . S
C186 C185 1.362 . S
C186 C189 1.409 . S
C187 H179 0.930 . S
C187 C188 1.355 . S
C187 C189 1.415 . S
C188 C187 1.355 . S
C188 C190 1.419 . S
C189 C184 1.425 . S
C189 C186 1.409 . S
C189 C187 1.415 . S
C190 H180 0.930 . S
C190 C188 1.419 . S
C190 C191 1.362 . S
C191 H181 0.930 . S
C191 C184 1.409 . S
C191 C190 1.362 . S
H192 C198 0.930 . S
H193 C201 0.930 . S
H194 C202 0.930 . S
H195 C203 0.930 . S
H196 C206 0.930 . S
H197 C207 0.930 . S
C198 H192 0.930 . S
C198 C199 1.355 . S
C198 C200 1.415 . S
C199 C198 1.355 . S
C199 C201 1.419 1_545 S
C200 C198 1.415 . S
C200 C205 1.425 1_545 S
C200 C207 1.409 . S
C201 H193 0.930 . S
C201 C199 1.419 1_565 S
C201 C202 1.362 . S
C202 H194 0.930 . S
C202 C201 1.362 . S
C202 C205 1.409 . S
C203 H195 0.930 . S
C203 C204 1.355 . S
C203 C205 1.415 . S
C204 C203 1.355 . S
C204 C206 1.419 1_665 S
C205 C200 1.425 1_565 S
C205 C202 1.409 . S
C205 C203 1.415 . S
C206 H196 0.930 . S
C206 C204 1.419 1_445 S
C206 C207 1.362 1_455 S
C207 H197 0.930 . S
C207 C200 1.409 . S
C207 C206 1.362 1_655 S
H208 C214 0.930 . S
H209 C217 0.930 . S
H210 C218 0.930 . S
H211 C219 0.930 . S
H212 C222 0.930 . S
H213 C223 0.930 . S
C214 H208 0.930 . S
C214 C215 1.355 . S
C214 C216 1.415 . S
C215 C214 1.355 . S
C215 C217 1.419 . S
C216 C214 1.415 . S
C216 C221 1.425 . S
C216 C223 1.409 . S
C217 H209 0.930 . S
C217 C215 1.419 . S
C217 C218 1.362 . S
C218 H210 0.930 . S
C218 C217 1.362 . S
C218 C221 1.409 . S
C219 H211 0.930 . S
C219 C220 1.355 . S
C219 C221 1.415 . S
C220 C219 1.355 . S
C220 C222 1.419 1_455 S
C221 C216 1.425 . S
C221 C218 1.409 . S
C221 C219 1.415 . S
C222 H212 0.930 . S
C222 C220 1.419 1_655 S
C222 C223 1.362 1_655 S
C223 H213 0.930 . S
C223 C216 1.409 . S
C223 C222 1.362 1_455 S
H224 C230 0.930 . S
H225 C233 0.930 . S
H226 C234 0.930 . S
H227 C235 0.930 . S
H228 C238 0.930 . S
H229 C239 0.930 . S
C230 H224 0.930 . S
C230 C231 1.355 1_545 S
C230 C232 1.415 . S
C231 C230 1.355 1_565 S
C231 C233 1.419 . S
C232 C230 1.415 . S
C232 C237 1.425 1_545 S
C232 C239 1.409 . S
C233 H225 0.930 . S
C233 C231 1.419 . S
C233 C234 1.362 . S
C234 H226 0.930 . S
C234 C233 1.362 . S
C234 C237 1.409 . S
C235 H227 0.930 . S
C235 C236 1.355 1_565 S
C235 C237 1.415 . S
C236 C235 1.355 1_545 S
C236 C238 1.419 . S
C237 C232 1.425 1_565 S
C237 C234 1.409 . S
C237 C235 1.415 . S
C238 H228 0.930 . S
C238 C236 1.419 . S
C238 C239 1.362 . S
C239 H229 0.930 . S
C239 C232 1.409 . S
C239 C238 1.362 . S
H240 C246 0.930 . S
H241 C249 0.930 . S
H242 C250 0.930 . S
H243 C251 0.930 . S
H244 C254 0.930 . S
H245 C255 0.930 . S
C246 H240 0.930 . S
C246 C247 1.355 . S
C246 C248 1.415 . S
C247 C246 1.355 . S
C247 C249 1.419 . S
C248 C246 1.415 . S
C248 C253 1.425 1_455 S
C248 C255 1.409 . S
C249 H241 0.930 . S
C249 C247 1.419 . S
C249 C250 1.362 1_455 S
C250 H242 0.930 . S
C250 C249 1.362 1_655 S
C250 C253 1.409 . S
C251 H243 0.930 . S
C251 C252 1.355 . S
C251 C253 1.415 . S
C252 C251 1.355 . S
C252 C254 1.419 . S
C253 C248 1.425 1_655 S
C253 C250 1.409 . S
C253 C251 1.415 . S
C254 H244 0.930 . S
C254 C252 1.419 . S
C254 C255 1.362 1_655 S
C255 H245 0.930 . S
C255 C248 1.409 . S
C255 C254 1.362 1_455 S
H256 C262 0.930 . S
H257 C265 0.930 . S
H258 C266 0.930 . S
H259 C267 0.930 . S
H260 C270 0.930 . S
H261 C271 0.930 . S
C262 H256 0.930 . S
C262 C263 1.355 . S
C262 C264 1.415 . S
C263 C262 1.355 . S
C263 C265 1.419 1_565 S
C264 C262 1.415 . S
C264 C269 1.425 1_565 S
C264 C271 1.409 . S
C265 H257 0.930 . S
C265 C263 1.419 1_545 S
C265 C266 1.362 . S
C266 H258 0.930 . S
C266 C265 1.362 . S
C266 C269 1.409 . S
C267 H259 0.930 . S
C267 C268 1.355 . S
C267 C269 1.415 . S
C268 C267 1.355 . S
C268 C270 1.419 1_545 S
C269 C264 1.425 1_545 S
C269 C266 1.409 . S
C269 C267 1.415 . S
C270 H260 0.930 . S
C270 C268 1.419 1_565 S
C270 C271 1.362 . S
C271 H261 0.930 . S
C271 C264 1.409 . S
C271 C270 1.362 . S
H272 C278 0.930 . S
H273 C281 0.930 . S
H274 C282 0.930 . S
H275 C283 0.930 . S
H276 C286 0.930 . S
H277 C287 0.930 . S
C278 H272 0.930 . S
C278 C279 1.355 . S
C278 C280 1.415 . S
C279 C278 1.355 . S
C279 C281 1.419 . S
C280 C278 1.415 . S
C280 C285 1.425 1_554 S
C280 C287 1.409 . S
C281 H273 0.930 . S
C281 C279 1.419 . S
C281 C282 1.362 1_554 S
C282 H274 0.930 . S
C282 C281 1.362 1_556 S
C282 C285 1.409 . S
C283 H275 0.930 . S
C283 C284 1.355 . S
C283 C285 1.415 . S
C284 C283 1.355 . S
C284 C286 1.419 . S
C285 C280 1.425 1_556 S
C285 C282 1.409 . S
C285 C283 1.415 . S
C286 H276 0.930 . S
C286 C284 1.419 . S
C286 C287 1.362 1_556 S
C287 H277 0.930 . S
C287 C280 1.409 . S
C287 C286 1.362 1_554 S
H288 C294 0.930 . S
H289 C297 0.930 . S
H290 C298 0.930 . S
H291 C299 0.930 . S
H292 C302 0.930 . S
H293 C303 0.930 . S
C294 H288 0.930 . S
C294 C295 1.355 1_655 S
C294 C296 1.415 1_565 S
C295 C294 1.355 1_455 S
C295 C297 1.419 . S
C296 C294 1.415 1_545 S
C296 C301 1.425 1_646 S
C296 C303 1.409 . S
C297 H289 0.930 . S
C297 C295 1.419 . S
C297 C298 1.362 1_556 S
C298 H290 0.930 . S
C298 C297 1.362 1_554 S
C298 C301 1.409 . S
C299 H291 0.930 . S
C299 C300 1.355 1_455 S
C299 C301 1.415 1_545 S
C300 C299 1.355 1_655 S
C300 C302 1.419 . S
C301 C296 1.425 1_464 S
C301 C298 1.409 . S
C301 C299 1.415 1_565 S
C302 H292 0.930 . S
C302 C300 1.419 . S
C302 C303 1.362 1_554 S
C303 H293 0.930 . S
C303 C296 1.409 . S
C303 C302 1.362 1_556 S
H304 C310 0.930 . S
H305 C313 0.930 . S
H306 C314 0.930 . S
H307 C315 0.930 . S
H308 C318 0.930 . S
H309 C319 0.930 . S
C310 H304 0.930 . S
C310 C311 1.355 . S
C310 C312 1.415 . S
C311 C310 1.355 . S
C311 C313 1.419 . S
C312 C310 1.415 . S
C312 C317 1.425 . S
C312 C319 1.409 . S
C313 H305 0.930 . S
C313 C311 1.419 . S
C313 C314 1.362 . S
C314 H306 0.930 . S
C314 C313 1.362 . S
C314 C317 1.409 . S
C315 H307 0.930 . S
C315 C316 1.355 . S
C315 C317 1.415 . S
C316 C315 1.355 . S
C316 C318 1.419 . S
C317 C312 1.425 . S
C317 C314 1.409 . S
C317 C315 1.415 . S
C318 H308 0.930 . S
C318 C316 1.419 . S
C318 C319 1.362 . S
C319 H309 0.930 . S
C319 C312 1.409 . S
C319 C318 1.362 . S
H320 C326 0.930 . S
H321 C329 0.930 . S
H322 C330 0.930 . S
H323 C331 0.930 . S
H324 C334 0.930 . S
H325 C335 0.930 . S
C326 H320 0.930 . S
C326 C327 1.355 . S
C326 C328 1.415 . S
C327 C326 1.355 . S
C327 C329 1.419 . S
C328 C326 1.415 . S
C328 C333 1.425 . S
C328 C335 1.409 . S
C329 H321 0.930 . S
C329 C327 1.419 . S
C329 C330 1.362 . S
C330 H322 0.930 . S
C330 C329 1.362 . S
C330 C333 1.409 . S
C331 H323 0.930 . S
C331 C332 1.355 . S
C331 C333 1.415 . S
C332 C331 1.355 . S
C332 C334 1.419 . S
C333 C328 1.425 . S
C333 C330 1.409 . S
C333 C331 1.415 . S
C334 H324 0.930 . S
C334 C332 1.419 . S
C334 C335 1.362 . S
C335 H325 0.930 . S
C335 C328 1.409 . S
C335 C334 1.362 . S
H336 C342 0.930 . S
H337 C345 0.930 . S
H338 C346 0.930 . S
H339 C347 0.930 . S
H340 C350 0.930 . S
H341 C351 0.930 . S
C342 H336 0.930 . S
C342 C343 1.355 . S
C342 C344 1.415 . S
C343 C342 1.355 . S
C343 C345 1.419 . S
C344 C342 1.415 . S
C344 C349 1.425 . S
C344 C351 1.409 . S
C345 H337 0.930 . S
C345 C343 1.419 . S
C345 C346 1.362 . S
C346 H338 0.930 . S
C346 C345 1.362 . S
C346 C349 1.409 . S
C347 H339 0.930 . S
C347 C348 1.355 . S
C347 C349 1.415 . S
C348 C347 1.355 . S
C348 C350 1.419 . S
C349 C344 1.425 . S
C349 C346 1.409 . S
C349 C347 1.415 . S
C350 H340 0.930 . S
C350 C348 1.419 . S
C350 C351 1.362 . S
C351 H341 0.930 . S
C351 C344 1.409 . S
C351 C350 1.362 . S
H352 C358 0.930 . S
H353 C361 0.930 . S
H354 C362 0.930 . S
H355 C363 0.930 . S
H356 C366 0.930 . S
H357 C367 0.930 . S
C358 H352 0.930 . S
C358 C359 1.355 . S
C358 C360 1.415 . S
C359 C358 1.355 . S
C359 C361 1.419 . S
C360 C358 1.415 . S
C360 C365 1.425 . S
C360 C367 1.409 . S
C361 H353 0.930 . S
C361 C359 1.419 . S
C361 C362 1.362 . S
C362 H354 0.930 . S
C362 C361 1.362 . S
C362 C365 1.409 . S
C363 H355 0.930 . S
C363 C364 1.355 . S
C363 C365 1.415 . S
C364 C363 1.355 . S
C364 C366 1.419 . S
C365 C360 1.425 . S
C365 C362 1.409 . S
C365 C363 1.415 . S
C366 H356 0.930 . S
C366 C364 1.419 . S
C366 C367 1.362 . S
C367 H357 0.930 . S
C367 C360 1.409 . S
C367 C366 1.362 . S
C119 C5 1.413 . S
C124 C37 1.431 . S
C135 C51 1.421 1_455 S
C140 C19 1.427 . S
C151 C33 1.413 . S
C156 C9 1.428 1_655 S
C167 C47 1.429 . S
C172 C23 1.425 . S
C183 C93 1.430 . S
C188 C61 1.419 . S
C199 C75 1.425 . S
C204 C107 1.421 1_655 S
C215 C89 1.424 . S
C220 C65 1.422 1_455 S
C231 C103 1.413 . S
C236 C79 1.431 . S
C247 C11 1.512 . S
C252 C67 1.512 . S
C263 C25 1.499 . S
C268 C81 1.499 . S
C279 C39 1.519 . S
C284 C95 1.519 . S
C295 C109 1.509 . S
C300 C53 1.509 . S
C311 C0 1.483 . S
C316 C14 1.521 . S
C327 C42 1.497 . S
C332 C28 1.496 . S
C343 C70 1.515 . S
C348 C56 1.482 . S
C359 C84 1.509 . S
C364 C98 1.486 . S
