# Generated by pormake.
# Topology pem, (4)-cn, num edge types: 1
# Building blocks:
#     Node 0, Type 0, BuildingBlock: QUQFOY_clean_sbu_3, # of connection points: 4
#     Node 1, Type 0, BuildingBlock: QUQFOY_clean_sbu_3, # of connection points: 4
#     Node 2, Type 0, BuildingBlock: QUQFOY_clean_sbu_3, # of connection points: 4
#     Node 3, Type 0, BuildingBlock: QUQFOY_clean_sbu_3, # of connection points: 4
#     Node 4, Type 0, BuildingBlock: QUQFOY_clean_sbu_3, # of connection points: 4
#     Node 5, Type 0, BuildingBlock: QUQFOY_clean_sbu_3, # of connection points: 4
#     Node 6, Type 0, BuildingBlock: QUQFOY_clean_sbu_3, # of connection points: 4
#     Node 7, Type 0, BuildingBlock: QUQFOY_clean_sbu_3, # of connection points: 4
#     Node 8, Type 0, BuildingBlock: QUQFOY_clean_sbu_3, # of connection points: 4
#     Node 9, Type 0, BuildingBlock: QUQFOY_clean_sbu_3, # of connection points: 4
#     Node 10, Type 0, BuildingBlock: QUQFOY_clean_sbu_3, # of connection points: 4
#     Node 11, Type 0, BuildingBlock: QUQFOY_clean_sbu_3, # of connection points: 4
#     Node 12, Type 0, BuildingBlock: QUQFOY_clean_sbu_3, # of connection points: 4
#     Node 13, Type 0, BuildingBlock: QUQFOY_clean_sbu_3, # of connection points: 4
#     Node 14, Type 0, BuildingBlock: QUQFOY_clean_sbu_3, # of connection points: 4
#     Node 15, Type 0, BuildingBlock: QUQFOY_clean_sbu_3, # of connection points: 4
#     Node 16, Type 0, BuildingBlock: QUQFOY_clean_sbu_3, # of connection points: 4
#     Node 17, Type 0, BuildingBlock: QUQFOY_clean_sbu_3, # of connection points: 4
#     Node 18, Type 0, BuildingBlock: QUQFOY_clean_sbu_3, # of connection points: 4
#     Node 19, Type 0, BuildingBlock: QUQFOY_clean_sbu_3, # of connection points: 4
#     Node 20, Type 0, BuildingBlock: QUQFOY_clean_sbu_3, # of connection points: 4
#     Node 21, Type 0, BuildingBlock: QUQFOY_clean_sbu_3, # of connection points: 4
#     Node 22, Type 0, BuildingBlock: QUQFOY_clean_sbu_3, # of connection points: 4
#     Node 23, Type 0, BuildingBlock: QUQFOY_clean_sbu_3, # of connection points: 4
#     Node 24, Type 0, BuildingBlock: QUQFOY_clean_sbu_3, # of connection points: 4
#     Node 25, Type 0, BuildingBlock: QUQFOY_clean_sbu_3, # of connection points: 4
#     Node 26, Type 0, BuildingBlock: QUQFOY_clean_sbu_3, # of connection points: 4
#     Node 27, Type 0, BuildingBlock: QUQFOY_clean_sbu_3, # of connection points: 4
#     Node 28, Type 0, BuildingBlock: QUQFOY_clean_sbu_3, # of connection points: 4
#     Node 29, Type 0, BuildingBlock: QUQFOY_clean_sbu_3, # of connection points: 4
#     Node 30, Type 0, BuildingBlock: QUQFOY_clean_sbu_3, # of connection points: 4
#     Node 31, Type 0, BuildingBlock: QUQFOY_clean_sbu_3, # of connection points: 4
#     Edge 32, Type (0, 0), BuildingBlock: CIFDUS_clean_linker_0, # of connection points: 2
#     Edge 33, Type (0, 0), BuildingBlock: CIFDUS_clean_linker_0, # of connection points: 2
#     Edge 34, Type (0, 0), BuildingBlock: CIFDUS_clean_linker_0, # of connection points: 2
#     Edge 35, Type (0, 0), BuildingBlock: CIFDUS_clean_linker_0, # of connection points: 2
#     Edge 36, Type (0, 0), BuildingBlock: CIFDUS_clean_linker_0, # of connection points: 2
#     Edge 37, Type (0, 0), BuildingBlock: CIFDUS_clean_linker_0, # of connection points: 2
#     Edge 38, Type (0, 0), BuildingBlock: CIFDUS_clean_linker_0, # of connection points: 2
#     Edge 39, Type (0, 0), BuildingBlock: CIFDUS_clean_linker_0, # of connection points: 2
#     Edge 40, Type (0, 0), BuildingBlock: CIFDUS_clean_linker_0, # of connection points: 2
#     Edge 41, Type (0, 0), BuildingBlock: CIFDUS_clean_linker_0, # of connection points: 2
#     Edge 42, Type (0, 0), BuildingBlock: CIFDUS_clean_linker_0, # of connection points: 2
#     Edge 43, Type (0, 0), BuildingBlock: CIFDUS_clean_linker_0, # of connection points: 2
#     Edge 44, Type (0, 0), BuildingBlock: CIFDUS_clean_linker_0, # of connection points: 2
#     Edge 45, Type (0, 0), BuildingBlock: CIFDUS_clean_linker_0, # of connection points: 2
#     Edge 46, Type (0, 0), BuildingBlock: CIFDUS_clean_linker_0, # of connection points: 2
#     Edge 47, Type (0, 0), BuildingBlock: CIFDUS_clean_linker_0, # of connection points: 2
#     Edge 48, Type (0, 0), BuildingBlock: CIFDUS_clean_linker_0, # of connection points: 2
#     Edge 49, Type (0, 0), BuildingBlock: CIFDUS_clean_linker_0, # of connection points: 2
#     Edge 50, Type (0, 0), BuildingBlock: CIFDUS_clean_linker_0, # of connection points: 2
#     Edge 51, Type (0, 0), BuildingBlock: CIFDUS_clean_linker_0, # of connection points: 2
#     Edge 52, Type (0, 0), BuildingBlock: CIFDUS_clean_linker_0, # of connection points: 2
#     Edge 53, Type (0, 0), BuildingBlock: CIFDUS_clean_linker_0, # of connection points: 2
#     Edge 54, Type (0, 0), BuildingBlock: CIFDUS_clean_linker_0, # of connection points: 2
#     Edge 55, Type (0, 0), BuildingBlock: CIFDUS_clean_linker_0, # of connection points: 2
#     Edge 56, Type (0, 0), BuildingBlock: CIFDUS_clean_linker_0, # of connection points: 2
#     Edge 57, Type (0, 0), BuildingBlock: CIFDUS_clean_linker_0, # of connection points: 2
#     Edge 58, Type (0, 0), BuildingBlock: CIFDUS_clean_linker_0, # of connection points: 2
#     Edge 59, Type (0, 0), BuildingBlock: CIFDUS_clean_linker_0, # of connection points: 2
#     Edge 60, Type (0, 0), BuildingBlock: CIFDUS_clean_linker_0, # of connection points: 2
#     Edge 61, Type (0, 0), BuildingBlock: CIFDUS_clean_linker_0, # of connection points: 2
#     Edge 62, Type (0, 0), BuildingBlock: CIFDUS_clean_linker_0, # of connection points: 2
#     Edge 63, Type (0, 0), BuildingBlock: CIFDUS_clean_linker_0, # of connection points: 2
#     Edge 64, Type (0, 0), BuildingBlock: CIFDUS_clean_linker_0, # of connection points: 2
#     Edge 65, Type (0, 0), BuildingBlock: CIFDUS_clean_linker_0, # of connection points: 2
#     Edge 66, Type (0, 0), BuildingBlock: CIFDUS_clean_linker_0, # of connection points: 2
#     Edge 67, Type (0, 0), BuildingBlock: CIFDUS_clean_linker_0, # of connection points: 2
#     Edge 68, Type (0, 0), BuildingBlock: CIFDUS_clean_linker_0, # of connection points: 2
#     Edge 69, Type (0, 0), BuildingBlock: CIFDUS_clean_linker_0, # of connection points: 2
#     Edge 70, Type (0, 0), BuildingBlock: CIFDUS_clean_linker_0, # of connection points: 2
#     Edge 71, Type (0, 0), BuildingBlock: CIFDUS_clean_linker_0, # of connection points: 2
#     Edge 72, Type (0, 0), BuildingBlock: CIFDUS_clean_linker_0, # of connection points: 2
#     Edge 73, Type (0, 0), BuildingBlock: CIFDUS_clean_linker_0, # of connection points: 2
#     Edge 74, Type (0, 0), BuildingBlock: CIFDUS_clean_linker_0, # of connection points: 2
#     Edge 75, Type (0, 0), BuildingBlock: CIFDUS_clean_linker_0, # of connection points: 2
#     Edge 76, Type (0, 0), BuildingBlock: CIFDUS_clean_linker_0, # of connection points: 2
#     Edge 77, Type (0, 0), BuildingBlock: CIFDUS_clean_linker_0, # of connection points: 2
#     Edge 78, Type (0, 0), BuildingBlock: CIFDUS_clean_linker_0, # of connection points: 2
#     Edge 79, Type (0, 0), BuildingBlock: CIFDUS_clean_linker_0, # of connection points: 2
#     Edge 80, Type (0, 0), BuildingBlock: CIFDUS_clean_linker_0, # of connection points: 2
#     Edge 81, Type (0, 0), BuildingBlock: CIFDUS_clean_linker_0, # of connection points: 2
#     Edge 82, Type (0, 0), BuildingBlock: CIFDUS_clean_linker_0, # of connection points: 2
#     Edge 83, Type (0, 0), BuildingBlock: CIFDUS_clean_linker_0, # of connection points: 2
#     Edge 84, Type (0, 0), BuildingBlock: CIFDUS_clean_linker_0, # of connection points: 2
#     Edge 85, Type (0, 0), BuildingBlock: CIFDUS_clean_linker_0, # of connection points: 2
#     Edge 86, Type (0, 0), BuildingBlock: CIFDUS_clean_linker_0, # of connection points: 2
#     Edge 87, Type (0, 0), BuildingBlock: CIFDUS_clean_linker_0, # of connection points: 2
#     Edge 88, Type (0, 0), BuildingBlock: CIFDUS_clean_linker_0, # of connection points: 2
#     Edge 89, Type (0, 0), BuildingBlock: CIFDUS_clean_linker_0, # of connection points: 2
#     Edge 90, Type (0, 0), BuildingBlock: CIFDUS_clean_linker_0, # of connection points: 2
#     Edge 91, Type (0, 0), BuildingBlock: CIFDUS_clean_linker_0, # of connection points: 2
#     Edge 92, Type (0, 0), BuildingBlock: CIFDUS_clean_linker_0, # of connection points: 2
#     Edge 93, Type (0, 0), BuildingBlock: CIFDUS_clean_linker_0, # of connection points: 2
#     Edge 94, Type (0, 0), BuildingBlock: CIFDUS_clean_linker_0, # of connection points: 2
#     Edge 95, Type (0, 0), BuildingBlock: CIFDUS_clean_linker_0, # of connection points: 2
# Relax obj value: 0.220
# Max RMSD: 0.158
# Mean RMSD: 0.155
data_MOF--net-pem--node1-QUQFOY_clean_sbu_3--edge1-CIFDUS_clean_linker_0
_symmetry_space_group_name_H-M    P1
_symmetry_Int_Tables_number       1
_symmetry_cell_setting            triclinic
loop_
_symmetry_equiv_pos_as_xyz
'x, y, z'
_cell_length_a     42.898349
_cell_length_b     36.326988
_cell_length_c     36.307466
_cell_angle_alpha  90.169677
_cell_angle_beta   89.939378
_cell_angle_gamma 90.252894
loop_
_atom_site_label
_atom_site_type_symbol
_atom_site_fract_x
_atom_site_fract_y
_atom_site_fract_z
_atom_type_partial_charge
C0 C 0.13087 0.11517 0.0303 0.0
O1 O 0.1377 0.08152 0.02566 0.0
Cd2 Cd 0.10184 0.03197 0.02885 0.0
O3 O 0.10563 0.12399 0.04628 0.0
Cd4 Cd 0.06483 0.0921 0.08423 0.0
C5 C 0.09981 0.01787 0.12071 0.0
O6 O 0.05277 0.0594 0.03308 0.0
O7 O 0.02798 0.04388 0.08354 0.0
O8 O 0.02092 0.12596 0.06684 0.0
C9 C 0.03242 0.03996 0.04922 0.0
O10 O 0.10572 0.00569 0.08863 0.0
C11 C 0.02175 0.14699 0.0945 0.0
O12 O 0.0874 0.04913 0.12635 0.0
O13 O 0.03856 0.13761 0.12193 0.0
C14 C 0.09497 0.7897 0.37081 0.0
O15 O 0.08768 0.79833 0.33817 0.0
Cd16 Cd 0.12385 0.7884 0.2906 0.0
O17 O 0.12182 0.79778 0.3835 0.0
Cd18 Cd 0.16187 0.83908 0.35486 0.0
C19 C 0.12844 0.87982 0.2795 0.0
O20 O 0.17024 0.7853 0.32338 0.0
O21 O 0.19978 0.83023 0.30586 0.0
O22 O 0.20609 0.82544 0.39037 0.0
C23 C 0.19205 0.79659 0.30316 0.0
O24 O 0.12374 0.84838 0.26506 0.0
C25 C 0.21162 0.85766 0.4017 0.0
O26 O 0.13901 0.88376 0.31217 0.0
O27 O 0.19161 0.88245 0.39486 0.0
C28 C 0.35199 0.86228 0.51737 0.0
O29 O 0.34631 0.89614 0.51198 0.0
Cd30 Cd 0.37328 0.94767 0.53335 0.0
O31 O 0.37086 0.85106 0.54147 0.0
Cd32 Cd 0.40914 0.8724 0.5844 0.0
C33 C 0.38549 0.94396 0.63037 0.0
O34 O 0.41845 0.91391 0.53743 0.0
O35 O 0.4481 0.91647 0.58608 0.0
O36 O 0.42954 0.81835 0.55141 0.0
C37 C 0.44115 0.92808 0.55442 0.0
O38 O 0.37995 0.95371 0.59759 0.0
C39 C 0.45502 0.81902 0.5689 0.0
O40 O 0.39168 0.91033 0.63813 0.0
O41 O 0.45674 0.84078 0.59632 0.0
C42 C 0.3822 0.18709 0.86852 0.0
O43 O 0.38475 0.19809 0.83543 0.0
Cd44 Cd 0.35059 0.19212 0.78595 0.0
O45 O 0.36043 0.16553 0.87849 0.0
Cd46 Cd 0.31661 0.13232 0.84954 0.0
C47 C 0.35785 0.09899 0.77245 0.0
O48 O 0.30561 0.18524 0.82062 0.0
O49 O 0.27848 0.13821 0.80179 0.0
O50 O 0.28425 0.16208 0.8978 0.0
C51 C 0.2826 0.17277 0.80308 0.0
O52 O 0.36066 0.13243 0.76316 0.0
C53 C 0.26479 0.13579 0.899 0.0
O54 O 0.34373 0.08968 0.8024 0.0
O55 O 0.27239 0.1061 0.88232 0.0
C56 C 0.12025 0.85839 0.43544 0.0
O57 O 0.12792 0.88953 0.42305 0.0
Cd58 Cd 0.0889 0.93308 0.43821 0.0
O59 O 0.09333 0.84581 0.42806 0.0
Cd60 Cd 0.05569 0.87036 0.38262 0.0
C61 C 0.0902 0.94793 0.34756 0.0
O62 O 0.04021 0.90374 0.4329 0.0
O63 O 0.02006 0.9209 0.38066 0.0
O64 O 0.01161 0.83531 0.39969 0.0
C65 C 0.02133 0.92374 0.41542 0.0
O66 O 0.09224 0.96082 0.38005 0.0
C67 C 0.007 0.81997 0.36895 0.0
O68 O 0.08109 0.91499 0.34071 0.0
O69 O 0.02693 0.82559 0.34351 0.0
C70 C 0.36837 0.78398 0.61062 0.0
O71 O 0.35058 0.76423 0.62966 0.0
Cd72 Cd 0.34737 0.78863 0.69028 0.0
O73 O 0.3612 0.81766 0.60558 0.0
Cd74 Cd 0.30523 0.8361 0.62104 0.0
C75 C 0.32261 0.88186 0.69806 0.0
O76 O 0.30144 0.78756 0.65969 0.0
O77 O 0.27017 0.83267 0.67198 0.0
O78 O 0.27048 0.79727 0.58348 0.0
C79 C 0.28001 0.80069 0.67906 0.0
O80 O 0.33411 0.85162 0.70934 0.0
C81 C 0.25154 0.82305 0.57634 0.0
O82 O 0.31488 0.88669 0.66429 0.0
O83 O 0.26016 0.85564 0.58507 0.0
C84 C 0.34855 0.10213 0.95196 0.0
O85 O 0.35457 0.07167 0.9671 0.0
Cd86 Cd 0.38983 0.02706 0.95247 0.0
O87 O 0.36305 0.1134 0.92326 0.0
Cd88 Cd 0.40721 0.09156 0.8809 0.0
C89 C 0.36901 0.0116 0.85998 0.0
O90 O 0.42885 0.06435 0.93138 0.0
O91 O 0.44239 0.03949 0.87928 0.0
O92 O 0.45293 0.12357 0.89229 0.0
C93 C 0.44495 0.0411 0.91406 0.0
O94 O 0.37085 0.00363 0.89406 0.0
C95 C 0.45663 0.14155 0.86303 0.0
O96 O 0.37996 0.04192 0.84706 0.0
O97 O 0.43499 0.1392 0.83898 0.0
C98 C 0.09322 0.18542 0.11187 0.0
O99 O 0.09525 0.18876 0.1464 0.0
Cd100 Cd 0.13239 0.18665 0.19209 0.0
O101 O 0.11526 0.1716 0.09325 0.0
Cd102 Cd 0.15521 0.13195 0.12305 0.0
C103 C 0.11599 0.09718 0.19817 0.0
O104 O 0.17543 0.18098 0.15443 0.0
O105 O 0.1913 0.12701 0.17243 0.0
O106 O 0.20031 0.14347 0.08817 0.0
C107 C 0.19481 0.16163 0.17171 0.0
O108 O 0.11999 0.12737 0.21532 0.0
C109 C 0.203 0.11204 0.07371 0.0
O110 O 0.12451 0.09277 0.16476 0.0
O111 O 0.18208 0.08815 0.08121 0.0
C112 C 0.62054 0.35444 0.94327 0.0
O113 O 0.60092 0.36677 0.96571 0.0
Cd114 Cd 0.60334 0.43104 0.95402 0.0
O115 O 0.61536 0.35818 0.9092 0.0
Cd116 Cd 0.56214 0.37567 0.89308 0.0
C117 C 0.60864 0.44435 0.85718 0.0
O118 O 0.55368 0.41227 0.9426 0.0
O119 O 0.52768 0.42739 0.89374 0.0
O120 O 0.53389 0.32396 0.92538 0.0
C121 C 0.53499 0.4336 0.92702 0.0
O122 O 0.6165 0.4516 0.89043 0.0
C123 C 0.5116 0.32519 0.9023 0.0
O124 O 0.58907 0.41852 0.84985 0.0
O125 O 0.51582 0.34493 0.87368 0.0
C126 C 0.87732 0.2725 0.12434 0.0
O127 O 0.87339 0.26603 0.15824 0.0
Cd128 Cd 0.83507 0.28201 0.1986 0.0
O129 O 0.85993 0.29455 0.10609 0.0
Cd130 Cd 0.8137 0.33554 0.12233 0.0
C131 C 0.84598 0.37601 0.19568 0.0
O132 O 0.79576 0.28886 0.15612 0.0
O133 O 0.77626 0.34149 0.17201 0.0
O134 O 0.77088 0.31297 0.08988 0.0
C135 C 0.77569 0.30664 0.17409 0.0
O136 O 0.84605 0.34489 0.21158 0.0
C137 C 0.76292 0.34195 0.07333 0.0
O138 O 0.83659 0.38045 0.16269 0.0
O139 O 0.78088 0.36989 0.07658 0.0
C140 C 0.84661 0.60454 0.44414 0.0
O141 O 0.85043 0.57086 0.45171 0.0
Cd142 Cd 0.88628 0.52545 0.4416 0.0
O143 O 0.86555 0.62266 0.42403 0.0
Cd144 Cd 0.91228 0.59931 0.39219 0.0
C145 C 0.8794 0.52521 0.34787 0.0
O146 O 0.92802 0.56604 0.44079 0.0
O147 O 0.94549 0.54733 0.38757 0.0
O148 O 0.95073 0.64284 0.41911 0.0
C149 C 0.94889 0.55043 0.42207 0.0
O150 O 0.87771 0.50915 0.37884 0.0
C151 C 0.96573 0.64565 0.38912 0.0
O152 O 0.88946 0.55828 0.34459 0.0
O153 O 0.95294 0.63199 0.36046 0.0
C154 C 0.86315 0.70656 0.3635 0.0
O155 O 0.86141 0.71777 0.3305 0.0
Cd156 Cd 0.83801 0.69637 0.27672 0.0
O157 O 0.85052 0.6769 0.37426 0.0
Cd158 Cd 0.80834 0.64184 0.34909 0.0
C159 C 0.84909 0.60078 0.28248 0.0
O160 O 0.79371 0.68529 0.3089 0.0
O161 O 0.7686 0.63364 0.3021 0.0
O162 O 0.78627 0.67657 0.39885 0.0
C163 C 0.77379 0.66637 0.29194 0.0
O164 O 0.85019 0.63213 0.26689 0.0
C165 C 0.76543 0.65245 0.40456 0.0
O166 O 0.83758 0.59623 0.31469 0.0
O167 O 0.76788 0.62148 0.38806 0.0
C168 C 0.59683 0.27199 0.85529 0.0
O169 O 0.60493 0.25438 0.8267 0.0
Cd170 Cd 0.63426 0.27598 0.77801 0.0
O171 O 0.61022 0.30139 0.86573 0.0
Cd172 Cd 0.65811 0.33246 0.84895 0.0
C173 C 0.61108 0.3682 0.78018 0.0
O174 O 0.67702 0.28727 0.81369 0.0
O175 O 0.69782 0.34071 0.80271 0.0
O176 O 0.68839 0.30241 0.89811 0.0
C177 C 0.69729 0.30622 0.7973 0.0
O178 O 0.61208 0.33647 0.76508 0.0
C179 C 0.70473 0.33129 0.90281 0.0
O180 O 0.62579 0.37492 0.81022 0.0
O181 O 0.69513 0.36098 0.8879 0.0
C182 C 0.84186 0.85444 0.94064 0.0
O183 O 0.86235 0.8392 0.96056 0.0
Cd184 Cd 0.91196 0.8644 0.96602 0.0
O185 O 0.84964 0.87065 0.91044 0.0
Cd186 Cd 0.90117 0.883 0.87343 0.0
C187 C 0.95428 0.82183 0.89581 0.0
O188 O 0.9066 0.91513 0.92789 0.0
O189 O 0.94833 0.91384 0.8944 0.0
O190 O 0.88725 0.94 0.84418 0.0
C191 C 0.93379 0.92655 0.92203 0.0
O192 O 0.94703 0.83224 0.92805 0.0
C193 C 0.89246 0.93163 0.81096 0.0
O194 O 0.93815 0.83103 0.86787 0.0
O195 O 0.90286 0.89935 0.8054 0.0
C196 C 0.87263 0.20769 0.57747 0.0
O197 O 0.85049 0.23064 0.5736 0.0
Cd198 Cd 0.80313 0.23116 0.6078 0.0
O199 O 0.86931 0.17798 0.59595 0.0
Cd200 Cd 0.83499 0.13601 0.63112 0.0
C201 C 0.78617 0.14349 0.58375 0.0
O202 O 0.8137 0.18964 0.6573 0.0
O203 O 0.78708 0.1394 0.66615 0.0
O204 O 0.86445 0.13208 0.68539 0.0
C205 C 0.79052 0.17351 0.67188 0.0
O206 O 0.79998 0.17022 0.59756 0.0
C207 C 0.84994 0.1021 0.69123 0.0
O208 O 0.79867 0.11202 0.58625 0.0
O209 O 0.83992 0.08343 0.66379 0.0
C210 C 0.62096 0.15859 0.44361 0.0
O211 O 0.60076 0.16163 0.46875 0.0
Cd212 Cd 0.56945 0.10899 0.48314 0.0
O213 O 0.6174 0.13426 0.41856 0.0
Cd214 Cd 0.58444 0.08601 0.39203 0.0
C215 C 0.53915 0.1492 0.40331 0.0
O216 O 0.56765 0.05671 0.4442 0.0
O217 O 0.53363 0.0664 0.40022 0.0
O218 O 0.6106 0.03229 0.36781 0.0
C219 C 0.54021 0.05278 0.43116 0.0
O220 O 0.54543 0.14223 0.43673 0.0
C221 C 0.59522 0.03444 0.33788 0.0
O222 O 0.54999 0.12974 0.37745 0.0
O223 O 0.5799 0.06362 0.33189 0.0
C224 C 0.59355 0.77389 0.1014 0.0
O225 O 0.61613 0.75387 0.09055 0.0
Cd226 Cd 0.67122 0.76417 0.09452 0.0
O227 O 0.59834 0.80645 0.11377 0.0
Cd228 Cd 0.64488 0.847 0.12866 0.0
C229 C 0.69025 0.85688 0.06537 0.0
O230 O 0.66521 0.78987 0.15209 0.0
O231 O 0.69499 0.83746 0.15876 0.0
O232 O 0.60618 0.86105 0.17723 0.0
C233 C 0.68949 0.804 0.1654 0.0
O234 O 0.68362 0.82469 0.0755 0.0
C235 C 0.62399 0.88492 0.19161 0.0
O236 O 0.67212 0.88242 0.07586 0.0
O237 O 0.64869 0.89315 0.17452 0.0
C238 C 0.85379 0.12965 0.50515 0.0
O239 O 0.8776 0.13412 0.48459 0.0
Cd240 Cd 0.93007 0.12079 0.49719 0.0
O241 O 0.85614 0.11659 0.53847 0.0
Cd242 Cd 0.89746 0.08942 0.58833 0.0
C243 C 0.94195 0.15041 0.58519 0.0
O244 O 0.91943 0.06663 0.53139 0.0
O245 O 0.94786 0.0623 0.58052 0.0
O246 O 0.87756 0.02557 0.60764 0.0
C247 C 0.94328 0.05426 0.54716 0.0
O248 O 0.9286 0.13669 0.55784 0.0
C249 C 0.8896 0.02703 0.63965 0.0
O250 O 0.92904 0.14387 0.61589 0.0
O251 O 0.90059 0.05824 0.64882 0.0
C252 C 0.60059 0.1967 0.36695 0.0
O253 O 0.62057 0.22014 0.37852 0.0
Cd254 Cd 0.67569 0.21014 0.37242 0.0
O255 O 0.60832 0.16518 0.35437 0.0
Cd256 Cd 0.6499 0.12085 0.33874 0.0
C257 C 0.68243 0.1208 0.41012 0.0
O258 O 0.66959 0.17824 0.3172 0.0
O259 O 0.70039 0.13192 0.3108 0.0
O260 O 0.61849 0.10475 0.28368 0.0
C261 C 0.69449 0.16542 0.3045 0.0
O262 O 0.67714 0.14831 0.39024 0.0
C263 C 0.63433 0.07563 0.27936 0.0
O264 O 0.67045 0.09084 0.3991 0.0
O265 O 0.65279 0.06674 0.30497 0.0
C266 C 0.62216 0.83167 0.0135 0.0
O267 O 0.60097 0.84655 -0.00509 0.0
Cd268 Cd 0.55718 0.87872 0.98458 0.0
O269 O 0.62258 0.83598 0.04833 0.0
Cd270 Cd 0.58008 0.87652 0.07537 0.0
C271 C 0.52367 0.81721 0.03807 0.0
O272 O 0.56742 0.91731 0.02984 0.0
O273 O 0.5301 0.90517 0.06884 0.0
O274 O 0.61332 0.92749 0.0966 0.0
C275 C 0.54113 0.92524 0.04343 0.0
O276 O 0.52443 0.83289 0.00677 0.0
C277 C 0.59669 0.93367 0.12496 0.0
O278 O 0.54089 0.82732 0.0652 0.0
O279 O 0.57627 0.90952 0.13353 0.0
C280 C 0.87767 0.77737 0.89685 0.0
O281 O 0.85162 0.76482 0.90666 0.0
Cd282 Cd 0.82194 0.73244 0.86116 0.0
O283 O 0.87832 0.80286 0.87368 0.0
Cd284 Cd 0.82845 0.81372 0.85245 0.0
C285 C 0.77792 0.77353 0.91641 0.0
O286 O 0.81312 0.7714 0.80877 0.0
O287 O 0.77967 0.81318 0.82915 0.0
O288 O 0.85066 0.84062 0.79743 0.0
C289 C 0.78792 0.78984 0.80506 0.0
O290 O 0.77856 0.74296 0.89927 0.0
C291 C 0.8386 0.87117 0.80651 0.0
O292 O 0.79494 0.80078 0.90661 0.0
O293 O 0.82613 0.87415 0.83828 0.0
C294 C 0.34551 0.66601 0.0223 0.0
O295 O 0.36681 0.67219 -0.00122 0.0
Cd296 Cd 0.41155 0.6314 -0.00021 0.0
O297 O 0.35029 0.64109 0.0467 0.0
Cd298 Cd 0.38189 0.59346 0.08401 0.0
C299 C 0.4419 0.64734 0.09046 0.0
O300 O 0.39774 0.57283 0.0252 0.0
O301 O 0.4277 0.55865 0.07139 0.0
O302 O 0.33799 0.54315 0.09233 0.0
C303 C 0.42101 0.55543 0.03762 0.0
O304 O 0.43476 0.6438 0.05697 0.0
C305 C 0.34837 0.53323 0.12329 0.0
O306 O 0.42365 0.63442 0.11503 0.0
O307 O 0.37264 0.54949 0.13361 0.0
C308 C 0.10003 0.6987 0.88233 0.0
O309 O 0.1229 0.71845 0.89312 0.0
Cd310 Cd 0.17525 0.70825 0.87814 0.0
O311 O 0.10385 0.66772 0.86623 0.0
Cd312 Cd 0.14359 0.62584 0.84107 0.0
C313 C 0.19422 0.61404 0.89971 0.0
O314 O 0.15702 0.68498 0.82304 0.0
O315 O 0.18993 0.64301 0.80732 0.0
O316 O 0.10461 0.61222 0.79241 0.0
C317 C 0.17947 0.67526 0.80344 0.0
O318 O 0.19122 0.64824 0.89469 0.0
C319 C 0.12262 0.58889 0.77753 0.0
O320 O 0.17336 0.59188 0.88822 0.0
O321 O 0.14735 0.58085 0.79446 0.0
C322 C 0.11391 0.34047 0.5019 0.0
O323 O 0.09089 0.33509 0.48034 0.0
Cd324 Cd 0.03809 0.34591 0.48969 0.0
O325 O 0.11079 0.3516 0.53555 0.0
Cd326 Cd 0.07253 0.37495 0.58493 0.0
C327 C 0.02587 0.31859 0.57596 0.0
O328 O 0.04923 0.39595 0.52931 0.0
O329 O 0.02726 0.41351 0.57996 0.0
O330 O 0.10242 0.43006 0.60518 0.0
C331 C 0.02722 0.41209 0.54531 0.0
O332 O 0.0417 0.33103 0.54998 0.0
C333 C 0.08921 0.42986 0.63656 0.0
O334 O 0.03619 0.32536 0.60796 0.0
O335 O 0.07354 0.4014 0.6449 0.0
C336 C 0.09381 0.2668 0.58816 0.0
O337 O 0.11572 0.24595 0.57695 0.0
Cd338 Cd 0.16797 0.24562 0.59809 0.0
O339 O 0.09866 0.29538 0.60828 0.0
Cd340 Cd 0.13677 0.33493 0.6416 0.0
C341 C 0.18632 0.33747 0.59005 0.0
O342 O 0.155 0.27333 0.65493 0.0
O343 O 0.1797 0.31961 0.67845 0.0
O344 O 0.10878 0.35679 0.69615 0.0
C345 C 0.17751 0.28533 0.67364 0.0
O346 O 0.17456 0.30746 0.59895 0.0
C347 C 0.12556 0.38588 0.6966 0.0
O348 O 0.17141 0.36602 0.59894 0.0
O349 O 0.14278 0.39222 0.669 0.0
C350 C 0.36867 0.71026 0.08933 0.0
O351 O 0.34371 0.72882 0.08637 0.0
Cd352 Cd 0.29524 0.70932 0.11012 0.0
O353 O 0.36883 0.67813 0.10398 0.0
Cd354 Cd 0.33318 0.62821 0.13149 0.0
C355 C 0.29013 0.62445 0.06116 0.0
O356 O 0.31944 0.68387 0.1606 0.0
O357 O 0.28277 0.64363 0.16357 0.0
O358 O 0.38355 0.61109 0.16398 0.0
C359 C 0.29285 0.67545 0.17217 0.0
O360 O 0.29475 0.65046 0.08343 0.0
C361 C 0.37011 0.59526 0.19064 0.0
O362 O 0.30399 0.59542 0.07101 0.0
O363 O 0.3407 0.59319 0.18866 0.0
C364 C 0.62786 0.61765 0.53589 0.0
O365 O 0.63442 0.58441 0.54234 0.0
Cd366 Cd 0.59387 0.54106 0.53443 0.0
O367 O 0.60189 0.63058 0.5467 0.0
Cd368 Cd 0.56414 0.60449 0.59347 0.0
C369 C 0.59184 0.52141 0.62573 0.0
O370 O 0.54757 0.57346 0.54056 0.0
O371 O 0.52694 0.55716 0.59278 0.0
O372 O 0.52059 0.63842 0.57771 0.0
C373 C 0.52763 0.55461 0.55803 0.0
O374 O 0.59529 0.51158 0.59232 0.0
C375 C 0.5135 0.65212 0.6085 0.0
O376 O 0.58378 0.55422 0.63447 0.0
O377 O 0.53213 0.64641 0.63518 0.0
C378 C 0.83787 0.36162 0.03181 0.0
O379 O 0.83983 0.39493 0.02146 0.0
Cd380 Cd 0.86471 0.45134 0.03459 0.0
O381 O 0.8532 0.35051 0.05913 0.0
Cd382 Cd 0.89866 0.3873 0.0709 0.0
C383 C 0.87281 0.4525 0.12691 0.0
O384 O 0.91424 0.42771 0.02931 0.0
O385 O 0.93637 0.43179 0.08409 0.0
O386 O 0.92946 0.34292 0.02987 0.0
C387 C 0.93663 0.4386 0.0498 0.0
O388 O 0.86456 0.46819 0.09738 0.0
C389 C 0.94629 0.33842 0.05808 0.0
O390 O 0.8841 0.42008 0.1271 0.0
O391 O 0.93825 0.3554 0.08716 0.0
C392 C 0.59283 0.69027 0.60344 0.0
O393 O 0.58515 0.68594 0.63684 0.0
Cd394 Cd 0.62344 0.68397 0.68409 0.0
O395 O 0.61939 0.67961 0.59236 0.0
Cd396 Cd 0.65616 0.63603 0.62231 0.0
C397 C 0.62765 0.59218 0.69632 0.0
O398 O 0.67255 0.68703 0.65528 0.0
O399 O 0.69036 0.63396 0.673 0.0
O400 O 0.70021 0.64926 0.58591 0.0
C401 C 0.69161 0.66872 0.6743 0.0
O402 O 0.62378 0.62383 0.71065 0.0
C403 C 0.70432 0.61679 0.57453 0.0
O404 O 0.63464 0.58853 0.66236 0.0
O405 O 0.68468 0.59238 0.58412 0.0
C406 C 0.34495 0.34263 0.44864 0.0
O407 O 0.35961 0.35178 0.47752 0.0
Cd408 Cd 0.40657 0.38368 0.48149 0.0
O409 O 0.3515 0.35567 0.41719 0.0
Cd410 Cd 0.38976 0.39475 0.38916 0.0
C411 C 0.43169 0.32661 0.41025 0.0
O412 O 0.40741 0.42909 0.43668 0.0
O413 O 0.44069 0.41916 0.39235 0.0
O414 O 0.35852 0.44016 0.36527 0.0
C415 C 0.43489 0.43218 0.42395 0.0
O416 O 0.42829 0.33676 0.4437 0.0
C417 C 0.37359 0.44056 0.33506 0.0
O418 O 0.42044 0.34516 0.38408 0.0
O419 O 0.39153 0.41373 0.32756 0.0
C420 C 0.11793 0.65174 0.95997 0.0
O421 O 0.09153 0.65688 0.9745 0.0
Cd422 Cd 0.05899 0.60389 0.98319 0.0
O423 O 0.12052 0.62943 0.93278 0.0
Cd424 Cd 0.08 0.59763 0.8931 0.0
C425 C 0.01418 0.64405 0.92032 0.0
O426 O 0.06692 0.5583 0.93996 0.0
O427 O 0.03349 0.56551 0.8954 0.0
O428 O 0.1137 0.5476 0.8717 0.0
C429 C 0.04098 0.54999 0.92517 0.0
O430 O 0.01682 0.62839 0.95142 0.0
C431 C 0.09656 0.54103 0.84393 0.0
O432 O 0.03532 0.64188 0.89537 0.0
O433 O 0.07596 0.56468 0.83581 0.0
C434 C 0.37145 0.27076 0.3722 0.0
O435 O 0.35635 0.24085 0.36799 0.0
Cd436 Cd 0.3049 0.23796 0.34354 0.0
O437 O 0.36094 0.30169 0.36188 0.0
Cd438 Cd 0.31859 0.33645 0.33643 0.0
C439 C 0.27807 0.29642 0.40798 0.0
O440 O 0.30454 0.28933 0.30396 0.0
O441 O 0.26832 0.3313 0.31051 0.0
O442 O 0.34884 0.35644 0.28569 0.0
C443 C 0.27727 0.30065 0.29761 0.0
O444 O 0.27914 0.263 0.39716 0.0
C445 C 0.3363 0.38804 0.28387 0.0
O446 O 0.28905 0.32311 0.38915 0.0
O447 O 0.31873 0.39788 0.31059 0.0
H448 H 0.97711 0.03529 0.03698 0.0
H449 H 0.0593 0.98692 0.01687 0.0
H450 H 0.03479 0.94355 0.97767 0.0
H451 H -0.01126 0.92444 0.94271 0.0
H452 H 0.90561 0.97719 0.96338 0.0
H453 H 0.93036 0.01307 0.00576 0.0
C454 C -0.01463 0.01369 0.02369 0.0
C455 C 0.01728 0.01128 0.02936 0.0
C456 C 0.97643 -0.01021 -0.00108 0.0
C457 C 0.03531 -0.01568 0.01214 0.0
C458 C 0.02051 0.96407 -0.01224 0.0
C459 C 0.98015 0.94483 0.95735 0.0
C460 C 0.94858 0.94902 0.9496 0.0
C461 C -0.01127 0.96714 0.98394 0.0
C462 C 0.93028 0.97433 0.96908 0.0
C463 C 0.94463 -0.00709 -0.00837 0.0
H464 H 0.23411 0.66924 0.19979 0.0
H465 H 0.30798 0.74754 0.17839 0.0
H466 H 0.28077 0.79443 0.21319 0.0
H467 H 0.24068 0.80991 0.25812 0.0
H468 H 0.16783 0.73107 0.28199 0.0
H469 H 0.18967 0.68813 0.23766 0.0
C470 C 0.24396 0.69667 0.20247 0.0
C471 C 0.27342 0.70446 0.18803 0.0
C472 C 0.22859 0.72343 0.2233 0.0
C473 C 0.28565 0.74046 0.19049 0.0
C474 C 0.27016 0.76743 0.21029 0.0
C475 C 0.22944 0.78353 0.25316 0.0
C476 C 0.20336 0.77314 0.27366 0.0
C477 C 0.24241 0.75865 0.2283 0.0
C478 C 0.18854 0.73921 0.26691 0.0
C479 C 0.20088 0.71466 0.24153 0.0
H480 H 0.42639 0.98323 0.50977 0.0
H481 H 0.50238 0.92003 0.55468 0.0
H482 H 0.53967 0.95463 0.5181 0.0
H483 H 0.55138 -0.00115 0.47598 0.0
H484 H 0.47724 0.06386 0.42976 0.0
H485 H 0.43851 0.02837 0.46498 0.0
C486 C 0.45121 0.97778 0.51161 0.0
C487 C 0.46242 0.95066 0.53508 0.0
C488 C 0.47321 -0.00629 0.49089 0.0
C489 C 0.49407 0.94219 0.53738 0.0
C490 C 0.51513 0.9615 0.5164 0.0
C491 C 0.52675 0.00549 0.47402 0.0
C492 C 0.51674 0.03367 0.45152 0.0
C493 C 0.50539 -0.01456 0.4937 0.0
C494 C 0.48495 0.04191 0.44768 0.0
C495 C 0.46304 0.02185 0.46759 0.0
H496 H 0.25074 0.15679 0.74164 0.0
H497 H 0.27421 0.24408 0.81795 0.0
H498 H 0.24862 0.28893 0.77895 0.0
H499 H 0.21811 0.3023 0.72547 0.0
H500 H 0.18883 0.21467 0.65248 0.0
H501 H 0.2205 0.17085 0.68653 0.0
C502 C 0.25004 0.18562 0.74953 0.0
C503 C 0.26444 0.19774 0.78169 0.0
C504 C 0.23536 0.21103 0.72722 0.0
C505 C 0.26348 0.23479 0.79252 0.0
C506 C 0.24915 0.26032 0.77034 0.0
C507 C 0.21903 0.27369 0.71674 0.0
C508 C 0.20093 0.2611 0.68755 0.0
C509 C 0.23512 0.24865 0.73771 0.0
C510 C 0.20246 0.22444 0.67561 0.0
C511 C 0.22017 0.19944 0.69517 0.0
H512 H 0.9834 0.9173 0.46627 0.0
H513 H 0.03623 -0.00848 0.40798 0.0
H514 H 0.01729 0.04143 0.44774 0.0
H515 H -0.01657 0.06196 0.49825 0.0
H516 H 0.93054 0.98724 0.55584 0.0
H517 H 0.95022 0.93747 0.51683 0.0
C518 C -0.01408 0.94553 0.46212 0.0
C519 C 0.00709 0.95382 0.43433 0.0
C520 C 0.98045 0.97333 0.485 0.0
C521 C 0.01893 -0.01442 0.42893 0.0
C522 C 0.0085 0.01371 0.45177 0.0
C523 C 0.9814 0.0336 0.50263 0.0
C524 C 0.95986 0.0251 0.52993 0.0
C525 C -0.01278 0.00571 0.47991 0.0
C526 C 0.94915 -0.01089 0.53536 0.0
C527 C 0.95905 0.9652 0.51292 0.0
H528 H 0.22175 0.80278 0.70231 0.0
H529 H 0.31016 0.7486 0.71765 0.0
H530 H 0.2864 0.70446 0.7591 0.0
H531 H 0.23996 0.67934 0.78781 0.0
H532 H 0.15081 0.73046 0.76896 0.0
H533 H 0.17527 0.77772 0.73103 0.0
C534 C 0.23577 0.78186 0.71564 0.0
C535 C 0.26739 0.779 0.70813 0.0
C536 C 0.2218 0.75577 0.73787 0.0
C537 C 0.28567 0.75139 0.72403 0.0
C538 C 0.27214 0.72599 0.7473 0.0
C539 C 0.22612 0.70085 0.77519 0.0
C540 C 0.19416 0.70209 0.78058 0.0
C541 C 0.24016 0.72757 0.75378 0.0
C542 C 0.17583 0.72978 0.76485 0.0
C543 C 0.18965 0.75663 0.7434 0.0
H544 H 0.49892 0.04662 0.94648 0.0
H545 H 0.41975 0.97804 0.93065 0.0
H546 H 0.4395 0.93661 0.97851 0.0
H547 H 0.4819 0.91982 0.01809 0.0
H548 H 0.56288 -0.01269 0.02772 0.0
H549 H 0.53984 0.03077 -0.01487 0.0
C550 C 0.48682 0.02109 0.95293 0.0
C551 C 0.45929 0.01227 0.93497 0.0
C552 C 0.49845 -0.00229 0.97958 0.0
C553 C 0.44172 0.98435 0.94393 0.0
C554 C 0.45274 0.96108 0.97144 0.0
C555 C 0.49356 0.94554 0.01148 0.0
C556 C 0.52316 0.95325 0.02572 0.0
C557 C 0.48082 0.96956 -0.0144 0.0
C558 C 0.53889 0.9858 0.0169 0.0
C559 C 0.52687 0.00615 -0.00758 0.0
H560 H 0.29314 0.26148 0.24127 0.0
H561 H 0.21717 0.28488 0.31552 0.0
H562 H 0.18487 0.23786 0.28474 0.0
H563 H 0.17886 0.19293 0.23455 0.0
H564 H 0.25494 0.17312 0.15947 0.0
H565 H 0.28785 0.21647 0.19344 0.0
C566 C 0.26939 0.25625 0.25045 0.0
C567 C 0.25664 0.27628 0.27931 0.0
C568 C 0.25179 0.22987 0.23316 0.0
C569 C 0.22641 0.26986 0.29212 0.0
C570 C 0.2084 0.24296 0.27504 0.0
C571 C 0.20298 0.19753 0.22667 0.0
C572 C 0.21554 0.17968 0.19609 0.0
C573 C 0.22094 0.22309 0.24537 0.0
C574 C 0.246 0.18604 0.18426 0.0
C575 C 0.26437 0.21097 0.20313 0.0
H576 H 0.48288 0.54199 0.04077 0.0
H577 H 0.39797 0.51512 0.98645 0.0
H578 H 0.42642 0.47519 0.94455 0.0
H579 H 0.47518 0.44973 0.9233 0.0
H580 H 0.56046 0.47411 0.98123 0.0
H581 H 0.53234 0.51402 0.02057 0.0
C582 C 0.47087 0.52736 0.01883 0.0
C583 C 0.43877 0.53169 0.01381 0.0
C584 C 0.48739 0.50488 -0.00534 0.0
C585 C 0.42293 0.51264 -0.01399 0.0
C586 C 0.4391 0.48976 0.96595 0.0
C587 C 0.48754 0.46465 0.94481 0.0
C588 C 0.51951 0.46069 0.94887 0.0
C589 C 0.4713 0.48636 0.96956 0.0
C590 C 0.53564 0.47812 0.9776 0.0
C591 C 0.51963 0.50053 -0.00148 0.0
H592 H 0.78732 0.23922 0.19767 0.0
H593 H 0.72391 0.33048 0.21064 0.0
H594 H 0.69308 0.29427 0.25474 0.0
H595 H 0.68468 0.23633 0.28762 0.0
H596 H 0.74908 0.14609 0.2729 0.0
H597 H 0.78017 0.18346 0.23107 0.0
C598 C 0.76694 0.25155 0.21033 0.0
C599 C 0.75777 0.28735 0.20158 0.0
C600 C 0.75001 0.23107 0.23517 0.0
C601 C 0.73132 0.30293 0.21775 0.0
C602 C 0.71383 0.28232 0.24265 0.0
C603 C 0.70573 0.22501 0.27555 0.0
C604 C 0.71487 0.18869 0.28301 0.0
C605 C 0.7231 0.24635 0.25143 0.0
C606 C 0.74192 0.1741 0.26739 0.0
C607 C 0.75949 0.19527 0.24349 0.0
H608 H 0.02204 0.48351 0.54489 0.0
H609 H -0.01374 0.38319 0.49727 0.0
H610 H 0.96398 0.41828 0.44974 0.0
H611 H 0.95249 0.47774 0.42125 0.0
H612 H -0.01484 0.57738 0.46836 0.0
H613 H 0.0111 0.54226 0.5165 0.0
C614 C 0.00747 0.46974 0.52457 0.0
C615 C 0.00512 0.43167 0.52407 0.0
C616 C -0.00635 0.48966 0.49678 0.0
C617 C -0.01259 0.413 0.49762 0.0
C618 C 0.97748 0.43283 0.47044 0.0
C619 C 0.96747 0.49117 0.44137 0.0
C620 C 0.97082 0.5292 0.44157 0.0
C621 C 0.98123 0.47106 0.46924 0.0
C622 C -0.01637 0.54756 0.46797 0.0
C623 C -0.00225 0.52777 0.49562 0.0
H624 H 0.72631 0.70989 0.29954 0.0
H625 H 0.79026 0.6641 0.22058 0.0
H626 H 0.77192 0.70734 0.1735 0.0
H627 H 0.73703 0.75805 0.15582 0.0
H628 H 0.67503 0.80489 0.23659 0.0
H629 H 0.69343 0.76146 0.28297 0.0
C630 C 0.73518 0.70871 0.27151 0.0
C631 C 0.75788 0.68318 0.26208 0.0
C632 C 0.72562 0.73434 0.2458 0.0
C633 C 0.77125 0.68264 0.22696 0.0
C634 C 0.76134 0.7077 0.20062 0.0
C635 C 0.72842 0.75911 0.18393 0.0
C636 C 0.70567 0.78458 0.19377 0.0
C637 C 0.73866 0.73381 0.2099 0.0
C638 C 0.69342 0.78575 0.22947 0.0
C639 C 0.70349 0.76075 0.25557 0.0
H640 H 0.80024 0.23876 0.70034 0.0
H641 H 0.72941 0.15528 0.68461 0.0
H642 H 0.69242 0.19218 0.72062 0.0
H643 H 0.68293 0.24545 0.75978 0.0
H644 H 0.75523 0.32687 0.77717 0.0
H645 H 0.79015 0.29239 0.73677 0.0
C646 C 0.77658 0.22879 0.70444 0.0
C647 C 0.76724 0.19475 0.69056 0.0
C648 C 0.7563 0.24933 0.72531 0.0
C649 C 0.7368 0.18158 0.69583 0.0
C650 C 0.71587 0.20251 0.71617 0.0
C651 C 0.70613 0.25598 0.75413 0.0
C652 C 0.71676 0.28867 0.77045 0.0
C653 C 0.72576 0.23605 0.73154 0.0
C654 C 0.74678 0.30205 0.76381 0.0
C655 C 0.7666 0.28234 0.74114 0.0
H656 H 0.75207 0.73333 0.81457 0.0
H657 H 0.77579 0.81992 0.73867 0.0
H658 H 0.74634 0.78872 0.68947 0.0
H659 H 0.71906 0.73345 0.66804 0.0
H660 H 0.69991 0.64465 0.74366 0.0
H661 H 0.72369 0.67966 0.7939 0.0
C662 C 0.75006 0.7454 0.7873 0.0
C663 C 0.76558 0.7778 0.77904 0.0
C664 C 0.735 0.7266 0.75956 0.0
C665 C 0.7635 0.79446 0.74451 0.0
C666 C 0.74717 0.77659 0.71669 0.0
C667 C 0.7203 0.72202 0.69561 0.0
C668 C 0.7084 0.68705 0.70287 0.0
C669 C 0.73388 0.74202 0.72377 0.0
C670 C 0.70977 0.67159 0.73806 0.0
C671 C 0.7228 0.69163 0.76659 0.0
H672 H 0.42939 0.44826 0.49481 0.0
H673 H 0.49637 0.44224 0.40612 0.0
H674 H 0.53387 0.47758 0.44296 0.0
H675 H 0.54258 0.51943 0.49537 0.0
H676 H 0.47248 0.52845 0.58046 0.0
H677 H 0.44008 0.48329 0.5489 0.0
C678 C 0.45228 0.45437 0.48355 0.0
C679 C 0.4598 0.44489 0.44746 0.0
C680 C 0.47254 0.47585 0.50371 0.0
C681 C 0.48994 0.45095 0.43365 0.0
C682 C 0.51118 0.47115 0.45449 0.0
C683 C 0.52031 0.51112 0.50695 0.0
C684 C 0.50944 0.52686 0.53971 0.0
C685 C 0.50186 0.48554 0.48862 0.0
C686 C 0.48094 0.51617 0.55513 0.0
C687 C 0.46259 0.49046 0.53729 0.0
H688 H 0.04181 0.53445 -0.00638 0.0
H689 H -0.01272 0.52301 0.89763 0.0
H690 H 0.95499 0.48465 0.9298 0.0
H691 H 0.9403 0.4526 0.98304 0.0
H692 H -0.01468 0.46543 0.08193 0.0
H693 H 0.02444 0.5037 0.05024 0.0
C694 C 0.02186 0.52321 0.98273 0.0
C695 C 0.01762 0.52994 0.94517 0.0
C696 C 0.0006 0.5013 -0.00248 0.0
C697 C -0.00889 0.51712 0.92651 0.0
C698 C 0.97507 0.4952 0.94467 0.0
C699 C 0.9594 0.46413 -0.00468 0.0
C700 C 0.96206 0.45794 0.03293 0.0
C701 C 0.98016 0.48663 0.98156 0.0
C702 C -0.01735 0.4712 0.05284 0.0
C703 C 0.00469 0.49298 0.03493 0.0
H704 H 0.14819 0.00205 0.16504 0.0
H705 H 0.05092 0.98115 0.14297 0.0
H706 H 0.05037 0.93531 0.19229 0.0
H707 H 0.07862 0.9002 0.2395 0.0
H708 H 0.17367 0.92901 0.26518 0.0
H709 H 0.17379 0.97557 0.21661 0.0
C710 C 0.12728 -0.01365 0.17125 0.0
C711 C 0.10023 -0.00806 0.15079 0.0
C712 C 0.12616 0.96484 0.1999 0.0
C713 C 0.07199 0.97647 0.15871 0.0
C714 C 0.07169 0.95043 0.1867 0.0
C715 C 0.09908 0.91718 0.23464 0.0
C716 C 0.12608 0.91168 0.25549 0.0
C717 C 0.09876 0.9441 0.2072 0.0
C718 C 0.15261 0.9334 0.24937 0.0
C719 C 0.15279 0.9596 0.22145 0.0
H720 H 0.29821 0.83643 0.53275 0.0
H721 H 0.369 0.835 0.45023 0.0
H722 H 0.32921 0.83677 0.40137 0.0
H723 H 0.2729 0.84887 0.38466 0.0
H724 H 0.20978 0.87934 0.472 0.0
H725 H 0.25019 0.86716 0.51697 0.0
C726 C 0.30428 0.83473 0.50398 0.0
C727 C 0.33544 0.83617 0.49477 0.0
C728 C 0.28277 0.84503 0.47759 0.0
C729 C 0.34454 0.83381 0.45766 0.0
C730 C 0.32199 0.83654 0.42997 0.0
C731 C 0.26808 0.85233 0.41379 0.0
C732 C 0.23821 0.86333 0.42563 0.0
C733 C 0.29097 0.84416 0.43994 0.0
C734 C 0.23238 0.86982 0.46278 0.0
C735 C 0.25466 0.86071 0.48858 0.0
H736 H 0.40906 0.05449 0.75859 0.0
H737 H 0.32034 0.08946 0.71581 0.0
H738 H 0.328 0.05274 0.66063 0.0
H739 H 0.35236 0.00044 0.63257 0.0
H740 H 0.43137 0.95456 0.68299 0.0
H741 H 0.43706 0.00308 0.72568 0.0
C742 C 0.39165 0.05387 0.73696 0.0
C743 C 0.36322 0.07275 0.74209 0.0
C744 C 0.39577 0.03099 0.70563 0.0
C745 C 0.34137 0.07317 0.71342 0.0
C746 C 0.34617 0.05303 0.68137 0.0
C747 C 0.37106 0.00129 0.65271 0.0
C748 C 0.38961 0.97474 0.65661 0.0
C749 C 0.37217 0.0302 0.67816 0.0
C750 C 0.4146 0.97671 0.68156 0.0
C751 C 0.41869 0.00319 0.70524 0.0
H752 H 0.24605 0.18178 0.95709 0.0
H753 H 0.21343 0.09904 0.88025 0.0
H754 H 0.16328 0.09757 0.91027 0.0
H755 H 0.13243 0.10961 0.96297 0.0
H756 H 0.16594 0.17967 0.04616 0.0
H757 H 0.21032 0.19908 0.00697 0.0
C758 C 0.22772 0.16387 0.94685 0.0
C759 C 0.23384 0.13956 0.91699 0.0
C760 C 0.19887 0.16144 0.96589 0.0
C761 C 0.20975 0.11709 0.90365 0.0
C762 C 0.18086 0.11651 0.92057 0.0
C763 C 0.14916 0.1298 0.97308 0.0
C764 C 0.14738 0.14126 0.00598 0.0
C765 C 0.17569 0.13716 0.95237 0.0
C766 C 0.16798 0.16882 0.01851 0.0
C767 C 0.19342 0.17963 -0.00384 0.0
H768 H 0.15127 0.06256 0.24608 0.0
H769 H 0.05929 0.06257 0.19891 0.0
H770 H 0.04338 0.01225 0.24027 0.0
H771 H 0.05504 0.97407 0.29177 0.0
H772 H 0.14681 0.97766 0.3399 0.0
H773 H 0.16381 0.02081 0.2961 0.0
C774 C 0.12783 0.05119 0.24482 0.0
C775 C 0.10648 0.06537 0.2197 0.0
C776 C 0.11898 0.02319 0.26883 0.0
C777 C 0.07605 0.05127 0.21804 0.0
C778 C 0.06699 0.02286 0.24175 0.0
C779 C 0.07863 0.98493 0.29198 0.0
C780 C 0.1001 0.97223 0.31803 0.0
C781 C 0.08829 0.0087 0.26738 0.0
C782 C 0.1303 0.98696 0.31938 0.0
C783 C 0.14028 0.00991 0.29467 0.0
H784 H 0.20029 0.86561 0.57597 0.0
H785 H 0.23681 0.76479 0.53089 0.0
H786 H 0.19365 0.76183 0.48674 0.0
H787 H 0.15249 0.79575 0.45258 0.0
H788 H 0.1202 0.89936 0.49606 0.0
H789 H 0.15408 0.89323 0.54927 0.0
C790 C 0.19843 0.84258 0.55698 0.0
C791 C 0.22217 0.81619 0.55581 0.0
C792 C 0.17432 0.84179 0.53104 0.0
C793 C 0.21906 0.78588 0.53184 0.0
C794 C 0.19446 0.78427 0.50645 0.0
C795 C 0.1524 0.81625 0.47435 0.0
C796 C 0.13461 0.84828 0.47041 0.0
C797 C 0.17298 0.81323 0.50441 0.0
C798 C 0.13419 0.87472 0.49863 0.0
C799 C 0.15358 0.8713 0.52897 0.0
H800 H 0.37615 0.00527 0.78689 0.0
H801 H 0.32728 0.96022 0.87828 0.0
H802 H 0.30577 0.91238 0.83725 0.0
H803 H 0.30725 0.88158 0.77298 0.0
H804 H 0.33261 0.95222 0.68276 0.0
H805 H 0.35776 -0.01118 0.72705 0.0
C806 C 0.36012 -0.01491 0.79776 0.0
C807 C 0.35411 -0.01571 0.83535 0.0
C808 C 0.34406 0.9646 0.77411 0.0
C809 C 0.33297 0.96106 0.84922 0.0
C810 C 0.32039 0.93387 0.82579 0.0
C811 C 0.31676 0.9073 0.7628 0.0
C812 C 0.32128 0.91254 0.72438 0.0
C813 C 0.32644 0.93508 0.78781 0.0
C814 C 0.33134 0.94642 0.71189 0.0
C815 C 0.34543 0.96995 0.73662 0.0
H816 H 0.29133 0.07778 0.94488 0.0
H817 H 0.34622 0.16307 -0.00768 0.0
H818 H 0.3057 0.17143 0.03946 0.0
H819 H 0.25765 0.14854 0.06933 0.0
H820 H 0.20203 0.06503 0.01538 0.0
H821 H 0.23997 0.06199 0.96881 0.0
C822 C 0.29349 0.09979 0.96502 0.0
C823 C 0.32108 0.12052 0.96654 0.0
C824 C 0.27063 0.1036 -0.01162 0.0
C825 C 0.32457 0.14778 -0.00999 0.0
C826 C 0.30179 0.15183 0.01737 0.0
C827 C 0.25396 0.12955 0.0466 0.0
C828 C 0.22751 0.10639 0.04619 0.0
C829 C 0.27537 0.12874 0.01753 0.0
C830 C 0.22275 0.08212 0.01672 0.0
C831 C 0.24412 0.08086 -0.01213 0.0
H832 H 0.92863 0.29819 0.10976 0.0
H833 H 0.8785 0.20136 0.11375 0.0
H834 H 0.92394 0.1651 0.11507 0.0
H835 H 0.97365 0.15314 0.1117 0.0
H836 H 0.05418 0.2528 0.06188 0.0
H837 H 0.01774 0.30127 0.0669 0.0
C838 C 0.93198 0.26977 0.10414 0.0
C839 C 0.90301 0.25239 0.10753 0.0
C840 C 0.9629 0.25236 0.09758 0.0
C841 C 0.90081 0.21482 0.10918 0.0
C842 C 0.92724 0.19443 0.11088 0.0
C843 C 0.98112 0.18063 0.10329 0.0
C844 C 0.00939 0.18592 0.09009 0.0
C845 C 0.95702 0.20986 0.1056 0.0
C846 C 0.03125 0.2437 0.07209 0.0
C847 C 0.00825 0.27447 0.0756 0.0
H848 H 0.49744 0.25907 0.9392 0.0
H849 H 0.45729 0.34858 0.87715 0.0
H850 H 0.40888 0.31537 0.87143 0.0
H851 H 0.38185 0.25843 0.87255 0.0
H852 H 0.41914 0.16446 0.92801 0.0
H853 H 0.46369 0.20206 0.95035 0.0
C854 C 0.47776 0.27146 0.92535 0.0
C855 C 0.48135 0.30585 0.9074 0.0
C856 C 0.44952 0.25144 0.92112 0.0
C857 C 0.45552 0.32182 0.89013 0.0
C858 C 0.42762 0.303 0.88706 0.0
C859 C 0.39952 0.24635 0.89017 0.0
C860 C 0.39954 0.20851 0.89585 0.0
C861 C 0.42498 0.26741 0.90074 0.0
C862 C 0.42071 0.19324 0.92079 0.0
C863 C 0.44591 0.2148 0.93355 0.0
H864 H -0.00909 0.6899 0.44069 0.0
H865 H 0.00042 0.64108 0.33251 0.0
H866 H 0.04661 0.67746 0.32107 0.0
H867 H 0.07883 0.72906 0.33654 0.0
H868 H 0.06995 0.78335 0.44157 0.0
H869 H 0.02991 0.73832 0.46015 0.0
C870 C 0.00343 0.687 0.41491 0.0
C871 C -0.00857 0.66392 0.38677 0.0
C872 C 0.03006 0.70896 0.40795 0.0
C873 C 0.0085 0.65939 0.35411 0.0
C874 C 0.03506 0.6801 0.34753 0.0
C875 C 0.06839 0.73081 0.36377 0.0
C876 C 0.07635 0.75998 0.38717 0.0
C877 C 0.04512 0.70595 0.37344 0.0
C878 C 0.06358 0.76151 0.42273 0.0
C879 C 0.04062 0.73581 0.43323 0.0
H880 H 0.9814 0.24126 0.03814 0.0
H881 H 0.9807 0.34037 0.12332 0.0
H882 H 0.00441 0.29043 0.16389 0.0
H883 H 0.0515 0.22762 0.15696 0.0
H884 H 0.06894 0.17509 0.03123 0.0
H885 H 0.01294 0.1956 -0.00158 0.0
C886 C 0.97109 0.26725 0.035 0.0
C887 C 0.96861 0.30841 0.06357 0.0
C888 C -0.01488 0.22553 0.05202 0.0
C889 C 0.98225 0.31359 0.11034 0.0
C890 C -0.00552 0.28103 0.13815 0.0
C891 C 0.04097 0.2203 0.13088 0.0
C892 C 0.06402 0.19847 0.09603 0.0
C893 C 0.00353 0.23739 0.12314 0.0
C894 C 0.05243 0.18916 0.04866 0.0
C895 C 0.01577 0.20069 0.02758 0.0
H896 H 0.5489 0.6883 0.54729 0.0
H897 H 0.60152 0.7602 0.61873 0.0
H898 H 0.56465 0.80946 0.60865 0.0
H899 H 0.51348 0.82791 0.59059 0.0
H900 H 0.45527 0.756 0.52555 0.0
H901 H 0.49778 0.71077 0.52196 0.0
C902 C 0.55212 0.71486 0.56024 0.0
C903 C 0.57718 0.72055 0.58463 0.0
C904 C 0.5296 0.74269 0.55596 0.0
C905 C 0.58234 0.75548 0.59983 0.0
C906 C 0.56107 0.78347 0.59449 0.0
C907 C 0.51009 0.80246 0.57533 0.0
C908 C 0.4811 0.79444 0.55983 0.0
C909 C 0.53393 0.7767 0.57439 0.0
C910 C 0.47738 0.76224 0.53859 0.0
C911 C 0.50164 0.73644 0.53657 0.0
H912 H 0.92013 0.68869 0.35913 0.0
H913 H 0.85763 0.76593 0.40878 0.0
H914 H 0.89994 0.81177 0.41329 0.0
H915 H 0.95438 0.83009 0.39677 0.0
H916 H 0.00453 0.75628 0.33041 0.0
H917 H 0.96849 0.70984 0.33384 0.0
C918 C 0.9167 0.7147 0.3732 0.0
C919 C 0.88701 0.72375 0.3852 0.0
C920 C 0.93917 0.74192 0.37012 0.0
C921 C 0.88111 0.75829 0.40092 0.0
C922 C 0.9049 0.78468 0.40221 0.0
C923 C 0.95744 0.80353 0.38355 0.0
C924 C 0.98538 0.7955 0.36477 0.0
C925 C 0.93387 0.77695 0.38577 0.0
C926 C -0.01649 0.76227 0.34581 0.0
C927 C 0.96565 0.73552 0.34863 0.0
H928 H 0.46576 0.21121 0.83321 0.0
H929 H 0.51207 0.12124 0.88776 0.0
H930 H 0.55524 0.16091 0.90439 0.0
H931 H 0.58119 0.21966 0.90192 0.0
H932 H 0.54574 0.30241 0.8293 0.0
H933 H 0.49614 0.26932 0.82353 0.0
C934 C 0.4857 0.20021 0.84775 0.0
C935 C 0.48535 0.16367 0.86019 0.0
C936 C 0.5116 0.22277 0.85579 0.0
C937 C 0.51154 0.14963 0.87868 0.0
C938 C 0.53607 0.17233 0.88874 0.0
C939 C 0.56188 0.23093 0.8863 0.0
C940 C 0.56588 0.26382 0.86763 0.0
C941 C 0.53609 0.20903 0.8781 0.0
C942 C 0.54194 0.27777 0.84553 0.0
C943 C 0.51423 0.25818 0.84101 0.0
H944 H 0.80288 0.0597 0.71279 0.0
H945 H 0.88183 0.11942 0.75409 0.0
H946 H 0.89741 0.07087 0.79554 0.0
H947 H 0.90752 0.00293 0.80613 0.0
H948 H 0.81173 0.9277 0.73273 0.0
H949 H 0.7931 -0.00816 0.71429 0.0
C950 C 0.82258 0.0605 0.73151 0.0
C951 C 0.84473 0.08853 0.72834 0.0
C952 C 0.83221 0.02798 0.74651 0.0
C953 C 0.86762 0.09472 0.75514 0.0
C954 C 0.87729 0.06646 0.77807 0.0
C955 C 0.88756 -0.00361 0.78906 0.0
C956 C 0.87715 0.95548 0.78173 0.0
C957 C 0.86566 0.03112 0.77262 0.0
C958 C 0.82614 0.95104 0.74165 0.0
C959 C 0.81368 -0.01055 0.73129 0.0
H960 H 0.70639 0.18878 0.4587 0.0
H961 H 0.63247 0.09452 0.48041 0.0
H962 H 0.68353 0.06371 0.51273 0.0
H963 H 0.74547 0.08578 0.55613 0.0
H964 H 0.75369 0.20778 0.51688 0.0
H965 H 0.74216 0.2406 0.48243 0.0
C966 C 0.6828 0.18827 0.45173 0.0
C967 C 0.65138 0.15547 0.45858 0.0
C968 C 0.72228 0.17841 0.46773 0.0
C969 C 0.65387 0.11035 0.47878 0.0
C970 C 0.68696 0.08898 0.49759 0.0
C971 C 0.74488 0.11075 0.54 0.0
C972 C 0.76214 0.15087 0.55836 0.0
C973 C 0.72367 0.11034 0.49923 0.0
C974 C 0.76223 0.19726 0.53953 0.0
C975 C 0.74433 0.211 0.49553 0.0
H976 H 0.57316 0.92495 0.20963 0.0
H977 H 0.661 0.88539 0.25058 0.0
H978 H 0.65844 0.92814 0.30247 0.0
H979 H 0.63497 0.98232 0.33095 0.0
H980 H 0.551 0.02259 0.28598 0.0
H981 H 0.54777 0.9771 0.2407 0.0
C982 C 0.59117 0.92521 0.23056 0.0
C983 C 0.61731 0.9027 0.22663 0.0
C984 C 0.59043 0.95133 0.259 0.0
C985 C 0.64076 0.90293 0.25346 0.0
C986 C 0.63944 0.92749 0.28281 0.0
C987 C 0.6159 0.98086 0.3114 0.0
C988 C 0.59396 0.00404 0.31132 0.0
C989 C 0.61508 0.95284 0.28496 0.0
C990 C 0.56917 0.00198 0.28607 0.0
C991 C 0.56676 0.97765 0.26037 0.0
H992 H 0.82527 0.8357 0.00616 0.0
H993 H 0.78794 0.886 0.91198 0.0
H994 H 0.73802 0.89567 0.94417 0.0
H995 H 0.70414 0.88692 -0.00329 0.0
H996 H 0.7448 0.83684 0.09283 0.0
H997 H 0.79456 0.83124 0.06132 0.0
C998 C 0.80638 0.84879 -0.00861 0.0
C999 C 0.81047 0.85937 0.95802 0.0
C1000 C 0.77836 0.85501 0.01022 0.0
C1001 C 0.78553 0.87697 0.94024 0.0
C1002 C 0.75704 0.88278 0.95882 0.0
C1003 C 0.7242 0.87576 0.01088 0.0
C1004 C 0.72084 0.86257 0.04723 0.0
C1005 C 0.75305 0.87178 -0.00794 0.0
C1006 C 0.74684 0.84739 0.06502 0.0
C1007 C 0.77526 0.84388 0.04691 0.0
H1008 H 0.8792 0.03469 0.7079 0.0
H1009 H 0.9018 0.95701 0.63088 0.0
H1010 H 0.89584 0.90642 0.67474 0.0
H1011 H 0.8713 0.87592 0.73483 0.0
H1012 H 0.81329 0.9382 0.83076 0.0
H1013 H 0.82374 0.00198 0.80679 0.0
C1014 C 0.87916 0.00568 0.70324 0.0
C1015 C 0.88745 -0.00386 0.66725 0.0
C1016 C 0.86752 0.98345 0.73018 0.0
C1017 C 0.89332 0.96332 0.65828 0.0
C1018 C 0.89004 0.93403 0.68358 0.0
C1019 C 0.86394 0.90281 0.74422 0.0
C1020 C 0.8413 0.90372 0.78363 0.0
C1021 C 0.87628 0.93927 0.71819 0.0
C1022 C 0.82674 0.94112 0.80571 0.0
C1023 C 0.8335 0.98395 0.79066 0.0
H1024 H 0.80843 0.16988 0.52354 0.0
H1025 H 0.83807 0.10531 0.43783 0.0
H1026 H 0.78868 0.10558 0.40832 0.0
H1027 H 0.73695 0.10706 0.40632 0.0
H1028 H 0.66624 0.16095 0.52002 0.0
H1029 H 0.71145 0.17675 0.55319 0.0
C1030 C 0.79822 0.1534 0.50187 0.0
C1031 C 0.82271 0.13346 0.48649 0.0
C1032 C 0.76386 0.14982 0.49259 0.0
C1033 C 0.81872 0.11821 0.45202 0.0
C1034 C 0.78997 0.11832 0.43534 0.0
C1035 C 0.73356 0.12031 0.433 0.0
C1036 C 0.70004 0.12648 0.44663 0.0
C1037 C 0.76283 0.13052 0.4534 0.0
C1038 C 0.68788 0.15325 0.50568 0.0
C1039 C 0.71662 0.1641 0.52629 0.0
H1040 H 0.6487 0.95967 0.15771 0.0
H1041 H 0.55239 0.98553 0.13851 0.0
H1042 H 0.55753 0.03539 0.17927 0.0
H1043 H 0.58693 0.06899 0.22837 0.0
H1044 H 0.67916 0.03081 0.25626 0.0
H1045 H 0.6778 -0.01308 0.20627 0.0
C1046 C 0.62856 0.9768 0.16284 0.0
C1047 C 0.6001 0.96802 0.14641 0.0
C1048 C 0.63125 0.00118 0.18871 0.0
C1049 C 0.57532 -0.01274 0.15189 0.0
C1050 C 0.57774 0.01808 0.1751 0.0
C1051 C 0.60678 0.0514 0.2229 0.0
C1052 C 0.63293 0.05272 0.24616 0.0
C1053 C 0.6053 0.02442 0.19497 0.0
C1054 C 0.65855 0.02991 0.23903 0.0
C1055 C 0.65795 0.00486 0.21029 0.0
H1056 H 0.66947 0.78073 0.02958 0.0
H1057 H 0.63521 0.8544 0.94921 0.0
H1058 H 0.67886 0.84116 0.91107 0.0
H1059 H 0.72803 0.81161 0.90092 0.0
H1060 H 0.77207 0.75209 -0.0152 0.0
H1061 H 0.72553 0.7604 0.02408 0.0
C1062 C 0.67237 0.79523 0.0039 0.0
C1063 C 0.6492 0.81948 -0.00844 0.0
C1064 C 0.69968 0.79036 0.9864 0.0
C1065 C 0.65223 0.83533 0.96003 0.0
C1066 C 0.67753 0.82823 0.93791 0.0
C1067 C 0.72732 0.80046 0.92865 0.0
C1068 C 0.75241 0.78038 0.94178 0.0
C1069 C 0.70144 0.80623 0.95086 0.0
C1070 C 0.75212 0.76659 0.97781 0.0
C1071 C 0.72559 0.77132 -0.00365 0.0
H1072 H 0.97376 0.76758 0.84755 0.0
H1073 H -0.00079 0.83972 0.93512 0.0
H1074 H 0.04746 0.80617 0.94082 0.0
H1075 H 0.07934 0.75384 0.92501 0.0
H1076 H 0.0534 0.68443 0.83343 0.0
H1077 H 0.00467 0.71822 0.8262 0.0
C1078 C -0.01406 0.77569 0.86772 0.0
C1079 C 0.9849 0.80457 0.89225 0.0
C1080 C 0.01403 0.75612 0.87103 0.0
C1081 C 0.00291 0.81626 0.91712 0.0
C1082 C 0.03053 0.79717 0.92051 0.0
C1083 C 0.06286 0.74588 0.90372 0.0
C1084 C 0.06928 0.71597 0.88079 0.0
C1085 C 0.03581 0.76631 0.89861 0.0
C1086 C 0.0483 0.70664 0.85244 0.0
C1087 C 0.02069 0.72629 0.84786 0.0
H1088 H 0.45933 0.70581 0.13604 0.0
H1089 H 0.49332 0.62751 0.05604 0.0
H1090 H 0.54155 0.66161 0.04992 0.0
H1091 H 0.57386 0.71375 0.06497 0.0
H1092 H 0.54262 0.7945 0.14377 0.0
H1093 H 0.49377 0.75983 0.1524 0.0
C1094 C 0.47788 0.6956 0.11854 0.0
C1095 C 0.47301 0.66356 0.09726 0.0
C1096 C 0.50592 0.71609 0.11437 0.0
C1097 C 0.49676 0.65154 0.0734 0.0
C1098 C 0.52425 0.6713 0.06942 0.0
C1099 C 0.55645 0.72393 0.08411 0.0
C1100 C 0.56208 0.75656 0.10372 0.0
C1101 C 0.52894 0.70374 0.08931 0.0
C1102 C 0.53894 0.76941 0.12815 0.0
C1103 C 0.51114 0.74933 0.13346 0.0
H1104 H 0.98577 0.30299 0.62479 0.0
H1105 H 0.00583 0.29034 0.51053 0.0
H1106 H 0.96423 0.25334 0.49935 0.0
H1107 H 0.91562 0.22374 0.52312 0.0
H1108 H 0.89604 0.23095 0.63948 0.0
H1109 H 0.94109 0.27033 0.64891 0.0
C1110 C 0.98093 0.29224 0.59746 0.0
C1111 C -0.00348 0.29908 0.56872 0.0
C1112 C 0.95491 0.26989 0.59159 0.0
C1113 C -0.01009 0.28552 0.53317 0.0
C1114 C 0.96847 0.26415 0.52675 0.0
C1115 C 0.92171 0.23375 0.55036 0.0
C1116 C 0.90296 0.2249 0.58064 0.0
C1117 C 0.94828 0.25585 0.55589 0.0
C1118 C 0.91068 0.2375 0.61599 0.0
C1119 C 0.9361 0.2603 0.62138 0.0
H1120 H 0.97958 0.65922 0.8623 0.0
H1121 H -0.00196 0.68906 0.97423 0.0
H1122 H 0.95825 0.72839 0.97843 0.0
H1123 H 0.91284 0.75528 0.95126 0.0
H1124 H 0.89572 0.74137 0.8354 0.0
H1125 H 0.93686 0.69458 0.83133 0.0
C1126 C 0.97485 0.67471 0.88725 0.0
C1127 C -0.01109 0.67069 0.91822 0.0
C1128 C 0.94983 0.69948 0.88892 0.0
C1129 C -0.01704 0.69106 0.95038 0.0
C1130 C 0.96247 0.71357 0.95295 0.0
C1131 C 0.91845 0.74198 0.92525 0.0
C1132 C 0.90222 0.75107 0.89384 0.0
C1133 C 0.94323 0.71786 0.92263 0.0
C1134 C 0.90877 0.7342 0.85988 0.0
C1135 C 0.93201 0.70758 0.85761 0.0
H1136 H 0.40158 0.23059 0.4351 0.0
H1137 H 0.44993 0.29481 0.33521 0.0
H1138 H 0.48795 0.28236 0.35772 0.0
H1139 H 0.52149 0.2169 0.37421 0.0
H1140 H 0.49072 0.14644 0.44089 0.0
H1141 H 0.44889 0.18737 0.45992 0.0
C1142 C 0.41821 0.24475 0.4177 0.0
C1143 C 0.40428 0.26932 0.37929 0.0
C1144 C 0.45848 0.23701 0.42457 0.0
C1145 C 0.4269 0.29031 0.34379 0.0
C1146 C 0.4687 0.2907 0.34108 0.0
C1147 C 0.52027 0.23773 0.36357 0.0
C1148 C 0.51841 0.18174 0.39659 0.0
C1149 C 0.4921 0.26632 0.375 0.0
C1150 C 0.49189 0.17318 0.42759 0.0
C1151 C 0.46577 0.19891 0.44098 0.0
H1152 H 0.97614 0.187 0.63715 0.0
H1153 H 0.97657 0.15451 0.52275 0.0
H1154 H 0.01968 0.18818 0.51256 0.0
H1155 H 0.06141 0.22896 0.53565 0.0
H1156 H 0.05962 0.26307 0.64952 0.0
H1157 H 0.0124 0.22756 0.66009 0.0
C1158 C 0.9869 0.1872 0.6101 0.0
C1159 C 0.97243 0.16891 0.58073 0.0
C1160 C 0.00928 0.20732 0.60409 0.0
C1161 C 0.9869 0.16894 0.54584 0.0
C1162 C 0.00945 0.18817 0.53987 0.0
C1163 C 0.05035 0.22874 0.56254 0.0
C1164 C 0.06329 0.24923 0.59145 0.0
C1165 C 0.02317 0.20801 0.56862 0.0
C1166 C 0.04937 0.24831 0.62651 0.0
C1167 C 0.02264 0.2276 0.63279 0.0
H1168 H 0.41367 0.70216 0.03512 0.0
H1169 H 0.38813 0.76494 0.13131 0.0
H1170 H 0.43335 0.80467 0.12306 0.0
H1171 H 0.47946 0.82227 0.08859 0.0
H1172 H 0.51264 0.75326 0.00055 0.0
H1173 H 0.46644 0.71318 0.00683 0.0
C1174 C 0.41883 0.72349 0.05502 0.0
C1175 C 0.39802 0.73039 0.0842 0.0
C1176 C 0.44614 0.7449 0.0515 0.0
C1177 C 0.40397 0.75933 0.10872 0.0
C1178 C 0.42975 0.78198 0.10406 0.0
C1179 C 0.47669 0.79811 0.07119 0.0
C1180 C 0.49886 0.79044 0.04424 0.0
C1181 C 0.45084 0.77514 0.07559 0.0
C1182 C 0.49529 0.75953 0.02132 0.0
C1183 C 0.46894 0.73687 0.0248 0.0
H1184 H 0.63797 0.38744 0.71837 0.0
H1185 H 0.56078 0.41667 0.78814 0.0
H1186 H 0.54862 0.46905 0.74756 0.0
H1187 H 0.56106 0.50664 0.69105 0.0
H1188 H 0.63795 0.47256 0.6222 0.0
H1189 H 0.64898 0.42193 0.66338 0.0
C1190 C 0.61834 0.40518 0.72462 0.0
C1191 C 0.60096 0.39898 0.75656 0.0
C1192 C 0.61137 0.43432 0.70111 0.0
C1193 C 0.57525 0.42173 0.76427 0.0
C1194 C 0.56813 0.45142 0.74084 0.0
C1195 C 0.58032 0.48821 0.68548 0.0
C1196 C 0.59889 0.49348 0.65381 0.0
C1197 C 0.58633 0.45824 0.70922 0.0
C1198 C 0.62343 0.46913 0.64642 0.0
C1199 C 0.62971 0.44005 0.66984 0.0
H1200 H 0.83455 0.36979 0.96424 0.0
H1201 H 0.80994 0.29196 0.04422 0.0
H1202 H 0.76676 0.2685 0.00498 0.0
H1203 H 0.72802 0.28462 0.95767 0.0
H1204 H 0.75192 0.37478 0.88507 0.0
H1205 H 0.80217 0.38068 0.91356 0.0
C1206 C 0.81944 0.3479 0.97429 0.0
C1207 C 0.82184 0.33608 0.00682 0.0
C1208 C 0.79378 0.33796 0.95375 0.0
C1209 C 0.80562 0.3043 0.01766 0.0
C1210 C 0.78116 0.29103 -0.00478 0.0
C1211 C 0.74442 0.30534 0.94825 0.0
C1212 C 0.73573 0.33041 0.92028 0.0
C1213 C 0.77325 0.31025 0.96649 0.0
C1214 C 0.75749 0.3562 0.90739 0.0
C1215 C 0.78648 0.3593 0.92329 0.0
H1216 H 0.89945 0.57317 0.24641 0.0
H1217 H 0.80017 0.56163 0.26068 0.0
H1218 H 0.7981 0.51557 0.21171 0.0
H1219 H 0.82473 0.47701 0.16635 0.0
H1220 H 0.92441 0.48355 0.15526 0.0
H1221 H 0.92658 0.53273 0.20168 0.0
C1222 C 0.87767 0.55961 0.23934 0.0
C1223 C 0.8502 0.5693 0.25774 0.0
C1224 C 0.87685 0.5321 0.21219 0.0
C1225 C 0.8217 0.55323 0.24753 0.0
C1226 C 0.82045 0.52735 0.21934 0.0
C1227 C 0.84691 0.48853 0.17513 0.0
C1228 C 0.87448 0.47578 0.15938 0.0
C1229 C 0.84792 0.51601 0.20207 0.0
C1230 C 0.90313 0.49188 0.169 0.0
C1231 C 0.9043 0.52023 0.195 0.0
H1232 H 0.70941 0.62286 0.3977 0.0
H1233 H 0.76148 0.7005 0.46332 0.0
H1234 H 0.71801 0.70435 0.50745 0.0
H1235 H 0.66889 0.67619 0.53213 0.0
H1236 H 0.62294 0.59183 0.46814 0.0
H1237 H 0.65971 0.60053 0.41814 0.0
C1238 C 0.71116 0.6408 0.42159 0.0
C1239 C 0.73872 0.66007 0.42839 0.0
C1240 C 0.6869 0.64181 0.44693 0.0
C1241 C 0.74043 0.68472 0.45824 0.0
C1242 C 0.71565 0.68688 0.48337 0.0
C1243 C 0.6667 0.66057 0.50681 0.0
C1244 C 0.64354 0.63326 0.50366 0.0
C1245 C 0.68926 0.66418 0.47882 0.0
C1246 C 0.64047 0.61327 0.47075 0.0
C1247 C 0.66166 0.61791 0.44236 0.0
H1248 H 0.6468 0.44952 0.79451 0.0
H1249 H 0.57866 0.50733 0.85998 0.0
H1250 H 0.57793 0.55743 0.81589 0.0
H1251 H 0.59433 0.58417 0.75818 0.0
H1252 H 0.66254 0.52938 0.69071 0.0
H1253 H 0.6658 0.47915 0.73575 0.0
C1254 C 0.63198 0.4732 0.79897 0.0
C1255 C 0.61236 0.47457 0.83024 0.0
C1256 C 0.63153 0.50235 0.77305 0.0
C1257 C 0.59372 0.50563 0.83604 0.0
C1258 C 0.59317 0.53424 0.81077 0.0
C1259 C 0.6097 0.56103 0.75314 0.0
C1260 C 0.62759 0.56 0.72094 0.0
C1261 C 0.61145 0.53263 0.77899 0.0
C1262 C 0.64789 0.53026 0.71502 0.0
C1263 C 0.65001 0.50177 0.74097 0.0
H1264 H 0.74314 0.39286 0.02276 0.0
H1265 H 0.72086 0.28684 0.07005 0.0
H1266 H 0.67857 0.27858 0.0269 0.0
H1267 H 0.64616 0.30177 0.98174 0.0
H1268 H 0.66231 0.41035 0.93866 0.0
H1269 H 0.7094 0.41688 0.97664 0.0
C1270 C 0.72879 0.36824 0.02372 0.0
C1271 C 0.7354 0.34043 0.04923 0.0
C1272 C 0.70378 0.36379 -0.00083 0.0
C1273 C 0.71653 0.30862 0.05041 0.0
C1274 C 0.69233 0.30367 0.02569 0.0
C1275 C 0.6606 0.32636 0.98014 0.0
C1276 C 0.65207 0.35481 0.95685 0.0
C1277 C 0.68577 0.33097 7e-05 0.0
C1278 C 0.66958 0.38758 0.95579 0.0
C1279 C 0.69601 0.39155 0.97789 0.0
H1280 H 0.82776 0.50012 0.31272 0.0
H1281 H 0.92792 0.49393 0.31508 0.0
H1282 H 0.92715 0.44519 0.26852 0.0
H1283 H 0.89771 0.40443 0.22685 0.0
H1284 H 0.798 0.41505 0.21968 0.0
H1285 H 0.79843 0.46173 0.26835 0.0
C1286 C 0.8493 0.48866 0.30212 0.0
C1287 C 0.87792 0.50127 0.31573 0.0
C1288 C 0.84866 0.46138 0.27476 0.0
C1289 C 0.90578 0.48546 0.30337 0.0
C1290 C 0.90533 0.45743 0.27719 0.0
C1291 C 0.87636 0.41786 0.23548 0.0
C1292 C 0.848 0.40768 0.2196 0.0
C1293 C 0.87696 0.44547 0.26239 0.0
C1294 C 0.8201 0.42373 0.23135 0.0
C1295 C 0.82032 0.44994 0.25931 0.0
H1296 H 0.7894 0.57991 0.44125 0.0
H1297 H 0.8477 0.66245 0.49177 0.0
H1298 H 0.80924 0.67025 0.54141 0.0
H1299 H 0.76032 0.65001 0.5714 0.0
H1300 H 0.70178 0.56924 0.51762 0.0
H1301 H 0.73927 0.56425 0.46732 0.0
C1302 C 0.79285 0.60097 0.46219 0.0
C1303 C 0.82047 0.62147 0.46262 0.0
C1304 C 0.77128 0.60449 0.49034 0.0
C1305 C 0.82577 0.64759 0.49039 0.0
C1306 C 0.80426 0.65126 0.51909 0.0
C1307 C 0.75612 0.63107 0.54876 0.0
C1308 C 0.72885 0.60953 0.54801 0.0
C1309 C 0.77731 0.6291 0.51967 0.0
C1310 C 0.72319 0.58512 0.51893 0.0
C1311 C 0.74429 0.58271 0.49008 0.0
H1312 H 0.49989 0.71684 0.64541 0.0
H1313 H 0.46084 0.63187 0.57584 0.0
H1314 H 0.4152 0.66917 0.56425 0.0
H1315 H 0.38644 0.72587 0.57251 0.0
H1316 H 0.41888 0.80726 0.64974 0.0
H1317 H 0.46744 0.77254 0.65882 0.0
C1318 C 0.48093 0.70629 0.62864 0.0
C1319 C 0.48381 0.67197 0.61107 0.0
C1320 C 0.45413 0.72783 0.62241 0.0
C1321 C 0.45922 0.65851 0.58924 0.0
C1322 C 0.43321 0.67988 0.58231 0.0
C1323 C 0.40464 0.73645 0.59048 0.0
C1324 C 0.40028 0.7701 0.60851 0.0
C1325 C 0.43073 0.71484 0.59803 0.0
C1326 C 0.42276 0.78235 0.63392 0.0
C1327 C 0.45007 0.76206 0.6398 0.0
H1328 H 0.36203 0.59506 0.26319 0.0
H1329 H 0.41508 0.54244 0.1774 0.0
H1330 H 0.41965 0.48678 0.21469 0.0
H1331 H 0.40242 0.45102 0.26905 0.0
H1332 H 0.34802 0.50545 0.35331 0.0
H1333 H 0.3513 0.56286 0.32 0.0
C1334 C 0.37566 0.57191 0.25333 0.0
C1335 C 0.38668 0.57194 0.2172 0.0
C1336 C 0.37774 0.54016 0.27457 0.0
C1337 C 0.40511 0.5424 0.20476 0.0
C1338 C 0.40768 0.51049 0.226 0.0
C1339 C 0.39106 0.47543 0.27981 0.0
C1340 C 0.37394 0.47377 0.31276 0.0
C1341 C 0.39266 0.50853 0.26025 0.0
C1342 C 0.36026 0.5057 0.3272 0.0
C1343 C 0.36249 0.53871 0.30849 0.0
H1344 H 0.22939 0.6011 0.06292 0.0
H1345 H 0.28505 0.69556 0.96176 0.0
H1346 H 0.22473 0.71158 0.94651 0.0
H1347 H 0.16773 0.69708 0.95283 0.0
H1348 H 0.12524 0.6148 0.0177 0.0
H1349 H 0.17141 0.60449 0.05347 0.0
C1350 C 0.23258 0.62036 0.0405 0.0
C1351 C 0.26964 0.63017 0.02589 0.0
C1352 C 0.20076 0.64107 0.02252 0.0
C1353 C 0.26701 0.67966 0.97603 0.0
C1354 C 0.22944 0.69173 0.96793 0.0
C1355 C 0.16989 0.67864 0.97608 0.0
C1356 C 0.14471 0.65566 0.98497 0.0
C1357 C 0.19928 0.67322 -0.01195 0.0
C1358 C 0.14551 0.63168 0.0116 0.0
C1359 C 0.17223 0.62555 0.03243 0.0
H1360 H 0.14758 0.51245 0.8111 0.0
H1361 H 0.05018 0.492 0.83149 0.0
H1362 H 0.05187 0.43686 0.79245 0.0
H1363 H 0.07956 0.39938 0.74628 0.0
H1364 H 0.17312 0.43053 0.71526 0.0
H1365 H 0.17431 0.47729 0.76327 0.0
C1366 C 0.12679 0.49597 0.80679 0.0
C1367 C 0.09875 0.50638 0.82327 0.0
C1368 C 0.12723 0.46649 0.78192 0.0
C1369 C 0.07195 0.4845 0.81837 0.0
C1370 C 0.0729 0.45308 0.79616 0.0
C1371 C 0.10026 0.4161 0.75058 0.0
C1372 C 0.1261 0.41172 0.72752 0.0
C1373 C 0.10018 0.44451 0.77681 0.0
C1374 C 0.15281 0.43369 0.73274 0.0
C1375 C 0.15361 0.46033 0.76023 0.0
H1376 H 0.21653 0.26907 0.55678 0.0
H1377 H 0.20391 0.40545 0.55487 0.0
H1378 H 0.23516 0.42154 0.49148 0.0
H1379 H 0.29384 0.39235 0.44491 0.0
H1380 H 0.32894 0.26519 0.4715 0.0
H1381 H 0.27518 0.23758 0.50443 0.0
C1382 C 0.2196 0.29381 0.54066 0.0
C1383 C 0.20823 0.33781 0.56044 0.0
C1384 C 0.23936 0.29063 0.49724 0.0
C1385 C 0.213 0.38212 0.53981 0.0
C1386 C 0.23117 0.39285 0.49785 0.0
C1387 C 0.28592 0.3649 0.45176 0.0
C1388 C 0.31429 0.32899 0.45392 0.0
C1389 C 0.24779 0.35981 0.46923 0.0
C1390 C 0.30865 0.28276 0.47118 0.0
C1391 C 0.27387 0.26422 0.49134 0.0
H1392 H 0.31043 0.4549 0.26896 0.0
H1393 H 0.36979 0.37098 0.22262 0.0
H1394 H 0.37343 0.4052 0.16523 0.0
H1395 H 0.36341 0.4615 0.12971 0.0
H1396 H 0.30234 0.54409 0.17415 0.0
H1397 H 0.29625 0.50846 0.23088 0.0
C1398 C 0.32423 0.44419 0.24634 0.0
C1399 C 0.34018 0.4107 0.25038 0.0
C1400 C 0.32602 0.46386 0.21303 0.0
C1401 C 0.35771 0.39701 0.22062 0.0
C1402 C 0.35961 0.41641 0.18757 0.0
C1403 C 0.34769 0.47089 0.15116 0.0
C1404 C 0.33374 0.50562 0.14792 0.0
C1405 C 0.34408 0.45001 0.18352 0.0
C1406 C 0.31373 0.51767 0.17617 0.0
C1407 C 0.31033 0.49735 0.2087 0.0
H1408 H 0.32972 0.62522 0.96885 0.0
H1409 H 0.29032 0.71607 0.04949 0.0
H1410 H 0.22767 0.69773 0.04119 0.0
H1411 H 0.19272 0.6075 0.96924 0.0
H1412 H 0.25272 0.60034 0.87734 0.0
H1413 H 0.29973 0.60269 0.91447 0.0
C1414 C 0.30852 0.6356 0.98129 0.0
C1415 C 0.31305 0.66946 0.00897 0.0
C1416 C 0.2761 0.617 0.96465 0.0
C1417 C 0.28412 0.6936 0.03159 0.0
C1418 C 0.24509 0.68201 0.02583 0.0
C1419 C 0.21654 0.60986 0.96027 0.0
C1420 C 0.22048 0.60313 0.92284 0.0
C1421 C 0.24067 0.62883 0.98047 0.0
C1422 C 0.25034 0.60203 0.90703 0.0
C1423 C 0.27741 0.60416 0.92835 0.0
H1424 H 0.13263 0.48525 0.64186 0.0
H1425 H 0.04517 0.44695 0.68658 0.0
H1426 H 0.04399 0.49849 0.72947 0.0
H1427 H 0.07066 0.55041 0.75933 0.0
H1428 H 0.16054 0.58506 0.71925 0.0
H1429 H 0.15763 0.54023 0.66908 0.0
C1430 C 0.1133 0.48844 0.66085 0.0
C1431 C 0.08935 0.46202 0.66152 0.0
C1432 C 0.11307 0.5178 0.68619 0.0
C1433 C 0.06425 0.46658 0.68605 0.0
C1434 C 0.06336 0.49622 0.71042 0.0
C1435 C 0.08904 0.54875 0.73886 0.0
C1436 C 0.1158 0.57048 0.7427 0.0
C1437 C 0.08798 0.52152 0.7114 0.0
C1438 C 0.13975 0.56822 0.71648 0.0
C1439 C 0.13824 0.54241 0.6881 0.0
H1440 H 0.1635 0.31917 0.53096 0.0
H1441 H 0.12937 0.3517 0.43026 0.0
H1442 H 0.17703 0.33144 0.40174 0.0
H1443 H 0.22235 0.29825 0.4038 0.0
H1444 H 0.30285 0.32931 0.51726 0.0
H1445 H 0.26115 0.34978 0.55417 0.0
C1446 C 0.17116 0.33313 0.50653 0.0
C1447 C 0.14517 0.33954 0.48511 0.0
C1448 C 0.20423 0.33562 0.49442 0.0
C1449 C 0.14878 0.344 0.44763 0.0
C1450 C 0.17613 0.33273 0.43157 0.0
C1451 C 0.22833 0.30713 0.43166 0.0
C1452 C 0.2625 0.30636 0.44413 0.0
C1453 C 0.20201 0.32291 0.45314 0.0
C1454 C 0.28007 0.3273 0.50348 0.0
C1455 C 0.25382 0.34129 0.52636 0.0
H1456 H 0.43288 0.22555 0.34312 0.0
H1457 H 0.48178 0.32588 0.44666 0.0
H1458 H 0.52389 0.28428 0.46077 0.0
H1459 H 0.57218 0.24012 0.43162 0.0
H1460 H 0.5519 0.17006 0.31204 0.0
H1461 H 0.48535 0.17422 0.31218 0.0
C1462 C 0.44864 0.23504 0.36503 0.0
C1463 C 0.45194 0.29335 0.40293 0.0
C1464 C 0.47556 0.20724 0.37322 0.0
C1465 C 0.47965 0.29976 0.43232 0.0
C1466 C 0.50607 0.27343 0.44263 0.0
C1467 C 0.55468 0.22769 0.41409 0.0
C1468 C 0.56755 0.20363 0.37136 0.0
C1469 C 0.51272 0.23611 0.42457 0.0
C1470 C 0.54101 0.18337 0.33541 0.0
C1471 C 0.49777 0.18402 0.3362 0.0
loop_
_geom_bond_atom_site_label_1
_geom_bond_atom_site_label_2
_geom_bond_distance
_geom_bond_site_symmetry_2
_ccdc_geom_bond_type
C0 O1 1.306 . S
C0 O3 1.160 . S
O1 C0 1.306 . S
O1 Cd2 2.228 . S
Cd2 O1 2.228 . S
Cd2 O6 2.273 . S
Cd2 O10 2.277 . S
O3 C0 1.160 . S
O3 Cd4 2.203 . S
Cd4 O3 2.203 . S
Cd4 O6 2.411 . S
Cd4 O7 2.333 . S
Cd4 O8 2.352 . S
Cd4 O12 2.277 . S
Cd4 O13 2.356 . S
C5 O10 1.209 . S
C5 O12 1.226 . S
O6 Cd2 2.273 . S
O6 Cd4 2.411 . S
O6 C9 1.320 . S
O7 Cd4 2.333 . S
O7 C9 1.214 . S
O8 Cd4 2.352 . S
O8 C11 1.258 . S
C9 O6 1.320 . S
C9 O7 1.214 . S
O10 Cd2 2.277 . S
O10 C5 1.209 . S
C11 O8 1.258 . S
C11 O13 1.282 . S
O12 Cd4 2.277 . S
O12 C5 1.226 . S
O13 Cd4 2.356 . S
O13 C11 1.282 . S
C14 O15 1.306 . S
C14 O17 1.160 . S
O15 C14 1.306 . S
O15 Cd16 2.228 . S
Cd16 O15 2.228 . S
Cd16 O20 2.273 . S
Cd16 O24 2.277 . S
O17 C14 1.160 . S
O17 Cd18 2.203 . S
Cd18 O17 2.203 . S
Cd18 O20 2.411 . S
Cd18 O21 2.333 . S
Cd18 O22 2.352 . S
Cd18 O26 2.277 . S
Cd18 O27 2.356 . S
C19 O24 1.209 . S
C19 O26 1.226 . S
O20 Cd16 2.273 . S
O20 Cd18 2.411 . S
O20 C23 1.320 . S
O21 Cd18 2.333 . S
O21 C23 1.214 . S
O22 Cd18 2.352 . S
O22 C25 1.258 . S
C23 O20 1.320 . S
C23 O21 1.214 . S
O24 Cd16 2.277 . S
O24 C19 1.209 . S
C25 O22 1.258 . S
C25 O27 1.282 . S
O26 Cd18 2.277 . S
O26 C19 1.226 . S
O27 Cd18 2.356 . S
O27 C25 1.282 . S
C28 O29 1.306 . S
C28 O31 1.160 . S
O29 C28 1.306 . S
O29 Cd30 2.228 . S
Cd30 O29 2.228 . S
Cd30 O34 2.273 . S
Cd30 O38 2.277 . S
O31 C28 1.160 . S
O31 Cd32 2.203 . S
Cd32 O31 2.203 . S
Cd32 O34 2.411 . S
Cd32 O35 2.333 . S
Cd32 O36 2.352 . S
Cd32 O40 2.277 . S
Cd32 O41 2.356 . S
C33 O38 1.209 . S
C33 O40 1.226 . S
O34 Cd30 2.273 . S
O34 Cd32 2.411 . S
O34 C37 1.320 . S
O35 Cd32 2.333 . S
O35 C37 1.214 . S
O36 Cd32 2.352 . S
O36 C39 1.258 . S
C37 O34 1.320 . S
C37 O35 1.214 . S
O38 Cd30 2.277 . S
O38 C33 1.209 . S
C39 O36 1.258 . S
C39 O41 1.282 . S
O40 Cd32 2.277 . S
O40 C33 1.226 . S
O41 Cd32 2.356 . S
O41 C39 1.282 . S
C42 O43 1.306 . S
C42 O45 1.160 . S
O43 C42 1.306 . S
O43 Cd44 2.228 . S
Cd44 O43 2.228 . S
Cd44 O48 2.273 . S
Cd44 O52 2.277 . S
O45 C42 1.160 . S
O45 Cd46 2.203 . S
Cd46 O45 2.203 . S
Cd46 O48 2.411 . S
Cd46 O49 2.333 . S
Cd46 O50 2.352 . S
Cd46 O54 2.277 . S
Cd46 O55 2.356 . S
C47 O52 1.209 . S
C47 O54 1.226 . S
O48 Cd44 2.273 . S
O48 Cd46 2.411 . S
O48 C51 1.320 . S
O49 Cd46 2.333 . S
O49 C51 1.214 . S
O50 Cd46 2.352 . S
O50 C53 1.258 . S
C51 O48 1.320 . S
C51 O49 1.214 . S
O52 Cd44 2.277 . S
O52 C47 1.209 . S
C53 O50 1.258 . S
C53 O55 1.282 . S
O54 Cd46 2.277 . S
O54 C47 1.226 . S
O55 Cd46 2.356 . S
O55 C53 1.282 . S
C56 O57 1.306 . S
C56 O59 1.160 . S
O57 C56 1.306 . S
O57 Cd58 2.228 . S
Cd58 O57 2.228 . S
Cd58 O62 2.273 . S
Cd58 O66 2.277 . S
O59 C56 1.160 . S
O59 Cd60 2.203 . S
Cd60 O59 2.203 . S
Cd60 O62 2.411 . S
Cd60 O63 2.333 . S
Cd60 O64 2.352 . S
Cd60 O68 2.277 . S
Cd60 O69 2.356 . S
C61 O66 1.209 . S
C61 O68 1.226 . S
O62 Cd58 2.273 . S
O62 Cd60 2.411 . S
O62 C65 1.320 . S
O63 Cd60 2.333 . S
O63 C65 1.214 . S
O64 Cd60 2.352 . S
O64 C67 1.258 . S
C65 O62 1.320 . S
C65 O63 1.214 . S
O66 Cd58 2.277 . S
O66 C61 1.209 . S
C67 O64 1.258 . S
C67 O69 1.282 . S
O68 Cd60 2.277 . S
O68 C61 1.226 . S
O69 Cd60 2.356 . S
O69 C67 1.282 . S
C70 O71 1.306 . S
C70 O73 1.160 . S
O71 C70 1.306 . S
O71 Cd72 2.228 . S
Cd72 O71 2.228 . S
Cd72 O76 2.273 . S
Cd72 O80 2.277 . S
O73 C70 1.160 . S
O73 Cd74 2.203 . S
Cd74 O73 2.203 . S
Cd74 O76 2.411 . S
Cd74 O77 2.333 . S
Cd74 O78 2.352 . S
Cd74 O82 2.277 . S
Cd74 O83 2.356 . S
C75 O80 1.209 . S
C75 O82 1.226 . S
O76 Cd72 2.273 . S
O76 Cd74 2.411 . S
O76 C79 1.320 . S
O77 Cd74 2.333 . S
O77 C79 1.214 . S
O78 Cd74 2.352 . S
O78 C81 1.258 . S
C79 O76 1.320 . S
C79 O77 1.214 . S
O80 Cd72 2.277 . S
O80 C75 1.209 . S
C81 O78 1.258 . S
C81 O83 1.282 . S
O82 Cd74 2.277 . S
O82 C75 1.226 . S
O83 Cd74 2.356 . S
O83 C81 1.282 . S
C84 O85 1.306 . S
C84 O87 1.160 . S
O85 C84 1.306 . S
O85 Cd86 2.228 . S
Cd86 O85 2.228 . S
Cd86 O90 2.273 . S
Cd86 O94 2.277 . S
O87 C84 1.160 . S
O87 Cd88 2.203 . S
Cd88 O87 2.203 . S
Cd88 O90 2.411 . S
Cd88 O91 2.333 . S
Cd88 O92 2.352 . S
Cd88 O96 2.277 . S
Cd88 O97 2.356 . S
C89 O94 1.209 . S
C89 O96 1.226 . S
O90 Cd86 2.273 . S
O90 Cd88 2.411 . S
O90 C93 1.320 . S
O91 Cd88 2.333 . S
O91 C93 1.214 . S
O92 Cd88 2.352 . S
O92 C95 1.258 . S
C93 O90 1.320 . S
C93 O91 1.214 . S
O94 Cd86 2.277 . S
O94 C89 1.209 . S
C95 O92 1.258 . S
C95 O97 1.282 . S
O96 Cd88 2.277 . S
O96 C89 1.226 . S
O97 Cd88 2.356 . S
O97 C95 1.282 . S
C98 O99 1.306 . S
C98 O101 1.160 . S
O99 C98 1.306 . S
O99 Cd100 2.228 . S
Cd100 O99 2.228 . S
Cd100 O104 2.273 . S
Cd100 O108 2.277 . S
O101 C98 1.160 . S
O101 Cd102 2.203 . S
Cd102 O101 2.203 . S
Cd102 O104 2.411 . S
Cd102 O105 2.333 . S
Cd102 O106 2.352 . S
Cd102 O110 2.277 . S
Cd102 O111 2.356 . S
C103 O108 1.209 . S
C103 O110 1.226 . S
O104 Cd100 2.273 . S
O104 Cd102 2.411 . S
O104 C107 1.320 . S
O105 Cd102 2.333 . S
O105 C107 1.214 . S
O106 Cd102 2.352 . S
O106 C109 1.258 . S
C107 O104 1.320 . S
C107 O105 1.214 . S
O108 Cd100 2.277 . S
O108 C103 1.209 . S
C109 O106 1.258 . S
C109 O111 1.282 . S
O110 Cd102 2.277 . S
O110 C103 1.226 . S
O111 Cd102 2.356 . S
O111 C109 1.282 . S
C112 O113 1.306 . S
C112 O115 1.160 . S
O113 C112 1.306 . S
O113 Cd114 2.228 . S
Cd114 O113 2.228 . S
Cd114 O118 2.273 . S
Cd114 O122 2.277 . S
O115 C112 1.160 . S
O115 Cd116 2.203 . S
Cd116 O115 2.203 . S
Cd116 O118 2.411 . S
Cd116 O119 2.333 . S
Cd116 O120 2.352 . S
Cd116 O124 2.277 . S
Cd116 O125 2.356 . S
C117 O122 1.209 . S
C117 O124 1.226 . S
O118 Cd114 2.273 . S
O118 Cd116 2.411 . S
O118 C121 1.320 . S
O119 Cd116 2.333 . S
O119 C121 1.214 . S
O120 Cd116 2.352 . S
O120 C123 1.258 . S
C121 O118 1.320 . S
C121 O119 1.214 . S
O122 Cd114 2.277 . S
O122 C117 1.209 . S
C123 O120 1.258 . S
C123 O125 1.282 . S
O124 Cd116 2.277 . S
O124 C117 1.226 . S
O125 Cd116 2.356 . S
O125 C123 1.282 . S
C126 O127 1.306 . S
C126 O129 1.160 . S
O127 C126 1.306 . S
O127 Cd128 2.228 . S
Cd128 O127 2.228 . S
Cd128 O132 2.273 . S
Cd128 O136 2.277 . S
O129 C126 1.160 . S
O129 Cd130 2.203 . S
Cd130 O129 2.203 . S
Cd130 O132 2.411 . S
Cd130 O133 2.333 . S
Cd130 O134 2.352 . S
Cd130 O138 2.277 . S
Cd130 O139 2.356 . S
C131 O136 1.209 . S
C131 O138 1.226 . S
O132 Cd128 2.273 . S
O132 Cd130 2.411 . S
O132 C135 1.320 . S
O133 Cd130 2.333 . S
O133 C135 1.214 . S
O134 Cd130 2.352 . S
O134 C137 1.258 . S
C135 O132 1.320 . S
C135 O133 1.214 . S
O136 Cd128 2.277 . S
O136 C131 1.209 . S
C137 O134 1.258 . S
C137 O139 1.282 . S
O138 Cd130 2.277 . S
O138 C131 1.226 . S
O139 Cd130 2.356 . S
O139 C137 1.282 . S
C140 O141 1.306 . S
C140 O143 1.160 . S
O141 C140 1.306 . S
O141 Cd142 2.228 . S
Cd142 O141 2.228 . S
Cd142 O146 2.273 . S
Cd142 O150 2.277 . S
O143 C140 1.160 . S
O143 Cd144 2.203 . S
Cd144 O143 2.203 . S
Cd144 O146 2.411 . S
Cd144 O147 2.333 . S
Cd144 O148 2.352 . S
Cd144 O152 2.277 . S
Cd144 O153 2.356 . S
C145 O150 1.209 . S
C145 O152 1.226 . S
O146 Cd142 2.273 . S
O146 Cd144 2.411 . S
O146 C149 1.320 . S
O147 Cd144 2.333 . S
O147 C149 1.214 . S
O148 Cd144 2.352 . S
O148 C151 1.258 . S
C149 O146 1.320 . S
C149 O147 1.214 . S
O150 Cd142 2.277 . S
O150 C145 1.209 . S
C151 O148 1.258 . S
C151 O153 1.282 . S
O152 Cd144 2.277 . S
O152 C145 1.226 . S
O153 Cd144 2.356 . S
O153 C151 1.282 . S
C154 O155 1.306 . S
C154 O157 1.160 . S
O155 C154 1.306 . S
O155 Cd156 2.228 . S
Cd156 O155 2.228 . S
Cd156 O160 2.273 . S
Cd156 O164 2.277 . S
O157 C154 1.160 . S
O157 Cd158 2.203 . S
Cd158 O157 2.203 . S
Cd158 O160 2.411 . S
Cd158 O161 2.333 . S
Cd158 O162 2.352 . S
Cd158 O166 2.277 . S
Cd158 O167 2.356 . S
C159 O164 1.209 . S
C159 O166 1.226 . S
O160 Cd156 2.273 . S
O160 Cd158 2.411 . S
O160 C163 1.320 . S
O161 Cd158 2.333 . S
O161 C163 1.214 . S
O162 Cd158 2.352 . S
O162 C165 1.258 . S
C163 O160 1.320 . S
C163 O161 1.214 . S
O164 Cd156 2.277 . S
O164 C159 1.209 . S
C165 O162 1.258 . S
C165 O167 1.282 . S
O166 Cd158 2.277 . S
O166 C159 1.226 . S
O167 Cd158 2.356 . S
O167 C165 1.282 . S
C168 O169 1.306 . S
C168 O171 1.160 . S
O169 C168 1.306 . S
O169 Cd170 2.228 . S
Cd170 O169 2.228 . S
Cd170 O174 2.273 . S
Cd170 O178 2.277 . S
O171 C168 1.160 . S
O171 Cd172 2.203 . S
Cd172 O171 2.203 . S
Cd172 O174 2.411 . S
Cd172 O175 2.333 . S
Cd172 O176 2.352 . S
Cd172 O180 2.277 . S
Cd172 O181 2.356 . S
C173 O178 1.209 . S
C173 O180 1.226 . S
O174 Cd170 2.273 . S
O174 Cd172 2.411 . S
O174 C177 1.320 . S
O175 Cd172 2.333 . S
O175 C177 1.214 . S
O176 Cd172 2.352 . S
O176 C179 1.258 . S
C177 O174 1.320 . S
C177 O175 1.214 . S
O178 Cd170 2.277 . S
O178 C173 1.209 . S
C179 O176 1.258 . S
C179 O181 1.282 . S
O180 Cd172 2.277 . S
O180 C173 1.226 . S
O181 Cd172 2.356 . S
O181 C179 1.282 . S
C182 O183 1.306 . S
C182 O185 1.160 . S
O183 C182 1.306 . S
O183 Cd184 2.228 . S
Cd184 O183 2.228 . S
Cd184 O188 2.273 . S
Cd184 O192 2.277 . S
O185 C182 1.160 . S
O185 Cd186 2.203 . S
Cd186 O185 2.203 . S
Cd186 O188 2.411 . S
Cd186 O189 2.333 . S
Cd186 O190 2.352 . S
Cd186 O194 2.277 . S
Cd186 O195 2.356 . S
C187 O192 1.209 . S
C187 O194 1.226 . S
O188 Cd184 2.273 . S
O188 Cd186 2.411 . S
O188 C191 1.320 . S
O189 Cd186 2.333 . S
O189 C191 1.214 . S
O190 Cd186 2.352 . S
O190 C193 1.258 . S
C191 O188 1.320 . S
C191 O189 1.214 . S
O192 Cd184 2.277 . S
O192 C187 1.209 . S
C193 O190 1.258 . S
C193 O195 1.282 . S
O194 Cd186 2.277 . S
O194 C187 1.226 . S
O195 Cd186 2.356 . S
O195 C193 1.282 . S
C196 O197 1.306 . S
C196 O199 1.160 . S
O197 C196 1.306 . S
O197 Cd198 2.228 . S
Cd198 O197 2.228 . S
Cd198 O202 2.273 . S
Cd198 O206 2.277 . S
O199 C196 1.160 . S
O199 Cd200 2.203 . S
Cd200 O199 2.203 . S
Cd200 O202 2.411 . S
Cd200 O203 2.333 . S
Cd200 O204 2.352 . S
Cd200 O208 2.277 . S
Cd200 O209 2.356 . S
C201 O206 1.209 . S
C201 O208 1.226 . S
O202 Cd198 2.273 . S
O202 Cd200 2.411 . S
O202 C205 1.320 . S
O203 Cd200 2.333 . S
O203 C205 1.214 . S
O204 Cd200 2.352 . S
O204 C207 1.258 . S
C205 O202 1.320 . S
C205 O203 1.214 . S
O206 Cd198 2.277 . S
O206 C201 1.209 . S
C207 O204 1.258 . S
C207 O209 1.282 . S
O208 Cd200 2.277 . S
O208 C201 1.226 . S
O209 Cd200 2.356 . S
O209 C207 1.282 . S
C210 O211 1.306 . S
C210 O213 1.160 . S
O211 C210 1.306 . S
O211 Cd212 2.228 . S
Cd212 O211 2.228 . S
Cd212 O216 2.273 . S
Cd212 O220 2.277 . S
O213 C210 1.160 . S
O213 Cd214 2.203 . S
Cd214 O213 2.203 . S
Cd214 O216 2.411 . S
Cd214 O217 2.333 . S
Cd214 O218 2.352 . S
Cd214 O222 2.277 . S
Cd214 O223 2.356 . S
C215 O220 1.209 . S
C215 O222 1.226 . S
O216 Cd212 2.273 . S
O216 Cd214 2.411 . S
O216 C219 1.320 . S
O217 Cd214 2.333 . S
O217 C219 1.214 . S
O218 Cd214 2.352 . S
O218 C221 1.258 . S
C219 O216 1.320 . S
C219 O217 1.214 . S
O220 Cd212 2.277 . S
O220 C215 1.209 . S
C221 O218 1.258 . S
C221 O223 1.282 . S
O222 Cd214 2.277 . S
O222 C215 1.226 . S
O223 Cd214 2.356 . S
O223 C221 1.282 . S
C224 O225 1.306 . S
C224 O227 1.160 . S
O225 C224 1.306 . S
O225 Cd226 2.228 . S
Cd226 O225 2.228 . S
Cd226 O230 2.273 . S
Cd226 O234 2.277 . S
O227 C224 1.160 . S
O227 Cd228 2.203 . S
Cd228 O227 2.203 . S
Cd228 O230 2.411 . S
Cd228 O231 2.333 . S
Cd228 O232 2.352 . S
Cd228 O236 2.277 . S
Cd228 O237 2.356 . S
C229 O234 1.209 . S
C229 O236 1.226 . S
O230 Cd226 2.273 . S
O230 Cd228 2.411 . S
O230 C233 1.320 . S
O231 Cd228 2.333 . S
O231 C233 1.214 . S
O232 Cd228 2.352 . S
O232 C235 1.258 . S
C233 O230 1.320 . S
C233 O231 1.214 . S
O234 Cd226 2.277 . S
O234 C229 1.209 . S
C235 O232 1.258 . S
C235 O237 1.282 . S
O236 Cd228 2.277 . S
O236 C229 1.226 . S
O237 Cd228 2.356 . S
O237 C235 1.282 . S
C238 O239 1.306 . S
C238 O241 1.160 . S
O239 C238 1.306 . S
O239 Cd240 2.228 . S
Cd240 O239 2.228 . S
Cd240 O244 2.273 . S
Cd240 O248 2.277 . S
O241 C238 1.160 . S
O241 Cd242 2.203 . S
Cd242 O241 2.203 . S
Cd242 O244 2.411 . S
Cd242 O245 2.333 . S
Cd242 O246 2.352 . S
Cd242 O250 2.277 . S
Cd242 O251 2.356 . S
C243 O248 1.209 . S
C243 O250 1.226 . S
O244 Cd240 2.273 . S
O244 Cd242 2.411 . S
O244 C247 1.320 . S
O245 Cd242 2.333 . S
O245 C247 1.214 . S
O246 Cd242 2.352 . S
O246 C249 1.258 . S
C247 O244 1.320 . S
C247 O245 1.214 . S
O248 Cd240 2.277 . S
O248 C243 1.209 . S
C249 O246 1.258 . S
C249 O251 1.282 . S
O250 Cd242 2.277 . S
O250 C243 1.226 . S
O251 Cd242 2.356 . S
O251 C249 1.282 . S
C252 O253 1.306 . S
C252 O255 1.160 . S
O253 C252 1.306 . S
O253 Cd254 2.228 . S
Cd254 O253 2.228 . S
Cd254 O258 2.273 . S
Cd254 O262 2.277 . S
O255 C252 1.160 . S
O255 Cd256 2.203 . S
Cd256 O255 2.203 . S
Cd256 O258 2.411 . S
Cd256 O259 2.333 . S
Cd256 O260 2.352 . S
Cd256 O264 2.277 . S
Cd256 O265 2.356 . S
C257 O262 1.209 . S
C257 O264 1.226 . S
O258 Cd254 2.273 . S
O258 Cd256 2.411 . S
O258 C261 1.320 . S
O259 Cd256 2.333 . S
O259 C261 1.214 . S
O260 Cd256 2.352 . S
O260 C263 1.258 . S
C261 O258 1.320 . S
C261 O259 1.214 . S
O262 Cd254 2.277 . S
O262 C257 1.209 . S
C263 O260 1.258 . S
C263 O265 1.282 . S
O264 Cd256 2.277 . S
O264 C257 1.226 . S
O265 Cd256 2.356 . S
O265 C263 1.282 . S
C266 O267 1.306 . S
C266 O269 1.160 . S
O267 C266 1.306 . S
O267 Cd268 2.228 . S
Cd268 O267 2.228 . S
Cd268 O272 2.273 . S
Cd268 O276 2.277 . S
O269 C266 1.160 . S
O269 Cd270 2.203 . S
Cd270 O269 2.203 . S
Cd270 O272 2.411 . S
Cd270 O273 2.333 . S
Cd270 O274 2.352 . S
Cd270 O278 2.277 . S
Cd270 O279 2.356 . S
C271 O276 1.209 . S
C271 O278 1.226 . S
O272 Cd268 2.273 . S
O272 Cd270 2.411 . S
O272 C275 1.320 . S
O273 Cd270 2.333 . S
O273 C275 1.214 . S
O274 Cd270 2.352 . S
O274 C277 1.258 . S
C275 O272 1.320 . S
C275 O273 1.214 . S
O276 Cd268 2.277 . S
O276 C271 1.209 . S
C277 O274 1.258 . S
C277 O279 1.282 . S
O278 Cd270 2.277 . S
O278 C271 1.226 . S
O279 Cd270 2.356 . S
O279 C277 1.282 . S
C280 O281 1.306 . S
C280 O283 1.160 . S
O281 C280 1.306 . S
O281 Cd282 2.228 . S
Cd282 O281 2.228 . S
Cd282 O286 2.273 . S
Cd282 O290 2.277 . S
O283 C280 1.160 . S
O283 Cd284 2.203 . S
Cd284 O283 2.203 . S
Cd284 O286 2.411 . S
Cd284 O287 2.333 . S
Cd284 O288 2.352 . S
Cd284 O292 2.277 . S
Cd284 O293 2.356 . S
C285 O290 1.209 . S
C285 O292 1.226 . S
O286 Cd282 2.273 . S
O286 Cd284 2.411 . S
O286 C289 1.320 . S
O287 Cd284 2.333 . S
O287 C289 1.214 . S
O288 Cd284 2.352 . S
O288 C291 1.258 . S
C289 O286 1.320 . S
C289 O287 1.214 . S
O290 Cd282 2.277 . S
O290 C285 1.209 . S
C291 O288 1.258 . S
C291 O293 1.282 . S
O292 Cd284 2.277 . S
O292 C285 1.226 . S
O293 Cd284 2.356 . S
O293 C291 1.282 . S
C294 O295 1.306 . S
C294 O297 1.160 . S
O295 C294 1.306 . S
O295 Cd296 2.228 . S
Cd296 O295 2.228 . S
Cd296 O300 2.273 . S
Cd296 O304 2.277 . S
O297 C294 1.160 . S
O297 Cd298 2.203 . S
Cd298 O297 2.203 . S
Cd298 O300 2.411 . S
Cd298 O301 2.333 . S
Cd298 O302 2.352 . S
Cd298 O306 2.277 . S
Cd298 O307 2.356 . S
C299 O304 1.209 . S
C299 O306 1.226 . S
O300 Cd296 2.273 . S
O300 Cd298 2.411 . S
O300 C303 1.320 . S
O301 Cd298 2.333 . S
O301 C303 1.214 . S
O302 Cd298 2.352 . S
O302 C305 1.258 . S
C303 O300 1.320 . S
C303 O301 1.214 . S
O304 Cd296 2.277 . S
O304 C299 1.209 . S
C305 O302 1.258 . S
C305 O307 1.282 . S
O306 Cd298 2.277 . S
O306 C299 1.226 . S
O307 Cd298 2.356 . S
O307 C305 1.282 . S
C308 O309 1.306 . S
C308 O311 1.160 . S
O309 C308 1.306 . S
O309 Cd310 2.228 . S
Cd310 O309 2.228 . S
Cd310 O314 2.273 . S
Cd310 O318 2.277 . S
O311 C308 1.160 . S
O311 Cd312 2.203 . S
Cd312 O311 2.203 . S
Cd312 O314 2.411 . S
Cd312 O315 2.333 . S
Cd312 O316 2.352 . S
Cd312 O320 2.277 . S
Cd312 O321 2.356 . S
C313 O318 1.209 . S
C313 O320 1.226 . S
O314 Cd310 2.273 . S
O314 Cd312 2.411 . S
O314 C317 1.320 . S
O315 Cd312 2.333 . S
O315 C317 1.214 . S
O316 Cd312 2.352 . S
O316 C319 1.258 . S
C317 O314 1.320 . S
C317 O315 1.214 . S
O318 Cd310 2.277 . S
O318 C313 1.209 . S
C319 O316 1.258 . S
C319 O321 1.282 . S
O320 Cd312 2.277 . S
O320 C313 1.226 . S
O321 Cd312 2.356 . S
O321 C319 1.282 . S
C322 O323 1.306 . S
C322 O325 1.160 . S
O323 C322 1.306 . S
O323 Cd324 2.228 . S
Cd324 O323 2.228 . S
Cd324 O328 2.273 . S
Cd324 O332 2.277 . S
O325 C322 1.160 . S
O325 Cd326 2.203 . S
Cd326 O325 2.203 . S
Cd326 O328 2.411 . S
Cd326 O329 2.333 . S
Cd326 O330 2.352 . S
Cd326 O334 2.277 . S
Cd326 O335 2.356 . S
C327 O332 1.209 . S
C327 O334 1.226 . S
O328 Cd324 2.273 . S
O328 Cd326 2.411 . S
O328 C331 1.320 . S
O329 Cd326 2.333 . S
O329 C331 1.214 . S
O330 Cd326 2.352 . S
O330 C333 1.258 . S
C331 O328 1.320 . S
C331 O329 1.214 . S
O332 Cd324 2.277 . S
O332 C327 1.209 . S
C333 O330 1.258 . S
C333 O335 1.282 . S
O334 Cd326 2.277 . S
O334 C327 1.226 . S
O335 Cd326 2.356 . S
O335 C333 1.282 . S
C336 O337 1.306 . S
C336 O339 1.160 . S
O337 C336 1.306 . S
O337 Cd338 2.228 . S
Cd338 O337 2.228 . S
Cd338 O342 2.273 . S
Cd338 O346 2.277 . S
O339 C336 1.160 . S
O339 Cd340 2.203 . S
Cd340 O339 2.203 . S
Cd340 O342 2.411 . S
Cd340 O343 2.333 . S
Cd340 O344 2.352 . S
Cd340 O348 2.277 . S
Cd340 O349 2.356 . S
C341 O346 1.209 . S
C341 O348 1.226 . S
O342 Cd338 2.273 . S
O342 Cd340 2.411 . S
O342 C345 1.320 . S
O343 Cd340 2.333 . S
O343 C345 1.214 . S
O344 Cd340 2.352 . S
O344 C347 1.258 . S
C345 O342 1.320 . S
C345 O343 1.214 . S
O346 Cd338 2.277 . S
O346 C341 1.209 . S
C347 O344 1.258 . S
C347 O349 1.282 . S
O348 Cd340 2.277 . S
O348 C341 1.226 . S
O349 Cd340 2.356 . S
O349 C347 1.282 . S
C350 O351 1.306 . S
C350 O353 1.160 . S
O351 C350 1.306 . S
O351 Cd352 2.228 . S
Cd352 O351 2.228 . S
Cd352 O356 2.273 . S
Cd352 O360 2.277 . S
O353 C350 1.160 . S
O353 Cd354 2.203 . S
Cd354 O353 2.203 . S
Cd354 O356 2.411 . S
Cd354 O357 2.333 . S
Cd354 O358 2.352 . S
Cd354 O362 2.277 . S
Cd354 O363 2.356 . S
C355 O360 1.209 . S
C355 O362 1.226 . S
O356 Cd352 2.273 . S
O356 Cd354 2.411 . S
O356 C359 1.320 . S
O357 Cd354 2.333 . S
O357 C359 1.214 . S
O358 Cd354 2.352 . S
O358 C361 1.258 . S
C359 O356 1.320 . S
C359 O357 1.214 . S
O360 Cd352 2.277 . S
O360 C355 1.209 . S
C361 O358 1.258 . S
C361 O363 1.282 . S
O362 Cd354 2.277 . S
O362 C355 1.226 . S
O363 Cd354 2.356 . S
O363 C361 1.282 . S
C364 O365 1.306 . S
C364 O367 1.160 . S
O365 C364 1.306 . S
O365 Cd366 2.228 . S
Cd366 O365 2.228 . S
Cd366 O370 2.273 . S
Cd366 O374 2.277 . S
O367 C364 1.160 . S
O367 Cd368 2.203 . S
Cd368 O367 2.203 . S
Cd368 O370 2.411 . S
Cd368 O371 2.333 . S
Cd368 O372 2.352 . S
Cd368 O376 2.277 . S
Cd368 O377 2.356 . S
C369 O374 1.209 . S
C369 O376 1.226 . S
O370 Cd366 2.273 . S
O370 Cd368 2.411 . S
O370 C373 1.320 . S
O371 Cd368 2.333 . S
O371 C373 1.214 . S
O372 Cd368 2.352 . S
O372 C375 1.258 . S
C373 O370 1.320 . S
C373 O371 1.214 . S
O374 Cd366 2.277 . S
O374 C369 1.209 . S
C375 O372 1.258 . S
C375 O377 1.282 . S
O376 Cd368 2.277 . S
O376 C369 1.226 . S
O377 Cd368 2.356 . S
O377 C375 1.282 . S
C378 O379 1.306 . S
C378 O381 1.160 . S
O379 C378 1.306 . S
O379 Cd380 2.228 . S
Cd380 O379 2.228 . S
Cd380 O384 2.273 . S
Cd380 O388 2.277 . S
O381 C378 1.160 . S
O381 Cd382 2.203 . S
Cd382 O381 2.203 . S
Cd382 O384 2.411 . S
Cd382 O385 2.333 . S
Cd382 O386 2.352 . S
Cd382 O390 2.277 . S
Cd382 O391 2.356 . S
C383 O388 1.209 . S
C383 O390 1.226 . S
O384 Cd380 2.273 . S
O384 Cd382 2.411 . S
O384 C387 1.320 . S
O385 Cd382 2.333 . S
O385 C387 1.214 . S
O386 Cd382 2.352 . S
O386 C389 1.258 . S
C387 O384 1.320 . S
C387 O385 1.214 . S
O388 Cd380 2.277 . S
O388 C383 1.209 . S
C389 O386 1.258 . S
C389 O391 1.282 . S
O390 Cd382 2.277 . S
O390 C383 1.226 . S
O391 Cd382 2.356 . S
O391 C389 1.282 . S
C392 O393 1.306 . S
C392 O395 1.160 . S
O393 C392 1.306 . S
O393 Cd394 2.228 . S
Cd394 O393 2.228 . S
Cd394 O398 2.273 . S
Cd394 O402 2.277 . S
O395 C392 1.160 . S
O395 Cd396 2.203 . S
Cd396 O395 2.203 . S
Cd396 O398 2.411 . S
Cd396 O399 2.333 . S
Cd396 O400 2.352 . S
Cd396 O404 2.277 . S
Cd396 O405 2.356 . S
C397 O402 1.209 . S
C397 O404 1.226 . S
O398 Cd394 2.273 . S
O398 Cd396 2.411 . S
O398 C401 1.320 . S
O399 Cd396 2.333 . S
O399 C401 1.214 . S
O400 Cd396 2.352 . S
O400 C403 1.258 . S
C401 O398 1.320 . S
C401 O399 1.214 . S
O402 Cd394 2.277 . S
O402 C397 1.209 . S
C403 O400 1.258 . S
C403 O405 1.282 . S
O404 Cd396 2.277 . S
O404 C397 1.226 . S
O405 Cd396 2.356 . S
O405 C403 1.282 . S
C406 O407 1.306 . S
C406 O409 1.160 . S
O407 C406 1.306 . S
O407 Cd408 2.228 . S
Cd408 O407 2.228 . S
Cd408 O412 2.273 . S
Cd408 O416 2.277 . S
O409 C406 1.160 . S
O409 Cd410 2.203 . S
Cd410 O409 2.203 . S
Cd410 O412 2.411 . S
Cd410 O413 2.333 . S
Cd410 O414 2.352 . S
Cd410 O418 2.277 . S
Cd410 O419 2.356 . S
C411 O416 1.209 . S
C411 O418 1.226 . S
O412 Cd408 2.273 . S
O412 Cd410 2.411 . S
O412 C415 1.320 . S
O413 Cd410 2.333 . S
O413 C415 1.214 . S
O414 Cd410 2.352 . S
O414 C417 1.258 . S
C415 O412 1.320 . S
C415 O413 1.214 . S
O416 Cd408 2.277 . S
O416 C411 1.209 . S
C417 O414 1.258 . S
C417 O419 1.282 . S
O418 Cd410 2.277 . S
O418 C411 1.226 . S
O419 Cd410 2.356 . S
O419 C417 1.282 . S
C420 O421 1.306 . S
C420 O423 1.160 . S
O421 C420 1.306 . S
O421 Cd422 2.228 . S
Cd422 O421 2.228 . S
Cd422 O426 2.273 . S
Cd422 O430 2.277 . S
O423 C420 1.160 . S
O423 Cd424 2.203 . S
Cd424 O423 2.203 . S
Cd424 O426 2.411 . S
Cd424 O427 2.333 . S
Cd424 O428 2.352 . S
Cd424 O432 2.277 . S
Cd424 O433 2.356 . S
C425 O430 1.209 . S
C425 O432 1.226 . S
O426 Cd422 2.273 . S
O426 Cd424 2.411 . S
O426 C429 1.320 . S
O427 Cd424 2.333 . S
O427 C429 1.214 . S
O428 Cd424 2.352 . S
O428 C431 1.258 . S
C429 O426 1.320 . S
C429 O427 1.214 . S
O430 Cd422 2.277 . S
O430 C425 1.209 . S
C431 O428 1.258 . S
C431 O433 1.282 . S
O432 Cd424 2.277 . S
O432 C425 1.226 . S
O433 Cd424 2.356 . S
O433 C431 1.282 . S
C434 O435 1.306 . S
C434 O437 1.160 . S
O435 C434 1.306 . S
O435 Cd436 2.228 . S
Cd436 O435 2.228 . S
Cd436 O440 2.273 . S
Cd436 O444 2.277 . S
O437 C434 1.160 . S
O437 Cd438 2.203 . S
Cd438 O437 2.203 . S
Cd438 O440 2.411 . S
Cd438 O441 2.333 . S
Cd438 O442 2.352 . S
Cd438 O446 2.277 . S
Cd438 O447 2.356 . S
C439 O444 1.209 . S
C439 O446 1.226 . S
O440 Cd436 2.273 . S
O440 Cd438 2.411 . S
O440 C443 1.320 . S
O441 Cd438 2.333 . S
O441 C443 1.214 . S
O442 Cd438 2.352 . S
O442 C445 1.258 . S
C443 O440 1.320 . S
C443 O441 1.214 . S
O444 Cd436 2.277 . S
O444 C439 1.209 . S
C445 O442 1.258 . S
C445 O447 1.282 . S
O446 Cd438 2.277 . S
O446 C439 1.226 . S
O447 Cd438 2.356 . S
O447 C445 1.282 . S
H448 C454 0.952 . S
H449 C457 0.930 . S
H450 C458 0.930 1_556 S
H451 C459 0.930 1_455 S
H452 C462 0.930 . S
H453 C463 0.930 . S
C454 H448 0.952 . S
C454 C455 1.321 1_655 S
C454 C456 1.427 . S
C455 C454 1.321 1_455 S
C455 C457 1.419 . S
C456 C454 1.427 . S
C456 C461 1.425 1_644 S
C456 C463 1.409 . S
C457 H449 0.930 . S
C457 C455 1.419 . S
C457 C458 1.362 1_545 S
C458 H450 0.930 1_554 S
C458 C457 1.362 1_565 S
C458 C461 1.409 1_554 S
C459 H451 0.930 1_655 S
C459 C460 1.355 . S
C459 C461 1.415 1_655 S
C460 C459 1.355 . S
C460 C462 1.419 . S
C461 C456 1.425 1_466 S
C461 C458 1.409 1_556 S
C461 C459 1.415 1_455 S
C462 H452 0.930 . S
C462 C460 1.419 . S
C462 C463 1.362 1_566 S
C463 H453 0.930 . S
C463 C456 1.409 . S
C463 C462 1.362 1_544 S
H464 C470 0.930 . S
H465 C473 0.930 . S
H466 C474 0.930 . S
H467 C475 0.930 . S
H468 C478 0.930 . S
H469 C479 0.930 . S
C470 H464 0.930 . S
C470 C471 1.355 . S
C470 C472 1.415 . S
C471 C470 1.355 . S
C471 C473 1.419 . S
C472 C470 1.415 . S
C472 C477 1.425 . S
C472 C479 1.409 . S
C473 H465 0.930 . S
C473 C471 1.419 . S
C473 C474 1.362 . S
C474 H466 0.930 . S
C474 C473 1.362 . S
C474 C477 1.409 . S
C475 H467 0.930 . S
C475 C476 1.355 . S
C475 C477 1.415 . S
C476 C475 1.355 . S
C476 C478 1.419 . S
C477 C472 1.425 . S
C477 C474 1.409 . S
C477 C475 1.415 . S
C478 H468 0.930 . S
C478 C476 1.419 . S
C478 C479 1.362 . S
C479 H469 0.930 . S
C479 C472 1.409 . S
C479 C478 1.362 . S
H480 C486 0.930 . S
H481 C489 0.930 . S
H482 C490 0.930 . S
H483 C491 0.930 . S
H484 C494 0.930 . S
H485 C495 0.930 . S
C486 H480 0.930 . S
C486 C487 1.355 . S
C486 C488 1.415 1_565 S
C487 C486 1.355 . S
C487 C489 1.419 . S
C488 C486 1.415 1_545 S
C488 C493 1.430 . S
C488 C495 1.409 . S
C489 H481 0.930 . S
C489 C487 1.419 . S
C489 C490 1.362 . S
C490 H482 0.930 . S
C490 C489 1.362 . S
C490 C493 1.390 1_565 S
C491 H483 0.930 . S
C491 C492 1.355 . S
C491 C493 1.429 . S
C492 C491 1.355 . S
C492 C494 1.419 . S
C493 C488 1.430 . S
C493 C490 1.390 1_545 S
C493 C491 1.429 . S
C494 H484 0.930 . S
C494 C492 1.419 . S
C494 C495 1.362 . S
C495 H485 0.930 . S
C495 C488 1.409 . S
C495 C494 1.362 . S
H496 C502 0.930 . S
H497 C505 0.930 . S
H498 C506 0.930 . S
H499 C507 0.930 . S
H500 C510 0.930 . S
H501 C511 0.930 . S
C502 H496 0.930 . S
C502 C503 1.355 . S
C502 C504 1.415 . S
C503 C502 1.355 . S
C503 C505 1.419 . S
C504 C502 1.415 . S
C504 C509 1.425 . S
C504 C511 1.409 . S
C505 H497 0.930 . S
C505 C503 1.419 . S
C505 C506 1.362 . S
C506 H498 0.930 . S
C506 C505 1.362 . S
C506 C509 1.409 . S
C507 H499 0.930 . S
C507 C508 1.355 . S
C507 C509 1.415 . S
C508 C507 1.355 . S
C508 C510 1.419 . S
C509 C504 1.425 . S
C509 C506 1.409 . S
C509 C507 1.415 . S
C510 H500 0.930 . S
C510 C508 1.419 . S
C510 C511 1.362 . S
C511 H501 0.930 . S
C511 C504 1.409 . S
C511 C510 1.362 . S
H512 C518 0.930 1_655 S
H513 C521 0.930 1_545 S
H514 C522 0.930 . S
H515 C523 0.930 . S
H516 C526 0.930 . S
H517 C527 0.930 . S
C518 H512 0.930 1_455 S
C518 C519 1.355 . S
C518 C520 1.415 1_455 S
C519 C518 1.355 . S
C519 C521 1.419 . S
C520 C518 1.415 1_655 S
C520 C525 1.425 1_665 S
C520 C527 1.409 . S
C521 H513 0.930 1_565 S
C521 C519 1.419 . S
C521 C522 1.362 1_565 S
C522 H514 0.930 . S
C522 C521 1.362 1_545 S
C522 C525 1.409 . S
C523 H515 0.930 . S
C523 C524 1.355 . S
C523 C525 1.415 1_655 S
C524 C523 1.355 . S
C524 C526 1.419 . S
C525 C520 1.425 1_445 S
C525 C522 1.409 . S
C525 C523 1.415 1_455 S
C526 H516 0.930 . S
C526 C524 1.419 . S
C526 C527 1.362 1_545 S
C527 H517 0.930 . S
C527 C520 1.409 . S
C527 C526 1.362 1_565 S
H528 C534 0.930 . S
H529 C537 0.930 . S
H530 C538 0.930 . S
H531 C539 0.930 . S
H532 C542 0.930 . S
H533 C543 0.930 . S
C534 H528 0.930 . S
C534 C535 1.355 . S
C534 C536 1.415 . S
C535 C534 1.355 . S
C535 C537 1.419 . S
C536 C534 1.415 . S
C536 C541 1.425 . S
C536 C543 1.409 . S
C537 H529 0.930 . S
C537 C535 1.419 . S
C537 C538 1.362 . S
C538 H530 0.930 . S
C538 C537 1.362 . S
C538 C541 1.409 . S
C539 H531 0.930 . S
C539 C540 1.355 . S
C539 C541 1.415 . S
C540 C539 1.355 . S
C540 C542 1.419 . S
C541 C536 1.425 . S
C541 C538 1.409 . S
C541 C539 1.415 . S
C542 H532 0.930 . S
C542 C540 1.419 . S
C542 C543 1.362 . S
C543 H533 0.930 . S
C543 C536 1.409 . S
C543 C542 1.362 . S
H544 C550 0.930 . S
H545 C553 0.930 . S
H546 C554 0.930 . S
H547 C555 0.930 . S
H548 C558 0.930 . S
H549 C559 0.930 . S
C550 H544 0.930 . S
C550 C551 1.355 . S
C550 C552 1.415 . S
C551 C550 1.355 . S
C551 C553 1.419 . S
C552 C550 1.415 . S
C552 C557 1.424 1_546 S
C552 C559 1.409 1_556 S
C553 H545 0.930 . S
C553 C551 1.419 . S
C553 C554 1.362 1_545 S
C554 H546 0.930 . S
C554 C553 1.362 1_565 S
C554 C557 1.408 1_556 S
C555 H547 0.930 . S
C555 C556 1.355 . S
C555 C557 1.417 . S
C556 C555 1.355 . S
C556 C558 1.419 . S
C557 C552 1.424 1_564 S
C557 C554 1.408 1_554 S
C557 C555 1.417 . S
C558 H548 0.930 . S
C558 C556 1.419 . S
C558 C559 1.362 1_565 S
C559 H549 0.930 . S
C559 C552 1.409 1_554 S
C559 C558 1.362 1_545 S
H560 C566 0.930 . S
H561 C569 0.930 . S
H562 C570 0.930 . S
H563 C571 0.930 . S
H564 C574 0.930 . S
H565 C575 0.930 . S
C566 H560 0.930 . S
C566 C567 1.355 . S
C566 C568 1.415 . S
C567 C566 1.355 . S
C567 C569 1.419 . S
C568 C566 1.415 . S
C568 C573 1.425 . S
C568 C575 1.409 . S
C569 H561 0.930 . S
C569 C567 1.419 . S
C569 C570 1.362 . S
C570 H562 0.930 . S
C570 C569 1.362 . S
C570 C573 1.409 . S
C571 H563 0.930 . S
C571 C572 1.355 . S
C571 C573 1.415 . S
C572 C571 1.355 . S
C572 C574 1.419 . S
C573 C568 1.425 . S
C573 C570 1.409 . S
C573 C571 1.415 . S
C574 H564 0.930 . S
C574 C572 1.419 . S
C574 C575 1.362 . S
C575 H565 0.930 . S
C575 C568 1.409 . S
C575 C574 1.362 . S
H576 C582 0.930 . S
H577 C585 0.930 . S
H578 C586 0.930 . S
H579 C587 0.930 . S
H580 C590 0.930 . S
H581 C591 0.930 . S
C582 H576 0.930 . S
C582 C583 1.355 . S
C582 C584 1.415 . S
C583 C582 1.355 . S
C583 C585 1.419 . S
C584 C582 1.415 . S
C584 C589 1.425 1_554 S
C584 C591 1.409 . S
C585 H577 0.930 . S
C585 C583 1.419 . S
C585 C586 1.362 1_554 S
C586 H578 0.930 . S
C586 C585 1.362 1_556 S
C586 C589 1.409 . S
C587 H579 0.930 . S
C587 C588 1.355 . S
C587 C589 1.415 . S
C588 C587 1.355 . S
C588 C590 1.419 . S
C589 C584 1.425 1_556 S
C589 C586 1.409 . S
C589 C587 1.415 . S
C590 H580 0.930 . S
C590 C588 1.419 . S
C590 C591 1.362 1_556 S
C591 H581 0.930 . S
C591 C584 1.409 . S
C591 C590 1.362 1_554 S
H592 C598 0.930 . S
H593 C601 0.930 . S
H594 C602 0.930 . S
H595 C603 0.930 . S
H596 C606 0.930 . S
H597 C607 0.930 . S
C598 H592 0.930 . S
C598 C599 1.355 . S
C598 C600 1.415 . S
C599 C598 1.355 . S
C599 C601 1.419 . S
C600 C598 1.415 . S
C600 C605 1.425 . S
C600 C607 1.409 . S
C601 H593 0.930 . S
C601 C599 1.419 . S
C601 C602 1.362 . S
C602 H594 0.930 . S
C602 C601 1.362 . S
C602 C605 1.409 . S
C603 H595 0.930 . S
C603 C604 1.355 . S
C603 C605 1.415 . S
C604 C603 1.355 . S
C604 C606 1.419 . S
C605 C600 1.425 . S
C605 C602 1.409 . S
C605 C603 1.415 . S
C606 H596 0.930 . S
C606 C604 1.419 . S
C606 C607 1.362 . S
C607 H597 0.930 . S
C607 C600 1.409 . S
C607 C606 1.362 . S
H608 C614 0.930 . S
H609 C617 0.930 . S
H610 C618 0.930 . S
H611 C619 0.930 . S
H612 C622 0.930 . S
H613 C623 0.930 . S
C614 H608 0.930 . S
C614 C615 1.355 . S
C614 C616 1.415 . S
C615 C614 1.355 . S
C615 C617 1.419 . S
C616 C614 1.415 . S
C616 C621 1.425 1_455 S
C616 C623 1.409 . S
C617 H609 0.930 . S
C617 C615 1.419 . S
C617 C618 1.362 1_455 S
C618 H610 0.930 . S
C618 C617 1.362 1_655 S
C618 C621 1.409 . S
C619 H611 0.930 . S
C619 C620 1.355 . S
C619 C621 1.415 . S
C620 C619 1.355 . S
C620 C622 1.419 . S
C621 C616 1.425 1_655 S
C621 C618 1.409 . S
C621 C619 1.415 . S
C622 H612 0.930 . S
C622 C620 1.419 . S
C622 C623 1.362 1_655 S
C623 H613 0.930 . S
C623 C616 1.409 . S
C623 C622 1.362 1_455 S
H624 C630 0.930 . S
H625 C633 0.930 . S
H626 C634 0.930 . S
H627 C635 0.930 . S
H628 C638 0.930 . S
H629 C639 0.930 . S
C630 H624 0.930 . S
C630 C631 1.355 . S
C630 C632 1.415 . S
C631 C630 1.355 . S
C631 C633 1.419 . S
C632 C630 1.415 . S
C632 C637 1.425 . S
C632 C639 1.409 . S
C633 H625 0.930 . S
C633 C631 1.419 . S
C633 C634 1.362 . S
C634 H626 0.930 . S
C634 C633 1.362 . S
C634 C637 1.409 . S
C635 H627 0.930 . S
C635 C636 1.355 . S
C635 C637 1.415 . S
C636 C635 1.355 . S
C636 C638 1.419 . S
C637 C632 1.425 . S
C637 C634 1.409 . S
C637 C635 1.415 . S
C638 H628 0.930 . S
C638 C636 1.419 . S
C638 C639 1.362 . S
C639 H629 0.930 . S
C639 C632 1.409 . S
C639 C638 1.362 . S
H640 C646 0.930 . S
H641 C649 0.930 . S
H642 C650 0.930 . S
H643 C651 0.930 . S
H644 C654 0.930 . S
H645 C655 0.930 . S
C646 H640 0.930 . S
C646 C647 1.355 . S
C646 C648 1.415 . S
C647 C646 1.355 . S
C647 C649 1.419 . S
C648 C646 1.415 . S
C648 C653 1.425 . S
C648 C655 1.409 . S
C649 H641 0.930 . S
C649 C647 1.419 . S
C649 C650 1.362 . S
C650 H642 0.930 . S
C650 C649 1.362 . S
C650 C653 1.409 . S
C651 H643 0.930 . S
C651 C652 1.355 . S
C651 C653 1.415 . S
C652 C651 1.355 . S
C652 C654 1.419 . S
C653 C648 1.425 . S
C653 C650 1.409 . S
C653 C651 1.415 . S
C654 H644 0.930 . S
C654 C652 1.419 . S
C654 C655 1.362 . S
C655 H645 0.930 . S
C655 C648 1.409 . S
C655 C654 1.362 . S
H656 C662 0.930 . S
H657 C665 0.930 . S
H658 C666 0.930 . S
H659 C667 0.930 . S
H660 C670 0.930 . S
H661 C671 0.930 . S
C662 H656 0.930 . S
C662 C663 1.355 . S
C662 C664 1.415 . S
C663 C662 1.355 . S
C663 C665 1.419 . S
C664 C662 1.415 . S
C664 C669 1.425 . S
C664 C671 1.409 . S
C665 H657 0.930 . S
C665 C663 1.419 . S
C665 C666 1.362 . S
C666 H658 0.930 . S
C666 C665 1.362 . S
C666 C669 1.409 . S
C667 H659 0.930 . S
C667 C668 1.355 . S
C667 C669 1.415 . S
C668 C667 1.355 . S
C668 C670 1.419 . S
C669 C664 1.425 . S
C669 C666 1.409 . S
C669 C667 1.415 . S
C670 H660 0.930 . S
C670 C668 1.419 . S
C670 C671 1.362 . S
C671 H661 0.930 . S
C671 C664 1.409 . S
C671 C670 1.362 . S
H672 C678 0.930 . S
H673 C681 0.930 . S
H674 C682 0.930 . S
H675 C683 0.930 . S
H676 C686 0.930 . S
H677 C687 0.930 . S
C678 H672 0.930 . S
C678 C679 1.355 . S
C678 C680 1.415 . S
C679 C678 1.355 . S
C679 C681 1.419 . S
C680 C678 1.415 . S
C680 C685 1.425 . S
C680 C687 1.409 . S
C681 H673 0.930 . S
C681 C679 1.419 . S
C681 C682 1.362 . S
C682 H674 0.930 . S
C682 C681 1.362 . S
C682 C685 1.409 . S
C683 H675 0.930 . S
C683 C684 1.355 . S
C683 C685 1.415 . S
C684 C683 1.355 . S
C684 C686 1.419 . S
C685 C680 1.425 . S
C685 C682 1.409 . S
C685 C683 1.415 . S
C686 H676 0.930 . S
C686 C684 1.419 . S
C686 C687 1.362 . S
C687 H677 0.930 . S
C687 C680 1.409 . S
C687 C686 1.362 . S
H688 C694 0.930 1_554 S
H689 C697 0.930 . S
H690 C698 0.930 . S
H691 C699 0.930 1_556 S
H692 C702 0.930 1_455 S
H693 C703 0.930 . S
C694 H688 0.930 1_556 S
C694 C695 1.355 . S
C694 C696 1.415 1_556 S
C695 C694 1.355 . S
C695 C697 1.419 . S
C696 C694 1.415 1_554 S
C696 C701 1.425 1_454 S
C696 C703 1.409 . S
C697 H689 0.930 . S
C697 C695 1.419 . S
C697 C698 1.362 1_455 S
C698 H690 0.930 . S
C698 C697 1.362 1_655 S
C698 C701 1.409 . S
C699 H691 0.930 1_554 S
C699 C700 1.355 . S
C699 C701 1.415 1_554 S
C700 C699 1.355 . S
C700 C702 1.419 . S
C701 C696 1.425 1_656 S
C701 C698 1.409 . S
C701 C699 1.415 1_556 S
C702 H692 0.930 1_655 S
C702 C700 1.419 . S
C702 C703 1.362 1_655 S
C703 H693 0.930 . S
C703 C696 1.409 . S
C703 C702 1.362 1_455 S
H704 C710 0.930 . S
H705 C713 0.930 . S
H706 C714 0.930 . S
H707 C715 0.930 . S
H708 C718 0.930 . S
H709 C719 0.930 . S
C710 H704 0.930 . S
C710 C711 1.355 . S
C710 C712 1.415 1_545 S
C711 C710 1.355 . S
C711 C713 1.419 . S
C712 C710 1.415 1_565 S
C712 C717 1.425 . S
C712 C719 1.409 . S
C713 H705 0.930 . S
C713 C711 1.419 . S
C713 C714 1.362 1_545 S
C714 H706 0.930 . S
C714 C713 1.362 1_565 S
C714 C717 1.409 . S
C715 H707 0.930 . S
C715 C716 1.355 . S
C715 C717 1.415 . S
C716 C715 1.355 . S
C716 C718 1.419 . S
C717 C712 1.425 . S
C717 C714 1.409 . S
C717 C715 1.415 . S
C718 H708 0.930 . S
C718 C716 1.419 . S
C718 C719 1.362 . S
C719 H709 0.930 . S
C719 C712 1.409 . S
C719 C718 1.362 . S
H720 C726 0.930 . S
H721 C729 0.930 . S
H722 C730 0.930 . S
H723 C731 0.930 . S
H724 C734 0.930 . S
H725 C735 0.930 . S
C726 H720 0.930 . S
C726 C727 1.355 . S
C726 C728 1.415 . S
C727 C726 1.355 . S
C727 C729 1.419 . S
C728 C726 1.415 . S
C728 C733 1.425 . S
C728 C735 1.409 . S
C729 H721 0.930 . S
C729 C727 1.419 . S
C729 C730 1.362 . S
C730 H722 0.930 . S
C730 C729 1.362 . S
C730 C733 1.409 . S
C731 H723 0.930 . S
C731 C732 1.355 . S
C731 C733 1.415 . S
C732 C731 1.355 . S
C732 C734 1.419 . S
C733 C728 1.425 . S
C733 C730 1.409 . S
C733 C731 1.415 . S
C734 H724 0.930 . S
C734 C732 1.419 . S
C734 C735 1.362 . S
C735 H725 0.930 . S
C735 C728 1.409 . S
C735 C734 1.362 . S
H736 C742 0.930 . S
H737 C745 0.930 . S
H738 C746 0.930 . S
H739 C747 0.930 . S
H740 C750 0.930 . S
H741 C751 0.930 . S
C742 H736 0.930 . S
C742 C743 1.355 . S
C742 C744 1.415 . S
C743 C742 1.355 . S
C743 C745 1.419 . S
C744 C742 1.415 . S
C744 C749 1.425 . S
C744 C751 1.409 1_545 S
C745 H737 0.930 . S
C745 C743 1.419 . S
C745 C746 1.362 . S
C746 H738 0.930 . S
C746 C745 1.362 . S
C746 C749 1.409 . S
C747 H739 0.930 . S
C747 C748 1.355 1_545 S
C747 C749 1.415 . S
C748 C747 1.355 1_565 S
C748 C750 1.419 . S
C749 C744 1.425 . S
C749 C746 1.409 . S
C749 C747 1.415 . S
C750 H740 0.930 . S
C750 C748 1.419 . S
C750 C751 1.362 . S
C751 H741 0.930 . S
C751 C744 1.409 1_565 S
C751 C750 1.362 . S
H752 C758 0.931 . S
H753 C761 0.930 . S
H754 C762 0.930 . S
H755 C763 0.930 . S
H756 C766 0.930 . S
H757 C767 0.930 . S
C758 H752 0.931 . S
C758 C759 1.355 . S
C758 C760 1.415 1_556 S
C759 C758 1.355 . S
C759 C761 1.419 . S
C760 C758 1.415 1_554 S
C760 C765 1.425 1_554 S
C760 C767 1.409 . S
C761 H753 0.930 . S
C761 C759 1.419 . S
C761 C762 1.362 . S
C762 H754 0.930 . S
C762 C761 1.362 . S
C762 C765 1.409 . S
C763 H755 0.930 . S
C763 C764 1.355 . S
C763 C765 1.415 1_554 S
C764 C763 1.355 . S
C764 C766 1.419 . S
C765 C760 1.425 1_556 S
C765 C762 1.409 . S
C765 C763 1.415 1_556 S
C766 H756 0.930 . S
C766 C764 1.419 . S
C766 C767 1.362 . S
C767 H757 0.930 . S
C767 C760 1.409 . S
C767 C766 1.362 . S
H768 C774 0.930 . S
H769 C777 0.930 . S
H770 C778 0.930 . S
H771 C779 0.930 . S
H772 C782 0.930 . S
H773 C783 0.930 . S
C774 H768 0.930 . S
C774 C775 1.355 . S
C774 C776 1.415 . S
C775 C774 1.355 . S
C775 C777 1.419 . S
C776 C774 1.415 . S
C776 C781 1.425 . S
C776 C783 1.409 . S
C777 H769 0.930 . S
C777 C775 1.419 . S
C777 C778 1.362 . S
C778 H770 0.930 . S
C778 C777 1.362 . S
C778 C781 1.409 . S
C779 H771 0.930 . S
C779 C780 1.355 . S
C779 C781 1.415 1_565 S
C780 C779 1.355 . S
C780 C782 1.419 . S
C781 C776 1.425 . S
C781 C778 1.409 . S
C781 C779 1.415 1_545 S
C782 H772 0.930 . S
C782 C780 1.419 . S
C782 C783 1.362 1_565 S
C783 H773 0.930 . S
C783 C776 1.409 . S
C783 C782 1.362 1_545 S
H784 C790 0.930 . S
H785 C793 0.930 . S
H786 C794 0.930 . S
H787 C795 0.930 . S
H788 C798 0.930 . S
H789 C799 0.930 . S
C790 H784 0.930 . S
C790 C791 1.355 . S
C790 C792 1.415 . S
C791 C790 1.355 . S
C791 C793 1.419 . S
C792 C790 1.415 . S
C792 C797 1.425 . S
C792 C799 1.409 . S
C793 H785 0.930 . S
C793 C791 1.419 . S
C793 C794 1.362 . S
C794 H786 0.930 . S
C794 C793 1.362 . S
C794 C797 1.409 . S
C795 H787 0.930 . S
C795 C796 1.355 . S
C795 C797 1.415 . S
C796 C795 1.355 . S
C796 C798 1.419 . S
C797 C792 1.425 . S
C797 C794 1.409 . S
C797 C795 1.415 . S
C798 H788 0.930 . S
C798 C796 1.419 . S
C798 C799 1.362 . S
C799 H789 0.930 . S
C799 C792 1.409 . S
C799 C798 1.362 . S
H800 C806 0.930 . S
H801 C809 0.930 . S
H802 C810 0.930 . S
H803 C811 0.930 . S
H804 C814 0.930 . S
H805 C815 0.930 1_545 S
C806 H800 0.930 . S
C806 C807 1.355 . S
C806 C808 1.415 1_545 S
C807 C806 1.355 . S
C807 C809 1.419 1_545 S
C808 C806 1.415 1_565 S
C808 C813 1.425 . S
C808 C815 1.409 . S
C809 H801 0.930 . S
C809 C807 1.419 1_565 S
C809 C810 1.362 . S
C810 H802 0.930 . S
C810 C809 1.362 . S
C810 C813 1.409 . S
C811 H803 0.930 . S
C811 C812 1.355 . S
C811 C813 1.415 . S
C812 C811 1.355 . S
C812 C814 1.419 . S
C813 C808 1.425 . S
C813 C810 1.409 . S
C813 C811 1.415 . S
C814 H804 0.930 . S
C814 C812 1.419 . S
C814 C815 1.362 . S
C815 H805 0.930 1_565 S
C815 C808 1.409 . S
C815 C814 1.362 . S
H816 C822 0.930 . S
H817 C825 0.930 1_554 S
H818 C826 0.930 . S
H819 C827 0.930 . S
H820 C830 0.930 1_556 S
H821 C831 0.930 . S
C822 H816 0.930 . S
C822 C823 1.355 . S
C822 C824 1.415 . S
C823 C822 1.355 . S
C823 C825 1.419 . S
C824 C822 1.415 . S
C824 C829 1.425 1_556 S
C824 C831 1.409 . S
C825 H817 0.930 1_556 S
C825 C823 1.419 . S
C825 C826 1.362 1_556 S
C826 H818 0.930 . S
C826 C825 1.362 1_554 S
C826 C829 1.409 . S
C827 H819 0.930 . S
C827 C828 1.355 . S
C827 C829 1.415 . S
C828 C827 1.355 . S
C828 C830 1.419 . S
C829 C824 1.425 1_554 S
C829 C826 1.409 . S
C829 C827 1.415 . S
C830 H820 0.930 1_554 S
C830 C828 1.419 . S
C830 C831 1.362 1_554 S
C831 H821 0.930 . S
C831 C824 1.409 . S
C831 C830 1.362 1_556 S
H832 C838 0.930 . S
H833 C841 0.930 . S
H834 C842 0.930 . S
H835 C843 0.930 . S
H836 C846 0.930 . S
H837 C847 0.930 . S
C838 H832 0.930 . S
C838 C839 1.355 . S
C838 C840 1.415 . S
C839 C838 1.355 . S
C839 C841 1.419 . S
C840 C838 1.415 . S
C840 C845 1.425 . S
C840 C847 1.409 1_655 S
C841 H833 0.930 . S
C841 C839 1.419 . S
C841 C842 1.362 . S
C842 H834 0.930 . S
C842 C841 1.362 . S
C842 C845 1.409 . S
C843 H835 0.930 . S
C843 C844 1.355 1_655 S
C843 C845 1.415 . S
C844 C843 1.355 1_455 S
C844 C846 1.419 . S
C845 C840 1.425 . S
C845 C842 1.409 . S
C845 C843 1.415 . S
C846 H836 0.930 . S
C846 C844 1.419 . S
C846 C847 1.362 . S
C847 H837 0.930 . S
C847 C840 1.409 1_455 S
C847 C846 1.362 . S
H848 C854 0.930 . S
H849 C857 0.930 . S
H850 C858 0.930 . S
H851 C859 0.930 . S
H852 C862 0.930 . S
H853 C863 0.930 . S
C854 H848 0.930 . S
C854 C855 1.355 . S
C854 C856 1.415 . S
C855 C854 1.355 . S
C855 C857 1.419 . S
C856 C854 1.415 . S
C856 C861 1.425 . S
C856 C863 1.409 . S
C857 H849 0.930 . S
C857 C855 1.419 . S
C857 C858 1.362 . S
C858 H850 0.930 . S
C858 C857 1.362 . S
C858 C861 1.409 . S
C859 H851 0.930 . S
C859 C860 1.355 . S
C859 C861 1.415 . S
C860 C859 1.355 . S
C860 C862 1.419 . S
C861 C856 1.425 . S
C861 C858 1.409 . S
C861 C859 1.415 . S
C862 H852 0.930 . S
C862 C860 1.419 . S
C862 C863 1.362 . S
C863 H853 0.930 . S
C863 C856 1.409 . S
C863 C862 1.362 . S
H864 C870 0.930 . S
H865 C873 0.930 . S
H866 C874 0.930 . S
H867 C875 0.930 . S
H868 C878 0.930 . S
H869 C879 0.930 . S
C870 H864 0.930 . S
C870 C871 1.355 . S
C870 C872 1.415 1_655 S
C871 C870 1.355 . S
C871 C873 1.419 . S
C872 C870 1.415 1_455 S
C872 C877 1.425 . S
C872 C879 1.409 . S
C873 H865 0.930 . S
C873 C871 1.419 . S
C873 C874 1.362 1_655 S
C874 H866 0.930 . S
C874 C873 1.362 1_455 S
C874 C877 1.409 . S
C875 H867 0.930 . S
C875 C876 1.355 . S
C875 C877 1.415 . S
C876 C875 1.355 . S
C876 C878 1.419 . S
C877 C872 1.425 . S
C877 C874 1.409 . S
C877 C875 1.415 . S
C878 H868 0.930 . S
C878 C876 1.419 . S
C878 C879 1.362 . S
C879 H869 0.930 . S
C879 C872 1.409 . S
C879 C878 1.362 . S
H880 C886 0.930 . S
H881 C889 0.930 . S
H882 C890 0.930 . S
H883 C891 0.930 . S
H884 C894 0.930 . S
H885 C895 0.930 . S
C886 H880 0.930 . S
C886 C887 1.355 . S
C886 C888 1.415 1_655 S
C887 C886 1.355 . S
C887 C889 1.419 1_655 S
C888 C886 1.415 1_455 S
C888 C893 1.425 . S
C888 C895 1.409 . S
C889 H881 0.930 . S
C889 C887 1.419 1_455 S
C889 C890 1.362 . S
C890 H882 0.930 . S
C890 C889 1.362 . S
C890 C893 1.409 . S
C891 H883 0.930 . S
C891 C892 1.355 . S
C891 C893 1.415 . S
C892 C891 1.355 . S
C892 C894 1.419 . S
C893 C888 1.425 . S
C893 C890 1.409 . S
C893 C891 1.415 . S
C894 H884 0.930 . S
C894 C892 1.419 . S
C894 C895 1.362 . S
C895 H885 0.930 . S
C895 C888 1.409 . S
C895 C894 1.362 . S
H896 C902 0.930 . S
H897 C905 0.930 . S
H898 C906 0.930 . S
H899 C907 0.930 . S
H900 C910 0.930 . S
H901 C911 0.930 . S
C902 H896 0.930 . S
C902 C903 1.355 . S
C902 C904 1.415 . S
C903 C902 1.355 . S
C903 C905 1.419 . S
C904 C902 1.415 . S
C904 C909 1.425 . S
C904 C911 1.409 . S
C905 H897 0.930 . S
C905 C903 1.419 . S
C905 C906 1.362 . S
C906 H898 0.930 . S
C906 C905 1.362 . S
C906 C909 1.409 . S
C907 H899 0.930 . S
C907 C908 1.355 . S
C907 C909 1.415 . S
C908 C907 1.355 . S
C908 C910 1.419 . S
C909 C904 1.425 . S
C909 C906 1.409 . S
C909 C907 1.415 . S
C910 H900 0.930 . S
C910 C908 1.419 . S
C910 C911 1.362 . S
C911 H901 0.930 . S
C911 C904 1.409 . S
C911 C910 1.362 . S
H912 C918 0.930 . S
H913 C921 0.930 . S
H914 C922 0.930 . S
H915 C923 0.930 . S
H916 C926 0.930 . S
H917 C927 0.930 . S
C918 H912 0.930 . S
C918 C919 1.355 . S
C918 C920 1.415 . S
C919 C918 1.355 . S
C919 C921 1.419 . S
C920 C918 1.415 . S
C920 C925 1.425 . S
C920 C927 1.409 1_655 S
C921 H913 0.930 . S
C921 C919 1.419 . S
C921 C922 1.362 . S
C922 H914 0.930 . S
C922 C921 1.362 . S
C922 C925 1.409 . S
C923 H915 0.930 . S
C923 C924 1.355 1_655 S
C923 C925 1.415 . S
C924 C923 1.355 1_455 S
C924 C926 1.419 . S
C925 C920 1.425 . S
C925 C922 1.409 . S
C925 C923 1.415 . S
C926 H916 0.930 . S
C926 C924 1.419 . S
C926 C927 1.362 . S
C927 H917 0.930 . S
C927 C920 1.409 1_455 S
C927 C926 1.362 . S
H928 C934 0.930 . S
H929 C937 0.930 . S
H930 C938 0.930 . S
H931 C939 0.930 . S
H932 C942 0.930 . S
H933 C943 0.930 . S
C934 H928 0.930 . S
C934 C935 1.355 . S
C934 C936 1.415 . S
C935 C934 1.355 . S
C935 C937 1.419 . S
C936 C934 1.415 . S
C936 C941 1.425 . S
C936 C943 1.409 . S
C937 H929 0.930 . S
C937 C935 1.419 . S
C937 C938 1.362 . S
C938 H930 0.930 . S
C938 C937 1.362 . S
C938 C941 1.409 . S
C939 H931 0.930 . S
C939 C940 1.355 . S
C939 C941 1.415 . S
C940 C939 1.355 . S
C940 C942 1.419 . S
C941 C936 1.425 . S
C941 C938 1.409 . S
C941 C939 1.415 . S
C942 H932 0.930 . S
C942 C940 1.419 . S
C942 C943 1.362 . S
C943 H933 0.930 . S
C943 C936 1.409 . S
C943 C942 1.362 . S
H944 C950 0.930 . S
H945 C953 0.930 . S
H946 C954 0.930 . S
H947 C955 0.934 . S
H948 C958 0.930 . S
H949 C959 0.930 . S
C950 H944 0.930 . S
C950 C951 1.355 . S
C950 C952 1.415 . S
C951 C950 1.355 . S
C951 C953 1.419 . S
C952 C950 1.415 . S
C952 C957 1.425 . S
C952 C959 1.409 1_545 S
C953 H945 0.930 . S
C953 C951 1.419 . S
C953 C954 1.362 . S
C954 H946 0.930 . S
C954 C953 1.362 . S
C954 C957 1.409 . S
C955 H947 0.934 . S
C955 C956 1.342 1_545 S
C955 C957 1.423 . S
C956 C955 1.342 1_565 S
C956 C958 1.419 . S
C957 C952 1.425 . S
C957 C954 1.409 . S
C957 C955 1.423 . S
C958 H948 0.930 . S
C958 C956 1.419 . S
C958 C959 1.362 . S
C959 H949 0.930 . S
C959 C952 1.409 1_565 S
C959 C958 1.362 . S
H960 C966 0.930 . S
H961 C969 0.930 . S
H962 C970 0.930 . S
H963 C971 0.930 . S
H964 C974 0.930 . S
H965 C975 0.930 . S
C966 H960 0.930 . S
C966 C967 1.355 . S
C966 C968 1.415 . S
C967 C966 1.355 . S
C967 C969 1.419 . S
C968 C966 1.415 . S
C968 C973 1.425 . S
C968 C975 1.409 . S
C969 H961 0.930 . S
C969 C967 1.419 . S
C969 C970 1.362 . S
C970 H962 0.930 . S
C970 C969 1.362 . S
C970 C973 1.409 . S
C971 H963 0.930 . S
C971 C972 1.355 . S
C971 C973 1.415 . S
C972 C971 1.355 . S
C972 C974 1.419 . S
C973 C968 1.425 . S
C973 C970 1.409 . S
C973 C971 1.415 . S
C974 H964 0.930 . S
C974 C972 1.419 . S
C974 C975 1.362 . S
C975 H965 0.930 . S
C975 C968 1.409 . S
C975 C974 1.362 . S
H976 C982 0.930 . S
H977 C985 0.930 . S
H978 C986 0.930 . S
H979 C987 0.930 1_565 S
H980 C990 0.930 . S
H981 C991 0.930 . S
C982 H976 0.930 . S
C982 C983 1.355 . S
C982 C984 1.415 . S
C983 C982 1.355 . S
C983 C985 1.419 . S
C984 C982 1.415 . S
C984 C989 1.425 . S
C984 C991 1.409 1_565 S
C985 H977 0.930 . S
C985 C983 1.419 . S
C985 C986 1.362 . S
C986 H978 0.930 . S
C986 C985 1.362 . S
C986 C989 1.409 . S
C987 H979 0.930 1_545 S
C987 C988 1.355 . S
C987 C989 1.415 1_545 S
C988 C987 1.355 . S
C988 C990 1.419 . S
C989 C984 1.425 . S
C989 C986 1.409 . S
C989 C987 1.415 1_565 S
C990 H980 0.930 . S
C990 C988 1.419 . S
C990 C991 1.362 . S
C991 H981 0.930 . S
C991 C984 1.409 1_545 S
C991 C990 1.362 . S
H992 C998 0.930 1_554 S
H993 C1001 0.930 . S
H994 C1002 0.930 . S
H995 C1003 0.930 1_556 S
H996 C1006 0.930 . S
H997 C1007 0.930 . S
C998 H992 0.930 1_556 S
C998 C999 1.355 . S
C998 C1000 1.415 1_556 S
C999 C998 1.355 . S
C999 C1001 1.419 . S
C1000 C998 1.415 1_554 S
C1000 C1005 1.425 1_554 S
C1000 C1007 1.409 . S
C1001 H993 0.930 . S
C1001 C999 1.419 . S
C1001 C1002 1.362 . S
C1002 H994 0.930 . S
C1002 C1001 1.362 . S
C1002 C1005 1.409 . S
C1003 H995 0.930 1_554 S
C1003 C1004 1.355 . S
C1003 C1005 1.415 1_554 S
C1004 C1003 1.355 . S
C1004 C1006 1.419 . S
C1005 C1000 1.425 1_556 S
C1005 C1002 1.409 . S
C1005 C1003 1.415 1_556 S
C1006 H996 0.930 . S
C1006 C1004 1.419 . S
C1006 C1007 1.362 . S
C1007 H997 0.930 . S
C1007 C1000 1.409 . S
C1007 C1006 1.362 . S
H1008 C1014 0.930 . S
H1009 C1017 0.930 . S
H1010 C1018 0.930 . S
H1011 C1019 0.930 . S
H1012 C1022 0.930 . S
H1013 C1023 0.930 1_545 S
C1014 H1008 0.930 . S
C1014 C1015 1.355 . S
C1014 C1016 1.395 1_545 S
C1015 C1014 1.355 . S
C1015 C1017 1.419 1_545 S
C1016 C1014 1.395 1_565 S
C1016 C1021 1.445 . S
C1016 C1023 1.409 . S
C1017 H1009 0.930 . S
C1017 C1015 1.419 1_565 S
C1017 C1018 1.362 . S
C1018 H1010 0.930 . S
C1018 C1017 1.362 . S
C1018 C1021 1.409 . S
C1019 H1011 0.930 . S
C1019 C1020 1.355 . S
C1019 C1021 1.415 . S
C1020 C1019 1.355 . S
C1020 C1022 1.419 . S
C1021 C1016 1.445 . S
C1021 C1018 1.409 . S
C1021 C1019 1.415 . S
C1022 H1012 0.930 . S
C1022 C1020 1.419 . S
C1022 C1023 1.362 . S
C1023 H1013 0.930 1_565 S
C1023 C1016 1.409 . S
C1023 C1022 1.362 . S
H1024 C1030 0.930 . S
H1025 C1033 0.930 . S
H1026 C1034 0.930 . S
H1027 C1035 0.930 . S
H1028 C1038 0.930 . S
H1029 C1039 0.930 . S
C1030 H1024 0.930 . S
C1030 C1031 1.355 . S
C1030 C1032 1.415 . S
C1031 C1030 1.355 . S
C1031 C1033 1.419 . S
C1032 C1030 1.415 . S
C1032 C1037 1.425 . S
C1032 C1039 1.409 . S
C1033 H1025 0.930 . S
C1033 C1031 1.419 . S
C1033 C1034 1.362 . S
C1034 H1026 0.930 . S
C1034 C1033 1.362 . S
C1034 C1037 1.409 . S
C1035 H1027 0.930 . S
C1035 C1036 1.355 . S
C1035 C1037 1.415 . S
C1036 C1035 1.355 . S
C1036 C1038 1.419 . S
C1037 C1032 1.425 . S
C1037 C1034 1.409 . S
C1037 C1035 1.415 . S
C1038 H1028 0.930 . S
C1038 C1036 1.419 . S
C1038 C1039 1.362 . S
C1039 H1029 0.930 . S
C1039 C1032 1.409 . S
C1039 C1038 1.362 . S
H1040 C1046 0.930 . S
H1041 C1049 0.930 . S
H1042 C1050 0.930 . S
H1043 C1051 0.930 . S
H1044 C1054 0.930 . S
H1045 C1055 0.930 . S
C1046 H1040 0.930 . S
C1046 C1047 1.355 . S
C1046 C1048 1.415 1_565 S
C1047 C1046 1.355 . S
C1047 C1049 1.419 . S
C1048 C1046 1.415 1_545 S
C1048 C1053 1.425 . S
C1048 C1055 1.409 . S
C1049 H1041 0.930 . S
C1049 C1047 1.419 . S
C1049 C1050 1.362 1_565 S
C1050 H1042 0.930 . S
C1050 C1049 1.362 1_545 S
C1050 C1053 1.409 . S
C1051 H1043 0.930 . S
C1051 C1052 1.355 . S
C1051 C1053 1.415 . S
C1052 C1051 1.355 . S
C1052 C1054 1.419 . S
C1053 C1048 1.425 . S
C1053 C1050 1.409 . S
C1053 C1051 1.415 . S
C1054 H1044 0.930 . S
C1054 C1052 1.419 . S
C1054 C1055 1.362 . S
C1055 H1045 0.930 . S
C1055 C1048 1.409 . S
C1055 C1054 1.362 . S
H1056 C1062 0.930 . S
H1057 C1065 0.930 . S
H1058 C1066 0.930 . S
H1059 C1067 0.930 . S
H1060 C1070 0.935 . S
H1061 C1071 0.930 . S
C1062 H1056 0.930 . S
C1062 C1063 1.355 . S
C1062 C1064 1.415 . S
C1063 C1062 1.355 . S
C1063 C1065 1.419 1_554 S
C1064 C1062 1.415 . S
C1064 C1069 1.425 1_554 S
C1064 C1071 1.409 . S
C1065 H1057 0.930 . S
C1065 C1063 1.419 1_556 S
C1065 C1066 1.362 . S
C1066 H1058 0.930 . S
C1066 C1065 1.362 . S
C1066 C1069 1.409 . S
C1067 H1059 0.930 . S
C1067 C1068 1.355 . S
C1067 C1069 1.415 . S
C1068 C1067 1.355 . S
C1068 C1070 1.400 1_556 S
C1069 C1064 1.425 1_556 S
C1069 C1066 1.409 . S
C1069 C1067 1.415 . S
C1070 H1060 0.935 . S
C1070 C1068 1.400 1_554 S
C1070 C1071 1.376 . S
C1071 H1061 0.930 . S
C1071 C1064 1.409 . S
C1071 C1070 1.376 . S
H1072 C1078 0.930 . S
H1073 C1081 0.930 1_655 S
H1074 C1082 0.930 . S
H1075 C1083 0.930 . S
H1076 C1086 0.930 . S
H1077 C1087 0.930 . S
C1078 H1072 0.930 . S
C1078 C1079 1.355 . S
C1078 C1080 1.415 1_655 S
C1079 C1078 1.355 . S
C1079 C1081 1.419 1_655 S
C1080 C1078 1.415 1_455 S
C1080 C1085 1.425 . S
C1080 C1087 1.409 . S
C1081 H1073 0.930 1_455 S
C1081 C1079 1.419 1_455 S
C1081 C1082 1.362 . S
C1082 H1074 0.930 . S
C1082 C1081 1.362 . S
C1082 C1085 1.409 . S
C1083 H1075 0.930 . S
C1083 C1084 1.355 . S
C1083 C1085 1.415 . S
C1084 C1083 1.355 . S
C1084 C1086 1.419 . S
C1085 C1080 1.425 . S
C1085 C1082 1.409 . S
C1085 C1083 1.415 . S
C1086 H1076 0.930 . S
C1086 C1084 1.419 . S
C1086 C1087 1.362 . S
C1087 H1077 0.930 . S
C1087 C1080 1.409 . S
C1087 C1086 1.362 . S
H1088 C1094 0.930 . S
H1089 C1097 0.930 . S
H1090 C1098 0.930 . S
H1091 C1099 0.930 . S
H1092 C1102 0.930 . S
H1093 C1103 0.930 . S
C1094 H1088 0.930 . S
C1094 C1095 1.355 . S
C1094 C1096 1.415 . S
C1095 C1094 1.355 . S
C1095 C1097 1.419 . S
C1096 C1094 1.415 . S
C1096 C1101 1.425 . S
C1096 C1103 1.409 . S
C1097 H1089 0.930 . S
C1097 C1095 1.419 . S
C1097 C1098 1.362 . S
C1098 H1090 0.930 . S
C1098 C1097 1.362 . S
C1098 C1101 1.409 . S
C1099 H1091 0.930 . S
C1099 C1100 1.355 . S
C1099 C1101 1.415 . S
C1100 C1099 1.355 . S
C1100 C1102 1.419 . S
C1101 C1096 1.425 . S
C1101 C1098 1.409 . S
C1101 C1099 1.415 . S
C1102 H1092 0.930 . S
C1102 C1100 1.419 . S
C1102 C1103 1.362 . S
C1103 H1093 0.930 . S
C1103 C1096 1.409 . S
C1103 C1102 1.362 . S
H1104 C1110 0.930 . S
H1105 C1113 0.930 . S
H1106 C1114 0.930 . S
H1107 C1115 0.930 . S
H1108 C1118 0.930 . S
H1109 C1119 0.930 . S
C1110 H1104 0.930 . S
C1110 C1111 1.355 . S
C1110 C1112 1.415 1_455 S
C1111 C1110 1.355 . S
C1111 C1113 1.419 . S
C1112 C1110 1.415 1_655 S
C1112 C1117 1.425 . S
C1112 C1119 1.409 . S
C1113 H1105 0.930 . S
C1113 C1111 1.419 . S
C1113 C1114 1.362 . S
C1114 H1106 0.930 . S
C1114 C1113 1.362 . S
C1114 C1117 1.409 1_455 S
C1115 H1107 0.930 . S
C1115 C1116 1.355 . S
C1115 C1117 1.415 . S
C1116 C1115 1.355 . S
C1116 C1118 1.419 . S
C1117 C1112 1.425 . S
C1117 C1114 1.409 1_655 S
C1117 C1115 1.415 . S
C1118 H1108 0.930 . S
C1118 C1116 1.419 . S
C1118 C1119 1.362 . S
C1119 H1109 0.930 . S
C1119 C1112 1.409 . S
C1119 C1118 1.362 . S
H1120 C1126 0.930 . S
H1121 C1129 0.930 . S
H1122 C1130 0.930 . S
H1123 C1131 0.930 . S
H1124 C1134 0.930 . S
H1125 C1135 0.930 . S
C1126 H1120 0.930 . S
C1126 C1127 1.355 . S
C1126 C1128 1.415 1_455 S
C1127 C1126 1.355 . S
C1127 C1129 1.419 . S
C1128 C1126 1.415 1_655 S
C1128 C1133 1.425 . S
C1128 C1135 1.409 . S
C1129 H1121 0.930 . S
C1129 C1127 1.419 . S
C1129 C1130 1.362 1_455 S
C1130 H1122 0.930 . S
C1130 C1129 1.362 1_655 S
C1130 C1133 1.409 . S
C1131 H1123 0.930 . S
C1131 C1132 1.355 . S
C1131 C1133 1.415 . S
C1132 C1131 1.355 . S
C1132 C1134 1.419 . S
C1133 C1128 1.425 . S
C1133 C1130 1.409 . S
C1133 C1131 1.415 . S
C1134 H1124 0.930 . S
C1134 C1132 1.419 . S
C1134 C1135 1.362 . S
C1135 H1125 0.930 . S
C1135 C1128 1.409 . S
C1135 C1134 1.362 . S
H1136 C1142 0.930 . S
H1137 C1145 0.930 . S
H1138 C1146 0.930 . S
H1139 C1147 0.930 . S
H1140 C1150 0.930 . S
H1141 C1151 0.930 . S
C1142 H1136 0.930 . S
C1142 C1143 1.355 . S
C1142 C1144 1.415 . S
C1143 C1142 1.355 . S
C1143 C1145 1.419 . S
C1144 C1142 1.415 . S
C1144 C1149 1.425 . S
C1144 C1151 1.409 . S
C1145 H1137 0.930 . S
C1145 C1143 1.419 . S
C1145 C1146 1.362 . S
C1146 H1138 0.930 . S
C1146 C1145 1.362 . S
C1146 C1149 1.409 . S
C1147 H1139 0.930 . S
C1147 C1148 1.355 . S
C1147 C1149 1.415 . S
C1148 C1147 1.355 . S
C1148 C1150 1.419 . S
C1149 C1144 1.425 . S
C1149 C1146 1.409 . S
C1149 C1147 1.415 . S
C1150 H1140 0.930 . S
C1150 C1148 1.419 . S
C1150 C1151 1.362 . S
C1151 H1141 0.930 . S
C1151 C1144 1.409 . S
C1151 C1150 1.362 . S
H1152 C1158 0.930 . S
H1153 C1161 0.930 . S
H1154 C1162 0.930 . S
H1155 C1163 0.930 . S
H1156 C1166 0.930 . S
H1157 C1167 0.930 . S
C1158 H1152 0.930 . S
C1158 C1159 1.355 . S
C1158 C1160 1.415 1_655 S
C1159 C1158 1.355 . S
C1159 C1161 1.419 . S
C1160 C1158 1.415 1_455 S
C1160 C1165 1.425 . S
C1160 C1167 1.409 . S
C1161 H1153 0.930 . S
C1161 C1159 1.419 . S
C1161 C1162 1.362 1_655 S
C1162 H1154 0.930 . S
C1162 C1161 1.362 1_455 S
C1162 C1165 1.409 . S
C1163 H1155 0.930 . S
C1163 C1164 1.355 . S
C1163 C1165 1.415 . S
C1164 C1163 1.355 . S
C1164 C1166 1.419 . S
C1165 C1160 1.425 . S
C1165 C1162 1.409 . S
C1165 C1163 1.415 . S
C1166 H1156 0.930 . S
C1166 C1164 1.419 . S
C1166 C1167 1.362 . S
C1167 H1157 0.930 . S
C1167 C1160 1.409 . S
C1167 C1166 1.362 . S
H1168 C1174 0.930 . S
H1169 C1177 0.930 . S
H1170 C1178 0.930 . S
H1171 C1179 0.930 . S
H1172 C1182 0.930 . S
H1173 C1183 0.930 . S
C1174 H1168 0.930 . S
C1174 C1175 1.355 . S
C1174 C1176 1.415 . S
C1175 C1174 1.355 . S
C1175 C1177 1.419 . S
C1176 C1174 1.415 . S
C1176 C1181 1.425 . S
C1176 C1183 1.409 . S
C1177 H1169 0.930 . S
C1177 C1175 1.419 . S
C1177 C1178 1.362 . S
C1178 H1170 0.930 . S
C1178 C1177 1.362 . S
C1178 C1181 1.409 . S
C1179 H1171 0.930 . S
C1179 C1180 1.355 . S
C1179 C1181 1.415 . S
C1180 C1179 1.355 . S
C1180 C1182 1.419 . S
C1181 C1176 1.425 . S
C1181 C1178 1.409 . S
C1181 C1179 1.415 . S
C1182 H1172 0.930 . S
C1182 C1180 1.419 . S
C1182 C1183 1.362 . S
C1183 H1173 0.930 . S
C1183 C1176 1.409 . S
C1183 C1182 1.362 . S
H1184 C1190 0.930 . S
H1185 C1193 0.930 . S
H1186 C1194 0.930 . S
H1187 C1195 0.930 . S
H1188 C1198 0.930 . S
H1189 C1199 0.930 . S
C1190 H1184 0.930 . S
C1190 C1191 1.355 . S
C1190 C1192 1.415 . S
C1191 C1190 1.355 . S
C1191 C1193 1.419 . S
C1192 C1190 1.415 . S
C1192 C1197 1.425 . S
C1192 C1199 1.409 . S
C1193 H1185 0.930 . S
C1193 C1191 1.419 . S
C1193 C1194 1.362 . S
C1194 H1186 0.930 . S
C1194 C1193 1.362 . S
C1194 C1197 1.409 . S
C1195 H1187 0.930 . S
C1195 C1196 1.355 . S
C1195 C1197 1.415 . S
C1196 C1195 1.355 . S
C1196 C1198 1.419 . S
C1197 C1192 1.425 . S
C1197 C1194 1.409 . S
C1197 C1195 1.415 . S
C1198 H1188 0.930 . S
C1198 C1196 1.419 . S
C1198 C1199 1.362 . S
C1199 H1189 0.930 . S
C1199 C1192 1.409 . S
C1199 C1198 1.362 . S
H1200 C1206 0.930 1_556 S
H1201 C1209 0.930 . S
H1202 C1210 0.930 . S
H1203 C1211 0.930 1_554 S
H1204 C1214 0.930 . S
H1205 C1215 0.930 . S
C1206 H1200 0.930 1_554 S
C1206 C1207 1.355 . S
C1206 C1208 1.415 1_554 S
C1207 C1206 1.355 . S
C1207 C1209 1.419 . S
C1208 C1206 1.415 1_556 S
C1208 C1213 1.425 1_556 S
C1208 C1215 1.409 . S
C1209 H1201 0.930 . S
C1209 C1207 1.419 . S
C1209 C1210 1.362 . S
C1210 H1202 0.930 . S
C1210 C1209 1.362 . S
C1210 C1213 1.409 . S
C1211 H1203 0.930 1_556 S
C1211 C1212 1.355 . S
C1211 C1213 1.415 1_556 S
C1212 C1211 1.355 . S
C1212 C1214 1.419 . S
C1213 C1208 1.425 1_554 S
C1213 C1210 1.409 . S
C1213 C1211 1.415 1_554 S
C1214 H1204 0.930 . S
C1214 C1212 1.419 . S
C1214 C1215 1.362 . S
C1215 H1205 0.930 . S
C1215 C1208 1.409 . S
C1215 C1214 1.362 . S
H1216 C1222 0.930 . S
H1217 C1225 0.930 . S
H1218 C1226 0.930 . S
H1219 C1227 0.930 . S
H1220 C1230 0.930 . S
H1221 C1231 0.930 . S
C1222 H1216 0.930 . S
C1222 C1223 1.355 . S
C1222 C1224 1.415 . S
C1223 C1222 1.355 . S
C1223 C1225 1.419 . S
C1224 C1222 1.415 . S
C1224 C1229 1.425 . S
C1224 C1231 1.409 . S
C1225 H1217 0.930 . S
C1225 C1223 1.419 . S
C1225 C1226 1.362 . S
C1226 H1218 0.930 . S
C1226 C1225 1.362 . S
C1226 C1229 1.409 . S
C1227 H1219 0.930 . S
C1227 C1228 1.355 . S
C1227 C1229 1.415 . S
C1228 C1227 1.355 . S
C1228 C1230 1.419 . S
C1229 C1224 1.425 . S
C1229 C1226 1.409 . S
C1229 C1227 1.415 . S
C1230 H1220 0.930 . S
C1230 C1228 1.419 . S
C1230 C1231 1.362 . S
C1231 H1221 0.930 . S
C1231 C1224 1.409 . S
C1231 C1230 1.362 . S
H1232 C1238 0.930 . S
H1233 C1241 0.930 . S
H1234 C1242 0.930 . S
H1235 C1243 0.930 . S
H1236 C1246 0.930 . S
H1237 C1247 0.930 . S
C1238 H1232 0.930 . S
C1238 C1239 1.355 . S
C1238 C1240 1.415 . S
C1239 C1238 1.355 . S
C1239 C1241 1.419 . S
C1240 C1238 1.415 . S
C1240 C1245 1.425 . S
C1240 C1247 1.409 . S
C1241 H1233 0.930 . S
C1241 C1239 1.419 . S
C1241 C1242 1.362 . S
C1242 H1234 0.930 . S
C1242 C1241 1.362 . S
C1242 C1245 1.409 . S
C1243 H1235 0.930 . S
C1243 C1244 1.355 . S
C1243 C1245 1.415 . S
C1244 C1243 1.355 . S
C1244 C1246 1.419 . S
C1245 C1240 1.425 . S
C1245 C1242 1.409 . S
C1245 C1243 1.415 . S
C1246 H1236 0.930 . S
C1246 C1244 1.419 . S
C1246 C1247 1.362 . S
C1247 H1237 0.930 . S
C1247 C1240 1.409 . S
C1247 C1246 1.362 . S
H1248 C1254 0.930 . S
H1249 C1257 0.930 . S
H1250 C1258 0.930 . S
H1251 C1259 0.930 . S
H1252 C1262 0.930 . S
H1253 C1263 0.930 . S
C1254 H1248 0.930 . S
C1254 C1255 1.355 . S
C1254 C1256 1.415 . S
C1255 C1254 1.355 . S
C1255 C1257 1.419 . S
C1256 C1254 1.415 . S
C1256 C1261 1.425 . S
C1256 C1263 1.409 . S
C1257 H1249 0.930 . S
C1257 C1255 1.419 . S
C1257 C1258 1.362 . S
C1258 H1250 0.930 . S
C1258 C1257 1.362 . S
C1258 C1261 1.409 . S
C1259 H1251 0.930 . S
C1259 C1260 1.355 . S
C1259 C1261 1.415 . S
C1260 C1259 1.355 . S
C1260 C1262 1.419 . S
C1261 C1256 1.425 . S
C1261 C1258 1.409 . S
C1261 C1259 1.415 . S
C1262 H1252 0.930 . S
C1262 C1260 1.419 . S
C1262 C1263 1.362 . S
C1263 H1253 0.930 . S
C1263 C1256 1.409 . S
C1263 C1262 1.362 . S
H1264 C1270 0.930 . S
H1265 C1273 0.930 . S
H1266 C1274 0.930 . S
H1267 C1275 0.930 . S
H1268 C1278 0.930 . S
H1269 C1279 0.930 . S
C1270 H1264 0.930 . S
C1270 C1271 1.355 . S
C1270 C1272 1.415 1_554 S
C1271 C1270 1.355 . S
C1271 C1273 1.419 . S
C1272 C1270 1.415 1_556 S
C1272 C1277 1.425 1_556 S
C1272 C1279 1.409 . S
C1273 H1265 0.930 . S
C1273 C1271 1.419 . S
C1273 C1274 1.362 . S
C1274 H1266 0.930 . S
C1274 C1273 1.362 . S
C1274 C1277 1.409 . S
C1275 H1267 0.930 . S
C1275 C1276 1.355 . S
C1275 C1277 1.415 1_556 S
C1276 C1275 1.355 . S
C1276 C1278 1.419 . S
C1277 C1272 1.425 1_554 S
C1277 C1274 1.409 . S
C1277 C1275 1.415 1_554 S
C1278 H1268 0.930 . S
C1278 C1276 1.419 . S
C1278 C1279 1.362 . S
C1279 H1269 0.930 . S
C1279 C1272 1.409 . S
C1279 C1278 1.362 . S
H1280 C1286 0.930 . S
H1281 C1289 0.930 . S
H1282 C1290 0.930 . S
H1283 C1291 0.930 . S
H1284 C1294 0.930 . S
H1285 C1295 0.930 . S
C1286 H1280 0.930 . S
C1286 C1287 1.355 . S
C1286 C1288 1.415 . S
C1287 C1286 1.355 . S
C1287 C1289 1.419 . S
C1288 C1286 1.415 . S
C1288 C1293 1.425 . S
C1288 C1295 1.409 . S
C1289 H1281 0.930 . S
C1289 C1287 1.419 . S
C1289 C1290 1.362 . S
C1290 H1282 0.930 . S
C1290 C1289 1.362 . S
C1290 C1293 1.409 . S
C1291 H1283 0.930 . S
C1291 C1292 1.355 . S
C1291 C1293 1.415 . S
C1292 C1291 1.355 . S
C1292 C1294 1.419 . S
C1293 C1288 1.425 . S
C1293 C1290 1.409 . S
C1293 C1291 1.415 . S
C1294 H1284 0.930 . S
C1294 C1292 1.419 . S
C1294 C1295 1.362 . S
C1295 H1285 0.930 . S
C1295 C1288 1.409 . S
C1295 C1294 1.362 . S
H1296 C1302 0.930 . S
H1297 C1305 0.930 . S
H1298 C1306 0.930 . S
H1299 C1307 0.930 . S
H1300 C1310 0.930 . S
H1301 C1311 0.930 . S
C1302 H1296 0.930 . S
C1302 C1303 1.355 . S
C1302 C1304 1.415 . S
C1303 C1302 1.355 . S
C1303 C1305 1.419 . S
C1304 C1302 1.415 . S
C1304 C1309 1.425 . S
C1304 C1311 1.409 . S
C1305 H1297 0.930 . S
C1305 C1303 1.419 . S
C1305 C1306 1.362 . S
C1306 H1298 0.930 . S
C1306 C1305 1.362 . S
C1306 C1309 1.409 . S
C1307 H1299 0.930 . S
C1307 C1308 1.355 . S
C1307 C1309 1.415 . S
C1308 C1307 1.355 . S
C1308 C1310 1.419 . S
C1309 C1304 1.425 . S
C1309 C1306 1.409 . S
C1309 C1307 1.415 . S
C1310 H1300 0.930 . S
C1310 C1308 1.419 . S
C1310 C1311 1.362 . S
C1311 H1301 0.930 . S
C1311 C1304 1.409 . S
C1311 C1310 1.362 . S
H1312 C1318 0.930 . S
H1313 C1321 0.930 . S
H1314 C1322 0.930 . S
H1315 C1323 0.930 . S
H1316 C1326 0.930 . S
H1317 C1327 0.930 . S
C1318 H1312 0.930 . S
C1318 C1319 1.355 . S
C1318 C1320 1.415 . S
C1319 C1318 1.355 . S
C1319 C1321 1.419 . S
C1320 C1318 1.415 . S
C1320 C1325 1.425 . S
C1320 C1327 1.409 . S
C1321 H1313 0.930 . S
C1321 C1319 1.419 . S
C1321 C1322 1.362 . S
C1322 H1314 0.930 . S
C1322 C1321 1.362 . S
C1322 C1325 1.409 . S
C1323 H1315 0.930 . S
C1323 C1324 1.355 . S
C1323 C1325 1.415 . S
C1324 C1323 1.355 . S
C1324 C1326 1.419 . S
C1325 C1320 1.425 . S
C1325 C1322 1.409 . S
C1325 C1323 1.415 . S
C1326 H1316 0.930 . S
C1326 C1324 1.419 . S
C1326 C1327 1.362 . S
C1327 H1317 0.930 . S
C1327 C1320 1.409 . S
C1327 C1326 1.362 . S
H1328 C1334 0.930 . S
H1329 C1337 0.930 . S
H1330 C1338 0.930 . S
H1331 C1339 0.930 . S
H1332 C1342 0.930 . S
H1333 C1343 0.930 . S
C1334 H1328 0.930 . S
C1334 C1335 1.355 . S
C1334 C1336 1.415 . S
C1335 C1334 1.355 . S
C1335 C1337 1.419 . S
C1336 C1334 1.415 . S
C1336 C1341 1.425 . S
C1336 C1343 1.409 . S
C1337 H1329 0.930 . S
C1337 C1335 1.419 . S
C1337 C1338 1.362 . S
C1338 H1330 0.930 . S
C1338 C1337 1.362 . S
C1338 C1341 1.409 . S
C1339 H1331 0.930 . S
C1339 C1340 1.355 . S
C1339 C1341 1.415 . S
C1340 C1339 1.355 . S
C1340 C1342 1.419 . S
C1341 C1336 1.425 . S
C1341 C1338 1.409 . S
C1341 C1339 1.415 . S
C1342 H1332 0.930 . S
C1342 C1340 1.419 . S
C1342 C1343 1.362 . S
C1343 H1333 0.930 . S
C1343 C1336 1.409 . S
C1343 C1342 1.362 . S
H1344 C1350 0.930 . S
H1345 C1353 0.927 1_556 S
H1346 C1354 0.930 . S
H1347 C1355 0.930 . S
H1348 C1358 0.930 1_554 S
H1349 C1359 0.930 . S
C1350 H1344 0.930 . S
C1350 C1351 1.355 . S
C1350 C1352 1.415 . S
C1351 C1350 1.355 . S
C1351 C1353 1.419 . S
C1352 C1350 1.415 . S
C1352 C1357 1.425 1_554 S
C1352 C1359 1.409 . S
C1353 H1345 0.927 1_554 S
C1353 C1351 1.419 . S
C1353 C1354 1.362 1_554 S
C1354 H1346 0.930 . S
C1354 C1353 1.362 1_556 S
C1354 C1357 1.409 . S
C1355 H1347 0.930 . S
C1355 C1356 1.355 . S
C1355 C1357 1.415 . S
C1356 C1355 1.355 . S
C1356 C1358 1.419 . S
C1357 C1352 1.425 1_556 S
C1357 C1354 1.409 . S
C1357 C1355 1.415 . S
C1358 H1348 0.930 1_556 S
C1358 C1356 1.419 . S
C1358 C1359 1.362 1_556 S
C1359 H1349 0.930 . S
C1359 C1352 1.409 . S
C1359 C1358 1.362 1_554 S
H1360 C1366 0.930 . S
H1361 C1369 0.930 . S
H1362 C1370 0.930 . S
H1363 C1371 0.930 . S
H1364 C1374 0.930 . S
H1365 C1375 0.930 . S
C1366 H1360 0.930 . S
C1366 C1367 1.355 . S
C1366 C1368 1.415 . S
C1367 C1366 1.355 . S
C1367 C1369 1.419 . S
C1368 C1366 1.415 . S
C1368 C1373 1.425 . S
C1368 C1375 1.409 . S
C1369 H1361 0.930 . S
C1369 C1367 1.419 . S
C1369 C1370 1.362 . S
C1370 H1362 0.930 . S
C1370 C1369 1.362 . S
C1370 C1373 1.409 . S
C1371 H1363 0.930 . S
C1371 C1372 1.355 . S
C1371 C1373 1.415 . S
C1372 C1371 1.355 . S
C1372 C1374 1.419 . S
C1373 C1368 1.425 . S
C1373 C1370 1.409 . S
C1373 C1371 1.415 . S
C1374 H1364 0.930 . S
C1374 C1372 1.419 . S
C1374 C1375 1.362 . S
C1375 H1365 0.930 . S
C1375 C1368 1.409 . S
C1375 C1374 1.362 . S
H1376 C1382 0.930 . S
H1377 C1385 0.930 . S
H1378 C1386 0.930 . S
H1379 C1387 0.930 . S
H1380 C1390 0.930 . S
H1381 C1391 0.930 . S
C1382 H1376 0.930 . S
C1382 C1383 1.355 . S
C1382 C1384 1.415 . S
C1383 C1382 1.355 . S
C1383 C1385 1.419 . S
C1384 C1382 1.415 . S
C1384 C1389 1.425 . S
C1384 C1391 1.409 . S
C1385 H1377 0.930 . S
C1385 C1383 1.419 . S
C1385 C1386 1.362 . S
C1386 H1378 0.930 . S
C1386 C1385 1.362 . S
C1386 C1389 1.409 . S
C1387 H1379 0.930 . S
C1387 C1388 1.355 . S
C1387 C1389 1.415 . S
C1388 C1387 1.355 . S
C1388 C1390 1.419 . S
C1389 C1384 1.425 . S
C1389 C1386 1.409 . S
C1389 C1387 1.415 . S
C1390 H1380 0.930 . S
C1390 C1388 1.419 . S
C1390 C1391 1.362 . S
C1391 H1381 0.930 . S
C1391 C1384 1.409 . S
C1391 C1390 1.362 . S
H1392 C1398 0.930 . S
H1393 C1401 0.930 . S
H1394 C1402 0.930 . S
H1395 C1403 0.930 . S
H1396 C1406 0.930 . S
H1397 C1407 0.930 . S
C1398 H1392 0.930 . S
C1398 C1399 1.355 . S
C1398 C1400 1.415 . S
C1399 C1398 1.355 . S
C1399 C1401 1.419 . S
C1400 C1398 1.415 . S
C1400 C1405 1.425 . S
C1400 C1407 1.409 . S
C1401 H1393 0.930 . S
C1401 C1399 1.419 . S
C1401 C1402 1.362 . S
C1402 H1394 0.930 . S
C1402 C1401 1.362 . S
C1402 C1405 1.409 . S
C1403 H1395 0.930 . S
C1403 C1404 1.355 . S
C1403 C1405 1.415 . S
C1404 C1403 1.355 . S
C1404 C1406 1.419 . S
C1405 C1400 1.425 . S
C1405 C1402 1.409 . S
C1405 C1403 1.415 . S
C1406 H1396 0.930 . S
C1406 C1404 1.419 . S
C1406 C1407 1.362 . S
C1407 H1397 0.930 . S
C1407 C1400 1.409 . S
C1407 C1406 1.362 . S
H1408 C1414 0.930 1_556 S
H1409 C1417 0.930 . S
H1410 C1418 0.930 . S
H1411 C1419 0.930 1_554 S
H1412 C1422 0.930 . S
H1413 C1423 0.930 . S
C1414 H1408 0.930 1_554 S
C1414 C1415 1.355 . S
C1414 C1416 1.415 1_554 S
C1415 C1414 1.355 . S
C1415 C1417 1.419 . S
C1416 C1414 1.415 1_556 S
C1416 C1421 1.425 1_556 S
C1416 C1423 1.409 . S
C1417 H1409 0.930 . S
C1417 C1415 1.419 . S
C1417 C1418 1.362 . S
C1418 H1410 0.930 . S
C1418 C1417 1.362 . S
C1418 C1421 1.409 . S
C1419 H1411 0.930 1_556 S
C1419 C1420 1.355 . S
C1419 C1421 1.415 1_556 S
C1420 C1419 1.355 . S
C1420 C1422 1.419 . S
C1421 C1416 1.425 1_554 S
C1421 C1418 1.409 . S
C1421 C1419 1.415 1_554 S
C1422 H1412 0.930 . S
C1422 C1420 1.419 . S
C1422 C1423 1.362 . S
C1423 H1413 0.930 . S
C1423 C1416 1.409 . S
C1423 C1422 1.362 . S
H1424 C1430 0.930 . S
H1425 C1433 0.930 . S
H1426 C1434 0.930 . S
H1427 C1435 0.930 . S
H1428 C1438 0.930 . S
H1429 C1439 0.930 . S
C1430 H1424 0.930 . S
C1430 C1431 1.355 . S
C1430 C1432 1.415 . S
C1431 C1430 1.355 . S
C1431 C1433 1.419 . S
C1432 C1430 1.415 . S
C1432 C1437 1.425 . S
C1432 C1439 1.409 . S
C1433 H1425 0.930 . S
C1433 C1431 1.419 . S
C1433 C1434 1.362 . S
C1434 H1426 0.930 . S
C1434 C1433 1.362 . S
C1434 C1437 1.409 . S
C1435 H1427 0.930 . S
C1435 C1436 1.355 . S
C1435 C1437 1.415 . S
C1436 C1435 1.355 . S
C1436 C1438 1.419 . S
C1437 C1432 1.425 . S
C1437 C1434 1.409 . S
C1437 C1435 1.415 . S
C1438 H1428 0.930 . S
C1438 C1436 1.419 . S
C1438 C1439 1.362 . S
C1439 H1429 0.930 . S
C1439 C1432 1.409 . S
C1439 C1438 1.362 . S
H1440 C1446 0.930 . S
H1441 C1449 0.930 . S
H1442 C1450 0.930 . S
H1443 C1451 0.930 . S
H1444 C1454 0.930 . S
H1445 C1455 0.930 . S
C1446 H1440 0.930 . S
C1446 C1447 1.355 . S
C1446 C1448 1.415 . S
C1447 C1446 1.355 . S
C1447 C1449 1.419 . S
C1448 C1446 1.415 . S
C1448 C1453 1.425 . S
C1448 C1455 1.409 . S
C1449 H1441 0.930 . S
C1449 C1447 1.419 . S
C1449 C1450 1.362 . S
C1450 H1442 0.930 . S
C1450 C1449 1.362 . S
C1450 C1453 1.409 . S
C1451 H1443 0.930 . S
C1451 C1452 1.355 . S
C1451 C1453 1.415 . S
C1452 C1451 1.355 . S
C1452 C1454 1.419 . S
C1453 C1448 1.425 . S
C1453 C1450 1.409 . S
C1453 C1451 1.415 . S
C1454 H1444 0.930 . S
C1454 C1452 1.419 . S
C1454 C1455 1.362 . S
C1455 H1445 0.930 . S
C1455 C1448 1.409 . S
C1455 C1454 1.362 . S
H1456 C1462 0.930 . S
H1457 C1465 0.930 . S
H1458 C1466 0.930 . S
H1459 C1467 0.930 . S
H1460 C1470 0.930 . S
H1461 C1471 0.930 . S
C1462 H1456 0.930 . S
C1462 C1463 1.355 . S
C1462 C1464 1.415 . S
C1463 C1462 1.355 . S
C1463 C1465 1.419 . S
C1464 C1462 1.415 . S
C1464 C1469 1.425 . S
C1464 C1471 1.409 . S
C1465 H1457 0.930 . S
C1465 C1463 1.419 . S
C1465 C1466 1.362 . S
C1466 H1458 0.930 . S
C1466 C1465 1.362 . S
C1466 C1469 1.409 . S
C1467 H1459 0.930 . S
C1467 C1468 1.355 . S
C1467 C1469 1.415 . S
C1468 C1467 1.355 . S
C1468 C1470 1.419 . S
C1469 C1464 1.425 . S
C1469 C1466 1.409 . S
C1469 C1467 1.415 . S
C1470 H1460 0.930 . S
C1470 C1468 1.419 . S
C1470 C1471 1.362 . S
C1471 H1461 0.930 . S
C1471 C1464 1.409 . S
C1471 C1470 1.362 . S
C455 C9 1.233 . S
C460 C191 1.216 . S
C471 C359 1.227 . S
C476 C23 1.222 . S
C487 C37 1.229 . S
C492 C219 1.242 . S
C503 C51 1.222 . S
C508 C345 1.227 . S
C519 C65 1.238 . S
C524 C247 1.220 . S
C535 C79 1.230 . S
C540 C317 1.216 . S
C551 C93 1.235 . S
C556 C275 1.216 . S
C567 C443 1.241 . S
C572 C107 1.233 . S
C583 C303 1.221 . S
C588 C121 1.224 . S
C599 C135 1.236 . S
C604 C261 1.238 . S
C615 C331 1.242 . S
C620 C149 1.227 . S
C631 C163 1.238 . S
C636 C233 1.219 . S
C647 C205 1.234 . S
C652 C177 1.238 . S
C663 C289 1.218 . S
C668 C401 1.237 . S
C679 C415 1.232 . S
C684 C373 1.239 . S
C695 C429 1.229 . S
C700 C387 1.240 . S
C711 C5 1.707 . S
C716 C19 1.714 . S
C727 C28 1.468 . S
C732 C25 1.529 . S
C743 C47 1.717 . S
C748 C33 1.728 . S
C759 C53 1.492 . S
C764 C0 1.507 . S
C775 C103 1.744 . S
C780 C61 1.736 . S
C791 C81 1.516 . S
C796 C56 1.432 . S
C807 C89 1.736 . S
C812 C75 1.744 . S
C823 C84 1.483 . S
C828 C109 1.524 . S
C839 C126 1.468 . S
C844 C11 1.529 . S
C855 C123 1.484 . S
C860 C42 1.502 . S
C871 C151 1.504 . S
C876 C14 1.505 . S
C887 C389 1.484 . S
C892 C98 1.501 . S
C903 C392 1.457 . S
C908 C39 1.530 . S
C919 C154 1.472 . S
C924 C67 1.528 . S
C935 C95 1.479 . S
C940 C168 1.488 . S
C951 C207 1.694 . S
C956 C193 1.696 . S
C967 C210 1.515 . S
C972 C201 1.565 . S
C983 C235 1.667 . S
C988 C221 1.668 . S
C999 C182 1.568 . S
C1004 C229 1.529 . S
C1015 C249 1.671 . S
C1020 C291 1.672 . S
C1031 C238 1.517 . S
C1036 C257 1.571 . S
C1047 C277 1.665 . S
C1052 C263 1.665 . S
C1063 C266 1.516 . S
C1068 C285 1.569 . S
C1079 C187 1.529 . S
C1084 C308 1.544 . S
C1095 C299 1.529 . S
C1100 C224 1.544 . S
C1111 C327 1.568 . S
C1116 C196 1.515 . S
C1127 C425 1.554 . S
C1132 C280 1.517 . S
C1143 C434 1.558 . S
C1148 C215 1.526 . S
C1159 C243 1.552 . S
C1164 C336 1.518 . S
C1175 C350 1.515 . S
C1180 C271 1.560 . S
C1191 C173 1.740 . S
C1196 C369 1.730 . S
C1207 C378 1.488 . S
C1212 C179 1.479 . S
C1223 C159 1.708 . S
C1228 C383 1.705 . S
C1239 C165 1.518 . S
C1244 C364 1.433 . S
C1255 C117 1.720 . S
C1260 C397 1.731 . S
C1271 C137 1.488 . S
C1276 C112 1.453 . S
C1287 C145 1.708 . S
C1292 C131 1.716 . S
C1303 C140 1.483 . S
C1308 C403 1.524 . S
C1319 C375 1.479 . S
C1324 C70 1.480 . S
C1335 C361 1.701 . S
C1340 C417 1.700 . S
C1351 C355 1.575 . S
C1356 C420 1.520 . S
C1367 C431 1.665 . S
C1372 C347 1.665 . S
C1383 C341 1.561 . S
C1388 C406 1.564 . S
C1399 C445 1.688 . S
C1404 C305 1.690 . S
C1415 C294 1.571 . S
C1420 C313 1.532 . S
C1431 C333 1.680 . S
C1436 C319 1.679 . S
C1447 C322 1.516 . S
C1452 C439 1.569 . S
C1463 C411 1.531 . S
C1468 C252 1.538 . S
