# Generated by pormake.
# Topology zfv, (5)-cn, num edge types: 1
# Building blocks:
#     Node 0, Type 0, BuildingBlock: XOMCOT_clean_sbu_1, # of connection points: 5
#     Node 1, Type 0, BuildingBlock: XOMCOT_clean_sbu_1, # of connection points: 5
#     Node 2, Type 0, BuildingBlock: XOMCOT_clean_sbu_1, # of connection points: 5
#     Node 3, Type 0, BuildingBlock: XOMCOT_clean_sbu_1, # of connection points: 5
#     Node 4, Type 0, BuildingBlock: XOMCOT_clean_sbu_1, # of connection points: 5
#     Node 5, Type 0, BuildingBlock: XOMCOT_clean_sbu_1, # of connection points: 5
#     Node 6, Type 0, BuildingBlock: XOMCOT_clean_sbu_1, # of connection points: 5
#     Node 7, Type 0, BuildingBlock: XOMCOT_clean_sbu_1, # of connection points: 5
#     Node 8, Type 0, BuildingBlock: XOMCOT_clean_sbu_1, # of connection points: 5
#     Node 9, Type 0, BuildingBlock: XOMCOT_clean_sbu_1, # of connection points: 5
#     Node 10, Type 0, BuildingBlock: XOMCOT_clean_sbu_1, # of connection points: 5
#     Node 11, Type 0, BuildingBlock: XOMCOT_clean_sbu_1, # of connection points: 5
#     Node 12, Type 0, BuildingBlock: XOMCOT_clean_sbu_1, # of connection points: 5
#     Node 13, Type 0, BuildingBlock: XOMCOT_clean_sbu_1, # of connection points: 5
#     Node 14, Type 0, BuildingBlock: XOMCOT_clean_sbu_1, # of connection points: 5
#     Node 15, Type 0, BuildingBlock: XOMCOT_clean_sbu_1, # of connection points: 5
#     Edge 16, Type (0, 0), None
#     Edge 17, Type (0, 0), None
#     Edge 18, Type (0, 0), None
#     Edge 19, Type (0, 0), None
#     Edge 20, Type (0, 0), None
#     Edge 21, Type (0, 0), None
#     Edge 22, Type (0, 0), None
#     Edge 23, Type (0, 0), None
#     Edge 24, Type (0, 0), None
#     Edge 25, Type (0, 0), None
#     Edge 26, Type (0, 0), None
#     Edge 27, Type (0, 0), None
#     Edge 28, Type (0, 0), None
#     Edge 29, Type (0, 0), None
#     Edge 30, Type (0, 0), None
#     Edge 31, Type (0, 0), None
#     Edge 32, Type (0, 0), None
#     Edge 33, Type (0, 0), None
#     Edge 34, Type (0, 0), None
#     Edge 35, Type (0, 0), None
#     Edge 36, Type (0, 0), None
#     Edge 37, Type (0, 0), None
#     Edge 38, Type (0, 0), None
#     Edge 39, Type (0, 0), None
#     Edge 40, Type (0, 0), None
#     Edge 41, Type (0, 0), None
#     Edge 42, Type (0, 0), None
#     Edge 43, Type (0, 0), None
#     Edge 44, Type (0, 0), None
#     Edge 45, Type (0, 0), None
#     Edge 46, Type (0, 0), None
#     Edge 47, Type (0, 0), None
#     Edge 48, Type (0, 0), None
#     Edge 49, Type (0, 0), None
#     Edge 50, Type (0, 0), None
#     Edge 51, Type (0, 0), None
#     Edge 52, Type (0, 0), None
#     Edge 53, Type (0, 0), None
#     Edge 54, Type (0, 0), None
#     Edge 55, Type (0, 0), None
# Relax obj value: 0.097
# Max RMSD: 0.103
# Mean RMSD: 0.103
data_MOF--net-zfv--node1-XOMCOT_clean_sbu_1--edge1-none
_symmetry_space_group_name_H-M    P1
_symmetry_Int_Tables_number       1
_symmetry_cell_setting            triclinic
loop_
_symmetry_equiv_pos_as_xyz
'x, y, z'
_cell_length_a     37.590828
_cell_length_b     37.581925
_cell_length_c     9.4361918
_cell_angle_alpha  89.908792
_cell_angle_beta   90.007479
_cell_angle_gamma 90.032618
loop_
_atom_site_label
_atom_site_type_symbol
_atom_site_fract_x
_atom_site_fract_y
_atom_site_fract_z
_atom_type_partial_charge
C0 C 0.05908 0.59262 0.30439 0.0
C1 C 0.06043 0.58986 0.44981 0.0
N2 N 0.09361 0.58018 0.48572 0.0
N3 N 0.09153 0.5857 0.24897 0.0
C4 C 0.11154 0.57649 0.36244 0.0
H5 H 0.03624 0.60103 0.24324 0.0
Co6 Co 0.10262 0.59018 0.05359 0.0
C7 C 0.17083 0.62531 0.1823 0.0
O8 O 0.16037 0.62903 0.31384 0.0
N9 N 0.11277 0.59311 0.85648 0.0
C10 C 0.14138 0.59711 0.64943 0.0
C11 C 0.14378 0.60245 0.79322 0.0
C12 C 0.092 0.58196 0.7476 0.0
N13 N 0.10883 0.58425 0.62151 0.0
O14 O 0.12032 0.54213 0.05205 0.0
H15 H 0.1672 0.61223 0.84647 0.0
H16 H 0.06523 0.57187 0.76017 0.0
O17 O 0.15032 0.61107 0.09008 0.0
C18 C 0.09164 0.52462 0.03255 0.0
O19 O 0.06154 0.54233 1.02562 0.0
N20 N 0.08108 0.63591 0.05223 0.0
C21 C 0.03137 0.69006 0.10227 0.0
C22 C 0.06339 0.68875 0.17814 0.0
C23 C 0.08797 0.66167 0.1507 0.0
C24 C 0.0509 0.638 0.97253 0.0
C25 C 0.0262 0.66516 0.99347 0.0
H26 H 0.11035 0.6596 0.22006 0.0
H27 H 0.044 0.61684 0.90094 0.0
H28 H 0.13914 0.56858 0.35576 0.0
H29 H 0.03956 0.59701 0.52344 0.0
H30 H 0.16165 0.60307 0.57169 0.0
H31 H 0.06848 0.70687 0.2649 0.0
H32 H 1.00218 0.66526 0.93012 0.0
C33 C 0.75618 0.74662 0.5862 0.0
C34 C 0.75501 0.74801 0.7319 0.0
N35 N 0.73947 0.7788 0.7675 0.0
N36 N 0.74068 0.77604 0.52998 0.0
C37 C 0.73217 0.79571 0.64512 0.0
H38 H 0.76672 0.72462 0.52601 0.0
Co39 Co 0.7311 0.78397 0.3333 0.0
C40 C 0.68407 0.84432 0.4393 0.0
O41 O 0.66385 0.82327 0.51586 0.0
N42 N 0.72247 0.79159 0.13956 0.0
C43 C 0.70588 0.81595 0.9344 0.0
C44 C 0.70217 0.8172 0.07903 0.0
C45 C 0.73785 0.77471 0.02882 0.0
N46 N 0.72851 0.78941 0.9039 0.0
O47 O 0.77802 0.80439 0.31164 0.0
H48 H 0.68584 0.83613 0.13517 0.0
H49 H 0.75598 0.75259 0.03906 0.0
O50 O 0.71088 0.83176 0.37246 0.0
C51 C 0.7973 0.77726 0.28577 0.0
O52 O 0.78181 0.74597 0.28048 0.0
N53 N 0.68718 0.75922 0.34969 0.0
C54 C 0.63039 0.71335 0.41103 0.0
C55 C 0.62425 0.74782 0.35844 0.0
C56 C 0.65309 0.77008 0.32403 0.0
C57 C 0.69331 0.72437 0.38132 0.0
C58 C 0.66562 0.70129 0.41513 0.0
H59 H 0.64783 0.79617 0.28093 0.0
H60 H 0.72008 0.71418 0.38057 0.0
H61 H 0.72132 0.82207 0.64196 0.0
H62 H 0.76367 0.72755 0.80492 0.0
H63 H 0.69293 0.83311 0.85822 0.0
H64 H 0.59752 0.75756 0.34613 0.0
H65 H 0.67196 0.67406 0.44292 0.0
C66 C 0.57524 0.42776 0.82545 0.0
C67 C 0.57324 0.42803 0.97117 0.0
N68 N 0.53875 0.42616 1.00671 0.0
N69 N 0.54223 0.42463 0.76906 0.0
C70 C 0.5205 0.42558 0.88348 0.0
H71 H 0.59963 0.42922 0.7655 0.0
Co72 Co 0.53124 0.41859 0.5731 0.0
C73 C 0.47146 0.37439 0.70453 0.0
O74 O 0.49244 0.3593 0.79823 0.0
N75 N 0.52083 0.41367 0.37921 0.0
C76 C 0.4918 0.40857 0.17399 0.0
C77 C 0.48936 0.40488 0.31859 0.0
C78 C 0.54206 0.42249 0.26879 0.0
N79 N 0.52483 0.41988 0.14349 0.0
O80 O 0.5111 0.46571 0.56844 0.0
H81 H 0.46554 0.39707 0.37453 0.0
H82 H 0.56925 0.43146 0.28054 0.0
O83 O 0.48404 0.39739 0.61792 0.0
C84 C 0.53794 0.48532 0.5411 0.0
O85 O 0.56913 0.46998 0.52718 0.0
N86 N 0.55567 0.37437 0.57229 0.0
C87 C 0.60339 0.31933 0.63353 0.0
C88 C 0.56678 0.31261 0.62117 0.0
C89 C 0.54336 0.34035 0.5853 0.0
C90 C 0.5914 0.38015 0.56395 0.0
C91 C 0.6157 0.35332 0.59678 0.0
H92 H 0.51561 0.33445 0.57169 0.0
H93 H 0.60119 0.4065 0.53969 0.0
H94 H 0.49183 0.42529 0.87741 0.0
H95 H 0.59536 0.42827 0.04452 0.0
H96 H 0.47094 0.40331 0.09781 0.0
H97 H 0.55637 0.28654 0.64432 0.0
H98 H 0.64386 0.35941 0.59594 0.0
C99 C 0.90161 0.26068 0.03755 0.0
C100 C 0.89901 0.25927 0.18302 0.0
N101 N 0.89003 0.22588 0.2192 0.0
N102 N 0.89532 0.22807 0.98239 0.0
C103 C 0.88659 0.20787 0.09603 0.0
H104 H 0.90951 0.28369 0.97621 0.0
Co105 Co 0.90006 0.21701 0.78729 0.0
C106 C 0.93652 0.14929 0.91695 0.0
O107 O 0.93966 0.15956 0.04894 0.0
N108 N 0.90317 0.2069 0.59033 0.0
C109 C 0.90704 0.17818 0.38364 0.0
C110 C 0.91234 0.17582 0.52753 0.0
C111 C 0.89209 0.22766 0.4811 0.0
N112 N 0.89433 0.21077 0.35522 0.0
O113 O 0.85243 0.19819 0.78597 0.0
H114 H 0.92185 0.15233 0.58126 0.0
H115 H 0.88197 0.25441 0.49333 0.0
O116 O 0.92207 0.16968 0.82452 0.0
C117 C 0.83371 0.22603 0.76496 0.0
O118 O 0.85015 0.2568 0.75477 0.0
N119 N 0.94538 0.23953 0.78628 0.0
C120 C 0.99901 0.28982 0.83806 0.0
C121 C 0.99775 0.2578 0.91419 0.0
C122 C 0.97101 0.23293 0.88575 0.0
C123 C 0.9473 0.26978 0.70668 0.0
C124 C 0.97422 0.29478 0.72849 0.0
H125 H 0.96899 0.21057 0.95534 0.0
H126 H 0.92622 0.27645 0.63425 0.0
H127 H 0.87914 0.18013 0.08952 0.0
H128 H 0.90576 0.28031 0.25646 0.0
H129 H 0.91282 0.15782 0.30623 0.0
H130 H 0.01565 0.25289 1.00192 0.0
H131 H 0.97425 0.31878 0.66491 0.0
C132 C 0.06086 0.44853 0.71399 0.0
C133 C 0.06175 0.44667 0.56824 0.0
N134 N 0.08985 0.42662 0.53266 0.0
N135 N 0.08798 0.4293 0.77003 0.0
C136 C 0.10564 0.41719 0.65498 0.0
H137 H 0.04044 0.46179 0.7745 0.0
Co138 Co 0.09476 0.41884 0.96604 0.0
C139 C 0.15741 0.3717 0.87045 0.0
O140 O 0.13878 0.34875 0.79636 0.0
N141 N 0.10135 0.40919 0.16009 0.0
C142 C 0.12456 0.39073 0.36491 0.0
C143 C 0.12582 0.38743 0.22023 0.0
C144 C 0.0852 0.42511 0.27141 0.0
N145 N 0.09922 0.41464 0.39613 0.0
O146 O 0.11563 0.46544 0.99214 0.0
H147 H 0.14417 0.3705 0.16394 0.0
H148 H 0.06418 0.4445 0.2619 0.0
O149 O 0.14245 0.3985 0.92929 0.0
C150 C 0.0894 0.48576 1.01997 0.0
O151 O 0.0575 0.47159 0.02597 0.0
N152 N 0.06986 0.37542 0.94401 0.0
C153 C 0.0236 0.31923 0.88002 0.0
C154 C 0.05763 0.31266 0.93585 0.0
C155 C 0.08011 0.3412 0.97096 0.0
C156 C 0.03554 0.38208 0.90571 0.0
C157 C 0.01228 0.35466 0.87096 0.0
H158 H 0.10569 0.33558 1.0175 0.0
H159 H 0.02593 0.40909 0.90199 0.0
H160 H 0.12955 0.40185 0.65818 0.0
H161 H 0.04265 0.45803 0.49533 0.0
H162 H 0.14116 0.37683 0.44042 0.0
H163 H 0.06684 0.28578 0.95095 0.0
H164 H 0.98543 0.36137 0.83918 0.0
C165 C 0.87512 0.74928 0.96729 0.0
C166 C 0.87659 0.75056 0.82161 0.0
N167 N 0.89407 0.78035 0.78596 0.0
N168 N 0.89219 0.77781 1.02338 0.0
C169 C 0.90231 0.79676 0.90823 0.0
H170 H 0.8634 0.72783 0.02753 0.0
Co171 Co 0.90194 0.78549 0.21975 0.0
C172 C 0.94892 0.84736 0.11829 0.0
O173 O 0.97092 0.82748 0.04491 0.0
N174 N 0.91084 0.79295 0.41348 0.0
C175 C 0.92791 0.81716 0.61803 0.0
C176 C 0.93136 0.81847 0.47334 0.0
C177 C 0.89558 0.77609 0.52479 0.0
N178 N 0.90521 0.79069 0.64933 0.0
O179 O 0.85479 0.80529 0.24279 0.0
H180 H 0.94765 0.8374 0.41679 0.0
H181 H 0.87733 0.75405 0.51538 0.0
O182 O 0.92189 0.83351 0.18024 0.0
C183 C 0.83611 0.77774 0.26984 0.0
O184 O 0.85225 0.7468 0.27583 0.0
N185 N 0.94572 0.76109 0.20211 0.0
C186 C 1.00203 0.71468 0.14382 0.0
C187 C 0.0085 0.74902 0.19659 0.0
C188 C 0.97985 0.77161 0.22924 0.0
C189 C 0.93923 0.72641 0.1691 0.0
C190 C 0.9667 0.70307 0.13693 0.0
H191 H 0.98527 0.79752 0.27343 0.0
H192 H 0.91233 0.71655 0.16774 0.0
H193 H 0.91514 0.82219 0.91132 0.0
H194 H 0.86672 0.73069 0.74869 0.0
H195 H 0.94099 0.83433 0.69362 0.0
H196 H 0.03535 0.75831 0.21086 0.0
H197 H 0.96011 0.67595 0.1085 0.0
C198 C 0.57147 0.59231 0.26135 0.0
C199 C 0.5701 0.58981 0.11589 0.0
N200 N 0.53674 0.58079 0.07976 0.0
N201 N 0.53887 0.58588 0.31658 0.0
C202 C 0.51872 0.57721 0.20293 0.0
H203 H 0.59445 0.6002 0.32262 0.0
Co204 Co 0.5278 0.59058 0.51162 0.0
C205 C 0.45957 0.62591 0.38236 0.0
O206 O 0.47007 0.63015 0.25103 0.0
N207 N 0.51771 0.59375 0.70858 0.0
C208 C 0.48891 0.59728 0.91534 0.0
C209 C 0.48649 0.60249 0.7714 0.0
C210 C 0.53863 0.58305 0.81785 0.0
N211 N 0.52168 0.58505 0.94375 0.0
O212 O 0.50923 0.54285 0.51382 0.0
H213 H 0.46287 0.6116 0.71767 0.0
H214 H 0.56549 0.57327 0.80565 0.0
O215 O 0.48024 0.61174 0.47434 0.0
C216 C 0.53715 0.52434 0.53527 0.0
O217 O 0.56781 0.54098 0.54478 0.0
N218 N 0.55008 0.63607 0.51178 0.0
C219 C 0.60079 0.68916 0.45565 0.0
C220 C 0.56804 0.68878 0.38446 0.0
C221 C 0.54301 0.6622 0.41472 0.0
C222 C 0.58094 0.63733 0.58754 0.0
C223 C 0.60619 0.66391 0.56339 0.0
H224 H 0.51996 0.66081 0.34863 0.0
H225 H 0.58785 0.61587 0.65796 0.0
H226 H 0.49099 0.5697 0.20945 0.0
H227 H 0.59114 0.59665 0.04244 0.0
H228 H 0.46845 0.60274 0.99278 0.0
H229 H 0.56262 0.70723 0.29896 0.0
H230 H 0.63071 0.6633 0.62358 0.0
C231 C 0.72485 0.26249 0.4875 0.0
C232 C 0.7267 0.261 0.34209 0.0
N233 N 0.73545 0.22759 0.3062 0.0
N234 N 0.73142 0.22993 0.5431 0.0
C235 C 0.73952 0.20964 0.42939 0.0
H236 H 0.71789 0.28579 0.54822 0.0
Co237 Co 0.72777 0.21871 0.73786 0.0
C238 C 0.69163 0.15089 0.61079 0.0
O239 O 0.68528 0.16241 0.48197 0.0
N240 N 0.7255 0.2083 0.93389 0.0
C241 C 0.72783 0.17823 0.13834 0.0
C242 C 0.72378 0.17554 0.99393 0.0
C243 C 0.73124 0.23043 0.04479 0.0
N244 N 0.73263 0.21273 0.16936 0.0
O245 O 0.77525 0.19955 0.7356 0.0
H246 H 0.7211 0.15077 0.9372 0.0
H247 H 0.73577 0.25869 0.03463 0.0
O248 O 0.70651 0.1712 0.70196 0.0
C249 C 0.79466 0.2266 0.76118 0.0
O250 O 0.77901 0.2576 0.77664 0.0
N251 N 0.68254 0.24158 0.74224 0.0
C252 C 0.62892 0.29135 0.68175 0.0
C253 C 0.62629 0.25616 0.63389 0.0
C254 C 0.65335 0.23173 0.6652 0.0
C255 C 0.68428 0.2751 0.79712 0.0
C256 C 0.65778 0.30023 0.76916 0.0
H257 H 0.6518 0.20616 0.61661 0.0
H258 H 0.70815 0.28383 0.85002 0.0
H259 H 0.74707 0.18193 0.43635 0.0
H260 H 0.72019 0.2822 0.26886 0.0
H261 H 0.72727 0.15659 0.21403 0.0
H262 H 0.60478 0.24813 0.56459 0.0
H263 H 0.66089 0.32699 0.8098 0.0
C264 C 0.37202 0.25376 0.51044 0.0
C265 C 0.37289 0.25576 0.36501 0.0
N266 N 0.39514 0.28227 0.33001 0.0
N267 N 0.39324 0.27922 0.56659 0.0
C268 C 0.40716 0.29607 0.45255 0.0
H269 H 0.35769 0.23391 0.57039 0.0
Co270 Co 0.40208 0.28534 0.76151 0.0
C271 C 0.43518 0.36013 0.68538 0.0
O272 O 0.41142 0.37732 0.60974 0.0
N273 N 0.41115 0.29125 0.95642 0.0
C274 C 0.43908 0.30429 0.15868 0.0
C275 C 0.4415 0.30438 1.01332 0.0
C276 C 0.39089 0.28265 0.06987 0.0
N277 N 0.40726 0.29054 0.19279 0.0
O278 O 0.35691 0.30953 0.77928 0.0
H279 H 0.4646 0.31226 0.95331 0.0
H280 H 0.36494 0.27045 0.06405 0.0
O281 O 0.42883 0.32874 0.72974 0.0
C282 C 0.3363 0.283 0.80071 0.0
O283 O 0.35078 0.2515 0.81897 0.0
N284 N 0.44322 0.25831 0.74379 0.0
C285 C 0.4959 0.20805 0.69632 0.0
C286 C 0.49741 0.2412 0.62939 0.0
C287 C 0.47091 0.26629 0.65572 0.0
C288 C 0.44135 0.22609 0.8096 0.0
C289 C 0.46764 0.20054 0.7881 0.0
H290 H 0.4717 0.2912 0.59939 0.0
H291 H 0.41867 0.2198 0.8756 0.0
H292 H 0.42656 0.31718 0.45783 0.0
H293 H 0.35974 0.23808 0.2913 0.0
H294 H 0.45956 0.31214 0.23297 0.0
H295 H 0.51794 0.24687 0.55221 0.0
H296 H 0.4655 0.17489 0.83999 0.0
C297 C 0.26781 0.74239 0.96687 0.0
C298 C 0.26482 0.74207 0.82219 0.0
N299 N 0.23447 0.72524 0.78936 0.0
N300 N 0.2396 0.72547 0.0257 0.0
C301 C 0.21943 0.71565 0.91345 0.0
H302 H 0.28892 0.75553 1.02356 0.0
Co303 Co 0.22918 0.72211 0.22047 0.0
C304 C 0.20098 0.64727 0.13504 0.0
O305 O 0.21927 0.63914 1.02114 0.0
N306 N 0.21796 0.7189 0.41492 0.0
C307 C 0.18884 0.70703 0.61627 0.0
C308 C 0.18708 0.70651 0.47046 0.0
C309 C 0.23788 0.72717 0.52938 0.0
N310 N 0.22086 0.72008 0.65178 0.0
O311 O 0.27518 0.69971 0.25353 0.0
H312 H 0.16457 0.69747 0.40905 0.0
H313 H 0.26446 0.73781 0.52454 0.0
O314 O 0.20571 0.67684 0.19789 0.0
C315 C 0.29489 0.72673 0.27711 0.0
O316 O 0.27961 0.75818 0.28167 0.0
N317 N 0.18721 0.74754 0.18933 0.0
C318 C 0.13277 0.79591 0.13592 0.0
C319 C 0.12671 0.75927 0.12247 0.0
C320 C 0.15454 0.7353 0.1488 0.0
C321 C 0.19322 0.78305 0.20454 0.0
C322 C 0.16645 0.80773 0.17769 0.0
H323 H 0.14996 0.70725 0.13384 0.0
H324 H 0.21931 0.79229 0.23555 0.0
H325 H 0.19392 0.70256 0.92246 0.0
H326 H 0.2829 0.75434 0.74767 0.0
H327 H 0.16834 0.6986 0.68949 0.0
H328 H 0.10108 0.74949 0.08772 0.0
H329 H 0.17204 0.83586 0.18924 0.0
C330 C 0.24399 0.24779 0.05996 0.0
C331 C 0.24404 0.2499 0.20612 0.0
N332 N 0.23675 0.28375 0.24135 0.0
N333 N 0.23677 0.28017 1.00437 0.0
C334 C 0.23268 0.30155 0.11833 0.0
H335 H 0.24782 0.22389 0.99812 0.0
Co336 Co 0.23108 0.29072 0.81036 0.0
C337 C 0.19579 0.36585 0.88911 0.0
O338 O 0.21571 0.39077 0.94569 0.0
N339 N 0.22568 0.30112 0.61492 0.0
C340 C 0.21028 0.32602 0.40888 0.0
C341 C 0.20778 0.32839 0.5538 0.0
C342 C 0.23882 0.28242 0.5038 0.0
N343 N 0.22971 0.29708 0.37826 0.0
O344 O 0.27813 0.31124 0.80747 0.0
H345 H 0.19328 0.34878 0.60909 0.0
H346 H 0.25444 0.25842 0.51449 0.0
O347 O 0.20959 0.33591 0.85751 0.0
C348 C 0.2974 0.28378 0.78893 0.0
O349 O 0.28142 0.25303 0.77044 0.0
N350 N 0.18716 0.26725 0.81303 0.0
C351 C 0.13262 0.21777 0.84905 0.0
C352 C 0.13345 0.24897 0.93014 0.0
C353 C 0.16097 0.27362 0.91007 0.0
C354 C 0.18654 0.23704 0.73329 0.0
C355 C 0.15927 0.21221 0.74816 0.0
H356 H 0.16275 0.29625 0.98012 0.0
H357 H 0.20854 0.23084 0.66426 0.0
H358 H 0.2261 0.32944 0.11237 0.0
H359 H 0.24757 0.22812 0.27995 0.0
H360 H 0.19801 0.34362 0.33238 0.0
H361 H 0.11452 0.25296 1.01491 0.0
H362 H 0.15995 0.18799 0.68602 0.0
C363 C 0.36077 0.74174 0.59731 0.0
C364 C 0.3638 0.74146 0.74197 0.0
N365 N 0.39413 0.7246 0.77494 0.0
N366 N 0.38892 0.72476 0.53863 0.0
C367 C 0.40911 0.71496 0.65096 0.0
H368 H 0.33969 0.75493 0.54054 0.0
Co369 Co 0.39937 0.72142 0.34385 0.0
C370 C 0.42868 0.64676 0.42977 0.0
O371 O 0.41115 0.63824 0.54522 0.0
N372 N 0.41065 0.71826 0.14941 0.0
C373 C 0.43989 0.70673 0.94818 0.0
C374 C 0.44164 0.70619 0.09399 0.0
C375 C 0.39067 0.72636 0.03483 0.0
N376 N 0.40776 0.71948 0.91253 0.0
O377 O 0.35328 0.6992 0.31077 0.0
H378 H 0.46424 0.69742 0.15546 0.0
H379 H 0.364 0.73675 0.03948 0.0
O380 O 0.42301 0.67626 0.3673 0.0
C381 C 0.3339 0.72648 0.28723 0.0
O382 O 0.34956 0.75775 0.28244 0.0
N383 N 0.44126 0.74674 0.37501 0.0
C384 C 0.49567 0.79489 0.42908 0.0
C385 C 0.50174 0.75824 0.44174 0.0
C386 C 0.47391 0.73438 0.41527 0.0
C387 C 0.43526 0.78226 0.36043 0.0
C388 C 0.46204 0.80686 0.38765 0.0
H389 H 0.47851 0.70632 0.4297 0.0
H390 H 0.4092 0.79157 0.32952 0.0
H391 H 0.43461 0.70191 0.6421 0.0
H392 H 0.3458 0.75379 0.81638 0.0
H393 H 0.46048 0.69856 0.87505 0.0
H394 H 0.52741 0.74835 0.47558 0.0
H395 H 0.45653 0.83501 0.37616 0.0
C396 C 0.57763 0.04856 0.83229 0.0
C397 C 0.57855 0.05097 0.97709 0.0
N398 N 0.59625 0.08081 1.01034 0.0
N399 N 0.59523 0.07644 0.774 0.0
C400 C 0.60596 0.09594 0.88666 0.0
H401 H 0.5636 0.02812 0.77504 0.0
Co402 Co 0.59857 0.08666 0.5791 0.0
C403 C 0.67267 0.1188 0.65916 0.0
O404 O 0.68317 0.10116 0.77182 0.0
N405 N 0.60171 0.09758 0.38441 0.0
C406 C 0.61146 0.1275 0.1831 0.0
C407 C 0.61152 0.12938 0.32885 0.0
C408 C 0.59551 0.07691 0.27001 0.0
N409 N 0.60132 0.09444 0.14776 0.0
O410 O 0.62217 0.04143 0.54961 0.0
H411 H 0.61813 0.1527 0.39035 0.0
H412 H 0.58711 0.04952 0.27452 0.0
O413 O 0.64289 0.11191 0.60128 0.0
C414 C 0.59537 0.02138 0.52655 0.0
O415 O 0.56391 0.03641 0.51534 0.0
N416 N 0.57202 0.12772 0.60807 0.0
C417 C 0.52252 0.18058 0.66392 0.0
C418 C 0.55871 0.18652 0.69008 0.0
C419 C 0.58321 0.15945 0.66239 0.0
C420 C 0.53698 0.12189 0.57997 0.0
C421 C 0.51167 0.14795 0.60775 0.0
H422 H 0.61073 0.16371 0.68873 0.0
H423 H 0.52857 0.09647 0.53843 0.0
H424 H 0.61979 0.12106 0.87865 0.0
H425 H 0.566 0.03294 0.05132 0.0
H426 H 0.61776 0.14874 0.10973 0.0
H427 H 0.56768 0.21136 0.73576 0.0
H428 H 0.48388 0.14264 0.5859 0.0
C429 C 0.07257 0.93877 0.30237 0.0
C430 C 0.0706 0.93853 0.44841 0.0
N431 N 0.03811 0.92666 0.48416 0.0
N432 N 0.04138 0.92738 0.24713 0.0
C433 C 0.02089 0.92026 0.36156 0.0
H434 H 0.09583 0.9456 0.24065 0.0
Co435 Co 0.03182 0.92032 0.05289 0.0
C436 C 0.95604 0.8858 0.13054 0.0
O437 O 0.93189 0.90712 0.18405 0.0
N438 N 0.02258 0.91351 0.85781 0.0
C439 C 1.00022 0.89436 0.65251 0.0
C440 C 0.99822 0.89174 0.79747 0.0
C441 C 0.03938 0.92889 0.74631 0.0
N442 N 0.02609 0.91769 0.62124 0.0
O443 O 0.01093 0.96731 0.04268 0.0
H444 H 0.98024 0.87449 0.85362 0.0
H445 H 0.06109 0.94758 0.75617 0.0
O446 O 0.98663 0.89807 0.09797 0.0
C447 C 0.03839 0.9866 1.02222 0.0
O448 O 0.06929 0.97064 1.00909 0.0
N449 N 0.05563 0.87674 0.06177 0.0
C450 C 0.10469 0.8222 0.10352 0.0
C451 C 0.07331 0.82347 0.18332 0.0
C452 C 0.04878 0.85086 0.15985 0.0
C453 C 0.08606 0.87576 0.98328 0.0
C454 C 0.11076 0.84848 1.00123 0.0
H455 H 0.02571 0.85268 0.22761 0.0
H456 H 0.09226 0.89737 0.91181 0.0
H457 H 0.9943 0.9096 0.35638 0.0
H458 H 0.09178 0.94488 0.52182 0.0
H459 H 0.98461 0.87959 0.57641 0.0
H460 H 0.06903 0.80492 0.26934 0.0
H461 H 0.13513 0.84876 0.93994 0.0
C462 C 0.56069 0.93825 0.25558 0.0
C463 C 0.56271 0.93809 0.10969 0.0
N464 N 0.59398 0.92336 0.07419 0.0
N465 N 0.59071 0.92403 0.31097 0.0
C466 C 0.61045 0.91516 0.19667 0.0
H467 H 0.53813 0.94716 0.31696 0.0
Co468 Co 0.59973 0.91681 0.50548 0.0
C469 C 0.6746 0.88223 0.42767 0.0
O470 O 0.69666 0.90523 0.37048 0.0
N471 N 0.60836 0.90971 0.70076 0.0
C472 C 0.62815 0.88754 0.90561 0.0
C473 C 0.62986 0.88504 0.76072 0.0
C474 C 0.5934 0.92666 0.81249 0.0
N475 N 0.60524 0.91369 0.93717 0.0
O476 O 0.62274 0.96269 0.51364 0.0
H477 H 0.64525 0.8656 0.70421 0.0
H478 H 0.57385 0.9476 0.80338 0.0
O479 O 0.64346 0.89192 0.46414 0.0
C480 C 0.5956 0.98244 0.53325 0.0
O481 O 0.56455 0.967 0.55092 0.0
N482 N 0.57411 0.87447 0.49776 0.0
C483 C 0.52397 0.82096 0.45964 0.0
C484 C 0.55566 0.82083 0.38194 0.0
C485 C 0.58074 0.84773 0.40356 0.0
C486 C 0.54339 0.87488 0.57439 0.0
C487 C 0.51807 0.84812 0.5581 0.0
H488 H 0.60421 0.84833 0.33768 0.0
H489 H 0.53769 0.89703 0.64363 0.0
H490 H 0.6359 0.90203 0.20172 0.0
H491 H 0.54228 0.94651 0.03615 0.0
H492 H 0.64159 0.87064 0.98143 0.0
H493 H 0.55981 0.8015 0.2989 0.0
H494 H 0.49351 0.84934 0.61797 0.0
C495 C 0.05228 0.05185 0.70663 0.0
C496 C 0.05177 0.0547 0.56189 0.0
N497 N 0.03681 0.08605 0.52899 0.0
N498 N 0.03722 0.08105 0.76544 0.0
C499 C 0.0284 0.10169 0.6531 0.0
H500 H 0.06405 0.0299 0.76317 0.0
Co501 Co 0.03383 0.09162 0.96019 0.0
C502 C 0.95912 0.11955 0.87024 0.0
O503 O 0.95213 0.10198 0.75341 0.0
N504 N 0.03056 0.10286 0.1545 0.0
C505 C 0.01805 0.13154 0.35589 0.0
C506 C 0.01744 0.13338 0.21012 0.0
C507 C 0.03933 0.08307 0.26893 0.0
N508 N 0.03183 0.09981 0.39139 0.0
O509 O 0.01191 0.04545 0.99384 0.0
H510 H 0.00772 0.15566 0.14886 0.0
H511 H 0.05065 0.0568 0.26403 0.0
O512 O 0.98827 0.11474 0.93642 0.0
C513 C 0.03883 0.02567 1.0186 0.0
O514 O 0.07035 0.04083 1.02293 0.0
N515 N 0.05886 0.1339 0.92882 0.0
C516 C 0.10663 0.18918 0.87922 0.0
C517 C 0.0699 0.19506 0.86908 0.0
C518 C 0.04624 0.16683 0.89353 0.0
C519 C 0.09446 0.12801 0.94037 0.0
C520 C 0.11883 0.1552 0.91543 0.0
H521 H 0.01809 0.17138 0.8819 0.0
H522 H 0.10399 0.10174 0.96751 0.0
H523 H 0.01663 0.12782 0.66213 0.0
H524 H 0.06225 0.0355 0.48756 0.0
H525 H 0.00895 0.15171 0.42908 0.0
H526 H 0.05981 0.22089 0.83853 0.0
H527 H 0.14704 0.14971 0.92443 0.0
loop_
_geom_bond_atom_site_label_1
_geom_bond_atom_site_label_2
_geom_bond_distance
_geom_bond_site_symmetry_2
_ccdc_geom_bond_type
C0 C1 1.351 . S
C0 N3 1.368 . S
C0 H5 0.931 . S
C1 C0 1.351 . S
C1 N2 1.373 . S
C1 H29 0.930 . S
N2 C1 1.373 . S
N2 C4 1.340 . S
N3 C0 1.368 . S
N3 C4 1.321 . S
N3 Co6 2.135 . S
C4 N2 1.340 . S
C4 N3 1.321 . S
C4 H28 0.930 . S
H5 C0 0.931 . S
Co6 N3 2.135 . S
Co6 N9 2.121 1_554 S
Co6 O14 2.055 . S
Co6 O17 2.039 . S
Co6 N20 2.140 . S
C7 O8 1.227 . S
C7 O17 1.265 . S
O8 C7 1.227 . S
N9 Co6 2.121 1_556 S
N9 C11 1.375 . S
N9 C12 1.313 . S
C10 C11 1.338 . S
C10 N13 1.377 . S
C10 H30 0.930 . S
C11 N9 1.375 . S
C11 C10 1.338 . S
C11 H15 0.931 . S
C12 N9 1.313 . S
C12 N13 1.344 . S
C12 H16 0.930 . S
N13 C10 1.377 . S
N13 C12 1.344 . S
O14 Co6 2.055 . S
O14 C18 1.253 . S
H15 C11 0.931 . S
H16 C12 0.930 . S
O17 Co6 2.039 . S
O17 C7 1.265 . S
C18 O14 1.253 . S
C18 O19 1.227 . S
O19 C18 1.227 . S
N20 Co6 2.140 . S
N20 C23 1.346 . S
N20 C24 1.345 . S
C21 C22 1.387 1_655 S
C21 C25 1.391 . S
C22 C21 1.387 1_455 S
C22 C23 1.369 . S
C22 H31 0.929 . S
C23 N20 1.346 . S
C23 C22 1.369 . S
C23 H26 0.928 . S
C24 N20 1.345 . S
C24 C25 1.371 1_455 S
C24 H27 0.931 1_554 S
C25 C21 1.391 . S
C25 C24 1.371 1_655 S
C25 H32 0.930 1_554 S
H26 C23 0.928 . S
H27 C24 0.931 1_556 S
H28 C4 0.930 . S
H29 C1 0.930 . S
H30 C10 0.930 . S
H31 C22 0.929 . S
H32 C25 0.930 1_556 S
C33 C34 1.351 . S
C33 N36 1.368 . S
C33 H38 0.931 . S
C34 C33 1.351 . S
C34 N35 1.373 . S
C34 H62 0.930 . S
N35 C34 1.373 . S
N35 C37 1.340 . S
N36 C33 1.368 . S
N36 C37 1.321 . S
N36 Co39 2.135 . S
C37 N35 1.340 . S
C37 N36 1.321 . S
C37 H61 0.930 . S
H38 C33 0.931 . S
Co39 N36 2.135 . S
Co39 N42 2.121 . S
Co39 O47 2.055 . S
Co39 O50 2.039 . S
Co39 N53 2.140 . S
C40 O41 1.227 . S
C40 O50 1.265 . S
O41 C40 1.227 . S
N42 Co39 2.121 . S
N42 C44 1.375 . S
N42 C45 1.313 . S
C43 C44 1.338 1_556 S
C43 N46 1.377 . S
C43 H63 0.930 . S
C44 N42 1.375 . S
C44 C43 1.338 1_554 S
C44 H48 0.931 . S
C45 N42 1.313 . S
C45 N46 1.344 1_554 S
C45 H49 0.930 . S
N46 C43 1.377 . S
N46 C45 1.344 1_556 S
O47 Co39 2.055 . S
O47 C51 1.253 . S
H48 C44 0.931 . S
H49 C45 0.930 . S
O50 Co39 2.039 . S
O50 C40 1.265 . S
C51 O47 1.253 . S
C51 O52 1.227 . S
O52 C51 1.227 . S
N53 Co39 2.140 . S
N53 C56 1.346 . S
N53 C57 1.345 . S
C54 C55 1.387 . S
C54 C58 1.391 . S
C55 C54 1.387 . S
C55 C56 1.369 . S
C55 H64 0.929 . S
C56 N53 1.346 . S
C56 C55 1.369 . S
C56 H59 0.928 . S
C57 N53 1.345 . S
C57 C58 1.371 . S
C57 H60 0.931 . S
C58 C54 1.391 . S
C58 C57 1.371 . S
C58 H65 0.930 . S
H59 C56 0.928 . S
H60 C57 0.931 . S
H61 C37 0.930 . S
H62 C34 0.930 . S
H63 C43 0.930 . S
H64 C55 0.929 . S
H65 C58 0.930 . S
C66 C67 1.351 . S
C66 N69 1.368 . S
C66 H71 0.931 . S
C67 C66 1.351 . S
C67 N68 1.373 1_556 S
C67 H95 0.930 1_556 S
N68 C67 1.373 1_554 S
N68 C70 1.340 1_554 S
N69 C66 1.368 . S
N69 C70 1.321 . S
N69 Co72 2.135 . S
C70 N68 1.340 1_556 S
C70 N69 1.321 . S
C70 H94 0.930 . S
H71 C66 0.931 . S
Co72 N69 2.135 . S
Co72 N75 2.121 . S
Co72 O80 2.055 . S
Co72 O83 2.039 . S
Co72 N86 2.140 . S
C73 O74 1.227 . S
C73 O83 1.265 . S
O74 C73 1.227 . S
N75 Co72 2.121 . S
N75 C77 1.375 . S
N75 C78 1.313 . S
C76 C77 1.338 . S
C76 N79 1.377 . S
C76 H96 0.930 . S
C77 N75 1.375 . S
C77 C76 1.338 . S
C77 H81 0.931 . S
C78 N75 1.313 . S
C78 N79 1.344 . S
C78 H82 0.930 . S
N79 C76 1.377 . S
N79 C78 1.344 . S
O80 Co72 2.055 . S
O80 C84 1.253 . S
H81 C77 0.931 . S
H82 C78 0.930 . S
O83 Co72 2.039 . S
O83 C73 1.265 . S
C84 O80 1.253 . S
C84 O85 1.227 . S
O85 C84 1.227 . S
N86 Co72 2.140 . S
N86 C89 1.346 . S
N86 C90 1.345 . S
C87 C88 1.387 . S
C87 C91 1.391 . S
C88 C87 1.387 . S
C88 C89 1.369 . S
C88 H97 0.929 . S
C89 N86 1.346 . S
C89 C88 1.369 . S
C89 H92 0.928 . S
C90 N86 1.345 . S
C90 C91 1.371 . S
C90 H93 0.931 . S
C91 C87 1.391 . S
C91 C90 1.371 . S
C91 H98 0.930 . S
H92 C89 0.928 . S
H93 C90 0.931 . S
H94 C70 0.930 . S
H95 C67 0.930 1_554 S
H96 C76 0.930 . S
H97 C88 0.929 . S
H98 C91 0.930 . S
C99 C100 1.351 . S
C99 N102 1.368 . S
C99 H104 0.931 . S
C100 C99 1.351 . S
C100 N101 1.373 . S
C100 H128 0.930 . S
N101 C100 1.373 . S
N101 C103 1.340 . S
N102 C99 1.368 . S
N102 C103 1.321 . S
N102 Co105 2.135 1_554 S
C103 N101 1.340 . S
C103 N102 1.321 . S
C103 H127 0.930 . S
H104 C99 0.931 . S
Co105 N102 2.135 1_556 S
Co105 N108 2.121 . S
Co105 O113 2.055 . S
Co105 O116 2.039 . S
Co105 N119 2.140 . S
C106 O107 1.227 . S
C106 O116 1.265 . S
O107 C106 1.227 . S
N108 Co105 2.121 . S
N108 C110 1.375 . S
N108 C111 1.313 . S
C109 C110 1.338 . S
C109 N112 1.377 . S
C109 H129 0.930 . S
C110 N108 1.375 . S
C110 C109 1.338 . S
C110 H114 0.931 . S
C111 N108 1.313 . S
C111 N112 1.344 . S
C111 H115 0.930 . S
N112 C109 1.377 . S
N112 C111 1.344 . S
O113 Co105 2.055 . S
O113 C117 1.253 . S
H114 C110 0.931 . S
H115 C111 0.930 . S
O116 Co105 2.039 . S
O116 C106 1.265 . S
C117 O113 1.253 . S
C117 O118 1.227 . S
O118 C117 1.227 . S
N119 Co105 2.140 . S
N119 C122 1.346 . S
N119 C123 1.345 . S
C120 C121 1.387 . S
C120 C124 1.391 . S
C121 C120 1.387 . S
C121 C122 1.369 . S
C121 H130 0.929 1_556 S
C122 N119 1.346 . S
C122 C121 1.369 . S
C122 H125 0.928 1_556 S
C123 N119 1.345 . S
C123 C124 1.371 . S
C123 H126 0.931 . S
C124 C120 1.391 . S
C124 C123 1.371 . S
C124 H131 0.930 . S
H125 C122 0.928 1_554 S
H126 C123 0.931 . S
H127 C103 0.930 . S
H128 C100 0.930 . S
H129 C109 0.930 . S
H130 C121 0.929 1_554 S
H131 C124 0.930 . S
C132 C133 1.351 . S
C132 N135 1.368 . S
C132 H137 0.931 . S
C133 C132 1.351 . S
C133 N134 1.373 . S
C133 H161 0.930 . S
N134 C133 1.373 . S
N134 C136 1.340 . S
N135 C132 1.368 . S
N135 C136 1.321 . S
N135 Co138 2.135 . S
C136 N134 1.340 . S
C136 N135 1.321 . S
C136 H160 0.930 . S
H137 C132 0.931 . S
Co138 N135 2.135 . S
Co138 N141 2.121 1_556 S
Co138 O146 2.055 . S
Co138 O149 2.039 . S
Co138 N152 2.140 . S
C139 O140 1.227 . S
C139 O149 1.265 . S
O140 C139 1.227 . S
N141 Co138 2.121 1_554 S
N141 C143 1.375 . S
N141 C144 1.313 . S
C142 C143 1.338 . S
C142 N145 1.377 . S
C142 H162 0.930 . S
C143 N141 1.375 . S
C143 C142 1.338 . S
C143 H147 0.931 . S
C144 N141 1.313 . S
C144 N145 1.344 . S
C144 H148 0.930 . S
N145 C142 1.377 . S
N145 C144 1.344 . S
O146 Co138 2.055 . S
O146 C150 1.253 . S
H147 C143 0.931 . S
H148 C144 0.930 . S
O149 Co138 2.039 . S
O149 C139 1.265 . S
C150 O146 1.253 . S
C150 O151 1.227 . S
O151 C150 1.227 . S
N152 Co138 2.140 . S
N152 C155 1.346 . S
N152 C156 1.345 . S
C153 C154 1.387 1_655 S
C153 C157 1.391 . S
C154 C153 1.387 1_455 S
C154 C155 1.369 . S
C154 H163 0.929 . S
C155 N152 1.346 . S
C155 C154 1.369 . S
C155 H158 0.928 . S
C156 N152 1.345 . S
C156 C157 1.371 1_455 S
C156 H159 0.931 1_556 S
C157 C153 1.391 . S
C157 C156 1.371 1_655 S
C157 H164 0.930 1_556 S
H158 C155 0.928 . S
H159 C156 0.931 1_554 S
H160 C136 0.930 . S
H161 C133 0.930 . S
H162 C142 0.930 . S
H163 C154 0.929 . S
H164 C157 0.930 1_554 S
C165 C166 1.351 . S
C165 N168 1.368 . S
C165 H170 0.931 . S
C166 C165 1.351 . S
C166 N167 1.373 . S
C166 H194 0.930 . S
N167 C166 1.373 . S
N167 C169 1.340 . S
N168 C165 1.368 . S
N168 C169 1.321 . S
N168 Co171 2.135 1_556 S
C169 N167 1.340 . S
C169 N168 1.321 . S
C169 H193 0.930 . S
H170 C165 0.931 . S
Co171 N168 2.135 1_554 S
Co171 N174 2.121 . S
Co171 O179 2.055 . S
Co171 O182 2.039 . S
Co171 N185 2.140 . S
C172 O173 1.227 . S
C172 O182 1.265 . S
O173 C172 1.227 . S
N174 Co171 2.121 . S
N174 C176 1.375 . S
N174 C177 1.313 . S
C175 C176 1.338 . S
C175 N178 1.377 . S
C175 H195 0.930 . S
C176 N174 1.375 . S
C176 C175 1.338 . S
C176 H180 0.931 . S
C177 N174 1.313 . S
C177 N178 1.344 . S
C177 H181 0.930 . S
N178 C175 1.377 . S
N178 C177 1.344 . S
O179 Co171 2.055 . S
O179 C183 1.253 . S
H180 C176 0.931 . S
H181 C177 0.930 . S
O182 Co171 2.039 . S
O182 C172 1.265 . S
C183 O179 1.253 . S
C183 O184 1.227 . S
O184 C183 1.227 . S
N185 Co171 2.140 . S
N185 C188 1.346 . S
N185 C189 1.345 . S
C186 C187 1.387 . S
C186 C190 1.391 . S
C187 C186 1.387 . S
C187 C188 1.369 . S
C187 H196 0.929 1_554 S
C188 N185 1.346 . S
C188 C187 1.369 . S
C188 H191 0.928 1_554 S
C189 N185 1.345 . S
C189 C190 1.371 . S
C189 H192 0.931 . S
C190 C186 1.391 . S
C190 C189 1.371 . S
C190 H197 0.930 . S
H191 C188 0.928 1_556 S
H192 C189 0.931 . S
H193 C169 0.930 . S
H194 C166 0.930 . S
H195 C175 0.930 . S
H196 C187 0.929 1_556 S
H197 C190 0.930 . S
C198 C199 1.351 . S
C198 N201 1.368 . S
C198 H203 0.931 . S
C199 C198 1.351 . S
C199 N200 1.373 1_554 S
C199 H227 0.930 1_554 S
N200 C199 1.373 1_556 S
N200 C202 1.340 1_556 S
N201 C198 1.368 . S
N201 C202 1.321 . S
N201 Co204 2.135 . S
C202 N200 1.340 1_554 S
C202 N201 1.321 . S
C202 H226 0.930 . S
H203 C198 0.931 . S
Co204 N201 2.135 . S
Co204 N207 2.121 . S
Co204 O212 2.055 . S
Co204 O215 2.039 . S
Co204 N218 2.140 . S
C205 O206 1.227 . S
C205 O215 1.265 . S
O206 C205 1.227 . S
N207 Co204 2.121 . S
N207 C209 1.375 . S
N207 C210 1.313 . S
C208 C209 1.338 . S
C208 N211 1.377 . S
C208 H228 0.930 . S
C209 N207 1.375 . S
C209 C208 1.338 . S
C209 H213 0.931 . S
C210 N207 1.313 . S
C210 N211 1.344 . S
C210 H214 0.930 . S
N211 C208 1.377 . S
N211 C210 1.344 . S
O212 Co204 2.055 . S
O212 C216 1.253 . S
H213 C209 0.931 . S
H214 C210 0.930 . S
O215 Co204 2.039 . S
O215 C205 1.265 . S
C216 O212 1.253 . S
C216 O217 1.227 . S
O217 C216 1.227 . S
N218 Co204 2.140 . S
N218 C221 1.346 . S
N218 C222 1.345 . S
C219 C220 1.387 . S
C219 C223 1.391 . S
C220 C219 1.387 . S
C220 C221 1.369 . S
C220 H229 0.929 . S
C221 N218 1.346 . S
C221 C220 1.369 . S
C221 H224 0.928 . S
C222 N218 1.345 . S
C222 C223 1.371 . S
C222 H225 0.931 . S
C223 C219 1.391 . S
C223 C222 1.371 . S
C223 H230 0.930 . S
H224 C221 0.928 . S
H225 C222 0.931 . S
H226 C202 0.930 . S
H227 C199 0.930 1_556 S
H228 C208 0.930 . S
H229 C220 0.929 . S
H230 C223 0.930 . S
C231 C232 1.351 . S
C231 N234 1.368 . S
C231 H236 0.931 . S
C232 C231 1.351 . S
C232 N233 1.373 . S
C232 H260 0.930 . S
N233 C232 1.373 . S
N233 C235 1.340 . S
N234 C231 1.368 . S
N234 C235 1.321 . S
N234 Co237 2.135 . S
C235 N233 1.340 . S
C235 N234 1.321 . S
C235 H259 0.930 . S
H236 C231 0.931 . S
Co237 N234 2.135 . S
Co237 N240 2.121 . S
Co237 O245 2.055 . S
Co237 O248 2.039 . S
Co237 N251 2.140 . S
C238 O239 1.227 . S
C238 O248 1.265 . S
O239 C238 1.227 . S
N240 Co237 2.121 . S
N240 C242 1.375 . S
N240 C243 1.313 . S
C241 C242 1.338 1_554 S
C241 N244 1.377 . S
C241 H261 0.930 . S
C242 N240 1.375 . S
C242 C241 1.338 1_556 S
C242 H246 0.931 . S
C243 N240 1.313 . S
C243 N244 1.344 1_556 S
C243 H247 0.930 . S
N244 C241 1.377 . S
N244 C243 1.344 1_554 S
O245 Co237 2.055 . S
O245 C249 1.253 . S
H246 C242 0.931 . S
H247 C243 0.930 . S
O248 Co237 2.039 . S
O248 C238 1.265 . S
C249 O245 1.253 . S
C249 O250 1.227 . S
O250 C249 1.227 . S
N251 Co237 2.140 . S
N251 C254 1.346 . S
N251 C255 1.345 . S
C252 C253 1.387 . S
C252 C256 1.391 . S
C253 C252 1.387 . S
C253 C254 1.369 . S
C253 H262 0.929 . S
C254 N251 1.346 . S
C254 C253 1.369 . S
C254 H257 0.928 . S
C255 N251 1.345 . S
C255 C256 1.371 . S
C255 H258 0.931 . S
C256 C252 1.391 . S
C256 C255 1.371 . S
C256 H263 0.930 . S
H257 C254 0.928 . S
H258 C255 0.931 . S
H259 C235 0.930 . S
H260 C232 0.930 . S
H261 C241 0.930 . S
H262 C253 0.929 . S
H263 C256 0.930 . S
C264 C265 1.351 . S
C264 N267 1.368 . S
C264 H269 0.931 . S
C265 C264 1.351 . S
C265 N266 1.373 . S
C265 H293 0.930 . S
N266 C265 1.373 . S
N266 C268 1.340 . S
N267 C264 1.368 . S
N267 C268 1.321 . S
N267 Co270 2.135 . S
C268 N266 1.340 . S
C268 N267 1.321 . S
C268 H292 0.930 . S
H269 C264 0.931 . S
Co270 N267 2.135 . S
Co270 N273 2.121 . S
Co270 O278 2.055 . S
Co270 O281 2.039 . S
Co270 N284 2.140 . S
C271 O272 1.227 . S
C271 O281 1.265 . S
O272 C271 1.227 . S
N273 Co270 2.121 . S
N273 C275 1.375 . S
N273 C276 1.313 . S
C274 C275 1.338 1_554 S
C274 N277 1.377 . S
C274 H294 0.930 . S
C275 N273 1.375 . S
C275 C274 1.338 1_556 S
C275 H279 0.931 . S
C276 N273 1.313 . S
C276 N277 1.344 1_556 S
C276 H280 0.930 . S
N277 C274 1.377 . S
N277 C276 1.344 1_554 S
O278 Co270 2.055 . S
O278 C282 1.253 . S
H279 C275 0.931 . S
H280 C276 0.930 . S
O281 Co270 2.039 . S
O281 C271 1.265 . S
C282 O278 1.253 . S
C282 O283 1.227 . S
O283 C282 1.227 . S
N284 Co270 2.140 . S
N284 C287 1.346 . S
N284 C288 1.345 . S
C285 C286 1.387 . S
C285 C289 1.391 . S
C286 C285 1.387 . S
C286 C287 1.369 . S
C286 H295 0.929 . S
C287 N284 1.346 . S
C287 C286 1.369 . S
C287 H290 0.928 . S
C288 N284 1.345 . S
C288 C289 1.371 . S
C288 H291 0.931 . S
C289 C285 1.391 . S
C289 C288 1.371 . S
C289 H296 0.930 . S
H290 C287 0.928 . S
H291 C288 0.931 . S
H292 C268 0.930 . S
H293 C265 0.930 . S
H294 C274 0.930 . S
H295 C286 0.929 . S
H296 C289 0.930 . S
C297 C298 1.351 . S
C297 N300 1.368 . S
C297 H302 0.931 . S
C298 C297 1.351 . S
C298 N299 1.373 . S
C298 H326 0.930 . S
N299 C298 1.373 . S
N299 C301 1.340 . S
N300 C297 1.368 . S
N300 C301 1.321 . S
N300 Co303 2.135 1_556 S
C301 N299 1.340 . S
C301 N300 1.321 . S
C301 H325 0.930 . S
H302 C297 0.931 . S
Co303 N300 2.135 1_554 S
Co303 N306 2.121 . S
Co303 O311 2.055 . S
Co303 O314 2.039 . S
Co303 N317 2.140 . S
C304 O305 1.227 . S
C304 O314 1.265 . S
O305 C304 1.227 . S
N306 Co303 2.121 . S
N306 C308 1.375 . S
N306 C309 1.313 . S
C307 C308 1.338 . S
C307 N310 1.377 . S
C307 H327 0.930 . S
C308 N306 1.375 . S
C308 C307 1.338 . S
C308 H312 0.931 . S
C309 N306 1.313 . S
C309 N310 1.344 . S
C309 H313 0.930 . S
N310 C307 1.377 . S
N310 C309 1.344 . S
O311 Co303 2.055 . S
O311 C315 1.253 . S
H312 C308 0.931 . S
H313 C309 0.930 . S
O314 Co303 2.039 . S
O314 C304 1.265 . S
C315 O311 1.253 . S
C315 O316 1.227 . S
O316 C315 1.227 . S
N317 Co303 2.140 . S
N317 C320 1.346 . S
N317 C321 1.345 . S
C318 C319 1.387 . S
C318 C322 1.391 . S
C319 C318 1.387 . S
C319 C320 1.369 . S
C319 H328 0.929 1_554 S
C320 N317 1.346 . S
C320 C319 1.369 . S
C320 H323 0.928 1_554 S
C321 N317 1.345 . S
C321 C322 1.371 . S
C321 H324 0.931 . S
C322 C318 1.391 . S
C322 C321 1.371 . S
C322 H329 0.930 . S
H323 C320 0.928 1_556 S
H324 C321 0.931 . S
H325 C301 0.930 . S
H326 C298 0.930 . S
H327 C307 0.930 . S
H328 C319 0.929 1_556 S
H329 C322 0.930 . S
C330 C331 1.351 . S
C330 N333 1.368 . S
C330 H335 0.931 . S
C331 C330 1.351 . S
C331 N332 1.373 . S
C331 H359 0.930 . S
N332 C331 1.373 . S
N332 C334 1.340 . S
N333 C330 1.368 . S
N333 C334 1.321 . S
N333 Co336 2.135 1_554 S
C334 N332 1.340 . S
C334 N333 1.321 . S
C334 H358 0.930 . S
H335 C330 0.931 . S
Co336 N333 2.135 1_556 S
Co336 N339 2.121 . S
Co336 O344 2.055 . S
Co336 O347 2.039 . S
Co336 N350 2.140 . S
C337 O338 1.227 . S
C337 O347 1.265 . S
O338 C337 1.227 . S
N339 Co336 2.121 . S
N339 C341 1.375 . S
N339 C342 1.313 . S
C340 C341 1.338 . S
C340 N343 1.377 . S
C340 H360 0.930 . S
C341 N339 1.375 . S
C341 C340 1.338 . S
C341 H345 0.931 . S
C342 N339 1.313 . S
C342 N343 1.344 . S
C342 H346 0.930 . S
N343 C340 1.377 . S
N343 C342 1.344 . S
O344 Co336 2.055 . S
O344 C348 1.253 . S
H345 C341 0.931 . S
H346 C342 0.930 . S
O347 Co336 2.039 . S
O347 C337 1.265 . S
C348 O344 1.253 . S
C348 O349 1.227 . S
O349 C348 1.227 . S
N350 Co336 2.140 . S
N350 C353 1.346 . S
N350 C354 1.345 . S
C351 C352 1.387 . S
C351 C355 1.391 . S
C352 C351 1.387 . S
C352 C353 1.369 . S
C352 H361 0.929 1_556 S
C353 N350 1.346 . S
C353 C352 1.369 . S
C353 H356 0.928 1_556 S
C354 N350 1.345 . S
C354 C355 1.371 . S
C354 H357 0.931 . S
C355 C351 1.391 . S
C355 C354 1.371 . S
C355 H362 0.930 . S
H356 C353 0.928 1_554 S
H357 C354 0.931 . S
H358 C334 0.930 . S
H359 C331 0.930 . S
H360 C340 0.930 . S
H361 C352 0.929 1_554 S
H362 C355 0.930 . S
C363 C364 1.351 . S
C363 N366 1.368 . S
C363 H368 0.931 . S
C364 C363 1.351 . S
C364 N365 1.373 . S
C364 H392 0.930 . S
N365 C364 1.373 . S
N365 C367 1.340 . S
N366 C363 1.368 . S
N366 C367 1.321 . S
N366 Co369 2.135 . S
C367 N365 1.340 . S
C367 N366 1.321 . S
C367 H391 0.930 . S
H368 C363 0.931 . S
Co369 N366 2.135 . S
Co369 N372 2.121 . S
Co369 O377 2.055 . S
Co369 O380 2.039 . S
Co369 N383 2.140 . S
C370 O371 1.227 . S
C370 O380 1.265 . S
O371 C370 1.227 . S
N372 Co369 2.121 . S
N372 C374 1.375 . S
N372 C375 1.313 . S
C373 C374 1.338 1_556 S
C373 N376 1.377 . S
C373 H393 0.930 . S
C374 N372 1.375 . S
C374 C373 1.338 1_554 S
C374 H378 0.931 . S
C375 N372 1.313 . S
C375 N376 1.344 1_554 S
C375 H379 0.930 . S
N376 C373 1.377 . S
N376 C375 1.344 1_556 S
O377 Co369 2.055 . S
O377 C381 1.253 . S
H378 C374 0.931 . S
H379 C375 0.930 . S
O380 Co369 2.039 . S
O380 C370 1.265 . S
C381 O377 1.253 . S
C381 O382 1.227 . S
O382 C381 1.227 . S
N383 Co369 2.140 . S
N383 C386 1.346 . S
N383 C387 1.345 . S
C384 C385 1.387 . S
C384 C388 1.391 . S
C385 C384 1.387 . S
C385 C386 1.369 . S
C385 H394 0.929 . S
C386 N383 1.346 . S
C386 C385 1.369 . S
C386 H389 0.928 . S
C387 N383 1.345 . S
C387 C388 1.371 . S
C387 H390 0.931 . S
C388 C384 1.391 . S
C388 C387 1.371 . S
C388 H395 0.930 . S
H389 C386 0.928 . S
H390 C387 0.931 . S
H391 C367 0.930 . S
H392 C364 0.930 . S
H393 C373 0.930 . S
H394 C385 0.929 . S
H395 C388 0.930 . S
C396 C397 1.351 . S
C396 N399 1.368 . S
C396 H401 0.931 . S
C397 C396 1.351 . S
C397 N398 1.373 1_556 S
C397 H425 0.930 1_556 S
N398 C397 1.373 1_554 S
N398 C400 1.340 1_554 S
N399 C396 1.368 . S
N399 C400 1.321 . S
N399 Co402 2.135 . S
C400 N398 1.340 1_556 S
C400 N399 1.321 . S
C400 H424 0.930 . S
H401 C396 0.931 . S
Co402 N399 2.135 . S
Co402 N405 2.121 . S
Co402 O410 2.055 . S
Co402 O413 2.039 . S
Co402 N416 2.140 . S
C403 O404 1.227 . S
C403 O413 1.265 . S
O404 C403 1.227 . S
N405 Co402 2.121 . S
N405 C407 1.375 . S
N405 C408 1.313 . S
C406 C407 1.338 . S
C406 N409 1.377 . S
C406 H426 0.930 . S
C407 N405 1.375 . S
C407 C406 1.338 . S
C407 H411 0.931 . S
C408 N405 1.313 . S
C408 N409 1.344 . S
C408 H412 0.930 . S
N409 C406 1.377 . S
N409 C408 1.344 . S
O410 Co402 2.055 . S
O410 C414 1.253 . S
H411 C407 0.931 . S
H412 C408 0.930 . S
O413 Co402 2.039 . S
O413 C403 1.265 . S
C414 O410 1.253 . S
C414 O415 1.227 . S
O415 C414 1.227 . S
N416 Co402 2.140 . S
N416 C419 1.346 . S
N416 C420 1.345 . S
C417 C418 1.387 . S
C417 C421 1.391 . S
C418 C417 1.387 . S
C418 C419 1.369 . S
C418 H427 0.929 . S
C419 N416 1.346 . S
C419 C418 1.369 . S
C419 H422 0.928 . S
C420 N416 1.345 . S
C420 C421 1.371 . S
C420 H423 0.931 . S
C421 C417 1.391 . S
C421 C420 1.371 . S
C421 H428 0.930 . S
H422 C419 0.928 . S
H423 C420 0.931 . S
H424 C400 0.930 . S
H425 C397 0.930 1_554 S
H426 C406 0.930 . S
H427 C418 0.929 . S
H428 C421 0.930 . S
C429 C430 1.351 . S
C429 N432 1.368 . S
C429 H434 0.931 . S
C430 C429 1.351 . S
C430 N431 1.373 . S
C430 H458 0.930 . S
N431 C430 1.373 . S
N431 C433 1.340 . S
N432 C429 1.368 . S
N432 C433 1.321 . S
N432 Co435 2.135 . S
C433 N431 1.340 . S
C433 N432 1.321 . S
C433 H457 0.930 1_455 S
H434 C429 0.931 . S
Co435 N432 2.135 . S
Co435 N438 2.121 1_554 S
Co435 O443 2.055 . S
Co435 O446 2.039 1_455 S
Co435 N449 2.140 . S
C436 O437 1.227 . S
C436 O446 1.265 . S
O437 C436 1.227 . S
N438 Co435 2.121 1_556 S
N438 C440 1.375 . S
N438 C441 1.313 . S
C439 C440 1.338 . S
C439 N442 1.377 . S
C439 H459 0.930 . S
C440 N438 1.375 . S
C440 C439 1.338 . S
C440 H444 0.931 . S
C441 N438 1.313 . S
C441 N442 1.344 . S
C441 H445 0.930 . S
N442 C439 1.377 . S
N442 C441 1.344 . S
O443 Co435 2.055 . S
O443 C447 1.253 . S
H444 C440 0.931 . S
H445 C441 0.930 . S
O446 Co435 2.039 1_655 S
O446 C436 1.265 . S
C447 O443 1.253 . S
C447 O448 1.227 . S
O448 C447 1.227 . S
N449 Co435 2.140 . S
N449 C452 1.346 . S
N449 C453 1.345 . S
C450 C451 1.387 . S
C450 C454 1.391 . S
C451 C450 1.387 . S
C451 C452 1.369 . S
C451 H460 0.929 . S
C452 N449 1.346 . S
C452 C451 1.369 . S
C452 H455 0.928 . S
C453 N449 1.345 . S
C453 C454 1.371 . S
C453 H456 0.931 1_554 S
C454 C450 1.391 . S
C454 C453 1.371 . S
C454 H461 0.930 1_554 S
H455 C452 0.928 . S
H456 C453 0.931 1_556 S
H457 C433 0.930 1_655 S
H458 C430 0.930 . S
H459 C439 0.930 . S
H460 C451 0.929 . S
H461 C454 0.930 1_556 S
C462 C463 1.351 . S
C462 N465 1.368 . S
C462 H467 0.931 . S
C463 C462 1.351 . S
C463 N464 1.373 1_554 S
C463 H491 0.930 1_554 S
N464 C463 1.373 1_556 S
N464 C466 1.340 1_556 S
N465 C462 1.368 . S
N465 C466 1.321 . S
N465 Co468 2.135 . S
C466 N464 1.340 1_554 S
C466 N465 1.321 . S
C466 H490 0.930 . S
H467 C462 0.931 . S
Co468 N465 2.135 . S
Co468 N471 2.121 . S
Co468 O476 2.055 . S
Co468 O479 2.039 . S
Co468 N482 2.140 . S
C469 O470 1.227 . S
C469 O479 1.265 . S
O470 C469 1.227 . S
N471 Co468 2.121 . S
N471 C473 1.375 . S
N471 C474 1.313 . S
C472 C473 1.338 . S
C472 N475 1.377 . S
C472 H492 0.930 . S
C473 N471 1.375 . S
C473 C472 1.338 . S
C473 H477 0.931 . S
C474 N471 1.313 . S
C474 N475 1.344 . S
C474 H478 0.930 . S
N475 C472 1.377 . S
N475 C474 1.344 . S
O476 Co468 2.055 . S
O476 C480 1.253 . S
H477 C473 0.931 . S
H478 C474 0.930 . S
O479 Co468 2.039 . S
O479 C469 1.265 . S
C480 O476 1.253 . S
C480 O481 1.227 . S
O481 C480 1.227 . S
N482 Co468 2.140 . S
N482 C485 1.346 . S
N482 C486 1.345 . S
C483 C484 1.387 . S
C483 C487 1.391 . S
C484 C483 1.387 . S
C484 C485 1.369 . S
C484 H493 0.929 . S
C485 N482 1.346 . S
C485 C484 1.369 . S
C485 H488 0.928 . S
C486 N482 1.345 . S
C486 C487 1.371 . S
C486 H489 0.931 . S
C487 C483 1.391 . S
C487 C486 1.371 . S
C487 H494 0.930 . S
H488 C485 0.928 . S
H489 C486 0.931 . S
H490 C466 0.930 . S
H491 C463 0.930 1_556 S
H492 C472 0.930 . S
H493 C484 0.929 . S
H494 C487 0.930 . S
C495 C496 1.351 . S
C495 N498 1.368 . S
C495 H500 0.931 . S
C496 C495 1.351 . S
C496 N497 1.373 . S
C496 H524 0.930 . S
N497 C496 1.373 . S
N497 C499 1.340 . S
N498 C495 1.368 . S
N498 C499 1.321 . S
N498 Co501 2.135 . S
C499 N497 1.340 . S
C499 N498 1.321 . S
C499 H523 0.930 1_455 S
H500 C495 0.931 . S
Co501 N498 2.135 . S
Co501 N504 2.121 1_556 S
Co501 O509 2.055 . S
Co501 O512 2.039 1_455 S
Co501 N515 2.140 . S
C502 O503 1.227 . S
C502 O512 1.265 . S
O503 C502 1.227 . S
N504 Co501 2.121 1_554 S
N504 C506 1.375 . S
N504 C507 1.313 . S
C505 C506 1.338 . S
C505 N508 1.377 . S
C505 H525 0.930 . S
C506 N504 1.375 . S
C506 C505 1.338 . S
C506 H510 0.931 . S
C507 N504 1.313 . S
C507 N508 1.344 . S
C507 H511 0.930 . S
N508 C505 1.377 . S
N508 C507 1.344 . S
O509 Co501 2.055 . S
O509 C513 1.253 . S
H510 C506 0.931 . S
H511 C507 0.930 . S
O512 Co501 2.039 1_655 S
O512 C502 1.265 . S
C513 O509 1.253 . S
C513 O514 1.227 . S
O514 C513 1.227 . S
N515 Co501 2.140 . S
N515 C518 1.346 . S
N515 C519 1.345 . S
C516 C517 1.387 . S
C516 C520 1.391 . S
C517 C516 1.387 . S
C517 C518 1.369 . S
C517 H526 0.929 . S
C518 N515 1.346 . S
C518 C517 1.369 . S
C518 H521 0.928 . S
C519 N515 1.345 . S
C519 C520 1.371 . S
C519 H522 0.931 1_556 S
C520 C516 1.391 . S
C520 C519 1.371 . S
C520 H527 0.930 1_556 S
H521 C518 0.928 . S
H522 C519 0.931 1_554 S
H523 C499 0.930 1_655 S
H524 C496 0.930 . S
H525 C505 0.930 . S
H526 C517 0.929 . S
H527 C520 0.930 1_554 S
N13 N2 1.524 . S
N46 N35 1.524 . S
N79 N68 1.524 . S
N112 N101 1.524 . S
N145 N134 1.524 . S
N178 N167 1.524 . S
N211 N200 1.524 . S
N233 N244 1.524 . S
N266 N277 1.524 . S
N310 N299 1.524 . S
N343 N332 1.524 . S
N365 N376 1.524 . S
N398 N409 1.524 . S
N442 N431 1.524 . S
N464 N475 1.524 . S
N508 N497 1.524 . S
C18 C150 1.097 1_554 S
C183 C51 1.097 . S
C216 C84 1.097 . S
C117 C249 1.097 . S
C348 C282 1.097 . S
C315 C381 1.097 . S
C414 C480 1.097 1_545 S
C447 C513 1.097 1_564 S
C304 C7 1.565 . S
C469 C40 1.565 . S
C73 C271 1.565 . S
C502 C106 1.565 . S
C337 C139 1.565 . S
C436 C172 1.565 . S
C205 C370 1.565 . S
C238 C403 1.565 . S
C153 C120 1.571 . S
C417 C285 1.571 . S
C54 C219 1.571 . S
C450 C318 1.571 . S
C186 C21 1.571 . S
C351 C516 1.571 . S
C252 C87 1.571 . S
C483 C384 1.571 . S
