# Generated by pormake.
# Topology qtz-e, (6)-cn, num edge types: 1
# Building blocks:
#     Node 0, Type 0, BuildingBlock: KUMBOL_clean_sbu_0, # of connection points: 6
#     Node 1, Type 0, BuildingBlock: KUMBOL_clean_sbu_0, # of connection points: 6
#     Node 2, Type 0, BuildingBlock: KUMBOL_clean_sbu_0, # of connection points: 6
#     Node 3, Type 0, BuildingBlock: KUMBOL_clean_sbu_0, # of connection points: 6
#     Node 4, Type 0, BuildingBlock: KUMBOL_clean_sbu_0, # of connection points: 6
#     Node 5, Type 0, BuildingBlock: KUMBOL_clean_sbu_0, # of connection points: 6
#     Edge 6, Type (0, 0), BuildingBlock: ZUJKAS_clean_linker_0, # of connection points: 2
#     Edge 7, Type (0, 0), BuildingBlock: ZUJKAS_clean_linker_0, # of connection points: 2
#     Edge 8, Type (0, 0), BuildingBlock: ZUJKAS_clean_linker_0, # of connection points: 2
#     Edge 9, Type (0, 0), BuildingBlock: ZUJKAS_clean_linker_0, # of connection points: 2
#     Edge 10, Type (0, 0), BuildingBlock: ZUJKAS_clean_linker_0, # of connection points: 2
#     Edge 11, Type (0, 0), BuildingBlock: ZUJKAS_clean_linker_0, # of connection points: 2
#     Edge 12, Type (0, 0), BuildingBlock: ZUJKAS_clean_linker_0, # of connection points: 2
#     Edge 13, Type (0, 0), BuildingBlock: ZUJKAS_clean_linker_0, # of connection points: 2
#     Edge 14, Type (0, 0), BuildingBlock: ZUJKAS_clean_linker_0, # of connection points: 2
#     Edge 15, Type (0, 0), BuildingBlock: ZUJKAS_clean_linker_0, # of connection points: 2
#     Edge 16, Type (0, 0), BuildingBlock: ZUJKAS_clean_linker_0, # of connection points: 2
#     Edge 17, Type (0, 0), BuildingBlock: ZUJKAS_clean_linker_0, # of connection points: 2
#     Edge 18, Type (0, 0), BuildingBlock: ZUJKAS_clean_linker_0, # of connection points: 2
#     Edge 19, Type (0, 0), BuildingBlock: ZUJKAS_clean_linker_0, # of connection points: 2
#     Edge 20, Type (0, 0), BuildingBlock: ZUJKAS_clean_linker_0, # of connection points: 2
#     Edge 21, Type (0, 0), BuildingBlock: ZUJKAS_clean_linker_0, # of connection points: 2
#     Edge 22, Type (0, 0), BuildingBlock: ZUJKAS_clean_linker_0, # of connection points: 2
#     Edge 23, Type (0, 0), BuildingBlock: ZUJKAS_clean_linker_0, # of connection points: 2
# Relax obj value: 0.057
# Max RMSD: 0.139
# Mean RMSD: 0.139
data_MOF--net-qtz-e--node1-KUMBOL_clean_sbu_0--edge1-ZUJKAS_clean_linker_0
_symmetry_space_group_name_H-M    P1
_symmetry_Int_Tables_number       1
_symmetry_cell_setting            triclinic
loop_
_symmetry_equiv_pos_as_xyz
'x, y, z'
_cell_length_a     37.720001
_cell_length_b     37.795043
_cell_length_c     56.796523
_cell_angle_alpha  89.997368
_cell_angle_beta   90.044217
_cell_angle_gamma 120.00003
loop_
_atom_site_label
_atom_site_type_symbol
_atom_site_fract_x
_atom_site_fract_y
_atom_site_fract_z
_atom_type_partial_charge
Gd0 Gd 0.19145 0.37168 0.99837 0.0
Gd1 Gd 0.24084 0.46407 0.03631 0.0
C2 C 0.3393 0.5869 1.00694 0.0
C3 C 0.39988 0.59804 0.02829 0.0
C4 C 0.33411 0.53718 0.03559 0.0
C5 C 0.31607 0.5492 0.01861 0.0
C6 C 0.37603 0.56186 0.041 0.0
C7 C 0.3815 0.61063 0.01134 0.0
C8 C 0.31912 0.6005 0.99201 0.0
C9 C 0.2767 0.57723 0.98949 0.0
N10 N 0.27512 0.52572 0.01496 0.0
C11 C 0.25499 0.54006 1.00145 0.0
H12 H 0.22222 0.52257 0.99935 0.0
C13 C 0.32509 0.4926 0.06714 0.0
N14 N 0.31001 0.50253 0.04787 0.0
C15 C 0.36659 0.51577 0.07297 0.0
C16 C 0.39234 0.55021 0.05961 0.0
H17 H 0.30528 0.46583 0.07742 0.0
H18 H 0.39992 0.63939 1.00228 0.0
H19 H 0.24233 0.33823 0.03285 0.0
H20 H 0.33582 0.62957 0.98302 0.0
H21 H 0.26068 0.58793 0.97838 0.0
H22 H 0.43223 0.61722 0.03201 0.0
H23 H 0.10277 0.34341 0.9704 0.0
H24 H 0.15489 0.23032 0.06846 0.0
H25 H 0.22673 0.28278 0.06051 0.0
H26 H 0.02658 0.20473 0.03675 0.0
H27 H 0.37868 0.50706 0.08776 0.0
H28 H 0.42442 0.56828 0.06427 0.0
H29 H 0.0803 0.20195 0.05987 0.0
H30 H 0.02977 0.2911 0.97393 0.0
N31 N 0.17986 0.31812 0.02455 0.0
C32 C 0.16152 0.2546 0.05603 0.0
C33 C 0.20209 0.2841 0.05155 0.0
C34 C 0.13004 0.25644 0.04414 0.0
C35 C 0.14033 0.28878 0.02816 0.0
C36 C 0.21078 0.31564 0.03563 0.0
N37 N 0.12145 0.32114 0.99956 0.0
C38 C 0.11016 0.29053 0.01537 0.0
C39 C 0.05197 0.29078 0.98588 0.0
C40 C 0.03951 0.26064 1.00315 0.0
C41 C 0.09334 0.32046 0.98403 0.0
C42 C 0.06881 0.25972 0.01786 0.0
H43 H 0.00747 0.23753 1.0045 0.0
O44 O 0.17563 0.35045 0.96215 0.0
O45 O 0.23523 0.43779 1.00068 0.0
O46 O 0.1838 0.45826 0.01978 0.0
O47 O 0.1459 0.3947 1.00113 0.0
O48 O 0.1986 0.41798 0.97097 0.0
O49 O 0.22367 0.34571 0.97992 0.0
O50 O 0.23777 0.47642 0.07351 0.0
O51 O 0.19356 0.39806 0.03395 0.0
O52 O 0.25882 0.39035 1.00524 0.0
O53 O 0.2905 0.45044 0.02773 0.0
O54 O 0.22964 0.41646 0.06369 0.0
O55 O 0.21271 0.49917 0.04704 0.0
C56 C 0.22833 0.44923 0.98123 0.0
C57 C 0.05821 0.22836 0.03437 0.0
C58 C 0.0888 0.22673 0.04749 0.0
C59 C 0.20242 0.33839 0.96062 0.0
C60 C 0.18914 0.29863 0.94913 0.0
C61 C 0.15697 0.2627 0.95865 0.0
C62 C 0.20944 0.29642 0.92873 0.0
C63 C 0.19795 0.25834 0.91806 0.0
C64 C 0.14514 0.22507 0.94807 0.0
C65 C 0.16541 0.22281 0.92803 0.0
C66 C 0.15045 0.42982 0.00912 0.0
C67 C 0.19877 0.38604 0.05373 0.0
C68 C 0.22264 0.50009 0.0691 0.0
C69 C 0.2433 0.54062 0.08023 0.0
C70 C 0.27036 0.57562 0.06737 0.0
C71 C 0.23498 0.54464 0.1038 0.0
C72 C 0.25295 0.58343 0.11432 0.0
C73 C 0.28891 0.61405 0.07791 0.0
C74 C 0.28016 0.61806 0.10125 0.0
C75 C 0.29096 0.4203 0.01635 0.0
H76 H 0.14114 0.26375 0.97429 0.0
H77 H 0.23464 0.32416 0.92151 0.0
H78 H 0.12018 0.19744 0.95549 0.0
H79 H 0.15533 0.19315 0.92019 0.0
H80 H 0.27678 0.57354 0.04912 0.0
H81 H 0.21366 0.51782 0.1137 0.0
H82 H 0.30974 0.64083 0.06787 0.0
H83 H 0.29461 0.64821 0.10912 0.0
Gd84 Gd 0.81718 0.19031 0.33293 0.0
Gd85 Gd 0.77939 0.24689 0.36877 0.0
C86 C 0.77092 0.35537 0.34011 0.0
C87 C 0.82438 0.41222 0.36211 0.0
C88 C 0.81071 0.343 0.36895 0.0
C89 C 0.78087 0.32846 0.3517 0.0
C90 C 0.83237 0.38494 0.37465 0.0
C91 C 0.79355 0.39743 0.34494 0.0
C92 C 0.73746 0.33902 0.32474 0.0
C93 C 0.71422 0.29676 0.32174 0.0
N94 N 0.75951 0.28761 0.34749 0.0
C95 C 0.72545 0.27135 0.33352 0.0
H96 H 0.70722 0.23879 0.33101 0.0
C97 C 0.84278 0.32791 0.40004 0.0
N98 N 0.81737 0.31574 0.38088 0.0
C99 C 0.86526 0.36924 0.40621 0.0
C100 C 0.86051 0.39798 0.39323 0.0
H101 H 0.84677 0.30587 0.41007 0.0
H102 H 0.7867 0.41861 0.33597 0.0
H103 H 0.89912 0.23342 0.36987 0.0
H104 H 0.72862 0.35865 0.31568 0.0
H105 H 0.68766 0.28367 0.31034 0.0
H106 H 0.84098 0.44461 0.36606 0.0
H107 H 0.75218 0.10587 0.30354 0.0
H108 H 0.9097 0.13823 0.4034 0.0
H109 H 0.93419 0.21168 0.39752 0.0
H110 H 0.80377 0.01646 0.36741 0.0
H111 H 0.88628 0.37889 0.42094 0.0
H112 H 0.87788 0.42996 0.39809 0.0
H113 H 0.86045 0.0655 0.3924 0.0
H114 H 0.72666 0.0316 0.30491 0.0
N115 N 0.85463 0.1729 0.35939 0.0
C116 C 0.89422 0.14758 0.39092 0.0
C117 C 0.90818 0.18905 0.3876 0.0
C118 C 0.86082 0.11871 0.37785 0.0
C119 C 0.84165 0.13252 0.36188 0.0
C120 C 0.88812 0.20126 0.37164 0.0
N121 N 0.79263 0.11946 0.33259 0.0
C122 C 0.80953 0.10493 0.3481 0.0
C123 C 0.74979 0.05182 0.31728 0.0
C124 C 0.76528 0.03612 0.33406 0.0
C125 C 0.76432 0.09385 0.31657 0.0
C126 C 0.79597 0.06278 0.34952 0.0
H127 H 0.75405 0.00355 0.33457 0.0
O128 O 0.82196 0.17556 0.29637 0.0
O129 O 0.79902 0.23742 0.33365 0.0
O130 O 0.72638 0.19296 0.35085 0.0
O131 O 0.74833 0.1479 0.33845 0.0
O132 O 0.78024 0.19905 0.30464 0.0
O133 O 0.87619 0.21886 0.31532 0.0
O134 O 0.76223 0.24384 0.40558 0.0
O135 O 0.7934 0.19619 0.36775 0.0
O136 O 0.86999 0.2552 0.34103 0.0
O137 O 0.84309 0.29285 0.35863 0.0
O138 O 0.81122 0.23186 0.39749 0.0
O139 O 0.71648 0.22685 0.37813 0.0
C140 C 0.78106 0.23052 0.31405 0.0
C141 C 0.81405 0.04875 0.36588 0.0
C142 C 0.84637 0.07667 0.38007 0.0
C143 C 0.86151 0.19963 0.29548 0.0
C144 C 0.88566 0.18408 0.28343 0.0
C145 C 0.89041 0.15302 0.29367 0.0
C146 C 0.9051 0.20128 0.26176 0.0
C147 C 0.92958 0.18773 0.25035 0.0
C148 C 0.91443 0.13942 0.28262 0.0
C149 C 0.93399 0.15664 0.2613 0.0
C150 C 0.71906 0.15675 0.34326 0.0
C151 C 0.80927 0.20015 0.38783 0.0
C152 C 0.72523 0.2357 0.40034 0.0
C153 C 0.71202 0.26273 0.41104 0.0
C154 C 0.70632 0.29039 0.39726 0.0
C155 C 0.7059 0.2616 0.43543 0.0
C156 C 0.69419 0.28785 0.44603 0.0
C157 C 0.69571 0.31712 0.4077 0.0
C158 C 0.68964 0.31594 0.43194 0.0
C159 C 0.8735 0.2895 0.34977 0.0
H160 H 0.87586 0.13958 0.3103 0.0
H161 H 0.9009 0.225 0.25384 0.0
H162 H 0.91829 0.11566 0.29074 0.0
H163 H 0.95324 0.14597 0.25367 0.0
H164 H 0.7097 0.29132 0.37841 0.0
H165 H 0.71005 0.24016 0.44611 0.0
H166 H 0.69148 0.33835 0.39692 0.0
H167 H 0.67993 0.33602 0.4395 0.0
Gd168 Gd 0.62711 0.81497 0.66519 0.0
Gd169 Gd 0.53257 0.76426 0.70156 0.0
C170 C 0.40951 0.72781 0.66677 0.0
C171 C 0.38915 0.77146 0.687 0.0
C172 C 0.45304 0.774 0.69716 0.0
C173 C 0.44606 0.74532 0.68003 0.0
C174 C 0.42415 0.78661 0.70129 0.0
C175 C 0.38177 0.74197 0.66981 0.0
C176 C 0.40102 0.69529 0.65166 0.0
C177 C 0.4282 0.68051 0.65039 0.0
N178 N 0.47333 0.73203 0.67771 0.0
C179 C 0.4641 0.69895 0.66379 0.0
H180 H 0.48453 0.68689 0.66246 0.0
C181 C 0.49102 0.80985 0.73076 0.0
N182 N 0.48656 0.78716 0.71104 0.0
C183 C 0.46362 0.82375 0.73536 0.0
C184 C 0.43039 0.81265 0.72031 0.0
H185 H 0.51683 0.81859 0.74237 0.0
H186 H 0.35386 0.72933 0.65951 0.0
H187 H 0.65822 0.89399 0.70335 0.0
H188 H 0.37289 0.6804 0.64159 0.0
H189 H 0.4215 0.65482 0.63911 0.0
H190 H 0.36684 0.78114 0.68971 0.0
H191 H 0.65863 0.76197 0.63254 0.0
H192 H 0.76661 0.91237 0.73787 0.0
H193 H 0.71289 0.93083 0.73219 0.0
H194 H 0.79715 0.81839 0.69895 0.0
H195 H 0.46811 0.84292 0.75051 0.0
H196 H 0.40897 0.82313 0.72403 0.0
H197 H 0.79733 0.86967 0.72572 0.0
H198 H 0.71326 0.74406 0.63302 0.0
N199 N 0.68001 0.85428 0.69237 0.0
C200 C 0.74269 0.8961 0.72497 0.0
C201 C 0.71248 0.90665 0.72177 0.0
C202 C 0.74213 0.86525 0.71112 0.0
C203 C 0.71017 0.84487 0.69464 0.0
C204 C 0.68145 0.88561 0.7052 0.0
N205 N 0.67935 0.7979 0.66375 0.0
C206 C 0.7097 0.8156 0.67992 0.0
C207 C 0.71242 0.76389 0.64649 0.0
C208 C 0.74225 0.77959 0.66408 0.0
C209 C 0.68152 0.77405 0.64631 0.0
C210 C 0.74166 0.80646 0.68081 0.0
H211 H 0.7663 0.77184 0.66414 0.0
O212 O 0.64451 0.82433 0.62818 0.0
O213 O 0.56033 0.79012 0.66694 0.0
O214 O 0.54506 0.71752 0.6852 0.0
O215 O 0.60884 0.74765 0.6664 0.0
O216 O 0.58224 0.77714 0.63678 0.0
O217 O 0.65639 0.87594 0.64989 0.0
O218 O 0.5187 0.74783 0.73851 0.0
O219 O 0.59964 0.78708 0.70009 0.0
O220 O 0.60614 0.86089 0.67486 0.0
O221 O 0.54454 0.82765 0.69603 0.0
O222 O 0.57778 0.80094 0.72994 0.0
O223 O 0.50153 0.70077 0.71196 0.0
C224 C 0.55005 0.77351 0.647 0.0
C225 C 0.77265 0.82541 0.6978 0.0
C226 C 0.77282 0.85468 0.71298 0.0
C227 C 0.66027 0.8638 0.62905 0.0
C228 C 0.69993 0.8887 0.61702 0.0
C229 C 0.7356 0.89142 0.62634 0.0
C230 C 0.70227 0.9101 0.59611 0.0
C231 C 0.74026 0.93444 0.58467 0.0
C232 C 0.77307 0.91494 0.61503 0.0
C233 C 0.77547 0.93623 0.59443 0.0
C234 C 0.57476 0.71548 0.67414 0.0
C235 C 0.60972 0.80302 0.72034 0.0
C236 C 0.49811 0.70887 0.73386 0.0
C237 C 0.45691 0.68599 0.74403 0.0
C238 C 0.42195 0.6753 0.73032 0.0
C239 C 0.45242 0.67427 0.76771 0.0
C240 C 0.41325 0.65165 0.77766 0.0
C241 C 0.38303 0.65336 0.74021 0.0
C242 C 0.37858 0.64147 0.76375 0.0
C243 C 0.5749 0.86031 0.68619 0.0
H244 H 0.73449 0.8754 0.64235 0.0
H245 H 0.67473 0.90832 0.58904 0.0
H246 H 0.80046 0.91669 0.62228 0.0
H247 H 0.805 0.95383 0.586 0.0
H248 H 0.42454 0.68345 0.71196 0.0
H249 H 0.47937 0.68202 0.77821 0.0
H250 H 0.35624 0.64535 0.72955 0.0
H251 H 0.34808 0.62448 0.77112 0.0
Gd252 Gd 0.81999 0.62862 0.99722 0.0
Gd253 Gd 0.76877 0.5339 0.03307 0.0
C254 C 0.66973 0.41273 1.00218 0.0
C255 C 0.60899 0.40189 0.02318 0.0
C256 C 0.67514 0.46164 0.03149 0.0
C257 C 0.6932 0.44978 0.01445 0.0
C258 C 0.63298 0.43748 0.03638 0.0
C259 C 0.62737 0.38945 1.00616 0.0
C260 C 0.68978 0.3994 0.98697 0.0
C261 C 0.7323 0.4222 0.98484 0.0
N262 N 0.73426 0.47291 0.01113 0.0
C263 C 0.75424 0.45874 0.9974 0.0
H264 H 0.78708 0.47596 0.99555 0.0
C265 C 0.684 0.5058 0.06324 0.0
N266 N 0.69933 0.49585 0.04412 0.0
C267 C 0.64228 0.48309 0.0686 0.0
C268 C 0.61651 0.44914 0.05489 0.0
H269 H 0.70377 0.53221 0.07379 0.0
H270 H 0.60876 0.3612 0.99666 0.0
H271 H 0.77524 0.6655 0.03373 0.0
H272 H 0.67287 0.37095 0.97737 0.0
H273 H 0.74821 0.41169 0.97351 0.0
H274 H 0.57646 0.38312 0.02652 0.0
H275 H 0.90386 0.65363 0.9655 0.0
H276 H 0.86913 0.77128 0.06833 0.0
H277 H 0.7958 0.72149 0.062 0.0
H278 H 0.9921 0.79193 0.03127 0.0
H279 H 0.63003 0.49183 0.08328 0.0
H280 H 0.58422 0.4315 0.05913 0.0
H281 H 0.9424 0.79678 0.05716 0.0
H282 H 0.97787 0.70441 0.96633 0.0
N283 N 0.83632 0.68284 0.02376 0.0
C284 C 0.86028 0.7468 0.05569 0.0
C285 C 0.81888 0.71884 0.05211 0.0
C286 C 0.88973 0.74339 0.04251 0.0
C287 C 0.87657 0.71086 0.02633 0.0
C288 C 0.80734 0.68708 0.03588 0.0
N289 N 0.89037 0.67721 0.99606 0.0
C290 C 0.90452 0.70784 0.01207 0.0
C291 C 0.95767 0.70554 0.97945 0.0
C292 C 0.97318 0.73568 0.99685 0.0
C293 C 0.91583 0.67686 0.97904 0.0
C294 C 0.94642 0.73763 0.01317 0.0
H295 H 1.00557 0.758 0.99708 0.0
O296 O 0.8286 0.64385 0.95995 0.0
O297 O 0.77573 0.56248 0.99805 0.0
O298 O 0.82601 0.54054 0.01619 0.0
O299 O 0.86659 0.60735 1.00202 0.0
O300 O 0.81397 0.58396 0.96904 0.0
O301 O 0.79287 0.66195 0.98119 0.0
O302 O 0.7719 0.52057 0.07006 0.0
O303 O 0.81583 0.60004 0.0323 0.0
O304 O 0.75361 0.61194 1.00575 0.0
O305 O 0.71938 0.54717 0.02337 0.0
O306 O 0.77836 0.57972 0.06134 0.0
O307 O 0.7958 0.49745 0.04312 0.0
C308 C 0.78367 0.55223 0.97851 0.0
C309 C 0.95997 0.76906 0.02994 0.0
C310 C 0.93167 0.77188 0.04464 0.0
C311 C 0.8076 0.66265 0.96032 0.0
C312 C 0.82459 0.70122 0.94693 0.0
C313 C 0.86113 0.73559 0.9541 0.0
C314 C 0.80466 0.70337 0.92634 0.0
C315 C 0.82159 0.73953 0.91274 0.0
C316 C 0.87787 0.77149 0.94087 0.0
C317 C 0.85846 0.77348 0.92035 0.0
C318 C 0.86091 0.57083 1.00798 0.0
C319 C 0.80958 0.61085 0.05219 0.0
C320 C 0.78633 0.49643 0.06526 0.0
C321 C 0.76527 0.45585 0.07627 0.0
C322 C 0.73766 0.42107 0.06342 0.0
C323 C 0.77352 0.45166 0.09982 0.0
C324 C 0.75483 0.41292 0.11043 0.0
C325 C 0.71851 0.38266 0.07399 0.0
C326 C 0.72711 0.37848 0.09736 0.0
C327 C 0.72033 0.57987 0.01458 0.0
H328 H 0.87677 0.73461 0.96986 0.0
H329 H 0.77651 0.67671 0.92069 0.0
H330 H 0.90612 0.79793 0.94653 0.0
H331 H 0.87208 0.80187 0.91057 0.0
H332 H 0.73118 0.42333 0.04518 0.0
H333 H 0.79525 0.47837 0.10969 0.0
H334 H 0.69724 0.35602 0.06399 0.0
H335 H 0.71204 0.34835 0.10526 0.0
Gd336 Gd 0.19109 0.81454 0.33206 0.0
Gd337 Gd 0.23654 0.76491 0.36777 0.0
C338 C 0.25384 0.66003 0.34165 0.0
C339 C 0.20589 0.60346 0.36607 0.0
C340 C 0.21362 0.67092 0.37084 0.0
C341 C 0.24176 0.68572 0.35275 0.0
C342 C 0.19581 0.62978 0.37799 0.0
C343 C 0.235 0.61861 0.34798 0.0
C344 C 0.28564 0.67709 0.32523 0.0
C345 C 0.30521 0.71894 0.32067 0.0
N346 N 0.25947 0.72595 0.34715 0.0
C347 C 0.29199 0.74309 0.33204 0.0
H348 H 0.30742 0.77529 0.32826 0.0
C349 C 0.18122 0.68529 0.40198 0.0
N350 N 0.20509 0.69735 0.38219 0.0
C351 C 0.1625 0.64471 0.4096 0.0
C352 C 0.16937 0.61667 0.39736 0.0
H353 H 0.17558 0.70666 0.41153 0.0
H354 H 0.24354 0.59832 0.33944 0.0
H355 H 0.11063 0.77233 0.36964 0.0
H356 H 0.29608 0.65845 0.31652 0.0
H357 H 0.33049 0.73268 0.30839 0.0
H358 H 0.19229 0.57168 0.37117 0.0
H359 H 0.25118 0.89685 0.29956 0.0
H360 H 0.1007 0.86847 0.40259 0.0
H361 H 0.07647 0.79487 0.3976 0.0
H362 H 0.20289 0.98881 0.36355 0.0
H363 H 0.14279 0.63509 0.4249 0.0
H364 H 0.15499 0.58529 0.40337 0.0
H365 H 0.1486 0.94082 0.39015 0.0
H366 H 0.2751 0.9709 0.29931 0.0
N367 N 0.15433 0.83256 0.35845 0.0
C368 C 0.11578 0.85876 0.39007 0.0
C369 C 0.10196 0.81719 0.38725 0.0
C370 C 0.14835 0.88722 0.37633 0.0
C371 C 0.167 0.87296 0.36033 0.0
C372 C 0.12147 0.80452 0.37119 0.0
N373 N 0.21385 0.8849 0.3299 0.0
C374 C 0.19784 0.89999 0.34563 0.0
C375 C 0.25358 0.95137 0.31255 0.0
C376 C 0.23928 0.96783 0.32959 0.0
C377 C 0.23993 0.9095 0.31272 0.0
C378 C 0.2105 0.94198 0.34615 0.0
H379 H 0.24978 1.00026 0.32939 0.0
O380 O 0.18307 0.82333 0.29495 0.0
O381 O 0.21237 0.76989 0.33311 0.0
O382 O 0.28534 0.81837 0.34724 0.0
O383 O 0.25904 0.86081 0.33727 0.0
O384 O 0.22681 0.8055 0.30308 0.0
O385 O 0.13014 0.78618 0.31666 0.0
O386 O 0.25776 0.77319 0.40408 0.0
O387 O 0.21741 0.81201 0.36675 0.0
O388 O 0.14178 0.74907 0.34238 0.0
O389 O 0.17317 0.71516 0.35959 0.0
O390 O 0.20265 0.77675 0.39653 0.0
O391 O 0.30132 0.79345 0.37529 0.0
C392 C 0.22849 0.77569 0.31304 0.0
C393 C 0.19321 0.95659 0.36268 0.0
C394 C 0.16225 0.92926 0.37779 0.0
C395 C 0.14327 0.80133 0.29572 0.0
C396 C 0.11997 0.81714 0.28293 0.0
C397 C 0.11891 0.85144 0.29135 0.0
C398 C 0.09805 0.7974 0.26225 0.0
C399 C 0.07468 0.81156 0.25022 0.0
C400 C 0.0963 0.86587 0.27943 0.0
C401 C 0.07431 0.84615 0.25912 0.0
C402 C 0.29009 0.85405 0.34054 0.0
C403 C 0.20148 0.80691 0.38689 0.0
C404 C 0.29565 0.78674 0.39785 0.0
C405 C 0.31642 0.76688 0.40893 0.0
C406 C 0.32403 0.73939 0.3963 0.0
C407 C 0.32898 0.77565 0.43246 0.0
C408 C 0.34936 0.75741 0.4433 0.0
C409 C 0.34374 0.72081 0.40707 0.0
C410 C 0.35644 0.72976 0.43043 0.0
C411 C 0.14091 0.71609 0.35144 0.0
H412 H 0.13546 0.86694 0.30715 0.0
H413 H 0.09856 0.77064 0.25586 0.0
H414 H 0.0957 0.89245 0.286 0.0
H415 H 0.05726 0.85828 0.25022 0.0
H416 H 0.31513 0.7324 0.3781 0.0
H417 H 0.3236 0.79724 0.44215 0.0
H418 H 0.34936 0.69956 0.39724 0.0
H419 H 0.3716 0.71488 0.43849 0.0
Gd420 Gd 0.37753 0.19074 0.66513 0.0
Gd421 Gd 0.47712 0.24403 0.69661 0.0
C422 C 0.59981 0.28015 0.66211 0.0
C423 C 0.61745 0.23264 0.68016 0.0
C424 C 0.55463 0.23156 0.69112 0.0
C425 C 0.56319 0.26259 0.67523 0.0
C426 C 0.58179 0.21644 0.69391 0.0
C427 C 0.6265 0.26451 0.66433 0.0
C428 C 0.60903 0.31358 0.64759 0.0
C429 C 0.58258 0.32936 0.64694 0.0
N430 N 0.53666 0.27691 0.67343 0.0
C431 C 0.5466 0.31089 0.66027 0.0
H432 H 0.52648 0.32346 0.65958 0.0
C433 C 0.51158 0.188 0.72124 0.0
N434 N 0.51985 0.21651 0.7041 0.0
C435 C 0.53744 0.17182 0.72451 0.0
C436 C 0.57252 0.18583 0.71065 0.0
H437 H 0.48435 0.17685 0.73187 0.0
H438 H 0.65455 0.27732 0.65419 0.0
H439 H 0.34446 0.11409 0.70459 0.0
H440 H 0.63687 0.32796 0.63725 0.0
H441 H 0.5898 0.35568 0.63612 0.0
H442 H 0.63858 0.22125 0.68193 0.0
H443 H 0.34849 0.24246 0.63021 0.0
H444 H 0.23735 0.10117 0.73826 0.0
H445 H 0.28959 0.08032 0.73386 0.0
H446 H 0.20928 0.19362 0.69527 0.0
H447 H 0.53028 0.14852 0.73769 0.0
H448 H 0.5925 0.17325 0.71324 0.0
H449 H 0.20774 0.1439 0.72385 0.0
H450 H 0.29485 0.26191 0.62864 0.0
N451 N 0.32442 0.15463 0.6926 0.0
C452 C 0.26143 0.11615 0.7253 0.0
C453 C 0.29078 0.10423 0.72282 0.0
C454 C 0.26279 0.14639 0.71051 0.0
C455 C 0.29495 0.16507 0.69405 0.0
C456 C 0.3219 0.1235 0.70609 0.0
N457 N 0.32617 0.20854 0.66192 0.0
C458 C 0.29591 0.19307 0.67817 0.0
C459 C 0.29491 0.24274 0.64278 0.0
C460 C 0.2648 0.22888 0.6602 0.0
C461 C 0.32513 0.23163 0.64368 0.0
C462 C 0.26457 0.20309 0.67797 0.0
H463 H 0.24127 0.23731 0.65941 0.0
O464 O 0.36082 0.17697 0.62819 0.0
O465 O 0.4446 0.22085 0.66281 0.0
O466 O 0.46208 0.28984 0.68127 0.0
O467 O 0.39262 0.25688 0.6704 0.0
O468 O 0.4154 0.23012 0.63471 0.0
O469 O 0.34858 0.12808 0.65231 0.0
O470 O 0.49487 0.26027 0.73318 0.0
O471 O 0.40972 0.21799 0.69893 0.0
O472 O 0.4 0.14654 0.6772 0.0
O473 O 0.4707 0.18718 0.68111 0.0
O474 O 0.43656 0.20504 0.72641 0.0
O475 O 0.50913 0.30758 0.70701 0.0
C476 C 0.45036 0.23785 0.643 0.0
C477 C 0.23341 0.18599 0.69496 0.0
C478 C 0.23252 0.15767 0.71122 0.0
C479 C 0.34489 0.13773 0.63076 0.0
C480 C 0.30527 0.11178 0.61893 0.0
C481 C 0.26912 0.10745 0.62855 0.0
C482 C 0.3035 0.09124 0.59778 0.0
C483 C 0.26561 0.06597 0.58646 0.0
C484 C 0.23168 0.08291 0.61737 0.0
C485 C 0.22985 0.0623 0.59657 0.0
C486 C 0.42849 0.29018 0.67486 0.0
C487 C 0.40266 0.20144 0.71894 0.0
C488 C 0.51457 0.29936 0.72859 0.0
C489 C 0.55642 0.32284 0.73798 0.0
C490 C 0.59074 0.33612 0.7233 0.0
C491 C 0.56212 0.33252 0.76201 0.0
C492 C 0.60178 0.35566 0.77134 0.0
C493 C 0.63015 0.35851 0.73254 0.0
C494 C 0.63575 0.36836 0.75641 0.0
C495 C 0.43748 0.15133 0.67833 0.0
H496 H 0.26987 0.12303 0.6447 0.0
H497 H 0.33143 0.09438 0.59042 0.0
H498 H 0.2039 0.07981 0.62487 0.0
H499 H 0.20033 0.04375 0.58825 0.0
H500 H 0.58732 0.32966 0.70471 0.0
H501 H 0.53568 0.32286 0.7733 0.0
H502 H 0.65643 0.36851 0.72112 0.0
H503 H 0.66664 0.38582 0.76323 0.0
H504 H 0.18325 0.69256 0.31712 0.0
H505 H 0.18479 0.64189 0.29099 0.0
H506 H 0.27977 0.73905 0.24986 0.0
H507 H 0.27906 0.78961 0.27638 0.0
H508 H 0.16586 0.63478 0.24517 0.0
H509 H 0.32279 0.66078 0.25387 0.0
H510 H 0.30103 0.68011 0.27503 0.0
H511 H 0.324 0.7081 0.24842 0.0
C512 C 0.20522 0.70297 0.30291 0.0
C513 C 0.23175 0.74487 0.299 0.0
C514 C 0.20601 0.67404 0.28797 0.0
C515 C 0.23309 0.68666 0.26882 0.0
C516 C 0.25964 0.72856 0.265 0.0
H517 H 0.22793 0.63519 0.12969 0.0
H518 H 0.21593 0.64766 0.1703 0.0
C519 C 0.25892 0.75742 0.27995 0.0
C520 C 0.23013 0.65691 0.25093 0.0
H521 H 0.2896 0.63461 0.21581 0.0
C522 C 0.19265 0.6338 0.23917 0.0
C523 C 0.26487 0.65509 0.24329 0.0
C524 C 0.30531 0.67708 0.25601 0.0
C525 C 0.19004 0.61214 0.21861 0.0
C526 C 0.22582 0.61397 0.20967 0.0
C527 C 0.26228 0.63367 0.22264 0.0
C528 C 0.22793 0.60198 0.18527 0.0
C529 C 0.1496 0.58938 0.20591 0.0
C530 C 0.23884 0.57231 0.18035 0.0
C531 C 0.24571 0.56514 0.1571 0.0
C532 C 0.24257 0.58823 0.13867 0.0
C533 C 0.23084 0.61728 0.14366 0.0
C534 C 0.22353 0.62405 0.16677 0.0
H535 H 0.12352 0.57978 0.21825 0.0
H536 H 0.14776 0.60978 0.19251 0.0
H537 H 0.14644 0.56195 0.19679 0.0
H538 H 0.24287 0.55543 0.19451 0.0
H539 H 0.25491 0.5427 0.1536 0.0
H540 H 0.47993 0.29654 0.60957 0.0
H541 H 0.53258 0.30921 0.58002 0.0
H542 H 0.54949 0.21445 0.61094 0.0
H543 H 0.49655 0.2013 0.63989 0.0
H544 H 0.62609 0.29379 0.59532 0.0
H545 H 0.50113 0.21437 0.52951 0.0
H546 H 0.50069 0.25461 0.54622 0.0
H547 H 0.49194 0.20884 0.56085 0.0
C548 C 0.49554 0.27905 0.61023 0.0
C549 C 0.48521 0.24874 0.62737 0.0
C550 C 0.52552 0.28634 0.59349 0.0
C551 C 0.54493 0.26291 0.59355 0.0
C552 C 0.53522 0.23321 0.61092 0.0
H553 H 0.64957 0.21748 0.4709 0.0
H554 H 0.62013 0.21061 0.51002 0.0
C555 C 0.50518 0.22586 0.62755 0.0
C556 C 0.57167 0.26595 0.57391 0.0
H557 H 0.56879 0.24306 0.51573 0.0
C558 C 0.61378 0.28279 0.57788 0.0
C559 C 0.55507 0.25069 0.55144 0.0
C560 C 0.5097 0.2308 0.54664 0.0
C561 C 0.64008 0.28569 0.55955 0.0
C562 C 0.62353 0.27142 0.53691 0.0
C563 C 0.58129 0.25388 0.53317 0.0
C564 C 0.64913 0.27567 0.5163 0.0
C565 C 0.68511 0.30362 0.56451 0.0
C566 C 0.67628 0.31455 0.50731 0.0
C567 C 0.69334 0.31859 0.48499 0.0
C568 C 0.68318 0.28379 0.47129 0.0
C569 C 0.65826 0.24486 0.48107 0.0
C570 C 0.6413 0.24086 0.50339 0.0
H571 H 0.69122 0.30347 0.58365 0.0
H572 H 0.69753 0.28652 0.55499 0.0
H573 H 0.7018 0.33576 0.55832 0.0
H574 H 0.68221 0.34177 0.51688 0.0
H575 H 0.7129 0.34896 0.47799 0.0
H576 H 0.31171 0.48572 0.98427 0.0
H577 H 0.36192 0.53609 0.95714 0.0
H578 H 0.26407 0.53651 0.91791 0.0
H579 H 0.21401 0.48691 0.94534 0.0
H580 H 0.36445 0.52089 0.91118 0.0
H581 H 0.34756 0.65687 0.91978 0.0
H582 H 0.32717 0.61637 0.94134 0.0
H583 H 0.29834 0.61247 0.91523 0.0
C584 C 0.30111 0.49748 0.97027 0.0
C585 C 0.25915 0.48313 0.96706 0.0
C586 C 0.32978 0.52618 0.95478 0.0
C587 C 0.31679 0.54067 0.93581 0.0
C588 C 0.27488 0.52674 0.93286 0.0
H589 H 0.36075 0.57603 0.79479 0.0
H590 H 0.3493 0.55433 0.83588 0.0
C591 C 0.24629 0.49813 0.94833 0.0
C592 C 0.34574 0.56557 0.91711 0.0
H593 H 0.3683 0.64576 0.8807 0.0
C594 C 0.36631 0.54888 0.9049 0.0
C595 C 0.34872 0.60238 0.9091 0.0
C596 C 0.32955 0.62322 0.92226 0.0
C597 C 0.3864 0.56588 0.88363 0.0
C598 C 0.38545 0.60008 0.87438 0.0
C599 C 0.36847 0.61914 0.88772 0.0
C600 C 0.39605 0.61265 0.84964 0.0
C601 C 0.4066 0.54586 0.87065 0.0
C602 C 0.42575 0.6528 0.84386 0.0
C603 C 0.43212 0.66537 0.82035 0.0
C604 C 0.40838 0.63808 0.80242 0.0
C605 C 0.37915 0.59776 0.80829 0.0
C606 C 0.37301 0.58519 0.8317 0.0
H607 H 0.41695 0.53009 0.88303 0.0
H608 H 0.38414 0.52256 0.85838 0.0
H609 H 0.43327 0.56852 0.86025 0.0
H610 H 0.4434 0.6745 0.85755 0.0
H611 H 0.45466 0.69672 0.81625 0.0
H612 H 0.83111 0.31346 0.31492 0.0
H613 H 0.83065 0.36306 0.28736 0.0
H614 H 0.72764 0.26525 0.25108 0.0
H615 H 0.72743 0.21594 0.27899 0.0
H616 H 0.84422 0.36391 0.24118 0.0
H617 H 0.69261 0.34978 0.25345 0.0
H618 H 0.71459 0.33105 0.27486 0.0
H619 H 0.68747 0.30032 0.24974 0.0
C620 C 0.80775 0.30283 0.30145 0.0
C621 C 0.77869 0.26112 0.2993 0.0
C622 C 0.80754 0.33112 0.28571 0.0
C623 C 0.77847 0.31798 0.26752 0.0
C624 C 0.74941 0.27628 0.26547 0.0
H625 H 0.77567 0.35825 0.12663 0.0
H626 H 0.7885 0.34711 0.16734 0.0
C627 C 0.74957 0.24808 0.28121 0.0
C628 C 0.78151 0.34645 0.24875 0.0
H629 H 0.72218 0.36975 0.2141 0.0
C630 C 0.81789 0.36617 0.23564 0.0
C631 C 0.74745 0.35001 0.2417 0.0
C632 C 0.7085 0.33196 0.25587 0.0
C633 C 0.81974 0.38599 0.21445 0.0
C634 C 0.78425 0.38563 0.2062 0.0
C635 C 0.7492 0.36946 0.22039 0.0
C636 C 0.78071 0.39591 0.18161 0.0
C637 C 0.85896 0.4053 0.20047 0.0
C638 C 0.77165 0.42676 0.17628 0.0
C639 C 0.76418 0.4331 0.15298 0.0
C640 C 0.76493 0.40811 0.13489 0.0
C641 C 0.77455 0.37765 0.1403 0.0
C642 C 0.78237 0.37162 0.16347 0.0
H643 H 0.88596 0.41486 0.2121 0.0
H644 H 0.85812 0.38265 0.18772 0.0
H645 H 0.86289 0.4323 0.19049 0.0
H646 H 0.76974 0.4454 0.19016 0.0
H647 H 0.7566 0.45664 0.1492 0.0
H648 H 0.51278 0.81938 0.65169 0.0
H649 H 0.46401 0.82218 0.62434 0.0
H650 H 0.46514 0.72786 0.58216 0.0
H651 H 0.51402 0.72511 0.6094 0.0
H652 H 0.48664 0.84093 0.57485 0.0
H653 H 0.34168 0.69281 0.58501 0.0
H654 H 0.37337 0.72168 0.60959 0.0
H655 H 0.38858 0.6929 0.59123 0.0
C656 C 0.5018 0.79855 0.63693 0.0
C657 C 0.51657 0.77154 0.63276 0.0
C658 C 0.47396 0.80018 0.62136 0.0
C659 C 0.46045 0.77467 0.60155 0.0
C660 C 0.47446 0.74704 0.59771 0.0
H661 H 0.42384 0.77567 0.4605 0.0
H662 H 0.44651 0.7877 0.50141 0.0
C663 C 0.50254 0.7457 0.6131 0.0
C664 C 0.43688 0.78067 0.58284 0.0
H665 H 0.3528 0.72657 0.54828 0.0
C666 C 0.45684 0.81644 0.56934 0.0
C667 C 0.39777 0.74907 0.57602 0.0
C668 C 0.37374 0.71191 0.59122 0.0
C669 C 0.44038 0.81967 0.54788 0.0
C670 C 0.40349 0.78602 0.53972 0.0
C671 C 0.38152 0.75201 0.55439 0.0
C672 C 0.39056 0.78282 0.51492 0.0
C673 C 0.4636 0.85825 0.53361 0.0
C674 C 0.35131 0.77544 0.50904 0.0
C675 C 0.33811 0.76814 0.48562 0.0
C676 C 0.36382 0.76753 0.46789 0.0
C677 C 0.40328 0.77557 0.47385 0.0
C678 C 0.41646 0.78303 0.49715 0.0
H679 H 0.4816 0.88511 0.5452 0.0
H680 H 0.48545 0.8553 0.52184 0.0
H681 H 0.44264 0.86399 0.5226 0.0
H682 H 0.33073 0.77463 0.52259 0.0
H683 H 0.30741 0.7617 0.48148 0.0
H684 H 0.70005 0.51423 0.98006 0.0
H685 H 0.65178 0.46384 0.95212 0.0
H686 H 0.7528 0.46788 0.91409 0.0
H687 H 0.80081 0.51702 0.94249 0.0
H688 H 0.64845 0.47853 0.90714 0.0
H689 H 0.67373 0.34752 0.91341 0.0
H690 H 0.69266 0.38722 0.93546 0.0
H691 H 0.72195 0.39324 0.90921 0.0
C692 C 0.71174 0.50333 0.96617 0.0
C693 C 0.75398 0.51866 0.96365 0.0
C694 C 0.68419 0.47467 0.95019 0.0
C695 C 0.69858 0.46135 0.93132 0.0
C696 C 0.74083 0.47654 0.92896 0.0
H697 H 0.65322 0.43076 0.78954 0.0
H698 H 0.6659 0.45028 0.83095 0.0
C699 C 0.76828 0.50495 0.94499 0.0
C700 C 0.67066 0.43637 0.91217 0.0
H701 H 0.65273 0.35906 0.87437 0.0
C702 C 0.64844 0.45168 0.90036 0.0
C703 C 0.66995 0.40092 0.9035 0.0
C704 C 0.69055 0.3811 0.91628 0.0
C705 C 0.62885 0.43484 0.87893 0.0
C706 C 0.63214 0.40234 0.869 0.0
C707 C 0.65087 0.38448 0.88187 0.0
C708 C 0.62166 0.39043 0.84413 0.0
C709 C 0.60647 0.45323 0.86656 0.0
C710 C 0.59309 0.35011 0.83788 0.0
C711 C 0.58598 0.33879 0.81416 0.0
C712 C 0.60787 0.36755 0.79645 0.0
C713 C 0.63623 0.40791 0.80283 0.0
C714 C 0.64309 0.41921 0.82645 0.0
H715 H 0.59486 0.46729 0.87934 0.0
H716 H 0.62791 0.47764 0.85446 0.0
H717 H 0.58035 0.42994 0.85606 0.0
H718 H 0.57666 0.32741 0.85135 0.0
H719 H 0.56417 0.3074 0.80967 0.0
H720 H 0.33051 0.42211 0.97574 0.0
H721 H 0.4044 0.44761 0.97155 0.0
H722 H 0.41787 0.45755 0.04707 0.0
H723 H 0.34447 0.43176 0.0512 0.0
H724 H 0.46556 0.52584 0.98791 0.0
H725 H 0.4849 0.40349 0.02878 0.0
H726 H 0.43592 0.39506 0.0185 0.0
H727 H 0.45567 0.41893 0.04657 0.0
C728 C 0.34909 0.42818 0.99141 0.0
C729 C 0.33184 0.42451 0.01381 0.0
C730 C 0.39133 0.44326 0.98901 0.0
C731 C 0.41672 0.45425 0.00901 0.0
C732 C 0.39895 0.44866 0.0314 0.0
H733 H 0.66885 0.57143 0.04987 0.0
H734 H 0.5949 0.54346 0.04645 0.0
C735 C 0.357 0.43397 0.03376 0.0
C736 C 0.46208 0.47475 1.00674 0.0
H737 H 0.54524 0.46894 0.0252 0.0
C738 C 0.48304 0.51318 0.99574 0.0
C739 C 0.48488 0.45832 0.01704 0.0
C740 C 0.46422 0.4165 0.0282 0.0
C741 C 0.52614 0.53634 0.99569 0.0
C742 C 0.54888 0.5204 1.00666 0.0
C743 C 0.52786 0.48141 0.01699 0.0
C744 C 0.59443 0.54375 0.00834 0.0
C745 C 0.54692 0.57834 0.98478 0.0
C746 C 0.61915 0.5547 0.98809 0.0
C747 C 0.66166 0.57118 0.99009 0.0
C748 C 0.67993 0.5767 0.01235 0.0
C749 C 0.65551 0.56794 0.03254 0.0
C750 C 0.61323 0.55165 0.03057 0.0
H751 H 0.52527 0.58983 0.982 0.0
H752 H 0.5726 0.60047 0.99601 0.0
H753 H 0.55967 0.57706 0.96741 0.0
H754 H 0.60537 0.5482 0.97074 0.0
H755 H 0.67968 0.57645 0.97427 0.0
H756 H 0.09997 0.67667 0.3117 0.0
H757 H 0.05168 0.60289 0.30806 0.0
H758 H 0.05326 0.59044 0.38348 0.0
H759 H 0.10064 0.66387 0.38706 0.0
H760 H 0.0715 0.54398 0.32256 0.0
H761 H 0.93161 0.52021 0.36825 0.0
H762 H 0.97058 0.56977 0.35787 0.0
H763 H 0.9773 0.54982 0.38522 0.0
C764 C 0.08843 0.65836 0.32751 0.0
C765 C 0.10343 0.67587 0.3497 0.0
C766 C 0.06136 0.61618 0.32541 0.0
C767 C 0.04857 0.59108 0.34551 0.0
C768 C 0.06198 0.60913 0.36776 0.0
H769 H 0.92149 0.33825 0.38471 0.0
H770 H 0.96752 0.41211 0.38174 0.0
C771 C 0.08911 0.65109 0.36981 0.0
C772 C 0.02466 0.54576 0.34332 0.0
H773 H 0.9385 0.46115 0.36313 0.0
C774 C 0.04213 0.52583 0.33115 0.0
C775 C 0.98644 0.52207 0.3546 0.0
C776 C 0.96515 0.54154 0.36703 0.0
C777 C 0.02321 0.48291 0.33077 0.0
C778 C 0.9856 0.4593 0.34265 0.0
C779 C 0.9676 0.47925 0.35425 0.0
C780 C 0.96435 0.4139 0.34375 0.0
C781 C 0.04432 0.4632 0.31841 0.0
C782 C 0.94863 0.38999 0.32332 0.0
C783 C 0.92263 0.34757 0.32503 0.0
C784 C 0.91188 0.32861 0.34719 0.0
C785 C 0.9299 0.35213 0.36742 0.0
C786 C 0.95585 0.39436 0.36574 0.0
H787 H 0.07701 0.48547 0.31477 0.0
H788 H 0.04252 0.43774 0.32909 0.0
H789 H 0.02881 0.4504 0.30136 0.0
H790 H 0.95412 0.40438 0.30619 0.0
H791 H 0.90806 0.33026 0.30924 0.0
H792 H 0.50595 0.15457 0.66147 0.0
H793 H 0.52516 0.10257 0.66235 0.0
H794 H 0.40736 0.01666 0.6914 0.0
H795 H 0.38719 0.06965 0.69031 0.0
H796 H 0.52995 0.06653 0.7041 0.0
H797 H 0.42699 0.95124 0.63851 0.0
H798 H 0.43601 1.0029 0.63886 0.0
H799 H 0.40355 0.96696 0.66065 0.0
C800 C 0.48348 0.12453 0.66767 0.0
C801 C 0.44489 0.11642 0.67589 0.0
C802 C 0.49474 0.09473 0.66821 0.0
C803 C 0.46788 0.05573 0.67696 0.0
C804 C 0.42849 0.04654 0.68434 0.0
H805 H 0.55413 0.892 0.72274 0.0
H806 H 0.52821 0.93959 0.72074 0.0
C807 C 0.41695 0.07673 0.68369 0.0
C808 C 0.4833 0.02661 0.67968 0.0
H809 H 0.47493 0.93848 0.65781 0.0
C810 C 0.5177 0.03834 0.69412 0.0
C811 C 0.46773 0.99025 0.66636 0.0
C812 C 0.43169 0.97696 0.65006 0.0
C813 C 0.53725 0.01507 0.69539 0.0
C814 C 0.52162 0.97856 0.68217 0.0
C815 C 0.48697 0.96655 0.66787 0.0
C816 C 0.54017 0.95192 0.68351 0.0
C817 C 0.57518 0.03042 0.71039 0.0
C818 C 0.55593 0.94316 0.66328 0.0
C819 C 0.57083 0.91578 0.66443 0.0
C820 C 0.56971 0.8965 0.68577 0.0
C821 C 0.55538 0.90652 0.70609 0.0
C822 C 0.54064 0.9338 0.70497 0.0
H823 H 0.58948 0.06367 0.71403 0.0
H824 H 0.56679 0.01413 0.72752 0.0
H825 H 0.59821 0.02462 0.70177 0.0
H826 H 0.55578 0.95674 0.64652 0.0
H827 H 0.58084 0.90784 0.64841 0.0
H828 H 0.59233 0.68295 0.63523 0.0
H829 H 0.56567 0.60953 0.62747 0.0
H830 H 0.51232 0.58057 0.69686 0.0
H831 H 0.5386 0.65277 0.70462 0.0
H832 H 0.57374 0.54649 0.65362 0.0
H833 H 0.41393 0.51521 0.65152 0.0
H834 H 0.4575 0.56598 0.64813 0.0
H835 H 0.4416 0.54398 0.67697 0.0
C836 C 0.57572 0.66086 0.64893 0.0
C837 C 0.56718 0.67349 0.67042 0.0
C838 C 0.56018 0.619 0.64443 0.0
C839 C 0.53594 0.58955 0.66136 0.0
C840 C 0.52991 0.6026 0.6833 0.0
H841 H 0.46995 0.35406 0.70394 0.0
H842 H 0.4936 0.42579 0.69599 0.0
C843 C 0.54521 0.64396 0.68776 0.0
C844 C 0.51614 0.54496 0.65664 0.0
H845 H 0.42291 0.45741 0.65959 0.0
C846 C 0.54074 0.52704 0.65435 0.0
C847 C 0.473 0.51952 0.65726 0.0
C848 C 0.44491 0.53715 0.65836 0.0
C849 C 0.52347 0.48433 0.65451 0.0
C850 C 0.4806 0.45898 0.6573 0.0
C851 C 0.45576 0.47682 0.65773 0.0
C852 C 0.46206 0.41472 0.66265 0.0
C853 C 0.55143 0.46665 0.6526 0.0
C854 C 0.43435 0.3843 0.64719 0.0
C855 C 0.42033 0.34277 0.65185 0.0
C856 C 0.43383 0.33145 0.67205 0.0
C857 C 0.45929 0.36191 0.68813 0.0
C858 C 0.47312 0.40297 0.68353 0.0
H859 H 0.58057 0.48812 0.64364 0.0
H860 H 0.55901 0.46079 0.67054 0.0
H861 H 0.53645 0.43726 0.64282 0.0
H862 H 0.42505 0.39276 0.63109 0.0
H863 H 0.40112 0.31996 0.63904 0.0
H864 H 0.13289 0.47609 0.03785 0.0
H865 H 0.08426 0.49958 0.03171 0.0
H866 H 0.04493 0.43166 0.96671 0.0
H867 H 0.09369 0.40718 0.97308 0.0
H868 H 0.08203 0.54639 0.99676 0.0
H869 H 0.93638 0.39763 0.99827 0.0
H870 H 0.98441 0.40255 1.0075 0.0
H871 H 0.97316 0.40197 0.97671 0.0
C872 C 0.11377 0.46581 0.02227 0.0
C873 C 0.11729 0.43977 1.00592 0.0
C874 C 0.08594 0.47941 0.01877 0.0
C875 C 0.06077 0.46753 0.99876 0.0
C876 C 0.06353 0.44085 0.98249 0.0
H877 H 0.92225 0.59875 0.97441 0.0
H878 H 0.97197 0.57541 0.96846 0.0
C879 C 0.09136 0.4268 0.98614 0.0
C880 C 0.03253 0.48413 0.99528 0.0
H881 H 0.93142 0.4567 0.99327 0.0
C882 C 0.04908 0.52677 0.99576 0.0
C883 C 0.98952 0.45861 0.99405 0.0
C884 C 0.96962 0.41265 0.99428 0.0
C885 C 0.02392 0.54448 0.99605 0.0
C886 C 0.98088 0.51892 0.99531 0.0
C887 C 0.9644 0.47636 0.9938 0.0
C888 C 0.95219 0.535 0.99868 0.0
C889 C 0.04365 0.59025 0.99846 0.0
C890 C 0.92451 0.52023 0.01752 0.0
C891 C 0.89614 0.53321 0.02078 0.0
C892 C 0.89459 0.5615 1.00533 0.0
C893 C 0.92301 0.57735 0.98678 0.0
C894 C 0.9514 0.56395 0.98336 0.0
H895 H 0.0763 0.60459 1.00381 0.0
H896 H 0.04231 0.60347 0.98127 0.0
H897 H 0.02718 0.59841 0.01163 0.0
H898 H 0.92462 0.49826 0.02974 0.0
H899 H 0.87506 0.52068 0.03541 0.0
H900 H 0.3212 0.93764 0.33928 0.0
H901 H 0.39366 0.99115 0.33602 0.0
H902 H 0.42809 0.8986 0.33005 0.0
H903 H 0.35682 0.84569 0.33305 0.0
H904 H 0.45726 1.0014 0.36713 0.0
H905 H 0.49174 0.97573 0.276 0.0
H906 H 0.44008 0.95629 0.2865 0.0
H907 H 0.46747 0.93 0.2934 0.0
C908 C 0.34417 0.92878 0.3368 0.0
C909 C 0.33297 0.88725 0.33637 0.0
C910 C 0.38558 0.95936 0.33505 0.0
C911 C 0.41635 0.94891 0.33245 0.0
C912 C 0.40501 0.90754 0.33155 0.0
H913 H 0.68414 0.07324 0.33655 0.0
H914 H 0.61077 0.02263 0.33336 0.0
C915 C 0.36399 0.87719 0.33345 0.0
C916 C 0.4606 0.98063 0.33237 0.0
H917 H 0.54931 0.01573 0.30091 0.0
C918 C 0.47729 0.00489 0.35253 0.0
C919 C 0.4869 0.98479 0.31346 0.0
C920 C 0.47064 0.96059 0.29102 0.0
C921 C 0.51956 0.03245 0.35452 0.0
C922 C 0.54592 0.03653 0.33565 0.0
C923 C 0.52922 0.01245 0.31542 0.0
C924 C 0.59057 0.06691 0.33633 0.0
C925 C 0.53579 0.05619 0.37713 0.0
C926 C 0.60366 0.10859 0.33839 0.0
C927 C 0.64525 0.13736 0.34019 0.0
C928 C 0.67515 0.12539 0.33975 0.0
C929 C 0.66213 0.08365 0.33687 0.0
C930 C 0.62017 0.05467 0.33512 0.0
H931 H 0.5141 0.04148 0.39197 0.0
H932 H 0.56571 0.0592 0.38198 0.0
H933 H 0.54029 0.08731 0.37477 0.0
H934 H 0.58158 0.11895 0.33881 0.0
H935 H 0.65378 0.16913 0.34212 0.0
H936 H 0.37901 0.1611 0.76057 0.0
H937 H 0.34069 0.17049 0.7924 0.0
H938 H 0.32506 0.25567 0.7493 0.0
H939 H 0.36291 0.24583 0.71733 0.0
H940 H 0.36392 0.24121 0.81554 0.0
H941 H 0.21088 0.188 0.77592 0.0
H942 H 0.24728 0.17529 0.76372 0.0
H943 H 0.25292 0.22476 0.75849 0.0
C944 C 0.36652 0.18108 0.7577 0.0
C945 C 0.3735 0.20222 0.73631 0.0
C946 C 0.34476 0.18659 0.77595 0.0
C947 C 0.32954 0.21358 0.77335 0.0
C948 C 0.33557 0.23399 0.75171 0.0
H949 H 0.22189 0.30575 0.87788 0.0
H950 H 0.25449 0.29715 0.8425 0.0
C951 C 0.35729 0.22836 0.73338 0.0
C952 C 0.3105 0.22262 0.79394 0.0
H953 H 0.22363 0.22124 0.813 0.0
C954 C 0.33319 0.23671 0.81493 0.0
C955 C 0.27045 0.21706 0.79327 0.0
C956 C 0.24372 0.20013 0.77174 0.0
C957 C 0.31709 0.24528 0.83509 0.0
C958 C 0.277 0.23942 0.8345 0.0
C959 C 0.25444 0.22596 0.81345 0.0
C960 C 0.25745 0.24515 0.85595 0.0
C961 C 0.34324 0.26079 0.85694 0.0
C962 C 0.24823 0.21886 0.8753 0.0
C963 C 0.22959 0.22364 0.89544 0.0
C964 C 0.21971 0.25494 0.89685 0.0
C965 C 0.22938 0.28158 0.87752 0.0
C966 C 0.24774 0.27651 0.85721 0.0
H967 H 0.37612 0.27254 0.85303 0.0
H968 H 0.33994 0.2855 0.86537 0.0
H969 H 0.33309 0.23541 0.86978 0.0
H970 H 0.25516 0.1943 0.87475 0.0
H971 H 0.22297 0.20276 0.91001 0.0
H972 H 0.94504 0.14974 0.21352 0.0
H973 H 0.98648 0.18062 0.17855 0.0
H974 H 1.0025 0.29767 0.19874 0.0
H975 H 0.96348 0.26762 0.23474 0.0
H976 H 0.9816 0.21785 0.14081 0.0
H977 H 0.11915 0.32867 0.1905 0.0
H978 H 0.07475 0.28833 0.20487 0.0
H979 H 0.0757 0.33464 0.19617 0.0
C980 C 0.95782 0.18223 0.21085 0.0
C981 C 0.95139 0.20615 0.22752 0.0
C982 C 0.98125 0.19982 0.19055 0.0
C983 C 0.99876 0.24184 0.18609 0.0
C984 C 0.99056 0.26545 0.20199 0.0
H985 H 0.11624 0.35917 0.05161 0.0
H986 H 0.06538 0.32158 0.08231 0.0
C987 C 0.96753 0.24797 0.22251 0.0
C988 C 0.02621 0.26074 0.16517 0.0
H989 H 0.12194 0.33609 0.1491 0.0
C990 C 0.01232 0.24369 0.14266 0.0
C991 C 0.0667 0.29406 0.16741 0.0
C992 C 0.08516 0.31224 0.19105 0.0
C993 C 0.03752 0.25897 0.12254 0.0
C994 C 0.07754 0.29307 0.12473 0.0
C995 C 0.09131 0.31009 0.14722 0.0
C996 C 0.10638 0.3113 0.1043 0.0
C997 C 0.02138 0.23748 0.09931 0.0
C998 C 0.14652 0.3181 0.10606 0.0
C999 C 0.1757 0.34019 0.08874 0.0
C1000 C 0.16544 0.35544 0.06892 0.0
C1001 C 0.12483 0.347 0.06643 0.0
C1002 C 0.09567 0.32538 0.08402 0.0
H1003 H 0.99619 0.20553 0.10182 0.0
H1004 H 0.00904 0.25386 0.089 0.0
H1005 H 0.04599 0.23698 0.08888 0.0
H1006 H 0.15579 0.30759 0.12136 0.0
H1007 H 0.20686 0.34665 0.09125 0.0
H1008 H 0.68891 0.91097 0.54595 0.0
H1009 H 0.69868 0.94896 0.50913 0.0
H1010 H 0.80956 0.04978 0.53701 0.0
H1011 H 0.80008 0.01231 0.57361 0.0
H1012 H 0.70479 0.0233 0.49936 0.0
H1013 H 0.8499 0.02991 0.47508 0.0
H1014 H 0.81688 0.99672 0.49799 0.0
H1015 H 0.85193 0.04986 0.50401 0.0
C1016 C 0.71521 0.94136 0.54431 0.0
C1017 C 0.74399 0.95822 0.56273 0.0
C1018 C 0.72089 0.96299 0.52316 0.0
C1019 C 0.75551 1.0019 0.51992 0.0
C1020 C 0.78334 0.01933 0.53864 0.0
H1021 H 0.85283 0.20655 0.42699 0.0
H1022 H 0.83869 0.15388 0.45647 0.0
C1023 C 0.77777 0.9978 0.55967 0.0
C1024 C 0.76251 0.02487 0.4973 0.0
H1025 H 0.83459 0.07631 0.45474 0.0
C1026 C 0.73289 0.03434 0.48941 0.0
C1027 C 0.79909 0.03921 0.4841 0.0
C1028 C 0.83107 0.02806 0.49057 0.0
C1029 C 0.73977 0.05941 0.46955 0.0
C1030 C 0.77707 0.07509 0.45697 0.0
C1031 C 0.80606 0.06446 0.46437 0.0
C1032 C 0.788 0.10536 0.43745 0.0
C1033 C 0.70784 0.07052 0.46284 0.0
C1034 C 0.76523 0.09544 0.41641 0.0
C1035 C 0.77353 0.12562 0.39937 0.0
C1036 C 0.80497 0.16618 0.40302 0.0
C1037 C 0.82868 0.17551 0.42361 0.0
C1038 C 0.82056 0.14542 0.4405 0.0
H1039 H 0.6841 0.06182 0.47668 0.0
H1040 H 0.72229 0.10387 0.45955 0.0
H1041 H 0.69246 0.05437 0.44636 0.0
H1042 H 0.74035 0.06463 0.41344 0.0
H1043 H 0.75432 0.1176 0.38386 0.0
H1044 H 0.64736 0.75687 0.71517 0.0
H1045 H 0.68899 0.74644 0.74464 0.0
H1046 H 0.6798 0.83185 0.79104 0.0
H1047 H 0.63978 0.84344 0.76133 0.0
H1048 H 0.75417 0.84109 0.79387 0.0
H1049 H 0.63978 0.6762 0.80205 0.0
H1050 H 0.6608 0.69135 0.77303 0.0
H1051 H 0.63006 0.71095 0.78526 0.0
C1052 C 0.65518 0.77417 0.73141 0.0
C1053 C 0.64065 0.80133 0.73585 0.0
C1054 C 0.67843 0.7677 0.74845 0.0
C1055 C 0.68678 0.78752 0.77045 0.0
C1056 C 0.67371 0.81593 0.77436 0.0
H1057 H 0.74013 0.71397 0.90529 0.0
H1058 H 0.7087 0.72485 0.87022 0.0
C1059 C 0.65083 0.82259 0.75734 0.0
C1060 C 0.70768 0.77802 0.78986 0.0
H1061 H 0.69956 0.70086 0.82523 0.0
C1062 C 0.74229 0.81036 0.80063 0.0
C1063 C 0.69187 0.73804 0.79911 0.0
C1064 C 0.65338 0.70216 0.78946 0.0
C1065 C 0.76128 0.80404 0.82029 0.0
C1066 C 0.74609 0.76393 0.8292 0.0
C1067 C 0.71155 0.73154 0.81838 0.0
C1068 C 0.76489 0.75522 0.85008 0.0
C1069 C 0.79651 0.8408 0.83183 0.0
C1070 C 0.80673 0.76741 0.85038 0.0
C1071 C 0.82477 0.76151 0.87048 0.0
C1072 C 0.80135 0.74256 0.89073 0.0
C1073 C 0.75907 0.72856 0.89003 0.0
C1074 C 0.74109 0.7349 0.86997 0.0
H1075 H 0.79639 0.8694 0.82747 0.0
H1076 H 0.79555 0.83745 0.85128 0.0
H1077 H 0.82578 0.84414 0.82537 0.0
H1078 H 0.82565 0.78186 0.8351 0.0
H1079 H 0.85725 0.77194 0.87019 0.0
H1080 H 0.09718 0.78241 0.21183 0.0
H1081 H 0.05736 0.751 0.17584 0.0
H1082 H 0.95714 0.76202 0.20377 0.0
H1083 H 0.9964 0.79301 0.23965 0.0
H1084 H 0.93524 0.6827 0.18409 0.0
H1085 H 0.0293 0.81032 0.12257 0.0
H1086 H 0.05584 0.7922 0.14092 0.0
H1087 H 0.03119 0.81739 0.1541 0.0
C1088 C 0.06657 0.77792 0.21035 0.0
C1089 C 0.05018 0.79055 0.22864 0.0
C1090 C 0.04398 0.76033 0.18965 0.0
C1091 C 1.00441 0.75469 0.18688 0.0
C1092 C 0.9877 0.76638 0.20533 0.0
H1093 H 0.79881 0.64558 0.09107 0.0
H1094 H 0.84846 0.6829 0.12223 0.0
C1095 C 0.0103 0.78425 0.22585 0.0
C1096 C 0.97966 0.73568 0.16515 0.0
H1097 H 0.97213 0.75223 0.10647 0.0
C1098 C 0.94342 0.69788 0.16712 0.0
C1099 C 0.99041 0.75524 0.1429 0.0
C1100 C 0.02865 0.79616 0.13982 0.0
C1101 C 0.91761 0.67924 0.14763 0.0
C1102 C 0.92748 0.69944 0.12553 0.0
C1103 C 0.96429 0.73683 0.12337 0.0
C1104 C 0.89922 0.68238 0.10483 0.0
C1105 C 0.88017 0.63767 0.1509 0.0
C1106 C 0.91165 0.672 0.08382 0.0
C1107 C 0.88325 0.65114 0.0657 0.0
C1108 C 0.84201 0.64067 0.06822 0.0
C1109 C 0.83036 0.65329 0.08862 0.0
C1110 C 0.85868 0.6743 0.10655 0.0
H1111 H 0.88358 0.62133 0.16622 0.0
H1112 H 0.85322 0.64138 0.15422 0.0
H1113 H 0.87394 0.61839 0.13497 0.0
H1114 H 0.94281 0.67819 0.08191 0.0
H1115 H 0.89307 0.64138 0.05033 0.0
H1116 H 0.3151 0.09279 0.54708 0.0
H1117 H 0.30742 0.05511 0.51035 0.0
H1118 H 0.20158 0.9497 0.53905 0.0
H1119 H 0.20928 0.98676 0.5757 0.0
H1120 H 0.26005 0.93293 0.51732 0.0
H1121 H 0.2175 0.024 0.45885 0.0
H1122 H 0.26319 0.05179 0.47626 0.0
H1123 H 0.2143 0.02528 0.49054 0.0
C1124 C 0.29035 0.0615 0.54561 0.0
C1125 C 0.26265 0.04297 0.56436 0.0
C1126 C 0.28572 0.04013 0.52449 0.0
C1127 C 0.25347 0.99972 0.52173 0.0
C1128 C 0.22644 0.98094 0.54061 0.0
H1129 H 0.15615 0.79706 0.42558 0.0
H1130 H 0.16924 0.84709 0.45654 0.0
C1131 C 0.23083 1.00228 0.56157 0.0
C1132 C 0.24811 0.97617 0.49958 0.0
H1133 H 0.22065 0.9689 0.44146 0.0
C1134 C 0.25164 0.94097 0.50073 0.0
C1135 C 0.23744 0.98674 0.47781 0.0
C1136 C 0.23256 0.02384 0.47563 0.0
C1137 C 0.24436 0.91586 0.48093 0.0
C1138 C 0.23209 0.92545 0.45938 0.0
C1139 C 0.22974 0.96135 0.45797 0.0
C1140 C 0.22009 0.89737 0.43866 0.0
C1141 C 0.25008 0.87924 0.4833 0.0
C1142 C 0.24253 0.90948 0.41751 0.0
C1143 C 0.23462 0.88082 0.39953 0.0
C1144 C 0.20389 0.83973 0.40237 0.0
C1145 C 0.17989 0.82851 0.42287 0.0
C1146 C 0.18759 0.85703 0.44067 0.0
H1147 H 0.27058 0.88275 0.49827 0.0
H1148 H 0.21995 0.85162 0.48662 0.0
H1149 H 0.26308 0.87418 0.46695 0.0
H1150 H 0.26757 0.94049 0.41545 0.0
H1151 H 0.25402 0.89026 0.38408 0.0
loop_
_geom_bond_atom_site_label_1
_geom_bond_atom_site_label_2
_geom_bond_distance
_geom_bond_site_symmetry_2
_ccdc_geom_bond_type
Gd0 N31 2.661 1_556 S
Gd0 N37 2.601 . S
Gd0 O44 2.545 . S
Gd0 O45 2.606 . S
Gd0 O47 2.429 . S
Gd0 O48 2.545 . S
Gd0 O49 2.412 . S
Gd0 O51 2.362 1_556 S
Gd0 O52 2.324 1_556 S
Gd0 C59 2.828 . S
Gd1 N10 2.661 . S
Gd1 N14 2.601 . S
Gd1 O45 2.362 1_554 S
Gd1 O46 2.324 . S
Gd1 O50 2.545 . S
Gd1 O51 2.606 . S
Gd1 O53 2.429 . S
Gd1 O54 2.545 . S
Gd1 O55 2.412 . S
Gd1 C68 2.828 . S
C2 C5 1.407 1_556 S
C2 C7 1.431 . S
C2 C8 1.412 . S
C3 C6 1.445 . S
C3 C7 1.309 1_554 S
C3 H22 0.928 . S
C4 C5 1.436 . S
C4 C6 1.413 . S
C4 N14 1.359 . S
C5 C2 1.407 1_554 S
C5 C4 1.436 . S
C5 N10 1.351 . S
C6 C3 1.445 . S
C6 C4 1.413 . S
C6 C16 1.391 . S
C7 C2 1.431 . S
C7 C3 1.309 1_556 S
C7 H18 0.930 . S
C8 C2 1.412 . S
C8 C9 1.355 . S
C8 H20 0.930 . S
C9 C8 1.355 . S
C9 C11 1.402 . S
C9 H21 0.930 . S
N10 Gd1 2.661 . S
N10 C5 1.351 . S
N10 C11 1.307 1_554 S
C11 C9 1.402 . S
C11 N10 1.307 1_556 S
C11 H12 0.930 . S
H12 C11 0.930 . S
C13 N14 1.334 . S
C13 C15 1.394 . S
C13 H17 0.930 . S
N14 Gd1 2.601 . S
N14 C4 1.359 . S
N14 C13 1.334 . S
C15 C13 1.394 . S
C15 C16 1.359 . S
C15 H27 0.930 . S
C16 C6 1.391 . S
C16 C15 1.359 . S
C16 H28 0.929 . S
H17 C13 0.930 . S
H18 C7 0.930 . S
H19 C36 0.930 . S
H20 C8 0.930 . S
H21 C9 0.930 . S
H22 C3 0.928 . S
H23 C41 0.930 . S
H24 C32 0.930 . S
H25 C33 0.930 . S
H26 C57 0.929 . S
H27 C15 0.930 . S
H28 C16 0.929 . S
H29 C58 0.930 . S
H30 C39 0.930 . S
N31 Gd0 2.661 1_554 S
N31 C35 1.350 . S
N31 C36 1.307 . S
C32 H24 0.930 . S
C32 C33 1.355 . S
C32 C34 1.412 . S
C33 H25 0.930 . S
C33 C32 1.355 . S
C33 C36 1.402 . S
C34 C32 1.412 . S
C34 C35 1.417 . S
C34 C58 1.431 . S
C35 N31 1.350 . S
C35 C34 1.417 . S
C35 C38 1.426 . S
C36 H19 0.930 . S
C36 N31 1.307 . S
C36 C33 1.402 . S
N37 Gd0 2.601 . S
N37 C38 1.359 1_556 S
N37 C41 1.334 . S
C38 C35 1.426 . S
C38 N37 1.359 1_554 S
C38 C42 1.413 . S
C39 H30 0.930 . S
C39 C40 1.359 . S
C39 C41 1.394 . S
C40 C39 1.359 . S
C40 C42 1.391 1_556 S
C40 H43 0.929 . S
C41 H23 0.930 . S
C41 N37 1.334 . S
C41 C39 1.394 . S
C42 C38 1.413 . S
C42 C40 1.391 1_554 S
C42 C57 1.437 . S
H43 C40 0.929 . S
O44 Gd0 2.545 . S
O44 C59 1.258 . S
O45 Gd0 2.606 . S
O45 Gd1 2.362 1_556 S
O45 C56 1.284 . S
O46 Gd1 2.324 . S
O46 C66 1.254 . S
O47 Gd0 2.429 . S
O47 C66 1.268 1_556 S
O48 Gd0 2.545 . S
O48 C56 1.250 . S
O49 Gd0 2.412 . S
O49 C59 1.252 . S
O50 Gd1 2.545 . S
O50 C68 1.258 . S
O51 Gd0 2.362 1_554 S
O51 Gd1 2.606 . S
O51 C67 1.284 . S
O52 Gd0 2.324 1_554 S
O52 C75 1.254 . S
O53 Gd1 2.429 . S
O53 C75 1.268 . S
O54 Gd1 2.545 . S
O54 C67 1.250 . S
O55 Gd1 2.412 . S
O55 C68 1.252 . S
C56 O45 1.284 . S
C56 O48 1.250 . S
C57 H26 0.929 . S
C57 C42 1.437 . S
C57 C58 1.317 . S
C58 H29 0.930 . S
C58 C34 1.431 . S
C58 C57 1.317 . S
C59 Gd0 2.828 . S
C59 O44 1.258 . S
C59 O49 1.252 . S
C59 C60 1.497 . S
C60 C59 1.497 . S
C60 C61 1.395 . S
C60 C62 1.380 . S
C61 C60 1.395 . S
C61 C64 1.398 . S
C61 H76 0.930 . S
C62 C60 1.380 . S
C62 C63 1.391 . S
C62 H77 0.930 . S
C63 C62 1.391 . S
C63 C65 1.387 . S
C64 C61 1.398 . S
C64 C65 1.380 . S
C64 H78 0.930 . S
C65 C63 1.387 . S
C65 C64 1.380 . S
C65 H79 0.930 . S
C66 O46 1.254 . S
C66 O47 1.268 1_554 S
C67 O51 1.284 . S
C67 O54 1.250 . S
C68 Gd1 2.828 . S
C68 O50 1.258 . S
C68 O55 1.252 . S
C68 C69 1.497 . S
C69 C68 1.497 . S
C69 C70 1.395 . S
C69 C71 1.380 . S
C70 C69 1.395 . S
C70 C73 1.398 . S
C70 H80 0.930 . S
C71 C69 1.380 . S
C71 C72 1.391 . S
C71 H81 0.930 . S
C72 C71 1.391 . S
C72 C74 1.387 . S
C73 C70 1.398 . S
C73 C74 1.380 . S
C73 H82 0.930 . S
C74 C72 1.387 . S
C74 C73 1.380 . S
C74 H83 0.930 . S
C75 O52 1.254 . S
C75 O53 1.268 . S
H76 C61 0.930 . S
H77 C62 0.930 . S
H78 C64 0.930 . S
H79 C65 0.930 . S
H80 C70 0.930 . S
H81 C71 0.930 . S
H82 C73 0.930 . S
H83 C74 0.930 . S
Gd84 N115 2.661 . S
Gd84 N121 2.601 . S
Gd84 O128 2.545 . S
Gd84 O129 2.606 . S
Gd84 O131 2.429 . S
Gd84 O132 2.545 . S
Gd84 O133 2.412 . S
Gd84 O135 2.362 . S
Gd84 O136 2.324 . S
Gd84 C143 2.828 . S
Gd85 N94 2.661 . S
Gd85 N98 2.601 . S
Gd85 O129 2.362 . S
Gd85 O130 2.324 . S
Gd85 O134 2.545 . S
Gd85 O135 2.606 . S
Gd85 O137 2.429 . S
Gd85 O138 2.545 . S
Gd85 O139 2.412 . S
Gd85 C152 2.828 . S
C86 C89 1.417 . S
C86 C91 1.431 . S
C86 C92 1.412 . S
C87 C90 1.437 . S
C87 C91 1.317 . S
C87 H106 0.929 . S
C88 C89 1.426 . S
C88 C90 1.413 . S
C88 N98 1.359 . S
C89 C86 1.417 . S
C89 C88 1.426 . S
C89 N94 1.350 . S
C90 C87 1.437 . S
C90 C88 1.413 . S
C90 C100 1.391 . S
C91 C86 1.431 . S
C91 C87 1.317 . S
C91 H102 0.930 . S
C92 C86 1.412 . S
C92 C93 1.355 . S
C92 H104 0.930 . S
C93 C92 1.355 . S
C93 C95 1.402 . S
C93 H105 0.930 . S
N94 Gd85 2.661 . S
N94 C89 1.350 . S
N94 C95 1.307 . S
C95 C93 1.402 . S
C95 N94 1.307 . S
C95 H96 0.930 . S
H96 C95 0.930 . S
C97 N98 1.334 . S
C97 C99 1.394 . S
C97 H101 0.930 . S
N98 Gd85 2.601 . S
N98 C88 1.359 . S
N98 C97 1.334 . S
C99 C97 1.394 . S
C99 C100 1.359 . S
C99 H111 0.930 . S
C100 C90 1.391 . S
C100 C99 1.359 . S
C100 H112 0.929 . S
H101 C97 0.930 . S
H102 C91 0.930 . S
H103 C120 0.930 . S
H104 C92 0.930 . S
H105 C93 0.930 . S
H106 C87 0.929 . S
H107 C125 0.930 . S
H108 C116 0.930 . S
H109 C117 0.930 . S
H110 C141 0.929 . S
H111 C99 0.930 . S
H112 C100 0.929 . S
H113 C142 0.930 . S
H114 C123 0.930 . S
N115 Gd84 2.661 . S
N115 C119 1.350 . S
N115 C120 1.307 . S
C116 H108 0.930 . S
C116 C117 1.355 . S
C116 C118 1.412 . S
C117 H109 0.930 . S
C117 C116 1.355 . S
C117 C120 1.402 . S
C118 C116 1.412 . S
C118 C119 1.417 . S
C118 C142 1.431 . S
C119 N115 1.350 . S
C119 C118 1.417 . S
C119 C122 1.426 . S
C120 H103 0.930 . S
C120 N115 1.307 . S
C120 C117 1.402 . S
N121 Gd84 2.601 . S
N121 C122 1.359 . S
N121 C125 1.334 . S
C122 C119 1.426 . S
C122 N121 1.359 . S
C122 C126 1.413 . S
C123 H114 0.930 . S
C123 C124 1.359 . S
C123 C125 1.394 . S
C124 C123 1.359 . S
C124 C126 1.391 . S
C124 H127 0.929 . S
C125 H107 0.930 . S
C125 N121 1.334 . S
C125 C123 1.394 . S
C126 C122 1.413 . S
C126 C124 1.391 . S
C126 C141 1.437 . S
H127 C124 0.929 . S
O128 Gd84 2.545 . S
O128 C143 1.258 . S
O129 Gd84 2.606 . S
O129 Gd85 2.362 . S
O129 C140 1.284 . S
O130 Gd85 2.324 . S
O130 C150 1.254 . S
O131 Gd84 2.429 . S
O131 C150 1.268 . S
O132 Gd84 2.545 . S
O132 C140 1.250 . S
O133 Gd84 2.412 . S
O133 C143 1.252 . S
O134 Gd85 2.545 . S
O134 C152 1.258 . S
O135 Gd84 2.362 . S
O135 Gd85 2.606 . S
O135 C151 1.284 . S
O136 Gd84 2.324 . S
O136 C159 1.254 . S
O137 Gd85 2.429 . S
O137 C159 1.268 . S
O138 Gd85 2.545 . S
O138 C151 1.250 . S
O139 Gd85 2.412 . S
O139 C152 1.252 . S
C140 O129 1.284 . S
C140 O132 1.250 . S
C141 H110 0.929 . S
C141 C126 1.437 . S
C141 C142 1.317 . S
C142 H113 0.930 . S
C142 C118 1.431 . S
C142 C141 1.317 . S
C143 Gd84 2.828 . S
C143 O128 1.258 . S
C143 O133 1.252 . S
C143 C144 1.497 . S
C144 C143 1.497 . S
C144 C145 1.395 . S
C144 C146 1.380 . S
C145 C144 1.395 . S
C145 C148 1.398 . S
C145 H160 0.930 . S
C146 C144 1.380 . S
C146 C147 1.391 . S
C146 H161 0.930 . S
C147 C146 1.391 . S
C147 C149 1.387 . S
C148 C145 1.398 . S
C148 C149 1.380 . S
C148 H162 0.930 . S
C149 C147 1.387 . S
C149 C148 1.380 . S
C149 H163 0.930 . S
C150 O130 1.254 . S
C150 O131 1.268 . S
C151 O135 1.284 . S
C151 O138 1.250 . S
C152 Gd85 2.828 . S
C152 O134 1.258 . S
C152 O139 1.252 . S
C152 C153 1.497 . S
C153 C152 1.497 . S
C153 C154 1.395 . S
C153 C155 1.380 . S
C154 C153 1.395 . S
C154 C157 1.398 . S
C154 H164 0.930 . S
C155 C153 1.380 . S
C155 C156 1.391 . S
C155 H165 0.930 . S
C156 C155 1.391 . S
C156 C158 1.387 . S
C157 C154 1.398 . S
C157 C158 1.380 . S
C157 H166 0.930 . S
C158 C156 1.387 . S
C158 C157 1.380 . S
C158 H167 0.930 . S
C159 O136 1.254 . S
C159 O137 1.268 . S
H160 C145 0.930 . S
H161 C146 0.930 . S
H162 C148 0.930 . S
H163 C149 0.930 . S
H164 C154 0.930 . S
H165 C155 0.930 . S
H166 C157 0.930 . S
H167 C158 0.930 . S
Gd168 N199 2.661 . S
Gd168 N205 2.601 . S
Gd168 O212 2.545 . S
Gd168 O213 2.606 . S
Gd168 O215 2.429 . S
Gd168 O216 2.545 . S
Gd168 O217 2.412 . S
Gd168 O219 2.362 . S
Gd168 O220 2.324 . S
Gd168 C227 2.828 . S
Gd169 N178 2.661 . S
Gd169 N182 2.601 . S
Gd169 O213 2.362 . S
Gd169 O214 2.324 . S
Gd169 O218 2.545 . S
Gd169 O219 2.606 . S
Gd169 O221 2.429 . S
Gd169 O222 2.545 . S
Gd169 O223 2.412 . S
Gd169 C236 2.828 . S
C170 C173 1.417 . S
C170 C175 1.431 . S
C170 C176 1.412 . S
C171 C174 1.437 . S
C171 C175 1.317 . S
C171 H190 0.929 . S
C172 C173 1.426 . S
C172 C174 1.413 . S
C172 N182 1.359 . S
C173 C170 1.417 . S
C173 C172 1.426 . S
C173 N178 1.350 . S
C174 C171 1.437 . S
C174 C172 1.413 . S
C174 C184 1.391 . S
C175 C170 1.431 . S
C175 C171 1.317 . S
C175 H186 0.930 . S
C176 C170 1.412 . S
C176 C177 1.355 . S
C176 H188 0.930 . S
C177 C176 1.355 . S
C177 C179 1.402 . S
C177 H189 0.930 . S
N178 Gd169 2.661 . S
N178 C173 1.350 . S
N178 C179 1.307 . S
C179 C177 1.402 . S
C179 N178 1.307 . S
C179 H180 0.930 . S
H180 C179 0.930 . S
C181 N182 1.334 . S
C181 C183 1.394 . S
C181 H185 0.930 . S
N182 Gd169 2.601 . S
N182 C172 1.359 . S
N182 C181 1.334 . S
C183 C181 1.394 . S
C183 C184 1.359 . S
C183 H195 0.930 . S
C184 C174 1.391 . S
C184 C183 1.359 . S
C184 H196 0.929 . S
H185 C181 0.930 . S
H186 C175 0.930 . S
H187 C204 0.930 . S
H188 C176 0.930 . S
H189 C177 0.930 . S
H190 C171 0.929 . S
H191 C209 0.930 . S
H192 C200 0.930 . S
H193 C201 0.930 . S
H194 C225 0.929 . S
H195 C183 0.930 . S
H196 C184 0.929 . S
H197 C226 0.930 . S
H198 C207 0.930 . S
N199 Gd168 2.661 . S
N199 C203 1.350 . S
N199 C204 1.307 . S
C200 H192 0.930 . S
C200 C201 1.355 . S
C200 C202 1.412 . S
C201 H193 0.930 . S
C201 C200 1.355 . S
C201 C204 1.402 . S
C202 C200 1.412 . S
C202 C203 1.417 . S
C202 C226 1.431 . S
C203 N199 1.350 . S
C203 C202 1.417 . S
C203 C206 1.426 . S
C204 H187 0.930 . S
C204 N199 1.307 . S
C204 C201 1.402 . S
N205 Gd168 2.601 . S
N205 C206 1.359 . S
N205 C209 1.334 . S
C206 C203 1.426 . S
C206 N205 1.359 . S
C206 C210 1.413 . S
C207 H198 0.930 . S
C207 C208 1.359 . S
C207 C209 1.394 . S
C208 C207 1.359 . S
C208 C210 1.391 . S
C208 H211 0.929 . S
C209 H191 0.930 . S
C209 N205 1.334 . S
C209 C207 1.394 . S
C210 C206 1.413 . S
C210 C208 1.391 . S
C210 C225 1.437 . S
H211 C208 0.929 . S
O212 Gd168 2.545 . S
O212 C227 1.258 . S
O213 Gd168 2.606 . S
O213 Gd169 2.362 . S
O213 C224 1.284 . S
O214 Gd169 2.324 . S
O214 C234 1.254 . S
O215 Gd168 2.429 . S
O215 C234 1.268 . S
O216 Gd168 2.545 . S
O216 C224 1.250 . S
O217 Gd168 2.412 . S
O217 C227 1.252 . S
O218 Gd169 2.545 . S
O218 C236 1.258 . S
O219 Gd168 2.362 . S
O219 Gd169 2.606 . S
O219 C235 1.284 . S
O220 Gd168 2.324 . S
O220 C243 1.254 . S
O221 Gd169 2.429 . S
O221 C243 1.268 . S
O222 Gd169 2.545 . S
O222 C235 1.250 . S
O223 Gd169 2.412 . S
O223 C236 1.252 . S
C224 O213 1.284 . S
C224 O216 1.250 . S
C225 H194 0.929 . S
C225 C210 1.437 . S
C225 C226 1.317 . S
C226 H197 0.930 . S
C226 C202 1.431 . S
C226 C225 1.317 . S
C227 Gd168 2.828 . S
C227 O212 1.258 . S
C227 O217 1.252 . S
C227 C228 1.497 . S
C228 C227 1.497 . S
C228 C229 1.395 . S
C228 C230 1.380 . S
C229 C228 1.395 . S
C229 C232 1.398 . S
C229 H244 0.930 . S
C230 C228 1.380 . S
C230 C231 1.391 . S
C230 H245 0.930 . S
C231 C230 1.391 . S
C231 C233 1.387 . S
C232 C229 1.398 . S
C232 C233 1.380 . S
C232 H246 0.930 . S
C233 C231 1.387 . S
C233 C232 1.380 . S
C233 H247 0.930 . S
C234 O214 1.254 . S
C234 O215 1.268 . S
C235 O219 1.284 . S
C235 O222 1.250 . S
C236 Gd169 2.828 . S
C236 O218 1.258 . S
C236 O223 1.252 . S
C236 C237 1.497 . S
C237 C236 1.497 . S
C237 C238 1.395 . S
C237 C239 1.380 . S
C238 C237 1.395 . S
C238 C241 1.398 . S
C238 H248 0.930 . S
C239 C237 1.380 . S
C239 C240 1.391 . S
C239 H249 0.930 . S
C240 C239 1.391 . S
C240 C242 1.387 . S
C241 C238 1.398 . S
C241 C242 1.380 . S
C241 H250 0.930 . S
C242 C240 1.387 . S
C242 C241 1.380 . S
C242 H251 0.930 . S
C243 O220 1.254 . S
C243 O221 1.268 . S
H244 C229 0.930 . S
H245 C230 0.930 . S
H246 C232 0.930 . S
H247 C233 0.930 . S
H248 C238 0.930 . S
H249 C239 0.930 . S
H250 C241 0.930 . S
H251 C242 0.930 . S
Gd252 N283 2.661 1_556 S
Gd252 N289 2.601 . S
Gd252 O296 2.545 . S
Gd252 O297 2.606 . S
Gd252 O299 2.429 . S
Gd252 O300 2.545 . S
Gd252 O301 2.412 . S
Gd252 O303 2.362 1_556 S
Gd252 O304 2.324 1_556 S
Gd252 C311 2.828 . S
Gd253 N262 2.661 . S
Gd253 N266 2.601 . S
Gd253 O297 2.362 1_554 S
Gd253 O298 2.324 . S
Gd253 O302 2.545 . S
Gd253 O303 2.606 . S
Gd253 O305 2.429 . S
Gd253 O306 2.545 . S
Gd253 O307 2.412 . S
Gd253 C320 2.828 . S
C254 C257 1.407 1_556 S
C254 C259 1.431 . S
C254 C260 1.412 . S
C255 C258 1.445 . S
C255 C259 1.309 1_554 S
C255 H274 0.928 . S
C256 C257 1.436 . S
C256 C258 1.413 . S
C256 N266 1.359 . S
C257 C254 1.407 1_554 S
C257 C256 1.436 . S
C257 N262 1.351 . S
C258 C255 1.445 . S
C258 C256 1.413 . S
C258 C268 1.391 . S
C259 C254 1.431 . S
C259 C255 1.309 1_556 S
C259 H270 0.930 . S
C260 C254 1.412 . S
C260 C261 1.355 . S
C260 H272 0.930 . S
C261 C260 1.355 . S
C261 C263 1.402 . S
C261 H273 0.930 . S
N262 Gd253 2.661 . S
N262 C257 1.351 . S
N262 C263 1.307 1_554 S
C263 C261 1.402 . S
C263 N262 1.307 1_556 S
C263 H264 0.930 . S
H264 C263 0.930 . S
C265 N266 1.334 . S
C265 C267 1.394 . S
C265 H269 0.930 . S
N266 Gd253 2.601 . S
N266 C256 1.359 . S
N266 C265 1.334 . S
C267 C265 1.394 . S
C267 C268 1.359 . S
C267 H279 0.930 . S
C268 C258 1.391 . S
C268 C267 1.359 . S
C268 H280 0.929 . S
H269 C265 0.930 . S
H270 C259 0.930 . S
H271 C288 0.930 . S
H272 C260 0.930 . S
H273 C261 0.930 . S
H274 C255 0.928 . S
H275 C293 0.930 . S
H276 C284 0.930 . S
H277 C285 0.930 . S
H278 C309 0.929 . S
H279 C267 0.930 . S
H280 C268 0.929 . S
H281 C310 0.930 . S
H282 C291 0.930 . S
N283 Gd252 2.661 1_554 S
N283 C287 1.350 . S
N283 C288 1.307 . S
C284 H276 0.930 . S
C284 C285 1.355 . S
C284 C286 1.412 . S
C285 H277 0.930 . S
C285 C284 1.355 . S
C285 C288 1.402 . S
C286 C284 1.412 . S
C286 C287 1.417 . S
C286 C310 1.431 . S
C287 N283 1.350 . S
C287 C286 1.417 . S
C287 C290 1.426 . S
C288 H271 0.930 . S
C288 N283 1.307 . S
C288 C285 1.402 . S
N289 Gd252 2.601 . S
N289 C290 1.359 1_556 S
N289 C293 1.334 . S
C290 C287 1.426 . S
C290 N289 1.359 1_554 S
C290 C294 1.413 . S
C291 H282 0.930 . S
C291 C292 1.359 . S
C291 C293 1.394 . S
C292 C291 1.359 . S
C292 C294 1.391 1_556 S
C292 H295 0.929 . S
C293 H275 0.930 . S
C293 N289 1.334 . S
C293 C291 1.394 . S
C294 C290 1.413 . S
C294 C292 1.391 1_554 S
C294 C309 1.437 . S
H295 C292 0.929 . S
O296 Gd252 2.545 . S
O296 C311 1.258 . S
O297 Gd252 2.606 . S
O297 Gd253 2.362 1_556 S
O297 C308 1.284 . S
O298 Gd253 2.324 . S
O298 C318 1.254 . S
O299 Gd252 2.429 . S
O299 C318 1.268 1_556 S
O300 Gd252 2.545 . S
O300 C308 1.250 . S
O301 Gd252 2.412 . S
O301 C311 1.252 . S
O302 Gd253 2.545 . S
O302 C320 1.258 . S
O303 Gd252 2.362 1_554 S
O303 Gd253 2.606 . S
O303 C319 1.284 . S
O304 Gd252 2.324 1_554 S
O304 C327 1.254 . S
O305 Gd253 2.429 . S
O305 C327 1.268 . S
O306 Gd253 2.545 . S
O306 C319 1.250 . S
O307 Gd253 2.412 . S
O307 C320 1.252 . S
C308 O297 1.284 . S
C308 O300 1.250 . S
C309 H278 0.929 . S
C309 C294 1.437 . S
C309 C310 1.317 . S
C310 H281 0.930 . S
C310 C286 1.431 . S
C310 C309 1.317 . S
C311 Gd252 2.828 . S
C311 O296 1.258 . S
C311 O301 1.252 . S
C311 C312 1.497 . S
C312 C311 1.497 . S
C312 C313 1.395 . S
C312 C314 1.380 . S
C313 C312 1.395 . S
C313 C316 1.398 . S
C313 H328 0.930 . S
C314 C312 1.380 . S
C314 C315 1.391 . S
C314 H329 0.930 . S
C315 C314 1.391 . S
C315 C317 1.387 . S
C316 C313 1.398 . S
C316 C317 1.380 . S
C316 H330 0.930 . S
C317 C315 1.387 . S
C317 C316 1.380 . S
C317 H331 0.930 . S
C318 O298 1.254 . S
C318 O299 1.268 1_554 S
C319 O303 1.284 . S
C319 O306 1.250 . S
C320 Gd253 2.828 . S
C320 O302 1.258 . S
C320 O307 1.252 . S
C320 C321 1.497 . S
C321 C320 1.497 . S
C321 C322 1.395 . S
C321 C323 1.380 . S
C322 C321 1.395 . S
C322 C325 1.398 . S
C322 H332 0.930 . S
C323 C321 1.380 . S
C323 C324 1.391 . S
C323 H333 0.930 . S
C324 C323 1.391 . S
C324 C326 1.387 . S
C325 C322 1.398 . S
C325 C326 1.380 . S
C325 H334 0.930 . S
C326 C324 1.387 . S
C326 C325 1.380 . S
C326 H335 0.930 . S
C327 O304 1.254 . S
C327 O305 1.268 . S
H328 C313 0.930 . S
H329 C314 0.930 . S
H330 C316 0.930 . S
H331 C317 0.930 . S
H332 C322 0.930 . S
H333 C323 0.930 . S
H334 C325 0.930 . S
H335 C326 0.930 . S
Gd336 N367 2.661 . S
Gd336 N373 2.601 . S
Gd336 O380 2.545 . S
Gd336 O381 2.606 . S
Gd336 O383 2.429 . S
Gd336 O384 2.545 . S
Gd336 O385 2.412 . S
Gd336 O387 2.362 . S
Gd336 O388 2.324 . S
Gd336 C395 2.828 . S
Gd337 N346 2.661 . S
Gd337 N350 2.601 . S
Gd337 O381 2.362 . S
Gd337 O382 2.324 . S
Gd337 O386 2.545 . S
Gd337 O387 2.606 . S
Gd337 O389 2.429 . S
Gd337 O390 2.545 . S
Gd337 O391 2.412 . S
Gd337 C404 2.828 . S
C338 C341 1.417 . S
C338 C343 1.431 . S
C338 C344 1.412 . S
C339 C342 1.437 . S
C339 C343 1.317 . S
C339 H358 0.929 . S
C340 C341 1.426 . S
C340 C342 1.413 . S
C340 N350 1.359 . S
C341 C338 1.417 . S
C341 C340 1.426 . S
C341 N346 1.350 . S
C342 C339 1.437 . S
C342 C340 1.413 . S
C342 C352 1.391 . S
C343 C338 1.431 . S
C343 C339 1.317 . S
C343 H354 0.930 . S
C344 C338 1.412 . S
C344 C345 1.355 . S
C344 H356 0.930 . S
C345 C344 1.355 . S
C345 C347 1.402 . S
C345 H357 0.930 . S
N346 Gd337 2.661 . S
N346 C341 1.350 . S
N346 C347 1.307 . S
C347 C345 1.402 . S
C347 N346 1.307 . S
C347 H348 0.930 . S
H348 C347 0.930 . S
C349 N350 1.334 . S
C349 C351 1.394 . S
C349 H353 0.930 . S
N350 Gd337 2.601 . S
N350 C340 1.359 . S
N350 C349 1.334 . S
C351 C349 1.394 . S
C351 C352 1.359 . S
C351 H363 0.930 . S
C352 C342 1.391 . S
C352 C351 1.359 . S
C352 H364 0.929 . S
H353 C349 0.930 . S
H354 C343 0.930 . S
H355 C372 0.930 . S
H356 C344 0.930 . S
H357 C345 0.930 . S
H358 C339 0.929 . S
H359 C377 0.930 . S
H360 C368 0.930 . S
H361 C369 0.930 . S
H362 C393 0.929 . S
H363 C351 0.930 . S
H364 C352 0.929 . S
H365 C394 0.930 . S
H366 C375 0.930 . S
N367 Gd336 2.661 . S
N367 C371 1.350 . S
N367 C372 1.307 . S
C368 H360 0.930 . S
C368 C369 1.355 . S
C368 C370 1.412 . S
C369 H361 0.930 . S
C369 C368 1.355 . S
C369 C372 1.402 . S
C370 C368 1.412 . S
C370 C371 1.417 . S
C370 C394 1.431 . S
C371 N367 1.350 . S
C371 C370 1.417 . S
C371 C374 1.426 . S
C372 H355 0.930 . S
C372 N367 1.307 . S
C372 C369 1.402 . S
N373 Gd336 2.601 . S
N373 C374 1.359 . S
N373 C377 1.334 . S
C374 C371 1.426 . S
C374 N373 1.359 . S
C374 C378 1.413 . S
C375 H366 0.930 . S
C375 C376 1.359 . S
C375 C377 1.394 . S
C376 C375 1.359 . S
C376 C378 1.391 . S
C376 H379 0.929 . S
C377 H359 0.930 . S
C377 N373 1.334 . S
C377 C375 1.394 . S
C378 C374 1.413 . S
C378 C376 1.391 . S
C378 C393 1.437 . S
H379 C376 0.929 . S
O380 Gd336 2.545 . S
O380 C395 1.258 . S
O381 Gd336 2.606 . S
O381 Gd337 2.362 . S
O381 C392 1.284 . S
O382 Gd337 2.324 . S
O382 C402 1.254 . S
O383 Gd336 2.429 . S
O383 C402 1.268 . S
O384 Gd336 2.545 . S
O384 C392 1.250 . S
O385 Gd336 2.412 . S
O385 C395 1.252 . S
O386 Gd337 2.545 . S
O386 C404 1.258 . S
O387 Gd336 2.362 . S
O387 Gd337 2.606 . S
O387 C403 1.284 . S
O388 Gd336 2.324 . S
O388 C411 1.254 . S
O389 Gd337 2.429 . S
O389 C411 1.268 . S
O390 Gd337 2.545 . S
O390 C403 1.250 . S
O391 Gd337 2.412 . S
O391 C404 1.252 . S
C392 O381 1.284 . S
C392 O384 1.250 . S
C393 H362 0.929 . S
C393 C378 1.437 . S
C393 C394 1.317 . S
C394 H365 0.930 . S
C394 C370 1.431 . S
C394 C393 1.317 . S
C395 Gd336 2.828 . S
C395 O380 1.258 . S
C395 O385 1.252 . S
C395 C396 1.497 . S
C396 C395 1.497 . S
C396 C397 1.395 . S
C396 C398 1.380 . S
C397 C396 1.395 . S
C397 C400 1.398 . S
C397 H412 0.930 . S
C398 C396 1.380 . S
C398 C399 1.391 . S
C398 H413 0.930 . S
C399 C398 1.391 . S
C399 C401 1.387 . S
C400 C397 1.398 . S
C400 C401 1.380 . S
C400 H414 0.930 . S
C401 C399 1.387 . S
C401 C400 1.380 . S
C401 H415 0.930 . S
C402 O382 1.254 . S
C402 O383 1.268 . S
C403 O387 1.284 . S
C403 O390 1.250 . S
C404 Gd337 2.828 . S
C404 O386 1.258 . S
C404 O391 1.252 . S
C404 C405 1.497 . S
C405 C404 1.497 . S
C405 C406 1.395 . S
C405 C407 1.380 . S
C406 C405 1.395 . S
C406 C409 1.398 . S
C406 H416 0.930 . S
C407 C405 1.380 . S
C407 C408 1.391 . S
C407 H417 0.930 . S
C408 C407 1.391 . S
C408 C410 1.387 . S
C409 C406 1.398 . S
C409 C410 1.380 . S
C409 H418 0.930 . S
C410 C408 1.387 . S
C410 C409 1.380 . S
C410 H419 0.930 . S
C411 O388 1.254 . S
C411 O389 1.268 . S
H412 C397 0.930 . S
H413 C398 0.930 . S
H414 C400 0.930 . S
H415 C401 0.930 . S
H416 C406 0.930 . S
H417 C407 0.930 . S
H418 C409 0.930 . S
H419 C410 0.930 . S
Gd420 N451 2.661 . S
Gd420 N457 2.601 . S
Gd420 O464 2.545 . S
Gd420 O465 2.606 . S
Gd420 O467 2.429 . S
Gd420 O468 2.545 . S
Gd420 O469 2.412 . S
Gd420 O471 2.362 . S
Gd420 O472 2.324 . S
Gd420 C479 2.828 . S
Gd421 N430 2.661 . S
Gd421 N434 2.601 . S
Gd421 O465 2.362 . S
Gd421 O466 2.324 . S
Gd421 O470 2.545 . S
Gd421 O471 2.606 . S
Gd421 O473 2.429 . S
Gd421 O474 2.545 . S
Gd421 O475 2.412 . S
Gd421 C488 2.828 . S
C422 C425 1.417 . S
C422 C427 1.431 . S
C422 C428 1.412 . S
C423 C426 1.437 . S
C423 C427 1.317 . S
C423 H442 0.929 . S
C424 C425 1.426 . S
C424 C426 1.413 . S
C424 N434 1.359 . S
C425 C422 1.417 . S
C425 C424 1.426 . S
C425 N430 1.350 . S
C426 C423 1.437 . S
C426 C424 1.413 . S
C426 C436 1.391 . S
C427 C422 1.431 . S
C427 C423 1.317 . S
C427 H438 0.930 . S
C428 C422 1.412 . S
C428 C429 1.355 . S
C428 H440 0.930 . S
C429 C428 1.355 . S
C429 C431 1.402 . S
C429 H441 0.930 . S
N430 Gd421 2.661 . S
N430 C425 1.350 . S
N430 C431 1.307 . S
C431 C429 1.402 . S
C431 N430 1.307 . S
C431 H432 0.930 . S
H432 C431 0.930 . S
C433 N434 1.334 . S
C433 C435 1.394 . S
C433 H437 0.930 . S
N434 Gd421 2.601 . S
N434 C424 1.359 . S
N434 C433 1.334 . S
C435 C433 1.394 . S
C435 C436 1.359 . S
C435 H447 0.930 . S
C436 C426 1.391 . S
C436 C435 1.359 . S
C436 H448 0.929 . S
H437 C433 0.930 . S
H438 C427 0.930 . S
H439 C456 0.930 . S
H440 C428 0.930 . S
H441 C429 0.930 . S
H442 C423 0.929 . S
H443 C461 0.930 . S
H444 C452 0.930 . S
H445 C453 0.930 . S
H446 C477 0.929 . S
H447 C435 0.930 . S
H448 C436 0.929 . S
H449 C478 0.930 . S
H450 C459 0.930 . S
N451 Gd420 2.661 . S
N451 C455 1.350 . S
N451 C456 1.307 . S
C452 H444 0.930 . S
C452 C453 1.355 . S
C452 C454 1.412 . S
C453 H445 0.930 . S
C453 C452 1.355 . S
C453 C456 1.402 . S
C454 C452 1.412 . S
C454 C455 1.417 . S
C454 C478 1.431 . S
C455 N451 1.350 . S
C455 C454 1.417 . S
C455 C458 1.426 . S
C456 H439 0.930 . S
C456 N451 1.307 . S
C456 C453 1.402 . S
N457 Gd420 2.601 . S
N457 C458 1.359 . S
N457 C461 1.334 . S
C458 C455 1.426 . S
C458 N457 1.359 . S
C458 C462 1.413 . S
C459 H450 0.930 . S
C459 C460 1.359 . S
C459 C461 1.394 . S
C460 C459 1.359 . S
C460 C462 1.391 . S
C460 H463 0.929 . S
C461 H443 0.930 . S
C461 N457 1.334 . S
C461 C459 1.394 . S
C462 C458 1.413 . S
C462 C460 1.391 . S
C462 C477 1.437 . S
H463 C460 0.929 . S
O464 Gd420 2.545 . S
O464 C479 1.258 . S
O465 Gd420 2.606 . S
O465 Gd421 2.362 . S
O465 C476 1.284 . S
O466 Gd421 2.324 . S
O466 C486 1.254 . S
O467 Gd420 2.429 . S
O467 C486 1.268 . S
O468 Gd420 2.545 . S
O468 C476 1.250 . S
O469 Gd420 2.412 . S
O469 C479 1.252 . S
O470 Gd421 2.545 . S
O470 C488 1.258 . S
O471 Gd420 2.362 . S
O471 Gd421 2.606 . S
O471 C487 1.284 . S
O472 Gd420 2.324 . S
O472 C495 1.254 . S
O473 Gd421 2.429 . S
O473 C495 1.268 . S
O474 Gd421 2.545 . S
O474 C487 1.250 . S
O475 Gd421 2.412 . S
O475 C488 1.252 . S
C476 O465 1.284 . S
C476 O468 1.250 . S
C477 H446 0.929 . S
C477 C462 1.437 . S
C477 C478 1.317 . S
C478 H449 0.930 . S
C478 C454 1.431 . S
C478 C477 1.317 . S
C479 Gd420 2.828 . S
C479 O464 1.258 . S
C479 O469 1.252 . S
C479 C480 1.497 . S
C480 C479 1.497 . S
C480 C481 1.395 . S
C480 C482 1.380 . S
C481 C480 1.395 . S
C481 C484 1.398 . S
C481 H496 0.930 . S
C482 C480 1.380 . S
C482 C483 1.391 . S
C482 H497 0.930 . S
C483 C482 1.391 . S
C483 C485 1.387 . S
C484 C481 1.398 . S
C484 C485 1.380 . S
C484 H498 0.930 . S
C485 C483 1.387 . S
C485 C484 1.380 . S
C485 H499 0.930 . S
C486 O466 1.254 . S
C486 O467 1.268 . S
C487 O471 1.284 . S
C487 O474 1.250 . S
C488 Gd421 2.828 . S
C488 O470 1.258 . S
C488 O475 1.252 . S
C488 C489 1.497 . S
C489 C488 1.497 . S
C489 C490 1.395 . S
C489 C491 1.380 . S
C490 C489 1.395 . S
C490 C493 1.398 . S
C490 H500 0.930 . S
C491 C489 1.380 . S
C491 C492 1.391 . S
C491 H501 0.930 . S
C492 C491 1.391 . S
C492 C494 1.387 . S
C493 C490 1.398 . S
C493 C494 1.380 . S
C493 H502 0.930 . S
C494 C492 1.387 . S
C494 C493 1.380 . S
C494 H503 0.930 . S
C495 O472 1.254 . S
C495 O473 1.268 . S
H496 C481 0.930 . S
H497 C482 0.930 . S
H498 C484 0.930 . S
H499 C485 0.930 . S
H500 C490 0.930 . S
H501 C491 0.930 . S
H502 C493 0.930 . S
H503 C494 0.930 . S
H504 C512 0.929 . S
H505 C514 0.930 . S
H506 C516 0.930 . S
H507 C519 0.929 . S
H508 C522 0.930 . S
H509 C524 0.960 . S
H510 C524 0.960 . S
H511 C524 0.960 . S
C512 H504 0.929 . S
C512 C513 1.377 . S
C512 C514 1.384 . S
C513 C512 1.377 . S
C513 C519 1.390 . S
C514 H505 0.930 . S
C514 C512 1.384 . S
C514 C515 1.372 . S
C515 C514 1.372 . S
C515 C516 1.400 . S
C515 C520 1.490 . S
C516 H506 0.930 . S
C516 C515 1.400 . S
C516 C519 1.386 . S
H517 C533 0.930 . S
H518 C534 0.931 . S
C519 H507 0.929 . S
C519 C513 1.390 . S
C519 C516 1.386 . S
C520 C515 1.490 . S
C520 C522 1.395 . S
C520 C523 1.403 . S
H521 C527 0.930 . S
C522 H508 0.930 . S
C522 C520 1.395 . S
C522 C525 1.403 . S
C523 C520 1.403 . S
C523 C524 1.524 . S
C523 C527 1.400 . S
C524 H509 0.960 . S
C524 H510 0.960 . S
C524 H511 0.960 . S
C524 C523 1.524 . S
C525 C522 1.403 . S
C525 C526 1.392 . S
C525 C529 1.495 . S
C526 C525 1.392 . S
C526 C527 1.385 . S
C526 C528 1.478 . S
C527 H521 0.930 . S
C527 C523 1.400 . S
C527 C526 1.385 . S
C528 C526 1.478 . S
C528 C530 1.381 . S
C528 C534 1.383 . S
C529 C525 1.495 . S
C529 H535 0.959 . S
C529 H536 0.961 . S
C529 H537 0.960 . S
C530 C528 1.381 . S
C530 C531 1.394 . S
C530 H538 0.930 . S
C531 C530 1.394 . S
C531 C532 1.383 . S
C531 H539 0.929 . S
C532 C531 1.383 . S
C532 C533 1.377 . S
C533 H517 0.930 . S
C533 C532 1.377 . S
C533 C534 1.379 . S
C534 H518 0.931 . S
C534 C528 1.383 . S
C534 C533 1.379 . S
H535 C529 0.959 . S
H536 C529 0.961 . S
H537 C529 0.960 . S
H538 C530 0.930 . S
H539 C531 0.929 . S
H540 C548 0.929 . S
H541 C550 0.930 . S
H542 C552 0.930 . S
H543 C555 0.929 . S
H544 C558 0.930 . S
H545 C560 0.960 . S
H546 C560 0.960 . S
H547 C560 0.960 . S
C548 H540 0.929 . S
C548 C549 1.377 . S
C548 C550 1.384 . S
C549 C548 1.377 . S
C549 C555 1.390 . S
C550 H541 0.930 . S
C550 C548 1.384 . S
C550 C551 1.372 . S
C551 C550 1.372 . S
C551 C552 1.400 . S
C551 C556 1.490 . S
C552 H542 0.930 . S
C552 C551 1.400 . S
C552 C555 1.386 . S
H553 C569 0.930 . S
H554 C570 0.931 . S
C555 H543 0.929 . S
C555 C549 1.390 . S
C555 C552 1.386 . S
C556 C551 1.490 . S
C556 C558 1.395 . S
C556 C559 1.403 . S
H557 C563 0.930 . S
C558 H544 0.930 . S
C558 C556 1.395 . S
C558 C561 1.403 . S
C559 C556 1.403 . S
C559 C560 1.524 . S
C559 C563 1.400 . S
C560 H545 0.960 . S
C560 H546 0.960 . S
C560 H547 0.960 . S
C560 C559 1.524 . S
C561 C558 1.403 . S
C561 C562 1.392 . S
C561 C565 1.495 . S
C562 C561 1.392 . S
C562 C563 1.385 . S
C562 C564 1.478 . S
C563 H557 0.930 . S
C563 C559 1.400 . S
C563 C562 1.385 . S
C564 C562 1.478 . S
C564 C566 1.381 . S
C564 C570 1.383 . S
C565 C561 1.495 . S
C565 H571 0.959 . S
C565 H572 0.961 . S
C565 H573 0.960 . S
C566 C564 1.381 . S
C566 C567 1.394 . S
C566 H574 0.930 . S
C567 C566 1.394 . S
C567 C568 1.383 . S
C567 H575 0.929 . S
C568 C567 1.383 . S
C568 C569 1.377 . S
C569 H553 0.930 . S
C569 C568 1.377 . S
C569 C570 1.379 . S
C570 H554 0.931 . S
C570 C564 1.383 . S
C570 C569 1.379 . S
H571 C565 0.959 . S
H572 C565 0.961 . S
H573 C565 0.960 . S
H574 C566 0.930 . S
H575 C567 0.929 . S
H576 C584 0.929 . S
H577 C586 0.930 . S
H578 C588 0.930 . S
H579 C591 0.929 . S
H580 C594 0.930 . S
H581 C596 0.960 . S
H582 C596 0.960 . S
H583 C596 0.960 . S
C584 H576 0.929 . S
C584 C585 1.377 . S
C584 C586 1.384 . S
C585 C584 1.377 . S
C585 C591 1.390 . S
C586 H577 0.930 . S
C586 C584 1.384 . S
C586 C587 1.372 . S
C587 C586 1.372 . S
C587 C588 1.400 . S
C587 C592 1.490 . S
C588 H578 0.930 . S
C588 C587 1.400 . S
C588 C591 1.386 . S
H589 C605 0.930 . S
H590 C606 0.931 . S
C591 H579 0.929 . S
C591 C585 1.390 . S
C591 C588 1.386 . S
C592 C587 1.490 . S
C592 C594 1.395 . S
C592 C595 1.403 . S
H593 C599 0.930 . S
C594 H580 0.930 . S
C594 C592 1.395 . S
C594 C597 1.403 . S
C595 C592 1.403 . S
C595 C596 1.524 . S
C595 C599 1.400 . S
C596 H581 0.960 . S
C596 H582 0.960 . S
C596 H583 0.960 . S
C596 C595 1.524 . S
C597 C594 1.403 . S
C597 C598 1.392 . S
C597 C601 1.495 . S
C598 C597 1.392 . S
C598 C599 1.385 . S
C598 C600 1.478 . S
C599 H593 0.930 . S
C599 C595 1.400 . S
C599 C598 1.385 . S
C600 C598 1.478 . S
C600 C602 1.381 . S
C600 C606 1.383 . S
C601 C597 1.495 . S
C601 H607 0.959 . S
C601 H608 0.961 . S
C601 H609 0.960 . S
C602 C600 1.381 . S
C602 C603 1.394 . S
C602 H610 0.930 . S
C603 C602 1.394 . S
C603 C604 1.383 . S
C603 H611 0.929 . S
C604 C603 1.383 . S
C604 C605 1.377 . S
C605 H589 0.930 . S
C605 C604 1.377 . S
C605 C606 1.379 . S
C606 H590 0.931 . S
C606 C600 1.383 . S
C606 C605 1.379 . S
H607 C601 0.959 . S
H608 C601 0.961 . S
H609 C601 0.960 . S
H610 C602 0.930 . S
H611 C603 0.929 . S
H612 C620 0.929 . S
H613 C622 0.930 . S
H614 C624 0.930 . S
H615 C627 0.929 . S
H616 C630 0.930 . S
H617 C632 0.960 . S
H618 C632 0.960 . S
H619 C632 0.960 . S
C620 H612 0.929 . S
C620 C621 1.377 . S
C620 C622 1.384 . S
C621 C620 1.377 . S
C621 C627 1.390 . S
C622 H613 0.930 . S
C622 C620 1.384 . S
C622 C623 1.372 . S
C623 C622 1.372 . S
C623 C624 1.400 . S
C623 C628 1.490 . S
C624 H614 0.930 . S
C624 C623 1.400 . S
C624 C627 1.386 . S
H625 C641 0.930 . S
H626 C642 0.931 . S
C627 H615 0.929 . S
C627 C621 1.390 . S
C627 C624 1.386 . S
C628 C623 1.490 . S
C628 C630 1.395 . S
C628 C631 1.403 . S
H629 C635 0.930 . S
C630 H616 0.930 . S
C630 C628 1.395 . S
C630 C633 1.403 . S
C631 C628 1.403 . S
C631 C632 1.524 . S
C631 C635 1.400 . S
C632 H617 0.960 . S
C632 H618 0.960 . S
C632 H619 0.960 . S
C632 C631 1.524 . S
C633 C630 1.403 . S
C633 C634 1.392 . S
C633 C637 1.495 . S
C634 C633 1.392 . S
C634 C635 1.385 . S
C634 C636 1.478 . S
C635 H629 0.930 . S
C635 C631 1.400 . S
C635 C634 1.385 . S
C636 C634 1.478 . S
C636 C638 1.381 . S
C636 C642 1.383 . S
C637 C633 1.495 . S
C637 H643 0.959 . S
C637 H644 0.961 . S
C637 H645 0.960 . S
C638 C636 1.381 . S
C638 C639 1.394 . S
C638 H646 0.930 . S
C639 C638 1.394 . S
C639 C640 1.383 . S
C639 H647 0.929 . S
C640 C639 1.383 . S
C640 C641 1.377 . S
C641 H625 0.930 . S
C641 C640 1.377 . S
C641 C642 1.379 . S
C642 H626 0.931 . S
C642 C636 1.383 . S
C642 C641 1.379 . S
H643 C637 0.959 . S
H644 C637 0.961 . S
H645 C637 0.960 . S
H646 C638 0.930 . S
H647 C639 0.929 . S
H648 C656 0.929 . S
H649 C658 0.930 . S
H650 C660 0.930 . S
H651 C663 0.929 . S
H652 C666 0.930 . S
H653 C668 0.960 . S
H654 C668 0.960 . S
H655 C668 0.960 . S
C656 H648 0.929 . S
C656 C657 1.377 . S
C656 C658 1.384 . S
C657 C656 1.377 . S
C657 C663 1.390 . S
C658 H649 0.930 . S
C658 C656 1.384 . S
C658 C659 1.372 . S
C659 C658 1.372 . S
C659 C660 1.400 . S
C659 C664 1.490 . S
C660 H650 0.930 . S
C660 C659 1.400 . S
C660 C663 1.386 . S
H661 C677 0.930 . S
H662 C678 0.931 . S
C663 H651 0.929 . S
C663 C657 1.390 . S
C663 C660 1.386 . S
C664 C659 1.490 . S
C664 C666 1.395 . S
C664 C667 1.403 . S
H665 C671 0.930 . S
C666 H652 0.930 . S
C666 C664 1.395 . S
C666 C669 1.403 . S
C667 C664 1.403 . S
C667 C668 1.524 . S
C667 C671 1.400 . S
C668 H653 0.960 . S
C668 H654 0.960 . S
C668 H655 0.960 . S
C668 C667 1.524 . S
C669 C666 1.403 . S
C669 C670 1.392 . S
C669 C673 1.495 . S
C670 C669 1.392 . S
C670 C671 1.385 . S
C670 C672 1.478 . S
C671 H665 0.930 . S
C671 C667 1.400 . S
C671 C670 1.385 . S
C672 C670 1.478 . S
C672 C674 1.381 . S
C672 C678 1.383 . S
C673 C669 1.495 . S
C673 H679 0.959 . S
C673 H680 0.961 . S
C673 H681 0.960 . S
C674 C672 1.381 . S
C674 C675 1.394 . S
C674 H682 0.930 . S
C675 C674 1.394 . S
C675 C676 1.383 . S
C675 H683 0.929 . S
C676 C675 1.383 . S
C676 C677 1.377 . S
C677 H661 0.930 . S
C677 C676 1.377 . S
C677 C678 1.379 . S
C678 H662 0.931 . S
C678 C672 1.383 . S
C678 C677 1.379 . S
H679 C673 0.959 . S
H680 C673 0.961 . S
H681 C673 0.960 . S
H682 C674 0.930 . S
H683 C675 0.929 . S
H684 C692 0.929 . S
H685 C694 0.930 . S
H686 C696 0.930 . S
H687 C699 0.929 . S
H688 C702 0.930 . S
H689 C704 0.960 . S
H690 C704 0.960 . S
H691 C704 0.960 . S
C692 H684 0.929 . S
C692 C693 1.377 . S
C692 C694 1.384 . S
C693 C692 1.377 . S
C693 C699 1.390 . S
C694 H685 0.930 . S
C694 C692 1.384 . S
C694 C695 1.372 . S
C695 C694 1.372 . S
C695 C696 1.400 . S
C695 C700 1.490 . S
C696 H686 0.930 . S
C696 C695 1.400 . S
C696 C699 1.386 . S
H697 C713 0.930 . S
H698 C714 0.931 . S
C699 H687 0.929 . S
C699 C693 1.390 . S
C699 C696 1.386 . S
C700 C695 1.490 . S
C700 C702 1.395 . S
C700 C703 1.403 . S
H701 C707 0.930 . S
C702 H688 0.930 . S
C702 C700 1.395 . S
C702 C705 1.403 . S
C703 C700 1.403 . S
C703 C704 1.524 . S
C703 C707 1.400 . S
C704 H689 0.960 . S
C704 H690 0.960 . S
C704 H691 0.960 . S
C704 C703 1.524 . S
C705 C702 1.403 . S
C705 C706 1.392 . S
C705 C709 1.495 . S
C706 C705 1.392 . S
C706 C707 1.385 . S
C706 C708 1.478 . S
C707 H701 0.930 . S
C707 C703 1.400 . S
C707 C706 1.385 . S
C708 C706 1.478 . S
C708 C710 1.381 . S
C708 C714 1.383 . S
C709 C705 1.495 . S
C709 H715 0.959 . S
C709 H716 0.961 . S
C709 H717 0.960 . S
C710 C708 1.381 . S
C710 C711 1.394 . S
C710 H718 0.930 . S
C711 C710 1.394 . S
C711 C712 1.383 . S
C711 H719 0.929 . S
C712 C711 1.383 . S
C712 C713 1.377 . S
C713 H697 0.930 . S
C713 C712 1.377 . S
C713 C714 1.379 . S
C714 H698 0.931 . S
C714 C708 1.383 . S
C714 C713 1.379 . S
H715 C709 0.959 . S
H716 C709 0.961 . S
H717 C709 0.960 . S
H718 C710 0.930 . S
H719 C711 0.929 . S
H720 C728 0.929 . S
H721 C730 0.930 . S
H722 C732 0.930 . S
H723 C735 0.929 . S
H724 C738 0.919 1_556 S
H725 C740 0.960 . S
H726 C740 0.960 . S
H727 C740 0.960 . S
C728 H720 0.929 . S
C728 C729 1.377 1_556 S
C728 C730 1.384 . S
C729 C728 1.377 1_554 S
C729 C735 1.390 . S
C730 H721 0.930 . S
C730 C728 1.384 . S
C730 C731 1.372 1_556 S
C731 C730 1.372 1_554 S
C731 C732 1.400 . S
C731 C736 1.490 . S
C732 H722 0.930 . S
C732 C731 1.400 . S
C732 C735 1.386 . S
H733 C749 0.930 . S
H734 C750 0.931 . S
C735 H723 0.929 . S
C735 C729 1.390 . S
C735 C732 1.386 . S
C736 C731 1.490 . S
C736 C738 1.407 . S
C736 C739 1.403 . S
H737 C743 0.930 . S
C738 H724 0.919 1_554 S
C738 C736 1.407 . S
C738 C741 1.403 . S
C739 C736 1.403 . S
C739 C740 1.524 . S
C739 C743 1.400 . S
C740 H725 0.960 . S
C740 H726 0.960 . S
C740 H727 0.960 . S
C740 C739 1.524 . S
C741 C738 1.403 . S
C741 C742 1.400 . S
C741 C745 1.488 1_554 S
C742 C741 1.400 . S
C742 C743 1.385 . S
C742 C744 1.478 . S
C743 H737 0.930 . S
C743 C739 1.400 . S
C743 C742 1.385 . S
C744 C742 1.478 . S
C744 C746 1.381 1_554 S
C744 C750 1.383 . S
C745 C741 1.488 1_556 S
C745 H751 0.959 . S
C745 H752 0.961 1_556 S
C745 H753 0.960 . S
C746 C744 1.381 1_556 S
C746 C747 1.394 . S
C746 H754 0.930 . S
C747 C746 1.394 . S
C747 C748 1.383 1_556 S
C747 H755 0.929 . S
C748 C747 1.383 1_554 S
C748 C749 1.377 . S
C749 H733 0.930 . S
C749 C748 1.377 . S
C749 C750 1.379 . S
C750 H734 0.931 . S
C750 C744 1.383 . S
C750 C749 1.379 . S
H751 C745 0.959 . S
H752 C745 0.961 1_554 S
H753 C745 0.960 . S
H754 C746 0.930 . S
H755 C747 0.929 . S
H756 C764 0.929 . S
H757 C766 0.930 . S
H758 C768 0.930 . S
H759 C771 0.929 . S
H760 C774 0.930 . S
H761 C776 0.960 . S
H762 C776 0.960 . S
H763 C776 0.960 . S
C764 H756 0.929 . S
C764 C765 1.377 . S
C764 C766 1.384 . S
C765 C764 1.377 . S
C765 C771 1.390 . S
C766 H757 0.930 . S
C766 C764 1.384 . S
C766 C767 1.372 . S
C767 C766 1.372 . S
C767 C768 1.400 . S
C767 C772 1.490 . S
C768 H758 0.930 . S
C768 C767 1.400 . S
C768 C771 1.386 . S
H769 C785 0.930 . S
H770 C786 0.931 . S
C771 H759 0.929 . S
C771 C765 1.390 . S
C771 C768 1.386 . S
C772 C767 1.490 . S
C772 C774 1.395 . S
C772 C775 1.403 1_455 S
H773 C779 0.930 . S
C774 H760 0.930 . S
C774 C772 1.395 . S
C774 C777 1.403 . S
C775 C772 1.403 1_655 S
C775 C776 1.524 . S
C775 C779 1.400 . S
C776 H761 0.960 . S
C776 H762 0.960 . S
C776 H763 0.960 . S
C776 C775 1.524 . S
C777 C774 1.403 . S
C777 C778 1.392 1_455 S
C777 C781 1.495 . S
C778 C777 1.392 1_655 S
C778 C779 1.385 . S
C778 C780 1.478 . S
C779 H773 0.930 . S
C779 C775 1.400 . S
C779 C778 1.385 . S
C780 C778 1.478 . S
C780 C782 1.381 . S
C780 C786 1.383 . S
C781 C777 1.495 . S
C781 H787 0.959 . S
C781 H788 0.961 . S
C781 H789 0.960 . S
C782 C780 1.381 . S
C782 C783 1.394 . S
C782 H790 0.930 . S
C783 C782 1.394 . S
C783 C784 1.383 . S
C783 H791 0.929 . S
C784 C783 1.383 . S
C784 C785 1.377 . S
C785 H769 0.930 . S
C785 C784 1.377 . S
C785 C786 1.379 . S
C786 H770 0.931 . S
C786 C780 1.383 . S
C786 C785 1.379 . S
H787 C781 0.959 . S
H788 C781 0.961 . S
H789 C781 0.960 . S
H790 C782 0.930 . S
H791 C783 0.929 . S
H792 C800 0.929 . S
H793 C802 0.930 . S
H794 C804 0.930 . S
H795 C807 0.929 . S
H796 C810 0.930 . S
H797 C812 0.960 . S
H798 C812 0.960 . S
H799 C812 0.960 . S
C800 H792 0.929 . S
C800 C801 1.377 . S
C800 C802 1.384 . S
C801 C800 1.377 . S
C801 C807 1.390 . S
C802 H793 0.930 . S
C802 C800 1.384 . S
C802 C803 1.372 . S
C803 C802 1.372 . S
C803 C804 1.400 . S
C803 C808 1.490 . S
C804 H794 0.930 . S
C804 C803 1.400 . S
C804 C807 1.386 . S
H805 C821 0.930 . S
H806 C822 0.931 . S
C807 H795 0.929 . S
C807 C801 1.390 . S
C807 C804 1.386 . S
C808 C803 1.490 . S
C808 C810 1.395 . S
C808 C811 1.403 1_545 S
H809 C815 0.930 . S
C810 H796 0.930 . S
C810 C808 1.395 . S
C810 C813 1.403 . S
C811 C808 1.403 1_565 S
C811 C812 1.524 . S
C811 C815 1.400 . S
C812 H797 0.960 . S
C812 H798 0.960 . S
C812 H799 0.960 . S
C812 C811 1.524 . S
C813 C810 1.403 . S
C813 C814 1.392 1_545 S
C813 C817 1.495 . S
C814 C813 1.392 1_565 S
C814 C815 1.385 . S
C814 C816 1.478 . S
C815 H809 0.930 . S
C815 C811 1.400 . S
C815 C814 1.385 . S
C816 C814 1.478 . S
C816 C818 1.381 . S
C816 C822 1.383 . S
C817 C813 1.495 . S
C817 H823 0.959 . S
C817 H824 0.961 . S
C817 H825 0.960 . S
C818 C816 1.381 . S
C818 C819 1.394 . S
C818 H826 0.930 . S
C819 C818 1.394 . S
C819 C820 1.383 . S
C819 H827 0.929 . S
C820 C819 1.383 . S
C820 C821 1.377 . S
C821 H805 0.930 . S
C821 C820 1.377 . S
C821 C822 1.379 . S
C822 H806 0.931 . S
C822 C816 1.383 . S
C822 C821 1.379 . S
H823 C817 0.959 . S
H824 C817 0.961 . S
H825 C817 0.960 . S
H826 C818 0.930 . S
H827 C819 0.929 . S
H828 C836 0.929 . S
H829 C838 0.930 . S
H830 C840 0.930 . S
H831 C843 0.929 . S
H832 C846 0.930 . S
H833 C848 0.960 . S
H834 C848 0.960 . S
H835 C848 0.960 . S
C836 H828 0.929 . S
C836 C837 1.377 . S
C836 C838 1.384 . S
C837 C836 1.377 . S
C837 C843 1.390 . S
C838 H829 0.930 . S
C838 C836 1.384 . S
C838 C839 1.372 . S
C839 C838 1.372 . S
C839 C840 1.400 . S
C839 C844 1.490 . S
C840 H830 0.930 . S
C840 C839 1.400 . S
C840 C843 1.386 . S
H841 C857 0.930 . S
H842 C858 0.931 . S
C843 H831 0.929 . S
C843 C837 1.390 . S
C843 C840 1.386 . S
C844 C839 1.490 . S
C844 C846 1.395 . S
C844 C847 1.403 . S
H845 C851 0.930 . S
C846 H832 0.930 . S
C846 C844 1.395 . S
C846 C849 1.403 . S
C847 C844 1.403 . S
C847 C848 1.524 . S
C847 C851 1.400 . S
C848 H833 0.960 . S
C848 H834 0.960 . S
C848 H835 0.960 . S
C848 C847 1.524 . S
C849 C846 1.403 . S
C849 C850 1.392 . S
C849 C853 1.495 . S
C850 C849 1.392 . S
C850 C851 1.385 . S
C850 C852 1.478 . S
C851 H845 0.930 . S
C851 C847 1.400 . S
C851 C850 1.385 . S
C852 C850 1.478 . S
C852 C854 1.381 . S
C852 C858 1.383 . S
C853 C849 1.495 . S
C853 H859 0.959 . S
C853 H860 0.961 . S
C853 H861 0.960 . S
C854 C852 1.381 . S
C854 C855 1.394 . S
C854 H862 0.930 . S
C855 C854 1.394 . S
C855 C856 1.383 . S
C855 H863 0.929 . S
C856 C855 1.383 . S
C856 C857 1.377 . S
C857 H841 0.930 . S
C857 C856 1.377 . S
C857 C858 1.379 . S
C858 H842 0.931 . S
C858 C852 1.383 . S
C858 C857 1.379 . S
H859 C853 0.959 . S
H860 C853 0.961 . S
H861 C853 0.960 . S
H862 C854 0.930 . S
H863 C855 0.929 . S
H864 C872 0.929 . S
H865 C874 0.930 . S
H866 C876 0.930 . S
H867 C879 0.929 . S
H868 C882 0.930 . S
H869 C884 0.960 . S
H870 C884 0.960 1_554 S
H871 C884 0.960 . S
C872 H864 0.929 . S
C872 C873 1.377 . S
C872 C874 1.384 . S
C873 C872 1.377 . S
C873 C879 1.390 1_554 S
C874 H865 0.930 . S
C874 C872 1.384 . S
C874 C875 1.372 . S
C875 C874 1.372 . S
C875 C876 1.400 1_554 S
C875 C880 1.490 . S
C876 H866 0.930 . S
C876 C875 1.400 1_556 S
C876 C879 1.386 . S
H877 C893 0.930 . S
H878 C894 0.931 . S
C879 H867 0.929 . S
C879 C873 1.390 1_556 S
C879 C876 1.386 . S
C880 C875 1.490 . S
C880 C882 1.395 . S
C880 C883 1.396 1_454 S
H881 C887 0.927 1_556 S
C882 H868 0.930 . S
C882 C880 1.395 . S
C882 C885 1.403 . S
C883 C880 1.396 1_656 S
C883 C884 1.530 . S
C883 C887 1.399 1_556 S
C884 H869 0.960 . S
C884 H870 0.960 1_556 S
C884 H871 0.960 . S
C884 C883 1.530 . S
C885 C882 1.403 . S
C885 C886 1.392 1_455 S
C885 C889 1.495 . S
C886 C885 1.392 1_655 S
C886 C887 1.389 . S
C886 C888 1.478 . S
C887 H881 0.927 1_554 S
C887 C883 1.399 1_554 S
C887 C886 1.389 . S
C888 C886 1.478 . S
C888 C890 1.381 . S
C888 C894 1.383 1_554 S
C889 C885 1.495 . S
C889 H895 0.959 . S
C889 H896 0.961 . S
C889 H897 0.960 . S
C890 C888 1.381 . S
C890 C891 1.394 . S
C890 H898 0.930 . S
C891 C890 1.394 . S
C891 C892 1.383 . S
C891 H899 0.929 . S
C892 C891 1.383 . S
C892 C893 1.377 1_554 S
C893 H877 0.930 . S
C893 C892 1.377 1_556 S
C893 C894 1.379 . S
C894 H878 0.931 . S
C894 C888 1.383 1_556 S
C894 C893 1.379 . S
H895 C889 0.959 . S
H896 C889 0.961 . S
H897 C889 0.960 . S
H898 C890 0.930 . S
H899 C891 0.929 . S
H900 C908 0.929 . S
H901 C910 0.930 . S
H902 C912 0.930 . S
H903 C915 0.929 . S
H904 C918 0.930 . S
H905 C920 0.960 . S
H906 C920 0.960 . S
H907 C920 0.960 . S
C908 H900 0.929 . S
C908 C909 1.377 . S
C908 C910 1.384 . S
C909 C908 1.377 . S
C909 C915 1.390 . S
C910 H901 0.930 . S
C910 C908 1.384 . S
C910 C911 1.372 . S
C911 C910 1.372 . S
C911 C912 1.400 . S
C911 C916 1.490 . S
C912 H902 0.930 . S
C912 C911 1.400 . S
C912 C915 1.386 . S
H913 C929 0.930 . S
H914 C930 0.931 . S
C915 H903 0.929 . S
C915 C909 1.390 . S
C915 C912 1.386 . S
C916 C911 1.490 . S
C916 C918 1.395 . S
C916 C919 1.403 . S
H917 C923 0.930 . S
C918 H904 0.930 . S
C918 C916 1.395 . S
C918 C921 1.403 1_565 S
C919 C916 1.403 . S
C919 C920 1.524 . S
C919 C923 1.400 1_565 S
C920 H905 0.960 . S
C920 H906 0.960 . S
C920 H907 0.960 . S
C920 C919 1.524 . S
C921 C918 1.403 1_545 S
C921 C922 1.392 . S
C921 C925 1.495 . S
C922 C921 1.392 . S
C922 C923 1.385 . S
C922 C924 1.478 . S
C923 H917 0.930 . S
C923 C919 1.400 1_545 S
C923 C922 1.385 . S
C924 C922 1.478 . S
C924 C926 1.381 . S
C924 C930 1.383 . S
C925 C921 1.495 . S
C925 H931 0.959 . S
C925 H932 0.961 . S
C925 H933 0.960 . S
C926 C924 1.381 . S
C926 C927 1.394 . S
C926 H934 0.930 . S
C927 C926 1.394 . S
C927 C928 1.383 . S
C927 H935 0.929 . S
C928 C927 1.383 . S
C928 C929 1.377 . S
C929 H913 0.930 . S
C929 C928 1.377 . S
C929 C930 1.379 . S
C930 H914 0.931 . S
C930 C924 1.383 . S
C930 C929 1.379 . S
H931 C925 0.959 . S
H932 C925 0.961 . S
H933 C925 0.960 . S
H934 C926 0.930 . S
H935 C927 0.929 . S
H936 C944 0.929 . S
H937 C946 0.930 . S
H938 C948 0.930 . S
H939 C951 0.929 . S
H940 C954 0.930 . S
H941 C956 0.960 . S
H942 C956 0.960 . S
H943 C956 0.960 . S
C944 H936 0.929 . S
C944 C945 1.377 . S
C944 C946 1.384 . S
C945 C944 1.377 . S
C945 C951 1.390 . S
C946 H937 0.930 . S
C946 C944 1.384 . S
C946 C947 1.372 . S
C947 C946 1.372 . S
C947 C948 1.400 . S
C947 C952 1.490 . S
C948 H938 0.930 . S
C948 C947 1.400 . S
C948 C951 1.386 . S
H949 C965 0.930 . S
H950 C966 0.931 . S
C951 H939 0.929 . S
C951 C945 1.390 . S
C951 C948 1.386 . S
C952 C947 1.490 . S
C952 C954 1.395 . S
C952 C955 1.403 . S
H953 C959 0.930 . S
C954 H940 0.930 . S
C954 C952 1.395 . S
C954 C957 1.403 . S
C955 C952 1.403 . S
C955 C956 1.524 . S
C955 C959 1.400 . S
C956 H941 0.960 . S
C956 H942 0.960 . S
C956 H943 0.960 . S
C956 C955 1.524 . S
C957 C954 1.403 . S
C957 C958 1.392 . S
C957 C961 1.495 . S
C958 C957 1.392 . S
C958 C959 1.385 . S
C958 C960 1.478 . S
C959 H953 0.930 . S
C959 C955 1.400 . S
C959 C958 1.385 . S
C960 C958 1.478 . S
C960 C962 1.381 . S
C960 C966 1.383 . S
C961 C957 1.495 . S
C961 H967 0.959 . S
C961 H968 0.961 . S
C961 H969 0.960 . S
C962 C960 1.381 . S
C962 C963 1.394 . S
C962 H970 0.930 . S
C963 C962 1.394 . S
C963 C964 1.383 . S
C963 H971 0.929 . S
C964 C963 1.383 . S
C964 C965 1.377 . S
C965 H949 0.930 . S
C965 C964 1.377 . S
C965 C966 1.379 . S
C966 H950 0.931 . S
C966 C960 1.383 . S
C966 C965 1.379 . S
H967 C961 0.959 . S
H968 C961 0.961 . S
H969 C961 0.960 . S
H970 C962 0.930 . S
H971 C963 0.929 . S
H972 C980 0.929 . S
H973 C982 0.930 . S
H974 C984 0.930 . S
H975 C987 0.929 . S
H976 C990 0.930 1_655 S
H977 C992 0.960 . S
H978 C992 0.960 . S
H979 C992 0.960 . S
C980 H972 0.929 . S
C980 C981 1.377 . S
C980 C982 1.384 . S
C981 C980 1.377 . S
C981 C987 1.390 . S
C982 H973 0.930 . S
C982 C980 1.384 . S
C982 C983 1.372 1_655 S
C983 C982 1.372 1_455 S
C983 C984 1.400 . S
C983 C988 1.490 . S
C984 H974 0.930 . S
C984 C983 1.400 . S
C984 C987 1.386 1_455 S
H985 C1001 0.930 . S
H986 C1002 0.931 . S
C987 H975 0.929 . S
C987 C981 1.390 . S
C987 C984 1.386 1_655 S
C988 C983 1.490 . S
C988 C990 1.395 . S
C988 C991 1.403 . S
H989 C995 0.930 . S
C990 H976 0.930 1_455 S
C990 C988 1.395 . S
C990 C993 1.403 . S
C991 C988 1.403 . S
C991 C992 1.524 . S
C991 C995 1.400 . S
C992 H977 0.960 . S
C992 H978 0.960 . S
C992 H979 0.960 . S
C992 C991 1.524 . S
C993 C990 1.403 . S
C993 C994 1.392 . S
C993 C997 1.495 . S
C994 C993 1.392 . S
C994 C995 1.385 . S
C994 C996 1.478 . S
C995 H989 0.930 . S
C995 C991 1.400 . S
C995 C994 1.385 . S
C996 C994 1.478 . S
C996 C998 1.381 . S
C996 C1002 1.383 . S
C997 C993 1.495 . S
C997 H1003 0.959 1_455 S
C997 H1004 0.961 . S
C997 H1005 0.960 . S
C998 C996 1.381 . S
C998 C999 1.394 . S
C998 H1006 0.930 . S
C999 C998 1.394 . S
C999 C1000 1.383 . S
C999 H1007 0.929 . S
C1000 C999 1.383 . S
C1000 C1001 1.377 . S
C1001 H985 0.930 . S
C1001 C1000 1.377 . S
C1001 C1002 1.379 . S
C1002 H986 0.931 . S
C1002 C996 1.383 . S
C1002 C1001 1.379 . S
H1003 C997 0.959 1_655 S
H1004 C997 0.961 . S
H1005 C997 0.960 . S
H1006 C998 0.930 . S
H1007 C999 0.929 . S
H1008 C1016 0.929 . S
H1009 C1018 0.930 . S
H1010 C1020 0.930 . S
H1011 C1023 0.929 . S
H1012 C1026 0.930 . S
H1013 C1028 0.960 . S
H1014 C1028 0.960 . S
H1015 C1028 0.960 . S
C1016 H1008 0.929 . S
C1016 C1017 1.377 . S
C1016 C1018 1.384 . S
C1017 C1016 1.377 . S
C1017 C1023 1.390 . S
C1018 H1009 0.930 . S
C1018 C1016 1.384 . S
C1018 C1019 1.372 1_565 S
C1019 C1018 1.372 1_545 S
C1019 C1020 1.400 . S
C1019 C1024 1.490 . S
C1020 H1010 0.930 . S
C1020 C1019 1.400 . S
C1020 C1023 1.386 1_545 S
H1021 C1037 0.930 . S
H1022 C1038 0.931 . S
C1023 H1011 0.929 . S
C1023 C1017 1.390 . S
C1023 C1020 1.386 1_565 S
C1024 C1019 1.490 . S
C1024 C1026 1.395 . S
C1024 C1027 1.403 . S
H1025 C1031 0.930 . S
C1026 H1012 0.930 . S
C1026 C1024 1.395 . S
C1026 C1029 1.403 . S
C1027 C1024 1.403 . S
C1027 C1028 1.524 1_545 S
C1027 C1031 1.400 . S
C1028 H1013 0.960 . S
C1028 H1014 0.960 . S
C1028 H1015 0.960 . S
C1028 C1027 1.524 1_565 S
C1029 C1026 1.403 . S
C1029 C1030 1.392 . S
C1029 C1033 1.495 . S
C1030 C1029 1.392 . S
C1030 C1031 1.385 . S
C1030 C1032 1.478 . S
C1031 H1025 0.930 . S
C1031 C1027 1.400 . S
C1031 C1030 1.385 . S
C1032 C1030 1.478 . S
C1032 C1034 1.381 . S
C1032 C1038 1.383 . S
C1033 C1029 1.495 . S
C1033 H1039 0.959 . S
C1033 H1040 0.961 . S
C1033 H1041 0.960 . S
C1034 C1032 1.381 . S
C1034 C1035 1.394 . S
C1034 H1042 0.930 . S
C1035 C1034 1.394 . S
C1035 C1036 1.383 . S
C1035 H1043 0.929 . S
C1036 C1035 1.383 . S
C1036 C1037 1.377 . S
C1037 H1021 0.930 . S
C1037 C1036 1.377 . S
C1037 C1038 1.379 . S
C1038 H1022 0.931 . S
C1038 C1032 1.383 . S
C1038 C1037 1.379 . S
H1039 C1033 0.959 . S
H1040 C1033 0.961 . S
H1041 C1033 0.960 . S
H1042 C1034 0.930 . S
H1043 C1035 0.929 . S
H1044 C1052 0.929 . S
H1045 C1054 0.930 . S
H1046 C1056 0.930 . S
H1047 C1059 0.929 . S
H1048 C1062 0.930 . S
H1049 C1064 0.960 . S
H1050 C1064 0.960 . S
H1051 C1064 0.960 . S
C1052 H1044 0.929 . S
C1052 C1053 1.377 . S
C1052 C1054 1.384 . S
C1053 C1052 1.377 . S
C1053 C1059 1.390 . S
C1054 H1045 0.930 . S
C1054 C1052 1.384 . S
C1054 C1055 1.372 . S
C1055 C1054 1.372 . S
C1055 C1056 1.400 . S
C1055 C1060 1.490 . S
C1056 H1046 0.930 . S
C1056 C1055 1.400 . S
C1056 C1059 1.386 . S
H1057 C1073 0.930 . S
H1058 C1074 0.931 . S
C1059 H1047 0.929 . S
C1059 C1053 1.390 . S
C1059 C1056 1.386 . S
C1060 C1055 1.490 . S
C1060 C1062 1.395 . S
C1060 C1063 1.403 . S
H1061 C1067 0.930 . S
C1062 H1048 0.930 . S
C1062 C1060 1.395 . S
C1062 C1065 1.403 . S
C1063 C1060 1.403 . S
C1063 C1064 1.524 . S
C1063 C1067 1.400 . S
C1064 H1049 0.960 . S
C1064 H1050 0.960 . S
C1064 H1051 0.960 . S
C1064 C1063 1.524 . S
C1065 C1062 1.403 . S
C1065 C1066 1.392 . S
C1065 C1069 1.495 . S
C1066 C1065 1.392 . S
C1066 C1067 1.385 . S
C1066 C1068 1.478 . S
C1067 H1061 0.930 . S
C1067 C1063 1.400 . S
C1067 C1066 1.385 . S
C1068 C1066 1.478 . S
C1068 C1070 1.381 . S
C1068 C1074 1.383 . S
C1069 C1065 1.495 . S
C1069 H1075 0.959 . S
C1069 H1076 0.961 . S
C1069 H1077 0.960 . S
C1070 C1068 1.381 . S
C1070 C1071 1.394 . S
C1070 H1078 0.930 . S
C1071 C1070 1.394 . S
C1071 C1072 1.383 . S
C1071 H1079 0.929 . S
C1072 C1071 1.383 . S
C1072 C1073 1.377 . S
C1073 H1057 0.930 . S
C1073 C1072 1.377 . S
C1073 C1074 1.379 . S
C1074 H1058 0.931 . S
C1074 C1068 1.383 . S
C1074 C1073 1.379 . S
H1075 C1069 0.959 . S
H1076 C1069 0.961 . S
H1077 C1069 0.960 . S
H1078 C1070 0.930 . S
H1079 C1071 0.929 . S
H1080 C1088 0.929 . S
H1081 C1090 0.930 . S
H1082 C1092 0.930 . S
H1083 C1095 0.929 . S
H1084 C1098 0.930 . S
H1085 C1100 0.960 . S
H1086 C1100 0.960 . S
H1087 C1100 0.960 . S
C1088 H1080 0.929 . S
C1088 C1089 1.377 . S
C1088 C1090 1.384 . S
C1089 C1088 1.377 . S
C1089 C1095 1.390 . S
C1090 H1081 0.930 . S
C1090 C1088 1.384 . S
C1090 C1091 1.372 1_455 S
C1091 C1090 1.372 1_655 S
C1091 C1092 1.400 . S
C1091 C1096 1.490 . S
C1092 H1082 0.930 . S
C1092 C1091 1.400 . S
C1092 C1095 1.386 1_655 S
H1093 C1109 0.930 . S
H1094 C1110 0.931 . S
C1095 H1083 0.929 . S
C1095 C1089 1.390 . S
C1095 C1092 1.386 1_455 S
C1096 C1091 1.490 . S
C1096 C1098 1.395 . S
C1096 C1099 1.403 . S
H1097 C1103 0.930 . S
C1098 H1084 0.930 . S
C1098 C1096 1.395 . S
C1098 C1101 1.403 . S
C1099 C1096 1.403 . S
C1099 C1100 1.524 1_655 S
C1099 C1103 1.400 . S
C1100 H1085 0.960 . S
C1100 H1086 0.960 . S
C1100 H1087 0.960 . S
C1100 C1099 1.524 1_455 S
C1101 C1098 1.403 . S
C1101 C1102 1.392 . S
C1101 C1105 1.495 . S
C1102 C1101 1.392 . S
C1102 C1103 1.385 . S
C1102 C1104 1.478 . S
C1103 H1097 0.930 . S
C1103 C1099 1.400 . S
C1103 C1102 1.385 . S
C1104 C1102 1.478 . S
C1104 C1106 1.381 . S
C1104 C1110 1.383 . S
C1105 C1101 1.495 . S
C1105 H1111 0.959 . S
C1105 H1112 0.961 . S
C1105 H1113 0.960 . S
C1106 C1104 1.381 . S
C1106 C1107 1.394 . S
C1106 H1114 0.930 . S
C1107 C1106 1.394 . S
C1107 C1108 1.383 . S
C1107 H1115 0.929 . S
C1108 C1107 1.383 . S
C1108 C1109 1.377 . S
C1109 H1093 0.930 . S
C1109 C1108 1.377 . S
C1109 C1110 1.379 . S
C1110 H1094 0.931 . S
C1110 C1104 1.383 . S
C1110 C1109 1.379 . S
H1111 C1105 0.959 . S
H1112 C1105 0.961 . S
H1113 C1105 0.960 . S
H1114 C1106 0.930 . S
H1115 C1107 0.929 . S
H1116 C1124 0.929 . S
H1117 C1126 0.930 . S
H1118 C1128 0.930 . S
H1119 C1131 0.929 . S
H1120 C1134 0.930 . S
H1121 C1136 0.960 . S
H1122 C1136 0.960 . S
H1123 C1136 0.960 . S
C1124 H1116 0.929 . S
C1124 C1125 1.377 . S
C1124 C1126 1.384 1_545 S
C1125 C1124 1.377 . S
C1125 C1131 1.390 . S
C1126 H1117 0.930 . S
C1126 C1124 1.384 1_565 S
C1126 C1127 1.372 . S
C1127 C1126 1.372 . S
C1127 C1128 1.400 1_565 S
C1127 C1132 1.490 . S
C1128 H1118 0.930 . S
C1128 C1127 1.400 1_545 S
C1128 C1131 1.386 . S
H1129 C1145 0.930 . S
H1130 C1146 0.931 . S
C1131 H1119 0.929 . S
C1131 C1125 1.390 . S
C1131 C1128 1.386 . S
C1132 C1127 1.490 . S
C1132 C1134 1.395 . S
C1132 C1135 1.403 . S
H1133 C1139 0.930 . S
C1134 H1120 0.930 . S
C1134 C1132 1.395 . S
C1134 C1137 1.403 . S
C1135 C1132 1.403 . S
C1135 C1136 1.524 1_565 S
C1135 C1139 1.400 . S
C1136 H1121 0.960 . S
C1136 H1122 0.960 . S
C1136 H1123 0.960 . S
C1136 C1135 1.524 1_545 S
C1137 C1134 1.403 . S
C1137 C1138 1.392 . S
C1137 C1141 1.495 . S
C1138 C1137 1.392 . S
C1138 C1139 1.385 . S
C1138 C1140 1.478 . S
C1139 H1133 0.930 . S
C1139 C1135 1.400 . S
C1139 C1138 1.385 . S
C1140 C1138 1.478 . S
C1140 C1142 1.381 . S
C1140 C1146 1.383 . S
C1141 C1137 1.495 . S
C1141 H1147 0.959 . S
C1141 H1148 0.961 . S
C1141 H1149 0.960 . S
C1142 C1140 1.381 . S
C1142 C1143 1.394 . S
C1142 H1150 0.930 . S
C1143 C1142 1.394 . S
C1143 C1144 1.383 . S
C1143 H1151 0.929 . S
C1144 C1143 1.383 . S
C1144 C1145 1.377 . S
C1145 H1129 0.930 . S
C1145 C1144 1.377 . S
C1145 C1146 1.379 . S
C1146 H1130 0.931 . S
C1146 C1140 1.383 . S
C1146 C1145 1.379 . S
H1147 C1141 0.959 . S
H1148 C1141 0.961 . S
H1149 C1141 0.960 . S
H1150 C1142 0.930 . S
H1151 C1143 0.929 . S
C513 C392 1.114 . S
C532 C72 1.025 . S
C549 C476 1.111 . S
C568 C156 1.019 . S
C585 C56 1.116 . S
C604 C240 1.043 . S
C621 C140 1.117 . S
C640 C324 1.056 . S
C657 C224 1.117 . S
C676 C408 1.050 . S
C693 C308 1.117 . S
C712 C492 1.056 . S
C729 C75 1.627 . S
C748 C327 1.636 . S
C765 C411 1.627 . S
C784 C159 1.638 . S
C801 C495 1.626 . S
C820 C243 1.627 . S
C837 C234 1.674 . S
C856 C486 1.651 . S
C873 C66 1.684 . S
C892 C318 1.700 . S
C909 C402 1.682 . S
C928 C150 1.694 . S
C945 C487 1.201 . S
C964 C63 1.202 . S
C981 C147 1.175 . S
C1000 C67 1.209 . S
C1017 C231 1.178 . S
C1036 C151 1.147 . S
C1053 C235 1.196 . S
C1072 C315 1.151 . S
C1089 C399 1.179 . S
C1108 C319 1.149 . S
C1125 C483 1.184 . S
C1144 C403 1.159 . S
