# Generated by pormake.
# Topology sml, (6)-cn, num edge types: 1
# Building blocks:
#     Node 0, Type 0, BuildingBlock: NUHQIS_clean_sbu_0, # of connection points: 6
#     Node 1, Type 0, BuildingBlock: NUHQIS_clean_sbu_0, # of connection points: 6
#     Node 2, Type 0, BuildingBlock: NUHQIS_clean_sbu_0, # of connection points: 6
#     Node 3, Type 0, BuildingBlock: NUHQIS_clean_sbu_0, # of connection points: 6
#     Node 4, Type 0, BuildingBlock: NUHQIS_clean_sbu_0, # of connection points: 6
#     Node 5, Type 0, BuildingBlock: NUHQIS_clean_sbu_0, # of connection points: 6
#     Edge 6, Type (0, 0), BuildingBlock: TEMPAE_clean_linker_10, # of connection points: 2
#     Edge 7, Type (0, 0), BuildingBlock: TEMPAE_clean_linker_10, # of connection points: 2
#     Edge 8, Type (0, 0), BuildingBlock: TEMPAE_clean_linker_10, # of connection points: 2
#     Edge 9, Type (0, 0), BuildingBlock: TEMPAE_clean_linker_10, # of connection points: 2
#     Edge 10, Type (0, 0), BuildingBlock: TEMPAE_clean_linker_10, # of connection points: 2
#     Edge 11, Type (0, 0), BuildingBlock: TEMPAE_clean_linker_10, # of connection points: 2
#     Edge 12, Type (0, 0), BuildingBlock: TEMPAE_clean_linker_10, # of connection points: 2
#     Edge 13, Type (0, 0), BuildingBlock: TEMPAE_clean_linker_10, # of connection points: 2
#     Edge 14, Type (0, 0), BuildingBlock: TEMPAE_clean_linker_10, # of connection points: 2
#     Edge 15, Type (0, 0), BuildingBlock: TEMPAE_clean_linker_10, # of connection points: 2
#     Edge 16, Type (0, 0), BuildingBlock: TEMPAE_clean_linker_10, # of connection points: 2
#     Edge 17, Type (0, 0), BuildingBlock: TEMPAE_clean_linker_10, # of connection points: 2
#     Edge 18, Type (0, 0), BuildingBlock: TEMPAE_clean_linker_10, # of connection points: 2
#     Edge 19, Type (0, 0), BuildingBlock: TEMPAE_clean_linker_10, # of connection points: 2
#     Edge 20, Type (0, 0), BuildingBlock: TEMPAE_clean_linker_10, # of connection points: 2
#     Edge 21, Type (0, 0), BuildingBlock: TEMPAE_clean_linker_10, # of connection points: 2
#     Edge 22, Type (0, 0), BuildingBlock: TEMPAE_clean_linker_10, # of connection points: 2
#     Edge 23, Type (0, 0), BuildingBlock: TEMPAE_clean_linker_10, # of connection points: 2
# Relax obj value: 0.171
# Max RMSD: 0.219
# Mean RMSD: 0.219
data_MOF--net-sml--node1-NUHQIS_clean_sbu_0--edge1-TEMPAE_clean_linker_10
_symmetry_space_group_name_H-M    P1
_symmetry_Int_Tables_number       1
_symmetry_cell_setting            triclinic
loop_
_symmetry_equiv_pos_as_xyz
'x, y, z'
_cell_length_a     32.801747
_cell_length_b     32.844087
_cell_length_c     24.93321
_cell_angle_alpha  90.087793
_cell_angle_beta   90.058832
_cell_angle_gamma 120.01711
loop_
_atom_site_label
_atom_site_type_symbol
_atom_site_fract_x
_atom_site_fract_y
_atom_site_fract_z
_atom_type_partial_charge
Tb0 Tb 0.19048 0.40618 0.12165 0.0
Eu1 Eu 0.12919 0.40953 1.01646 0.0
C2 C 0.17678 0.3432 0.02234 0.0
C3 C 0.24227 0.46443 1.01836 0.0
C4 C 0.20663 0.39946 0.26553 0.0
C5 C 0.18709 0.36384 0.35407 0.0
C6 C 0.20559 0.36696 0.30268 0.0
C7 C 0.18851 0.42863 0.2805 0.0
C8 C 0.17043 0.42582 0.33195 0.0
C9 C 0.16934 0.39329 0.36938 0.0
C10 C 0.22399 0.40082 0.2105 0.0
O11 O 0.15335 0.44174 0.14668 0.0
O12 O 0.15116 0.47492 0.06692 0.0
O13 O 0.07931 0.37855 0.08613 0.0
O14 O 0.12066 0.34544 0.11545 0.0
C15 C 0.15084 0.47444 0.11965 0.0
O16 O 0.11618 0.44811 0.95426 0.0
O17 O 0.07043 0.37253 0.96036 0.0
O18 O 0.14113 0.3477 1.00547 0.0
O19 O 0.20569 0.36905 0.06074 0.0
O20 O 0.24237 0.46277 0.07117 0.0
O21 O 0.20406 0.44036 0.98937 0.0
C22 C 0.08349 0.34996 0.11919 0.0
O23 O 0.19752 0.36433 0.18068 0.0
O24 O 0.23879 0.44006 0.18421 0.0
C25 C 0.08726 0.40523 0.87301 0.0
C26 C 0.09508 0.3947 0.76144 0.0
C27 C 0.05151 0.36857 0.78759 0.0
C28 C 0.04767 0.37383 0.84285 0.0
C29 C 0.13083 0.43122 0.847 0.0
C30 C 0.13462 0.42617 0.79189 0.0
C31 C 0.0829 0.41008 0.93142 0.0
H32 H 0.1873 0.33879 0.38209 0.0
H33 H 0.21888 0.3438 0.29183 0.0
H34 H 0.18803 0.4535 0.2524 0.0
H35 H 0.15661 0.44868 0.34213 0.0
H36 H 0.02059 0.34348 0.76552 0.0
H37 H 0.01385 0.35305 0.86218 0.0
H38 H 0.16211 0.4555 0.86919 0.0
H39 H 0.16859 0.44733 0.77304 0.0
Tb40 Tb 0.79224 0.20902 0.46963 0.0
Eu41 Eu 0.86088 0.26922 0.5732 0.0
C42 C 0.81232 0.15562 0.55898 0.0
C43 C 0.74812 0.21147 0.58176 0.0
C44 C 0.76498 0.1847 0.32608 0.0
C45 C 0.75459 0.16393 0.23141 0.0
C46 C 0.74042 0.15252 0.28491 0.0
C47 C 0.80404 0.22848 0.31309 0.0
C48 C 0.81805 0.24001 0.25964 0.0
C49 C 0.79364 0.20785 0.21803 0.0
C50 C 0.75066 0.17213 0.38248 0.0
O51 O 0.82907 0.28259 0.45007 0.0
O52 O 0.83442 0.31369 0.5331 0.0
O53 O 0.9072 0.28979 0.50031 0.0
O54 O 0.86215 0.21805 0.4619 0.0
C55 C 0.82929 0.31474 0.48097 0.0
O56 O 0.87805 0.32069 0.63714 0.0
O57 O 0.91949 0.28651 0.62799 0.0
O58 O 0.84939 0.19496 0.57558 0.0
O59 O 0.78075 0.15514 0.52619 0.0
O60 O 0.74401 0.21123 0.52901 0.0
O61 O 0.78845 0.22419 0.60553 0.0
C62 C 0.90101 0.2589 0.46319 0.0
O63 O 0.77507 0.15783 0.40968 0.0
O64 O 0.74389 0.20209 0.40992 0.0
C65 C 0.90403 0.30215 0.71617 0.0
C66 C 0.88705 0.28328 0.8271 0.0
C67 C 0.92013 0.32859 0.80892 0.0
C68 C 0.92851 0.33789 0.75398 0.0
C69 C 0.87133 0.2568 0.73396 0.0
C70 C 0.86301 0.24742 0.78884 0.0
C71 C 0.90996 0.3131 0.65842 0.0
H72 H 0.73535 0.13802 0.20059 0.0
H73 H 0.71047 0.11841 0.29416 0.0
H74 H 0.82372 0.25379 0.3443 0.0
H75 H 0.84763 0.27438 0.25083 0.0
H76 H 0.93957 0.35695 0.83715 0.0
H77 H 0.95368 0.37318 0.741 0.0
H78 H 0.8515 0.22886 0.70532 0.0
H79 H 0.83673 0.21236 0.80121 0.0
Tb80 Tb 0.58381 0.77923 0.80981 0.0
Eu81 Eu 0.59797 0.72528 0.70562 0.0
C82 C 0.65236 0.83897 0.7191 0.0
C83 C 0.5331 0.77177 0.69971 0.0
C84 C 0.57792 0.79848 0.95389 0.0
C85 C 0.61583 0.81905 0.04147 0.0
C86 C 0.61131 0.83178 0.98923 0.0
C87 C 0.54896 0.75206 0.97187 0.0
C88 C 0.55313 0.73945 0.02428 0.0
C89 C 0.58677 0.77274 0.05964 0.0
C90 C 0.57556 0.81201 0.89786 0.0
O91 O 0.55557 0.70627 0.83064 0.0
O92 O 0.52923 0.67599 0.74752 0.0
O93 O 0.62885 0.70922 0.77755 0.0
O94 O 0.65039 0.78042 0.81308 0.0
C95 C 0.52589 0.67205 0.79993 0.0
O96 O 0.56634 0.67303 0.64187 0.0
O97 O 0.64233 0.71229 0.65108 0.0
O98 O 0.65531 0.8022 0.70296 0.0
O99 O 0.61997 0.83521 0.75292 0.0
O100 O 0.5289 0.76921 0.75239 0.0
O101 O 0.56394 0.76468 0.67424 0.0
C102 C 0.65276 0.74189 0.81329 0.0
O103 O 0.61485 0.82984 0.87101 0.0
O104 O 0.53978 0.78195 0.86906 0.0
C105 C 0.61102 0.69182 0.56265 0.0
C106 C 0.6118 0.70722 0.45099 0.0
C107 C 0.58516 0.66168 0.4724 0.0
C108 C 0.5849 0.65411 0.52761 0.0
C109 C 0.63826 0.73726 0.54155 0.0
C110 C 0.63885 0.74483 0.48626 0.0
C111 C 0.60684 0.68339 0.62099 0.0
H112 H 0.64174 0.84563 0.06788 0.0
H113 H 0.63423 0.86766 0.97625 0.0
H114 H 0.52335 0.72526 0.94539 0.0
H115 H 0.53068 0.70335 0.03678 0.0
H116 H 0.56339 0.63195 0.44674 0.0
H117 H 0.56341 0.61883 0.54313 0.0
H118 H 0.6585 0.76705 0.56781 0.0
H119 H 0.66032 0.78025 0.47121 0.0
Tb120 Tb 0.76535 0.59099 0.17172 0.0
Eu121 Eu 0.7043 0.59721 0.2757 0.0
C122 C 0.8193 0.64919 0.27181 0.0
C123 C 0.75191 0.53138 0.27755 0.0
C124 C 0.79061 0.59474 0.02751 0.0
C125 C 0.81319 0.62702 0.93764 0.0
C126 C 0.82537 0.62354 0.99061 0.0
C127 C 0.7434 0.56978 1.01066 0.0
C128 C 0.73132 0.57254 0.95761 0.0
C129 C 0.76598 0.6014 0.92048 0.0
C130 C 0.80362 0.59213 0.08365 0.0
O131 O 0.69235 0.55854 0.14865 0.0
O132 O 0.65548 0.53105 0.22913 0.0
O133 O 0.69038 0.6298 0.2037 0.0
O134 O 0.76481 0.65635 0.17795 0.0
C135 C 0.657 0.52718 0.17681 0.0
O136 O 0.6518 0.56499 0.33903 0.0
O137 O 0.68934 0.64075 0.32918 0.0
O138 O 0.78196 0.65146 0.28735 0.0
O139 O 0.81756 0.62103 0.2334 0.0
O140 O 0.75921 0.53557 0.22521 0.0
O141 O 0.73678 0.55549 0.30482 0.0
C142 C 0.72541 0.65651 0.17206 0.0
O143 O 0.81607 0.62954 0.11279 0.0
O144 O 0.77552 0.5537 0.10974 0.0
C145 C 0.67176 0.61066 0.41773 0.0
C146 C 0.69091 0.61388 0.52878 0.0
C147 C 0.64421 0.59093 0.50966 0.0
C148 C 0.63479 0.58939 0.45468 0.0
C149 C 0.71838 0.63419 0.43655 0.0
C150 C 0.72784 0.63601 0.49149 0.0
C151 C 0.66145 0.60535 0.35974 0.0
H152 H 0.8408 0.64924 0.90991 0.0
H153 H 0.86195 0.64345 1.00283 0.0
H154 H 0.71568 0.54822 0.03846 0.0
H155 H 0.69461 0.55269 0.94593 0.0
H156 H 0.61489 0.57299 0.537 0.0
H157 H 0.59859 0.57074 0.44091 0.0
H158 H 0.74756 0.65057 0.40873 0.0
H159 H 0.76418 0.6546 0.5047 0.0
Tb160 Tb 0.19859 0.76667 0.49458 0.0
Eu161 Eu 0.24908 0.83594 0.38988 0.0
C162 C 0.13907 0.79069 0.4181 0.0
C163 C 0.1959 0.72486 0.3803 0.0
C164 C 0.17753 0.7355 0.63632 0.0
C165 C 0.15976 0.72107 0.73126 0.0
C166 C 0.14985 0.70597 0.67784 0.0
C167 C 0.21535 0.7803 0.64875 0.0
C168 C 0.22536 0.79537 0.70206 0.0
C169 C 0.19755 0.76605 0.74402 0.0
C170 C 0.16601 0.72064 0.58 0.0
O171 O 0.27285 0.80786 0.51158 0.0
O172 O 0.29898 0.81434 0.42565 0.0
O173 O 0.27266 0.88306 0.46235 0.0
O174 O 0.20784 0.83546 0.5132 0.0
C175 C 0.30557 0.81408 0.47749 0.0
O176 O 0.29868 0.85546 0.32375 0.0
O177 O 0.25992 0.89219 0.33457 0.0
O178 O 0.17707 0.82818 0.40038 0.0
O179 O 0.14118 0.75702 0.44396 0.0
O180 O 0.20354 0.72249 0.43181 0.0
O181 O 0.20146 0.76349 0.35836 0.0
C182 C 0.24577 0.8762 0.50429 0.0
O183 O 0.14614 0.74043 0.55381 0.0
O184 O 0.19947 0.72035 0.55204 0.0
C185 C 0.27642 0.87921 0.2458 0.0
C186 C 0.259 0.86322 0.13461 0.0
C187 C 0.29936 0.90379 0.15358 0.0
C188 C 0.30797 0.91166 0.2087 0.0
C189 C 0.23563 0.83921 0.22724 0.0
C190 C 0.22695 0.83131 0.17218 0.0
C191 C 0.28792 0.8854 0.30337 0.0
H192 H 0.13727 0.69784 0.7625 0.0
H193 H 0.12028 0.67146 0.66892 0.0
H194 H 0.23701 0.80376 0.61716 0.0
H195 H 0.25513 0.82984 0.71043 0.0
H196 H 0.32444 0.92933 0.12578 0.0
H197 H 0.33972 0.94266 0.22234 0.0
H198 H 0.21106 0.81354 0.25535 0.0
H199 H 0.19588 0.79944 0.15903 0.0
Tb200 Tb 0.42546 0.21432 0.82151 0.0
Eu201 Eu 0.41751 0.14457 0.92365 0.0
C202 C 0.34489 0.18077 0.90557 0.0
C203 C 0.46265 0.25696 0.93508 0.0
C204 C 0.43403 0.24621 0.67907 0.0
C205 C 0.43045 0.26039 0.58389 0.0
C206 C 0.43094 0.27332 0.63762 0.0
C207 C 0.437 0.20614 0.66601 0.0
C208 C 0.4361 0.19294 0.61241 0.0
C209 C 0.43264 0.21981 0.5706 0.0
C210 C 0.43166 0.2582 0.7357 0.0
O211 O 0.4924 0.2174 0.83452 0.0
O212 O 0.467 0.1425 0.86235 0.0
O213 O 0.3672 0.09679 0.86011 0.0
O214 O 0.40503 0.14592 0.78911 0.0
C215 C 0.49723 0.18014 0.83593 0.0
O216 O 0.45332 0.12566 0.98414 0.0
O217 O 0.3771 0.0908 0.98344 0.0
O218 O 0.37048 0.17429 0.94119 0.0
O219 O 0.35483 0.18451 0.85427 0.0
O220 O 0.44169 0.25984 0.89131 0.0
O221 O 0.46738 0.2202 0.94515 0.0
C222 C 0.3736 0.10505 0.80834 0.0
O223 O 0.39217 0.23054 0.75988 0.0
O224 O 0.46761 0.26683 0.76581 0.0
C225 C 0.41497 0.10851 0.06784 0.0
C226 C 0.41747 0.12932 0.17842 0.0
C227 C 0.42041 0.09001 0.16114 0.0
C228 C 0.41908 0.07968 0.10634 0.0
C229 C 0.41218 0.14783 0.08482 0.0
C230 C 0.4133 0.15808 0.13952 0.0
C231 C 0.41454 0.09823 1.01012 0.0
H232 H 0.42728 0.2816 0.55275 0.0
H233 H 0.4283 0.30417 0.64681 0.0
H234 H 0.43967 0.18478 0.69727 0.0
H235 H 0.4384 0.16184 0.60369 0.0
H236 H 0.42322 0.06694 0.19002 0.0
H237 H 0.42133 0.04921 0.09403 0.0
H238 H 0.40934 0.17074 0.05568 0.0
H239 H 0.41163 0.18896 0.15134 0.0
C240 C 0.32271 0.22589 0.96619 0.0
C241 C 0.31051 0.19379 0.92393 0.0
C242 C 0.29433 0.24506 0.97924 0.0
C243 C 0.25184 0.23024 0.95061 0.0
C244 C 0.23804 0.19572 0.90987 0.0
C245 C 0.26824 0.17864 0.89609 0.0
C246 C 0.31108 0.2829 0.02182 0.0
C247 C 0.19217 0.17789 0.87998 0.0
C248 C 0.17455 0.26696 0.0234 0.0
C249 C 0.18614 0.30875 0.99674 0.0
C250 C 0.19228 0.23835 1.00559 0.0
C251 C 0.22375 0.2533 0.96164 0.0
C252 C 0.23327 0.2943 0.93285 0.0
C253 C 0.21357 0.32121 0.95041 0.0
C254 C 0.17998 0.19399 0.03603 0.0
C255 C 0.2676 0.31222 0.88668 0.0
H256 H 0.35592 0.23811 0.987 0.0
H257 H 0.25907 0.15378 0.86333 0.0
H258 H 0.3152 0.31577 1.00419 0.0
H259 H 0.28465 0.27206 0.05432 0.0
H260 H 0.34528 0.29073 0.03977 0.0
H261 H 0.18405 0.14712 0.85419 0.0
H262 H 0.16279 0.16776 0.90866 0.0
H263 H 0.19387 0.20621 0.85424 0.0
H264 H 0.15328 0.25772 0.05945 0.0
H265 H 0.22207 0.35359 0.93 0.0
H266 H 0.21021 0.19997 0.06156 0.0
H267 H 0.17268 0.16486 1.00793 0.0
H268 H 0.14885 0.18294 0.06229 0.0
H269 H 0.30382 0.32567 0.90232 0.0
H270 H 0.26663 0.34113 0.86471 0.0
H271 H 0.26017 0.28351 0.85799 0.0
C272 C 0.06887 0.31354 0.20963 0.0
C273 C 0.05617 0.33503 0.16942 0.0
C274 C 0.04759 0.30396 0.26009 0.0
C275 C 0.01174 0.31482 0.27018 0.0
C276 C -0.00144 0.3364 0.22986 0.0
C277 C 0.02134 0.34671 0.18003 0.0
C278 C 0.06373 0.28256 0.30278 0.0
C279 C 0.96109 0.34941 0.23949 0.0
C280 C 0.92082 0.24083 0.37356 0.0
C281 C 0.93323 0.27202 0.41704 0.0
C282 C 0.94622 0.25451 0.32572 0.0
C283 C 0.9857 0.3002 0.32151 0.0
C284 C -0.00022 0.33131 0.36593 0.0
C285 C 0.9731 0.31691 0.41325 0.0
C286 C 0.93004 0.2203 0.27925 0.0
C287 C 0.04173 0.38034 0.36305 0.0
H288 H 0.09635 0.30508 0.20224 0.0
H289 H 0.01213 0.3643 0.14962 0.0
H290 H 0.07203 0.30341 0.34031 0.0
H291 H 0.03503 0.24644 0.31198 0.0
H292 H 0.09536 0.28084 0.29038 0.0
H293 H 0.94794 0.35619 0.20137 0.0
H294 H 0.93087 0.32129 0.26168 0.0
H295 H 0.97612 0.38178 0.26436 0.0
H296 H 0.89005 0.20603 0.37599 0.0
H297 H 0.98279 0.34126 0.44661 0.0
H298 H 0.95661 0.2096 0.27119 0.0
H299 H 0.92675 0.23726 0.24239 0.0
H300 H 0.89563 0.18819 0.28709 0.0
H301 H 0.07048 0.38104 0.33907 0.0
H302 H 0.05548 0.39479 0.40362 0.0
H303 H 0.03104 0.40375 0.34318 0.0
C304 C 0.77231 0.06888 0.5513 0.0
C305 C 0.80344 0.10982 0.57945 0.0
C306 C 0.75607 0.02447 0.5737 0.0
C307 C 0.77162 0.02092 0.62545 0.0
C308 C 0.80641 0.06183 0.65204 0.0
C309 C 0.82196 0.1061 0.62866 0.0
C310 C 0.7189 0.98179 0.54397 0.0
C311 C 0.82437 0.05919 0.7069 0.0
C312 C 0.67507 0.92247 0.70475 0.0
C313 C 0.68526 0.88613 0.69776 0.0
C314 C 0.70428 0.96712 0.68342 0.0
C315 C 0.74508 0.97592 0.65475 0.0
C316 C 0.75675 0.94005 0.6493 0.0
C317 C 0.72636 0.89525 0.67053 0.0
C318 C 0.69014 0.00422 0.68949 0.0
C319 C 0.8004 0.94856 0.61967 0.0
H320 H 0.75873 0.07155 0.51259 0.0
H321 H 0.84636 0.13768 0.65033 0.0
H322 H 0.72751 0.95317 0.54418 0.0
H323 H 0.68447 0.96836 0.56439 0.0
H324 H 0.71493 0.98991 0.50169 0.0
H325 H 0.85754 0.09199 0.71708 0.0
H326 H 0.79755 0.05378 0.73745 0.0
H327 H 0.83056 0.02899 0.70943 0.0
H328 H 0.64336 0.91577 0.72568 0.0
H329 H 0.73467 0.86741 0.66554 0.0
H330 H 0.68196 0.01317 0.64949 0.0
H331 H 0.71957 0.03687 0.70677 0.0
H332 H 0.65877 0.99244 0.71555 0.0
H333 H 0.79559 0.95142 0.57607 0.0
H334 H 0.80821 0.91966 0.62597 0.0
H335 H 0.83127 0.9822 0.63273 0.0
C336 C 0.66125 0.68535 0.87256 0.0
C337 C 0.67121 0.73128 0.86193 0.0
C338 C 0.67066 0.67334 0.92316 0.0
C339 C 0.69023 0.70814 0.96384 0.0
C340 C 0.70184 0.75487 0.95266 0.0
C341 C 0.69263 0.76597 0.90169 0.0
C342 C 0.65702 0.62284 0.93337 0.0
C343 C 0.72208 0.79272 0.99527 0.0
C344 C 0.67342 0.66965 0.1094 0.0
C345 C 0.7173 0.67422 0.12117 0.0
C346 C 0.66405 0.68079 0.05823 0.0
C347 C 0.69922 0.69626 1.01814 0.0
C348 C 0.7436 0.70129 0.02998 0.0
C349 C 0.75235 0.69092 0.08154 0.0
C350 C 0.61608 0.67448 0.04654 0.0
C351 C 0.78136 0.71634 0.98768 0.0
H352 H 0.64418 0.65821 0.84229 0.0
H353 H 0.7004 0.8016 0.89383 0.0
H354 H 0.67913 0.61965 0.96482 0.0
H355 H 0.61987 0.60334 0.94704 0.0
H356 H 0.65958 0.60566 0.89609 0.0
H357 H 0.697 0.78265 0.02915 0.0
H358 H 0.75527 0.7963 1.01135 0.0
H359 H 0.72936 0.82745 0.9799 0.0
H360 H 0.64607 0.65635 0.13963 0.0
H361 H 0.78634 0.6944 0.09007 0.0
H362 H 0.59652 0.64378 0.01952 0.0
H363 H 0.6195 0.70574 0.02549 0.0
H364 H 0.59506 0.66856 0.0836 0.0
H365 H 0.7674 0.69236 0.95259 0.0
H366 H 0.81323 0.71628 1.00273 0.0
H367 H 0.79178 0.75221 0.97339 0.0
C368 C 0.05315 0.75052 0.43527 0.0
C369 C 0.09213 0.78411 0.40634 0.0
C370 C 0.00734 0.73741 0.41937 0.0
C371 C 0.0005 0.75838 0.37334 0.0
C372 C 0.0397 0.79589 0.34748 0.0
C373 C 0.08534 0.80838 0.36433 0.0
C374 C 0.96653 0.69741 0.44826 0.0
C375 C 0.03366 0.81954 0.29874 0.0
C376 C 0.90238 0.67033 0.28586 0.0
C377 C 0.86546 0.67878 0.29772 0.0
C378 C 0.94667 0.69706 0.30917 0.0
C379 C 0.95456 0.73346 0.3454 0.0
C380 C 0.91791 0.743 0.35707 0.0
C381 C 0.87343 0.71521 0.33323 0.0
C382 C 0.98468 0.68534 0.2959 0.0
C383 C 0.92541 0.7818 0.39532 0.0
H384 H 0.05828 0.73259 0.46884 0.0
H385 H 0.11544 0.83494 0.34241 0.0
H386 H 0.93713 0.70457 0.45343 0.0
H387 H 0.95317 0.6648 0.42401 0.0
H388 H 0.977 0.69089 0.48831 0.0
H389 H 0.06562 0.85405 0.29091 0.0
H390 H 0.027 0.79675 0.2631 0.0
H391 H 0.00301 0.82486 0.30347 0.0
H392 H 0.89667 0.64216 0.25869 0.0
H393 H 0.84508 0.72202 0.34235 0.0
H394 H -0.00469 0.67407 0.33272 0.0
H395 H 0.01634 0.71689 0.28025 0.0
H396 H 0.973 0.65681 0.26558 0.0
H397 H 0.92888 0.77174 0.4368 0.0
H398 H 0.89573 0.78899 0.39427 0.0
H399 H 0.95853 0.81466 0.38568 0.0
C400 C 0.33931 0.02252 0.77521 0.0
C401 C 0.34689 0.06806 0.76882 0.0
C402 C 0.32073 0.99004 0.73277 0.0
C403 C 0.30887 0.00361 0.68383 0.0
C404 C 0.31428 0.04887 0.67856 0.0
C405 C 0.33361 0.08067 0.72103 0.0
C406 C 0.31631 0.94232 0.73923 0.0
C407 C 0.30106 0.06428 0.6275 0.0
C408 C 0.30931 0.94471 0.55335 0.0
C409 C 0.2614 0.91186 0.54703 0.0
C410 C 0.32537 0.97431 0.59833 0.0
C411 C 0.29253 0.97143 0.63713 0.0
C412 C 0.244 0.93917 0.63022 0.0
C413 C 0.22904 0.90947 0.58538 0.0
C414 C 0.37753 0.00802 0.60485 0.0
C415 C 0.208 0.93573 0.67042 0.0
H416 H 0.3502 0.01318 0.81206 0.0
H417 H 0.33933 0.116 0.71647 0.0
H418 H 0.28157 0.91431 0.72463 0.0
H419 H 0.34356 0.94065 0.71453 0.0
H420 H 0.32084 0.9349 0.78161 0.0
H421 H 0.30541 0.09997 0.63106 0.0
H422 H 0.32334 0.06454 0.59392 0.0
H423 H 0.26393 0.03902 0.61676 0.0
H424 H 0.33449 0.94605 0.52426 0.0
H425 H 0.19195 0.88394 0.58066 0.0
H426 H 0.38987 0.00173 0.64376 0.0
H427 H 0.38459 0.04477 0.60534 0.0
H428 H 0.39853 0.00449 0.57212 0.0
H429 H 0.21504 0.92527 0.71012 0.0
H430 H 0.17143 0.90977 0.65817 0.0
H431 H 0.21069 0.97057 0.6755 0.0
C432 C 0.13952 0.3888 0.6829 0.0
C433 C 0.09978 0.38935 0.70273 0.0
C434 C 0.14638 0.38687 0.62765 0.0
C435 C 0.1126 0.38525 0.59098 0.0
C436 C 0.07159 0.38426 0.61062 0.0
C437 C 0.06562 0.38625 0.6663 0.0
C438 C 0.19042 0.3876 0.60849 0.0
C439 C 0.03455 0.38207 0.57281 0.0
C440 C 0.16247 0.43226 0.45284 0.0
C441 C 0.15087 0.39086 0.42458 0.0
C442 C 0.14828 0.43078 0.50626 0.0
C443 C 0.12178 0.38683 0.53221 0.0
C444 C 0.10807 0.34483 0.50317 0.0
C445 C 0.12293 0.34735 0.44981 0.0
C446 C 0.16349 0.47641 0.53567 0.0
C447 C 0.07933 0.29726 0.52909 0.0
H448 H 0.16554 0.39006 0.71073 0.0
H449 H 0.03485 0.38676 0.68121 0.0
H450 H 0.18099 0.35675 0.58234 0.0
H451 H 0.2119 0.4196 0.58415 0.0
H452 H 0.21241 0.38722 0.6422 0.0
H453 H 0.00495 0.38207 0.59441 0.0
H454 H 0.05047 0.41253 0.5451 0.0
H455 H 0.02023 0.34982 0.54782 0.0
H456 H 0.18424 0.46604 0.43387 0.0
H457 H 0.1131 0.31516 0.42803 0.0
H458 H 0.18897 0.48099 0.5677 0.0
H459 H 0.13281 0.4757 0.5553 0.0
H460 H 0.18036 0.50734 0.50859 0.0
H461 H 0.10071 0.29264 0.56043 0.0
H462 H 0.06748 0.26806 0.49964 0.0
H463 H 0.04794 0.29467 0.54913 0.0
C464 C 0.77547 0.20734 0.11979 0.0
C465 C 0.80889 0.21997 0.161 0.0
C466 C 0.78929 0.21824 0.06593 0.0
C467 C 0.83777 0.24214 0.05261 0.0
C468 C 0.87172 0.25484 0.09395 0.0
C469 C 0.85689 0.24406 0.14754 0.0
C470 C 0.75193 0.20424 0.0232 0.0
C471 C 0.92382 0.28032 0.08204 0.0
C472 C 0.86919 0.23139 0.90814 0.0
C473 C 0.87656 0.27367 0.88552 0.0
C474 C 0.85735 0.22106 0.96257 0.0
C475 C 0.85266 0.25372 0.9954 0.0
C476 C 0.861 0.29686 0.97315 0.0
C477 C 0.87276 0.30628 0.91858 0.0
C478 C 0.84977 0.17512 0.985 0.0
C479 C 0.85678 0.33279 1.00685 0.0
H480 H 0.73835 0.18947 0.12972 0.0
H481 H 0.88306 0.25396 0.17887 0.0
H482 H 0.75723 0.2359 1.00126 0.0
H483 H 0.75489 0.18066 0.99351 0.0
H484 H 0.71577 0.18596 0.0401 0.0
H485 H 0.9442 0.27655 0.11533 0.0
H486 H 0.93156 0.26717 0.04462 0.0
H487 H 0.93636 0.31831 0.07664 0.0
H488 H 0.87287 0.20633 0.88328 0.0
H489 H 0.87788 0.33883 0.9015 0.0
H490 H 0.81335 0.15412 1.00056 0.0
H491 H 0.87409 0.18203 1.01921 0.0
H492 H 0.85559 0.15384 0.95453 0.0
H493 H 0.82053 0.31726 0.02302 0.0
H494 H 0.86493 0.36488 0.98377 0.0
H495 H 0.88113 0.34314 0.04162 0.0
C496 C 0.60831 0.68329 0.35429 0.0
C497 C 0.61002 0.71562 0.39243 0.0
C498 C 0.60525 0.69019 0.29913 0.0
C499 C 0.60408 0.73055 0.28153 0.0
C500 C 0.60604 0.76345 0.31972 0.0
C501 C 0.60886 0.75555 0.37458 0.0
C502 C 0.60372 0.65448 0.25977 0.0
C503 C 0.60457 0.8068 0.30266 0.0
C504 C 0.6358 0.77515 0.13835 0.0
C505 C 0.59127 0.75944 0.11546 0.0
C506 C 0.64053 0.76467 0.19181 0.0
C507 C 0.59974 0.73816 0.22334 0.0
C508 C 0.55467 0.72096 0.19996 0.0
C509 C 0.55098 0.73175 0.14633 0.0
C510 C 0.68918 0.78281 0.21487 0.0
C511 C 0.51031 0.69206 0.23202 0.0
H512 H 0.60951 0.65257 0.36755 0.0
H513 H 0.60916 0.78029 0.4036 0.0
H514 H 0.57522 0.64471 0.22986 0.0
H515 H 0.63746 0.67013 0.23756 0.0
H516 H 0.59831 0.62202 0.27994 0.0
H517 H 0.60734 0.82943 0.33723 0.0
H518 H 0.63382 0.82784 0.27448 0.0
H519 H 0.57115 0.7964 0.28107 0.0
H520 H 0.66707 0.79584 0.11447 0.0
H521 H 0.51645 0.71962 0.12901 0.0
H522 H 0.69254 0.75322 0.23118 0.0
H523 H 0.695 0.80721 0.24862 0.0
H524 H 0.71726 0.80158 0.18455 0.0
H525 H 0.51055 0.66126 0.2499 0.0
H526 H 0.478 0.6793 0.20722 0.0
H527 H 0.50873 0.71346 0.26556 0.0
C528 C 0.72062 0.56364 0.83629 0.0
C529 C 0.7529 0.60441 0.86402 0.0
C530 C 0.70888 0.56563 0.78256 0.0
C531 C 0.72992 0.60945 0.75573 0.0
C532 C 0.76163 0.6509 0.78386 0.0
C533 C 0.77279 0.64788 0.83761 0.0
C534 C 0.67454 0.52067 0.75419 0.0
C535 C 0.78431 0.69836 0.75692 0.0
C536 C 0.73876 0.60757 0.60375 0.0
C537 C 0.70115 0.6135 0.58709 0.0
C538 C 0.74864 0.60659 0.65839 0.0
C539 C 0.7202 0.61151 0.69762 0.0
C540 C 0.68212 0.61739 0.68124 0.0
C541 C 0.67309 0.61831 0.62623 0.0
C542 C 0.78932 0.5998 0.67415 0.0
C543 C 0.65117 0.62312 0.72177 0.0
H544 H 0.70528 0.52989 0.85628 0.0
H545 H 0.79707 0.67964 0.85907 0.0
H546 H 0.64504 0.52395 0.73718 0.0
H547 H 0.69234 0.51409 0.72024 0.0
H548 H 0.65979 0.48974 0.78131 0.0
H549 H 0.80743 0.72733 0.78466 0.0
H550 H 0.80564 0.69858 0.72228 0.0
H551 H 0.75682 0.70539 0.74109 0.0
H552 H 0.76008 0.6028 0.574 0.0
H553 H 0.64416 0.62312 0.61385 0.0
H554 H 0.77625 0.5672 0.69815 0.0
H555 H 0.81447 0.62952 0.69973 0.0
H556 H 0.80856 0.59733 0.63879 0.0
H557 H 0.639 0.59529 0.75281 0.0
H558 H 0.61987 0.62184 0.7029 0.0
H559 H 0.67182 0.65742 0.74252 0.0
C560 C 0.21994 0.8287 0.81438 0.0
C561 C 0.20774 0.78245 0.8008 0.0
C562 C 0.22949 0.84457 0.86777 0.0
C563 C 0.22643 0.81335 0.90875 0.0
C564 C 0.21424 0.76667 0.8953 0.0
C565 C 0.20513 0.75184 0.84157 0.0
C566 C 0.24258 0.89466 0.88032 0.0
C567 C 0.21075 0.73231 0.93774 0.0
C568 C 0.2886 0.8604 0.04253 0.0
C569 C 0.25117 0.85317 0.07601 0.0
C570 C 0.28127 0.8486 0.98778 0.0
C571 C 0.23541 0.82908 0.96586 0.0
C572 C 0.19769 0.8227 0.99913 0.0
C573 C 0.206 0.83476 0.05375 0.0
C574 C 0.32242 0.85586 0.95372 0.0
C575 C 0.14834 0.80232 0.97724 0.0
H576 H 0.22123 0.85234 0.78332 0.0
H577 H 0.1964 0.71629 0.83138 0.0
H578 H 0.21712 0.89507 0.90926 0.0
H579 H 0.27784 0.91335 0.89951 0.0
H580 H 0.24323 0.91443 0.84389 0.0
H581 H 0.20115 0.69737 0.92066 0.0
H582 H 0.24485 0.74639 0.95915 0.0
H583 H 0.18388 0.72754 0.96792 0.0
H584 H 0.3235 0.87405 0.05946 0.0
H585 H 0.17703 0.82968 0.07913 0.0
H586 H 0.32551 0.87727 0.91795 0.0
H587 H 0.3165 0.8214 0.93907 0.0
H588 H 0.35625 0.87361 0.97614 0.0
H589 H 0.14816 0.82332 0.94252 0.0
H590 H 0.12326 0.80135 1.00782 0.0
H591 H 0.1356 0.76599 0.9626 0.0
C592 C 0.45675 0.23877 0.47397 0.0
C593 C 0.43082 0.2053 0.51345 0.0
C594 C 0.45496 0.2257 0.41989 0.0
C595 C 0.42626 0.17799 0.40459 0.0
C596 C 0.40017 0.14396 0.44429 0.0
C597 C 0.40288 0.15799 0.49815 0.0
C598 C 0.48377 0.26304 0.37904 0.0
C599 C 0.36888 0.0928 0.4298 0.0
C600 C 0.38781 0.15391 0.25807 0.0
C601 C 0.41895 0.14053 0.2367 0.0
C602 C 0.3893 0.16541 0.31268 0.0
C603 C 0.42306 0.16396 0.34692 0.0
C604 C 0.45442 0.1502 0.32568 0.0
C605 C 0.45186 0.13846 0.27098 0.0
C606 C 0.35486 0.17937 0.3337 0.0
C607 C 0.49122 0.14858 0.36059 0.0
H608 H 0.47892 0.27527 0.48549 0.0
H609 H 0.38232 0.13195 0.52824 0.0
H610 H 0.5078 0.2538 0.35788 0.0
H611 H 0.46022 0.26489 0.34838 0.0
H612 H 0.50509 0.29837 0.39754 0.0
H613 H 0.35178 0.07054 0.46552 0.0
H614 H 0.34105 0.08903 0.40151 0.0
H615 H 0.38967 0.07929 0.40911 0.0
H616 H 0.36187 0.15501 0.23206 0.0
H617 H 0.47637 0.12864 0.25472 0.0
H618 H 0.37422 0.2158 0.34963 0.0
H619 H 0.33435 0.15606 0.36737 0.0
H620 H 0.32993 0.17748 0.30228 0.0
H621 H 0.51532 0.18408 0.37719 0.0
H622 H 0.51242 0.13636 0.33825 0.0
H623 H 0.47419 0.12474 0.3951 0.0
C624 C 0.1791 0.55829 0.14195 0.0
C625 C 0.14767 0.51062 0.15108 0.0
C626 C 0.18368 0.59235 0.17945 0.0
C627 C 0.15514 0.57819 0.22612 0.0
C628 C 0.12112 0.53023 0.23343 0.0
C629 C 0.11842 0.49693 0.19626 0.0
C630 C 0.22103 0.64304 0.17079 0.0
C631 C 0.08899 0.5136 0.28161 0.0
C632 C 0.20229 0.65571 0.35019 0.0
C633 C 0.18179 0.68398 0.34487 0.0
C634 C 0.19362 0.62078 0.31193 0.0
C635 C 0.16263 0.61324 0.26848 0.0
C636 C 0.13994 0.64014 0.26475 0.0
C637 C 0.15045 0.67576 0.30249 0.0
C638 C 0.219 0.59323 0.31685 0.0
C639 C 0.10513 0.63178 0.22049 0.0
H640 H 0.20228 0.56858 0.10748 0.0
H641 H 0.09428 0.45984 0.20334 0.0
H642 H 0.20529 0.66604 0.17255 0.0
H643 H 0.24766 0.65447 0.20334 0.0
H644 H 0.23918 0.64848 0.13165 0.0
H645 H 0.05889 0.47737 0.27586 0.0
H646 H 0.10907 0.51356 0.31741 0.0
H647 H 0.07501 0.53751 0.2901 0.0
H648 H 0.22683 0.66243 0.38273 0.0
H649 H 0.1343 0.69747 0.2987 0.0
H650 H 0.24077 0.59877 0.28058 0.0
H651 H 0.19323 0.55507 0.31932 0.0
H652 H 0.24221 0.60362 0.35274 0.0
H653 H 0.1234 0.64103 0.18122 0.0
H654 H 0.08751 0.65289 0.22603 0.0
H655 H 0.07781 0.594 0.21878 0.0
C656 C 0.71064 0.1911 0.67198 0.0
C657 C 0.7068 0.19759 0.61688 0.0
C658 C 0.67446 0.18299 0.70765 0.0
C659 C 0.63311 0.18101 0.68791 0.0
C660 C 0.62775 0.1849 0.63202 0.0
C661 C 0.66477 0.1932 0.59704 0.0
C662 C 0.68167 0.17909 0.7669 0.0
C663 C 0.58387 0.18252 0.60952 0.0
C664 C 0.52889 0.13712 0.78309 0.0
C665 C 0.53375 0.17963 0.80176 0.0
C666 C 0.56056 0.13682 0.74533 0.0
C667 C 0.5981 0.18004 0.72647 0.0
C668 C 0.60358 0.22297 0.74606 0.0
C669 C 0.57125 0.22221 0.78324 0.0
C670 C 0.55347 0.0904 0.72498 0.0
C671 C 0.64355 0.26982 0.72758 0.0
H672 H 0.74263 0.19364 0.68779 0.0
H673 H 0.6614 0.19787 0.55457 0.0
H674 H 0.68443 0.21004 0.78826 0.0
H675 H 0.65108 0.14733 0.78391 0.0
H676 H 0.71408 0.17739 0.77521 0.0
H677 H 0.58281 0.18074 0.565 0.0
H678 H 0.55196 0.1514 0.62551 0.0
H679 H 0.58238 0.21416 0.62217 0.0
H680 H 0.4995 0.10411 0.79664 0.0
H681 H 0.57515 0.25519 0.79748 0.0
H682 H 0.58526 0.0877 0.73326 0.0
H683 H 0.54839 0.08824 0.68085 0.0
H684 H 0.52256 0.05991 0.74367 0.0
H685 H 0.67779 0.27233 0.73707 0.0
H686 H 0.64274 0.29999 0.74669 0.0
H687 H 0.64189 0.27294 0.68344 0.0
C688 C 0.30093 0.46852 0.95308 0.0
C689 C 0.28698 0.49152 0.98968 0.0
C690 C 0.34142 0.49373 0.92176 0.0
C691 C 0.36756 0.54332 0.92601 0.0
C692 C 0.35395 0.56667 0.96375 0.0
C693 C 0.314 0.54027 0.99581 0.0
C694 C 0.3557 0.46736 0.88357 0.0
C695 C 0.38057 0.61959 0.96891 0.0
C696 C 0.49278 0.61619 0.87566 0.0
C697 C 0.48579 0.63212 0.82627 0.0
C698 C 0.4545 0.58515 0.90733 0.0
C699 C 0.40822 0.57101 0.88985 0.0
C700 C 0.40098 0.58556 0.83891 0.0
C701 C 0.44001 0.61555 0.8073 0.0
C702 C 0.46375 0.56929 0.9605 0.0
C703 C 0.35219 0.57191 0.81933 0.0
H704 H 0.28006 0.4307 0.94901 0.0
H705 H 0.30277 0.55784 0.02403 0.0
H706 H 0.35096 0.4754 0.84161 0.0
H707 H 0.3935 0.47873 0.88895 0.0
H708 H 0.33461 0.42869 0.88941 0.0
H709 H 0.36549 0.63225 1.00026 0.0
H710 H 0.418 0.63228 0.97891 0.0
H711 H 0.37995 0.63565 0.93 0.0
H712 H 0.52837 0.62925 0.89029 0.0
H713 H 0.43476 0.62862 0.76952 0.0
H714 H 0.44069 0.53074 0.96527 0.0
H715 H 0.45553 0.58655 0.99367 0.0
H716 H 0.50104 0.57816 0.9647 0.0
H717 H 0.32913 0.53315 0.82005 0.0
H718 H 0.35245 0.58457 0.77797 0.0
H719 H 0.33634 0.58695 0.84656 0.0
C720 C 0.84016 0.39589 0.47289 0.0
C721 C 0.81926 0.34919 0.45541 0.0
C722 C 0.83177 0.42841 0.44534 0.0
C723 C 0.80075 0.41316 0.40064 0.0
C724 C 0.77874 0.36567 0.38401 0.0
C725 C 0.78874 0.33453 0.41115 0.0
C726 C 0.85664 0.47911 0.46329 0.0
C727 C 0.74446 0.34758 0.33755 0.0
C728 C 0.74026 0.47998 0.35602 0.0
C729 C 0.76431 0.50085 0.30841 0.0
C730 C 0.75252 0.45226 0.38721 0.0
C731 C 0.79051 0.44623 0.37101 0.0
C732 C 0.81572 0.46824 0.32364 0.0
C733 C 0.8019 0.49484 0.29245 0.0
C734 C 0.72391 0.42827 0.43657 0.0
C735 C 0.85697 0.46327 0.30565 0.0
H736 H 0.86399 0.4072 0.5069 0.0
H737 H 0.77211 0.29823 0.3979 0.0
H738 H 0.87813 0.50208 0.42986 0.0
H739 H 0.83052 0.4898 0.47401 0.0
H740 H 0.87998 0.48541 0.49838 0.0
H741 H 0.72915 0.30919 0.33102 0.0
H742 H 0.7153 0.35481 0.3448 0.0
H743 H 0.76241 0.36611 0.30017 0.0
H744 H 0.71122 0.4847 0.36844 0.0
H745 H 0.82111 0.51174 0.25619 0.0
H746 H 0.74722 0.4373 0.47213 0.0
H747 H 0.7061 0.38956 0.43127 0.0
H748 H 0.69673 0.43819 0.44487 0.0
H749 H 0.8825 0.47235 0.33905 0.0
H750 H 0.8755 0.48606 0.27077 0.0
H751 H 0.84461 0.42622 0.29429 0.0
C752 C 0.37101 0.84971 0.54244 0.0
C753 C 0.34898 0.81864 0.49965 0.0
C754 C 0.4056 0.84744 0.57307 0.0
C755 C 0.417 0.81211 0.56159 0.0
C756 C 0.39641 0.78213 0.51664 0.0
C757 C 0.36288 0.78619 0.48562 0.0
C758 C 0.42787 0.88108 0.61949 0.0
C759 C 0.40711 0.74352 0.50372 0.0
C760 C 0.52381 0.81449 0.62317 0.0
C761 C 0.50388 0.78474 0.6674 0.0
C762 C 0.49626 0.82502 0.58928 0.0
C763 C 0.4474 0.804 0.59904 0.0
C764 C 0.42722 0.77436 0.64418 0.0
C765 C 0.45598 0.76564 0.67843 0.0
C766 C 0.51931 0.85814 0.5428 0.0
C767 C 0.37505 0.75073 0.65536 0.0
H768 H 0.35976 0.8746 0.55322 0.0
H769 H 0.34498 0.76168 0.45305 0.0
H770 H 0.41408 0.86199 0.65782 0.0
H771 H 0.46659 0.89591 0.61964 0.0
H772 H 0.42033 0.91051 0.61809 0.0
H773 H 0.39067 0.72538 0.4654 0.0
H774 H 0.44566 0.75788 0.50111 0.0
H775 H 0.39376 0.71714 0.53646 0.0
H776 H 0.56111 0.82965 0.61513 0.0
H777 H 0.44072 0.74241 0.71252 0.0
H778 H 0.5104 0.88658 0.54369 0.0
H779 H 0.50578 0.8389 0.50439 0.0
H780 H 0.55825 0.87432 0.54332 0.0
H781 H 0.3643 0.77755 0.66086 0.0
H782 H 0.36489 0.72826 0.69172 0.0
H783 H 0.35502 0.72858 0.62056 0.0
C784 C 0.63623 0.46886 0.10475 0.0
C785 C 0.62111 0.48565 0.14751 0.0
C786 C 0.60431 0.43158 0.07279 0.0
C787 C 0.55566 0.40989 0.08414 0.0
C788 C 0.53989 0.42605 0.12791 0.0
C789 C 0.57305 0.46386 0.15952 0.0
C790 C 0.62294 0.41526 0.02705 0.0
C791 C 0.4882 0.40369 0.14089 0.0
C792 C 0.48545 0.33903 0.9639 0.0
C793 C 0.48089 0.29519 0.97544 0.0
C794 C 0.50619 0.37612 1.00118 0.0
C795 C 0.52249 0.36895 0.05099 0.0
C796 C 0.51462 0.32374 0.06431 0.0
C797 C 0.49408 0.28753 0.02637 0.0
C798 C 0.51363 0.42377 0.98573 0.0
C799 C 0.53119 0.31438 0.117 0.0
H800 H 0.67354 0.48472 0.09654 0.0
H801 H 0.56142 0.47695 0.19262 0.0
H802 H 0.61346 0.37811 0.0334 0.0
H803 H 0.60668 0.41688 0.98867 0.0
H804 H 0.66181 0.43686 0.02299 0.0
H805 H 0.48168 0.42026 0.17624 0.0
H806 H 0.46892 0.40666 0.10591 0.0
H807 H 0.4733 0.36565 0.14898 0.0
H808 H 0.47455 0.34498 0.92503 0.0
H809 H 0.48956 0.25339 0.03634 0.0
H810 H 0.55126 0.44746 0.97573 0.0
H811 H 0.50489 0.43992 0.01968 0.0
H812 H 0.49201 0.42172 0.95039 0.0
H813 H 0.57005 0.33033 0.11611 0.0
H814 H 0.51536 0.27613 0.12494 0.0
H815 H 0.52247 0.33064 0.1508 0.0
loop_
_geom_bond_atom_site_label_1
_geom_bond_atom_site_label_2
_geom_bond_distance
_geom_bond_site_symmetry_2
_ccdc_geom_bond_type
Tb0 C10 2.825 . S
Tb0 O11 2.347 . S
Tb0 O14 2.366 . S
Tb0 O19 2.418 . S
Tb0 O20 2.384 . S
Tb0 O23 2.479 . S
Tb0 O24 2.471 . S
Eu1 O12 2.419 . S
Eu1 O13 2.386 . S
Eu1 O16 2.476 1_554 S
Eu1 O17 2.469 1_554 S
Eu1 O18 2.348 . S
Eu1 O21 2.366 1_554 S
Eu1 C31 2.823 1_554 S
C2 O18 1.259 . S
C2 O19 1.265 . S
C3 O20 1.255 1_556 S
C3 O21 1.265 . S
C4 C6 1.380 . S
C4 C7 1.374 . S
C4 C10 1.507 . S
C5 C6 1.384 . S
C5 C9 1.387 . S
C5 H32 0.930 . S
C6 C4 1.380 . S
C6 C5 1.384 . S
C6 H33 0.931 . S
C7 C4 1.374 . S
C7 C8 1.390 . S
C7 H34 0.930 . S
C8 C7 1.390 . S
C8 C9 1.391 . S
C8 H35 0.930 . S
C9 C5 1.387 . S
C9 C8 1.391 . S
C10 Tb0 2.825 . S
C10 C4 1.507 . S
C10 O23 1.238 . S
C10 O24 1.247 . S
O11 Tb0 2.347 . S
O11 C15 1.259 . S
O12 Eu1 2.419 . S
O12 C15 1.265 . S
O13 Eu1 2.386 . S
O13 C22 1.255 . S
O14 Tb0 2.366 . S
O14 C22 1.265 . S
C15 O11 1.259 . S
C15 O12 1.265 . S
O16 Eu1 2.476 1_556 S
O16 C31 1.238 . S
O17 Eu1 2.469 1_556 S
O17 C31 1.247 . S
O18 Eu1 2.348 . S
O18 C2 1.259 . S
O19 Tb0 2.418 . S
O19 C2 1.265 . S
O20 Tb0 2.384 . S
O20 C3 1.255 1_554 S
O21 Eu1 2.366 1_556 S
O21 C3 1.265 . S
C22 O13 1.255 . S
C22 O14 1.265 . S
O23 Tb0 2.479 . S
O23 C10 1.238 . S
O24 Tb0 2.471 . S
O24 C10 1.247 . S
C25 C28 1.380 . S
C25 C29 1.374 . S
C25 C31 1.507 . S
C26 C27 1.387 . S
C26 C30 1.391 . S
C27 C26 1.387 . S
C27 C28 1.384 . S
C27 H36 0.930 . S
C28 C25 1.380 . S
C28 C27 1.384 . S
C28 H37 0.931 . S
C29 C25 1.374 . S
C29 C30 1.390 . S
C29 H38 0.930 . S
C30 C26 1.391 . S
C30 C29 1.390 . S
C30 H39 0.930 . S
C31 Eu1 2.823 1_556 S
C31 O16 1.238 . S
C31 O17 1.247 . S
C31 C25 1.507 . S
H32 C5 0.930 . S
H33 C6 0.931 . S
H34 C7 0.930 . S
H35 C8 0.930 . S
H36 C27 0.930 . S
H37 C28 0.931 . S
H38 C29 0.930 . S
H39 C30 0.930 . S
Tb40 C50 2.825 . S
Tb40 O51 2.347 . S
Tb40 O54 2.366 . S
Tb40 O59 2.418 . S
Tb40 O60 2.384 . S
Tb40 O63 2.479 . S
Tb40 O64 2.471 . S
Eu41 O52 2.418 . S
Eu41 O53 2.384 . S
Eu41 O56 2.479 . S
Eu41 O57 2.471 . S
Eu41 O58 2.347 . S
Eu41 O61 2.366 . S
Eu41 C71 2.825 . S
C42 O58 1.259 . S
C42 O59 1.265 . S
C43 O60 1.255 . S
C43 O61 1.265 . S
C44 C46 1.380 . S
C44 C47 1.374 . S
C44 C50 1.507 . S
C45 C46 1.384 . S
C45 C49 1.387 . S
C45 H72 0.930 . S
C46 C44 1.380 . S
C46 C45 1.384 . S
C46 H73 0.931 . S
C47 C44 1.374 . S
C47 C48 1.390 . S
C47 H74 0.930 . S
C48 C47 1.390 . S
C48 C49 1.391 . S
C48 H75 0.930 . S
C49 C45 1.387 . S
C49 C48 1.391 . S
C50 Tb40 2.825 . S
C50 C44 1.507 . S
C50 O63 1.238 . S
C50 O64 1.247 . S
O51 Tb40 2.347 . S
O51 C55 1.259 . S
O52 Eu41 2.418 . S
O52 C55 1.265 . S
O53 Eu41 2.384 . S
O53 C62 1.255 . S
O54 Tb40 2.366 . S
O54 C62 1.265 . S
C55 O51 1.259 . S
C55 O52 1.265 . S
O56 Eu41 2.479 . S
O56 C71 1.238 . S
O57 Eu41 2.471 . S
O57 C71 1.247 . S
O58 Eu41 2.347 . S
O58 C42 1.259 . S
O59 Tb40 2.418 . S
O59 C42 1.265 . S
O60 Tb40 2.384 . S
O60 C43 1.255 . S
O61 Eu41 2.366 . S
O61 C43 1.265 . S
C62 O53 1.255 . S
C62 O54 1.265 . S
O63 Tb40 2.479 . S
O63 C50 1.238 . S
O64 Tb40 2.471 . S
O64 C50 1.247 . S
C65 C68 1.380 . S
C65 C69 1.374 . S
C65 C71 1.507 . S
C66 C67 1.387 . S
C66 C70 1.391 . S
C67 C66 1.387 . S
C67 C68 1.384 . S
C67 H76 0.930 . S
C68 C65 1.380 . S
C68 C67 1.384 . S
C68 H77 0.931 . S
C69 C65 1.374 . S
C69 C70 1.390 . S
C69 H78 0.930 . S
C70 C66 1.391 . S
C70 C69 1.390 . S
C70 H79 0.930 . S
C71 Eu41 2.825 . S
C71 O56 1.238 . S
C71 O57 1.247 . S
C71 C65 1.507 . S
H72 C45 0.930 . S
H73 C46 0.931 . S
H74 C47 0.930 . S
H75 C48 0.930 . S
H76 C67 0.930 . S
H77 C68 0.931 . S
H78 C69 0.930 . S
H79 C70 0.930 . S
Tb80 C90 2.825 . S
Tb80 O91 2.347 . S
Tb80 O94 2.366 . S
Tb80 O99 2.418 . S
Tb80 O100 2.384 . S
Tb80 O103 2.479 . S
Tb80 O104 2.471 . S
Eu81 O92 2.418 . S
Eu81 O93 2.384 . S
Eu81 O96 2.479 . S
Eu81 O97 2.471 . S
Eu81 O98 2.347 . S
Eu81 O101 2.366 . S
Eu81 C111 2.825 . S
C82 O98 1.259 . S
C82 O99 1.265 . S
C83 O100 1.255 . S
C83 O101 1.265 . S
C84 C86 1.380 . S
C84 C87 1.374 . S
C84 C90 1.507 . S
C85 C86 1.384 1_554 S
C85 C89 1.387 . S
C85 H112 0.930 . S
C86 C84 1.380 . S
C86 C85 1.384 1_556 S
C86 H113 0.931 . S
C87 C84 1.374 . S
C87 C88 1.390 1_556 S
C87 H114 0.930 . S
C88 C87 1.390 1_554 S
C88 C89 1.391 . S
C88 H115 0.930 . S
C89 C85 1.387 . S
C89 C88 1.391 . S
C90 Tb80 2.825 . S
C90 C84 1.507 . S
C90 O103 1.238 . S
C90 O104 1.247 . S
O91 Tb80 2.347 . S
O91 C95 1.259 . S
O92 Eu81 2.418 . S
O92 C95 1.265 . S
O93 Eu81 2.384 . S
O93 C102 1.255 . S
O94 Tb80 2.366 . S
O94 C102 1.265 . S
C95 O91 1.259 . S
C95 O92 1.265 . S
O96 Eu81 2.479 . S
O96 C111 1.238 . S
O97 Eu81 2.471 . S
O97 C111 1.247 . S
O98 Eu81 2.347 . S
O98 C82 1.259 . S
O99 Tb80 2.418 . S
O99 C82 1.265 . S
O100 Tb80 2.384 . S
O100 C83 1.255 . S
O101 Eu81 2.366 . S
O101 C83 1.265 . S
C102 O93 1.255 . S
C102 O94 1.265 . S
O103 Tb80 2.479 . S
O103 C90 1.238 . S
O104 Tb80 2.471 . S
O104 C90 1.247 . S
C105 C108 1.380 . S
C105 C109 1.374 . S
C105 C111 1.507 . S
C106 C107 1.387 . S
C106 C110 1.391 . S
C107 C106 1.387 . S
C107 C108 1.384 . S
C107 H116 0.930 . S
C108 C105 1.380 . S
C108 C107 1.384 . S
C108 H117 0.931 . S
C109 C105 1.374 . S
C109 C110 1.390 . S
C109 H118 0.930 . S
C110 C106 1.391 . S
C110 C109 1.390 . S
C110 H119 0.930 . S
C111 Eu81 2.825 . S
C111 O96 1.238 . S
C111 O97 1.247 . S
C111 C105 1.507 . S
H112 C85 0.930 . S
H113 C86 0.931 . S
H114 C87 0.930 . S
H115 C88 0.930 . S
H116 C107 0.930 . S
H117 C108 0.931 . S
H118 C109 0.930 . S
H119 C110 0.930 . S
Tb120 C130 2.825 . S
Tb120 O131 2.347 . S
Tb120 O134 2.366 . S
Tb120 O139 2.418 . S
Tb120 O140 2.384 . S
Tb120 O143 2.479 . S
Tb120 O144 2.471 . S
Eu121 O132 2.418 . S
Eu121 O133 2.384 . S
Eu121 O136 2.479 . S
Eu121 O137 2.471 . S
Eu121 O138 2.347 . S
Eu121 O141 2.366 . S
Eu121 C151 2.825 . S
C122 O138 1.259 . S
C122 O139 1.265 . S
C123 O140 1.255 . S
C123 O141 1.265 . S
C124 C126 1.380 . S
C124 C127 1.374 . S
C124 C130 1.507 1_556 S
C125 C126 1.384 . S
C125 C129 1.387 . S
C125 H152 0.930 . S
C126 C124 1.380 . S
C126 C125 1.384 . S
C126 H153 0.931 . S
C127 C124 1.374 . S
C127 C128 1.390 . S
C127 H154 0.930 . S
C128 C127 1.390 . S
C128 C129 1.391 . S
C128 H155 0.930 . S
C129 C125 1.387 . S
C129 C128 1.391 . S
C130 Tb120 2.825 . S
C130 C124 1.507 1_554 S
C130 O143 1.238 . S
C130 O144 1.247 . S
O131 Tb120 2.347 . S
O131 C135 1.259 . S
O132 Eu121 2.418 . S
O132 C135 1.265 . S
O133 Eu121 2.384 . S
O133 C142 1.255 . S
O134 Tb120 2.366 . S
O134 C142 1.265 . S
C135 O131 1.259 . S
C135 O132 1.265 . S
O136 Eu121 2.479 . S
O136 C151 1.238 . S
O137 Eu121 2.471 . S
O137 C151 1.247 . S
O138 Eu121 2.347 . S
O138 C122 1.259 . S
O139 Tb120 2.418 . S
O139 C122 1.265 . S
O140 Tb120 2.384 . S
O140 C123 1.255 . S
O141 Eu121 2.366 . S
O141 C123 1.265 . S
C142 O133 1.255 . S
C142 O134 1.265 . S
O143 Tb120 2.479 . S
O143 C130 1.238 . S
O144 Tb120 2.471 . S
O144 C130 1.247 . S
C145 C148 1.380 . S
C145 C149 1.374 . S
C145 C151 1.507 . S
C146 C147 1.387 . S
C146 C150 1.391 . S
C147 C146 1.387 . S
C147 C148 1.384 . S
C147 H156 0.930 . S
C148 C145 1.380 . S
C148 C147 1.384 . S
C148 H157 0.931 . S
C149 C145 1.374 . S
C149 C150 1.390 . S
C149 H158 0.930 . S
C150 C146 1.391 . S
C150 C149 1.390 . S
C150 H159 0.930 . S
C151 Eu121 2.825 . S
C151 O136 1.238 . S
C151 O137 1.247 . S
C151 C145 1.507 . S
H152 C125 0.930 . S
H153 C126 0.931 . S
H154 C127 0.930 . S
H155 C128 0.930 . S
H156 C147 0.930 . S
H157 C148 0.931 . S
H158 C149 0.930 . S
H159 C150 0.930 . S
Tb160 C170 2.825 . S
Tb160 O171 2.347 . S
Tb160 O174 2.366 . S
Tb160 O179 2.418 . S
Tb160 O180 2.384 . S
Tb160 O183 2.479 . S
Tb160 O184 2.471 . S
Eu161 O172 2.418 . S
Eu161 O173 2.384 . S
Eu161 O176 2.479 . S
Eu161 O177 2.471 . S
Eu161 O178 2.347 . S
Eu161 O181 2.366 . S
Eu161 C191 2.825 . S
C162 O178 1.259 . S
C162 O179 1.265 . S
C163 O180 1.255 . S
C163 O181 1.265 . S
C164 C166 1.380 . S
C164 C167 1.374 . S
C164 C170 1.507 . S
C165 C166 1.384 . S
C165 C169 1.387 . S
C165 H192 0.930 . S
C166 C164 1.380 . S
C166 C165 1.384 . S
C166 H193 0.931 . S
C167 C164 1.374 . S
C167 C168 1.390 . S
C167 H194 0.930 . S
C168 C167 1.390 . S
C168 C169 1.391 . S
C168 H195 0.930 . S
C169 C165 1.387 . S
C169 C168 1.391 . S
C170 Tb160 2.825 . S
C170 C164 1.507 . S
C170 O183 1.238 . S
C170 O184 1.247 . S
O171 Tb160 2.347 . S
O171 C175 1.259 . S
O172 Eu161 2.418 . S
O172 C175 1.265 . S
O173 Eu161 2.384 . S
O173 C182 1.255 . S
O174 Tb160 2.366 . S
O174 C182 1.265 . S
C175 O171 1.259 . S
C175 O172 1.265 . S
O176 Eu161 2.479 . S
O176 C191 1.238 . S
O177 Eu161 2.471 . S
O177 C191 1.247 . S
O178 Eu161 2.347 . S
O178 C162 1.259 . S
O179 Tb160 2.418 . S
O179 C162 1.265 . S
O180 Tb160 2.384 . S
O180 C163 1.255 . S
O181 Eu161 2.366 . S
O181 C163 1.265 . S
C182 O173 1.255 . S
C182 O174 1.265 . S
O183 Tb160 2.479 . S
O183 C170 1.238 . S
O184 Tb160 2.471 . S
O184 C170 1.247 . S
C185 C188 1.380 . S
C185 C189 1.374 . S
C185 C191 1.507 . S
C186 C187 1.387 . S
C186 C190 1.391 . S
C187 C186 1.387 . S
C187 C188 1.384 . S
C187 H196 0.930 . S
C188 C185 1.380 . S
C188 C187 1.384 . S
C188 H197 0.931 . S
C189 C185 1.374 . S
C189 C190 1.390 . S
C189 H198 0.930 . S
C190 C186 1.391 . S
C190 C189 1.390 . S
C190 H199 0.930 . S
C191 Eu161 2.825 . S
C191 O176 1.238 . S
C191 O177 1.247 . S
C191 C185 1.507 . S
H192 C165 0.930 . S
H193 C166 0.931 . S
H194 C167 0.930 . S
H195 C168 0.930 . S
H196 C187 0.930 . S
H197 C188 0.931 . S
H198 C189 0.930 . S
H199 C190 0.930 . S
Tb200 C210 2.825 . S
Tb200 O211 2.347 . S
Tb200 O214 2.366 . S
Tb200 O219 2.418 . S
Tb200 O220 2.384 . S
Tb200 O223 2.479 . S
Tb200 O224 2.471 . S
Eu201 O212 2.418 . S
Eu201 O213 2.384 . S
Eu201 O216 2.479 1_556 S
Eu201 O217 2.471 1_556 S
Eu201 O218 2.347 . S
Eu201 O221 2.366 . S
Eu201 C231 2.825 1_556 S
C202 O218 1.259 . S
C202 O219 1.265 . S
C203 O220 1.255 . S
C203 O221 1.265 . S
C204 C206 1.380 . S
C204 C207 1.374 . S
C204 C210 1.507 . S
C205 C206 1.384 . S
C205 C209 1.387 . S
C205 H232 0.930 . S
C206 C204 1.380 . S
C206 C205 1.384 . S
C206 H233 0.931 . S
C207 C204 1.374 . S
C207 C208 1.390 . S
C207 H234 0.930 . S
C208 C207 1.390 . S
C208 C209 1.391 . S
C208 H235 0.930 . S
C209 C205 1.387 . S
C209 C208 1.391 . S
C210 Tb200 2.825 . S
C210 C204 1.507 . S
C210 O223 1.238 . S
C210 O224 1.247 . S
O211 Tb200 2.347 . S
O211 C215 1.259 . S
O212 Eu201 2.418 . S
O212 C215 1.265 . S
O213 Eu201 2.384 . S
O213 C222 1.255 . S
O214 Tb200 2.366 . S
O214 C222 1.265 . S
C215 O211 1.259 . S
C215 O212 1.265 . S
O216 Eu201 2.479 1_554 S
O216 C231 1.238 . S
O217 Eu201 2.471 1_554 S
O217 C231 1.247 . S
O218 Eu201 2.347 . S
O218 C202 1.259 . S
O219 Tb200 2.418 . S
O219 C202 1.265 . S
O220 Tb200 2.384 . S
O220 C203 1.255 . S
O221 Eu201 2.366 . S
O221 C203 1.265 . S
C222 O213 1.255 . S
C222 O214 1.265 . S
O223 Tb200 2.479 . S
O223 C210 1.238 . S
O224 Tb200 2.471 . S
O224 C210 1.247 . S
C225 C228 1.380 . S
C225 C229 1.374 . S
C225 C231 1.507 . S
C226 C227 1.387 . S
C226 C230 1.391 . S
C227 C226 1.387 . S
C227 C228 1.384 . S
C227 H236 0.930 . S
C228 C225 1.380 . S
C228 C227 1.384 . S
C228 H237 0.931 . S
C229 C225 1.374 . S
C229 C230 1.390 . S
C229 H238 0.930 . S
C230 C226 1.391 . S
C230 C229 1.390 . S
C230 H239 0.930 . S
C231 Eu201 2.825 1_554 S
C231 O216 1.238 . S
C231 O217 1.247 . S
C231 C225 1.507 . S
H232 C205 0.930 . S
H233 C206 0.931 . S
H234 C207 0.930 . S
H235 C208 0.930 . S
H236 C227 0.930 . S
H237 C228 0.931 . S
H238 C229 0.930 . S
H239 C230 0.930 . S
C240 C241 1.391 . S
C240 C242 1.394 . S
C240 H256 0.931 . S
C241 C240 1.391 . S
C241 C245 1.376 . S
C242 C240 1.394 . S
C242 C243 1.369 . S
C242 C246 1.531 . S
C243 C242 1.369 . S
C243 C244 1.410 . S
C243 C251 1.503 . S
C244 C243 1.410 . S
C244 C245 1.392 . S
C244 C247 1.511 . S
C245 C241 1.376 . S
C245 C244 1.392 . S
C245 H257 0.929 . S
C246 C242 1.531 . S
C246 H258 0.960 . S
C246 H259 0.962 . S
C246 H260 0.960 . S
C247 C244 1.511 . S
C247 H261 0.961 . S
C247 H262 0.961 . S
C247 H263 0.961 . S
C248 C249 1.370 . S
C248 C250 1.363 . S
C248 H264 0.931 . S
C249 C248 1.370 . S
C249 C253 1.408 1_554 S
C250 C248 1.363 . S
C250 C251 1.370 1_554 S
C250 C254 1.524 . S
C251 C243 1.503 . S
C251 C250 1.370 1_556 S
C251 C252 1.403 . S
C252 C251 1.403 . S
C252 C253 1.404 . S
C252 C255 1.539 . S
C253 C249 1.408 1_556 S
C253 C252 1.404 . S
C253 H265 0.930 . S
C254 C250 1.524 . S
C254 H266 0.956 . S
C254 H267 0.961 . S
C254 H268 0.961 . S
C255 C252 1.539 . S
C255 H269 0.958 . S
C255 H270 0.961 . S
C255 H271 0.960 . S
H256 C240 0.931 . S
H257 C245 0.929 . S
H258 C246 0.960 . S
H259 C246 0.962 . S
H260 C246 0.960 . S
H261 C247 0.961 . S
H262 C247 0.961 . S
H263 C247 0.961 . S
H264 C248 0.931 . S
H265 C253 0.930 . S
H266 C254 0.956 . S
H267 C254 0.961 . S
H268 C254 0.961 . S
H269 C255 0.958 . S
H270 C255 0.961 . S
H271 C255 0.960 . S
C272 C273 1.391 . S
C272 C274 1.394 . S
C272 H288 0.931 . S
C273 C272 1.391 . S
C273 C277 1.376 . S
C274 C272 1.394 . S
C274 C275 1.369 . S
C274 C278 1.531 . S
C275 C274 1.369 . S
C275 C276 1.410 1_455 S
C275 C283 1.503 1_455 S
C276 C275 1.410 1_655 S
C276 C277 1.392 1_655 S
C276 C279 1.511 . S
C277 C273 1.376 . S
C277 C276 1.392 1_455 S
C277 H289 0.929 1_455 S
C278 C274 1.531 . S
C278 H290 0.960 . S
C278 H291 0.962 . S
C278 H292 0.960 . S
C279 C276 1.511 . S
C279 H293 0.961 . S
C279 H294 0.961 . S
C279 H295 0.961 . S
C280 C281 1.370 . S
C280 C282 1.363 . S
C280 H296 0.931 . S
C281 C280 1.370 . S
C281 C285 1.408 . S
C282 C280 1.363 . S
C282 C283 1.370 . S
C282 C286 1.524 . S
C283 C275 1.503 1_655 S
C283 C282 1.370 . S
C283 C284 1.403 . S
C284 C283 1.403 . S
C284 C285 1.404 . S
C284 C287 1.539 1_655 S
C285 C281 1.408 . S
C285 C284 1.404 . S
C285 H297 0.930 . S
C286 C282 1.524 . S
C286 H298 0.956 1_655 S
C286 H299 0.961 . S
C286 H300 0.961 . S
C287 C284 1.539 1_455 S
C287 H301 0.958 . S
C287 H302 0.961 1_455 S
C287 H303 0.960 . S
H288 C272 0.931 . S
H289 C277 0.929 1_655 S
H290 C278 0.960 . S
H291 C278 0.962 . S
H292 C278 0.960 . S
H293 C279 0.961 . S
H294 C279 0.961 . S
H295 C279 0.961 . S
H296 C280 0.931 . S
H297 C285 0.930 . S
H298 C286 0.956 1_455 S
H299 C286 0.961 . S
H300 C286 0.961 . S
H301 C287 0.958 . S
H302 C287 0.961 1_655 S
H303 C287 0.960 . S
C304 C305 1.391 . S
C304 C306 1.394 . S
C304 H320 0.931 . S
C305 C304 1.391 . S
C305 C309 1.376 . S
C306 C304 1.394 . S
C306 C307 1.369 . S
C306 C310 1.531 1_545 S
C307 C306 1.369 . S
C307 C308 1.410 . S
C307 C315 1.503 1_545 S
C308 C307 1.410 . S
C308 C309 1.392 . S
C308 C311 1.511 . S
C309 C305 1.376 . S
C309 C308 1.392 . S
C309 H321 0.929 . S
C310 C306 1.531 1_565 S
C310 H322 0.960 . S
C310 H323 0.962 . S
C310 H324 0.960 1_565 S
C311 C308 1.511 . S
C311 H325 0.961 . S
C311 H326 0.961 . S
C311 H327 0.961 . S
C312 C313 1.370 . S
C312 C314 1.363 . S
C312 H328 0.931 . S
C313 C312 1.370 . S
C313 C317 1.408 . S
C314 C312 1.363 . S
C314 C315 1.370 . S
C314 C318 1.548 . S
C315 C307 1.503 1_565 S
C315 C314 1.370 . S
C315 C316 1.403 . S
C316 C315 1.403 . S
C316 C317 1.404 . S
C316 C319 1.539 . S
C317 C313 1.408 . S
C317 C316 1.404 . S
C317 H329 0.930 . S
C318 C314 1.548 . S
C318 H330 0.944 1_565 S
C318 H331 0.949 1_565 S
C318 H332 0.962 . S
C319 C316 1.539 . S
C319 H333 0.958 . S
C319 H334 0.961 . S
C319 H335 0.960 . S
H320 C304 0.931 . S
H321 C309 0.929 . S
H322 C310 0.960 . S
H323 C310 0.962 . S
H324 C310 0.960 1_545 S
H325 C311 0.961 . S
H326 C311 0.961 . S
H327 C311 0.961 . S
H328 C312 0.931 . S
H329 C317 0.930 . S
H330 C318 0.944 1_545 S
H331 C318 0.949 1_545 S
H332 C318 0.962 . S
H333 C319 0.958 . S
H334 C319 0.961 . S
H335 C319 0.960 . S
C336 C337 1.391 . S
C336 C338 1.394 . S
C336 H352 0.931 . S
C337 C336 1.391 . S
C337 C341 1.376 . S
C338 C336 1.394 . S
C338 C339 1.369 . S
C338 C342 1.531 . S
C339 C338 1.369 . S
C339 C340 1.410 . S
C339 C347 1.503 . S
C340 C339 1.410 . S
C340 C341 1.392 . S
C340 C343 1.511 . S
C341 C337 1.376 . S
C341 C340 1.392 . S
C341 H353 0.929 . S
C342 C338 1.531 . S
C342 H354 0.960 . S
C342 H355 0.962 . S
C342 H356 0.960 . S
C343 C340 1.511 . S
C343 H357 0.961 . S
C343 H358 0.961 . S
C343 H359 0.961 . S
C344 C345 1.370 . S
C344 C346 1.357 1_554 S
C344 H360 0.931 . S
C345 C344 1.370 . S
C345 C349 1.408 . S
C346 C344 1.357 1_556 S
C346 C347 1.372 . S
C346 C350 1.529 . S
C347 C339 1.503 . S
C347 C346 1.372 . S
C347 C348 1.403 1_556 S
C348 C347 1.403 1_554 S
C348 C349 1.404 . S
C348 C351 1.539 . S
C349 C345 1.408 . S
C349 C348 1.404 . S
C349 H361 0.930 . S
C350 C346 1.529 . S
C350 H362 0.956 . S
C350 H363 0.961 . S
C350 H364 0.961 . S
C351 C348 1.539 . S
C351 H365 0.958 . S
C351 H366 0.961 . S
C351 H367 0.960 1_554 S
H352 C336 0.931 . S
H353 C341 0.929 . S
H354 C342 0.960 . S
H355 C342 0.962 . S
H356 C342 0.960 . S
H357 C343 0.961 . S
H358 C343 0.961 . S
H359 C343 0.961 . S
H360 C344 0.931 . S
H361 C349 0.930 . S
H362 C350 0.956 . S
H363 C350 0.961 . S
H364 C350 0.961 . S
H365 C351 0.958 . S
H366 C351 0.961 . S
H367 C351 0.960 1_556 S
C368 C369 1.391 . S
C368 C370 1.394 . S
C368 H384 0.931 . S
C369 C368 1.391 . S
C369 C373 1.376 . S
C370 C368 1.394 . S
C370 C371 1.369 . S
C370 C374 1.531 1_455 S
C371 C370 1.369 . S
C371 C372 1.410 . S
C371 C379 1.503 1_455 S
C372 C371 1.410 . S
C372 C373 1.392 . S
C372 C375 1.511 . S
C373 C369 1.376 . S
C373 C372 1.392 . S
C373 H385 0.929 . S
C374 C370 1.531 1_655 S
C374 H386 0.960 . S
C374 H387 0.962 . S
C374 H388 0.960 1_655 S
C375 C372 1.511 . S
C375 H389 0.961 . S
C375 H390 0.961 . S
C375 H391 0.961 . S
C376 C377 1.370 . S
C376 C378 1.363 . S
C376 H392 0.931 . S
C377 C376 1.370 . S
C377 C381 1.408 . S
C378 C376 1.363 . S
C378 C379 1.370 . S
C378 C382 1.524 . S
C379 C371 1.503 1_655 S
C379 C378 1.370 . S
C379 C380 1.403 . S
C380 C379 1.403 . S
C380 C381 1.404 . S
C380 C383 1.539 . S
C381 C377 1.408 . S
C381 C380 1.404 . S
C381 H393 0.930 . S
C382 C378 1.524 . S
C382 H394 0.956 . S
C382 H395 0.961 1_655 S
C382 H396 0.961 . S
C383 C380 1.539 . S
C383 H397 0.958 . S
C383 H398 0.961 . S
C383 H399 0.960 1_655 S
H384 C368 0.931 . S
H385 C373 0.929 . S
H386 C374 0.960 . S
H387 C374 0.962 . S
H388 C374 0.960 1_455 S
H389 C375 0.961 . S
H390 C375 0.961 . S
H391 C375 0.961 . S
H392 C376 0.931 . S
H393 C381 0.930 . S
H394 C382 0.956 . S
H395 C382 0.961 1_455 S
H396 C382 0.961 . S
H397 C383 0.958 . S
H398 C383 0.961 . S
H399 C383 0.960 1_455 S
C400 C401 1.391 . S
C400 C402 1.394 1_545 S
C400 H416 0.931 . S
C401 C400 1.391 . S
C401 C405 1.376 . S
C402 C400 1.394 1_565 S
C402 C403 1.369 1_565 S
C402 C406 1.531 . S
C403 C402 1.369 1_545 S
C403 C404 1.410 . S
C403 C411 1.503 1_545 S
C404 C403 1.410 . S
C404 C405 1.392 . S
C404 C407 1.511 . S
C405 C401 1.376 . S
C405 C404 1.392 . S
C405 H417 0.929 . S
C406 C402 1.531 . S
C406 H418 0.960 . S
C406 H419 0.962 . S
C406 H420 0.960 . S
C407 C404 1.511 . S
C407 H421 0.961 . S
C407 H422 0.961 . S
C407 H423 0.961 . S
C408 C409 1.370 . S
C408 C410 1.363 1_565 S
C408 H424 0.931 1_565 S
C409 C408 1.370 . S
C409 C413 1.408 . S
C410 C408 1.363 1_545 S
C410 C411 1.370 1_545 S
C410 C414 1.524 . S
C411 C403 1.503 1_565 S
C411 C410 1.370 1_565 S
C411 C412 1.403 . S
C412 C411 1.403 . S
C412 C413 1.404 . S
C412 C415 1.539 . S
C413 C409 1.408 . S
C413 C412 1.404 . S
C413 H425 0.930 . S
C414 C410 1.524 . S
C414 H426 0.956 . S
C414 H427 0.961 . S
C414 H428 0.961 . S
C415 C412 1.539 . S
C415 H429 0.958 . S
C415 H430 0.961 . S
C415 H431 0.960 . S
H416 C400 0.931 . S
H417 C405 0.929 . S
H418 C406 0.960 . S
H419 C406 0.962 . S
H420 C406 0.960 . S
H421 C407 0.961 . S
H422 C407 0.961 . S
H423 C407 0.961 . S
H424 C408 0.931 1_545 S
H425 C413 0.930 . S
H426 C414 0.956 . S
H427 C414 0.961 . S
H428 C414 0.961 . S
H429 C415 0.958 . S
H430 C415 0.961 . S
H431 C415 0.960 . S
C432 C433 1.391 . S
C432 C434 1.394 . S
C432 H448 0.931 . S
C433 C432 1.391 . S
C433 C437 1.376 . S
C434 C432 1.394 . S
C434 C435 1.369 . S
C434 C438 1.531 . S
C435 C434 1.369 . S
C435 C436 1.410 . S
C435 C443 1.503 . S
C436 C435 1.410 . S
C436 C437 1.392 . S
C436 C439 1.511 . S
C437 C433 1.376 . S
C437 C436 1.392 . S
C437 H449 0.929 . S
C438 C434 1.531 . S
C438 H450 0.960 . S
C438 H451 0.962 . S
C438 H452 0.960 . S
C439 C436 1.511 . S
C439 H453 0.961 . S
C439 H454 0.961 . S
C439 H455 0.961 . S
C440 C441 1.370 . S
C440 C442 1.363 . S
C440 H456 0.931 . S
C441 C440 1.370 . S
C441 C445 1.408 . S
C442 C440 1.363 . S
C442 C443 1.370 . S
C442 C446 1.524 . S
C443 C435 1.503 . S
C443 C442 1.370 . S
C443 C444 1.403 . S
C444 C443 1.403 . S
C444 C445 1.404 . S
C444 C447 1.539 . S
C445 C441 1.408 . S
C445 C444 1.404 . S
C445 H457 0.930 . S
C446 C442 1.524 . S
C446 H458 0.956 . S
C446 H459 0.961 . S
C446 H460 0.961 . S
C447 C444 1.539 . S
C447 H461 0.958 . S
C447 H462 0.961 . S
C447 H463 0.960 . S
H448 C432 0.931 . S
H449 C437 0.929 . S
H450 C438 0.960 . S
H451 C438 0.962 . S
H452 C438 0.960 . S
H453 C439 0.961 . S
H454 C439 0.961 . S
H455 C439 0.961 . S
H456 C440 0.931 . S
H457 C445 0.930 . S
H458 C446 0.956 . S
H459 C446 0.961 . S
H460 C446 0.961 . S
H461 C447 0.958 . S
H462 C447 0.961 . S
H463 C447 0.960 . S
C464 C465 1.391 . S
C464 C466 1.394 . S
C464 H480 0.931 . S
C465 C464 1.391 . S
C465 C469 1.376 . S
C466 C464 1.394 . S
C466 C467 1.369 . S
C466 C470 1.531 . S
C467 C466 1.369 . S
C467 C468 1.410 . S
C467 C475 1.503 . S
C468 C467 1.410 . S
C468 C469 1.392 . S
C468 C471 1.511 . S
C469 C465 1.376 . S
C469 C468 1.392 . S
C469 H481 0.929 . S
C470 C466 1.531 . S
C470 H482 0.960 . S
C470 H483 0.962 . S
C470 H484 0.960 . S
C471 C468 1.511 . S
C471 H485 0.961 . S
C471 H486 0.961 . S
C471 H487 0.961 . S
C472 C473 1.370 . S
C472 C474 1.363 . S
C472 H488 0.931 . S
C473 C472 1.370 . S
C473 C477 1.408 . S
C474 C472 1.363 . S
C474 C475 1.370 1_556 S
C474 C478 1.524 . S
C475 C467 1.503 . S
C475 C474 1.370 1_554 S
C475 C476 1.407 . S
C476 C475 1.407 . S
C476 C477 1.385 1_554 S
C476 C479 1.553 . S
C477 C473 1.408 . S
C477 C476 1.385 1_556 S
C477 H489 0.930 . S
C478 C474 1.524 . S
C478 H490 0.957 . S
C478 H491 0.961 1_556 S
C478 H492 0.961 . S
C479 C476 1.553 . S
C479 H493 0.958 . S
C479 H494 0.961 . S
C479 H495 0.960 . S
H480 C464 0.931 . S
H481 C469 0.929 . S
H482 C470 0.960 . S
H483 C470 0.962 . S
H484 C470 0.960 . S
H485 C471 0.961 . S
H486 C471 0.961 . S
H487 C471 0.961 . S
H488 C472 0.931 . S
H489 C477 0.930 . S
H490 C478 0.957 . S
H491 C478 0.961 1_554 S
H492 C478 0.961 . S
H493 C479 0.958 . S
H494 C479 0.961 . S
H495 C479 0.960 . S
C496 C497 1.391 . S
C496 C498 1.394 . S
C496 H512 0.931 . S
C497 C496 1.391 . S
C497 C501 1.376 . S
C498 C496 1.394 . S
C498 C499 1.369 . S
C498 C502 1.531 . S
C499 C498 1.369 . S
C499 C500 1.410 . S
C499 C507 1.503 . S
C500 C499 1.410 . S
C500 C501 1.392 . S
C500 C503 1.511 . S
C501 C497 1.376 . S
C501 C500 1.392 . S
C501 H513 0.929 . S
C502 C498 1.531 . S
C502 H514 0.960 . S
C502 H515 0.962 . S
C502 H516 0.960 . S
C503 C500 1.511 . S
C503 H517 0.961 . S
C503 H518 0.961 . S
C503 H519 0.961 . S
C504 C505 1.370 . S
C504 C506 1.363 . S
C504 H520 0.931 . S
C505 C504 1.370 . S
C505 C509 1.408 . S
C506 C504 1.363 . S
C506 C507 1.370 . S
C506 C510 1.524 . S
C507 C499 1.503 . S
C507 C506 1.370 . S
C507 C508 1.403 . S
C508 C507 1.403 . S
C508 C509 1.404 . S
C508 C511 1.539 . S
C509 C505 1.408 . S
C509 C508 1.404 . S
C509 H521 0.930 . S
C510 C506 1.524 . S
C510 H522 0.956 . S
C510 H523 0.961 . S
C510 H524 0.961 . S
C511 C508 1.539 . S
C511 H525 0.958 . S
C511 H526 0.961 . S
C511 H527 0.960 . S
H512 C496 0.931 . S
H513 C501 0.929 . S
H514 C502 0.960 . S
H515 C502 0.962 . S
H516 C502 0.960 . S
H517 C503 0.961 . S
H518 C503 0.961 . S
H519 C503 0.961 . S
H520 C504 0.931 . S
H521 C509 0.930 . S
H522 C510 0.956 . S
H523 C510 0.961 . S
H524 C510 0.961 . S
H525 C511 0.958 . S
H526 C511 0.961 . S
H527 C511 0.960 . S
C528 C529 1.391 . S
C528 C530 1.394 . S
C528 H544 0.931 . S
C529 C528 1.391 . S
C529 C533 1.376 . S
C530 C528 1.394 . S
C530 C531 1.369 . S
C530 C534 1.531 . S
C531 C530 1.369 . S
C531 C532 1.410 . S
C531 C539 1.503 . S
C532 C531 1.410 . S
C532 C533 1.392 . S
C532 C535 1.511 . S
C533 C529 1.376 . S
C533 C532 1.392 . S
C533 H545 0.929 . S
C534 C530 1.531 . S
C534 H546 0.960 . S
C534 H547 0.962 . S
C534 H548 0.960 . S
C535 C532 1.511 . S
C535 H549 0.961 . S
C535 H550 0.961 . S
C535 H551 0.961 . S
C536 C537 1.370 . S
C536 C538 1.363 . S
C536 H552 0.931 . S
C537 C536 1.370 . S
C537 C541 1.408 . S
C538 C536 1.363 . S
C538 C539 1.370 . S
C538 C542 1.524 . S
C539 C531 1.503 . S
C539 C538 1.370 . S
C539 C540 1.403 . S
C540 C539 1.403 . S
C540 C541 1.404 . S
C540 C543 1.539 . S
C541 C537 1.408 . S
C541 C540 1.404 . S
C541 H553 0.930 . S
C542 C538 1.524 . S
C542 H554 0.956 . S
C542 H555 0.961 . S
C542 H556 0.961 . S
C543 C540 1.539 . S
C543 H557 0.958 . S
C543 H558 0.961 . S
C543 H559 0.960 . S
H544 C528 0.931 . S
H545 C533 0.929 . S
H546 C534 0.960 . S
H547 C534 0.962 . S
H548 C534 0.960 . S
H549 C535 0.961 . S
H550 C535 0.961 . S
H551 C535 0.961 . S
H552 C536 0.931 . S
H553 C541 0.930 . S
H554 C542 0.956 . S
H555 C542 0.961 . S
H556 C542 0.961 . S
H557 C543 0.958 . S
H558 C543 0.961 . S
H559 C543 0.960 . S
C560 C561 1.391 . S
C560 C562 1.394 . S
C560 H576 0.931 . S
C561 C560 1.391 . S
C561 C565 1.376 . S
C562 C560 1.394 . S
C562 C563 1.369 . S
C562 C566 1.531 . S
C563 C562 1.369 . S
C563 C564 1.410 . S
C563 C571 1.503 . S
C564 C563 1.410 . S
C564 C565 1.392 . S
C564 C567 1.511 . S
C565 C561 1.376 . S
C565 C564 1.392 . S
C565 H577 0.929 . S
C566 C562 1.531 . S
C566 H578 0.960 . S
C566 H579 0.962 . S
C566 H580 0.960 . S
C567 C564 1.511 . S
C567 H581 0.961 . S
C567 H582 0.961 . S
C567 H583 0.961 . S
C568 C569 1.370 1_556 S
C568 C570 1.363 . S
C568 H584 0.931 . S
C569 C568 1.370 1_554 S
C569 C573 1.408 . S
C570 C568 1.363 . S
C570 C571 1.370 . S
C570 C574 1.524 . S
C571 C563 1.503 . S
C571 C570 1.370 . S
C571 C572 1.403 . S
C572 C571 1.403 . S
C572 C573 1.404 1_556 S
C572 C575 1.539 . S
C573 C569 1.408 . S
C573 C572 1.404 1_554 S
C573 H585 0.930 . S
C574 C570 1.524 . S
C574 H586 0.956 . S
C574 H587 0.961 . S
C574 H588 0.961 . S
C575 C572 1.539 . S
C575 H589 0.958 . S
C575 H590 0.961 . S
C575 H591 0.960 . S
H576 C560 0.931 . S
H577 C565 0.929 . S
H578 C566 0.960 . S
H579 C566 0.962 . S
H580 C566 0.960 . S
H581 C567 0.961 . S
H582 C567 0.961 . S
H583 C567 0.961 . S
H584 C568 0.931 . S
H585 C573 0.930 . S
H586 C574 0.956 . S
H587 C574 0.961 . S
H588 C574 0.961 . S
H589 C575 0.958 . S
H590 C575 0.961 . S
H591 C575 0.960 . S
C592 C593 1.391 . S
C592 C594 1.394 . S
C592 H608 0.931 . S
C593 C592 1.391 . S
C593 C597 1.376 . S
C594 C592 1.394 . S
C594 C595 1.369 . S
C594 C598 1.531 . S
C595 C594 1.369 . S
C595 C596 1.410 . S
C595 C603 1.503 . S
C596 C595 1.410 . S
C596 C597 1.392 . S
C596 C599 1.511 . S
C597 C593 1.376 . S
C597 C596 1.392 . S
C597 H609 0.929 . S
C598 C594 1.531 . S
C598 H610 0.960 . S
C598 H611 0.962 . S
C598 H612 0.960 . S
C599 C596 1.511 . S
C599 H613 0.961 . S
C599 H614 0.961 . S
C599 H615 0.961 . S
C600 C601 1.370 . S
C600 C602 1.363 . S
C600 H616 0.931 . S
C601 C600 1.370 . S
C601 C605 1.408 . S
C602 C600 1.363 . S
C602 C603 1.370 . S
C602 C606 1.524 . S
C603 C595 1.503 . S
C603 C602 1.370 . S
C603 C604 1.403 . S
C604 C603 1.403 . S
C604 C605 1.404 . S
C604 C607 1.539 . S
C605 C601 1.408 . S
C605 C604 1.404 . S
C605 H617 0.930 . S
C606 C602 1.524 . S
C606 H618 0.956 . S
C606 H619 0.961 . S
C606 H620 0.961 . S
C607 C604 1.539 . S
C607 H621 0.958 . S
C607 H622 0.961 . S
C607 H623 0.960 . S
H608 C592 0.931 . S
H609 C597 0.929 . S
H610 C598 0.960 . S
H611 C598 0.962 . S
H612 C598 0.960 . S
H613 C599 0.961 . S
H614 C599 0.961 . S
H615 C599 0.961 . S
H616 C600 0.931 . S
H617 C605 0.930 . S
H618 C606 0.956 . S
H619 C606 0.961 . S
H620 C606 0.961 . S
H621 C607 0.958 . S
H622 C607 0.961 . S
H623 C607 0.960 . S
C624 C625 1.391 . S
C624 C626 1.394 . S
C624 H640 0.931 . S
C625 C624 1.391 . S
C625 C629 1.376 . S
C626 C624 1.394 . S
C626 C627 1.369 . S
C626 C630 1.531 . S
C627 C626 1.369 . S
C627 C628 1.410 . S
C627 C635 1.503 . S
C628 C627 1.410 . S
C628 C629 1.392 . S
C628 C631 1.511 . S
C629 C625 1.376 . S
C629 C628 1.392 . S
C629 H641 0.929 . S
C630 C626 1.531 . S
C630 H642 0.960 . S
C630 H643 0.962 . S
C630 H644 0.960 . S
C631 C628 1.511 . S
C631 H645 0.961 . S
C631 H646 0.961 . S
C631 H647 0.961 . S
C632 C633 1.370 . S
C632 C634 1.363 . S
C632 H648 0.931 . S
C633 C632 1.370 . S
C633 C637 1.408 . S
C634 C632 1.363 . S
C634 C635 1.370 . S
C634 C638 1.524 . S
C635 C627 1.503 . S
C635 C634 1.370 . S
C635 C636 1.403 . S
C636 C635 1.403 . S
C636 C637 1.404 . S
C636 C639 1.539 . S
C637 C633 1.408 . S
C637 C636 1.404 . S
C637 H649 0.930 . S
C638 C634 1.524 . S
C638 H650 0.956 . S
C638 H651 0.961 . S
C638 H652 0.961 . S
C639 C636 1.539 . S
C639 H653 0.958 . S
C639 H654 0.961 . S
C639 H655 0.960 . S
H640 C624 0.931 . S
H641 C629 0.929 . S
H642 C630 0.960 . S
H643 C630 0.962 . S
H644 C630 0.960 . S
H645 C631 0.961 . S
H646 C631 0.961 . S
H647 C631 0.961 . S
H648 C632 0.931 . S
H649 C637 0.930 . S
H650 C638 0.956 . S
H651 C638 0.961 . S
H652 C638 0.961 . S
H653 C639 0.958 . S
H654 C639 0.961 . S
H655 C639 0.960 . S
C656 C657 1.391 . S
C656 C658 1.394 . S
C656 H672 0.931 . S
C657 C656 1.391 . S
C657 C661 1.376 . S
C658 C656 1.394 . S
C658 C659 1.369 . S
C658 C662 1.531 . S
C659 C658 1.369 . S
C659 C660 1.410 . S
C659 C667 1.503 . S
C660 C659 1.410 . S
C660 C661 1.392 . S
C660 C663 1.511 . S
C661 C657 1.376 . S
C661 C660 1.392 . S
C661 H673 0.929 . S
C662 C658 1.531 . S
C662 H674 0.960 . S
C662 H675 0.962 . S
C662 H676 0.960 . S
C663 C660 1.511 . S
C663 H677 0.961 . S
C663 H678 0.961 . S
C663 H679 0.961 . S
C664 C665 1.370 . S
C664 C666 1.363 . S
C664 H680 0.931 . S
C665 C664 1.370 . S
C665 C669 1.408 . S
C666 C664 1.363 . S
C666 C667 1.370 . S
C666 C670 1.524 . S
C667 C659 1.503 . S
C667 C666 1.370 . S
C667 C668 1.403 . S
C668 C667 1.403 . S
C668 C669 1.404 . S
C668 C671 1.539 . S
C669 C665 1.408 . S
C669 C668 1.404 . S
C669 H681 0.930 . S
C670 C666 1.524 . S
C670 H682 0.956 . S
C670 H683 0.961 . S
C670 H684 0.961 . S
C671 C668 1.539 . S
C671 H685 0.958 . S
C671 H686 0.961 . S
C671 H687 0.960 . S
H672 C656 0.931 . S
H673 C661 0.929 . S
H674 C662 0.960 . S
H675 C662 0.962 . S
H676 C662 0.960 . S
H677 C663 0.961 . S
H678 C663 0.961 . S
H679 C663 0.961 . S
H680 C664 0.931 . S
H681 C669 0.930 . S
H682 C670 0.956 . S
H683 C670 0.961 . S
H684 C670 0.961 . S
H685 C671 0.958 . S
H686 C671 0.961 . S
H687 C671 0.960 . S
C688 C689 1.391 . S
C688 C690 1.394 . S
C688 H704 0.931 . S
C689 C688 1.391 . S
C689 C693 1.376 . S
C690 C688 1.394 . S
C690 C691 1.369 . S
C690 C694 1.531 . S
C691 C690 1.369 . S
C691 C692 1.410 . S
C691 C699 1.503 . S
C692 C691 1.410 . S
C692 C693 1.392 . S
C692 C695 1.511 . S
C693 C689 1.376 . S
C693 C692 1.392 . S
C693 H705 0.927 1_556 S
C694 C690 1.531 . S
C694 H706 0.960 . S
C694 H707 0.962 . S
C694 H708 0.960 . S
C695 C692 1.511 . S
C695 H709 0.961 . S
C695 H710 0.961 . S
C695 H711 0.961 . S
C696 C697 1.370 . S
C696 C698 1.363 . S
C696 H712 0.931 . S
C697 C696 1.370 . S
C697 C701 1.408 . S
C698 C696 1.363 . S
C698 C699 1.370 . S
C698 C702 1.524 . S
C699 C691 1.503 . S
C699 C698 1.370 . S
C699 C700 1.403 . S
C700 C699 1.403 . S
C700 C701 1.404 . S
C700 C703 1.539 . S
C701 C697 1.408 . S
C701 C700 1.404 . S
C701 H713 0.930 . S
C702 C698 1.524 . S
C702 H714 0.956 . S
C702 H715 0.961 . S
C702 H716 0.961 . S
C703 C700 1.539 . S
C703 H717 0.958 . S
C703 H718 0.961 . S
C703 H719 0.960 . S
H704 C688 0.931 . S
H705 C693 0.927 1_554 S
H706 C694 0.960 . S
H707 C694 0.962 . S
H708 C694 0.960 . S
H709 C695 0.961 . S
H710 C695 0.961 . S
H711 C695 0.961 . S
H712 C696 0.931 . S
H713 C701 0.930 . S
H714 C702 0.956 . S
H715 C702 0.961 . S
H716 C702 0.961 . S
H717 C703 0.958 . S
H718 C703 0.961 . S
H719 C703 0.960 . S
C720 C721 1.391 . S
C720 C722 1.394 . S
C720 H736 0.931 . S
C721 C720 1.391 . S
C721 C725 1.376 . S
C722 C720 1.394 . S
C722 C723 1.369 . S
C722 C726 1.531 . S
C723 C722 1.369 . S
C723 C724 1.410 . S
C723 C731 1.503 . S
C724 C723 1.410 . S
C724 C725 1.392 . S
C724 C727 1.511 . S
C725 C721 1.376 . S
C725 C724 1.392 . S
C725 H737 0.929 . S
C726 C722 1.531 . S
C726 H738 0.960 . S
C726 H739 0.962 . S
C726 H740 0.960 . S
C727 C724 1.511 . S
C727 H741 0.961 . S
C727 H742 0.961 . S
C727 H743 0.961 . S
C728 C729 1.370 . S
C728 C730 1.363 . S
C728 H744 0.931 . S
C729 C728 1.370 . S
C729 C733 1.408 . S
C730 C728 1.363 . S
C730 C731 1.370 . S
C730 C734 1.524 . S
C731 C723 1.503 . S
C731 C730 1.370 . S
C731 C732 1.403 . S
C732 C731 1.403 . S
C732 C733 1.404 . S
C732 C735 1.539 . S
C733 C729 1.408 . S
C733 C732 1.404 . S
C733 H745 0.930 . S
C734 C730 1.524 . S
C734 H746 0.956 . S
C734 H747 0.961 . S
C734 H748 0.961 . S
C735 C732 1.539 . S
C735 H749 0.958 . S
C735 H750 0.961 . S
C735 H751 0.960 . S
H736 C720 0.931 . S
H737 C725 0.929 . S
H738 C726 0.960 . S
H739 C726 0.962 . S
H740 C726 0.960 . S
H741 C727 0.961 . S
H742 C727 0.961 . S
H743 C727 0.961 . S
H744 C728 0.931 . S
H745 C733 0.930 . S
H746 C734 0.956 . S
H747 C734 0.961 . S
H748 C734 0.961 . S
H749 C735 0.958 . S
H750 C735 0.961 . S
H751 C735 0.960 . S
C752 C753 1.391 . S
C752 C754 1.394 . S
C752 H768 0.931 . S
C753 C752 1.391 . S
C753 C757 1.376 . S
C754 C752 1.394 . S
C754 C755 1.369 . S
C754 C758 1.531 . S
C755 C754 1.369 . S
C755 C756 1.410 . S
C755 C763 1.503 . S
C756 C755 1.410 . S
C756 C757 1.392 . S
C756 C759 1.511 . S
C757 C753 1.376 . S
C757 C756 1.392 . S
C757 H769 0.929 . S
C758 C754 1.531 . S
C758 H770 0.960 . S
C758 H771 0.962 . S
C758 H772 0.960 . S
C759 C756 1.511 . S
C759 H773 0.961 . S
C759 H774 0.961 . S
C759 H775 0.961 . S
C760 C761 1.370 . S
C760 C762 1.363 . S
C760 H776 0.931 . S
C761 C760 1.370 . S
C761 C765 1.408 . S
C762 C760 1.363 . S
C762 C763 1.370 . S
C762 C766 1.524 . S
C763 C755 1.503 . S
C763 C762 1.370 . S
C763 C764 1.403 . S
C764 C763 1.403 . S
C764 C765 1.404 . S
C764 C767 1.539 . S
C765 C761 1.408 . S
C765 C764 1.404 . S
C765 H777 0.930 . S
C766 C762 1.524 . S
C766 H778 0.956 . S
C766 H779 0.961 . S
C766 H780 0.961 . S
C767 C764 1.539 . S
C767 H781 0.958 . S
C767 H782 0.961 . S
C767 H783 0.960 . S
H768 C752 0.931 . S
H769 C757 0.929 . S
H770 C758 0.960 . S
H771 C758 0.962 . S
H772 C758 0.960 . S
H773 C759 0.961 . S
H774 C759 0.961 . S
H775 C759 0.961 . S
H776 C760 0.931 . S
H777 C765 0.930 . S
H778 C766 0.956 . S
H779 C766 0.961 . S
H780 C766 0.961 . S
H781 C767 0.958 . S
H782 C767 0.961 . S
H783 C767 0.960 . S
C784 C785 1.391 . S
C784 C786 1.394 . S
C784 H800 0.931 . S
C785 C784 1.391 . S
C785 C789 1.376 . S
C786 C784 1.394 . S
C786 C787 1.369 . S
C786 C790 1.531 . S
C787 C786 1.369 . S
C787 C788 1.410 . S
C787 C795 1.503 . S
C788 C787 1.410 . S
C788 C789 1.392 . S
C788 C791 1.511 . S
C789 C785 1.376 . S
C789 C788 1.392 . S
C789 H801 0.929 . S
C790 C786 1.531 . S
C790 H802 0.960 . S
C790 H803 0.962 . S
C790 H804 0.960 . S
C791 C788 1.511 . S
C791 H805 0.961 . S
C791 H806 0.961 . S
C791 H807 0.961 . S
C792 C793 1.370 . S
C792 C794 1.363 . S
C792 H808 0.931 . S
C793 C792 1.370 . S
C793 C797 1.408 1_556 S
C794 C792 1.363 . S
C794 C795 1.370 1_556 S
C794 C798 1.524 . S
C795 C787 1.503 . S
C795 C794 1.370 1_554 S
C795 C796 1.403 . S
C796 C795 1.403 . S
C796 C797 1.404 . S
C796 C799 1.539 . S
C797 C793 1.408 1_554 S
C797 C796 1.404 . S
C797 H809 0.930 . S
C798 C794 1.524 . S
C798 H810 0.956 . S
C798 H811 0.961 . S
C798 H812 0.961 . S
C799 C796 1.539 . S
C799 H813 0.958 . S
C799 H814 0.961 . S
C799 H815 0.960 . S
H800 C784 0.931 . S
H801 C789 0.929 . S
H802 C790 0.960 . S
H803 C790 0.962 . S
H804 C790 0.960 . S
H805 C791 0.961 . S
H806 C791 0.961 . S
H807 C791 0.961 . S
H808 C792 0.931 . S
H809 C797 0.930 . S
H810 C798 0.956 . S
H811 C798 0.961 . S
H812 C798 0.961 . S
H813 C799 0.958 . S
H814 C799 0.961 . S
H815 C799 0.960 . S
C241 C202 1.344 . S
C249 C2 1.381 . S
C273 C22 1.659 . S
C281 C62 1.676 . S
C305 C42 1.387 . S
C313 C82 1.389 . S
C337 C102 1.674 . S
C345 C142 1.691 . S
C369 C162 1.409 . S
C377 C122 1.381 . S
C401 C222 1.701 . S
C409 C182 1.679 . S
C433 C26 1.145 . S
C441 C9 1.160 . S
C465 C49 1.125 . S
C473 C66 1.169 . S
C497 C106 1.172 . S
C505 C89 1.152 . S
C529 C129 1.129 . S
C537 C146 1.167 . S
C561 C169 1.178 . S
C569 C186 1.147 . S
C593 C209 1.127 . S
C601 C226 1.170 . S
C625 C15 1.862 . S
C633 C163 1.861 . S
C657 C43 1.855 . S
C665 C215 1.861 . S
C689 C3 1.862 . S
C697 C95 1.860 . S
C721 C55 1.856 . S
C729 C123 1.861 . S
C753 C175 1.853 . S
C761 C83 1.864 . S
C785 C135 1.859 . S
C793 C203 1.863 . S
