# Generated by pormake.
# Topology ske, (6)-cn, num edge types: 1
# Building blocks:
#     Node 0, Type 0, BuildingBlock: CIFDUS_clean_sbu_1, # of connection points: 6
#     Node 1, Type 0, BuildingBlock: CIFDUS_clean_sbu_1, # of connection points: 6
#     Node 2, Type 0, BuildingBlock: CIFDUS_clean_sbu_1, # of connection points: 6
#     Node 3, Type 0, BuildingBlock: CIFDUS_clean_sbu_1, # of connection points: 6
#     Node 4, Type 0, BuildingBlock: CIFDUS_clean_sbu_1, # of connection points: 6
#     Node 5, Type 0, BuildingBlock: CIFDUS_clean_sbu_1, # of connection points: 6
#     Node 6, Type 0, BuildingBlock: CIFDUS_clean_sbu_1, # of connection points: 6
#     Node 7, Type 0, BuildingBlock: CIFDUS_clean_sbu_1, # of connection points: 6
#     Edge 8, Type (0, 0), BuildingBlock: CIFDUS_clean_linker_0, # of connection points: 2
#     Edge 9, Type (0, 0), BuildingBlock: CIFDUS_clean_linker_0, # of connection points: 2
#     Edge 10, Type (0, 0), BuildingBlock: CIFDUS_clean_linker_0, # of connection points: 2
#     Edge 11, Type (0, 0), BuildingBlock: CIFDUS_clean_linker_0, # of connection points: 2
#     Edge 12, Type (0, 0), BuildingBlock: CIFDUS_clean_linker_0, # of connection points: 2
#     Edge 13, Type (0, 0), BuildingBlock: CIFDUS_clean_linker_0, # of connection points: 2
#     Edge 14, Type (0, 0), BuildingBlock: CIFDUS_clean_linker_0, # of connection points: 2
#     Edge 15, Type (0, 0), BuildingBlock: CIFDUS_clean_linker_0, # of connection points: 2
#     Edge 16, Type (0, 0), BuildingBlock: CIFDUS_clean_linker_0, # of connection points: 2
#     Edge 17, Type (0, 0), BuildingBlock: CIFDUS_clean_linker_0, # of connection points: 2
#     Edge 18, Type (0, 0), BuildingBlock: CIFDUS_clean_linker_0, # of connection points: 2
#     Edge 19, Type (0, 0), BuildingBlock: CIFDUS_clean_linker_0, # of connection points: 2
#     Edge 20, Type (0, 0), BuildingBlock: CIFDUS_clean_linker_0, # of connection points: 2
#     Edge 21, Type (0, 0), BuildingBlock: CIFDUS_clean_linker_0, # of connection points: 2
#     Edge 22, Type (0, 0), BuildingBlock: CIFDUS_clean_linker_0, # of connection points: 2
#     Edge 23, Type (0, 0), BuildingBlock: CIFDUS_clean_linker_0, # of connection points: 2
#     Edge 24, Type (0, 0), BuildingBlock: CIFDUS_clean_linker_0, # of connection points: 2
#     Edge 25, Type (0, 0), BuildingBlock: CIFDUS_clean_linker_0, # of connection points: 2
#     Edge 26, Type (0, 0), BuildingBlock: CIFDUS_clean_linker_0, # of connection points: 2
#     Edge 27, Type (0, 0), BuildingBlock: CIFDUS_clean_linker_0, # of connection points: 2
#     Edge 28, Type (0, 0), BuildingBlock: CIFDUS_clean_linker_0, # of connection points: 2
#     Edge 29, Type (0, 0), BuildingBlock: CIFDUS_clean_linker_0, # of connection points: 2
#     Edge 30, Type (0, 0), BuildingBlock: CIFDUS_clean_linker_0, # of connection points: 2
#     Edge 31, Type (0, 0), BuildingBlock: CIFDUS_clean_linker_0, # of connection points: 2
# Relax obj value: 0.100
# Max RMSD: 0.136
# Mean RMSD: 0.136
data_MOF--net-ske--node1-CIFDUS_clean_sbu_1--edge1-CIFDUS_clean_linker_0
_symmetry_space_group_name_H-M    P1
_symmetry_Int_Tables_number       1
_symmetry_cell_setting            triclinic
loop_
_symmetry_equiv_pos_as_xyz
'x, y, z'
_cell_length_a     53.643318
_cell_length_b     27.029694
_cell_length_c     13.796086
_cell_angle_alpha  90.229492
_cell_angle_beta   90.113293
_cell_angle_gamma 89.69933
loop_
_atom_site_label
_atom_site_type_symbol
_atom_site_fract_x
_atom_site_fract_y
_atom_site_fract_z
_atom_type_partial_charge
O0 O 0.152 0.2448 0.42947 0.0
Mn1 Mn 0.14409 0.25823 0.57565 0.0
O2 O 0.1169 0.27292 0.37079 0.0
Mn3 Mn 0.11728 0.32543 0.45611 0.0
O4 O 0.1383 0.26901 0.7241 0.0
O5 O 0.14731 0.18093 0.59499 0.0
Mn6 Mn 0.17493 0.18692 0.66663 0.0
O7 O 0.18177 0.27756 0.60135 0.0
O8 O 0.16678 0.21574 0.7829 0.0
O9 O 0.10383 0.24881 0.56343 0.0
O10 O 0.08993 0.32523 0.53134 0.0
O11 O 0.17165 0.12249 0.66726 0.0
O12 O 0.20305 0.20945 0.60551 0.0
C13 C 0.15047 0.36481 0.49258 0.0
C14 C 0.13645 0.24801 0.36016 0.0
C15 C 0.14992 0.2483 0.79492 0.0
C16 C 0.15226 0.13395 0.61548 0.0
C17 C 0.2029 0.2558 0.60587 0.0
C18 C 0.08619 0.28243 0.5654 0.0
O19 O 0.14045 0.33256 0.55077 0.0
O20 O 0.13872 0.37084 0.41165 0.0
O21 O 0.8461 0.25576 0.56278 0.0
Mn22 Mn 0.88514 0.25773 0.55666 0.0
O23 O 0.84461 0.28207 0.71207 0.0
Mn24 Mn 0.87354 0.31828 0.69117 0.0
O25 O 0.92516 0.25669 0.55031 0.0
O26 O 0.88257 0.18212 0.53135 0.0
Mn27 Mn 0.90167 0.1771 0.42758 0.0
O28 O 0.88194 0.27679 0.40677 0.0
O29 O 0.934 0.19174 0.45535 0.0
O30 O 0.88909 0.23572 0.70651 0.0
O31 O 0.89955 0.30563 0.77018 0.0
O32 O 0.89293 0.11482 0.443 0.0
O33 O 0.88764 0.20664 0.32404 0.0
C34 C 0.87838 0.37978 0.61694 0.0
C35 C 0.83421 0.2607 0.64195 0.0
C36 C 0.94101 0.22668 0.51018 0.0
C37 C 0.88089 0.13416 0.51553 0.0
C38 C 0.8818 0.25171 0.3271 0.0
C39 C 0.89955 0.25978 0.77594 0.0
O40 O 0.88603 0.33731 0.5762 0.0
O41 O 0.86519 0.37993 0.69544 0.0
O42 O 0.18813 0.74953 0.42483 0.0
Mn43 Mn 0.14916 0.7577 0.43501 0.0
O44 O 0.19048 0.78032 0.27912 0.0
Mn45 Mn 0.16271 0.81956 0.30331 0.0
O46 O 0.10883 0.76307 0.44097 0.0
O47 O 0.14717 0.68272 0.46104 0.0
Mn48 Mn 0.12398 0.6902 0.55511 0.0
O49 O 0.15532 0.77462 0.58238 0.0
O50 O 0.09576 0.68793 0.48425 0.0
O51 O 0.14391 0.73779 0.28355 0.0
O52 O 0.13611 0.81039 0.22623 0.0
O53 O 0.14617 0.64655 0.60335 0.0
O54 O 0.12135 0.74217 0.63959 0.0
C55 C 0.15825 0.87952 0.38202 0.0
C56 C 0.2003 0.75602 0.34663 0.0
C57 C 0.09128 0.72998 0.44747 0.0
C58 C 0.15595 0.64803 0.51805 0.0
C59 C 0.13973 0.7696 0.65088 0.0
C60 C 0.13496 0.76479 0.21487 0.0
O61 O 0.15047 0.83673 0.41902 0.0
O62 O 0.17214 0.88063 0.30528 0.0
O63 O 0.84761 0.78153 0.39441 0.0
Mn64 Mn 0.88526 0.75825 0.41845 0.0
O65 O 0.82659 0.71279 0.38928 0.0
Mn66 Mn 0.85344 0.6881 0.32391 0.0
O67 O 0.92437 0.73644 0.42858 0.0
O68 O 0.88858 0.83597 0.44911 0.0
Mn69 Mn 0.91643 0.81358 0.50793 0.0
O70 O 0.87795 0.74514 0.56367 0.0
O71 O 0.94209 0.80834 0.42494 0.0
O72 O 0.89095 0.76891 0.26937 0.0
O73 O 0.86162 0.71803 0.20936 0.0
O74 O 0.91364 0.87019 0.56517 0.0
O75 O 0.91497 0.769 0.61001 0.0
C76 C 0.87606 0.6347 0.37693 0.0
C77 C 0.82663 0.75923 0.39116 0.0
C78 C 0.94386 0.76285 0.41102 0.0
C79 C 0.89308 0.87081 0.51577 0.0
C80 C 0.89459 0.74832 0.62889 0.0
C81 C 0.87904 0.7491 0.19788 0.0
O82 O 0.88066 0.68184 0.39584 0.0
O83 O 0.85688 0.62315 0.32424 0.0
O84 O 0.64705 0.75904 0.92198 0.0
Mn85 Mn 0.64513 0.76218 0.07494 0.0
O86 O 0.61737 0.81517 0.88269 0.0
Mn87 Mn 0.61491 0.84674 0.00364 0.0
O88 O 0.64174 0.76746 0.22636 0.0
O89 O 0.64525 0.68123 0.07998 0.0
Mn90 Mn 0.67535 0.69172 0.13349 0.0
O91 O 0.68411 0.77915 0.09463 0.0
O92 O 0.67306 0.7169 0.25975 0.0
O93 O 0.60561 0.75151 0.06849 0.0
O94 O 0.59046 0.82711 0.08611 0.0
O95 O 0.67503 0.62758 0.13602 0.0
O96 O 0.7005 0.71147 0.05175 0.0
C97 C 0.64579 0.88673 0.05238 0.0
C98 C 0.63297 0.78115 0.85907 0.0
C99 C 0.65643 0.74704 0.2878 0.0
C100 C 0.65322 0.63509 0.09845 0.0
C101 C 0.70414 0.75491 0.07789 0.0
C102 C 0.58783 0.78113 0.0938 0.0
O103 O 0.64414 0.83847 0.06053 0.0
O104 O 0.62614 0.909 0.0191 0.0
O105 O 0.34703 0.73865 0.08332 0.0
Mn106 Mn 0.38594 0.75067 0.06749 0.0
O107 O 0.3302 0.8105 0.06497 0.0
Mn108 Mn 0.35735 0.82622 0.13863 0.0
O109 O 0.42591 0.75652 0.05741 0.0
O110 O 0.3844 0.67304 0.05248 0.0
Mn111 Mn 0.40718 0.66654 0.96062 0.0
O112 O 0.38215 0.761 0.91734 0.0
O113 O 0.43841 0.68539 0.99131 0.0
O114 O 0.38885 0.74258 0.21725 0.0
O115 O 0.3587 0.79591 0.25797 0.0
O116 O 0.40138 0.60403 0.98614 0.0
O117 O 0.39476 0.69053 0.84688 0.0
C118 C 0.38201 0.8779 0.10046 0.0
C119 C 0.32737 0.76486 0.07362 0.0
C120 C 0.44332 0.72699 0.02737 0.0
C121 C 0.38448 0.62425 0.04094 0.0
C122 C 0.38549 0.73356 0.84233 0.0
C123 C 0.37421 0.76234 0.27996 0.0
O124 O 0.38705 0.83052 0.07885 0.0
O125 O 0.36182 0.88977 0.14674 0.0
O126 O 0.68578 0.23599 0.9061 0.0
Mn127 Mn 0.64681 0.24825 0.92628 0.0
O128 O 0.7022 0.30968 0.89698 0.0
Mn129 Mn 0.67282 0.32897 0.8425 0.0
O130 O 0.60748 0.25824 0.93761 0.0
O131 O 0.64717 0.17144 0.94043 0.0
Mn132 Mn 0.61854 0.16299 0.00059 0.0
O133 O 0.64997 0.25219 0.07429 0.0
O134 O 0.59225 0.1829 0.92735 0.0
O135 O 0.64234 0.2416 0.778 0.0
O136 O 0.66573 0.30309 0.72205 0.0
O137 O 0.62898 0.10077 0.98012 0.0
O138 O 0.62315 0.19286 0.12153 0.0
C139 C 0.64915 0.37623 0.90927 0.0
C140 C 0.70499 0.26362 0.89836 0.0
C141 C 0.58909 0.22884 0.92219 0.0
C142 C 0.64874 0.12298 0.94898 0.0
C143 C 0.63809 0.22853 0.1401 0.0
C144 C 0.65173 0.26607 0.70804 0.0
O145 O 0.64644 0.32754 0.92122 0.0
O146 O 0.66692 0.39253 0.8546 0.0
O147 O 0.34579 0.28308 0.9092 0.0
Mn148 Mn 0.38353 0.26226 0.92535 0.0
O149 O 0.32351 0.21739 0.92781 0.0
Mn150 Mn 0.34986 0.18692 0.86632 0.0
O151 O 0.42326 0.24762 0.92843 0.0
O152 O 0.38735 0.33904 0.92523 0.0
Mn153 Mn 0.41549 0.33875 0.9938 0.0
O154 O 0.38118 0.26219 0.0789 0.0
O155 O 0.43959 0.32213 0.90968 0.0
O156 O 0.38505 0.2605 0.77096 0.0
O157 O 0.35502 0.20538 0.73865 0.0
O158 O 0.40361 0.39836 0.01977 0.0
O159 O 0.41594 0.30314 0.10889 0.0
C160 C 0.37368 0.13611 0.92529 0.0
C161 C 0.32436 0.26318 0.91436 0.0
C162 C 0.44206 0.27575 0.90754 0.0
C163 C 0.38404 0.37922 0.97877 0.0
C164 C 0.3979 0.27734 0.13878 0.0
C165 C 0.37129 0.23625 0.71006 0.0
O166 O 0.37938 0.18398 0.92803 0.0
O167 O 0.35235 0.12298 0.8894 0.0
H168 H 0.25218 0.27476 0.56298 0.0
H169 H 0.19744 0.28745 0.78972 0.0
H170 H 0.23013 0.29328 0.91143 0.0
H171 H 0.27476 0.28025 0.9546 0.0
H172 H 0.32938 0.29093 0.72757 0.0
H173 H 0.29664 0.29151 0.60513 0.0
C174 C 0.24743 0.28087 0.63848 0.0
C175 C 0.22237 0.27884 0.66744 0.0
C176 C 0.26643 0.28759 0.70839 0.0
C177 C 0.21656 0.28742 0.76558 0.0
C178 C 0.23531 0.29079 0.83566 0.0
C179 C 0.27945 0.28477 0.87873 0.0
C180 C 0.30455 0.2835 0.85026 0.0
C181 C 0.26038 0.28866 0.80833 0.0
C182 C 0.31025 0.29014 0.7515 0.0
C183 C 0.29148 0.29056 0.68102 0.0
H184 H 0.72282 0.29656 0.73034 0.0
H185 H 0.73744 0.18799 0.95142 0.0
H186 H 0.77825 0.1697 0.87682 0.0
H187 H 0.81232 0.19676 0.76618 0.0
H188 H 0.7964 0.305 0.54584 0.0
H189 H 0.75332 0.31148 0.60249 0.0
C190 C 0.73486 0.26851 0.76193 0.0
C191 C 0.72767 0.24496 0.84854 0.0
C192 C 0.75801 0.25856 0.71891 0.0
C193 C 0.74291 0.20744 0.88642 0.0
C194 C 0.76619 0.19715 0.84372 0.0
C195 C 0.79904 0.22012 0.72823 0.0
C196 C 0.80737 0.25018 0.65148 0.0
C197 C 0.77435 0.22408 0.76242 0.0
C198 C 0.79025 0.28087 0.60352 0.0
C199 C 0.76574 0.28509 0.63696 0.0
H200 H 0.30755 0.80701 0.23206 0.0
H201 H 0.29726 0.68441 0.03583 0.0
H202 H 0.25813 0.66314 0.11898 0.0
H203 H 0.22395 0.68867 0.23175 0.0
H204 H 0.23656 0.80853 0.43231 0.0
H205 H 0.27805 0.82125 0.36458 0.0
C206 C 0.29676 0.77552 0.20741 0.0
C207 C 0.30455 0.74867 0.12492 0.0
C208 C 0.27489 0.76295 0.25706 0.0
C209 C 0.29107 0.70667 0.09674 0.0
C210 C 0.26884 0.69443 0.14473 0.0
C211 C 0.23635 0.71583 0.26369 0.0
C212 C 0.22736 0.74722 0.33795 0.0
C213 C 0.26016 0.72335 0.22307 0.0
C214 C 0.2433 0.78311 0.37722 0.0
C215 C 0.26684 0.79103 0.33703 0.0
H216 H 0.74409 0.8234 0.08976 0.0
H217 H 0.71378 0.6929 0.22374 0.0
H218 H 0.7423 0.69963 0.356 0.0
H219 H 0.78009 0.7309 0.42175 0.0
H220 H 0.82232 0.83769 0.26172 0.0
H221 H 0.78638 0.85213 0.15361 0.0
C222 C 0.74371 0.79692 0.1485 0.0
C223 C 0.72484 0.76038 0.15054 0.0
C224 C 0.76312 0.79625 0.21964 0.0
C225 C 0.72587 0.72465 0.2245 0.0
C226 C 0.74288 0.72747 0.29966 0.0
C227 C 0.78122 0.75857 0.36507 0.0
C228 C 0.80377 0.78329 0.35098 0.0
C229 C 0.76189 0.76218 0.29711 0.0
C230 C 0.805 0.81868 0.2761 0.0
C231 C 0.78456 0.82609 0.21264 0.0
H232 H 0.14126 0.91264 0.5621 0.0
H233 H 0.15097 0.957 0.26404 0.0
H234 H 0.143 0.04224 0.30594 0.0
H235 H 0.14231 0.10634 0.43123 0.0
H236 H 0.13137 0.06484 0.72857 0.0
H237 H 0.12954 0.97759 0.68287 0.0
C238 C 0.14104 0.94083 0.50638 0.0
C239 C 0.14798 0.92848 0.41122 0.0
C240 C 0.13609 0.99088 0.53053 0.0
C241 C 0.14692 0.96549 0.33922 0.0
C242 C 0.14209 0.01458 0.36254 0.0
C243 C 0.13798 0.07845 0.48497 0.0
C244 C 0.13719 0.09179 0.58282 0.0
C245 C 0.13788 0.02814 0.4586 0.0
C246 C 0.13196 0.0552 0.65226 0.0
C247 C 0.13145 1.00511 0.62649 0.0
H248 H 0.89366 0.41352 0.43553 0.0
H249 H 0.88296 0.4595 0.73301 0.0
H250 H 0.88726 0.54512 0.68873 0.0
H251 H 0.88574 0.60814 0.56202 0.0
H252 H 0.89777 0.56509 0.2654 0.0
H253 H 0.90248 0.47862 0.31293 0.0
C254 C 0.89294 0.44218 0.49069 0.0
C255 C 0.8869 0.42972 0.58651 0.0
C256 C 0.89579 0.49257 0.46519 0.0
C257 C 0.88654 0.46765 0.65749 0.0
C258 C 0.88921 0.51709 0.63277 0.0
C259 C 0.89086 0.58023 0.5088 0.0
C260 C 0.89138 0.59284 0.41069 0.0
C261 C 0.89271 0.53024 0.53629 0.0
C262 C 0.89747 0.55609 0.34188 0.0
C263 C 0.89969 0.50641 0.36874 0.0
H264 H 0.89761 0.93833 0.65849 0.0
H265 H 0.85453 0.90698 0.40071 0.0
H266 H 0.83688 0.99107 0.40769 0.0
H267 H 0.84256 0.07719 0.4625 0.0
H268 H 0.892 0.10888 0.70016 0.0
H269 H 0.89744 0.02058 0.72962 0.0
C270 C 0.88415 0.94934 0.60379 0.0
C271 C 0.87809 0.91685 0.52662 0.0
C272 C 0.87515 0.99792 0.60588 0.0
C273 C 0.85995 0.93152 0.45922 0.0
C274 C 0.84989 0.97956 0.46346 0.0
C275 C 0.8532 0.06451 0.52472 0.0
C276 C 0.86764 0.0991 0.57691 0.0
C277 C 0.85842 0.01374 0.53339 0.0
C278 C 0.88092 0.08294 0.65842 0.0
C279 C 0.8847 0.0323 0.67299 0.0
H280 H 0.19449 0.57854 0.51267 0.0
H281 H 0.11656 0.60266 0.4479 0.0
H282 H 0.10758 0.51724 0.4829 0.0
H283 H 0.12094 0.43728 0.53646 0.0
H284 H 0.1988 0.39963 0.51858 0.0
H285 H 0.20947 0.48871 0.51804 0.0
C286 C 0.17587 0.56437 0.50078 0.0
C287 C 0.1561 0.59733 0.48001 0.0
C288 C 0.17095 0.51341 0.51203 0.0
C289 C 0.1321 0.57823 0.46352 0.0
C290 C 0.12676 0.52962 0.48634 0.0
C291 C 0.14036 0.44861 0.53471 0.0
C292 C 0.15906 0.41241 0.53093 0.0
C293 C 0.14592 0.4975 0.5135 0.0
C294 C 0.18412 0.42709 0.52523 0.0
C295 C 0.19009 0.47779 0.52157 0.0
H296 H 0.62825 0.59526 0.93758 0.0
H297 H 0.64629 0.56851 0.23745 0.0
H298 H 0.64213 0.47997 0.21295 0.0
H299 H 0.64362 0.41002 0.09623 0.0
H300 H 0.61954 0.43493 0.80286 0.0
H301 H 0.61463 0.52313 0.83577 0.0
C302 C 0.62978 0.57043 0.99885 0.0
C303 C 0.63809 0.58896 0.08894 0.0
C304 C 0.62665 0.51856 0.98518 0.0
C305 C 0.64009 0.55552 0.16699 0.0
C306 C 0.63798 0.50448 0.15299 0.0
C307 C 0.63566 0.43405 0.04135 0.0
C308 C 0.63221 0.41555 0.94681 0.0
C309 C 0.63267 0.4853 0.06102 0.0
C310 C 0.62225 0.44793 0.87654 0.0
C311 C 0.61993 0.49887 0.89474 0.0
H312 H 0.39522 0.91557 0.92245 0.0
H313 H 0.40217 0.94021 0.22964 0.0
H314 H 0.40467 0.02913 0.2042 0.0
H315 H 0.39324 0.0998 0.09696 0.0
H316 H 0.39129 0.07542 0.78854 0.0
H317 H 0.39912 0.98746 0.81162 0.0
C318 C 0.39899 0.93999 0.98323 0.0
C319 C 0.39821 0.92089 0.07801 0.0
C320 C 0.40057 0.9918 0.96805 0.0
C321 C 0.40278 0.95369 0.15578 0.0
C322 C 0.40374 1.00494 0.14148 0.0
C323 C 0.39615 0.07589 0.03464 0.0
C324 C 0.39149 0.09448 0.94107 0.0
C325 C 0.40101 0.02468 0.04831 0.0
C326 C 0.39493 0.06232 0.86142 0.0
C327 C 0.39903 0.01159 0.87455 0.0
H328 H 0.36074 0.41843 0.12993 0.0
H329 H 0.36159 0.42021 0.81827 0.0
H330 H 0.34972 0.50779 0.81988 0.0
H331 H 0.35457 0.586 0.90796 0.0
H332 H 0.3696 0.58401 0.21422 0.0
H333 H 0.35849 0.49637 0.21998 0.0
C334 C 0.35684 0.43749 0.06239 0.0
C335 C 0.36239 0.41312 0.97417 0.0
C336 C 0.35357 0.48913 0.06454 0.0
C337 C 0.35738 0.43784 0.88703 0.0
C338 C 0.35122 0.48844 0.88833 0.0
C339 C 0.35393 0.56688 0.977 0.0
C340 C 0.36318 0.59139 0.06044 0.0
C341 C 0.35145 0.51507 0.97645 0.0
C342 C 0.3625 0.5664 0.14919 0.0
C343 C 0.35682 0.51576 0.15165 0.0
H344 H 0.67414 0.05574 0.83535 0.0
H345 H 0.67363 0.12396 0.11733 0.0
H346 H 0.67855 0.04347 0.19347 0.0
H347 H 0.66734 0.95427 0.17492 0.0
H348 H 0.67483 0.88579 0.89455 0.0
H349 H 0.68418 0.96565 0.82244 0.0
C350 C 0.67717 0.05363 0.91297 0.0
C351 C 0.67198 0.09558 0.97069 0.0
C352 C 0.68045 0.00676 0.9566 0.0
C353 C 0.6769 0.09213 0.07087 0.0
C354 C 0.67905 0.04565 0.11507 0.0
C355 C 0.67298 0.95602 0.09955 0.0
C356 C 0.66922 0.91439 0.03944 0.0
C357 C 0.67864 1.00245 0.05837 0.0
C358 C 0.67713 0.91736 0.94241 0.0
C359 C 0.68189 0.96349 0.90033 0.0
H360 H 0.15171 0.31346 0.22987 0.0
H361 H 0.13321 0.15979 0.26649 0.0
H362 H 0.13264 0.14832 0.08992 0.0
H363 H 0.136 0.18308 0.92666 0.0
H364 H 0.154 0.33686 0.88854 0.0
H365 H 0.15543 0.34828 0.06539 0.0
C366 C 0.14833 0.27718 0.19867 0.0
C367 C 0.1433 0.23698 0.25995 0.0
C368 C 0.147 0.27167 0.09783 0.0
C369 C 0.13803 0.19052 0.22008 0.0
C370 C 0.1372 0.18436 0.11954 0.0
C371 C 0.13957 0.21937 0.95758 0.0
C372 C 0.14413 0.25955 0.89597 0.0
C373 C 0.14114 0.22491 0.05811 0.0
C374 C 0.14946 0.30612 0.93538 0.0
C375 C 0.15081 0.31222 0.03603 0.0
H376 H 0.91969 0.27345 0.21378 0.0
H377 H 0.83957 0.2703 0.22335 0.0
H378 H 0.83797 0.26066 0.04644 0.0
H379 H 0.85995 0.24646 0.89094 0.0
H380 H 0.94021 0.24464 0.88574 0.0
H381 H 0.9414 0.25862 0.06084 0.0
C382 C 0.90187 0.273 0.17632 0.0
C383 C 0.87977 0.27406 0.23095 0.0
C384 C 0.90126 0.2626 0.07675 0.0
C385 C 0.85678 0.27151 0.18244 0.0
C386 C 0.85594 0.26417 0.08181 0.0
C387 C 0.87764 0.24675 0.92916 0.0
C388 C 0.90003 0.24257 0.87626 0.0
C389 C 0.87811 0.25754 0.02898 0.0
C390 C 0.92284 0.24543 0.92567 0.0
C391 C 0.92348 0.25512 0.0251 0.0
H392 H 0.11255 0.81437 0.07227 0.0
H393 H 0.15763 0.68451 0.12452 0.0
H394 H 0.16727 0.67951 0.95036 0.0
H395 H 0.1638 0.71514 0.78423 0.0
H396 H 0.12269 0.85074 0.74218 0.0
H397 H 0.1125 0.85341 0.91462 0.0
C398 C 0.12428 0.78442 0.0457 0.0
C399 C 0.13421 0.74964 0.11154 0.0
C400 C 0.13173 0.78489 0.94879 0.0
C401 C 0.14928 0.71111 0.07555 0.0
C402 C 0.15536 0.70917 0.97647 0.0
C403 C 0.15371 0.74653 0.8142 0.0
C404 C 0.14463 0.78369 0.75149 0.0
C405 C 0.14728 0.74681 0.91308 0.0
C406 C 0.13063 0.82297 0.78977 0.0
C407 C 0.1242 0.8236 0.88763 0.0
H408 H 0.89111 0.81745 0.76605 0.0
H409 H 0.88671 0.66 0.71927 0.0
H410 H 0.88412 0.64679 0.89513 0.0
H411 H 0.8839 0.68043 0.06033 0.0
H412 H 0.88727 0.83799 0.10829 0.0
H413 H 0.8901 0.85128 0.93234 0.0
C414 C 0.88927 0.78034 0.79487 0.0
C415 C 0.8889 0.73963 0.73111 0.0
C416 C 0.88816 0.77331 0.89524 0.0
C417 C 0.88661 0.69166 0.76767 0.0
C418 C 0.88544 0.68423 0.86781 0.0
C419 C 0.8856 0.71771 0.03211 0.0
C420 C 0.88571 0.75833 0.09643 0.0
C421 C 0.88651 0.72478 0.93193 0.0
C422 C 0.88779 0.80635 0.05989 0.0
C423 C 0.889 0.81382 0.95961 0.0
H424 H 0.61559 0.74864 0.40815 0.0
H425 H 0.69532 0.76667 0.40541 0.0
H426 H 0.69589 0.77451 0.58181 0.0
H427 H 0.67371 0.77655 0.73912 0.0
H428 H 0.59398 0.75888 0.74249 0.0
H429 H 0.59345 0.74924 0.56607 0.0
C430 C 0.63296 0.75515 0.44631 0.0
C431 C 0.65533 0.75796 0.39347 0.0
C432 C 0.63325 0.75853 0.54881 0.0
C433 C 0.67782 0.76492 0.44429 0.0
C434 C 0.6782 0.76906 0.54542 0.0
C435 C 0.65633 0.76967 0.70123 0.0
C436 C 0.63396 0.76785 0.75416 0.0
C437 C 0.65607 0.76555 0.59887 0.0
C438 C 0.61149 0.76009 0.70355 0.0
C439 C 0.61114 0.75496 0.60243 0.0
H440 H 0.3488 0.71759 0.7129 0.0
H441 H 0.41956 0.78905 0.75457 0.0
H442 H 0.42444 0.79809 0.57933 0.0
H443 H 0.40923 0.78232 0.41369 0.0
H444 H 0.33733 0.71547 0.3719 0.0
H445 H 0.33209 0.70738 0.54738 0.0
C446 C 0.36474 0.73686 0.68314 0.0
C447 C 0.38348 0.75401 0.74529 0.0
C448 C 0.36755 0.74107 0.58254 0.0
C449 C 0.40454 0.77739 0.70716 0.0
C450 C 0.40756 0.78154 0.60722 0.0
C451 C 0.39285 0.76464 0.44354 0.0
C452 C 0.37424 0.74721 0.38124 0.0
C453 C 0.38948 0.76242 0.54419 0.0
C454 C 0.35235 0.72688 0.41957 0.0
C455 C 0.34916 0.72317 0.51952 0.0
H456 H 0.62617 0.17548 0.2996 0.0
H457 H 0.6585 0.31386 0.20852 0.0
H458 H 0.66493 0.33761 0.37716 0.0
H459 H 0.66175 0.31905 0.54829 0.0
H460 H 0.62984 0.18085 0.64206 0.0
H461 H 0.62264 0.15711 0.47298 0.0
C462 C 0.63451 0.21094 0.31664 0.0
C463 C 0.64186 0.24287 0.24185 0.0
C464 C 0.63821 0.22433 0.41355 0.0
C465 C 0.65284 0.2885 0.26487 0.0
C466 C 0.65646 0.30218 0.36113 0.0
C467 C 0.65323 0.28363 0.53212 0.0
C468 C 0.64642 0.25163 0.60738 0.0
C469 C 0.64929 0.2703 0.43571 0.0
C470 C 0.63519 0.20615 0.58516 0.0
C471 C 0.63114 0.19254 0.48872 0.0
H472 H 0.35821 0.24528 0.25125 0.0
H473 H 0.43502 0.29115 0.27063 0.0
H474 H 0.43366 0.28573 0.44605 0.0
H475 H 0.41086 0.26835 0.59779 0.0
H476 H 0.33435 0.22085 0.57868 0.0
H477 H 0.33552 0.22689 0.40306 0.0
C478 C 0.37472 0.25353 0.29367 0.0
C479 C 0.39664 0.26854 0.2462 0.0
C480 C 0.37392 0.25055 0.39634 0.0
C481 C 0.41774 0.27952 0.30381 0.0
C482 C 0.41705 0.2766 0.40501 0.0
C483 C 0.39441 0.25975 0.55527 0.0
C484 C 0.37261 0.2442 0.60261 0.0
C485 C 0.39522 0.26249 0.45262 0.0
C486 C 0.35155 0.23275 0.5452 0.0
C487 C 0.35213 0.23609 0.44402 0.0
H488 H 0.05856 0.20166 0.514 0.0
H489 H 0.05412 0.3423 0.66066 0.0
H490 H 1.00866 0.33852 0.66042 0.0
H491 H 0.96953 0.2986 0.60424 0.0
H492 H 0.97526 0.15793 0.45524 0.0
H493 H 0.01993 0.15872 0.47106 0.0
C494 C 0.04765 0.23049 0.54903 0.0
C495 C 0.05976 0.27176 0.58835 0.0
C496 C 0.02135 0.22884 0.54631 0.0
C497 C 0.04522 0.30968 0.63086 0.0
C498 C 0.01916 0.30788 0.62984 0.0
C499 C 0.98053 0.26806 0.57591 0.0
C500 C 0.96859 0.22892 0.52719 0.0
C501 C 1.00687 0.26826 0.58522 0.0
C502 C 0.98349 0.18942 0.49174 0.0
C503 C 1.00933 0.1894 0.50106 0.0
H504 H 0.98388 0.81084 0.34362 0.0
H505 H 0.96223 0.67276 0.47396 0.0
H506 H 1.00639 0.65048 0.49477 0.0
H507 H 0.05068 0.67291 0.48447 0.0
H508 H 0.07186 0.81373 0.36315 0.0
H509 H 0.02791 0.83283 0.33186 0.0
C510 C 0.98876 0.77535 0.37507 0.0
C511 C 0.96971 0.74315 0.406 0.0
C512 C 1.014 0.76383 0.38978 0.0
C513 C 0.97641 0.69764 0.44744 0.0
C514 C 1.00166 0.68532 0.46054 0.0
C515 C 0.04584 0.70773 0.45034 0.0
C516 C 0.06474 0.74184 0.42557 0.0
C517 C 0.02055 0.71853 0.43326 0.0
C518 C 0.05785 0.78683 0.38262 0.0
C519 C 0.03272 0.79766 0.36458 0.0
H520 H 0.55983 0.72539 0.97302 0.0
H521 H 0.55732 0.80731 0.24077 0.0
H522 H 0.51174 0.80259 0.24265 0.0
H523 H 0.47194 0.77713 0.1639 0.0
H524 H 0.47572 0.70155 0.88803 0.0
H525 H 0.52083 0.70224 0.89321 0.0
C526 C 0.5493 0.74048 0.03348 0.0
C527 C 0.5619 0.76494 0.10846 0.0
C528 C 0.52306 0.73997 0.03135 0.0
C529 C 0.54797 0.78666 0.184 0.0
C530 C 0.52188 0.78479 0.18417 0.0
C531 C 0.48268 0.76191 0.10425 0.0
C532 C 0.4703 0.73927 0.02612 0.0
C533 C 0.50909 0.76237 0.10714 0.0
C534 C 0.48466 0.71917 0.94959 0.0
C535 C 0.51058 0.71908 0.95252 0.0
H536 H 0.48355 0.33055 0.93211 0.0
H537 H 0.45961 0.18019 0.88124 0.0
H538 H 0.50347 0.1533 0.87795 0.0
H539 H 0.54799 0.17325 0.88822 0.0
H540 H 0.57119 0.32358 0.94503 0.0
H541 H 0.52749 0.35009 0.94619 0.0
C542 C 0.48768 0.29176 0.91916 0.0
C543 C 0.46817 0.25741 0.90487 0.0
C544 C 0.51265 0.27687 0.91812 0.0
C545 C 0.47418 0.20735 0.89123 0.0
C546 C 0.49922 0.19212 0.88936 0.0
C547 C 0.54362 0.212 0.90023 0.0
C548 C 0.56297 0.24661 0.91548 0.0
C549 C 0.51853 0.22671 0.90216 0.0
C550 C 0.55679 0.29641 0.93167 0.0
C551 C 0.53182 0.31144 0.93292 0.0
loop_
_geom_bond_atom_site_label_1
_geom_bond_atom_site_label_2
_geom_bond_distance
_geom_bond_site_symmetry_2
_ccdc_geom_bond_type
O0 Mn1 2.163 . S
O0 C14 1.244 . S
Mn1 O0 2.163 . S
Mn1 O4 2.160 . S
Mn1 O5 2.221 . S
Mn1 O7 2.163 . S
Mn1 O9 2.160 . S
Mn1 O19 2.221 . S
O2 Mn3 2.087 . S
O2 C14 1.256 . S
Mn3 O2 2.087 . S
Mn3 O10 2.089 . S
Mn3 O19 2.290 . S
Mn3 O20 2.251 . S
O4 Mn1 2.160 . S
O4 C15 1.239 . S
O5 Mn1 2.221 . S
O5 Mn6 2.290 . S
O5 C16 1.278 . S
Mn6 O5 2.290 . S
Mn6 O8 2.089 . S
Mn6 O11 2.251 . S
Mn6 O12 2.087 . S
O7 Mn1 2.163 . S
O7 C17 1.244 . S
O8 Mn6 2.089 . S
O8 C15 1.256 . S
O9 Mn1 2.160 . S
O9 C18 1.239 . S
O10 Mn3 2.089 . S
O10 C18 1.256 . S
O11 Mn6 2.251 . S
O11 C16 1.241 . S
O12 Mn6 2.087 . S
O12 C17 1.256 . S
C13 O19 1.278 . S
C13 O20 1.241 . S
C14 O0 1.244 . S
C14 O2 1.256 . S
C15 O4 1.239 . S
C15 O8 1.256 . S
C16 O5 1.278 . S
C16 O11 1.241 . S
C17 O7 1.244 . S
C17 O12 1.256 . S
C18 O9 1.239 . S
C18 O10 1.256 . S
O19 Mn1 2.221 . S
O19 Mn3 2.290 . S
O19 C13 1.278 . S
O20 Mn3 2.251 . S
O20 C13 1.241 . S
O21 Mn22 2.163 . S
O21 C35 1.244 . S
Mn22 O21 2.163 . S
Mn22 O25 2.160 . S
Mn22 O26 2.221 . S
Mn22 O28 2.163 . S
Mn22 O30 2.160 . S
Mn22 O40 2.221 . S
O23 Mn24 2.087 . S
O23 C35 1.256 . S
Mn24 O23 2.087 . S
Mn24 O31 2.089 . S
Mn24 O40 2.290 . S
Mn24 O41 2.251 . S
O25 Mn22 2.160 . S
O25 C36 1.239 . S
O26 Mn22 2.221 . S
O26 Mn27 2.290 . S
O26 C37 1.278 . S
Mn27 O26 2.290 . S
Mn27 O29 2.089 . S
Mn27 O32 2.251 . S
Mn27 O33 2.087 . S
O28 Mn22 2.163 . S
O28 C38 1.244 . S
O29 Mn27 2.089 . S
O29 C36 1.256 . S
O30 Mn22 2.160 . S
O30 C39 1.239 . S
O31 Mn24 2.089 . S
O31 C39 1.256 . S
O32 Mn27 2.251 . S
O32 C37 1.241 . S
O33 Mn27 2.087 . S
O33 C38 1.256 . S
C34 O40 1.278 . S
C34 O41 1.241 . S
C35 O21 1.244 . S
C35 O23 1.256 . S
C36 O25 1.239 . S
C36 O29 1.256 . S
C37 O26 1.278 . S
C37 O32 1.241 . S
C38 O28 1.244 . S
C38 O33 1.256 . S
C39 O30 1.239 . S
C39 O31 1.256 . S
O40 Mn22 2.221 . S
O40 Mn24 2.290 . S
O40 C34 1.278 . S
O41 Mn24 2.251 . S
O41 C34 1.241 . S
O42 Mn43 2.163 . S
O42 C56 1.244 . S
Mn43 O42 2.163 . S
Mn43 O46 2.160 . S
Mn43 O47 2.221 . S
Mn43 O49 2.163 . S
Mn43 O51 2.160 . S
Mn43 O61 2.221 . S
O44 Mn45 2.087 . S
O44 C56 1.256 . S
Mn45 O44 2.087 . S
Mn45 O52 2.089 . S
Mn45 O61 2.290 . S
Mn45 O62 2.251 . S
O46 Mn43 2.160 . S
O46 C57 1.239 . S
O47 Mn43 2.221 . S
O47 Mn48 2.290 . S
O47 C58 1.278 . S
Mn48 O47 2.290 . S
Mn48 O50 2.089 . S
Mn48 O53 2.251 . S
Mn48 O54 2.087 . S
O49 Mn43 2.163 . S
O49 C59 1.244 . S
O50 Mn48 2.089 . S
O50 C57 1.256 . S
O51 Mn43 2.160 . S
O51 C60 1.239 . S
O52 Mn45 2.089 . S
O52 C60 1.256 . S
O53 Mn48 2.251 . S
O53 C58 1.241 . S
O54 Mn48 2.087 . S
O54 C59 1.256 . S
C55 O61 1.278 . S
C55 O62 1.241 . S
C56 O42 1.244 . S
C56 O44 1.256 . S
C57 O46 1.239 . S
C57 O50 1.256 . S
C58 O47 1.278 . S
C58 O53 1.241 . S
C59 O49 1.244 . S
C59 O54 1.256 . S
C60 O51 1.239 . S
C60 O52 1.256 . S
O61 Mn43 2.221 . S
O61 Mn45 2.290 . S
O61 C55 1.278 . S
O62 Mn45 2.251 . S
O62 C55 1.241 . S
O63 Mn64 2.163 . S
O63 C77 1.244 . S
Mn64 O63 2.163 . S
Mn64 O67 2.160 . S
Mn64 O68 2.221 . S
Mn64 O70 2.163 . S
Mn64 O72 2.160 . S
Mn64 O82 2.221 . S
O65 Mn66 2.087 . S
O65 C77 1.256 . S
Mn66 O65 2.087 . S
Mn66 O73 2.089 . S
Mn66 O82 2.290 . S
Mn66 O83 2.251 . S
O67 Mn64 2.160 . S
O67 C78 1.239 . S
O68 Mn64 2.221 . S
O68 Mn69 2.290 . S
O68 C79 1.278 . S
Mn69 O68 2.290 . S
Mn69 O71 2.089 . S
Mn69 O74 2.251 . S
Mn69 O75 2.087 . S
O70 Mn64 2.163 . S
O70 C80 1.244 . S
O71 Mn69 2.089 . S
O71 C78 1.256 . S
O72 Mn64 2.160 . S
O72 C81 1.239 . S
O73 Mn66 2.089 . S
O73 C81 1.256 . S
O74 Mn69 2.251 . S
O74 C79 1.241 . S
O75 Mn69 2.087 . S
O75 C80 1.256 . S
C76 O82 1.278 . S
C76 O83 1.241 . S
C77 O63 1.244 . S
C77 O65 1.256 . S
C78 O67 1.239 . S
C78 O71 1.256 . S
C79 O68 1.278 . S
C79 O74 1.241 . S
C80 O70 1.244 . S
C80 O75 1.256 . S
C81 O72 1.239 . S
C81 O73 1.256 . S
O82 Mn64 2.221 . S
O82 Mn66 2.290 . S
O82 C76 1.278 . S
O83 Mn66 2.251 . S
O83 C76 1.241 . S
O84 Mn85 2.163 1_556 S
O84 C98 1.244 . S
Mn85 O84 2.163 1_554 S
Mn85 O88 2.160 . S
Mn85 O89 2.221 . S
Mn85 O91 2.163 . S
Mn85 O93 2.160 . S
Mn85 O103 2.221 . S
O86 Mn87 2.087 . S
O86 C98 1.256 . S
Mn87 O86 2.087 . S
Mn87 O94 2.089 . S
Mn87 O103 2.290 1_556 S
Mn87 O104 2.251 . S
O88 Mn85 2.160 . S
O88 C99 1.239 . S
O89 Mn85 2.221 . S
O89 Mn90 2.290 . S
O89 C100 1.278 . S
Mn90 O89 2.290 . S
Mn90 O92 2.089 . S
Mn90 O95 2.251 . S
Mn90 O96 2.087 . S
O91 Mn85 2.163 . S
O91 C101 1.244 . S
O92 Mn90 2.089 . S
O92 C99 1.256 . S
O93 Mn85 2.160 . S
O93 C102 1.239 . S
O94 Mn87 2.089 . S
O94 C102 1.256 1_556 S
O95 Mn90 2.251 . S
O95 C100 1.241 . S
O96 Mn90 2.087 . S
O96 C101 1.256 . S
C97 O103 1.278 . S
C97 O104 1.241 1_554 S
C98 O84 1.244 . S
C98 O86 1.256 . S
C99 O88 1.239 . S
C99 O92 1.256 . S
C100 O89 1.278 . S
C100 O95 1.241 . S
C101 O91 1.244 . S
C101 O96 1.256 . S
C102 O93 1.239 . S
C102 O94 1.256 1_554 S
O103 Mn85 2.221 . S
O103 Mn87 2.290 1_554 S
O103 C97 1.278 . S
O104 Mn87 2.251 . S
O104 C97 1.241 1_556 S
O105 Mn106 2.163 . S
O105 C119 1.244 . S
Mn106 O105 2.163 . S
Mn106 O109 2.160 . S
Mn106 O110 2.221 . S
Mn106 O112 2.163 1_554 S
Mn106 O114 2.160 . S
Mn106 O124 2.221 . S
O107 Mn108 2.087 . S
O107 C119 1.256 . S
Mn108 O107 2.087 . S
Mn108 O115 2.089 . S
Mn108 O124 2.290 . S
Mn108 O125 2.251 . S
O109 Mn106 2.160 . S
O109 C120 1.239 . S
O110 Mn106 2.221 . S
O110 Mn111 2.290 1_554 S
O110 C121 1.278 . S
Mn111 O110 2.290 1_556 S
Mn111 O113 2.089 . S
Mn111 O116 2.251 . S
Mn111 O117 2.087 . S
O112 Mn106 2.163 1_556 S
O112 C122 1.244 . S
O113 Mn111 2.089 . S
O113 C120 1.256 1_556 S
O114 Mn106 2.160 . S
O114 C123 1.239 . S
O115 Mn108 2.089 . S
O115 C123 1.256 . S
O116 Mn111 2.251 . S
O116 C121 1.241 1_556 S
O117 Mn111 2.087 . S
O117 C122 1.256 . S
C118 O124 1.278 . S
C118 O125 1.241 . S
C119 O105 1.244 . S
C119 O107 1.256 . S
C120 O109 1.239 . S
C120 O113 1.256 1_554 S
C121 O110 1.278 . S
C121 O116 1.241 1_554 S
C122 O112 1.244 . S
C122 O117 1.256 . S
C123 O114 1.239 . S
C123 O115 1.256 . S
O124 Mn106 2.221 . S
O124 Mn108 2.290 . S
O124 C118 1.278 . S
O125 Mn108 2.251 . S
O125 C118 1.241 . S
O126 Mn127 2.163 . S
O126 C140 1.244 . S
Mn127 O126 2.163 . S
Mn127 O130 2.160 . S
Mn127 O131 2.221 . S
Mn127 O133 2.163 1_556 S
Mn127 O135 2.160 . S
Mn127 O145 2.221 . S
O128 Mn129 2.087 . S
O128 C140 1.256 . S
Mn129 O128 2.087 . S
Mn129 O136 2.089 . S
Mn129 O145 2.290 . S
Mn129 O146 2.251 . S
O130 Mn127 2.160 . S
O130 C141 1.239 . S
O131 Mn127 2.221 . S
O131 Mn132 2.290 1_556 S
O131 C142 1.278 . S
Mn132 O131 2.290 1_554 S
Mn132 O134 2.089 . S
Mn132 O137 2.251 . S
Mn132 O138 2.087 . S
O133 Mn127 2.163 1_554 S
O133 C143 1.244 . S
O134 Mn132 2.089 . S
O134 C141 1.256 1_554 S
O135 Mn127 2.160 . S
O135 C144 1.239 . S
O136 Mn129 2.089 . S
O136 C144 1.256 . S
O137 Mn132 2.251 . S
O137 C142 1.241 1_554 S
O138 Mn132 2.087 . S
O138 C143 1.256 . S
C139 O145 1.278 . S
C139 O146 1.241 . S
C140 O126 1.244 . S
C140 O128 1.256 . S
C141 O130 1.239 . S
C141 O134 1.256 1_556 S
C142 O131 1.278 . S
C142 O137 1.241 1_556 S
C143 O133 1.244 . S
C143 O138 1.256 . S
C144 O135 1.239 . S
C144 O136 1.256 . S
O145 Mn127 2.221 . S
O145 Mn129 2.290 . S
O145 C139 1.278 . S
O146 Mn129 2.251 . S
O146 C139 1.241 . S
O147 Mn148 2.163 . S
O147 C161 1.244 . S
Mn148 O147 2.163 . S
Mn148 O151 2.160 . S
Mn148 O152 2.221 . S
Mn148 O154 2.163 1_556 S
Mn148 O156 2.160 . S
Mn148 O166 2.221 . S
O149 Mn150 2.087 . S
O149 C161 1.256 . S
Mn150 O149 2.087 . S
Mn150 O157 2.089 . S
Mn150 O166 2.290 . S
Mn150 O167 2.251 . S
O151 Mn148 2.160 . S
O151 C162 1.239 . S
O152 Mn148 2.221 . S
O152 Mn153 2.290 1_556 S
O152 C163 1.278 . S
Mn153 O152 2.290 1_554 S
Mn153 O155 2.089 . S
Mn153 O158 2.251 . S
Mn153 O159 2.087 . S
O154 Mn148 2.163 1_554 S
O154 C164 1.244 . S
O155 Mn153 2.089 . S
O155 C162 1.256 1_554 S
O156 Mn148 2.160 . S
O156 C165 1.239 . S
O157 Mn150 2.089 . S
O157 C165 1.256 . S
O158 Mn153 2.251 . S
O158 C163 1.241 1_554 S
O159 Mn153 2.087 . S
O159 C164 1.256 . S
C160 O166 1.278 . S
C160 O167 1.241 . S
C161 O147 1.244 . S
C161 O149 1.256 . S
C162 O151 1.239 . S
C162 O155 1.256 1_556 S
C163 O152 1.278 . S
C163 O158 1.241 1_556 S
C164 O154 1.244 . S
C164 O159 1.256 . S
C165 O156 1.239 . S
C165 O157 1.256 . S
O166 Mn148 2.221 . S
O166 Mn150 2.290 . S
O166 C160 1.278 . S
O167 Mn150 2.251 . S
O167 C160 1.241 . S
H168 C174 0.930 . S
H169 C177 0.930 . S
H170 C178 0.930 . S
H171 C179 0.930 . S
H172 C182 0.930 . S
H173 C183 0.930 . S
C174 H168 0.930 . S
C174 C175 1.355 . S
C174 C176 1.415 . S
C175 C174 1.355 . S
C175 C177 1.419 . S
C176 C174 1.415 . S
C176 C181 1.425 . S
C176 C183 1.409 . S
C177 H169 0.930 . S
C177 C175 1.419 . S
C177 C178 1.362 . S
C178 H170 0.930 . S
C178 C177 1.362 . S
C178 C181 1.409 . S
C179 H171 0.930 . S
C179 C180 1.355 . S
C179 C181 1.415 . S
C180 C179 1.355 . S
C180 C182 1.419 . S
C181 C176 1.425 . S
C181 C178 1.409 . S
C181 C179 1.415 . S
C182 H172 0.930 . S
C182 C180 1.419 . S
C182 C183 1.362 . S
C183 H173 0.930 . S
C183 C176 1.409 . S
C183 C182 1.362 . S
H184 C190 0.930 . S
H185 C193 0.930 . S
H186 C194 0.930 . S
H187 C195 0.930 . S
H188 C198 0.930 . S
H189 C199 0.930 . S
C190 H184 0.930 . S
C190 C191 1.355 . S
C190 C192 1.415 . S
C191 C190 1.355 . S
C191 C193 1.419 . S
C192 C190 1.415 . S
C192 C197 1.425 . S
C192 C199 1.409 . S
C193 H185 0.930 . S
C193 C191 1.419 . S
C193 C194 1.362 . S
C194 H186 0.930 . S
C194 C193 1.362 . S
C194 C197 1.409 . S
C195 H187 0.930 . S
C195 C196 1.355 . S
C195 C197 1.415 . S
C196 C195 1.355 . S
C196 C198 1.419 . S
C197 C192 1.425 . S
C197 C194 1.409 . S
C197 C195 1.415 . S
C198 H188 0.930 . S
C198 C196 1.419 . S
C198 C199 1.362 . S
C199 H189 0.930 . S
C199 C192 1.409 . S
C199 C198 1.362 . S
H200 C206 0.930 . S
H201 C209 0.930 . S
H202 C210 0.930 . S
H203 C211 0.930 . S
H204 C214 0.930 . S
H205 C215 0.930 . S
C206 H200 0.930 . S
C206 C207 1.355 . S
C206 C208 1.415 . S
C207 C206 1.355 . S
C207 C209 1.419 . S
C208 C206 1.415 . S
C208 C213 1.425 . S
C208 C215 1.409 . S
C209 H201 0.930 . S
C209 C207 1.419 . S
C209 C210 1.362 . S
C210 H202 0.930 . S
C210 C209 1.362 . S
C210 C213 1.409 . S
C211 H203 0.930 . S
C211 C212 1.355 . S
C211 C213 1.415 . S
C212 C211 1.355 . S
C212 C214 1.419 . S
C213 C208 1.425 . S
C213 C210 1.409 . S
C213 C211 1.415 . S
C214 H204 0.930 . S
C214 C212 1.419 . S
C214 C215 1.362 . S
C215 H205 0.930 . S
C215 C208 1.409 . S
C215 C214 1.362 . S
H216 C222 0.930 . S
H217 C225 0.930 . S
H218 C226 0.930 . S
H219 C227 0.930 . S
H220 C230 0.930 . S
H221 C231 0.930 . S
C222 H216 0.930 . S
C222 C223 1.355 . S
C222 C224 1.415 . S
C223 C222 1.355 . S
C223 C225 1.419 . S
C224 C222 1.415 . S
C224 C229 1.425 . S
C224 C231 1.409 . S
C225 H217 0.930 . S
C225 C223 1.419 . S
C225 C226 1.362 . S
C226 H218 0.930 . S
C226 C225 1.362 . S
C226 C229 1.409 . S
C227 H219 0.930 . S
C227 C228 1.355 . S
C227 C229 1.415 . S
C228 C227 1.355 . S
C228 C230 1.419 . S
C229 C224 1.425 . S
C229 C226 1.409 . S
C229 C227 1.415 . S
C230 H220 0.930 . S
C230 C228 1.419 . S
C230 C231 1.362 . S
C231 H221 0.930 . S
C231 C224 1.409 . S
C231 C230 1.362 . S
H232 C238 0.930 . S
H233 C241 0.930 . S
H234 C242 0.930 . S
H235 C243 0.930 . S
H236 C246 0.930 . S
H237 C247 0.930 . S
C238 H232 0.930 . S
C238 C239 1.355 . S
C238 C240 1.415 . S
C239 C238 1.355 . S
C239 C241 1.419 . S
C240 C238 1.415 . S
C240 C245 1.425 1_565 S
C240 C247 1.409 1_565 S
C241 H233 0.930 . S
C241 C239 1.419 . S
C241 C242 1.362 . S
C242 H234 0.930 . S
C242 C241 1.362 . S
C242 C245 1.409 1_565 S
C243 H235 0.930 . S
C243 C244 1.355 . S
C243 C245 1.415 . S
C244 C243 1.355 . S
C244 C246 1.419 . S
C245 C240 1.425 1_545 S
C245 C242 1.409 1_545 S
C245 C243 1.415 . S
C246 H236 0.930 . S
C246 C244 1.419 . S
C246 C247 1.362 . S
C247 H237 0.930 . S
C247 C240 1.409 1_545 S
C247 C246 1.362 . S
H248 C254 0.930 . S
H249 C257 0.930 . S
H250 C258 0.930 . S
H251 C259 0.930 . S
H252 C262 0.930 . S
H253 C263 0.930 . S
C254 H248 0.930 . S
C254 C255 1.355 . S
C254 C256 1.415 . S
C255 C254 1.355 . S
C255 C257 1.419 . S
C256 C254 1.415 . S
C256 C261 1.425 . S
C256 C263 1.409 . S
C257 H249 0.930 . S
C257 C255 1.419 . S
C257 C258 1.362 . S
C258 H250 0.930 . S
C258 C257 1.362 . S
C258 C261 1.409 . S
C259 H251 0.930 . S
C259 C260 1.355 . S
C259 C261 1.415 . S
C260 C259 1.355 . S
C260 C262 1.419 . S
C261 C256 1.425 . S
C261 C258 1.409 . S
C261 C259 1.415 . S
C262 H252 0.930 . S
C262 C260 1.419 . S
C262 C263 1.362 . S
C263 H253 0.930 . S
C263 C256 1.409 . S
C263 C262 1.362 . S
H264 C270 0.930 . S
H265 C273 0.930 . S
H266 C274 0.930 1_545 S
H267 C275 0.930 . S
H268 C278 0.930 . S
H269 C279 0.930 1_565 S
C270 H264 0.930 . S
C270 C271 1.355 . S
C270 C272 1.415 . S
C271 C270 1.355 . S
C271 C273 1.419 . S
C272 C270 1.415 . S
C272 C277 1.425 1_565 S
C272 C279 1.409 1_565 S
C273 H265 0.930 . S
C273 C271 1.419 . S
C273 C274 1.362 . S
C274 H266 0.930 1_565 S
C274 C273 1.362 . S
C274 C277 1.409 1_565 S
C275 H267 0.930 . S
C275 C276 1.355 . S
C275 C277 1.415 . S
C276 C275 1.355 . S
C276 C278 1.419 . S
C277 C272 1.425 1_545 S
C277 C274 1.409 1_545 S
C277 C275 1.415 . S
C278 H268 0.930 . S
C278 C276 1.419 . S
C278 C279 1.362 . S
C279 H269 0.930 1_545 S
C279 C272 1.409 1_545 S
C279 C278 1.362 . S
H280 C286 0.930 . S
H281 C289 0.930 . S
H282 C290 0.930 . S
H283 C291 0.930 . S
H284 C294 0.930 . S
H285 C295 0.930 . S
C286 H280 0.930 . S
C286 C287 1.355 . S
C286 C288 1.415 . S
C287 C286 1.355 . S
C287 C289 1.419 . S
C288 C286 1.415 . S
C288 C293 1.425 . S
C288 C295 1.409 . S
C289 H281 0.930 . S
C289 C287 1.419 . S
C289 C290 1.362 . S
C290 H282 0.930 . S
C290 C289 1.362 . S
C290 C293 1.409 . S
C291 H283 0.930 . S
C291 C292 1.355 . S
C291 C293 1.415 . S
C292 C291 1.355 . S
C292 C294 1.419 . S
C293 C288 1.425 . S
C293 C290 1.409 . S
C293 C291 1.415 . S
C294 H284 0.930 . S
C294 C292 1.419 . S
C294 C295 1.362 . S
C295 H285 0.930 . S
C295 C288 1.409 . S
C295 C294 1.362 . S
H296 C302 0.930 . S
H297 C305 0.930 . S
H298 C306 0.930 . S
H299 C307 0.930 . S
H300 C310 0.930 . S
H301 C311 0.930 . S
C302 H296 0.930 . S
C302 C303 1.355 1_556 S
C302 C304 1.415 . S
C303 C302 1.355 1_554 S
C303 C305 1.419 . S
C304 C302 1.415 . S
C304 C309 1.425 1_556 S
C304 C311 1.409 . S
C305 H297 0.930 . S
C305 C303 1.419 . S
C305 C306 1.362 . S
C306 H298 0.930 . S
C306 C305 1.362 . S
C306 C309 1.409 . S
C307 H299 0.930 . S
C307 C308 1.355 1_554 S
C307 C309 1.415 . S
C308 C307 1.355 1_556 S
C308 C310 1.419 . S
C309 C304 1.425 1_554 S
C309 C306 1.409 . S
C309 C307 1.415 . S
C310 H300 0.930 . S
C310 C308 1.419 . S
C310 C311 1.362 . S
C311 H301 0.930 . S
C311 C304 1.409 . S
C311 C310 1.362 . S
H312 C318 0.930 . S
H313 C321 0.930 . S
H314 C322 0.930 . S
H315 C323 0.930 . S
H316 C326 0.930 . S
H317 C327 0.930 . S
C318 H312 0.930 . S
C318 C319 1.355 1_556 S
C318 C320 1.415 . S
C319 C318 1.355 1_554 S
C319 C321 1.419 . S
C320 C318 1.415 . S
C320 C325 1.425 1_566 S
C320 C327 1.409 1_565 S
C321 H313 0.930 . S
C321 C319 1.419 . S
C321 C322 1.362 . S
C322 H314 0.930 . S
C322 C321 1.362 . S
C322 C325 1.409 1_565 S
C323 H315 0.930 . S
C323 C324 1.355 1_554 S
C323 C325 1.415 . S
C324 C323 1.355 1_556 S
C324 C326 1.419 . S
C325 C320 1.425 1_544 S
C325 C322 1.409 1_545 S
C325 C323 1.415 . S
C326 H316 0.930 . S
C326 C324 1.419 . S
C326 C327 1.362 . S
C327 H317 0.930 . S
C327 C320 1.409 1_545 S
C327 C326 1.362 . S
H328 C334 0.930 . S
H329 C337 0.930 . S
H330 C338 0.930 . S
H331 C339 0.930 . S
H332 C342 0.930 . S
H333 C343 0.930 . S
C334 H328 0.930 . S
C334 C335 1.355 1_554 S
C334 C336 1.415 . S
C335 C334 1.355 1_556 S
C335 C337 1.419 . S
C336 C334 1.415 . S
C336 C341 1.425 1_554 S
C336 C343 1.409 . S
C337 H329 0.930 . S
C337 C335 1.419 . S
C337 C338 1.362 . S
C338 H330 0.930 . S
C338 C337 1.362 . S
C338 C341 1.409 . S
C339 H331 0.930 . S
C339 C340 1.355 1_556 S
C339 C341 1.415 . S
C340 C339 1.355 1_554 S
C340 C342 1.419 . S
C341 C336 1.425 1_556 S
C341 C338 1.409 . S
C341 C339 1.415 . S
C342 H332 0.930 . S
C342 C340 1.419 . S
C342 C343 1.362 . S
C343 H333 0.930 . S
C343 C336 1.409 . S
C343 C342 1.362 . S
H344 C350 0.930 . S
H345 C353 0.930 . S
H346 C354 0.930 . S
H347 C355 0.930 . S
H348 C358 0.930 . S
H349 C359 0.930 . S
C350 H344 0.930 . S
C350 C351 1.355 . S
C350 C352 1.415 . S
C351 C350 1.355 . S
C351 C353 1.419 1_556 S
C352 C350 1.415 . S
C352 C357 1.425 1_546 S
C352 C359 1.409 1_545 S
C353 H345 0.930 . S
C353 C351 1.419 1_554 S
C353 C354 1.362 . S
C354 H346 0.930 . S
C354 C353 1.362 . S
C354 C357 1.409 1_545 S
C355 H347 0.930 . S
C355 C356 1.355 . S
C355 C357 1.415 . S
C356 C355 1.355 . S
C356 C358 1.419 1_554 S
C357 C352 1.425 1_564 S
C357 C354 1.409 1_565 S
C357 C355 1.415 . S
C358 H348 0.930 . S
C358 C356 1.419 1_556 S
C358 C359 1.362 . S
C359 H349 0.930 . S
C359 C352 1.409 1_565 S
C359 C358 1.362 . S
H360 C366 0.930 . S
H361 C369 0.930 . S
H362 C370 0.930 . S
H363 C371 0.930 . S
H364 C374 0.930 . S
H365 C375 0.930 . S
C366 H360 0.930 . S
C366 C367 1.355 . S
C366 C368 1.415 . S
C367 C366 1.355 . S
C367 C369 1.419 . S
C368 C366 1.415 . S
C368 C373 1.425 . S
C368 C375 1.409 . S
C369 H361 0.930 . S
C369 C367 1.419 . S
C369 C370 1.362 . S
C370 H362 0.930 . S
C370 C369 1.362 . S
C370 C373 1.409 . S
C371 H363 0.930 . S
C371 C372 1.355 . S
C371 C373 1.415 1_556 S
C372 C371 1.355 . S
C372 C374 1.419 . S
C373 C368 1.425 . S
C373 C370 1.409 . S
C373 C371 1.415 1_554 S
C374 H364 0.930 . S
C374 C372 1.419 . S
C374 C375 1.362 1_556 S
C375 H365 0.930 . S
C375 C368 1.409 . S
C375 C374 1.362 1_554 S
H376 C382 0.930 . S
H377 C385 0.930 . S
H378 C386 0.930 . S
H379 C387 0.930 . S
H380 C390 0.930 . S
H381 C391 0.930 . S
C382 H376 0.930 . S
C382 C383 1.355 . S
C382 C384 1.415 . S
C383 C382 1.355 . S
C383 C385 1.419 . S
C384 C382 1.415 . S
C384 C389 1.425 . S
C384 C391 1.409 . S
C385 H377 0.930 . S
C385 C383 1.419 . S
C385 C386 1.362 . S
C386 H378 0.930 . S
C386 C385 1.362 . S
C386 C389 1.409 . S
C387 H379 0.930 . S
C387 C388 1.355 . S
C387 C389 1.415 1_556 S
C388 C387 1.355 . S
C388 C390 1.419 . S
C389 C384 1.425 . S
C389 C386 1.409 . S
C389 C387 1.415 1_554 S
C390 H380 0.930 . S
C390 C388 1.419 . S
C390 C391 1.362 1_556 S
C391 H381 0.930 . S
C391 C384 1.409 . S
C391 C390 1.362 1_554 S
H392 C398 0.930 . S
H393 C401 0.930 . S
H394 C402 0.930 . S
H395 C403 0.930 . S
H396 C406 0.930 . S
H397 C407 0.930 . S
C398 H392 0.930 . S
C398 C399 1.355 . S
C398 C400 1.415 1_554 S
C399 C398 1.355 . S
C399 C401 1.419 . S
C400 C398 1.415 1_556 S
C400 C405 1.425 . S
C400 C407 1.409 . S
C401 H393 0.930 . S
C401 C399 1.419 . S
C401 C402 1.362 1_554 S
C402 H394 0.930 . S
C402 C401 1.362 1_556 S
C402 C405 1.409 . S
C403 H395 0.930 . S
C403 C404 1.355 . S
C403 C405 1.415 . S
C404 C403 1.355 . S
C404 C406 1.419 . S
C405 C400 1.425 . S
C405 C402 1.409 . S
C405 C403 1.415 . S
C406 H396 0.930 . S
C406 C404 1.419 . S
C406 C407 1.362 . S
C407 H397 0.930 . S
C407 C400 1.409 . S
C407 C406 1.362 . S
H408 C414 0.930 . S
H409 C417 0.930 . S
H410 C418 0.930 . S
H411 C419 0.930 . S
H412 C422 0.930 . S
H413 C423 0.930 . S
C414 H408 0.930 . S
C414 C415 1.355 . S
C414 C416 1.415 . S
C415 C414 1.355 . S
C415 C417 1.419 . S
C416 C414 1.415 . S
C416 C421 1.425 . S
C416 C423 1.409 . S
C417 H409 0.930 . S
C417 C415 1.419 . S
C417 C418 1.362 . S
C418 H410 0.930 . S
C418 C417 1.362 . S
C418 C421 1.409 . S
C419 H411 0.930 . S
C419 C420 1.355 . S
C419 C421 1.415 1_554 S
C420 C419 1.355 . S
C420 C422 1.419 . S
C421 C416 1.425 . S
C421 C418 1.409 . S
C421 C419 1.415 1_556 S
C422 H412 0.930 . S
C422 C420 1.419 . S
C422 C423 1.362 1_554 S
C423 H413 0.930 . S
C423 C416 1.409 . S
C423 C422 1.362 1_556 S
H424 C430 0.930 . S
H425 C433 0.930 . S
H426 C434 0.930 . S
H427 C435 0.930 . S
H428 C438 0.930 . S
H429 C439 0.930 . S
C430 H424 0.930 . S
C430 C431 1.355 . S
C430 C432 1.415 . S
C431 C430 1.355 . S
C431 C433 1.419 . S
C432 C430 1.415 . S
C432 C437 1.425 . S
C432 C439 1.409 . S
C433 H425 0.930 . S
C433 C431 1.419 . S
C433 C434 1.362 . S
C434 H426 0.930 . S
C434 C433 1.362 . S
C434 C437 1.409 . S
C435 H427 0.930 . S
C435 C436 1.355 . S
C435 C437 1.415 . S
C436 C435 1.355 . S
C436 C438 1.419 . S
C437 C432 1.425 . S
C437 C434 1.409 . S
C437 C435 1.415 . S
C438 H428 0.930 . S
C438 C436 1.419 . S
C438 C439 1.362 . S
C439 H429 0.930 . S
C439 C432 1.409 . S
C439 C438 1.362 . S
H440 C446 0.930 . S
H441 C449 0.930 . S
H442 C450 0.930 . S
H443 C451 0.930 . S
H444 C454 0.930 . S
H445 C455 0.930 . S
C446 H440 0.930 . S
C446 C447 1.355 . S
C446 C448 1.415 . S
C447 C446 1.355 . S
C447 C449 1.419 . S
C448 C446 1.415 . S
C448 C453 1.425 . S
C448 C455 1.409 . S
C449 H441 0.930 . S
C449 C447 1.419 . S
C449 C450 1.362 . S
C450 H442 0.930 . S
C450 C449 1.362 . S
C450 C453 1.409 . S
C451 H443 0.930 . S
C451 C452 1.355 . S
C451 C453 1.415 . S
C452 C451 1.355 . S
C452 C454 1.419 . S
C453 C448 1.425 . S
C453 C450 1.409 . S
C453 C451 1.415 . S
C454 H444 0.930 . S
C454 C452 1.419 . S
C454 C455 1.362 . S
C455 H445 0.930 . S
C455 C448 1.409 . S
C455 C454 1.362 . S
H456 C462 0.930 . S
H457 C465 0.930 . S
H458 C466 0.930 . S
H459 C467 0.930 . S
H460 C470 0.930 . S
H461 C471 0.930 . S
C462 H456 0.930 . S
C462 C463 1.355 . S
C462 C464 1.415 . S
C463 C462 1.355 . S
C463 C465 1.419 . S
C464 C462 1.415 . S
C464 C469 1.425 . S
C464 C471 1.409 . S
C465 H457 0.930 . S
C465 C463 1.419 . S
C465 C466 1.362 . S
C466 H458 0.930 . S
C466 C465 1.362 . S
C466 C469 1.409 . S
C467 H459 0.930 . S
C467 C468 1.355 . S
C467 C469 1.415 . S
C468 C467 1.355 . S
C468 C470 1.419 . S
C469 C464 1.425 . S
C469 C466 1.409 . S
C469 C467 1.415 . S
C470 H460 0.930 . S
C470 C468 1.419 . S
C470 C471 1.362 . S
C471 H461 0.930 . S
C471 C464 1.409 . S
C471 C470 1.362 . S
H472 C478 0.930 . S
H473 C481 0.930 . S
H474 C482 0.930 . S
H475 C483 0.930 . S
H476 C486 0.930 . S
H477 C487 0.930 . S
C478 H472 0.930 . S
C478 C479 1.355 . S
C478 C480 1.415 . S
C479 C478 1.355 . S
C479 C481 1.419 . S
C480 C478 1.415 . S
C480 C485 1.425 . S
C480 C487 1.409 . S
C481 H473 0.930 . S
C481 C479 1.419 . S
C481 C482 1.362 . S
C482 H474 0.930 . S
C482 C481 1.362 . S
C482 C485 1.409 . S
C483 H475 0.930 . S
C483 C484 1.355 . S
C483 C485 1.415 . S
C484 C483 1.355 . S
C484 C486 1.419 . S
C485 C480 1.425 . S
C485 C482 1.409 . S
C485 C483 1.415 . S
C486 H476 0.930 . S
C486 C484 1.419 . S
C486 C487 1.362 . S
C487 H477 0.930 . S
C487 C480 1.409 . S
C487 C486 1.362 . S
H488 C494 0.930 . S
H489 C497 0.930 . S
H490 C498 0.930 . S
H491 C499 0.930 . S
H492 C502 0.930 . S
H493 C503 0.930 . S
C494 H488 0.930 . S
C494 C495 1.355 . S
C494 C496 1.415 . S
C495 C494 1.355 . S
C495 C497 1.419 . S
C496 C494 1.415 . S
C496 C501 1.425 1_455 S
C496 C503 1.409 1_455 S
C497 H489 0.930 . S
C497 C495 1.419 . S
C497 C498 1.362 . S
C498 H490 0.930 . S
C498 C497 1.362 . S
C498 C501 1.409 1_455 S
C499 H491 0.930 . S
C499 C500 1.355 . S
C499 C501 1.415 . S
C500 C499 1.355 . S
C500 C502 1.419 . S
C501 C496 1.425 1_655 S
C501 C498 1.409 1_655 S
C501 C499 1.415 . S
C502 H492 0.930 . S
C502 C500 1.419 . S
C502 C503 1.362 . S
C503 H493 0.930 . S
C503 C496 1.409 1_655 S
C503 C502 1.362 . S
H504 C510 0.930 . S
H505 C513 0.930 . S
H506 C514 0.930 . S
H507 C515 0.930 . S
H508 C518 0.930 . S
H509 C519 0.930 . S
C510 H504 0.930 . S
C510 C511 1.355 . S
C510 C512 1.415 . S
C511 C510 1.355 . S
C511 C513 1.419 . S
C512 C510 1.415 . S
C512 C517 1.425 1_655 S
C512 C519 1.409 1_655 S
C513 H505 0.930 . S
C513 C511 1.419 . S
C513 C514 1.362 . S
C514 H506 0.930 . S
C514 C513 1.362 . S
C514 C517 1.409 1_655 S
C515 H507 0.930 . S
C515 C516 1.355 . S
C515 C517 1.415 . S
C516 C515 1.355 . S
C516 C518 1.419 . S
C517 C512 1.425 1_455 S
C517 C514 1.409 1_455 S
C517 C515 1.415 . S
C518 H508 0.930 . S
C518 C516 1.419 . S
C518 C519 1.362 . S
C519 H509 0.930 . S
C519 C512 1.409 1_455 S
C519 C518 1.362 . S
H520 C526 0.930 . S
H521 C529 0.930 . S
H522 C530 0.930 . S
H523 C531 0.930 . S
H524 C534 0.930 . S
H525 C535 0.930 . S
C526 H520 0.930 . S
C526 C527 1.355 1_556 S
C526 C528 1.415 . S
C527 C526 1.355 1_554 S
C527 C529 1.419 . S
C528 C526 1.415 . S
C528 C533 1.425 1_556 S
C528 C535 1.409 . S
C529 H521 0.930 . S
C529 C527 1.419 . S
C529 C530 1.362 . S
C530 H522 0.930 . S
C530 C529 1.362 . S
C530 C533 1.409 . S
C531 H523 0.930 . S
C531 C532 1.355 . S
C531 C533 1.415 . S
C532 C531 1.355 . S
C532 C534 1.419 1_554 S
C533 C528 1.425 1_554 S
C533 C530 1.409 . S
C533 C531 1.415 . S
C534 H524 0.930 . S
C534 C532 1.419 1_556 S
C534 C535 1.362 . S
C535 H525 0.930 . S
C535 C528 1.409 . S
C535 C534 1.362 . S
H536 C542 0.930 1_554 S
H537 C545 0.930 . S
H538 C546 0.930 . S
H539 C547 0.930 . S
H540 C550 0.930 . S
H541 C551 0.930 . S
C542 H536 0.930 1_556 S
C542 C543 1.355 . S
C542 C544 1.415 . S
C543 C542 1.355 . S
C543 C545 1.419 . S
C544 C542 1.415 . S
C544 C549 1.425 . S
C544 C551 1.409 1_556 S
C545 H537 0.930 . S
C545 C543 1.419 . S
C545 C546 1.362 . S
C546 H538 0.930 . S
C546 C545 1.362 . S
C546 C549 1.409 . S
C547 H539 0.930 . S
C547 C548 1.355 . S
C547 C549 1.415 . S
C548 C547 1.355 . S
C548 C550 1.419 1_556 S
C549 C544 1.425 . S
C549 C546 1.409 . S
C549 C547 1.415 . S
C550 H540 0.930 . S
C550 C548 1.419 1_554 S
C550 C551 1.362 . S
C551 H541 0.930 . S
C551 C544 1.409 1_554 S
C551 C550 1.362 . S
C175 C17 1.558 . S
C180 C161 1.578 . S
C191 C140 1.623 . S
C196 C35 1.555 . S
C207 C119 1.620 . S
C212 C56 1.554 . S
C223 C101 1.550 . S
C228 C77 1.603 . S
C239 C55 1.446 . S
C244 C16 1.439 . S
C255 C34 1.443 . S
C260 C76 1.441 . S
C271 C79 1.182 . S
C276 C37 1.082 . S
C287 C58 1.030 . S
C292 C13 1.133 . S
C303 C100 1.427 . S
C308 C139 1.473 . S
C319 C118 1.458 . S
C324 C160 1.432 . S
C335 C163 1.188 . S
C340 C121 1.170 . S
C351 C142 1.017 . S
C356 C97 1.084 . S
C367 C14 1.289 . S
C372 C15 1.281 . S
C383 C38 1.285 . S
C388 C39 1.301 . S
C399 C60 1.302 . S
C404 C59 1.306 . S
C415 C80 1.302 . S
C420 C81 1.296 . S
C431 C99 1.258 . S
C436 C98 1.265 . S
C447 C122 1.238 . S
C452 C123 1.235 . S
C463 C143 1.313 . S
C468 C144 1.313 . S
C479 C164 1.223 . S
C484 C165 1.225 . S
C495 C18 1.538 . S
C500 C36 1.537 . S
C511 C78 1.596 . S
C516 C57 1.601 . S
C527 C102 1.541 . S
C532 C120 1.536 . S
C543 C162 1.599 . S
C548 C141 1.591 . S
