# Generated by pormake.
# Topology smt, (6)-cn, num edge types: 1
# Building blocks:
#     Node 0, Type 0, BuildingBlock: VOLQOD_clean_sbu_1, # of connection points: 6
#     Node 1, Type 0, BuildingBlock: VOLQOD_clean_sbu_1, # of connection points: 6
#     Node 2, Type 0, BuildingBlock: VOLQOD_clean_sbu_1, # of connection points: 6
#     Node 3, Type 0, BuildingBlock: VOLQOD_clean_sbu_1, # of connection points: 6
#     Node 4, Type 0, BuildingBlock: VOLQOD_clean_sbu_1, # of connection points: 6
#     Node 5, Type 0, BuildingBlock: VOLQOD_clean_sbu_1, # of connection points: 6
#     Edge 6, Type (0, 0), BuildingBlock: XIVTED_clean_linker_0, # of connection points: 2
#     Edge 7, Type (0, 0), BuildingBlock: XIVTED_clean_linker_0, # of connection points: 2
#     Edge 8, Type (0, 0), BuildingBlock: XIVTED_clean_linker_0, # of connection points: 2
#     Edge 9, Type (0, 0), BuildingBlock: XIVTED_clean_linker_0, # of connection points: 2
#     Edge 10, Type (0, 0), BuildingBlock: XIVTED_clean_linker_0, # of connection points: 2
#     Edge 11, Type (0, 0), BuildingBlock: XIVTED_clean_linker_0, # of connection points: 2
#     Edge 12, Type (0, 0), BuildingBlock: XIVTED_clean_linker_0, # of connection points: 2
#     Edge 13, Type (0, 0), BuildingBlock: XIVTED_clean_linker_0, # of connection points: 2
#     Edge 14, Type (0, 0), BuildingBlock: XIVTED_clean_linker_0, # of connection points: 2
#     Edge 15, Type (0, 0), BuildingBlock: XIVTED_clean_linker_0, # of connection points: 2
#     Edge 16, Type (0, 0), BuildingBlock: XIVTED_clean_linker_0, # of connection points: 2
#     Edge 17, Type (0, 0), BuildingBlock: XIVTED_clean_linker_0, # of connection points: 2
#     Edge 18, Type (0, 0), BuildingBlock: XIVTED_clean_linker_0, # of connection points: 2
#     Edge 19, Type (0, 0), BuildingBlock: XIVTED_clean_linker_0, # of connection points: 2
#     Edge 20, Type (0, 0), BuildingBlock: XIVTED_clean_linker_0, # of connection points: 2
#     Edge 21, Type (0, 0), BuildingBlock: XIVTED_clean_linker_0, # of connection points: 2
#     Edge 22, Type (0, 0), BuildingBlock: XIVTED_clean_linker_0, # of connection points: 2
#     Edge 23, Type (0, 0), BuildingBlock: XIVTED_clean_linker_0, # of connection points: 2
# Relax obj value: 0.336
# Max RMSD: 0.251
# Mean RMSD: 0.251
data_MOF--net-smt--node1-VOLQOD_clean_sbu_1--edge1-XIVTED_clean_linker_0
_symmetry_space_group_name_H-M    P1
_symmetry_Int_Tables_number       1
_symmetry_cell_setting            triclinic
loop_
_symmetry_equiv_pos_as_xyz
'x, y, z'
_cell_length_a     37.075203
_cell_length_b     37.009502
_cell_length_c     27.290764
_cell_angle_alpha  89.876983
_cell_angle_beta   90.007172
_cell_angle_gamma 119.83795
loop_
_atom_site_label
_atom_site_type_symbol
_atom_site_fract_x
_atom_site_fract_y
_atom_site_fract_z
_atom_type_partial_charge
O0 O 0.42363 0.01289 0.06264 0.0
Zn1 Zn 0.45166 0.06279 0.01866 0.0
O2 O 0.42019 0.09134 0.01344 0.0
Zn3 Zn 0.40458 0.09254 0.94639 0.0
Zn4 Zn 0.37126 0.06045 0.05178 0.0
Zn5 Zn 0.45017 0.14668 0.03965 0.0
O6 O 0.42064 0.15082 0.92465 0.0
O7 O 0.46453 0.18712 0.9845 0.0
O8 O 0.46491 0.04829 0.95255 0.0
O9 O 0.43678 0.07537 0.90331 0.0
O10 O 0.34467 0.04873 0.93462 0.0
O11 O 0.32592 0.02094 0.00905 0.0
O12 O 0.3538 0.09756 0.08271 0.0
O13 O 0.5049 0.09927 0.05355 0.0
O14 O 0.41392 0.15706 0.08608 0.0
O15 O 0.5031 0.15688 0.07229 0.0
C16 C 0.40172 0.00914 0.10029 0.0
C17 C 0.44872 0.18528 0.94249 0.0
C18 C 0.31858 0.02084 0.96353 0.0
C19 C 0.45796 0.05729 0.90979 0.0
C20 C 0.3754 0.13512 0.09657 0.0
C21 C 0.52076 0.13488 0.07369 0.0
O22 O 0.38215 0.02915 0.10383 0.0
O23 O 0.42122 0.47523 0.23351 0.0
Zn24 Zn 0.39986 0.49216 0.17491 0.0
O25 O 0.34086 0.45673 0.1687 0.0
Zn26 Zn 0.32489 0.42335 0.11002 0.0
Zn27 Zn 0.3212 0.42155 0.22473 0.0
Zn28 Zn 0.31455 0.48944 0.16575 0.0
O29 O 0.28457 0.43202 0.06817 0.0
O30 O 0.30307 0.49522 0.09619 0.0
O31 O 0.42816 0.49282 0.11194 0.0
O32 O 0.3755 0.44494 0.06806 0.0
O33 O 0.30502 0.36302 0.12573 0.0
O34 O 0.31167 0.3657 0.20678 0.0
O35 O 0.2662 0.41312 0.24561 0.0
O36 O 0.41302 0.55065 0.18873 0.0
O37 O 0.25912 0.4587 0.19941 0.0
O38 O 0.3513 0.54674 0.19236 0.0
C39 C 0.40279 0.45918 0.27393 0.0
C40 C 0.28675 0.46732 0.06339 0.0
C41 C 0.30394 0.34583 0.16668 0.0
C42 C 0.41371 0.47242 0.07236 0.0
C43 C 0.24459 0.4288 0.23019 0.0
C44 C 0.39075 0.56739 0.19653 0.0
O45 O 0.36343 0.44199 0.27804 0.0
O46 O 0.93653 0.40338 0.39346 0.0
Zn47 Zn 0.89095 0.37674 0.34384 0.0
O48 O 0.8694 0.31721 0.34193 0.0
Zn49 Zn 0.87125 0.30035 0.27559 0.0
Zn50 Zn 0.90343 0.30389 0.38228 0.0
Zn51 Zn 0.81397 0.28791 0.3685 0.0
O52 O 0.81448 0.25731 0.25292 0.0
O53 O 0.77422 0.25677 0.31401 0.0
O54 O 0.90926 0.40399 0.27771 0.0
O55 O 0.88811 0.3484 0.23044 0.0
O56 O 0.91658 0.28565 0.26669 0.0
O57 O 0.94471 0.29959 0.34108 0.0
O58 O 0.87024 0.24969 0.41656 0.0
O59 O 0.84774 0.38891 0.3698 0.0
O60 O 0.80812 0.24493 0.41786 0.0
O61 O 0.79885 0.32801 0.39931 0.0
C62 C 0.94613 0.38764 0.42923 0.0
C63 C 0.77873 0.24561 0.27135 0.0
C64 C 0.9452 0.29041 0.29634 0.0
C65 C 0.90383 0.3875 0.23551 0.0
C66 C 0.83261 0.23178 0.43056 0.0
C67 C 0.81441 0.36721 0.39401 0.0
O68 O 0.93299 0.3487 0.43183 0.0
O69 O 0.49879 0.94534 0.56877 0.0
Zn70 Zn 0.47989 0.90697 0.51064 0.0
O71 O 0.51423 0.8822 0.50268 0.0
Zn72 Zn 0.54671 0.8995 0.44318 0.0
Zn73 Zn 0.54975 0.89587 0.55818 0.0
Zn74 Zn 0.48028 0.82349 0.49878 0.0
O75 O 0.53657 0.8504 0.40058 0.0
O76 O 0.47308 0.80736 0.42883 0.0
O77 O 0.47826 0.93468 0.44814 0.0
O78 O 0.52504 0.92937 0.40235 0.0
O79 O 0.60739 0.93849 0.45801 0.0
O80 O 0.60628 0.94037 0.53937 0.0
O81 O 0.55625 0.84751 0.57766 0.0
O82 O 0.42138 0.86282 0.52616 0.0
O83 O 0.5102 0.79682 0.53017 0.0
O84 O 0.4237 0.80399 0.52699 0.0
C85 C 0.51485 0.94228 0.60883 0.0
C86 C 0.50067 0.81838 0.39567 0.0
C87 C 0.62559 0.95289 0.49888 0.0
C88 C 0.49776 0.9404 0.40785 0.0
C89 C 0.53996 0.81062 0.56092 0.0
C90 C 0.40396 0.82366 0.53306 0.0
O91 O 0.53106 0.91903 0.61247 0.0
O92 O 0.56125 0.52829 0.72806 0.0
Zn93 Zn 0.58718 0.50711 0.67996 0.0
O94 O 0.64667 0.54416 0.67726 0.0
Zn95 Zn 0.66467 0.56143 0.61068 0.0
Zn96 Zn 0.66081 0.59235 0.71593 0.0
Zn97 Zn 0.67466 0.51732 0.70505 0.0
O98 O 0.70668 0.54505 0.58925 0.0
O99 O 0.70076 0.50254 0.65043 0.0
O100 O 0.56057 0.49764 0.61346 0.0
O101 O 0.61643 0.53054 0.56609 0.0
O102 O 0.68043 0.62169 0.59956 0.0
O103 O 0.66598 0.63742 0.67292 0.0
O104 O 0.71503 0.61294 0.74947 0.0
O105 O 0.574 0.45191 0.70862 0.0
O106 O 0.72047 0.55581 0.75034 0.0
O107 O 0.63452 0.46489 0.74019 0.0
C108 C 0.57736 0.55409 0.76318 0.0
C109 C 0.7137 0.51745 0.60777 0.0
C110 C 0.67575 0.64631 0.62811 0.0
C111 C 0.5773 0.50793 0.57122 0.0
C112 C 0.73371 0.59358 0.7624 0.0
C113 C 0.59546 0.44122 0.73502 0.0
O114 O 0.61637 0.57907 0.76549 0.0
O115 O 0.02399 0.54573 0.89775 0.0
Zn116 Zn 0.06193 0.56706 0.83907 0.0
O117 O 0.08527 0.62618 0.83252 0.0
Zn118 Zn 0.06782 0.64237 0.77373 0.0
Zn119 Zn 0.07033 0.6462 0.88874 0.0
Zn120 Zn 0.14402 0.65213 0.82892 0.0
O121 O 0.11661 0.68217 0.73122 0.0
O122 O 0.16093 0.66309 0.75929 0.0
O123 O 0.03392 0.53884 0.77642 0.0
O124 O 0.03794 0.59142 0.73238 0.0
O125 O 0.02849 0.66361 0.78969 0.0
O126 O 0.02512 0.6575 0.87083 0.0
O127 O 0.11741 0.70074 0.9098 0.0
O128 O 0.10712 0.55353 0.85283 0.0
O129 O 0.1691 0.70768 0.86219 0.0
O130 O 0.1646 0.61539 0.8556 0.0
C131 C 0.02605 0.56411 0.93804 0.0
C132 C 0.14943 0.67956 0.72641 0.0
C133 C 0.01313 0.6656 0.83075 0.0
C134 C 0.02736 0.55314 0.73696 0.0
C135 C 0.15436 0.72227 0.89365 0.0
C136 C 0.14604 0.57592 0.86021 0.0
O137 O 0.04786 0.60356 0.94204 0.0
H138 H 0.31289 -0.01268 0.87297 0.0
H139 H 0.13669 0.7633 0.96444 0.0
H140 H 0.2466 0.96629 0.00957 0.0
H141 H 0.22316 0.78342 0.84729 0.0
H142 H 0.16849 0.83855 0.97409 0.0
H143 H 0.26849 0.91381 0.85269 0.0
C144 C 0.28801 0.96759 0.89787 0.0
C145 C 0.28379 0.98257 0.94341 0.0
C146 C 0.18054 0.82644 0.94638 0.0
C147 C 0.23395 0.89865 0.92116 0.0
C148 C 0.1627 0.78352 0.94116 0.0
C149 C 0.17749 0.76703 0.90523 0.0
C150 C 0.21322 0.85306 0.91528 0.0
C151 C 0.21105 0.79472 0.87583 0.0
C152 C 0.26315 0.92551 0.88665 0.0
C153 C 0.2512 0.95567 0.97441 0.0
N154 N 0.2277 0.83644 0.88141 0.0
N155 N 0.22792 0.91474 0.96309 0.0
H156 H 0.32525 0.31042 0.24046 0.0
H157 H 0.29628 0.11866 0.081 0.0
H158 H 0.2729 0.28632 0.09472 0.0
H159 H 0.40694 0.1973 0.16442 0.0
H160 H 0.26595 0.16077 0.10878 0.0
H161 H 0.33198 0.24824 0.23467 0.0
C162 C 0.31411 0.29149 0.20774 0.0
C163 C 0.29935 0.304 0.16745 0.0
C164 C 0.2964 0.16796 0.12184 0.0
C165 C 0.30648 0.23291 0.16132 0.0
C166 C 0.31368 0.14407 0.10624 0.0
C167 C 0.35433 0.15511 0.12007 0.0
C168 C 0.31966 0.20222 0.15229 0.0
C169 C 0.37572 0.1883 0.15252 0.0
C170 C 0.31806 0.25614 0.2046 0.0
C171 C 0.28519 0.27814 0.12617 0.0
N172 N 0.35815 0.21096 0.16743 0.0
N173 N 0.28955 0.24387 0.12389 0.0
H174 H -0.02051 0.31762 0.20593 0.0
H175 H 0.20395 0.3702 0.30127 0.0
H176 H 0.00059 0.2757 0.34509 0.0
H177 H 0.18313 0.4356 0.18317 0.0
H178 H 0.12886 0.32605 0.31054 0.0
H179 H 0.05343 0.34805 0.18694 0.0
C180 C -0.00061 0.31346 0.23168 0.0
C181 C -0.01577 0.29475 0.27745 0.0
C182 C 0.14078 0.35017 0.28272 0.0
C183 C 0.06854 0.33031 0.25667 0.0
C184 C 0.1836 0.37564 0.27771 0.0
C185 C 0.19983 0.40684 0.24162 0.0
C186 C 0.11404 0.35573 0.2512 0.0
C187 C 0.172 0.41226 0.21186 0.0
C188 C 0.04167 0.33144 0.2212 0.0
C189 C 0.01133 0.29044 0.30966 0.0
N190 N 0.1304 0.38679 0.21718 0.0
N191 N 0.05241 0.30873 0.29899 0.0
H192 H 0.77589 0.20387 0.50437 0.0
H193 H 0.66791 0.00124 0.57728 0.0
H194 H 0.8489 0.16907 0.41364 0.0
H195 H 0.68067 0.98622 0.42236 0.0
H196 H 0.73102 0.06925 0.57408 0.0
H197 H 0.73666 0.13215 0.53436 0.0
C198 C 0.7843 0.18126 0.49189 0.0
C199 C 0.8153 0.19195 0.45652 0.0
C200 C 0.72031 0.05055 0.54114 0.0
C201 C 0.77053 0.11033 0.48971 0.0
C202 C 0.68441 0.01174 0.54278 0.0
C203 C 0.66827 -0.01136 0.49955 0.0
C204 C 0.74019 0.06604 0.49611 0.0
C205 C 0.69144 0.00353 0.45623 0.0
C206 C 0.76225 0.14054 0.50922 0.0
C207 C 0.82515 0.16176 0.44112 0.0
N208 N 0.72607 0.04174 0.45542 0.0
N209 N 0.80183 0.12177 0.45666 0.0
H210 H 0.52879 0.74054 0.51392 0.0
H211 H 0.69673 0.7198 0.67233 0.0
H212 H 0.60058 0.82695 0.62856 0.0
H213 H 0.64338 0.64994 0.53994 0.0
H214 H 0.66691 0.7638 0.65271 0.0
H215 H 0.57163 0.70781 0.52205 0.0
C216 C 0.55314 0.75226 0.54132 0.0
C217 C 0.56095 0.78641 0.57082 0.0
C218 C 0.66248 0.73949 0.62729 0.0
C219 C 0.61067 0.74971 0.57945 0.0
C220 C 0.6799 0.71472 0.63822 0.0
C221 C 0.6721 0.68109 0.6079 0.0
C222 C 0.63649 0.72994 0.58627 0.0
C223 C 0.65011 0.67564 0.56422 0.0
C224 C 0.578 0.73396 0.54538 0.0
C225 C 0.59333 0.8006 0.60517 0.0
N226 N 0.63215 0.69924 0.55524 0.0
N227 N 0.61696 0.78214 0.60857 0.0
H228 H 0.95917 0.64931 0.90643 0.0
H229 H 0.79439 0.67308 0.74418 0.0
H230 H -0.01566 0.69578 0.75771 0.0
H231 H 0.76495 0.56581 0.83404 0.0
H232 H 0.86693 0.70554 0.77185 0.0
H233 H 0.89122 0.64453 0.90168 0.0
C234 C 0.95095 0.65961 0.87321 0.0
C235 C 0.97695 0.67192 0.83182 0.0
C236 C 0.84416 0.67547 0.78646 0.0
C237 C 0.89983 0.6671 0.82689 0.0
C238 C 0.80297 0.65702 0.77093 0.0
C239 C 0.77417 0.6166 0.78654 0.0
C240 C 0.8559 0.65361 0.8186 0.0
C241 C 0.78659 0.59682 0.82083 0.0
C242 C 0.91222 0.65685 0.8707 0.0
C243 C 0.9648 0.68524 0.79002 0.0
N244 N 0.82678 0.61548 0.83558 0.0
N245 N 0.92667 0.68193 0.78833 0.0
H246 H 0.44568 0.96814 0.10877 0.0
H247 H 0.43559 0.9601 0.4011 0.0
H248 H 0.37034 0.00498 0.19241 0.0
H249 H 0.52742 0.94941 0.31448 0.0
H250 H 0.40625 0.97056 0.32569 0.0
H251 H 0.4678 0.95066 0.18478 0.0
C252 C 0.43312 0.97182 0.14304 0.0
C253 C 0.40665 -0.01126 0.14423 0.0
C254 C 0.43296 0.96613 0.32338 0.0
C255 C 0.43255 0.96953 0.23145 0.0
C256 C 0.44996 0.96053 0.36639 0.0
C257 C 0.48398 0.95375 0.36415 0.0
C258 C 0.44996 0.96466 0.27799 0.0
C259 C 0.50117 0.95443 0.3181 0.0
C260 C 0.44613 0.96222 0.18649 0.0
C261 C 0.39114 -0.00757 0.18977 0.0
N262 N 0.48378 0.95947 0.27688 0.0
N263 N 0.40475 0.98341 0.23173 0.0
H264 H 0.37468 0.43014 0.36648 0.0
H265 H 0.60311 0.52062 0.47596 0.0
H266 H 0.48721 0.49289 0.28026 0.0
H267 H 0.49203 0.46612 0.56519 0.0
H268 H 0.56024 0.50412 0.40299 0.0
H269 H 0.41642 0.43688 0.43858 0.0
C270 C 0.40815 0.4452 0.36261 0.0
C271 C 0.42752 0.4613 0.31728 0.0
C272 C 0.54517 0.49558 0.43848 0.0
C273 C 0.47537 0.46903 0.39971 0.0
C274 C 0.56964 0.50499 0.48027 0.0
C275 C 0.55114 0.49511 0.52688 0.0
C276 C 0.50183 0.47624 0.44318 0.0
C277 C 0.50761 0.47452 0.53002 0.0
C278 C 0.43193 0.449 0.40384 0.0
C279 C 0.47095 0.48025 0.31447 0.0
N280 N 0.4844 0.466 0.48867 0.0
N281 N 0.49342 0.48375 0.35521 0.0
H282 H 0.00983 0.47215 0.72747 0.0
H283 H 0.97761 0.47161 0.43796 0.0
H284 H 0.0126 0.5738 0.64603 0.0
H285 H 0.96046 0.36364 0.51882 0.0
H286 H -0.00209 0.51162 0.51352 0.0
H287 H -0.00465 0.43267 0.65134 0.0
C288 C 0.00688 0.48598 0.69377 0.0
C289 C 0.01254 0.52641 0.69315 0.0
C290 C -0.00999 0.47925 0.5147 0.0
C291 C -0.00316 0.48178 0.60602 0.0
C292 C 0.97873 0.45644 0.47146 0.0
C293 C 0.96675 0.41403 0.47215 0.0
C294 C -0.01074 0.45953 0.55899 0.0
C295 C 0.96914 0.39619 0.51663 0.0
C296 C -0.00104 0.46355 0.65029 0.0
C297 C 0.00857 0.5428 0.64835 0.0
N298 N -0.0203 0.41895 0.55846 0.0
N299 N 0.00118 0.52049 0.60659 0.0
H300 H 0.48797 -0.00116 0.61394 0.0
H301 H 0.4982 0.01186 0.90603 0.0
H302 H 0.53739 0.93699 0.7031 0.0
H303 H 0.45257 0.07568 0.81419 0.0
H304 H 0.51823 -0.01146 0.83234 0.0
H305 H 0.48024 0.03178 0.68718 0.0
C306 C 0.4974 -0.00767 0.64889 0.0
C307 C 0.51295 0.96477 0.65243 0.0
C308 C 0.5041 0.00789 0.82845 0.0
C309 C 0.504 0.00229 0.73661 0.0
C310 C 0.49266 0.02121 0.87047 0.0
C311 C 0.47324 0.04535 0.86628 0.0
C312 C 0.49597 0.01879 0.78207 0.0
C313 C 0.46703 0.05673 0.81927 0.0
C314 C 0.49302 0.0112 0.69076 0.0
C315 C 0.52501 0.95783 0.6987 0.0
N316 N 0.4781 0.04312 0.77906 0.0
N317 N 0.51995 0.97621 0.73909 0.0
H318 H 0.49431 0.53598 0.06193 0.0
H319 H 0.49327 0.50384 0.77242 0.0
H320 H 0.39265 0.43742 0.98151 0.0
H321 H 0.60204 0.59306 0.85213 0.0
H322 H 0.45355 0.48536 0.84829 0.0
H323 H 0.53324 0.56105 0.98528 0.0
C324 C 0.48036 0.5193 0.02835 0.0
C325 C 0.44011 0.48456 0.02818 0.0
C326 C 0.48603 0.50924 0.84915 0.0
C327 C 0.48407 0.51356 0.94049 0.0
C328 C 0.50868 0.52006 0.80572 0.0
C329 C 0.55123 0.54959 0.80603 0.0
C330 C 0.50606 0.52799 0.89322 0.0
C331 C 0.56938 0.56984 0.85025 0.0
C332 C 0.50246 0.53385 0.98459 0.0
C333 C 0.42353 0.46435 0.98351 0.0
N334 N 0.54678 0.55828 0.89229 0.0
N335 N 0.44551 0.47928 0.94149 0.0
H336 H 0.0249 0.59178 0.03075 0.0
H337 H 0.89217 0.36202 0.14024 0.0
H338 H 0.9764 0.47947 0.94435 0.0
H339 H 0.9455 0.47296 0.22955 0.0
H340 H 0.91763 0.40535 0.06734 0.0
H341 H -0.00903 0.54944 0.10302 0.0
C342 C 0.00696 0.55824 0.02687 0.0
C343 C 0.00378 0.53911 0.98145 0.0
C344 C 0.92366 0.42029 0.10282 0.0
C345 C 0.96494 0.49059 0.06404 0.0
C346 C 0.90913 0.39555 0.14458 0.0
C347 C 0.91706 0.41389 0.19119 0.0
C348 C 0.94643 0.46375 0.10755 0.0
C349 C 0.93888 0.45751 0.19437 0.0
C350 C -0.01238 0.53412 0.06819 0.0
C351 C -0.02005 0.49557 0.97863 0.0
N352 N 0.95307 0.481 0.15304 0.0
N353 N 0.96162 0.47279 0.01944 0.0
H354 H 0.42226 0.19694 0.85261 0.0
H355 H 0.6263 0.41659 0.81088 0.0
H356 H 0.51639 0.2606 0.96314 0.0
H357 H 0.51553 0.37692 0.72394 0.0
H358 H 0.58871 0.35444 0.8615 0.0
H359 H 0.45752 0.25895 0.80029 0.0
C360 C 0.45004 0.22398 0.86606 0.0
C361 C 0.46646 0.22348 0.91226 0.0
C362 C 0.57264 0.35933 0.8313 0.0
C363 C 0.50709 0.29385 0.85247 0.0
C364 C 0.59418 0.39463 0.80213 0.0
C365 C 0.57399 0.40202 0.7632 0.0
C366 C 0.53074 0.33093 0.82121 0.0
C367 C 0.53223 0.37252 0.75376 0.0
C368 C 0.47013 0.25925 0.83618 0.0
C369 C 0.50256 0.25942 0.92782 0.0
N370 N 0.51193 0.33815 0.78258 0.0
N371 N 0.52182 0.29296 0.89781 0.0
H372 H 0.23023 0.61169 0.87025 0.0
H373 H 0.21622 0.41597 0.01114 0.0
H374 H 0.11616 0.49433 0.88668 0.0
H375 H 0.32006 0.54134 0.01699 0.0
H376 H 0.18421 0.43843 0.94782 0.0
H377 H 0.26831 0.58026 0.90592 0.0
C378 C 0.2132 0.57921 0.88105 0.0
C379 C 0.16983 0.55588 0.87653 0.0
C380 C 0.21435 0.46074 0.96243 0.0
C381 C 0.21326 0.51974 0.91761 0.0
C382 C 0.2326 0.44791 -0.00176 0.0
C383 C 0.27029 0.47714 0.01964 0.0
C384 C 0.23439 0.50282 0.94799 0.0
C385 C 0.2905 0.51811 0.00193 0.0
C386 C 0.23499 0.56124 0.9013 0.0
C387 C 0.14954 0.51366 0.89022 0.0
N388 N 0.27212 0.52982 0.96745 0.0
N389 N 0.17138 0.49705 0.91087 0.0
H390 H 0.58638 0.21415 0.07763 0.0
H391 H 0.70107 0.18504 0.29884 0.0
H392 H 0.54294 0.08955 0.13172 0.0
H393 H 0.77249 0.25691 0.17415 0.0
H394 H 0.63795 0.15515 0.24803 0.0
H395 H 0.65137 0.23795 0.12371 0.0
C396 C 0.59059 0.19196 0.0993 0.0
C397 C 0.55969 0.14994 0.10095 0.0
C398 C 0.66764 0.17708 0.2319 0.0
C399 C 0.63267 0.17682 0.15384 0.0
C400 C 0.70343 0.19403 0.26065 0.0
C401 C 0.7418 0.22314 0.24034 0.0
C402 C 0.67033 0.19063 0.18334 0.0
C403 C 0.74344 0.23416 0.19086 0.0
C404 C 0.62752 0.20541 0.12515 0.0
C405 C 0.56638 0.12218 0.12938 0.0
N406 N 0.70796 0.21845 0.16413 0.0
N407 N 0.60206 0.13623 0.1554 0.0
H408 H 0.42733 0.78252 0.34813 0.0
H409 H 0.47348 0.61995 0.2154 0.0
H410 H 0.54911 0.79458 0.34451 0.0
H411 H 0.35453 0.61491 0.21412 0.0
H412 H 0.50498 0.68973 0.25048 0.0
H413 H 0.40393 0.7284 0.28611 0.0
C414 C 0.44931 0.77406 0.33354 0.0
C415 C 0.48992 0.79232 0.35176 0.0
C416 C 0.47212 0.67356 0.2419 0.0
C417 C 0.4632 0.72972 0.28171 0.0
C418 C 0.45403 0.63364 0.222 0.0
C419 C 0.41108 0.61118 0.21275 0.0
C420 C 0.44703 0.69101 0.25275 0.0
C421 C 0.3876 0.63072 0.22145 0.0
C422 C 0.43597 0.74316 0.29815 0.0
C423 C 0.51744 0.7809 0.33138 0.0
N424 N 0.40581 0.6693 0.24149 0.0
N425 N 0.5033 0.74953 0.29801 0.0
H426 H 0.82844 0.44631 0.37882 0.0
H427 H 0.72262 0.45044 0.63029 0.0
H428 H 0.76068 0.33835 0.47158 0.0
H429 H 0.74742 0.54044 0.51541 0.0
H430 H 0.74569 0.41378 0.5762 0.0
H431 H 0.80566 0.48494 0.43092 0.0
C432 C 0.80841 0.43059 0.40982 0.0
C433 C 0.79646 0.38905 0.42096 0.0
C434 C 0.74616 0.4416 0.56287 0.0
C435 C 0.77114 0.43327 0.48098 0.0
C436 C 0.73335 0.46284 0.59386 0.0
C437 C 0.73283 0.49852 0.57729 0.0
C438 C 0.75899 0.45628 0.51505 0.0
C439 C 0.74714 0.51298 0.52965 0.0
C440 C 0.79554 0.45269 0.4395 0.0
C441 C 0.77049 0.37024 0.46151 0.0
N442 N 0.75963 0.49174 0.50009 0.0
N443 N 0.75906 0.39265 0.49037 0.0
H444 H 0.35325 0.85546 0.55632 0.0
H445 H 0.1841 0.64252 0.67533 0.0
H446 H 0.35476 0.73972 0.54673 0.0
H447 H 0.17563 0.75447 0.68034 0.0
H448 H 0.23976 0.67512 0.61524 0.0
H449 H 0.28295 0.81747 0.59007 0.0
C450 C 0.33871 0.82202 0.5609 0.0
C451 C 0.36026 0.80083 0.54956 0.0
C452 C 0.22545 0.69252 0.6287 0.0
C453 C 0.27983 0.75727 0.58791 0.0
C454 C 0.19363 0.67385 0.6629 0.0
C455 C 0.17589 0.69619 0.68296 0.0
C456 C 0.24036 0.73424 0.6154 0.0
C457 C 0.18882 0.73643 0.66559 0.0
C458 C 0.2985 0.80036 0.58 0.0
C459 C 0.33967 0.75748 0.5557 0.0
N460 N 0.22106 0.75464 0.63339 0.0
N461 N 0.3008 0.73725 0.57492 0.0
loop_
_geom_bond_atom_site_label_1
_geom_bond_atom_site_label_2
_geom_bond_distance
_geom_bond_site_symmetry_2
_ccdc_geom_bond_type
O0 Zn1 1.953 . S
O0 C16 1.225 . S
Zn1 O0 1.953 . S
Zn1 O2 1.949 . S
Zn1 O8 1.919 1_554 S
Zn1 O13 1.924 . S
O2 Zn1 1.949 . S
O2 Zn3 1.923 1_554 S
O2 Zn4 1.950 . S
O2 Zn5 1.945 . S
Zn3 O2 1.923 1_556 S
Zn3 O6 1.933 . S
Zn3 O9 1.941 . S
Zn3 O10 1.965 . S
Zn4 O2 1.950 . S
Zn4 O11 1.938 . S
Zn4 O12 1.906 . S
Zn4 O22 1.953 . S
Zn5 O2 1.945 . S
Zn5 O7 1.932 1_554 S
Zn5 O14 1.977 . S
Zn5 O15 1.910 . S
O6 Zn3 1.933 . S
O6 C17 1.226 . S
O7 Zn5 1.932 1_556 S
O7 C17 1.307 . S
O8 Zn1 1.919 1_556 S
O8 C19 1.253 . S
O9 Zn3 1.941 . S
O9 C19 1.283 . S
O10 Zn3 1.965 . S
O10 C18 1.303 . S
O11 Zn4 1.938 . S
O11 C18 1.247 1_554 S
O12 Zn4 1.906 . S
O12 C20 1.304 . S
O13 Zn1 1.924 . S
O13 C21 1.311 . S
O14 Zn5 1.977 . S
O14 C20 1.272 . S
O15 Zn5 1.910 . S
O15 C21 1.231 . S
C16 O0 1.225 . S
C16 O22 1.298 . S
C17 O6 1.226 . S
C17 O7 1.307 . S
C18 O10 1.303 . S
C18 O11 1.247 1_556 S
C19 O8 1.253 . S
C19 O9 1.283 . S
C20 O12 1.304 . S
C20 O14 1.272 . S
C21 O13 1.311 . S
C21 O15 1.231 . S
O22 Zn4 1.953 . S
O22 C16 1.298 . S
O23 Zn24 1.953 . S
O23 C39 1.225 . S
Zn24 O23 1.953 . S
Zn24 O25 1.949 . S
Zn24 O31 1.919 . S
Zn24 O36 1.924 . S
O25 Zn24 1.949 . S
O25 Zn26 1.923 . S
O25 Zn27 1.950 . S
O25 Zn28 1.945 . S
Zn26 O25 1.923 . S
Zn26 O29 1.933 . S
Zn26 O32 1.941 . S
Zn26 O33 1.965 . S
Zn27 O25 1.950 . S
Zn27 O34 1.938 . S
Zn27 O35 1.906 . S
Zn27 O45 1.953 . S
Zn28 O25 1.945 . S
Zn28 O30 1.932 . S
Zn28 O37 1.977 . S
Zn28 O38 1.910 . S
O29 Zn26 1.933 . S
O29 C40 1.226 . S
O30 Zn28 1.932 . S
O30 C40 1.307 . S
O31 Zn24 1.919 . S
O31 C42 1.253 . S
O32 Zn26 1.941 . S
O32 C42 1.283 . S
O33 Zn26 1.965 . S
O33 C41 1.303 . S
O34 Zn27 1.938 . S
O34 C41 1.247 . S
O35 Zn27 1.906 . S
O35 C43 1.304 . S
O36 Zn24 1.924 . S
O36 C44 1.311 . S
O37 Zn28 1.977 . S
O37 C43 1.272 . S
O38 Zn28 1.910 . S
O38 C44 1.231 . S
C39 O23 1.225 . S
C39 O45 1.298 . S
C40 O29 1.226 . S
C40 O30 1.307 . S
C41 O33 1.303 . S
C41 O34 1.247 . S
C42 O31 1.253 . S
C42 O32 1.283 . S
C43 O35 1.304 . S
C43 O37 1.272 . S
C44 O36 1.311 . S
C44 O38 1.231 . S
O45 Zn27 1.953 . S
O45 C39 1.298 . S
O46 Zn47 1.953 . S
O46 C62 1.225 . S
Zn47 O46 1.953 . S
Zn47 O48 1.949 . S
Zn47 O54 1.919 . S
Zn47 O59 1.924 . S
O48 Zn47 1.949 . S
O48 Zn49 1.923 . S
O48 Zn50 1.950 . S
O48 Zn51 1.945 . S
Zn49 O48 1.923 . S
Zn49 O52 1.933 . S
Zn49 O55 1.941 . S
Zn49 O56 1.965 . S
Zn50 O48 1.950 . S
Zn50 O57 1.938 . S
Zn50 O58 1.906 . S
Zn50 O68 1.953 . S
Zn51 O48 1.945 . S
Zn51 O53 1.932 . S
Zn51 O60 1.977 . S
Zn51 O61 1.910 . S
O52 Zn49 1.933 . S
O52 C63 1.226 . S
O53 Zn51 1.932 . S
O53 C63 1.307 . S
O54 Zn47 1.919 . S
O54 C65 1.253 . S
O55 Zn49 1.941 . S
O55 C65 1.283 . S
O56 Zn49 1.965 . S
O56 C64 1.303 . S
O57 Zn50 1.938 . S
O57 C64 1.247 . S
O58 Zn50 1.906 . S
O58 C66 1.304 . S
O59 Zn47 1.924 . S
O59 C67 1.311 . S
O60 Zn51 1.977 . S
O60 C66 1.272 . S
O61 Zn51 1.910 . S
O61 C67 1.231 . S
C62 O46 1.225 . S
C62 O68 1.298 . S
C63 O52 1.226 . S
C63 O53 1.307 . S
C64 O56 1.303 . S
C64 O57 1.247 . S
C65 O54 1.253 . S
C65 O55 1.283 . S
C66 O58 1.304 . S
C66 O60 1.272 . S
C67 O59 1.311 . S
C67 O61 1.231 . S
O68 Zn50 1.953 . S
O68 C62 1.298 . S
O69 Zn70 1.953 . S
O69 C85 1.225 . S
Zn70 O69 1.953 . S
Zn70 O71 1.949 . S
Zn70 O77 1.919 . S
Zn70 O82 1.924 . S
O71 Zn70 1.949 . S
O71 Zn72 1.923 . S
O71 Zn73 1.950 . S
O71 Zn74 1.945 . S
Zn72 O71 1.923 . S
Zn72 O75 1.933 . S
Zn72 O78 1.941 . S
Zn72 O79 1.965 . S
Zn73 O71 1.950 . S
Zn73 O80 1.938 . S
Zn73 O81 1.906 . S
Zn73 O91 1.953 . S
Zn74 O71 1.945 . S
Zn74 O76 1.932 . S
Zn74 O83 1.977 . S
Zn74 O84 1.910 . S
O75 Zn72 1.933 . S
O75 C86 1.226 . S
O76 Zn74 1.932 . S
O76 C86 1.307 . S
O77 Zn70 1.919 . S
O77 C88 1.253 . S
O78 Zn72 1.941 . S
O78 C88 1.283 . S
O79 Zn72 1.965 . S
O79 C87 1.303 . S
O80 Zn73 1.938 . S
O80 C87 1.247 . S
O81 Zn73 1.906 . S
O81 C89 1.304 . S
O82 Zn70 1.924 . S
O82 C90 1.311 . S
O83 Zn74 1.977 . S
O83 C89 1.272 . S
O84 Zn74 1.910 . S
O84 C90 1.231 . S
C85 O69 1.225 . S
C85 O91 1.298 . S
C86 O75 1.226 . S
C86 O76 1.307 . S
C87 O79 1.303 . S
C87 O80 1.247 . S
C88 O77 1.253 . S
C88 O78 1.283 . S
C89 O81 1.304 . S
C89 O83 1.272 . S
C90 O82 1.311 . S
C90 O84 1.231 . S
O91 Zn73 1.953 . S
O91 C85 1.298 . S
O92 Zn93 1.953 . S
O92 C108 1.225 . S
Zn93 O92 1.953 . S
Zn93 O94 1.949 . S
Zn93 O100 1.919 . S
Zn93 O105 1.924 . S
O94 Zn93 1.949 . S
O94 Zn95 1.923 . S
O94 Zn96 1.950 . S
O94 Zn97 1.945 . S
Zn95 O94 1.923 . S
Zn95 O98 1.933 . S
Zn95 O101 1.941 . S
Zn95 O102 1.965 . S
Zn96 O94 1.950 . S
Zn96 O103 1.938 . S
Zn96 O104 1.906 . S
Zn96 O114 1.953 . S
Zn97 O94 1.945 . S
Zn97 O99 1.932 . S
Zn97 O106 1.977 . S
Zn97 O107 1.910 . S
O98 Zn95 1.933 . S
O98 C109 1.226 . S
O99 Zn97 1.932 . S
O99 C109 1.307 . S
O100 Zn93 1.919 . S
O100 C111 1.253 . S
O101 Zn95 1.941 . S
O101 C111 1.283 . S
O102 Zn95 1.965 . S
O102 C110 1.303 . S
O103 Zn96 1.938 . S
O103 C110 1.247 . S
O104 Zn96 1.906 . S
O104 C112 1.304 . S
O105 Zn93 1.924 . S
O105 C113 1.311 . S
O106 Zn97 1.977 . S
O106 C112 1.272 . S
O107 Zn97 1.910 . S
O107 C113 1.231 . S
C108 O92 1.225 . S
C108 O114 1.298 . S
C109 O98 1.226 . S
C109 O99 1.307 . S
C110 O102 1.303 . S
C110 O103 1.247 . S
C111 O100 1.253 . S
C111 O101 1.283 . S
C112 O104 1.304 . S
C112 O106 1.272 . S
C113 O105 1.311 . S
C113 O107 1.231 . S
O114 Zn96 1.953 . S
O114 C108 1.298 . S
O115 Zn116 1.953 . S
O115 C131 1.225 . S
Zn116 O115 1.953 . S
Zn116 O117 1.949 . S
Zn116 O123 1.919 . S
Zn116 O128 1.924 . S
O117 Zn116 1.949 . S
O117 Zn118 1.923 . S
O117 Zn119 1.950 . S
O117 Zn120 1.945 . S
Zn118 O117 1.923 . S
Zn118 O121 1.933 . S
Zn118 O124 1.941 . S
Zn118 O125 1.965 . S
Zn119 O117 1.950 . S
Zn119 O126 1.938 . S
Zn119 O127 1.906 . S
Zn119 O137 1.953 . S
Zn120 O117 1.945 . S
Zn120 O122 1.932 . S
Zn120 O129 1.977 . S
Zn120 O130 1.910 . S
O121 Zn118 1.933 . S
O121 C132 1.226 . S
O122 Zn120 1.932 . S
O122 C132 1.307 . S
O123 Zn116 1.919 . S
O123 C134 1.253 . S
O124 Zn118 1.941 . S
O124 C134 1.283 . S
O125 Zn118 1.965 . S
O125 C133 1.303 . S
O126 Zn119 1.938 . S
O126 C133 1.247 . S
O127 Zn119 1.906 . S
O127 C135 1.304 . S
O128 Zn116 1.924 . S
O128 C136 1.311 . S
O129 Zn120 1.977 . S
O129 C135 1.272 . S
O130 Zn120 1.910 . S
O130 C136 1.231 . S
C131 O115 1.225 . S
C131 O137 1.298 . S
C132 O121 1.226 . S
C132 O122 1.307 . S
C133 O125 1.303 . S
C133 O126 1.247 . S
C134 O123 1.253 . S
C134 O124 1.283 . S
C135 O127 1.304 . S
C135 O129 1.272 . S
C136 O128 1.311 . S
C136 O130 1.231 . S
O137 Zn119 1.953 . S
O137 C131 1.298 . S
H138 C144 0.930 1_545 S
H139 C148 0.930 . S
H140 C153 0.929 . S
H141 C151 0.929 . S
H142 C146 0.929 1_554 S
H143 C152 0.929 . S
C144 H138 0.930 1_565 S
C144 C145 1.367 . S
C144 C152 1.378 . S
C145 C144 1.367 . S
C145 C153 1.433 1_556 S
C146 H142 0.929 1_556 S
C146 C148 1.378 . S
C146 C150 1.350 . S
C147 C150 1.463 . S
C147 C152 1.350 . S
C147 N155 1.427 1_556 S
C148 H139 0.930 . S
C148 C146 1.378 . S
C148 C149 1.367 . S
C149 C148 1.367 . S
C149 C151 1.433 . S
C150 C146 1.350 . S
C150 C147 1.463 . S
C150 N154 1.427 . S
C151 H141 0.929 . S
C151 C149 1.433 . S
C151 N154 1.384 . S
C152 H143 0.929 . S
C152 C144 1.378 . S
C152 C147 1.350 . S
C153 H140 0.929 . S
C153 C145 1.433 1_554 S
C153 N155 1.384 . S
N154 C150 1.427 . S
N154 C151 1.384 . S
N155 C147 1.427 1_554 S
N155 C153 1.384 . S
H156 C162 0.930 . S
H157 C166 0.930 . S
H158 C171 0.929 . S
H159 C169 0.929 . S
H160 C164 0.929 . S
H161 C170 0.929 . S
C162 H156 0.930 . S
C162 C163 1.367 . S
C162 C170 1.378 . S
C163 C162 1.367 . S
C163 C171 1.433 . S
C164 H160 0.929 . S
C164 C166 1.378 . S
C164 C168 1.350 . S
C165 C168 1.463 . S
C165 C170 1.350 . S
C165 N173 1.427 . S
C166 H157 0.930 . S
C166 C164 1.378 . S
C166 C167 1.367 . S
C167 C166 1.367 . S
C167 C169 1.433 . S
C168 C164 1.350 . S
C168 C165 1.463 . S
C168 N172 1.427 . S
C169 H159 0.929 . S
C169 C167 1.433 . S
C169 N172 1.384 . S
C170 H161 0.929 . S
C170 C162 1.378 . S
C170 C165 1.350 . S
C171 H158 0.929 . S
C171 C163 1.433 . S
C171 N173 1.384 . S
N172 C168 1.427 . S
N172 C169 1.384 . S
N173 C165 1.427 . S
N173 C171 1.384 . S
H174 C180 0.930 1_655 S
H175 C184 0.930 . S
H176 C189 0.929 . S
H177 C187 0.929 . S
H178 C182 0.929 . S
H179 C188 0.929 . S
C180 H174 0.930 1_455 S
C180 C181 1.367 . S
C180 C188 1.378 . S
C181 C180 1.367 . S
C181 C189 1.433 . S
C182 H178 0.929 . S
C182 C184 1.378 . S
C182 C186 1.350 . S
C183 C186 1.463 . S
C183 C188 1.350 . S
C183 N191 1.427 . S
C184 H175 0.930 . S
C184 C182 1.378 . S
C184 C185 1.367 . S
C185 C184 1.367 . S
C185 C187 1.433 . S
C186 C182 1.350 . S
C186 C183 1.463 . S
C186 N190 1.427 . S
C187 H177 0.929 . S
C187 C185 1.433 . S
C187 N190 1.384 . S
C188 H179 0.929 . S
C188 C180 1.378 . S
C188 C183 1.350 . S
C189 H176 0.929 . S
C189 C181 1.433 . S
C189 N191 1.384 . S
N190 C186 1.427 . S
N190 C187 1.384 . S
N191 C183 1.427 . S
N191 C189 1.384 . S
H192 C198 0.930 . S
H193 C202 0.930 1_565 S
H194 C207 0.929 . S
H195 C205 0.929 . S
H196 C200 0.929 . S
H197 C206 0.929 . S
C198 H192 0.930 . S
C198 C199 1.367 . S
C198 C206 1.378 . S
C199 C198 1.367 . S
C199 C207 1.433 . S
C200 H196 0.929 . S
C200 C202 1.378 . S
C200 C204 1.350 . S
C201 C204 1.463 . S
C201 C206 1.350 . S
C201 N209 1.427 . S
C202 H193 0.930 1_545 S
C202 C200 1.378 . S
C202 C203 1.367 . S
C203 C202 1.367 . S
C203 C205 1.433 . S
C204 C200 1.350 . S
C204 C201 1.463 . S
C204 N208 1.427 . S
C205 H195 0.929 . S
C205 C203 1.433 . S
C205 N208 1.384 . S
C206 H197 0.929 . S
C206 C198 1.378 . S
C206 C201 1.350 . S
C207 H194 0.929 . S
C207 C199 1.433 . S
C207 N209 1.384 . S
N208 C204 1.427 . S
N208 C205 1.384 . S
N209 C201 1.427 . S
N209 C207 1.384 . S
H210 C216 0.930 . S
H211 C220 0.930 . S
H212 C225 0.929 . S
H213 C223 0.929 . S
H214 C218 0.929 . S
H215 C224 0.929 . S
C216 H210 0.930 . S
C216 C217 1.367 . S
C216 C224 1.378 . S
C217 C216 1.367 . S
C217 C225 1.433 . S
C218 H214 0.929 . S
C218 C220 1.378 . S
C218 C222 1.350 . S
C219 C222 1.463 . S
C219 C224 1.350 . S
C219 N227 1.427 . S
C220 H211 0.930 . S
C220 C218 1.378 . S
C220 C221 1.367 . S
C221 C220 1.367 . S
C221 C223 1.433 . S
C222 C218 1.350 . S
C222 C219 1.463 . S
C222 N226 1.427 . S
C223 H213 0.929 . S
C223 C221 1.433 . S
C223 N226 1.384 . S
C224 H215 0.929 . S
C224 C216 1.378 . S
C224 C219 1.350 . S
C225 H212 0.929 . S
C225 C217 1.433 . S
C225 N227 1.384 . S
N226 C222 1.427 . S
N226 C223 1.384 . S
N227 C219 1.427 . S
N227 C225 1.384 . S
H228 C234 0.930 . S
H229 C238 0.930 . S
H230 C243 0.929 1_455 S
H231 C241 0.929 . S
H232 C236 0.929 . S
H233 C242 0.929 . S
C234 H228 0.930 . S
C234 C235 1.367 . S
C234 C242 1.378 . S
C235 C234 1.367 . S
C235 C243 1.433 . S
C236 H232 0.929 . S
C236 C238 1.378 . S
C236 C240 1.350 . S
C237 C240 1.463 . S
C237 C242 1.350 . S
C237 N245 1.427 . S
C238 H229 0.930 . S
C238 C236 1.378 . S
C238 C239 1.367 . S
C239 C238 1.367 . S
C239 C241 1.433 . S
C240 C236 1.350 . S
C240 C237 1.463 . S
C240 N244 1.427 . S
C241 H231 0.929 . S
C241 C239 1.433 . S
C241 N244 1.384 . S
C242 H233 0.929 . S
C242 C234 1.378 . S
C242 C237 1.350 . S
C243 H230 0.929 1_655 S
C243 C235 1.433 . S
C243 N245 1.384 . S
N244 C240 1.427 . S
N244 C241 1.384 . S
N245 C237 1.427 . S
N245 C243 1.384 . S
H246 C252 0.930 . S
H247 C256 0.930 . S
H248 C261 0.929 . S
H249 C259 0.929 . S
H250 C254 0.929 1_545 S
H251 C260 0.929 . S
C252 H246 0.930 . S
C252 C253 1.367 1_565 S
C252 C260 1.378 . S
C253 C252 1.367 1_545 S
C253 C261 1.433 . S
C254 H250 0.929 1_565 S
C254 C256 1.378 . S
C254 C258 1.350 . S
C255 C258 1.463 . S
C255 C260 1.350 . S
C255 N263 1.427 1_565 S
C256 H247 0.930 . S
C256 C254 1.378 . S
C256 C257 1.367 . S
C257 C256 1.367 . S
C257 C259 1.433 . S
C258 C254 1.350 . S
C258 C255 1.463 . S
C258 N262 1.427 . S
C259 H249 0.929 . S
C259 C257 1.433 . S
C259 N262 1.384 . S
C260 H251 0.929 . S
C260 C252 1.378 . S
C260 C255 1.350 . S
C261 H248 0.929 . S
C261 C253 1.433 . S
C261 N263 1.384 . S
N262 C258 1.427 . S
N262 C259 1.384 . S
N263 C255 1.427 1_545 S
N263 C261 1.384 . S
H264 C270 0.930 . S
H265 C274 0.930 . S
H266 C279 0.929 . S
H267 C277 0.929 . S
H268 C272 0.929 . S
H269 C278 0.929 . S
C270 H264 0.930 . S
C270 C271 1.367 . S
C270 C278 1.378 . S
C271 C270 1.367 . S
C271 C279 1.433 . S
C272 H268 0.929 . S
C272 C274 1.378 . S
C272 C276 1.350 . S
C273 C276 1.463 . S
C273 C278 1.350 . S
C273 N281 1.427 . S
C274 H265 0.930 . S
C274 C272 1.378 . S
C274 C275 1.367 . S
C275 C274 1.367 . S
C275 C277 1.433 . S
C276 C272 1.350 . S
C276 C273 1.463 . S
C276 N280 1.427 . S
C277 H267 0.929 . S
C277 C275 1.433 . S
C277 N280 1.384 . S
C278 H269 0.929 . S
C278 C270 1.378 . S
C278 C273 1.350 . S
C279 H266 0.929 . S
C279 C271 1.433 . S
C279 N281 1.384 . S
N280 C276 1.427 . S
N280 C277 1.384 . S
N281 C273 1.427 . S
N281 C279 1.384 . S
H282 C288 0.930 1_655 S
H283 C292 0.930 . S
H284 C297 0.929 . S
H285 C295 0.929 . S
H286 C290 0.929 . S
H287 C296 0.929 1_655 S
C288 H282 0.930 1_455 S
C288 C289 1.367 . S
C288 C296 1.378 . S
C289 C288 1.367 . S
C289 C297 1.433 . S
C290 H286 0.929 . S
C290 C292 1.378 . S
C290 C294 1.350 . S
C291 C294 1.463 . S
C291 C296 1.350 . S
C291 N299 1.427 . S
C292 H283 0.930 . S
C292 C290 1.378 . S
C292 C293 1.367 1_455 S
C293 C292 1.367 1_655 S
C293 C295 1.433 . S
C294 C290 1.350 . S
C294 C291 1.463 . S
C294 N298 1.427 1_455 S
C295 H285 0.929 . S
C295 C293 1.433 . S
C295 N298 1.384 . S
C296 H287 0.929 1_455 S
C296 C288 1.378 . S
C296 C291 1.350 . S
C297 H284 0.929 . S
C297 C289 1.433 . S
C297 N299 1.384 . S
N298 C294 1.427 1_655 S
N298 C295 1.384 . S
N299 C291 1.427 . S
N299 C297 1.384 . S
H300 C306 0.930 . S
H301 C310 0.930 . S
H302 C315 0.929 . S
H303 C313 0.929 . S
H304 C308 0.929 . S
H305 C314 0.929 . S
C306 H300 0.930 . S
C306 C307 1.367 . S
C306 C314 1.378 1_565 S
C307 C306 1.367 . S
C307 C315 1.433 . S
C308 H304 0.929 . S
C308 C310 1.378 . S
C308 C312 1.350 . S
C309 C312 1.463 . S
C309 C314 1.350 . S
C309 N317 1.427 . S
C310 H301 0.930 . S
C310 C308 1.378 . S
C310 C311 1.367 . S
C311 C310 1.367 . S
C311 C313 1.433 . S
C312 C308 1.350 . S
C312 C309 1.463 . S
C312 N316 1.427 . S
C313 H303 0.929 . S
C313 C311 1.433 . S
C313 N316 1.384 . S
C314 H305 0.929 . S
C314 C306 1.378 1_545 S
C314 C309 1.350 . S
C315 H302 0.929 . S
C315 C307 1.433 . S
C315 N317 1.384 1_565 S
N316 C312 1.427 . S
N316 C313 1.384 . S
N317 C309 1.427 . S
N317 C315 1.384 1_545 S
H318 C324 0.930 . S
H319 C328 0.930 . S
H320 C333 0.929 . S
H321 C331 0.929 . S
H322 C326 0.929 . S
H323 C332 0.929 . S
C324 H318 0.930 . S
C324 C325 1.367 . S
C324 C332 1.378 1_554 S
C325 C324 1.367 . S
C325 C333 1.433 . S
C326 H322 0.929 . S
C326 C328 1.378 . S
C326 C330 1.350 . S
C327 C330 1.463 . S
C327 C332 1.350 . S
C327 N335 1.427 . S
C328 H319 0.930 . S
C328 C326 1.378 . S
C328 C329 1.367 . S
C329 C328 1.367 . S
C329 C331 1.433 . S
C330 C326 1.350 . S
C330 C327 1.463 . S
C330 N334 1.427 . S
C331 H321 0.929 . S
C331 C329 1.433 . S
C331 N334 1.384 . S
C332 H323 0.929 . S
C332 C324 1.378 1_556 S
C332 C327 1.350 . S
C333 H320 0.929 . S
C333 C325 1.433 . S
C333 N335 1.384 1_554 S
N334 C330 1.427 . S
N334 C331 1.384 . S
N335 C327 1.427 . S
N335 C333 1.384 1_556 S
H336 C342 0.930 . S
H337 C346 0.930 . S
H338 C351 0.929 . S
H339 C349 0.929 . S
H340 C344 0.929 . S
H341 C350 0.929 . S
C342 H336 0.930 . S
C342 C343 1.367 1_554 S
C342 C350 1.378 1_455 S
C343 C342 1.367 1_556 S
C343 C351 1.433 . S
C344 H340 0.929 . S
C344 C346 1.378 . S
C344 C348 1.350 . S
C345 C348 1.463 . S
C345 C350 1.350 . S
C345 N353 1.427 . S
C346 H337 0.930 . S
C346 C344 1.378 . S
C346 C347 1.367 . S
C347 C346 1.367 . S
C347 C349 1.433 . S
C348 C344 1.350 . S
C348 C345 1.463 . S
C348 N352 1.427 . S
C349 H339 0.929 . S
C349 C347 1.433 . S
C349 N352 1.384 . S
C350 H341 0.929 . S
C350 C342 1.378 1_655 S
C350 C345 1.350 . S
C351 H338 0.929 . S
C351 C343 1.433 . S
C351 N353 1.384 1_456 S
N352 C348 1.427 . S
N352 C349 1.384 . S
N353 C345 1.427 . S
N353 C351 1.384 1_654 S
H354 C360 0.930 . S
H355 C364 0.930 . S
H356 C369 0.929 . S
H357 C367 0.929 . S
H358 C362 0.929 . S
H359 C368 0.929 . S
C360 H354 0.930 . S
C360 C361 1.367 . S
C360 C368 1.378 . S
C361 C360 1.367 . S
C361 C369 1.433 . S
C362 H358 0.929 . S
C362 C364 1.378 . S
C362 C366 1.350 . S
C363 C366 1.463 . S
C363 C368 1.350 . S
C363 N371 1.427 . S
C364 H355 0.930 . S
C364 C362 1.378 . S
C364 C365 1.367 . S
C365 C364 1.367 . S
C365 C367 1.433 . S
C366 C362 1.350 . S
C366 C363 1.463 . S
C366 N370 1.427 . S
C367 H357 0.929 . S
C367 C365 1.433 . S
C367 N370 1.384 . S
C368 H359 0.929 . S
C368 C360 1.378 . S
C368 C363 1.350 . S
C369 H356 0.929 . S
C369 C361 1.433 . S
C369 N371 1.384 . S
N370 C366 1.427 . S
N370 C367 1.384 . S
N371 C363 1.427 . S
N371 C369 1.384 . S
H372 C378 0.930 . S
H373 C382 0.930 . S
H374 C387 0.929 . S
H375 C385 0.929 . S
H376 C380 0.929 . S
H377 C386 0.929 . S
C378 H372 0.930 . S
C378 C379 1.367 . S
C378 C386 1.378 . S
C379 C378 1.367 . S
C379 C387 1.433 . S
C380 H376 0.929 . S
C380 C382 1.378 . S
C380 C384 1.350 . S
C381 C384 1.463 1_556 S
C381 C386 1.350 . S
C381 N389 1.427 . S
C382 H373 0.930 . S
C382 C380 1.378 . S
C382 C383 1.367 . S
C383 C382 1.367 . S
C383 C385 1.433 . S
C384 C380 1.350 . S
C384 C381 1.463 1_554 S
C384 N388 1.427 . S
C385 H375 0.929 . S
C385 C383 1.433 . S
C385 N388 1.384 . S
C386 H377 0.929 . S
C386 C378 1.378 . S
C386 C381 1.350 . S
C387 H374 0.929 . S
C387 C379 1.433 . S
C387 N389 1.384 . S
N388 C384 1.427 . S
N388 C385 1.384 . S
N389 C381 1.427 . S
N389 C387 1.384 . S
H390 C396 0.930 . S
H391 C400 0.930 . S
H392 C405 0.929 . S
H393 C403 0.929 . S
H394 C398 0.929 . S
H395 C404 0.929 . S
C396 H390 0.930 . S
C396 C397 1.367 . S
C396 C404 1.378 . S
C397 C396 1.367 . S
C397 C405 1.433 . S
C398 H394 0.929 . S
C398 C400 1.378 . S
C398 C402 1.350 . S
C399 C402 1.463 . S
C399 C404 1.350 . S
C399 N407 1.427 . S
C400 H391 0.930 . S
C400 C398 1.378 . S
C400 C401 1.367 . S
C401 C400 1.367 . S
C401 C403 1.433 . S
C402 C398 1.350 . S
C402 C399 1.463 . S
C402 N406 1.427 . S
C403 H393 0.929 . S
C403 C401 1.433 . S
C403 N406 1.384 . S
C404 H395 0.929 . S
C404 C396 1.378 . S
C404 C399 1.350 . S
C405 H392 0.929 . S
C405 C397 1.433 . S
C405 N407 1.384 . S
N406 C402 1.427 . S
N406 C403 1.384 . S
N407 C399 1.427 . S
N407 C405 1.384 . S
H408 C414 0.930 . S
H409 C418 0.930 . S
H410 C423 0.929 . S
H411 C421 0.929 . S
H412 C416 0.929 . S
H413 C422 0.929 . S
C414 H408 0.930 . S
C414 C415 1.367 . S
C414 C422 1.378 . S
C415 C414 1.367 . S
C415 C423 1.433 . S
C416 H412 0.929 . S
C416 C418 1.378 . S
C416 C420 1.350 . S
C417 C420 1.463 . S
C417 C422 1.350 . S
C417 N425 1.427 . S
C418 H409 0.930 . S
C418 C416 1.378 . S
C418 C419 1.367 . S
C419 C418 1.367 . S
C419 C421 1.433 . S
C420 C416 1.350 . S
C420 C417 1.463 . S
C420 N424 1.427 . S
C421 H411 0.929 . S
C421 C419 1.433 . S
C421 N424 1.384 . S
C422 H413 0.929 . S
C422 C414 1.378 . S
C422 C417 1.350 . S
C423 H410 0.929 . S
C423 C415 1.433 . S
C423 N425 1.384 . S
N424 C420 1.427 . S
N424 C421 1.384 . S
N425 C417 1.427 . S
N425 C423 1.384 . S
H426 C432 0.930 . S
H427 C436 0.930 . S
H428 C441 0.929 . S
H429 C439 0.929 . S
H430 C434 0.929 . S
H431 C440 0.929 . S
C432 H426 0.930 . S
C432 C433 1.367 . S
C432 C440 1.378 . S
C433 C432 1.367 . S
C433 C441 1.433 . S
C434 H430 0.929 . S
C434 C436 1.378 . S
C434 C438 1.350 . S
C435 C438 1.463 . S
C435 C440 1.350 . S
C435 N443 1.427 . S
C436 H427 0.930 . S
C436 C434 1.378 . S
C436 C437 1.367 . S
C437 C436 1.367 . S
C437 C439 1.433 . S
C438 C434 1.350 . S
C438 C435 1.463 . S
C438 N442 1.427 . S
C439 H429 0.929 . S
C439 C437 1.433 . S
C439 N442 1.384 . S
C440 H431 0.929 . S
C440 C432 1.378 . S
C440 C435 1.350 . S
C441 H428 0.929 . S
C441 C433 1.433 . S
C441 N443 1.384 . S
N442 C438 1.427 . S
N442 C439 1.384 . S
N443 C435 1.427 . S
N443 C441 1.384 . S
H444 C450 0.930 . S
H445 C454 0.930 . S
H446 C459 0.929 . S
H447 C457 0.929 . S
H448 C452 0.929 . S
H449 C458 0.929 . S
C450 H444 0.930 . S
C450 C451 1.367 . S
C450 C458 1.378 . S
C451 C450 1.367 . S
C451 C459 1.433 . S
C452 H448 0.929 . S
C452 C454 1.378 . S
C452 C456 1.350 . S
C453 C456 1.463 . S
C453 C458 1.350 . S
C453 N461 1.427 . S
C454 H445 0.930 . S
C454 C452 1.378 . S
C454 C455 1.367 . S
C455 C454 1.367 . S
C455 C457 1.433 . S
C456 C452 1.350 . S
C456 C453 1.463 . S
C456 N460 1.427 . S
C457 H447 0.929 . S
C457 C455 1.433 . S
C457 N460 1.384 . S
C458 H449 0.929 . S
C458 C450 1.378 . S
C458 C453 1.350 . S
C459 H446 0.929 . S
C459 C451 1.433 . S
C459 N461 1.384 . S
N460 C456 1.427 . S
N460 C457 1.384 . S
N461 C453 1.427 . S
N461 C459 1.384 . S
C145 C18 1.057 1_565 S
C149 C135 1.057 . S
C163 C41 1.056 . S
C167 C20 1.060 . S
C181 C64 1.057 1_455 S
C185 C43 1.056 . S
C199 C66 1.053 . S
C203 C87 1.061 1_545 S
C217 C89 1.053 . S
C221 C110 1.061 . S
C235 C133 1.057 1_655 S
C239 C112 1.059 . S
C253 C16 1.558 . S
C257 C88 1.558 . S
C271 C39 1.560 . S
C275 C111 1.555 . S
C289 C134 1.555 . S
C293 C62 1.561 . S
C307 C85 1.555 . S
C311 C19 1.561 . S
C325 C42 1.560 . S
C329 C108 1.555 . S
C343 C131 1.560 . S
C347 C65 1.555 . S
C361 C17 1.290 . S
C365 C113 1.305 . S
C379 C136 1.305 . S
C383 C40 1.290 . S
C397 C21 1.300 . S
C401 C63 1.284 . S
C415 C86 1.280 . S
C419 C44 1.299 . S
C433 C67 1.298 . S
C437 C109 1.280 . S
C451 C90 1.298 . S
C455 C132 1.280 . S
