# Generated by pormake.
# Topology mmt, (4)-cn, num edge types: 1
# Building blocks:
#     Node 0, Type 0, BuildingBlock: QUQFOY_clean_sbu_3, # of connection points: 4
#     Node 1, Type 0, BuildingBlock: QUQFOY_clean_sbu_3, # of connection points: 4
#     Node 2, Type 0, BuildingBlock: QUQFOY_clean_sbu_3, # of connection points: 4
#     Node 3, Type 0, BuildingBlock: QUQFOY_clean_sbu_3, # of connection points: 4
#     Node 4, Type 0, BuildingBlock: QUQFOY_clean_sbu_3, # of connection points: 4
#     Node 5, Type 0, BuildingBlock: QUQFOY_clean_sbu_3, # of connection points: 4
#     Node 6, Type 0, BuildingBlock: QUQFOY_clean_sbu_3, # of connection points: 4
#     Node 7, Type 0, BuildingBlock: QUQFOY_clean_sbu_3, # of connection points: 4
#     Edge 8, Type (0, 0), BuildingBlock: TEMPAE_clean_linker_10, # of connection points: 2
#     Edge 9, Type (0, 0), BuildingBlock: TEMPAE_clean_linker_10, # of connection points: 2
#     Edge 10, Type (0, 0), BuildingBlock: TEMPAE_clean_linker_10, # of connection points: 2
#     Edge 11, Type (0, 0), BuildingBlock: TEMPAE_clean_linker_10, # of connection points: 2
#     Edge 12, Type (0, 0), BuildingBlock: TEMPAE_clean_linker_10, # of connection points: 2
#     Edge 13, Type (0, 0), BuildingBlock: TEMPAE_clean_linker_10, # of connection points: 2
#     Edge 14, Type (0, 0), BuildingBlock: TEMPAE_clean_linker_10, # of connection points: 2
#     Edge 15, Type (0, 0), BuildingBlock: TEMPAE_clean_linker_10, # of connection points: 2
#     Edge 16, Type (0, 0), BuildingBlock: TEMPAE_clean_linker_10, # of connection points: 2
#     Edge 17, Type (0, 0), BuildingBlock: TEMPAE_clean_linker_10, # of connection points: 2
#     Edge 18, Type (0, 0), BuildingBlock: TEMPAE_clean_linker_10, # of connection points: 2
#     Edge 19, Type (0, 0), BuildingBlock: TEMPAE_clean_linker_10, # of connection points: 2
#     Edge 20, Type (0, 0), BuildingBlock: TEMPAE_clean_linker_10, # of connection points: 2
#     Edge 21, Type (0, 0), BuildingBlock: TEMPAE_clean_linker_10, # of connection points: 2
#     Edge 22, Type (0, 0), BuildingBlock: TEMPAE_clean_linker_10, # of connection points: 2
#     Edge 23, Type (0, 0), BuildingBlock: TEMPAE_clean_linker_10, # of connection points: 2
# Relax obj value: 0.026
# Max RMSD: 0.041
# Mean RMSD: 0.041
data_MOF--net-mmt--node1-QUQFOY_clean_sbu_3--edge1-TEMPAE_clean_linker_10
_symmetry_space_group_name_H-M    P1
_symmetry_Int_Tables_number       1
_symmetry_cell_setting            triclinic
loop_
_symmetry_equiv_pos_as_xyz
'x, y, z'
_cell_length_a     23.006474
_cell_length_b     38.546208
_cell_length_c     47.073229
_cell_angle_alpha  90.04638
_cell_angle_beta   90.035078
_cell_angle_gamma 89.996801
loop_
_atom_site_label
_atom_site_type_symbol
_atom_site_fract_x
_atom_site_fract_y
_atom_site_fract_z
_atom_type_partial_charge
C0 C 0.082 0.66733 0.32503 0.0
O1 O 0.05528 0.66724 0.30142 0.0
Cd2 Cd 0.00699 0.61747 0.28145 0.0
O3 O 0.08019 0.64081 0.3411 0.0
Cd4 Cd 0.03337 0.58297 0.34024 0.0
C5 C 0.11754 0.55761 0.2859 0.0
O6 O 0.94206 0.58941 0.31342 0.0
O7 O 0.9808 0.53833 0.316 0.0
O8 O 0.98395 0.58353 0.38584 0.0
C9 C 0.93823 0.55704 0.30842 0.0
O10 O 0.08355 0.57586 0.27061 0.0
C11 C 0.01629 0.56085 0.39732 0.0
O12 O 0.11248 0.55727 0.31287 0.0
O13 O 0.05854 0.54943 0.38267 0.0
C14 C 0.39765 0.84463 0.3254 0.0
O15 O 0.43018 0.84084 0.30383 0.0
Cd16 Cd 0.49017 0.88555 0.28349 0.0
O17 O 0.39873 0.87279 0.33957 0.0
Cd18 Cd 0.45346 0.92815 0.33799 0.0
C19 C 0.38482 0.94814 0.27712 0.0
O20 O 0.54965 0.91248 0.31858 0.0
O21 O 0.52324 0.96615 0.31674 0.0
O22 O 0.47071 0.92652 0.38919 0.0
C23 C 0.56247 0.9437 0.31256 0.0
O24 O 0.42142 0.9282 0.265 0.0
C25 C 0.45315 0.95734 0.39346 0.0
O26 O 0.38335 0.95089 0.30409 0.0
O27 O 0.43335 0.9738 0.3722 0.0
C28 C 0.58406 0.32507 0.16285 0.0
O29 O 0.55764 0.32412 0.1865 0.0
Cd30 Cd 0.50893 0.37327 0.20741 0.0
O31 O 0.58133 0.35212 0.14742 0.0
Cd32 Cd 0.53322 0.40943 0.1495 0.0
C33 C 0.61833 0.43383 0.20372 0.0
O34 O 0.44236 0.40226 0.17665 0.0
O35 O 0.48114 0.45339 0.17465 0.0
O36 O 0.48286 0.40935 0.10413 0.0
C37 C 0.43866 0.43455 0.1821 0.0
O38 O 0.58496 0.41498 0.21882 0.0
C39 C 0.51472 0.43232 0.09273 0.0
O40 O 0.61269 0.43486 0.17678 0.0
O41 O 0.557 0.4438 0.10736 0.0
C42 C 0.89891 0.14687 0.15233 0.0
O43 O 0.93097 0.14812 0.17429 0.0
Cd44 Cd 0.99082 0.10151 0.1918 0.0
O45 O 0.89982 0.12031 0.13622 0.0
Cd46 Cd 0.95232 0.0642 0.13447 0.0
C47 C 0.88686 0.03742 0.19461 0.0
O48 O 0.04801 0.07626 0.15526 0.0
O49 O 0.01888 0.02294 0.15438 0.0
O50 O 0.9887 0.06555 0.0862 0.0
C51 C 0.05911 0.04442 0.15979 0.0
O52 O 0.92273 0.05709 0.20753 0.0
C53 C 0.95652 0.04121 0.07711 0.0
O54 O 0.8847 0.0367 0.16753 0.0
O55 O 0.91972 0.02855 0.09435 0.0
C56 C 0.88604 0.34796 0.66419 0.0
O57 O 0.92061 0.34568 0.68517 0.0
Cd58 Cd 0.98684 0.3902 0.70078 0.0
O59 O 0.8871 0.37453 0.6481 0.0
Cd60 Cd 0.9444 0.42897 0.64497 0.0
C61 C 0.88715 0.4557 0.70729 0.0
O62 O 0.04173 0.41135 0.66155 0.0
O63 O 0.02207 0.46601 0.66066 0.0
O64 O 0.95337 0.42436 0.5933 0.0
C65 C 0.05923 0.44235 0.66484 0.0
O66 O 0.92445 0.43622 0.71938 0.0
C67 C 0.93644 0.45523 0.58865 0.0
O68 O 0.88178 0.45591 0.68035 0.0
O69 O 0.92034 0.47292 0.61 0.0
C70 C 0.57507 0.16493 0.66533 0.0
O71 O 0.54591 0.16309 0.68818 0.0
Cd72 Cd 0.49261 0.11231 0.70327 0.0
O73 O 0.57436 0.13986 0.64772 0.0
Cd74 Cd 0.52751 0.0824 0.64387 0.0
C75 C 0.60063 0.05109 0.70021 0.0
O76 O 0.43203 0.08809 0.66713 0.0
O77 O 0.46829 0.03664 0.66203 0.0
O78 O 0.48714 0.08705 0.59639 0.0
C79 C 0.42558 0.05539 0.66932 0.0
O80 O 0.5647 0.06837 0.71519 0.0
C81 C 0.521 0.06488 0.58526 0.0
O82 O 0.60044 0.05348 0.67319 0.0
O83 O 0.56014 0.05198 0.60112 0.0
C84 C 0.38835 0.64025 0.82261 0.0
O85 O 0.42293 0.64157 0.8016 0.0
Cd86 Cd 0.48861 0.59635 0.78694 0.0
O87 O 0.38877 0.61419 0.83926 0.0
Cd88 Cd 0.44468 0.5593 0.84342 0.0
C89 C 0.38794 0.53122 0.78127 0.0
O90 O 0.54224 0.57619 0.82693 0.0
O91 O 0.52252 0.5216 0.82884 0.0
O92 O 0.45273 0.56516 0.89503 0.0
C93 C 0.55974 0.54511 0.82427 0.0
O94 O 0.42569 0.55017 0.76898 0.0
C95 C 0.43542 0.53447 0.90011 0.0
O96 O 0.38222 0.53176 0.80819 0.0
O97 O 0.41953 0.51632 0.87898 0.0
C98 C 0.07789 0.82284 0.81352 0.0
O99 O 0.04797 0.82215 0.79085 0.0
Cd100 Cd -0.00523 0.87119 0.77253 0.0
O101 O 0.07744 0.84969 0.82928 0.0
Cd102 Cd 0.02811 0.90676 0.82904 0.0
C103 C 0.10434 0.9311 0.77183 0.0
O104 O 0.93154 0.89731 0.80676 0.0
O105 O 0.96676 0.94923 0.80763 0.0
O106 O 0.00442 0.90265 0.87967 0.0
C107 C 0.92412 0.92955 0.80228 0.0
O108 O 0.0673 0.91369 0.75761 0.0
C109 C 0.02474 0.93242 0.88568 0.0
O110 O 0.10392 0.93058 0.79889 0.0
O111 O 0.0489 0.94918 0.86572 0.0
C112 C 0.16492 0.53449 0.2421 0.0
C113 C 0.16267 0.53626 0.27186 0.0
C114 C 0.2078 0.51504 0.22826 0.0
C115 C 0.24967 0.49698 0.24454 0.0
C116 C 0.24693 0.49789 0.27458 0.0
C117 C 0.20336 0.51752 0.28791 0.0
C118 C 0.20934 0.51471 0.19617 0.0
C119 C 0.29108 0.47902 0.29259 0.0
C120 C 0.34121 0.42992 0.20573 0.0
C121 C 0.39055 0.44951 0.19887 0.0
C122 C 0.29521 0.44476 0.22118 0.0
C123 C 0.29912 0.47982 0.23001 0.0
C124 C 0.3494 0.49941 0.22364 0.0
C125 C 0.39433 0.48406 0.20809 0.0
C126 C 0.24202 0.42322 0.22755 0.0
C127 C 0.35533 0.53685 0.23278 0.0
H128 H 0.13341 0.54861 0.22948 0.0
H129 H 0.20177 0.51858 0.31091 0.0
H130 H 0.2494 0.5278 0.18862 0.0
H131 H 0.21058 0.48763 0.18819 0.0
H132 H 0.17119 0.52805 0.18667 0.0
H133 H 0.28027 0.48009 0.31557 0.0
H134 H 0.29409 0.45145 0.28599 0.0
H135 H 0.33463 0.49076 0.28944 0.0
H136 H 0.33818 0.4032 0.1987 0.0
H137 H 0.43252 0.49933 0.20306 0.0
H138 H 0.20364 0.43456 0.2167 0.0
H139 H 0.23283 0.42351 0.25068 0.0
H140 H 0.24701 0.39587 0.2205 0.0
H141 H 0.32121 0.55274 0.22238 0.0
H142 H 0.39846 0.54791 0.22728 0.0
H143 H 0.34895 0.53915 0.25606 0.0
C144 C 0.11744 -0.00178 0.18314 0.0
C145 C 0.11182 0.03309 0.17512 0.0
C146 C 0.16478 0.98697 0.19934 0.0
C147 C 0.20799 0.01111 0.20749 0.0
C148 C 0.20351 0.0462 0.19889 0.0
C149 C 0.15519 0.05685 0.18284 0.0
C150 C 0.16791 0.94933 0.20819 0.0
C151 C 0.24924 0.07249 0.20698 0.0
C152 C 0.29425 0.98352 0.27213 0.0
C153 C 0.34244 0.96741 0.25954 0.0
C154 C 0.2513 -0.00064 0.25544 0.0
C155 C 0.25704 -0.0007 0.2255 0.0
C156 C 0.30697 0.98463 0.21275 0.0
C157 C 0.34896 0.9687 0.22992 0.0
C158 C 0.19839 0.01457 0.26977 0.0
C159 C 0.31481 0.98439 0.1809 0.0
H160 H 0.08415 0.97967 0.17722 0.0
H161 H 0.15109 0.08381 0.17663 0.0
H162 H 0.20897 0.93754 0.2005 0.0
H163 H 0.16796 0.94743 0.23171 0.0
H164 H 0.1309 0.93386 0.19985 0.0
H165 H 0.24071 0.09838 0.19751 0.0
H166 H 0.25088 0.07526 0.23043 0.0
H167 H 0.29273 0.06346 0.19997 0.0
H168 H 0.28899 0.98275 0.29501 0.0
H169 H 0.38645 0.95668 0.22003 0.0
H170 H 0.15956 -0.00118 0.26435 0.0
H171 H 0.1903 0.04131 0.26202 0.0
H172 H 0.20293 0.01529 0.29326 0.0
H173 H 0.28228 0.9668 0.17111 0.0
H174 H 0.35888 0.97551 0.17456 0.0
H175 H 0.30736 0.01068 0.17205 0.0
C176 C 0.66545 0.45661 0.2477 0.0
C177 C 0.66332 0.4551 0.21793 0.0
C178 C 0.70816 0.47603 0.26172 0.0
C179 C 0.75 0.49428 0.24559 0.0
C180 C 0.74742 0.49361 0.21555 0.0
C181 C 0.70397 0.47404 0.20205 0.0
C182 C 0.7095 0.47617 0.29381 0.0
C183 C 0.79157 0.51267 0.19771 0.0
C184 C 0.8408 0.5614 0.28475 0.0
C185 C 0.89025 0.54191 0.29165 0.0
C186 C 0.79499 0.5465 0.2692 0.0
C187 C 0.79922 0.51148 0.2603 0.0
C188 C 0.84958 0.49199 0.26673 0.0
C189 C 0.89431 0.50739 0.28241 0.0
C190 C 0.74165 0.56793 0.2628 0.0
C191 C 0.85585 0.45461 0.25749 0.0
H192 H 0.63392 0.44236 0.2602 0.0
H193 H 0.70247 0.47316 0.17904 0.0
H194 H 0.74961 0.46313 0.30139 0.0
H195 H 0.7105 0.50319 0.30191 0.0
H196 H 0.67139 0.46268 0.30318 0.0
H197 H 0.78097 0.51169 0.1747 0.0
H198 H 0.79432 0.54022 0.20441 0.0
H199 H 0.83519 0.50104 0.20094 0.0
H200 H 0.83757 0.58811 0.29181 0.0
H201 H 0.9326 0.49221 0.28748 0.0
H202 H 0.70328 0.55639 0.27349 0.0
H203 H 0.73266 0.56777 0.23965 0.0
H204 H 0.74634 0.59524 0.26999 0.0
H205 H 0.82179 0.43858 0.26775 0.0
H206 H 0.89903 0.44363 0.26304 0.0
H207 H 0.84964 0.45241 0.23418 0.0
C208 C 0.85416 0.01276 0.24094 0.0
C209 C 0.84587 0.01634 0.21155 0.0
C210 C 0.81272 -0.00392 0.2579 0.0
C211 C 0.76153 0.98294 0.2452 0.0
C212 C 0.75447 0.98462 0.21534 0.0
C213 C 0.79691 0.00122 0.19882 0.0
C214 C 0.82208 -0.00551 0.28964 0.0
C215 C 0.70033 0.97098 0.20105 0.0
C216 C 0.6562 0.92808 0.28835 0.0
C217 C 0.61571 0.95321 0.29686 0.0
C218 C 0.70456 0.93728 0.27171 0.0
C219 C 0.71204 0.9723 0.2634 0.0
C220 C 0.67177 -0.00223 0.27237 0.0
C221 C 0.62437 0.98794 0.28907 0.0
C222 C 0.74711 0.90959 0.26272 0.0
C223 C 0.67816 0.03543 0.26396 0.0
H224 H 0.89237 0.02386 0.2509 0.0
H225 H 0.79039 0.00366 0.17611 0.0
H226 H 0.79219 0.01296 0.3003 0.0
H227 H 0.81203 0.9682 0.29784 0.0
H228 H 0.86737 0.00128 0.29566 0.0
H229 H 0.70471 0.97028 0.17755 0.0
H230 H 0.69004 0.94448 0.20872 0.0
H231 H 0.66292 0.98788 0.20653 0.0
H232 H 0.64968 0.90121 0.29432 0.0
H233 H 0.5934 0.00756 0.29563 0.0
H234 H 0.79177 0.91687 0.26934 0.0
H235 H 0.74731 0.9073 0.23923 0.0
H236 H 0.73643 0.88384 0.27193 0.0
H237 H 0.72048 0.04567 0.27155 0.0
H238 H 0.64293 0.05196 0.27275 0.0
H239 H 0.67772 0.03781 0.24047 0.0
C240 C 0.62972 0.50145 0.80591 0.0
C241 C 0.61593 0.53636 0.81089 0.0
C242 C 0.67888 0.49218 0.7902 0.0
C243 C 0.71573 0.51846 0.77947 0.0
C244 C 0.70393 0.55371 0.78568 0.0
C245 C 0.65381 0.56231 0.80125 0.0
C246 C 0.68986 0.45425 0.78402 0.0
C247 C 0.74297 0.58233 0.77503 0.0
C248 C 0.85895 0.48192 0.75391 0.0
C249 C 0.84717 0.47657 0.72498 0.0
C250 C 0.81817 0.49811 0.77165 0.0
C251 C 0.76406 0.5086 0.76024 0.0
C252 C 0.75332 0.50508 0.73076 0.0
C253 C 0.79522 0.48932 0.71343 0.0
C254 C 0.83165 0.5021 0.80287 0.0
C255 C 0.69592 0.51572 0.71783 0.0
H256 H 0.60093 0.48121 0.81349 0.0
H257 H 0.64351 0.58933 0.80518 0.0
H258 H 0.68718 0.44955 0.76079 0.0
H259 H 0.73424 0.44685 0.79096 0.0
H260 H 0.6581 0.437 0.7948 0.0
H261 H 0.73198 0.60784 0.78463 0.0
H262 H 0.78913 0.57628 0.77973 0.0
H263 H 0.73875 0.58452 0.75162 0.0
H264 H 0.89945 0.47263 0.76289 0.0
H265 H 0.78592 0.48542 0.69107 0.0
H266 H 0.8063 0.4828 0.81518 0.0
H267 H 0.81884 0.52824 0.81051 0.0
H268 H 0.87854 0.49805 0.80747 0.0
H269 H 0.66111 0.49821 0.72562 0.0
H270 H 0.69663 0.51452 0.69425 0.0
H271 H 0.68432 0.54246 0.7244 0.0
C272 C 0.68855 0.01273 0.69936 0.0
C273 C 0.64293 0.02811 0.71459 0.0
C274 C 0.7308 0.99269 0.71325 0.0
C275 C 0.72708 0.98782 0.743 0.0
C276 C 0.67959 0.00181 0.75824 0.0
C277 C 0.63821 0.02189 0.74388 0.0
C278 C 0.78102 0.97827 0.69632 0.0
C279 C 0.674 -0.00295 0.78997 0.0
C280 C 0.82678 0.92217 0.77872 0.0
C281 C 0.87198 0.94373 0.78809 0.0
C282 C 0.77884 0.93606 0.76405 0.0
C283 C 0.77653 0.9722 0.75868 0.0
C284 C 0.82177 0.99401 0.7684 0.0
C285 C 0.86872 0.97953 0.78302 0.0
C286 C 0.73099 0.91217 0.75413 0.0
C287 C 0.82095 0.0327 0.76313 0.0
H288 H 0.69229 0.01718 0.6767 0.0
H289 H 0.60265 0.03324 0.75578 0.0
H290 H 0.82153 0.99214 0.70223 0.0
H291 H 0.78763 0.95042 0.70128 0.0
H292 H 0.77428 0.98108 0.67306 0.0
H293 H 0.63117 0.00595 0.79807 0.0
H294 H 0.67993 0.96939 0.79577 0.0
H295 H 0.70857 0.01205 0.80092 0.0
H296 H 0.82913 0.89449 0.78258 0.0
H297 H 0.90336 -0.00357 0.79027 0.0
H298 H 0.72728 0.91332 0.73065 0.0
H299 H 0.68869 0.92076 0.76298 0.0
H300 H 0.73871 0.88482 0.76051 0.0
H301 H 0.81914 0.03792 0.73998 0.0
H302 H 0.85977 0.04596 0.77205 0.0
H303 H 0.78152 0.04435 0.77278 0.0
C304 C 0.35946 0.50436 0.73491 0.0
C305 C 0.34782 0.51012 0.7638 0.0
C306 C 0.31848 0.48808 0.71732 0.0
C307 C 0.26433 0.47788 0.72882 0.0
C308 C 0.25379 0.48172 0.75829 0.0
C309 C 0.29587 0.4976 0.77547 0.0
C310 C 0.33175 0.48376 0.68611 0.0
C311 C 0.19639 0.47137 0.77133 0.0
C312 C 0.12988 0.48561 0.68322 0.0
C313 C 0.11555 0.45078 0.67827 0.0
C314 C 0.17922 0.49465 0.6989 0.0
C315 C 0.21571 0.4682 0.70966 0.0
C316 C 0.20333 0.43299 0.70352 0.0
C317 C 0.15305 0.42464 0.68795 0.0
C318 C 0.19084 0.53254 0.70497 0.0
C319 C 0.24194 0.40418 0.71424 0.0
H320 H 0.39996 0.51346 0.72583 0.0
H321 H 0.28668 0.50178 0.7978 0.0
H322 H 0.31846 0.45765 0.6786 0.0
H323 H 0.30667 0.50313 0.67371 0.0
H324 H 0.37868 0.4875 0.68148 0.0
H325 H 0.19736 0.47261 0.79491 0.0
H326 H 0.16173 0.48902 0.76358 0.0
H327 H 0.18437 0.44466 0.76481 0.0
H328 H 0.1014 0.50599 0.67559 0.0
H329 H 0.14233 0.39766 0.68406 0.0
H330 H 0.23527 0.53966 0.69796 0.0
H331 H 0.18842 0.53734 0.7282 0.0
H332 H 0.15926 0.54993 0.6942 0.0
H333 H 0.28819 0.40997 0.70954 0.0
H334 H 0.23055 0.37872 0.70467 0.0
H335 H 0.23771 0.40209 0.73765 0.0
C336 C 0.19433 0.96754 0.77148 0.0
C337 C 0.14785 0.95242 0.75668 0.0
C338 C 0.23677 0.98691 0.75718 0.0
C339 C 0.23233 0.99145 0.72742 0.0
C340 C 0.18456 0.97724 0.71249 0.0
C341 C 0.14302 0.95774 0.72728 0.0
C342 C 0.28746 0.00145 0.77375 0.0
C343 C 0.17825 0.98174 0.68077 0.0
C344 C 0.32795 0.05986 0.69282 0.0
C345 C 0.37437 0.03953 0.68306 0.0
C346 C 0.28072 0.04456 0.707 0.0
C347 C 0.28041 0.00825 0.71159 0.0
C348 C 0.3268 0.98764 0.70144 0.0
C349 C 0.37302 0.0035 0.68722 0.0
C350 C 0.23157 0.0672 0.71736 0.0
C351 C 0.32814 0.94883 0.70599 0.0
H352 H 0.19829 0.96366 0.7942 0.0
H353 H 0.10689 0.94648 0.71571 0.0
H354 H 0.32823 0.98859 0.76684 0.0
H355 H 0.29235 0.02959 0.76946 0.0
H356 H 0.28247 -0.00237 0.79701 0.0
H357 H 0.13604 0.9717 0.67276 0.0
H358 H 0.182 0.00954 0.67499 0.0
H359 H 0.21382 0.96773 0.66973 0.0
H360 H 0.32875 0.08769 0.6896 0.0
H361 H 0.40866 0.98757 0.6797 0.0
H362 H 0.22853 0.06569 0.74084 0.0
H363 H 0.18963 0.05776 0.70864 0.0
H364 H 0.23735 0.09479 0.71118 0.0
H365 H 0.3275 0.94299 0.72906 0.0
H366 H 0.36728 0.93653 0.69651 0.0
H367 H 0.28895 0.9367 0.69649 0.0
C368 C 0.04693 0.53242 0.44256 0.0
C369 C 0.00296 0.5468 0.42571 0.0
C370 C 0.0341 0.51796 0.46919 0.0
C371 C 0.97568 0.51692 0.47866 0.0
C372 C 0.93106 0.53113 0.46155 0.0
C373 C 0.94539 0.54639 0.43544 0.0
C374 C 0.08305 0.50394 0.48722 0.0
C375 C 0.86812 0.52965 0.47058 0.0
C376 C 0.94254 0.45026 0.53578 0.0
C377 C 0.9408 0.47104 0.56019 0.0
C378 C 0.95186 0.46502 0.5089 0.0
C379 C 0.9614 0.50122 0.50662 0.0
C380 C 0.95894 0.52233 0.53119 0.0
C381 C 0.94783 0.50703 0.55764 0.0
C382 C 0.95244 0.44183 0.48304 0.0
C383 C 0.9702 0.5609 0.52971 0.0
H384 H 0.09146 0.5328 0.43504 0.0
H385 H 0.91121 0.55712 0.42223 0.0
H386 H 0.08291 0.5168 0.50832 0.0
H387 H 0.07677 0.47577 0.49088 0.0
H388 H 0.12627 0.50793 0.47723 0.0
H389 H 0.83852 0.54111 0.45446 0.0
H390 H 0.8551 0.5023 0.47428 0.0
H391 H 0.86216 0.54375 0.49091 0.0
H392 H 0.93693 0.42243 0.53772 0.0
H393 H 0.94713 0.52313 0.57653 0.0
H394 H -0.00346 0.44157 0.47354 0.0
H395 H 0.92217 0.45202 0.46668 0.0
H396 H 0.93987 0.41472 0.48817 0.0
H397 H 0.01469 0.56564 0.52148 0.0
H398 H 0.966 0.5737 0.55076 0.0
H399 H 0.93938 0.57335 0.51474 0.0
C400 C 0.46804 0.01016 0.42299 0.0
C401 C 0.45951 0.97421 0.42139 0.0
C402 C 0.47904 0.02642 0.4491 0.0
C403 C 0.47964 0.00634 0.47425 0.0
C404 C 0.46938 0.97014 0.47283 0.0
C405 C 0.46038 0.95439 0.4463 0.0
C406 C 0.49138 0.0649 0.44969 0.0
C407 C 0.468 0.94806 0.4993 0.0
C408 C 0.55776 0.03813 0.54041 0.0
C409 C 0.5118 0.05241 0.556 0.0
C410 C 0.54824 0.02402 0.5133 0.0
C411 C 0.49109 0.02317 0.50209 0.0
C412 C 0.44462 0.03774 0.51775 0.0
C413 C 0.45573 0.05269 0.54436 0.0
C414 C 0.59915 0.0097 0.49681 0.0
C415 C 0.38289 0.03649 0.50685 0.0
H416 H 0.46812 0.02544 0.40366 0.0
H417 H 0.45365 0.92659 0.44504 0.0
H418 H 0.45913 0.07837 0.46328 0.0
H419 H 0.53489 0.06964 0.45913 0.0
H420 H 0.49018 0.07666 0.42816 0.0
H421 H 0.45656 0.92063 0.49466 0.0
H422 H 0.51107 0.94862 0.50989 0.0
H423 H 0.43587 0.95868 0.51459 0.0
H424 H 0.60116 0.03802 0.5494 0.0
H425 H 0.42001 0.06336 0.55657 0.0
H426 H 0.60068 0.02153 0.47533 0.0
H427 H 0.59392 0.98131 0.4939 0.0
H428 H 0.64127 0.01457 0.50765 0.0
H429 H 0.37988 0.04955 0.48592 0.0
H430 H 0.35172 0.04908 0.52164 0.0
H431 H 0.36946 0.0091 0.50369 0.0
C432 C 0.44356 0.44652 0.05462 0.0
C433 C 0.50114 0.44634 0.06437 0.0
C434 C 0.42911 0.4614 0.02837 0.0
C435 C 0.47364 0.47544 0.01114 0.0
C436 C 0.53206 0.47474 0.02068 0.0
C437 C 0.54499 0.46067 0.04744 0.0
C438 C 0.36618 0.46255 0.01927 0.0
C439 C 0.58092 0.48859 0.00253 0.0
C440 C 0.44639 0.48343 0.93196 0.0
C441 C 0.43927 0.51934 0.92883 0.0
C442 C 0.45725 0.46876 0.95868 0.0
C443 C 0.45934 0.49046 0.98293 0.0
C444 C 0.4496 0.52657 0.98005 0.0
C445 C 0.44057 0.54069 0.95292 0.0
C446 C 0.46875 0.43027 0.96079 0.0
C447 C 0.44975 0.55035 0.00556 0.0
H448 H 0.40948 0.43582 0.06788 0.0
H449 H 0.58953 0.46045 0.05497 0.0
H450 H 0.35304 0.48976 0.01503 0.0
H451 H 0.36031 0.44786 -0.0008 0.0
H452 H 0.33662 0.4515 0.03557 0.0
H453 H 0.62413 0.48507 0.01267 0.0
H454 H 0.58111 0.47522 0.98164 0.0
H455 H 0.57425 0.51663 -0.00161 0.0
H456 H 0.44603 0.4669 0.91332 0.0
H457 H 0.43488 0.56845 0.95052 0.0
H458 H 0.43796 0.4181 0.97591 0.0
H459 H 0.51325 0.42583 0.96916 0.0
H460 H 0.46473 0.41696 0.93994 0.0
H461 H 0.41956 0.5404 0.02202 0.0
H462 H 0.43685 0.57727 -2e-05 0.0
H463 H 0.49381 0.55104 0.01511 0.0
C464 C 0.01372 0.92741 0.9383 0.0
C465 C 0.01661 0.94812 0.91393 0.0
C466 C 0.00421 0.94236 0.96511 0.0
C467 C -0.00476 0.97864 0.96729 0.0
C468 C -0.00273 -0.00047 0.94261 0.0
C469 C 0.00898 0.98407 0.91627 0.0
C470 C 0.0043 0.91943 -0.0089 0.0
C471 C 0.98622 0.03813 0.94394 0.0
C472 C 0.91877 0.01202 0.03343 0.0
C473 C 0.96528 0.02637 0.0486 0.0
C474 C 0.92768 -0.00311 0.00663 0.0
C475 C 0.98475 -0.00507 -0.00457 0.0
C476 C 0.03191 0.00896 0.01095 0.0
C477 C 0.02141 0.0251 0.03713 0.0
C478 C 0.87609 0.98327 0.99023 0.0
C479 C 0.09359 0.00642 0.00015 0.0
H480 H 0.01972 0.89961 0.93642 0.0
H481 H 0.0104 3e-05 0.89733 0.0
H482 H 0.03722 0.92885 0.00654 0.0
H483 H 0.96141 0.92065 0.00179 0.0
H484 H 0.01396 0.89193 0.98586 0.0
H485 H 0.98674 0.05039 0.92259 0.0
H486 H 0.9434 0.04321 0.95397 0.0
H487 H 0.01968 0.05087 0.95732 0.0
H488 H 0.87537 0.01309 0.04236 0.0
H489 H 0.05752 0.03577 0.0491 0.0
H490 H 0.88081 0.95497 0.98666 0.0
H491 H 0.87412 -0.0042 0.96903 0.0
H492 H 0.83435 0.98803 0.00144 0.0
H493 H 0.10486 0.97887 -0.00397 0.0
H494 H 0.12559 0.01733 0.01541 0.0
H495 H 0.09779 0.02048 0.97971 0.0
C496 C 0.12264 0.72618 0.3147 0.0
C497 C 0.12145 0.69658 0.33201 0.0
C498 C 0.16629 0.75131 0.31781 0.0
C499 C 0.20997 0.7467 0.33868 0.0
C500 C 0.20684 0.71811 0.35746 0.0
C501 C 0.16251 0.69341 0.35395 0.0
C502 C 0.16761 0.7817 0.29759 0.0
C503 C 0.25236 0.71242 0.3801 0.0
C504 C 0.35482 0.78574 0.31769 0.0
C505 C 0.354 0.81754 0.33218 0.0
C506 C 0.30943 0.76176 0.32073 0.0
C507 C 0.26183 0.76978 0.33863 0.0
C508 C 0.26214 0.80097 0.35451 0.0
C509 C 0.30831 0.82448 0.35114 0.0
C510 C 0.31112 0.72856 0.30368 0.0
C511 C 0.21233 0.81036 0.3739 0.0
H512 H 0.09081 0.72908 0.29789 0.0
H513 H 0.16191 0.6707 0.36752 0.0
H514 H 0.17291 0.80635 0.30947 0.0
H515 H 0.20546 0.77913 0.28313 0.0
H516 H 0.12752 0.78338 0.2845 0.0
H517 H 0.23936 0.69194 0.39542 0.0
H518 H 0.29379 0.70449 0.36994 0.0
H519 H 0.26084 0.73678 0.39195 0.0
H520 H 0.39013 0.77997 0.3032 0.0
H521 H 0.30727 0.84896 0.36248 0.0
H522 H 0.27573 0.72878 0.28765 0.0
H523 H 0.30374 0.70588 0.31772 0.0
H524 H 0.35317 0.72499 0.29247 0.0
H525 H 0.1733 0.81639 0.36096 0.0
H526 H 0.22247 0.83324 0.38739 0.0
H527 H 0.20106 0.78819 0.38786 0.0
C528 C 0.85757 0.20532 0.16354 0.0
C529 C 0.85556 0.17472 0.14741 0.0
C530 C 0.81244 0.22973 0.16224 0.0
C531 C 0.76383 0.22334 0.14452 0.0
C532 C 0.76282 0.19339 0.12711 0.0
C533 C 0.80883 0.16948 0.12868 0.0
C534 C 0.81558 0.26161 0.18087 0.0
C535 C 0.71181 0.1857 0.10793 0.0
C536 C 0.62584 0.266 0.17128 0.0
C537 C 0.62399 0.29641 0.15496 0.0
C538 C 0.66944 0.24108 0.16702 0.0
C539 C 0.71249 0.24677 0.14604 0.0
C540 C 0.70897 0.2764 0.1284 0.0
C541 C 0.66463 0.30083 0.133 0.0
C542 C 0.67119 0.20955 0.18603 0.0
C543 C 0.75395 0.28336 0.10577 0.0
H544 H 0.89368 0.20975 0.17789 0.0
H545 H 0.8068 0.14591 0.11614 0.0
H546 H 0.80786 0.28531 0.16805 0.0
H547 H 0.78104 0.2604 0.19728 0.0
H548 H 0.85827 0.26412 0.19172 0.0
H549 H 0.72052 0.16351 0.09347 0.0
H550 H 0.67318 0.17939 0.12105 0.0
H551 H 0.70066 0.20878 0.09497 0.0
H552 H 0.59439 0.26218 0.18813 0.0
H553 H 0.6636 0.3242 0.12022 0.0
H554 H 0.70973 0.21105 0.20017 0.0
H555 H 0.67555 0.18559 0.17313 0.0
H556 H 0.63167 0.2073 0.19945 0.0
H557 H 0.796 0.28995 0.11599 0.0
H558 H 0.74121 0.30515 0.09164 0.0
H559 H 0.76118 0.25988 0.0926 0.0
C560 C 0.65666 0.19336 0.63888 0.0
C561 C 0.61483 0.19469 0.66058 0.0
C562 C 0.69976 0.21899 0.63654 0.0
C563 C 0.70081 0.24678 0.6562 0.0
C564 C 0.6569 0.24927 0.67718 0.0
C565 C 0.61459 0.22315 0.67918 0.0
C566 C 0.74588 0.21537 0.61392 0.0
C567 C 0.65609 0.27876 0.69832 0.0
C568 C 0.8443 0.28954 0.67512 0.0
C569 C 0.84122 0.32078 0.65992 0.0
C570 C 0.79958 0.26488 0.67344 0.0
C571 C 0.75024 0.2717 0.65634 0.0
C572 C 0.74749 0.30273 0.64033 0.0
C573 C 0.79316 0.32684 0.6422 0.0
C574 C 0.8045 0.2319 0.69058 0.0
C575 C 0.69545 0.31098 0.62198 0.0
H576 H 0.65728 0.17152 0.62437 0.0
H577 H 0.58227 0.22455 0.69589 0.0
H578 H 0.75051 0.23994 0.60188 0.0
H579 H 0.78844 0.20991 0.62408 0.0
H580 H 0.73601 0.19409 0.59872 0.0
H581 H 0.61622 0.27863 0.71163 0.0
H582 H 0.69447 0.2768 0.71252 0.0
H583 H 0.65895 0.30403 0.68715 0.0
H584 H 0.88136 0.28453 0.68874 0.0
H585 H 0.79025 0.35096 0.63047 0.0
H586 H 0.79899 0.20897 0.67657 0.0
H587 H 0.76936 0.23099 0.7067 0.0
H588 H 0.84698 0.22973 0.70168 0.0
H589 H 0.68684 0.28936 0.607 0.0
H590 H 0.70145 0.33524 0.6096 0.0
H591 H 0.65631 0.31387 0.63554 0.0
C592 C 0.3469 0.69812 0.80963 0.0
C593 C 0.3442 0.66797 0.82625 0.0
C594 C 0.30244 0.72299 0.81055 0.0
C595 C 0.25381 0.71756 0.82842 0.0
C596 C 0.25166 0.6878 0.84599 0.0
C597 C 0.29699 0.66339 0.84477 0.0
C598 C 0.30668 0.75456 0.79167 0.0
C599 C 0.20047 0.6811 0.86528 0.0
C600 C 0.16015 0.79715 0.84144 0.0
C601 C 0.11789 0.7937 0.82008 0.0
C602 C 0.20335 0.77182 0.84525 0.0
C603 C 0.2041 0.74225 0.82741 0.0
C604 C 0.15973 0.73771 0.80688 0.0
C605 C 0.11728 0.76351 0.80341 0.0
C606 C 0.24989 0.77759 0.86739 0.0
C607 C 0.15864 0.70635 0.78763 0.0
H608 H 0.38331 0.70202 0.79538 0.0
H609 H 0.29441 0.64016 0.85766 0.0
H610 H 0.27114 0.75408 0.77573 0.0
H611 H 0.30132 0.77854 0.80445 0.0
H612 H 0.34886 0.75594 0.78025 0.0
H613 H 0.20744 0.6582 0.87918 0.0
H614 H 0.1919 0.70409 0.87883 0.0
H615 H 0.16094 0.67657 0.85228 0.0
H616 H 0.161 0.82033 0.85448 0.0
H617 H 0.0846 0.76046 0.78701 0.0
H618 H 0.29209 0.78252 0.85673 0.0
H619 H 0.25533 0.75408 0.88071 0.0
H620 H 0.23989 0.79998 0.88143 0.0
H621 H 0.19668 0.70706 0.77316 0.0
H622 H 0.11848 0.70516 0.77455 0.0
H623 H 0.16191 0.68219 0.80032 0.0
loop_
_geom_bond_atom_site_label_1
_geom_bond_atom_site_label_2
_geom_bond_distance
_geom_bond_site_symmetry_2
_ccdc_geom_bond_type
C0 O1 1.306 . S
C0 O3 1.160 . S
O1 C0 1.306 . S
O1 Cd2 2.228 . S
Cd2 O1 2.228 . S
Cd2 O6 2.273 . S
Cd2 O10 2.277 . S
O3 C0 1.160 . S
O3 Cd4 2.203 . S
Cd4 O3 2.203 . S
Cd4 O6 2.411 . S
Cd4 O7 2.333 . S
Cd4 O8 2.352 . S
Cd4 O12 2.277 . S
Cd4 O13 2.356 . S
C5 O10 1.209 . S
C5 O12 1.226 . S
O6 Cd2 2.273 . S
O6 Cd4 2.411 . S
O6 C9 1.320 . S
O7 Cd4 2.333 . S
O7 C9 1.214 . S
O8 Cd4 2.352 . S
O8 C11 1.258 . S
C9 O6 1.320 . S
C9 O7 1.214 . S
O10 Cd2 2.277 . S
O10 C5 1.209 . S
C11 O8 1.258 . S
C11 O13 1.282 . S
O12 Cd4 2.277 . S
O12 C5 1.226 . S
O13 Cd4 2.356 . S
O13 C11 1.282 . S
C14 O15 1.306 . S
C14 O17 1.160 . S
O15 C14 1.306 . S
O15 Cd16 2.228 . S
Cd16 O15 2.228 . S
Cd16 O20 2.273 . S
Cd16 O24 2.277 . S
O17 C14 1.160 . S
O17 Cd18 2.203 . S
Cd18 O17 2.203 . S
Cd18 O20 2.411 . S
Cd18 O21 2.333 . S
Cd18 O22 2.352 . S
Cd18 O26 2.277 . S
Cd18 O27 2.356 . S
C19 O24 1.209 . S
C19 O26 1.226 . S
O20 Cd16 2.273 . S
O20 Cd18 2.411 . S
O20 C23 1.320 . S
O21 Cd18 2.333 . S
O21 C23 1.214 . S
O22 Cd18 2.352 . S
O22 C25 1.258 . S
C23 O20 1.320 . S
C23 O21 1.214 . S
O24 Cd16 2.277 . S
O24 C19 1.209 . S
C25 O22 1.258 . S
C25 O27 1.282 . S
O26 Cd18 2.277 . S
O26 C19 1.226 . S
O27 Cd18 2.356 . S
O27 C25 1.282 . S
C28 O29 1.306 . S
C28 O31 1.160 . S
O29 C28 1.306 . S
O29 Cd30 2.228 . S
Cd30 O29 2.228 . S
Cd30 O34 2.273 . S
Cd30 O38 2.277 . S
O31 C28 1.160 . S
O31 Cd32 2.203 . S
Cd32 O31 2.203 . S
Cd32 O34 2.411 . S
Cd32 O35 2.333 . S
Cd32 O36 2.352 . S
Cd32 O40 2.277 . S
Cd32 O41 2.356 . S
C33 O38 1.209 . S
C33 O40 1.226 . S
O34 Cd30 2.273 . S
O34 Cd32 2.411 . S
O34 C37 1.320 . S
O35 Cd32 2.333 . S
O35 C37 1.214 . S
O36 Cd32 2.352 . S
O36 C39 1.258 . S
C37 O34 1.320 . S
C37 O35 1.214 . S
O38 Cd30 2.277 . S
O38 C33 1.209 . S
C39 O36 1.258 . S
C39 O41 1.282 . S
O40 Cd32 2.277 . S
O40 C33 1.226 . S
O41 Cd32 2.356 . S
O41 C39 1.282 . S
C42 O43 1.306 . S
C42 O45 1.160 . S
O43 C42 1.306 . S
O43 Cd44 2.228 . S
Cd44 O43 2.228 . S
Cd44 O48 2.273 . S
Cd44 O52 2.277 . S
O45 C42 1.160 . S
O45 Cd46 2.203 . S
Cd46 O45 2.203 . S
Cd46 O48 2.411 . S
Cd46 O49 2.333 . S
Cd46 O50 2.352 . S
Cd46 O54 2.277 . S
Cd46 O55 2.356 . S
C47 O52 1.209 . S
C47 O54 1.226 . S
O48 Cd44 2.273 . S
O48 Cd46 2.411 . S
O48 C51 1.320 . S
O49 Cd46 2.333 . S
O49 C51 1.214 . S
O50 Cd46 2.352 . S
O50 C53 1.258 . S
C51 O48 1.320 . S
C51 O49 1.214 . S
O52 Cd44 2.277 . S
O52 C47 1.209 . S
C53 O50 1.258 . S
C53 O55 1.282 . S
O54 Cd46 2.277 . S
O54 C47 1.226 . S
O55 Cd46 2.356 . S
O55 C53 1.282 . S
C56 O57 1.306 . S
C56 O59 1.160 . S
O57 C56 1.306 . S
O57 Cd58 2.228 . S
Cd58 O57 2.228 . S
Cd58 O62 2.273 . S
Cd58 O66 2.277 . S
O59 C56 1.160 . S
O59 Cd60 2.203 . S
Cd60 O59 2.203 . S
Cd60 O62 2.411 . S
Cd60 O63 2.333 . S
Cd60 O64 2.352 . S
Cd60 O68 2.277 . S
Cd60 O69 2.356 . S
C61 O66 1.209 . S
C61 O68 1.226 . S
O62 Cd58 2.273 . S
O62 Cd60 2.411 . S
O62 C65 1.320 . S
O63 Cd60 2.333 . S
O63 C65 1.214 . S
O64 Cd60 2.352 . S
O64 C67 1.258 . S
C65 O62 1.320 . S
C65 O63 1.214 . S
O66 Cd58 2.277 . S
O66 C61 1.209 . S
C67 O64 1.258 . S
C67 O69 1.282 . S
O68 Cd60 2.277 . S
O68 C61 1.226 . S
O69 Cd60 2.356 . S
O69 C67 1.282 . S
C70 O71 1.306 . S
C70 O73 1.160 . S
O71 C70 1.306 . S
O71 Cd72 2.228 . S
Cd72 O71 2.228 . S
Cd72 O76 2.273 . S
Cd72 O80 2.277 . S
O73 C70 1.160 . S
O73 Cd74 2.203 . S
Cd74 O73 2.203 . S
Cd74 O76 2.411 . S
Cd74 O77 2.333 . S
Cd74 O78 2.352 . S
Cd74 O82 2.277 . S
Cd74 O83 2.356 . S
C75 O80 1.209 . S
C75 O82 1.226 . S
O76 Cd72 2.273 . S
O76 Cd74 2.411 . S
O76 C79 1.320 . S
O77 Cd74 2.333 . S
O77 C79 1.214 . S
O78 Cd74 2.352 . S
O78 C81 1.258 . S
C79 O76 1.320 . S
C79 O77 1.214 . S
O80 Cd72 2.277 . S
O80 C75 1.209 . S
C81 O78 1.258 . S
C81 O83 1.282 . S
O82 Cd74 2.277 . S
O82 C75 1.226 . S
O83 Cd74 2.356 . S
O83 C81 1.282 . S
C84 O85 1.306 . S
C84 O87 1.160 . S
O85 C84 1.306 . S
O85 Cd86 2.228 . S
Cd86 O85 2.228 . S
Cd86 O90 2.273 . S
Cd86 O94 2.277 . S
O87 C84 1.160 . S
O87 Cd88 2.203 . S
Cd88 O87 2.203 . S
Cd88 O90 2.411 . S
Cd88 O91 2.333 . S
Cd88 O92 2.352 . S
Cd88 O96 2.277 . S
Cd88 O97 2.356 . S
C89 O94 1.209 . S
C89 O96 1.226 . S
O90 Cd86 2.273 . S
O90 Cd88 2.411 . S
O90 C93 1.320 . S
O91 Cd88 2.333 . S
O91 C93 1.214 . S
O92 Cd88 2.352 . S
O92 C95 1.258 . S
C93 O90 1.320 . S
C93 O91 1.214 . S
O94 Cd86 2.277 . S
O94 C89 1.209 . S
C95 O92 1.258 . S
C95 O97 1.282 . S
O96 Cd88 2.277 . S
O96 C89 1.226 . S
O97 Cd88 2.356 . S
O97 C95 1.282 . S
C98 O99 1.306 . S
C98 O101 1.160 . S
O99 C98 1.306 . S
O99 Cd100 2.228 . S
Cd100 O99 2.228 . S
Cd100 O104 2.273 . S
Cd100 O108 2.277 . S
O101 C98 1.160 . S
O101 Cd102 2.203 . S
Cd102 O101 2.203 . S
Cd102 O104 2.411 . S
Cd102 O105 2.333 . S
Cd102 O106 2.352 . S
Cd102 O110 2.277 . S
Cd102 O111 2.356 . S
C103 O108 1.209 . S
C103 O110 1.226 . S
O104 Cd100 2.273 . S
O104 Cd102 2.411 . S
O104 C107 1.320 . S
O105 Cd102 2.333 . S
O105 C107 1.214 . S
O106 Cd102 2.352 . S
O106 C109 1.258 . S
C107 O104 1.320 . S
C107 O105 1.214 . S
O108 Cd100 2.277 . S
O108 C103 1.209 . S
C109 O106 1.258 . S
C109 O111 1.282 . S
O110 Cd102 2.277 . S
O110 C103 1.226 . S
O111 Cd102 2.356 . S
O111 C109 1.282 . S
C112 C113 1.391 . S
C112 C114 1.394 . S
C112 H128 0.931 . S
C113 C112 1.391 . S
C113 C117 1.376 . S
C114 C112 1.394 . S
C114 C115 1.369 . S
C114 C118 1.531 . S
C115 C114 1.369 . S
C115 C116 1.410 . S
C115 C123 1.503 . S
C116 C115 1.410 . S
C116 C117 1.392 . S
C116 C119 1.511 . S
C117 C113 1.376 . S
C117 C116 1.392 . S
C117 H129 0.929 . S
C118 C114 1.531 . S
C118 H130 0.960 . S
C118 H131 0.962 . S
C118 H132 0.960 . S
C119 C116 1.511 . S
C119 H133 0.961 . S
C119 H134 0.961 . S
C119 H135 0.961 . S
C120 C121 1.370 . S
C120 C122 1.363 . S
C120 H136 0.931 . S
C121 C120 1.370 . S
C121 C125 1.408 . S
C122 C120 1.363 . S
C122 C123 1.370 . S
C122 C126 1.524 . S
C123 C115 1.503 . S
C123 C122 1.370 . S
C123 C124 1.403 . S
C124 C123 1.403 . S
C124 C125 1.404 . S
C124 C127 1.539 . S
C125 C121 1.408 . S
C125 C124 1.404 . S
C125 H137 0.930 . S
C126 C122 1.524 . S
C126 H138 0.956 . S
C126 H139 0.961 . S
C126 H140 0.961 . S
C127 C124 1.539 . S
C127 H141 0.958 . S
C127 H142 0.961 . S
C127 H143 0.960 . S
H128 C112 0.931 . S
H129 C117 0.929 . S
H130 C118 0.960 . S
H131 C118 0.962 . S
H132 C118 0.960 . S
H133 C119 0.961 . S
H134 C119 0.961 . S
H135 C119 0.961 . S
H136 C120 0.931 . S
H137 C125 0.930 . S
H138 C126 0.956 . S
H139 C126 0.961 . S
H140 C126 0.961 . S
H141 C127 0.958 . S
H142 C127 0.961 . S
H143 C127 0.960 . S
C144 C145 1.391 1_655 S
C144 C146 1.394 1_655 S
C144 H160 0.931 . S
C145 C144 1.391 1_455 S
C145 C149 1.376 . S
C146 C144 1.394 1_455 S
C146 C147 1.365 1_545 S
C146 C150 1.531 . S
C147 C146 1.365 1_565 S
C147 C148 1.408 1_565 S
C147 C155 1.508 . S
C148 C147 1.408 1_545 S
C148 C149 1.392 . S
C148 C151 1.511 1_545 S
C149 C145 1.376 . S
C149 C148 1.392 . S
C149 H161 0.929 . S
C150 C146 1.531 . S
C150 H162 0.960 1_545 S
C150 H163 0.962 . S
C150 H164 0.960 1_445 S
C151 C148 1.511 1_565 S
C151 H165 0.961 1_565 S
C151 H166 0.961 . S
C151 H167 0.961 . S
C152 C153 1.370 1_545 S
C152 C154 1.363 . S
C152 H168 0.931 . S
C153 C152 1.370 1_565 S
C153 C157 1.408 . S
C154 C152 1.363 . S
C154 C155 1.370 1_545 S
C154 C158 1.524 . S
C155 C147 1.508 . S
C155 C154 1.370 1_565 S
C155 C156 1.403 . S
C156 C155 1.403 . S
C156 C157 1.404 . S
C156 C159 1.539 . S
C157 C153 1.408 . S
C157 C156 1.404 . S
C157 H169 0.930 . S
C158 C154 1.524 . S
C158 H170 0.956 . S
C158 H171 0.961 . S
C158 H172 0.961 . S
C159 C156 1.539 . S
C159 H173 0.958 . S
C159 H174 0.961 . S
C159 H175 0.960 . S
H160 C144 0.931 . S
H161 C149 0.929 . S
H162 C150 0.960 1_565 S
H163 C150 0.962 . S
H164 C150 0.960 1_665 S
H165 C151 0.961 1_545 S
H166 C151 0.961 . S
H167 C151 0.961 . S
H168 C152 0.931 . S
H169 C157 0.930 . S
H170 C158 0.956 . S
H171 C158 0.961 . S
H172 C158 0.961 . S
H173 C159 0.958 . S
H174 C159 0.961 . S
H175 C159 0.960 . S
C176 C177 1.391 . S
C176 C178 1.394 . S
C176 H192 0.931 . S
C177 C176 1.391 . S
C177 C181 1.376 . S
C178 C176 1.394 . S
C178 C179 1.369 . S
C178 C182 1.531 . S
C179 C178 1.369 . S
C179 C180 1.410 . S
C179 C187 1.503 . S
C180 C179 1.410 . S
C180 C181 1.392 . S
C180 C183 1.511 . S
C181 C177 1.376 . S
C181 C180 1.392 . S
C181 H193 0.929 . S
C182 C178 1.531 . S
C182 H194 0.960 . S
C182 H195 0.962 . S
C182 H196 0.960 . S
C183 C180 1.511 . S
C183 H197 0.961 . S
C183 H198 0.961 . S
C183 H199 0.961 . S
C184 C185 1.370 . S
C184 C186 1.363 . S
C184 H200 0.931 . S
C185 C184 1.370 . S
C185 C189 1.408 . S
C186 C184 1.363 . S
C186 C187 1.370 . S
C186 C190 1.524 . S
C187 C179 1.503 . S
C187 C186 1.370 . S
C187 C188 1.403 . S
C188 C187 1.403 . S
C188 C189 1.404 . S
C188 C191 1.539 . S
C189 C185 1.408 . S
C189 C188 1.404 . S
C189 H201 0.930 1_655 S
C190 C186 1.524 . S
C190 H202 0.956 . S
C190 H203 0.961 . S
C190 H204 0.961 . S
C191 C188 1.539 . S
C191 H205 0.958 . S
C191 H206 0.961 . S
C191 H207 0.960 . S
H192 C176 0.931 . S
H193 C181 0.929 . S
H194 C182 0.960 . S
H195 C182 0.962 . S
H196 C182 0.960 . S
H197 C183 0.961 . S
H198 C183 0.961 . S
H199 C183 0.961 . S
H200 C184 0.931 . S
H201 C189 0.930 1_455 S
H202 C190 0.956 . S
H203 C190 0.961 . S
H204 C190 0.961 . S
H205 C191 0.958 . S
H206 C191 0.961 . S
H207 C191 0.960 . S
C208 C209 1.391 . S
C208 C210 1.394 . S
C208 H224 0.931 . S
C209 C208 1.391 . S
C209 C213 1.376 . S
C210 C208 1.394 . S
C210 C211 1.369 . S
C210 C214 1.531 . S
C211 C210 1.369 . S
C211 C212 1.410 . S
C211 C219 1.503 1_545 S
C212 C211 1.410 . S
C212 C213 1.392 . S
C212 C215 1.511 1_545 S
C213 C209 1.376 . S
C213 C212 1.392 . S
C213 H225 0.929 . S
C214 C210 1.531 . S
C214 H226 0.960 . S
C214 H227 0.962 . S
C214 H228 0.960 . S
C215 C212 1.511 1_565 S
C215 H229 0.961 . S
C215 H230 0.961 . S
C215 H231 0.961 1_565 S
C216 C217 1.370 . S
C216 C218 1.363 . S
C216 H232 0.931 . S
C217 C216 1.370 . S
C217 C221 1.408 1_565 S
C218 C216 1.363 . S
C218 C219 1.370 . S
C218 C222 1.524 . S
C219 C211 1.503 1_565 S
C219 C218 1.370 . S
C219 C220 1.403 1_565 S
C220 C219 1.403 1_545 S
C220 C221 1.404 . S
C220 C223 1.539 . S
C221 C217 1.408 1_545 S
C221 C220 1.404 . S
C221 H233 0.930 . S
C222 C218 1.524 . S
C222 H234 0.956 . S
C222 H235 0.961 . S
C222 H236 0.961 . S
C223 C220 1.539 . S
C223 H237 0.958 . S
C223 H238 0.961 . S
C223 H239 0.960 . S
H224 C208 0.931 . S
H225 C213 0.929 . S
H226 C214 0.960 . S
H227 C214 0.962 . S
H228 C214 0.960 . S
H229 C215 0.961 . S
H230 C215 0.961 . S
H231 C215 0.961 1_545 S
H232 C216 0.931 . S
H233 C221 0.930 . S
H234 C222 0.956 . S
H235 C222 0.961 . S
H236 C222 0.961 . S
H237 C223 0.958 . S
H238 C223 0.961 . S
H239 C223 0.960 . S
C240 C241 1.391 . S
C240 C242 1.394 . S
C240 H256 0.931 . S
C241 C240 1.391 . S
C241 C245 1.376 . S
C242 C240 1.394 . S
C242 C243 1.369 . S
C242 C246 1.531 . S
C243 C242 1.369 . S
C243 C244 1.410 . S
C243 C251 1.503 . S
C244 C243 1.410 . S
C244 C245 1.392 . S
C244 C247 1.511 . S
C245 C241 1.376 . S
C245 C244 1.392 . S
C245 H257 0.929 . S
C246 C242 1.531 . S
C246 H258 0.960 . S
C246 H259 0.962 . S
C246 H260 0.960 . S
C247 C244 1.511 . S
C247 H261 0.961 . S
C247 H262 0.961 . S
C247 H263 0.961 . S
C248 C249 1.370 . S
C248 C250 1.363 . S
C248 H264 0.931 . S
C249 C248 1.370 . S
C249 C253 1.408 . S
C250 C248 1.363 . S
C250 C251 1.370 . S
C250 C254 1.524 . S
C251 C243 1.503 . S
C251 C250 1.370 . S
C251 C252 1.403 . S
C252 C251 1.403 . S
C252 C253 1.404 . S
C252 C255 1.539 . S
C253 C249 1.408 . S
C253 C252 1.404 . S
C253 H265 0.930 . S
C254 C250 1.524 . S
C254 H266 0.956 . S
C254 H267 0.961 . S
C254 H268 0.961 . S
C255 C252 1.539 . S
C255 H269 0.958 . S
C255 H270 0.961 . S
C255 H271 0.960 . S
H256 C240 0.931 . S
H257 C245 0.929 . S
H258 C246 0.960 . S
H259 C246 0.962 . S
H260 C246 0.960 . S
H261 C247 0.961 . S
H262 C247 0.961 . S
H263 C247 0.961 . S
H264 C248 0.931 . S
H265 C253 0.930 . S
H266 C254 0.956 . S
H267 C254 0.961 . S
H268 C254 0.961 . S
H269 C255 0.958 . S
H270 C255 0.961 . S
H271 C255 0.960 . S
C272 C273 1.391 . S
C272 C274 1.387 1_545 S
C272 H288 0.931 . S
C273 C272 1.391 . S
C273 C277 1.376 . S
C274 C272 1.387 1_565 S
C274 C275 1.360 1_565 S
C274 C278 1.547 . S
C275 C274 1.360 1_545 S
C275 C276 1.410 . S
C275 C283 1.503 1_545 S
C276 C275 1.410 . S
C276 C277 1.392 . S
C276 C279 1.511 . S
C277 C273 1.376 . S
C277 C276 1.392 . S
C277 H289 0.929 . S
C278 C274 1.547 . S
C278 H290 0.960 . S
C278 H291 0.962 . S
C278 H292 0.960 . S
C279 C276 1.511 . S
C279 H293 0.961 . S
C279 H294 0.961 . S
C279 H295 0.961 . S
C280 C281 1.370 . S
C280 C282 1.363 . S
C280 H296 0.931 . S
C281 C280 1.370 . S
C281 C285 1.408 1_665 S
C282 C280 1.363 . S
C282 C283 1.370 . S
C282 C286 1.524 . S
C283 C275 1.503 1_565 S
C283 C282 1.370 . S
C283 C284 1.403 1_565 S
C284 C283 1.403 1_545 S
C284 C285 1.404 1_655 S
C284 C287 1.539 . S
C285 C281 1.408 1_445 S
C285 C284 1.404 1_455 S
C285 H297 0.930 . S
C286 C282 1.524 . S
C286 H298 0.956 . S
C286 H299 0.961 . S
C286 H300 0.961 . S
C287 C284 1.539 . S
C287 H301 0.958 . S
C287 H302 0.961 . S
C287 H303 0.960 . S
H288 C272 0.931 . S
H289 C277 0.929 . S
H290 C278 0.960 . S
H291 C278 0.962 . S
H292 C278 0.960 . S
H293 C279 0.961 . S
H294 C279 0.961 . S
H295 C279 0.961 . S
H296 C280 0.931 . S
H297 C285 0.930 . S
H298 C286 0.956 . S
H299 C286 0.961 . S
H300 C286 0.961 . S
H301 C287 0.958 . S
H302 C287 0.961 . S
H303 C287 0.960 . S
C304 C305 1.391 . S
C304 C306 1.394 . S
C304 H320 0.931 . S
C305 C304 1.391 . S
C305 C309 1.376 . S
C306 C304 1.394 . S
C306 C307 1.369 . S
C306 C310 1.531 . S
C307 C306 1.369 . S
C307 C308 1.410 . S
C307 C315 1.503 . S
C308 C307 1.410 . S
C308 C309 1.392 . S
C308 C311 1.511 . S
C309 C305 1.376 . S
C309 C308 1.392 . S
C309 H321 0.929 . S
C310 C306 1.531 . S
C310 H322 0.960 . S
C310 H323 0.962 . S
C310 H324 0.960 . S
C311 C308 1.511 . S
C311 H325 0.961 . S
C311 H326 0.961 . S
C311 H327 0.961 . S
C312 C313 1.370 . S
C312 C314 1.363 . S
C312 H328 0.931 . S
C313 C312 1.370 . S
C313 C317 1.408 . S
C314 C312 1.363 . S
C314 C315 1.370 . S
C314 C318 1.524 . S
C315 C307 1.503 . S
C315 C314 1.370 . S
C315 C316 1.403 . S
C316 C315 1.403 . S
C316 C317 1.404 . S
C316 C319 1.539 . S
C317 C313 1.408 . S
C317 C316 1.404 . S
C317 H329 0.930 1_455 S
C318 C314 1.524 . S
C318 H330 0.956 . S
C318 H331 0.961 . S
C318 H332 0.961 . S
C319 C316 1.539 . S
C319 H333 0.958 . S
C319 H334 0.961 . S
C319 H335 0.960 . S
H320 C304 0.931 . S
H321 C309 0.929 . S
H322 C310 0.960 . S
H323 C310 0.962 . S
H324 C310 0.960 . S
H325 C311 0.961 . S
H326 C311 0.961 . S
H327 C311 0.961 . S
H328 C312 0.931 . S
H329 C317 0.930 1_655 S
H330 C318 0.956 . S
H331 C318 0.961 . S
H332 C318 0.961 . S
H333 C319 0.958 . S
H334 C319 0.961 . S
H335 C319 0.960 . S
C336 C337 1.391 . S
C336 C338 1.394 . S
C336 H352 0.931 . S
C337 C336 1.391 . S
C337 C341 1.376 . S
C338 C336 1.394 . S
C338 C339 1.369 . S
C338 C342 1.531 1_565 S
C339 C338 1.369 . S
C339 C340 1.410 . S
C339 C347 1.503 1_565 S
C340 C339 1.410 . S
C340 C341 1.392 . S
C340 C343 1.511 . S
C341 C337 1.376 . S
C341 C340 1.392 . S
C341 H353 0.929 . S
C342 C338 1.531 1_545 S
C342 H354 0.960 . S
C342 H355 0.962 . S
C342 H356 0.960 . S
C343 C340 1.511 . S
C343 H357 0.961 . S
C343 H358 0.961 . S
C343 H359 0.961 . S
C344 C345 1.370 . S
C344 C346 1.363 . S
C344 H360 0.931 . S
C345 C344 1.370 . S
C345 C349 1.408 1_545 S
C346 C344 1.363 . S
C346 C347 1.370 . S
C346 C350 1.524 . S
C347 C339 1.503 1_545 S
C347 C346 1.370 . S
C347 C348 1.403 1_545 S
C348 C347 1.403 1_565 S
C348 C349 1.404 . S
C348 C351 1.539 . S
C349 C345 1.408 1_565 S
C349 C348 1.404 . S
C349 H361 0.930 . S
C350 C346 1.524 . S
C350 H362 0.956 . S
C350 H363 0.961 . S
C350 H364 0.961 . S
C351 C348 1.539 . S
C351 H365 0.958 . S
C351 H366 0.961 . S
C351 H367 0.960 . S
H352 C336 0.931 . S
H353 C341 0.929 . S
H354 C342 0.960 . S
H355 C342 0.962 . S
H356 C342 0.960 . S
H357 C343 0.961 . S
H358 C343 0.961 . S
H359 C343 0.961 . S
H360 C344 0.931 . S
H361 C349 0.930 . S
H362 C350 0.956 . S
H363 C350 0.961 . S
H364 C350 0.961 . S
H365 C351 0.958 . S
H366 C351 0.961 . S
H367 C351 0.960 . S
C368 C369 1.391 . S
C368 C370 1.394 . S
C368 H384 0.931 . S
C369 C368 1.391 . S
C369 C373 1.376 . S
C370 C368 1.394 . S
C370 C371 1.369 . S
C370 C374 1.531 . S
C371 C370 1.369 . S
C371 C372 1.410 1_455 S
C371 C379 1.503 1_455 S
C372 C371 1.410 1_655 S
C372 C373 1.392 1_655 S
C372 C375 1.511 . S
C373 C369 1.376 . S
C373 C372 1.392 1_455 S
C373 H385 0.929 1_455 S
C374 C370 1.531 . S
C374 H386 0.960 . S
C374 H387 0.962 . S
C374 H388 0.960 . S
C375 C372 1.511 . S
C375 H389 0.961 . S
C375 H390 0.961 . S
C375 H391 0.961 . S
C376 C377 1.370 . S
C376 C378 1.370 . S
C376 H392 0.931 . S
C377 C376 1.370 . S
C377 C381 1.408 . S
C378 C376 1.370 . S
C378 C379 1.376 . S
C378 C382 1.512 1_655 S
C379 C371 1.503 1_655 S
C379 C378 1.376 . S
C379 C380 1.403 . S
C380 C379 1.403 . S
C380 C381 1.404 . S
C380 C383 1.539 . S
C381 C377 1.408 . S
C381 C380 1.404 . S
C381 H393 0.930 . S
C382 C378 1.512 1_455 S
C382 H394 0.956 . S
C382 H395 0.961 . S
C382 H396 0.961 . S
C383 C380 1.539 . S
C383 H397 0.958 . S
C383 H398 0.961 . S
C383 H399 0.960 . S
H384 C368 0.931 . S
H385 C373 0.929 1_655 S
H386 C374 0.960 . S
H387 C374 0.962 . S
H388 C374 0.960 . S
H389 C375 0.961 . S
H390 C375 0.961 . S
H391 C375 0.961 . S
H392 C376 0.931 . S
H393 C381 0.930 . S
H394 C382 0.956 . S
H395 C382 0.961 . S
H396 C382 0.961 . S
H397 C383 0.958 . S
H398 C383 0.961 . S
H399 C383 0.960 . S
C400 C401 1.391 . S
C400 C402 1.394 1_565 S
C400 H416 0.931 1_565 S
C401 C400 1.391 . S
C401 C405 1.376 . S
C402 C400 1.394 1_545 S
C402 C403 1.361 1_545 S
C402 C406 1.531 . S
C403 C402 1.361 1_565 S
C403 C404 1.425 . S
C403 C411 1.497 1_565 S
C404 C403 1.425 . S
C404 C405 1.392 . S
C404 C407 1.511 . S
C405 C401 1.376 . S
C405 C404 1.392 . S
C405 H417 0.929 . S
C406 C402 1.531 . S
C406 H418 0.960 . S
C406 H419 0.962 . S
C406 H420 0.960 . S
C407 C404 1.511 . S
C407 H421 0.961 . S
C407 H422 0.961 . S
C407 H423 0.961 . S
C408 C409 1.370 . S
C408 C410 1.363 1_545 S
C408 H424 0.931 1_545 S
C409 C408 1.370 . S
C409 C413 1.408 . S
C410 C408 1.363 1_565 S
C410 C411 1.370 1_565 S
C410 C414 1.524 . S
C411 C403 1.497 1_545 S
C411 C410 1.370 1_545 S
C411 C412 1.403 . S
C412 C411 1.403 . S
C412 C413 1.404 . S
C412 C415 1.539 . S
C413 C409 1.408 . S
C413 C412 1.404 . S
C413 H425 0.930 . S
C414 C410 1.524 . S
C414 H426 0.956 . S
C414 H427 0.961 . S
C414 H428 0.961 . S
C415 C412 1.539 . S
C415 H429 0.958 . S
C415 H430 0.961 . S
C415 H431 0.960 . S
H416 C400 0.931 1_545 S
H417 C405 0.929 . S
H418 C406 0.960 . S
H419 C406 0.962 . S
H420 C406 0.960 . S
H421 C407 0.961 . S
H422 C407 0.961 . S
H423 C407 0.961 . S
H424 C408 0.931 1_565 S
H425 C413 0.930 . S
H426 C414 0.956 . S
H427 C414 0.961 . S
H428 C414 0.961 . S
H429 C415 0.958 . S
H430 C415 0.961 . S
H431 C415 0.960 . S
C432 C433 1.391 . S
C432 C434 1.394 . S
C432 H448 0.931 . S
C433 C432 1.391 . S
C433 C437 1.376 . S
C434 C432 1.394 . S
C434 C435 1.369 . S
C434 C438 1.531 . S
C435 C434 1.369 . S
C435 C436 1.410 . S
C435 C443 1.503 1_554 S
C436 C435 1.410 . S
C436 C437 1.392 . S
C436 C439 1.511 1_554 S
C437 C433 1.376 . S
C437 C436 1.392 . S
C437 H449 0.929 . S
C438 C434 1.531 . S
C438 H450 0.960 . S
C438 H451 0.962 . S
C438 H452 0.960 . S
C439 C436 1.511 1_556 S
C439 H453 0.961 . S
C439 H454 0.961 . S
C439 H455 0.961 . S
C440 C441 1.370 . S
C440 C442 1.363 . S
C440 H456 0.931 . S
C441 C440 1.370 . S
C441 C445 1.408 . S
C442 C440 1.363 . S
C442 C443 1.370 . S
C442 C446 1.524 . S
C443 C435 1.503 1_556 S
C443 C442 1.370 . S
C443 C444 1.403 . S
C444 C443 1.403 . S
C444 C445 1.404 . S
C444 C447 1.539 1_556 S
C445 C441 1.408 . S
C445 C444 1.404 . S
C445 H457 0.930 . S
C446 C442 1.524 . S
C446 H458 0.956 . S
C446 H459 0.961 . S
C446 H460 0.961 . S
C447 C444 1.539 1_554 S
C447 H461 0.958 . S
C447 H462 0.961 1_554 S
C447 H463 0.960 . S
H448 C432 0.931 . S
H449 C437 0.929 . S
H450 C438 0.960 . S
H451 C438 0.962 . S
H452 C438 0.960 . S
H453 C439 0.961 . S
H454 C439 0.961 . S
H455 C439 0.961 . S
H456 C440 0.931 . S
H457 C445 0.930 . S
H458 C446 0.956 . S
H459 C446 0.961 . S
H460 C446 0.961 . S
H461 C447 0.958 . S
H462 C447 0.961 1_556 S
H463 C447 0.960 . S
C464 C465 1.391 . S
C464 C466 1.394 . S
C464 H480 0.931 . S
C465 C464 1.391 . S
C465 C469 1.394 . S
C466 C464 1.394 . S
C466 C467 1.369 . S
C466 C470 1.531 1_556 S
C467 C466 1.369 . S
C467 C468 1.410 1_565 S
C467 C475 1.503 1_466 S
C468 C467 1.410 1_545 S
C468 C469 1.383 1_545 S
C468 C471 1.511 1_455 S
C469 C465 1.394 . S
C469 C468 1.383 1_565 S
C469 H481 0.920 1_565 S
C470 C466 1.531 1_554 S
C470 H482 0.960 . S
C470 H483 0.962 . S
C470 H484 0.960 . S
C471 C468 1.511 1_655 S
C471 H485 0.961 . S
C471 H486 0.961 . S
C471 H487 0.961 . S
C472 C473 1.370 . S
C472 C474 1.363 1_545 S
C472 H488 0.931 1_545 S
C473 C472 1.370 . S
C473 C477 1.408 . S
C474 C472 1.363 1_565 S
C474 C475 1.370 1_565 S
C474 C478 1.524 . S
C475 C467 1.503 1_644 S
C475 C474 1.370 1_545 S
C475 C476 1.403 1_655 S
C476 C475 1.403 1_455 S
C476 C477 1.404 1_455 S
C476 C479 1.539 . S
C477 C473 1.408 . S
C477 C476 1.404 1_655 S
C477 H489 0.930 1_655 S
C478 C474 1.524 . S
C478 H490 0.956 . S
C478 H491 0.961 1_554 S
C478 H492 0.961 . S
C479 C476 1.539 . S
C479 H493 0.958 . S
C479 H494 0.961 . S
C479 H495 0.959 . S
H480 C464 0.931 . S
H481 C469 0.920 1_545 S
H482 C470 0.960 . S
H483 C470 0.962 . S
H484 C470 0.960 . S
H485 C471 0.961 . S
H486 C471 0.961 . S
H487 C471 0.961 . S
H488 C472 0.931 1_565 S
H489 C477 0.930 1_455 S
H490 C478 0.956 . S
H491 C478 0.961 1_556 S
H492 C478 0.961 . S
H493 C479 0.958 . S
H494 C479 0.961 . S
H495 C479 0.959 . S
C496 C497 1.391 . S
C496 C498 1.394 . S
C496 H512 0.931 . S
C497 C496 1.391 . S
C497 C501 1.376 . S
C498 C496 1.394 . S
C498 C499 1.369 . S
C498 C502 1.531 . S
C499 C498 1.369 . S
C499 C500 1.410 . S
C499 C507 1.503 . S
C500 C499 1.410 . S
C500 C501 1.392 . S
C500 C503 1.511 . S
C501 C497 1.376 . S
C501 C500 1.392 . S
C501 H513 0.929 . S
C502 C498 1.531 . S
C502 H514 0.960 . S
C502 H515 0.962 . S
C502 H516 0.960 . S
C503 C500 1.511 . S
C503 H517 0.961 . S
C503 H518 0.961 . S
C503 H519 0.961 . S
C504 C505 1.370 . S
C504 C506 1.363 . S
C504 H520 0.931 . S
C505 C504 1.370 . S
C505 C509 1.408 . S
C506 C504 1.363 . S
C506 C507 1.370 . S
C506 C510 1.524 . S
C507 C499 1.503 . S
C507 C506 1.370 . S
C507 C508 1.403 . S
C508 C507 1.403 . S
C508 C509 1.404 . S
C508 C511 1.539 . S
C509 C505 1.408 . S
C509 C508 1.404 . S
C509 H521 0.930 . S
C510 C506 1.524 . S
C510 H522 0.956 . S
C510 H523 0.961 . S
C510 H524 0.961 . S
C511 C508 1.539 . S
C511 H525 0.958 . S
C511 H526 0.961 . S
C511 H527 0.960 . S
H512 C496 0.931 . S
H513 C501 0.929 . S
H514 C502 0.960 . S
H515 C502 0.962 . S
H516 C502 0.960 . S
H517 C503 0.961 . S
H518 C503 0.961 . S
H519 C503 0.961 . S
H520 C504 0.931 . S
H521 C509 0.930 . S
H522 C510 0.956 . S
H523 C510 0.961 . S
H524 C510 0.961 . S
H525 C511 0.958 . S
H526 C511 0.961 . S
H527 C511 0.960 . S
C528 C529 1.391 . S
C528 C530 1.394 . S
C528 H544 0.931 . S
C529 C528 1.391 . S
C529 C533 1.376 . S
C530 C528 1.394 . S
C530 C531 1.369 . S
C530 C534 1.531 . S
C531 C530 1.369 . S
C531 C532 1.410 . S
C531 C539 1.503 . S
C532 C531 1.410 . S
C532 C533 1.392 . S
C532 C535 1.511 . S
C533 C529 1.376 . S
C533 C532 1.392 . S
C533 H545 0.929 . S
C534 C530 1.531 . S
C534 H546 0.960 . S
C534 H547 0.962 . S
C534 H548 0.960 . S
C535 C532 1.511 . S
C535 H549 0.961 . S
C535 H550 0.961 . S
C535 H551 0.961 . S
C536 C537 1.370 . S
C536 C538 1.363 . S
C536 H552 0.931 . S
C537 C536 1.370 . S
C537 C541 1.408 . S
C538 C536 1.363 . S
C538 C539 1.370 . S
C538 C542 1.524 . S
C539 C531 1.503 . S
C539 C538 1.370 . S
C539 C540 1.403 . S
C540 C539 1.403 . S
C540 C541 1.404 . S
C540 C543 1.539 . S
C541 C537 1.408 . S
C541 C540 1.404 . S
C541 H553 0.930 . S
C542 C538 1.524 . S
C542 H554 0.956 . S
C542 H555 0.961 . S
C542 H556 0.961 . S
C543 C540 1.539 . S
C543 H557 0.958 . S
C543 H558 0.961 . S
C543 H559 0.960 . S
H544 C528 0.931 . S
H545 C533 0.929 . S
H546 C534 0.960 . S
H547 C534 0.962 . S
H548 C534 0.960 . S
H549 C535 0.961 . S
H550 C535 0.961 . S
H551 C535 0.961 . S
H552 C536 0.931 . S
H553 C541 0.930 . S
H554 C542 0.956 . S
H555 C542 0.961 . S
H556 C542 0.961 . S
H557 C543 0.958 . S
H558 C543 0.961 . S
H559 C543 0.960 . S
C560 C561 1.391 . S
C560 C562 1.394 . S
C560 H576 0.931 . S
C561 C560 1.391 . S
C561 C565 1.376 . S
C562 C560 1.394 . S
C562 C563 1.369 . S
C562 C566 1.531 . S
C563 C562 1.369 . S
C563 C564 1.410 . S
C563 C571 1.503 . S
C564 C563 1.410 . S
C564 C565 1.392 . S
C564 C567 1.511 . S
C565 C561 1.376 . S
C565 C564 1.392 . S
C565 H577 0.929 . S
C566 C562 1.531 . S
C566 H578 0.960 . S
C566 H579 0.962 . S
C566 H580 0.960 . S
C567 C564 1.511 . S
C567 H581 0.961 . S
C567 H582 0.961 . S
C567 H583 0.961 . S
C568 C569 1.370 . S
C568 C570 1.363 . S
C568 H584 0.931 . S
C569 C568 1.370 . S
C569 C573 1.408 . S
C570 C568 1.363 . S
C570 C571 1.370 . S
C570 C574 1.524 . S
C571 C563 1.503 . S
C571 C570 1.370 . S
C571 C572 1.403 . S
C572 C571 1.403 . S
C572 C573 1.404 . S
C572 C575 1.539 . S
C573 C569 1.408 . S
C573 C572 1.404 . S
C573 H585 0.930 . S
C574 C570 1.524 . S
C574 H586 0.956 . S
C574 H587 0.961 . S
C574 H588 0.961 . S
C575 C572 1.539 . S
C575 H589 0.958 . S
C575 H590 0.961 . S
C575 H591 0.960 . S
H576 C560 0.931 . S
H577 C565 0.929 . S
H578 C566 0.960 . S
H579 C566 0.962 . S
H580 C566 0.960 . S
H581 C567 0.961 . S
H582 C567 0.961 . S
H583 C567 0.961 . S
H584 C568 0.931 . S
H585 C573 0.930 . S
H586 C574 0.956 . S
H587 C574 0.961 . S
H588 C574 0.961 . S
H589 C575 0.958 . S
H590 C575 0.961 . S
H591 C575 0.960 . S
C592 C593 1.391 . S
C592 C594 1.394 . S
C592 H608 0.931 . S
C593 C592 1.391 . S
C593 C597 1.376 . S
C594 C592 1.394 . S
C594 C595 1.369 . S
C594 C598 1.531 . S
C595 C594 1.369 . S
C595 C596 1.410 . S
C595 C603 1.503 . S
C596 C595 1.410 . S
C596 C597 1.392 . S
C596 C599 1.511 . S
C597 C593 1.376 . S
C597 C596 1.392 . S
C597 H609 0.929 . S
C598 C594 1.531 . S
C598 H610 0.960 . S
C598 H611 0.962 . S
C598 H612 0.960 . S
C599 C596 1.511 . S
C599 H613 0.961 . S
C599 H614 0.961 . S
C599 H615 0.961 . S
C600 C601 1.370 . S
C600 C602 1.363 . S
C600 H616 0.931 . S
C601 C600 1.370 . S
C601 C605 1.408 . S
C602 C600 1.363 . S
C602 C603 1.370 . S
C602 C606 1.524 . S
C603 C595 1.503 . S
C603 C602 1.370 . S
C603 C604 1.403 . S
C604 C603 1.403 . S
C604 C605 1.404 . S
C604 C607 1.539 . S
C605 C601 1.408 . S
C605 C604 1.404 . S
C605 H617 0.930 . S
C606 C602 1.524 . S
C606 H618 0.956 . S
C606 H619 0.961 . S
C606 H620 0.961 . S
C607 C604 1.539 . S
C607 H621 0.958 . S
C607 H622 0.961 . S
C607 H623 0.960 . S
H608 C592 0.931 . S
H609 C597 0.929 . S
H610 C598 0.960 . S
H611 C598 0.962 . S
H612 C598 0.960 . S
H613 C599 0.961 . S
H614 C599 0.961 . S
H615 C599 0.961 . S
H616 C600 0.931 . S
H617 C605 0.930 . S
H618 C606 0.956 . S
H619 C606 0.961 . S
H620 C606 0.961 . S
H621 C607 0.958 . S
H622 C607 0.961 . S
H623 C607 0.960 . S
C113 C5 1.406 . S
C121 C37 1.415 . S
C145 C51 1.408 1_455 S
C153 C19 1.413 . S
C177 C33 1.407 . S
C185 C9 1.415 1_655 S
C209 C47 1.409 . S
C217 C23 1.416 . S
C241 C93 1.410 . S
C249 C61 1.415 . S
C273 C75 1.411 . S
C281 C107 1.416 1_655 S
C305 C89 1.420 . S
C313 C65 1.419 1_455 S
C337 C103 1.410 . S
C345 C79 1.415 . S
C369 C11 1.515 . S
C377 C67 1.506 . S
C401 C25 1.499 . S
C409 C81 1.511 . S
C433 C39 1.493 . S
C441 C95 1.514 . S
C465 C109 1.499 . S
C473 C53 1.512 . S
C497 C0 1.516 . S
C505 C14 1.513 . S
C529 C42 1.520 . S
C537 C28 1.514 . S
C561 C70 1.510 . S
C569 C56 1.506 . S
C593 C84 1.486 . S
C601 C98 1.502 . S
