# Generated by pormake.
# Topology ukh, (4)-cn, num edge types: 1
# Building blocks:
#     Node 0, Type 0, BuildingBlock: AZAVOO_clean_sbu_0, # of connection points: 4
#     Node 1, Type 0, BuildingBlock: AZAVOO_clean_sbu_0, # of connection points: 4
#     Node 2, Type 0, BuildingBlock: AZAVOO_clean_sbu_0, # of connection points: 4
#     Node 3, Type 0, BuildingBlock: AZAVOO_clean_sbu_0, # of connection points: 4
#     Node 4, Type 0, BuildingBlock: AZAVOO_clean_sbu_0, # of connection points: 4
#     Node 5, Type 0, BuildingBlock: AZAVOO_clean_sbu_0, # of connection points: 4
#     Node 6, Type 0, BuildingBlock: AZAVOO_clean_sbu_0, # of connection points: 4
#     Node 7, Type 0, BuildingBlock: AZAVOO_clean_sbu_0, # of connection points: 4
#     Node 8, Type 0, BuildingBlock: AZAVOO_clean_sbu_0, # of connection points: 4
#     Node 9, Type 0, BuildingBlock: AZAVOO_clean_sbu_0, # of connection points: 4
#     Node 10, Type 0, BuildingBlock: AZAVOO_clean_sbu_0, # of connection points: 4
#     Node 11, Type 0, BuildingBlock: AZAVOO_clean_sbu_0, # of connection points: 4
#     Edge 12, Type (0, 0), BuildingBlock: EYOCIG_clean_linker_4, # of connection points: 2
#     Edge 13, Type (0, 0), BuildingBlock: EYOCIG_clean_linker_4, # of connection points: 2
#     Edge 14, Type (0, 0), BuildingBlock: EYOCIG_clean_linker_4, # of connection points: 2
#     Edge 15, Type (0, 0), BuildingBlock: EYOCIG_clean_linker_4, # of connection points: 2
#     Edge 16, Type (0, 0), BuildingBlock: EYOCIG_clean_linker_4, # of connection points: 2
#     Edge 17, Type (0, 0), BuildingBlock: EYOCIG_clean_linker_4, # of connection points: 2
#     Edge 18, Type (0, 0), BuildingBlock: EYOCIG_clean_linker_4, # of connection points: 2
#     Edge 19, Type (0, 0), BuildingBlock: EYOCIG_clean_linker_4, # of connection points: 2
#     Edge 20, Type (0, 0), BuildingBlock: EYOCIG_clean_linker_4, # of connection points: 2
#     Edge 21, Type (0, 0), BuildingBlock: EYOCIG_clean_linker_4, # of connection points: 2
#     Edge 22, Type (0, 0), BuildingBlock: EYOCIG_clean_linker_4, # of connection points: 2
#     Edge 23, Type (0, 0), BuildingBlock: EYOCIG_clean_linker_4, # of connection points: 2
#     Edge 24, Type (0, 0), BuildingBlock: EYOCIG_clean_linker_4, # of connection points: 2
#     Edge 25, Type (0, 0), BuildingBlock: EYOCIG_clean_linker_4, # of connection points: 2
#     Edge 26, Type (0, 0), BuildingBlock: EYOCIG_clean_linker_4, # of connection points: 2
#     Edge 27, Type (0, 0), BuildingBlock: EYOCIG_clean_linker_4, # of connection points: 2
#     Edge 28, Type (0, 0), BuildingBlock: EYOCIG_clean_linker_4, # of connection points: 2
#     Edge 29, Type (0, 0), BuildingBlock: EYOCIG_clean_linker_4, # of connection points: 2
#     Edge 30, Type (0, 0), BuildingBlock: EYOCIG_clean_linker_4, # of connection points: 2
#     Edge 31, Type (0, 0), BuildingBlock: EYOCIG_clean_linker_4, # of connection points: 2
#     Edge 32, Type (0, 0), BuildingBlock: EYOCIG_clean_linker_4, # of connection points: 2
#     Edge 33, Type (0, 0), BuildingBlock: EYOCIG_clean_linker_4, # of connection points: 2
#     Edge 34, Type (0, 0), BuildingBlock: EYOCIG_clean_linker_4, # of connection points: 2
#     Edge 35, Type (0, 0), BuildingBlock: EYOCIG_clean_linker_4, # of connection points: 2
# Relax obj value: 0.219
# Max RMSD: 0.237
# Mean RMSD: 0.237
data_MOF--net-ukh--node1-AZAVOO_clean_sbu_0--edge1-EYOCIG_clean_linker_4
_symmetry_space_group_name_H-M    P1
_symmetry_Int_Tables_number       1
_symmetry_cell_setting            triclinic
loop_
_symmetry_equiv_pos_as_xyz
'x, y, z'
_cell_length_a     25.330667
_cell_length_b     25.306109
_cell_length_c     49.71257
_cell_angle_alpha  89.997964
_cell_angle_beta   90.003339
_cell_angle_gamma 120.01172
loop_
_atom_site_label
_atom_site_type_symbol
_atom_site_fract_x
_atom_site_fract_y
_atom_site_fract_z
_atom_type_partial_charge
Mg0 Mg 0.34106 0.21099 0.02516 0.0
O1 O 0.25018 0.19811 0.00799 0.0
O2 O 0.17964 0.10014 0.01418 0.0
Mg3 Mg 0.22576 0.04843 0.03079 0.0
C4 C 0.1953 0.15405 0.00642 0.0
C5 C 0.42812 0.34367 0.00867 0.0
O6 O 0.4498 0.31515 -0.00559 0.0
O7 O 0.30706 0.20001 0.06893 0.0
O8 O 0.24681 0.098 0.07098 0.0
O9 O 0.36859 0.1857 -0.01418 0.0
O10 O 0.31504 0.12208 0.01843 0.0
C11 C 0.27454 0.15045 0.08205 0.0
C12 C 0.34112 0.13106 -0.00436 0.0
O13 O 0.38246 0.31375 0.02395 0.0
Mg14 Mg 0.12462 0.34354 0.35894 0.0
O15 O 0.0467 0.25244 0.34188 0.0
O16 O 0.07422 0.182 0.34809 0.0
Mg17 Mg 0.17192 0.22843 0.36481 0.0
C18 C 0.03595 0.19756 0.34033 0.0
C19 C 0.07956 0.43075 0.34241 0.0
O20 O 0.13025 0.45277 0.32851 0.0
O21 O 0.10132 0.30962 0.4027 0.0
O22 O 0.1428 0.24919 0.40493 0.0
O23 O 0.17689 0.37068 0.31952 0.0
O24 O 0.18756 0.31767 0.35224 0.0
C25 C 0.11797 0.2769 0.4159 0.0
C26 C 0.20418 0.34335 0.32932 0.0
O27 O 0.06325 0.38474 0.35756 0.0
Mg28 Mg 0.77608 0.1279 0.69194 0.0
O29 O 0.78931 0.05037 0.67444 0.0
O30 O 0.88684 0.07712 0.68122 0.0
Mg31 Mg 0.93809 0.17426 0.69863 0.0
C32 C 0.83323 0.03935 0.67302 0.0
C33 C 0.64463 0.0814 0.67323 0.0
O34 O 0.67404 0.13046 0.65832 0.0
O35 O 0.78502 0.10261 0.7356 0.0
O36 O 0.88679 0.14377 0.73834 0.0
O37 O 0.80306 0.18221 0.65302 0.0
O38 O 0.86529 0.19093 0.68603 0.0
C39 C 0.83397 0.11868 0.74903 0.0
C40 C 0.85725 0.20887 0.66325 0.0
O41 O 0.67349 0.06679 0.6897 0.0
Mg42 Mg 0.64519 0.78025 0.02541 0.0
O43 O 0.73601 0.7938 0.00788 0.0
O44 O 0.80599 0.89214 0.01353 0.0
Mg45 Mg 0.75933 0.94336 0.03011 0.0
C46 C 0.79066 0.83817 0.006 0.0
C47 C 0.5606 0.64716 0.00871 0.0
O48 O 0.53939 0.67509 -0.00624 0.0
O49 O 0.68055 0.79275 0.06901 0.0
O50 O 0.73999 0.89492 0.07055 0.0
O51 O 0.61612 0.80412 -0.0139 0.0
O52 O 0.67002 0.86876 0.01835 0.0
C53 C 0.71306 0.84272 0.08187 0.0
C54 C 0.64331 0.85897 -0.00433 0.0
O55 O 0.60501 0.67758 0.02456 0.0
Mg56 Mg 0.86029 0.64753 0.35818 0.0
O57 O 0.93786 0.73859 0.34098 0.0
O58 O 0.90953 0.80859 0.34654 0.0
Mg59 Mg 0.81151 0.76168 0.36293 0.0
C60 C 0.94821 0.79329 0.33912 0.0
C61 C 0.90856 0.56285 0.34166 0.0
O62 O 0.85937 0.54151 0.32674 0.0
O63 O 0.88264 0.68239 0.40186 0.0
O64 O 0.8403 0.74212 0.40342 0.0
O65 O 0.80848 0.61916 0.31864 0.0
O66 O 0.79681 0.67243 0.35092 0.0
C67 C 0.86536 0.715 0.41473 0.0
C68 C 0.78061 0.64621 0.32811 0.0
O69 O 0.92266 0.6074 0.35745 0.0
Mg70 Mg 0.20998 0.86447 0.69158 0.0
O71 O 0.19633 0.94209 0.67453 0.0
O72 O 0.09856 0.91455 0.68118 0.0
Mg73 Mg 0.04773 0.81706 0.69823 0.0
C74 C 0.15218 0.95277 0.67315 0.0
C75 C 0.34164 0.91161 0.67317 0.0
O76 O 0.31252 0.86243 0.65831 0.0
O77 O 0.20057 0.88856 0.73539 0.0
O78 O 0.09875 0.84704 0.73803 0.0
O79 O 0.18362 0.81144 0.65234 0.0
O80 O 0.12094 0.80122 0.6854 0.0
C81 C 0.1515 0.8721 0.74878 0.0
C82 C 0.12931 0.78426 0.66245 0.0
O83 O 0.31251 0.92609 0.68955 0.0
Mg84 Mg 0.77592 0.64776 0.60462 0.0
O85 O 0.78922 0.73864 0.622 0.0
O86 O 0.88689 0.80935 0.61539 0.0
Mg87 Mg 0.93799 0.76326 0.59809 0.0
C88 C 0.83323 0.79358 0.62348 0.0
C89 C 0.64419 0.56248 0.62282 0.0
O90 O 0.67325 0.54218 0.63757 0.0
O91 O 0.78523 0.68193 0.56095 0.0
O92 O 0.887 0.74261 0.55827 0.0
O93 O 0.80232 0.62061 0.64371 0.0
O94 O 0.86499 0.67382 0.61076 0.0
C95 C 0.83421 0.71487 0.54755 0.0
C96 C 0.85664 0.6481 0.63362 0.0
O97 O 0.6734 0.60649 0.60662 0.0
Mg98 Mg 0.12435 0.77938 0.93833 0.0
O99 O 0.047 0.79318 0.95558 0.0
O100 O 0.0751 0.89133 0.94938 0.0
Mg101 Mg 0.1728 0.94226 0.93263 0.0
C102 C 0.03662 0.83755 0.95717 0.0
C103 C 0.07667 0.64664 0.95553 0.0
O104 O 0.12603 0.67494 0.97031 0.0
O105 O 0.10122 0.7905 0.89459 0.0
O106 O 0.14359 0.89259 0.89248 0.0
O107 O 0.17739 0.8045 0.97762 0.0
O108 O 0.18781 0.86816 0.94496 0.0
C109 C 0.11844 0.84008 0.88145 0.0
C110 C 0.20484 0.85909 0.96775 0.0
O111 O 0.06224 0.67671 0.93967 0.0
Mg112 Mg 0.34166 0.1268 0.27203 0.0
O113 O 0.25031 0.04952 0.28918 0.0
O114 O 0.18017 0.07706 0.28215 0.0
Mg115 Mg 0.22689 0.17427 0.26481 0.0
C116 C 0.1955 0.03893 0.29042 0.0
C117 C 0.42554 0.07914 0.29111 0.0
O118 O 0.445 0.12789 0.30622 0.0
O119 O 0.30831 0.10205 0.22823 0.0
O120 O 0.24814 0.14368 0.22523 0.0
O121 O 0.36825 0.18067 0.31107 0.0
O122 O 0.31584 0.19019 0.2778 0.0
C123 C 0.27582 0.11841 0.21467 0.0
C124 C 0.34113 0.20765 0.30073 0.0
O125 O 0.38257 0.06514 0.27443 0.0
Mg126 Mg 0.20919 0.34481 0.60562 0.0
O127 O 0.19572 0.25376 0.62286 0.0
O128 O 0.09776 0.18344 0.61665 0.0
Mg129 Mg 0.04675 0.23003 0.59978 0.0
C130 C 0.15154 0.19893 0.62446 0.0
C131 C 0.34132 0.4304 0.62288 0.0
O132 O 0.31271 0.45176 0.63726 0.0
O133 O 0.19859 0.31048 0.56193 0.0
O134 O 0.09669 0.25027 0.55969 0.0
O135 O 0.18406 0.37238 0.64493 0.0
O136 O 0.12044 0.31931 0.61222 0.0
C137 C 0.14923 0.27774 0.54873 0.0
C138 C 0.1295 0.34517 0.63509 0.0
O139 O 0.31167 0.38553 0.60715 0.0
Mg140 Mg 0.86026 0.2105 0.9385 0.0
O141 O 0.93802 0.19763 0.95597 0.0
O142 O 0.91098 0.09978 0.94968 0.0
Mg143 Mg 0.81339 0.048 0.93284 0.0
C144 C 0.94899 0.15366 0.95756 0.0
C145 C 0.90603 0.34313 0.95533 0.0
O146 O 0.85601 0.31454 0.96968 0.0
O147 O 0.88406 0.19974 0.89483 0.0
O148 O 0.84235 0.09774 0.8927 0.0
O149 O 0.80655 0.18489 0.97761 0.0
O150 O 0.79731 0.12149 0.94504 0.0
C151 C 0.86721 0.15025 0.88168 0.0
C152 C 0.77959 0.13033 0.96771 0.0
O153 O 0.92156 0.31329 0.93987 0.0
Mg154 Mg 0.64459 0.8637 0.27162 0.0
O155 O 0.73511 0.94078 0.28949 0.0
O156 O 0.806 0.91425 0.28249 0.0
Mg157 Mg 0.76037 0.81751 0.26465 0.0
C158 C 0.79005 0.9518 0.2909 0.0
C159 C 0.55936 0.90978 0.2906 0.0
O160 O 0.53957 0.86039 0.30529 0.0
O161 O 0.67935 0.89013 0.22808 0.0
O162 O 0.73993 0.84895 0.2251 0.0
O163 O 0.61675 0.80819 0.31023 0.0
O164 O 0.67075 0.8005 0.27717 0.0
C165 C 0.71235 0.87436 0.21456 0.0
C166 C 0.64443 0.78183 0.29984 0.0
O167 O 0.603 0.92475 0.27418 0.0
C168 C 0.509 0.52749 0.0067 0.0
C169 C 0.53251 0.58215 0.00759 0.0
C170 C 0.48101 0.46345 0.00664 0.0
C171 C 0.45706 0.40875 0.00748 0.0
C172 C 0.0127 0.48348 0.33991 0.0
C173 C 0.04346 0.45962 0.34096 0.0
C174 C 0.97659 0.51133 0.33978 0.0
C175 C 0.9454 0.53475 0.34058 0.0
C176 C 0.46115 0.97873 0.67031 0.0
C177 C 0.40656 0.94782 0.67149 0.0
C178 C 0.5251 0.01466 0.67031 0.0
C179 C 0.5797 0.04544 0.67149 0.0
C180 C 0.5247 0.51011 0.62556 0.0
C181 C 0.57928 0.53372 0.62446 0.0
C182 C 0.46079 0.48236 0.62554 0.0
C183 C 0.40622 0.45885 0.62443 0.0
C184 C 0.97302 0.46289 0.95758 0.0
C185 C 0.94224 0.40819 0.95664 0.0
C186 C 0.00904 0.52693 0.95764 0.0
C187 C 0.04009 0.5816 0.95675 0.0
C188 C 0.47818 0.01218 0.2939 0.0
C189 C 0.45442 0.04304 0.29277 0.0
C190 C 0.50636 0.97636 0.29378 0.0
C191 C 0.53028 0.94566 0.29247 0.0
C192 C 0.27532 0.12599 0.16202 0.0
C193 C 0.27851 0.11949 0.18587 0.0
C194 C 0.27489 0.14071 0.13465 0.0
C195 C 0.27751 0.1507 0.11084 0.0
C196 C 0.12618 0.27636 0.46858 0.0
C197 C 0.11975 0.27934 0.4447 0.0
C198 C 0.14042 0.27654 0.49605 0.0
C199 C 0.14992 0.27983 0.51992 0.0
C200 C 0.84248 0.12613 0.80168 0.0
C201 C 0.83269 0.11976 0.77783 0.0
C202 C 0.85757 0.14072 0.82906 0.0
C203 C 0.86476 0.15063 0.85288 0.0
C204 C 0.71406 0.85333 0.13448 0.0
C205 C 0.71096 0.84311 0.11067 0.0
C206 C 0.7137 0.86785 0.16188 0.0
C207 C 0.71015 0.87384 0.18575 0.0
C208 C 0.84217 0.716 0.49485 0.0
C209 C 0.8329 0.71266 0.51874 0.0
C210 C 0.85645 0.71619 0.46738 0.0
C211 C 0.86313 0.71304 0.44354 0.0
C212 C 0.1279 0.84962 0.82882 0.0
C213 C 0.12077 0.83971 0.85265 0.0
C214 C 0.14289 0.86424 0.80143 0.0
C215 C 0.15265 0.87076 0.77759 0.0
C216 C 0.292 0.96308 -0.01736 0.0
C217 C 0.25369 0.91033 0.98063 0.0
C218 C 0.32398 0.02694 0.98074 0.0
C219 C 0.33855 0.07973 -0.01724 0.0
C220 C 0.29045 0.3257 0.31384 0.0
C221 C 0.25239 0.34032 0.3162 0.0
C222 C 0.32255 0.29396 0.31542 0.0
C223 C 0.33748 0.25604 0.31337 0.0
C224 C 0.96183 0.29592 0.64875 0.0
C225 C 0.90909 0.25775 0.65073 0.0
C226 C 0.02564 0.32783 0.65042 0.0
C227 C 0.0783 0.34238 0.64814 0.0
C228 C 0.65949 0.96246 0.98042 0.0
C229 C 0.64514 0.90976 -0.01742 0.0
C230 C 0.69166 0.02634 -0.01774 0.0
C231 C 0.73024 0.07901 0.98033 0.0
C232 C 0.66177 0.69431 0.31389 0.0
C233 C 0.64723 0.73256 0.31207 0.0
C234 C 0.69384 0.66254 0.31225 0.0
C235 C 0.73217 0.64832 0.31472 0.0
C236 C 0.02489 0.69812 0.64723 0.0
C237 C 0.07763 0.73608 0.64952 0.0
C238 C 0.96106 0.6662 0.64869 0.0
C239 C 0.90833 0.65143 0.64645 0.0
C240 C 0.05341 0.16918 0.97708 0.0
C241 C 0.00665 0.16472 0.96837 0.0
C242 C 0.10611 0.16929 -0.01296 0.0
C243 C 0.14856 0.16499 -0.00432 0.0
C244 C 0.8789 0.0557 0.31092 0.0
C245 C 0.83661 0.00916 0.30201 0.0
C246 C 0.93152 0.10827 0.32097 0.0
C247 C 0.97829 0.15071 0.32961 0.0
C248 C 0.81809 0.88263 0.64317 0.0
C249 C 0.82243 0.84028 0.63439 0.0
C250 C 0.81806 0.93519 0.65325 0.0
C251 C 0.82237 0.98184 0.66206 0.0
C252 C 0.87992 0.8231 -0.01343 0.0
C253 C 0.83753 0.82744 -0.00474 0.0
C254 C 0.93248 0.82295 0.97661 0.0
C255 C 0.97911 0.82705 0.96793 0.0
C256 C 0.05284 0.88257 0.31992 0.0
C257 C 0.00595 0.84023 0.32851 0.0
C258 C 0.10575 0.93503 0.30999 0.0
C259 C 0.14842 0.98154 0.30128 0.0
C260 C 0.16687 0.05703 0.65375 0.0
C261 C 0.16275 0.01034 0.6624 0.0
C262 C 0.16669 0.10964 0.64383 0.0
C263 C 0.1623 0.15205 0.63518 0.0
loop_
_geom_bond_atom_site_label_1
_geom_bond_atom_site_label_2
_geom_bond_distance
_geom_bond_site_symmetry_2
_ccdc_geom_bond_type
Mg0 O1 2.028 . S
Mg0 O7 1.986 . S
Mg0 O9 2.114 . S
Mg0 O10 2.251 . S
Mg0 O13 2.010 . S
O1 Mg0 2.028 . S
O1 C4 1.250 . S
O2 Mg3 2.028 . S
O2 C4 1.248 . S
Mg3 O2 2.028 . S
Mg3 O8 2.032 . S
Mg3 O10 2.079 . S
C4 O1 1.250 . S
C4 O2 1.248 . S
C5 O6 1.264 . S
C5 O13 1.249 . S
O6 C5 1.264 . S
O7 Mg0 1.986 . S
O7 C11 1.246 . S
O8 Mg3 2.032 . S
O8 C11 1.259 . S
O9 Mg0 2.114 . S
O9 C12 1.252 . S
O10 Mg0 2.251 . S
O10 Mg3 2.079 . S
O10 C12 1.273 . S
C11 O7 1.246 . S
C11 O8 1.259 . S
C12 O9 1.252 . S
C12 O10 1.273 . S
O13 Mg0 2.010 . S
O13 C5 1.249 . S
Mg14 O15 2.028 . S
Mg14 O21 1.986 . S
Mg14 O23 2.114 . S
Mg14 O24 2.251 . S
Mg14 O27 2.010 . S
O15 Mg14 2.028 . S
O15 C18 1.250 . S
O16 Mg17 2.028 . S
O16 C18 1.248 . S
Mg17 O16 2.028 . S
Mg17 O22 2.032 . S
Mg17 O24 2.079 . S
C18 O15 1.250 . S
C18 O16 1.248 . S
C19 O20 1.264 . S
C19 O27 1.249 . S
O20 C19 1.264 . S
O21 Mg14 1.986 . S
O21 C25 1.246 . S
O22 Mg17 2.032 . S
O22 C25 1.259 . S
O23 Mg14 2.114 . S
O23 C26 1.252 . S
O24 Mg14 2.251 . S
O24 Mg17 2.079 . S
O24 C26 1.273 . S
C25 O21 1.246 . S
C25 O22 1.259 . S
C26 O23 1.252 . S
C26 O24 1.273 . S
O27 Mg14 2.010 . S
O27 C19 1.249 . S
Mg28 O29 2.028 . S
Mg28 O35 1.986 . S
Mg28 O37 2.114 . S
Mg28 O38 2.251 . S
Mg28 O41 2.010 . S
O29 Mg28 2.028 . S
O29 C32 1.250 . S
O30 Mg31 2.028 . S
O30 C32 1.248 . S
Mg31 O30 2.028 . S
Mg31 O36 2.032 . S
Mg31 O38 2.079 . S
C32 O29 1.250 . S
C32 O30 1.248 . S
C33 O34 1.264 . S
C33 O41 1.249 . S
O34 C33 1.264 . S
O35 Mg28 1.986 . S
O35 C39 1.246 . S
O36 Mg31 2.032 . S
O36 C39 1.259 . S
O37 Mg28 2.114 . S
O37 C40 1.252 . S
O38 Mg28 2.251 . S
O38 Mg31 2.079 . S
O38 C40 1.273 . S
C39 O35 1.246 . S
C39 O36 1.259 . S
C40 O37 1.252 . S
C40 O38 1.273 . S
O41 Mg28 2.010 . S
O41 C33 1.249 . S
Mg42 O43 2.028 . S
Mg42 O49 1.986 . S
Mg42 O51 2.114 . S
Mg42 O52 2.251 . S
Mg42 O55 2.010 . S
O43 Mg42 2.028 . S
O43 C46 1.250 . S
O44 Mg45 2.028 . S
O44 C46 1.248 . S
Mg45 O44 2.028 . S
Mg45 O50 2.032 . S
Mg45 O52 2.079 . S
C46 O43 1.250 . S
C46 O44 1.248 . S
C47 O48 1.264 . S
C47 O55 1.249 . S
O48 C47 1.264 . S
O49 Mg42 1.986 . S
O49 C53 1.246 . S
O50 Mg45 2.032 . S
O50 C53 1.259 . S
O51 Mg42 2.114 . S
O51 C54 1.252 . S
O52 Mg42 2.251 . S
O52 Mg45 2.079 . S
O52 C54 1.273 . S
C53 O49 1.246 . S
C53 O50 1.259 . S
C54 O51 1.252 . S
C54 O52 1.273 . S
O55 Mg42 2.010 . S
O55 C47 1.249 . S
Mg56 O57 2.028 . S
Mg56 O63 1.986 . S
Mg56 O65 2.114 . S
Mg56 O66 2.251 . S
Mg56 O69 2.010 . S
O57 Mg56 2.028 . S
O57 C60 1.250 . S
O58 Mg59 2.028 . S
O58 C60 1.248 . S
Mg59 O58 2.028 . S
Mg59 O64 2.032 . S
Mg59 O66 2.079 . S
C60 O57 1.250 . S
C60 O58 1.248 . S
C61 O62 1.264 . S
C61 O69 1.249 . S
O62 C61 1.264 . S
O63 Mg56 1.986 . S
O63 C67 1.246 . S
O64 Mg59 2.032 . S
O64 C67 1.259 . S
O65 Mg56 2.114 . S
O65 C68 1.252 . S
O66 Mg56 2.251 . S
O66 Mg59 2.079 . S
O66 C68 1.273 . S
C67 O63 1.246 . S
C67 O64 1.259 . S
C68 O65 1.252 . S
C68 O66 1.273 . S
O69 Mg56 2.010 . S
O69 C61 1.249 . S
Mg70 O71 2.028 . S
Mg70 O77 1.986 . S
Mg70 O79 2.114 . S
Mg70 O80 2.251 . S
Mg70 O83 2.010 . S
O71 Mg70 2.028 . S
O71 C74 1.250 . S
O72 Mg73 2.028 . S
O72 C74 1.248 . S
Mg73 O72 2.028 . S
Mg73 O78 2.032 . S
Mg73 O80 2.079 . S
C74 O71 1.250 . S
C74 O72 1.248 . S
C75 O76 1.264 . S
C75 O83 1.249 . S
O76 C75 1.264 . S
O77 Mg70 1.986 . S
O77 C81 1.246 . S
O78 Mg73 2.032 . S
O78 C81 1.259 . S
O79 Mg70 2.114 . S
O79 C82 1.252 . S
O80 Mg70 2.251 . S
O80 Mg73 2.079 . S
O80 C82 1.273 . S
C81 O77 1.246 . S
C81 O78 1.259 . S
C82 O79 1.252 . S
C82 O80 1.273 . S
O83 Mg70 2.010 . S
O83 C75 1.249 . S
Mg84 O85 2.028 . S
Mg84 O91 1.986 . S
Mg84 O93 2.114 . S
Mg84 O94 2.251 . S
Mg84 O97 2.010 . S
O85 Mg84 2.028 . S
O85 C88 1.250 . S
O86 Mg87 2.028 . S
O86 C88 1.248 . S
Mg87 O86 2.028 . S
Mg87 O92 2.032 . S
Mg87 O94 2.079 . S
C88 O85 1.250 . S
C88 O86 1.248 . S
C89 O90 1.264 . S
C89 O97 1.249 . S
O90 C89 1.264 . S
O91 Mg84 1.986 . S
O91 C95 1.246 . S
O92 Mg87 2.032 . S
O92 C95 1.259 . S
O93 Mg84 2.114 . S
O93 C96 1.252 . S
O94 Mg84 2.251 . S
O94 Mg87 2.079 . S
O94 C96 1.273 . S
C95 O91 1.246 . S
C95 O92 1.259 . S
C96 O93 1.252 . S
C96 O94 1.273 . S
O97 Mg84 2.010 . S
O97 C89 1.249 . S
Mg98 O99 2.028 . S
Mg98 O105 1.986 . S
Mg98 O107 2.114 . S
Mg98 O108 2.251 . S
Mg98 O111 2.010 . S
O99 Mg98 2.028 . S
O99 C102 1.250 . S
O100 Mg101 2.028 . S
O100 C102 1.248 . S
Mg101 O100 2.028 . S
Mg101 O106 2.032 . S
Mg101 O108 2.079 . S
C102 O99 1.250 . S
C102 O100 1.248 . S
C103 O104 1.264 . S
C103 O111 1.249 . S
O104 C103 1.264 . S
O105 Mg98 1.986 . S
O105 C109 1.246 . S
O106 Mg101 2.032 . S
O106 C109 1.259 . S
O107 Mg98 2.114 . S
O107 C110 1.252 . S
O108 Mg98 2.251 . S
O108 Mg101 2.079 . S
O108 C110 1.273 . S
C109 O105 1.246 . S
C109 O106 1.259 . S
C110 O107 1.252 . S
C110 O108 1.273 . S
O111 Mg98 2.010 . S
O111 C103 1.249 . S
Mg112 O113 2.028 . S
Mg112 O119 1.986 . S
Mg112 O121 2.114 . S
Mg112 O122 2.251 . S
Mg112 O125 2.010 . S
O113 Mg112 2.028 . S
O113 C116 1.250 . S
O114 Mg115 2.028 . S
O114 C116 1.248 . S
Mg115 O114 2.028 . S
Mg115 O120 2.032 . S
Mg115 O122 2.079 . S
C116 O113 1.250 . S
C116 O114 1.248 . S
C117 O118 1.264 . S
C117 O125 1.249 . S
O118 C117 1.264 . S
O119 Mg112 1.986 . S
O119 C123 1.246 . S
O120 Mg115 2.032 . S
O120 C123 1.259 . S
O121 Mg112 2.114 . S
O121 C124 1.252 . S
O122 Mg112 2.251 . S
O122 Mg115 2.079 . S
O122 C124 1.273 . S
C123 O119 1.246 . S
C123 O120 1.259 . S
C124 O121 1.252 . S
C124 O122 1.273 . S
O125 Mg112 2.010 . S
O125 C117 1.249 . S
Mg126 O127 2.028 . S
Mg126 O133 1.986 . S
Mg126 O135 2.114 . S
Mg126 O136 2.251 . S
Mg126 O139 2.010 . S
O127 Mg126 2.028 . S
O127 C130 1.250 . S
O128 Mg129 2.028 . S
O128 C130 1.248 . S
Mg129 O128 2.028 . S
Mg129 O134 2.032 . S
Mg129 O136 2.079 . S
C130 O127 1.250 . S
C130 O128 1.248 . S
C131 O132 1.264 . S
C131 O139 1.249 . S
O132 C131 1.264 . S
O133 Mg126 1.986 . S
O133 C137 1.246 . S
O134 Mg129 2.032 . S
O134 C137 1.259 . S
O135 Mg126 2.114 . S
O135 C138 1.252 . S
O136 Mg126 2.251 . S
O136 Mg129 2.079 . S
O136 C138 1.273 . S
C137 O133 1.246 . S
C137 O134 1.259 . S
C138 O135 1.252 . S
C138 O136 1.273 . S
O139 Mg126 2.010 . S
O139 C131 1.249 . S
Mg140 O141 2.028 . S
Mg140 O147 1.986 . S
Mg140 O149 2.114 . S
Mg140 O150 2.251 . S
Mg140 O153 2.010 . S
O141 Mg140 2.028 . S
O141 C144 1.250 . S
O142 Mg143 2.028 . S
O142 C144 1.248 . S
Mg143 O142 2.028 . S
Mg143 O148 2.032 . S
Mg143 O150 2.079 . S
C144 O141 1.250 . S
C144 O142 1.248 . S
C145 O146 1.264 . S
C145 O153 1.249 . S
O146 C145 1.264 . S
O147 Mg140 1.986 . S
O147 C151 1.246 . S
O148 Mg143 2.032 . S
O148 C151 1.259 . S
O149 Mg140 2.114 . S
O149 C152 1.252 . S
O150 Mg140 2.251 . S
O150 Mg143 2.079 . S
O150 C152 1.273 . S
C151 O147 1.246 . S
C151 O148 1.259 . S
C152 O149 1.252 . S
C152 O150 1.273 . S
O153 Mg140 2.010 . S
O153 C145 1.249 . S
Mg154 O155 2.028 . S
Mg154 O161 1.986 . S
Mg154 O163 2.114 . S
Mg154 O164 2.251 . S
Mg154 O167 2.010 . S
O155 Mg154 2.028 . S
O155 C158 1.250 . S
O156 Mg157 2.028 . S
O156 C158 1.248 . S
Mg157 O156 2.028 . S
Mg157 O162 2.032 . S
Mg157 O164 2.079 . S
C158 O155 1.250 . S
C158 O156 1.248 . S
C159 O160 1.264 . S
C159 O167 1.249 . S
O160 C159 1.264 . S
O161 Mg154 1.986 . S
O161 C165 1.246 . S
O162 Mg157 2.032 . S
O162 C165 1.259 . S
O163 Mg154 2.114 . S
O163 C166 1.252 . S
O164 Mg154 2.251 . S
O164 Mg157 2.079 . S
O164 C166 1.273 . S
C165 O161 1.246 . S
C165 O162 1.259 . S
C166 O163 1.252 . S
C166 O164 1.273 . S
O167 Mg154 2.010 . S
O167 C159 1.249 . S
C168 C169 1.170 . S
C168 C170 1.380 . S
C169 C168 1.170 . S
C170 C168 1.380 . S
C170 C171 1.170 . S
C171 C170 1.170 . S
C172 C173 1.170 . S
C172 C174 1.380 1_455 S
C173 C172 1.170 . S
C174 C172 1.380 1_655 S
C174 C175 1.170 . S
C175 C174 1.170 . S
C176 C177 1.170 . S
C176 C178 1.380 1_565 S
C177 C176 1.170 . S
C178 C176 1.380 1_545 S
C178 C179 1.170 . S
C179 C178 1.170 . S
C180 C181 1.170 . S
C180 C182 1.380 . S
C181 C180 1.170 . S
C182 C180 1.380 . S
C182 C183 1.170 . S
C183 C182 1.170 . S
C184 C185 1.170 . S
C184 C186 1.380 1_655 S
C185 C184 1.170 . S
C186 C184 1.380 1_455 S
C186 C187 1.170 . S
C187 C186 1.170 . S
C188 C189 1.170 . S
C188 C190 1.380 1_545 S
C189 C188 1.170 . S
C190 C188 1.380 1_565 S
C190 C191 1.170 . S
C191 C190 1.170 . S
C192 C193 1.170 . S
C192 C194 1.380 . S
C193 C192 1.170 . S
C194 C192 1.380 . S
C194 C195 1.170 . S
C195 C194 1.170 . S
C196 C197 1.170 . S
C196 C198 1.380 . S
C197 C196 1.170 . S
C198 C196 1.380 . S
C198 C199 1.170 . S
C199 C198 1.170 . S
C200 C201 1.170 . S
C200 C202 1.380 . S
C201 C200 1.170 . S
C202 C200 1.380 . S
C202 C203 1.170 . S
C203 C202 1.170 . S
C204 C205 1.170 . S
C204 C206 1.380 . S
C205 C204 1.170 . S
C206 C204 1.380 . S
C206 C207 1.170 . S
C207 C206 1.170 . S
C208 C209 1.170 . S
C208 C210 1.380 . S
C209 C208 1.170 . S
C210 C208 1.380 . S
C210 C211 1.170 . S
C211 C210 1.170 . S
C212 C213 1.170 . S
C212 C214 1.380 . S
C213 C212 1.170 . S
C214 C212 1.380 . S
C214 C215 1.170 . S
C215 C214 1.170 . S
C216 C217 1.171 . S
C216 C218 1.380 1_566 S
C217 C216 1.171 . S
C218 C216 1.380 1_544 S
C218 C219 1.170 . S
C219 C218 1.170 . S
C220 C221 1.170 . S
C220 C222 1.380 . S
C221 C220 1.170 . S
C222 C220 1.380 . S
C222 C223 1.170 . S
C223 C222 1.170 . S
C224 C225 1.170 . S
C224 C226 1.380 1_655 S
C225 C224 1.170 . S
C226 C224 1.380 1_455 S
C226 C227 1.170 . S
C227 C226 1.170 . S
C228 C229 1.167 1_556 S
C228 C230 1.383 1_565 S
C229 C228 1.167 1_554 S
C230 C228 1.383 1_545 S
C230 C231 1.170 . S
C231 C230 1.170 . S
C232 C233 1.170 . S
C232 C234 1.380 . S
C233 C232 1.170 . S
C234 C232 1.380 . S
C234 C235 1.170 . S
C235 C234 1.170 . S
C236 C237 1.170 . S
C236 C238 1.380 1_455 S
C237 C236 1.170 . S
C238 C236 1.380 1_655 S
C238 C239 1.170 . S
C239 C238 1.170 . S
C240 C241 1.170 . S
C240 C242 1.380 1_556 S
C241 C240 1.170 . S
C242 C240 1.380 1_554 S
C242 C243 1.170 . S
C243 C242 1.170 . S
C244 C245 1.170 . S
C244 C246 1.380 . S
C245 C244 1.170 . S
C246 C244 1.380 . S
C246 C247 1.170 . S
C247 C246 1.170 . S
C248 C249 1.170 . S
C248 C250 1.380 . S
C249 C248 1.170 . S
C250 C248 1.380 . S
C250 C251 1.170 . S
C251 C250 1.170 . S
C252 C253 1.170 . S
C252 C254 1.380 1_554 S
C253 C252 1.170 . S
C254 C252 1.380 1_556 S
C254 C255 1.170 . S
C255 C254 1.170 . S
C256 C257 1.170 . S
C256 C258 1.380 . S
C257 C256 1.170 . S
C258 C256 1.380 . S
C258 C259 1.170 . S
C259 C258 1.170 . S
C260 C261 1.170 . S
C260 C262 1.380 . S
C261 C260 1.170 . S
C262 C260 1.380 . S
C262 C263 1.170 . S
C263 C262 1.170 . S
C169 C47 1.425 . S
C171 C5 1.402 . S
C173 C19 1.402 . S
C175 C61 1.428 . S
C177 C75 1.448 . S
C179 C33 1.449 . S
C181 C89 1.438 . S
C183 C131 1.404 . S
C185 C145 1.403 . S
C187 C103 1.421 . S
C189 C117 1.454 . S
C191 C159 1.437 . S
C193 C123 1.519 . S
C195 C11 1.505 . S
C197 C25 1.516 . S
C199 C137 1.503 . S
C201 C39 1.513 . S
C203 C151 1.501 . S
C205 C53 1.500 . S
C207 C165 1.508 . S
C209 C95 1.511 . S
C211 C67 1.500 . S
C213 C109 1.500 . S
C215 C81 1.509 . S
C217 C110 1.115 . S
C219 C12 1.099 . S
C221 C26 1.128 . S
C223 C124 1.071 . S
C225 C40 1.080 . S
C227 C138 1.127 . S
C229 C54 1.124 . S
C231 C152 1.086 . S
C233 C166 1.076 . S
C235 C68 1.128 . S
C237 C82 1.120 . S
C239 C96 1.069 . S
C241 C144 1.356 1_455 S
C243 C4 1.352 . S
C245 C158 1.352 1_545 S
C247 C18 1.368 1_655 S
C249 C88 1.385 . S
C251 C32 1.391 1_565 S
C253 C46 1.355 . S
C255 C102 1.373 1_655 S
C257 C60 1.354 1_455 S
C259 C116 1.353 1_565 S
C261 C74 1.373 1_545 S
C263 C130 1.355 . S
