# Generated by pormake.
# Topology ecc, (8)-cn, num edge types: 1
# Building blocks:
#     Node 0, Type 0, BuildingBlock: EBIMEJ_clean_sbu_0, # of connection points: 8
#     Node 1, Type 0, BuildingBlock: EBIMEJ_clean_sbu_0, # of connection points: 8
#     Node 2, Type 0, BuildingBlock: EBIMEJ_clean_sbu_0, # of connection points: 8
#     Node 3, Type 0, BuildingBlock: EBIMEJ_clean_sbu_0, # of connection points: 8
#     Node 4, Type 0, BuildingBlock: EBIMEJ_clean_sbu_0, # of connection points: 8
#     Node 5, Type 0, BuildingBlock: EBIMEJ_clean_sbu_0, # of connection points: 8
#     Node 6, Type 0, BuildingBlock: EBIMEJ_clean_sbu_0, # of connection points: 8
#     Node 7, Type 0, BuildingBlock: EBIMEJ_clean_sbu_0, # of connection points: 8
#     Node 8, Type 0, BuildingBlock: EBIMEJ_clean_sbu_0, # of connection points: 8
#     Node 9, Type 0, BuildingBlock: EBIMEJ_clean_sbu_0, # of connection points: 8
#     Node 10, Type 0, BuildingBlock: EBIMEJ_clean_sbu_0, # of connection points: 8
#     Node 11, Type 0, BuildingBlock: EBIMEJ_clean_sbu_0, # of connection points: 8
#     Node 12, Type 0, BuildingBlock: EBIMEJ_clean_sbu_0, # of connection points: 8
#     Node 13, Type 0, BuildingBlock: EBIMEJ_clean_sbu_0, # of connection points: 8
#     Node 14, Type 0, BuildingBlock: EBIMEJ_clean_sbu_0, # of connection points: 8
#     Node 15, Type 0, BuildingBlock: EBIMEJ_clean_sbu_0, # of connection points: 8
#     Node 16, Type 0, BuildingBlock: EBIMEJ_clean_sbu_0, # of connection points: 8
#     Node 17, Type 0, BuildingBlock: EBIMEJ_clean_sbu_0, # of connection points: 8
#     Edge 18, Type (0, 0), None
#     Edge 19, Type (0, 0), None
#     Edge 20, Type (0, 0), None
#     Edge 21, Type (0, 0), None
#     Edge 22, Type (0, 0), None
#     Edge 23, Type (0, 0), None
#     Edge 24, Type (0, 0), None
#     Edge 25, Type (0, 0), None
#     Edge 26, Type (0, 0), None
#     Edge 27, Type (0, 0), None
#     Edge 28, Type (0, 0), None
#     Edge 29, Type (0, 0), None
#     Edge 30, Type (0, 0), None
#     Edge 31, Type (0, 0), None
#     Edge 32, Type (0, 0), None
#     Edge 33, Type (0, 0), None
#     Edge 34, Type (0, 0), None
#     Edge 35, Type (0, 0), None
#     Edge 36, Type (0, 0), None
#     Edge 37, Type (0, 0), None
#     Edge 38, Type (0, 0), None
#     Edge 39, Type (0, 0), None
#     Edge 40, Type (0, 0), None
#     Edge 41, Type (0, 0), None
#     Edge 42, Type (0, 0), None
#     Edge 43, Type (0, 0), None
#     Edge 44, Type (0, 0), None
#     Edge 45, Type (0, 0), None
#     Edge 46, Type (0, 0), None
#     Edge 47, Type (0, 0), None
#     Edge 48, Type (0, 0), None
#     Edge 49, Type (0, 0), None
#     Edge 50, Type (0, 0), None
#     Edge 51, Type (0, 0), None
#     Edge 52, Type (0, 0), None
#     Edge 53, Type (0, 0), None
#     Edge 54, Type (0, 0), None
#     Edge 55, Type (0, 0), None
#     Edge 56, Type (0, 0), None
#     Edge 57, Type (0, 0), None
#     Edge 58, Type (0, 0), None
#     Edge 59, Type (0, 0), None
#     Edge 60, Type (0, 0), None
#     Edge 61, Type (0, 0), None
#     Edge 62, Type (0, 0), None
#     Edge 63, Type (0, 0), None
#     Edge 64, Type (0, 0), None
#     Edge 65, Type (0, 0), None
#     Edge 66, Type (0, 0), None
#     Edge 67, Type (0, 0), None
#     Edge 68, Type (0, 0), None
#     Edge 69, Type (0, 0), None
#     Edge 70, Type (0, 0), None
#     Edge 71, Type (0, 0), None
#     Edge 72, Type (0, 0), None
#     Edge 73, Type (0, 0), None
#     Edge 74, Type (0, 0), None
#     Edge 75, Type (0, 0), None
#     Edge 76, Type (0, 0), None
#     Edge 77, Type (0, 0), None
#     Edge 78, Type (0, 0), None
#     Edge 79, Type (0, 0), None
#     Edge 80, Type (0, 0), None
#     Edge 81, Type (0, 0), None
#     Edge 82, Type (0, 0), None
#     Edge 83, Type (0, 0), None
#     Edge 84, Type (0, 0), None
#     Edge 85, Type (0, 0), None
#     Edge 86, Type (0, 0), None
#     Edge 87, Type (0, 0), None
#     Edge 88, Type (0, 0), None
#     Edge 89, Type (0, 0), None
# Relax obj value: 0.348
# Max RMSD: 0.291
# Mean RMSD: 0.291
data_MOF--net-ecc--node1-EBIMEJ_clean_sbu_0--edge1-none
_symmetry_space_group_name_H-M    P1
_symmetry_Int_Tables_number       1
_symmetry_cell_setting            triclinic
loop_
_symmetry_equiv_pos_as_xyz
'x, y, z'
_cell_length_a     30.81471
_cell_length_b     30.820893
_cell_length_c     13.209978
_cell_angle_alpha  90.065739
_cell_angle_beta   89.997885
_cell_angle_gamma 120.02566
loop_
_atom_site_label
_atom_site_type_symbol
_atom_site_fract_x
_atom_site_fract_y
_atom_site_fract_z
_atom_type_partial_charge
Co0 Co 0.18814 0.06367 0.66632 0.0
Co1 Co 0.23761 0.08782 0.8482 0.0
Co2 Co 0.26393 1.03276 0.69651 0.0
H3 H 0.22052 1.03976 0.70789 0.0
O4 O 0.20389 1.03014 0.76342 0.0
H5 H 0.28374 0.08007 0.85916 0.0
O6 O 0.30018 0.08567 0.80248 0.0
Co7 Co 0.32197 0.07119 0.93518 0.0
O8 O 0.31369 0.12542 0.03136 0.0
O9 O 0.27201 0.14802 0.92871 0.0
O10 O 0.35311 1.03924 0.83071 0.0
O11 O 0.32407 1.03012 0.66756 0.0
O12 O 0.1139 1.03781 0.66619 0.0
O13 O 0.14576 1.0144 0.77731 0.0
O14 O 0.25755 1.00151 0.96231 0.0
O15 O 0.2086 1.03482 0.96172 0.0
C16 C 0.1768 0.97326 0.55235 0.0
C17 C 0.18959 0.13369 0.78256 0.0
C18 C 0.40587 0.11337 1.02484 0.0
C19 C 0.28236 0.12895 0.58933 0.0
C20 C 0.29553 0.15474 1.00932 0.0
C21 C 0.35372 1.02896 0.73421 0.0
C22 C 0.10751 1.01506 0.74908 0.0
C23 C 0.21368 0.99586 0.97482 0.0
O24 O 0.16336 1.00576 0.56956 0.0
O25 O 0.21842 0.97848 0.5903 0.0
O26 O 0.1809 0.10181 0.85281 0.0
O27 O 0.2162 0.13435 0.71014 0.0
O28 O 0.3645 0.09415 0.07047 0.0
O29 O 0.39886 0.1078 0.93108 0.0
O30 O 0.25481 0.12866 0.65919 0.0
O31 O 0.28337 0.0877 0.58154 0.0
Co32 Co 0.10476 0.17801 0.66647 0.0
Co33 Co 1.08043 0.20336 0.84819 0.0
Co34 Co 0.13574 0.28476 0.69694 0.0
H35 H 0.12867 0.23432 0.70824 0.0
O36 O 0.13821 0.2273 0.76385 0.0
H37 H 0.08829 0.25728 0.85926 0.0
O38 O 1.08277 0.26815 0.80256 0.0
Co39 Co 0.09722 0.30442 0.93539 0.0
O40 O 1.04319 0.24186 0.03157 0.0
O41 O 1.02016 0.17762 0.92834 0.0
O42 O 0.12915 0.3675 0.83098 0.0
O43 O 0.13847 0.34755 0.66796 0.0
O44 O 0.13053 0.1296 0.66606 0.0
O45 O 0.15389 0.18475 0.77778 0.0
O46 O 0.16688 0.30965 0.96262 0.0
O47 O 0.13335 0.22736 0.96202 0.0
C48 C 0.19519 0.25708 0.55282 0.0
C49 C 1.03462 0.10938 0.78221 0.0
C50 C 1.05488 0.346 1.0249 0.0
C51 C 1.03954 0.20702 0.5896 0.0
C52 C 1.01371 0.19438 1.00931 0.0
C53 C 0.13952 0.37836 0.73453 0.0
C54 C 0.15324 0.14589 0.74913 0.0
C55 C 0.17241 0.27139 0.97515 0.0
O56 O 0.16265 0.21113 0.56984 0.0
O57 O 0.19003 0.29349 0.59092 0.0
O58 O 1.06639 0.13264 0.85275 0.0
O59 O 1.03402 0.13526 0.70967 0.0
O60 O 1.07428 0.32407 0.07061 0.0
O61 O 1.06037 0.34443 0.93115 0.0
O62 O 1.03985 0.17982 0.65948 0.0
O63 O 1.08082 0.24926 0.5818 0.0
Co64 Co 0.9904 0.98007 0.66639 0.0
Co65 Co 0.96507 0.93055 0.84812 0.0
Co66 Co 0.88363 0.90435 0.69664 0.0
H67 H 0.9341 0.94772 0.70806 0.0
O68 O 0.94115 0.96433 0.76368 0.0
H69 H 0.91113 0.88444 0.85907 0.0
O70 O 0.90024 0.86803 0.80232 0.0
Co71 Co 0.86403 0.84622 0.93515 0.0
O72 O 0.92658 0.85459 0.03119 0.0
O73 O 0.99084 0.89611 0.92837 0.0
O74 O 0.80093 0.8151 0.83061 0.0
O75 O 0.82078 0.84426 0.66761 0.0
O76 O 1.03869 1.05432 0.66581 0.0
O77 O 0.98371 1.02254 0.77767 0.0
O78 O 0.85878 0.91065 0.96225 0.0
O79 O 0.94109 0.95951 0.96184 0.0
C80 C 0.91137 0.99145 0.5526 0.0
C81 C 1.05896 0.97861 0.7824 0.0
C82 C 0.82239 0.76244 1.0251 0.0
C83 C 0.9613 0.88585 0.58917 0.0
C84 C 0.97406 0.87271 1.00905 0.0
C85 C 0.79001 0.81455 0.73418 0.0
C86 C 1.02247 0.0608 0.74889 0.0
C87 C 0.89705 0.95449 0.97483 0.0
O88 O 0.95732 1.00483 0.56969 0.0
O89 O 0.87493 0.9499 0.59063 0.0
O90 O 1.0358 0.98726 0.85285 0.0
O91 O 1.03304 0.95203 0.70984 0.0
O92 O 0.84461 0.80388 0.07057 0.0
O93 O 0.82373 0.76931 0.93133 0.0
O94 O 0.98857 0.91336 0.65914 0.0
O95 O 0.91906 0.88488 0.58146 0.0
Co96 Co 0.86688 0.07667 0.1169 0.0
Co97 Co 0.9249 0.11508 0.3556 0.0
Co98 Co 0.95126 0.06006 0.20388 0.0
H99 H 0.90512 0.0678 0.19291 0.0
O100 O 0.88868 0.06219 0.2496 0.0
H101 H 0.96833 0.10808 0.34423 0.0
O102 O 0.98496 0.11773 0.28871 0.0
Co103 Co 1.00072 0.08419 0.38578 0.0
O104 O 1.02549 0.14209 0.48257 0.0
O105 O 0.9704 0.16936 0.46183 0.0
O106 O 0.97267 1.01351 0.34189 0.0
O107 O 1.00798 1.04609 0.19927 0.0
O108 O 0.82435 1.0537 0.9816 0.0
O109 O 0.78999 1.04008 0.12099 0.0
O110 O 0.93408 1.01917 0.39292 0.0
O111 O 0.90545 0.06013 0.47056 0.0
C112 C 0.89335 0.99314 0.04274 0.0
C113 C 0.83512 0.11888 0.31788 0.0
C114 C 1.08134 0.13282 0.303 0.0
C115 C 0.97516 0.15201 0.07725 0.0
C116 C 1.01203 0.17459 0.49975 0.0
C117 C 0.99925 1.01416 0.26942 0.0
C118 C 0.78298 1.0345 0.02723 0.0
C119 C 0.90652 1.01891 0.46271 0.0
O120 O 0.87514 1.02243 1.02074 0.0
O121 O 0.9169 0.99989 0.12332 0.0
O122 O 0.86476 0.11771 0.38453 0.0
O123 O 0.83574 0.10862 0.22138 0.0
O124 O 1.07497 0.11005 0.38586 0.0
O125 O 1.04308 0.13349 0.27482 0.0
O126 O 0.93128 0.14635 0.08973 0.0
O127 O 0.98029 0.11309 0.0904 0.0
Co128 Co 0.09163 0.84344 0.11669 0.0
Co129 Co 1.05312 0.8631 0.35518 0.0
Co130 Co 0.10839 0.9445 0.20389 0.0
H131 H 0.10055 0.89058 0.19282 0.0
O132 O 0.10608 0.87973 0.24951 0.0
H133 H 1.06019 0.91355 0.34388 0.0
O134 O 1.05063 0.92056 0.28829 0.0
Co135 Co 1.0841 0.96987 0.38563 0.0
O136 O 1.0262 0.93674 0.48228 0.0
O137 O 0.99884 0.85437 0.4612 0.0
O138 O 0.15482 1.01263 0.34236 0.0
O139 O 0.12242 1.01521 0.19933 0.0
O140 O 0.11458 0.82381 0.98147 0.0
O141 O 0.12846 0.80341 0.12092 0.0
O142 O 0.14903 0.96811 0.39263 0.0
O143 O 0.10806 0.8986 0.4703 0.0
C144 C 0.17512 0.95349 0.04275 0.0
C145 C 1.04935 0.76951 0.31756 0.0
C146 C 1.03559 1.00195 0.30294 0.0
C147 C 1.01643 0.87646 0.07693 0.0
C148 C 0.99367 0.89078 0.49927 0.0
C149 C 0.15425 1.03849 0.26978 0.0
C150 C 0.13396 0.80186 0.02717 0.0
C151 C 0.14931 0.94086 0.46244 0.0
O152 O 0.14567 0.906 1.02052 0.0
O153 O 0.16865 0.97026 0.1237 0.0
O154 O 1.05041 0.80032 0.38413 0.0
O155 O 1.0597 0.78036 0.22111 0.0
O156 O 1.05832 1.01828 0.38599 0.0
O157 O 1.03494 0.96308 0.27435 0.0
O158 O 1.02197 0.83819 0.08943 0.0
O159 O 1.05545 0.9205 0.0901 0.0
Co160 Co 0.32482 0.30164 0.11694 0.0
Co161 Co 0.30521 0.24353 0.35547 0.0
Co162 Co 0.22378 0.21729 0.20396 0.0
H163 H 0.27772 0.26341 0.19301 0.0
O164 O 0.2886 0.27982 0.24975 0.0
H165 H 0.25473 0.20014 0.34407 0.0
O166 O 0.2477 0.18353 0.28846 0.0
Co167 Co 0.19843 0.16778 0.38571 0.0
O168 O 0.23152 0.14304 0.48243 0.0
O169 O 0.31392 0.19799 0.4615 0.0
O170 O 0.15578 0.1958 0.34219 0.0
O171 O 0.15306 0.16057 0.19923 0.0
O172 O 0.34422 0.34398 0.9815 0.0
O173 O 0.36514 0.37855 0.12074 0.0
O174 O 0.2002 0.23446 0.39297 0.0
O175 O 0.26979 0.26301 0.47064 0.0
C176 C 0.21477 0.27512 0.04301 0.0
C177 C 0.39883 0.33332 0.31792 0.0
C178 C 0.1664 0.08706 0.30319 0.0
C179 C 0.29181 0.19337 0.07724 0.0
C180 C 0.27748 0.15643 0.4995 0.0
C181 C 0.12987 0.16925 0.26959 0.0
C182 C 0.36646 0.38542 0.02697 0.0
C183 C 0.22752 0.26199 0.46287 0.0
O184 O 0.26227 0.29329 1.0209 0.0
O185 O 0.198 0.25169 0.12366 0.0
O186 O 0.36806 0.30362 0.38449 0.0
O187 O 0.38791 0.33276 0.22147 0.0
O188 O 0.15014 0.09353 0.38623 0.0
O189 O 0.20517 0.12533 0.27446 0.0
O190 O 0.33008 0.23723 0.08979 0.0
O191 O 0.24776 0.18831 0.09029 0.0
Co192 Co 0.85481 0.397 0.99963 0.0
Co193 Co 0.90427 0.42115 0.18152 0.0
Co194 Co 0.93061 0.36609 0.02984 0.0
H195 H 0.88719 0.37309 0.04121 0.0
O196 O 0.87056 0.36347 0.09673 0.0
H197 H 0.9504 0.41339 0.1925 0.0
O198 O 0.96684 0.41899 0.13582 0.0
Co199 Co 0.98863 0.40452 0.26854 0.0
O200 O 0.98034 0.45874 0.3647 0.0
O201 O 0.93866 0.48134 0.26204 0.0
O202 O 1.01979 0.3726 0.16406 0.0
O203 O 0.99075 0.36345 1.00091 0.0
O204 O 0.78057 0.37115 0.99949 0.0
O205 O 0.81243 0.34772 0.11062 0.0
O206 O 0.92421 0.33484 0.29566 0.0
O207 O 0.87525 0.36814 0.29504 0.0
C208 C 0.84347 0.30658 0.88567 0.0
C209 C 0.85626 0.46701 0.11586 0.0
C210 C 1.07253 0.44671 0.35819 0.0
C211 C 0.94903 0.46228 0.92267 0.0
C212 C 0.96218 0.48806 0.34266 0.0
C213 C 1.02042 0.36233 0.06757 0.0
C214 C 0.77418 0.34839 0.08238 0.0
C215 C 0.88034 0.32918 0.30815 0.0
O216 O 0.83003 0.33908 0.90289 0.0
O217 O 0.8851 0.31181 0.92361 0.0
O218 O 0.84756 0.43514 0.18611 0.0
O219 O 0.88287 0.46768 0.04343 0.0
O220 O 1.03116 0.42749 0.40383 0.0
O221 O 1.06551 0.44113 0.26443 0.0
O222 O 0.92148 0.46198 0.99252 0.0
O223 O 0.95004 0.42103 0.91486 0.0
Co224 Co 0.77143 0.51136 0.99978 0.0
Co225 Co 0.74711 0.5367 0.18151 0.0
Co226 Co 0.80242 0.61811 0.03026 0.0
H227 H 0.79534 0.56767 0.04156 0.0
O228 O 0.80488 0.56065 0.09716 0.0
H229 H 0.75496 0.59062 0.19259 0.0
O230 O 0.74945 0.60149 0.1359 0.0
Co231 Co 0.76389 0.63775 0.26875 0.0
O232 O 0.70986 0.57519 0.36492 0.0
O233 O 0.68684 0.51095 0.26167 0.0
O234 O 0.79579 0.70082 0.16433 0.0
O235 O 0.80514 0.68091 1.00131 0.0
O236 O 0.79719 0.46293 0.99937 0.0
O237 O 0.82056 0.51809 0.11108 0.0
O238 O 0.83354 0.64298 0.29597 0.0
O239 O 0.80003 0.56068 0.29533 0.0
C240 C 0.86187 0.59043 0.88615 0.0
C241 C 0.70129 0.44272 0.1155 0.0
C242 C 0.72154 0.67932 0.35825 0.0
C243 C 0.70621 0.54037 0.92293 0.0
C244 C 0.68038 0.52771 0.34265 0.0
C245 C 0.80615 0.7117 0.06789 0.0
C246 C 0.81991 0.47922 0.08244 0.0
C247 C 0.83908 0.60471 0.30848 0.0
O248 O 0.82934 0.54448 0.90317 0.0
O249 O 0.8567 0.62684 0.92424 0.0
O250 O 0.73306 0.46597 0.18605 0.0
O251 O 0.7007 0.4686 0.04297 0.0
O252 O 0.74094 0.65739 0.40397 0.0
O253 O 0.72703 0.67776 0.2645 0.0
O254 O 0.70652 0.51317 0.99282 0.0
O255 O 0.74749 0.58261 0.91513 0.0
Co256 Co 0.65705 0.3134 0.99971 0.0
Co257 Co 0.63173 0.26389 0.18144 0.0
Co258 Co 0.55028 0.23767 0.02997 0.0
H259 H 0.60076 0.28105 0.04138 0.0
O260 O 0.60781 0.29766 0.09699 0.0
H261 H 0.57779 0.21778 0.1924 0.0
O262 O 0.5669 0.20137 0.13566 0.0
Co263 Co 0.5307 0.17956 0.2685 0.0
O264 O 0.59325 0.18794 0.36454 0.0
O265 O 0.65751 0.22946 0.2617 0.0
O266 O 0.46761 0.14842 0.16397 0.0
O267 O 0.48743 0.17757 1.00095 0.0
O268 O 0.70535 0.38765 0.99912 0.0
O269 O 0.65037 0.35588 0.11097 0.0
O270 O 0.52546 0.24399 0.2956 0.0
O271 O 0.60776 0.29286 0.29515 0.0
C272 C 0.57802 0.32478 0.88593 0.0
C273 C 0.72563 0.31195 0.11569 0.0
C274 C 0.48907 0.09578 0.35845 0.0
C275 C 0.62795 0.21917 0.9225 0.0
C276 C 0.64074 0.20606 0.34239 0.0
C277 C 0.45667 0.14785 0.06754 0.0
C278 C 0.68914 0.39413 0.08219 0.0
C279 C 0.56373 0.28784 0.30816 0.0
O280 O 0.62397 0.33816 0.90302 0.0
O281 O 0.54158 0.28322 0.92394 0.0
O282 O 0.70246 0.3206 0.18615 0.0
O283 O 0.69971 0.28537 0.04314 0.0
O284 O 0.51129 0.13722 0.40393 0.0
O285 O 0.4904 0.10266 0.26469 0.0
O286 O 0.65522 0.24669 0.99247 0.0
O287 O 0.58571 0.2182 0.91478 0.0
Co288 Co 0.53356 0.41001 0.45023 0.0
Co289 Co 0.59157 0.44842 0.68894 0.0
Co290 Co 0.61793 0.3934 0.53723 0.0
H291 H 0.57179 0.40114 0.52625 0.0
O292 O 0.55535 0.39553 0.58293 0.0
H293 H 0.63499 0.44142 0.67758 0.0
O294 O 0.65162 0.45106 0.62206 0.0
Co295 Co 0.66738 0.41752 0.71913 0.0
O296 O 0.69216 0.47543 0.81591 0.0
O297 O 0.63707 0.5027 0.79516 0.0
O298 O 0.63934 0.34684 0.67526 0.0
O299 O 0.67464 0.37942 0.53262 0.0
O300 O 0.491 0.38718 0.31494 0.0
O301 O 0.45667 0.37319 0.45443 0.0
O302 O 0.60074 0.35251 0.72626 0.0
O303 O 0.57211 0.39347 0.80389 0.0
C304 C 0.56003 0.32649 0.37607 0.0
C305 C 0.50179 0.45223 0.6512 0.0
C306 C 0.748 0.46615 0.63635 0.0
C307 C 0.64183 0.48534 0.41059 0.0
C308 C 0.6787 0.50793 0.83308 0.0
C309 C 0.66592 0.34749 0.60278 0.0
C310 C 0.44965 0.36773 0.36066 0.0
C311 C 0.57317 0.35225 0.79604 0.0
O312 O 0.54183 0.35579 0.35405 0.0
O313 O 0.58355 0.33322 0.45668 0.0
O314 O 0.53143 0.45106 0.71785 0.0
O315 O 0.50242 0.44197 0.55469 0.0
O316 O 0.74163 0.44338 0.71922 0.0
O317 O 0.70974 0.46682 0.60817 0.0
O318 O 0.59796 0.47969 0.42306 0.0
O319 O 0.64695 0.44641 0.42374 0.0
Co320 Co 0.75829 0.17678 0.45002 0.0
Co321 Co 0.71978 0.19643 0.68851 0.0
Co322 Co 0.77506 0.27783 0.53724 0.0
H323 H 0.76721 0.22392 0.52616 0.0
O324 O 0.77274 0.21305 0.58285 0.0
H325 H 0.72686 0.24688 0.67722 0.0
O326 O 0.7173 0.25389 0.62163 0.0
Co327 Co 0.75076 0.3032 0.71898 0.0
O328 O 0.69286 0.27007 0.81562 0.0
O329 O 0.6655 0.1877 0.79453 0.0
O330 O 0.82149 0.34596 0.67572 0.0
O331 O 0.7891 0.34855 0.53269 0.0
O332 O 0.78111 0.15699 0.3148 0.0
O333 O 0.79535 0.13697 0.45435 0.0
O334 O 0.8157 0.30143 0.72596 0.0
O335 O 0.77472 0.23193 0.80363 0.0
C336 C 0.84178 0.28682 0.37608 0.0
C337 C 0.71601 0.10283 0.65088 0.0
C338 C 0.70226 0.33529 0.63629 0.0
C339 C 0.6831 0.2098 0.41026 0.0
C340 C 0.66033 0.22411 0.83261 0.0
C341 C 0.82091 0.37183 0.60314 0.0
C342 C 0.80073 0.13529 0.3606 0.0
C343 C 0.81597 0.27418 0.79577 0.0
O344 O 0.81232 0.23934 0.35384 0.0
O345 O 0.83532 0.30358 0.45705 0.0
O346 O 0.71706 0.13364 0.71745 0.0
O347 O 0.72635 0.11369 0.55442 0.0
O348 O 0.72498 0.35161 0.71934 0.0
O349 O 0.70161 0.29642 0.6077 0.0
O350 O 0.68863 0.17153 0.42276 0.0
O351 O 0.72213 0.25384 0.42344 0.0
Co352 Co 0.99149 0.63496 0.45027 0.0
Co353 Co 0.97189 0.57686 0.68881 0.0
Co354 Co 0.89045 0.55063 0.53731 0.0
H355 H 0.94439 0.59674 0.52635 0.0
O356 O 0.95527 0.61315 0.58309 0.0
H357 H 0.9214 0.53348 0.67741 0.0
O358 O 0.91437 0.51687 0.6218 0.0
Co359 Co 0.8651 0.50112 0.71906 0.0
O360 O 0.89819 0.47637 0.81577 0.0
O361 O 0.9806 0.53132 0.79483 0.0
O362 O 0.82244 0.52914 0.67555 0.0
O363 O 0.81973 0.49391 0.53259 0.0
O364 O 1.01104 0.67732 0.31484 0.0
O365 O 1.03156 0.71187 0.45418 0.0
O366 O 0.86688 0.5678 0.7263 0.0
O367 O 0.93647 0.59635 0.80397 0.0
C368 C 0.88144 0.60845 0.37634 0.0
C369 C 1.06551 0.66665 0.65123 0.0
C370 C 0.83306 0.4204 0.63654 0.0
C371 C 0.95847 0.5267 0.41058 0.0
C372 C 0.94415 0.48976 0.83283 0.0
C373 C 0.79654 0.50259 0.60295 0.0
C374 C 1.03302 0.71876 0.3604 0.0
C375 C 0.8942 0.59533 0.7962 0.0
O376 O 0.92894 0.62659 0.35422 0.0
O377 O 0.86467 0.58503 0.45701 0.0
O378 O 1.03474 0.63695 0.71781 0.0
O379 O 1.05459 0.66608 0.55478 0.0
O380 O 0.81681 0.42686 0.71959 0.0
O381 O 0.87183 0.45866 0.60781 0.0
O382 O 0.99674 0.57055 0.42312 0.0
O383 O 0.91442 0.52164 0.42363 0.0
Co384 Co 0.52148 0.73033 0.33295 0.0
Co385 Co 0.57094 0.75448 0.51484 0.0
Co386 Co 0.59727 0.69942 0.36317 0.0
H387 H 0.55386 0.70642 0.37454 0.0
O388 O 0.53723 0.6968 0.43006 0.0
H389 H 0.61707 0.74672 0.52582 0.0
O390 O 0.63351 0.75232 0.46915 0.0
Co391 Co 0.65528 0.73785 0.60187 0.0
O392 O 0.64698 0.79205 0.69806 0.0
O393 O 0.60534 0.81468 0.59535 0.0
O394 O 0.68645 0.70592 0.49741 0.0
O395 O 0.65742 0.69677 0.33426 0.0
O396 O 0.44724 0.70448 0.3328 0.0
O397 O 0.47909 0.68106 0.44394 0.0
O398 O 0.59087 0.66817 0.629 0.0
O399 O 0.54192 0.70148 0.62837 0.0
C400 C 0.51014 0.6399 0.21901 0.0
C401 C 0.52293 0.80035 0.44916 0.0
C402 C 0.73919 0.78014 0.69143 0.0
C403 C 0.61571 0.79561 0.256 0.0
C404 C 0.62884 0.82138 0.67599 0.0
C405 C 0.68708 0.69565 0.40092 0.0
C406 C 0.44084 0.68173 0.41569 0.0
C407 C 0.547 0.66252 0.64149 0.0
O408 O 0.49669 0.6724 0.23622 0.0
O409 O 0.55176 0.64513 0.25695 0.0
O410 O 0.51423 0.76848 0.51942 0.0
O411 O 0.54953 0.80101 0.37673 0.0
O412 O 0.69784 0.76067 0.73716 0.0
O413 O 0.73217 0.77469 0.59766 0.0
O414 O 0.58815 0.79531 0.32585 0.0
O415 O 0.61672 0.75436 0.2482 0.0
Co416 Co 0.4381 0.8447 0.3331 0.0
Co417 Co 0.41377 0.87003 0.51483 0.0
Co418 Co 0.46909 0.95145 0.3636 0.0
H419 H 0.46201 0.90101 0.37489 0.0
O420 O 0.47155 0.89398 0.43049 0.0
H421 H 0.42163 0.92395 0.52592 0.0
O422 O 0.41612 0.93483 0.46923 0.0
Co423 Co 0.43056 0.97108 0.60208 0.0
O424 O 0.37655 0.90852 0.69827 0.0
O425 O 0.3535 0.84429 0.59498 0.0
O426 O 0.46247 1.03416 0.49769 0.0
O427 O 0.47182 1.01425 0.33466 0.0
O428 O 0.46386 0.79627 0.33268 0.0
O429 O 0.48723 0.85142 0.4444 0.0
O430 O 0.50021 0.97631 0.62931 0.0
O431 O 0.46669 0.89401 0.62866 0.0
C432 C 0.52855 0.92377 0.21948 0.0
C433 C 0.36795 0.77605 0.44881 0.0
C434 C 0.38811 1.01255 0.6915 0.0
C435 C 0.37288 0.87371 0.25627 0.0
C436 C 0.34706 0.86104 0.67599 0.0
C437 C 0.47283 1.04504 0.40124 0.0
C438 C 0.48657 0.81256 0.41575 0.0
C439 C 0.50574 0.93804 0.64181 0.0
O440 O 0.49601 0.87782 0.2365 0.0
O441 O 0.52338 0.96018 0.25757 0.0
O442 O 0.39972 0.7993 0.51936 0.0
O443 O 0.36736 0.80193 0.37627 0.0
O444 O 0.40775 0.99087 0.7373 0.0
O445 O 0.39348 1.01086 0.59774 0.0
O446 O 0.37319 0.84652 0.32615 0.0
O447 O 0.41416 0.91595 0.24846 0.0
Co448 Co 0.32372 0.64673 0.33302 0.0
Co449 Co 0.29839 0.59722 0.51476 0.0
Co450 Co 0.21694 0.57101 0.3633 0.0
H451 H 0.26742 0.61438 0.37471 0.0
O452 O 0.27447 0.63099 0.43032 0.0
H453 H 0.24446 0.55112 0.52573 0.0
O454 O 0.23356 0.5347 0.46899 0.0
Co455 Co 0.19737 0.51291 0.60184 0.0
O456 O 0.25992 0.5213 0.69789 0.0
O457 O 0.32417 0.56278 0.59502 0.0
O458 O 0.13427 0.48176 0.49732 0.0
O459 O 0.15408 0.51091 0.3343 0.0
O460 O 0.37202 0.72097 0.33243 0.0
O461 O 0.31704 0.68921 0.44429 0.0
O462 O 0.19213 0.57733 0.62894 0.0
O463 O 0.27444 0.6262 0.62848 0.0
C464 C 0.24468 0.65811 0.21926 0.0
C465 C 0.3923 0.64528 0.449 0.0
C466 C 0.15584 0.42911 0.69169 0.0
C467 C 0.29461 0.5525 0.25584 0.0
C468 C 0.3074 0.5394 0.67572 0.0
C469 C 0.12333 0.48119 0.40089 0.0
C470 C 0.3558 0.72746 0.4155 0.0
C471 C 0.2304 0.62118 0.6415 0.0
O472 O 0.29063 0.67149 0.23635 0.0
O473 O 0.20824 0.61656 0.25728 0.0
O474 O 0.36913 0.65392 0.51946 0.0
O475 O 0.36638 0.6187 0.37644 0.0
O476 O 0.1778 0.47054 0.73726 0.0
O477 O 0.15731 0.436 0.59792 0.0
O478 O 0.32188 0.58001 0.3258 0.0
O479 O 0.25236 0.55153 0.24812 0.0
Co480 Co 0.20023 0.74335 0.78354 0.0
Co481 Co 0.25823 0.78176 1.02228 0.0
Co482 Co 0.2846 0.72674 0.87058 0.0
H483 H 0.23846 0.73448 0.85959 0.0
O484 O 0.22201 0.72887 0.91626 0.0
H485 H 0.30166 0.77476 1.01092 0.0
O486 O 0.31829 0.7844 0.95541 0.0
Co487 Co 0.33404 0.75086 0.05249 0.0
O488 O 0.35882 0.80878 0.14924 0.0
O489 O 0.30373 0.83604 0.12851 0.0
O490 O 0.30601 0.68018 1.00863 0.0
O491 O 0.34131 0.71276 0.866 0.0
O492 O 0.15768 0.7205 0.64825 0.0
O493 O 0.12335 0.70652 0.78774 0.0
O494 O 0.2674 0.68585 0.05959 0.0
O495 O 0.23877 0.72681 0.13723 0.0
C496 C 0.22671 0.65983 0.7094 0.0
C497 C 0.16843 0.78553 0.98451 0.0
C498 C 0.41467 0.79949 0.96972 0.0
C499 C 0.30851 0.81868 0.74392 0.0
C500 C 0.34536 0.84127 0.16642 0.0
C501 C 0.33259 0.68083 0.93615 0.0
C502 C 0.11632 0.70106 0.69397 0.0
C503 C 0.23983 0.68559 0.12937 0.0
O504 O 0.20851 0.68913 0.68737 0.0
O505 O 0.25023 0.66656 0.79001 0.0
O506 O 0.19808 0.7844 0.05117 0.0
O507 O 0.16906 0.77527 0.88801 0.0
O508 O 0.40829 0.77671 0.05258 0.0
O509 O 0.37641 0.80016 0.94153 0.0
O510 O 0.26464 0.81303 0.75638 0.0
O511 O 0.31363 0.77975 0.75709 0.0
Co512 Co 0.42496 0.51012 0.78333 0.0
Co513 Co 0.38644 0.52975 1.02185 0.0
Co514 Co 0.44172 0.61116 0.87059 0.0
H515 H 0.43387 0.55725 0.85949 0.0
O516 O 0.4394 0.54638 0.91618 0.0
H517 H 0.39351 0.5802 1.01057 0.0
O518 O 0.38396 0.58721 0.95498 0.0
Co519 Co 0.41742 0.63652 0.05233 0.0
O520 O 0.35952 0.60339 0.14896 0.0
O521 O 0.33216 0.52102 0.12788 0.0
O522 O 0.48815 0.67929 1.0091 0.0
O523 O 0.45576 0.68188 0.86606 0.0
O524 O 0.44778 0.49034 0.64811 0.0
O525 O 0.46202 0.47031 0.78766 0.0
O526 O 0.48236 0.63475 0.05929 0.0
O527 O 0.44138 0.56525 0.13697 0.0
C528 C 0.50843 0.62016 0.70941 0.0
C529 C 0.3827 0.43616 0.98418 0.0
C530 C 0.36892 0.66862 0.96966 0.0
C531 C 0.34977 0.54314 0.7436 0.0
C532 C 0.32698 0.55742 0.16595 0.0
C533 C 0.48758 0.70516 0.93651 0.0
C534 C 0.4674 0.46864 0.6939 0.0
C535 C 0.48263 0.6075 0.12911 0.0
O536 O 0.47898 0.57268 0.68716 0.0
O537 O 0.50198 0.63692 0.79038 0.0
O538 O 0.38372 0.46695 0.05077 0.0
O539 O 0.39305 0.44704 0.88773 0.0
O540 O 0.39165 0.68494 0.0527 0.0
O541 O 0.36826 0.62974 0.94106 0.0
O542 O 0.3553 0.50488 0.75607 0.0
O543 O 0.38879 0.58718 0.7568 0.0
Co544 Co 0.65815 0.96829 0.78358 0.0
Co545 Co 0.63857 0.9102 1.02215 0.0
Co546 Co 0.55712 0.88395 0.87066 0.0
H547 H 0.61105 0.93007 0.85968 0.0
O548 O 0.62194 0.94649 0.91642 0.0
H549 H 0.58808 0.86682 1.01076 0.0
O550 O 0.58104 0.8502 0.95515 0.0
Co551 Co 0.53178 0.83446 0.05241 0.0
O552 O 0.56487 0.8097 0.14911 0.0
O553 O 0.64728 0.86466 0.12818 0.0
O554 O 0.48911 0.86247 1.00893 0.0
O555 O 0.4864 0.82724 0.86596 0.0
O556 O 0.6777 1.01065 0.64815 0.0
O557 O 0.69822 1.04519 0.78749 0.0
O558 O 0.53356 0.90114 0.05964 0.0
O559 O 0.60315 0.9297 0.13731 0.0
C560 C 0.5481 0.94177 0.70967 0.0
C561 C 0.73218 1.00001 0.98454 0.0
C562 C 0.49973 0.75373 0.96991 0.0
C563 C 0.62513 0.86002 0.74391 0.0
C564 C 0.61083 0.8231 0.16617 0.0
C565 C 0.46321 0.83592 0.93632 0.0
C566 C 0.69968 1.05208 0.69371 0.0
C567 C 0.56088 0.92867 0.12954 0.0
O568 O 0.5956 0.95991 0.68754 0.0
O569 O 0.53133 0.91836 0.79035 0.0
O570 O 0.70142 0.9703 0.05113 0.0
O571 O 0.72124 0.99944 0.8881 0.0
O572 O 0.48348 0.7602 0.05295 0.0
O573 O 0.53851 0.79199 0.94117 0.0
O574 O 0.6634 0.90387 0.75644 0.0
O575 O 0.58108 0.85496 0.75698 0.0
loop_
_geom_bond_atom_site_label_1
_geom_bond_atom_site_label_2
_geom_bond_distance
_geom_bond_site_symmetry_2
_ccdc_geom_bond_type
Co0 H3 2.404 . S
Co0 O4 2.012 . S
Co0 O12 2.112 . S
Co0 O13 2.316 . S
Co0 O24 2.058 . S
Co0 O27 2.088 1_565 S
Co0 O30 2.119 1_565 S
Co1 O4 2.126 1_545 S
Co1 H5 2.388 . S
Co1 O6 2.053 . S
Co1 O9 2.047 . S
Co1 O15 2.113 1_545 S
Co1 O26 2.063 . S
Co2 H3 2.388 . S
Co2 O4 2.053 . S
Co2 O6 2.126 1_565 S
Co2 O11 2.063 . S
Co2 O25 2.047 . S
Co2 O31 2.113 1_565 S
H3 Co0 2.404 . S
H3 Co2 2.388 . S
H3 O4 0.760 . S
O4 Co0 2.012 . S
O4 Co1 2.126 1_565 S
O4 Co2 2.053 . S
O4 H3 0.760 . S
H5 Co1 2.388 . S
H5 O6 0.760 . S
H5 Co7 2.400 . S
O6 Co1 2.053 . S
O6 Co2 2.126 1_545 S
O6 H5 0.760 . S
O6 Co7 2.009 . S
Co7 H5 2.400 . S
Co7 O6 2.009 . S
Co7 O8 2.053 . S
Co7 O10 2.094 1_545 S
Co7 O14 2.122 1_545 S
Co7 O28 2.115 . S
Co7 O29 2.315 . S
O8 Co7 2.053 . S
O8 C20 1.259 . S
O9 Co1 2.047 . S
O9 C20 1.257 . S
O10 Co7 2.094 1_565 S
O10 C21 1.253 . S
O11 Co2 2.063 . S
O11 C21 1.268 . S
O12 Co0 2.112 . S
O12 C22 1.281 . S
O13 Co0 2.316 . S
O13 C22 1.252 . S
O14 Co7 2.122 1_565 S
O14 C23 1.272 . S
O15 Co1 2.113 1_565 S
O15 C23 1.245 . S
C16 O24 1.259 . S
C16 O25 1.257 . S
C17 O26 1.268 . S
C17 O27 1.253 . S
C18 O28 1.281 . S
C18 O29 1.252 . S
C19 O30 1.272 . S
C19 O31 1.245 . S
C20 O8 1.259 . S
C20 O9 1.257 . S
C21 O10 1.253 . S
C21 O11 1.268 . S
C22 O12 1.281 . S
C22 O13 1.252 . S
C23 O14 1.272 . S
C23 O15 1.245 . S
O24 Co0 2.058 . S
O24 C16 1.259 . S
O25 Co2 2.047 . S
O25 C16 1.257 . S
O26 Co1 2.063 . S
O26 C17 1.268 . S
O27 Co0 2.088 1_545 S
O27 C17 1.253 . S
O28 Co7 2.115 . S
O28 C18 1.281 . S
O29 Co7 2.315 . S
O29 C18 1.252 . S
O30 Co0 2.119 1_545 S
O30 C19 1.272 . S
O31 Co2 2.113 1_545 S
O31 C19 1.245 . S
Co32 H35 2.400 . S
Co32 O36 2.009 . S
Co32 O44 2.115 . S
Co32 O45 2.315 . S
Co32 O56 2.053 . S
Co32 O59 2.094 1_455 S
Co32 O62 2.122 1_455 S
Co33 O36 2.126 1_655 S
Co33 H37 2.388 . S
Co33 O38 2.053 . S
Co33 O41 2.047 . S
Co33 O47 2.113 1_655 S
Co33 O58 2.063 . S
Co34 H35 2.388 . S
Co34 O36 2.053 . S
Co34 O38 2.126 1_455 S
Co34 O43 2.063 . S
Co34 O57 2.047 . S
Co34 O63 2.113 1_455 S
H35 Co32 2.400 . S
H35 Co34 2.388 . S
H35 O36 0.760 . S
O36 Co32 2.009 . S
O36 Co33 2.126 1_455 S
O36 Co34 2.053 . S
O36 H35 0.760 . S
H37 Co33 2.388 . S
H37 O38 0.760 . S
H37 Co39 2.400 . S
O38 Co33 2.053 . S
O38 Co34 2.126 1_655 S
O38 H37 0.760 . S
O38 Co39 2.009 . S
Co39 H37 2.400 . S
Co39 O38 2.009 . S
Co39 O40 2.053 . S
Co39 O42 2.094 1_655 S
Co39 O46 2.122 1_655 S
Co39 O60 2.115 . S
Co39 O61 2.315 . S
O40 Co39 2.053 . S
O40 C52 1.259 . S
O41 Co33 2.047 . S
O41 C52 1.257 . S
O42 Co39 2.094 1_455 S
O42 C53 1.253 . S
O43 Co34 2.063 . S
O43 C53 1.268 . S
O44 Co32 2.115 . S
O44 C54 1.281 . S
O45 Co32 2.315 . S
O45 C54 1.252 . S
O46 Co39 2.122 1_455 S
O46 C55 1.272 . S
O47 Co33 2.113 1_455 S
O47 C55 1.245 . S
C48 O56 1.259 . S
C48 O57 1.257 . S
C49 O58 1.268 . S
C49 O59 1.253 . S
C50 O60 1.281 . S
C50 O61 1.252 . S
C51 O62 1.272 . S
C51 O63 1.245 . S
C52 O40 1.259 . S
C52 O41 1.257 . S
C53 O42 1.253 . S
C53 O43 1.268 . S
C54 O44 1.281 . S
C54 O45 1.252 . S
C55 O46 1.272 . S
C55 O47 1.245 . S
O56 Co32 2.053 . S
O56 C48 1.259 . S
O57 Co34 2.047 . S
O57 C48 1.257 . S
O58 Co33 2.063 . S
O58 C49 1.268 . S
O59 Co32 2.094 1_655 S
O59 C49 1.253 . S
O60 Co39 2.115 . S
O60 C50 1.281 . S
O61 Co39 2.315 . S
O61 C50 1.252 . S
O62 Co32 2.122 1_655 S
O62 C51 1.272 . S
O63 Co34 2.113 1_655 S
O63 C51 1.245 . S
Co64 H67 2.400 . S
Co64 O68 2.009 . S
Co64 O76 2.115 . S
Co64 O77 2.315 1_565 S
Co64 O88 2.053 . S
Co64 O91 2.094 . S
Co64 O94 2.122 . S
Co65 O68 2.126 . S
Co65 H69 2.388 . S
Co65 O70 2.053 . S
Co65 O73 2.047 . S
Co65 O79 2.113 . S
Co65 O90 2.063 . S
Co66 H67 2.388 . S
Co66 O68 2.053 . S
Co66 O70 2.126 . S
Co66 O75 2.063 . S
Co66 O89 2.047 . S
Co66 O95 2.113 . S
H67 Co64 2.400 . S
H67 Co66 2.388 . S
H67 O68 0.760 . S
O68 Co64 2.009 . S
O68 Co65 2.126 . S
O68 Co66 2.053 . S
O68 H67 0.760 . S
H69 Co65 2.388 . S
H69 O70 0.760 . S
H69 Co71 2.400 . S
O70 Co65 2.053 . S
O70 Co66 2.126 . S
O70 H69 0.760 . S
O70 Co71 2.009 . S
Co71 H69 2.400 . S
Co71 O70 2.009 . S
Co71 O72 2.053 . S
Co71 O74 2.094 . S
Co71 O78 2.122 . S
Co71 O92 2.115 . S
Co71 O93 2.315 . S
O72 Co71 2.053 . S
O72 C84 1.259 . S
O73 Co65 2.047 . S
O73 C84 1.257 . S
O74 Co71 2.094 . S
O74 C85 1.253 . S
O75 Co66 2.063 . S
O75 C85 1.268 . S
O76 Co64 2.115 . S
O76 C86 1.281 1_565 S
O77 Co64 2.315 1_545 S
O77 C86 1.252 . S
O78 Co71 2.122 . S
O78 C87 1.272 . S
O79 Co65 2.113 . S
O79 C87 1.245 . S
C80 O88 1.259 . S
C80 O89 1.257 . S
C81 O90 1.268 . S
C81 O91 1.253 . S
C82 O92 1.281 . S
C82 O93 1.252 . S
C83 O94 1.272 . S
C83 O95 1.245 . S
C84 O72 1.259 . S
C84 O73 1.257 . S
C85 O74 1.253 . S
C85 O75 1.268 . S
C86 O76 1.281 1_545 S
C86 O77 1.252 . S
C87 O78 1.272 . S
C87 O79 1.245 . S
O88 Co64 2.053 . S
O88 C80 1.259 . S
O89 Co66 2.047 . S
O89 C80 1.257 . S
O90 Co65 2.063 . S
O90 C81 1.268 . S
O91 Co64 2.094 . S
O91 C81 1.253 . S
O92 Co71 2.115 . S
O92 C82 1.281 . S
O93 Co71 2.315 . S
O93 C82 1.252 . S
O94 Co64 2.122 . S
O94 C83 1.272 . S
O95 Co66 2.113 . S
O95 C83 1.245 . S
Co96 H99 2.400 1_545 S
Co96 O100 2.009 1_545 S
Co96 O108 2.114 1_545 S
Co96 O109 2.315 1_545 S
Co96 O120 2.053 1_545 S
Co96 O123 2.094 . S
Co96 O126 2.122 . S
Co97 O100 2.126 1_545 S
Co97 H101 2.388 . S
Co97 O102 2.053 . S
Co97 O105 2.047 . S
Co97 O111 2.113 1_545 S
Co97 O122 2.063 . S
Co98 H99 2.388 . S
Co98 O100 2.053 . S
Co98 O102 2.126 1_565 S
Co98 O107 2.063 . S
Co98 O121 2.047 . S
Co98 O127 2.113 1_565 S
H99 Co96 2.400 1_565 S
H99 Co98 2.388 . S
H99 O100 0.760 . S
O100 Co96 2.009 1_565 S
O100 Co97 2.126 1_565 S
O100 Co98 2.053 . S
O100 H99 0.760 . S
H101 Co97 2.388 . S
H101 O102 0.760 . S
H101 Co103 2.400 . S
O102 Co97 2.053 . S
O102 Co98 2.126 1_545 S
O102 H101 0.760 . S
O102 Co103 2.009 . S
Co103 H101 2.400 . S
Co103 O102 2.009 . S
Co103 O104 2.053 . S
Co103 O106 2.094 1_545 S
Co103 O110 2.122 1_545 S
Co103 O124 2.115 . S
Co103 O125 2.315 1_655 S
O104 Co103 2.053 . S
O104 C116 1.259 . S
O105 Co97 2.047 . S
O105 C116 1.257 . S
O106 Co103 2.094 1_565 S
O106 C117 1.253 . S
O107 Co98 2.063 . S
O107 C117 1.268 . S
O108 Co96 2.114 1_565 S
O108 C118 1.280 . S
O109 Co96 2.315 1_565 S
O109 C118 1.252 . S
O110 Co103 2.122 1_565 S
O110 C119 1.272 . S
O111 Co97 2.113 1_565 S
O111 C119 1.245 . S
C112 O120 1.259 . S
C112 O121 1.257 . S
C113 O122 1.268 . S
C113 O123 1.253 . S
C114 O124 1.281 1_455 S
C114 O125 1.252 . S
C115 O126 1.272 . S
C115 O127 1.245 . S
C116 O104 1.259 . S
C116 O105 1.257 . S
C117 O106 1.253 . S
C117 O107 1.268 . S
C118 O108 1.280 . S
C118 O109 1.252 . S
C119 O110 1.272 . S
C119 O111 1.245 . S
O120 Co96 2.053 1_565 S
O120 C112 1.259 . S
O121 Co98 2.047 . S
O121 C112 1.257 . S
O122 Co97 2.063 . S
O122 C113 1.268 . S
O123 Co96 2.094 . S
O123 C113 1.253 . S
O124 Co103 2.115 . S
O124 C114 1.281 1_655 S
O125 Co103 2.315 1_455 S
O125 C114 1.252 . S
O126 Co96 2.122 . S
O126 C115 1.272 . S
O127 Co98 2.113 1_545 S
O127 C115 1.245 . S
Co128 H131 2.400 . S
Co128 O132 2.009 . S
Co128 O140 2.115 . S
Co128 O141 2.315 . S
Co128 O152 2.053 . S
Co128 O155 2.094 1_455 S
Co128 O158 2.122 1_455 S
Co129 O132 2.126 1_655 S
Co129 H133 2.388 . S
Co129 O134 2.053 . S
Co129 O137 2.047 . S
Co129 O143 2.113 1_655 S
Co129 O154 2.063 . S
Co130 H131 2.388 . S
Co130 O132 2.053 . S
Co130 O134 2.126 1_455 S
Co130 O139 2.063 . S
Co130 O153 2.047 . S
Co130 O159 2.113 1_455 S
H131 Co128 2.400 . S
H131 Co130 2.388 . S
H131 O132 0.760 . S
O132 Co128 2.009 . S
O132 Co129 2.126 1_455 S
O132 Co130 2.053 . S
O132 H131 0.760 . S
H133 Co129 2.388 . S
H133 O134 0.760 . S
H133 Co135 2.400 . S
O134 Co129 2.053 . S
O134 Co130 2.126 1_655 S
O134 H133 0.760 . S
O134 Co135 2.009 . S
Co135 H133 2.400 . S
Co135 O134 2.009 . S
Co135 O136 2.053 . S
Co135 O138 2.094 1_655 S
Co135 O142 2.122 1_655 S
Co135 O156 2.115 . S
Co135 O157 2.315 . S
O136 Co135 2.053 . S
O136 C148 1.259 . S
O137 Co129 2.047 . S
O137 C148 1.257 . S
O138 Co135 2.094 1_455 S
O138 C149 1.253 . S
O139 Co130 2.063 . S
O139 C149 1.268 . S
O140 Co128 2.115 . S
O140 C150 1.281 . S
O141 Co128 2.315 . S
O141 C150 1.252 . S
O142 Co135 2.122 1_455 S
O142 C151 1.272 . S
O143 Co129 2.113 1_455 S
O143 C151 1.245 . S
C144 O152 1.259 . S
C144 O153 1.257 . S
C145 O154 1.268 . S
C145 O155 1.253 . S
C146 O156 1.281 . S
C146 O157 1.252 . S
C147 O158 1.272 . S
C147 O159 1.245 . S
C148 O136 1.259 . S
C148 O137 1.257 . S
C149 O138 1.253 . S
C149 O139 1.268 . S
C150 O140 1.281 . S
C150 O141 1.252 . S
C151 O142 1.272 . S
C151 O143 1.245 . S
O152 Co128 2.053 . S
O152 C144 1.259 . S
O153 Co130 2.047 . S
O153 C144 1.257 . S
O154 Co129 2.063 . S
O154 C145 1.268 . S
O155 Co128 2.094 1_655 S
O155 C145 1.253 . S
O156 Co135 2.115 . S
O156 C146 1.281 . S
O157 Co135 2.315 . S
O157 C146 1.252 . S
O158 Co128 2.122 1_655 S
O158 C147 1.272 . S
O159 Co130 2.113 1_655 S
O159 C147 1.245 . S
Co160 H163 2.400 . S
Co160 O164 2.009 . S
Co160 O172 2.115 . S
Co160 O173 2.315 . S
Co160 O184 2.053 . S
Co160 O187 2.094 . S
Co160 O190 2.122 . S
Co161 O164 2.126 . S
Co161 H165 2.388 . S
Co161 O166 2.053 . S
Co161 O169 2.047 . S
Co161 O175 2.113 . S
Co161 O186 2.063 . S
Co162 H163 2.388 . S
Co162 O164 2.053 . S
Co162 O166 2.126 . S
Co162 O171 2.063 . S
Co162 O185 2.047 . S
Co162 O191 2.113 . S
H163 Co160 2.400 . S
H163 Co162 2.388 . S
H163 O164 0.760 . S
O164 Co160 2.009 . S
O164 Co161 2.126 . S
O164 Co162 2.053 . S
O164 H163 0.760 . S
H165 Co161 2.388 . S
H165 O166 0.760 . S
H165 Co167 2.400 . S
O166 Co161 2.053 . S
O166 Co162 2.126 . S
O166 H165 0.760 . S
O166 Co167 2.009 . S
Co167 H165 2.400 . S
Co167 O166 2.009 . S
Co167 O168 2.053 . S
Co167 O170 2.094 . S
Co167 O174 2.122 . S
Co167 O188 2.115 . S
Co167 O189 2.315 . S
O168 Co167 2.053 . S
O168 C180 1.259 . S
O169 Co161 2.047 . S
O169 C180 1.257 . S
O170 Co167 2.094 . S
O170 C181 1.253 . S
O171 Co162 2.063 . S
O171 C181 1.268 . S
O172 Co160 2.115 . S
O172 C182 1.281 . S
O173 Co160 2.315 . S
O173 C182 1.252 . S
O174 Co167 2.122 . S
O174 C183 1.272 . S
O175 Co161 2.113 . S
O175 C183 1.245 . S
C176 O184 1.259 . S
C176 O185 1.257 . S
C177 O186 1.268 . S
C177 O187 1.253 . S
C178 O188 1.281 . S
C178 O189 1.252 . S
C179 O190 1.272 . S
C179 O191 1.245 . S
C180 O168 1.259 . S
C180 O169 1.257 . S
C181 O170 1.253 . S
C181 O171 1.268 . S
C182 O172 1.281 . S
C182 O173 1.252 . S
C183 O174 1.272 . S
C183 O175 1.245 . S
O184 Co160 2.053 . S
O184 C176 1.259 . S
O185 Co162 2.047 . S
O185 C176 1.257 . S
O186 Co161 2.063 . S
O186 C177 1.268 . S
O187 Co160 2.094 . S
O187 C177 1.253 . S
O188 Co167 2.115 . S
O188 C178 1.281 . S
O189 Co167 2.315 . S
O189 C178 1.252 . S
O190 Co160 2.122 . S
O190 C179 1.272 . S
O191 Co162 2.113 . S
O191 C179 1.245 . S
Co192 H195 2.400 1_556 S
Co192 O196 2.009 1_556 S
Co192 O204 2.115 . S
Co192 O205 2.314 1_556 S
Co192 O216 2.053 . S
Co192 O219 2.094 1_556 S
Co192 O222 2.122 . S
Co193 O196 2.126 . S
Co193 H197 2.388 . S
Co193 O198 2.053 . S
Co193 O201 2.047 . S
Co193 O207 2.113 . S
Co193 O218 2.063 . S
Co194 H195 2.388 . S
Co194 O196 2.053 . S
Co194 O198 2.126 . S
Co194 O203 2.063 1_554 S
Co194 O217 2.047 1_554 S
Co194 O223 2.113 1_554 S
H195 Co192 2.400 1_554 S
H195 Co194 2.388 . S
H195 O196 0.760 . S
O196 Co192 2.009 1_554 S
O196 Co193 2.126 . S
O196 Co194 2.053 . S
O196 H195 0.760 . S
H197 Co193 2.388 . S
H197 O198 0.760 . S
H197 Co199 2.400 . S
O198 Co193 2.053 . S
O198 Co194 2.126 . S
O198 H197 0.760 . S
O198 Co199 2.009 . S
Co199 H197 2.400 . S
Co199 O198 2.009 . S
Co199 O200 2.053 . S
Co199 O202 2.094 . S
Co199 O206 2.122 . S
Co199 O220 2.115 . S
Co199 O221 2.315 . S
O200 Co199 2.053 . S
O200 C212 1.259 . S
O201 Co193 2.047 . S
O201 C212 1.257 . S
O202 Co199 2.094 . S
O202 C213 1.253 . S
O203 Co194 2.063 1_556 S
O203 C213 1.268 1_556 S
O204 Co192 2.115 . S
O204 C214 1.281 . S
O205 Co192 2.314 1_554 S
O205 C214 1.249 1_554 S
O206 Co199 2.122 . S
O206 C215 1.272 . S
O207 Co193 2.113 . S
O207 C215 1.245 . S
C208 O216 1.259 . S
C208 O217 1.257 . S
C209 O218 1.268 . S
C209 O219 1.253 . S
C210 O220 1.281 . S
C210 O221 1.252 . S
C211 O222 1.272 . S
C211 O223 1.245 . S
C212 O200 1.259 . S
C212 O201 1.257 . S
C213 O202 1.253 . S
C213 O203 1.268 1_554 S
C214 O204 1.281 . S
C214 O205 1.249 1_556 S
C215 O206 1.272 . S
C215 O207 1.245 . S
O216 Co192 2.053 . S
O216 C208 1.259 . S
O217 Co194 2.047 1_556 S
O217 C208 1.257 . S
O218 Co193 2.063 . S
O218 C209 1.268 . S
O219 Co192 2.094 1_554 S
O219 C209 1.253 . S
O220 Co199 2.115 . S
O220 C210 1.281 . S
O221 Co199 2.315 . S
O221 C210 1.252 . S
O222 Co192 2.122 . S
O222 C211 1.272 . S
O223 Co194 2.113 1_556 S
O223 C211 1.245 . S
Co224 H227 2.400 1_556 S
Co224 O228 2.009 1_556 S
Co224 O236 2.115 . S
Co224 O237 2.314 1_556 S
Co224 O248 2.053 . S
Co224 O251 2.094 1_556 S
Co224 O254 2.122 . S
Co225 O228 2.126 . S
Co225 H229 2.388 . S
Co225 O230 2.053 . S
Co225 O233 2.047 . S
Co225 O239 2.113 . S
Co225 O250 2.063 . S
Co226 H227 2.388 . S
Co226 O228 2.053 . S
Co226 O230 2.126 . S
Co226 O235 2.063 1_554 S
Co226 O249 2.047 1_554 S
Co226 O255 2.113 1_554 S
H227 Co224 2.400 1_554 S
H227 Co226 2.388 . S
H227 O228 0.760 . S
O228 Co224 2.009 1_554 S
O228 Co225 2.126 . S
O228 Co226 2.053 . S
O228 H227 0.760 . S
H229 Co225 2.388 . S
H229 O230 0.760 . S
H229 Co231 2.400 . S
O230 Co225 2.053 . S
O230 Co226 2.126 . S
O230 H229 0.760 . S
O230 Co231 2.009 . S
Co231 H229 2.400 . S
Co231 O230 2.009 . S
Co231 O232 2.053 . S
Co231 O234 2.094 . S
Co231 O238 2.122 . S
Co231 O252 2.115 . S
Co231 O253 2.315 . S
O232 Co231 2.053 . S
O232 C244 1.259 . S
O233 Co225 2.047 . S
O233 C244 1.257 . S
O234 Co231 2.094 . S
O234 C245 1.253 . S
O235 Co226 2.063 1_556 S
O235 C245 1.268 1_556 S
O236 Co224 2.115 . S
O236 C246 1.281 . S
O237 Co224 2.314 1_554 S
O237 C246 1.249 1_554 S
O238 Co231 2.122 . S
O238 C247 1.272 . S
O239 Co225 2.113 . S
O239 C247 1.245 . S
C240 O248 1.259 . S
C240 O249 1.257 . S
C241 O250 1.268 . S
C241 O251 1.253 . S
C242 O252 1.281 . S
C242 O253 1.252 . S
C243 O254 1.272 . S
C243 O255 1.245 . S
C244 O232 1.259 . S
C244 O233 1.257 . S
C245 O234 1.253 . S
C245 O235 1.268 1_554 S
C246 O236 1.281 . S
C246 O237 1.249 1_556 S
C247 O238 1.272 . S
C247 O239 1.245 . S
O248 Co224 2.053 . S
O248 C240 1.259 . S
O249 Co226 2.047 1_556 S
O249 C240 1.257 . S
O250 Co225 2.063 . S
O250 C241 1.268 . S
O251 Co224 2.094 1_554 S
O251 C241 1.253 . S
O252 Co231 2.115 . S
O252 C242 1.281 . S
O253 Co231 2.315 . S
O253 C242 1.252 . S
O254 Co224 2.122 . S
O254 C243 1.272 . S
O255 Co226 2.113 1_556 S
O255 C243 1.245 . S
Co256 H259 2.400 1_556 S
Co256 O260 2.009 1_556 S
Co256 O268 2.115 . S
Co256 O269 2.314 1_556 S
Co256 O280 2.053 . S
Co256 O283 2.094 1_556 S
Co256 O286 2.122 . S
Co257 O260 2.126 . S
Co257 H261 2.388 . S
Co257 O262 2.053 . S
Co257 O265 2.047 . S
Co257 O271 2.113 . S
Co257 O282 2.063 . S
Co258 H259 2.388 . S
Co258 O260 2.053 . S
Co258 O262 2.126 . S
Co258 O267 2.063 1_554 S
Co258 O281 2.047 1_554 S
Co258 O287 2.113 1_554 S
H259 Co256 2.400 1_554 S
H259 Co258 2.388 . S
H259 O260 0.760 . S
O260 Co256 2.009 1_554 S
O260 Co257 2.126 . S
O260 Co258 2.053 . S
O260 H259 0.760 . S
H261 Co257 2.388 . S
H261 O262 0.760 . S
H261 Co263 2.400 . S
O262 Co257 2.053 . S
O262 Co258 2.126 . S
O262 H261 0.760 . S
O262 Co263 2.009 . S
Co263 H261 2.400 . S
Co263 O262 2.009 . S
Co263 O264 2.053 . S
Co263 O266 2.094 . S
Co263 O270 2.122 . S
Co263 O284 2.115 . S
Co263 O285 2.315 . S
O264 Co263 2.053 . S
O264 C276 1.259 . S
O265 Co257 2.047 . S
O265 C276 1.257 . S
O266 Co263 2.094 . S
O266 C277 1.253 . S
O267 Co258 2.063 1_556 S
O267 C277 1.268 1_556 S
O268 Co256 2.115 . S
O268 C278 1.281 . S
O269 Co256 2.314 1_554 S
O269 C278 1.249 1_554 S
O270 Co263 2.122 . S
O270 C279 1.272 . S
O271 Co257 2.113 . S
O271 C279 1.245 . S
C272 O280 1.259 . S
C272 O281 1.257 . S
C273 O282 1.268 . S
C273 O283 1.253 . S
C274 O284 1.281 . S
C274 O285 1.252 . S
C275 O286 1.272 . S
C275 O287 1.245 . S
C276 O264 1.259 . S
C276 O265 1.257 . S
C277 O266 1.253 . S
C277 O267 1.268 1_554 S
C278 O268 1.281 . S
C278 O269 1.249 1_556 S
C279 O270 1.272 . S
C279 O271 1.245 . S
O280 Co256 2.053 . S
O280 C272 1.259 . S
O281 Co258 2.047 1_556 S
O281 C272 1.257 . S
O282 Co257 2.063 . S
O282 C273 1.268 . S
O283 Co256 2.094 1_554 S
O283 C273 1.253 . S
O284 Co263 2.115 . S
O284 C274 1.281 . S
O285 Co263 2.315 . S
O285 C274 1.252 . S
O286 Co256 2.122 . S
O286 C275 1.272 . S
O287 Co258 2.113 1_556 S
O287 C275 1.245 . S
Co288 H291 2.400 . S
Co288 O292 2.009 . S
Co288 O300 2.115 . S
Co288 O301 2.315 . S
Co288 O312 2.053 . S
Co288 O315 2.094 . S
Co288 O318 2.122 . S
Co289 O292 2.126 . S
Co289 H293 2.388 . S
Co289 O294 2.053 . S
Co289 O297 2.047 . S
Co289 O303 2.113 . S
Co289 O314 2.063 . S
Co290 H291 2.388 . S
Co290 O292 2.053 . S
Co290 O294 2.126 . S
Co290 O299 2.063 . S
Co290 O313 2.047 . S
Co290 O319 2.113 . S
H291 Co288 2.400 . S
H291 Co290 2.388 . S
H291 O292 0.760 . S
O292 Co288 2.009 . S
O292 Co289 2.126 . S
O292 Co290 2.053 . S
O292 H291 0.760 . S
H293 Co289 2.388 . S
H293 O294 0.760 . S
H293 Co295 2.400 . S
O294 Co289 2.053 . S
O294 Co290 2.126 . S
O294 H293 0.760 . S
O294 Co295 2.009 . S
Co295 H293 2.400 . S
Co295 O294 2.009 . S
Co295 O296 2.053 . S
Co295 O298 2.094 . S
Co295 O302 2.122 . S
Co295 O316 2.115 . S
Co295 O317 2.315 . S
O296 Co295 2.053 . S
O296 C308 1.259 . S
O297 Co289 2.047 . S
O297 C308 1.257 . S
O298 Co295 2.094 . S
O298 C309 1.253 . S
O299 Co290 2.063 . S
O299 C309 1.268 . S
O300 Co288 2.115 . S
O300 C310 1.281 . S
O301 Co288 2.315 . S
O301 C310 1.252 . S
O302 Co295 2.122 . S
O302 C311 1.272 . S
O303 Co289 2.113 . S
O303 C311 1.245 . S
C304 O312 1.259 . S
C304 O313 1.257 . S
C305 O314 1.268 . S
C305 O315 1.253 . S
C306 O316 1.281 . S
C306 O317 1.252 . S
C307 O318 1.272 . S
C307 O319 1.245 . S
C308 O296 1.259 . S
C308 O297 1.257 . S
C309 O298 1.253 . S
C309 O299 1.268 . S
C310 O300 1.281 . S
C310 O301 1.252 . S
C311 O302 1.272 . S
C311 O303 1.245 . S
O312 Co288 2.053 . S
O312 C304 1.259 . S
O313 Co290 2.047 . S
O313 C304 1.257 . S
O314 Co289 2.063 . S
O314 C305 1.268 . S
O315 Co288 2.094 . S
O315 C305 1.253 . S
O316 Co295 2.115 . S
O316 C306 1.281 . S
O317 Co295 2.315 . S
O317 C306 1.252 . S
O318 Co288 2.122 . S
O318 C307 1.272 . S
O319 Co290 2.113 . S
O319 C307 1.245 . S
Co320 H323 2.400 . S
Co320 O324 2.009 . S
Co320 O332 2.115 . S
Co320 O333 2.315 . S
Co320 O344 2.053 . S
Co320 O347 2.094 . S
Co320 O350 2.122 . S
Co321 O324 2.126 . S
Co321 H325 2.388 . S
Co321 O326 2.053 . S
Co321 O329 2.047 . S
Co321 O335 2.113 . S
Co321 O346 2.063 . S
Co322 H323 2.388 . S
Co322 O324 2.053 . S
Co322 O326 2.126 . S
Co322 O331 2.063 . S
Co322 O345 2.047 . S
Co322 O351 2.113 . S
H323 Co320 2.400 . S
H323 Co322 2.388 . S
H323 O324 0.760 . S
O324 Co320 2.009 . S
O324 Co321 2.126 . S
O324 Co322 2.053 . S
O324 H323 0.760 . S
H325 Co321 2.388 . S
H325 O326 0.760 . S
H325 Co327 2.400 . S
O326 Co321 2.053 . S
O326 Co322 2.126 . S
O326 H325 0.760 . S
O326 Co327 2.009 . S
Co327 H325 2.400 . S
Co327 O326 2.009 . S
Co327 O328 2.053 . S
Co327 O330 2.094 . S
Co327 O334 2.122 . S
Co327 O348 2.115 . S
Co327 O349 2.315 . S
O328 Co327 2.053 . S
O328 C340 1.259 . S
O329 Co321 2.047 . S
O329 C340 1.257 . S
O330 Co327 2.094 . S
O330 C341 1.253 . S
O331 Co322 2.063 . S
O331 C341 1.268 . S
O332 Co320 2.115 . S
O332 C342 1.281 . S
O333 Co320 2.315 . S
O333 C342 1.252 . S
O334 Co327 2.122 . S
O334 C343 1.272 . S
O335 Co321 2.113 . S
O335 C343 1.245 . S
C336 O344 1.259 . S
C336 O345 1.257 . S
C337 O346 1.268 . S
C337 O347 1.253 . S
C338 O348 1.281 . S
C338 O349 1.252 . S
C339 O350 1.272 . S
C339 O351 1.245 . S
C340 O328 1.259 . S
C340 O329 1.257 . S
C341 O330 1.253 . S
C341 O331 1.268 . S
C342 O332 1.281 . S
C342 O333 1.252 . S
C343 O334 1.272 . S
C343 O335 1.245 . S
O344 Co320 2.053 . S
O344 C336 1.259 . S
O345 Co322 2.047 . S
O345 C336 1.257 . S
O346 Co321 2.063 . S
O346 C337 1.268 . S
O347 Co320 2.094 . S
O347 C337 1.253 . S
O348 Co327 2.115 . S
O348 C338 1.281 . S
O349 Co327 2.315 . S
O349 C338 1.252 . S
O350 Co320 2.122 . S
O350 C339 1.272 . S
O351 Co322 2.113 . S
O351 C339 1.245 . S
Co352 H355 2.400 . S
Co352 O356 2.009 . S
Co352 O364 2.115 . S
Co352 O365 2.315 . S
Co352 O376 2.053 . S
Co352 O379 2.094 . S
Co352 O382 2.122 . S
Co353 O356 2.126 . S
Co353 H357 2.388 . S
Co353 O358 2.053 . S
Co353 O361 2.047 . S
Co353 O367 2.113 . S
Co353 O378 2.063 . S
Co354 H355 2.388 . S
Co354 O356 2.053 . S
Co354 O358 2.126 . S
Co354 O363 2.063 . S
Co354 O377 2.047 . S
Co354 O383 2.113 . S
H355 Co352 2.400 . S
H355 Co354 2.388 . S
H355 O356 0.760 . S
O356 Co352 2.009 . S
O356 Co353 2.126 . S
O356 Co354 2.053 . S
O356 H355 0.760 . S
H357 Co353 2.388 . S
H357 O358 0.760 . S
H357 Co359 2.400 . S
O358 Co353 2.053 . S
O358 Co354 2.126 . S
O358 H357 0.760 . S
O358 Co359 2.009 . S
Co359 H357 2.400 . S
Co359 O358 2.009 . S
Co359 O360 2.053 . S
Co359 O362 2.094 . S
Co359 O366 2.122 . S
Co359 O380 2.115 . S
Co359 O381 2.315 . S
O360 Co359 2.053 . S
O360 C372 1.259 . S
O361 Co353 2.047 . S
O361 C372 1.257 . S
O362 Co359 2.094 . S
O362 C373 1.253 . S
O363 Co354 2.063 . S
O363 C373 1.268 . S
O364 Co352 2.115 . S
O364 C374 1.281 . S
O365 Co352 2.315 . S
O365 C374 1.252 . S
O366 Co359 2.122 . S
O366 C375 1.272 . S
O367 Co353 2.113 . S
O367 C375 1.245 . S
C368 O376 1.259 . S
C368 O377 1.257 . S
C369 O378 1.268 . S
C369 O379 1.253 . S
C370 O380 1.281 . S
C370 O381 1.252 . S
C371 O382 1.272 . S
C371 O383 1.245 . S
C372 O360 1.259 . S
C372 O361 1.257 . S
C373 O362 1.253 . S
C373 O363 1.268 . S
C374 O364 1.281 . S
C374 O365 1.252 . S
C375 O366 1.272 . S
C375 O367 1.245 . S
O376 Co352 2.053 . S
O376 C368 1.259 . S
O377 Co354 2.047 . S
O377 C368 1.257 . S
O378 Co353 2.063 . S
O378 C369 1.268 . S
O379 Co352 2.094 . S
O379 C369 1.253 . S
O380 Co359 2.115 . S
O380 C370 1.281 . S
O381 Co359 2.315 . S
O381 C370 1.252 . S
O382 Co352 2.122 . S
O382 C371 1.272 . S
O383 Co354 2.113 . S
O383 C371 1.245 . S
Co384 H387 2.400 . S
Co384 O388 2.009 . S
Co384 O396 2.115 . S
Co384 O397 2.315 . S
Co384 O408 2.053 . S
Co384 O411 2.094 . S
Co384 O414 2.122 . S
Co385 O388 2.126 . S
Co385 H389 2.388 . S
Co385 O390 2.053 . S
Co385 O393 2.047 . S
Co385 O399 2.113 . S
Co385 O410 2.063 . S
Co386 H387 2.388 . S
Co386 O388 2.053 . S
Co386 O390 2.126 . S
Co386 O395 2.063 . S
Co386 O409 2.047 . S
Co386 O415 2.113 . S
H387 Co384 2.400 . S
H387 Co386 2.388 . S
H387 O388 0.760 . S
O388 Co384 2.009 . S
O388 Co385 2.126 . S
O388 Co386 2.053 . S
O388 H387 0.760 . S
H389 Co385 2.388 . S
H389 O390 0.760 . S
H389 Co391 2.400 . S
O390 Co385 2.053 . S
O390 Co386 2.126 . S
O390 H389 0.760 . S
O390 Co391 2.009 . S
Co391 H389 2.400 . S
Co391 O390 2.009 . S
Co391 O392 2.053 . S
Co391 O394 2.094 . S
Co391 O398 2.122 . S
Co391 O412 2.115 . S
Co391 O413 2.315 . S
O392 Co391 2.053 . S
O392 C404 1.259 . S
O393 Co385 2.047 . S
O393 C404 1.257 . S
O394 Co391 2.094 . S
O394 C405 1.253 . S
O395 Co386 2.063 . S
O395 C405 1.268 . S
O396 Co384 2.115 . S
O396 C406 1.281 . S
O397 Co384 2.315 . S
O397 C406 1.252 . S
O398 Co391 2.122 . S
O398 C407 1.272 . S
O399 Co385 2.113 . S
O399 C407 1.245 . S
C400 O408 1.259 . S
C400 O409 1.257 . S
C401 O410 1.268 . S
C401 O411 1.253 . S
C402 O412 1.281 . S
C402 O413 1.252 . S
C403 O414 1.272 . S
C403 O415 1.245 . S
C404 O392 1.259 . S
C404 O393 1.257 . S
C405 O394 1.253 . S
C405 O395 1.268 . S
C406 O396 1.281 . S
C406 O397 1.252 . S
C407 O398 1.272 . S
C407 O399 1.245 . S
O408 Co384 2.053 . S
O408 C400 1.259 . S
O409 Co386 2.047 . S
O409 C400 1.257 . S
O410 Co385 2.063 . S
O410 C401 1.268 . S
O411 Co384 2.094 . S
O411 C401 1.253 . S
O412 Co391 2.115 . S
O412 C402 1.281 . S
O413 Co391 2.315 . S
O413 C402 1.252 . S
O414 Co384 2.122 . S
O414 C403 1.272 . S
O415 Co386 2.113 . S
O415 C403 1.245 . S
Co416 H419 2.400 . S
Co416 O420 2.009 . S
Co416 O428 2.115 . S
Co416 O429 2.315 . S
Co416 O440 2.053 . S
Co416 O443 2.094 . S
Co416 O446 2.122 . S
Co417 O420 2.126 . S
Co417 H421 2.388 . S
Co417 O422 2.053 . S
Co417 O425 2.047 . S
Co417 O431 2.113 . S
Co417 O442 2.063 . S
Co418 H419 2.388 . S
Co418 O420 2.053 . S
Co418 O422 2.126 . S
Co418 O427 2.063 . S
Co418 O441 2.047 . S
Co418 O447 2.113 . S
H419 Co416 2.400 . S
H419 Co418 2.388 . S
H419 O420 0.760 . S
O420 Co416 2.009 . S
O420 Co417 2.126 . S
O420 Co418 2.053 . S
O420 H419 0.760 . S
H421 Co417 2.388 . S
H421 O422 0.760 . S
H421 Co423 2.400 . S
O422 Co417 2.053 . S
O422 Co418 2.126 . S
O422 H421 0.760 . S
O422 Co423 2.009 . S
Co423 H421 2.400 . S
Co423 O422 2.009 . S
Co423 O424 2.053 . S
Co423 O426 2.094 . S
Co423 O430 2.122 . S
Co423 O444 2.115 . S
Co423 O445 2.315 . S
O424 Co423 2.053 . S
O424 C436 1.259 . S
O425 Co417 2.047 . S
O425 C436 1.257 . S
O426 Co423 2.094 . S
O426 C437 1.253 . S
O427 Co418 2.063 . S
O427 C437 1.268 . S
O428 Co416 2.115 . S
O428 C438 1.281 . S
O429 Co416 2.315 . S
O429 C438 1.252 . S
O430 Co423 2.122 . S
O430 C439 1.272 . S
O431 Co417 2.113 . S
O431 C439 1.245 . S
C432 O440 1.259 . S
C432 O441 1.257 . S
C433 O442 1.268 . S
C433 O443 1.253 . S
C434 O444 1.281 . S
C434 O445 1.252 . S
C435 O446 1.272 . S
C435 O447 1.245 . S
C436 O424 1.259 . S
C436 O425 1.257 . S
C437 O426 1.253 . S
C437 O427 1.268 . S
C438 O428 1.281 . S
C438 O429 1.252 . S
C439 O430 1.272 . S
C439 O431 1.245 . S
O440 Co416 2.053 . S
O440 C432 1.259 . S
O441 Co418 2.047 . S
O441 C432 1.257 . S
O442 Co417 2.063 . S
O442 C433 1.268 . S
O443 Co416 2.094 . S
O443 C433 1.253 . S
O444 Co423 2.115 . S
O444 C434 1.281 . S
O445 Co423 2.315 . S
O445 C434 1.252 . S
O446 Co416 2.122 . S
O446 C435 1.272 . S
O447 Co418 2.113 . S
O447 C435 1.245 . S
Co448 H451 2.400 . S
Co448 O452 2.009 . S
Co448 O460 2.115 . S
Co448 O461 2.315 . S
Co448 O472 2.053 . S
Co448 O475 2.094 . S
Co448 O478 2.122 . S
Co449 O452 2.126 . S
Co449 H453 2.388 . S
Co449 O454 2.053 . S
Co449 O457 2.047 . S
Co449 O463 2.113 . S
Co449 O474 2.063 . S
Co450 H451 2.388 . S
Co450 O452 2.053 . S
Co450 O454 2.126 . S
Co450 O459 2.063 . S
Co450 O473 2.047 . S
Co450 O479 2.113 . S
H451 Co448 2.400 . S
H451 Co450 2.388 . S
H451 O452 0.760 . S
O452 Co448 2.009 . S
O452 Co449 2.126 . S
O452 Co450 2.053 . S
O452 H451 0.760 . S
H453 Co449 2.388 . S
H453 O454 0.760 . S
H453 Co455 2.400 . S
O454 Co449 2.053 . S
O454 Co450 2.126 . S
O454 H453 0.760 . S
O454 Co455 2.009 . S
Co455 H453 2.400 . S
Co455 O454 2.009 . S
Co455 O456 2.053 . S
Co455 O458 2.094 . S
Co455 O462 2.122 . S
Co455 O476 2.115 . S
Co455 O477 2.315 . S
O456 Co455 2.053 . S
O456 C468 1.259 . S
O457 Co449 2.047 . S
O457 C468 1.257 . S
O458 Co455 2.094 . S
O458 C469 1.253 . S
O459 Co450 2.063 . S
O459 C469 1.268 . S
O460 Co448 2.115 . S
O460 C470 1.281 . S
O461 Co448 2.315 . S
O461 C470 1.252 . S
O462 Co455 2.122 . S
O462 C471 1.272 . S
O463 Co449 2.113 . S
O463 C471 1.245 . S
C464 O472 1.259 . S
C464 O473 1.257 . S
C465 O474 1.268 . S
C465 O475 1.253 . S
C466 O476 1.281 . S
C466 O477 1.252 . S
C467 O478 1.272 . S
C467 O479 1.245 . S
C468 O456 1.259 . S
C468 O457 1.257 . S
C469 O458 1.253 . S
C469 O459 1.268 . S
C470 O460 1.281 . S
C470 O461 1.252 . S
C471 O462 1.272 . S
C471 O463 1.245 . S
O472 Co448 2.053 . S
O472 C464 1.259 . S
O473 Co450 2.047 . S
O473 C464 1.257 . S
O474 Co449 2.063 . S
O474 C465 1.268 . S
O475 Co448 2.094 . S
O475 C465 1.253 . S
O476 Co455 2.115 . S
O476 C466 1.281 . S
O477 Co455 2.315 . S
O477 C466 1.252 . S
O478 Co448 2.122 . S
O478 C467 1.272 . S
O479 Co450 2.113 . S
O479 C467 1.245 . S
Co480 H483 2.400 . S
Co480 O484 2.009 . S
Co480 O492 2.115 . S
Co480 O493 2.315 . S
Co480 O504 2.053 . S
Co480 O507 2.094 . S
Co480 O510 2.122 . S
Co481 O484 2.126 . S
Co481 H485 2.388 . S
Co481 O486 2.053 . S
Co481 O489 2.047 1_556 S
Co481 O495 2.113 1_556 S
Co481 O506 2.063 1_556 S
Co482 H483 2.388 . S
Co482 O484 2.053 . S
Co482 O486 2.126 . S
Co482 O491 2.063 . S
Co482 O505 2.047 . S
Co482 O511 2.113 . S
H483 Co480 2.400 . S
H483 Co482 2.388 . S
H483 O484 0.760 . S
O484 Co480 2.009 . S
O484 Co481 2.126 . S
O484 Co482 2.053 . S
O484 H483 0.760 . S
H485 Co481 2.388 . S
H485 O486 0.760 . S
H485 Co487 2.400 1_556 S
O486 Co481 2.053 . S
O486 Co482 2.126 . S
O486 H485 0.760 . S
O486 Co487 2.009 1_556 S
Co487 H485 2.400 1_554 S
Co487 O486 2.009 1_554 S
Co487 O488 2.053 . S
Co487 O490 2.094 1_554 S
Co487 O494 2.122 . S
Co487 O508 2.115 . S
Co487 O509 2.314 1_554 S
O488 Co487 2.053 . S
O488 C500 1.259 . S
O489 Co481 2.047 1_554 S
O489 C500 1.257 . S
O490 Co487 2.094 1_556 S
O490 C501 1.253 . S
O491 Co482 2.063 . S
O491 C501 1.268 . S
O492 Co480 2.115 . S
O492 C502 1.281 . S
O493 Co480 2.315 . S
O493 C502 1.252 . S
O494 Co487 2.122 . S
O494 C503 1.272 . S
O495 Co481 2.113 1_554 S
O495 C503 1.245 . S
C496 O504 1.259 . S
C496 O505 1.257 . S
C497 O506 1.268 1_556 S
C497 O507 1.253 . S
C498 O508 1.281 . S
C498 O509 1.249 1_554 S
C499 O510 1.272 . S
C499 O511 1.245 . S
C500 O488 1.259 . S
C500 O489 1.257 . S
C501 O490 1.253 . S
C501 O491 1.268 . S
C502 O492 1.281 . S
C502 O493 1.252 . S
C503 O494 1.272 . S
C503 O495 1.245 . S
O504 Co480 2.053 . S
O504 C496 1.259 . S
O505 Co482 2.047 . S
O505 C496 1.257 . S
O506 Co481 2.063 1_554 S
O506 C497 1.268 1_554 S
O507 Co480 2.094 . S
O507 C497 1.253 . S
O508 Co487 2.115 . S
O508 C498 1.281 . S
O509 Co487 2.314 1_556 S
O509 C498 1.249 1_556 S
O510 Co480 2.122 . S
O510 C499 1.272 . S
O511 Co482 2.113 . S
O511 C499 1.245 . S
Co512 H515 2.400 . S
Co512 O516 2.009 . S
Co512 O524 2.115 . S
Co512 O525 2.315 . S
Co512 O536 2.053 . S
Co512 O539 2.094 . S
Co512 O542 2.122 . S
Co513 O516 2.126 . S
Co513 H517 2.388 . S
Co513 O518 2.053 . S
Co513 O521 2.047 1_556 S
Co513 O527 2.113 1_556 S
Co513 O538 2.063 1_556 S
Co514 H515 2.388 . S
Co514 O516 2.053 . S
Co514 O518 2.126 . S
Co514 O523 2.063 . S
Co514 O537 2.047 . S
Co514 O543 2.113 . S
H515 Co512 2.400 . S
H515 Co514 2.388 . S
H515 O516 0.760 . S
O516 Co512 2.009 . S
O516 Co513 2.126 . S
O516 Co514 2.053 . S
O516 H515 0.760 . S
H517 Co513 2.388 . S
H517 O518 0.760 . S
H517 Co519 2.400 1_556 S
O518 Co513 2.053 . S
O518 Co514 2.126 . S
O518 H517 0.760 . S
O518 Co519 2.009 1_556 S
Co519 H517 2.400 1_554 S
Co519 O518 2.009 1_554 S
Co519 O520 2.053 . S
Co519 O522 2.094 1_554 S
Co519 O526 2.122 . S
Co519 O540 2.115 . S
Co519 O541 2.314 1_554 S
O520 Co519 2.053 . S
O520 C532 1.259 . S
O521 Co513 2.047 1_554 S
O521 C532 1.257 . S
O522 Co519 2.094 1_556 S
O522 C533 1.253 . S
O523 Co514 2.063 . S
O523 C533 1.268 . S
O524 Co512 2.115 . S
O524 C534 1.281 . S
O525 Co512 2.315 . S
O525 C534 1.252 . S
O526 Co519 2.122 . S
O526 C535 1.272 . S
O527 Co513 2.113 1_554 S
O527 C535 1.245 . S
C528 O536 1.259 . S
C528 O537 1.257 . S
C529 O538 1.268 1_556 S
C529 O539 1.253 . S
C530 O540 1.281 . S
C530 O541 1.249 1_554 S
C531 O542 1.272 . S
C531 O543 1.245 . S
C532 O520 1.259 . S
C532 O521 1.257 . S
C533 O522 1.253 . S
C533 O523 1.268 . S
C534 O524 1.281 . S
C534 O525 1.252 . S
C535 O526 1.272 . S
C535 O527 1.245 . S
O536 Co512 2.053 . S
O536 C528 1.259 . S
O537 Co514 2.047 . S
O537 C528 1.257 . S
O538 Co513 2.063 1_554 S
O538 C529 1.268 1_554 S
O539 Co512 2.094 . S
O539 C529 1.253 . S
O540 Co519 2.115 . S
O540 C530 1.281 . S
O541 Co519 2.314 1_556 S
O541 C530 1.249 1_556 S
O542 Co512 2.122 . S
O542 C531 1.272 . S
O543 Co514 2.113 . S
O543 C531 1.245 . S
Co544 H547 2.400 . S
Co544 O548 2.009 . S
Co544 O556 2.115 . S
Co544 O557 2.315 . S
Co544 O568 2.053 . S
Co544 O571 2.094 . S
Co544 O574 2.122 . S
Co545 O548 2.126 . S
Co545 H549 2.388 . S
Co545 O550 2.053 . S
Co545 O553 2.047 1_556 S
Co545 O559 2.113 1_556 S
Co545 O570 2.063 1_556 S
Co546 H547 2.388 . S
Co546 O548 2.053 . S
Co546 O550 2.126 . S
Co546 O555 2.063 . S
Co546 O569 2.047 . S
Co546 O575 2.113 . S
H547 Co544 2.400 . S
H547 Co546 2.388 . S
H547 O548 0.760 . S
O548 Co544 2.009 . S
O548 Co545 2.126 . S
O548 Co546 2.053 . S
O548 H547 0.760 . S
H549 Co545 2.388 . S
H549 O550 0.760 . S
H549 Co551 2.400 1_556 S
O550 Co545 2.053 . S
O550 Co546 2.126 . S
O550 H549 0.760 . S
O550 Co551 2.009 1_556 S
Co551 H549 2.400 1_554 S
Co551 O550 2.009 1_554 S
Co551 O552 2.053 . S
Co551 O554 2.094 1_554 S
Co551 O558 2.122 . S
Co551 O572 2.115 . S
Co551 O573 2.314 1_554 S
O552 Co551 2.053 . S
O552 C564 1.259 . S
O553 Co545 2.047 1_554 S
O553 C564 1.257 . S
O554 Co551 2.094 1_556 S
O554 C565 1.253 . S
O555 Co546 2.063 . S
O555 C565 1.268 . S
O556 Co544 2.115 . S
O556 C566 1.281 1_565 S
O557 Co544 2.315 . S
O557 C566 1.252 1_565 S
O558 Co551 2.122 . S
O558 C567 1.272 . S
O559 Co545 2.113 1_554 S
O559 C567 1.245 . S
C560 O568 1.259 . S
C560 O569 1.257 . S
C561 O570 1.268 1_556 S
C561 O571 1.253 . S
C562 O572 1.281 . S
C562 O573 1.249 1_554 S
C563 O574 1.272 . S
C563 O575 1.245 . S
C564 O552 1.259 . S
C564 O553 1.257 . S
C565 O554 1.253 . S
C565 O555 1.268 . S
C566 O556 1.281 1_545 S
C566 O557 1.252 1_545 S
C567 O558 1.272 . S
C567 O559 1.245 . S
O568 Co544 2.053 . S
O568 C560 1.259 . S
O569 Co546 2.047 . S
O569 C560 1.257 . S
O570 Co545 2.063 1_554 S
O570 C561 1.268 1_554 S
O571 Co544 2.094 . S
O571 C561 1.253 . S
O572 Co551 2.115 . S
O572 C562 1.281 . S
O573 Co551 2.314 1_556 S
O573 C562 1.249 1_556 S
O574 Co544 2.122 . S
O574 C563 1.272 . S
O575 Co546 2.113 . S
O575 C563 1.245 . S
C54 C17 2.863 . S
C49 C86 2.863 . S
C81 C22 2.863 1_655 S
C146 C117 2.863 . S
C178 C149 2.863 1_545 S
C181 C114 2.863 . S
C209 C246 2.863 1_554 S
C241 C278 2.863 1_554 S
C214 C273 2.863 1_556 S
C309 C338 2.863 . S
C370 C341 2.863 . S
C373 C306 2.863 . S
C401 C438 2.863 . S
C433 C470 2.863 . S
C465 C406 2.863 . S
C530 C501 2.863 1_554 S
C533 C562 2.863 1_556 S
C565 C498 2.863 1_556 S
C19 C180 1.925 . S
C51 C116 1.925 . S
C83 C148 1.925 . S
C55 C176 2.913 1_556 S
C112 C87 2.913 1_554 S
C23 C144 2.913 1_556 S
C80 C119 1.925 . S
C151 C16 1.925 . S
C183 C48 1.925 . S
C147 C84 2.913 1_554 S
C179 C20 2.913 1_554 S
C52 C115 2.913 1_556 S
C211 C372 1.925 . S
C308 C243 1.925 . S
C340 C275 1.925 . S
C247 C368 2.913 . S
C304 C279 2.913 . S
C336 C215 2.913 . S
C311 C272 1.925 . S
C208 C343 1.925 . S
C240 C375 1.925 . S
C276 C339 2.913 . S
C371 C212 2.913 . S
C307 C244 2.913 . S
C403 C564 1.925 . S
C435 C500 1.925 . S
C532 C467 1.925 . S
C439 C560 2.913 . S
C471 C496 2.913 . S
C528 C407 2.913 . S
C503 C464 1.925 . S
C535 C400 1.925 . S
C567 C432 1.925 . S
C531 C468 2.913 . S
C563 C404 2.913 . S
C499 C436 2.913 . S
C21 C434 2.607 . S
C53 C466 2.606 . S
C402 C85 2.607 . S
C213 C50 2.607 1_554 S
C245 C82 2.607 1_554 S
C18 C277 2.607 1_556 S
C113 C342 2.607 . S
C145 C374 2.606 . S
C310 C177 2.607 . S
C150 C497 2.607 1_554 S
C529 C182 2.606 1_556 S
C561 C118 2.607 1_556 S
C242 C405 2.607 . S
C274 C437 2.606 1_545 S
C469 C210 2.607 1_455 S
C305 C534 2.607 . S
C337 C566 2.607 . S
C369 C502 2.607 1_655 S
