# Generated by pormake.
# Topology unw, (4)-cn, num edge types: 1
# Building blocks:
#     Node 0, Type 0, BuildingBlock: KOZSID_clean_sbu_0, # of connection points: 4
#     Node 1, Type 0, BuildingBlock: KOZSID_clean_sbu_0, # of connection points: 4
#     Node 2, Type 0, BuildingBlock: KOZSID_clean_sbu_0, # of connection points: 4
#     Node 3, Type 0, BuildingBlock: KOZSID_clean_sbu_0, # of connection points: 4
#     Node 4, Type 0, BuildingBlock: KOZSID_clean_sbu_0, # of connection points: 4
#     Node 5, Type 0, BuildingBlock: KOZSID_clean_sbu_0, # of connection points: 4
#     Node 6, Type 0, BuildingBlock: KOZSID_clean_sbu_0, # of connection points: 4
#     Node 7, Type 0, BuildingBlock: KOZSID_clean_sbu_0, # of connection points: 4
#     Node 8, Type 0, BuildingBlock: KOZSID_clean_sbu_0, # of connection points: 4
#     Node 9, Type 0, BuildingBlock: KOZSID_clean_sbu_0, # of connection points: 4
#     Node 10, Type 0, BuildingBlock: KOZSID_clean_sbu_0, # of connection points: 4
#     Node 11, Type 0, BuildingBlock: KOZSID_clean_sbu_0, # of connection points: 4
#     Node 12, Type 0, BuildingBlock: KOZSID_clean_sbu_0, # of connection points: 4
#     Node 13, Type 0, BuildingBlock: KOZSID_clean_sbu_0, # of connection points: 4
#     Node 14, Type 0, BuildingBlock: KOZSID_clean_sbu_0, # of connection points: 4
#     Node 15, Type 0, BuildingBlock: KOZSID_clean_sbu_0, # of connection points: 4
#     Node 16, Type 0, BuildingBlock: KOZSID_clean_sbu_0, # of connection points: 4
#     Node 17, Type 0, BuildingBlock: KOZSID_clean_sbu_0, # of connection points: 4
#     Node 18, Type 0, BuildingBlock: KOZSID_clean_sbu_0, # of connection points: 4
#     Node 19, Type 0, BuildingBlock: KOZSID_clean_sbu_0, # of connection points: 4
#     Node 20, Type 0, BuildingBlock: KOZSID_clean_sbu_0, # of connection points: 4
#     Node 21, Type 0, BuildingBlock: KOZSID_clean_sbu_0, # of connection points: 4
#     Node 22, Type 0, BuildingBlock: KOZSID_clean_sbu_0, # of connection points: 4
#     Node 23, Type 0, BuildingBlock: KOZSID_clean_sbu_0, # of connection points: 4
#     Edge 24, Type (0, 0), BuildingBlock: XUDNAN_clean_linker_2, # of connection points: 2
#     Edge 25, Type (0, 0), BuildingBlock: XUDNAN_clean_linker_2, # of connection points: 2
#     Edge 26, Type (0, 0), BuildingBlock: XUDNAN_clean_linker_2, # of connection points: 2
#     Edge 27, Type (0, 0), BuildingBlock: XUDNAN_clean_linker_2, # of connection points: 2
#     Edge 28, Type (0, 0), BuildingBlock: XUDNAN_clean_linker_2, # of connection points: 2
#     Edge 29, Type (0, 0), BuildingBlock: XUDNAN_clean_linker_2, # of connection points: 2
#     Edge 30, Type (0, 0), BuildingBlock: XUDNAN_clean_linker_2, # of connection points: 2
#     Edge 31, Type (0, 0), BuildingBlock: XUDNAN_clean_linker_2, # of connection points: 2
#     Edge 32, Type (0, 0), BuildingBlock: XUDNAN_clean_linker_2, # of connection points: 2
#     Edge 33, Type (0, 0), BuildingBlock: XUDNAN_clean_linker_2, # of connection points: 2
#     Edge 34, Type (0, 0), BuildingBlock: XUDNAN_clean_linker_2, # of connection points: 2
#     Edge 35, Type (0, 0), BuildingBlock: XUDNAN_clean_linker_2, # of connection points: 2
#     Edge 36, Type (0, 0), BuildingBlock: XUDNAN_clean_linker_2, # of connection points: 2
#     Edge 37, Type (0, 0), BuildingBlock: XUDNAN_clean_linker_2, # of connection points: 2
#     Edge 38, Type (0, 0), BuildingBlock: XUDNAN_clean_linker_2, # of connection points: 2
#     Edge 39, Type (0, 0), BuildingBlock: XUDNAN_clean_linker_2, # of connection points: 2
#     Edge 40, Type (0, 0), BuildingBlock: XUDNAN_clean_linker_2, # of connection points: 2
#     Edge 41, Type (0, 0), BuildingBlock: XUDNAN_clean_linker_2, # of connection points: 2
#     Edge 42, Type (0, 0), BuildingBlock: XUDNAN_clean_linker_2, # of connection points: 2
#     Edge 43, Type (0, 0), BuildingBlock: XUDNAN_clean_linker_2, # of connection points: 2
#     Edge 44, Type (0, 0), BuildingBlock: XUDNAN_clean_linker_2, # of connection points: 2
#     Edge 45, Type (0, 0), BuildingBlock: XUDNAN_clean_linker_2, # of connection points: 2
#     Edge 46, Type (0, 0), BuildingBlock: XUDNAN_clean_linker_2, # of connection points: 2
#     Edge 47, Type (0, 0), BuildingBlock: XUDNAN_clean_linker_2, # of connection points: 2
#     Edge 48, Type (0, 0), BuildingBlock: XUDNAN_clean_linker_2, # of connection points: 2
#     Edge 49, Type (0, 0), BuildingBlock: XUDNAN_clean_linker_2, # of connection points: 2
#     Edge 50, Type (0, 0), BuildingBlock: XUDNAN_clean_linker_2, # of connection points: 2
#     Edge 51, Type (0, 0), BuildingBlock: XUDNAN_clean_linker_2, # of connection points: 2
#     Edge 52, Type (0, 0), BuildingBlock: XUDNAN_clean_linker_2, # of connection points: 2
#     Edge 53, Type (0, 0), BuildingBlock: XUDNAN_clean_linker_2, # of connection points: 2
#     Edge 54, Type (0, 0), BuildingBlock: XUDNAN_clean_linker_2, # of connection points: 2
#     Edge 55, Type (0, 0), BuildingBlock: XUDNAN_clean_linker_2, # of connection points: 2
#     Edge 56, Type (0, 0), BuildingBlock: XUDNAN_clean_linker_2, # of connection points: 2
#     Edge 57, Type (0, 0), BuildingBlock: XUDNAN_clean_linker_2, # of connection points: 2
#     Edge 58, Type (0, 0), BuildingBlock: XUDNAN_clean_linker_2, # of connection points: 2
#     Edge 59, Type (0, 0), BuildingBlock: XUDNAN_clean_linker_2, # of connection points: 2
#     Edge 60, Type (0, 0), BuildingBlock: XUDNAN_clean_linker_2, # of connection points: 2
#     Edge 61, Type (0, 0), BuildingBlock: XUDNAN_clean_linker_2, # of connection points: 2
#     Edge 62, Type (0, 0), BuildingBlock: XUDNAN_clean_linker_2, # of connection points: 2
#     Edge 63, Type (0, 0), BuildingBlock: XUDNAN_clean_linker_2, # of connection points: 2
#     Edge 64, Type (0, 0), BuildingBlock: XUDNAN_clean_linker_2, # of connection points: 2
#     Edge 65, Type (0, 0), BuildingBlock: XUDNAN_clean_linker_2, # of connection points: 2
#     Edge 66, Type (0, 0), BuildingBlock: XUDNAN_clean_linker_2, # of connection points: 2
#     Edge 67, Type (0, 0), BuildingBlock: XUDNAN_clean_linker_2, # of connection points: 2
#     Edge 68, Type (0, 0), BuildingBlock: XUDNAN_clean_linker_2, # of connection points: 2
#     Edge 69, Type (0, 0), BuildingBlock: XUDNAN_clean_linker_2, # of connection points: 2
#     Edge 70, Type (0, 0), BuildingBlock: XUDNAN_clean_linker_2, # of connection points: 2
#     Edge 71, Type (0, 0), BuildingBlock: XUDNAN_clean_linker_2, # of connection points: 2
# Relax obj value: 0.341
# Max RMSD: 0.292
# Mean RMSD: 0.270
data_MOF--net-unw--node1-KOZSID_clean_sbu_0--edge1-XUDNAN_clean_linker_2
_symmetry_space_group_name_H-M    P1
_symmetry_Int_Tables_number       1
_symmetry_cell_setting            triclinic
loop_
_symmetry_equiv_pos_as_xyz
'x, y, z'
_cell_length_a     61.93055
_cell_length_b     52.20449
_cell_length_c     55.255816
_cell_angle_alpha  90.005996
_cell_angle_beta   90.53318
_cell_angle_gamma 89.99641
loop_
_atom_site_label
_atom_site_type_symbol
_atom_site_fract_x
_atom_site_fract_y
_atom_site_fract_z
_atom_type_partial_charge
C0 C 0.12985 0.45236 0.20859 0.0
C1 C 0.11412 0.45834 0.19149 0.0
C2 C 0.10348 0.43592 0.18629 0.0
C3 C 0.11274 0.41784 0.20116 0.0
N4 N 0.12789 0.42774 0.21618 0.0
Co5 Co 0.14552 0.40896 0.24098 0.0
N6 N 0.13554 0.37489 0.22874 0.0
C7 C 0.12142 0.37067 0.21032 0.0
C8 C 0.11799 0.34513 0.20581 0.0
C9 C 0.1307 0.33242 0.22229 0.0
C10 C 0.14115 0.35096 0.23604 0.0
N11 N 0.1633 0.39086 0.26607 0.0
C12 C 0.16644 0.3655 0.26978 0.0
C13 C 0.18004 0.36118 0.28954 0.0
C14 C 0.18558 0.38463 0.29858 0.0
C15 C 0.17512 0.40191 0.28398 0.0
N16 N 0.15583 0.44309 0.25245 0.0
C17 C 0.16679 0.44835 0.27299 0.0
C18 C 0.16943 0.47411 0.27696 0.0
C19 C 0.16048 0.48574 0.25703 0.0
C20 C 0.15399 0.46624 0.24154 0.0
N21 N 0.12058 0.40927 0.26425 0.0
C22 C 0.08798 0.39601 0.29823 0.0
C23 C 0.10728 0.40789 0.3056 0.0
C24 C 0.12313 0.41435 0.28852 0.0
C25 C 0.08477 0.39305 0.27332 0.0
C26 C 0.10075 0.40023 0.25701 0.0
N27 N 0.1698 0.40714 0.21805 0.0
C28 C 0.20719 0.39628 0.21146 0.0
C29 C 0.20199 0.38723 0.18827 0.0
C30 C 0.1813 0.39171 0.17918 0.0
C31 C 0.1656 0.40186 0.19419 0.0
C32 C 0.19084 0.40658 0.22598 0.0
H33 H 0.14982 0.40346 0.18651 0.0
H34 H 0.1951 0.41248 0.24401 0.0
H35 H 0.13743 0.42281 0.29562 0.0
H36 H 0.09676 0.39709 0.23866 0.0
C37 C 0.11101 0.39111 0.19831 0.0
C38 C 0.14767 0.46943 0.21602 0.0
C39 C 0.15606 0.34494 0.25597 0.0
C40 C 0.17612 0.42859 0.28658 0.0
H41 H 0.11164 0.47654 0.18252 0.0
H42 H 0.09158 0.43286 0.17211 0.0
H43 H 0.10738 0.33674 0.19232 0.0
H44 H 0.13206 0.31183 0.22409 0.0
H45 H 0.18519 0.34298 0.29695 0.0
H46 H 0.19589 0.38858 0.31406 0.0
H47 H 0.17757 0.4833 0.29205 0.0
H48 H 0.15962 0.50617 0.2539 0.0
H49 H 0.11046 0.41188 0.32452 0.0
H50 H 0.07035 0.38412 0.26606 0.0
H51 H 0.22329 0.39377 0.21891 0.0
H52 H 0.17685 0.38581 0.161 0.0
C53 C 0.62083 0.10185 0.31587 0.0
C54 C 0.60453 0.10129 0.33293 0.0
C55 C 0.5926 0.12334 0.32973 0.0
C56 C 0.60232 0.13635 0.31113 0.0
N57 N 0.6195 0.12363 0.30256 0.0
Co58 Co 0.64011 0.13654 0.27835 0.0
N59 N 0.63182 0.17245 0.28422 0.0
C60 C 0.6133 0.18033 0.29432 0.0
C61 C 0.61202 0.20658 0.29573 0.0
C62 C 0.63084 0.21555 0.28572 0.0
C63 C 0.6426 0.19419 0.27877 0.0
N64 N 0.66096 0.14881 0.25419 0.0
C65 C 0.66961 0.17238 0.25157 0.0
C66 C 0.68353 0.1729 0.23199 0.0
C67 C 0.68332 0.14876 0.22208 0.0
C68 C 0.66934 0.13485 0.23607 0.0
N69 N 0.64825 0.10067 0.27247 0.0
C70 C 0.65747 0.0913 0.25242 0.0
C71 C 0.6616 0.06547 0.25421 0.0
C72 C 0.65463 0.05844 0.27683 0.0
C73 C 0.64671 0.08048 0.2876 0.0
N74 N 0.61764 0.13484 0.25286 0.0
C75 C 0.58343 0.13781 0.21916 0.0
C76 C 0.59995 0.15595 0.21928 0.0
C77 C 0.61661 0.15433 0.23628 0.0
C78 C 0.58453 0.11763 0.23595 0.0
C79 C 0.60203 0.11625 0.25244 0.0
N80 N 0.66225 0.13951 0.30366 0.0
C81 C 0.69986 0.14299 0.3146 0.0
C82 C 0.69446 0.15701 0.33538 0.0
C83 C 0.67261 0.15944 0.34119 0.0
C84 C 0.65685 0.15079 0.32509 0.0
C85 C 0.68343 0.13412 0.29907 0.0
H86 H 0.64029 0.15493 0.32931 0.0
H87 H 0.6879 0.12451 0.28256 0.0
H88 H 0.62827 0.16959 0.23639 0.0
H89 H 0.60265 0.10061 0.26522 0.0
C90 C 0.59975 0.16262 0.30601 0.0
C91 C 0.6373 0.08178 0.31187 0.0
C92 C 0.66318 0.19494 0.26569 0.0
C93 C 0.66656 0.10812 0.23548 0.0
H94 H 0.60177 0.0871 0.34678 0.0
H95 H 0.57954 0.12999 0.34098 0.0
H96 H 0.59937 0.21786 0.30391 0.0
H97 H 0.63536 0.23545 0.28372 0.0
H98 H 0.69265 0.18909 0.22536 0.0
H99 H 0.6928 0.14198 0.20703 0.0
H100 H 0.66997 0.05351 0.24133 0.0
H101 H 0.65558 0.03946 0.28466 0.0
H102 H 0.59959 0.17195 0.20678 0.0
H103 H 0.57202 0.10315 0.23634 0.0
H104 H 0.71655 0.14037 0.30949 0.0
H105 H 0.66765 0.16934 0.35744 0.0
C106 C 0.88982 0.57091 0.22506 0.0
C107 C 0.90177 0.57751 0.20482 0.0
C108 C 0.91077 0.60118 0.20947 0.0
C109 C 0.90383 0.60804 0.2321 0.0
N110 N 0.89119 0.58989 0.24183 0.0
Co111 Co 0.87489 0.59309 0.2722 0.0
N112 N 0.87578 0.63075 0.27126 0.0
C113 C 0.8898 0.64495 0.25859 0.0
C114 C 0.88602 0.67077 0.26121 0.0
C115 C 0.86869 0.67263 0.27658 0.0
C116 C 0.86288 0.64777 0.28259 0.0
N117 N 0.85858 0.59538 0.30257 0.0
C118 C 0.84716 0.61521 0.31138 0.0
C119 C 0.83853 0.60907 0.33377 0.0
C120 C 0.84494 0.58442 0.33891 0.0
C121 C 0.85714 0.57694 0.3195 0.0
N122 N 0.87408 0.55552 0.27314 0.0
C123 C 0.87159 0.54084 0.29289 0.0
C124 C 0.87163 0.51513 0.28737 0.0
C125 C 0.87418 0.51385 0.26266 0.0
C126 C 0.87543 0.53892 0.25453 0.0
N127 N 0.9021 0.59359 0.2912 0.0
C128 C 0.94132 0.60045 0.31669 0.0
C129 C 0.92272 0.61371 0.32327 0.0
C130 C 0.90357 0.61028 0.31029 0.0
C131 C 0.93991 0.58324 0.29715 0.0
C132 C 0.92001 0.5798 0.28483 0.0
N133 N 0.8478 0.59432 0.25344 0.0
C134 C 0.80888 0.59443 0.254 0.0
C135 C 0.80848 0.61211 0.23491 0.0
C136 C 0.82777 0.61832 0.22361 0.0
C137 C 0.84719 0.60941 0.23317 0.0
C138 C 0.82885 0.58518 0.26265 0.0
H139 H 0.86168 0.61704 0.22546 0.0
H140 H 0.82901 0.57254 0.27811 0.0
H141 H 0.89008 0.62195 0.31547 0.0
H142 H 0.91919 0.56648 0.26988 0.0
C143 C 0.9031 0.6333 0.24116 0.0
C144 C 0.87769 0.54671 0.22913 0.0
C145 C 0.84596 0.64053 0.29991 0.0
C146 C 0.8642 0.55187 0.31451 0.0
H147 H 0.90354 0.56725 0.18808 0.0
H148 H 0.9197 0.6129 0.19687 0.0
H149 H 0.89416 0.68635 0.25215 0.0
H150 H 0.8612 0.69023 0.28253 0.0
H151 H 0.82885 0.6212 0.34528 0.0
H152 H 0.84058 0.57308 0.35451 0.0
H153 H 0.86869 0.49928 0.29953 0.0
H154 H 0.8745 0.4966 0.2518 0.0
H155 H 0.92311 0.62734 0.33807 0.0
H156 H 0.95396 0.57251 0.29156 0.0
H157 H 0.79415 0.58923 0.26318 0.0
H158 H 0.82803 0.63205 0.20889 0.0
C159 C 0.37799 0.94598 0.29774 0.0
C160 C 0.39095 0.95133 0.31767 0.0
C161 C 0.40457 0.93079 0.32051 0.0
C162 C 0.39909 0.91407 0.30225 0.0
N163 N 0.38331 0.92313 0.28755 0.0
Co164 Co 0.36751 0.90365 0.26167 0.0
N165 N 0.38122 0.8706 0.27125 0.0
C166 C 0.39841 0.86788 0.28628 0.0
C167 C 0.40518 0.84294 0.28843 0.0
C168 C 0.39161 0.82909 0.27372 0.0
C169 C 0.37727 0.84642 0.26337 0.0
N170 N 0.35006 0.88448 0.23703 0.0
C171 C 0.34782 0.85897 0.23346 0.0
C172 C 0.33341 0.8539 0.21456 0.0
C173 C 0.32641 0.87699 0.206 0.0
C174 C 0.33679 0.8948 0.22008 0.0
N175 N 0.35442 0.93694 0.25164 0.0
C176 C 0.34309 0.94162 0.23116 0.0
C177 C 0.33518 0.96614 0.22992 0.0
C178 C 0.34137 0.97748 0.25117 0.0
C179 C 0.35283 0.95916 0.26419 0.0
N180 N 0.39187 0.90791 0.23797 0.0
C181 C 0.42728 0.89097 0.20969 0.0
C182 C 0.40636 0.89264 0.1999 0.0
C183 C 0.38916 0.90134 0.21406 0.0
C184 C 0.43051 0.90209 0.23255 0.0
C185 C 0.41281 0.91116 0.24587 0.0
N186 N 0.34419 0.89796 0.28506 0.0
C187 C 0.3064 0.89406 0.29475 0.0
C188 C 0.31165 0.88285 0.31713 0.0
C189 C 0.33343 0.88056 0.32347 0.0
C190 C 0.34927 0.88812 0.30734 0.0
C191 C 0.32291 0.90173 0.27909 0.0
H192 H 0.36564 0.885 0.31285 0.0
H193 H 0.31837 0.91 0.26197 0.0
H194 H 0.37375 0.90158 0.20534 0.0
H195 H 0.41654 0.9198 0.26289 0.0
C196 C 0.40605 0.88858 0.30018 0.0
C197 C 0.36055 0.96276 0.28906 0.0
C198 C 0.3603 0.83914 0.246 0.0
C199 C 0.33511 0.9213 0.21738 0.0
H200 H 0.39017 0.968 0.32929 0.0
H201 H 0.41616 0.92777 0.33501 0.0
H202 H 0.41808 0.83559 0.29981 0.0
H203 H 0.39213 0.80857 0.27099 0.0
H204 H 0.32882 0.83547 0.20718 0.0
H205 H 0.31532 0.88038 0.19109 0.0
H206 H 0.32439 0.97406 0.21632 0.0
H207 H 0.33688 0.99654 0.25691 0.0
H208 H 0.40297 0.88648 0.18155 0.0
H209 H 0.4464 0.90278 0.24081 0.0
H210 H 0.28971 0.89651 0.28922 0.0
H211 H 0.33838 0.87174 0.34039 0.0
C212 C 0.11746 0.55759 0.77552 0.0
C213 C 0.10309 0.56023 0.79442 0.0
C214 C 0.09145 0.58228 0.78983 0.0
C215 C 0.09938 0.59192 0.76847 0.0
N216 N 0.11505 0.57704 0.75946 0.0
Co217 Co 0.1334 0.5848 0.7313 0.0
N218 N 0.12703 0.62176 0.73317 0.0
C219 C 0.11009 0.63222 0.74467 0.0
C220 C 0.10938 0.65839 0.7422 0.0
C221 C 0.12675 0.66456 0.72802 0.0
C222 C 0.13714 0.64173 0.72253 0.0
N223 N 0.15235 0.59171 0.70347 0.0
C224 C 0.16111 0.61404 0.69602 0.0
C225 C 0.17331 0.61021 0.6753 0.0
C226 C 0.17174 0.58472 0.66956 0.0
C227 C 0.15875 0.57434 0.68697 0.0
N228 N 0.13942 0.54782 0.72948 0.0
C229 C 0.14636 0.53474 0.71012 0.0
C230 C 0.15027 0.50937 0.71539 0.0
C231 C 0.14571 0.50664 0.73957 0.0
C232 C 0.13931 0.53056 0.74763 0.0
N233 N 0.10835 0.58133 0.70905 0.0
C234 C 0.06994 0.58552 0.68158 0.0
C235 C 0.08812 0.59996 0.67587 0.0
C236 C 0.10686 0.59784 0.68981 0.0
C237 C 0.07156 0.56796 0.7008 0.0
C238 C 0.09111 0.56578 0.71402 0.0
N239 N 0.15794 0.58969 0.75339 0.0
C240 C 0.19604 0.5878 0.76246 0.0
C241 C 0.19311 0.6035 0.78281 0.0
C242 C 0.17216 0.61113 0.78858 0.0
C243 C 0.15496 0.60421 0.77368 0.0
C244 C 0.17815 0.58083 0.74812 0.0
H245 H 0.1393 0.61158 0.77818 0.0
H246 H 0.18071 0.56902 0.73237 0.0
H247 H 0.11968 0.61084 0.68556 0.0
H248 H 0.09198 0.5523 0.72883 0.0
C249 C 0.09728 0.61735 0.76031 0.0
C250 C 0.13323 0.53672 0.77247 0.0
C251 C 0.15523 0.63943 0.70548 0.0
C252 C 0.15473 0.5481 0.69032 0.0
H253 H 0.10156 0.54806 0.81014 0.0
H254 H 0.07989 0.59125 0.80172 0.0
H255 H 0.09797 0.67151 0.75023 0.0
H256 H 0.13109 0.68362 0.72211 0.0
H257 H 0.18186 0.62446 0.66488 0.0
H258 H 0.17946 0.57491 0.65471 0.0
H259 H 0.15731 0.49508 0.70365 0.0
H260 H 0.1475 0.48936 0.75023 0.0
H261 H 0.08755 0.61387 0.66132 0.0
H262 H 0.05784 0.55625 0.70567 0.0
H263 H 0.21202 0.58135 0.75748 0.0
H264 H 0.16913 0.62357 0.80387 0.0
C265 C 0.38705 0.09728 0.70858 0.0
C266 C 0.40375 0.09599 0.69218 0.0
C267 C 0.41537 0.11841 0.69486 0.0
C268 C 0.4051 0.13208 0.71275 0.0
N269 N 0.38799 0.11934 0.72141 0.0
Co270 Co 0.36641 0.13244 0.74437 0.0
N271 N 0.37411 0.1683 0.73757 0.0
C272 C 0.3928 0.17629 0.72786 0.0
C273 C 0.39374 0.20252 0.72589 0.0
C274 C 0.37454 0.21134 0.73508 0.0
C275 C 0.3629 0.18994 0.74219 0.0
N276 N 0.34407 0.14482 0.76681 0.0
C277 C 0.33475 0.16817 0.7681 0.0
C278 C 0.31973 0.16883 0.78665 0.0
C279 C 0.31996 0.14505 0.7973 0.0
C280 C 0.33503 0.13119 0.78476 0.0
N281 N 0.35914 0.0965 0.75138 0.0
C282 C 0.34925 0.08758 0.77121 0.0
C283 C 0.34558 0.06161 0.76995 0.0
C284 C 0.35349 0.05402 0.74788 0.0
C285 C 0.36159 0.07586 0.73697 0.0
N286 N 0.38821 0.13301 0.77092 0.0
C287 C 0.42343 0.14574 0.80155 0.0
C288 C 0.40333 0.15765 0.8039 0.0
C289 C 0.38647 0.15174 0.78816 0.0
C290 C 0.42472 0.12498 0.78534 0.0
C291 C 0.40673 0.11856 0.77055 0.0
N292 N 0.34513 0.13357 0.71794 0.0
C293 C 0.30789 0.13629 0.7053 0.0
C294 C 0.3139 0.15001 0.68456 0.0
C295 C 0.3359 0.15237 0.67955 0.0
C296 C 0.35115 0.14437 0.6965 0.0
C297 C 0.32386 0.12787 0.72165 0.0
H298 H 0.36776 0.14876 0.69287 0.0
H299 H 0.31891 0.11854 0.73812 0.0
H300 H 0.37266 0.16405 0.78917 0.0
H301 H 0.40834 0.103 0.75783 0.0
C302 C 0.40705 0.1586 0.71708 0.0
C303 C 0.37093 0.07714 0.71276 0.0
C304 C 0.34183 0.19069 0.7543 0.0
C305 C 0.33866 0.10469 0.7867 0.0
H306 H 0.40692 0.08071 0.67947 0.0
H307 H 0.42869 0.12474 0.68382 0.0
H308 H 0.40643 0.21384 0.71785 0.0
H309 H 0.36967 0.2312 0.73639 0.0
H310 H 0.30998 0.18494 0.79225 0.0
H311 H 0.3099 0.13849 0.81197 0.0
H312 H 0.33667 0.04994 0.78259 0.0
H313 H 0.35275 0.03486 0.74047 0.0
H314 H 0.40083 0.17283 0.81693 0.0
H315 H 0.43972 0.11463 0.78314 0.0
H316 H 0.29104 0.13366 0.70975 0.0
H317 H 0.34136 0.16193 0.66332 0.0
C318 C 0.86835 0.44663 0.78717 0.0
C319 C 0.88176 0.45013 0.8071 0.0
C320 C 0.89411 0.42816 0.80919 0.0
C321 C 0.88771 0.41247 0.79039 0.0
N322 N 0.87233 0.42358 0.7767 0.0
Co323 Co 0.85602 0.40725 0.74995 0.0
N324 N 0.86235 0.37257 0.76199 0.0
C325 C 0.87876 0.36631 0.77696 0.0
C326 C 0.87926 0.34045 0.78179 0.0
C327 C 0.86221 0.3301 0.76887 0.0
C328 C 0.85218 0.35026 0.75688 0.0
N329 N 0.83928 0.3918 0.72318 0.0
C330 C 0.83061 0.36813 0.72154 0.0
C331 C 0.81982 0.36512 0.69955 0.0
C332 C 0.82223 0.3877 0.68705 0.0
C333 C 0.83423 0.40326 0.70204 0.0
N334 N 0.85011 0.44196 0.73795 0.0
C335 C 0.84489 0.44857 0.71517 0.0
C336 C 0.84184 0.47459 0.71279 0.0
C337 C 0.84525 0.48462 0.73559 0.0
C338 C 0.85019 0.46408 0.75052 0.0
N339 N 0.8823 0.40525 0.73013 0.0
C340 C 0.92245 0.3964 0.70812 0.0
C341 C 0.90547 0.37904 0.70535 0.0
C342 C 0.88577 0.38363 0.71661 0.0
C343 C 0.9185 0.41916 0.72101 0.0
C344 C 0.8982 0.42341 0.73154 0.0
N345 N 0.83018 0.40784 0.77006 0.0
C346 C 0.79151 0.40698 0.77443 0.0
C347 C 0.79388 0.39868 0.79848 0.0
C348 C 0.81463 0.39641 0.80823 0.0
C349 C 0.83239 0.4007 0.79376 0.0
C350 C 0.80998 0.41195 0.76059 0.0
H351 H 0.84795 0.39668 0.80161 0.0
H352 H 0.80797 0.418 0.74203 0.0
H353 H 0.87379 0.36876 0.71538 0.0
H354 H 0.89568 0.44078 0.74176 0.0
C355 C 0.8906 0.38564 0.78919 0.0
C356 C 0.85288 0.46542 0.77693 0.0
C357 C 0.83412 0.34766 0.73948 0.0
C358 C 0.83796 0.42964 0.69876 0.0
H359 H 0.88256 0.46649 0.81902 0.0
H360 H 0.90521 0.4235 0.82378 0.0
H361 H 0.89015 0.33043 0.79394 0.0
H362 H 0.85774 0.31006 0.76824 0.0
H363 H 0.81129 0.34835 0.69306 0.0
H364 H 0.81539 0.39244 0.66953 0.0
H365 H 0.83617 0.48481 0.69692 0.0
H366 H 0.84336 0.50444 0.74092 0.0
H367 H 0.90781 0.36107 0.6959 0.0
H368 H 0.93119 0.43321 0.72352 0.0
H369 H 0.77563 0.40896 0.76628 0.0
H370 H 0.81723 0.38955 0.82653 0.0
C371 C 0.63002 0.93155 0.69362 0.0
C372 C 0.61721 0.93797 0.67385 0.0
C373 C 0.60292 0.91819 0.67063 0.0
C374 C 0.60787 0.90086 0.68854 0.0
N375 N 0.62395 0.90881 0.70343 0.0
Co376 Co 0.63899 0.88816 0.72908 0.0
N377 N 0.62359 0.85612 0.71937 0.0
C378 C 0.60664 0.85447 0.70385 0.0
C379 C 0.5989 0.82998 0.70129 0.0
C380 C 0.61161 0.81524 0.71615 0.0
C381 C 0.62643 0.83163 0.72702 0.0
N382 N 0.65531 0.86765 0.7538 0.0
C383 C 0.65597 0.84204 0.75753 0.0
C384 C 0.66987 0.83585 0.7766 0.0
C385 C 0.67837 0.85829 0.78496 0.0
C386 C 0.66925 0.87685 0.77066 0.0
N387 N 0.65397 0.92045 0.73906 0.0
C388 C 0.66617 0.92401 0.75914 0.0
C389 C 0.67541 0.94784 0.76037 0.0
C390 C 0.66921 0.95993 0.73952 0.0
C391 C 0.65635 0.94274 0.72673 0.0
N392 N 0.61513 0.89427 0.75293 0.0
C393 C 0.58071 0.879 0.78324 0.0
C394 C 0.60168 0.88238 0.79247 0.0
C395 C 0.6184 0.89036 0.77725 0.0
C396 C 0.57683 0.88776 0.75962 0.0
C397 C 0.59403 0.89609 0.74526 0.0
N398 N 0.6619 0.88064 0.70558 0.0
C399 C 0.69916 0.87116 0.69677 0.0
C400 C 0.69316 0.86052 0.67439 0.0
C401 C 0.6715 0.86177 0.66735 0.0
C402 C 0.65629 0.87176 0.68309 0.0
C403 C 0.68332 0.88147 0.71193 0.0
H404 H 0.63986 0.871 0.67715 0.0
H405 H 0.68841 0.88917 0.72909 0.0
H406 H 0.63395 0.89219 0.78547 0.0
H407 H 0.5898 0.90281 0.72767 0.0
C408 C 0.60003 0.87568 0.69003 0.0
C409 C 0.64827 0.94712 0.70208 0.0
C410 C 0.64292 0.82314 0.74444 0.0
C411 C 0.67302 0.9031 0.77287 0.0
H412 H 0.61859 0.9548 0.66253 0.0
H413 H 0.59123 0.91603 0.65609 0.0
H414 H 0.58596 0.82349 0.68951 0.0
H415 H 0.61026 0.79474 0.71856 0.0
H416 H 0.6733 0.81712 0.78408 0.0
H417 H 0.68971 0.86079 0.7998 0.0
H418 H 0.6869 0.95477 0.77372 0.0
H419 H 0.67462 0.97868 0.73404 0.0
H420 H 0.60547 0.87809 0.8112 0.0
H421 H 0.56086 0.88702 0.75158 0.0
H422 H 0.71586 0.87101 0.70275 0.0
H423 H 0.66602 0.85369 0.65031 0.0
C424 C 0.26921 0.10973 0.38451 0.0
C425 C 0.28701 0.11345 0.39945 0.0
C426 C 0.28461 0.13739 0.40967 0.0
C427 C 0.26548 0.14689 0.40044 0.0
N428 N 0.25583 0.13022 0.38532 0.0
Co429 Co 0.22936 0.13637 0.36611 0.0
N430 N 0.23276 0.17392 0.3682 0.0
C431 C 0.24477 0.18637 0.3849 0.0
C432 C 0.24356 0.21251 0.38236 0.0
C433 C 0.22978 0.21661 0.36308 0.0
C434 C 0.22333 0.19265 0.3548 0.0
N435 N 0.20281 0.14191 0.34668 0.0
C436 C 0.19613 0.163 0.33451 0.0
C437 C 0.17674 0.15815 0.32246 0.0
C438 C 0.17093 0.1335 0.32803 0.0
C439 C 0.1871 0.12451 0.3429 0.0
N440 N 0.22635 0.09872 0.3641 0.0
C441 C 0.20809 0.0858 0.35909 0.0
C442 C 0.21163 0.05994 0.35679 0.0
C443 C 0.23344 0.05658 0.36035 0.0
C444 C 0.2421 0.08067 0.36484 0.0
N445 N 0.21196 0.13758 0.3959 0.0
C446 C 0.19006 0.14599 0.43994 0.0
C447 C 0.18586 0.16098 0.41942 0.0
C448 C 0.19668 0.1564 0.39786 0.0
C449 C 0.20515 0.12588 0.43751 0.0
C450 C 0.21587 0.12198 0.41535 0.0
N451 N 0.24646 0.13642 0.33656 0.0
C452 C 0.24907 0.12932 0.29366 0.0
C453 C 0.26747 0.14494 0.29272 0.0
C454 C 0.27586 0.15479 0.31439 0.0
C455 C 0.26511 0.15041 0.336 0.0
C456 C 0.23895 0.12502 0.31585 0.0
H457 H 0.27136 0.15947 0.3521 0.0
H458 H 0.22453 0.11345 0.31611 0.0
H459 H 0.19317 0.16908 0.38302 0.0
H460 H 0.22772 0.10684 0.41411 0.0
C461 C 0.25922 0.17283 0.40007 0.0
C462 C 0.26502 0.08653 0.37001 0.0
C463 C 0.2065 0.18838 0.33617 0.0
C464 C 0.19002 0.0989 0.34991 0.0
H465 H 0.30045 0.1005 0.40219 0.0
H466 H 0.29623 0.14734 0.42098 0.0
H467 H 0.25208 0.22689 0.39284 0.0
H468 H 0.22475 0.2351 0.3562 0.0
H469 H 0.16758 0.1711 0.31104 0.0
H470 H 0.15701 0.12311 0.32126 0.0
H471 H 0.20011 0.0455 0.35113 0.0
H472 H 0.24169 0.03847 0.35897 0.0
H473 H 0.17489 0.17711 0.42006 0.0
H474 H 0.20886 0.1134 0.45262 0.0
H475 H 0.24225 0.12105 0.27732 0.0
H476 H 0.28994 0.1671 0.31451 0.0
C477 C 0.90784 0.22701 0.41596 0.0
C478 C 0.9175 0.20415 0.40921 0.0
C479 C 0.9245 0.20743 0.38579 0.0
C480 C 0.91864 0.23195 0.3794 0.0
N481 N 0.90862 0.24411 0.39752 0.0
Co482 Co 0.89441 0.27789 0.39564 0.0
N483 N 0.89193 0.27614 0.36008 0.0
C484 C 0.90376 0.261 0.34561 0.0
C485 C 0.89799 0.26356 0.32166 0.0
C486 C 0.88174 0.28153 0.32121 0.0
C487 C 0.87857 0.28918 0.345 0.0
N488 N 0.87979 0.31141 0.39441 0.0
C489 C 0.86727 0.32148 0.37666 0.0
C490 C 0.86044 0.34592 0.3829 0.0
C491 C 0.86911 0.35109 0.4054 0.0
C492 C 0.88078 0.32965 0.41161 0.0
N493 N 0.89727 0.27967 0.43103 0.0
C494 C 0.89702 0.30095 0.44469 0.0
C495 C 0.89826 0.2954 0.46903 0.0
C496 C 0.89915 0.26906 0.47048 0.0
C497 C 0.89835 0.26008 0.4469 0.0
N498 N 0.92253 0.29505 0.39184 0.0
C499 C 0.96293 0.31733 0.38107 0.0
C500 C 0.94367 0.32675 0.37091 0.0
C501 C 0.92398 0.31518 0.37608 0.0
C502 C 0.96122 0.29703 0.3978 0.0
C503 C 0.94089 0.28642 0.40315 0.0
N504 N 0.86645 0.26092 0.39857 0.0
C505 C 0.8305 0.25889 0.41458 0.0
C506 C 0.82526 0.23872 0.39873 0.0
C507 C 0.84148 0.22933 0.38362 0.0
C508 C 0.86186 0.2405 0.38395 0.0
C509 C 0.85115 0.2698 0.41413 0.0
H510 H 0.87374 0.23305 0.37172 0.0
H511 H 0.85464 0.28574 0.42598 0.0
H512 H 0.90994 0.32231 0.36666 0.0
H513 H 0.94006 0.27075 0.41588 0.0
C514 C 0.91652 0.2412 0.35556 0.0
C515 C 0.8983 0.233 0.43975 0.0
C516 C 0.8636 0.30943 0.35293 0.0
C517 C 0.88975 0.32417 0.43455 0.0
H518 H 0.91892 0.18668 0.41951 0.0
H519 H 0.93136 0.19288 0.37422 0.0
H520 H 0.90401 0.25269 0.30647 0.0
H521 H 0.87316 0.28792 0.30519 0.0
H522 H 0.85054 0.35879 0.37219 0.0
H523 H 0.86661 0.36811 0.4162 0.0
H524 H 0.89694 0.30868 0.48398 0.0
H525 H 0.89964 0.25774 0.48688 0.0
H526 H 0.94358 0.34292 0.35867 0.0
H527 H 0.97543 0.28882 0.40627 0.0
H528 H 0.81867 0.26654 0.42694 0.0
H529 H 0.83831 0.21415 0.37071 0.0
C530 C 0.78142 0.86967 0.43239 0.0
C531 C 0.80072 0.88308 0.4316 0.0
C532 C 0.80116 0.89529 0.40944 0.0
C533 C 0.7821 0.88888 0.39791 0.0
N534 N 0.76983 0.87369 0.41176 0.0
Co535 Co 0.74255 0.85708 0.40186 0.0
N536 N 0.7496 0.85959 0.36729 0.0
C537 C 0.76383 0.87606 0.35763 0.0
C538 C 0.7651 0.87344 0.33291 0.0
C539 C 0.75066 0.85433 0.32691 0.0
C540 C 0.74139 0.84622 0.34836 0.0
N541 N 0.7152 0.84019 0.39267 0.0
C542 C 0.70985 0.82812 0.37183 0.0
C543 C 0.68909 0.8181 0.37323 0.0
C544 C 0.68123 0.8248 0.39554 0.0
C545 C 0.69757 0.83828 0.40665 0.0
N546 N 0.73575 0.8548 0.43642 0.0
C547 C 0.71607 0.85242 0.44611 0.0
C548 C 0.71699 0.85086 0.47099 0.0
C549 C 0.73863 0.85217 0.47698 0.0
C550 C 0.74962 0.85443 0.45537 0.0
N551 N 0.72786 0.89052 0.39948 0.0
C552 C 0.70571 0.93717 0.39367 0.0
C553 C 0.70315 0.91738 0.37698 0.0
C554 C 0.71432 0.89451 0.38009 0.0
C555 C 0.71985 0.93342 0.41339 0.0
C556 C 0.73077 0.90979 0.41603 0.0
N557 N 0.75696 0.8238 0.4029 0.0
C558 C 0.75403 0.7779 0.40445 0.0
C559 C 0.77313 0.77548 0.39114 0.0
C560 C 0.78491 0.79764 0.38602 0.0
C561 C 0.77659 0.82148 0.39203 0.0
C562 C 0.74635 0.80232 0.41044 0.0
H563 H 0.78532 0.83808 0.38599 0.0
H564 H 0.73116 0.80389 0.41976 0.0
H565 H 0.71181 0.87995 0.36659 0.0
H566 H 0.74145 0.907 0.4314 0.0
C567 C 0.77814 0.89 0.37273 0.0
C568 C 0.77323 0.85432 0.45287 0.0
C569 C 0.72353 0.82765 0.35013 0.0
C570 C 0.69852 0.84521 0.43129 0.0
H571 H 0.81329 0.88397 0.44522 0.0
H572 H 0.81453 0.90593 0.40198 0.0
H573 H 0.77578 0.88351 0.32078 0.0
H574 H 0.7472 0.84734 0.30884 0.0
H575 H 0.68045 0.80714 0.35965 0.0
H576 H 0.66582 0.81946 0.4031 0.0
H577 H 0.70377 0.84716 0.48317 0.0
H578 H 0.74561 0.85053 0.49495 0.0
H579 H 0.69241 0.91954 0.36151 0.0
H580 H 0.72215 0.94835 0.42677 0.0
H581 H 0.74464 0.76118 0.40924 0.0
H582 H 0.79965 0.79687 0.37565 0.0
C583 C 0.12018 0.76878 0.4287 0.0
C584 C 0.10398 0.78715 0.42837 0.0
C585 C 0.09428 0.78589 0.40574 0.0
C586 C 0.10458 0.76631 0.39375 0.0
N587 N 0.11977 0.75534 0.40773 0.0
Co588 Co 0.13802 0.72621 0.39868 0.0
N589 N 0.13496 0.73381 0.36398 0.0
C590 C 0.11897 0.74768 0.35381 0.0
C591 C 0.12152 0.74999 0.3292 0.0
C592 C 0.14008 0.73656 0.32386 0.0
C593 C 0.14783 0.7266 0.34556 0.0
N594 N 0.15644 0.69699 0.39042 0.0
C595 C 0.1675 0.69264 0.36995 0.0
C596 C 0.17793 0.66911 0.37115 0.0
C597 C 0.17297 0.65858 0.39328 0.0
C598 C 0.15979 0.67617 0.40431 0.0
N599 N 0.14083 0.71868 0.43331 0.0
C600 C 0.1443 0.6955 0.44306 0.0
C601 C 0.14332 0.69612 0.46793 0.0
C602 C 0.13918 0.72134 0.47381 0.0
C603 C 0.1386 0.73484 0.45217 0.0
N604 N 0.11238 0.70385 0.396 0.0
C605 C 0.07396 0.67618 0.38686 0.0
C606 C 0.09188 0.67375 0.37179 0.0
C607 C 0.11073 0.68758 0.37662 0.0
C608 C 0.07611 0.69208 0.40736 0.0
C609 C 0.09542 0.70569 0.41162 0.0
N610 N 0.16323 0.74862 0.40013 0.0
C611 C 0.20113 0.75582 0.40751 0.0
C612 C 0.20003 0.7787 0.39426 0.0
C613 C 0.18003 0.78695 0.38547 0.0
C614 C 0.16191 0.7718 0.38871 0.0
C615 C 0.18242 0.74092 0.41022 0.0
H616 H 0.14693 0.77842 0.38092 0.0
H617 H 0.18354 0.7228 0.41958 0.0
H618 H 0.12379 0.68558 0.36404 0.0
H619 H 0.09645 0.71828 0.42711 0.0
C620 C 0.10452 0.76171 0.36851 0.0
C621 C 0.13499 0.76261 0.44918 0.0
C622 C 0.16654 0.70927 0.34848 0.0
C623 C 0.15288 0.67576 0.42862 0.0
H624 H 0.09974 0.8002 0.44277 0.0
H625 H 0.08204 0.79865 0.39855 0.0
H626 H 0.11165 0.76102 0.31673 0.0
H627 H 0.14702 0.73443 0.30608 0.0
H628 H 0.18774 0.66028 0.35735 0.0
H629 H 0.17875 0.6406 0.40062 0.0
H630 H 0.1463 0.68048 0.48037 0.0
H631 H 0.13722 0.72896 0.49187 0.0
H632 H 0.09141 0.66129 0.35612 0.0
H633 H 0.06276 0.69464 0.41965 0.0
H634 H 0.21641 0.749 0.41472 0.0
H635 H 0.17851 0.80475 0.3755 0.0
C636 C 0.21764 0.87793 0.58593 0.0
C637 C 0.1986 0.89182 0.58717 0.0
C638 C 0.19775 0.90189 0.61022 0.0
C639 C 0.21621 0.89356 0.62186 0.0
N640 N 0.2285 0.87916 0.60729 0.0
Co641 Co 0.255 0.86064 0.61686 0.0
N642 N 0.2472 0.86065 0.65147 0.0
C643 C 0.23221 0.87574 0.66166 0.0
C644 C 0.22822 0.86879 0.68517 0.0
C645 C 0.24166 0.84834 0.68992 0.0
C646 C 0.25363 0.84415 0.66915 0.0
N647 N 0.28186 0.84292 0.62578 0.0
C648 C 0.28715 0.8309 0.64659 0.0
C649 C 0.30897 0.82452 0.64678 0.0
C650 C 0.31721 0.83231 0.62496 0.0
C651 C 0.30017 0.8434 0.61283 0.0
N652 N 0.26237 0.85981 0.58234 0.0
C653 C 0.28219 0.85722 0.57303 0.0
C654 C 0.28162 0.85553 0.54816 0.0
C655 C 0.26008 0.85705 0.54173 0.0
C656 C 0.24875 0.85954 0.56309 0.0
N657 N 0.27029 0.89343 0.62137 0.0
C658 C 0.29292 0.9396 0.62981 0.0
C659 C 0.29322 0.91964 0.64675 0.0
C660 C 0.2821 0.89695 0.64216 0.0
C661 C 0.28069 0.93587 0.60844 0.0
C662 C 0.26944 0.91271 0.60461 0.0
N663 N 0.23984 0.828 0.61337 0.0
C664 C 0.24028 0.78235 0.60714 0.0
C665 C 0.21932 0.78059 0.61631 0.0
C666 C 0.20855 0.80295 0.62283 0.0
C667 C 0.21913 0.82629 0.62156 0.0
C668 C 0.25013 0.80647 0.60532 0.0
H669 H 0.21077 0.84275 0.62843 0.0
H670 H 0.26635 0.8076 0.59839 0.0
H671 H 0.2831 0.8822 0.65573 0.0
H672 H 0.26009 0.91033 0.58815 0.0
C673 C 0.21896 0.89162 0.64714 0.0
C674 C 0.2253 0.86321 0.56487 0.0
C675 C 0.27197 0.82602 0.66653 0.0
C676 C 0.29968 0.8507 0.58827 0.0
H677 H 0.18622 0.89374 0.57338 0.0
H678 H 0.18429 0.91199 0.61814 0.0
H679 H 0.2159 0.8764 0.69694 0.0
H680 H 0.24184 0.83757 0.70657 0.0
H681 H 0.31803 0.81525 0.66114 0.0
H682 H 0.33348 0.82951 0.6185 0.0
H683 H 0.29506 0.85207 0.53621 0.0
H684 H 0.25346 0.85625 0.52355 0.0
H685 H 0.3017 0.9215 0.66387 0.0
H686 H 0.27992 0.95058 0.59465 0.0
H687 H 0.24904 0.76529 0.60194 0.0
H688 H 0.19244 0.80225 0.63032 0.0
C689 C 0.10295 0.22911 0.59342 0.0
C690 C 0.09168 0.20696 0.59869 0.0
C691 C 0.08489 0.20939 0.62231 0.0
C692 C 0.09239 0.23288 0.6301 0.0
N693 N 0.10314 0.24521 0.61264 0.0
Co694 Co 0.11986 0.27711 0.61611 0.0
N695 N 0.1222 0.27318 0.65151 0.0
C696 C 0.10923 0.25855 0.66524 0.0
C697 C 0.11491 0.25947 0.68931 0.0
C698 C 0.13232 0.2758 0.69064 0.0
C699 C 0.13624 0.2842 0.66723 0.0
N700 N 0.13747 0.30852 0.61868 0.0
C701 C 0.15076 0.31619 0.63683 0.0
C702 C 0.15976 0.33989 0.63152 0.0
C703 C 0.15164 0.34711 0.60929 0.0
C704 C 0.13812 0.32756 0.60229 0.0
N705 N 0.1169 0.2811 0.58079 0.0
C706 C 0.11891 0.30299 0.56822 0.0
C707 C 0.11742 0.29895 0.54366 0.0
C708 C 0.11461 0.27295 0.54083 0.0
C709 C 0.11447 0.26255 0.56392 0.0
N710 N 0.09324 0.29736 0.62153 0.0
C711 C 0.05573 0.32123 0.63975 0.0
C712 C 0.0764 0.33013 0.64568 0.0
C713 C 0.09459 0.3177 0.63712 0.0
C714 C 0.0542 0.30146 0.62244 0.0
C715 C 0.07321 0.29 0.61328 0.0
N716 N 0.14633 0.25724 0.61218 0.0
C717 C 0.18254 0.25329 0.5973 0.0
C718 C 0.18669 0.23306 0.61348 0.0
C719 C 0.16968 0.22427 0.62779 0.0
C720 C 0.14969 0.23638 0.62666 0.0
C721 C 0.16228 0.2652 0.59702 0.0
H722 H 0.13721 0.22943 0.63837 0.0
H723 H 0.15977 0.28146 0.58526 0.0
H724 H 0.10969 0.32391 0.64472 0.0
H725 H 0.07165 0.27439 0.60054 0.0
C726 C 0.09514 0.24056 0.65439 0.0
C727 C 0.11276 0.2352 0.56993 0.0
C728 C 0.15274 0.3032 0.66038 0.0
C729 C 0.1284 0.3245 0.57934 0.0
H730 H 0.0891 0.19067 0.58689 0.0
H731 H 0.07697 0.19487 0.63303 0.0
H732 H 0.10801 0.24855 0.70398 0.0
H733 H 0.14115 0.28065 0.70698 0.0
H734 H 0.1706 0.35109 0.64277 0.0
H735 H 0.15555 0.36426 0.59925 0.0
H736 H 0.12001 0.31282 0.52942 0.0
H737 H 0.11356 0.26296 0.52374 0.0
H738 H 0.07873 0.346 0.65806 0.0
H739 H 0.03859 0.29409 0.61688 0.0
H740 H 0.19501 0.26045 0.58548 0.0
H741 H 0.17193 0.20898 0.64079 0.0
C742 C 0.73341 0.10033 0.61205 0.0
C743 C 0.71654 0.10005 0.59542 0.0
C744 C 0.71624 0.12392 0.5847 0.0
C745 C 0.73294 0.1374 0.59534 0.0
N746 N 0.74362 0.12324 0.61185 0.0
Co747 Co 0.76731 0.13505 0.63316 0.0
N748 N 0.75866 0.17121 0.62953 0.0
C749 C 0.7464 0.18082 0.61147 0.0
C750 C 0.74326 0.20678 0.61383 0.0
C751 C 0.75436 0.21371 0.63453 0.0
C752 C 0.76365 0.19152 0.64374 0.0
N753 N 0.79126 0.14644 0.65436 0.0
C754 C 0.79367 0.16874 0.66649 0.0
C755 C 0.81284 0.16867 0.67977 0.0
C756 C 0.82279 0.14566 0.67526 0.0
C757 C 0.80917 0.13286 0.65968 0.0
N758 N 0.77559 0.0988 0.63692 0.0
C759 C 0.79502 0.08986 0.64385 0.0
C760 C 0.79515 0.06362 0.64617 0.0
C761 C 0.77448 0.05582 0.64047 0.0
C762 C 0.7629 0.07781 0.63491 0.0
N763 N 0.78637 0.13876 0.60499 0.0
C764 C 0.81176 0.14739 0.56383 0.0
C765 C 0.81056 0.16562 0.58224 0.0
C766 C 0.79813 0.16084 0.60267 0.0
C767 C 0.80037 0.12432 0.56664 0.0
C768 C 0.78754 0.12049 0.58726 0.0
N769 N 0.74832 0.1323 0.66108 0.0
C770 C 0.74304 0.12505 0.70365 0.0
C771 C 0.72205 0.13491 0.7018 0.0
C772 C 0.71423 0.14245 0.67912 0.0
C773 C 0.72764 0.14128 0.65912 0.0
C774 C 0.75582 0.12348 0.68291 0.0
H775 H 0.72145 0.14855 0.64221 0.0
H776 H 0.77198 0.11594 0.68464 0.0
H777 H 0.79788 0.17536 0.6165 0.0
H778 H 0.7784 0.10295 0.5888 0.0
C779 C 0.73533 0.16426 0.59541 0.0
C780 C 0.74008 0.07868 0.6274 0.0
C781 C 0.7787 0.19057 0.66452 0.0
C782 C 0.81045 0.10673 0.65365 0.0
H783 H 0.70545 0.08446 0.5918 0.0
H784 H 0.70428 0.13111 0.57201 0.0
H785 H 0.73347 0.21906 0.6024 0.0
H786 H 0.75567 0.23288 0.64186 0.0
H787 H 0.81903 0.18355 0.69156 0.0
H788 H 0.83764 0.13865 0.68334 0.0
H789 H 0.80821 0.05173 0.65287 0.0
H790 H 0.76858 0.03633 0.64086 0.0
H791 H 0.8194 0.18348 0.58098 0.0
H792 H 0.80104 0.10964 0.55281 0.0
H793 H 0.74955 0.11894 0.72096 0.0
H794 H 0.69816 0.15041 0.67705 0.0
C795 C 0.88074 0.75005 0.57438 0.0
C796 C 0.89271 0.77241 0.57629 0.0
C797 C 0.90239 0.77207 0.59895 0.0
C798 C 0.8961 0.74943 0.60959 0.0
N799 N 0.88337 0.7357 0.59469 0.0
Co800 Co 0.86829 0.70368 0.60285 0.0
N801 N 0.86948 0.71105 0.63774 0.0
C802 C 0.8834 0.72719 0.64868 0.0
C803 C 0.87977 0.72875 0.67317 0.0
C804 C 0.86268 0.71247 0.6776 0.0
C805 C 0.85685 0.70173 0.65551 0.0
N806 N 0.85287 0.67176 0.61012 0.0
C807 C 0.84167 0.66558 0.63007 0.0
C808 C 0.83349 0.64089 0.62818 0.0
C809 C 0.83995 0.63155 0.60608 0.0
C810 C 0.85173 0.65096 0.59578 0.0
N811 N 0.86748 0.69634 0.56807 0.0
C812 C 0.86567 0.6732 0.55768 0.0
C813 C 0.86574 0.67479 0.53279 0.0
C814 C 0.86758 0.70055 0.52757 0.0
C815 C 0.86847 0.71315 0.54963 0.0
N816 N 0.89596 0.68524 0.6062 0.0
C817 C 0.93586 0.66052 0.61469 0.0
C818 C 0.91815 0.65628 0.62972 0.0
C819 C 0.89859 0.66871 0.62524 0.0
C820 C 0.93292 0.67712 0.59481 0.0
C821 C 0.91287 0.68929 0.5909 0.0
N822 N 0.84088 0.72214 0.60074 0.0
C823 C 0.80283 0.72447 0.59145 0.0
C824 C 0.80142 0.74753 0.60436 0.0
C825 C 0.82013 0.7581 0.61431 0.0
C826 C 0.83956 0.74523 0.61229 0.0
C827 C 0.82287 0.71192 0.58994 0.0
H828 H 0.85342 0.75373 0.62093 0.0
H829 H 0.82379 0.69379 0.58058 0.0
H830 H 0.88562 0.66511 0.63762 0.0
H831 H 0.91109 0.70226 0.57576 0.0
C832 C 0.8961 0.7441 0.6347 0.0
C833 C 0.86814 0.74108 0.55304 0.0
C834 C 0.8401 0.68201 0.65156 0.0
C835 C 0.8587 0.65218 0.57157 0.0
H836 H 0.8944 0.78744 0.56304 0.0
H837 H 0.9116 0.7874 0.60724 0.0
H838 H 0.88776 0.74122 0.68609 0.0
H839 H 0.85536 0.70913 0.695 0.0
H840 H 0.82404 0.63066 0.64143 0.0
H841 H 0.83586 0.61319 0.59818 0.0
H842 H 0.86309 0.6594 0.51998 0.0
H843 H 0.86722 0.7092 0.50978 0.0
H844 H 0.91926 0.64326 0.64493 0.0
H845 H 0.9461 0.68114 0.58266 0.0
H846 H 0.78856 0.71589 0.58339 0.0
H847 H 0.81966 0.77605 0.62417 0.0
C848 C 0.40222 0.29325 0.09691 0.0
C849 C 0.41352 0.31538 0.10274 0.0
C850 C 0.42152 0.31203 0.12593 0.0
C851 C 0.41462 0.28818 0.13312 0.0
N852 N 0.40302 0.27651 0.11567 0.0
Co853 Co 0.38691 0.24415 0.11888 0.0
N854 N 0.38606 0.24703 0.15441 0.0
C855 C 0.39945 0.26134 0.16815 0.0
C856 C 0.39444 0.25989 0.1923 0.0
C857 C 0.37701 0.24356 0.19361 0.0
C858 C 0.37239 0.23576 0.17009 0.0
N859 N 0.37049 0.21202 0.12137 0.0
C860 C 0.35807 0.20363 0.13966 0.0
C861 C 0.34962 0.17962 0.13437 0.0
C862 C 0.35714 0.173 0.11186 0.0
C863 C 0.3698 0.19322 0.10472 0.0
N864 N 0.38802 0.24126 0.08349 0.0
C865 C 0.38598 0.21972 0.07037 0.0
C866 C 0.38632 0.22461 0.04588 0.0
C867 C 0.38851 0.2508 0.04379 0.0
C868 C 0.38934 0.26036 0.06717 0.0
N869 N 0.41405 0.22478 0.12229 0.0
C870 C 0.45379 0.20118 0.1338 0.0
C871 C 0.43469 0.19381 0.1452 0.0
C872 C 0.41523 0.20579 0.13934 0.0
C873 C 0.45228 0.21983 0.11542 0.0
C874 C 0.43225 0.2313 0.10987 0.0
N875 N 0.35998 0.26348 0.11656 0.0
C876 C 0.32332 0.2686 0.10256 0.0
C877 C 0.32055 0.28972 0.11804 0.0
C878 C 0.33828 0.29778 0.13197 0.0
C879 C 0.3577 0.28466 0.1308 0.0
C880 C 0.34317 0.25566 0.10217 0.0
H881 H 0.37073 0.29127 0.14219 0.0
H882 H 0.34485 0.23909 0.09065 0.0
H883 H 0.40122 0.20019 0.14944 0.0
H884 H 0.43158 0.24605 0.09616 0.0
C885 C 0.41301 0.27969 0.15728 0.0
C886 C 0.39104 0.28753 0.07373 0.0
C887 C 0.35572 0.21701 0.16287 0.0
C888 C 0.378 0.19734 0.08133 0.0
H889 H 0.41538 0.33247 0.09199 0.0
H890 H 0.42974 0.32624 0.13689 0.0
H891 H 0.40176 0.2705 0.20707 0.0
H892 H 0.36864 0.23833 0.20996 0.0
H893 H 0.33931 0.16802 0.14567 0.0
H894 H 0.3532 0.15593 0.10162 0.0
H895 H 0.38357 0.21112 0.03131 0.0
H896 H 0.38877 0.26169 0.02713 0.0
H897 H 0.43471 0.17904 0.15896 0.0
H898 H 0.46654 0.2262 0.10597 0.0
H899 H 0.31022 0.26182 0.09115 0.0
H900 H 0.33707 0.31347 0.1447 0.0
C901 C 0.39102 0.71142 0.89005 0.0
C902 C 0.4026 0.68965 0.89621 0.0
C903 C 0.4146 0.68332 0.87615 0.0
C904 C 0.40968 0.70156 0.85893 0.0
N905 N 0.39549 0.71882 0.86719 0.0
Co906 Co 0.38225 0.74691 0.84843 0.0
N907 N 0.38794 0.72988 0.81723 0.0
C908 C 0.40204 0.71061 0.81386 0.0
C909 C 0.39948 0.69954 0.79151 0.0
C910 C 0.38295 0.71275 0.78035 0.0
C911 C 0.37656 0.73202 0.79618 0.0
N912 N 0.36931 0.77535 0.83025 0.0
C913 C 0.3626 0.77597 0.80698 0.0
C914 C 0.35789 0.801 0.80011 0.0
C915 C 0.36107 0.81612 0.82025 0.0
C916 C 0.368 0.79968 0.83811 0.0
N917 N 0.37614 0.76366 0.87949 0.0
C918 C 0.37279 0.78878 0.88305 0.0
C919 C 0.36753 0.79405 0.90671 0.0
C920 C 0.36758 0.7707 0.91844 0.0
C921 C 0.37289 0.75254 0.90122 0.0
N922 N 0.41041 0.76435 0.84655 0.0
C923 C 0.45057 0.78937 0.8422 0.0
C924 C 0.43657 0.78678 0.82231 0.0
C925 C 0.4168 0.77426 0.82481 0.0
C926 C 0.44393 0.77901 0.86445 0.0
C927 C 0.4238 0.76666 0.86626 0.0
N928 N 0.3544 0.72938 0.84953 0.0
C929 C 0.31557 0.73012 0.8515 0.0
C930 C 0.31485 0.70419 0.84502 0.0
C931 C 0.33414 0.69093 0.84187 0.0
C932 C 0.35367 0.70376 0.84441 0.0
C933 C 0.33563 0.74246 0.85358 0.0
H934 H 0.36821 0.69301 0.84137 0.0
H935 H 0.33602 0.76264 0.85785 0.0
H936 H 0.4067 0.7725 0.80891 0.0
H937 H 0.41905 0.7589 0.88354 0.0
C938 C 0.41255 0.69899 0.83381 0.0
C939 C 0.37594 0.7251 0.90582 0.0
C940 C 0.36085 0.75316 0.79122 0.0
C941 C 0.3701 0.80524 0.86301 0.0
H942 H 0.40201 0.67917 0.91308 0.0
H943 H 0.42432 0.66628 0.87382 0.0
H944 H 0.40721 0.68232 0.78495 0.0
H945 H 0.3761 0.7073 0.76316 0.0
H946 H 0.3525 0.80761 0.7825 0.0
H947 H 0.35799 0.83646 0.82181 0.0
H948 H 0.36298 0.81238 0.91426 0.0
H949 H 0.36406 0.76735 0.93733 0.0
H950 H 0.44102 0.79387 0.80462 0.0
H951 H 0.45413 0.78056 0.88041 0.0
H952 H 0.30081 0.74086 0.85416 0.0
H953 H 0.33411 0.6708 0.83707 0.0
C954 C 0.22316 0.41017 0.89633 0.0
C955 C 0.2075 0.40676 0.91386 0.0
C956 C 0.20998 0.3821 0.92256 0.0
C957 C 0.22744 0.37214 0.91054 0.0
N958 N 0.23594 0.38925 0.89523 0.0
Co959 Co 0.26228 0.38453 0.87641 0.0
N960 N 0.25853 0.34723 0.87605 0.0
C961 C 0.24703 0.33354 0.89201 0.0
C962 C 0.24757 0.30775 0.88687 0.0
C963 C 0.26028 0.30543 0.86659 0.0
C964 C 0.26678 0.33002 0.86045 0.0
N965 N 0.28887 0.38023 0.85777 0.0
C966 C 0.29483 0.36033 0.84376 0.0
C967 C 0.31474 0.36517 0.83333 0.0
C968 C 0.32136 0.38884 0.84161 0.0
C969 C 0.30515 0.39723 0.8565 0.0
N970 N 0.26558 0.42189 0.8768 0.0
C971 C 0.28417 0.43484 0.87483 0.0
C972 C 0.28103 0.46087 0.87682 0.0
C973 C 0.25909 0.46408 0.87998 0.0
C974 C 0.24999 0.43981 0.87903 0.0
N975 N 0.2795 0.38126 0.90652 0.0
C976 C 0.30366 0.37335 0.94925 0.0
C977 C 0.30622 0.35738 0.92926 0.0
C978 C 0.29424 0.36174 0.90818 0.0
C979 C 0.28893 0.39374 0.94745 0.0
C980 C 0.27685 0.39727 0.92592 0.0
N981 N 0.24554 0.38673 0.84638 0.0
C982 C 0.24509 0.39502 0.8036 0.0
C983 C 0.2273 0.37868 0.80063 0.0
C984 C 0.21765 0.36843 0.82129 0.0
C985 C 0.22702 0.37267 0.84398 0.0
C986 C 0.25378 0.39911 0.82672 0.0
H987 H 0.22015 0.36307 0.85938 0.0
H988 H 0.268 0.41091 0.82852 0.0
H989 H 0.29689 0.34899 0.89317 0.0
H990 H 0.26533 0.41279 0.92495 0.0
C991 C 0.23341 0.34607 0.90872 0.0
C992 C 0.22688 0.43341 0.88158 0.0
C993 C 0.28223 0.33653 0.84131 0.0
C994 C 0.30258 0.42232 0.86569 0.0
H995 H 0.19545 0.42045 0.91954 0.0
H996 H 0.19962 0.37231 0.93524 0.0
H997 H 0.23918 0.29253 0.89619 0.0
H998 H 0.2645 0.28775 0.85758 0.0
H999 H 0.32357 0.35303 0.82102 0.0
H1000 H 0.33577 0.39914 0.83646 0.0
H1001 H 0.29299 0.47583 0.8749 0.0
H1002 H 0.25076 0.48212 0.88229 0.0
H1003 H 0.31763 0.34165 0.92985 0.0
H1004 H 0.28666 0.40665 0.96255 0.0
H1005 H 0.25274 0.40373 0.78809 0.0
H1006 H 0.20388 0.35571 0.81982 0.0
C1007 C 0.6127 0.28621 0.91704 0.0
C1008 C 0.59955 0.30755 0.91428 0.0
C1009 C 0.58773 0.30384 0.89331 0.0
C1010 C 0.59438 0.28062 0.88425 0.0
N1011 N 0.60953 0.26965 0.89839 0.0
Co1012 Co 0.62589 0.2381 0.89098 0.0
N1013 N 0.61914 0.24058 0.85607 0.0
C1014 C 0.60271 0.25408 0.84628 0.0
C1015 C 0.60179 0.25184 0.82152 0.0
C1016 C 0.61849 0.23574 0.81557 0.0
C1017 C 0.62869 0.22889 0.83712 0.0
N1018 N 0.64286 0.20694 0.88419 0.0
C1019 C 0.65095 0.19846 0.86301 0.0
C1020 C 0.66155 0.17522 0.86628 0.0
C1021 C 0.65975 0.16902 0.89032 0.0
C1022 C 0.64819 0.18868 0.9004 0.0
N1023 N 0.63215 0.23547 0.92591 0.0
C1024 C 0.63783 0.21416 0.93803 0.0
C1025 C 0.64171 0.21883 0.96219 0.0
C1026 C 0.6384 0.24469 0.96521 0.0
C1027 C 0.63277 0.25433 0.94262 0.0
N1028 N 0.59959 0.2172 0.89449 0.0
C1029 C 0.55763 0.19806 0.88724 0.0
C1030 C 0.57502 0.18811 0.87434 0.0
C1031 C 0.59575 0.19789 0.87818 0.0
C1032 C 0.56216 0.21563 0.90593 0.0
C1033 C 0.58334 0.22465 0.90952 0.0
N1034 N 0.65157 0.25914 0.88631 0.0
C1035 C 0.68931 0.26856 0.8924 0.0
C1036 C 0.68757 0.28936 0.87645 0.0
C1037 C 0.66756 0.29505 0.86611 0.0
C1038 C 0.64983 0.27996 0.87142 0.0
C1039 C 0.67103 0.25342 0.89692 0.0
H1040 H 0.63467 0.28517 0.86319 0.0
H1041 H 0.67259 0.23706 0.90877 0.0
H1042 H 0.60816 0.19138 0.86617 0.0
H1043 H 0.58621 0.23914 0.92313 0.0
C1044 C 0.59126 0.27195 0.86035 0.0
C1045 C 0.62776 0.28125 0.93744 0.0
C1046 C 0.64632 0.21004 0.83926 0.0
C1047 C 0.64468 0.19248 0.92522 0.0
H1048 H 0.59887 0.32433 0.92568 0.0
H1049 H 0.57684 0.3174 0.8848 0.0
H1050 H 0.59086 0.26153 0.80916 0.0
H1051 H 0.62261 0.22968 0.79746 0.0
H1052 H 0.66928 0.16361 0.85264 0.0
H1053 H 0.66647 0.15243 0.8994 0.0
H1054 H 0.64773 0.20549 0.97563 0.0
H1055 H 0.64035 0.25531 0.98191 0.0
H1056 H 0.57244 0.17457 0.85974 0.0
H1057 H 0.54927 0.22345 0.91679 0.0
H1058 H 0.70465 0.2638 0.90082 0.0
H1059 H 0.66559 0.31124 0.854 0.0
C1060 C 0.76301 0.60486 0.88283 0.0
C1061 C 0.78209 0.61155 0.89447 0.0
C1062 C 0.77988 0.63687 0.90137 0.0
C1063 C 0.75953 0.64421 0.89382 0.0
N1064 N 0.74894 0.62486 0.88302 0.0
Co1065 Co 0.72095 0.62703 0.86566 0.0
N1066 N 0.72353 0.66428 0.86111 0.0
C1067 C 0.73624 0.67981 0.87453 0.0
C1068 C 0.73384 0.70511 0.86823 0.0
C1069 C 0.71856 0.70535 0.84999 0.0
C1070 C 0.71247 0.68006 0.84602 0.0
N1071 N 0.69348 0.62784 0.84713 0.0
C1072 C 0.68583 0.64596 0.83178 0.0
C1073 C 0.66634 0.6381 0.8215 0.0
C1074 C 0.6614 0.6148 0.83157 0.0
C1075 C 0.67819 0.60946 0.84715 0.0
N1076 N 0.7183 0.59001 0.87118 0.0
C1077 C 0.70004 0.57618 0.87093 0.0
C1078 C 0.70384 0.55071 0.87586 0.0
C1079 C 0.72586 0.54865 0.87908 0.0
C1080 C 0.73417 0.57304 0.87585 0.0
N1081 N 0.7052 0.63424 0.89622 0.0
C1082 C 0.68514 0.65433 0.93832 0.0
C1083 C 0.67599 0.65715 0.91517 0.0
C1084 C 0.68657 0.64831 0.89478 0.0
C1085 C 0.70382 0.63888 0.94001 0.0
C1086 C 0.71325 0.62852 0.91883 0.0
N1087 N 0.73645 0.62157 0.8353 0.0
C1088 C 0.73739 0.60722 0.79385 0.0
C1089 C 0.75559 0.62255 0.78957 0.0
C1090 C 0.76457 0.63618 0.80893 0.0
C1091 C 0.75472 0.63563 0.83138 0.0
C1092 C 0.72823 0.60671 0.81701 0.0
H1093 H 0.76142 0.64779 0.84522 0.0
H1094 H 0.71407 0.5951 0.8199 0.0
H1095 H 0.67972 0.65426 0.87784 0.0
H1096 H 0.72754 0.61683 0.92079 0.0
C1097 C 0.75237 0.66956 0.89002 0.0
C1098 C 0.75714 0.57925 0.87334 0.0
C1099 C 0.69499 0.67192 0.82936 0.0
C1100 C 0.68153 0.58623 0.85957 0.0
H1101 H 0.79612 0.5997 0.89763 0.0
H1102 H 0.79227 0.64892 0.90933 0.0
H1103 H 0.74255 0.72139 0.87551 0.0
H1104 H 0.71245 0.72225 0.84089 0.0
H1105 H 0.6564 0.64837 0.80855 0.0
H1106 H 0.64748 0.60296 0.82756 0.0
H1107 H 0.69234 0.53512 0.87496 0.0
H1108 H 0.73493 0.53113 0.88172 0.0
H1109 H 0.66088 0.66708 0.91223 0.0
H1110 H 0.71155 0.63535 0.95732 0.0
H1111 H 0.73005 0.59623 0.77933 0.0
H1112 H 0.77839 0.6486 0.80644 0.0
C1113 C 0.61644 0.72299 0.10688 0.0
C1114 C 0.60305 0.70228 0.10204 0.0
C1115 C 0.59113 0.69818 0.12262 0.0
C1116 C 0.59779 0.71662 0.13887 0.0
N1117 N 0.61308 0.73193 0.12957 0.0
Co1118 Co 0.6278 0.76019 0.14677 0.0
N1119 N 0.6207 0.74586 0.17871 0.0
C1120 C 0.60484 0.72903 0.1833 0.0
C1121 C 0.6043 0.72227 0.20737 0.0
C1122 C 0.62082 0.73581 0.21834 0.0
C1123 C 0.63057 0.75004 0.20029 0.0
N1124 N 0.64253 0.78866 0.16365 0.0
C1125 C 0.65051 0.78949 0.18644 0.0
C1126 C 0.66037 0.81296 0.19092 0.0
C1127 C 0.65804 0.82724 0.17018 0.0
C1128 C 0.64708 0.81174 0.15417 0.0
N1129 N 0.63507 0.77433 0.11477 0.0
C1130 C 0.64064 0.79874 0.11009 0.0
C1131 C 0.64639 0.80231 0.0864 0.0
C1132 C 0.64428 0.77872 0.07565 0.0
C1133 C 0.63703 0.76196 0.09336 0.0
N1134 N 0.60066 0.78006 0.14738 0.0
C1135 C 0.56039 0.80516 0.15159 0.0
C1136 C 0.57532 0.80487 0.17077 0.0
C1137 C 0.59512 0.79234 0.16834 0.0
C1138 C 0.56646 0.79307 0.12986 0.0
C1139 C 0.58666 0.78076 0.12809 0.0
N1140 N 0.65463 0.74032 0.14734 0.0
C1141 C 0.69324 0.73999 0.15237 0.0
C1142 C 0.69244 0.71499 0.16166 0.0
C1143 C 0.67262 0.70216 0.16137 0.0
C1144 C 0.65395 0.71515 0.15422 0.0
C1145 C 0.67416 0.75217 0.1449 0.0
H1146 H 0.63877 0.70533 0.15609 0.0
H1147 H 0.67503 0.77177 0.13878 0.0
H1148 H 0.60573 0.79204 0.1839 0.0
H1149 H 0.59079 0.77137 0.11133 0.0
C1150 C 0.59408 0.71654 0.16402 0.0
C1151 C 0.63126 0.73479 0.08935 0.0
C1152 C 0.64809 0.76866 0.20411 0.0
C1153 C 0.64526 0.81572 0.12914 0.0
H1154 H 0.60216 0.69121 0.0855 0.0
H1155 H 0.57991 0.68268 0.12579 0.0
H1156 H 0.59387 0.7083 0.21577 0.0
H1157 H 0.6252 0.7353 0.23734 0.0
H1158 H 0.66863 0.81914 0.20722 0.0
H1159 H 0.66471 0.84604 0.16675 0.0
H1160 H 0.65281 0.81953 0.07828 0.0
H1161 H 0.64811 0.77447 0.05703 0.0
H1162 H 0.57147 0.81343 0.18806 0.0
H1163 H 0.55565 0.79295 0.11435 0.0
H1164 H 0.70835 0.75043 0.15188 0.0
H1165 H 0.67124 0.68286 0.1684 0.0
C1166 C 0.23614 0.61709 0.11539 0.0
C1167 C 0.21715 0.62284 0.10305 0.0
C1168 C 0.21976 0.64702 0.09347 0.0
C1169 C 0.2401 0.65478 0.10056 0.0
N1170 N 0.25027 0.63685 0.11385 0.0
Co1171 Co 0.27876 0.64058 0.12993 0.0
N1172 N 0.27715 0.67832 0.12905 0.0
C1173 C 0.26435 0.69216 0.11421 0.0
C1174 C 0.26705 0.71807 0.11745 0.0
C1175 C 0.28262 0.72048 0.13525 0.0
C1176 C 0.28854 0.69582 0.14198 0.0
N1177 N 0.30726 0.64369 0.14605 0.0
C1178 C 0.31597 0.66384 0.15801 0.0
C1179 C 0.33617 0.65745 0.16742 0.0
C1180 C 0.3403 0.63272 0.16042 0.0
C1181 C 0.32242 0.62523 0.14739 0.0
N1182 N 0.28022 0.60287 0.13079 0.0
C1183 C 0.29814 0.58854 0.13302 0.0
C1184 C 0.29362 0.56276 0.134 0.0
C1185 C 0.27149 0.56098 0.13243 0.0
C1186 C 0.26379 0.58585 0.13065 0.0
N1187 N 0.29302 0.64132 0.09816 0.0
C1188 C 0.30933 0.64977 0.05128 0.0
C1189 C 0.31724 0.66346 0.07127 0.0
C1190 C 0.309 0.65896 0.09431 0.0
C1191 C 0.29374 0.63069 0.05561 0.0
C1192 C 0.28592 0.62666 0.07917 0.0
N1193 N 0.26457 0.64101 0.16142 0.0
C1194 C 0.26504 0.63288 0.20433 0.0
C1195 C 0.24709 0.64894 0.20734 0.0
C1196 C 0.23752 0.65984 0.1868 0.0
C1197 C 0.24655 0.65582 0.16417 0.0
C1198 C 0.27335 0.62885 0.1811 0.0
H1199 H 0.2394 0.66572 0.14901 0.0
H1200 H 0.28734 0.61672 0.17916 0.0
H1201 H 0.31494 0.67083 0.10884 0.0
H1202 H 0.27357 0.61236 0.08189 0.0
C1203 C 0.24777 0.68019 0.10071 0.0
C1204 C 0.24097 0.5929 0.12812 0.0
C1205 C 0.30632 0.68961 0.1589 0.0
C1206 C 0.31765 0.60004 0.14017 0.0
H1207 H 0.20277 0.6112 0.10153 0.0
H1208 H 0.20765 0.65825 0.08403 0.0
H1209 H 0.2583 0.7334 0.10855 0.0
H1210 H 0.28904 0.73831 0.14225 0.0
H1211 H 0.34688 0.66934 0.17815 0.0
H1212 H 0.35427 0.62126 0.16519 0.0
H1213 H 0.30488 0.54723 0.13715 0.0
H1214 H 0.26207 0.54352 0.13295 0.0
H1215 H 0.32901 0.6786 0.0691 0.0
H1216 H 0.28733 0.61923 0.04088 0.0
H1217 H 0.27278 0.62391 0.2198 0.0
H1218 H 0.22378 0.67258 0.18832 0.0
C1219 C 0.78824 0.40577 0.12098 0.0
C1220 C 0.80648 0.39875 0.1081 0.0
C1221 C 0.80319 0.37399 0.10026 0.0
C1222 C 0.78332 0.36695 0.10888 0.0
N1223 N 0.77404 0.38599 0.12144 0.0
Co1224 Co 0.74718 0.38336 0.14015 0.0
N1225 N 0.74964 0.3459 0.14258 0.0
C1226 C 0.76104 0.33072 0.12779 0.0
C1227 C 0.75957 0.30532 0.1342 0.0
C1228 C 0.74637 0.30478 0.15413 0.0
C1229 C 0.74057 0.32997 0.15881 0.0
N1230 N 0.72036 0.38129 0.15897 0.0
C1231 C 0.7137 0.3625 0.17395 0.0
C1232 C 0.69399 0.36882 0.18413 0.0
C1233 C 0.6882 0.39231 0.17478 0.0
C1234 C 0.70467 0.39909 0.15954 0.0
N1235 N 0.7449 0.42078 0.13762 0.0
C1236 C 0.72683 0.43479 0.1398 0.0
C1237 C 0.73094 0.46065 0.13813 0.0
C1238 C 0.75292 0.46272 0.13492 0.0
C1239 C 0.76098 0.43796 0.13491 0.0
N1240 N 0.7301 0.37896 0.11009 0.0
C1241 C 0.70559 0.3696 0.06782 0.0
C1242 C 0.70143 0.3564 0.08922 0.0
C1243 C 0.71386 0.36113 0.1099 0.0
C1244 C 0.72238 0.38771 0.06786 0.0
C1245 C 0.73436 0.39228 0.0893 0.0
N1246 N 0.7639 0.38667 0.1702 0.0
C1247 C 0.76558 0.39854 0.21226 0.0
C1248 C 0.78331 0.38223 0.2159 0.0
C1249 C 0.79203 0.36973 0.19584 0.0
C1250 C 0.78208 0.37212 0.17325 0.0
C1251 C 0.75629 0.40078 0.18915 0.0
H1252 H 0.7884 0.36093 0.15856 0.0
H1253 H 0.74226 0.41282 0.18686 0.0
H1254 H 0.7103 0.35003 0.12578 0.0
H1255 H 0.74709 0.40643 0.08911 0.0
C1256 C 0.77607 0.34154 0.11175 0.0
C1257 C 0.78387 0.43099 0.13236 0.0
C1258 C 0.72534 0.33821 0.17752 0.0
C1259 C 0.70814 0.42355 0.14951 0.0
H1260 H 0.82103 0.40954 0.10511 0.0
H1261 H 0.81479 0.36189 0.0912 0.0
H1262 H 0.76788 0.28926 0.12613 0.0
H1263 H 0.74154 0.28787 0.16403 0.0
H1264 H 0.68478 0.35776 0.19698 0.0
H1265 H 0.6742 0.4036 0.1795 0.0
H1266 H 0.71964 0.47621 0.14073 0.0
H1267 H 0.76204 0.48033 0.13343 0.0
H1268 H 0.68865 0.34225 0.08994 0.0
H1269 H 0.72598 0.39845 0.05162 0.0
H1270 H 0.75855 0.40883 0.22728 0.0
H1271 H 0.80562 0.35681 0.19782 0.0
H1272 H 0.23341 0.57736 0.17433 0.0
H1273 H 0.21157 0.5658 0.10048 0.0
H1274 H 0.18551 0.53304 0.1145 0.0
H1275 H 0.2311 0.51125 0.19174 0.0
H1276 H 0.22232 0.51788 0.22212 0.0
H1277 H 0.23838 0.54103 0.20619 0.0
H1278 H 0.20898 0.57552 0.21314 0.0
H1279 H 0.19282 0.55244 0.22907 0.0
H1280 H 0.18161 0.56932 0.20343 0.0
H1281 H 0.16352 0.49905 0.13696 0.0
H1282 H 0.14584 0.47003 0.16507 0.0
H1283 H 0.18282 0.50394 0.22415 0.0
C1284 C 0.22287 0.56816 0.16121 0.0
C1285 C 0.22399 0.57465 0.13641 0.0
C1286 C 0.2104 0.56178 0.11964 0.0
C1287 C 0.19574 0.54294 0.12744 0.0
C1288 C 0.19498 0.537 0.15207 0.0
C1289 C 0.2082 0.54931 0.16869 0.0
C1290 C 0.20463 0.53906 0.19402 0.0
C1291 C 0.22534 0.52656 0.2041 0.0
C1292 C 0.19653 0.56035 0.21091 0.0
C1293 C 0.18719 0.51922 0.18916 0.0
C1294 C 0.18191 0.51822 0.16491 0.0
C1295 C 0.16695 0.50052 0.15615 0.0
C1296 C 0.15649 0.48427 0.17269 0.0
C1297 C 0.16033 0.48599 0.19814 0.0
C1298 C 0.17703 0.50304 0.20584 0.0
H1299 H 0.54099 0.14753 0.22962 0.0
H1300 H 0.58512 0.138 0.16997 0.0
H1301 H 0.55639 0.15133 0.14116 0.0
H1302 H 0.49105 0.1272 0.1972 0.0
H1303 H 0.47481 0.1511 0.21196 0.0
H1304 H 0.49801 0.13777 0.22734 0.0
H1305 H 0.51329 0.18348 0.23375 0.0
H1306 H 0.4903 0.19693 0.21817 0.0
H1307 H 0.51719 0.20401 0.20792 0.0
H1308 H 0.52348 0.16911 0.11914 0.0
H1309 H 0.48889 0.18835 0.10572 0.0
H1310 H 0.46689 0.18828 0.1801 0.0
C1311 C 0.5443 0.14743 0.21041 0.0
C1312 C 0.56509 0.14117 0.2019 0.0
C1313 C 0.56916 0.14227 0.17674 0.0
C1314 C 0.55296 0.14992 0.16028 0.0
C1315 C 0.53277 0.15665 0.16926 0.0
C1316 C 0.52835 0.15535 0.19374 0.0
C1317 C 0.50584 0.16534 0.19886 0.0
C1318 C 0.49159 0.14408 0.20946 0.0
C1319 C 0.50672 0.18883 0.21567 0.0
C1320 C 0.4984 0.17268 0.17355 0.0
C1321 C 0.51409 0.16742 0.15669 0.0
C1322 C 0.51103 0.17316 0.13221 0.0
C1323 C 0.49136 0.18433 0.12476 0.0
C1324 C 0.47494 0.18978 0.14171 0.0
C1325 C 0.47877 0.18392 0.16646 0.0
H1326 H 0.78492 0.45433 0.17674 0.0
H1327 H 0.82022 0.45068 0.1095 0.0
H1328 H 0.84885 0.47777 0.12721 0.0
H1329 H 0.79543 0.52239 0.18439 0.0
H1330 H 0.79646 0.5206 0.21695 0.0
H1331 H 0.78002 0.49832 0.20001 0.0
H1332 H 0.7999 0.46031 0.22055 0.0
H1333 H 0.81639 0.48246 0.23756 0.0
H1334 H 0.82892 0.45841 0.21897 0.0
H1335 H 0.87556 0.50214 0.15468 0.0
H1336 H 0.89428 0.52789 0.18563 0.0
H1337 H 0.83712 0.52593 0.23027 0.0
C1338 C 0.79877 0.45907 0.16577 0.0
C1339 C 0.80105 0.44854 0.14227 0.0
C1340 C 0.81899 0.4562 0.12826 0.0
C1341 C 0.83513 0.47225 0.13801 0.0
C1342 C 0.83264 0.48166 0.16145 0.0
C1343 C 0.81453 0.476 0.17483 0.0
C1344 C 0.81474 0.49048 0.19867 0.0
C1345 C 0.79552 0.50905 0.20008 0.0
C1346 C 0.81501 0.4718 0.22021 0.0
C1347 C 0.83598 0.50486 0.19677 0.0
C1348 C 0.84629 0.49908 0.17542 0.0
C1349 C 0.86714 0.50788 0.17088 0.0
C1350 C 0.87753 0.52328 0.18838 0.0
C1351 C 0.86676 0.53092 0.20973 0.0
C1352 C 0.84567 0.52128 0.21383 0.0
H1353 H 0.54912 0.84883 0.17738 0.0
H1354 H 0.52137 0.78735 0.13427 0.0
H1355 H 0.48487 0.80382 0.1428 0.0
H1356 H 0.50978 0.84799 0.22372 0.0
H1357 H 0.50934 0.88221 0.228 0.0
H1358 H 0.53341 0.86683 0.21715 0.0
H1359 H 0.53327 0.89645 0.17956 0.0
H1360 H 0.50924 0.91202 0.19037 0.0
H1361 H 0.5095 0.89805 0.16054 0.0
H1362 H 0.45115 0.82484 0.15877 0.0
H1363 H 0.42296 0.84955 0.17916 0.0
H1364 H 0.47215 0.89872 0.21121 0.0
C1365 C 0.53541 0.83884 0.1696 0.0
C1366 C 0.53835 0.81669 0.15501 0.0
C1367 C 0.51979 0.80451 0.14512 0.0
C1368 C 0.4989 0.81365 0.15003 0.0
C1369 C 0.49664 0.83517 0.16479 0.0
C1370 C 0.5144 0.84776 0.17427 0.0
C1371 C 0.50746 0.87013 0.19007 0.0
C1372 C 0.51548 0.86657 0.21629 0.0
C1373 C 0.51534 0.89567 0.1795 0.0
C1374 C 0.483 0.86791 0.18834 0.0
C1375 C 0.47716 0.84762 0.17362 0.0
C1376 C 0.45558 0.84106 0.16996 0.0
C1377 C 0.43957 0.85552 0.18155 0.0
C1378 C 0.44494 0.8767 0.19665 0.0
C1379 C 0.46716 0.88282 0.19993 0.0
H1380 H 0.23001 0.47288 0.84703 0.0
H1381 H 0.18235 0.42334 0.88048 0.0
H1382 H 0.15374 0.44634 0.85928 0.0
H1383 H 0.19863 0.53167 0.84742 0.0
H1384 H 0.20784 0.54154 0.81802 0.0
H1385 H 0.22499 0.52215 0.83715 0.0
H1386 H 0.22816 0.4884 0.80299 0.0
H1387 H 0.21107 0.5077 0.78377 0.0
H1388 H 0.20395 0.47486 0.78988 0.0
H1389 H 0.12937 0.47475 0.83369 0.0
H1390 H 0.11255 0.50364 0.80328 0.0
H1391 H 0.17559 0.53411 0.78601 0.0
C1392 C 0.21368 0.46725 0.85101 0.0
C1393 C 0.20901 0.44719 0.86763 0.0
C1394 C 0.18702 0.43957 0.86974 0.0
C1395 C 0.17033 0.45243 0.85732 0.0
C1396 C 0.17559 0.47271 0.84215 0.0
C1397 C 0.19678 0.47985 0.83867 0.0
C1398 C 0.19823 0.50122 0.82007 0.0
C1399 C 0.208 0.52559 0.83134 0.0
C1400 C 0.21111 0.49252 0.79786 0.0
C1401 C 0.17453 0.50501 0.81376 0.0
C1402 C 0.16169 0.48845 0.82678 0.0
C1403 C 0.13928 0.48799 0.8236 0.0
C1404 C 0.1298 0.50464 0.8065 0.0
C1405 C 0.1427 0.52158 0.79285 0.0
C1406 C 0.16533 0.5217 0.79661 0.0
H1407 H 0.53868 0.1523 0.87208 0.0
H1408 H 0.52593 0.23353 0.88103 0.0
H1409 H 0.49079 0.22826 0.86052 0.0
H1410 H 0.51562 0.14573 0.8136 0.0
H1411 H 0.50351 0.11481 0.81859 0.0
H1412 H 0.52729 0.12402 0.83546 0.0
H1413 H 0.50747 0.11573 0.87574 0.0
H1414 H 0.4837 0.10613 0.859 0.0
H1415 H 0.482 0.1313 0.88123 0.0
H1416 H 0.45984 0.216 0.83478 0.0
H1417 H 0.43098 0.19641 0.81083 0.0
H1418 H 0.46053 0.12149 0.82064 0.0
C1419 C 0.52829 0.16886 0.8701 0.0
C1420 C 0.53508 0.19336 0.87844 0.0
C1421 C 0.52102 0.21453 0.87534 0.0
C1422 C 0.50108 0.21178 0.86345 0.0
C1423 C 0.49516 0.18763 0.85494 0.0
C1424 C 0.50803 0.16637 0.85852 0.0
C1425 C 0.49752 0.14266 0.84739 0.0
C1426 C 0.51185 0.13113 0.82758 0.0
C1427 C 0.49237 0.12278 0.86701 0.0
C1428 C 0.47695 0.15412 0.83661 0.0
C1429 C 0.47623 0.18015 0.84108 0.0
C1430 C 0.45982 0.1955 0.83187 0.0
C1431 C 0.44329 0.18398 0.81839 0.0
C1432 C 0.44264 0.15703 0.81458 0.0
C1433 C 0.46013 0.14199 0.82348 0.0
H1434 H 0.80156 0.5649 0.87429 0.0
H1435 H 0.74251 0.55742 0.83163 0.0
H1436 H 0.7603 0.52688 0.80513 0.0
H1437 H 0.8374 0.56184 0.82056 0.0
H1438 H 0.85832 0.54444 0.83642 0.0
H1439 H 0.84115 0.56623 0.85269 0.0
H1440 H 0.83089 0.52958 0.88195 0.0
H1441 H 0.84769 0.50757 0.86548 0.0
H1442 H 0.81954 0.5004 0.86989 0.0
H1443 H 0.78218 0.49401 0.78555 0.0
H1444 H 0.8099 0.46671 0.76777 0.0
H1445 H 0.85754 0.49779 0.81803 0.0
C1446 C 0.79246 0.55741 0.85913 0.0
C1447 C 0.77025 0.56366 0.85566 0.0
C1448 C 0.75925 0.55286 0.83539 0.0
C1449 C 0.76923 0.53532 0.82005 0.0
C1450 C 0.79063 0.52885 0.82452 0.0
C1451 C 0.80245 0.54002 0.84301 0.0
C1452 C 0.82565 0.53 0.84268 0.0
C1453 C 0.84158 0.55193 0.8378 0.0
C1454 C 0.83127 0.51606 0.86642 0.0
C1455 C 0.82468 0.51126 0.82143 0.0
C1456 C 0.80409 0.51079 0.81168 0.0
C1457 C 0.7985 0.49458 0.79269 0.0
C1458 C 0.81449 0.47903 0.78271 0.0
C1459 C 0.83619 0.47989 0.79118 0.0
C1460 C 0.84122 0.49609 0.81119 0.0
H1461 H 0.53581 0.88485 0.78139 0.0
H1462 H 0.58644 0.84058 0.81688 0.0
H1463 H 0.55891 0.81561 0.83819 0.0
H1464 H 0.49741 0.88481 0.83121 0.0
H1465 H 0.47432 0.88088 0.81145 0.0
H1466 H 0.49801 0.89727 0.80079 0.0
H1467 H 0.50029 0.86584 0.76463 0.0
H1468 H 0.47664 0.84936 0.77517 0.0
H1469 H 0.50131 0.83186 0.77033 0.0
H1470 H 0.52566 0.79327 0.85413 0.0
H1471 H 0.48965 0.77481 0.86193 0.0
H1472 H 0.46059 0.8322 0.81505 0.0
C1473 C 0.54127 0.87002 0.79366 0.0
C1474 C 0.56363 0.86521 0.79748 0.0
C1475 C 0.56964 0.84548 0.81395 0.0
C1476 C 0.55404 0.8309 0.82609 0.0
C1477 C 0.53228 0.83597 0.82163 0.0
C1478 C 0.52588 0.85503 0.80577 0.0
C1479 C 0.50145 0.85558 0.8031 0.0
C1480 C 0.49226 0.88116 0.81218 0.0
C1481 C 0.49452 0.85034 0.77674 0.0
C1482 C 0.49516 0.83361 0.81962 0.0
C1483 C 0.51316 0.82273 0.83036 0.0
C1484 C 0.51144 0.80179 0.84593 0.0
C1485 C 0.49085 0.7915 0.85039 0.0
C1486 C 0.47214 0.80195 0.83918 0.0
C1487 C 0.47449 0.82354 0.82381 0.0
H1488 H 0.10455 0.21947 0.52289 0.0
H1489 H 0.1475 0.20657 0.5839 0.0
H1490 H 0.17063 0.17911 0.55846 0.0
H1491 H 0.1101 0.15491 0.49568 0.0
H1492 H 0.10922 0.16729 0.46524 0.0
H1493 H 0.09505 0.18366 0.48902 0.0
H1494 H 0.11554 0.22552 0.47895 0.0
H1495 H 0.12982 0.20929 0.45523 0.0
H1496 H 0.14465 0.22545 0.47895 0.0
H1497 H 0.19137 0.15697 0.52455 0.0
H1498 H 0.20692 0.14127 0.48634 0.0
H1499 H 0.14942 0.16682 0.44772 0.0
C1500 C 0.11874 0.21069 0.53091 0.0
C1501 C 0.12444 0.2155 0.55534 0.0
C1502 C 0.14288 0.20324 0.56526 0.0
C1503 C 0.15613 0.18761 0.55089 0.0
C1504 C 0.15052 0.18399 0.52659 0.0
C1505 C 0.13207 0.19492 0.51679 0.0
C1506 C 0.13012 0.18899 0.48996 0.0
C1507 C 0.10992 0.17274 0.48467 0.0
C1508 C 0.13004 0.21379 0.47489 0.0
C1509 C 0.15063 0.17365 0.48603 0.0
C1510 C 0.16215 0.17083 0.50737 0.0
C1511 C 0.18226 0.15871 0.50783 0.0
C1512 C 0.19093 0.14964 0.48593 0.0
C1513 C 0.17959 0.15265 0.46366 0.0
C1514 C 0.15886 0.16435 0.46412 0.0
H1515 H 0.80732 0.18665 0.53129 0.0
H1516 H 0.84738 0.12109 0.54874 0.0
H1517 H 0.87322 0.13404 0.51693 0.0
H1518 H 0.8171 0.18484 0.46462 0.0
H1519 H 0.81683 0.21926 0.46221 0.0
H1520 H 0.80075 0.20357 0.48485 0.0
H1521 H 0.8193 0.23093 0.51822 0.0
H1522 H 0.83548 0.24655 0.49573 0.0
H1523 H 0.84833 0.23064 0.52097 0.0
H1524 H 0.89727 0.15821 0.48737 0.0
H1525 H 0.91523 0.18842 0.45966 0.0
H1526 H 0.85772 0.23563 0.45821 0.0
C1527 C 0.82129 0.17471 0.52796 0.0
C1528 C 0.82535 0.15276 0.54232 0.0
C1529 C 0.84388 0.13776 0.5377 0.0
C1530 C 0.85866 0.14506 0.51976 0.0
C1531 C 0.85445 0.16714 0.50623 0.0
C1532 C 0.83593 0.18143 0.50975 0.0
C1533 C 0.83539 0.20465 0.49321 0.0
C1534 C 0.81639 0.20297 0.47515 0.0
C1535 C 0.83458 0.22966 0.50792 0.0
C1536 C 0.85681 0.20173 0.48044 0.0
C1537 C 0.86762 0.18003 0.48817 0.0
C1538 C 0.88856 0.17468 0.48047 0.0
C1539 C 0.89856 0.19177 0.46434 0.0
C1540 C 0.8875 0.21369 0.45561 0.0
C1541 C 0.86636 0.21861 0.46394 0.0
H1542 H 0.81381 0.85812 0.47688 0.0
H1543 H 0.76165 0.80497 0.46072 0.0
H1544 H 0.77933 0.77239 0.48593 0.0
H1545 H 0.85663 0.80902 0.47396 0.0
H1546 H 0.87247 0.82335 0.49792 0.0
H1547 H 0.85558 0.84314 0.47888 0.0
H1548 H 0.83659 0.86077 0.51694 0.0
H1549 H 0.85316 0.84068 0.53606 0.0
H1550 H 0.82416 0.83876 0.53774 0.0
H1551 H 0.80077 0.74635 0.51464 0.0
H1552 H 0.82777 0.72517 0.54011 0.0
H1553 H 0.8693 0.79207 0.5348 0.0
C1554 C 0.80636 0.83949 0.47792 0.0
C1555 C 0.78614 0.8344 0.46648 0.0
C1556 C 0.77689 0.80971 0.46935 0.0
C1557 C 0.78684 0.79095 0.48371 0.0
C1558 C 0.8064 0.79672 0.495 0.0
C1559 C 0.8164 0.8201 0.49192 0.0
C1560 C 0.83793 0.82058 0.50563 0.0
C1561 C 0.85677 0.82423 0.48805 0.0
C1562 C 0.83795 0.84144 0.52526 0.0
C1563 C 0.83827 0.79388 0.51688 0.0
C1564 C 0.81965 0.7808 0.51072 0.0
C1565 C 0.81561 0.75625 0.51923 0.0
C1566 C 0.83124 0.74433 0.53378 0.0
C1567 C 0.85115 0.75651 0.53964 0.0
C1568 C 0.85443 0.78198 0.53124 0.0
H1569 H 0.16711 0.75544 0.48505 0.0
H1570 H 0.13449 0.81625 0.44527 0.0
H1571 H 0.15324 0.84793 0.47033 0.0
H1572 H 0.16534 0.78469 0.54398 0.0
H1573 H 0.19181 0.77332 0.55254 0.0
H1574 H 0.17554 0.75524 0.53143 0.0
H1575 H 0.20657 0.75692 0.50033 0.0
H1576 H 0.22283 0.77518 0.52131 0.0
H1577 H 0.2174 0.7875 0.49139 0.0
H1578 H 0.17561 0.87387 0.50083 0.0
H1579 H 0.20025 0.89072 0.5327 0.0
H1580 H 0.21765 0.8132 0.55277 0.0
C1581 C 0.16288 0.77517 0.4819 0.0
C1582 C 0.1474 0.78253 0.46395 0.0
C1583 C 0.14472 0.80925 0.45968 0.0
C1584 C 0.1557 0.82772 0.47374 0.0
C1585 C 0.16983 0.81954 0.49193 0.0
C1586 C 0.17359 0.79384 0.49587 0.0
C1587 C 0.19 0.78992 0.51617 0.0
C1588 C 0.18007 0.7749 0.53728 0.0
C1589 C 0.21041 0.77659 0.50673 0.0
C1590 C 0.19468 0.81746 0.5233 0.0
C1591 C 0.18297 0.83431 0.50902 0.0
C1592 C 0.1847 0.86079 0.51219 0.0
C1593 C 0.19858 0.87021 0.53046 0.0
C1594 C 0.21044 0.85327 0.54554 0.0
C1595 C 0.20859 0.82657 0.54164 0.0
H1596 H 0.65347 0.99985 0.70445 0.0
H1597 H 0.67 0.93333 0.66159 0.0
H1598 H 0.69297 0.96046 0.63552 0.0
H1599 H 0.6541 0.04766 0.65547 0.0
H1600 H 0.66641 0.07194 0.67424 0.0
H1601 H 0.64931 0.04796 0.6876 0.0
H1602 H 0.68022 0.03543 0.7172 0.0
H1603 H 0.69734 0.05936 0.70389 0.0
H1604 H 0.70614 0.02647 0.70529 0.0
H1605 H 0.71637 0.99435 0.61599 0.0
H1606 H 0.73867 0.03202 0.60503 0.0
H1607 H 0.70857 0.07622 0.66178 0.0
C1608 C 0.66187 0.99108 0.6895 0.0
C1609 C 0.66013 0.96442 0.68512 0.0
C1610 C 0.67108 0.9537 0.66517 0.0
C1611 C 0.68419 0.96897 0.65033 0.0
C1612 C 0.6862 0.99502 0.65564 0.0
C1613 C 0.67531 0.00602 0.67475 0.0
C1614 C 0.68138 0.0341 0.67757 0.0
C1615 C 0.66162 0.05144 0.67347 0.0
C1616 C 0.6919 0.03913 0.70246 0.0
C1617 C 0.69759 0.03711 0.65731 0.0
C1618 C 0.69997 0.0144 0.6447 0.0
C1619 C 0.71451 0.01223 0.62565 0.0
C1620 C 0.72711 0.03366 0.61954 0.0
C1621 C 0.72525 0.05688 0.63253 0.0
C1622 C 0.71011 0.05869 0.65145 0.0
H1623 H 0.95487 0.6509 0.65928 0.0
H1624 H 0.96491 0.64033 0.58226 0.0
H1625 H 0.99895 0.61732 0.59122 0.0
H1626 H 0.01015 0.66132 0.6756 0.0
H1627 H 0.00837 0.64437 0.70393 0.0
H1628 H 0.98481 0.65974 0.69132 0.0
H1629 H 0.96412 0.61667 0.69306 0.0
H1630 H 0.98772 0.6011 0.70545 0.0
H1631 H 0.97515 0.58888 0.67825 0.0
H1632 H 0.03245 0.59606 0.60866 0.0
H1633 H 0.06353 0.58053 0.63302 0.0
H1634 H 0.03117 0.6034 0.69873 0.0
C1635 C 0.96405 0.64353 0.64422 0.0
C1636 C 0.95698 0.64744 0.61997 0.0
C1637 C 0.96993 0.63792 0.60094 0.0
C1638 C 0.98923 0.62458 0.60588 0.0
C1639 C 0.99548 0.62079 0.62997 0.0
C1640 C 0.98331 0.63011 0.64882 0.0
C1641 C 0.99388 0.62407 0.6731 0.0
C1642 C 0.99965 0.64885 0.68678 0.0
C1643 C 0.97935 0.60664 0.68836 0.0
C1644 C 0.014 0.60999 0.665 0.0
C1645 C 0.01456 0.60822 0.64002 0.0
C1646 C 0.03203 0.59712 0.62821 0.0
C1647 C 0.04956 0.58822 0.64218 0.0
C1648 C 0.04955 0.59025 0.66776 0.0
C1649 C 0.03133 0.60089 0.67928 0.0
H1650 H 0.37688 0.02587 0.70412 0.0
H1651 H 0.34248 0.09264 0.67799 0.0
H1652 H 0.32087 0.06525 0.65032 0.0
H1653 H 0.37665 0.98969 0.64538 0.0
H1654 H 0.37279 0.9595 0.66057 0.0
H1655 H 0.38749 0.9849 0.67544 0.0
H1656 H 0.36148 0.98214 0.71179 0.0
H1657 H 0.34654 0.957 0.69697 0.0
H1658 H 0.33284 0.98564 0.70665 0.0
H1659 H 0.29954 0.02944 0.6298 0.0
H1660 H 0.28166 0.98922 0.61722 0.0
H1661 H 0.33126 0.94585 0.6553 0.0
C1662 C 0.36528 0.03472 0.69195 0.0
C1663 C 0.36149 0.06137 0.69287 0.0
C1664 C 0.34585 0.07232 0.67718 0.0
C1665 C 0.33345 0.05686 0.66151 0.0
C1666 C 0.33704 0.03046 0.66156 0.0
C1667 C 0.35283 0.01953 0.67613 0.0
C1668 C 0.35247 0.99057 0.67412 0.0
C1669 C 0.37361 0.98058 0.66322 0.0
C1670 C 0.34807 0.97812 0.69885 0.0
C1671 C 0.33361 0.98682 0.65677 0.0
C1672 C 0.32496 0.01001 0.64958 0.0
C1673 C 0.30648 0.01119 0.63495 0.0
C1674 C 0.29646 0.98814 0.62775 0.0
C1675 C 0.30486 0.96406 0.63518 0.0
C1676 C 0.32405 0.96371 0.64944 0.0
H1677 H 0.01321 0.33115 0.62382 0.0
H1678 H 0.05479 0.3342 0.68757 0.0
H1679 H 0.02643 0.35619 0.70997 0.0
H1680 H 0.98623 0.39139 0.63193 0.0
H1681 H 0.95977 0.38002 0.62333 0.0
H1682 H 0.98349 0.36489 0.6112 0.0
H1683 H 0.97062 0.3209 0.62716 0.0
H1684 H 0.94672 0.33584 0.63904 0.0
H1685 H 0.96413 0.31743 0.65873 0.0
H1686 H 0.995 0.38027 0.72534 0.0
H1687 H 0.95928 0.39816 0.73519 0.0
H1688 H 0.9355 0.37656 0.66395 0.0
C1689 C 0.01628 0.33626 0.64252 0.0
C1690 C 0.03679 0.33174 0.65343 0.0
C1691 C 0.03978 0.33841 0.6782 0.0
C1692 C 0.02365 0.35082 0.69128 0.0
C1693 C 0.0041 0.35597 0.67979 0.0
C1694 C 1.0 0.34833 0.65623 0.0
C1695 C 0.97691 0.35517 0.64898 0.0
C1696 C 0.97659 0.37399 0.62759 0.0
C1697 C 0.96382 0.33089 0.64313 0.0
C1698 C 0.96897 0.36797 0.67206 0.0
C1699 C 0.98514 0.36853 0.68939 0.0
C1700 C 0.98212 0.3798 0.71199 0.0
C1701 C 0.96182 0.39017 0.71735 0.0
C1702 C 0.94461 0.38893 0.70037 0.0
C1703 C 0.94836 0.37783 0.67731 0.0
H1704 H 0.71871 0.98431 0.3768 0.0
H1705 H 0.66269 0.94172 0.40019 0.0
H1706 H 0.63883 0.97642 0.38537 0.0
H1707 H 0.69632 0.05033 0.38963 0.0
H1708 H 0.70865 0.06365 0.36303 0.0
H1709 H 0.72146 0.03744 0.37883 0.0
H1710 H 0.72182 0.01124 0.33903 0.0
H1711 H 0.70882 0.03719 0.32321 0.0
H1712 H 0.69682 0.00575 0.32287 0.0
H1713 H 0.62099 0.01156 0.36156 0.0
H1714 H 0.61056 0.04677 0.33404 0.0
H1715 H 0.67767 0.06907 0.32817 0.0
C1716 C 0.70149 0.98294 0.37974 0.0
C1717 C 0.69251 0.96069 0.39023 0.0
C1718 C 0.66984 0.95892 0.39276 0.0
C1719 C 0.65618 0.97847 0.38426 0.0
C1720 C 0.66541 0.99984 0.37331 0.0
C1721 C 0.68757 0.00245 0.37137 0.0
C1722 C 0.69318 0.02644 0.35715 0.0
C1723 C 0.70564 0.0456 0.37312 0.0
C1724 C 0.70591 0.01974 0.33421 0.0
C1725 C 0.67077 0.03642 0.35084 0.0
C1726 C 0.65498 0.0208 0.36035 0.0
C1727 C 0.63316 0.02457 0.35488 0.0
C1728 C 0.62731 0.0449 0.33947 0.0
C1729 C 0.64313 0.06165 0.33009 0.0
C1730 C 0.66514 0.05717 0.33586 0.0
H1731 H 0.97964 0.62069 0.30018 0.0
H1732 H 0.94813 0.59323 0.36485 0.0
H1733 H 0.97903 0.60819 0.38976 0.0
H1734 H 0.03595 0.60629 0.31968 0.0
H1735 H 0.04648 0.63506 0.30614 0.0
H1736 H 0.023 0.6197 0.29321 0.0
H1737 H 1.00172 0.6622 0.29688 0.0
H1738 H 0.02502 0.67759 0.31007 0.0
H1739 H 0.99974 0.67761 0.32597 0.0
H1740 H 0.01211 0.6293 0.40812 0.0
H1741 H 0.04562 0.65289 0.41818 0.0
H1742 H 0.05536 0.66792 0.34178 0.0
C1743 C 0.97964 0.61712 0.31949 0.0
C1744 C 0.96167 0.60534 0.33057 0.0
C1745 C 0.96188 0.60185 0.356 0.0
C1746 C 0.97932 0.61039 0.3703 0.0
C1747 C 0.99653 0.62257 0.35897 0.0
C1748 C 0.99693 0.62577 0.33411 0.0
C1749 C 0.01681 0.6408 0.32669 0.0
C1750 C 0.03143 0.62448 0.31047 0.0
C1751 C 0.01043 0.66604 0.31417 0.0
C1752 C 0.02737 0.64572 0.35121 0.0
C1753 C 0.01543 0.63501 0.36959 0.0
C1754 C 0.02166 0.63762 0.39382 0.0
C1755 C 0.04066 0.65129 0.3994 0.0
C1756 C 0.05336 0.66228 0.38088 0.0
C1757 C 0.04637 0.65943 0.35645 0.0
H1758 H 0.3296 0.96181 0.3244 0.0
H1759 H 0.37175 0.01317 0.28549 0.0
H1760 H 0.35327 0.05049 0.30378 0.0
H1761 H 0.28226 0.99744 0.31853 0.0
H1762 H 0.27209 0.99125 0.34842 0.0
H1763 H 0.28985 0.96853 0.3343 0.0
H1764 H 0.31624 0.97122 0.37079 0.0
H1765 H 0.29838 0.99363 0.38528 0.0
H1766 H 0.32624 1.00203 0.38048 0.0
H1767 H 0.32708 0.08215 0.32237 0.0
H1768 H 0.29757 0.10556 0.34261 0.0
H1769 H 0.27472 0.03419 0.37322 0.0
C1770 C 0.3353 0.98094 0.32038 0.0
C1771 C 0.3522 0.98471 0.30369 0.0
C1772 C 0.359 0.00997 0.29843 0.0
C1773 C 0.34851 0.03124 0.30865 0.0
C1774 C 0.33144 0.02697 0.32448 0.0
C1775 C 0.32518 0.00243 0.33076 0.0
C1776 C 0.30599 0.00319 0.34774 0.0
C1777 C 0.28639 0.98927 0.33657 0.0
C1778 C 0.31208 0.99185 0.37255 0.0
C1779 C 0.30202 0.03188 0.34944 0.0
C1780 C 0.31683 0.04525 0.3358 0.0
C1781 C 0.31562 0.07184 0.33337 0.0
C1782 C 0.29879 0.08501 0.34496 0.0
C1783 C 0.28333 0.07177 0.35898 0.0
C1784 C 0.28548 0.04488 0.36172 0.0
H1785 H 0.04366 0.38961 0.29194 0.0
H1786 H 0.09502 0.37829 0.34505 0.0
H1787 H 0.06881 0.35861 0.37271 0.0
H1788 H 0.99998 0.40138 0.33263 0.0
H1789 H 0.9808 0.38328 0.31484 0.0
H1790 H 0.00317 0.39883 0.30032 0.0
H1791 H 0.01487 0.35548 0.28168 0.0
H1792 H 0.99252 0.33983 0.29609 0.0
H1793 H 0.01963 0.3284 0.30125 0.0
H1794 H 0.03616 0.33887 0.39463 0.0
H1795 H 1.00138 0.32046 0.40751 0.0
H1796 H 0.97368 0.33953 0.3372 0.0
C1797 C 0.04971 0.38291 0.30922 0.0
C1798 C 0.07175 0.38579 0.31599 0.0
C1799 C 0.07831 0.37704 0.3393 0.0
C1800 C 0.06351 0.36553 0.35518 0.0
C1801 C 0.04212 0.36248 0.34754 0.0
C1802 C 0.03535 0.37082 0.325 0.0
C1803 C 0.01189 0.36404 0.32035 0.0
C1804 C 0.99815 0.38833 0.31684 0.0
C1805 C 0.0096 0.34586 0.29856 0.0
C1806 C 0.00644 0.3506 0.34381 0.0
C1807 C 0.02394 0.3501 0.35944 0.0
C1808 C 0.02242 0.33904 0.38238 0.0
C1809 C 0.00254 0.32836 0.38947 0.0
C1810 C 0.98434 0.32842 0.3736 0.0
C1811 C 0.98674 0.33954 0.35032 0.0
H1812 H 0.68824 0.6449 0.98893 0.0
H1813 H 0.66108 0.69892 0.93682 0.0
H1814 H 0.64164 0.72014 0.96889 0.0
H1815 H 0.64386 0.64258 0.03118 0.0
H1816 H 0.66056 0.64426 0.05803 0.0
H1817 H 0.67103 0.63019 0.03074 0.0
H1818 H 0.70328 0.66172 0.03175 0.0
H1819 H 0.69304 0.67565 0.05918 0.0
H1820 H 0.69817 0.69568 0.0333 0.0
H1821 H 0.62284 0.73472 0.00545 0.0
H1822 H 0.61324 0.74918 0.04647 0.0
H1823 H 0.65694 0.69298 0.07753 0.0
C1824 C 0.6782 0.66111 0.98411 0.0
C1825 C 0.6753 0.66862 0.95947 0.0
C1826 C 0.66252 0.69082 0.95475 0.0
C1827 C 0.65148 0.70356 0.97309 0.0
C1828 C 0.65393 0.69501 0.9967 0.0
C1829 C 0.66759 0.675 0.00256 0.0
C1830 C 0.66902 0.67207 0.03004 0.0
C1831 C 0.66062 0.6457 0.03796 0.0
C1832 C 0.69226 0.67655 0.0391 0.0
C1833 C 0.65397 0.69345 0.03835 0.0
C1834 C 0.64505 0.70586 0.0186 0.0
C1835 C 0.63007 0.72557 0.02111 0.0
C1836 C 0.62468 0.73365 0.04446 0.0
C1837 C 0.63483 0.7228 0.06507 0.0
C1838 C 0.64921 0.70188 0.06201 0.0
H1839 H 0.34987 0.66504 0.03592 0.0
H1840 H 0.28456 0.65149 0.00967 0.0
H1841 H 0.29496 0.6674 0.96936 0.0
H1842 H 0.35771 0.72373 0.0051 0.0
H1843 H 0.38576 0.71807 0.99852 0.0
H1844 H 0.37377 0.70361 0.02475 0.0
H1845 H 0.38553 0.65872 0.00985 0.0
H1846 H 0.39766 0.67307 0.98361 0.0
H1847 H 0.37768 0.64822 0.97995 0.0
H1848 H 0.31178 0.68805 0.93246 0.0
H1849 H 0.33422 0.70984 0.90176 0.0
H1850 H 0.38844 0.71036 0.95179 0.0
C1851 C 0.33772 0.66524 0.02171 0.0
C1852 C 0.31632 0.65683 0.02618 0.0
C1853 C 0.30112 0.65732 0.00681 0.0
C1854 C 0.30685 0.66655 0.98382 0.0
C1855 C 0.3279 0.6752 0.98027 0.0
C1856 C 0.34316 0.67443 0.99864 0.0
C1857 C 0.36451 0.68559 0.99034 0.0
C1858 C 0.3708 0.70915 0.00559 0.0
C1859 C 0.3824 0.66518 0.99097 0.0
C1860 C 0.35883 0.69313 0.96452 0.0
C1861 C 0.33762 0.68692 0.95905 0.0
C1862 C 0.32845 0.69275 0.93654 0.0
C1863 C 0.34125 0.70515 0.91923 0.0
C1864 C 0.363 0.71152 0.92442 0.0
C1865 C 0.37189 0.7054 0.94735 0.0
H1866 H 0.29793 0.33681 0.98422 0.0
H1867 H 0.34072 0.39793 0.96233 0.0
H1868 H 0.36704 0.38495 0.99414 0.0
H1869 H 0.31089 0.34074 0.05079 0.0
H1870 H 0.30906 0.30652 0.05448 0.0
H1871 H 0.29268 0.32244 0.03192 0.0
H1872 H 0.30817 0.29252 0.99892 0.0
H1873 H 0.32467 0.27668 0.02132 0.0
H1874 H 0.33701 0.29066 0.99502 0.0
H1875 H 0.39096 0.36087 0.02413 0.0
H1876 H 0.40885 0.33049 0.0521 0.0
H1877 H 0.34939 0.28724 0.05726 0.0
C1878 C 0.31253 0.34794 0.98676 0.0
C1879 C 0.31718 0.36871 0.97121 0.0
C1880 C 0.33671 0.38237 0.97444 0.0
C1881 C 0.35177 0.37501 0.99238 0.0
C1882 C 0.34695 0.35412 0.00716 0.0
C1883 C 0.32758 0.34108 0.00486 0.0
C1884 C 0.32674 0.31858 0.02227 0.0
C1885 C 0.30878 0.3223 0.04097 0.0
C1886 C 0.32399 0.29311 0.00856 0.0
C1887 C 0.3489 0.32046 0.03411 0.0
C1888 C 0.36033 0.34108 0.02521 0.0
C1889 C 0.38185 0.34527 0.03191 0.0
C1890 C 0.39184 0.3281 0.04819 0.0
C1891 C 0.38026 0.30721 0.058 0.0
C1892 C 0.3585 0.30349 0.05071 0.0
H1893 H 0.71605 0.34435 0.02564 0.0
H1894 H 0.66318 0.38132 0.06263 0.0
H1895 H 0.63781 0.36648 0.03076 0.0
H1896 H 0.6956 0.35507 0.9622 0.0
H1897 H 0.70465 0.32399 0.95235 0.0
H1898 H 0.71908 0.34062 0.97608 0.0
H1899 H 0.71439 0.30124 0.00411 0.0
H1900 H 0.6998 0.28472 0.98051 0.0
H1901 H 0.68764 0.2891 0.00972 0.0
H1902 H 0.61744 0.34276 0.99815 0.0
H1903 H 0.60392 0.31325 0.9665 0.0
H1904 H 0.66968 0.29237 0.94919 0.0
C1905 C 0.69926 0.35006 0.02645 0.0
C1906 C 0.6916 0.36452 0.04627 0.0
C1907 C 0.66938 0.37072 0.04733 0.0
C1908 C 0.65486 0.3623 0.02934 0.0
C1909 C 0.66275 0.34758 0.0103 0.0
C1910 C 0.68447 0.34166 0.00859 0.0
C1911 C 0.68839 0.32379 0.98733 0.0
C1912 C 0.70278 0.33665 0.96836 0.0
C1913 C 0.69813 0.2982 0.99595 0.0
C1914 C 0.6655 0.3202 0.97774 0.0
C1915 C 0.65096 0.33421 0.99117 0.0
C1916 C 0.62874 0.33237 0.98701 0.0
C1917 C 0.62117 0.31578 0.96875 0.0
C1918 C 0.63575 0.30145 0.95456 0.0
C1919 C 0.6582 0.3038 0.9592 0.0
H1920 H 0.1899 0.31156 0.25136 0.0
H1921 H 0.12684 0.32011 0.28357 0.0
H1922 H 0.13249 0.27999 0.30671 0.0
H1923 H 0.18925 0.24007 0.24756 0.0
H1924 H 0.21759 0.23768 0.25494 0.0
H1925 H 0.20746 0.26534 0.23895 0.0
H1926 H 0.22404 0.29472 0.272 0.0
H1927 H 0.23385 0.26719 0.28836 0.0
H1928 H 0.21663 0.29007 0.30317 0.0
H1929 H 0.14683 0.24265 0.33006 0.0
H1930 H 0.1671 0.20678 0.34867 0.0
H1931 H 0.2206 0.22096 0.30051 0.0
C1932 C 0.17706 0.30436 0.26266 0.0
C1933 C 0.15778 0.31844 0.26551 0.0
C1934 C 0.14149 0.30915 0.28093 0.0
C1935 C 0.14465 0.28656 0.29422 0.0
C1936 C 0.16414 0.27348 0.2917 0.0
C1937 C 0.17994 0.28173 0.27599 0.0
C1938 C 0.19979 0.26473 0.27755 0.0
C1939 C 0.20375 0.25114 0.25331 0.0
C1940 C 0.21975 0.2801 0.28576 0.0
C1941 C 0.19284 0.24592 0.29689 0.0
C1942 C 0.17225 0.25144 0.30485 0.0
C1943 C 0.16274 0.23777 0.32359 0.0
C1944 C 0.17435 0.21752 0.33407 0.0
C1945 C 0.19508 0.21086 0.32553 0.0
C1946 C 0.20458 0.22547 0.30697 0.0
H1947 H 0.81175 0.18942 0.38836 0.0
H1948 H 0.78761 0.26621 0.40192 0.0
H1949 H 0.75089 0.25186 0.39144 0.0
H1950 H 0.78174 0.17965 0.33598 0.0
H1951 H 0.7766 0.14607 0.34088 0.0
H1952 H 0.80038 0.16071 0.35373 0.0
H1953 H 0.7893 0.14553 0.39649 0.0
H1954 H 0.76554 0.13059 0.38374 0.0
H1955 H 0.76296 0.15366 0.40781 0.0
H1956 H 0.71804 0.23131 0.37436 0.0
H1957 H 0.69076 0.20562 0.35284 0.0
H1958 H 0.73588 0.14211 0.34867 0.0
C1959 C 0.79873 0.20319 0.38948 0.0
C1960 C 0.80272 0.229 0.39612 0.0
C1961 C 0.78508 0.24624 0.39745 0.0
C1962 C 0.76411 0.2383 0.39134 0.0
C1963 C 0.76097 0.21306 0.38394 0.0
C1964 C 0.77774 0.19568 0.38313 0.0
C1965 C 0.77035 0.17034 0.37242 0.0
C1966 C 0.78302 0.16383 0.34939 0.0
C1967 C 0.77214 0.14875 0.39124 0.0
C1968 C 0.74696 0.1765 0.36659 0.0
C1969 C 0.74187 0.20114 0.37374 0.0
C1970 C 0.72168 0.21181 0.36917 0.0
C1971 C 0.70623 0.19694 0.35701 0.0
C1972 C 0.71098 0.17159 0.34943 0.0
C1973 C 0.73168 0.1613 0.35437 0.0
H1974 H 0.85676 0.68087 0.32901 0.0
H1975 H 0.80224 0.64151 0.29648 0.0
H1976 H 0.77712 0.67027 0.31824 0.0
H1977 H 0.83337 0.68947 0.38713 0.0
H1978 H 0.84503 0.72069 0.39213 0.0
H1979 H 0.85862 0.69781 0.3732 0.0
H1980 H 0.85885 0.73035 0.33774 0.0
H1981 H 0.84566 0.75349 0.35672 0.0
H1982 H 0.83382 0.74481 0.32795 0.0
H1983 H 0.75821 0.70347 0.34381 0.0
H1984 H 0.74693 0.74008 0.36904 0.0
H1985 H 0.81409 0.75602 0.38645 0.0
C1986 C 0.83953 0.67883 0.32606 0.0
C1987 C 0.83127 0.65976 0.31049 0.0
C1988 C 0.8087 0.65669 0.30778 0.0
C1989 C 0.7944 0.67271 0.32024 0.0
C1990 C 0.80303 0.69132 0.33563 0.0
C1991 C 0.82508 0.69451 0.33849 0.0
C1992 C 0.83025 0.7157 0.35628 0.0
C1993 C 0.84254 0.70528 0.3785 0.0
C1994 C 0.84288 0.73737 0.34393 0.0
C1995 C 0.80768 0.72414 0.36285 0.0
C1996 C 0.79218 0.70979 0.35087 0.0
C1997 C 0.7702 0.7147 0.35345 0.0
C1998 C 0.76393 0.73536 0.36806 0.0
C1999 C 0.7796 0.75084 0.37988 0.0
C2000 C 0.80171 0.74459 0.37766 0.0
H2001 H 0.27644 0.854 0.30391 0.0
H2002 H 0.30969 0.88544 0.36668 0.0
H2003 H 0.28563 0.86094 0.39355 0.0
H2004 H 0.22236 0.85467 0.33026 0.0
H2005 H 0.21466 0.82519 0.31554 0.0
H2006 H 0.23399 0.84616 0.30157 0.0
H2007 H 0.26122 0.80851 0.29948 0.0
H2008 H 0.24215 0.78758 0.31391 0.0
H2009 H 0.26872 0.79184 0.32687 0.0
H2010 H 0.25925 0.83057 0.4136 0.0
H2011 H 0.22966 0.80086 0.42498 0.0
H2012 H 0.21347 0.7906 0.34914 0.0
C2013 C 0.27832 0.85626 0.32329 0.0
C2014 C 0.29501 0.87158 0.33317 0.0
C2015 C 0.29716 0.87359 0.35869 0.0
C2016 C 0.28359 0.85975 0.37411 0.0
C2017 C 0.26781 0.8441 0.36376 0.0
C2018 C 0.26488 0.84264 0.33894 0.0
C2019 C 0.24682 0.82433 0.33237 0.0
C2020 C 0.22836 0.83843 0.31916 0.0
C2021 C 0.25524 0.80173 0.31727 0.0
C2022 C 0.24011 0.81568 0.35733 0.0
C2023 C 0.25249 0.82708 0.37524 0.0
C2024 C 0.24936 0.82165 0.39973 0.0
C2025 C 0.23272 0.80465 0.40604 0.0
C2026 C 0.21944 0.7936 0.38791 0.0
C2027 C 0.22344 0.79892 0.36331 0.0
H2028 H 0.19367 0.66541 0.70506 0.0
H2029 H 0.1304 0.66209 0.67111 0.0
H2030 H 0.1415 0.69499 0.64148 0.0
H2031 H 0.20123 0.73404 0.69839 0.0
H2032 H 0.22972 0.73131 0.6925 0.0
H2033 H 0.2165 0.7077 0.71091 0.0
H2034 H 0.23042 0.67207 0.68238 0.0
H2035 H 0.24322 0.69567 0.66352 0.0
H2036 H 0.22402 0.67352 0.65052 0.0
H2037 H 0.15921 0.7279 0.61584 0.0
H2038 H 0.18116 0.76284 0.59854 0.0
H2039 H 0.23332 0.74465 0.64844 0.0
C2040 C 0.18214 0.67207 0.69161 0.0
C2041 C 0.16111 0.6618 0.69045 0.0
C2042 C 0.14644 0.67031 0.67242 0.0
C2043 C 0.15268 0.68868 0.65541 0.0
C2044 C 0.17368 0.69816 0.65667 0.0
C2045 C 0.18812 0.69047 0.67448 0.0
C2046 C 0.20955 0.70423 0.67207 0.0
C2047 C 0.21453 0.72028 0.69481 0.0
C2048 C 0.22788 0.68523 0.6668 0.0
C2049 C 0.20478 0.72105 0.6503 0.0
C2050 C 0.18408 0.71697 0.64154 0.0
C2051 C 0.17552 0.73111 0.62234 0.0
C2052 C 0.18811 0.75072 0.6125 0.0
C2053 C 0.20899 0.75589 0.62185 0.0
C2054 C 0.21766 0.74042 0.6405 0.0
H2055 H 0.27269 0.13558 0.66971 0.0
H2056 H 0.31858 0.19843 0.6671 0.0
H2057 H 0.29247 0.2242 0.64401 0.0
H2058 H 0.24809 0.14663 0.60925 0.0
H2059 H 0.22126 0.13904 0.61938 0.0
H2060 H 0.24435 0.12406 0.63355 0.0
H2061 H 0.23184 0.14034 0.67545 0.0
H2062 H 0.2087 0.15525 0.66143 0.0
H2063 H 0.22697 0.17408 0.67975 0.0
H2064 H 0.26079 0.24491 0.62486 0.0
H2065 H 0.22481 0.25974 0.61209 0.0
H2066 H 0.19904 0.18361 0.62533 0.0
C2067 C 0.2773 0.15464 0.66402 0.0
C2068 C 0.29793 0.16468 0.6698 0.0
C2069 C 0.30319 0.1899 0.66227 0.0
C2070 C 0.28842 0.20481 0.64921 0.0
C2071 C 0.26833 0.19437 0.64372 0.0
C2072 C 0.26268 0.1699 0.65085 0.0
C2073 C 0.23943 0.1641 0.64393 0.0
C2074 C 0.23822 0.14215 0.62542 0.0
C2075 C 0.22595 0.1581 0.66648 0.0
C2076 C 0.23283 0.18941 0.63255 0.0
C2077 C 0.24984 0.20646 0.63239 0.0
C2078 C 0.24739 0.2316 0.62442 0.0
C2079 C 0.22685 0.2398 0.61697 0.0
C2080 C 0.20894 0.2229 0.61749 0.0
C2081 C 0.21226 0.19714 0.62478 0.0
H2082 H 0.81253 0.22345 0.66002 0.0
H2083 H 0.7546 0.2101 0.70138 0.0
H2084 H 0.7632 0.24791 0.72711 0.0
H2085 H 0.84622 0.24176 0.71035 0.0
H2086 H 0.86084 0.2656 0.69352 0.0
H2087 H 0.84962 0.23814 0.67817 0.0
H2088 H 0.82849 0.26795 0.64879 0.0
H2089 H 0.83989 0.29546 0.66384 0.0
H2090 H 0.811 0.29227 0.66097 0.0
H2091 H 0.7784 0.28812 0.74774 0.0
H2092 H 0.79814 0.32744 0.76041 0.0
H2093 H 0.84702 0.31213 0.70685 0.0
C2094 C 0.80168 0.22863 0.67448 0.0
C2095 C 0.783 0.21403 0.67896 0.0
C2096 C 0.769 0.22121 0.69784 0.0
C2097 C 0.77383 0.24251 0.71254 0.0
C2098 C 0.79275 0.25622 0.70806 0.0
C2099 C 0.80641 0.24953 0.68943 0.0
C2100 C 0.82577 0.26713 0.68831 0.0
C2101 C 0.84686 0.25226 0.69286 0.0
C2102 C 0.82631 0.28156 0.66404 0.0
C2103 C 0.82087 0.285 0.70909 0.0
C2104 C 0.80176 0.2785 0.72031 0.0
C2105 C 0.79349 0.29317 0.73924 0.0
C2106 C 0.8048 0.31531 0.74643 0.0
C2107 C 0.82416 0.32231 0.73481 0.0
C2108 C 0.83246 0.30671 0.71628 0.0
H2109 H 0.78335 0.75565 0.64795 0.0
H2110 H 0.77454 0.77073 0.57144 0.0
H2111 H 0.74517 0.80147 0.5809 0.0
H2112 H 0.72566 0.76193 0.6654 0.0
H2113 H 0.73281 0.77688 0.69377 0.0
H2114 H 0.75076 0.75386 0.68033 0.0
H2115 H 0.7816 0.78738 0.68215 0.0
H2116 H 0.76364 0.81074 0.69493 0.0
H2117 H 0.77796 0.81796 0.66751 0.0
H2118 H 0.7197 0.83397 0.59945 0.0
H2119 H 0.69736 0.8622 0.62499 0.0
H2120 H 0.72342 0.82558 0.68942 0.0
C2121 C 0.77467 0.76481 0.63319 0.0
C2122 C 0.7808 0.76069 0.60897 0.0
C2123 C 0.76962 0.77333 0.59004 0.0
C2124 C 0.75313 0.79095 0.59531 0.0
C2125 C 0.74808 0.79542 0.61954 0.0
C2126 C 0.75827 0.78233 0.63814 0.0
C2127 C 0.75076 0.79144 0.66268 0.0
C2128 C 0.73931 0.76974 0.67635 0.0
C2129 C 0.76962 0.80253 0.67769 0.0
C2130 C 0.73506 0.81217 0.65508 0.0
C2131 C 0.73368 0.81416 0.63015 0.0
C2132 C 0.72048 0.83233 0.61896 0.0
C2133 C 0.70791 0.84832 0.63362 0.0
C2134 C 0.70867 0.84611 0.6592 0.0
C2135 C 0.7227 0.82801 0.66996 0.0
H2136 H 0.31029 0.14744 0.28055 0.0
H2137 H 0.24577 0.16206 0.2526 0.0
H2138 H 0.26133 0.18159 0.21594 0.0
H2139 H 0.33361 0.20514 0.26144 0.0
H2140 H 0.35929 0.1915 0.25337 0.0
H2141 H 0.34325 0.17664 0.27647 0.0
H2142 H 0.34379 0.13362 0.25307 0.0
H2143 H 0.36017 0.14821 0.23009 0.0
H2144 H 0.33509 0.13285 0.22184 0.0
H2145 H 0.284 0.20278 0.18393 0.0
H2146 H 0.31228 0.22081 0.15737 0.0
H2147 H 0.36183 0.19148 0.20579 0.0
C2148 C 0.29945 0.15442 0.26653 0.0
C2149 C 0.27682 0.15314 0.26934 0.0
C2150 C 0.26315 0.16246 0.25063 0.0
C2151 C 0.27184 0.17378 0.22984 0.0
C2152 C 0.29423 0.17539 0.22796 0.0
C2153 C 0.30786 0.16561 0.24563 0.0
C2154 C 0.33132 0.17021 0.23948 0.0
C2155 C 0.34252 0.18686 0.25885 0.0
C2156 C 0.34329 0.14471 0.2359 0.0
C2157 C 0.32877 0.18458 0.21584 0.0
C2158 C 0.30725 0.18742 0.2095 0.0
C2159 C 0.30089 0.20056 0.18866 0.0
C2160 C 0.31698 0.21084 0.1738 0.0
C2161 C 0.33906 0.20798 0.17995 0.0
C2162 C 0.345 0.1945 0.2011 0.0
H2163 H 0.87226 0.3355 0.31103 0.0
H2164 H 0.81989 0.31086 0.35692 0.0
H2165 H 0.79346 0.33099 0.32874 0.0
H2166 H 0.84885 0.39613 0.29147 0.0
H2167 H 0.85871 0.39318 0.26101 0.0
H2168 H 0.87344 0.37876 0.28577 0.0
H2169 H 0.87154 0.33457 0.26441 0.0
H2170 H 0.85703 0.34891 0.23951 0.0
H2171 H 0.84564 0.32193 0.25525 0.0
H2172 H 0.77285 0.35207 0.29439 0.0
H2173 H 0.75946 0.36953 0.25545 0.0
H2174 H 0.82545 0.37917 0.23147 0.0
C2175 C 0.8552 0.33424 0.31499 0.0
C2176 C 0.84793 0.32128 0.33578 0.0
C2177 C 0.82561 0.32051 0.34084 0.0
C2178 C 0.81057 0.33197 0.32504 0.0
C2179 C 0.81821 0.34423 0.30437 0.0
C2180 C 0.84001 0.34531 0.29928 0.0
C2181 C 0.84399 0.35822 0.27519 0.0
C2182 C 0.85702 0.38305 0.27857 0.0
C2183 C 0.85521 0.33981 0.25755 0.0
C2184 C 0.821 0.36385 0.26728 0.0
C2185 C 0.80638 0.35603 0.28452 0.0
C2186 C 0.78417 0.35849 0.28087 0.0
C2187 C 0.77671 0.36862 0.25878 0.0
C2188 C 0.79142 0.37589 0.24054 0.0
C2189 C 0.81384 0.37387 0.24513 0.0
H2190 H 0.64156 0.80219 0.24097 0.0
H2191 H 0.68194 0.73894 0.21878 0.0
H2192 H 0.70578 0.74606 0.25461 0.0
H2193 H 0.6841 0.84254 0.25798 0.0
H2194 H 0.67034 0.85699 0.28314 0.0
H2195 H 0.65505 0.84464 0.25785 0.0
H2196 H 0.63311 0.81551 0.2866 0.0
H2197 H 0.64809 0.82807 0.31206 0.0
H2198 H 0.64718 0.79401 0.30682 0.0
H2199 H 0.72632 0.76245 0.29206 0.0
H2200 H 0.74098 0.78576 0.32791 0.0
H2201 H 0.68827 0.84002 0.32283 0.0
C2202 C 0.65514 0.78949 0.24409 0.0
C2203 C 0.66003 0.76998 0.22742 0.0
C2204 C 0.67802 0.75387 0.23162 0.0
C2205 C 0.69161 0.75788 0.2518 0.0
C2206 C 0.6869 0.7781 0.26745 0.0
C2207 C 0.66899 0.79354 0.26382 0.0
C2208 C 0.66821 0.8151 0.28206 0.0
C2209 C 0.66951 0.84136 0.2695 0.0
C2210 C 0.64794 0.81303 0.29782 0.0
C2211 C 0.68847 0.80953 0.29656 0.0
C2212 C 0.69901 0.78801 0.28808 0.0
C2213 C 0.71813 0.77925 0.29886 0.0
C2214 C 0.72639 0.79259 0.31906 0.0
C2215 C 0.71557 0.8144 0.32802 0.0
C2216 C 0.69667 0.8232 0.31633 0.0
H2217 H 0.20528 0.64963 0.22313 0.0
H2218 H 0.27106 0.66599 0.24585 0.0
H2219 H 0.25751 0.68438 0.28413 0.0
H2220 H 0.18144 0.70598 0.24595 0.0
H2221 H 0.15694 0.69075 0.25585 0.0
H2222 H 0.17174 0.67752 0.23088 0.0
H2223 H 0.17442 0.63372 0.25281 0.0
H2224 H 0.15922 0.64666 0.27761 0.0
H2225 H 0.1853 0.63238 0.28316 0.0
H2226 H 0.23649 0.70344 0.31879 0.0
H2227 H 0.20974 0.71749 0.34917 0.0
H2228 H 0.15792 0.68777 0.30411 0.0
C2229 C 0.21683 0.65677 0.23634 0.0
C2230 C 0.23922 0.65632 0.23164 0.0
C2231 C 0.25387 0.66582 0.2493 0.0
C2232 C 0.2463 0.67651 0.27095 0.0
C2233 C 0.22407 0.67732 0.27472 0.0
C2234 C 0.20957 0.6673 0.25809 0.0
C2235 C 0.18651 0.67048 0.26647 0.0
C2236 C 0.17339 0.68718 0.24873 0.0
C2237 C 0.17573 0.64425 0.27024 0.0
C2238 C 0.19024 0.68417 0.2903 0.0
C2239 C 0.21202 0.68808 0.29468 0.0
C2240 C 0.21941 0.70044 0.31554 0.0
C2241 C 0.20417 0.70851 0.33257 0.0
C2242 C 0.18187 0.70424 0.32858 0.0
C2243 C 0.17485 0.69196 0.30717 0.0
H2244 H 0.32064 0.77509 0.79129 0.0
H2245 H 0.36547 0.73851 0.74254 0.0
H2246 H 0.33877 0.74084 0.70998 0.0
H2247 H 0.26752 0.76787 0.76023 0.0
H2248 H 0.26169 0.80161 0.76249 0.0
H2249 H 0.27797 0.78613 0.78544 0.0
H2250 H 0.30874 0.81892 0.77852 0.0
H2251 H 0.29241 0.83467 0.75602 0.0
H2252 H 0.31902 0.8234 0.7484 0.0
H2253 H 0.30647 0.74908 0.68178 0.0
H2254 H 0.28462 0.77766 0.65585 0.0
H2255 H 0.27474 0.82792 0.71734 0.0
C2256 C 0.32474 0.76682 0.77396 0.0
C2257 C 0.34458 0.75369 0.7707 0.0
C2258 C 0.3495 0.74489 0.7471 0.0
C2259 C 0.33447 0.74701 0.72801 0.0
C2260 C 0.31529 0.76029 0.73195 0.0
C2261 C 0.31128 0.77171 0.75397 0.0
C2262 C 0.29469 0.793 0.75132 0.0
C2263 C 0.27426 0.78677 0.76573 0.0
C2264 C 0.3043 0.81903 0.75899 0.0
C2265 C 0.29022 0.79188 0.72429 0.0
C2266 C 0.30086 0.77143 0.71399 0.0
C2267 C 0.29847 0.76552 0.68956 0.0
C2268 C 0.28603 0.78193 0.67499 0.0
C2269 C 0.27787 0.80532 0.68428 0.0
C2270 C 0.27961 0.80993 0.70951 0.0
H2271 H 0.18586 0.37476 0.78284 0.0
H2272 H 0.25281 0.36186 0.76392 0.0
H2273 H 0.24114 0.3423 0.72522 0.0
H2274 H 0.16545 0.31675 0.76005 0.0
H2275 H 0.14048 0.32996 0.74861 0.0
H2276 H 0.15402 0.34486 0.77391 0.0
H2277 H 0.15492 0.38813 0.75092 0.0
H2278 H 0.14112 0.37344 0.72565 0.0
H2279 H 0.16654 0.38947 0.72115 0.0
H2280 H 0.222 0.32085 0.6901 0.0
H2281 H 0.19666 0.30166 0.6601 0.0
H2282 H 0.14248 0.32978 0.70139 0.0
C2283 C 0.19805 0.36817 0.77036 0.0
C2284 C 0.22023 0.37002 0.77624 0.0
C2285 C 0.23573 0.36108 0.75953 0.0
C2286 C 0.22926 0.34977 0.7376 0.0
C2287 C 0.20724 0.34778 0.73255 0.0
C2288 C 0.19187 0.35704 0.74831 0.0
C2289 C 0.16924 0.35199 0.73887 0.0
C2290 C 0.15656 0.33487 0.75641 0.0
C2291 C 0.15725 0.37726 0.73384 0.0
C2292 C 0.17425 0.33796 0.71562 0.0
C2293 C 0.19626 0.33569 0.71228 0.0
C2294 C 0.20474 0.32267 0.69246 0.0
C2295 C 0.19032 0.31176 0.67562 0.0
C2296 C 0.16778 0.31391 0.67882 0.0
C2297 C 0.15969 0.32748 0.69887 0.0
H2298 H 0.73229 0.16352 0.74161 0.0
H2299 H 0.68118 0.11773 0.70946 0.0
H2300 H 0.65642 0.13118 0.74198 0.0
H2301 H 0.71711 0.15344 0.80582 0.0
H2302 H 0.72387 0.18589 0.81404 0.0
H2303 H 0.73814 0.17018 0.78995 0.0
H2304 H 0.72802 0.2075 0.76108 0.0
H2305 H 0.71341 0.22309 0.78494 0.0
H2306 H 0.7 0.2158 0.75669 0.0
H2307 H 0.6366 0.15202 0.77595 0.0
H2308 H 0.62332 0.17757 0.81053 0.0
H2309 H 0.6869 0.21086 0.82012 0.0
C2310 C 0.71608 0.15573 0.74195 0.0
C2311 C 0.70861 0.13934 0.72335 0.0
C2312 C 0.68714 0.13013 0.72376 0.0
C2313 C 0.67301 0.1377 0.74209 0.0
C2314 C 0.68062 0.15456 0.75977 0.0
C2315 C 0.7017 0.16331 0.76001 0.0
C2316 C 0.70539 0.18251 0.78022 0.0
C2317 C 0.72212 0.17239 0.7986 0.0
C2318 C 0.7121 0.20877 0.77012 0.0
C2319 C 0.68302 0.18349 0.79105 0.0
C2320 C 0.66902 0.16711 0.77904 0.0
C2321 C 0.64741 0.16488 0.78551 0.0
C2322 C 0.63996 0.17958 0.80494 0.0
C2323 C 0.65403 0.19644 0.81743 0.0
C2324 C 0.67582 0.19835 0.81048 0.0
H2325 H 0.84742 0.66172 0.69672 0.0
H2326 H 0.79659 0.6856 0.64731 0.0
H2327 H 0.76906 0.66949 0.67586 0.0
H2328 H 0.82228 0.60413 0.7172 0.0
H2329 H 0.83141 0.60742 0.74812 0.0
H2330 H 0.84708 0.62088 0.72393 0.0
H2331 H 0.84555 0.66567 0.74412 0.0
H2332 H 0.83031 0.65221 0.76862 0.0
H2333 H 0.81972 0.67914 0.7519 0.0
H2334 H 0.74723 0.65027 0.70984 0.0
H2335 H 0.73266 0.63394 0.74844 0.0
H2336 H 0.79792 0.62283 0.77558 0.0
C2337 C 0.83047 0.66407 0.69225 0.0
C2338 C 0.82396 0.67538 0.67019 0.0
C2339 C 0.80172 0.67734 0.66442 0.0
C2340 C 0.78606 0.66808 0.68039 0.0
C2341 C 0.79297 0.65678 0.70197 0.0
C2342 C 0.81465 0.65502 0.70804 0.0
C2343 C 0.81781 0.6425 0.73253 0.0
C2344 C 0.83039 0.61723 0.7303 0.0
C2345 C 0.829 0.66099 0.75034 0.0
C2346 C 0.79454 0.6377 0.73942 0.0
C2347 C 0.78045 0.64576 0.72144 0.0
C2348 C 0.75812 0.6438 0.724 0.0
C2349 C 0.74998 0.63425 0.74587 0.0
C2350 C 0.76415 0.62699 0.76492 0.0
C2351 C 0.7867 0.62815 0.76129 0.0
H2352 H 0.24416 0.39605 0.17467 0.0
H2353 H 0.19268 0.3398 0.17165 0.0
H2354 H 0.21623 0.31028 0.14914 0.0
H2355 H 0.26541 0.38224 0.11384 0.0
H2356 H 0.29311 0.38685 0.12313 0.0
H2357 H 0.27187 0.40429 0.13796 0.0
H2358 H 0.28472 0.38664 0.17953 0.0
H2359 H 0.30605 0.36935 0.16484 0.0
H2360 H 0.28719 0.35251 0.18371 0.0
H2361 H 0.2461 0.28544 0.13038 0.0
H2362 H 0.28054 0.26681 0.11715 0.0
H2363 H 0.31189 0.3404 0.12847 0.0
C2364 C 0.23791 0.37758 0.16909 0.0
C2365 C 0.21662 0.37019 0.1747 0.0
C2366 C 0.2089 0.34587 0.16722 0.0
C2367 C 0.22212 0.329 0.15442 0.0
C2368 C 0.24296 0.33685 0.14894 0.0
C2369 C 0.25082 0.36059 0.15589 0.0
C2370 C 0.27408 0.36386 0.14827 0.0
C2371 C 0.27624 0.3856 0.12969 0.0
C2372 C 0.28888 0.36834 0.17041 0.0
C2373 C 0.27822 0.33797 0.13676 0.0
C2374 C 0.26003 0.32273 0.13721 0.0
C2375 C 0.26038 0.29733 0.12945 0.0
C2376 C 0.28004 0.28696 0.12172 0.0
C2377 C 0.2991 0.30201 0.1217 0.0
C2378 C 0.29779 0.32815 0.12848 0.0
H2379 H 0.29946 0.68749 0.80173 0.0
H2380 H 0.28495 0.68955 0.87822 0.0
H2381 H 0.25317 0.66144 0.87097 0.0
H2382 H 0.24345 0.68892 0.78055 0.0
H2383 H 0.24872 0.66809 0.75527 0.0
H2384 H 0.26975 0.68866 0.76685 0.0
H2385 H 0.29452 0.64905 0.77261 0.0
H2386 H 0.27339 0.6283 0.76155 0.0
H2387 H 0.28544 0.62262 0.79088 0.0
H2388 H 0.22415 0.6316 0.85533 0.0
H2389 H 0.19707 0.60674 0.83207 0.0
H2390 H 0.23016 0.62526 0.76547 0.0
C2391 C 0.28933 0.68227 0.81683 0.0
C2392 C 0.29434 0.69066 0.84049 0.0
C2393 C 0.28103 0.68346 0.85996 0.0
C2394 C 0.26315 0.66738 0.856 0.0
C2395 C 0.25887 0.65892 0.83246 0.0
C2396 C 0.27136 0.6665 0.81314 0.0
C2397 C 0.26309 0.6552 0.78956 0.0
C2398 C 0.25581 0.67648 0.77203 0.0
C2399 C 0.28013 0.63776 0.77798 0.0
C2400 C 0.24407 0.63984 0.79862 0.0
C2401 C 0.24202 0.64208 0.82344 0.0
C2402 C 0.22553 0.62984 0.83589 0.0
C2403 C 0.21027 0.61573 0.82255 0.0
C2404 C 0.21153 0.61408 0.79698 0.0
C2405 C 0.22898 0.62581 0.78501 0.0
H2406 H 0.3186 0.30728 0.84186 0.0
H2407 H 0.25955 0.32119 0.80144 0.0
H2408 H 0.26974 0.28739 0.77198 0.0
H2409 H 0.35305 0.29489 0.78982 0.0
H2410 H 0.36821 0.27025 0.80528 0.0
H2411 H 0.35659 0.29625 0.82222 0.0
H2412 H 0.33634 0.26371 0.84929 0.0
H2413 H 0.34802 0.23768 0.83256 0.0
H2414 H 0.31911 0.24 0.83532 0.0
H2415 H 0.28569 0.24999 0.74866 0.0
H2416 H 0.30565 0.21178 0.734 0.0
H2417 H 0.35466 0.22396 0.78912 0.0
C2418 C 0.30804 0.30337 0.82657 0.0
C2419 C 0.28851 0.31684 0.82349 0.0
C2420 C 0.27469 0.31103 0.80375 0.0
C2421 C 0.28039 0.29201 0.78699 0.0
C2422 C 0.29996 0.27914 0.79035 0.0
C2423 C 0.31355 0.28463 0.80968 0.0
C2424 C 0.33322 0.26747 0.80988 0.0
C2425 C 0.35399 0.28315 0.8066 0.0
C2426 C 0.33421 0.25126 0.83314 0.0
C2427 C 0.32846 0.25112 0.7879 0.0
C2428 C 0.30926 0.25815 0.77675 0.0
C2429 C 0.30091 0.24462 0.75698 0.0
C2430 C 0.31232 0.2231 0.7487 0.0
C2431 C 0.33181 0.21562 0.76014 0.0
C2432 C 0.34008 0.22996 0.77972 0.0
H2433 H 0.70493 0.29539 0.83194 0.0
H2434 H 0.71064 0.32093 0.9063 0.0
H2435 H 0.73666 0.35446 0.89372 0.0
H2436 H 0.76178 0.30561 0.81622 0.0
H2437 H 0.75511 0.31557 0.78583 0.0
H2438 H 0.73795 0.29322 0.80133 0.0
H2439 H 0.70534 0.32335 0.79361 0.0
H2440 H 0.72253 0.34616 0.77872 0.0
H2441 H 0.7065 0.35601 0.80415 0.0
H2442 H 0.76017 0.38663 0.8724 0.0
H2443 H 0.78428 0.41074 0.84522 0.0
H2444 H 0.7635 0.36351 0.78481 0.0
C2445 C 0.7121 0.30773 0.84558 0.0
C2446 C 0.70611 0.30562 0.87009 0.0
C2447 C 0.71543 0.32213 0.88754 0.0
C2448 C 0.72996 0.34134 0.88048 0.0
C2449 C 0.73498 0.3435 0.85598 0.0
C2450 C 0.72671 0.32676 0.83889 0.0
C2451 C 0.73489 0.33291 0.81379 0.0
C2452 C 0.74823 0.3105 0.80371 0.0
C2453 C 0.71619 0.34003 0.79656 0.0
C2454 C 0.74894 0.3559 0.81936 0.0
C2455 C 0.7486 0.36186 0.84375 0.0
C2456 C 0.76061 0.38208 0.8533 0.0
C2457 C 0.77411 0.39577 0.83772 0.0
C2458 C 0.77558 0.38908 0.81293 0.0
C2459 C 0.76231 0.36941 0.80355 0.0
H2460 H 0.70738 0.70103 0.79046 0.0
H2461 H 0.65462 0.68876 0.84006 0.0
H2462 H 0.6332 0.7221 0.81905 0.0
H2463 H 0.7023 0.76866 0.78965 0.0
H2464 H 0.70953 0.77218 0.7583 0.0
H2465 H 0.71956 0.74536 0.77547 0.0
H2466 H 0.70331 0.71438 0.74344 0.0
H2467 H 0.69299 0.74123 0.72639 0.0
H2468 H 0.67493 0.71623 0.73606 0.0
H2469 H 0.61853 0.75848 0.79486 0.0
H2470 H 0.61322 0.79874 0.77193 0.0
H2471 H 0.67544 0.78848 0.73817 0.0
C2472 C 0.69117 0.70517 0.79652 0.0
C2473 C 0.68229 0.69188 0.81631 0.0
C2474 C 0.66137 0.69829 0.82444 0.0
C2475 C 0.64911 0.71714 0.81262 0.0
C2476 C 0.65813 0.72967 0.79288 0.0
C2477 C 0.67878 0.72421 0.78505 0.0
C2478 C 0.68541 0.74231 0.76498 0.0
C2479 C 0.70537 0.75806 0.77256 0.0
C2480 C 0.68939 0.72765 0.74131 0.0
C2481 C 0.6654 0.75898 0.76303 0.0
C2482 C 0.64974 0.7511 0.77906 0.0
C2483 C 0.63049 0.7646 0.78194 0.0
C2484 C 0.62751 0.78728 0.76874 0.0
C2485 C 0.6437 0.79619 0.75298 0.0
C2486 C 0.66258 0.7815 0.74957 0.0
H2487 H 0.7086 0.66591 0.1574 0.0
H2488 H 0.71837 0.73783 0.19534 0.0
H2489 H 0.74707 0.71788 0.22019 0.0
H2490 H 0.7174 0.62408 0.20821 0.0
H2491 H 0.73189 0.60019 0.19129 0.0
H2492 H 0.7119 0.61985 0.17636 0.0
H2493 H 0.7402 0.63461 0.14508 0.0
H2494 H 0.76017 0.61467 0.15966 0.0
H2495 H 0.7653 0.64837 0.15556 0.0
H2496 H 0.77403 0.69034 0.24143 0.0
H2497 H 0.801 0.65822 0.2544 0.0
H2498 H 0.77497 0.60397 0.20249 0.0
C2499 C 0.71691 0.67745 0.17085 0.0
C2500 C 0.7113 0.70346 0.17441 0.0
C2501 C 0.72258 0.718 0.19209 0.0
C2502 C 0.73875 0.70676 0.20647 0.0
C2503 C 0.74363 0.681 0.20281 0.0
C2504 C 0.73335 0.6666 0.18517 0.0
C2505 C 0.74236 0.63955 0.18441 0.0
C2506 C 0.72484 0.61975 0.19043 0.0
C2507 C 0.75262 0.63398 0.15971 0.0
C2508 C 0.75932 0.64102 0.20437 0.0
C2509 C 0.7595 0.66505 0.21493 0.0
C2510 C 0.77393 0.67141 0.23343 0.0
C2511 C 0.789 0.65299 0.24089 0.0
C2512 C 0.78955 0.62852 0.22993 0.0
C2513 C 0.77441 0.62233 0.21158 0.0
H2514 H 0.32798 0.80416 0.25215 0.0
H2515 H 0.3888 0.81636 0.21593 0.0
H2516 H 0.38244 0.77762 0.19107 0.0
H2517 H 0.32897 0.73192 0.25067 0.0
H2518 H 0.30029 0.73026 0.24505 0.0
H2519 H 0.3114 0.75628 0.26262 0.0
H2520 H 0.29316 0.78862 0.23339 0.0
H2521 H 0.28242 0.7628 0.21536 0.0
H2522 H 0.29893 0.78706 0.2015 0.0
H2523 H 0.36688 0.74235 0.16596 0.0
H2524 H 0.34524 0.70877 0.14548 0.0
H2525 H 0.29457 0.71835 0.19823 0.0
C2526 C 0.34033 0.79786 0.23974 0.0
C2527 C 0.35911 0.81269 0.23621 0.0
C2528 C 0.37462 0.80475 0.21919 0.0
C2529 C 0.37102 0.78295 0.20489 0.0
C2530 C 0.35188 0.76932 0.20799 0.0
C2531 C 0.33695 0.77612 0.22531 0.0
C2532 C 0.31697 0.75935 0.22366 0.0
C2533 C 0.31426 0.7435 0.24688 0.0
C2534 C 0.29668 0.77542 0.21815 0.0
C2535 C 0.32278 0.74247 0.20236 0.0
C2536 C 0.34298 0.74861 0.1936 0.0
C2537 C 0.35131 0.73691 0.17303 0.0
C2538 C 0.33892 0.71799 0.16149 0.0
C2539 C 0.3186 0.7107 0.17073 0.0
C2540 C 0.31028 0.72334 0.19119 0.0
H2541 H 0.68801 0.31063 0.17762 0.0
H2542 H 0.74722 0.32338 0.21809 0.0
H2543 H 0.73619 0.29045 0.248 0.0
H2544 H 0.65294 0.2994 0.22983 0.0
H2545 H 0.63758 0.27494 0.21438 0.0
H2546 H 0.64958 0.30067 0.19741 0.0
H2547 H 0.66953 0.26765 0.17058 0.0
H2548 H 0.65753 0.24189 0.18737 0.0
H2549 H 0.68647 0.24377 0.18473 0.0
H2550 H 0.71969 0.25365 0.27147 0.0
H2551 H 0.6994 0.2157 0.28607 0.0
H2552 H 0.65064 0.22834 0.23075 0.0
C2553 C 0.69837 0.30676 0.19309 0.0
C2554 C 0.71822 0.31964 0.19602 0.0
C2555 C 0.73182 0.31376 0.21592 0.0
C2556 C 0.72565 0.29522 0.23294 0.0
C2557 C 0.70585 0.28285 0.22965 0.0
C2558 C 0.69241 0.28845 0.21022 0.0
C2559 C 0.67256 0.27158 0.20999 0.0
C2560 C 0.65195 0.28761 0.21309 0.0
C2561 C 0.67147 0.25526 0.1868 0.0
C2562 C 0.67704 0.25525 0.23207 0.0
C2563 C 0.69625 0.26209 0.2433 0.0
C2564 C 0.70443 0.24846 0.26311 0.0
C2565 C 0.69285 0.22708 0.27134 0.0
C2566 C 0.67335 0.21978 0.25982 0.0
C2567 C 0.66522 0.23421 0.24022 0.0
loop_
_geom_bond_atom_site_label_1
_geom_bond_atom_site_label_2
_geom_bond_distance
_geom_bond_site_symmetry_2
_ccdc_geom_bond_type
C0 C1 1.443 . S
C0 N4 1.376 . S
C0 C38 1.389 . S
C1 C0 1.443 . S
C1 C2 1.340 . S
C1 H41 0.951 . S
C2 C1 1.340 . S
C2 C3 1.439 . S
C2 H42 0.950 . S
C3 C2 1.439 . S
C3 N4 1.374 . S
C3 C37 1.395 . S
N4 C0 1.376 . S
N4 C3 1.374 . S
N4 Co5 2.008 . S
Co5 N4 2.008 . S
Co5 N6 1.995 . S
Co5 N11 2.008 . S
Co5 N16 1.995 . S
Co5 N21 2.282 . S
Co5 N27 2.282 . S
N6 Co5 1.995 . S
N6 C7 1.376 . S
N6 C10 1.383 . S
C7 N6 1.376 . S
C7 C8 1.446 . S
C7 C37 1.391 . S
C8 C7 1.446 . S
C8 C9 1.339 . S
C8 H43 0.949 . S
C9 C8 1.339 . S
C9 C10 1.439 . S
C9 H44 0.950 . S
C10 N6 1.383 . S
C10 C9 1.439 . S
C10 C39 1.392 . S
N11 Co5 2.008 . S
N11 C12 1.376 . S
N11 C15 1.374 . S
C12 N11 1.376 . S
C12 C13 1.443 . S
C12 C39 1.389 . S
C13 C12 1.443 . S
C13 C14 1.340 . S
C13 H45 0.951 . S
C14 C13 1.340 . S
C14 C15 1.439 . S
C14 H46 0.950 . S
C15 N11 1.374 . S
C15 C14 1.439 . S
C15 C40 1.395 . S
N16 Co5 1.995 . S
N16 C17 1.376 . S
N16 C20 1.383 . S
C17 N16 1.376 . S
C17 C18 1.446 . S
C17 C40 1.391 . S
C18 C17 1.446 . S
C18 C19 1.339 . S
C18 H47 0.949 . S
C19 C18 1.339 . S
C19 C20 1.439 . S
C19 H48 0.950 . S
C20 N16 1.383 . S
C20 C19 1.439 . S
C20 C38 1.392 . S
N21 Co5 2.282 . S
N21 C24 1.332 . S
N21 C26 1.332 . S
C22 C23 1.386 . S
C22 C25 1.388 . S
C23 C22 1.386 . S
C23 C24 1.382 . S
C23 H49 0.950 . S
C24 N21 1.332 . S
C24 C23 1.382 . S
C24 H35 0.952 . S
C25 C22 1.388 . S
C25 C26 1.382 . S
C25 H50 0.950 . S
C26 N21 1.332 . S
C26 C25 1.382 . S
C26 H36 0.948 . S
N27 Co5 2.282 . S
N27 C31 1.332 . S
N27 C32 1.332 . S
C28 C29 1.388 . S
C28 C32 1.382 . S
C28 H51 0.950 . S
C29 C28 1.388 . S
C29 C30 1.386 . S
C30 C29 1.386 . S
C30 C31 1.382 . S
C30 H52 0.950 . S
C31 N27 1.332 . S
C31 C30 1.382 . S
C31 H33 0.952 . S
C32 N27 1.332 . S
C32 C28 1.382 . S
C32 H34 0.948 . S
H33 C31 0.952 . S
H34 C32 0.948 . S
H35 C24 0.952 . S
H36 C26 0.948 . S
C37 C3 1.395 . S
C37 C7 1.391 . S
C38 C0 1.389 . S
C38 C20 1.392 . S
C39 C10 1.392 . S
C39 C12 1.389 . S
C40 C15 1.395 . S
C40 C17 1.391 . S
H41 C1 0.951 . S
H42 C2 0.950 . S
H43 C8 0.949 . S
H44 C9 0.950 . S
H45 C13 0.951 . S
H46 C14 0.950 . S
H47 C18 0.949 . S
H48 C19 0.950 . S
H49 C23 0.950 . S
H50 C25 0.950 . S
H51 C28 0.950 . S
H52 C30 0.950 . S
C53 C54 1.443 . S
C53 N57 1.376 . S
C53 C91 1.389 . S
C54 C53 1.443 . S
C54 C55 1.340 . S
C54 H94 0.951 . S
C55 C54 1.340 . S
C55 C56 1.439 . S
C55 H95 0.950 . S
C56 C55 1.439 . S
C56 N57 1.374 . S
C56 C90 1.395 . S
N57 C53 1.376 . S
N57 C56 1.374 . S
N57 Co58 2.008 . S
Co58 N57 2.008 . S
Co58 N59 1.995 . S
Co58 N64 2.008 . S
Co58 N69 1.995 . S
Co58 N74 2.282 . S
Co58 N80 2.282 . S
N59 Co58 1.995 . S
N59 C60 1.376 . S
N59 C63 1.383 . S
C60 N59 1.376 . S
C60 C61 1.446 . S
C60 C90 1.391 . S
C61 C60 1.446 . S
C61 C62 1.339 . S
C61 H96 0.949 . S
C62 C61 1.339 . S
C62 C63 1.439 . S
C62 H97 0.950 . S
C63 N59 1.383 . S
C63 C62 1.439 . S
C63 C92 1.392 . S
N64 Co58 2.008 . S
N64 C65 1.376 . S
N64 C68 1.374 . S
C65 N64 1.376 . S
C65 C66 1.443 . S
C65 C92 1.389 . S
C66 C65 1.443 . S
C66 C67 1.340 . S
C66 H98 0.951 . S
C67 C66 1.340 . S
C67 C68 1.439 . S
C67 H99 0.950 . S
C68 N64 1.374 . S
C68 C67 1.439 . S
C68 C93 1.395 . S
N69 Co58 1.995 . S
N69 C70 1.376 . S
N69 C73 1.383 . S
C70 N69 1.376 . S
C70 C71 1.446 . S
C70 C93 1.391 . S
C71 C70 1.446 . S
C71 C72 1.339 . S
C71 H100 0.949 . S
C72 C71 1.339 . S
C72 C73 1.439 . S
C72 H101 0.950 . S
C73 N69 1.383 . S
C73 C72 1.439 . S
C73 C91 1.392 . S
N74 Co58 2.282 . S
N74 C77 1.332 . S
N74 C79 1.332 . S
C75 C76 1.386 . S
C75 C78 1.388 . S
C76 C75 1.386 . S
C76 C77 1.382 . S
C76 H102 0.950 . S
C77 N74 1.332 . S
C77 C76 1.382 . S
C77 H88 0.952 . S
C78 C75 1.388 . S
C78 C79 1.382 . S
C78 H103 0.950 . S
C79 N74 1.332 . S
C79 C78 1.382 . S
C79 H89 0.948 . S
N80 Co58 2.282 . S
N80 C84 1.332 . S
N80 C85 1.332 . S
C81 C82 1.388 . S
C81 C85 1.382 . S
C81 H104 0.950 . S
C82 C81 1.388 . S
C82 C83 1.386 . S
C83 C82 1.386 . S
C83 C84 1.382 . S
C83 H105 0.950 . S
C84 N80 1.332 . S
C84 C83 1.382 . S
C84 H86 0.952 . S
C85 N80 1.332 . S
C85 C81 1.382 . S
C85 H87 0.948 . S
H86 C84 0.952 . S
H87 C85 0.948 . S
H88 C77 0.952 . S
H89 C79 0.948 . S
C90 C56 1.395 . S
C90 C60 1.391 . S
C91 C53 1.389 . S
C91 C73 1.392 . S
C92 C63 1.392 . S
C92 C65 1.389 . S
C93 C68 1.395 . S
C93 C70 1.391 . S
H94 C54 0.951 . S
H95 C55 0.950 . S
H96 C61 0.949 . S
H97 C62 0.950 . S
H98 C66 0.951 . S
H99 C67 0.950 . S
H100 C71 0.949 . S
H101 C72 0.950 . S
H102 C76 0.950 . S
H103 C78 0.950 . S
H104 C81 0.950 . S
H105 C83 0.950 . S
C106 C107 1.443 . S
C106 N110 1.376 . S
C106 C144 1.389 . S
C107 C106 1.443 . S
C107 C108 1.340 . S
C107 H147 0.951 . S
C108 C107 1.340 . S
C108 C109 1.439 . S
C108 H148 0.950 . S
C109 C108 1.439 . S
C109 N110 1.374 . S
C109 C143 1.395 . S
N110 C106 1.376 . S
N110 C109 1.374 . S
N110 Co111 2.008 . S
Co111 N110 2.008 . S
Co111 N112 1.995 . S
Co111 N117 2.008 . S
Co111 N122 1.995 . S
Co111 N127 2.282 . S
Co111 N133 2.282 . S
N112 Co111 1.995 . S
N112 C113 1.376 . S
N112 C116 1.383 . S
C113 N112 1.376 . S
C113 C114 1.446 . S
C113 C143 1.391 . S
C114 C113 1.446 . S
C114 C115 1.339 . S
C114 H149 0.949 . S
C115 C114 1.339 . S
C115 C116 1.439 . S
C115 H150 0.950 . S
C116 N112 1.383 . S
C116 C115 1.439 . S
C116 C145 1.392 . S
N117 Co111 2.008 . S
N117 C118 1.376 . S
N117 C121 1.374 . S
C118 N117 1.376 . S
C118 C119 1.443 . S
C118 C145 1.389 . S
C119 C118 1.443 . S
C119 C120 1.340 . S
C119 H151 0.951 . S
C120 C119 1.340 . S
C120 C121 1.439 . S
C120 H152 0.950 . S
C121 N117 1.374 . S
C121 C120 1.439 . S
C121 C146 1.395 . S
N122 Co111 1.995 . S
N122 C123 1.376 . S
N122 C126 1.383 . S
C123 N122 1.376 . S
C123 C124 1.446 . S
C123 C146 1.391 . S
C124 C123 1.446 . S
C124 C125 1.339 . S
C124 H153 0.949 . S
C125 C124 1.339 . S
C125 C126 1.439 . S
C125 H154 0.950 . S
C126 N122 1.383 . S
C126 C125 1.439 . S
C126 C144 1.392 . S
N127 Co111 2.282 . S
N127 C130 1.332 . S
N127 C132 1.332 . S
C128 C129 1.386 . S
C128 C131 1.388 . S
C129 C128 1.386 . S
C129 C130 1.382 . S
C129 H155 0.950 . S
C130 N127 1.332 . S
C130 C129 1.382 . S
C130 H141 0.952 . S
C131 C128 1.388 . S
C131 C132 1.382 . S
C131 H156 0.950 . S
C132 N127 1.332 . S
C132 C131 1.382 . S
C132 H142 0.948 . S
N133 Co111 2.282 . S
N133 C137 1.332 . S
N133 C138 1.332 . S
C134 C135 1.388 . S
C134 C138 1.382 . S
C134 H157 0.950 . S
C135 C134 1.388 . S
C135 C136 1.386 . S
C136 C135 1.386 . S
C136 C137 1.382 . S
C136 H158 0.950 . S
C137 N133 1.332 . S
C137 C136 1.382 . S
C137 H139 0.952 . S
C138 N133 1.332 . S
C138 C134 1.382 . S
C138 H140 0.948 . S
H139 C137 0.952 . S
H140 C138 0.948 . S
H141 C130 0.952 . S
H142 C132 0.948 . S
C143 C109 1.395 . S
C143 C113 1.391 . S
C144 C106 1.389 . S
C144 C126 1.392 . S
C145 C116 1.392 . S
C145 C118 1.389 . S
C146 C121 1.395 . S
C146 C123 1.391 . S
H147 C107 0.951 . S
H148 C108 0.950 . S
H149 C114 0.949 . S
H150 C115 0.950 . S
H151 C119 0.951 . S
H152 C120 0.950 . S
H153 C124 0.949 . S
H154 C125 0.950 . S
H155 C129 0.950 . S
H156 C131 0.950 . S
H157 C134 0.950 . S
H158 C136 0.950 . S
C159 C160 1.443 . S
C159 N163 1.376 . S
C159 C197 1.389 . S
C160 C159 1.443 . S
C160 C161 1.340 . S
C160 H200 0.951 . S
C161 C160 1.340 . S
C161 C162 1.439 . S
C161 H201 0.950 . S
C162 C161 1.439 . S
C162 N163 1.374 . S
C162 C196 1.395 . S
N163 C159 1.376 . S
N163 C162 1.374 . S
N163 Co164 2.008 . S
Co164 N163 2.008 . S
Co164 N165 1.995 . S
Co164 N170 2.008 . S
Co164 N175 1.995 . S
Co164 N180 2.282 . S
Co164 N186 2.282 . S
N165 Co164 1.995 . S
N165 C166 1.376 . S
N165 C169 1.383 . S
C166 N165 1.376 . S
C166 C167 1.446 . S
C166 C196 1.391 . S
C167 C166 1.446 . S
C167 C168 1.339 . S
C167 H202 0.949 . S
C168 C167 1.339 . S
C168 C169 1.439 . S
C168 H203 0.950 . S
C169 N165 1.383 . S
C169 C168 1.439 . S
C169 C198 1.392 . S
N170 Co164 2.008 . S
N170 C171 1.376 . S
N170 C174 1.374 . S
C171 N170 1.376 . S
C171 C172 1.443 . S
C171 C198 1.389 . S
C172 C171 1.443 . S
C172 C173 1.340 . S
C172 H204 0.951 . S
C173 C172 1.340 . S
C173 C174 1.439 . S
C173 H205 0.950 . S
C174 N170 1.374 . S
C174 C173 1.439 . S
C174 C199 1.395 . S
N175 Co164 1.995 . S
N175 C176 1.376 . S
N175 C179 1.383 . S
C176 N175 1.376 . S
C176 C177 1.446 . S
C176 C199 1.391 . S
C177 C176 1.446 . S
C177 C178 1.339 . S
C177 H206 0.949 . S
C178 C177 1.339 . S
C178 C179 1.439 . S
C178 H207 0.950 . S
C179 N175 1.383 . S
C179 C178 1.439 . S
C179 C197 1.392 . S
N180 Co164 2.282 . S
N180 C183 1.332 . S
N180 C185 1.332 . S
C181 C182 1.386 . S
C181 C184 1.388 . S
C182 C181 1.386 . S
C182 C183 1.382 . S
C182 H208 0.950 . S
C183 N180 1.332 . S
C183 C182 1.382 . S
C183 H194 0.952 . S
C184 C181 1.388 . S
C184 C185 1.382 . S
C184 H209 0.950 . S
C185 N180 1.332 . S
C185 C184 1.382 . S
C185 H195 0.948 . S
N186 Co164 2.282 . S
N186 C190 1.332 . S
N186 C191 1.332 . S
C187 C188 1.388 . S
C187 C191 1.382 . S
C187 H210 0.950 . S
C188 C187 1.388 . S
C188 C189 1.386 . S
C189 C188 1.386 . S
C189 C190 1.382 . S
C189 H211 0.950 . S
C190 N186 1.332 . S
C190 C189 1.382 . S
C190 H192 0.952 . S
C191 N186 1.332 . S
C191 C187 1.382 . S
C191 H193 0.948 . S
H192 C190 0.952 . S
H193 C191 0.948 . S
H194 C183 0.952 . S
H195 C185 0.948 . S
C196 C162 1.395 . S
C196 C166 1.391 . S
C197 C159 1.389 . S
C197 C179 1.392 . S
C198 C169 1.392 . S
C198 C171 1.389 . S
C199 C174 1.395 . S
C199 C176 1.391 . S
H200 C160 0.951 . S
H201 C161 0.950 . S
H202 C167 0.949 . S
H203 C168 0.950 . S
H204 C172 0.951 . S
H205 C173 0.950 . S
H206 C177 0.949 . S
H207 C178 0.950 . S
H208 C182 0.950 . S
H209 C184 0.950 . S
H210 C187 0.950 . S
H211 C189 0.950 . S
C212 C213 1.443 . S
C212 N216 1.376 . S
C212 C250 1.389 . S
C213 C212 1.443 . S
C213 C214 1.340 . S
C213 H253 0.951 . S
C214 C213 1.340 . S
C214 C215 1.439 . S
C214 H254 0.950 . S
C215 C214 1.439 . S
C215 N216 1.374 . S
C215 C249 1.395 . S
N216 C212 1.376 . S
N216 C215 1.374 . S
N216 Co217 2.008 . S
Co217 N216 2.008 . S
Co217 N218 1.995 . S
Co217 N223 2.008 . S
Co217 N228 1.995 . S
Co217 N233 2.282 . S
Co217 N239 2.282 . S
N218 Co217 1.995 . S
N218 C219 1.376 . S
N218 C222 1.383 . S
C219 N218 1.376 . S
C219 C220 1.446 . S
C219 C249 1.391 . S
C220 C219 1.446 . S
C220 C221 1.339 . S
C220 H255 0.949 . S
C221 C220 1.339 . S
C221 C222 1.439 . S
C221 H256 0.950 . S
C222 N218 1.383 . S
C222 C221 1.439 . S
C222 C251 1.392 . S
N223 Co217 2.008 . S
N223 C224 1.376 . S
N223 C227 1.374 . S
C224 N223 1.376 . S
C224 C225 1.443 . S
C224 C251 1.389 . S
C225 C224 1.443 . S
C225 C226 1.340 . S
C225 H257 0.951 . S
C226 C225 1.340 . S
C226 C227 1.439 . S
C226 H258 0.950 . S
C227 N223 1.374 . S
C227 C226 1.439 . S
C227 C252 1.395 . S
N228 Co217 1.995 . S
N228 C229 1.376 . S
N228 C232 1.383 . S
C229 N228 1.376 . S
C229 C230 1.446 . S
C229 C252 1.391 . S
C230 C229 1.446 . S
C230 C231 1.339 . S
C230 H259 0.949 . S
C231 C230 1.339 . S
C231 C232 1.439 . S
C231 H260 0.950 . S
C232 N228 1.383 . S
C232 C231 1.439 . S
C232 C250 1.392 . S
N233 Co217 2.282 . S
N233 C236 1.332 . S
N233 C238 1.332 . S
C234 C235 1.386 . S
C234 C237 1.388 . S
C235 C234 1.386 . S
C235 C236 1.382 . S
C235 H261 0.950 . S
C236 N233 1.332 . S
C236 C235 1.382 . S
C236 H247 0.952 . S
C237 C234 1.388 . S
C237 C238 1.382 . S
C237 H262 0.950 . S
C238 N233 1.332 . S
C238 C237 1.382 . S
C238 H248 0.948 . S
N239 Co217 2.282 . S
N239 C243 1.332 . S
N239 C244 1.332 . S
C240 C241 1.388 . S
C240 C244 1.382 . S
C240 H263 0.950 . S
C241 C240 1.388 . S
C241 C242 1.386 . S
C242 C241 1.386 . S
C242 C243 1.382 . S
C242 H264 0.950 . S
C243 N239 1.332 . S
C243 C242 1.382 . S
C243 H245 0.952 . S
C244 N239 1.332 . S
C244 C240 1.382 . S
C244 H246 0.948 . S
H245 C243 0.952 . S
H246 C244 0.948 . S
H247 C236 0.952 . S
H248 C238 0.948 . S
C249 C215 1.395 . S
C249 C219 1.391 . S
C250 C212 1.389 . S
C250 C232 1.392 . S
C251 C222 1.392 . S
C251 C224 1.389 . S
C252 C227 1.395 . S
C252 C229 1.391 . S
H253 C213 0.951 . S
H254 C214 0.950 . S
H255 C220 0.949 . S
H256 C221 0.950 . S
H257 C225 0.951 . S
H258 C226 0.950 . S
H259 C230 0.949 . S
H260 C231 0.950 . S
H261 C235 0.950 . S
H262 C237 0.950 . S
H263 C240 0.950 . S
H264 C242 0.950 . S
C265 C266 1.443 . S
C265 N269 1.376 . S
C265 C303 1.389 . S
C266 C265 1.443 . S
C266 C267 1.340 . S
C266 H306 0.951 . S
C267 C266 1.340 . S
C267 C268 1.439 . S
C267 H307 0.950 . S
C268 C267 1.439 . S
C268 N269 1.374 . S
C268 C302 1.395 . S
N269 C265 1.376 . S
N269 C268 1.374 . S
N269 Co270 2.008 . S
Co270 N269 2.008 . S
Co270 N271 1.995 . S
Co270 N276 2.008 . S
Co270 N281 1.995 . S
Co270 N286 2.282 . S
Co270 N292 2.282 . S
N271 Co270 1.995 . S
N271 C272 1.376 . S
N271 C275 1.383 . S
C272 N271 1.376 . S
C272 C273 1.446 . S
C272 C302 1.391 . S
C273 C272 1.446 . S
C273 C274 1.339 . S
C273 H308 0.949 . S
C274 C273 1.339 . S
C274 C275 1.439 . S
C274 H309 0.950 . S
C275 N271 1.383 . S
C275 C274 1.439 . S
C275 C304 1.392 . S
N276 Co270 2.008 . S
N276 C277 1.376 . S
N276 C280 1.374 . S
C277 N276 1.376 . S
C277 C278 1.443 . S
C277 C304 1.389 . S
C278 C277 1.443 . S
C278 C279 1.340 . S
C278 H310 0.951 . S
C279 C278 1.340 . S
C279 C280 1.439 . S
C279 H311 0.950 . S
C280 N276 1.374 . S
C280 C279 1.439 . S
C280 C305 1.395 . S
N281 Co270 1.995 . S
N281 C282 1.376 . S
N281 C285 1.383 . S
C282 N281 1.376 . S
C282 C283 1.446 . S
C282 C305 1.391 . S
C283 C282 1.446 . S
C283 C284 1.339 . S
C283 H312 0.949 . S
C284 C283 1.339 . S
C284 C285 1.439 . S
C284 H313 0.950 . S
C285 N281 1.383 . S
C285 C284 1.439 . S
C285 C303 1.392 . S
N286 Co270 2.282 . S
N286 C289 1.332 . S
N286 C291 1.332 . S
C287 C288 1.386 . S
C287 C290 1.388 . S
C288 C287 1.386 . S
C288 C289 1.382 . S
C288 H314 0.950 . S
C289 N286 1.332 . S
C289 C288 1.382 . S
C289 H300 0.952 . S
C290 C287 1.388 . S
C290 C291 1.382 . S
C290 H315 0.950 . S
C291 N286 1.332 . S
C291 C290 1.382 . S
C291 H301 0.948 . S
N292 Co270 2.282 . S
N292 C296 1.332 . S
N292 C297 1.332 . S
C293 C294 1.388 . S
C293 C297 1.382 . S
C293 H316 0.950 . S
C294 C293 1.388 . S
C294 C295 1.386 . S
C295 C294 1.386 . S
C295 C296 1.382 . S
C295 H317 0.950 . S
C296 N292 1.332 . S
C296 C295 1.382 . S
C296 H298 0.952 . S
C297 N292 1.332 . S
C297 C293 1.382 . S
C297 H299 0.948 . S
H298 C296 0.952 . S
H299 C297 0.948 . S
H300 C289 0.952 . S
H301 C291 0.948 . S
C302 C268 1.395 . S
C302 C272 1.391 . S
C303 C265 1.389 . S
C303 C285 1.392 . S
C304 C275 1.392 . S
C304 C277 1.389 . S
C305 C280 1.395 . S
C305 C282 1.391 . S
H306 C266 0.951 . S
H307 C267 0.950 . S
H308 C273 0.949 . S
H309 C274 0.950 . S
H310 C278 0.951 . S
H311 C279 0.950 . S
H312 C283 0.949 . S
H313 C284 0.950 . S
H314 C288 0.950 . S
H315 C290 0.950 . S
H316 C293 0.950 . S
H317 C295 0.950 . S
C318 C319 1.443 . S
C318 N322 1.376 . S
C318 C356 1.389 . S
C319 C318 1.443 . S
C319 C320 1.340 . S
C319 H359 0.951 . S
C320 C319 1.340 . S
C320 C321 1.439 . S
C320 H360 0.950 . S
C321 C320 1.439 . S
C321 N322 1.374 . S
C321 C355 1.395 . S
N322 C318 1.376 . S
N322 C321 1.374 . S
N322 Co323 2.008 . S
Co323 N322 2.008 . S
Co323 N324 1.995 . S
Co323 N329 2.008 . S
Co323 N334 1.995 . S
Co323 N339 2.282 . S
Co323 N345 2.282 . S
N324 Co323 1.995 . S
N324 C325 1.376 . S
N324 C328 1.383 . S
C325 N324 1.376 . S
C325 C326 1.446 . S
C325 C355 1.391 . S
C326 C325 1.446 . S
C326 C327 1.339 . S
C326 H361 0.949 . S
C327 C326 1.339 . S
C327 C328 1.439 . S
C327 H362 0.950 . S
C328 N324 1.383 . S
C328 C327 1.439 . S
C328 C357 1.392 . S
N329 Co323 2.008 . S
N329 C330 1.376 . S
N329 C333 1.374 . S
C330 N329 1.376 . S
C330 C331 1.443 . S
C330 C357 1.389 . S
C331 C330 1.443 . S
C331 C332 1.340 . S
C331 H363 0.951 . S
C332 C331 1.340 . S
C332 C333 1.439 . S
C332 H364 0.950 . S
C333 N329 1.374 . S
C333 C332 1.439 . S
C333 C358 1.395 . S
N334 Co323 1.995 . S
N334 C335 1.376 . S
N334 C338 1.383 . S
C335 N334 1.376 . S
C335 C336 1.446 . S
C335 C358 1.391 . S
C336 C335 1.446 . S
C336 C337 1.339 . S
C336 H365 0.949 . S
C337 C336 1.339 . S
C337 C338 1.439 . S
C337 H366 0.950 . S
C338 N334 1.383 . S
C338 C337 1.439 . S
C338 C356 1.392 . S
N339 Co323 2.282 . S
N339 C342 1.332 . S
N339 C344 1.332 . S
C340 C341 1.386 . S
C340 C343 1.388 . S
C341 C340 1.386 . S
C341 C342 1.382 . S
C341 H367 0.950 . S
C342 N339 1.332 . S
C342 C341 1.382 . S
C342 H353 0.952 . S
C343 C340 1.388 . S
C343 C344 1.382 . S
C343 H368 0.950 . S
C344 N339 1.332 . S
C344 C343 1.382 . S
C344 H354 0.948 . S
N345 Co323 2.282 . S
N345 C349 1.332 . S
N345 C350 1.332 . S
C346 C347 1.388 . S
C346 C350 1.382 . S
C346 H369 0.950 . S
C347 C346 1.388 . S
C347 C348 1.386 . S
C348 C347 1.386 . S
C348 C349 1.382 . S
C348 H370 0.950 . S
C349 N345 1.332 . S
C349 C348 1.382 . S
C349 H351 0.952 . S
C350 N345 1.332 . S
C350 C346 1.382 . S
C350 H352 0.948 . S
H351 C349 0.952 . S
H352 C350 0.948 . S
H353 C342 0.952 . S
H354 C344 0.948 . S
C355 C321 1.395 . S
C355 C325 1.391 . S
C356 C318 1.389 . S
C356 C338 1.392 . S
C357 C328 1.392 . S
C357 C330 1.389 . S
C358 C333 1.395 . S
C358 C335 1.391 . S
H359 C319 0.951 . S
H360 C320 0.950 . S
H361 C326 0.949 . S
H362 C327 0.950 . S
H363 C331 0.951 . S
H364 C332 0.950 . S
H365 C336 0.949 . S
H366 C337 0.950 . S
H367 C341 0.950 . S
H368 C343 0.950 . S
H369 C346 0.950 . S
H370 C348 0.950 . S
C371 C372 1.443 . S
C371 N375 1.376 . S
C371 C409 1.389 . S
C372 C371 1.443 . S
C372 C373 1.340 . S
C372 H412 0.951 . S
C373 C372 1.340 . S
C373 C374 1.439 . S
C373 H413 0.950 . S
C374 C373 1.439 . S
C374 N375 1.374 . S
C374 C408 1.395 . S
N375 C371 1.376 . S
N375 C374 1.374 . S
N375 Co376 2.008 . S
Co376 N375 2.008 . S
Co376 N377 1.995 . S
Co376 N382 2.008 . S
Co376 N387 1.995 . S
Co376 N392 2.282 . S
Co376 N398 2.282 . S
N377 Co376 1.995 . S
N377 C378 1.376 . S
N377 C381 1.383 . S
C378 N377 1.376 . S
C378 C379 1.446 . S
C378 C408 1.391 . S
C379 C378 1.446 . S
C379 C380 1.339 . S
C379 H414 0.949 . S
C380 C379 1.339 . S
C380 C381 1.439 . S
C380 H415 0.950 . S
C381 N377 1.383 . S
C381 C380 1.439 . S
C381 C410 1.392 . S
N382 Co376 2.008 . S
N382 C383 1.376 . S
N382 C386 1.374 . S
C383 N382 1.376 . S
C383 C384 1.443 . S
C383 C410 1.389 . S
C384 C383 1.443 . S
C384 C385 1.340 . S
C384 H416 0.951 . S
C385 C384 1.340 . S
C385 C386 1.439 . S
C385 H417 0.950 . S
C386 N382 1.374 . S
C386 C385 1.439 . S
C386 C411 1.395 . S
N387 Co376 1.995 . S
N387 C388 1.376 . S
N387 C391 1.383 . S
C388 N387 1.376 . S
C388 C389 1.446 . S
C388 C411 1.391 . S
C389 C388 1.446 . S
C389 C390 1.339 . S
C389 H418 0.949 . S
C390 C389 1.339 . S
C390 C391 1.439 . S
C390 H419 0.950 . S
C391 N387 1.383 . S
C391 C390 1.439 . S
C391 C409 1.392 . S
N392 Co376 2.282 . S
N392 C395 1.332 . S
N392 C397 1.332 . S
C393 C394 1.386 . S
C393 C396 1.388 . S
C394 C393 1.386 . S
C394 C395 1.382 . S
C394 H420 0.950 . S
C395 N392 1.332 . S
C395 C394 1.382 . S
C395 H406 0.952 . S
C396 C393 1.388 . S
C396 C397 1.382 . S
C396 H421 0.950 . S
C397 N392 1.332 . S
C397 C396 1.382 . S
C397 H407 0.948 . S
N398 Co376 2.282 . S
N398 C402 1.332 . S
N398 C403 1.332 . S
C399 C400 1.388 . S
C399 C403 1.382 . S
C399 H422 0.950 . S
C400 C399 1.388 . S
C400 C401 1.386 . S
C401 C400 1.386 . S
C401 C402 1.382 . S
C401 H423 0.950 . S
C402 N398 1.332 . S
C402 C401 1.382 . S
C402 H404 0.952 . S
C403 N398 1.332 . S
C403 C399 1.382 . S
C403 H405 0.948 . S
H404 C402 0.952 . S
H405 C403 0.948 . S
H406 C395 0.952 . S
H407 C397 0.948 . S
C408 C374 1.395 . S
C408 C378 1.391 . S
C409 C371 1.389 . S
C409 C391 1.392 . S
C410 C381 1.392 . S
C410 C383 1.389 . S
C411 C386 1.395 . S
C411 C388 1.391 . S
H412 C372 0.951 . S
H413 C373 0.950 . S
H414 C379 0.949 . S
H415 C380 0.950 . S
H416 C384 0.951 . S
H417 C385 0.950 . S
H418 C389 0.949 . S
H419 C390 0.950 . S
H420 C394 0.950 . S
H421 C396 0.950 . S
H422 C399 0.950 . S
H423 C401 0.950 . S
C424 C425 1.443 . S
C424 N428 1.376 . S
C424 C462 1.389 . S
C425 C424 1.443 . S
C425 C426 1.340 . S
C425 H465 0.951 . S
C426 C425 1.340 . S
C426 C427 1.439 . S
C426 H466 0.950 . S
C427 C426 1.439 . S
C427 N428 1.374 . S
C427 C461 1.395 . S
N428 C424 1.376 . S
N428 C427 1.374 . S
N428 Co429 2.008 . S
Co429 N428 2.008 . S
Co429 N430 1.995 . S
Co429 N435 2.008 . S
Co429 N440 1.995 . S
Co429 N445 2.282 . S
Co429 N451 2.282 . S
N430 Co429 1.995 . S
N430 C431 1.376 . S
N430 C434 1.383 . S
C431 N430 1.376 . S
C431 C432 1.446 . S
C431 C461 1.391 . S
C432 C431 1.446 . S
C432 C433 1.339 . S
C432 H467 0.949 . S
C433 C432 1.339 . S
C433 C434 1.439 . S
C433 H468 0.950 . S
C434 N430 1.383 . S
C434 C433 1.439 . S
C434 C463 1.392 . S
N435 Co429 2.008 . S
N435 C436 1.376 . S
N435 C439 1.374 . S
C436 N435 1.376 . S
C436 C437 1.443 . S
C436 C463 1.389 . S
C437 C436 1.443 . S
C437 C438 1.340 . S
C437 H469 0.951 . S
C438 C437 1.340 . S
C438 C439 1.439 . S
C438 H470 0.950 . S
C439 N435 1.374 . S
C439 C438 1.439 . S
C439 C464 1.395 . S
N440 Co429 1.995 . S
N440 C441 1.376 . S
N440 C444 1.383 . S
C441 N440 1.376 . S
C441 C442 1.446 . S
C441 C464 1.391 . S
C442 C441 1.446 . S
C442 C443 1.339 . S
C442 H471 0.949 . S
C443 C442 1.339 . S
C443 C444 1.439 . S
C443 H472 0.950 . S
C444 N440 1.383 . S
C444 C443 1.439 . S
C444 C462 1.392 . S
N445 Co429 2.282 . S
N445 C448 1.332 . S
N445 C450 1.332 . S
C446 C447 1.386 . S
C446 C449 1.388 . S
C447 C446 1.386 . S
C447 C448 1.382 . S
C447 H473 0.950 . S
C448 N445 1.332 . S
C448 C447 1.382 . S
C448 H459 0.952 . S
C449 C446 1.388 . S
C449 C450 1.382 . S
C449 H474 0.950 . S
C450 N445 1.332 . S
C450 C449 1.382 . S
C450 H460 0.948 . S
N451 Co429 2.282 . S
N451 C455 1.332 . S
N451 C456 1.332 . S
C452 C453 1.388 . S
C452 C456 1.382 . S
C452 H475 0.950 . S
C453 C452 1.388 . S
C453 C454 1.386 . S
C454 C453 1.386 . S
C454 C455 1.382 . S
C454 H476 0.950 . S
C455 N451 1.332 . S
C455 C454 1.382 . S
C455 H457 0.952 . S
C456 N451 1.332 . S
C456 C452 1.382 . S
C456 H458 0.948 . S
H457 C455 0.952 . S
H458 C456 0.948 . S
H459 C448 0.952 . S
H460 C450 0.948 . S
C461 C427 1.395 . S
C461 C431 1.391 . S
C462 C424 1.389 . S
C462 C444 1.392 . S
C463 C434 1.392 . S
C463 C436 1.389 . S
C464 C439 1.395 . S
C464 C441 1.391 . S
H465 C425 0.951 . S
H466 C426 0.950 . S
H467 C432 0.949 . S
H468 C433 0.950 . S
H469 C437 0.951 . S
H470 C438 0.950 . S
H471 C442 0.949 . S
H472 C443 0.950 . S
H473 C447 0.950 . S
H474 C449 0.950 . S
H475 C452 0.950 . S
H476 C454 0.950 . S
C477 C478 1.443 . S
C477 N481 1.376 . S
C477 C515 1.389 . S
C478 C477 1.443 . S
C478 C479 1.340 . S
C478 H518 0.951 . S
C479 C478 1.340 . S
C479 C480 1.439 . S
C479 H519 0.950 . S
C480 C479 1.439 . S
C480 N481 1.374 . S
C480 C514 1.395 . S
N481 C477 1.376 . S
N481 C480 1.374 . S
N481 Co482 2.008 . S
Co482 N481 2.008 . S
Co482 N483 1.995 . S
Co482 N488 2.008 . S
Co482 N493 1.995 . S
Co482 N498 2.282 . S
Co482 N504 2.282 . S
N483 Co482 1.995 . S
N483 C484 1.376 . S
N483 C487 1.383 . S
C484 N483 1.376 . S
C484 C485 1.446 . S
C484 C514 1.391 . S
C485 C484 1.446 . S
C485 C486 1.339 . S
C485 H520 0.949 . S
C486 C485 1.339 . S
C486 C487 1.439 . S
C486 H521 0.950 . S
C487 N483 1.383 . S
C487 C486 1.439 . S
C487 C516 1.392 . S
N488 Co482 2.008 . S
N488 C489 1.376 . S
N488 C492 1.374 . S
C489 N488 1.376 . S
C489 C490 1.443 . S
C489 C516 1.389 . S
C490 C489 1.443 . S
C490 C491 1.340 . S
C490 H522 0.951 . S
C491 C490 1.340 . S
C491 C492 1.439 . S
C491 H523 0.950 . S
C492 N488 1.374 . S
C492 C491 1.439 . S
C492 C517 1.395 . S
N493 Co482 1.995 . S
N493 C494 1.376 . S
N493 C497 1.383 . S
C494 N493 1.376 . S
C494 C495 1.446 . S
C494 C517 1.391 . S
C495 C494 1.446 . S
C495 C496 1.339 . S
C495 H524 0.949 . S
C496 C495 1.339 . S
C496 C497 1.439 . S
C496 H525 0.950 . S
C497 N493 1.383 . S
C497 C496 1.439 . S
C497 C515 1.392 . S
N498 Co482 2.282 . S
N498 C501 1.332 . S
N498 C503 1.332 . S
C499 C500 1.386 . S
C499 C502 1.388 . S
C500 C499 1.386 . S
C500 C501 1.382 . S
C500 H526 0.950 . S
C501 N498 1.332 . S
C501 C500 1.382 . S
C501 H512 0.952 . S
C502 C499 1.388 . S
C502 C503 1.382 . S
C502 H527 0.950 . S
C503 N498 1.332 . S
C503 C502 1.382 . S
C503 H513 0.948 . S
N504 Co482 2.282 . S
N504 C508 1.332 . S
N504 C509 1.332 . S
C505 C506 1.388 . S
C505 C509 1.382 . S
C505 H528 0.950 . S
C506 C505 1.388 . S
C506 C507 1.386 . S
C507 C506 1.386 . S
C507 C508 1.382 . S
C507 H529 0.950 . S
C508 N504 1.332 . S
C508 C507 1.382 . S
C508 H510 0.952 . S
C509 N504 1.332 . S
C509 C505 1.382 . S
C509 H511 0.948 . S
H510 C508 0.952 . S
H511 C509 0.948 . S
H512 C501 0.952 . S
H513 C503 0.948 . S
C514 C480 1.395 . S
C514 C484 1.391 . S
C515 C477 1.389 . S
C515 C497 1.392 . S
C516 C487 1.392 . S
C516 C489 1.389 . S
C517 C492 1.395 . S
C517 C494 1.391 . S
H518 C478 0.951 . S
H519 C479 0.950 . S
H520 C485 0.949 . S
H521 C486 0.950 . S
H522 C490 0.951 . S
H523 C491 0.950 . S
H524 C495 0.949 . S
H525 C496 0.950 . S
H526 C500 0.950 . S
H527 C502 0.950 . S
H528 C505 0.950 . S
H529 C507 0.950 . S
C530 C531 1.443 . S
C530 N534 1.376 . S
C530 C568 1.389 . S
C531 C530 1.443 . S
C531 C532 1.340 . S
C531 H571 0.951 . S
C532 C531 1.340 . S
C532 C533 1.439 . S
C532 H572 0.950 . S
C533 C532 1.439 . S
C533 N534 1.374 . S
C533 C567 1.395 . S
N534 C530 1.376 . S
N534 C533 1.374 . S
N534 Co535 2.008 . S
Co535 N534 2.008 . S
Co535 N536 1.995 . S
Co535 N541 2.008 . S
Co535 N546 1.995 . S
Co535 N551 2.282 . S
Co535 N557 2.282 . S
N536 Co535 1.995 . S
N536 C537 1.376 . S
N536 C540 1.383 . S
C537 N536 1.376 . S
C537 C538 1.446 . S
C537 C567 1.391 . S
C538 C537 1.446 . S
C538 C539 1.339 . S
C538 H573 0.949 . S
C539 C538 1.339 . S
C539 C540 1.439 . S
C539 H574 0.950 . S
C540 N536 1.383 . S
C540 C539 1.439 . S
C540 C569 1.392 . S
N541 Co535 2.008 . S
N541 C542 1.376 . S
N541 C545 1.374 . S
C542 N541 1.376 . S
C542 C543 1.443 . S
C542 C569 1.389 . S
C543 C542 1.443 . S
C543 C544 1.340 . S
C543 H575 0.951 . S
C544 C543 1.340 . S
C544 C545 1.439 . S
C544 H576 0.950 . S
C545 N541 1.374 . S
C545 C544 1.439 . S
C545 C570 1.395 . S
N546 Co535 1.995 . S
N546 C547 1.376 . S
N546 C550 1.383 . S
C547 N546 1.376 . S
C547 C548 1.446 . S
C547 C570 1.391 . S
C548 C547 1.446 . S
C548 C549 1.339 . S
C548 H577 0.949 . S
C549 C548 1.339 . S
C549 C550 1.439 . S
C549 H578 0.950 . S
C550 N546 1.383 . S
C550 C549 1.439 . S
C550 C568 1.392 . S
N551 Co535 2.282 . S
N551 C554 1.332 . S
N551 C556 1.332 . S
C552 C553 1.386 . S
C552 C555 1.388 . S
C553 C552 1.386 . S
C553 C554 1.382 . S
C553 H579 0.950 . S
C554 N551 1.332 . S
C554 C553 1.382 . S
C554 H565 0.952 . S
C555 C552 1.388 . S
C555 C556 1.382 . S
C555 H580 0.950 . S
C556 N551 1.332 . S
C556 C555 1.382 . S
C556 H566 0.948 . S
N557 Co535 2.282 . S
N557 C561 1.332 . S
N557 C562 1.332 . S
C558 C559 1.388 . S
C558 C562 1.382 . S
C558 H581 0.950 . S
C559 C558 1.388 . S
C559 C560 1.386 . S
C560 C559 1.386 . S
C560 C561 1.382 . S
C560 H582 0.950 . S
C561 N557 1.332 . S
C561 C560 1.382 . S
C561 H563 0.952 . S
C562 N557 1.332 . S
C562 C558 1.382 . S
C562 H564 0.948 . S
H563 C561 0.952 . S
H564 C562 0.948 . S
H565 C554 0.952 . S
H566 C556 0.948 . S
C567 C533 1.395 . S
C567 C537 1.391 . S
C568 C530 1.389 . S
C568 C550 1.392 . S
C569 C540 1.392 . S
C569 C542 1.389 . S
C570 C545 1.395 . S
C570 C547 1.391 . S
H571 C531 0.951 . S
H572 C532 0.950 . S
H573 C538 0.949 . S
H574 C539 0.950 . S
H575 C543 0.951 . S
H576 C544 0.950 . S
H577 C548 0.949 . S
H578 C549 0.950 . S
H579 C553 0.950 . S
H580 C555 0.950 . S
H581 C558 0.950 . S
H582 C560 0.950 . S
C583 C584 1.443 . S
C583 N587 1.376 . S
C583 C621 1.389 . S
C584 C583 1.443 . S
C584 C585 1.340 . S
C584 H624 0.951 . S
C585 C584 1.340 . S
C585 C586 1.439 . S
C585 H625 0.950 . S
C586 C585 1.439 . S
C586 N587 1.374 . S
C586 C620 1.395 . S
N587 C583 1.376 . S
N587 C586 1.374 . S
N587 Co588 2.008 . S
Co588 N587 2.008 . S
Co588 N589 1.995 . S
Co588 N594 2.008 . S
Co588 N599 1.995 . S
Co588 N604 2.282 . S
Co588 N610 2.282 . S
N589 Co588 1.995 . S
N589 C590 1.376 . S
N589 C593 1.383 . S
C590 N589 1.376 . S
C590 C591 1.446 . S
C590 C620 1.391 . S
C591 C590 1.446 . S
C591 C592 1.339 . S
C591 H626 0.949 . S
C592 C591 1.339 . S
C592 C593 1.439 . S
C592 H627 0.950 . S
C593 N589 1.383 . S
C593 C592 1.439 . S
C593 C622 1.392 . S
N594 Co588 2.008 . S
N594 C595 1.376 . S
N594 C598 1.374 . S
C595 N594 1.376 . S
C595 C596 1.443 . S
C595 C622 1.389 . S
C596 C595 1.443 . S
C596 C597 1.340 . S
C596 H628 0.951 . S
C597 C596 1.340 . S
C597 C598 1.439 . S
C597 H629 0.950 . S
C598 N594 1.374 . S
C598 C597 1.439 . S
C598 C623 1.395 . S
N599 Co588 1.995 . S
N599 C600 1.376 . S
N599 C603 1.383 . S
C600 N599 1.376 . S
C600 C601 1.446 . S
C600 C623 1.391 . S
C601 C600 1.446 . S
C601 C602 1.339 . S
C601 H630 0.949 . S
C602 C601 1.339 . S
C602 C603 1.439 . S
C602 H631 0.950 . S
C603 N599 1.383 . S
C603 C602 1.439 . S
C603 C621 1.392 . S
N604 Co588 2.282 . S
N604 C607 1.332 . S
N604 C609 1.332 . S
C605 C606 1.386 . S
C605 C608 1.388 . S
C606 C605 1.386 . S
C606 C607 1.382 . S
C606 H632 0.950 . S
C607 N604 1.332 . S
C607 C606 1.382 . S
C607 H618 0.952 . S
C608 C605 1.388 . S
C608 C609 1.382 . S
C608 H633 0.950 . S
C609 N604 1.332 . S
C609 C608 1.382 . S
C609 H619 0.948 . S
N610 Co588 2.282 . S
N610 C614 1.332 . S
N610 C615 1.332 . S
C611 C612 1.388 . S
C611 C615 1.382 . S
C611 H634 0.950 . S
C612 C611 1.388 . S
C612 C613 1.386 . S
C613 C612 1.386 . S
C613 C614 1.382 . S
C613 H635 0.950 . S
C614 N610 1.332 . S
C614 C613 1.382 . S
C614 H616 0.952 . S
C615 N610 1.332 . S
C615 C611 1.382 . S
C615 H617 0.948 . S
H616 C614 0.952 . S
H617 C615 0.948 . S
H618 C607 0.952 . S
H619 C609 0.948 . S
C620 C586 1.395 . S
C620 C590 1.391 . S
C621 C583 1.389 . S
C621 C603 1.392 . S
C622 C593 1.392 . S
C622 C595 1.389 . S
C623 C598 1.395 . S
C623 C600 1.391 . S
H624 C584 0.951 . S
H625 C585 0.950 . S
H626 C591 0.949 . S
H627 C592 0.950 . S
H628 C596 0.951 . S
H629 C597 0.950 . S
H630 C601 0.949 . S
H631 C602 0.950 . S
H632 C606 0.950 . S
H633 C608 0.950 . S
H634 C611 0.950 . S
H635 C613 0.950 . S
C636 C637 1.443 . S
C636 N640 1.376 . S
C636 C674 1.389 . S
C637 C636 1.443 . S
C637 C638 1.340 . S
C637 H677 0.951 . S
C638 C637 1.340 . S
C638 C639 1.439 . S
C638 H678 0.950 . S
C639 C638 1.439 . S
C639 N640 1.374 . S
C639 C673 1.395 . S
N640 C636 1.376 . S
N640 C639 1.374 . S
N640 Co641 2.008 . S
Co641 N640 2.008 . S
Co641 N642 1.995 . S
Co641 N647 2.008 . S
Co641 N652 1.995 . S
Co641 N657 2.282 . S
Co641 N663 2.282 . S
N642 Co641 1.995 . S
N642 C643 1.376 . S
N642 C646 1.383 . S
C643 N642 1.376 . S
C643 C644 1.446 . S
C643 C673 1.391 . S
C644 C643 1.446 . S
C644 C645 1.339 . S
C644 H679 0.949 . S
C645 C644 1.339 . S
C645 C646 1.439 . S
C645 H680 0.950 . S
C646 N642 1.383 . S
C646 C645 1.439 . S
C646 C675 1.392 . S
N647 Co641 2.008 . S
N647 C648 1.376 . S
N647 C651 1.374 . S
C648 N647 1.376 . S
C648 C649 1.443 . S
C648 C675 1.389 . S
C649 C648 1.443 . S
C649 C650 1.340 . S
C649 H681 0.951 . S
C650 C649 1.340 . S
C650 C651 1.439 . S
C650 H682 0.950 . S
C651 N647 1.374 . S
C651 C650 1.439 . S
C651 C676 1.395 . S
N652 Co641 1.995 . S
N652 C653 1.376 . S
N652 C656 1.383 . S
C653 N652 1.376 . S
C653 C654 1.446 . S
C653 C676 1.391 . S
C654 C653 1.446 . S
C654 C655 1.339 . S
C654 H683 0.949 . S
C655 C654 1.339 . S
C655 C656 1.439 . S
C655 H684 0.950 . S
C656 N652 1.383 . S
C656 C655 1.439 . S
C656 C674 1.392 . S
N657 Co641 2.282 . S
N657 C660 1.332 . S
N657 C662 1.332 . S
C658 C659 1.386 . S
C658 C661 1.388 . S
C659 C658 1.386 . S
C659 C660 1.382 . S
C659 H685 0.950 . S
C660 N657 1.332 . S
C660 C659 1.382 . S
C660 H671 0.952 . S
C661 C658 1.388 . S
C661 C662 1.382 . S
C661 H686 0.950 . S
C662 N657 1.332 . S
C662 C661 1.382 . S
C662 H672 0.948 . S
N663 Co641 2.282 . S
N663 C667 1.332 . S
N663 C668 1.332 . S
C664 C665 1.388 . S
C664 C668 1.382 . S
C664 H687 0.950 . S
C665 C664 1.388 . S
C665 C666 1.386 . S
C666 C665 1.386 . S
C666 C667 1.382 . S
C666 H688 0.950 . S
C667 N663 1.332 . S
C667 C666 1.382 . S
C667 H669 0.952 . S
C668 N663 1.332 . S
C668 C664 1.382 . S
C668 H670 0.948 . S
H669 C667 0.952 . S
H670 C668 0.948 . S
H671 C660 0.952 . S
H672 C662 0.948 . S
C673 C639 1.395 . S
C673 C643 1.391 . S
C674 C636 1.389 . S
C674 C656 1.392 . S
C675 C646 1.392 . S
C675 C648 1.389 . S
C676 C651 1.395 . S
C676 C653 1.391 . S
H677 C637 0.951 . S
H678 C638 0.950 . S
H679 C644 0.949 . S
H680 C645 0.950 . S
H681 C649 0.951 . S
H682 C650 0.950 . S
H683 C654 0.949 . S
H684 C655 0.950 . S
H685 C659 0.950 . S
H686 C661 0.950 . S
H687 C664 0.950 . S
H688 C666 0.950 . S
C689 C690 1.443 . S
C689 N693 1.376 . S
C689 C727 1.389 . S
C690 C689 1.443 . S
C690 C691 1.340 . S
C690 H730 0.951 . S
C691 C690 1.340 . S
C691 C692 1.439 . S
C691 H731 0.950 . S
C692 C691 1.439 . S
C692 N693 1.374 . S
C692 C726 1.395 . S
N693 C689 1.376 . S
N693 C692 1.374 . S
N693 Co694 2.008 . S
Co694 N693 2.008 . S
Co694 N695 1.995 . S
Co694 N700 2.008 . S
Co694 N705 1.995 . S
Co694 N710 2.282 . S
Co694 N716 2.282 . S
N695 Co694 1.995 . S
N695 C696 1.376 . S
N695 C699 1.383 . S
C696 N695 1.376 . S
C696 C697 1.446 . S
C696 C726 1.391 . S
C697 C696 1.446 . S
C697 C698 1.339 . S
C697 H732 0.949 . S
C698 C697 1.339 . S
C698 C699 1.439 . S
C698 H733 0.950 . S
C699 N695 1.383 . S
C699 C698 1.439 . S
C699 C728 1.392 . S
N700 Co694 2.008 . S
N700 C701 1.376 . S
N700 C704 1.374 . S
C701 N700 1.376 . S
C701 C702 1.443 . S
C701 C728 1.389 . S
C702 C701 1.443 . S
C702 C703 1.340 . S
C702 H734 0.951 . S
C703 C702 1.340 . S
C703 C704 1.439 . S
C703 H735 0.950 . S
C704 N700 1.374 . S
C704 C703 1.439 . S
C704 C729 1.395 . S
N705 Co694 1.995 . S
N705 C706 1.376 . S
N705 C709 1.383 . S
C706 N705 1.376 . S
C706 C707 1.446 . S
C706 C729 1.391 . S
C707 C706 1.446 . S
C707 C708 1.339 . S
C707 H736 0.949 . S
C708 C707 1.339 . S
C708 C709 1.439 . S
C708 H737 0.950 . S
C709 N705 1.383 . S
C709 C708 1.439 . S
C709 C727 1.392 . S
N710 Co694 2.282 . S
N710 C713 1.332 . S
N710 C715 1.332 . S
C711 C712 1.386 . S
C711 C714 1.388 . S
C712 C711 1.386 . S
C712 C713 1.382 . S
C712 H738 0.950 . S
C713 N710 1.332 . S
C713 C712 1.382 . S
C713 H724 0.952 . S
C714 C711 1.388 . S
C714 C715 1.382 . S
C714 H739 0.950 . S
C715 N710 1.332 . S
C715 C714 1.382 . S
C715 H725 0.948 . S
N716 Co694 2.282 . S
N716 C720 1.332 . S
N716 C721 1.332 . S
C717 C718 1.388 . S
C717 C721 1.382 . S
C717 H740 0.950 . S
C718 C717 1.388 . S
C718 C719 1.386 . S
C719 C718 1.386 . S
C719 C720 1.382 . S
C719 H741 0.950 . S
C720 N716 1.332 . S
C720 C719 1.382 . S
C720 H722 0.952 . S
C721 N716 1.332 . S
C721 C717 1.382 . S
C721 H723 0.948 . S
H722 C720 0.952 . S
H723 C721 0.948 . S
H724 C713 0.952 . S
H725 C715 0.948 . S
C726 C692 1.395 . S
C726 C696 1.391 . S
C727 C689 1.389 . S
C727 C709 1.392 . S
C728 C699 1.392 . S
C728 C701 1.389 . S
C729 C704 1.395 . S
C729 C706 1.391 . S
H730 C690 0.951 . S
H731 C691 0.950 . S
H732 C697 0.949 . S
H733 C698 0.950 . S
H734 C702 0.951 . S
H735 C703 0.950 . S
H736 C707 0.949 . S
H737 C708 0.950 . S
H738 C712 0.950 . S
H739 C714 0.950 . S
H740 C717 0.950 . S
H741 C719 0.950 . S
C742 C743 1.443 . S
C742 N746 1.376 . S
C742 C780 1.389 . S
C743 C742 1.443 . S
C743 C744 1.340 . S
C743 H783 0.951 . S
C744 C743 1.340 . S
C744 C745 1.439 . S
C744 H784 0.950 . S
C745 C744 1.439 . S
C745 N746 1.374 . S
C745 C779 1.395 . S
N746 C742 1.376 . S
N746 C745 1.374 . S
N746 Co747 2.008 . S
Co747 N746 2.008 . S
Co747 N748 1.995 . S
Co747 N753 2.008 . S
Co747 N758 1.995 . S
Co747 N763 2.282 . S
Co747 N769 2.282 . S
N748 Co747 1.995 . S
N748 C749 1.376 . S
N748 C752 1.383 . S
C749 N748 1.376 . S
C749 C750 1.446 . S
C749 C779 1.391 . S
C750 C749 1.446 . S
C750 C751 1.339 . S
C750 H785 0.949 . S
C751 C750 1.339 . S
C751 C752 1.439 . S
C751 H786 0.950 . S
C752 N748 1.383 . S
C752 C751 1.439 . S
C752 C781 1.392 . S
N753 Co747 2.008 . S
N753 C754 1.376 . S
N753 C757 1.374 . S
C754 N753 1.376 . S
C754 C755 1.443 . S
C754 C781 1.389 . S
C755 C754 1.443 . S
C755 C756 1.340 . S
C755 H787 0.951 . S
C756 C755 1.340 . S
C756 C757 1.439 . S
C756 H788 0.950 . S
C757 N753 1.374 . S
C757 C756 1.439 . S
C757 C782 1.395 . S
N758 Co747 1.995 . S
N758 C759 1.376 . S
N758 C762 1.383 . S
C759 N758 1.376 . S
C759 C760 1.446 . S
C759 C782 1.391 . S
C760 C759 1.446 . S
C760 C761 1.339 . S
C760 H789 0.949 . S
C761 C760 1.339 . S
C761 C762 1.439 . S
C761 H790 0.950 . S
C762 N758 1.383 . S
C762 C761 1.439 . S
C762 C780 1.392 . S
N763 Co747 2.282 . S
N763 C766 1.332 . S
N763 C768 1.332 . S
C764 C765 1.386 . S
C764 C767 1.388 . S
C765 C764 1.386 . S
C765 C766 1.382 . S
C765 H791 0.950 . S
C766 N763 1.332 . S
C766 C765 1.382 . S
C766 H777 0.952 . S
C767 C764 1.388 . S
C767 C768 1.382 . S
C767 H792 0.950 . S
C768 N763 1.332 . S
C768 C767 1.382 . S
C768 H778 0.948 . S
N769 Co747 2.282 . S
N769 C773 1.332 . S
N769 C774 1.332 . S
C770 C771 1.388 . S
C770 C774 1.382 . S
C770 H793 0.950 . S
C771 C770 1.388 . S
C771 C772 1.386 . S
C772 C771 1.386 . S
C772 C773 1.382 . S
C772 H794 0.950 . S
C773 N769 1.332 . S
C773 C772 1.382 . S
C773 H775 0.952 . S
C774 N769 1.332 . S
C774 C770 1.382 . S
C774 H776 0.948 . S
H775 C773 0.952 . S
H776 C774 0.948 . S
H777 C766 0.952 . S
H778 C768 0.948 . S
C779 C745 1.395 . S
C779 C749 1.391 . S
C780 C742 1.389 . S
C780 C762 1.392 . S
C781 C752 1.392 . S
C781 C754 1.389 . S
C782 C757 1.395 . S
C782 C759 1.391 . S
H783 C743 0.951 . S
H784 C744 0.950 . S
H785 C750 0.949 . S
H786 C751 0.950 . S
H787 C755 0.951 . S
H788 C756 0.950 . S
H789 C760 0.949 . S
H790 C761 0.950 . S
H791 C765 0.950 . S
H792 C767 0.950 . S
H793 C770 0.950 . S
H794 C772 0.950 . S
C795 C796 1.443 . S
C795 N799 1.376 . S
C795 C833 1.389 . S
C796 C795 1.443 . S
C796 C797 1.340 . S
C796 H836 0.951 . S
C797 C796 1.340 . S
C797 C798 1.439 . S
C797 H837 0.950 . S
C798 C797 1.439 . S
C798 N799 1.374 . S
C798 C832 1.395 . S
N799 C795 1.376 . S
N799 C798 1.374 . S
N799 Co800 2.008 . S
Co800 N799 2.008 . S
Co800 N801 1.995 . S
Co800 N806 2.008 . S
Co800 N811 1.995 . S
Co800 N816 2.282 . S
Co800 N822 2.282 . S
N801 Co800 1.995 . S
N801 C802 1.376 . S
N801 C805 1.383 . S
C802 N801 1.376 . S
C802 C803 1.446 . S
C802 C832 1.391 . S
C803 C802 1.446 . S
C803 C804 1.339 . S
C803 H838 0.949 . S
C804 C803 1.339 . S
C804 C805 1.439 . S
C804 H839 0.950 . S
C805 N801 1.383 . S
C805 C804 1.439 . S
C805 C834 1.392 . S
N806 Co800 2.008 . S
N806 C807 1.376 . S
N806 C810 1.374 . S
C807 N806 1.376 . S
C807 C808 1.443 . S
C807 C834 1.389 . S
C808 C807 1.443 . S
C808 C809 1.340 . S
C808 H840 0.951 . S
C809 C808 1.340 . S
C809 C810 1.439 . S
C809 H841 0.950 . S
C810 N806 1.374 . S
C810 C809 1.439 . S
C810 C835 1.395 . S
N811 Co800 1.995 . S
N811 C812 1.376 . S
N811 C815 1.383 . S
C812 N811 1.376 . S
C812 C813 1.446 . S
C812 C835 1.391 . S
C813 C812 1.446 . S
C813 C814 1.339 . S
C813 H842 0.949 . S
C814 C813 1.339 . S
C814 C815 1.439 . S
C814 H843 0.950 . S
C815 N811 1.383 . S
C815 C814 1.439 . S
C815 C833 1.392 . S
N816 Co800 2.282 . S
N816 C819 1.332 . S
N816 C821 1.332 . S
C817 C818 1.386 . S
C817 C820 1.388 . S
C818 C817 1.386 . S
C818 C819 1.382 . S
C818 H844 0.950 . S
C819 N816 1.332 . S
C819 C818 1.382 . S
C819 H830 0.952 . S
C820 C817 1.388 . S
C820 C821 1.382 . S
C820 H845 0.950 . S
C821 N816 1.332 . S
C821 C820 1.382 . S
C821 H831 0.948 . S
N822 Co800 2.282 . S
N822 C826 1.332 . S
N822 C827 1.332 . S
C823 C824 1.388 . S
C823 C827 1.382 . S
C823 H846 0.950 . S
C824 C823 1.388 . S
C824 C825 1.386 . S
C825 C824 1.386 . S
C825 C826 1.382 . S
C825 H847 0.950 . S
C826 N822 1.332 . S
C826 C825 1.382 . S
C826 H828 0.952 . S
C827 N822 1.332 . S
C827 C823 1.382 . S
C827 H829 0.948 . S
H828 C826 0.952 . S
H829 C827 0.948 . S
H830 C819 0.952 . S
H831 C821 0.948 . S
C832 C798 1.395 . S
C832 C802 1.391 . S
C833 C795 1.389 . S
C833 C815 1.392 . S
C834 C805 1.392 . S
C834 C807 1.389 . S
C835 C810 1.395 . S
C835 C812 1.391 . S
H836 C796 0.951 . S
H837 C797 0.950 . S
H838 C803 0.949 . S
H839 C804 0.950 . S
H840 C808 0.951 . S
H841 C809 0.950 . S
H842 C813 0.949 . S
H843 C814 0.950 . S
H844 C818 0.950 . S
H845 C820 0.950 . S
H846 C823 0.950 . S
H847 C825 0.950 . S
C848 C849 1.443 . S
C848 N852 1.376 . S
C848 C886 1.389 . S
C849 C848 1.443 . S
C849 C850 1.340 . S
C849 H889 0.951 . S
C850 C849 1.340 . S
C850 C851 1.439 . S
C850 H890 0.950 . S
C851 C850 1.439 . S
C851 N852 1.374 . S
C851 C885 1.395 . S
N852 C848 1.376 . S
N852 C851 1.374 . S
N852 Co853 2.008 . S
Co853 N852 2.008 . S
Co853 N854 1.995 . S
Co853 N859 2.008 . S
Co853 N864 1.995 . S
Co853 N869 2.282 . S
Co853 N875 2.282 . S
N854 Co853 1.995 . S
N854 C855 1.376 . S
N854 C858 1.383 . S
C855 N854 1.376 . S
C855 C856 1.446 . S
C855 C885 1.391 . S
C856 C855 1.446 . S
C856 C857 1.339 . S
C856 H891 0.949 . S
C857 C856 1.339 . S
C857 C858 1.439 . S
C857 H892 0.950 . S
C858 N854 1.383 . S
C858 C857 1.439 . S
C858 C887 1.392 . S
N859 Co853 2.008 . S
N859 C860 1.376 . S
N859 C863 1.374 . S
C860 N859 1.376 . S
C860 C861 1.443 . S
C860 C887 1.389 . S
C861 C860 1.443 . S
C861 C862 1.340 . S
C861 H893 0.951 . S
C862 C861 1.340 . S
C862 C863 1.439 . S
C862 H894 0.950 . S
C863 N859 1.374 . S
C863 C862 1.439 . S
C863 C888 1.395 . S
N864 Co853 1.995 . S
N864 C865 1.376 . S
N864 C868 1.383 . S
C865 N864 1.376 . S
C865 C866 1.446 . S
C865 C888 1.391 . S
C866 C865 1.446 . S
C866 C867 1.339 . S
C866 H895 0.949 . S
C867 C866 1.339 . S
C867 C868 1.439 . S
C867 H896 0.950 . S
C868 N864 1.383 . S
C868 C867 1.439 . S
C868 C886 1.392 . S
N869 Co853 2.282 . S
N869 C872 1.332 . S
N869 C874 1.332 . S
C870 C871 1.386 . S
C870 C873 1.388 . S
C871 C870 1.386 . S
C871 C872 1.382 . S
C871 H897 0.950 . S
C872 N869 1.332 . S
C872 C871 1.382 . S
C872 H883 0.952 . S
C873 C870 1.388 . S
C873 C874 1.382 . S
C873 H898 0.950 . S
C874 N869 1.332 . S
C874 C873 1.382 . S
C874 H884 0.948 . S
N875 Co853 2.282 . S
N875 C879 1.332 . S
N875 C880 1.332 . S
C876 C877 1.388 . S
C876 C880 1.382 . S
C876 H899 0.950 . S
C877 C876 1.388 . S
C877 C878 1.386 . S
C878 C877 1.386 . S
C878 C879 1.382 . S
C878 H900 0.950 . S
C879 N875 1.332 . S
C879 C878 1.382 . S
C879 H881 0.952 . S
C880 N875 1.332 . S
C880 C876 1.382 . S
C880 H882 0.948 . S
H881 C879 0.952 . S
H882 C880 0.948 . S
H883 C872 0.952 . S
H884 C874 0.948 . S
C885 C851 1.395 . S
C885 C855 1.391 . S
C886 C848 1.389 . S
C886 C868 1.392 . S
C887 C858 1.392 . S
C887 C860 1.389 . S
C888 C863 1.395 . S
C888 C865 1.391 . S
H889 C849 0.951 . S
H890 C850 0.950 . S
H891 C856 0.949 . S
H892 C857 0.950 . S
H893 C861 0.951 . S
H894 C862 0.950 . S
H895 C866 0.949 . S
H896 C867 0.950 . S
H897 C871 0.950 . S
H898 C873 0.950 . S
H899 C876 0.950 . S
H900 C878 0.950 . S
C901 C902 1.443 . S
C901 N905 1.376 . S
C901 C939 1.389 . S
C902 C901 1.443 . S
C902 C903 1.340 . S
C902 H942 0.951 . S
C903 C902 1.340 . S
C903 C904 1.439 . S
C903 H943 0.950 . S
C904 C903 1.439 . S
C904 N905 1.374 . S
C904 C938 1.395 . S
N905 C901 1.376 . S
N905 C904 1.374 . S
N905 Co906 2.008 . S
Co906 N905 2.008 . S
Co906 N907 1.995 . S
Co906 N912 2.008 . S
Co906 N917 1.995 . S
Co906 N922 2.282 . S
Co906 N928 2.282 . S
N907 Co906 1.995 . S
N907 C908 1.376 . S
N907 C911 1.383 . S
C908 N907 1.376 . S
C908 C909 1.446 . S
C908 C938 1.391 . S
C909 C908 1.446 . S
C909 C910 1.339 . S
C909 H944 0.949 . S
C910 C909 1.339 . S
C910 C911 1.439 . S
C910 H945 0.950 . S
C911 N907 1.383 . S
C911 C910 1.439 . S
C911 C940 1.392 . S
N912 Co906 2.008 . S
N912 C913 1.376 . S
N912 C916 1.374 . S
C913 N912 1.376 . S
C913 C914 1.443 . S
C913 C940 1.389 . S
C914 C913 1.443 . S
C914 C915 1.340 . S
C914 H946 0.951 . S
C915 C914 1.340 . S
C915 C916 1.439 . S
C915 H947 0.950 . S
C916 N912 1.374 . S
C916 C915 1.439 . S
C916 C941 1.395 . S
N917 Co906 1.995 . S
N917 C918 1.376 . S
N917 C921 1.383 . S
C918 N917 1.376 . S
C918 C919 1.446 . S
C918 C941 1.391 . S
C919 C918 1.446 . S
C919 C920 1.339 . S
C919 H948 0.949 . S
C920 C919 1.339 . S
C920 C921 1.439 . S
C920 H949 0.950 . S
C921 N917 1.383 . S
C921 C920 1.439 . S
C921 C939 1.392 . S
N922 Co906 2.282 . S
N922 C925 1.332 . S
N922 C927 1.332 . S
C923 C924 1.386 . S
C923 C926 1.388 . S
C924 C923 1.386 . S
C924 C925 1.382 . S
C924 H950 0.950 . S
C925 N922 1.332 . S
C925 C924 1.382 . S
C925 H936 0.952 . S
C926 C923 1.388 . S
C926 C927 1.382 . S
C926 H951 0.950 . S
C927 N922 1.332 . S
C927 C926 1.382 . S
C927 H937 0.948 . S
N928 Co906 2.282 . S
N928 C932 1.332 . S
N928 C933 1.332 . S
C929 C930 1.388 . S
C929 C933 1.382 . S
C929 H952 0.950 . S
C930 C929 1.388 . S
C930 C931 1.386 . S
C931 C930 1.386 . S
C931 C932 1.382 . S
C931 H953 0.950 . S
C932 N928 1.332 . S
C932 C931 1.382 . S
C932 H934 0.952 . S
C933 N928 1.332 . S
C933 C929 1.382 . S
C933 H935 0.948 . S
H934 C932 0.952 . S
H935 C933 0.948 . S
H936 C925 0.952 . S
H937 C927 0.948 . S
C938 C904 1.395 . S
C938 C908 1.391 . S
C939 C901 1.389 . S
C939 C921 1.392 . S
C940 C911 1.392 . S
C940 C913 1.389 . S
C941 C916 1.395 . S
C941 C918 1.391 . S
H942 C902 0.951 . S
H943 C903 0.950 . S
H944 C909 0.949 . S
H945 C910 0.950 . S
H946 C914 0.951 . S
H947 C915 0.950 . S
H948 C919 0.949 . S
H949 C920 0.950 . S
H950 C924 0.950 . S
H951 C926 0.950 . S
H952 C929 0.950 . S
H953 C931 0.950 . S
C954 C955 1.443 . S
C954 N958 1.376 . S
C954 C992 1.389 . S
C955 C954 1.443 . S
C955 C956 1.340 . S
C955 H995 0.951 . S
C956 C955 1.340 . S
C956 C957 1.439 . S
C956 H996 0.950 . S
C957 C956 1.439 . S
C957 N958 1.374 . S
C957 C991 1.395 . S
N958 C954 1.376 . S
N958 C957 1.374 . S
N958 Co959 2.008 . S
Co959 N958 2.008 . S
Co959 N960 1.995 . S
Co959 N965 2.008 . S
Co959 N970 1.995 . S
Co959 N975 2.282 . S
Co959 N981 2.282 . S
N960 Co959 1.995 . S
N960 C961 1.376 . S
N960 C964 1.383 . S
C961 N960 1.376 . S
C961 C962 1.446 . S
C961 C991 1.391 . S
C962 C961 1.446 . S
C962 C963 1.339 . S
C962 H997 0.949 . S
C963 C962 1.339 . S
C963 C964 1.439 . S
C963 H998 0.950 . S
C964 N960 1.383 . S
C964 C963 1.439 . S
C964 C993 1.392 . S
N965 Co959 2.008 . S
N965 C966 1.376 . S
N965 C969 1.374 . S
C966 N965 1.376 . S
C966 C967 1.443 . S
C966 C993 1.389 . S
C967 C966 1.443 . S
C967 C968 1.340 . S
C967 H999 0.951 . S
C968 C967 1.340 . S
C968 C969 1.439 . S
C968 H1000 0.950 . S
C969 N965 1.374 . S
C969 C968 1.439 . S
C969 C994 1.395 . S
N970 Co959 1.995 . S
N970 C971 1.376 . S
N970 C974 1.383 . S
C971 N970 1.376 . S
C971 C972 1.446 . S
C971 C994 1.391 . S
C972 C971 1.446 . S
C972 C973 1.339 . S
C972 H1001 0.949 . S
C973 C972 1.339 . S
C973 C974 1.439 . S
C973 H1002 0.950 . S
C974 N970 1.383 . S
C974 C973 1.439 . S
C974 C992 1.392 . S
N975 Co959 2.282 . S
N975 C978 1.332 . S
N975 C980 1.332 . S
C976 C977 1.386 . S
C976 C979 1.388 . S
C977 C976 1.386 . S
C977 C978 1.382 . S
C977 H1003 0.950 . S
C978 N975 1.332 . S
C978 C977 1.382 . S
C978 H989 0.952 . S
C979 C976 1.388 . S
C979 C980 1.382 . S
C979 H1004 0.950 . S
C980 N975 1.332 . S
C980 C979 1.382 . S
C980 H990 0.948 . S
N981 Co959 2.282 . S
N981 C985 1.332 . S
N981 C986 1.332 . S
C982 C983 1.388 . S
C982 C986 1.382 . S
C982 H1005 0.950 . S
C983 C982 1.388 . S
C983 C984 1.386 . S
C984 C983 1.386 . S
C984 C985 1.382 . S
C984 H1006 0.950 . S
C985 N981 1.332 . S
C985 C984 1.382 . S
C985 H987 0.952 . S
C986 N981 1.332 . S
C986 C982 1.382 . S
C986 H988 0.948 . S
H987 C985 0.952 . S
H988 C986 0.948 . S
H989 C978 0.952 . S
H990 C980 0.948 . S
C991 C957 1.395 . S
C991 C961 1.391 . S
C992 C954 1.389 . S
C992 C974 1.392 . S
C993 C964 1.392 . S
C993 C966 1.389 . S
C994 C969 1.395 . S
C994 C971 1.391 . S
H995 C955 0.951 . S
H996 C956 0.950 . S
H997 C962 0.949 . S
H998 C963 0.950 . S
H999 C967 0.951 . S
H1000 C968 0.950 . S
H1001 C972 0.949 . S
H1002 C973 0.950 . S
H1003 C977 0.950 . S
H1004 C979 0.950 . S
H1005 C982 0.950 . S
H1006 C984 0.950 . S
C1007 C1008 1.443 . S
C1007 N1011 1.376 . S
C1007 C1045 1.389 . S
C1008 C1007 1.443 . S
C1008 C1009 1.340 . S
C1008 H1048 0.951 . S
C1009 C1008 1.340 . S
C1009 C1010 1.439 . S
C1009 H1049 0.950 . S
C1010 C1009 1.439 . S
C1010 N1011 1.374 . S
C1010 C1044 1.395 . S
N1011 C1007 1.376 . S
N1011 C1010 1.374 . S
N1011 Co1012 2.008 . S
Co1012 N1011 2.008 . S
Co1012 N1013 1.995 . S
Co1012 N1018 2.008 . S
Co1012 N1023 1.995 . S
Co1012 N1028 2.282 . S
Co1012 N1034 2.282 . S
N1013 Co1012 1.995 . S
N1013 C1014 1.376 . S
N1013 C1017 1.383 . S
C1014 N1013 1.376 . S
C1014 C1015 1.446 . S
C1014 C1044 1.391 . S
C1015 C1014 1.446 . S
C1015 C1016 1.339 . S
C1015 H1050 0.949 . S
C1016 C1015 1.339 . S
C1016 C1017 1.439 . S
C1016 H1051 0.950 . S
C1017 N1013 1.383 . S
C1017 C1016 1.439 . S
C1017 C1046 1.392 . S
N1018 Co1012 2.008 . S
N1018 C1019 1.376 . S
N1018 C1022 1.374 . S
C1019 N1018 1.376 . S
C1019 C1020 1.443 . S
C1019 C1046 1.389 . S
C1020 C1019 1.443 . S
C1020 C1021 1.340 . S
C1020 H1052 0.951 . S
C1021 C1020 1.340 . S
C1021 C1022 1.439 . S
C1021 H1053 0.950 . S
C1022 N1018 1.374 . S
C1022 C1021 1.439 . S
C1022 C1047 1.395 . S
N1023 Co1012 1.995 . S
N1023 C1024 1.376 . S
N1023 C1027 1.383 . S
C1024 N1023 1.376 . S
C1024 C1025 1.446 . S
C1024 C1047 1.391 . S
C1025 C1024 1.446 . S
C1025 C1026 1.339 . S
C1025 H1054 0.949 . S
C1026 C1025 1.339 . S
C1026 C1027 1.439 . S
C1026 H1055 0.950 . S
C1027 N1023 1.383 . S
C1027 C1026 1.439 . S
C1027 C1045 1.392 . S
N1028 Co1012 2.282 . S
N1028 C1031 1.332 . S
N1028 C1033 1.332 . S
C1029 C1030 1.386 . S
C1029 C1032 1.388 . S
C1030 C1029 1.386 . S
C1030 C1031 1.382 . S
C1030 H1056 0.950 . S
C1031 N1028 1.332 . S
C1031 C1030 1.382 . S
C1031 H1042 0.952 . S
C1032 C1029 1.388 . S
C1032 C1033 1.382 . S
C1032 H1057 0.950 . S
C1033 N1028 1.332 . S
C1033 C1032 1.382 . S
C1033 H1043 0.948 . S
N1034 Co1012 2.282 . S
N1034 C1038 1.332 . S
N1034 C1039 1.332 . S
C1035 C1036 1.388 . S
C1035 C1039 1.382 . S
C1035 H1058 0.950 . S
C1036 C1035 1.388 . S
C1036 C1037 1.386 . S
C1037 C1036 1.386 . S
C1037 C1038 1.382 . S
C1037 H1059 0.950 . S
C1038 N1034 1.332 . S
C1038 C1037 1.382 . S
C1038 H1040 0.952 . S
C1039 N1034 1.332 . S
C1039 C1035 1.382 . S
C1039 H1041 0.948 . S
H1040 C1038 0.952 . S
H1041 C1039 0.948 . S
H1042 C1031 0.952 . S
H1043 C1033 0.948 . S
C1044 C1010 1.395 . S
C1044 C1014 1.391 . S
C1045 C1007 1.389 . S
C1045 C1027 1.392 . S
C1046 C1017 1.392 . S
C1046 C1019 1.389 . S
C1047 C1022 1.395 . S
C1047 C1024 1.391 . S
H1048 C1008 0.951 . S
H1049 C1009 0.950 . S
H1050 C1015 0.949 . S
H1051 C1016 0.950 . S
H1052 C1020 0.951 . S
H1053 C1021 0.950 . S
H1054 C1025 0.949 . S
H1055 C1026 0.950 . S
H1056 C1030 0.950 . S
H1057 C1032 0.950 . S
H1058 C1035 0.950 . S
H1059 C1037 0.950 . S
C1060 C1061 1.443 . S
C1060 N1064 1.376 . S
C1060 C1098 1.389 . S
C1061 C1060 1.443 . S
C1061 C1062 1.340 . S
C1061 H1101 0.951 . S
C1062 C1061 1.340 . S
C1062 C1063 1.439 . S
C1062 H1102 0.950 . S
C1063 C1062 1.439 . S
C1063 N1064 1.374 . S
C1063 C1097 1.395 . S
N1064 C1060 1.376 . S
N1064 C1063 1.374 . S
N1064 Co1065 2.008 . S
Co1065 N1064 2.008 . S
Co1065 N1066 1.995 . S
Co1065 N1071 2.008 . S
Co1065 N1076 1.995 . S
Co1065 N1081 2.282 . S
Co1065 N1087 2.282 . S
N1066 Co1065 1.995 . S
N1066 C1067 1.376 . S
N1066 C1070 1.383 . S
C1067 N1066 1.376 . S
C1067 C1068 1.446 . S
C1067 C1097 1.391 . S
C1068 C1067 1.446 . S
C1068 C1069 1.339 . S
C1068 H1103 0.949 . S
C1069 C1068 1.339 . S
C1069 C1070 1.439 . S
C1069 H1104 0.950 . S
C1070 N1066 1.383 . S
C1070 C1069 1.439 . S
C1070 C1099 1.392 . S
N1071 Co1065 2.008 . S
N1071 C1072 1.376 . S
N1071 C1075 1.374 . S
C1072 N1071 1.376 . S
C1072 C1073 1.443 . S
C1072 C1099 1.389 . S
C1073 C1072 1.443 . S
C1073 C1074 1.340 . S
C1073 H1105 0.951 . S
C1074 C1073 1.340 . S
C1074 C1075 1.439 . S
C1074 H1106 0.950 . S
C1075 N1071 1.374 . S
C1075 C1074 1.439 . S
C1075 C1100 1.395 . S
N1076 Co1065 1.995 . S
N1076 C1077 1.376 . S
N1076 C1080 1.383 . S
C1077 N1076 1.376 . S
C1077 C1078 1.446 . S
C1077 C1100 1.391 . S
C1078 C1077 1.446 . S
C1078 C1079 1.339 . S
C1078 H1107 0.949 . S
C1079 C1078 1.339 . S
C1079 C1080 1.439 . S
C1079 H1108 0.950 . S
C1080 N1076 1.383 . S
C1080 C1079 1.439 . S
C1080 C1098 1.392 . S
N1081 Co1065 2.282 . S
N1081 C1084 1.332 . S
N1081 C1086 1.332 . S
C1082 C1083 1.386 . S
C1082 C1085 1.388 . S
C1083 C1082 1.386 . S
C1083 C1084 1.382 . S
C1083 H1109 0.950 . S
C1084 N1081 1.332 . S
C1084 C1083 1.382 . S
C1084 H1095 0.952 . S
C1085 C1082 1.388 . S
C1085 C1086 1.382 . S
C1085 H1110 0.950 . S
C1086 N1081 1.332 . S
C1086 C1085 1.382 . S
C1086 H1096 0.948 . S
N1087 Co1065 2.282 . S
N1087 C1091 1.332 . S
N1087 C1092 1.332 . S
C1088 C1089 1.388 . S
C1088 C1092 1.382 . S
C1088 H1111 0.950 . S
C1089 C1088 1.388 . S
C1089 C1090 1.386 . S
C1090 C1089 1.386 . S
C1090 C1091 1.382 . S
C1090 H1112 0.950 . S
C1091 N1087 1.332 . S
C1091 C1090 1.382 . S
C1091 H1093 0.952 . S
C1092 N1087 1.332 . S
C1092 C1088 1.382 . S
C1092 H1094 0.948 . S
H1093 C1091 0.952 . S
H1094 C1092 0.948 . S
H1095 C1084 0.952 . S
H1096 C1086 0.948 . S
C1097 C1063 1.395 . S
C1097 C1067 1.391 . S
C1098 C1060 1.389 . S
C1098 C1080 1.392 . S
C1099 C1070 1.392 . S
C1099 C1072 1.389 . S
C1100 C1075 1.395 . S
C1100 C1077 1.391 . S
H1101 C1061 0.951 . S
H1102 C1062 0.950 . S
H1103 C1068 0.949 . S
H1104 C1069 0.950 . S
H1105 C1073 0.951 . S
H1106 C1074 0.950 . S
H1107 C1078 0.949 . S
H1108 C1079 0.950 . S
H1109 C1083 0.950 . S
H1110 C1085 0.950 . S
H1111 C1088 0.950 . S
H1112 C1090 0.950 . S
C1113 C1114 1.443 . S
C1113 N1117 1.376 . S
C1113 C1151 1.389 . S
C1114 C1113 1.443 . S
C1114 C1115 1.340 . S
C1114 H1154 0.951 . S
C1115 C1114 1.340 . S
C1115 C1116 1.439 . S
C1115 H1155 0.950 . S
C1116 C1115 1.439 . S
C1116 N1117 1.374 . S
C1116 C1150 1.395 . S
N1117 C1113 1.376 . S
N1117 C1116 1.374 . S
N1117 Co1118 2.008 . S
Co1118 N1117 2.008 . S
Co1118 N1119 1.995 . S
Co1118 N1124 2.008 . S
Co1118 N1129 1.995 . S
Co1118 N1134 2.282 . S
Co1118 N1140 2.282 . S
N1119 Co1118 1.995 . S
N1119 C1120 1.376 . S
N1119 C1123 1.383 . S
C1120 N1119 1.376 . S
C1120 C1121 1.446 . S
C1120 C1150 1.391 . S
C1121 C1120 1.446 . S
C1121 C1122 1.339 . S
C1121 H1156 0.949 . S
C1122 C1121 1.339 . S
C1122 C1123 1.439 . S
C1122 H1157 0.950 . S
C1123 N1119 1.383 . S
C1123 C1122 1.439 . S
C1123 C1152 1.392 . S
N1124 Co1118 2.008 . S
N1124 C1125 1.376 . S
N1124 C1128 1.374 . S
C1125 N1124 1.376 . S
C1125 C1126 1.443 . S
C1125 C1152 1.389 . S
C1126 C1125 1.443 . S
C1126 C1127 1.340 . S
C1126 H1158 0.951 . S
C1127 C1126 1.340 . S
C1127 C1128 1.439 . S
C1127 H1159 0.950 . S
C1128 N1124 1.374 . S
C1128 C1127 1.439 . S
C1128 C1153 1.395 . S
N1129 Co1118 1.995 . S
N1129 C1130 1.376 . S
N1129 C1133 1.383 . S
C1130 N1129 1.376 . S
C1130 C1131 1.446 . S
C1130 C1153 1.391 . S
C1131 C1130 1.446 . S
C1131 C1132 1.339 . S
C1131 H1160 0.949 . S
C1132 C1131 1.339 . S
C1132 C1133 1.439 . S
C1132 H1161 0.950 . S
C1133 N1129 1.383 . S
C1133 C1132 1.439 . S
C1133 C1151 1.392 . S
N1134 Co1118 2.282 . S
N1134 C1137 1.332 . S
N1134 C1139 1.332 . S
C1135 C1136 1.386 . S
C1135 C1138 1.388 . S
C1136 C1135 1.386 . S
C1136 C1137 1.382 . S
C1136 H1162 0.950 . S
C1137 N1134 1.332 . S
C1137 C1136 1.382 . S
C1137 H1148 0.952 . S
C1138 C1135 1.388 . S
C1138 C1139 1.382 . S
C1138 H1163 0.950 . S
C1139 N1134 1.332 . S
C1139 C1138 1.382 . S
C1139 H1149 0.948 . S
N1140 Co1118 2.282 . S
N1140 C1144 1.332 . S
N1140 C1145 1.332 . S
C1141 C1142 1.388 . S
C1141 C1145 1.382 . S
C1141 H1164 0.950 . S
C1142 C1141 1.388 . S
C1142 C1143 1.386 . S
C1143 C1142 1.386 . S
C1143 C1144 1.382 . S
C1143 H1165 0.950 . S
C1144 N1140 1.332 . S
C1144 C1143 1.382 . S
C1144 H1146 0.952 . S
C1145 N1140 1.332 . S
C1145 C1141 1.382 . S
C1145 H1147 0.948 . S
H1146 C1144 0.952 . S
H1147 C1145 0.948 . S
H1148 C1137 0.952 . S
H1149 C1139 0.948 . S
C1150 C1116 1.395 . S
C1150 C1120 1.391 . S
C1151 C1113 1.389 . S
C1151 C1133 1.392 . S
C1152 C1123 1.392 . S
C1152 C1125 1.389 . S
C1153 C1128 1.395 . S
C1153 C1130 1.391 . S
H1154 C1114 0.951 . S
H1155 C1115 0.950 . S
H1156 C1121 0.949 . S
H1157 C1122 0.950 . S
H1158 C1126 0.951 . S
H1159 C1127 0.950 . S
H1160 C1131 0.949 . S
H1161 C1132 0.950 . S
H1162 C1136 0.950 . S
H1163 C1138 0.950 . S
H1164 C1141 0.950 . S
H1165 C1143 0.950 . S
C1166 C1167 1.443 . S
C1166 N1170 1.376 . S
C1166 C1204 1.389 . S
C1167 C1166 1.443 . S
C1167 C1168 1.340 . S
C1167 H1207 0.951 . S
C1168 C1167 1.340 . S
C1168 C1169 1.439 . S
C1168 H1208 0.950 . S
C1169 C1168 1.439 . S
C1169 N1170 1.374 . S
C1169 C1203 1.395 . S
N1170 C1166 1.376 . S
N1170 C1169 1.374 . S
N1170 Co1171 2.008 . S
Co1171 N1170 2.008 . S
Co1171 N1172 1.995 . S
Co1171 N1177 2.008 . S
Co1171 N1182 1.995 . S
Co1171 N1187 2.282 . S
Co1171 N1193 2.282 . S
N1172 Co1171 1.995 . S
N1172 C1173 1.376 . S
N1172 C1176 1.383 . S
C1173 N1172 1.376 . S
C1173 C1174 1.446 . S
C1173 C1203 1.391 . S
C1174 C1173 1.446 . S
C1174 C1175 1.339 . S
C1174 H1209 0.949 . S
C1175 C1174 1.339 . S
C1175 C1176 1.439 . S
C1175 H1210 0.950 . S
C1176 N1172 1.383 . S
C1176 C1175 1.439 . S
C1176 C1205 1.392 . S
N1177 Co1171 2.008 . S
N1177 C1178 1.376 . S
N1177 C1181 1.374 . S
C1178 N1177 1.376 . S
C1178 C1179 1.443 . S
C1178 C1205 1.389 . S
C1179 C1178 1.443 . S
C1179 C1180 1.340 . S
C1179 H1211 0.951 . S
C1180 C1179 1.340 . S
C1180 C1181 1.439 . S
C1180 H1212 0.950 . S
C1181 N1177 1.374 . S
C1181 C1180 1.439 . S
C1181 C1206 1.395 . S
N1182 Co1171 1.995 . S
N1182 C1183 1.376 . S
N1182 C1186 1.383 . S
C1183 N1182 1.376 . S
C1183 C1184 1.446 . S
C1183 C1206 1.391 . S
C1184 C1183 1.446 . S
C1184 C1185 1.339 . S
C1184 H1213 0.949 . S
C1185 C1184 1.339 . S
C1185 C1186 1.439 . S
C1185 H1214 0.950 . S
C1186 N1182 1.383 . S
C1186 C1185 1.439 . S
C1186 C1204 1.392 . S
N1187 Co1171 2.282 . S
N1187 C1190 1.332 . S
N1187 C1192 1.332 . S
C1188 C1189 1.386 . S
C1188 C1191 1.388 . S
C1189 C1188 1.386 . S
C1189 C1190 1.382 . S
C1189 H1215 0.950 . S
C1190 N1187 1.332 . S
C1190 C1189 1.382 . S
C1190 H1201 0.952 . S
C1191 C1188 1.388 . S
C1191 C1192 1.382 . S
C1191 H1216 0.950 . S
C1192 N1187 1.332 . S
C1192 C1191 1.382 . S
C1192 H1202 0.948 . S
N1193 Co1171 2.282 . S
N1193 C1197 1.332 . S
N1193 C1198 1.332 . S
C1194 C1195 1.388 . S
C1194 C1198 1.382 . S
C1194 H1217 0.950 . S
C1195 C1194 1.388 . S
C1195 C1196 1.386 . S
C1196 C1195 1.386 . S
C1196 C1197 1.382 . S
C1196 H1218 0.950 . S
C1197 N1193 1.332 . S
C1197 C1196 1.382 . S
C1197 H1199 0.952 . S
C1198 N1193 1.332 . S
C1198 C1194 1.382 . S
C1198 H1200 0.948 . S
H1199 C1197 0.952 . S
H1200 C1198 0.948 . S
H1201 C1190 0.952 . S
H1202 C1192 0.948 . S
C1203 C1169 1.395 . S
C1203 C1173 1.391 . S
C1204 C1166 1.389 . S
C1204 C1186 1.392 . S
C1205 C1176 1.392 . S
C1205 C1178 1.389 . S
C1206 C1181 1.395 . S
C1206 C1183 1.391 . S
H1207 C1167 0.951 . S
H1208 C1168 0.950 . S
H1209 C1174 0.949 . S
H1210 C1175 0.950 . S
H1211 C1179 0.951 . S
H1212 C1180 0.950 . S
H1213 C1184 0.949 . S
H1214 C1185 0.950 . S
H1215 C1189 0.950 . S
H1216 C1191 0.950 . S
H1217 C1194 0.950 . S
H1218 C1196 0.950 . S
C1219 C1220 1.443 . S
C1219 N1223 1.376 . S
C1219 C1257 1.389 . S
C1220 C1219 1.443 . S
C1220 C1221 1.340 . S
C1220 H1260 0.951 . S
C1221 C1220 1.340 . S
C1221 C1222 1.439 . S
C1221 H1261 0.950 . S
C1222 C1221 1.439 . S
C1222 N1223 1.374 . S
C1222 C1256 1.395 . S
N1223 C1219 1.376 . S
N1223 C1222 1.374 . S
N1223 Co1224 2.008 . S
Co1224 N1223 2.008 . S
Co1224 N1225 1.995 . S
Co1224 N1230 2.008 . S
Co1224 N1235 1.995 . S
Co1224 N1240 2.282 . S
Co1224 N1246 2.282 . S
N1225 Co1224 1.995 . S
N1225 C1226 1.376 . S
N1225 C1229 1.383 . S
C1226 N1225 1.376 . S
C1226 C1227 1.446 . S
C1226 C1256 1.391 . S
C1227 C1226 1.446 . S
C1227 C1228 1.339 . S
C1227 H1262 0.949 . S
C1228 C1227 1.339 . S
C1228 C1229 1.439 . S
C1228 H1263 0.950 . S
C1229 N1225 1.383 . S
C1229 C1228 1.439 . S
C1229 C1258 1.392 . S
N1230 Co1224 2.008 . S
N1230 C1231 1.376 . S
N1230 C1234 1.374 . S
C1231 N1230 1.376 . S
C1231 C1232 1.443 . S
C1231 C1258 1.389 . S
C1232 C1231 1.443 . S
C1232 C1233 1.340 . S
C1232 H1264 0.951 . S
C1233 C1232 1.340 . S
C1233 C1234 1.439 . S
C1233 H1265 0.950 . S
C1234 N1230 1.374 . S
C1234 C1233 1.439 . S
C1234 C1259 1.395 . S
N1235 Co1224 1.995 . S
N1235 C1236 1.376 . S
N1235 C1239 1.383 . S
C1236 N1235 1.376 . S
C1236 C1237 1.446 . S
C1236 C1259 1.391 . S
C1237 C1236 1.446 . S
C1237 C1238 1.339 . S
C1237 H1266 0.949 . S
C1238 C1237 1.339 . S
C1238 C1239 1.439 . S
C1238 H1267 0.950 . S
C1239 N1235 1.383 . S
C1239 C1238 1.439 . S
C1239 C1257 1.392 . S
N1240 Co1224 2.282 . S
N1240 C1243 1.332 . S
N1240 C1245 1.332 . S
C1241 C1242 1.386 . S
C1241 C1244 1.388 . S
C1242 C1241 1.386 . S
C1242 C1243 1.382 . S
C1242 H1268 0.950 . S
C1243 N1240 1.332 . S
C1243 C1242 1.382 . S
C1243 H1254 0.952 . S
C1244 C1241 1.388 . S
C1244 C1245 1.382 . S
C1244 H1269 0.950 . S
C1245 N1240 1.332 . S
C1245 C1244 1.382 . S
C1245 H1255 0.948 . S
N1246 Co1224 2.282 . S
N1246 C1250 1.332 . S
N1246 C1251 1.332 . S
C1247 C1248 1.388 . S
C1247 C1251 1.382 . S
C1247 H1270 0.950 . S
C1248 C1247 1.388 . S
C1248 C1249 1.386 . S
C1249 C1248 1.386 . S
C1249 C1250 1.382 . S
C1249 H1271 0.950 . S
C1250 N1246 1.332 . S
C1250 C1249 1.382 . S
C1250 H1252 0.952 . S
C1251 N1246 1.332 . S
C1251 C1247 1.382 . S
C1251 H1253 0.948 . S
H1252 C1250 0.952 . S
H1253 C1251 0.948 . S
H1254 C1243 0.952 . S
H1255 C1245 0.948 . S
C1256 C1222 1.395 . S
C1256 C1226 1.391 . S
C1257 C1219 1.389 . S
C1257 C1239 1.392 . S
C1258 C1229 1.392 . S
C1258 C1231 1.389 . S
C1259 C1234 1.395 . S
C1259 C1236 1.391 . S
H1260 C1220 0.951 . S
H1261 C1221 0.950 . S
H1262 C1227 0.949 . S
H1263 C1228 0.950 . S
H1264 C1232 0.951 . S
H1265 C1233 0.950 . S
H1266 C1237 0.949 . S
H1267 C1238 0.950 . S
H1268 C1242 0.950 . S
H1269 C1244 0.950 . S
H1270 C1247 0.950 . S
H1271 C1249 0.950 . S
H1272 C1284 0.930 . S
H1273 C1286 0.930 . S
H1274 C1287 0.930 . S
H1275 C1291 0.959 . S
H1276 C1291 0.959 . S
H1277 C1291 0.961 . S
H1278 C1292 0.960 . S
H1279 C1292 0.961 . S
H1280 C1292 0.959 . S
H1281 C1295 0.929 . S
H1282 C1296 0.931 . S
H1283 C1298 0.930 . S
C1284 H1272 0.930 . S
C1284 C1285 1.399 . S
C1284 C1289 1.399 . S
C1285 C1284 1.399 . S
C1285 C1286 1.376 . S
C1286 H1273 0.930 . S
C1286 C1285 1.376 . S
C1286 C1287 1.388 . S
C1287 H1274 0.930 . S
C1287 C1286 1.388 . S
C1287 C1288 1.390 . S
C1288 C1287 1.390 . S
C1288 C1289 1.394 . S
C1288 C1294 1.465 . S
C1289 C1284 1.399 . S
C1289 C1288 1.394 . S
C1289 C1290 1.516 . S
C1290 C1289 1.516 . S
C1290 C1291 1.502 . S
C1290 C1292 1.561 . S
C1290 C1293 1.526 . S
C1291 H1275 0.959 . S
C1291 H1276 0.959 . S
C1291 H1277 0.961 . S
C1291 C1290 1.502 . S
C1292 H1278 0.960 . S
C1292 H1279 0.961 . S
C1292 H1280 0.959 . S
C1292 C1290 1.561 . S
C1293 C1290 1.526 . S
C1293 C1294 1.396 . S
C1293 C1298 1.390 . S
C1294 C1288 1.465 . S
C1294 C1293 1.396 . S
C1294 C1295 1.399 . S
C1295 H1281 0.929 . S
C1295 C1294 1.399 . S
C1295 C1296 1.385 . S
C1296 H1282 0.931 . S
C1296 C1295 1.385 . S
C1296 C1297 1.389 . S
C1297 C1296 1.389 . S
C1297 C1298 1.387 . S
C1298 H1283 0.930 . S
C1298 C1293 1.390 . S
C1298 C1297 1.387 . S
H1299 C1311 0.930 . S
H1300 C1313 0.930 . S
H1301 C1314 0.930 . S
H1302 C1318 0.959 . S
H1303 C1318 0.959 . S
H1304 C1318 0.961 . S
H1305 C1319 0.960 . S
H1306 C1319 0.961 . S
H1307 C1319 0.959 . S
H1308 C1322 0.929 . S
H1309 C1323 0.931 . S
H1310 C1325 0.930 . S
C1311 H1299 0.930 . S
C1311 C1312 1.399 . S
C1311 C1316 1.399 . S
C1312 C1311 1.399 . S
C1312 C1313 1.376 . S
C1313 H1300 0.930 . S
C1313 C1312 1.376 . S
C1313 C1314 1.388 . S
C1314 H1301 0.930 . S
C1314 C1313 1.388 . S
C1314 C1315 1.390 . S
C1315 C1314 1.390 . S
C1315 C1316 1.394 . S
C1315 C1321 1.465 . S
C1316 C1311 1.399 . S
C1316 C1315 1.394 . S
C1316 C1317 1.516 . S
C1317 C1316 1.516 . S
C1317 C1318 1.502 . S
C1317 C1319 1.561 . S
C1317 C1320 1.526 . S
C1318 H1302 0.959 . S
C1318 H1303 0.959 . S
C1318 H1304 0.961 . S
C1318 C1317 1.502 . S
C1319 H1305 0.960 . S
C1319 H1306 0.961 . S
C1319 H1307 0.959 . S
C1319 C1317 1.561 . S
C1320 C1317 1.526 . S
C1320 C1321 1.396 . S
C1320 C1325 1.390 . S
C1321 C1315 1.465 . S
C1321 C1320 1.396 . S
C1321 C1322 1.399 . S
C1322 H1308 0.929 . S
C1322 C1321 1.399 . S
C1322 C1323 1.385 . S
C1323 H1309 0.931 . S
C1323 C1322 1.385 . S
C1323 C1324 1.389 . S
C1324 C1323 1.389 . S
C1324 C1325 1.387 . S
C1325 H1310 0.930 . S
C1325 C1320 1.390 . S
C1325 C1324 1.387 . S
H1326 C1338 0.930 . S
H1327 C1340 0.930 . S
H1328 C1341 0.930 . S
H1329 C1345 0.959 . S
H1330 C1345 0.959 . S
H1331 C1345 0.961 . S
H1332 C1346 0.960 . S
H1333 C1346 0.961 . S
H1334 C1346 0.959 . S
H1335 C1349 0.929 . S
H1336 C1350 0.931 . S
H1337 C1352 0.930 . S
C1338 H1326 0.930 . S
C1338 C1339 1.399 . S
C1338 C1343 1.399 . S
C1339 C1338 1.399 . S
C1339 C1340 1.376 . S
C1340 H1327 0.930 . S
C1340 C1339 1.376 . S
C1340 C1341 1.388 . S
C1341 H1328 0.930 . S
C1341 C1340 1.388 . S
C1341 C1342 1.390 . S
C1342 C1341 1.390 . S
C1342 C1343 1.394 . S
C1342 C1348 1.465 . S
C1343 C1338 1.399 . S
C1343 C1342 1.394 . S
C1343 C1344 1.516 . S
C1344 C1343 1.516 . S
C1344 C1345 1.502 . S
C1344 C1346 1.561 . S
C1344 C1347 1.526 . S
C1345 H1329 0.959 . S
C1345 H1330 0.959 . S
C1345 H1331 0.961 . S
C1345 C1344 1.502 . S
C1346 H1332 0.960 . S
C1346 H1333 0.961 . S
C1346 H1334 0.959 . S
C1346 C1344 1.561 . S
C1347 C1344 1.526 . S
C1347 C1348 1.396 . S
C1347 C1352 1.390 . S
C1348 C1342 1.465 . S
C1348 C1347 1.396 . S
C1348 C1349 1.399 . S
C1349 H1335 0.929 . S
C1349 C1348 1.399 . S
C1349 C1350 1.385 . S
C1350 H1336 0.931 . S
C1350 C1349 1.385 . S
C1350 C1351 1.389 . S
C1351 C1350 1.389 . S
C1351 C1352 1.387 . S
C1352 H1337 0.930 . S
C1352 C1347 1.390 . S
C1352 C1351 1.387 . S
H1353 C1365 0.930 . S
H1354 C1367 0.930 . S
H1355 C1368 0.930 . S
H1356 C1372 0.959 . S
H1357 C1372 0.959 . S
H1358 C1372 0.961 . S
H1359 C1373 0.960 . S
H1360 C1373 0.961 . S
H1361 C1373 0.959 . S
H1362 C1376 0.929 . S
H1363 C1377 0.931 . S
H1364 C1379 0.930 . S
C1365 H1353 0.930 . S
C1365 C1366 1.399 . S
C1365 C1370 1.399 . S
C1366 C1365 1.399 . S
C1366 C1367 1.376 . S
C1367 H1354 0.930 . S
C1367 C1366 1.376 . S
C1367 C1368 1.388 . S
C1368 H1355 0.930 . S
C1368 C1367 1.388 . S
C1368 C1369 1.390 . S
C1369 C1368 1.390 . S
C1369 C1370 1.394 . S
C1369 C1375 1.465 . S
C1370 C1365 1.399 . S
C1370 C1369 1.394 . S
C1370 C1371 1.516 . S
C1371 C1370 1.516 . S
C1371 C1372 1.502 . S
C1371 C1373 1.561 . S
C1371 C1374 1.526 . S
C1372 H1356 0.959 . S
C1372 H1357 0.959 . S
C1372 H1358 0.961 . S
C1372 C1371 1.502 . S
C1373 H1359 0.960 . S
C1373 H1360 0.961 . S
C1373 H1361 0.959 . S
C1373 C1371 1.561 . S
C1374 C1371 1.526 . S
C1374 C1375 1.396 . S
C1374 C1379 1.390 . S
C1375 C1369 1.465 . S
C1375 C1374 1.396 . S
C1375 C1376 1.399 . S
C1376 H1362 0.929 . S
C1376 C1375 1.399 . S
C1376 C1377 1.385 . S
C1377 H1363 0.931 . S
C1377 C1376 1.385 . S
C1377 C1378 1.389 . S
C1378 C1377 1.389 . S
C1378 C1379 1.387 . S
C1379 H1364 0.930 . S
C1379 C1374 1.390 . S
C1379 C1378 1.387 . S
H1380 C1392 0.930 . S
H1381 C1394 0.930 . S
H1382 C1395 0.930 . S
H1383 C1399 0.959 . S
H1384 C1399 0.959 . S
H1385 C1399 0.961 . S
H1386 C1400 0.960 . S
H1387 C1400 0.961 . S
H1388 C1400 0.959 . S
H1389 C1403 0.929 . S
H1390 C1404 0.931 . S
H1391 C1406 0.930 . S
C1392 H1380 0.930 . S
C1392 C1393 1.399 . S
C1392 C1397 1.399 . S
C1393 C1392 1.399 . S
C1393 C1394 1.376 . S
C1394 H1381 0.930 . S
C1394 C1393 1.376 . S
C1394 C1395 1.388 . S
C1395 H1382 0.930 . S
C1395 C1394 1.388 . S
C1395 C1396 1.390 . S
C1396 C1395 1.390 . S
C1396 C1397 1.394 . S
C1396 C1402 1.465 . S
C1397 C1392 1.399 . S
C1397 C1396 1.394 . S
C1397 C1398 1.516 . S
C1398 C1397 1.516 . S
C1398 C1399 1.502 . S
C1398 C1400 1.561 . S
C1398 C1401 1.526 . S
C1399 H1383 0.959 . S
C1399 H1384 0.959 . S
C1399 H1385 0.961 . S
C1399 C1398 1.502 . S
C1400 H1386 0.960 . S
C1400 H1387 0.961 . S
C1400 H1388 0.959 . S
C1400 C1398 1.561 . S
C1401 C1398 1.526 . S
C1401 C1402 1.396 . S
C1401 C1406 1.390 . S
C1402 C1396 1.465 . S
C1402 C1401 1.396 . S
C1402 C1403 1.399 . S
C1403 H1389 0.929 . S
C1403 C1402 1.399 . S
C1403 C1404 1.385 . S
C1404 H1390 0.931 . S
C1404 C1403 1.385 . S
C1404 C1405 1.389 . S
C1405 C1404 1.389 . S
C1405 C1406 1.387 . S
C1406 H1391 0.930 . S
C1406 C1401 1.390 . S
C1406 C1405 1.387 . S
H1407 C1419 0.930 . S
H1408 C1421 0.930 . S
H1409 C1422 0.930 . S
H1410 C1426 0.959 . S
H1411 C1426 0.959 . S
H1412 C1426 0.961 . S
H1413 C1427 0.960 . S
H1414 C1427 0.961 . S
H1415 C1427 0.959 . S
H1416 C1430 0.929 . S
H1417 C1431 0.931 . S
H1418 C1433 0.930 . S
C1419 H1407 0.930 . S
C1419 C1420 1.399 . S
C1419 C1424 1.399 . S
C1420 C1419 1.399 . S
C1420 C1421 1.376 . S
C1421 H1408 0.930 . S
C1421 C1420 1.376 . S
C1421 C1422 1.388 . S
C1422 H1409 0.930 . S
C1422 C1421 1.388 . S
C1422 C1423 1.390 . S
C1423 C1422 1.390 . S
C1423 C1424 1.394 . S
C1423 C1429 1.465 . S
C1424 C1419 1.399 . S
C1424 C1423 1.394 . S
C1424 C1425 1.516 . S
C1425 C1424 1.516 . S
C1425 C1426 1.502 . S
C1425 C1427 1.561 . S
C1425 C1428 1.526 . S
C1426 H1410 0.959 . S
C1426 H1411 0.959 . S
C1426 H1412 0.961 . S
C1426 C1425 1.502 . S
C1427 H1413 0.960 . S
C1427 H1414 0.961 . S
C1427 H1415 0.959 . S
C1427 C1425 1.561 . S
C1428 C1425 1.526 . S
C1428 C1429 1.396 . S
C1428 C1433 1.390 . S
C1429 C1423 1.465 . S
C1429 C1428 1.396 . S
C1429 C1430 1.399 . S
C1430 H1416 0.929 . S
C1430 C1429 1.399 . S
C1430 C1431 1.385 . S
C1431 H1417 0.931 . S
C1431 C1430 1.385 . S
C1431 C1432 1.389 . S
C1432 C1431 1.389 . S
C1432 C1433 1.387 . S
C1433 H1418 0.930 . S
C1433 C1428 1.390 . S
C1433 C1432 1.387 . S
H1434 C1446 0.930 . S
H1435 C1448 0.930 . S
H1436 C1449 0.930 . S
H1437 C1453 0.959 . S
H1438 C1453 0.959 . S
H1439 C1453 0.961 . S
H1440 C1454 0.960 . S
H1441 C1454 0.961 . S
H1442 C1454 0.959 . S
H1443 C1457 0.929 . S
H1444 C1458 0.931 . S
H1445 C1460 0.930 . S
C1446 H1434 0.930 . S
C1446 C1447 1.399 . S
C1446 C1451 1.399 . S
C1447 C1446 1.399 . S
C1447 C1448 1.376 . S
C1448 H1435 0.930 . S
C1448 C1447 1.376 . S
C1448 C1449 1.388 . S
C1449 H1436 0.930 . S
C1449 C1448 1.388 . S
C1449 C1450 1.390 . S
C1450 C1449 1.390 . S
C1450 C1451 1.394 . S
C1450 C1456 1.465 . S
C1451 C1446 1.399 . S
C1451 C1450 1.394 . S
C1451 C1452 1.516 . S
C1452 C1451 1.516 . S
C1452 C1453 1.502 . S
C1452 C1454 1.561 . S
C1452 C1455 1.526 . S
C1453 H1437 0.959 . S
C1453 H1438 0.959 . S
C1453 H1439 0.961 . S
C1453 C1452 1.502 . S
C1454 H1440 0.960 . S
C1454 H1441 0.961 . S
C1454 H1442 0.959 . S
C1454 C1452 1.561 . S
C1455 C1452 1.526 . S
C1455 C1456 1.396 . S
C1455 C1460 1.390 . S
C1456 C1450 1.465 . S
C1456 C1455 1.396 . S
C1456 C1457 1.399 . S
C1457 H1443 0.929 . S
C1457 C1456 1.399 . S
C1457 C1458 1.385 . S
C1458 H1444 0.931 . S
C1458 C1457 1.385 . S
C1458 C1459 1.389 . S
C1459 C1458 1.389 . S
C1459 C1460 1.387 . S
C1460 H1445 0.930 . S
C1460 C1455 1.390 . S
C1460 C1459 1.387 . S
H1461 C1473 0.930 . S
H1462 C1475 0.930 . S
H1463 C1476 0.930 . S
H1464 C1480 0.959 . S
H1465 C1480 0.959 . S
H1466 C1480 0.961 . S
H1467 C1481 0.960 . S
H1468 C1481 0.961 . S
H1469 C1481 0.959 . S
H1470 C1484 0.929 . S
H1471 C1485 0.931 . S
H1472 C1487 0.930 . S
C1473 H1461 0.930 . S
C1473 C1474 1.399 . S
C1473 C1478 1.399 . S
C1474 C1473 1.399 . S
C1474 C1475 1.376 . S
C1475 H1462 0.930 . S
C1475 C1474 1.376 . S
C1475 C1476 1.388 . S
C1476 H1463 0.930 . S
C1476 C1475 1.388 . S
C1476 C1477 1.390 . S
C1477 C1476 1.390 . S
C1477 C1478 1.394 . S
C1477 C1483 1.465 . S
C1478 C1473 1.399 . S
C1478 C1477 1.394 . S
C1478 C1479 1.516 . S
C1479 C1478 1.516 . S
C1479 C1480 1.502 . S
C1479 C1481 1.561 . S
C1479 C1482 1.526 . S
C1480 H1464 0.959 . S
C1480 H1465 0.959 . S
C1480 H1466 0.961 . S
C1480 C1479 1.502 . S
C1481 H1467 0.960 . S
C1481 H1468 0.961 . S
C1481 H1469 0.959 . S
C1481 C1479 1.561 . S
C1482 C1479 1.526 . S
C1482 C1483 1.396 . S
C1482 C1487 1.390 . S
C1483 C1477 1.465 . S
C1483 C1482 1.396 . S
C1483 C1484 1.399 . S
C1484 H1470 0.929 . S
C1484 C1483 1.399 . S
C1484 C1485 1.385 . S
C1485 H1471 0.931 . S
C1485 C1484 1.385 . S
C1485 C1486 1.389 . S
C1486 C1485 1.389 . S
C1486 C1487 1.387 . S
C1487 H1472 0.930 . S
C1487 C1482 1.390 . S
C1487 C1486 1.387 . S
H1488 C1500 0.930 . S
H1489 C1502 0.930 . S
H1490 C1503 0.930 . S
H1491 C1507 0.959 . S
H1492 C1507 0.959 . S
H1493 C1507 0.961 . S
H1494 C1508 0.960 . S
H1495 C1508 0.961 . S
H1496 C1508 0.959 . S
H1497 C1511 0.929 . S
H1498 C1512 0.931 . S
H1499 C1514 0.930 . S
C1500 H1488 0.930 . S
C1500 C1501 1.399 . S
C1500 C1505 1.399 . S
C1501 C1500 1.399 . S
C1501 C1502 1.376 . S
C1502 H1489 0.930 . S
C1502 C1501 1.376 . S
C1502 C1503 1.388 . S
C1503 H1490 0.930 . S
C1503 C1502 1.388 . S
C1503 C1504 1.390 . S
C1504 C1503 1.390 . S
C1504 C1505 1.394 . S
C1504 C1510 1.465 . S
C1505 C1500 1.399 . S
C1505 C1504 1.394 . S
C1505 C1506 1.516 . S
C1506 C1505 1.516 . S
C1506 C1507 1.502 . S
C1506 C1508 1.561 . S
C1506 C1509 1.526 . S
C1507 H1491 0.959 . S
C1507 H1492 0.959 . S
C1507 H1493 0.961 . S
C1507 C1506 1.502 . S
C1508 H1494 0.960 . S
C1508 H1495 0.961 . S
C1508 H1496 0.959 . S
C1508 C1506 1.561 . S
C1509 C1506 1.526 . S
C1509 C1510 1.396 . S
C1509 C1514 1.390 . S
C1510 C1504 1.465 . S
C1510 C1509 1.396 . S
C1510 C1511 1.399 . S
C1511 H1497 0.929 . S
C1511 C1510 1.399 . S
C1511 C1512 1.385 . S
C1512 H1498 0.931 . S
C1512 C1511 1.385 . S
C1512 C1513 1.389 . S
C1513 C1512 1.389 . S
C1513 C1514 1.387 . S
C1514 H1499 0.930 . S
C1514 C1509 1.390 . S
C1514 C1513 1.387 . S
H1515 C1527 0.930 . S
H1516 C1529 0.930 . S
H1517 C1530 0.930 . S
H1518 C1534 0.959 . S
H1519 C1534 0.959 . S
H1520 C1534 0.961 . S
H1521 C1535 0.960 . S
H1522 C1535 0.961 . S
H1523 C1535 0.959 . S
H1524 C1538 0.929 . S
H1525 C1539 0.931 . S
H1526 C1541 0.930 . S
C1527 H1515 0.930 . S
C1527 C1528 1.399 . S
C1527 C1532 1.399 . S
C1528 C1527 1.399 . S
C1528 C1529 1.376 . S
C1529 H1516 0.930 . S
C1529 C1528 1.376 . S
C1529 C1530 1.388 . S
C1530 H1517 0.930 . S
C1530 C1529 1.388 . S
C1530 C1531 1.390 . S
C1531 C1530 1.390 . S
C1531 C1532 1.394 . S
C1531 C1537 1.465 . S
C1532 C1527 1.399 . S
C1532 C1531 1.394 . S
C1532 C1533 1.516 . S
C1533 C1532 1.516 . S
C1533 C1534 1.502 . S
C1533 C1535 1.561 . S
C1533 C1536 1.526 . S
C1534 H1518 0.959 . S
C1534 H1519 0.959 . S
C1534 H1520 0.961 . S
C1534 C1533 1.502 . S
C1535 H1521 0.960 . S
C1535 H1522 0.961 . S
C1535 H1523 0.959 . S
C1535 C1533 1.561 . S
C1536 C1533 1.526 . S
C1536 C1537 1.396 . S
C1536 C1541 1.390 . S
C1537 C1531 1.465 . S
C1537 C1536 1.396 . S
C1537 C1538 1.399 . S
C1538 H1524 0.929 . S
C1538 C1537 1.399 . S
C1538 C1539 1.385 . S
C1539 H1525 0.931 . S
C1539 C1538 1.385 . S
C1539 C1540 1.389 . S
C1540 C1539 1.389 . S
C1540 C1541 1.387 . S
C1541 H1526 0.930 . S
C1541 C1536 1.390 . S
C1541 C1540 1.387 . S
H1542 C1554 0.930 . S
H1543 C1556 0.930 . S
H1544 C1557 0.930 . S
H1545 C1561 0.959 . S
H1546 C1561 0.959 . S
H1547 C1561 0.961 . S
H1548 C1562 0.960 . S
H1549 C1562 0.961 . S
H1550 C1562 0.959 . S
H1551 C1565 0.929 . S
H1552 C1566 0.931 . S
H1553 C1568 0.930 . S
C1554 H1542 0.930 . S
C1554 C1555 1.399 . S
C1554 C1559 1.399 . S
C1555 C1554 1.399 . S
C1555 C1556 1.376 . S
C1556 H1543 0.930 . S
C1556 C1555 1.376 . S
C1556 C1557 1.388 . S
C1557 H1544 0.930 . S
C1557 C1556 1.388 . S
C1557 C1558 1.390 . S
C1558 C1557 1.390 . S
C1558 C1559 1.394 . S
C1558 C1564 1.465 . S
C1559 C1554 1.399 . S
C1559 C1558 1.394 . S
C1559 C1560 1.516 . S
C1560 C1559 1.516 . S
C1560 C1561 1.502 . S
C1560 C1562 1.561 . S
C1560 C1563 1.526 . S
C1561 H1545 0.959 . S
C1561 H1546 0.959 . S
C1561 H1547 0.961 . S
C1561 C1560 1.502 . S
C1562 H1548 0.960 . S
C1562 H1549 0.961 . S
C1562 H1550 0.959 . S
C1562 C1560 1.561 . S
C1563 C1560 1.526 . S
C1563 C1564 1.396 . S
C1563 C1568 1.390 . S
C1564 C1558 1.465 . S
C1564 C1563 1.396 . S
C1564 C1565 1.399 . S
C1565 H1551 0.929 . S
C1565 C1564 1.399 . S
C1565 C1566 1.385 . S
C1566 H1552 0.931 . S
C1566 C1565 1.385 . S
C1566 C1567 1.389 . S
C1567 C1566 1.389 . S
C1567 C1568 1.387 . S
C1568 H1553 0.930 . S
C1568 C1563 1.390 . S
C1568 C1567 1.387 . S
H1569 C1581 0.930 . S
H1570 C1583 0.930 . S
H1571 C1584 0.930 . S
H1572 C1588 0.959 . S
H1573 C1588 0.959 . S
H1574 C1588 0.961 . S
H1575 C1589 0.960 . S
H1576 C1589 0.961 . S
H1577 C1589 0.959 . S
H1578 C1592 0.929 . S
H1579 C1593 0.931 . S
H1580 C1595 0.930 . S
C1581 H1569 0.930 . S
C1581 C1582 1.399 . S
C1581 C1586 1.399 . S
C1582 C1581 1.399 . S
C1582 C1583 1.376 . S
C1583 H1570 0.930 . S
C1583 C1582 1.376 . S
C1583 C1584 1.388 . S
C1584 H1571 0.930 . S
C1584 C1583 1.388 . S
C1584 C1585 1.390 . S
C1585 C1584 1.390 . S
C1585 C1586 1.394 . S
C1585 C1591 1.465 . S
C1586 C1581 1.399 . S
C1586 C1585 1.394 . S
C1586 C1587 1.516 . S
C1587 C1586 1.516 . S
C1587 C1588 1.502 . S
C1587 C1589 1.561 . S
C1587 C1590 1.526 . S
C1588 H1572 0.959 . S
C1588 H1573 0.959 . S
C1588 H1574 0.961 . S
C1588 C1587 1.502 . S
C1589 H1575 0.960 . S
C1589 H1576 0.961 . S
C1589 H1577 0.959 . S
C1589 C1587 1.561 . S
C1590 C1587 1.526 . S
C1590 C1591 1.396 . S
C1590 C1595 1.390 . S
C1591 C1585 1.465 . S
C1591 C1590 1.396 . S
C1591 C1592 1.399 . S
C1592 H1578 0.929 . S
C1592 C1591 1.399 . S
C1592 C1593 1.385 . S
C1593 H1579 0.931 . S
C1593 C1592 1.385 . S
C1593 C1594 1.389 . S
C1594 C1593 1.389 . S
C1594 C1595 1.387 . S
C1595 H1580 0.930 . S
C1595 C1590 1.390 . S
C1595 C1594 1.387 . S
H1596 C1608 0.930 . S
H1597 C1610 0.930 . S
H1598 C1611 0.930 . S
H1599 C1615 0.959 . S
H1600 C1615 0.959 . S
H1601 C1615 0.961 . S
H1602 C1616 0.960 . S
H1603 C1616 0.961 . S
H1604 C1616 0.959 . S
H1605 C1619 0.929 . S
H1606 C1620 0.931 . S
H1607 C1622 0.930 . S
C1608 H1596 0.930 . S
C1608 C1609 1.399 . S
C1608 C1613 1.399 . S
C1609 C1608 1.399 . S
C1609 C1610 1.376 . S
C1610 H1597 0.930 . S
C1610 C1609 1.376 . S
C1610 C1611 1.388 . S
C1611 H1598 0.930 . S
C1611 C1610 1.388 . S
C1611 C1612 1.390 . S
C1612 C1611 1.390 . S
C1612 C1613 1.394 . S
C1612 C1618 1.465 . S
C1613 C1608 1.399 . S
C1613 C1612 1.394 . S
C1613 C1614 1.516 . S
C1614 C1613 1.516 . S
C1614 C1615 1.502 1_565 S
C1614 C1616 1.561 . S
C1614 C1617 1.520 1_565 S
C1615 H1599 0.959 . S
C1615 H1600 0.959 . S
C1615 H1601 0.961 . S
C1615 C1614 1.502 1_545 S
C1616 H1602 0.960 . S
C1616 H1603 0.961 . S
C1616 H1604 0.959 . S
C1616 C1614 1.561 . S
C1617 C1614 1.520 1_545 S
C1617 C1618 1.386 1_545 S
C1617 C1622 1.403 . S
C1618 C1612 1.465 . S
C1618 C1617 1.386 1_565 S
C1618 C1619 1.399 . S
C1619 H1605 0.929 . S
C1619 C1618 1.399 . S
C1619 C1620 1.385 1_565 S
C1620 H1606 0.931 . S
C1620 C1619 1.385 1_545 S
C1620 C1621 1.389 . S
C1621 C1620 1.389 . S
C1621 C1622 1.387 . S
C1622 H1607 0.930 . S
C1622 C1617 1.403 . S
C1622 C1621 1.387 . S
H1623 C1635 0.930 . S
H1624 C1637 0.930 . S
H1625 C1638 0.930 . S
H1626 C1642 0.959 . S
H1627 C1642 0.959 . S
H1628 C1642 0.961 . S
H1629 C1643 0.960 . S
H1630 C1643 0.961 . S
H1631 C1643 0.959 . S
H1632 C1646 0.929 . S
H1633 C1647 0.931 . S
H1634 C1649 0.921 1_655 S
C1635 H1623 0.930 . S
C1635 C1636 1.399 . S
C1635 C1640 1.399 . S
C1636 C1635 1.399 . S
C1636 C1637 1.376 . S
C1637 H1624 0.930 . S
C1637 C1636 1.376 . S
C1637 C1638 1.388 . S
C1638 H1625 0.930 . S
C1638 C1637 1.388 . S
C1638 C1639 1.390 . S
C1639 C1638 1.390 . S
C1639 C1640 1.394 . S
C1639 C1645 1.465 . S
C1640 C1635 1.399 . S
C1640 C1639 1.394 . S
C1640 C1641 1.516 . S
C1641 C1640 1.516 . S
C1641 C1642 1.502 . S
C1641 C1643 1.561 . S
C1641 C1644 1.526 . S
C1642 H1626 0.959 . S
C1642 H1627 0.959 . S
C1642 H1628 0.961 . S
C1642 C1641 1.502 . S
C1643 H1629 0.960 . S
C1643 H1630 0.961 . S
C1643 H1631 0.959 . S
C1643 C1641 1.561 . S
C1644 C1641 1.526 . S
C1644 C1645 1.396 . S
C1644 C1649 1.362 1_655 S
C1645 C1639 1.465 . S
C1645 C1644 1.396 . S
C1645 C1646 1.399 1_655 S
C1646 H1632 0.929 . S
C1646 C1645 1.399 1_455 S
C1646 C1647 1.385 . S
C1647 H1633 0.931 . S
C1647 C1646 1.385 . S
C1647 C1648 1.389 . S
C1648 C1647 1.389 . S
C1648 C1649 1.425 . S
C1649 H1634 0.921 1_455 S
C1649 C1644 1.362 1_455 S
C1649 C1648 1.425 . S
H1650 C1662 0.930 . S
H1651 C1664 0.930 . S
H1652 C1665 0.930 . S
H1653 C1669 0.959 . S
H1654 C1669 0.959 . S
H1655 C1669 0.961 . S
H1656 C1670 0.959 . S
H1657 C1670 0.963 1_565 S
H1658 C1670 0.961 1_565 S
H1659 C1673 0.929 . S
H1660 C1674 0.930 1_565 S
H1661 C1676 0.930 . S
C1662 H1650 0.930 . S
C1662 C1663 1.399 . S
C1662 C1667 1.399 . S
C1663 C1662 1.399 . S
C1663 C1664 1.376 . S
C1664 H1651 0.930 . S
C1664 C1663 1.376 . S
C1664 C1665 1.388 . S
C1665 H1652 0.930 . S
C1665 C1664 1.388 . S
C1665 C1666 1.390 . S
C1666 C1665 1.390 . S
C1666 C1667 1.394 . S
C1666 C1672 1.465 . S
C1667 C1662 1.399 . S
C1667 C1666 1.394 . S
C1667 C1668 1.516 . S
C1668 C1667 1.516 . S
C1668 C1669 1.502 . S
C1668 C1670 1.558 . S
C1668 C1671 1.526 . S
C1669 H1653 0.959 . S
C1669 H1654 0.959 . S
C1669 H1655 0.961 . S
C1669 C1668 1.502 . S
C1670 H1656 0.959 . S
C1670 H1657 0.963 1_545 S
C1670 H1658 0.961 1_545 S
C1670 C1668 1.558 . S
C1671 C1668 1.526 . S
C1671 C1672 1.396 . S
C1671 C1676 1.390 1_545 S
C1672 C1666 1.465 . S
C1672 C1671 1.396 . S
C1672 C1673 1.399 . S
C1673 H1659 0.929 . S
C1673 C1672 1.399 . S
C1673 C1674 1.385 . S
C1674 H1660 0.930 1_545 S
C1674 C1673 1.385 . S
C1674 C1675 1.389 1_545 S
C1675 C1674 1.389 1_565 S
C1675 C1676 1.387 . S
C1676 H1661 0.930 . S
C1676 C1671 1.390 1_565 S
C1676 C1675 1.387 . S
H1677 C1689 0.930 . S
H1678 C1691 0.930 . S
H1679 C1692 0.930 . S
H1680 C1696 0.959 . S
H1681 C1696 0.959 . S
H1682 C1696 0.961 . S
H1683 C1697 0.960 . S
H1684 C1697 0.961 . S
H1685 C1697 0.959 . S
H1686 C1700 0.929 . S
H1687 C1701 0.931 . S
H1688 C1703 0.930 . S
C1689 H1677 0.930 . S
C1689 C1690 1.399 . S
C1689 C1694 1.399 . S
C1690 C1689 1.399 . S
C1690 C1691 1.376 . S
C1691 H1678 0.930 . S
C1691 C1690 1.376 . S
C1691 C1692 1.388 . S
C1692 H1679 0.930 . S
C1692 C1691 1.388 . S
C1692 C1693 1.390 . S
C1693 C1692 1.390 . S
C1693 C1694 1.394 . S
C1693 C1699 1.465 . S
C1694 C1689 1.399 . S
C1694 C1693 1.394 . S
C1694 C1695 1.516 . S
C1695 C1694 1.516 . S
C1695 C1696 1.502 1_455 S
C1695 C1697 1.561 . S
C1695 C1698 1.526 1_455 S
C1696 H1680 0.959 . S
C1696 H1681 0.959 . S
C1696 H1682 0.961 . S
C1696 C1695 1.502 1_655 S
C1697 H1683 0.960 . S
C1697 H1684 0.961 . S
C1697 H1685 0.959 . S
C1697 C1695 1.561 . S
C1698 C1695 1.526 1_655 S
C1698 C1699 1.396 1_655 S
C1698 C1703 1.390 . S
C1699 C1693 1.465 . S
C1699 C1698 1.396 1_455 S
C1699 C1700 1.399 . S
C1700 H1686 0.929 . S
C1700 C1699 1.399 . S
C1700 C1701 1.385 1_455 S
C1701 H1687 0.931 . S
C1701 C1700 1.385 1_655 S
C1701 C1702 1.389 . S
C1702 C1701 1.389 . S
C1702 C1703 1.387 . S
C1703 H1688 0.930 . S
C1703 C1698 1.390 . S
C1703 C1702 1.387 . S
H1704 C1716 0.930 . S
H1705 C1718 0.930 . S
H1706 C1719 0.927 1_565 S
H1707 C1723 0.959 . S
H1708 C1723 0.959 . S
H1709 C1723 0.961 . S
H1710 C1724 0.960 . S
H1711 C1724 0.961 . S
H1712 C1724 0.959 . S
H1713 C1727 0.929 . S
H1714 C1728 0.931 . S
H1715 C1730 0.930 . S
C1716 H1704 0.930 . S
C1716 C1717 1.399 1_545 S
C1716 C1721 1.399 . S
C1717 C1716 1.399 1_565 S
C1717 C1718 1.376 . S
C1718 H1705 0.930 . S
C1718 C1717 1.376 . S
C1718 C1719 1.388 1_565 S
C1719 H1706 0.927 1_545 S
C1719 C1718 1.388 1_545 S
C1719 C1720 1.390 . S
C1720 C1719 1.390 . S
C1720 C1721 1.394 . S
C1720 C1726 1.465 . S
C1721 C1716 1.399 . S
C1721 C1720 1.394 . S
C1721 C1722 1.516 . S
C1722 C1721 1.516 . S
C1722 C1723 1.502 . S
C1722 C1724 1.561 . S
C1722 C1725 1.526 . S
C1723 H1707 0.959 . S
C1723 H1708 0.959 . S
C1723 H1709 0.961 . S
C1723 C1722 1.502 . S
C1724 H1710 0.960 . S
C1724 H1711 0.961 . S
C1724 H1712 0.959 . S
C1724 C1722 1.561 . S
C1725 C1722 1.526 . S
C1725 C1726 1.396 . S
C1725 C1730 1.390 . S
C1726 C1720 1.465 . S
C1726 C1725 1.396 . S
C1726 C1727 1.399 . S
C1727 H1713 0.929 . S
C1727 C1726 1.399 . S
C1727 C1728 1.385 . S
C1728 H1714 0.931 . S
C1728 C1727 1.385 . S
C1728 C1729 1.389 . S
C1729 C1728 1.389 . S
C1729 C1730 1.387 . S
C1730 H1715 0.930 . S
C1730 C1725 1.390 . S
C1730 C1729 1.387 . S
H1731 C1743 0.930 . S
H1732 C1745 0.930 . S
H1733 C1746 0.930 . S
H1734 C1750 0.959 . S
H1735 C1750 0.959 . S
H1736 C1750 0.961 . S
H1737 C1751 0.960 . S
H1738 C1751 0.961 . S
H1739 C1751 0.956 1_655 S
H1740 C1754 0.929 . S
H1741 C1755 0.931 . S
H1742 C1757 0.930 . S
C1743 H1731 0.930 . S
C1743 C1744 1.399 . S
C1743 C1748 1.399 1_655 S
C1744 C1743 1.399 . S
C1744 C1745 1.376 . S
C1745 H1732 0.930 . S
C1745 C1744 1.376 . S
C1745 C1746 1.388 . S
C1746 H1733 0.930 . S
C1746 C1745 1.388 . S
C1746 C1747 1.390 1_655 S
C1747 C1746 1.390 1_455 S
C1747 C1748 1.394 . S
C1747 C1753 1.465 . S
C1748 C1743 1.399 1_455 S
C1748 C1747 1.394 . S
C1748 C1749 1.516 . S
C1749 C1748 1.516 . S
C1749 C1750 1.502 . S
C1749 C1751 1.561 . S
C1749 C1752 1.526 . S
C1750 H1734 0.959 . S
C1750 H1735 0.959 . S
C1750 H1736 0.961 . S
C1750 C1749 1.502 . S
C1751 H1737 0.960 . S
C1751 H1738 0.961 . S
C1751 H1739 0.956 1_455 S
C1751 C1749 1.561 . S
C1752 C1749 1.526 . S
C1752 C1753 1.396 . S
C1752 C1757 1.390 . S
C1753 C1747 1.465 . S
C1753 C1752 1.396 . S
C1753 C1754 1.399 . S
C1754 H1740 0.929 . S
C1754 C1753 1.399 . S
C1754 C1755 1.385 . S
C1755 H1741 0.931 . S
C1755 C1754 1.385 . S
C1755 C1756 1.389 . S
C1756 C1755 1.389 . S
C1756 C1757 1.387 . S
C1757 H1742 0.930 . S
C1757 C1752 1.390 . S
C1757 C1756 1.387 . S
H1758 C1770 0.930 . S
H1759 C1772 0.930 . S
H1760 C1773 0.930 1_545 S
H1761 C1777 0.959 . S
H1762 C1777 0.959 . S
H1763 C1777 0.961 . S
H1764 C1778 0.960 . S
H1765 C1778 0.961 . S
H1766 C1778 0.959 . S
H1767 C1781 0.929 . S
H1768 C1782 0.931 . S
H1769 C1784 0.930 1_565 S
C1770 H1758 0.930 . S
C1770 C1771 1.399 . S
C1770 C1775 1.399 . S
C1771 C1770 1.399 . S
C1771 C1772 1.376 . S
C1772 H1759 0.930 . S
C1772 C1771 1.376 . S
C1772 C1773 1.388 . S
C1773 H1760 0.930 1_565 S
C1773 C1772 1.388 . S
C1773 C1774 1.390 . S
C1774 C1773 1.390 . S
C1774 C1775 1.394 . S
C1774 C1780 1.465 1_565 S
C1775 C1770 1.399 . S
C1775 C1774 1.394 . S
C1775 C1776 1.516 . S
C1776 C1775 1.516 . S
C1776 C1777 1.502 . S
C1776 C1778 1.561 . S
C1776 C1779 1.526 . S
C1777 H1761 0.959 . S
C1777 H1762 0.959 . S
C1777 H1763 0.961 . S
C1777 C1776 1.502 . S
C1778 H1764 0.960 . S
C1778 H1765 0.961 . S
C1778 H1766 0.959 . S
C1778 C1776 1.561 . S
C1779 C1776 1.526 . S
C1779 C1780 1.396 1_565 S
C1779 C1784 1.390 1_565 S
C1780 C1774 1.465 1_545 S
C1780 C1779 1.396 1_545 S
C1780 C1781 1.399 . S
C1781 H1767 0.929 . S
C1781 C1780 1.399 . S
C1781 C1782 1.385 . S
C1782 H1768 0.931 . S
C1782 C1781 1.385 . S
C1782 C1783 1.389 . S
C1783 C1782 1.389 . S
C1783 C1784 1.387 . S
C1784 H1769 0.930 1_545 S
C1784 C1779 1.390 1_545 S
C1784 C1783 1.387 . S
H1785 C1797 0.930 1_655 S
H1786 C1799 0.930 . S
H1787 C1800 0.930 . S
H1788 C1804 0.959 . S
H1789 C1804 0.959 . S
H1790 C1804 0.961 . S
H1791 C1805 0.960 . S
H1792 C1805 0.961 . S
H1793 C1805 0.959 . S
H1794 C1808 0.929 1_455 S
H1795 C1809 0.931 . S
H1796 C1811 0.930 . S
C1797 H1785 0.930 1_455 S
C1797 C1798 1.399 . S
C1797 C1802 1.399 1_455 S
C1798 C1797 1.399 . S
C1798 C1799 1.376 . S
C1799 H1786 0.930 . S
C1799 C1798 1.376 . S
C1799 C1800 1.388 . S
C1800 H1787 0.930 . S
C1800 C1799 1.388 . S
C1800 C1801 1.390 . S
C1801 C1800 1.390 . S
C1801 C1802 1.394 1_455 S
C1801 C1807 1.465 1_455 S
C1802 C1797 1.399 1_655 S
C1802 C1801 1.394 1_655 S
C1802 C1803 1.516 . S
C1803 C1802 1.516 . S
C1803 C1804 1.502 . S
C1803 C1805 1.561 . S
C1803 C1806 1.526 . S
C1804 H1788 0.959 . S
C1804 H1789 0.959 . S
C1804 H1790 0.961 . S
C1804 C1803 1.502 . S
C1805 H1791 0.960 . S
C1805 H1792 0.961 . S
C1805 H1793 0.959 . S
C1805 C1803 1.561 . S
C1806 C1803 1.526 . S
C1806 C1807 1.396 . S
C1806 C1811 1.390 . S
C1807 C1801 1.465 1_655 S
C1807 C1806 1.396 . S
C1807 C1808 1.399 . S
C1808 H1794 0.929 1_655 S
C1808 C1807 1.399 . S
C1808 C1809 1.385 . S
C1809 H1795 0.931 . S
C1809 C1808 1.385 . S
C1809 C1810 1.389 . S
C1810 C1809 1.389 . S
C1810 C1811 1.387 . S
C1811 H1796 0.930 . S
C1811 C1806 1.390 . S
C1811 C1810 1.387 . S
H1812 C1824 0.930 . S
H1813 C1826 0.930 . S
H1814 C1827 0.930 . S
H1815 C1831 0.959 . S
H1816 C1831 0.959 . S
H1817 C1831 0.961 . S
H1818 C1832 0.960 . S
H1819 C1832 0.961 . S
H1820 C1832 0.959 . S
H1821 C1835 0.929 . S
H1822 C1836 0.931 . S
H1823 C1838 0.930 . S
C1824 H1812 0.930 . S
C1824 C1825 1.399 . S
C1824 C1829 1.399 . S
C1825 C1824 1.399 . S
C1825 C1826 1.376 . S
C1826 H1813 0.930 . S
C1826 C1825 1.376 . S
C1826 C1827 1.388 . S
C1827 H1814 0.930 . S
C1827 C1826 1.388 . S
C1827 C1828 1.390 . S
C1828 C1827 1.390 . S
C1828 C1829 1.394 . S
C1828 C1834 1.465 . S
C1829 C1824 1.399 . S
C1829 C1828 1.394 . S
C1829 C1830 1.516 1_556 S
C1830 C1829 1.516 1_554 S
C1830 C1831 1.502 . S
C1830 C1832 1.561 . S
C1830 C1833 1.526 . S
C1831 H1815 0.959 . S
C1831 H1816 0.959 . S
C1831 H1817 0.961 . S
C1831 C1830 1.502 . S
C1832 H1818 0.960 . S
C1832 H1819 0.961 . S
C1832 H1820 0.959 . S
C1832 C1830 1.561 . S
C1833 C1830 1.526 . S
C1833 C1834 1.396 1_554 S
C1833 C1838 1.390 . S
C1834 C1828 1.465 . S
C1834 C1833 1.396 1_556 S
C1834 C1835 1.399 . S
C1835 H1821 0.929 . S
C1835 C1834 1.399 . S
C1835 C1836 1.385 1_556 S
C1836 H1822 0.931 . S
C1836 C1835 1.385 1_554 S
C1836 C1837 1.389 . S
C1837 C1836 1.389 . S
C1837 C1838 1.387 . S
C1838 H1823 0.930 . S
C1838 C1833 1.390 . S
C1838 C1837 1.387 . S
H1839 C1851 0.930 . S
H1840 C1853 0.930 . S
H1841 C1854 0.930 . S
H1842 C1858 0.959 . S
H1843 C1858 0.959 . S
H1844 C1858 0.961 . S
H1845 C1859 0.960 . S
H1846 C1859 0.961 . S
H1847 C1859 0.959 . S
H1848 C1862 0.929 . S
H1849 C1863 0.931 . S
H1850 C1865 0.930 . S
C1851 H1839 0.930 . S
C1851 C1852 1.399 . S
C1851 C1856 1.399 . S
C1852 C1851 1.399 . S
C1852 C1853 1.376 . S
C1853 H1840 0.930 . S
C1853 C1852 1.376 . S
C1853 C1854 1.388 . S
C1854 H1841 0.930 . S
C1854 C1853 1.388 . S
C1854 C1855 1.390 . S
C1855 C1854 1.390 . S
C1855 C1856 1.394 . S
C1855 C1861 1.465 . S
C1856 C1851 1.399 . S
C1856 C1855 1.394 . S
C1856 C1857 1.516 1_554 S
C1857 C1856 1.516 1_556 S
C1857 C1858 1.502 . S
C1857 C1859 1.561 . S
C1857 C1860 1.526 . S
C1858 H1842 0.959 . S
C1858 H1843 0.959 . S
C1858 H1844 0.961 . S
C1858 C1857 1.502 . S
C1859 H1845 0.960 . S
C1859 H1846 0.961 . S
C1859 H1847 0.959 . S
C1859 C1857 1.561 . S
C1860 C1857 1.526 . S
C1860 C1861 1.396 1_556 S
C1860 C1865 1.390 . S
C1861 C1855 1.465 . S
C1861 C1860 1.396 1_554 S
C1861 C1862 1.399 . S
C1862 H1848 0.929 . S
C1862 C1861 1.399 . S
C1862 C1863 1.385 1_554 S
C1863 H1849 0.931 . S
C1863 C1862 1.385 1_556 S
C1863 C1864 1.389 . S
C1864 C1863 1.389 . S
C1864 C1865 1.387 . S
C1865 H1850 0.930 . S
C1865 C1860 1.390 . S
C1865 C1864 1.387 . S
H1866 C1878 0.930 . S
H1867 C1880 0.930 . S
H1868 C1881 0.930 1_554 S
H1869 C1885 0.959 . S
H1870 C1885 0.959 . S
H1871 C1885 0.961 . S
H1872 C1886 0.960 . S
H1873 C1886 0.961 . S
H1874 C1886 0.959 . S
H1875 C1889 0.929 . S
H1876 C1890 0.931 . S
H1877 C1892 0.930 . S
C1878 H1866 0.930 . S
C1878 C1879 1.399 . S
C1878 C1883 1.399 . S
C1879 C1878 1.399 . S
C1879 C1880 1.376 . S
C1880 H1867 0.930 . S
C1880 C1879 1.376 . S
C1880 C1881 1.388 . S
C1881 H1868 0.930 1_556 S
C1881 C1880 1.388 . S
C1881 C1882 1.390 . S
C1882 C1881 1.390 . S
C1882 C1883 1.394 . S
C1882 C1888 1.465 . S
C1883 C1878 1.399 . S
C1883 C1882 1.394 . S
C1883 C1884 1.516 . S
C1884 C1883 1.516 . S
C1884 C1885 1.502 . S
C1884 C1886 1.561 . S
C1884 C1887 1.526 . S
C1885 H1869 0.959 . S
C1885 H1870 0.959 . S
C1885 H1871 0.961 . S
C1885 C1884 1.502 . S
C1886 H1872 0.960 . S
C1886 H1873 0.961 . S
C1886 H1874 0.959 . S
C1886 C1884 1.561 . S
C1887 C1884 1.526 . S
C1887 C1888 1.396 . S
C1887 C1892 1.390 . S
C1888 C1882 1.465 . S
C1888 C1887 1.396 . S
C1888 C1889 1.399 1_556 S
C1889 H1875 0.929 . S
C1889 C1888 1.399 1_554 S
C1889 C1890 1.385 . S
C1890 H1876 0.931 . S
C1890 C1889 1.385 . S
C1890 C1891 1.389 . S
C1891 C1890 1.389 . S
C1891 C1892 1.387 1_554 S
C1892 H1877 0.930 . S
C1892 C1887 1.390 . S
C1892 C1891 1.387 1_556 S
H1893 C1905 0.930 . S
H1894 C1907 0.930 . S
H1895 C1908 0.930 . S
H1896 C1912 0.959 . S
H1897 C1912 0.959 . S
H1898 C1912 0.961 . S
H1899 C1913 0.960 . S
H1900 C1913 0.961 . S
H1901 C1913 0.959 . S
H1902 C1916 0.929 . S
H1903 C1917 0.931 . S
H1904 C1919 0.930 . S
C1905 H1893 0.930 . S
C1905 C1906 1.399 . S
C1905 C1910 1.399 . S
C1906 C1905 1.399 . S
C1906 C1907 1.376 . S
C1907 H1894 0.930 . S
C1907 C1906 1.376 . S
C1907 C1908 1.388 . S
C1908 H1895 0.930 . S
C1908 C1907 1.388 . S
C1908 C1909 1.390 . S
C1909 C1908 1.390 . S
C1909 C1910 1.394 . S
C1909 C1915 1.465 . S
C1910 C1905 1.399 . S
C1910 C1909 1.394 . S
C1910 C1911 1.516 . S
C1911 C1910 1.516 . S
C1911 C1912 1.502 . S
C1911 C1913 1.561 . S
C1911 C1914 1.526 . S
C1912 H1896 0.959 . S
C1912 H1897 0.959 . S
C1912 H1898 0.961 . S
C1912 C1911 1.502 . S
C1913 H1899 0.960 . S
C1913 H1900 0.961 . S
C1913 H1901 0.959 . S
C1913 C1911 1.561 . S
C1914 C1911 1.526 . S
C1914 C1915 1.396 . S
C1914 C1919 1.390 . S
C1915 C1909 1.465 . S
C1915 C1914 1.396 . S
C1915 C1916 1.399 1_554 S
C1916 H1902 0.929 . S
C1916 C1915 1.399 1_556 S
C1916 C1917 1.385 . S
C1917 H1903 0.931 . S
C1917 C1916 1.385 . S
C1917 C1918 1.389 . S
C1918 C1917 1.389 . S
C1918 C1919 1.385 1_556 S
C1919 H1904 0.930 . S
C1919 C1914 1.390 . S
C1919 C1918 1.385 1_554 S
H1920 C1932 0.930 . S
H1921 C1934 0.930 . S
H1922 C1935 0.930 . S
H1923 C1939 0.959 . S
H1924 C1939 0.959 . S
H1925 C1939 0.961 . S
H1926 C1940 0.960 . S
H1927 C1940 0.961 . S
H1928 C1940 0.959 . S
H1929 C1943 0.929 . S
H1930 C1944 0.931 . S
H1931 C1946 0.930 . S
C1932 H1920 0.930 . S
C1932 C1933 1.399 . S
C1932 C1937 1.399 . S
C1933 C1932 1.399 . S
C1933 C1934 1.376 . S
C1934 H1921 0.930 . S
C1934 C1933 1.376 . S
C1934 C1935 1.388 . S
C1935 H1922 0.930 . S
C1935 C1934 1.388 . S
C1935 C1936 1.390 . S
C1936 C1935 1.390 . S
C1936 C1937 1.394 . S
C1936 C1942 1.465 . S
C1937 C1932 1.399 . S
C1937 C1936 1.394 . S
C1937 C1938 1.516 . S
C1938 C1937 1.516 . S
C1938 C1939 1.502 . S
C1938 C1940 1.561 . S
C1938 C1941 1.526 . S
C1939 H1923 0.959 . S
C1939 H1924 0.959 . S
C1939 H1925 0.961 . S
C1939 C1938 1.502 . S
C1940 H1926 0.960 . S
C1940 H1927 0.961 . S
C1940 H1928 0.959 . S
C1940 C1938 1.561 . S
C1941 C1938 1.526 . S
C1941 C1942 1.396 . S
C1941 C1946 1.390 . S
C1942 C1936 1.465 . S
C1942 C1941 1.396 . S
C1942 C1943 1.399 . S
C1943 H1929 0.929 . S
C1943 C1942 1.399 . S
C1943 C1944 1.385 . S
C1944 H1930 0.931 . S
C1944 C1943 1.385 . S
C1944 C1945 1.389 . S
C1945 C1944 1.389 . S
C1945 C1946 1.387 . S
C1946 H1931 0.930 . S
C1946 C1941 1.390 . S
C1946 C1945 1.387 . S
H1947 C1959 0.930 . S
H1948 C1961 0.930 . S
H1949 C1962 0.930 . S
H1950 C1966 0.959 . S
H1951 C1966 0.959 . S
H1952 C1966 0.961 . S
H1953 C1967 0.960 . S
H1954 C1967 0.961 . S
H1955 C1967 0.959 . S
H1956 C1970 0.929 . S
H1957 C1971 0.931 . S
H1958 C1973 0.930 . S
C1959 H1947 0.930 . S
C1959 C1960 1.399 . S
C1959 C1964 1.399 . S
C1960 C1959 1.399 . S
C1960 C1961 1.376 . S
C1961 H1948 0.930 . S
C1961 C1960 1.376 . S
C1961 C1962 1.388 . S
C1962 H1949 0.930 . S
C1962 C1961 1.388 . S
C1962 C1963 1.390 . S
C1963 C1962 1.390 . S
C1963 C1964 1.394 . S
C1963 C1969 1.465 . S
C1964 C1959 1.399 . S
C1964 C1963 1.394 . S
C1964 C1965 1.516 . S
C1965 C1964 1.516 . S
C1965 C1966 1.502 . S
C1965 C1967 1.561 . S
C1965 C1968 1.526 . S
C1966 H1950 0.959 . S
C1966 H1951 0.959 . S
C1966 H1952 0.961 . S
C1966 C1965 1.502 . S
C1967 H1953 0.960 . S
C1967 H1954 0.961 . S
C1967 H1955 0.959 . S
C1967 C1965 1.561 . S
C1968 C1965 1.526 . S
C1968 C1969 1.396 . S
C1968 C1973 1.390 . S
C1969 C1963 1.465 . S
C1969 C1968 1.396 . S
C1969 C1970 1.399 . S
C1970 H1956 0.929 . S
C1970 C1969 1.399 . S
C1970 C1971 1.385 . S
C1971 H1957 0.931 . S
C1971 C1970 1.385 . S
C1971 C1972 1.389 . S
C1972 C1971 1.389 . S
C1972 C1973 1.387 . S
C1973 H1958 0.930 . S
C1973 C1968 1.390 . S
C1973 C1972 1.387 . S
H1974 C1986 0.930 . S
H1975 C1988 0.930 . S
H1976 C1989 0.930 . S
H1977 C1993 0.959 . S
H1978 C1993 0.959 . S
H1979 C1993 0.961 . S
H1980 C1994 0.960 . S
H1981 C1994 0.961 . S
H1982 C1994 0.959 . S
H1983 C1997 0.929 . S
H1984 C1998 0.931 . S
H1985 C2000 0.930 . S
C1986 H1974 0.930 . S
C1986 C1987 1.399 . S
C1986 C1991 1.399 . S
C1987 C1986 1.399 . S
C1987 C1988 1.376 . S
C1988 H1975 0.930 . S
C1988 C1987 1.376 . S
C1988 C1989 1.388 . S
C1989 H1976 0.930 . S
C1989 C1988 1.388 . S
C1989 C1990 1.390 . S
C1990 C1989 1.390 . S
C1990 C1991 1.394 . S
C1990 C1996 1.465 . S
C1991 C1986 1.399 . S
C1991 C1990 1.394 . S
C1991 C1992 1.516 . S
C1992 C1991 1.516 . S
C1992 C1993 1.502 . S
C1992 C1994 1.561 . S
C1992 C1995 1.526 . S
C1993 H1977 0.959 . S
C1993 H1978 0.959 . S
C1993 H1979 0.961 . S
C1993 C1992 1.502 . S
C1994 H1980 0.960 . S
C1994 H1981 0.961 . S
C1994 H1982 0.959 . S
C1994 C1992 1.561 . S
C1995 C1992 1.526 . S
C1995 C1996 1.396 . S
C1995 C2000 1.390 . S
C1996 C1990 1.465 . S
C1996 C1995 1.396 . S
C1996 C1997 1.399 . S
C1997 H1983 0.929 . S
C1997 C1996 1.399 . S
C1997 C1998 1.385 . S
C1998 H1984 0.931 . S
C1998 C1997 1.385 . S
C1998 C1999 1.389 . S
C1999 C1998 1.389 . S
C1999 C2000 1.387 . S
C2000 H1985 0.930 . S
C2000 C1995 1.390 . S
C2000 C1999 1.387 . S
H2001 C2013 0.930 . S
H2002 C2015 0.930 . S
H2003 C2016 0.930 . S
H2004 C2020 0.959 . S
H2005 C2020 0.959 . S
H2006 C2020 0.961 . S
H2007 C2021 0.960 . S
H2008 C2021 0.961 . S
H2009 C2021 0.959 . S
H2010 C2024 0.929 . S
H2011 C2025 0.931 . S
H2012 C2027 0.930 . S
C2013 H2001 0.930 . S
C2013 C2014 1.399 . S
C2013 C2018 1.399 . S
C2014 C2013 1.399 . S
C2014 C2015 1.376 . S
C2015 H2002 0.930 . S
C2015 C2014 1.376 . S
C2015 C2016 1.388 . S
C2016 H2003 0.930 . S
C2016 C2015 1.388 . S
C2016 C2017 1.390 . S
C2017 C2016 1.390 . S
C2017 C2018 1.394 . S
C2017 C2023 1.465 . S
C2018 C2013 1.399 . S
C2018 C2017 1.394 . S
C2018 C2019 1.516 . S
C2019 C2018 1.516 . S
C2019 C2020 1.502 . S
C2019 C2021 1.561 . S
C2019 C2022 1.526 . S
C2020 H2004 0.959 . S
C2020 H2005 0.959 . S
C2020 H2006 0.961 . S
C2020 C2019 1.502 . S
C2021 H2007 0.960 . S
C2021 H2008 0.961 . S
C2021 H2009 0.959 . S
C2021 C2019 1.561 . S
C2022 C2019 1.526 . S
C2022 C2023 1.396 . S
C2022 C2027 1.390 . S
C2023 C2017 1.465 . S
C2023 C2022 1.396 . S
C2023 C2024 1.399 . S
C2024 H2010 0.929 . S
C2024 C2023 1.399 . S
C2024 C2025 1.385 . S
C2025 H2011 0.931 . S
C2025 C2024 1.385 . S
C2025 C2026 1.389 . S
C2026 C2025 1.389 . S
C2026 C2027 1.387 . S
C2027 H2012 0.930 . S
C2027 C2022 1.390 . S
C2027 C2026 1.387 . S
H2028 C2040 0.930 . S
H2029 C2042 0.930 . S
H2030 C2043 0.930 . S
H2031 C2047 0.959 . S
H2032 C2047 0.959 . S
H2033 C2047 0.961 . S
H2034 C2048 0.960 . S
H2035 C2048 0.961 . S
H2036 C2048 0.959 . S
H2037 C2051 0.929 . S
H2038 C2052 0.931 . S
H2039 C2054 0.930 . S
C2040 H2028 0.930 . S
C2040 C2041 1.399 . S
C2040 C2045 1.399 . S
C2041 C2040 1.399 . S
C2041 C2042 1.376 . S
C2042 H2029 0.930 . S
C2042 C2041 1.376 . S
C2042 C2043 1.388 . S
C2043 H2030 0.930 . S
C2043 C2042 1.388 . S
C2043 C2044 1.390 . S
C2044 C2043 1.390 . S
C2044 C2045 1.394 . S
C2044 C2050 1.465 . S
C2045 C2040 1.399 . S
C2045 C2044 1.394 . S
C2045 C2046 1.516 . S
C2046 C2045 1.516 . S
C2046 C2047 1.502 . S
C2046 C2048 1.561 . S
C2046 C2049 1.526 . S
C2047 H2031 0.959 . S
C2047 H2032 0.959 . S
C2047 H2033 0.961 . S
C2047 C2046 1.502 . S
C2048 H2034 0.960 . S
C2048 H2035 0.961 . S
C2048 H2036 0.959 . S
C2048 C2046 1.561 . S
C2049 C2046 1.526 . S
C2049 C2050 1.396 . S
C2049 C2054 1.390 . S
C2050 C2044 1.465 . S
C2050 C2049 1.396 . S
C2050 C2051 1.399 . S
C2051 H2037 0.929 . S
C2051 C2050 1.399 . S
C2051 C2052 1.385 . S
C2052 H2038 0.931 . S
C2052 C2051 1.385 . S
C2052 C2053 1.389 . S
C2053 C2052 1.389 . S
C2053 C2054 1.387 . S
C2054 H2039 0.930 . S
C2054 C2049 1.390 . S
C2054 C2053 1.387 . S
H2055 C2067 0.930 . S
H2056 C2069 0.930 . S
H2057 C2070 0.930 . S
H2058 C2074 0.959 . S
H2059 C2074 0.959 . S
H2060 C2074 0.961 . S
H2061 C2075 0.960 . S
H2062 C2075 0.961 . S
H2063 C2075 0.959 . S
H2064 C2078 0.929 . S
H2065 C2079 0.931 . S
H2066 C2081 0.930 . S
C2067 H2055 0.930 . S
C2067 C2068 1.399 . S
C2067 C2072 1.399 . S
C2068 C2067 1.399 . S
C2068 C2069 1.376 . S
C2069 H2056 0.930 . S
C2069 C2068 1.376 . S
C2069 C2070 1.388 . S
C2070 H2057 0.930 . S
C2070 C2069 1.388 . S
C2070 C2071 1.390 . S
C2071 C2070 1.390 . S
C2071 C2072 1.394 . S
C2071 C2077 1.465 . S
C2072 C2067 1.399 . S
C2072 C2071 1.394 . S
C2072 C2073 1.516 . S
C2073 C2072 1.516 . S
C2073 C2074 1.502 . S
C2073 C2075 1.561 . S
C2073 C2076 1.526 . S
C2074 H2058 0.959 . S
C2074 H2059 0.959 . S
C2074 H2060 0.961 . S
C2074 C2073 1.502 . S
C2075 H2061 0.960 . S
C2075 H2062 0.961 . S
C2075 H2063 0.959 . S
C2075 C2073 1.561 . S
C2076 C2073 1.526 . S
C2076 C2077 1.396 . S
C2076 C2081 1.390 . S
C2077 C2071 1.465 . S
C2077 C2076 1.396 . S
C2077 C2078 1.399 . S
C2078 H2064 0.929 . S
C2078 C2077 1.399 . S
C2078 C2079 1.385 . S
C2079 H2065 0.931 . S
C2079 C2078 1.385 . S
C2079 C2080 1.389 . S
C2080 C2079 1.389 . S
C2080 C2081 1.387 . S
C2081 H2066 0.930 . S
C2081 C2076 1.390 . S
C2081 C2080 1.387 . S
H2082 C2094 0.930 . S
H2083 C2096 0.930 . S
H2084 C2097 0.930 . S
H2085 C2101 0.959 . S
H2086 C2101 0.959 . S
H2087 C2101 0.961 . S
H2088 C2102 0.960 . S
H2089 C2102 0.961 . S
H2090 C2102 0.959 . S
H2091 C2105 0.929 . S
H2092 C2106 0.931 . S
H2093 C2108 0.930 . S
C2094 H2082 0.930 . S
C2094 C2095 1.399 . S
C2094 C2099 1.399 . S
C2095 C2094 1.399 . S
C2095 C2096 1.376 . S
C2096 H2083 0.930 . S
C2096 C2095 1.376 . S
C2096 C2097 1.388 . S
C2097 H2084 0.930 . S
C2097 C2096 1.388 . S
C2097 C2098 1.390 . S
C2098 C2097 1.390 . S
C2098 C2099 1.394 . S
C2098 C2104 1.465 . S
C2099 C2094 1.399 . S
C2099 C2098 1.394 . S
C2099 C2100 1.516 . S
C2100 C2099 1.516 . S
C2100 C2101 1.502 . S
C2100 C2102 1.561 . S
C2100 C2103 1.526 . S
C2101 H2085 0.959 . S
C2101 H2086 0.959 . S
C2101 H2087 0.961 . S
C2101 C2100 1.502 . S
C2102 H2088 0.960 . S
C2102 H2089 0.961 . S
C2102 H2090 0.959 . S
C2102 C2100 1.561 . S
C2103 C2100 1.526 . S
C2103 C2104 1.396 . S
C2103 C2108 1.390 . S
C2104 C2098 1.465 . S
C2104 C2103 1.396 . S
C2104 C2105 1.399 . S
C2105 H2091 0.929 . S
C2105 C2104 1.399 . S
C2105 C2106 1.385 . S
C2106 H2092 0.931 . S
C2106 C2105 1.385 . S
C2106 C2107 1.389 . S
C2107 C2106 1.389 . S
C2107 C2108 1.387 . S
C2108 H2093 0.930 . S
C2108 C2103 1.390 . S
C2108 C2107 1.387 . S
H2109 C2121 0.930 . S
H2110 C2123 0.930 . S
H2111 C2124 0.930 . S
H2112 C2128 0.959 . S
H2113 C2128 0.959 . S
H2114 C2128 0.961 . S
H2115 C2129 0.960 . S
H2116 C2129 0.961 . S
H2117 C2129 0.959 . S
H2118 C2132 0.929 . S
H2119 C2133 0.931 . S
H2120 C2135 0.930 . S
C2121 H2109 0.930 . S
C2121 C2122 1.399 . S
C2121 C2126 1.399 . S
C2122 C2121 1.399 . S
C2122 C2123 1.376 . S
C2123 H2110 0.930 . S
C2123 C2122 1.376 . S
C2123 C2124 1.388 . S
C2124 H2111 0.930 . S
C2124 C2123 1.388 . S
C2124 C2125 1.390 . S
C2125 C2124 1.390 . S
C2125 C2126 1.394 . S
C2125 C2131 1.465 . S
C2126 C2121 1.399 . S
C2126 C2125 1.394 . S
C2126 C2127 1.516 . S
C2127 C2126 1.516 . S
C2127 C2128 1.502 . S
C2127 C2129 1.561 . S
C2127 C2130 1.526 . S
C2128 H2112 0.959 . S
C2128 H2113 0.959 . S
C2128 H2114 0.961 . S
C2128 C2127 1.502 . S
C2129 H2115 0.960 . S
C2129 H2116 0.961 . S
C2129 H2117 0.959 . S
C2129 C2127 1.561 . S
C2130 C2127 1.526 . S
C2130 C2131 1.396 . S
C2130 C2135 1.390 . S
C2131 C2125 1.465 . S
C2131 C2130 1.396 . S
C2131 C2132 1.399 . S
C2132 H2118 0.929 . S
C2132 C2131 1.399 . S
C2132 C2133 1.385 . S
C2133 H2119 0.931 . S
C2133 C2132 1.385 . S
C2133 C2134 1.389 . S
C2134 C2133 1.389 . S
C2134 C2135 1.387 . S
C2135 H2120 0.930 . S
C2135 C2130 1.390 . S
C2135 C2134 1.387 . S
H2136 C2148 0.930 . S
H2137 C2150 0.930 . S
H2138 C2151 0.930 . S
H2139 C2155 0.959 . S
H2140 C2155 0.959 . S
H2141 C2155 0.961 . S
H2142 C2156 0.960 . S
H2143 C2156 0.961 . S
H2144 C2156 0.959 . S
H2145 C2159 0.929 . S
H2146 C2160 0.931 . S
H2147 C2162 0.930 . S
C2148 H2136 0.930 . S
C2148 C2149 1.399 . S
C2148 C2153 1.399 . S
C2149 C2148 1.399 . S
C2149 C2150 1.376 . S
C2150 H2137 0.930 . S
C2150 C2149 1.376 . S
C2150 C2151 1.388 . S
C2151 H2138 0.930 . S
C2151 C2150 1.388 . S
C2151 C2152 1.390 . S
C2152 C2151 1.390 . S
C2152 C2153 1.394 . S
C2152 C2158 1.465 . S
C2153 C2148 1.399 . S
C2153 C2152 1.394 . S
C2153 C2154 1.516 . S
C2154 C2153 1.516 . S
C2154 C2155 1.502 . S
C2154 C2156 1.561 . S
C2154 C2157 1.526 . S
C2155 H2139 0.959 . S
C2155 H2140 0.959 . S
C2155 H2141 0.961 . S
C2155 C2154 1.502 . S
C2156 H2142 0.960 . S
C2156 H2143 0.961 . S
C2156 H2144 0.959 . S
C2156 C2154 1.561 . S
C2157 C2154 1.526 . S
C2157 C2158 1.396 . S
C2157 C2162 1.390 . S
C2158 C2152 1.465 . S
C2158 C2157 1.396 . S
C2158 C2159 1.399 . S
C2159 H2145 0.929 . S
C2159 C2158 1.399 . S
C2159 C2160 1.385 . S
C2160 H2146 0.931 . S
C2160 C2159 1.385 . S
C2160 C2161 1.389 . S
C2161 C2160 1.389 . S
C2161 C2162 1.387 . S
C2162 H2147 0.930 . S
C2162 C2157 1.390 . S
C2162 C2161 1.387 . S
H2163 C2175 0.930 . S
H2164 C2177 0.930 . S
H2165 C2178 0.930 . S
H2166 C2182 0.959 . S
H2167 C2182 0.959 . S
H2168 C2182 0.961 . S
H2169 C2183 0.960 . S
H2170 C2183 0.961 . S
H2171 C2183 0.959 . S
H2172 C2186 0.929 . S
H2173 C2187 0.931 . S
H2174 C2189 0.930 . S
C2175 H2163 0.930 . S
C2175 C2176 1.399 . S
C2175 C2180 1.399 . S
C2176 C2175 1.399 . S
C2176 C2177 1.376 . S
C2177 H2164 0.930 . S
C2177 C2176 1.376 . S
C2177 C2178 1.388 . S
C2178 H2165 0.930 . S
C2178 C2177 1.388 . S
C2178 C2179 1.390 . S
C2179 C2178 1.390 . S
C2179 C2180 1.394 . S
C2179 C2185 1.465 . S
C2180 C2175 1.399 . S
C2180 C2179 1.394 . S
C2180 C2181 1.516 . S
C2181 C2180 1.516 . S
C2181 C2182 1.502 . S
C2181 C2183 1.561 . S
C2181 C2184 1.526 . S
C2182 H2166 0.959 . S
C2182 H2167 0.959 . S
C2182 H2168 0.961 . S
C2182 C2181 1.502 . S
C2183 H2169 0.960 . S
C2183 H2170 0.961 . S
C2183 H2171 0.959 . S
C2183 C2181 1.561 . S
C2184 C2181 1.526 . S
C2184 C2185 1.396 . S
C2184 C2189 1.390 . S
C2185 C2179 1.465 . S
C2185 C2184 1.396 . S
C2185 C2186 1.399 . S
C2186 H2172 0.929 . S
C2186 C2185 1.399 . S
C2186 C2187 1.385 . S
C2187 H2173 0.931 . S
C2187 C2186 1.385 . S
C2187 C2188 1.389 . S
C2188 C2187 1.389 . S
C2188 C2189 1.387 . S
C2189 H2174 0.930 . S
C2189 C2184 1.390 . S
C2189 C2188 1.387 . S
H2190 C2202 0.930 . S
H2191 C2204 0.930 . S
H2192 C2205 0.930 . S
H2193 C2209 0.959 . S
H2194 C2209 0.959 . S
H2195 C2209 0.961 . S
H2196 C2210 0.960 . S
H2197 C2210 0.961 . S
H2198 C2210 0.959 . S
H2199 C2213 0.929 . S
H2200 C2214 0.931 . S
H2201 C2216 0.930 . S
C2202 H2190 0.930 . S
C2202 C2203 1.399 . S
C2202 C2207 1.399 . S
C2203 C2202 1.399 . S
C2203 C2204 1.376 . S
C2204 H2191 0.930 . S
C2204 C2203 1.376 . S
C2204 C2205 1.388 . S
C2205 H2192 0.930 . S
C2205 C2204 1.388 . S
C2205 C2206 1.390 . S
C2206 C2205 1.390 . S
C2206 C2207 1.394 . S
C2206 C2212 1.465 . S
C2207 C2202 1.399 . S
C2207 C2206 1.394 . S
C2207 C2208 1.516 . S
C2208 C2207 1.516 . S
C2208 C2209 1.502 . S
C2208 C2210 1.561 . S
C2208 C2211 1.526 . S
C2209 H2193 0.959 . S
C2209 H2194 0.959 . S
C2209 H2195 0.961 . S
C2209 C2208 1.502 . S
C2210 H2196 0.960 . S
C2210 H2197 0.961 . S
C2210 H2198 0.959 . S
C2210 C2208 1.561 . S
C2211 C2208 1.526 . S
C2211 C2212 1.396 . S
C2211 C2216 1.390 . S
C2212 C2206 1.465 . S
C2212 C2211 1.396 . S
C2212 C2213 1.399 . S
C2213 H2199 0.929 . S
C2213 C2212 1.399 . S
C2213 C2214 1.385 . S
C2214 H2200 0.931 . S
C2214 C2213 1.385 . S
C2214 C2215 1.389 . S
C2215 C2214 1.389 . S
C2215 C2216 1.387 . S
C2216 H2201 0.930 . S
C2216 C2211 1.390 . S
C2216 C2215 1.387 . S
H2217 C2229 0.930 . S
H2218 C2231 0.930 . S
H2219 C2232 0.930 . S
H2220 C2236 0.959 . S
H2221 C2236 0.959 . S
H2222 C2236 0.961 . S
H2223 C2237 0.960 . S
H2224 C2237 0.961 . S
H2225 C2237 0.959 . S
H2226 C2240 0.929 . S
H2227 C2241 0.931 . S
H2228 C2243 0.930 . S
C2229 H2217 0.930 . S
C2229 C2230 1.399 . S
C2229 C2234 1.399 . S
C2230 C2229 1.399 . S
C2230 C2231 1.376 . S
C2231 H2218 0.930 . S
C2231 C2230 1.376 . S
C2231 C2232 1.388 . S
C2232 H2219 0.930 . S
C2232 C2231 1.388 . S
C2232 C2233 1.390 . S
C2233 C2232 1.390 . S
C2233 C2234 1.394 . S
C2233 C2239 1.465 . S
C2234 C2229 1.399 . S
C2234 C2233 1.394 . S
C2234 C2235 1.516 . S
C2235 C2234 1.516 . S
C2235 C2236 1.502 . S
C2235 C2237 1.561 . S
C2235 C2238 1.526 . S
C2236 H2220 0.959 . S
C2236 H2221 0.959 . S
C2236 H2222 0.961 . S
C2236 C2235 1.502 . S
C2237 H2223 0.960 . S
C2237 H2224 0.961 . S
C2237 H2225 0.959 . S
C2237 C2235 1.561 . S
C2238 C2235 1.526 . S
C2238 C2239 1.396 . S
C2238 C2243 1.390 . S
C2239 C2233 1.465 . S
C2239 C2238 1.396 . S
C2239 C2240 1.399 . S
C2240 H2226 0.929 . S
C2240 C2239 1.399 . S
C2240 C2241 1.385 . S
C2241 H2227 0.931 . S
C2241 C2240 1.385 . S
C2241 C2242 1.389 . S
C2242 C2241 1.389 . S
C2242 C2243 1.387 . S
C2243 H2228 0.930 . S
C2243 C2238 1.390 . S
C2243 C2242 1.387 . S
H2244 C2256 0.930 . S
H2245 C2258 0.930 . S
H2246 C2259 0.930 . S
H2247 C2263 0.959 . S
H2248 C2263 0.959 . S
H2249 C2263 0.961 . S
H2250 C2264 0.960 . S
H2251 C2264 0.961 . S
H2252 C2264 0.959 . S
H2253 C2267 0.929 . S
H2254 C2268 0.931 . S
H2255 C2270 0.930 . S
C2256 H2244 0.930 . S
C2256 C2257 1.399 . S
C2256 C2261 1.399 . S
C2257 C2256 1.399 . S
C2257 C2258 1.376 . S
C2258 H2245 0.930 . S
C2258 C2257 1.376 . S
C2258 C2259 1.388 . S
C2259 H2246 0.930 . S
C2259 C2258 1.388 . S
C2259 C2260 1.390 . S
C2260 C2259 1.390 . S
C2260 C2261 1.394 . S
C2260 C2266 1.465 . S
C2261 C2256 1.399 . S
C2261 C2260 1.394 . S
C2261 C2262 1.516 . S
C2262 C2261 1.516 . S
C2262 C2263 1.502 . S
C2262 C2264 1.561 . S
C2262 C2265 1.526 . S
C2263 H2247 0.959 . S
C2263 H2248 0.959 . S
C2263 H2249 0.961 . S
C2263 C2262 1.502 . S
C2264 H2250 0.960 . S
C2264 H2251 0.961 . S
C2264 H2252 0.959 . S
C2264 C2262 1.561 . S
C2265 C2262 1.526 . S
C2265 C2266 1.396 . S
C2265 C2270 1.390 . S
C2266 C2260 1.465 . S
C2266 C2265 1.396 . S
C2266 C2267 1.399 . S
C2267 H2253 0.929 . S
C2267 C2266 1.399 . S
C2267 C2268 1.385 . S
C2268 H2254 0.931 . S
C2268 C2267 1.385 . S
C2268 C2269 1.389 . S
C2269 C2268 1.389 . S
C2269 C2270 1.387 . S
C2270 H2255 0.930 . S
C2270 C2265 1.390 . S
C2270 C2269 1.387 . S
H2271 C2283 0.930 . S
H2272 C2285 0.930 . S
H2273 C2286 0.930 . S
H2274 C2290 0.959 . S
H2275 C2290 0.959 . S
H2276 C2290 0.961 . S
H2277 C2291 0.960 . S
H2278 C2291 0.961 . S
H2279 C2291 0.959 . S
H2280 C2294 0.929 . S
H2281 C2295 0.931 . S
H2282 C2297 0.930 . S
C2283 H2271 0.930 . S
C2283 C2284 1.399 . S
C2283 C2288 1.399 . S
C2284 C2283 1.399 . S
C2284 C2285 1.376 . S
C2285 H2272 0.930 . S
C2285 C2284 1.376 . S
C2285 C2286 1.388 . S
C2286 H2273 0.930 . S
C2286 C2285 1.388 . S
C2286 C2287 1.390 . S
C2287 C2286 1.390 . S
C2287 C2288 1.394 . S
C2287 C2293 1.465 . S
C2288 C2283 1.399 . S
C2288 C2287 1.394 . S
C2288 C2289 1.516 . S
C2289 C2288 1.516 . S
C2289 C2290 1.502 . S
C2289 C2291 1.561 . S
C2289 C2292 1.526 . S
C2290 H2274 0.959 . S
C2290 H2275 0.959 . S
C2290 H2276 0.961 . S
C2290 C2289 1.502 . S
C2291 H2277 0.960 . S
C2291 H2278 0.961 . S
C2291 H2279 0.959 . S
C2291 C2289 1.561 . S
C2292 C2289 1.526 . S
C2292 C2293 1.396 . S
C2292 C2297 1.390 . S
C2293 C2287 1.465 . S
C2293 C2292 1.396 . S
C2293 C2294 1.399 . S
C2294 H2280 0.929 . S
C2294 C2293 1.399 . S
C2294 C2295 1.385 . S
C2295 H2281 0.931 . S
C2295 C2294 1.385 . S
C2295 C2296 1.389 . S
C2296 C2295 1.389 . S
C2296 C2297 1.387 . S
C2297 H2282 0.930 . S
C2297 C2292 1.390 . S
C2297 C2296 1.387 . S
H2298 C2310 0.930 . S
H2299 C2312 0.930 . S
H2300 C2313 0.930 . S
H2301 C2317 0.959 . S
H2302 C2317 0.959 . S
H2303 C2317 0.961 . S
H2304 C2318 0.960 . S
H2305 C2318 0.961 . S
H2306 C2318 0.959 . S
H2307 C2321 0.929 . S
H2308 C2322 0.931 . S
H2309 C2324 0.930 . S
C2310 H2298 0.930 . S
C2310 C2311 1.399 . S
C2310 C2315 1.399 . S
C2311 C2310 1.399 . S
C2311 C2312 1.376 . S
C2312 H2299 0.930 . S
C2312 C2311 1.376 . S
C2312 C2313 1.388 . S
C2313 H2300 0.930 . S
C2313 C2312 1.388 . S
C2313 C2314 1.390 . S
C2314 C2313 1.390 . S
C2314 C2315 1.394 . S
C2314 C2320 1.465 . S
C2315 C2310 1.399 . S
C2315 C2314 1.394 . S
C2315 C2316 1.516 . S
C2316 C2315 1.516 . S
C2316 C2317 1.502 . S
C2316 C2318 1.561 . S
C2316 C2319 1.526 . S
C2317 H2301 0.959 . S
C2317 H2302 0.959 . S
C2317 H2303 0.961 . S
C2317 C2316 1.502 . S
C2318 H2304 0.960 . S
C2318 H2305 0.961 . S
C2318 H2306 0.959 . S
C2318 C2316 1.561 . S
C2319 C2316 1.526 . S
C2319 C2320 1.396 . S
C2319 C2324 1.390 . S
C2320 C2314 1.465 . S
C2320 C2319 1.396 . S
C2320 C2321 1.399 . S
C2321 H2307 0.929 . S
C2321 C2320 1.399 . S
C2321 C2322 1.385 . S
C2322 H2308 0.931 . S
C2322 C2321 1.385 . S
C2322 C2323 1.389 . S
C2323 C2322 1.389 . S
C2323 C2324 1.387 . S
C2324 H2309 0.930 . S
C2324 C2319 1.390 . S
C2324 C2323 1.387 . S
H2325 C2337 0.930 . S
H2326 C2339 0.930 . S
H2327 C2340 0.930 . S
H2328 C2344 0.959 . S
H2329 C2344 0.959 . S
H2330 C2344 0.961 . S
H2331 C2345 0.960 . S
H2332 C2345 0.961 . S
H2333 C2345 0.959 . S
H2334 C2348 0.929 . S
H2335 C2349 0.931 . S
H2336 C2351 0.930 . S
C2337 H2325 0.930 . S
C2337 C2338 1.399 . S
C2337 C2342 1.399 . S
C2338 C2337 1.399 . S
C2338 C2339 1.376 . S
C2339 H2326 0.930 . S
C2339 C2338 1.376 . S
C2339 C2340 1.388 . S
C2340 H2327 0.930 . S
C2340 C2339 1.388 . S
C2340 C2341 1.390 . S
C2341 C2340 1.390 . S
C2341 C2342 1.394 . S
C2341 C2347 1.465 . S
C2342 C2337 1.399 . S
C2342 C2341 1.394 . S
C2342 C2343 1.516 . S
C2343 C2342 1.516 . S
C2343 C2344 1.502 . S
C2343 C2345 1.561 . S
C2343 C2346 1.526 . S
C2344 H2328 0.959 . S
C2344 H2329 0.959 . S
C2344 H2330 0.961 . S
C2344 C2343 1.502 . S
C2345 H2331 0.960 . S
C2345 H2332 0.961 . S
C2345 H2333 0.959 . S
C2345 C2343 1.561 . S
C2346 C2343 1.526 . S
C2346 C2347 1.396 . S
C2346 C2351 1.390 . S
C2347 C2341 1.465 . S
C2347 C2346 1.396 . S
C2347 C2348 1.399 . S
C2348 H2334 0.929 . S
C2348 C2347 1.399 . S
C2348 C2349 1.385 . S
C2349 H2335 0.931 . S
C2349 C2348 1.385 . S
C2349 C2350 1.389 . S
C2350 C2349 1.389 . S
C2350 C2351 1.387 . S
C2351 H2336 0.930 . S
C2351 C2346 1.390 . S
C2351 C2350 1.387 . S
H2352 C2364 0.930 . S
H2353 C2366 0.930 . S
H2354 C2367 0.930 . S
H2355 C2371 0.959 . S
H2356 C2371 0.959 . S
H2357 C2371 0.961 . S
H2358 C2372 0.960 . S
H2359 C2372 0.961 . S
H2360 C2372 0.959 . S
H2361 C2375 0.929 . S
H2362 C2376 0.931 . S
H2363 C2378 0.930 . S
C2364 H2352 0.930 . S
C2364 C2365 1.399 . S
C2364 C2369 1.399 . S
C2365 C2364 1.399 . S
C2365 C2366 1.376 . S
C2366 H2353 0.930 . S
C2366 C2365 1.376 . S
C2366 C2367 1.388 . S
C2367 H2354 0.930 . S
C2367 C2366 1.388 . S
C2367 C2368 1.390 . S
C2368 C2367 1.390 . S
C2368 C2369 1.394 . S
C2368 C2374 1.465 . S
C2369 C2364 1.399 . S
C2369 C2368 1.394 . S
C2369 C2370 1.516 . S
C2370 C2369 1.516 . S
C2370 C2371 1.502 . S
C2370 C2372 1.561 . S
C2370 C2373 1.526 . S
C2371 H2355 0.959 . S
C2371 H2356 0.959 . S
C2371 H2357 0.961 . S
C2371 C2370 1.502 . S
C2372 H2358 0.960 . S
C2372 H2359 0.961 . S
C2372 H2360 0.959 . S
C2372 C2370 1.561 . S
C2373 C2370 1.526 . S
C2373 C2374 1.396 . S
C2373 C2378 1.390 . S
C2374 C2368 1.465 . S
C2374 C2373 1.396 . S
C2374 C2375 1.399 . S
C2375 H2361 0.929 . S
C2375 C2374 1.399 . S
C2375 C2376 1.385 . S
C2376 H2362 0.931 . S
C2376 C2375 1.385 . S
C2376 C2377 1.389 . S
C2377 C2376 1.389 . S
C2377 C2378 1.387 . S
C2378 H2363 0.930 . S
C2378 C2373 1.390 . S
C2378 C2377 1.387 . S
H2379 C2391 0.930 . S
H2380 C2393 0.930 . S
H2381 C2394 0.930 . S
H2382 C2398 0.959 . S
H2383 C2398 0.959 . S
H2384 C2398 0.961 . S
H2385 C2399 0.960 . S
H2386 C2399 0.961 . S
H2387 C2399 0.959 . S
H2388 C2402 0.929 . S
H2389 C2403 0.931 . S
H2390 C2405 0.930 . S
C2391 H2379 0.930 . S
C2391 C2392 1.399 . S
C2391 C2396 1.399 . S
C2392 C2391 1.399 . S
C2392 C2393 1.376 . S
C2393 H2380 0.930 . S
C2393 C2392 1.376 . S
C2393 C2394 1.388 . S
C2394 H2381 0.930 . S
C2394 C2393 1.388 . S
C2394 C2395 1.390 . S
C2395 C2394 1.390 . S
C2395 C2396 1.394 . S
C2395 C2401 1.465 . S
C2396 C2391 1.399 . S
C2396 C2395 1.394 . S
C2396 C2397 1.516 . S
C2397 C2396 1.516 . S
C2397 C2398 1.502 . S
C2397 C2399 1.561 . S
C2397 C2400 1.526 . S
C2398 H2382 0.959 . S
C2398 H2383 0.959 . S
C2398 H2384 0.961 . S
C2398 C2397 1.502 . S
C2399 H2385 0.960 . S
C2399 H2386 0.961 . S
C2399 H2387 0.959 . S
C2399 C2397 1.561 . S
C2400 C2397 1.526 . S
C2400 C2401 1.396 . S
C2400 C2405 1.390 . S
C2401 C2395 1.465 . S
C2401 C2400 1.396 . S
C2401 C2402 1.399 . S
C2402 H2388 0.929 . S
C2402 C2401 1.399 . S
C2402 C2403 1.385 . S
C2403 H2389 0.931 . S
C2403 C2402 1.385 . S
C2403 C2404 1.389 . S
C2404 C2403 1.389 . S
C2404 C2405 1.387 . S
C2405 H2390 0.930 . S
C2405 C2400 1.390 . S
C2405 C2404 1.387 . S
H2406 C2418 0.930 . S
H2407 C2420 0.930 . S
H2408 C2421 0.930 . S
H2409 C2425 0.959 . S
H2410 C2425 0.959 . S
H2411 C2425 0.961 . S
H2412 C2426 0.960 . S
H2413 C2426 0.961 . S
H2414 C2426 0.959 . S
H2415 C2429 0.929 . S
H2416 C2430 0.931 . S
H2417 C2432 0.930 . S
C2418 H2406 0.930 . S
C2418 C2419 1.399 . S
C2418 C2423 1.399 . S
C2419 C2418 1.399 . S
C2419 C2420 1.376 . S
C2420 H2407 0.930 . S
C2420 C2419 1.376 . S
C2420 C2421 1.388 . S
C2421 H2408 0.930 . S
C2421 C2420 1.388 . S
C2421 C2422 1.390 . S
C2422 C2421 1.390 . S
C2422 C2423 1.394 . S
C2422 C2428 1.465 . S
C2423 C2418 1.399 . S
C2423 C2422 1.394 . S
C2423 C2424 1.516 . S
C2424 C2423 1.516 . S
C2424 C2425 1.502 . S
C2424 C2426 1.561 . S
C2424 C2427 1.526 . S
C2425 H2409 0.959 . S
C2425 H2410 0.959 . S
C2425 H2411 0.961 . S
C2425 C2424 1.502 . S
C2426 H2412 0.960 . S
C2426 H2413 0.961 . S
C2426 H2414 0.959 . S
C2426 C2424 1.561 . S
C2427 C2424 1.526 . S
C2427 C2428 1.396 . S
C2427 C2432 1.390 . S
C2428 C2422 1.465 . S
C2428 C2427 1.396 . S
C2428 C2429 1.399 . S
C2429 H2415 0.929 . S
C2429 C2428 1.399 . S
C2429 C2430 1.385 . S
C2430 H2416 0.931 . S
C2430 C2429 1.385 . S
C2430 C2431 1.389 . S
C2431 C2430 1.389 . S
C2431 C2432 1.387 . S
C2432 H2417 0.930 . S
C2432 C2427 1.390 . S
C2432 C2431 1.387 . S
H2433 C2445 0.930 . S
H2434 C2447 0.930 . S
H2435 C2448 0.930 . S
H2436 C2452 0.959 . S
H2437 C2452 0.959 . S
H2438 C2452 0.961 . S
H2439 C2453 0.960 . S
H2440 C2453 0.961 . S
H2441 C2453 0.959 . S
H2442 C2456 0.929 . S
H2443 C2457 0.931 . S
H2444 C2459 0.930 . S
C2445 H2433 0.930 . S
C2445 C2446 1.399 . S
C2445 C2450 1.399 . S
C2446 C2445 1.399 . S
C2446 C2447 1.376 . S
C2447 H2434 0.930 . S
C2447 C2446 1.376 . S
C2447 C2448 1.388 . S
C2448 H2435 0.930 . S
C2448 C2447 1.388 . S
C2448 C2449 1.390 . S
C2449 C2448 1.390 . S
C2449 C2450 1.394 . S
C2449 C2455 1.465 . S
C2450 C2445 1.399 . S
C2450 C2449 1.394 . S
C2450 C2451 1.516 . S
C2451 C2450 1.516 . S
C2451 C2452 1.502 . S
C2451 C2453 1.561 . S
C2451 C2454 1.526 . S
C2452 H2436 0.959 . S
C2452 H2437 0.959 . S
C2452 H2438 0.961 . S
C2452 C2451 1.502 . S
C2453 H2439 0.960 . S
C2453 H2440 0.961 . S
C2453 H2441 0.959 . S
C2453 C2451 1.561 . S
C2454 C2451 1.526 . S
C2454 C2455 1.396 . S
C2454 C2459 1.390 . S
C2455 C2449 1.465 . S
C2455 C2454 1.396 . S
C2455 C2456 1.399 . S
C2456 H2442 0.929 . S
C2456 C2455 1.399 . S
C2456 C2457 1.385 . S
C2457 H2443 0.931 . S
C2457 C2456 1.385 . S
C2457 C2458 1.389 . S
C2458 C2457 1.389 . S
C2458 C2459 1.387 . S
C2459 H2444 0.930 . S
C2459 C2454 1.390 . S
C2459 C2458 1.387 . S
H2460 C2472 0.930 . S
H2461 C2474 0.930 . S
H2462 C2475 0.930 . S
H2463 C2479 0.959 . S
H2464 C2479 0.959 . S
H2465 C2479 0.961 . S
H2466 C2480 0.960 . S
H2467 C2480 0.961 . S
H2468 C2480 0.959 . S
H2469 C2483 0.929 . S
H2470 C2484 0.931 . S
H2471 C2486 0.930 . S
C2472 H2460 0.930 . S
C2472 C2473 1.399 . S
C2472 C2477 1.399 . S
C2473 C2472 1.399 . S
C2473 C2474 1.376 . S
C2474 H2461 0.930 . S
C2474 C2473 1.376 . S
C2474 C2475 1.388 . S
C2475 H2462 0.930 . S
C2475 C2474 1.388 . S
C2475 C2476 1.390 . S
C2476 C2475 1.390 . S
C2476 C2477 1.394 . S
C2476 C2482 1.465 . S
C2477 C2472 1.399 . S
C2477 C2476 1.394 . S
C2477 C2478 1.516 . S
C2478 C2477 1.516 . S
C2478 C2479 1.502 . S
C2478 C2480 1.561 . S
C2478 C2481 1.526 . S
C2479 H2463 0.959 . S
C2479 H2464 0.959 . S
C2479 H2465 0.961 . S
C2479 C2478 1.502 . S
C2480 H2466 0.960 . S
C2480 H2467 0.961 . S
C2480 H2468 0.959 . S
C2480 C2478 1.561 . S
C2481 C2478 1.526 . S
C2481 C2482 1.396 . S
C2481 C2486 1.390 . S
C2482 C2476 1.465 . S
C2482 C2481 1.396 . S
C2482 C2483 1.399 . S
C2483 H2469 0.929 . S
C2483 C2482 1.399 . S
C2483 C2484 1.385 . S
C2484 H2470 0.931 . S
C2484 C2483 1.385 . S
C2484 C2485 1.389 . S
C2485 C2484 1.389 . S
C2485 C2486 1.387 . S
C2486 H2471 0.930 . S
C2486 C2481 1.390 . S
C2486 C2485 1.387 . S
H2487 C2499 0.930 . S
H2488 C2501 0.930 . S
H2489 C2502 0.930 . S
H2490 C2506 0.959 . S
H2491 C2506 0.959 . S
H2492 C2506 0.961 . S
H2493 C2507 0.960 . S
H2494 C2507 0.961 . S
H2495 C2507 0.959 . S
H2496 C2510 0.929 . S
H2497 C2511 0.931 . S
H2498 C2513 0.930 . S
C2499 H2487 0.930 . S
C2499 C2500 1.399 . S
C2499 C2504 1.399 . S
C2500 C2499 1.399 . S
C2500 C2501 1.376 . S
C2501 H2488 0.930 . S
C2501 C2500 1.376 . S
C2501 C2502 1.388 . S
C2502 H2489 0.930 . S
C2502 C2501 1.388 . S
C2502 C2503 1.390 . S
C2503 C2502 1.390 . S
C2503 C2504 1.394 . S
C2503 C2509 1.465 . S
C2504 C2499 1.399 . S
C2504 C2503 1.394 . S
C2504 C2505 1.516 . S
C2505 C2504 1.516 . S
C2505 C2506 1.502 . S
C2505 C2507 1.561 . S
C2505 C2508 1.526 . S
C2506 H2490 0.959 . S
C2506 H2491 0.959 . S
C2506 H2492 0.961 . S
C2506 C2505 1.502 . S
C2507 H2493 0.960 . S
C2507 H2494 0.961 . S
C2507 H2495 0.959 . S
C2507 C2505 1.561 . S
C2508 C2505 1.526 . S
C2508 C2509 1.396 . S
C2508 C2513 1.390 . S
C2509 C2503 1.465 . S
C2509 C2508 1.396 . S
C2509 C2510 1.399 . S
C2510 H2496 0.929 . S
C2510 C2509 1.399 . S
C2510 C2511 1.385 . S
C2511 H2497 0.931 . S
C2511 C2510 1.385 . S
C2511 C2512 1.389 . S
C2512 C2511 1.389 . S
C2512 C2513 1.387 . S
C2513 H2498 0.930 . S
C2513 C2508 1.390 . S
C2513 C2512 1.387 . S
H2514 C2526 0.930 . S
H2515 C2528 0.930 . S
H2516 C2529 0.930 . S
H2517 C2533 0.959 . S
H2518 C2533 0.959 . S
H2519 C2533 0.961 . S
H2520 C2534 0.960 . S
H2521 C2534 0.961 . S
H2522 C2534 0.959 . S
H2523 C2537 0.929 . S
H2524 C2538 0.931 . S
H2525 C2540 0.930 . S
C2526 H2514 0.930 . S
C2526 C2527 1.399 . S
C2526 C2531 1.399 . S
C2527 C2526 1.399 . S
C2527 C2528 1.376 . S
C2528 H2515 0.930 . S
C2528 C2527 1.376 . S
C2528 C2529 1.388 . S
C2529 H2516 0.930 . S
C2529 C2528 1.388 . S
C2529 C2530 1.390 . S
C2530 C2529 1.390 . S
C2530 C2531 1.394 . S
C2530 C2536 1.465 . S
C2531 C2526 1.399 . S
C2531 C2530 1.394 . S
C2531 C2532 1.516 . S
C2532 C2531 1.516 . S
C2532 C2533 1.502 . S
C2532 C2534 1.561 . S
C2532 C2535 1.526 . S
C2533 H2517 0.959 . S
C2533 H2518 0.959 . S
C2533 H2519 0.961 . S
C2533 C2532 1.502 . S
C2534 H2520 0.960 . S
C2534 H2521 0.961 . S
C2534 H2522 0.959 . S
C2534 C2532 1.561 . S
C2535 C2532 1.526 . S
C2535 C2536 1.396 . S
C2535 C2540 1.390 . S
C2536 C2530 1.465 . S
C2536 C2535 1.396 . S
C2536 C2537 1.399 . S
C2537 H2523 0.929 . S
C2537 C2536 1.399 . S
C2537 C2538 1.385 . S
C2538 H2524 0.931 . S
C2538 C2537 1.385 . S
C2538 C2539 1.389 . S
C2539 C2538 1.389 . S
C2539 C2540 1.387 . S
C2540 H2525 0.930 . S
C2540 C2535 1.390 . S
C2540 C2539 1.387 . S
H2541 C2553 0.930 . S
H2542 C2555 0.930 . S
H2543 C2556 0.930 . S
H2544 C2560 0.959 . S
H2545 C2560 0.959 . S
H2546 C2560 0.961 . S
H2547 C2561 0.960 . S
H2548 C2561 0.961 . S
H2549 C2561 0.959 . S
H2550 C2564 0.929 . S
H2551 C2565 0.931 . S
H2552 C2567 0.930 . S
C2553 H2541 0.930 . S
C2553 C2554 1.399 . S
C2553 C2558 1.399 . S
C2554 C2553 1.399 . S
C2554 C2555 1.376 . S
C2555 H2542 0.930 . S
C2555 C2554 1.376 . S
C2555 C2556 1.388 . S
C2556 H2543 0.930 . S
C2556 C2555 1.388 . S
C2556 C2557 1.390 . S
C2557 C2556 1.390 . S
C2557 C2558 1.394 . S
C2557 C2563 1.465 . S
C2558 C2553 1.399 . S
C2558 C2557 1.394 . S
C2558 C2559 1.516 . S
C2559 C2558 1.516 . S
C2559 C2560 1.502 . S
C2559 C2561 1.561 . S
C2559 C2562 1.526 . S
C2560 H2544 0.959 . S
C2560 H2545 0.959 . S
C2560 H2546 0.961 . S
C2560 C2559 1.502 . S
C2561 H2547 0.960 . S
C2561 H2548 0.961 . S
C2561 H2549 0.959 . S
C2561 C2559 1.561 . S
C2562 C2559 1.526 . S
C2562 C2563 1.396 . S
C2562 C2567 1.390 . S
C2563 C2557 1.465 . S
C2563 C2562 1.396 . S
C2563 C2564 1.399 . S
C2564 H2550 0.929 . S
C2564 C2563 1.399 . S
C2564 C2565 1.385 . S
C2565 H2551 0.931 . S
C2565 C2564 1.385 . S
C2565 C2566 1.389 . S
C2566 C2565 1.389 . S
C2566 C2567 1.387 . S
C2567 H2552 0.930 . S
C2567 C2562 1.390 . S
C2567 C2566 1.387 . S
C1285 C1204 2.438 . S
C1297 C38 2.368 . S
C1312 C75 2.317 . S
C1324 C870 2.247 . S
C1339 C1257 2.202 . S
C1351 C144 2.150 . S
C1366 C1135 2.198 . S
C1378 C181 2.262 . S
C1393 C992 2.206 . S
C1405 C250 2.098 . S
C1420 C1029 2.219 . S
C1432 C287 2.314 . S
C1447 C1098 2.442 . S
C1459 C356 2.322 . S
C1474 C393 2.276 . S
C1486 C923 2.171 . S
C1501 C727 2.205 . S
C1513 C446 2.171 . S
C1528 C764 2.194 . S
C1540 C515 2.210 . S
C1555 C568 2.188 . S
C1567 C833 2.265 . S
C1582 C621 2.237 . S
C1594 C674 2.241 . S
C1609 C409 2.277 . S
C1621 C780 2.385 . S
C1636 C817 2.325 . S
C1648 C234 2.380 . S
C1663 C303 2.081 . S
C1675 C658 2.159 . S
C1690 C711 2.260 . S
C1702 C340 2.366 . S
C1717 C552 2.163 . S
C1729 C91 2.128 . S
C1744 C128 2.372 . S
C1756 C605 2.331 . S
C1771 C197 2.302 . S
C1783 C462 2.355 . S
C1798 C22 2.338 . S
C1810 C499 2.282 . S
C1825 C1082 2.185 . S
C1837 C1151 2.291 . S
C1852 C1188 2.184 . S
C1864 C939 2.286 . S
C1879 C976 2.167 . S
C1891 C886 2.189 . S
C1906 C1241 2.162 . S
C1918 C1045 2.202 . S
C1933 C39 1.846 . S
C1945 C463 1.970 . S
C1960 C506 1.361 . S
C1972 C82 1.315 . S
C1987 C145 1.547 . S
C1999 C559 1.505 . S
C2014 C188 1.443 . S
C2026 C612 1.473 . S
C2041 C251 1.456 . S
C2053 C665 1.569 . S
C2068 C294 1.329 . S
C2080 C718 1.251 . S
C2095 C781 1.925 . S
C2107 C357 1.863 . S
C2122 C824 1.408 . S
C2134 C400 1.502 . S
C2149 C453 1.653 . S
C2161 C887 1.599 . S
C2176 C516 1.596 . S
C2188 C1248 1.676 . S
C2203 C1152 1.935 . S
C2215 C569 1.941 . S
C2230 C1195 1.632 . S
C2242 C622 1.611 . S
C2257 C940 1.972 . S
C2269 C675 1.935 . S
C2284 C983 1.636 . S
C2296 C728 1.601 . S
C2311 C771 1.656 . S
C2323 C1046 1.679 . S
C2338 C834 1.655 . S
C2350 C1089 1.599 . S
C2365 C29 1.383 . S
C2377 C877 1.432 . S
C2392 C930 1.419 . S
C2404 C241 1.475 . S
C2419 C993 1.941 . S
C2431 C304 1.869 . S
C2446 C1036 1.342 . S
C2458 C347 1.465 . S
C2473 C1099 2.018 . S
C2485 C410 1.940 . S
C2500 C1142 1.446 . S
C2512 C135 1.371 . S
C2527 C198 1.905 . S
C2539 C1205 2.019 . S
C2554 C1258 1.934 . S
C2566 C92 1.881 . S
