# Generated by pormake.
# Topology skb, (5)-cn, num edge types: 1
# Building blocks:
#     Node 0, Type 0, BuildingBlock: BEQFEK_clean_sbu_0, # of connection points: 5
#     Node 1, Type 0, BuildingBlock: BEQFEK_clean_sbu_0, # of connection points: 5
#     Node 2, Type 0, BuildingBlock: BEQFEK_clean_sbu_0, # of connection points: 5
#     Node 3, Type 0, BuildingBlock: BEQFEK_clean_sbu_0, # of connection points: 5
#     Node 4, Type 0, BuildingBlock: BEQFEK_clean_sbu_0, # of connection points: 5
#     Node 5, Type 0, BuildingBlock: BEQFEK_clean_sbu_0, # of connection points: 5
#     Node 6, Type 0, BuildingBlock: BEQFEK_clean_sbu_0, # of connection points: 5
#     Node 7, Type 0, BuildingBlock: BEQFEK_clean_sbu_0, # of connection points: 5
#     Node 8, Type 0, BuildingBlock: BEQFEK_clean_sbu_0, # of connection points: 5
#     Node 9, Type 0, BuildingBlock: BEQFEK_clean_sbu_0, # of connection points: 5
#     Node 10, Type 0, BuildingBlock: BEQFEK_clean_sbu_0, # of connection points: 5
#     Node 11, Type 0, BuildingBlock: BEQFEK_clean_sbu_0, # of connection points: 5
#     Node 12, Type 0, BuildingBlock: BEQFEK_clean_sbu_0, # of connection points: 5
#     Node 13, Type 0, BuildingBlock: BEQFEK_clean_sbu_0, # of connection points: 5
#     Node 14, Type 0, BuildingBlock: BEQFEK_clean_sbu_0, # of connection points: 5
#     Node 15, Type 0, BuildingBlock: BEQFEK_clean_sbu_0, # of connection points: 5
#     Edge 16, Type (0, 0), BuildingBlock: EZIPEK_clean_linker_0, # of connection points: 2
#     Edge 17, Type (0, 0), BuildingBlock: EZIPEK_clean_linker_0, # of connection points: 2
#     Edge 18, Type (0, 0), BuildingBlock: EZIPEK_clean_linker_0, # of connection points: 2
#     Edge 19, Type (0, 0), BuildingBlock: EZIPEK_clean_linker_0, # of connection points: 2
#     Edge 20, Type (0, 0), BuildingBlock: EZIPEK_clean_linker_0, # of connection points: 2
#     Edge 21, Type (0, 0), BuildingBlock: EZIPEK_clean_linker_0, # of connection points: 2
#     Edge 22, Type (0, 0), BuildingBlock: EZIPEK_clean_linker_0, # of connection points: 2
#     Edge 23, Type (0, 0), BuildingBlock: EZIPEK_clean_linker_0, # of connection points: 2
#     Edge 24, Type (0, 0), BuildingBlock: EZIPEK_clean_linker_0, # of connection points: 2
#     Edge 25, Type (0, 0), BuildingBlock: EZIPEK_clean_linker_0, # of connection points: 2
#     Edge 26, Type (0, 0), BuildingBlock: EZIPEK_clean_linker_0, # of connection points: 2
#     Edge 27, Type (0, 0), BuildingBlock: EZIPEK_clean_linker_0, # of connection points: 2
#     Edge 28, Type (0, 0), BuildingBlock: EZIPEK_clean_linker_0, # of connection points: 2
#     Edge 29, Type (0, 0), BuildingBlock: EZIPEK_clean_linker_0, # of connection points: 2
#     Edge 30, Type (0, 0), BuildingBlock: EZIPEK_clean_linker_0, # of connection points: 2
#     Edge 31, Type (0, 0), BuildingBlock: EZIPEK_clean_linker_0, # of connection points: 2
#     Edge 32, Type (0, 0), BuildingBlock: EZIPEK_clean_linker_0, # of connection points: 2
#     Edge 33, Type (0, 0), BuildingBlock: EZIPEK_clean_linker_0, # of connection points: 2
#     Edge 34, Type (0, 0), BuildingBlock: EZIPEK_clean_linker_0, # of connection points: 2
#     Edge 35, Type (0, 0), BuildingBlock: EZIPEK_clean_linker_0, # of connection points: 2
#     Edge 36, Type (0, 0), BuildingBlock: EZIPEK_clean_linker_0, # of connection points: 2
#     Edge 37, Type (0, 0), BuildingBlock: EZIPEK_clean_linker_0, # of connection points: 2
#     Edge 38, Type (0, 0), BuildingBlock: EZIPEK_clean_linker_0, # of connection points: 2
#     Edge 39, Type (0, 0), BuildingBlock: EZIPEK_clean_linker_0, # of connection points: 2
#     Edge 40, Type (0, 0), BuildingBlock: EZIPEK_clean_linker_0, # of connection points: 2
#     Edge 41, Type (0, 0), BuildingBlock: EZIPEK_clean_linker_0, # of connection points: 2
#     Edge 42, Type (0, 0), BuildingBlock: EZIPEK_clean_linker_0, # of connection points: 2
#     Edge 43, Type (0, 0), BuildingBlock: EZIPEK_clean_linker_0, # of connection points: 2
#     Edge 44, Type (0, 0), BuildingBlock: EZIPEK_clean_linker_0, # of connection points: 2
#     Edge 45, Type (0, 0), BuildingBlock: EZIPEK_clean_linker_0, # of connection points: 2
#     Edge 46, Type (0, 0), BuildingBlock: EZIPEK_clean_linker_0, # of connection points: 2
#     Edge 47, Type (0, 0), BuildingBlock: EZIPEK_clean_linker_0, # of connection points: 2
#     Edge 48, Type (0, 0), BuildingBlock: EZIPEK_clean_linker_0, # of connection points: 2
#     Edge 49, Type (0, 0), BuildingBlock: EZIPEK_clean_linker_0, # of connection points: 2
#     Edge 50, Type (0, 0), BuildingBlock: EZIPEK_clean_linker_0, # of connection points: 2
#     Edge 51, Type (0, 0), BuildingBlock: EZIPEK_clean_linker_0, # of connection points: 2
#     Edge 52, Type (0, 0), BuildingBlock: EZIPEK_clean_linker_0, # of connection points: 2
#     Edge 53, Type (0, 0), BuildingBlock: EZIPEK_clean_linker_0, # of connection points: 2
#     Edge 54, Type (0, 0), BuildingBlock: EZIPEK_clean_linker_0, # of connection points: 2
#     Edge 55, Type (0, 0), BuildingBlock: EZIPEK_clean_linker_0, # of connection points: 2
# Relax obj value: 0.051
# Max RMSD: 0.093
# Mean RMSD: 0.093
data_MOF--net-skb--node1-BEQFEK_clean_sbu_0--edge1-EZIPEK_clean_linker_0
_symmetry_space_group_name_H-M    P1
_symmetry_Int_Tables_number       1
_symmetry_cell_setting            triclinic
loop_
_symmetry_equiv_pos_as_xyz
'x, y, z'
_cell_length_a     30.138972
_cell_length_b     22.492108
_cell_length_c     61.21198
_cell_angle_alpha  89.90074
_cell_angle_beta   89.882504
_cell_angle_gamma 89.980001
loop_
_atom_site_label
_atom_site_type_symbol
_atom_site_fract_x
_atom_site_fract_y
_atom_site_fract_z
_atom_type_partial_charge
Co0 Co 0.17479 0.04123 0.09328 0.0
Co1 Co 0.18368 0.04133 0.14457 0.0
C2 C 0.21217 0.14609 0.11839 0.0
O3 O 0.20105 0.12066 0.10061 0.0
O4 O 0.20725 0.12068 0.13684 0.0
C5 C 0.20971 0.02564 0.04936 0.0
O6 O 0.24835 0.02408 0.05927 0.0
C7 C 0.21357 0.05508 0.19045 0.0
C8 C 0.17969 0.97863 0.20592 0.0
C9 C 0.20889 0.02471 0.21014 0.0
N10 N 0.18913 0.02711 0.17524 0.0
N11 N 0.16828 0.98228 0.18474 0.0
C12 C 0.24025 0.10994 0.18612 0.0
H13 H 0.21822 0.14504 0.17944 0.0
H14 H 0.26582 0.10014 0.17356 0.0
H15 H 0.25638 0.12665 0.20118 0.0
C16 C 0.21739 0.92243 0.10029 0.0
N17 N 0.20572 0.9772 0.10727 0.0
N18 N 0.21347 0.98068 0.12843 0.0
C19 C 0.23298 0.9298 0.13513 0.0
C20 C 0.23532 0.89112 0.11766 0.0
C21 C 0.20341 0.89618 0.07897 0.0
H22 H 0.16798 0.90675 0.07625 0.0
H23 H 0.22353 0.91515 0.06555 0.0
H24 H 0.20781 0.84722 0.07867 0.0
O25 O 0.11238 0.0371 0.10248 0.0
O26 O 0.11889 0.03527 0.13867 0.0
H27 H 0.27242 0.88217 0.15861 0.0
H28 H 0.25552 0.95574 0.16699 0.0
C29 C 0.24502 0.91515 0.15819 0.0
H30 H 0.21598 0.89497 0.16649 0.0
H31 H 0.14699 0.95325 0.17659 0.0
O32 O 0.17486 0.03347 0.06072 0.0
C33 C 0.09531 0.03382 0.12145 0.0
Co34 Co 0.82728 0.98515 0.09436 0.0
Co35 Co 0.81832 0.98657 0.14573 0.0
C36 C 0.78885 0.88171 0.11996 0.0
O37 O 0.79977 0.90675 0.10203 0.0
O38 O 0.79431 0.90723 0.13831 0.0
C39 C 0.79362 1.00311 0.05034 0.0
O40 O 0.75497 1.00771 0.06017 0.0
C41 C 0.78721 0.97479 0.19163 0.0
C42 C 0.82286 0.0497 0.20698 0.0
C43 C 0.79253 1.00493 0.21128 0.0
N44 N 0.81252 1.00156 0.17637 0.0
N45 N 0.83431 0.04555 0.18579 0.0
C46 C 0.75913 0.92123 0.18736 0.0
H47 H 0.78033 0.88492 0.18092 0.0
H48 H 0.73421 0.93207 0.17463 0.0
H49 H 0.74211 0.90561 0.2024 0.0
C50 C 0.78555 0.10461 0.10075 0.0
N51 N 0.79708 0.05009 0.10807 0.0
N52 N 0.78943 0.04752 0.12929 0.0
C53 C 0.77026 0.0989 0.13569 0.0
C54 C 0.76786 0.13678 0.11793 0.0
C55 C 0.79868 0.1296 0.07905 0.0
H56 H 0.83099 0.11062 0.07417 0.0
H57 H 0.77322 0.11827 0.06672 0.0
H58 H 0.80148 0.17876 0.07956 0.0
O59 O 0.88967 0.98771 0.10361 0.0
O60 O 0.88322 0.99088 0.13982 0.0
H61 H 0.78811 0.13365 0.16687 0.0
H62 H 0.73199 0.14889 0.159 0.0
C63 C 0.75855 0.11469 0.15869 0.0
H64 H 0.74709 0.07477 0.16769 0.0
H65 H 0.85638 0.07358 0.1776 0.0
O66 O 0.82783 0.9922 0.06175 0.0
C67 C 0.90677 0.99126 0.12253 0.0
Co68 Co 0.17813 0.98963 0.91167 0.0
Co69 Co 0.18186 0.98871 0.8602 0.0
C70 C 0.21327 0.88449 0.88639 0.0
O71 O 0.20323 0.9098 0.90436 0.0
O72 O 0.20714 0.90995 0.86803 0.0
C73 C 0.21205 0.98095 0.95591 0.0
O74 O 0.24303 0.94692 0.94745 0.0
C75 C 0.21212 0.97595 0.8143 0.0
C76 C 0.17327 0.04705 0.7983 0.0
C77 C 0.20551 1.00445 0.79438 0.0
N78 N 0.18576 1.00166 0.82934 0.0
N79 N 0.16204 0.04328 0.81954 0.0
C80 C 0.2426 0.92505 0.81906 0.0
H81 H 0.22301 0.88736 0.82571 0.0
H82 H 0.26676 0.93853 0.83179 0.0
H83 H 0.26051 0.91014 0.8042 0.0
C84 C 0.22185 0.10492 0.90442 0.0
N85 N 0.20814 0.05174 0.89695 0.0
N86 N 0.21154 0.05091 0.87548 0.0
C87 C 0.22906 0.10311 0.86878 0.0
C88 C 0.23548 0.13907 0.88684 0.0
C89 C 0.21601 0.1256 0.92745 0.0
H90 H 0.18107 0.11867 0.93261 0.0
H91 H 0.23748 0.09869 0.93828 0.0
H92 H 0.22486 0.17321 0.92933 0.0
O93 O 0.11483 0.99437 0.9038 0.0
O94 O 0.11749 0.99249 0.86745 0.0
H95 H 0.20259 0.13663 0.83891 0.0
H96 H 0.25877 0.15905 0.84416 0.0
C97 C 0.23495 0.12158 0.84549 0.0
H98 H 0.24726 0.08368 0.83567 0.0
H99 H 0.1389 0.07017 0.8275 0.0
O100 O 0.182 1.00265 0.94373 0.0
C101 C 0.09576 0.99564 0.88529 0.0
Co102 Co 0.82354 0.04036 0.9124 0.0
Co103 Co 0.82086 0.04288 0.86098 0.0
C104 C 0.78868 0.14619 0.88746 0.0
O105 O 0.79793 0.12014 0.9054 0.0
O106 O 0.79568 0.12157 0.86904 0.0
C107 C 0.79125 0.04935 0.95701 0.0
O108 O 0.7614 0.08597 0.94906 0.0
C109 C 0.79023 0.05623 0.81526 0.0
C110 C 0.82969 0.9861 0.79904 0.0
C111 C 0.79687 0.02801 0.79531 0.0
N112 N 0.81712 0.03093 0.83014 0.0
N113 N 0.84122 0.98996 0.8202 0.0
C114 C 0.75907 0.10624 0.82024 0.0
H115 H 0.7781 0.14412 0.82704 0.0
H116 H 0.735 0.09172 0.83291 0.0
H117 H 0.74106 0.12133 0.80544 0.0
C118 C 0.77936 0.92552 0.90478 0.0
N119 N 0.79368 0.97868 0.89748 0.0
N120 N 0.79098 0.98002 0.87601 0.0
C121 C 0.77357 0.92803 0.8691 0.0
C122 C 0.7663 0.89174 0.88705 0.0
C123 C 0.78369 0.90467 0.92789 0.0
H124 H 0.81873 0.90911 0.93319 0.0
H125 H 0.76306 0.93321 0.93858 0.0
H126 H 0.7729 0.85777 0.92982 0.0
O127 O 0.88703 0.03623 0.9045 0.0
O128 O 0.88507 0.03868 0.86815 0.0
H129 H 0.74509 0.87227 0.84417 0.0
H130 H 0.75608 0.94804 0.83598 0.0
C131 C 0.76851 0.91009 0.84575 0.0
H132 H 0.8012 0.89584 0.83928 0.0
H133 H 0.86473 0.96341 0.82804 0.0
O134 O 0.81989 0.026 0.9444 0.0
C135 C 0.90645 0.0355 0.88603 0.0
Co136 Co 0.17822 0.5387 0.59384 0.0
Co137 Co 0.18313 0.53971 0.64521 0.0
C138 C 0.21385 0.64396 0.61893 0.0
O139 O 0.20347 0.61858 0.60104 0.0
O140 O 0.20813 0.61853 0.63733 0.0
C141 C 0.21271 0.54673 0.54971 0.0
O142 O 0.24423 0.57932 0.55836 0.0
C143 C 0.21249 0.55346 0.69108 0.0
C144 C 0.1764 0.47924 0.7068 0.0
C145 C 0.20696 0.52384 0.71086 0.0
N146 N 0.18724 0.52643 0.67597 0.0
N147 N 0.16506 0.48301 0.68561 0.0
C148 C 0.24082 0.6067 0.68654 0.0
H149 H 0.21988 0.64276 0.6797 0.0
H150 H 0.26611 0.59515 0.67405 0.0
H151 H 0.25739 0.62304 0.70155 0.0
C152 C 0.22201 0.4232 0.60081 0.0
N153 N 0.20851 0.47646 0.60834 0.0
N154 N 0.21276 0.4776 0.62975 0.0
C155 C 0.23086 0.42564 0.63634 0.0
C156 C 0.23657 0.38938 0.61829 0.0
C157 C 0.21523 0.4022 0.57789 0.0
H158 H 0.18015 0.4094 0.5731 0.0
H159 H 0.23642 0.4287 0.56677 0.0
H160 H 0.22382 0.35449 0.57602 0.0
O161 O 0.115 0.53387 0.6021 0.0
O162 O 0.11873 0.53574 0.63842 0.0
H163 H 0.26375 0.37207 0.66061 0.0
H164 H 0.24972 0.44655 0.66922 0.0
C165 C 0.23844 0.40783 0.65956 0.0
H166 H 0.20705 0.39042 0.66654 0.0
H167 H 0.14298 0.45488 0.67755 0.0
O168 O 0.18194 0.526 0.56175 0.0
C169 C 0.0965 0.53283 0.6208 0.0
Co170 Co 0.82738 0.48709 0.59401 0.0
Co171 Co 0.81939 0.48682 0.64544 0.0
C172 C 0.78961 0.38264 0.6195 0.0
O173 O 0.80095 0.40784 0.60165 0.0
O174 O 0.79464 0.40808 0.63789 0.0
C175 C 0.79262 0.50419 0.5501 0.0
O176 O 0.75398 0.5073 0.56003 0.0
C177 C 0.789 0.47445 0.69144 0.0
C178 C 0.82506 0.54895 0.70683 0.0
C179 C 0.7945 0.50443 0.71112 0.0
N180 N 0.81434 0.50115 0.67617 0.0
N181 N 0.83642 0.54483 0.68563 0.0
C182 C 0.76064 0.42118 0.68716 0.0
H183 H 0.78161 0.38482 0.68057 0.0
H184 H 0.7356 0.43242 0.67454 0.0
H185 H 0.74376 0.40548 0.70222 0.0
C186 C 0.78522 0.60589 0.60099 0.0
N187 N 0.79706 0.55127 0.60809 0.0
N188 N 0.7902 0.54832 0.62936 0.0
C189 C 0.77122 0.59956 0.63605 0.0
C190 C 0.76817 0.63774 0.6184 0.0
C191 C 0.79793 0.63136 0.5793 0.0
H192 H 0.83144 0.61535 0.57492 0.0
H193 H 0.77385 0.61703 0.56675 0.0
H194 H 0.79806 0.68068 0.57954 0.0
O195 O 0.88986 0.49094 0.60288 0.0
O196 O 0.88433 0.49039 0.63913 0.0
H197 H 0.73398 0.64941 0.65981 0.0
H198 H 0.74901 0.575 0.66816 0.0
C199 C 0.76037 0.61499 0.65918 0.0
H200 H 0.79029 0.63352 0.66716 0.0
H201 H 0.85853 0.5728 0.67743 0.0
O202 O 0.82718 0.49468 0.56143 0.0
C203 C 0.90746 0.49278 0.62171 0.0
Co204 Co 0.17486 0.48891 0.41229 0.0
Co205 Co 0.18157 0.48755 0.3608 0.0
C206 C 0.21155 0.38365 0.38704 0.0
O207 O 0.2008 0.40928 0.40486 0.0
O208 O 0.2061 0.40878 0.36859 0.0
C209 C 0.21064 0.5035 0.45614 0.0
O210 O 0.24931 0.50357 0.44617 0.0
C211 C 0.21219 0.47432 0.31486 0.0
C212 C 0.17477 0.54692 0.29895 0.0
C213 C 0.20617 0.50327 0.29497 0.0
N214 N 0.1863 0.50078 0.32994 0.0
N215 N 0.16344 0.54331 0.32018 0.0
C216 C 0.24166 0.42232 0.31955 0.0
H217 H 0.26609 0.43483 0.33228 0.0
H218 H 0.25927 0.40696 0.30466 0.0
H219 H 0.22136 0.38527 0.32616 0.0
C220 C 0.21734 0.60728 0.40457 0.0
N221 N 0.20515 0.55258 0.39778 0.0
N222 N 0.21132 0.54921 0.37646 0.0
C223 C 0.23008 0.60029 0.36942 0.0
C224 C 0.23381 0.63876 0.38689 0.0
C225 C 0.20496 0.63351 0.42615 0.0
H226 H 0.22448 0.61238 0.4393 0.0
H227 H 0.21137 0.68206 0.42672 0.0
H228 H 0.16919 0.62553 0.42904 0.0
O229 O 0.11222 0.49308 0.40371 0.0
O230 O 0.11677 0.49202 0.36741 0.0
H231 H 0.26549 0.65061 0.34504 0.0
H232 H 0.2515 0.57548 0.33726 0.0
C233 C 0.23977 0.6154 0.34611 0.0
H234 H 0.20919 0.63261 0.33831 0.0
H235 H 0.14081 0.57092 0.32817 0.0
O236 O 0.17564 0.49713 0.44484 0.0
C237 C 0.09413 0.49454 0.38498 0.0
Co238 Co 0.82291 0.5391 0.41214 0.0
Co239 Co 0.81849 0.541 0.36078 0.0
C240 C 0.78725 0.64467 0.38714 0.0
O241 O 0.79765 0.61907 0.40502 0.0
O242 O 0.7931 0.61956 0.36872 0.0
C243 C 0.79003 0.54819 0.45658 0.0
O244 O 0.7595 0.58328 0.44833 0.0
C245 C 0.78816 0.55357 0.31501 0.0
C246 C 0.82708 0.48236 0.29911 0.0
C247 C 0.7947 0.52475 0.29518 0.0
N248 N 0.81466 0.52816 0.33003 0.0
N249 N 0.83846 0.48654 0.32028 0.0
C250 C 0.75757 0.60437 0.31973 0.0
H251 H 0.73331 0.59078 0.33245 0.0
H252 H 0.73978 0.61931 0.30485 0.0
H253 H 0.77704 0.64208 0.32637 0.0
C254 C 0.77862 0.42408 0.40502 0.0
N255 N 0.79258 0.47724 0.39754 0.0
N256 N 0.78911 0.47838 0.37609 0.0
C257 C 0.77146 0.42636 0.3694 0.0
C258 C 0.76491 0.39019 0.38744 0.0
C259 C 0.784 0.40329 0.42808 0.0
H260 H 0.8191 0.40879 0.43313 0.0
H261 H 0.7632 0.43116 0.43892 0.0
H262 H 0.77404 0.35608 0.43006 0.0
O263 O 0.88621 0.53448 0.40393 0.0
O264 O 0.88281 0.53749 0.36762 0.0
H265 H 0.74152 0.37095 0.34478 0.0
H266 H 0.7532 0.44636 0.33636 0.0
C267 C 0.76546 0.40827 0.34611 0.0
H268 H 0.79775 0.39314 0.33943 0.0
H269 H 0.86168 0.45983 0.32826 0.0
O270 O 0.81944 0.52564 0.4442 0.0
C271 C 0.90491 0.53385 0.38527 0.0
Co272 Co 0.67864 0.04053 0.59471 0.0
Co273 Co 0.68291 0.04094 0.6461 0.0
C274 C 0.7135 0.1457 0.61977 0.0
O275 O 0.70423 0.12007 0.60179 0.0
O276 O 0.70687 0.12048 0.63815 0.0
C277 C 0.7113 0.04963 0.55022 0.0
O278 O 0.74197 0.08454 0.55839 0.0
C279 C 0.71325 0.05481 0.69184 0.0
C280 C 0.67684 0.9813 0.70783 0.0
C281 C 0.70782 0.0255 0.7117 0.0
N282 N 0.68748 0.028 0.67688 0.0
N283 N 0.66514 0.98499 0.68669 0.0
C284 C 0.74204 0.10747 0.68707 0.0
H285 H 0.72135 0.14382 0.68026 0.0
H286 H 0.76696 0.09529 0.67447 0.0
H287 H 0.75905 0.12372 0.70196 0.0
C288 C 0.72286 0.92528 0.60168 0.0
N289 N 0.70906 0.97839 0.60922 0.0
N290 N 0.71316 0.97945 0.63064 0.0
C291 C 0.73129 0.92753 0.63723 0.0
C292 C 0.73727 0.8914 0.61917 0.0
C293 C 0.71649 0.90444 0.57871 0.0
H294 H 0.68129 0.91058 0.57393 0.0
H295 H 0.73722 0.93181 0.56764 0.0
H296 H 0.72591 0.85704 0.57675 0.0
O297 O 0.61538 0.03618 0.60298 0.0
O298 O 0.61864 0.03487 0.63931 0.0
H299 H 0.70672 0.89259 0.66733 0.0
H300 H 0.76333 0.87328 0.66159 0.0
C301 C 0.73838 0.90946 0.66047 0.0
H302 H 0.74989 0.94795 0.67019 0.0
H303 H 0.64271 0.95707 0.67877 0.0
O304 O 0.68187 0.02729 0.56266 0.0
C305 C 0.59662 0.03311 0.62159 0.0
Co306 Co 0.32814 0.98479 0.59328 0.0
Co307 Co 0.31944 0.98555 0.64467 0.0
C308 C 0.28985 0.88097 0.61879 0.0
O309 O 0.30066 0.90624 0.60088 0.0
O310 O 0.29543 0.90625 0.63717 0.0
C311 C 0.29409 1.00297 0.54935 0.0
O312 O 0.25548 1.00707 0.55925 0.0
C313 C 0.28806 0.9739 0.69055 0.0
C314 C 0.32343 0.04911 0.70586 0.0
C315 C 0.29299 1.00445 0.71015 0.0
N316 N 0.31364 1.0004 0.67533 0.0
N317 N 0.33529 0.04452 0.68474 0.0
C318 C 0.25996 0.92036 0.68627 0.0
H319 H 0.28112 0.8841 0.67977 0.0
H320 H 0.23498 0.93129 0.67358 0.0
H321 H 0.24302 0.90466 0.70132 0.0
C322 C 0.28643 0.10417 0.59997 0.0
N323 N 0.29798 0.04952 0.60715 0.0
N324 N 0.29031 0.04654 0.62836 0.0
C325 C 0.27103 0.09774 0.63487 0.0
C326 C 0.26866 0.13596 0.61722 0.0
C327 C 0.29971 0.12961 0.57836 0.0
H328 H 0.33257 0.11178 0.57375 0.0
H329 H 0.27494 0.11728 0.56583 0.0
H330 H 0.30149 0.17885 0.57886 0.0
O331 O 0.39062 0.9873 0.60243 0.0
O332 O 0.38435 0.99016 0.63865 0.0
H333 H 0.28851 0.13217 0.66615 0.0
H334 H 0.23237 0.14697 0.65824 0.0
C335 C 0.25911 0.11303 0.6579 0.0
H336 H 0.24779 0.07287 0.66679 0.0
H337 H 0.35743 0.07249 0.67656 0.0
O338 O 0.32845 0.99232 0.56069 0.0
C339 C 0.40782 0.9907 0.62133 0.0
Co340 Co 0.67422 0.98603 0.41301 0.0
Co341 Co 0.68181 0.98664 0.36159 0.0
C342 C 0.71122 0.8817 0.38754 0.0
O343 O 0.70104 0.9071 0.40548 0.0
O344 O 0.70531 0.90703 0.36916 0.0
C345 C 0.70881 1.00377 0.45689 0.0
O346 O 0.74746 1.00705 0.44697 0.0
C347 C 0.71313 0.97463 0.31575 0.0
C348 C 0.67593 0.04776 0.30001 0.0
C349 C 0.70723 1.00403 0.29594 0.0
N350 N 0.6872 1.00085 0.33086 0.0
N351 N 0.66453 0.04376 0.32121 0.0
C352 C 0.74252 0.92248 0.32032 0.0
H353 H 0.72213 0.88525 0.32673 0.0
H354 H 0.76679 0.93459 0.33318 0.0
H355 H 0.76032 0.90752 0.30543 0.0
C356 C 0.71628 0.10495 0.40591 0.0
N357 N 0.70458 0.05029 0.39889 0.0
N358 N 0.71173 0.04725 0.37764 0.0
C359 C 0.73077 0.09842 0.37091 0.0
C360 C 0.73362 0.13667 0.38849 0.0
C361 C 0.70291 0.13071 0.42743 0.0
H362 H 0.66925 0.1148 0.43159 0.0
H363 H 0.72658 0.11653 0.44021 0.0
H364 H 0.70278 0.18002 0.42705 0.0
O365 O 0.61165 0.98961 0.40415 0.0
O366 O 0.61708 0.99278 0.36791 0.0
H367 H 0.71129 0.13169 0.33971 0.0
H368 H 0.76745 0.14879 0.34701 0.0
C369 C 0.74145 0.11388 0.34774 0.0
H370 H 0.75321 0.074 0.33887 0.0
H371 H 0.64191 0.07127 0.32925 0.0
O372 O 0.67432 0.99381 0.44558 0.0
C373 C 0.59401 0.99357 0.38536 0.0
Co374 Co 0.32297 0.04101 0.41137 0.0
Co375 Co 0.31906 0.04314 0.35997 0.0
C376 C 0.28751 0.1466 0.38655 0.0
O377 O 0.29696 0.12053 0.40446 0.0
O378 O 0.29428 0.12203 0.3681 0.0
C379 C 0.29096 0.04935 0.45602 0.0
O380 O 0.2606 0.08525 0.4481 0.0
C381 C 0.28822 0.05621 0.31426 0.0
C382 C 0.32803 0.98639 0.29807 0.0
C383 C 0.29517 0.02821 0.2943 0.0
N384 N 0.31504 0.03093 0.32917 0.0
N385 N 0.3393 0.99008 0.31926 0.0
C386 C 0.25689 0.10604 0.31921 0.0
H387 H 0.27582 0.14415 0.32591 0.0
H388 H 0.233 0.0915 0.33197 0.0
H389 H 0.23868 0.12077 0.30443 0.0
C390 C 0.27908 0.92573 0.40394 0.0
N391 N 0.293 0.97905 0.3966 0.0
N392 N 0.28941 0.98064 0.37516 0.0
C393 C 0.27173 0.92876 0.36833 0.0
C394 C 0.26525 0.89223 0.38628 0.0
C395 C 0.28452 0.90448 0.42694 0.0
H396 H 0.3196 0.91007 0.43201 0.0
H397 H 0.26363 0.93201 0.43786 0.0
H398 H 0.27472 0.85717 0.42878 0.0
O399 O 0.38635 0.03786 0.40318 0.0
O400 O 0.38328 0.0383 0.36684 0.0
H401 H 0.29815 0.89662 0.33824 0.0
H402 H 0.24209 0.87351 0.34358 0.0
C403 C 0.26576 0.91111 0.345 0.0
H404 H 0.2532 0.94928 0.33538 0.0
H405 H 0.36282 0.96361 0.32713 0.0
O406 O 0.31984 0.02666 0.44338 0.0
C407 C 0.4052 0.03605 0.38458 0.0
Co408 Co 0.67735 0.54026 0.09452 0.0
Co409 Co 0.68218 0.53963 0.14588 0.0
C410 C 0.71306 0.64461 0.11987 0.0
O411 O 0.70292 0.61968 0.10187 0.0
O412 O 0.70704 0.61879 0.13817 0.0
C413 C 0.71013 0.55074 0.05012 0.0
O414 O 0.74051 0.58579 0.05847 0.0
C415 C 0.71197 0.55242 0.19169 0.0
C416 C 0.67556 0.4784 0.20736 0.0
C417 C 0.7064 0.52264 0.21144 0.0
N418 N 0.68646 0.52582 0.17658 0.0
N419 N 0.6641 0.48251 0.1862 0.0
C420 C 0.74057 0.60543 0.18719 0.0
H421 H 0.71974 0.64186 0.18054 0.0
H422 H 0.76557 0.59385 0.17455 0.0
H423 H 0.75748 0.62127 0.20217 0.0
C424 C 0.7215 0.42462 0.10109 0.0
N425 N 0.70764 0.47752 0.10881 0.0
N426 N 0.71175 0.478 0.13023 0.0
C427 C 0.72985 0.42591 0.13665 0.0
C428 C 0.73586 0.39026 0.11847 0.0
C429 C 0.71557 0.40454 0.078 0.0
H430 H 0.68044 0.41068 0.0731 0.0
H431 H 0.7364 0.4324 0.06714 0.0
H432 H 0.72516 0.35726 0.07586 0.0
O433 O 0.61405 0.53638 0.10282 0.0
O434 O 0.61785 0.53532 0.13914 0.0
H435 H 0.76216 0.37128 0.16081 0.0
H436 H 0.7486 0.4457 0.16964 0.0
C437 C 0.73712 0.40739 0.15983 0.0
H438 H 0.70554 0.39024 0.16668 0.0
H439 H 0.64179 0.45471 0.17813 0.0
O440 O 0.68072 0.5278 0.06242 0.0
C441 C 0.59558 0.53381 0.1215 0.0
Co442 Co 0.32639 0.4872 0.09345 0.0
Co443 Co 0.31864 0.48683 0.1449 0.0
C444 C 0.28879 0.38271 0.1187 0.0
O445 O 0.29916 0.40847 0.10083 0.0
O446 O 0.29478 0.40753 0.13714 0.0
C447 C 0.29245 0.50555 0.04943 0.0
O448 O 0.25365 0.50893 0.05918 0.0
C449 C 0.28745 0.47382 0.1908 0.0
C450 C 0.32342 0.54799 0.20644 0.0
C451 C 0.29272 0.50352 0.21056 0.0
N452 N 0.31308 0.50061 0.17566 0.0
N453 N 0.33508 0.5441 0.18527 0.0
C454 C 0.25897 0.42078 0.1863 0.0
H455 H 0.27988 0.38444 0.17965 0.0
H456 H 0.23408 0.43241 0.17365 0.0
H457 H 0.24191 0.40484 0.20128 0.0
C458 C 0.28431 0.60609 0.10061 0.0
N459 N 0.29617 0.5514 0.10762 0.0
N460 N 0.2891 0.54811 0.12887 0.0
C461 C 0.27003 0.59923 0.13562 0.0
C462 C 0.26709 0.63768 0.11806 0.0
C463 C 0.2968 0.63168 0.0789 0.0
H464 H 0.32987 0.61479 0.0742 0.0
H465 H 0.27205 0.61842 0.0665 0.0
H466 H 0.29773 0.68097 0.07927 0.0
O467 O 0.38891 0.49002 0.10244 0.0
O468 O 0.38347 0.49239 0.13869 0.0
H469 H 0.28892 0.63269 0.16685 0.0
H470 H 0.23264 0.64866 0.15946 0.0
C471 C 0.25904 0.61428 0.15878 0.0
H472 H 0.24764 0.57414 0.16765 0.0
H473 H 0.35734 0.57213 0.17721 0.0
O474 O 0.32672 0.49537 0.06089 0.0
C475 C 0.40656 0.49331 0.12124 0.0
Co476 Co 0.67491 0.48807 0.91273 0.0
Co477 Co 0.68297 0.48735 0.86131 0.0
C478 C 0.71235 0.38311 0.88753 0.0
O479 O 0.70114 0.40858 0.90531 0.0
O480 O 0.70735 0.40841 0.86907 0.0
C481 C 0.70923 0.50645 0.95667 0.0
O482 O 0.74793 0.51026 0.94683 0.0
C483 C 0.71406 0.47482 0.81543 0.0
C484 C 0.67728 0.54829 0.79968 0.0
C485 C 0.70837 0.5043 0.79562 0.0
N486 N 0.68827 0.50128 0.83054 0.0
N487 N 0.66581 0.54437 0.82087 0.0
C488 C 0.74308 0.4223 0.81999 0.0
H489 H 0.76757 0.43419 0.83278 0.0
H490 H 0.76063 0.40701 0.80507 0.0
H491 H 0.72245 0.38542 0.82648 0.0
C492 C 0.71711 0.60672 0.90544 0.0
N493 N 0.70538 0.55199 0.8985 0.0
N494 N 0.71237 0.54876 0.87724 0.0
C495 C 0.73138 0.5999 0.87043 0.0
C496 C 0.73434 0.6383 0.88797 0.0
C497 C 0.70407 0.63259 0.92698 0.0
H498 H 0.67108 0.6153 0.93163 0.0
H499 H 0.72875 0.62002 0.93954 0.0
H500 H 0.70264 0.68186 0.92635 0.0
O501 O 0.61251 0.49234 0.90383 0.0
O502 O 0.61801 0.49188 0.86757 0.0
H503 H 0.71214 0.63299 0.83917 0.0
H504 H 0.76831 0.64984 0.84651 0.0
C505 C 0.7422 0.61507 0.84725 0.0
H506 H 0.75389 0.57505 0.83844 0.0
H507 H 0.64332 0.57209 0.82891 0.0
O508 O 0.67491 0.49601 0.94529 0.0
C509 C 0.59492 0.49416 0.885 0.0
Co510 Co 0.32391 0.54178 0.91153 0.0
Co511 Co 0.31975 0.54305 0.86014 0.0
C512 C 0.28872 0.64715 0.88635 0.0
O513 O 0.29848 0.62156 0.90432 0.0
O514 O 0.29499 0.62199 0.86798 0.0
C515 C 0.29145 0.55152 0.95603 0.0
O516 O 0.2613 0.5873 0.94784 0.0
C517 C 0.28867 0.55523 0.81449 0.0
C518 C 0.32795 0.48462 0.79843 0.0
C519 C 0.29522 0.52661 0.79461 0.0
N520 N 0.31556 0.53012 0.82941 0.0
N521 N 0.33952 0.48883 0.81957 0.0
C522 C 0.25768 0.60552 0.81934 0.0
H523 H 0.2769 0.64356 0.82589 0.0
H524 H 0.23379 0.59152 0.83218 0.0
H525 H 0.23947 0.62015 0.80455 0.0
C526 C 0.27955 0.42681 0.90455 0.0
N527 N 0.29352 0.47989 0.89701 0.0
N528 N 0.29009 0.48084 0.87556 0.0
C529 C 0.27247 0.42874 0.86893 0.0
C530 C 0.26589 0.39275 0.88701 0.0
C531 C 0.28503 0.40616 0.92763 0.0
H532 H 0.32014 0.41166 0.93264 0.0
H533 H 0.26428 0.43409 0.93847 0.0
H534 H 0.27507 0.35896 0.92966 0.0
O535 O 0.38722 0.53693 0.90328 0.0
O536 O 0.38401 0.53891 0.86695 0.0
H537 H 0.24304 0.37265 0.84437 0.0
H538 H 0.25416 0.44815 0.83586 0.0
C539 C 0.26668 0.41032 0.84566 0.0
H540 H 0.29912 0.39562 0.83902 0.0
H541 H 0.36303 0.46239 0.82747 0.0
O542 O 0.32051 0.52841 0.9436 0.0
C543 C 0.406 0.53559 0.88464 0.0
C544 C 0.27807 0.0353 0.23317 0.0
C545 C 0.23107 0.03499 0.23149 0.0
C546 C 0.22539 0.02986 0.27135 0.0
C547 C 0.27211 0.03672 0.27306 0.0
N548 N 0.34105 0.06285 0.25534 0.0
N549 N 0.16036 0.04893 0.24938 0.0
C550 C 0.29784 0.04509 0.25386 0.0
C551 C 0.20484 0.03793 0.25073 0.0
N552 N 0.30402 0.02214 0.21551 0.0
N553 N 0.20081 0.0116 0.28889 0.0
H554 H 0.14441 0.05721 0.23457 0.0
H555 H 0.14057 0.05639 0.26309 0.0
H556 H 0.21463 1.00133 0.304 0.0
H557 H 0.16732 1.00053 0.28771 0.0
H558 H 0.33826 0.01634 0.21662 0.0
H559 H 0.29114 0.01064 0.20032 0.0
H560 H 0.36001 0.07432 0.2417 0.0
H561 H 0.35622 0.07248 0.27022 0.0
C562 C 0.72336 0.99732 0.23466 0.0
C563 C 0.77031 0.9953 0.23275 0.0
C564 C 0.7766 0.99903 0.27261 0.0
C565 C 0.72974 0.99477 0.27454 0.0
N566 N 0.65982 0.97298 0.25714 0.0
N567 N 0.84078 0.97732 0.25024 0.0
C568 C 0.70354 0.98829 0.25546 0.0
C569 C 0.79666 0.99054 0.25185 0.0
N570 N 0.69761 0.01187 0.21711 0.0
N571 N 0.80193 0.01515 0.29011 0.0
H572 H 0.8563 0.9687 0.23532 0.0
H573 H 0.86053 0.96844 0.26382 0.0
H574 H 0.78861 0.02538 0.30535 0.0
H575 H 0.83571 0.02444 0.28882 0.0
H576 H 0.66358 0.01946 0.21836 0.0
H577 H 0.71065 0.0226 0.20183 0.0
H578 H 0.64034 0.9628 0.2436 0.0
H579 H 0.64454 0.964 0.27209 0.0
C580 C 0.22323 0.99699 0.73315 0.0
C581 C 0.27024 0.99546 0.73153 0.0
C582 C 0.27542 1.00103 0.7714 0.0
C583 C 0.22857 0.99574 0.77308 0.0
N584 N 0.15934 0.97215 0.75531 0.0
N585 N 0.34036 0.97921 0.7496 0.0
C586 C 0.20294 0.98823 0.75386 0.0
C587 C 0.29611 0.99191 0.75083 0.0
N588 N 0.19782 0.01083 0.7154 0.0
N589 N 0.3001 0.01873 0.78891 0.0
H590 H 0.35636 0.97002 0.73486 0.0
H591 H 0.35977 0.97128 0.76338 0.0
H592 H 0.28625 0.02978 0.80396 0.0
H593 H 0.33381 0.02862 0.78774 0.0
H594 H 0.16371 0.01797 0.71643 0.0
H595 H 0.21119 0.02154 0.7002 0.0
H596 H 0.14036 0.96126 0.74167 0.0
H597 H 0.14374 0.96327 0.77019 0.0
C598 C 0.70541 0.03914 0.75233 0.0
C599 C 0.73092 0.03486 0.73289 0.0
C600 C 0.79857 0.04305 0.75472 0.0
C601 C 0.77333 0.03613 0.77415 0.0
N602 N 0.70213 0.01289 0.7905 0.0
N603 N 0.80306 0.01803 0.7165 0.0
C604 C 0.72647 0.03052 0.77279 0.0
C605 C 0.77795 0.03317 0.73424 0.0
N606 N 0.66117 0.05197 0.75134 0.0
N607 N 0.84212 0.05954 0.75575 0.0
H608 H 0.78943 1.00604 0.70152 0.0
H609 H 0.83719 0.01097 0.71741 0.0
H610 H 0.85793 0.0694 0.77045 0.0
H611 H 0.86078 0.06984 0.74189 0.0
H612 H 0.64206 0.0603 0.76522 0.0
H613 H 0.6449 0.06088 0.73666 0.0
H614 H 0.66842 1.00291 0.78956 0.0
H615 H 0.71628 1.00186 0.80547 0.0
C616 C 0.27681 0.53182 0.73355 0.0
C617 C 0.22979 0.53318 0.73211 0.0
C618 C 0.225 0.5289 0.77201 0.0
C619 C 0.27183 0.53469 0.77344 0.0
N620 N 0.34072 0.55844 0.75519 0.0
N621 N 0.15978 0.54969 0.75039 0.0
C622 C 0.29722 0.54175 0.75407 0.0
C623 C 0.20407 0.53726 0.75149 0.0
N624 N 0.30211 0.51695 0.71584 0.0
N625 N 0.20058 0.51142 0.7897 0.0
H626 H 0.1436 0.55834 0.73567 0.0
H627 H 0.14049 0.55793 0.76422 0.0
H628 H 0.21464 0.50078 0.80473 0.0
H629 H 0.1669 0.50125 0.78873 0.0
H630 H 0.33626 0.5101 0.71681 0.0
H631 H 0.28866 0.50498 0.70082 0.0
H632 H 0.35948 0.56889 0.74138 0.0
H633 H 0.35639 0.56829 0.76993 0.0
C634 C 0.79817 0.49019 0.75172 0.0
C635 C 0.77203 0.49514 0.73255 0.0
C636 C 0.705 0.4888 0.75511 0.0
C637 C 0.73104 0.49499 0.77426 0.0
N638 N 0.80317 0.51476 0.78999 0.0
N639 N 0.69956 0.51254 0.71676 0.0
C640 C 0.77794 0.49885 0.77244 0.0
C641 C 0.72507 0.49766 0.73437 0.0
N642 N 0.84224 0.47661 0.75022 0.0
N643 N 0.66117 0.47393 0.75668 0.0
H644 H 0.71281 0.52321 0.70153 0.0
H645 H 0.66557 0.52048 0.71794 0.0
H646 H 0.64569 0.46509 0.7716 0.0
H647 H 0.64177 0.46396 0.74309 0.0
H648 H 0.86181 0.46756 0.76385 0.0
H649 H 0.85789 0.46789 0.73534 0.0
H650 H 0.83701 0.52377 0.78878 0.0
H651 H 0.78975 0.52511 0.8052 0.0
C652 C 0.29616 0.48926 0.25115 0.0
C653 C 0.27011 0.49399 0.23194 0.0
C654 C 0.20301 0.48746 0.25446 0.0
C655 C 0.22894 0.49398 0.27362 0.0
N656 N 0.30096 0.51459 0.28935 0.0
N657 N 0.19766 0.51105 0.21609 0.0
C658 C 0.27584 0.49814 0.27183 0.0
C659 C 0.22314 0.49631 0.23372 0.0
N660 N 0.34026 0.47575 0.24972 0.0
N661 N 0.15924 0.47231 0.25599 0.0
H662 H 0.21094 0.5218 0.20087 0.0
H663 H 0.16364 0.51881 0.21724 0.0
H664 H 0.14373 0.46345 0.2709 0.0
H665 H 0.13994 0.46213 0.24239 0.0
H666 H 0.35976 0.46694 0.2634 0.0
H667 H 0.35596 0.46679 0.23488 0.0
H668 H 0.33478 0.52377 0.28813 0.0
H669 H 0.28746 0.52528 0.30451 0.0
C670 C 0.70364 0.53609 0.25206 0.0
C671 C 0.72931 0.53169 0.23268 0.0
C672 C 0.79683 0.53948 0.25461 0.0
C673 C 0.7714 0.53283 0.27399 0.0
N674 N 0.70001 0.51036 0.29027 0.0
N675 N 0.8015 0.5147 0.21637 0.0
C676 C 0.72453 0.52755 0.27257 0.0
C677 C 0.77632 0.52979 0.23409 0.0
N678 N 0.65942 0.54902 0.25097 0.0
N679 N 0.84045 0.55559 0.25573 0.0
H680 H 0.78794 0.50301 0.20134 0.0
H681 H 0.8356 0.50744 0.21732 0.0
H682 H 0.85621 0.56523 0.27046 0.0
H683 H 0.85929 0.56576 0.24191 0.0
H684 H 0.6402 0.55752 0.2648 0.0
H685 H 0.64327 0.55782 0.23625 0.0
H686 H 0.66627 0.50055 0.2893 0.0
H687 H 0.71401 0.49957 0.3053 0.0
C688 C 0.27391 0.21649 0.10848 0.0
C689 C 0.23119 0.20702 0.11772 0.0
C690 C 0.22476 0.31379 0.12571 0.0
C691 C 0.2688 0.32238 0.11806 0.0
N692 N 0.33794 0.28138 0.10516 0.0
N693 N 0.16706 0.24487 0.13687 0.0
C694 C 0.29401 0.27366 0.11008 0.0
C695 C 0.20703 0.25517 0.12693 0.0
N696 N 0.29544 0.17074 0.09826 0.0
N697 N 0.19915 0.36207 0.13084 0.0
H698 H 0.15116 0.20371 0.13662 0.0
H699 H 0.1506 0.27621 0.1464 0.0
H700 H 0.21073 0.40569 0.12992 0.0
H701 H 0.16536 0.35966 0.13425 0.0
H702 H 0.32389 0.1764 0.08882 0.0
H703 H 0.28349 0.12726 0.09805 0.0
H704 H 0.35956 0.24659 0.10164 0.0
H705 H 0.35399 0.32232 0.10633 0.0
C706 C 0.70742 0.75378 0.1282 0.0
C707 C 0.73223 0.70547 0.11955 0.0
C708 C 0.79507 0.77231 0.1122 0.0
C709 C 0.76921 0.82117 0.11953 0.0
N710 N 0.69889 0.86078 0.13142 0.0
N711 N 0.79768 0.66876 0.10121 0.0
C712 C 0.72491 0.81251 0.12681 0.0
C713 C 0.77538 0.71486 0.1108 0.0
N714 N 0.66703 0.74354 0.13773 0.0
N715 N 0.83916 0.78027 0.10769 0.0
H716 H 0.78604 0.62511 0.10127 0.0
H717 H 0.82655 0.67415 0.09206 0.0
H718 H 0.8549 0.82146 0.10871 0.0
H719 H 0.86115 0.74556 0.10467 0.0
H720 H 0.64993 0.77516 0.14685 0.0
H721 H 0.65142 0.70218 0.1376 0.0
H722 H 0.66499 0.85825 0.13452 0.0
H723 H 0.71034 0.90445 0.13039 0.0
C724 C 0.27533 0.81399 0.89562 0.0
C725 C 0.23232 0.82354 0.88679 0.0
C726 C 0.22503 0.71655 0.87941 0.0
C727 C 0.26918 0.70774 0.88679 0.0
N728 N 0.33885 0.74817 0.89903 0.0
N729 N 0.16726 0.78568 0.86857 0.0
C730 C 0.29493 0.75643 0.89428 0.0
C731 C 0.20757 0.77531 0.87809 0.0
N732 N 0.29757 0.86004 0.90521 0.0
N733 N 0.19909 0.66836 0.87466 0.0
H734 H 0.15157 0.827 0.8688 0.0
H735 H 0.15024 0.75419 0.85939 0.0
H736 H 0.21054 0.62467 0.87561 0.0
H737 H 0.16524 0.67093 0.87149 0.0
H738 H 0.32628 0.85461 0.91442 0.0
H739 H 0.28607 0.90376 0.90506 0.0
H740 H 0.36088 0.7827 0.9022 0.0
H741 H 0.35447 0.70686 0.89812 0.0
C742 C 0.70727 0.27402 0.87897 0.0
C743 C 0.73136 0.32212 0.8882 0.0
C744 C 0.79391 0.25523 0.89605 0.0
C745 C 0.76881 0.20662 0.88799 0.0
N746 N 0.69944 0.16714 0.87493 0.0
N747 N 0.79536 0.35827 0.90775 0.0
C748 C 0.72495 0.21535 0.88019 0.0
C749 C 0.77391 0.31252 0.89754 0.0
N750 N 0.6674 0.28441 0.86902 0.0
N751 N 0.83768 0.24724 0.9012 0.0
H752 H 0.78352 0.40182 0.90785 0.0
H753 H 0.82364 0.3526 0.91726 0.0
H754 H 0.85361 0.20616 0.90017 0.0
H755 H 0.85932 0.28188 0.90481 0.0
H756 H 0.65102 0.25315 0.85946 0.0
H757 H 0.65147 0.32556 0.86931 0.0
H758 H 0.66573 0.16958 0.87141 0.0
H759 H 0.71103 0.1235 0.87581 0.0
C760 C 0.71411 0.8052 0.88508 0.0
C761 C 0.75814 0.82673 0.88672 0.0
C762 C 0.7864 0.72485 0.88994 0.0
C763 C 0.7427 0.70322 0.88701 0.0
N764 N 0.66565 0.72102 0.87856 0.0
N765 N 0.83702 0.8082 0.88691 0.0
C766 C 0.70671 0.74292 0.88359 0.0
C767 C 0.79459 0.78686 0.88806 0.0
N768 N 0.67937 0.8443 0.88557 0.0
N769 N 0.81987 0.68618 0.89501 0.0
H770 H 0.84442 0.85335 0.88565 0.0
H771 H 0.86488 0.78114 0.88542 0.0
H772 H 0.8153 0.64026 0.89589 0.0
H773 H 0.85137 0.69969 0.89986 0.0
H774 H 0.64633 0.83135 0.88693 0.0
H775 H 0.68367 0.8903 0.88617 0.0
H776 H 0.63922 0.74748 0.87354 0.0
H777 H 0.65864 0.67567 0.87783 0.0
C778 C 0.29482 0.2882 0.88683 0.0
C779 C 0.25806 0.32771 0.88688 0.0
C780 C 0.20665 0.24359 0.8851 0.0
C781 C 0.24329 0.2041 0.88673 0.0
N782 N 0.32146 0.18732 0.89199 0.0
N783 N 0.17925 0.34463 0.88869 0.0
C784 C 0.2872 0.226 0.8884 0.0
C785 C 0.21399 0.30585 0.88673 0.0
N786 N 0.33695 0.31011 0.88466 0.0
N787 N 0.16498 0.22155 0.88157 0.0
H788 H 0.18346 0.39063 0.88941 0.0
H789 H 0.14654 0.33138 0.89115 0.0
H790 H 0.15796 0.17619 0.88098 0.0
H791 H 0.13772 0.24795 0.87772 0.0
H792 H 0.36471 0.28351 0.88204 0.0
H793 H 0.34404 0.35543 0.88384 0.0
H794 H 0.35353 0.20076 0.89586 0.0
H795 H 0.31719 0.14132 0.89265 0.0
C796 C 0.78816 0.30372 0.11968 0.0
C797 C 0.74406 0.32526 0.11852 0.0
C798 C 0.71573 0.22334 0.11592 0.0
C799 C 0.75954 0.20173 0.11851 0.0
N800 N 0.83687 0.21975 0.12623 0.0
N801 N 0.66518 0.30669 0.11927 0.0
C802 C 0.79564 0.2415 0.1214 0.0
C803 C 0.70758 0.28537 0.11769 0.0
N804 N 0.82288 0.34275 0.11856 0.0
N805 N 0.68209 0.18461 0.11127 0.0
H806 H 0.65776 0.35185 0.12042 0.0
H807 H 0.63746 0.27959 0.12121 0.0
H808 H 0.68667 0.13869 0.11044 0.0
H809 H 0.65038 0.19808 0.10671 0.0
H810 H 0.85583 0.32966 0.11685 0.0
H811 H 0.81854 0.38873 0.11772 0.0
H812 H 0.86343 0.24639 0.13089 0.0
H813 H 0.84388 0.17443 0.1272 0.0
C814 C 0.20705 0.78639 0.12025 0.0
C815 C 0.24353 0.82617 0.11884 0.0
C816 C 0.29533 0.74242 0.12029 0.0
C817 C 0.25886 0.70263 0.11905 0.0
N818 N 0.18029 0.6855 0.11566 0.0
N819 N 0.32212 0.84324 0.11534 0.0
C820 C 0.21474 0.72426 0.11848 0.0
C821 C 0.28766 0.80453 0.11832 0.0
N822 N 0.16523 0.808 0.12378 0.0
N823 N 0.33716 0.72085 0.12381 0.0
H824 H 0.31778 0.88919 0.11434 0.0
H825 H 0.3546 0.82975 0.11229 0.0
H826 H 0.34417 0.67559 0.12517 0.0
H827 H 0.36439 0.74777 0.12716 0.0
H828 H 0.13798 0.78112 0.12722 0.0
H829 H 0.15823 0.85327 0.1251 0.0
H830 H 0.14784 0.69894 0.11258 0.0
H831 H 0.18463 0.63953 0.11485 0.0
C832 C 0.20825 0.75325 0.62706 0.0
C833 C 0.23295 0.70485 0.61839 0.0
C834 C 0.2958 0.77158 0.61089 0.0
C835 C 0.27008 0.8205 0.61829 0.0
N836 N 0.19988 0.86027 0.63028 0.0
N837 N 0.29821 0.66799 0.59993 0.0
C838 C 0.22581 0.81194 0.62563 0.0
C839 C 0.27603 0.71416 0.60954 0.0
N840 N 0.16793 0.74311 0.63667 0.0
N841 N 0.33985 0.77946 0.60627 0.0
H842 H 0.28652 0.62437 0.60003 0.0
H843 H 0.32701 0.67329 0.59072 0.0
H844 H 0.35564 0.82062 0.60723 0.0
H845 H 0.36178 0.74471 0.60319 0.0
H846 H 0.15092 0.77479 0.64581 0.0
H847 H 0.15226 0.70178 0.63658 0.0
H848 H 0.16599 0.85782 0.63344 0.0
H849 H 0.21138 0.90392 0.62922 0.0
C850 C 0.79468 0.27361 0.62827 0.0
C851 C 0.77057 0.32171 0.61897 0.0
C852 C 0.70803 0.25484 0.61124 0.0
C853 C 0.7332 0.20621 0.61932 0.0
N854 N 0.80269 0.16675 0.63232 0.0
N855 N 0.70652 0.35788 0.59941 0.0
C856 C 0.77708 0.21494 0.62708 0.0
C857 C 0.728 0.31213 0.60967 0.0
N858 N 0.83453 0.284 0.63822 0.0
N859 N 0.66425 0.24685 0.60614 0.0
H860 H 0.71838 0.40141 0.59923 0.0
H861 H 0.67821 0.35222 0.58993 0.0
H862 H 0.64834 0.20578 0.60726 0.0
H863 H 0.64258 0.2815 0.60251 0.0
H864 H 0.85089 0.25272 0.64783 0.0
H865 H 0.85043 0.32516 0.6379 0.0
H866 H 0.83642 0.16925 0.6358 0.0
H867 H 0.79119 0.12308 0.63146 0.0
C868 C 0.20609 0.2746 0.37852 0.0
C869 C 0.23043 0.32261 0.38766 0.0
C870 C 0.29305 0.25557 0.39518 0.0
C871 C 0.26774 0.20706 0.38717 0.0
N872 N 0.19811 0.16777 0.3744 0.0
N873 N 0.29486 0.35855 0.40692 0.0
C874 C 0.22374 0.2159 0.3796 0.0
C875 C 0.27315 0.31289 0.39679 0.0
N876 N 0.166 0.28511 0.3688 0.0
N877 N 0.33688 0.24743 0.40016 0.0
H878 H 0.28308 0.40213 0.40711 0.0
H879 H 0.32331 0.3528 0.4163 0.0
H880 H 0.35274 0.20631 0.39904 0.0
H881 H 0.35865 0.28198 0.40371 0.0
H882 H 0.14938 0.25395 0.3593 0.0
H883 H 0.15007 0.32626 0.36925 0.0
H884 H 0.16433 0.17026 0.37104 0.0
H885 H 0.2097 0.12411 0.37515 0.0
C886 C 0.7928 0.75409 0.37912 0.0
C887 C 0.76811 0.70555 0.38773 0.0
C888 C 0.7053 0.77221 0.39538 0.0
C889 C 0.73098 0.82121 0.38799 0.0
N890 N 0.80112 0.86115 0.37598 0.0
N891 N 0.70291 0.66839 0.40619 0.0
C892 C 0.77522 0.81275 0.3806 0.0
C893 C 0.72505 0.71473 0.39663 0.0
N894 N 0.83314 0.7441 0.36951 0.0
N895 N 0.6613 0.78011 0.4001 0.0
H896 H 0.7146 0.62476 0.40603 0.0
H897 H 0.67413 0.67353 0.41542 0.0
H898 H 0.64556 0.82135 0.39925 0.0
H899 H 0.63936 0.74536 0.40318 0.0
H900 H 0.85015 0.77591 0.3604 0.0
H901 H 0.84885 0.70279 0.36959 0.0
H902 H 0.83499 0.85877 0.37279 0.0
H903 H 0.78959 0.90479 0.37706 0.0
C904 C 0.71284 0.30347 0.38619 0.0
C905 C 0.7569 0.32518 0.38721 0.0
C906 C 0.78559 0.22341 0.38986 0.0
C907 C 0.74178 0.20162 0.38755 0.0
N908 N 0.66425 0.21918 0.38013 0.0
N909 N 0.83582 0.30703 0.38624 0.0
C910 C 0.70551 0.24119 0.38469 0.0
C911 C 0.79352 0.28548 0.38796 0.0
N912 N 0.67804 0.3424 0.38725 0.0
N913 N 0.81944 0.18483 0.39439 0.0
H914 H 0.84308 0.35225 0.38504 0.0
H915 H 0.86363 0.2801 0.38425 0.0
H916 H 0.81502 0.13888 0.39529 0.0
H917 H 0.85121 0.19842 0.39877 0.0
H918 H 0.64513 0.32926 0.38908 0.0
H919 H 0.68227 0.38841 0.38787 0.0
H920 H 0.6375 0.24562 0.37552 0.0
H921 H 0.65732 0.17381 0.37935 0.0
C922 C 0.20551 0.74344 0.38427 0.0
C923 C 0.24201 0.7037 0.38576 0.0
C924 C 0.29382 0.78752 0.38525 0.0
C925 C 0.2572 0.82724 0.38589 0.0
N926 N 0.17851 0.84445 0.38847 0.0
N927 N 0.32041 0.68644 0.38993 0.0
C928 C 0.21308 0.8056 0.38605 0.0
C929 C 0.28609 0.72533 0.38682 0.0
N930 N 0.16378 0.72172 0.38068 0.0
N931 N 0.33589 0.80924 0.38264 0.0
H932 H 0.31606 0.64045 0.39053 0.0
H933 H 0.35273 0.69967 0.39338 0.0
H934 H 0.34305 0.85454 0.38189 0.0
H935 H 0.36343 0.78257 0.37958 0.0
H936 H 0.13651 0.74844 0.37716 0.0
H937 H 0.15685 0.67642 0.3795 0.0
H938 H 0.14589 0.83117 0.39123 0.0
H939 H 0.18284 0.89041 0.38931 0.0
C940 C 0.71627 0.72466 0.61716 0.0
C941 C 0.76011 0.70273 0.61925 0.0
C942 C 0.78922 0.80448 0.62017 0.0
C943 C 0.74518 0.82635 0.61942 0.0
N944 N 0.66626 0.80847 0.62094 0.0
N945 N 0.83783 0.7201 0.6262 0.0
C946 C 0.70848 0.78676 0.61899 0.0
C947 C 0.7965 0.74219 0.6218 0.0
N948 N 0.68226 0.68617 0.61291 0.0
N949 N 0.82406 0.84324 0.61874 0.0
H950 H 0.84469 0.67472 0.62709 0.0
H951 H 0.8647 0.74651 0.6306 0.0
H952 H 0.81989 0.88926 0.618 0.0
H953 H 0.85688 0.82991 0.6167 0.0
H954 H 0.65039 0.69985 0.60871 0.0
H955 H 0.68659 0.64021 0.61207 0.0
H956 H 0.63846 0.78165 0.62312 0.0
H957 H 0.65911 0.85371 0.62214 0.0
C958 C 0.20832 0.28448 0.61779 0.0
C959 C 0.24479 0.32438 0.61853 0.0
C960 C 0.29645 0.24062 0.62095 0.0
C961 C 0.26033 0.20089 0.61803 0.0
N962 N 0.18273 0.18388 0.61114 0.0
N963 N 0.32361 0.34194 0.61834 0.0
C964 C 0.21645 0.22251 0.61575 0.0
C965 C 0.28892 0.30287 0.61946 0.0
N966 N 0.16596 0.30573 0.61968 0.0
N967 N 0.33774 0.21879 0.62559 0.0
H968 H 0.31925 0.38793 0.61771 0.0
H969 H 0.35653 0.3289 0.61644 0.0
H970 H 0.34477 0.17345 0.6264 0.0
H971 H 0.36436 0.24534 0.63025 0.0
H972 H 0.13826 0.27859 0.62162 0.0
H973 H 0.15862 0.35085 0.62114 0.0
H974 H 0.15092 0.19744 0.6068 0.0
H975 H 0.18733 0.13799 0.61009 0.0
C976 C 0.98441 0.95355 0.11882 0.0
C977 C 0.95514 1.00056 0.12426 0.0
C978 C 0.01826 0.06695 0.131 0.0
C979 C 0.04726 0.02183 0.12339 0.0
N980 N 0.05922 0.92271 0.10945 0.0
N981 N 0.94268 0.10351 0.1335 0.0
C982 C 0.03068 0.96519 0.11714 0.0
C983 C 0.97163 0.05757 0.13004 0.0
N984 N 0.96793 0.89742 0.11598 0.0
N985 N 0.03534 0.11875 0.13909 0.0
H986 H 0.90829 0.09844 0.13314 0.0
H987 H 0.95242 0.14763 0.13523 0.0
H988 H 0.06919 0.12837 0.13904 0.0
H989 H 0.01644 0.1506 0.14719 0.0
H990 H 0.98761 0.85974 0.11414 0.0
H991 H 0.93419 0.88754 0.11716 0.0
H992 H 0.04898 0.88339 0.10209 0.0
H993 H 0.09363 0.92777 0.10944 0.0
C994 C 0.01829 0.95889 0.89151 0.0
C995 C 0.0472 1.00495 0.88454 0.0
C996 C 0.9838 0.07214 0.8793 0.0
C997 C 0.95486 0.02519 0.88528 0.0
N998 N 0.94285 0.92161 0.89366 0.0
N999 N 0.05842 0.10338 0.86967 0.0
C1000 C 0.97164 0.96792 0.89051 0.0
C1001 C 0.03018 0.06092 0.87767 0.0
N1002 N 0.03551 0.90668 0.89926 0.0
N1003 N 0.96702 0.12801 0.8761 0.0
H1004 H 0.09283 0.09857 0.86952 0.0
H1005 H 0.04788 0.14221 0.86202 0.0
H1006 H 0.93319 0.13759 0.87699 0.0
H1007 H 0.9865 0.1658 0.87407 0.0
H1008 H 0.0167 0.87424 0.90712 0.0
H1009 H 0.06934 0.89691 0.89894 0.0
H1010 H 0.95275 0.87745 0.89512 0.0
H1011 H 0.90845 0.92648 0.89313 0.0
C1012 C 0.97286 0.55788 0.62968 0.0
C1013 C 0.95597 0.50158 0.6232 0.0
C1014 C 0.0316 0.46447 0.61752 0.0
C1015 C 0.04821 0.52216 0.62212 0.0
N1016 N 0.03594 0.62517 0.63085 0.0
N1017 N 0.96785 0.40229 0.60963 0.0
C1018 C 0.01922 0.56919 0.62794 0.0
C1019 C 0.98498 0.45513 0.61674 0.0
N1020 N 0.94452 0.60059 0.63737 0.0
N1021 N 0.06055 0.41821 0.61467 0.0
H1022 H 0.93406 0.39234 0.61021 0.0
H1023 H 0.98666 0.36933 0.6021 0.0
H1024 H 0.09493 0.4234 0.61501 0.0
H1025 H 0.05086 0.3739 0.61364 0.0
H1026 H 0.95493 0.63991 0.64467 0.0
H1027 H 0.91014 0.59552 0.63768 0.0
H1028 H 0.01644 0.66299 0.63274 0.0
H1029 H 0.06977 0.63475 0.62995 0.0
C1030 C 0.97043 0.4693 0.3767 0.0
C1031 C 0.95345 0.52481 0.38406 0.0
C1032 C 0.02907 0.56219 0.38929 0.0
C1033 C 0.04585 0.50518 0.38372 0.0
N1034 N 0.03382 0.40283 0.37397 0.0
N1035 N 0.9653 0.62274 0.39889 0.0
C1036 C 0.01691 0.45837 0.37772 0.0
C1037 C 0.98243 0.57088 0.39082 0.0
N1038 N 0.94204 0.42697 0.36885 0.0
N1039 N 0.05784 0.60851 0.39233 0.0
H1040 H 0.93142 0.63224 0.399 0.0
H1041 H 0.98427 0.65515 0.4066 0.0
H1042 H 0.09223 0.60386 0.39133 0.0
H1043 H 0.0479 0.65255 0.39412 0.0
H1044 H 0.95242 0.3886 0.36086 0.0
H1045 H 0.90761 0.43141 0.36919 0.0
H1046 H 0.01445 0.36498 0.37194 0.0
H1047 H 0.06774 0.39357 0.37426 0.0
C1048 C 0.47251 0.05745 0.62866 0.0
C1049 C 0.45619 1.00027 0.623 0.0
C1050 C 0.53192 0.96497 0.61627 0.0
C1051 C 0.54836 0.02163 0.62261 0.0
N1052 N 0.53592 0.11903 0.63782 0.0
N1053 N 0.46924 0.89713 0.61481 0.0
C1054 C 0.51911 0.06694 0.62983 0.0
C1055 C 0.48561 0.9533 0.61771 0.0
N1056 N 0.44342 0.10339 0.63185 0.0
N1057 N 0.56065 0.92246 0.60877 0.0
H1058 H 0.43547 0.88721 0.61579 0.0
H1059 H 0.48897 0.85946 0.61312 0.0
H1060 H 0.59504 0.92759 0.60889 0.0
H1061 H 0.55059 0.88307 0.6014 0.0
H1062 H 0.45305 0.14758 0.63348 0.0
H1063 H 0.40905 0.09821 0.63134 0.0
H1064 H 0.51681 0.15101 0.64572 0.0
H1065 H 0.56974 0.12889 0.63782 0.0
C1066 C 0.47021 0.96969 0.37736 0.0
C1067 C 0.45363 0.02635 0.38357 0.0
C1068 C 0.52915 0.06141 0.39082 0.0
C1069 C 0.54583 1.0053 0.38395 0.0
N1070 N 0.53396 0.909 0.36777 0.0
N1071 N 0.46623 0.12881 0.39297 0.0
C1072 C 0.51685 0.96042 0.37621 0.0
C1073 C 0.48282 0.07299 0.38946 0.0
N1074 N 0.44127 0.92397 0.37357 0.0
N1075 N 0.55767 0.10349 0.39875 0.0
H1076 H 0.43244 0.13864 0.39215 0.0
H1077 H 0.48582 0.16642 0.3951 0.0
H1078 H 0.59209 0.09867 0.39848 0.0
H1079 H 0.54743 0.14222 0.40654 0.0
H1080 H 0.45101 0.87996 0.37146 0.0
H1081 H 0.40689 0.92902 0.37408 0.0
H1082 H 0.5151 0.87746 0.35954 0.0
H1083 H 0.56781 0.89935 0.36771 0.0
C1084 C 0.53033 0.46782 0.12874 0.0
C1085 C 0.54712 0.52457 0.12271 0.0
C1086 C 0.47168 0.5608 0.11599 0.0
C1087 C 0.45479 0.50456 0.12265 0.0
N1088 N 0.46639 0.40749 0.13837 0.0
N1089 N 0.53489 0.62768 0.11403 0.0
C1090 C 0.48366 0.45904 0.13006 0.0
C1091 C 0.51808 0.57182 0.11725 0.0
N1092 N 0.55907 0.42162 0.13217 0.0
N1093 N 0.44328 0.60351 0.10835 0.0
H1094 H 0.56874 0.63713 0.11481 0.0
H1095 H 0.51543 0.66558 0.11224 0.0
H1096 H 0.40884 0.59901 0.10868 0.0
H1097 H 0.45366 0.64247 0.1007 0.0
H1098 H 0.54911 0.37764 0.13414 0.0
H1099 H 0.59348 0.4263 0.13153 0.0
H1100 H 0.48523 0.37536 0.14635 0.0
H1101 H 0.43247 0.39833 0.1386 0.0
C1102 C 0.47119 0.47017 0.87637 0.0
C1103 C 0.45449 0.52603 0.88353 0.0
C1104 C 0.53028 0.56268 0.88882 0.0
C1105 C 0.54675 0.50536 0.88347 0.0
N1106 N 0.53422 0.403 0.87391 0.0
N1107 N 0.46681 0.62418 0.89808 0.0
C1108 C 0.51759 0.45875 0.87751 0.0
C1109 C 0.48369 0.57194 0.89021 0.0
N1110 N 0.44261 0.42797 0.86859 0.0
N1111 N 0.55932 0.60874 0.8918 0.0
H1112 H 0.43298 0.63405 0.89809 0.0
H1113 H 0.4859 0.65655 0.90573 0.0
H1114 H 0.59369 0.60365 0.89091 0.0
H1115 H 0.54965 0.65292 0.89343 0.0
H1116 H 0.45281 0.38929 0.86075 0.0
H1117 H 0.4082 0.43279 0.86885 0.0
H1118 H 0.51466 0.3653 0.87193 0.0
H1119 H 0.56809 0.39343 0.87426 0.0
C1120 C 0.24362 0.02922 0.98943 0.0
C1121 C 0.21092 0.99251 0.97974 0.0
C1122 C 0.17622 0.97697 0.01562 0.0
C1123 C 0.20728 0.01715 0.02516 0.0
N1124 N 0.26196 0.09416 0.01956 0.0
N1125 N 0.14212 0.93828 0.98276 0.0
C1126 C 0.23866 0.04675 0.01161 0.0
C1127 C 0.17586 0.96889 0.99257 0.0
N1128 N 0.27957 0.04743 0.97753 0.0
N1129 N 0.14857 0.94373 0.02846 0.0
H1130 H 0.14225 0.92671 0.96628 0.0
H1131 H 0.11257 0.9275 0.99069 0.0
H1132 H 0.14574 0.94868 0.04522 0.0
H1133 H 0.13029 0.90781 0.02266 0.0
H1134 H 0.30687 0.06858 0.98446 0.0
H1135 H 0.28393 0.03719 0.96107 0.0
H1136 H 0.28206 0.12109 0.00985 0.0
H1137 H 0.25718 0.11106 0.03524 0.0
C1138 C 0.75909 1.0018 0.99063 0.0
C1139 C 0.79281 0.03665 0.98076 0.0
C1140 C 0.8294 0.04823 0.01632 0.0
C1141 C 0.79665 0.01072 0.02609 0.0
N1142 N 0.73888 0.93785 0.02088 0.0
N1143 N 0.86381 0.08564 0.9832 0.0
C1144 C 0.76384 0.98364 0.01276 0.0
C1145 C 0.82921 0.05723 0.99329 0.0
N1146 N 0.72237 0.98596 0.97893 0.0
N1147 N 0.85943 0.07801 0.02891 0.0
H1148 H 0.86353 0.09786 0.96677 0.0
H1149 H 0.89407 0.09391 0.99079 0.0
H1150 H 0.8638 0.07079 0.04548 0.0
H1151 H 0.87888 0.11288 0.02309 0.0
H1152 H 0.69445 0.96653 0.986 0.0
H1153 H 0.71823 0.99638 0.96246 0.0
H1154 H 0.71747 0.91252 0.01134 0.0
H1155 H 0.74343 0.92041 0.03651 0.0
C1156 C 0.24396 0.49818 0.51609 0.0
C1157 C 0.2118 0.53581 0.52584 0.0
C1158 C 0.17801 0.55331 0.48994 0.0
C1159 C 0.2083 0.51203 0.48035 0.0
N1160 N 0.26134 0.43295 0.48588 0.0
N1161 N 0.14427 0.59282 0.52282 0.0
C1162 C 0.23892 0.48112 0.49388 0.0
C1163 C 0.17747 0.56102 0.51301 0.0
N1164 N 0.27948 0.47869 0.52796 0.0
N1165 N 0.15132 0.58788 0.47713 0.0
H1166 H 0.14442 0.60416 0.53933 0.0
H1167 H 0.11509 0.60491 0.51488 0.0
H1168 H 0.14872 0.58337 0.46035 0.0
H1169 H 0.13375 0.62443 0.48298 0.0
H1170 H 0.30643 0.45669 0.52099 0.0
H1171 H 0.28395 0.48874 0.54442 0.0
H1172 H 0.28076 0.40516 0.49557 0.0
H1173 H 0.25643 0.41639 0.47016 0.0
C1174 C 0.75821 0.50088 0.49034 0.0
C1175 C 0.79145 0.53643 0.4804 0.0
C1176 C 0.8273 0.55041 0.51602 0.0
C1177 C 0.79531 0.51185 0.52585 0.0
N1178 N 0.73895 0.43694 0.52074 0.0
N1179 N 0.86143 0.58799 0.48287 0.0
C1180 C 0.76311 0.48338 0.51254 0.0
C1181 C 0.82727 0.55866 0.49295 0.0
N1182 N 0.72182 0.48372 0.47865 0.0
N1183 N 0.85638 0.5819 0.52859 0.0
H1184 H 0.86112 0.59977 0.46639 0.0
H1185 H 0.89142 0.59752 0.49053 0.0
H1186 H 0.8603 0.57578 0.54524 0.0
H1187 H 0.87524 0.61723 0.52266 0.0
H1188 H 0.69419 0.46362 0.48576 0.0
H1189 H 0.71755 0.49373 0.46216 0.0
H1190 H 0.71812 0.41069 0.51122 0.0
H1191 H 0.74367 0.41996 0.53643 0.0
C1192 C 0.74313 1.00158 0.51666 0.0
C1193 C 0.70994 0.03749 0.52644 0.0
C1194 C 0.67408 0.05071 0.49076 0.0
C1195 C 0.70605 0.01187 0.48111 0.0
N1196 N 0.76238 0.93701 0.48652 0.0
N1197 N 0.64008 0.08934 0.52374 0.0
C1198 C 0.73823 0.98364 0.49453 0.0
C1199 C 0.67416 0.05958 0.51378 0.0
N1200 N 0.77947 0.98452 0.52843 0.0
N1201 N 0.64495 0.08184 0.47805 0.0
H1202 H 0.64045 0.10153 0.54017 0.0
H1203 H 0.61011 0.09886 0.51605 0.0
H1204 H 0.64091 0.07511 0.46144 0.0
H1205 H 0.62613 0.11738 0.48379 0.0
H1206 H 0.80708 0.96417 0.52142 0.0
H1207 H 0.78373 0.99481 0.54489 0.0
H1208 H 0.78319 0.91089 0.49614 0.0
H1209 H 0.7577 0.91978 0.47088 0.0
C1210 C 0.25934 1.00121 0.48966 0.0
C1211 C 0.29271 0.03664 0.47977 0.0
C1212 C 0.32923 0.04885 0.51532 0.0
C1213 C 0.29689 0.01075 0.52511 0.0
N1214 N 0.23977 0.93696 0.51993 0.0
N1215 N 0.3632 0.08694 0.4822 0.0
C1216 C 0.2643 0.98313 0.51179 0.0
C1217 C 0.32892 0.05787 0.49229 0.0
N1218 N 0.22275 0.98474 0.47798 0.0
N1219 N 0.35896 0.07917 0.52791 0.0
H1220 H 0.36276 0.09918 0.46576 0.0
H1221 H 0.39339 0.09577 0.48978 0.0
H1222 H 0.36331 0.07208 0.54449 0.0
H1223 H 0.37811 0.11435 0.52209 0.0
H1224 H 0.19502 0.96484 0.48507 0.0
H1225 H 0.21848 0.99506 0.46152 0.0
H1226 H 0.21859 0.91125 0.5104 0.0
H1227 H 0.24448 0.91963 0.53557 0.0
C1228 C 0.74287 0.50388 0.01654 0.0
C1229 C 0.70918 0.53897 0.0263 0.0
C1230 C 0.67369 0.55227 0.99054 0.0
C1231 C 0.70619 0.51421 0.98089 0.0
N1232 N 0.76319 0.44024 0.9863 0.0
N1233 N 0.63881 0.58952 0.02351 0.0
C1234 C 0.73847 0.48629 0.99435 0.0
C1235 C 0.67335 0.56063 0.01359 0.0
N1236 N 0.7792 0.48719 0.02839 0.0
N1237 N 0.64445 0.58316 0.97782 0.0
H1238 H 0.6388 0.60138 0.03997 0.0
H1239 H 0.60884 0.59859 0.01574 0.0
H1240 H 0.64077 0.57682 0.96116 0.0
H1241 H 0.62516 0.6182 0.9836 0.0
H1242 H 0.80714 0.46755 0.02141 0.0
H1243 H 0.78308 0.49708 0.04491 0.0
H1244 H 0.78413 0.41433 0.99592 0.0
H1245 H 0.75888 0.42319 0.97061 0.0
C1246 C 0.25886 0.50396 0.98956 0.0
C1247 C 0.29257 0.53913 0.97981 0.0
C1248 C 0.32817 0.55164 0.01557 0.0
C1249 C 0.29563 0.51355 0.0252 0.0
N1250 N 0.23869 0.43964 0.0197 0.0
N1251 N 0.36314 0.58906 0.98259 0.0
C1252 C 0.26335 0.48589 0.01171 0.0
C1253 C 0.32851 0.56032 0.99252 0.0
N1254 N 0.22243 0.4877 0.97773 0.0
N1255 N 0.35746 0.5823 0.0283 0.0
H1256 H 0.3632 0.60101 0.96613 0.0
H1257 H 0.39314 0.59784 0.99037 0.0
H1258 H 0.36113 0.57583 0.04495 0.0
H1259 H 0.3768 0.61732 0.02251 0.0
H1260 H 0.19452 0.46798 0.98471 0.0
H1261 H 0.21846 0.49807 0.96125 0.0
H1262 H 0.21774 0.41396 0.01004 0.0
H1263 H 0.24313 0.42218 0.03534 0.0
loop_
_geom_bond_atom_site_label_1
_geom_bond_atom_site_label_2
_geom_bond_distance
_geom_bond_site_symmetry_2
_ccdc_geom_bond_type
Co0 O3 1.970 . S
Co0 N17 1.989 1_545 S
Co0 O25 1.967 . S
Co0 O32 1.920 . S
Co1 O4 1.966 . S
Co1 N10 2.022 . S
Co1 N18 1.993 1_545 S
Co1 O26 1.941 . S
C2 O3 1.258 . S
C2 O4 1.263 . S
O3 Co0 1.970 . S
O3 C2 1.258 . S
O4 Co1 1.966 . S
O4 C2 1.263 . S
C5 O6 1.235 . S
C5 O32 1.289 . S
O6 C5 1.235 . S
C7 C9 1.400 . S
C7 N10 1.351 . S
C7 C12 1.501 . S
C8 C9 1.387 1_565 S
C8 N11 1.341 . S
C9 C7 1.400 . S
C9 C8 1.387 1_545 S
N10 Co1 2.022 . S
N10 C7 1.351 . S
N10 N11 1.365 1_545 S
N11 C8 1.341 . S
N11 N10 1.365 1_565 S
N11 H31 0.862 . S
C12 C7 1.501 . S
C12 H13 0.961 . S
C12 H14 0.961 . S
C12 H15 0.960 . S
H13 C12 0.961 . S
H14 C12 0.961 . S
H15 C12 0.960 . S
C16 N17 1.342 . S
C16 C20 1.401 . S
C16 C21 1.499 . S
N17 Co0 1.989 1_565 S
N17 C16 1.342 . S
N17 N18 1.388 . S
N18 Co1 1.993 1_565 S
N18 N17 1.388 . S
N18 C19 1.346 . S
C19 N18 1.346 . S
C19 C20 1.396 . S
C19 C29 1.510 . S
C20 C16 1.401 . S
C20 C19 1.396 . S
C21 C16 1.499 . S
C21 H22 0.959 . S
C21 H23 0.960 . S
C21 H24 0.961 . S
H22 C21 0.959 . S
H23 C21 0.960 . S
H24 C21 0.961 . S
O25 Co0 1.967 . S
O25 C33 1.258 . S
O26 Co1 1.941 . S
O26 C33 1.266 . S
H27 C29 0.959 . S
H28 C29 0.961 . S
C29 C19 1.510 . S
C29 H27 0.959 . S
C29 H28 0.961 . S
C29 H30 0.960 . S
H30 C29 0.960 . S
H31 N11 0.862 . S
O32 Co0 1.920 . S
O32 C5 1.289 . S
C33 O25 1.258 . S
C33 O26 1.266 . S
Co34 O37 1.970 . S
Co34 N51 1.989 1_565 S
Co34 O59 1.967 . S
Co34 O66 1.920 1_565 S
Co35 O38 1.966 . S
Co35 N44 2.022 1_565 S
Co35 N52 1.993 1_565 S
Co35 O60 1.941 . S
C36 O37 1.258 . S
C36 O38 1.263 . S
O37 Co34 1.970 . S
O37 C36 1.258 . S
O38 Co35 1.966 . S
O38 C36 1.263 . S
C39 O40 1.235 . S
C39 O66 1.288 1_565 S
O40 C39 1.235 . S
C41 C43 1.400 1_565 S
C41 N44 1.351 1_565 S
C41 C46 1.501 . S
C42 C43 1.387 . S
C42 N45 1.341 . S
C43 C41 1.400 1_545 S
C43 C42 1.387 . S
N44 Co35 2.022 1_545 S
N44 C41 1.351 1_545 S
N44 N45 1.365 . S
N45 C42 1.341 . S
N45 N44 1.365 . S
N45 H65 0.862 . S
C46 C41 1.501 . S
C46 H47 0.961 . S
C46 H48 0.961 . S
C46 H49 0.960 . S
H47 C46 0.961 . S
H48 C46 0.961 . S
H49 C46 0.960 . S
C50 N51 1.342 . S
C50 C54 1.401 . S
C50 C55 1.499 . S
N51 Co34 1.989 1_545 S
N51 C50 1.342 . S
N51 N52 1.388 . S
N52 Co35 1.993 1_545 S
N52 N51 1.388 . S
N52 C53 1.346 . S
C53 N52 1.346 . S
C53 C54 1.396 . S
C53 C63 1.510 . S
C54 C50 1.401 . S
C54 C53 1.396 . S
C55 C50 1.499 . S
C55 H56 0.959 . S
C55 H57 0.960 . S
C55 H58 0.961 . S
H56 C55 0.959 . S
H57 C55 0.960 . S
H58 C55 0.961 . S
O59 Co34 1.967 . S
O59 C67 1.258 . S
O60 Co35 1.941 . S
O60 C67 1.266 . S
H61 C63 0.959 . S
H62 C63 0.961 . S
C63 C53 1.510 . S
C63 H61 0.959 . S
C63 H62 0.961 . S
C63 H64 0.960 . S
H64 C63 0.960 . S
H65 N45 0.862 . S
O66 Co34 1.920 1_545 S
O66 C39 1.288 1_545 S
C67 O59 1.258 . S
C67 O60 1.266 . S
Co68 O71 1.970 . S
Co68 N85 1.989 1_565 S
Co68 O93 1.967 . S
Co68 O100 1.920 1_565 S
Co69 O72 1.966 . S
Co69 N78 2.022 1_565 S
Co69 N86 1.993 1_565 S
Co69 O94 1.941 . S
C70 O71 1.258 . S
C70 O72 1.263 . S
O71 Co68 1.970 . S
O71 C70 1.258 . S
O72 Co69 1.966 . S
O72 C70 1.263 . S
C73 O74 1.235 . S
C73 O100 1.288 1_565 S
O74 C73 1.235 . S
C75 C77 1.400 1_565 S
C75 N78 1.351 1_565 S
C75 C80 1.501 . S
C76 C77 1.387 . S
C76 N79 1.341 . S
C77 C75 1.400 1_545 S
C77 C76 1.387 . S
N78 Co69 2.022 1_545 S
N78 C75 1.351 1_545 S
N78 N79 1.365 . S
N79 C76 1.341 . S
N79 N78 1.365 . S
N79 H99 0.862 . S
C80 C75 1.501 . S
C80 H81 0.961 . S
C80 H82 0.961 . S
C80 H83 0.960 . S
H81 C80 0.961 . S
H82 C80 0.961 . S
H83 C80 0.960 . S
C84 N85 1.342 . S
C84 C88 1.401 . S
C84 C89 1.499 . S
N85 Co68 1.989 1_545 S
N85 C84 1.342 . S
N85 N86 1.388 . S
N86 Co69 1.993 1_545 S
N86 N85 1.388 . S
N86 C87 1.346 . S
C87 N86 1.346 . S
C87 C88 1.396 . S
C87 C97 1.510 . S
C88 C84 1.401 . S
C88 C87 1.396 . S
C89 C84 1.499 . S
C89 H90 0.959 . S
C89 H91 0.960 . S
C89 H92 0.961 . S
H90 C89 0.959 . S
H91 C89 0.960 . S
H92 C89 0.961 . S
O93 Co68 1.967 . S
O93 C101 1.258 . S
O94 Co69 1.941 . S
O94 C101 1.266 . S
H95 C97 0.959 . S
H96 C97 0.961 . S
C97 C87 1.510 . S
C97 H95 0.959 . S
C97 H96 0.961 . S
C97 H98 0.960 . S
H98 C97 0.960 . S
H99 N79 0.862 . S
O100 Co68 1.920 1_545 S
O100 C73 1.288 1_545 S
C101 O93 1.258 . S
C101 O94 1.266 . S
Co102 O105 1.970 . S
Co102 N119 1.989 1_545 S
Co102 O127 1.967 . S
Co102 O134 1.920 . S
Co103 O106 1.966 . S
Co103 N112 2.022 . S
Co103 N120 1.993 1_545 S
Co103 O128 1.941 . S
C104 O105 1.258 . S
C104 O106 1.263 . S
O105 Co102 1.970 . S
O105 C104 1.258 . S
O106 Co103 1.966 . S
O106 C104 1.263 . S
C107 O108 1.235 . S
C107 O134 1.289 . S
O108 C107 1.235 . S
C109 C111 1.400 . S
C109 N112 1.351 . S
C109 C114 1.501 . S
C110 C111 1.387 1_565 S
C110 N113 1.341 . S
C111 C109 1.400 . S
C111 C110 1.387 1_545 S
N112 Co103 2.022 . S
N112 C109 1.351 . S
N112 N113 1.365 1_545 S
N113 C110 1.341 . S
N113 N112 1.365 1_565 S
N113 H133 0.862 . S
C114 C109 1.501 . S
C114 H115 0.961 . S
C114 H116 0.961 . S
C114 H117 0.960 . S
H115 C114 0.961 . S
H116 C114 0.961 . S
H117 C114 0.960 . S
C118 N119 1.342 . S
C118 C122 1.401 . S
C118 C123 1.499 . S
N119 Co102 1.989 1_565 S
N119 C118 1.342 . S
N119 N120 1.388 . S
N120 Co103 1.993 1_565 S
N120 N119 1.388 . S
N120 C121 1.346 . S
C121 N120 1.346 . S
C121 C122 1.396 . S
C121 C131 1.510 . S
C122 C118 1.401 . S
C122 C121 1.396 . S
C123 C118 1.499 . S
C123 H124 0.959 . S
C123 H125 0.960 . S
C123 H126 0.961 . S
H124 C123 0.959 . S
H125 C123 0.960 . S
H126 C123 0.961 . S
O127 Co102 1.967 . S
O127 C135 1.258 . S
O128 Co103 1.941 . S
O128 C135 1.266 . S
H129 C131 0.959 . S
H130 C131 0.961 . S
C131 C121 1.510 . S
C131 H129 0.959 . S
C131 H130 0.961 . S
C131 H132 0.960 . S
H132 C131 0.960 . S
H133 N113 0.862 . S
O134 Co102 1.920 . S
O134 C107 1.289 . S
C135 O127 1.258 . S
C135 O128 1.266 . S
Co136 O139 1.970 . S
Co136 N153 1.989 . S
Co136 O161 1.967 . S
Co136 O168 1.920 . S
Co137 O140 1.966 . S
Co137 N146 2.022 . S
Co137 N154 1.993 . S
Co137 O162 1.941 . S
C138 O139 1.258 . S
C138 O140 1.263 . S
O139 Co136 1.970 . S
O139 C138 1.258 . S
O140 Co137 1.966 . S
O140 C138 1.263 . S
C141 O142 1.235 . S
C141 O168 1.289 . S
O142 C141 1.235 . S
C143 C145 1.400 . S
C143 N146 1.351 . S
C143 C148 1.501 . S
C144 C145 1.387 . S
C144 N147 1.341 . S
C145 C143 1.400 . S
C145 C144 1.387 . S
N146 Co137 2.022 . S
N146 C143 1.351 . S
N146 N147 1.365 . S
N147 C144 1.341 . S
N147 N146 1.365 . S
N147 H167 0.862 . S
C148 C143 1.501 . S
C148 H149 0.961 . S
C148 H150 0.961 . S
C148 H151 0.960 . S
H149 C148 0.961 . S
H150 C148 0.961 . S
H151 C148 0.960 . S
C152 N153 1.342 . S
C152 C156 1.401 . S
C152 C157 1.499 . S
N153 Co136 1.989 . S
N153 C152 1.342 . S
N153 N154 1.388 . S
N154 Co137 1.993 . S
N154 N153 1.388 . S
N154 C155 1.346 . S
C155 N154 1.346 . S
C155 C156 1.396 . S
C155 C165 1.510 . S
C156 C152 1.401 . S
C156 C155 1.396 . S
C157 C152 1.499 . S
C157 H158 0.959 . S
C157 H159 0.960 . S
C157 H160 0.961 . S
H158 C157 0.959 . S
H159 C157 0.960 . S
H160 C157 0.961 . S
O161 Co136 1.967 . S
O161 C169 1.258 . S
O162 Co137 1.941 . S
O162 C169 1.266 . S
H163 C165 0.959 . S
H164 C165 0.961 . S
C165 C155 1.510 . S
C165 H163 0.959 . S
C165 H164 0.961 . S
C165 H166 0.960 . S
H166 C165 0.960 . S
H167 N147 0.862 . S
O168 Co136 1.920 . S
O168 C141 1.289 . S
C169 O161 1.258 . S
C169 O162 1.266 . S
Co170 O173 1.970 . S
Co170 N187 1.989 . S
Co170 O195 1.967 . S
Co170 O202 1.920 . S
Co171 O174 1.966 . S
Co171 N180 2.022 . S
Co171 N188 1.993 . S
Co171 O196 1.941 . S
C172 O173 1.258 . S
C172 O174 1.263 . S
O173 Co170 1.970 . S
O173 C172 1.258 . S
O174 Co171 1.966 . S
O174 C172 1.263 . S
C175 O176 1.235 . S
C175 O202 1.289 . S
O176 C175 1.235 . S
C177 C179 1.400 . S
C177 N180 1.351 . S
C177 C182 1.501 . S
C178 C179 1.387 . S
C178 N181 1.341 . S
C179 C177 1.400 . S
C179 C178 1.387 . S
N180 Co171 2.022 . S
N180 C177 1.351 . S
N180 N181 1.365 . S
N181 C178 1.341 . S
N181 N180 1.365 . S
N181 H201 0.862 . S
C182 C177 1.501 . S
C182 H183 0.961 . S
C182 H184 0.961 . S
C182 H185 0.960 . S
H183 C182 0.961 . S
H184 C182 0.961 . S
H185 C182 0.960 . S
C186 N187 1.342 . S
C186 C190 1.401 . S
C186 C191 1.499 . S
N187 Co170 1.989 . S
N187 C186 1.342 . S
N187 N188 1.388 . S
N188 Co171 1.993 . S
N188 N187 1.388 . S
N188 C189 1.346 . S
C189 N188 1.346 . S
C189 C190 1.396 . S
C189 C199 1.510 . S
C190 C186 1.401 . S
C190 C189 1.396 . S
C191 C186 1.499 . S
C191 H192 0.959 . S
C191 H193 0.960 . S
C191 H194 0.961 . S
H192 C191 0.959 . S
H193 C191 0.960 . S
H194 C191 0.961 . S
O195 Co170 1.967 . S
O195 C203 1.258 . S
O196 Co171 1.941 . S
O196 C203 1.266 . S
H197 C199 0.959 . S
H198 C199 0.961 . S
C199 C189 1.510 . S
C199 H197 0.959 . S
C199 H198 0.961 . S
C199 H200 0.960 . S
H200 C199 0.960 . S
H201 N181 0.862 . S
O202 Co170 1.920 . S
O202 C175 1.289 . S
C203 O195 1.258 . S
C203 O196 1.266 . S
Co204 O207 1.970 . S
Co204 N221 1.989 . S
Co204 O229 1.967 . S
Co204 O236 1.920 . S
Co205 O208 1.966 . S
Co205 N214 2.022 . S
Co205 N222 1.993 . S
Co205 O230 1.941 . S
C206 O207 1.258 . S
C206 O208 1.263 . S
O207 Co204 1.970 . S
O207 C206 1.258 . S
O208 Co205 1.966 . S
O208 C206 1.263 . S
C209 O210 1.235 . S
C209 O236 1.289 . S
O210 C209 1.235 . S
C211 C213 1.400 . S
C211 N214 1.351 . S
C211 C216 1.501 . S
C212 C213 1.387 . S
C212 N215 1.341 . S
C213 C211 1.400 . S
C213 C212 1.387 . S
N214 Co205 2.022 . S
N214 C211 1.351 . S
N214 N215 1.365 . S
N215 C212 1.341 . S
N215 N214 1.365 . S
N215 H235 0.862 . S
C216 C211 1.501 . S
C216 H217 0.961 . S
C216 H218 0.961 . S
C216 H219 0.960 . S
H217 C216 0.961 . S
H218 C216 0.961 . S
H219 C216 0.960 . S
C220 N221 1.342 . S
C220 C224 1.401 . S
C220 C225 1.499 . S
N221 Co204 1.989 . S
N221 C220 1.342 . S
N221 N222 1.388 . S
N222 Co205 1.993 . S
N222 N221 1.388 . S
N222 C223 1.346 . S
C223 N222 1.346 . S
C223 C224 1.396 . S
C223 C233 1.510 . S
C224 C220 1.401 . S
C224 C223 1.396 . S
C225 C220 1.499 . S
C225 H226 0.959 . S
C225 H227 0.960 . S
C225 H228 0.961 . S
H226 C225 0.959 . S
H227 C225 0.960 . S
H228 C225 0.961 . S
O229 Co204 1.967 . S
O229 C237 1.258 . S
O230 Co205 1.941 . S
O230 C237 1.266 . S
H231 C233 0.959 . S
H232 C233 0.961 . S
C233 C223 1.510 . S
C233 H231 0.959 . S
C233 H232 0.961 . S
C233 H234 0.960 . S
H234 C233 0.960 . S
H235 N215 0.862 . S
O236 Co204 1.920 . S
O236 C209 1.289 . S
C237 O229 1.258 . S
C237 O230 1.266 . S
Co238 O241 1.970 . S
Co238 N255 1.989 . S
Co238 O263 1.967 . S
Co238 O270 1.920 . S
Co239 O242 1.966 . S
Co239 N248 2.022 . S
Co239 N256 1.993 . S
Co239 O264 1.941 . S
C240 O241 1.258 . S
C240 O242 1.263 . S
O241 Co238 1.970 . S
O241 C240 1.258 . S
O242 Co239 1.966 . S
O242 C240 1.263 . S
C243 O244 1.235 . S
C243 O270 1.289 . S
O244 C243 1.235 . S
C245 C247 1.400 . S
C245 N248 1.351 . S
C245 C250 1.501 . S
C246 C247 1.387 . S
C246 N249 1.341 . S
C247 C245 1.400 . S
C247 C246 1.387 . S
N248 Co239 2.022 . S
N248 C245 1.351 . S
N248 N249 1.365 . S
N249 C246 1.341 . S
N249 N248 1.365 . S
N249 H269 0.862 . S
C250 C245 1.501 . S
C250 H251 0.961 . S
C250 H252 0.961 . S
C250 H253 0.960 . S
H251 C250 0.961 . S
H252 C250 0.961 . S
H253 C250 0.960 . S
C254 N255 1.342 . S
C254 C258 1.401 . S
C254 C259 1.499 . S
N255 Co238 1.989 . S
N255 C254 1.342 . S
N255 N256 1.388 . S
N256 Co239 1.993 . S
N256 N255 1.388 . S
N256 C257 1.346 . S
C257 N256 1.346 . S
C257 C258 1.396 . S
C257 C267 1.510 . S
C258 C254 1.401 . S
C258 C257 1.396 . S
C259 C254 1.499 . S
C259 H260 0.959 . S
C259 H261 0.960 . S
C259 H262 0.961 . S
H260 C259 0.959 . S
H261 C259 0.960 . S
H262 C259 0.961 . S
O263 Co238 1.967 . S
O263 C271 1.258 . S
O264 Co239 1.941 . S
O264 C271 1.266 . S
H265 C267 0.959 . S
H266 C267 0.961 . S
C267 C257 1.510 . S
C267 H265 0.959 . S
C267 H266 0.961 . S
C267 H268 0.960 . S
H268 C267 0.960 . S
H269 N249 0.862 . S
O270 Co238 1.920 . S
O270 C243 1.289 . S
C271 O263 1.258 . S
C271 O264 1.266 . S
Co272 O275 1.970 . S
Co272 N289 1.989 1_545 S
Co272 O297 1.967 . S
Co272 O304 1.920 . S
Co273 O276 1.966 . S
Co273 N282 2.022 . S
Co273 N290 1.993 1_545 S
Co273 O298 1.941 . S
C274 O275 1.258 . S
C274 O276 1.263 . S
O275 Co272 1.970 . S
O275 C274 1.258 . S
O276 Co273 1.966 . S
O276 C274 1.263 . S
C277 O278 1.235 . S
C277 O304 1.289 . S
O278 C277 1.235 . S
C279 C281 1.400 . S
C279 N282 1.351 . S
C279 C284 1.501 . S
C280 C281 1.387 1_565 S
C280 N283 1.341 . S
C281 C279 1.400 . S
C281 C280 1.387 1_545 S
N282 Co273 2.022 . S
N282 C279 1.351 . S
N282 N283 1.365 1_545 S
N283 C280 1.341 . S
N283 N282 1.365 1_565 S
N283 H303 0.862 . S
C284 C279 1.501 . S
C284 H285 0.961 . S
C284 H286 0.961 . S
C284 H287 0.960 . S
H285 C284 0.961 . S
H286 C284 0.961 . S
H287 C284 0.960 . S
C288 N289 1.342 . S
C288 C292 1.401 . S
C288 C293 1.499 . S
N289 Co272 1.989 1_565 S
N289 C288 1.342 . S
N289 N290 1.388 . S
N290 Co273 1.993 1_565 S
N290 N289 1.388 . S
N290 C291 1.346 . S
C291 N290 1.346 . S
C291 C292 1.396 . S
C291 C301 1.510 . S
C292 C288 1.401 . S
C292 C291 1.396 . S
C293 C288 1.499 . S
C293 H294 0.959 . S
C293 H295 0.960 . S
C293 H296 0.961 . S
H294 C293 0.959 . S
H295 C293 0.960 . S
H296 C293 0.961 . S
O297 Co272 1.967 . S
O297 C305 1.258 . S
O298 Co273 1.941 . S
O298 C305 1.266 . S
H299 C301 0.959 . S
H300 C301 0.961 . S
C301 C291 1.510 . S
C301 H299 0.959 . S
C301 H300 0.961 . S
C301 H302 0.960 . S
H302 C301 0.960 . S
H303 N283 0.862 . S
O304 Co272 1.920 . S
O304 C277 1.289 . S
C305 O297 1.258 . S
C305 O298 1.266 . S
Co306 O309 1.970 . S
Co306 N323 1.989 1_565 S
Co306 O331 1.967 . S
Co306 O338 1.920 1_565 S
Co307 O310 1.966 . S
Co307 N316 2.022 1_565 S
Co307 N324 1.993 1_565 S
Co307 O332 1.941 . S
C308 O309 1.258 . S
C308 O310 1.263 . S
O309 Co306 1.970 . S
O309 C308 1.258 . S
O310 Co307 1.966 . S
O310 C308 1.263 . S
C311 O312 1.235 . S
C311 O338 1.288 1_565 S
O312 C311 1.235 . S
C313 C315 1.400 1_565 S
C313 N316 1.351 1_565 S
C313 C318 1.501 . S
C314 C315 1.387 . S
C314 N317 1.341 . S
C315 C313 1.400 1_545 S
C315 C314 1.387 . S
N316 Co307 2.022 1_545 S
N316 C313 1.351 1_545 S
N316 N317 1.365 . S
N317 C314 1.341 . S
N317 N316 1.365 . S
N317 H337 0.862 . S
C318 C313 1.501 . S
C318 H319 0.961 . S
C318 H320 0.961 . S
C318 H321 0.960 . S
H319 C318 0.961 . S
H320 C318 0.961 . S
H321 C318 0.960 . S
C322 N323 1.342 . S
C322 C326 1.401 . S
C322 C327 1.499 . S
N323 Co306 1.989 1_545 S
N323 C322 1.342 . S
N323 N324 1.388 . S
N324 Co307 1.993 1_545 S
N324 N323 1.388 . S
N324 C325 1.346 . S
C325 N324 1.346 . S
C325 C326 1.396 . S
C325 C335 1.510 . S
C326 C322 1.401 . S
C326 C325 1.396 . S
C327 C322 1.499 . S
C327 H328 0.959 . S
C327 H329 0.960 . S
C327 H330 0.961 . S
H328 C327 0.959 . S
H329 C327 0.960 . S
H330 C327 0.961 . S
O331 Co306 1.967 . S
O331 C339 1.258 . S
O332 Co307 1.941 . S
O332 C339 1.266 . S
H333 C335 0.959 . S
H334 C335 0.961 . S
C335 C325 1.510 . S
C335 H333 0.959 . S
C335 H334 0.961 . S
C335 H336 0.960 . S
H336 C335 0.960 . S
H337 N317 0.862 . S
O338 Co306 1.920 1_545 S
O338 C311 1.288 1_545 S
C339 O331 1.258 . S
C339 O332 1.266 . S
Co340 O343 1.970 . S
Co340 N357 1.989 1_565 S
Co340 O365 1.967 . S
Co340 O372 1.920 1_565 S
Co341 O344 1.966 . S
Co341 N350 2.022 1_565 S
Co341 N358 1.993 1_565 S
Co341 O366 1.941 . S
C342 O343 1.258 . S
C342 O344 1.263 . S
O343 Co340 1.970 . S
O343 C342 1.258 . S
O344 Co341 1.966 . S
O344 C342 1.263 . S
C345 O346 1.235 . S
C345 O372 1.288 1_565 S
O346 C345 1.235 . S
C347 C349 1.400 1_565 S
C347 N350 1.351 1_565 S
C347 C352 1.501 . S
C348 C349 1.387 . S
C348 N351 1.341 . S
C349 C347 1.400 1_545 S
C349 C348 1.387 . S
N350 Co341 2.022 1_545 S
N350 C347 1.351 1_545 S
N350 N351 1.365 . S
N351 C348 1.341 . S
N351 N350 1.365 . S
N351 H371 0.862 . S
C352 C347 1.501 . S
C352 H353 0.961 . S
C352 H354 0.961 . S
C352 H355 0.960 . S
H353 C352 0.961 . S
H354 C352 0.961 . S
H355 C352 0.960 . S
C356 N357 1.342 . S
C356 C360 1.401 . S
C356 C361 1.499 . S
N357 Co340 1.989 1_545 S
N357 C356 1.342 . S
N357 N358 1.388 . S
N358 Co341 1.993 1_545 S
N358 N357 1.388 . S
N358 C359 1.346 . S
C359 N358 1.346 . S
C359 C360 1.396 . S
C359 C369 1.510 . S
C360 C356 1.401 . S
C360 C359 1.396 . S
C361 C356 1.499 . S
C361 H362 0.959 . S
C361 H363 0.960 . S
C361 H364 0.961 . S
H362 C361 0.959 . S
H363 C361 0.960 . S
H364 C361 0.961 . S
O365 Co340 1.967 . S
O365 C373 1.258 . S
O366 Co341 1.941 . S
O366 C373 1.266 . S
H367 C369 0.959 . S
H368 C369 0.961 . S
C369 C359 1.510 . S
C369 H367 0.959 . S
C369 H368 0.961 . S
C369 H370 0.960 . S
H370 C369 0.960 . S
H371 N351 0.862 . S
O372 Co340 1.920 1_545 S
O372 C345 1.288 1_545 S
C373 O365 1.258 . S
C373 O366 1.266 . S
Co374 O377 1.970 . S
Co374 N391 1.989 1_545 S
Co374 O399 1.967 . S
Co374 O406 1.920 . S
Co375 O378 1.966 . S
Co375 N384 2.022 . S
Co375 N392 1.993 1_545 S
Co375 O400 1.941 . S
C376 O377 1.258 . S
C376 O378 1.263 . S
O377 Co374 1.970 . S
O377 C376 1.258 . S
O378 Co375 1.966 . S
O378 C376 1.263 . S
C379 O380 1.235 . S
C379 O406 1.289 . S
O380 C379 1.235 . S
C381 C383 1.400 . S
C381 N384 1.351 . S
C381 C386 1.501 . S
C382 C383 1.387 1_565 S
C382 N385 1.341 . S
C383 C381 1.400 . S
C383 C382 1.387 1_545 S
N384 Co375 2.022 . S
N384 C381 1.351 . S
N384 N385 1.365 1_545 S
N385 C382 1.341 . S
N385 N384 1.365 1_565 S
N385 H405 0.862 . S
C386 C381 1.501 . S
C386 H387 0.961 . S
C386 H388 0.961 . S
C386 H389 0.960 . S
H387 C386 0.961 . S
H388 C386 0.961 . S
H389 C386 0.960 . S
C390 N391 1.342 . S
C390 C394 1.401 . S
C390 C395 1.499 . S
N391 Co374 1.989 1_565 S
N391 C390 1.342 . S
N391 N392 1.388 . S
N392 Co375 1.993 1_565 S
N392 N391 1.388 . S
N392 C393 1.346 . S
C393 N392 1.346 . S
C393 C394 1.396 . S
C393 C403 1.510 . S
C394 C390 1.401 . S
C394 C393 1.396 . S
C395 C390 1.499 . S
C395 H396 0.959 . S
C395 H397 0.960 . S
C395 H398 0.961 . S
H396 C395 0.959 . S
H397 C395 0.960 . S
H398 C395 0.961 . S
O399 Co374 1.967 . S
O399 C407 1.258 . S
O400 Co375 1.941 . S
O400 C407 1.266 . S
H401 C403 0.959 . S
H402 C403 0.961 . S
C403 C393 1.510 . S
C403 H401 0.959 . S
C403 H402 0.961 . S
C403 H404 0.960 . S
H404 C403 0.960 . S
H405 N385 0.862 . S
O406 Co374 1.920 . S
O406 C379 1.289 . S
C407 O399 1.258 . S
C407 O400 1.266 . S
Co408 O411 1.970 . S
Co408 N425 1.989 . S
Co408 O433 1.967 . S
Co408 O440 1.920 . S
Co409 O412 1.966 . S
Co409 N418 2.022 . S
Co409 N426 1.993 . S
Co409 O434 1.941 . S
C410 O411 1.258 . S
C410 O412 1.263 . S
O411 Co408 1.970 . S
O411 C410 1.258 . S
O412 Co409 1.966 . S
O412 C410 1.263 . S
C413 O414 1.235 . S
C413 O440 1.289 . S
O414 C413 1.235 . S
C415 C417 1.400 . S
C415 N418 1.351 . S
C415 C420 1.501 . S
C416 C417 1.387 . S
C416 N419 1.341 . S
C417 C415 1.400 . S
C417 C416 1.387 . S
N418 Co409 2.022 . S
N418 C415 1.351 . S
N418 N419 1.365 . S
N419 C416 1.341 . S
N419 N418 1.365 . S
N419 H439 0.862 . S
C420 C415 1.501 . S
C420 H421 0.961 . S
C420 H422 0.961 . S
C420 H423 0.960 . S
H421 C420 0.961 . S
H422 C420 0.961 . S
H423 C420 0.960 . S
C424 N425 1.342 . S
C424 C428 1.401 . S
C424 C429 1.499 . S
N425 Co408 1.989 . S
N425 C424 1.342 . S
N425 N426 1.388 . S
N426 Co409 1.993 . S
N426 N425 1.388 . S
N426 C427 1.346 . S
C427 N426 1.346 . S
C427 C428 1.396 . S
C427 C437 1.510 . S
C428 C424 1.401 . S
C428 C427 1.396 . S
C429 C424 1.499 . S
C429 H430 0.959 . S
C429 H431 0.960 . S
C429 H432 0.961 . S
H430 C429 0.959 . S
H431 C429 0.960 . S
H432 C429 0.961 . S
O433 Co408 1.967 . S
O433 C441 1.258 . S
O434 Co409 1.941 . S
O434 C441 1.266 . S
H435 C437 0.959 . S
H436 C437 0.961 . S
C437 C427 1.510 . S
C437 H435 0.959 . S
C437 H436 0.961 . S
C437 H438 0.960 . S
H438 C437 0.960 . S
H439 N419 0.862 . S
O440 Co408 1.920 . S
O440 C413 1.289 . S
C441 O433 1.258 . S
C441 O434 1.266 . S
Co442 O445 1.970 . S
Co442 N459 1.989 . S
Co442 O467 1.967 . S
Co442 O474 1.920 . S
Co443 O446 1.966 . S
Co443 N452 2.022 . S
Co443 N460 1.993 . S
Co443 O468 1.941 . S
C444 O445 1.258 . S
C444 O446 1.263 . S
O445 Co442 1.970 . S
O445 C444 1.258 . S
O446 Co443 1.966 . S
O446 C444 1.263 . S
C447 O448 1.235 . S
C447 O474 1.289 . S
O448 C447 1.235 . S
C449 C451 1.400 . S
C449 N452 1.351 . S
C449 C454 1.501 . S
C450 C451 1.387 . S
C450 N453 1.341 . S
C451 C449 1.400 . S
C451 C450 1.387 . S
N452 Co443 2.022 . S
N452 C449 1.351 . S
N452 N453 1.365 . S
N453 C450 1.341 . S
N453 N452 1.365 . S
N453 H473 0.862 . S
C454 C449 1.501 . S
C454 H455 0.961 . S
C454 H456 0.961 . S
C454 H457 0.960 . S
H455 C454 0.961 . S
H456 C454 0.961 . S
H457 C454 0.960 . S
C458 N459 1.342 . S
C458 C462 1.401 . S
C458 C463 1.499 . S
N459 Co442 1.989 . S
N459 C458 1.342 . S
N459 N460 1.388 . S
N460 Co443 1.993 . S
N460 N459 1.388 . S
N460 C461 1.346 . S
C461 N460 1.346 . S
C461 C462 1.396 . S
C461 C471 1.510 . S
C462 C458 1.401 . S
C462 C461 1.396 . S
C463 C458 1.499 . S
C463 H464 0.959 . S
C463 H465 0.960 . S
C463 H466 0.961 . S
H464 C463 0.959 . S
H465 C463 0.960 . S
H466 C463 0.961 . S
O467 Co442 1.967 . S
O467 C475 1.258 . S
O468 Co443 1.941 . S
O468 C475 1.266 . S
H469 C471 0.959 . S
H470 C471 0.961 . S
C471 C461 1.510 . S
C471 H469 0.959 . S
C471 H470 0.961 . S
C471 H472 0.960 . S
H472 C471 0.960 . S
H473 N453 0.862 . S
O474 Co442 1.920 . S
O474 C447 1.289 . S
C475 O467 1.258 . S
C475 O468 1.266 . S
Co476 O479 1.970 . S
Co476 N493 1.989 . S
Co476 O501 1.967 . S
Co476 O508 1.920 . S
Co477 O480 1.966 . S
Co477 N486 2.022 . S
Co477 N494 1.993 . S
Co477 O502 1.941 . S
C478 O479 1.258 . S
C478 O480 1.263 . S
O479 Co476 1.970 . S
O479 C478 1.258 . S
O480 Co477 1.966 . S
O480 C478 1.263 . S
C481 O482 1.235 . S
C481 O508 1.289 . S
O482 C481 1.235 . S
C483 C485 1.400 . S
C483 N486 1.351 . S
C483 C488 1.501 . S
C484 C485 1.387 . S
C484 N487 1.341 . S
C485 C483 1.400 . S
C485 C484 1.387 . S
N486 Co477 2.022 . S
N486 C483 1.351 . S
N486 N487 1.365 . S
N487 C484 1.341 . S
N487 N486 1.365 . S
N487 H507 0.862 . S
C488 C483 1.501 . S
C488 H489 0.961 . S
C488 H490 0.961 . S
C488 H491 0.960 . S
H489 C488 0.961 . S
H490 C488 0.961 . S
H491 C488 0.960 . S
C492 N493 1.342 . S
C492 C496 1.401 . S
C492 C497 1.499 . S
N493 Co476 1.989 . S
N493 C492 1.342 . S
N493 N494 1.388 . S
N494 Co477 1.993 . S
N494 N493 1.388 . S
N494 C495 1.346 . S
C495 N494 1.346 . S
C495 C496 1.396 . S
C495 C505 1.510 . S
C496 C492 1.401 . S
C496 C495 1.396 . S
C497 C492 1.499 . S
C497 H498 0.959 . S
C497 H499 0.960 . S
C497 H500 0.961 . S
H498 C497 0.959 . S
H499 C497 0.960 . S
H500 C497 0.961 . S
O501 Co476 1.967 . S
O501 C509 1.258 . S
O502 Co477 1.941 . S
O502 C509 1.266 . S
H503 C505 0.959 . S
H504 C505 0.961 . S
C505 C495 1.510 . S
C505 H503 0.959 . S
C505 H504 0.961 . S
C505 H506 0.960 . S
H506 C505 0.960 . S
H507 N487 0.862 . S
O508 Co476 1.920 . S
O508 C481 1.289 . S
C509 O501 1.258 . S
C509 O502 1.266 . S
Co510 O513 1.970 . S
Co510 N527 1.989 . S
Co510 O535 1.967 . S
Co510 O542 1.920 . S
Co511 O514 1.966 . S
Co511 N520 2.022 . S
Co511 N528 1.993 . S
Co511 O536 1.941 . S
C512 O513 1.258 . S
C512 O514 1.263 . S
O513 Co510 1.970 . S
O513 C512 1.258 . S
O514 Co511 1.966 . S
O514 C512 1.263 . S
C515 O516 1.235 . S
C515 O542 1.289 . S
O516 C515 1.235 . S
C517 C519 1.400 . S
C517 N520 1.351 . S
C517 C522 1.501 . S
C518 C519 1.387 . S
C518 N521 1.341 . S
C519 C517 1.400 . S
C519 C518 1.387 . S
N520 Co511 2.022 . S
N520 C517 1.351 . S
N520 N521 1.365 . S
N521 C518 1.341 . S
N521 N520 1.365 . S
N521 H541 0.862 . S
C522 C517 1.501 . S
C522 H523 0.961 . S
C522 H524 0.961 . S
C522 H525 0.960 . S
H523 C522 0.961 . S
H524 C522 0.961 . S
H525 C522 0.960 . S
C526 N527 1.342 . S
C526 C530 1.401 . S
C526 C531 1.499 . S
N527 Co510 1.989 . S
N527 C526 1.342 . S
N527 N528 1.388 . S
N528 Co511 1.993 . S
N528 N527 1.388 . S
N528 C529 1.346 . S
C529 N528 1.346 . S
C529 C530 1.396 . S
C529 C539 1.510 . S
C530 C526 1.401 . S
C530 C529 1.396 . S
C531 C526 1.499 . S
C531 H532 0.959 . S
C531 H533 0.960 . S
C531 H534 0.961 . S
H532 C531 0.959 . S
H533 C531 0.960 . S
H534 C531 0.961 . S
O535 Co510 1.967 . S
O535 C543 1.258 . S
O536 Co511 1.941 . S
O536 C543 1.266 . S
H537 C539 0.959 . S
H538 C539 0.961 . S
C539 C529 1.510 . S
C539 H537 0.959 . S
C539 H538 0.961 . S
C539 H540 0.960 . S
H540 C539 0.960 . S
H541 N521 0.862 . S
O542 Co510 1.920 . S
O542 C515 1.289 . S
C543 O535 1.258 . S
C543 O536 1.266 . S
C544 C545 1.363 . S
C544 C550 1.379 . S
C544 N552 1.356 . S
C545 C544 1.363 . S
C545 C551 1.363 1_545 S
C546 C547 1.363 1_565 S
C546 C551 1.379 . S
C546 N553 1.356 . S
C547 C546 1.363 1_545 S
C547 C550 1.363 . S
N548 C550 1.356 . S
N548 H560 0.984 . S
N548 H561 0.985 . S
N549 C551 1.356 . S
N549 H554 0.984 . S
N549 H555 0.985 . S
C550 C544 1.379 . S
C550 C547 1.363 . S
C550 N548 1.356 . S
C551 C545 1.363 1_565 S
C551 C546 1.379 . S
C551 N549 1.356 . S
N552 C544 1.356 . S
N552 H558 0.984 . S
N552 H559 0.984 . S
N553 C546 1.356 . S
N553 H556 0.984 . S
N553 H557 0.985 . S
H554 N549 0.984 . S
H555 N549 0.985 . S
H556 N553 0.984 . S
H557 N553 0.985 . S
H558 N552 0.984 . S
H559 N552 0.984 . S
H560 N548 0.984 . S
H561 N548 0.985 . S
C562 C563 1.363 1_565 S
C562 C568 1.379 . S
C562 N570 1.356 . S
C563 C562 1.363 1_545 S
C563 C569 1.363 . S
C564 C565 1.363 . S
C564 C569 1.379 . S
C564 N571 1.356 . S
C565 C564 1.363 . S
C565 C568 1.363 1_545 S
N566 C568 1.356 . S
N566 H578 0.984 . S
N566 H579 0.985 . S
N567 C569 1.356 . S
N567 H572 0.984 . S
N567 H573 0.985 . S
C568 C562 1.379 . S
C568 C565 1.363 1_565 S
C568 N566 1.356 . S
C569 C563 1.363 . S
C569 C564 1.379 . S
C569 N567 1.356 . S
N570 C562 1.356 . S
N570 H576 0.984 . S
N570 H577 0.984 . S
N571 C564 1.356 . S
N571 H574 0.984 . S
N571 H575 0.985 . S
H572 N567 0.984 . S
H573 N567 0.985 . S
H574 N571 0.984 . S
H575 N571 0.985 . S
H576 N570 0.984 . S
H577 N570 0.984 . S
H578 N566 0.984 . S
H579 N566 0.985 . S
C580 C581 1.363 1_565 S
C580 C586 1.379 . S
C580 N588 1.356 . S
C581 C580 1.363 1_545 S
C581 C587 1.363 . S
C582 C583 1.363 . S
C582 C587 1.379 . S
C582 N589 1.356 . S
C583 C582 1.363 . S
C583 C586 1.363 1_545 S
N584 C586 1.356 . S
N584 H596 0.984 . S
N584 H597 0.985 . S
N585 C587 1.356 . S
N585 H590 0.984 . S
N585 H591 0.985 . S
C586 C580 1.379 . S
C586 C583 1.363 1_565 S
C586 N584 1.356 . S
C587 C581 1.363 . S
C587 C582 1.379 . S
C587 N585 1.356 . S
N588 C580 1.356 . S
N588 H594 0.984 . S
N588 H595 0.984 . S
N589 C582 1.356 . S
N589 H592 0.984 . S
N589 H593 0.985 . S
H590 N585 0.984 . S
H591 N585 0.985 . S
H592 N589 0.984 . S
H593 N589 0.985 . S
H594 N588 0.984 . S
H595 N588 0.984 . S
H596 N584 0.984 . S
H597 N584 0.985 . S
C598 C599 1.363 1_565 S
C598 C604 1.379 . S
C598 N606 1.356 . S
C599 C598 1.363 1_545 S
C599 C605 1.363 . S
C600 C601 1.363 . S
C600 C605 1.379 . S
C600 N607 1.356 . S
C601 C600 1.363 . S
C601 C604 1.363 1_545 S
N602 C604 1.356 . S
N602 H614 0.984 . S
N602 H615 0.985 . S
N603 C605 1.356 . S
N603 H608 0.984 . S
N603 H609 0.985 . S
C604 C598 1.379 . S
C604 C601 1.363 1_565 S
C604 N602 1.356 . S
C605 C599 1.363 . S
C605 C600 1.379 . S
C605 N603 1.356 . S
N606 C598 1.356 . S
N606 H612 0.984 . S
N606 H613 0.984 . S
N607 C600 1.356 . S
N607 H610 0.984 . S
N607 H611 0.985 . S
H608 N603 0.984 . S
H609 N603 0.985 . S
H610 N607 0.984 . S
H611 N607 0.985 . S
H612 N606 0.984 . S
H613 N606 0.984 . S
H614 N602 0.984 . S
H615 N602 0.985 . S
C616 C617 1.363 . S
C616 C622 1.379 . S
C616 N624 1.356 . S
C617 C616 1.363 . S
C617 C623 1.363 . S
C618 C619 1.363 . S
C618 C623 1.379 . S
C618 N625 1.356 . S
C619 C618 1.363 . S
C619 C622 1.363 . S
N620 C622 1.356 . S
N620 H632 0.984 . S
N620 H633 0.985 . S
N621 C623 1.356 . S
N621 H626 0.984 . S
N621 H627 0.985 . S
C622 C616 1.379 . S
C622 C619 1.363 . S
C622 N620 1.356 . S
C623 C617 1.363 . S
C623 C618 1.379 . S
C623 N621 1.356 . S
N624 C616 1.356 . S
N624 H630 0.984 . S
N624 H631 0.984 . S
N625 C618 1.356 . S
N625 H628 0.984 . S
N625 H629 0.985 . S
H626 N621 0.984 . S
H627 N621 0.985 . S
H628 N625 0.984 . S
H629 N625 0.985 . S
H630 N624 0.984 . S
H631 N624 0.984 . S
H632 N620 0.984 . S
H633 N620 0.985 . S
C634 C635 1.363 . S
C634 C640 1.379 . S
C634 N642 1.356 . S
C635 C634 1.363 . S
C635 C641 1.363 . S
C636 C637 1.363 . S
C636 C641 1.379 . S
C636 N643 1.356 . S
C637 C636 1.363 . S
C637 C640 1.363 . S
N638 C640 1.356 . S
N638 H650 0.984 . S
N638 H651 0.985 . S
N639 C641 1.356 . S
N639 H644 0.984 . S
N639 H645 0.985 . S
C640 C634 1.379 . S
C640 C637 1.363 . S
C640 N638 1.356 . S
C641 C635 1.363 . S
C641 C636 1.379 . S
C641 N639 1.356 . S
N642 C634 1.356 . S
N642 H648 0.984 . S
N642 H649 0.984 . S
N643 C636 1.356 . S
N643 H646 0.984 . S
N643 H647 0.985 . S
H644 N639 0.984 . S
H645 N639 0.985 . S
H646 N643 0.984 . S
H647 N643 0.985 . S
H648 N642 0.984 . S
H649 N642 0.984 . S
H650 N638 0.984 . S
H651 N638 0.985 . S
C652 C653 1.363 . S
C652 C658 1.379 . S
C652 N660 1.356 . S
C653 C652 1.363 . S
C653 C659 1.363 . S
C654 C655 1.363 . S
C654 C659 1.379 . S
C654 N661 1.356 . S
C655 C654 1.363 . S
C655 C658 1.363 . S
N656 C658 1.356 . S
N656 H668 0.984 . S
N656 H669 0.985 . S
N657 C659 1.356 . S
N657 H662 0.984 . S
N657 H663 0.985 . S
C658 C652 1.379 . S
C658 C655 1.363 . S
C658 N656 1.356 . S
C659 C653 1.363 . S
C659 C654 1.379 . S
C659 N657 1.356 . S
N660 C652 1.356 . S
N660 H666 0.984 . S
N660 H667 0.984 . S
N661 C654 1.356 . S
N661 H664 0.984 . S
N661 H665 0.985 . S
H662 N657 0.984 . S
H663 N657 0.985 . S
H664 N661 0.984 . S
H665 N661 0.985 . S
H666 N660 0.984 . S
H667 N660 0.984 . S
H668 N656 0.984 . S
H669 N656 0.985 . S
C670 C671 1.363 . S
C670 C676 1.379 . S
C670 N678 1.356 . S
C671 C670 1.363 . S
C671 C677 1.363 . S
C672 C673 1.363 . S
C672 C677 1.379 . S
C672 N679 1.356 . S
C673 C672 1.363 . S
C673 C676 1.363 . S
N674 C676 1.356 . S
N674 H686 0.984 . S
N674 H687 0.985 . S
N675 C677 1.356 . S
N675 H680 0.984 . S
N675 H681 0.985 . S
C676 C670 1.379 . S
C676 C673 1.363 . S
C676 N674 1.356 . S
C677 C671 1.363 . S
C677 C672 1.379 . S
C677 N675 1.356 . S
N678 C670 1.356 . S
N678 H684 0.984 . S
N678 H685 0.984 . S
N679 C672 1.356 . S
N679 H682 0.984 . S
N679 H683 0.985 . S
H680 N675 0.984 . S
H681 N675 0.985 . S
H682 N679 0.984 . S
H683 N679 0.985 . S
H684 N678 0.984 . S
H685 N678 0.984 . S
H686 N674 0.984 . S
H687 N674 0.985 . S
C688 C689 1.363 . S
C688 C694 1.379 . S
C688 N696 1.356 . S
C689 C688 1.363 . S
C689 C695 1.363 . S
C690 C691 1.363 . S
C690 C695 1.379 . S
C690 N697 1.356 . S
C691 C690 1.363 . S
C691 C694 1.363 . S
N692 C694 1.356 . S
N692 H704 0.984 . S
N692 H705 0.985 . S
N693 C695 1.356 . S
N693 H698 0.984 . S
N693 H699 0.985 . S
C694 C688 1.379 . S
C694 C691 1.363 . S
C694 N692 1.356 . S
C695 C689 1.363 . S
C695 C690 1.379 . S
C695 N693 1.356 . S
N696 C688 1.356 . S
N696 H702 0.984 . S
N696 H703 0.984 . S
N697 C690 1.356 . S
N697 H700 0.984 . S
N697 H701 0.985 . S
H698 N693 0.984 . S
H699 N693 0.985 . S
H700 N697 0.984 . S
H701 N697 0.985 . S
H702 N696 0.984 . S
H703 N696 0.984 . S
H704 N692 0.984 . S
H705 N692 0.985 . S
C706 C707 1.363 . S
C706 C712 1.379 . S
C706 N714 1.356 . S
C707 C706 1.363 . S
C707 C713 1.363 . S
C708 C709 1.363 . S
C708 C713 1.379 . S
C708 N715 1.356 . S
C709 C708 1.363 . S
C709 C712 1.363 . S
N710 C712 1.356 . S
N710 H722 0.984 . S
N710 H723 0.985 . S
N711 C713 1.356 . S
N711 H716 0.984 . S
N711 H717 0.985 . S
C712 C706 1.379 . S
C712 C709 1.363 . S
C712 N710 1.356 . S
C713 C707 1.363 . S
C713 C708 1.379 . S
C713 N711 1.356 . S
N714 C706 1.356 . S
N714 H720 0.984 . S
N714 H721 0.984 . S
N715 C708 1.356 . S
N715 H718 0.984 . S
N715 H719 0.985 . S
H716 N711 0.984 . S
H717 N711 0.985 . S
H718 N715 0.984 . S
H719 N715 0.985 . S
H720 N714 0.984 . S
H721 N714 0.984 . S
H722 N710 0.984 . S
H723 N710 0.985 . S
C724 C725 1.363 . S
C724 C730 1.379 . S
C724 N732 1.356 . S
C725 C724 1.363 . S
C725 C731 1.363 . S
C726 C727 1.363 . S
C726 C731 1.379 . S
C726 N733 1.356 . S
C727 C726 1.363 . S
C727 C730 1.363 . S
N728 C730 1.356 . S
N728 H740 0.984 . S
N728 H741 0.985 . S
N729 C731 1.356 . S
N729 H734 0.984 . S
N729 H735 0.985 . S
C730 C724 1.379 . S
C730 C727 1.363 . S
C730 N728 1.356 . S
C731 C725 1.363 . S
C731 C726 1.379 . S
C731 N729 1.356 . S
N732 C724 1.356 . S
N732 H738 0.984 . S
N732 H739 0.984 . S
N733 C726 1.356 . S
N733 H736 0.984 . S
N733 H737 0.985 . S
H734 N729 0.984 . S
H735 N729 0.985 . S
H736 N733 0.984 . S
H737 N733 0.985 . S
H738 N732 0.984 . S
H739 N732 0.984 . S
H740 N728 0.984 . S
H741 N728 0.985 . S
C742 C743 1.363 . S
C742 C748 1.379 . S
C742 N750 1.356 . S
C743 C742 1.363 . S
C743 C749 1.363 . S
C744 C745 1.363 . S
C744 C749 1.379 . S
C744 N751 1.356 . S
C745 C744 1.363 . S
C745 C748 1.363 . S
N746 C748 1.356 . S
N746 H758 0.984 . S
N746 H759 0.985 . S
N747 C749 1.356 . S
N747 H752 0.984 . S
N747 H753 0.985 . S
C748 C742 1.379 . S
C748 C745 1.363 . S
C748 N746 1.356 . S
C749 C743 1.363 . S
C749 C744 1.379 . S
C749 N747 1.356 . S
N750 C742 1.356 . S
N750 H756 0.984 . S
N750 H757 0.984 . S
N751 C744 1.356 . S
N751 H754 0.984 . S
N751 H755 0.985 . S
H752 N747 0.984 . S
H753 N747 0.985 . S
H754 N751 0.984 . S
H755 N751 0.985 . S
H756 N750 0.984 . S
H757 N750 0.984 . S
H758 N746 0.984 . S
H759 N746 0.985 . S
C760 C761 1.363 . S
C760 C766 1.379 . S
C760 N768 1.356 . S
C761 C760 1.363 . S
C761 C767 1.363 . S
C762 C763 1.363 . S
C762 C767 1.379 . S
C762 N769 1.356 . S
C763 C762 1.363 . S
C763 C766 1.363 . S
N764 C766 1.356 . S
N764 H776 0.984 . S
N764 H777 0.985 . S
N765 C767 1.356 . S
N765 H770 0.984 . S
N765 H771 0.985 . S
C766 C760 1.379 . S
C766 C763 1.363 . S
C766 N764 1.356 . S
C767 C761 1.363 . S
C767 C762 1.379 . S
C767 N765 1.356 . S
N768 C760 1.356 . S
N768 H774 0.984 . S
N768 H775 0.984 . S
N769 C762 1.356 . S
N769 H772 0.984 . S
N769 H773 0.985 . S
H770 N765 0.984 . S
H771 N765 0.985 . S
H772 N769 0.984 . S
H773 N769 0.985 . S
H774 N768 0.984 . S
H775 N768 0.984 . S
H776 N764 0.984 . S
H777 N764 0.985 . S
C778 C779 1.363 . S
C778 C784 1.379 . S
C778 N786 1.356 . S
C779 C778 1.363 . S
C779 C785 1.363 . S
C780 C781 1.363 . S
C780 C785 1.379 . S
C780 N787 1.356 . S
C781 C780 1.363 . S
C781 C784 1.363 . S
N782 C784 1.356 . S
N782 H794 0.984 . S
N782 H795 0.985 . S
N783 C785 1.356 . S
N783 H788 0.984 . S
N783 H789 0.985 . S
C784 C778 1.379 . S
C784 C781 1.363 . S
C784 N782 1.356 . S
C785 C779 1.363 . S
C785 C780 1.379 . S
C785 N783 1.356 . S
N786 C778 1.356 . S
N786 H792 0.984 . S
N786 H793 0.984 . S
N787 C780 1.356 . S
N787 H790 0.984 . S
N787 H791 0.985 . S
H788 N783 0.984 . S
H789 N783 0.985 . S
H790 N787 0.984 . S
H791 N787 0.985 . S
H792 N786 0.984 . S
H793 N786 0.984 . S
H794 N782 0.984 . S
H795 N782 0.985 . S
C796 C797 1.363 . S
C796 C802 1.379 . S
C796 N804 1.356 . S
C797 C796 1.363 . S
C797 C803 1.363 . S
C798 C799 1.363 . S
C798 C803 1.379 . S
C798 N805 1.356 . S
C799 C798 1.363 . S
C799 C802 1.363 . S
N800 C802 1.356 . S
N800 H812 0.984 . S
N800 H813 0.985 . S
N801 C803 1.356 . S
N801 H806 0.984 . S
N801 H807 0.985 . S
C802 C796 1.379 . S
C802 C799 1.363 . S
C802 N800 1.356 . S
C803 C797 1.363 . S
C803 C798 1.379 . S
C803 N801 1.356 . S
N804 C796 1.356 . S
N804 H810 0.984 . S
N804 H811 0.984 . S
N805 C798 1.356 . S
N805 H808 0.984 . S
N805 H809 0.985 . S
H806 N801 0.984 . S
H807 N801 0.985 . S
H808 N805 0.984 . S
H809 N805 0.985 . S
H810 N804 0.984 . S
H811 N804 0.984 . S
H812 N800 0.984 . S
H813 N800 0.985 . S
C814 C815 1.363 . S
C814 C820 1.379 . S
C814 N822 1.356 . S
C815 C814 1.363 . S
C815 C821 1.363 . S
C816 C817 1.363 . S
C816 C821 1.379 . S
C816 N823 1.356 . S
C817 C816 1.363 . S
C817 C820 1.363 . S
N818 C820 1.356 . S
N818 H830 0.984 . S
N818 H831 0.985 . S
N819 C821 1.356 . S
N819 H824 0.984 . S
N819 H825 0.985 . S
C820 C814 1.379 . S
C820 C817 1.363 . S
C820 N818 1.356 . S
C821 C815 1.363 . S
C821 C816 1.379 . S
C821 N819 1.356 . S
N822 C814 1.356 . S
N822 H828 0.984 . S
N822 H829 0.984 . S
N823 C816 1.356 . S
N823 H826 0.984 . S
N823 H827 0.985 . S
H824 N819 0.984 . S
H825 N819 0.985 . S
H826 N823 0.984 . S
H827 N823 0.985 . S
H828 N822 0.984 . S
H829 N822 0.984 . S
H830 N818 0.984 . S
H831 N818 0.985 . S
C832 C833 1.363 . S
C832 C838 1.379 . S
C832 N840 1.356 . S
C833 C832 1.363 . S
C833 C839 1.363 . S
C834 C835 1.363 . S
C834 C839 1.379 . S
C834 N841 1.356 . S
C835 C834 1.363 . S
C835 C838 1.363 . S
N836 C838 1.356 . S
N836 H848 0.984 . S
N836 H849 0.985 . S
N837 C839 1.356 . S
N837 H842 0.984 . S
N837 H843 0.985 . S
C838 C832 1.379 . S
C838 C835 1.363 . S
C838 N836 1.356 . S
C839 C833 1.363 . S
C839 C834 1.379 . S
C839 N837 1.356 . S
N840 C832 1.356 . S
N840 H846 0.984 . S
N840 H847 0.984 . S
N841 C834 1.356 . S
N841 H844 0.984 . S
N841 H845 0.985 . S
H842 N837 0.984 . S
H843 N837 0.985 . S
H844 N841 0.984 . S
H845 N841 0.985 . S
H846 N840 0.984 . S
H847 N840 0.984 . S
H848 N836 0.984 . S
H849 N836 0.985 . S
C850 C851 1.363 . S
C850 C856 1.379 . S
C850 N858 1.356 . S
C851 C850 1.363 . S
C851 C857 1.363 . S
C852 C853 1.363 . S
C852 C857 1.379 . S
C852 N859 1.356 . S
C853 C852 1.363 . S
C853 C856 1.363 . S
N854 C856 1.356 . S
N854 H866 0.984 . S
N854 H867 0.985 . S
N855 C857 1.356 . S
N855 H860 0.984 . S
N855 H861 0.985 . S
C856 C850 1.379 . S
C856 C853 1.363 . S
C856 N854 1.356 . S
C857 C851 1.363 . S
C857 C852 1.379 . S
C857 N855 1.356 . S
N858 C850 1.356 . S
N858 H864 0.984 . S
N858 H865 0.984 . S
N859 C852 1.356 . S
N859 H862 0.984 . S
N859 H863 0.985 . S
H860 N855 0.984 . S
H861 N855 0.985 . S
H862 N859 0.984 . S
H863 N859 0.985 . S
H864 N858 0.984 . S
H865 N858 0.984 . S
H866 N854 0.984 . S
H867 N854 0.985 . S
C868 C869 1.363 . S
C868 C874 1.379 . S
C868 N876 1.356 . S
C869 C868 1.363 . S
C869 C875 1.363 . S
C870 C871 1.363 . S
C870 C875 1.379 . S
C870 N877 1.356 . S
C871 C870 1.363 . S
C871 C874 1.363 . S
N872 C874 1.356 . S
N872 H884 0.984 . S
N872 H885 0.985 . S
N873 C875 1.356 . S
N873 H878 0.984 . S
N873 H879 0.985 . S
C874 C868 1.379 . S
C874 C871 1.363 . S
C874 N872 1.356 . S
C875 C869 1.363 . S
C875 C870 1.379 . S
C875 N873 1.356 . S
N876 C868 1.356 . S
N876 H882 0.984 . S
N876 H883 0.984 . S
N877 C870 1.356 . S
N877 H880 0.984 . S
N877 H881 0.985 . S
H878 N873 0.984 . S
H879 N873 0.985 . S
H880 N877 0.984 . S
H881 N877 0.985 . S
H882 N876 0.984 . S
H883 N876 0.984 . S
H884 N872 0.984 . S
H885 N872 0.985 . S
C886 C887 1.363 . S
C886 C892 1.379 . S
C886 N894 1.356 . S
C887 C886 1.363 . S
C887 C893 1.363 . S
C888 C889 1.363 . S
C888 C893 1.379 . S
C888 N895 1.356 . S
C889 C888 1.363 . S
C889 C892 1.363 . S
N890 C892 1.356 . S
N890 H902 0.984 . S
N890 H903 0.985 . S
N891 C893 1.356 . S
N891 H896 0.984 . S
N891 H897 0.985 . S
C892 C886 1.379 . S
C892 C889 1.363 . S
C892 N890 1.356 . S
C893 C887 1.363 . S
C893 C888 1.379 . S
C893 N891 1.356 . S
N894 C886 1.356 . S
N894 H900 0.984 . S
N894 H901 0.984 . S
N895 C888 1.356 . S
N895 H898 0.984 . S
N895 H899 0.985 . S
H896 N891 0.984 . S
H897 N891 0.985 . S
H898 N895 0.984 . S
H899 N895 0.985 . S
H900 N894 0.984 . S
H901 N894 0.984 . S
H902 N890 0.984 . S
H903 N890 0.985 . S
C904 C905 1.363 . S
C904 C910 1.379 . S
C904 N912 1.356 . S
C905 C904 1.363 . S
C905 C911 1.363 . S
C906 C907 1.363 . S
C906 C911 1.379 . S
C906 N913 1.356 . S
C907 C906 1.363 . S
C907 C910 1.363 . S
N908 C910 1.356 . S
N908 H920 0.984 . S
N908 H921 0.985 . S
N909 C911 1.356 . S
N909 H914 0.984 . S
N909 H915 0.985 . S
C910 C904 1.379 . S
C910 C907 1.363 . S
C910 N908 1.356 . S
C911 C905 1.363 . S
C911 C906 1.379 . S
C911 N909 1.356 . S
N912 C904 1.356 . S
N912 H918 0.984 . S
N912 H919 0.984 . S
N913 C906 1.356 . S
N913 H916 0.984 . S
N913 H917 0.985 . S
H914 N909 0.984 . S
H915 N909 0.985 . S
H916 N913 0.984 . S
H917 N913 0.985 . S
H918 N912 0.984 . S
H919 N912 0.984 . S
H920 N908 0.984 . S
H921 N908 0.985 . S
C922 C923 1.363 . S
C922 C928 1.379 . S
C922 N930 1.356 . S
C923 C922 1.363 . S
C923 C929 1.363 . S
C924 C925 1.363 . S
C924 C929 1.379 . S
C924 N931 1.356 . S
C925 C924 1.363 . S
C925 C928 1.363 . S
N926 C928 1.356 . S
N926 H938 0.984 . S
N926 H939 0.985 . S
N927 C929 1.356 . S
N927 H932 0.984 . S
N927 H933 0.985 . S
C928 C922 1.379 . S
C928 C925 1.363 . S
C928 N926 1.356 . S
C929 C923 1.363 . S
C929 C924 1.379 . S
C929 N927 1.356 . S
N930 C922 1.356 . S
N930 H936 0.984 . S
N930 H937 0.984 . S
N931 C924 1.356 . S
N931 H934 0.984 . S
N931 H935 0.985 . S
H932 N927 0.984 . S
H933 N927 0.985 . S
H934 N931 0.984 . S
H935 N931 0.985 . S
H936 N930 0.984 . S
H937 N930 0.984 . S
H938 N926 0.984 . S
H939 N926 0.985 . S
C940 C941 1.363 . S
C940 C946 1.379 . S
C940 N948 1.356 . S
C941 C940 1.363 . S
C941 C947 1.363 . S
C942 C943 1.363 . S
C942 C947 1.379 . S
C942 N949 1.356 . S
C943 C942 1.363 . S
C943 C946 1.363 . S
N944 C946 1.356 . S
N944 H956 0.984 . S
N944 H957 0.985 . S
N945 C947 1.356 . S
N945 H950 0.984 . S
N945 H951 0.985 . S
C946 C940 1.379 . S
C946 C943 1.363 . S
C946 N944 1.356 . S
C947 C941 1.363 . S
C947 C942 1.379 . S
C947 N945 1.356 . S
N948 C940 1.356 . S
N948 H954 0.984 . S
N948 H955 0.984 . S
N949 C942 1.356 . S
N949 H952 0.984 . S
N949 H953 0.985 . S
H950 N945 0.984 . S
H951 N945 0.985 . S
H952 N949 0.984 . S
H953 N949 0.985 . S
H954 N948 0.984 . S
H955 N948 0.984 . S
H956 N944 0.984 . S
H957 N944 0.985 . S
C958 C959 1.363 . S
C958 C964 1.379 . S
C958 N966 1.356 . S
C959 C958 1.363 . S
C959 C965 1.363 . S
C960 C961 1.363 . S
C960 C965 1.379 . S
C960 N967 1.356 . S
C961 C960 1.363 . S
C961 C964 1.363 . S
N962 C964 1.356 . S
N962 H974 0.984 . S
N962 H975 0.985 . S
N963 C965 1.356 . S
N963 H968 0.984 . S
N963 H969 0.985 . S
C964 C958 1.379 . S
C964 C961 1.363 . S
C964 N962 1.356 . S
C965 C959 1.363 . S
C965 C960 1.379 . S
C965 N963 1.356 . S
N966 C958 1.356 . S
N966 H972 0.984 . S
N966 H973 0.984 . S
N967 C960 1.356 . S
N967 H970 0.984 . S
N967 H971 0.985 . S
H968 N963 0.984 . S
H969 N963 0.985 . S
H970 N967 0.984 . S
H971 N967 0.985 . S
H972 N966 0.984 . S
H973 N966 0.984 . S
H974 N962 0.984 . S
H975 N962 0.985 . S
C976 C977 1.363 . S
C976 C982 1.379 1_655 S
C976 N984 1.356 . S
C977 C976 1.363 . S
C977 C983 1.363 1_565 S
C978 C979 1.363 . S
C978 C983 1.379 1_455 S
C978 N985 1.356 . S
C979 C978 1.363 . S
C979 C982 1.363 1_545 S
N980 C982 1.356 . S
N980 H992 0.984 . S
N980 H993 0.985 . S
N981 C983 1.356 . S
N981 H986 0.984 . S
N981 H987 0.985 . S
C982 C976 1.379 1_455 S
C982 C979 1.363 1_565 S
C982 N980 1.356 . S
C983 C977 1.363 1_545 S
C983 C978 1.379 1_655 S
C983 N981 1.356 . S
N984 C976 1.356 . S
N984 H990 0.984 . S
N984 H991 0.984 . S
N985 C978 1.356 . S
N985 H988 0.984 . S
N985 H989 0.985 . S
H986 N981 0.984 . S
H987 N981 0.985 . S
H988 N985 0.984 . S
H989 N985 0.985 . S
H990 N984 0.984 . S
H991 N984 0.984 . S
H992 N980 0.984 . S
H993 N980 0.985 . S
C994 C995 1.363 . S
C994 C1000 1.379 1_455 S
C994 N1002 1.356 . S
C995 C994 1.363 . S
C995 C1001 1.363 1_565 S
C996 C997 1.363 . S
C996 C1001 1.379 1_655 S
C996 N1003 1.356 . S
C997 C996 1.363 . S
C997 C1000 1.363 1_545 S
N998 C1000 1.356 . S
N998 H1010 0.984 . S
N998 H1011 0.985 . S
N999 C1001 1.356 . S
N999 H1004 0.984 . S
N999 H1005 0.985 . S
C1000 C994 1.379 1_655 S
C1000 C997 1.363 1_565 S
C1000 N998 1.356 . S
C1001 C995 1.363 1_545 S
C1001 C996 1.379 1_455 S
C1001 N999 1.356 . S
N1002 C994 1.356 . S
N1002 H1008 0.984 . S
N1002 H1009 0.984 . S
N1003 C996 1.356 . S
N1003 H1006 0.984 . S
N1003 H1007 0.985 . S
H1004 N999 0.984 . S
H1005 N999 0.985 . S
H1006 N1003 0.984 . S
H1007 N1003 0.985 . S
H1008 N1002 0.984 . S
H1009 N1002 0.984 . S
H1010 N998 0.984 . S
H1011 N998 0.985 . S
C1012 C1013 1.363 . S
C1012 C1018 1.379 1_655 S
C1012 N1020 1.356 . S
C1013 C1012 1.363 . S
C1013 C1019 1.363 . S
C1014 C1015 1.363 . S
C1014 C1019 1.379 1_455 S
C1014 N1021 1.356 . S
C1015 C1014 1.363 . S
C1015 C1018 1.363 . S
N1016 C1018 1.356 . S
N1016 H1028 0.984 . S
N1016 H1029 0.985 . S
N1017 C1019 1.356 . S
N1017 H1022 0.984 . S
N1017 H1023 0.985 . S
C1018 C1012 1.379 1_455 S
C1018 C1015 1.363 . S
C1018 N1016 1.356 . S
C1019 C1013 1.363 . S
C1019 C1014 1.379 1_655 S
C1019 N1017 1.356 . S
N1020 C1012 1.356 . S
N1020 H1026 0.984 . S
N1020 H1027 0.984 . S
N1021 C1014 1.356 . S
N1021 H1024 0.984 . S
N1021 H1025 0.985 . S
H1022 N1017 0.984 . S
H1023 N1017 0.985 . S
H1024 N1021 0.984 . S
H1025 N1021 0.985 . S
H1026 N1020 0.984 . S
H1027 N1020 0.984 . S
H1028 N1016 0.984 . S
H1029 N1016 0.985 . S
C1030 C1031 1.363 . S
C1030 C1036 1.379 1_655 S
C1030 N1038 1.356 . S
C1031 C1030 1.363 . S
C1031 C1037 1.363 . S
C1032 C1033 1.363 . S
C1032 C1037 1.379 1_455 S
C1032 N1039 1.356 . S
C1033 C1032 1.363 . S
C1033 C1036 1.363 . S
N1034 C1036 1.356 . S
N1034 H1046 0.984 . S
N1034 H1047 0.985 . S
N1035 C1037 1.356 . S
N1035 H1040 0.984 . S
N1035 H1041 0.985 . S
C1036 C1030 1.379 1_455 S
C1036 C1033 1.363 . S
C1036 N1034 1.356 . S
C1037 C1031 1.363 . S
C1037 C1032 1.379 1_655 S
C1037 N1035 1.356 . S
N1038 C1030 1.356 . S
N1038 H1044 0.984 . S
N1038 H1045 0.984 . S
N1039 C1032 1.356 . S
N1039 H1042 0.984 . S
N1039 H1043 0.985 . S
H1040 N1035 0.984 . S
H1041 N1035 0.985 . S
H1042 N1039 0.984 . S
H1043 N1039 0.985 . S
H1044 N1038 0.984 . S
H1045 N1038 0.984 . S
H1046 N1034 0.984 . S
H1047 N1034 0.985 . S
C1048 C1049 1.363 1_545 S
C1048 C1054 1.379 . S
C1048 N1056 1.356 . S
C1049 C1048 1.363 1_565 S
C1049 C1055 1.363 . S
C1050 C1051 1.363 1_565 S
C1050 C1055 1.379 . S
C1050 N1057 1.356 . S
C1051 C1050 1.363 1_545 S
C1051 C1054 1.363 . S
N1052 C1054 1.356 . S
N1052 H1064 0.984 . S
N1052 H1065 0.985 . S
N1053 C1055 1.356 . S
N1053 H1058 0.984 . S
N1053 H1059 0.985 . S
C1054 C1048 1.379 . S
C1054 C1051 1.363 . S
C1054 N1052 1.356 . S
C1055 C1049 1.363 . S
C1055 C1050 1.379 . S
C1055 N1053 1.356 . S
N1056 C1048 1.356 . S
N1056 H1062 0.984 . S
N1056 H1063 0.984 . S
N1057 C1050 1.356 . S
N1057 H1060 0.984 . S
N1057 H1061 0.985 . S
H1058 N1053 0.984 . S
H1059 N1053 0.985 . S
H1060 N1057 0.984 . S
H1061 N1057 0.985 . S
H1062 N1056 0.984 . S
H1063 N1056 0.984 . S
H1064 N1052 0.984 . S
H1065 N1052 0.985 . S
C1066 C1067 1.363 1_565 S
C1066 C1072 1.379 . S
C1066 N1074 1.356 . S
C1067 C1066 1.363 1_545 S
C1067 C1073 1.363 . S
C1068 C1069 1.363 1_545 S
C1068 C1073 1.379 . S
C1068 N1075 1.356 . S
C1069 C1068 1.363 1_565 S
C1069 C1072 1.363 . S
N1070 C1072 1.356 . S
N1070 H1082 0.984 . S
N1070 H1083 0.985 . S
N1071 C1073 1.356 . S
N1071 H1076 0.984 . S
N1071 H1077 0.985 . S
C1072 C1066 1.379 . S
C1072 C1069 1.363 . S
C1072 N1070 1.356 . S
C1073 C1067 1.363 . S
C1073 C1068 1.379 . S
C1073 N1071 1.356 . S
N1074 C1066 1.356 . S
N1074 H1080 0.984 . S
N1074 H1081 0.984 . S
N1075 C1068 1.356 . S
N1075 H1078 0.984 . S
N1075 H1079 0.985 . S
H1076 N1071 0.984 . S
H1077 N1071 0.985 . S
H1078 N1075 0.984 . S
H1079 N1075 0.985 . S
H1080 N1074 0.984 . S
H1081 N1074 0.984 . S
H1082 N1070 0.984 . S
H1083 N1070 0.985 . S
C1084 C1085 1.363 . S
C1084 C1090 1.379 . S
C1084 N1092 1.356 . S
C1085 C1084 1.363 . S
C1085 C1091 1.363 . S
C1086 C1087 1.363 . S
C1086 C1091 1.379 . S
C1086 N1093 1.356 . S
C1087 C1086 1.363 . S
C1087 C1090 1.363 . S
N1088 C1090 1.356 . S
N1088 H1100 0.984 . S
N1088 H1101 0.985 . S
N1089 C1091 1.356 . S
N1089 H1094 0.984 . S
N1089 H1095 0.985 . S
C1090 C1084 1.379 . S
C1090 C1087 1.363 . S
C1090 N1088 1.356 . S
C1091 C1085 1.363 . S
C1091 C1086 1.379 . S
C1091 N1089 1.356 . S
N1092 C1084 1.356 . S
N1092 H1098 0.984 . S
N1092 H1099 0.984 . S
N1093 C1086 1.356 . S
N1093 H1096 0.984 . S
N1093 H1097 0.985 . S
H1094 N1089 0.984 . S
H1095 N1089 0.985 . S
H1096 N1093 0.984 . S
H1097 N1093 0.985 . S
H1098 N1092 0.984 . S
H1099 N1092 0.984 . S
H1100 N1088 0.984 . S
H1101 N1088 0.985 . S
C1102 C1103 1.363 . S
C1102 C1108 1.379 . S
C1102 N1110 1.356 . S
C1103 C1102 1.363 . S
C1103 C1109 1.363 . S
C1104 C1105 1.363 . S
C1104 C1109 1.379 . S
C1104 N1111 1.356 . S
C1105 C1104 1.363 . S
C1105 C1108 1.363 . S
N1106 C1108 1.356 . S
N1106 H1118 0.984 . S
N1106 H1119 0.985 . S
N1107 C1109 1.356 . S
N1107 H1112 0.984 . S
N1107 H1113 0.985 . S
C1108 C1102 1.379 . S
C1108 C1105 1.363 . S
C1108 N1106 1.356 . S
C1109 C1103 1.363 . S
C1109 C1104 1.379 . S
C1109 N1107 1.356 . S
N1110 C1102 1.356 . S
N1110 H1116 0.984 . S
N1110 H1117 0.984 . S
N1111 C1104 1.356 . S
N1111 H1114 0.984 . S
N1111 H1115 0.985 . S
H1112 N1107 0.984 . S
H1113 N1107 0.985 . S
H1114 N1111 0.984 . S
H1115 N1111 0.985 . S
H1116 N1110 0.984 . S
H1117 N1110 0.984 . S
H1118 N1106 0.984 . S
H1119 N1106 0.985 . S
C1120 C1121 1.363 . S
C1120 C1126 1.379 1_556 S
C1120 N1128 1.356 . S
C1121 C1120 1.363 . S
C1121 C1127 1.363 1_545 S
C1122 C1123 1.363 1_565 S
C1122 C1127 1.379 1_554 S
C1122 N1129 1.356 . S
C1123 C1122 1.363 1_545 S
C1123 C1126 1.363 . S
N1124 C1126 1.356 . S
N1124 H1136 0.984 . S
N1124 H1137 0.985 . S
N1125 C1127 1.356 . S
N1125 H1130 0.984 . S
N1125 H1131 0.985 . S
C1126 C1120 1.379 1_554 S
C1126 C1123 1.363 . S
C1126 N1124 1.356 . S
C1127 C1121 1.363 1_565 S
C1127 C1122 1.379 1_556 S
C1127 N1125 1.356 . S
N1128 C1120 1.356 . S
N1128 H1134 0.984 . S
N1128 H1135 0.984 . S
N1129 C1122 1.356 . S
N1129 H1132 0.984 . S
N1129 H1133 0.985 . S
H1130 N1125 0.984 . S
H1131 N1125 0.985 . S
H1132 N1129 0.984 . S
H1133 N1129 0.985 . S
H1134 N1128 0.984 . S
H1135 N1128 0.984 . S
H1136 N1124 0.984 . S
H1137 N1124 0.985 . S
C1138 C1139 1.363 1_565 S
C1138 C1144 1.379 1_556 S
C1138 N1146 1.356 . S
C1139 C1138 1.363 1_545 S
C1139 C1145 1.363 . S
C1140 C1141 1.363 . S
C1140 C1145 1.379 1_554 S
C1140 N1147 1.356 . S
C1141 C1140 1.363 . S
C1141 C1144 1.363 1_545 S
N1142 C1144 1.356 . S
N1142 H1154 0.984 . S
N1142 H1155 0.985 . S
N1143 C1145 1.356 . S
N1143 H1148 0.984 . S
N1143 H1149 0.985 . S
C1144 C1138 1.379 1_554 S
C1144 C1141 1.363 1_565 S
C1144 N1142 1.356 . S
C1145 C1139 1.363 . S
C1145 C1140 1.379 1_556 S
C1145 N1143 1.356 . S
N1146 C1138 1.356 . S
N1146 H1152 0.984 . S
N1146 H1153 0.984 . S
N1147 C1140 1.356 . S
N1147 H1150 0.984 . S
N1147 H1151 0.985 . S
H1148 N1143 0.984 . S
H1149 N1143 0.985 . S
H1150 N1147 0.984 . S
H1151 N1147 0.985 . S
H1152 N1146 0.984 . S
H1153 N1146 0.984 . S
H1154 N1142 0.984 . S
H1155 N1142 0.985 . S
C1156 C1157 1.363 . S
C1156 C1162 1.379 . S
C1156 N1164 1.356 . S
C1157 C1156 1.363 . S
C1157 C1163 1.363 . S
C1158 C1159 1.363 . S
C1158 C1163 1.379 . S
C1158 N1165 1.356 . S
C1159 C1158 1.363 . S
C1159 C1162 1.363 . S
N1160 C1162 1.356 . S
N1160 H1172 0.984 . S
N1160 H1173 0.985 . S
N1161 C1163 1.356 . S
N1161 H1166 0.984 . S
N1161 H1167 0.985 . S
C1162 C1156 1.379 . S
C1162 C1159 1.363 . S
C1162 N1160 1.356 . S
C1163 C1157 1.363 . S
C1163 C1158 1.379 . S
C1163 N1161 1.356 . S
N1164 C1156 1.356 . S
N1164 H1170 0.984 . S
N1164 H1171 0.984 . S
N1165 C1158 1.356 . S
N1165 H1168 0.984 . S
N1165 H1169 0.985 . S
H1166 N1161 0.984 . S
H1167 N1161 0.985 . S
H1168 N1165 0.984 . S
H1169 N1165 0.985 . S
H1170 N1164 0.984 . S
H1171 N1164 0.984 . S
H1172 N1160 0.984 . S
H1173 N1160 0.985 . S
C1174 C1175 1.363 . S
C1174 C1180 1.379 . S
C1174 N1182 1.356 . S
C1175 C1174 1.363 . S
C1175 C1181 1.363 . S
C1176 C1177 1.363 . S
C1176 C1181 1.379 . S
C1176 N1183 1.356 . S
C1177 C1176 1.363 . S
C1177 C1180 1.363 . S
N1178 C1180 1.356 . S
N1178 H1190 0.984 . S
N1178 H1191 0.985 . S
N1179 C1181 1.356 . S
N1179 H1184 0.984 . S
N1179 H1185 0.985 . S
C1180 C1174 1.379 . S
C1180 C1177 1.363 . S
C1180 N1178 1.356 . S
C1181 C1175 1.363 . S
C1181 C1176 1.379 . S
C1181 N1179 1.356 . S
N1182 C1174 1.356 . S
N1182 H1188 0.984 . S
N1182 H1189 0.984 . S
N1183 C1176 1.356 . S
N1183 H1186 0.984 . S
N1183 H1187 0.985 . S
H1184 N1179 0.984 . S
H1185 N1179 0.985 . S
H1186 N1183 0.984 . S
H1187 N1183 0.985 . S
H1188 N1182 0.984 . S
H1189 N1182 0.984 . S
H1190 N1178 0.984 . S
H1191 N1178 0.985 . S
C1192 C1193 1.363 1_565 S
C1192 C1198 1.379 . S
C1192 N1200 1.356 . S
C1193 C1192 1.363 1_545 S
C1193 C1199 1.363 . S
C1194 C1195 1.363 . S
C1194 C1199 1.379 . S
C1194 N1201 1.356 . S
C1195 C1194 1.363 . S
C1195 C1198 1.363 1_545 S
N1196 C1198 1.356 . S
N1196 H1208 0.984 . S
N1196 H1209 0.985 . S
N1197 C1199 1.356 . S
N1197 H1202 0.984 . S
N1197 H1203 0.985 . S
C1198 C1192 1.379 . S
C1198 C1195 1.363 1_565 S
C1198 N1196 1.356 . S
C1199 C1193 1.363 . S
C1199 C1194 1.379 . S
C1199 N1197 1.356 . S
N1200 C1192 1.356 . S
N1200 H1206 0.984 . S
N1200 H1207 0.984 . S
N1201 C1194 1.356 . S
N1201 H1204 0.984 . S
N1201 H1205 0.985 . S
H1202 N1197 0.984 . S
H1203 N1197 0.985 . S
H1204 N1201 0.984 . S
H1205 N1201 0.985 . S
H1206 N1200 0.984 . S
H1207 N1200 0.984 . S
H1208 N1196 0.984 . S
H1209 N1196 0.985 . S
C1210 C1211 1.363 1_565 S
C1210 C1216 1.379 . S
C1210 N1218 1.356 . S
C1211 C1210 1.363 1_545 S
C1211 C1217 1.363 . S
C1212 C1213 1.363 . S
C1212 C1217 1.379 . S
C1212 N1219 1.356 . S
C1213 C1212 1.363 . S
C1213 C1216 1.363 1_545 S
N1214 C1216 1.356 . S
N1214 H1226 0.984 . S
N1214 H1227 0.985 . S
N1215 C1217 1.356 . S
N1215 H1220 0.984 . S
N1215 H1221 0.985 . S
C1216 C1210 1.379 . S
C1216 C1213 1.363 1_565 S
C1216 N1214 1.356 . S
C1217 C1211 1.363 . S
C1217 C1212 1.379 . S
C1217 N1215 1.356 . S
N1218 C1210 1.356 . S
N1218 H1224 0.984 . S
N1218 H1225 0.984 . S
N1219 C1212 1.356 . S
N1219 H1222 0.984 . S
N1219 H1223 0.985 . S
H1220 N1215 0.984 . S
H1221 N1215 0.985 . S
H1222 N1219 0.984 . S
H1223 N1219 0.985 . S
H1224 N1218 0.984 . S
H1225 N1218 0.984 . S
H1226 N1214 0.984 . S
H1227 N1214 0.985 . S
C1228 C1229 1.363 . S
C1228 C1234 1.379 1_554 S
C1228 N1236 1.356 . S
C1229 C1228 1.363 . S
C1229 C1235 1.363 . S
C1230 C1231 1.363 . S
C1230 C1235 1.379 1_556 S
C1230 N1237 1.356 . S
C1231 C1230 1.363 . S
C1231 C1234 1.363 . S
N1232 C1234 1.356 . S
N1232 H1244 0.984 . S
N1232 H1245 0.985 . S
N1233 C1235 1.356 . S
N1233 H1238 0.984 . S
N1233 H1239 0.985 . S
C1234 C1228 1.379 1_556 S
C1234 C1231 1.363 . S
C1234 N1232 1.356 . S
C1235 C1229 1.363 . S
C1235 C1230 1.379 1_554 S
C1235 N1233 1.356 . S
N1236 C1228 1.356 . S
N1236 H1242 0.984 . S
N1236 H1243 0.984 . S
N1237 C1230 1.356 . S
N1237 H1240 0.984 . S
N1237 H1241 0.985 . S
H1238 N1233 0.984 . S
H1239 N1233 0.985 . S
H1240 N1237 0.984 . S
H1241 N1237 0.985 . S
H1242 N1236 0.984 . S
H1243 N1236 0.984 . S
H1244 N1232 0.984 . S
H1245 N1232 0.985 . S
C1246 C1247 1.363 . S
C1246 C1252 1.379 1_556 S
C1246 N1254 1.356 . S
C1247 C1246 1.363 . S
C1247 C1253 1.363 . S
C1248 C1249 1.363 . S
C1248 C1253 1.379 1_554 S
C1248 N1255 1.356 . S
C1249 C1248 1.363 . S
C1249 C1252 1.363 . S
N1250 C1252 1.356 . S
N1250 H1262 0.984 . S
N1250 H1263 0.985 . S
N1251 C1253 1.356 . S
N1251 H1256 0.984 . S
N1251 H1257 0.985 . S
C1252 C1246 1.379 1_554 S
C1252 C1249 1.363 . S
C1252 N1250 1.356 . S
C1253 C1247 1.363 . S
C1253 C1248 1.379 1_556 S
C1253 N1251 1.356 . S
N1254 C1246 1.356 . S
N1254 H1260 0.984 . S
N1254 H1261 0.984 . S
N1255 C1248 1.356 . S
N1255 H1258 0.984 . S
N1255 H1259 0.985 . S
H1256 N1251 0.984 . S
H1257 N1251 0.985 . S
H1258 N1255 0.984 . S
H1259 N1255 0.985 . S
H1260 N1254 0.984 . S
H1261 N1254 0.984 . S
H1262 N1250 0.984 . S
H1263 N1250 0.985 . S
C545 C9 1.418 . S
C547 C383 1.418 . S
C563 C43 1.418 . S
C565 C349 1.418 . S
C581 C315 1.418 . S
C583 C77 1.418 . S
C599 C281 1.418 . S
C601 C111 1.418 . S
C617 C145 1.418 . S
C619 C519 1.418 . S
C635 C179 1.418 . S
C637 C485 1.418 . S
C653 C451 1.418 . S
C655 C213 1.418 . S
C671 C417 1.418 . S
C673 C247 1.418 . S
C689 C2 1.952 . S
C691 C444 1.952 . S
C707 C410 1.953 . S
C709 C36 1.953 . S
C725 C70 1.953 . S
C727 C512 1.953 . S
C743 C478 1.952 . S
C745 C104 1.952 . S
C761 C122 1.134 . S
C763 C496 1.134 . S
C779 C530 1.134 . S
C781 C88 1.134 . S
C797 C428 1.134 . S
C799 C54 1.134 . S
C815 C20 1.134 . S
C817 C462 1.134 . S
C833 C138 1.953 . S
C835 C308 1.953 . S
C851 C172 1.952 . S
C853 C274 1.952 . S
C869 C206 1.952 . S
C871 C376 1.952 . S
C887 C240 1.953 . S
C889 C342 1.953 . S
C905 C258 1.134 . S
C907 C360 1.134 . S
C923 C224 1.134 . S
C925 C394 1.134 . S
C941 C190 1.134 . S
C943 C292 1.134 . S
C959 C156 1.134 . S
C961 C326 1.134 . S
C977 C67 1.635 . S
C979 C33 1.635 . S
C995 C101 1.635 . S
C997 C135 1.635 . S
C1013 C203 1.635 . S
C1015 C169 1.635 . S
C1031 C271 1.635 . S
C1033 C237 1.635 . S
C1049 C339 1.635 . S
C1051 C305 1.635 . S
C1067 C407 1.635 . S
C1069 C373 1.635 . S
C1085 C441 1.635 . S
C1087 C475 1.635 . S
C1103 C543 1.635 . S
C1105 C509 1.635 . S
C1121 C73 1.479 1_545 S
C1123 C5 1.480 . S
C1139 C107 1.480 . S
C1141 C39 1.479 1_545 S
C1157 C141 1.480 . S
C1159 C209 1.480 . S
C1175 C243 1.480 . S
C1177 C175 1.480 . S
C1193 C277 1.480 . S
C1195 C345 1.479 1_545 S
C1211 C379 1.480 . S
C1213 C311 1.479 1_545 S
C1229 C413 1.480 . S
C1231 C481 1.480 . S
C1247 C515 1.480 . S
C1249 C447 1.480 . S
