# Generated by pormake.
# Topology umb, (4)-cn, num edge types: 1
# Building blocks:
#     Node 0, Type 0, BuildingBlock: ESEHIV_clean_sbu_0, # of connection points: 4
#     Node 1, Type 0, BuildingBlock: ESEHIV_clean_sbu_0, # of connection points: 4
#     Node 2, Type 0, BuildingBlock: ESEHIV_clean_sbu_0, # of connection points: 4
#     Node 3, Type 0, BuildingBlock: ESEHIV_clean_sbu_0, # of connection points: 4
#     Node 4, Type 0, BuildingBlock: ESEHIV_clean_sbu_0, # of connection points: 4
#     Node 5, Type 0, BuildingBlock: ESEHIV_clean_sbu_0, # of connection points: 4
#     Node 6, Type 0, BuildingBlock: ESEHIV_clean_sbu_0, # of connection points: 4
#     Node 7, Type 0, BuildingBlock: ESEHIV_clean_sbu_0, # of connection points: 4
#     Node 8, Type 0, BuildingBlock: ESEHIV_clean_sbu_0, # of connection points: 4
#     Node 9, Type 0, BuildingBlock: ESEHIV_clean_sbu_0, # of connection points: 4
#     Node 10, Type 0, BuildingBlock: ESEHIV_clean_sbu_0, # of connection points: 4
#     Node 11, Type 0, BuildingBlock: ESEHIV_clean_sbu_0, # of connection points: 4
#     Edge 12, Type (0, 0), BuildingBlock: OJICUG_clean_linker_0, # of connection points: 2
#     Edge 13, Type (0, 0), BuildingBlock: OJICUG_clean_linker_0, # of connection points: 2
#     Edge 14, Type (0, 0), BuildingBlock: OJICUG_clean_linker_0, # of connection points: 2
#     Edge 15, Type (0, 0), BuildingBlock: OJICUG_clean_linker_0, # of connection points: 2
#     Edge 16, Type (0, 0), BuildingBlock: OJICUG_clean_linker_0, # of connection points: 2
#     Edge 17, Type (0, 0), BuildingBlock: OJICUG_clean_linker_0, # of connection points: 2
#     Edge 18, Type (0, 0), BuildingBlock: OJICUG_clean_linker_0, # of connection points: 2
#     Edge 19, Type (0, 0), BuildingBlock: OJICUG_clean_linker_0, # of connection points: 2
#     Edge 20, Type (0, 0), BuildingBlock: OJICUG_clean_linker_0, # of connection points: 2
#     Edge 21, Type (0, 0), BuildingBlock: OJICUG_clean_linker_0, # of connection points: 2
#     Edge 22, Type (0, 0), BuildingBlock: OJICUG_clean_linker_0, # of connection points: 2
#     Edge 23, Type (0, 0), BuildingBlock: OJICUG_clean_linker_0, # of connection points: 2
#     Edge 24, Type (0, 0), BuildingBlock: OJICUG_clean_linker_0, # of connection points: 2
#     Edge 25, Type (0, 0), BuildingBlock: OJICUG_clean_linker_0, # of connection points: 2
#     Edge 26, Type (0, 0), BuildingBlock: OJICUG_clean_linker_0, # of connection points: 2
#     Edge 27, Type (0, 0), BuildingBlock: OJICUG_clean_linker_0, # of connection points: 2
#     Edge 28, Type (0, 0), BuildingBlock: OJICUG_clean_linker_0, # of connection points: 2
#     Edge 29, Type (0, 0), BuildingBlock: OJICUG_clean_linker_0, # of connection points: 2
#     Edge 30, Type (0, 0), BuildingBlock: OJICUG_clean_linker_0, # of connection points: 2
#     Edge 31, Type (0, 0), BuildingBlock: OJICUG_clean_linker_0, # of connection points: 2
#     Edge 32, Type (0, 0), BuildingBlock: OJICUG_clean_linker_0, # of connection points: 2
#     Edge 33, Type (0, 0), BuildingBlock: OJICUG_clean_linker_0, # of connection points: 2
#     Edge 34, Type (0, 0), BuildingBlock: OJICUG_clean_linker_0, # of connection points: 2
#     Edge 35, Type (0, 0), BuildingBlock: OJICUG_clean_linker_0, # of connection points: 2
# Relax obj value: 0.189
# Max RMSD: 0.170
# Mean RMSD: 0.150
data_MOF--net-umb--node1-ESEHIV_clean_sbu_0--edge1-OJICUG_clean_linker_0
_symmetry_space_group_name_H-M    P1
_symmetry_Int_Tables_number       1
_symmetry_cell_setting            triclinic
loop_
_symmetry_equiv_pos_as_xyz
'x, y, z'
_cell_length_a     38.165831
_cell_length_b     41.564588
_cell_length_c     28.953935
_cell_angle_alpha  90.186808
_cell_angle_beta   89.800633
_cell_angle_gamma 117.40452
loop_
_atom_site_label
_atom_site_type_symbol
_atom_site_fract_x
_atom_site_fract_y
_atom_site_fract_z
_atom_type_partial_charge
Cu0 Cu 0.56572 0.18138 0.36069 0.0
N1 N 0.61438 0.18391 0.34599 0.0
N2 N 0.67833 0.19943 0.35224 0.0
C3 C 0.64662 0.19954 0.37256 0.0
C4 C 0.66569 0.18337 0.3108 0.0
C5 C 0.62587 0.17331 0.3073 0.0
O6 O 0.55736 0.21734 0.32471 0.0
C7 C 0.57478 0.17058 0.45518 0.0
O8 O 0.58246 0.14523 0.43797 0.0
H9 H 0.64747 0.21309 0.40484 0.0
H10 H 0.60703 0.16064 0.27792 0.0
N11 N 0.52736 0.13517 0.34438 0.0
N12 N 0.50005 0.07614 0.32792 0.0
C13 C 0.52981 0.10408 0.34953 0.0
C14 C 0.49496 0.12659 0.31862 0.0
C15 C 0.47805 0.0901 0.30829 0.0
C16 C 0.58497 0.24436 0.3043 0.0
O17 O 0.6216 0.25011 0.30912 0.0
H18 H 0.55418 0.10236 0.36629 0.0
H19 H 0.48534 0.14584 0.30657 0.0
O20 O 0.56521 0.18916 0.42762 0.0
H21 H 0.68424 0.18064 0.28431 0.0
H22 H 0.45213 0.07514 0.28724 0.0
Cu23 Cu 0.38412 0.57955 0.68386 0.0
N24 N 0.43348 0.61894 0.67812 0.0
N25 N 0.48315 0.67314 0.6943 0.0
C26 C 0.44725 0.64725 0.70705 0.0
C27 C 0.4924 0.66046 0.65557 0.0
C28 C 0.46168 0.62666 0.64588 0.0
O29 O 0.34905 0.58659 0.64206 0.0
C30 C 0.37567 0.55949 0.77869 0.0
O31 O 0.38012 0.53154 0.76464 0.0
H32 H 0.42994 0.64979 0.73521 0.0
H33 H 0.45943 0.60952 0.61667 0.0
N34 N 0.3895 0.5393 0.66536 0.0
N35 N 0.42317 0.50884 0.65025 0.0
C36 C 0.42038 0.53399 0.6771 0.0
C37 C 0.37223 0.5168 0.62951 0.0
C38 C 0.39299 0.49781 0.62018 0.0
C39 C 0.31487 0.56132 0.63314 0.0
O40 O 0.30084 0.5313 0.65745 0.0
H41 H 0.44258 0.55081 0.70179 0.0
H42 H 0.34859 0.51642 0.6088 0.0
O43 O 0.37117 0.57973 0.74892 0.0
H44 H 0.51858 0.67515 0.63475 0.0
H45 H 0.38788 0.47918 0.59177 0.0
Cu46 Cu 0.84267 0.41 1.0042 0.0
N47 N 0.84286 0.39385 0.06415 0.0
N48 N 0.83656 0.39418 0.14085 0.0
C49 C 0.84597 0.41402 0.10182 0.0
C50 C 0.82769 0.36018 0.12721 0.0
C51 C 0.83155 0.36004 0.07977 0.0
O52 O 0.89809 0.44019 0.98796 0.0
C53 C 0.77671 0.41477 1.03005 0.0
O54 O 0.76653 0.38043 1.03746 0.0
H55 H 0.85186 0.44208 0.10009 0.0
H56 H 0.82418 0.33657 0.0581 0.0
N57 N 0.82042 0.37049 0.96324 0.0
N58 N 0.78188 0.32928 0.91132 0.0
C59 C 0.78879 0.35979 0.93508 0.0
C60 C 0.83408 0.34623 0.95665 0.0
C61 C 0.81045 0.32084 0.92493 0.0
C62 C 0.91806 0.47392 0.99636 0.0
O63 O 0.90014 0.49178 1.01342 0.0
H64 H 0.77086 0.3737 0.93268 0.0
H65 H 0.85952 0.34697 0.97394 0.0
O66 O 0.80965 0.4344 1.01025 0.0
H67 H 0.81777 0.33683 0.14964 0.0
H68 H 0.81432 0.29809 0.91248 0.0
Cu69 Cu 0.41754 0.82705 0.34603 0.0
N70 N 0.36729 0.82255 0.33729 0.0
N71 N 0.30334 0.80447 0.34961 0.0
C72 C 0.33654 0.80477 0.36563 0.0
C73 C 0.3133 0.82223 0.30898 0.0
C74 C 0.35314 0.83385 0.30172 0.0
O75 O 0.42112 0.78894 0.30955 0.0
C76 C 0.41238 0.83783 0.442 0.0
O77 O 0.39901 0.85993 0.42715 0.0
H78 H 0.33796 0.79044 0.39616 0.0
H79 H 0.37026 0.84832 0.27193 0.0
N80 N 0.45331 0.87257 0.32391 0.0
N81 N 0.47971 0.93206 0.31094 0.0
C82 C 0.45921 0.90492 0.34073 0.0
C83 C 0.4709 0.87959 0.28217 0.0
C84 C 0.48718 0.91632 0.27402 0.0
C85 C 0.45323 0.78705 0.30389 0.0
O86 O 0.48528 0.811 0.3246 0.0
H87 H 0.44604 0.90826 0.37229 0.0
H88 H 0.46958 0.85916 0.25803 0.0
O89 O 0.42382 0.82172 0.41248 0.0
H90 H 0.293 0.82534 0.28558 0.0
H91 H 0.50173 0.93016 0.24261 0.0
Cu92 Cu 0.61227 0.42958 0.68015 0.0
N93 N 0.5658 0.38673 0.678 0.0
N94 N 0.52055 0.33221 0.70083 0.0
C95 C 0.55628 0.36024 0.70908 0.0
C96 C 0.50705 0.34143 0.66263 0.0
C97 C 0.53503 0.37546 0.64883 0.0
O98 O 0.64946 0.42543 0.63847 0.0
C99 C 0.62056 0.45365 0.7737 0.0
O100 O 0.61303 0.4795 0.75838 0.0
H101 H 0.57613 0.36096 0.73612 0.0
H102 H 0.53331 0.39069 0.61946 0.0
N103 N 0.60029 0.46545 0.65943 0.0
N104 N 0.56094 0.49026 0.64474 0.0
C105 C 0.56794 0.46801 0.67247 0.0
C106 C 0.61411 0.48663 0.62177 0.0
C107 C 0.58984 0.50216 0.61271 0.0
C108 C 0.68185 0.45255 0.62776 0.0
O109 O 0.69272 0.48342 0.64968 0.0
H110 H 0.54809 0.45147 0.69936 0.0
H111 H 0.63812 0.48852 0.60021 0.0
O112 O 0.62716 0.43385 0.74493 0.0
H113 H 0.47943 0.32456 0.64544 0.0
H114 H 0.5921 0.51936 0.58367 0.0
Cu115 Cu 0.16469 0.60901 1.00328 0.0
N116 N 0.16486 0.62386 0.06417 0.0
N117 N 0.17114 0.62166 0.14065 0.0
C118 C 0.16193 0.60283 0.1007 0.0
C119 C 0.17977 0.65593 0.12878 0.0
C120 C 0.17595 0.65722 0.08148 0.0
O121 O 0.10932 0.57805 0.9878 0.0
C122 C 0.23219 0.60617 1.02523 0.0
O123 O 0.24193 0.64058 1.03145 0.0
H124 H 0.15613 0.57486 0.09744 0.0
H125 H 0.18306 0.68117 0.06103 0.0
N126 N 0.18466 0.64917 0.96337 0.0
N127 N 0.21708 0.68965 0.90778 0.0
C128 C 0.21394 0.66033 0.9315 0.0
C129 C 0.16907 0.67218 0.95968 0.0
C130 C 0.1889 0.69708 0.92575 0.0
C131 C 0.08946 0.5444 0.99663 0.0
O132 O 0.10745 0.52682 1.01403 0.0
H133 H 0.23182 0.64676 0.92509 0.0
H134 H 0.14455 0.67063 0.98008 0.0
O135 O 0.19892 0.58575 1.0068 0.0
H136 H 0.18934 0.67867 0.15232 0.0
H137 H 0.18308 0.71914 0.91533 0.0
Cu138 Cu 0.80989 0.41777 0.41971 0.0
N139 N 0.81364 0.37566 0.43078 0.0
N140 N 0.80405 0.31917 0.41945 0.0
C141 C 0.80085 0.34755 0.40151 0.0
C142 C 0.81977 0.33003 0.46187 0.0
C143 C 0.8261 0.36523 0.46859 0.0
O144 O 0.76722 0.41677 0.45649 0.0
C145 C 0.8257 0.44063 0.32509 0.0
O146 O 0.85453 0.47094 0.34064 0.0
H147 H 0.78639 0.34691 0.36915 0.0
H148 H 0.83711 0.38139 0.49954 0.0
N149 N 0.85676 0.45557 0.43963 0.0
N150 N 0.92111 0.48474 0.45342 0.0
C151 C 0.89261 0.46089 0.42596 0.0
C152 C 0.86276 0.47657 0.4773 0.0
C153 C 0.90265 0.4948 0.48581 0.0
C154 C 0.76326 0.44516 0.46293 0.0
O155 O 0.78515 0.47447 0.43899 0.0
H156 H 0.89737 0.44531 0.39885 0.0
H157 H 0.83979 0.47659 0.49919 0.0
O158 O 0.80186 0.41765 0.3535 0.0
H159 H 0.82417 0.31309 0.48712 0.0
H160 H 0.9168 0.51255 0.51478 0.0
Cu161 Cu 0.40362 0.82548 0.73383 0.0
N162 N 0.45248 0.82646 0.74161 0.0
N163 N 0.49618 0.80496 0.74512 0.0
C164 C 0.45849 0.79809 0.75278 0.0
C165 C 0.51474 0.83914 0.72896 0.0
C166 C 0.48774 0.85246 0.72716 0.0
O167 O 0.36306 0.78461 0.76793 0.0
C168 C 0.40559 0.80817 0.63889 0.0
O169 O 0.42044 0.78751 0.65486 0.0
H170 H 0.4347 0.77154 0.76077 0.0
H171 H 0.49267 0.87795 0.71213 0.0
N172 N 0.40798 0.86829 0.75908 0.0
N173 N 0.43667 0.92711 0.77684 0.0
C174 C 0.43398 0.90185 0.74576 0.0
C175 C 0.39308 0.87239 0.79956 0.0
C176 C 0.41073 0.90873 0.81063 0.0
C177 C 0.32751 0.77949 0.76912 0.0
O178 O 0.31785 0.80043 0.74394 0.0
H179 H 0.45283 0.90732 0.71577 0.0
H180 H 0.37287 0.85034 0.821 0.0
O181 O 0.39412 0.8249 0.66739 0.0
H182 H 0.54453 0.85219 0.71538 0.0
H183 H 0.40628 0.92046 0.84214 0.0
Cu184 Cu 0.57718 0.42084 0.09399 0.0
N185 N 0.56257 0.40209 1.03484 0.0
N186 N 0.56976 0.40236 0.95819 0.0
C187 C 0.57692 0.42256 0.99683 0.0
C188 C 0.54983 0.36762 0.97249 0.0
C189 C 0.54555 0.36753 1.01997 0.0
O190 O 0.55419 0.45365 0.10501 0.0
C191 C 0.65935 0.44353 0.11638 0.0
O192 O 0.64818 0.43213 0.15875 0.0
H193 H 0.59498 0.45164 0.99804 0.0
H194 H 0.53311 0.34403 1.04223 0.0
N195 N 0.55801 0.38361 0.13845 0.0
N196 N 0.55138 0.33994 0.18849 0.0
C197 C 0.5733 0.36203 0.15386 0.0
C198 C 0.52519 0.37449 0.16373 0.0
C199 C 0.521 0.34773 0.19445 0.0
C200 C 0.56946 0.4859 0.08951 0.0
O201 O 0.60365 0.49879 0.06812 0.0
H202 H 0.60006 0.36271 0.14021 0.0
H203 H 0.50605 0.38711 0.1607 0.0
O204 O 0.63446 0.44471 0.08833 0.0
H205 H 0.54018 0.34397 0.95051 0.0
H206 H 0.49806 0.3359 0.22032 0.0
Cu207 Cu 0.19026 0.58905 0.41835 0.0
N208 N 0.18043 0.62786 0.43084 0.0
N209 N 0.18414 0.68252 0.42148 0.0
C210 C 0.18938 0.65561 0.40186 0.0
C211 C 0.17094 0.67095 0.46466 0.0
C212 C 0.16827 0.63689 0.47019 0.0
O213 O 0.23345 0.59371 0.45689 0.0
C214 C 0.17873 0.57003 0.32238 0.0
O215 O 0.14981 0.53899 0.33581 0.0
H216 H 0.20324 0.65756 0.36857 0.0
H217 H 0.16053 0.62091 0.50147 0.0
N218 N 0.14527 0.54769 0.43533 0.0
N219 N 0.08121 0.51412 0.44865 0.0
C220 C 0.10865 0.54075 0.42298 0.0
C221 C 0.14083 0.52477 0.47027 0.0
C222 C 0.10116 0.50386 0.47848 0.0
C223 C 0.24154 0.56755 0.46202 0.0
O224 O 0.22426 0.53884 0.43539 0.0
H225 H 0.10241 0.5572 0.39868 0.0
H226 H 0.16447 0.52521 0.49108 0.0
O227 O 0.20135 0.59216 0.35245 0.0
H228 H 0.16636 0.687 0.49126 0.0
H229 H 0.08807 0.48431 0.50599 0.0
Cu230 Cu 0.59754 0.17741 0.74617 0.0
N231 N 0.5511 0.17986 0.7606 0.0
N232 N 0.50985 0.20404 0.76671 0.0
C233 C 0.54761 0.20995 0.76971 0.0
C234 C 0.48857 0.16867 0.75624 0.0
C235 C 0.51404 0.15375 0.75288 0.0
O236 O 0.64257 0.21312 0.78121 0.0
C237 C 0.59268 0.19807 0.65299 0.0
O238 O 0.57966 0.21926 0.67202 0.0
H239 H 0.57259 0.23656 0.77251 0.0
H240 H 0.50635 0.12666 0.7411 0.0
N241 N 0.59016 0.13225 0.76596 0.0
N242 N 0.55916 0.07281 0.77959 0.0
C243 C 0.56234 0.09977 0.75133 0.0
C244 C 0.60577 0.1256 0.80409 0.0
C245 C 0.58669 0.08891 0.81263 0.0
C246 C 0.65867 0.24763 0.78006 0.0
O247 O 0.64613 0.26384 0.75039 0.0
H248 H 0.54291 0.09631 0.72256 0.0
H249 H 0.62773 0.14624 0.82575 0.0
O250 O 0.60414 0.17994 0.6789 0.0
H251 H 0.45759 0.15554 0.74716 0.0
H252 H 0.59153 0.07537 0.84195 0.0
Cu253 Cu 0.42493 0.59231 0.09756 0.0
N254 N 0.43645 0.6126 1.03891 0.0
N255 N 0.4271 0.61237 0.96271 0.0
C256 C 0.42192 0.59218 1.0009 0.0
C257 C 0.44593 0.64713 0.97744 0.0
C258 C 0.45151 0.64719 1.02467 0.0
O259 O 0.44844 0.55922 0.10197 0.0
C260 C 0.34521 0.57611 0.12013 0.0
O261 O 0.35912 0.59395 0.15883 0.0
H262 H 0.40545 0.56293 1.00202 0.0
H263 H 0.46381 0.67059 1.04721 0.0
N264 N 0.44593 0.62758 0.1446 0.0
N265 N 0.45936 0.67353 0.19402 0.0
C266 C 0.43876 0.65563 0.15608 0.0
C267 C 0.47193 0.62807 0.17619 0.0
C268 C 0.4803 0.65621 0.20644 0.0
C269 C 0.48492 0.57206 0.09143 0.0
O270 O 0.50409 0.60621 0.07888 0.0
H271 H 0.41863 0.6625 0.13737 0.0
H272 H 0.48347 0.60873 0.17771 0.0
O273 O 0.36741 0.56773 0.09545 0.0
H274 H 0.4542 0.6708 0.95597 0.0
H275 H 0.49938 0.66265 0.23628 0.0
C276 C 0.59393 0.15951 0.53413 0.0
C277 C 0.57983 0.17841 0.50563 0.0
H278 H 0.60948 0.15106 0.60239 0.0
C279 C 0.57142 0.20488 0.52585 0.0
H280 H 0.60099 0.13908 0.51983 0.0
C281 C 0.5764 0.21181 0.57348 0.0
C282 C 0.59007 0.19255 0.60202 0.0
H283 H 0.56071 0.22008 0.50497 0.0
H284 H 0.5691 0.23203 0.588 0.0
C285 C 0.59904 0.16651 0.5816 0.0
C286 C 0.39036 0.60642 0.84082 0.0
C287 C 0.38466 0.57177 0.82737 0.0
H288 H 0.40842 0.64661 0.8943 0.0
C289 C 0.39216 0.55053 0.85961 0.0
H290 H 0.38514 0.62365 0.81675 0.0
C291 C 0.40599 0.56389 0.90374 0.0
C292 C 0.41262 0.59884 0.91698 0.0
H293 H 0.38842 0.52385 0.8504 0.0
H294 H 0.41243 0.54705 0.92709 0.0
C295 C 0.40426 0.61983 0.88511 0.0
C296 C 0.85293 0.45405 0.24446 0.0
C297 C 0.8256 0.42988 0.27617 0.0
H298 H 0.87815 0.46146 0.17671 0.0
C299 C 0.80092 0.39406 0.26194 0.0
H300 H 0.8725 0.48177 0.2543 0.0
C301 C 0.80447 0.38237 0.21765 0.0
C302 C 0.83252 0.40628 0.18638 0.0
H303 H 0.77954 0.37464 0.28543 0.0
H304 H 0.78519 0.3546 0.2079 0.0
C305 C 0.85624 0.44241 0.20001 0.0
C306 C 0.42305 0.8052 0.50965 0.0
C307 C 0.41091 0.83001 0.49231 0.0
H308 H 0.43059 0.77861 0.56928 0.0
C309 C 0.39601 0.84678 0.52354 0.0
H310 H 0.43446 0.79163 0.48663 0.0
C311 C 0.39354 0.83918 0.57084 0.0
C312 C 0.40594 0.81461 0.5883 0.0
H313 H 0.38616 0.86592 0.5115 0.0
H314 H 0.38225 0.8529 0.59377 0.0
C315 C 0.42062 0.79761 0.55708 0.0
C316 C 0.59034 0.45037 0.89896 0.0
C317 C 0.58416 0.41567 0.91243 0.0
H318 H 0.60723 0.4898 0.84501 0.0
C319 C 0.59303 0.39468 0.88085 0.0
H320 H 0.58363 0.46716 0.92235 0.0
C321 C 0.60699 0.40783 0.83655 0.0
C322 C 0.61199 0.44213 0.82264 0.0
H323 H 0.58926 0.36812 0.89038 0.0
H324 H 0.61267 0.3906 0.81277 0.0
C325 C 0.60397 0.4634 0.8546 0.0
C326 C 0.15395 0.55884 0.24082 0.0
C327 C 0.18001 0.58232 0.27407 0.0
H328 H 0.13031 0.55309 0.17263 0.0
C329 C 0.20427 0.61873 0.26198 0.0
H330 H 0.13473 0.5307 0.24898 0.0
C331 C 0.20149 0.63161 0.21827 0.0
C332 C 0.17462 0.60836 0.18549 0.0
H333 H 0.22464 0.63764 0.28673 0.0
H334 H 0.22039 0.65981 0.21021 0.0
C335 C 0.15137 0.57169 0.19703 0.0
C336 C 0.75854 0.25496 0.43235 0.0
C337 C 0.78272 0.28281 0.40228 0.0
H338 H 0.70531 0.20513 0.43896 0.0
C339 C 0.77812 0.27683 0.35435 0.0
H340 H 0.76151 0.25872 0.4694 0.0
C341 C 0.74591 0.24617 0.33697 0.0
C342 C 0.71806 0.2213 0.36745 0.0
H343 H 0.79689 0.29778 0.33054 0.0
H344 H 0.74029 0.24429 0.30018 0.0
C345 C 0.72628 0.22438 0.41497 0.0
C346 C 0.52099 0.77268 0.69441 0.0
C347 C 0.50775 0.77708 0.73816 0.0
H348 H 0.52348 0.73507 0.64565 0.0
C349 C 0.49669 0.74927 0.77074 0.0
H350 H 0.5295 0.79381 0.66867 0.0
C351 C 0.49371 0.71581 0.75781 0.0
C352 C 0.50091 0.70957 0.71182 0.0
H353 H 0.48669 0.75238 0.80474 0.0
H354 H 0.48186 0.69375 0.78241 0.0
C355 C 0.51751 0.73899 0.68122 0.0
C356 C 0.70745 0.4553 0.05096 0.0
C357 C 0.69623 0.44493 0.09725 0.0
H358 H 0.74264 0.45439 0.99311 0.0
C359 C 0.71672 0.43013 0.12247 0.0
H360 H 0.69231 0.46684 1.03053 0.0
C361 C 0.74495 0.42268 0.10082 0.0
C362 C 0.75393 0.43051 0.05379 0.0
H363 H 0.70901 0.42183 0.15804 0.0
H364 H 0.75841 0.40907 0.12033 0.0
C365 C 0.73628 0.4483 1.02945 0.0
C366 C 0.23559 0.75675 0.33847 0.0
C367 C 0.26475 0.7817 0.36762 0.0
H368 H 0.18526 0.70451 0.33387 0.0
C369 C 0.25928 0.77804 0.41566 0.0
H370 H 0.23919 0.75909 0.30132 0.0
C371 C 0.22846 0.74698 0.43427 0.0
C372 C 0.20309 0.71913 0.40489 0.0
H373 H 0.28134 0.79733 0.43864 0.0
H374 H 0.22772 0.74284 0.47122 0.0
C375 C 0.20488 0.72553 0.35708 0.0
C376 C 0.51684 0.29548 0.76871 0.0
C377 C 0.50536 0.29757 0.72317 0.0
H378 H 0.52707 0.26285 0.81867 0.0
C379 C 0.48561 0.26555 0.69739 0.0
H380 H 0.5311 0.31961 0.78984 0.0
C381 C 0.4825 0.23296 0.71447 0.0
C382 C 0.49927 0.23221 0.75731 0.0
H383 H 0.47633 0.26628 0.6623 0.0
H384 H 0.47107 0.20944 0.69206 0.0
C385 C 0.51422 0.26308 0.78546 0.0
C386 C 0.271 0.57099 1.02937 0.0
C387 C 0.25455 0.5911 0.05106 0.0
H388 H 0.31279 0.55003 1.03451 0.0
C389 C 0.26339 0.60092 0.09766 0.0
H390 H 0.26462 0.5632 0.99344 0.0
C391 C 0.29027 0.59304 0.12139 0.0
C392 C 0.30958 0.57569 0.0988 0.0
H393 H 0.2507 0.61617 0.11528 0.0
H394 H 0.29772 0.60268 0.15657 0.0
C395 C 0.29852 0.56348 0.05301 0.0
C396 C 0.50236 0.02267 0.36133 0.0
C397 C 0.49508 0.03982 0.32353 0.0
H398 H 0.50261 0.97433 0.38687 0.0
C399 C 0.4835 0.02128 0.28127 0.0
H400 H 0.51123 0.03646 0.39426 0.0
C401 C 0.47946 0.98624 0.2768 0.0
C402 C 0.48608 0.96884 0.3148 0.0
H403 H 0.47809 0.0341 0.25156 0.0
H404 H 0.47026 0.97238 0.24395 0.0
C405 C 0.49739 0.98728 0.35716 0.0
C406 C 0.47287 0.49959 0.60593 0.0
C407 C 0.4565 0.50187 0.64852 0.0
H408 H 0.51992 0.49471 0.5714 0.0
C409 C 0.47501 0.50045 0.68964 0.0
H410 H 0.45934 0.50121 0.57381 0.0
C411 C 0.50951 0.49692 0.68827 0.0
C412 C 0.52628 0.49522 0.64575 0.0
H413 H 0.4628 0.50228 0.72278 0.0
H414 H 0.52342 0.49594 0.7204 0.0
C415 C 0.50775 0.49654 0.60454 0.0
C416 C 0.98256 0.47128 0.99149 0.0
C417 C 0.96185 0.49191 0.99187 0.0
H418 H 0.03893 0.47157 0.99316 0.0
C419 C 0.98359 0.5299 0.99093 0.0
H420 H 0.96678 0.44196 0.99242 0.0
C421 C 0.02498 0.54685 0.99055 0.0
C422 C 0.04569 0.52626 0.99207 0.0
H423 H 0.96861 0.54659 0.99112 0.0
H424 H 0.04073 0.57619 0.9907 0.0
C425 C 0.02395 0.48825 0.99208 0.0
C426 C 0.02008 0.50268 0.40874 0.0
C427 C 0.04023 0.50484 0.44994 0.0
H428 H 0.96576 0.4946 0.37781 0.0
C429 C 0.02081 0.50059 0.49242 0.0
H430 H 0.03473 0.506 0.3757 0.0
C431 C 0.98184 0.49475 0.49366 0.0
C432 C 0.96168 0.49255 0.45241 0.0
H433 H 0.03609 0.50275 0.52461 0.0
H434 H 0.96727 0.49139 0.52673 0.0
C435 C 0.98094 0.49626 0.40995 0.0
C436 C 0.51348 0.01696 0.82027 0.0
C437 C 0.52843 0.03593 0.77882 0.0
H438 H 0.4723 0.96756 0.85215 0.0
C439 C 0.51184 0.01886 0.73677 0.0
H440 H 0.52519 0.02957 0.85326 0.0
C441 C 0.48128 0.98338 0.73616 0.0
C442 C 0.46642 0.96439 0.77761 0.0
H443 H 0.52282 0.03284 0.70433 0.0
H444 H 0.46919 0.97076 0.70326 0.0
C445 C 0.48271 0.98163 0.81968 0.0
C446 C 0.54568 0.56469 0.07778 0.0
C447 C 0.50615 0.54965 0.09267 0.0
H448 H 0.59638 0.5567 0.06532 0.0
C449 C 0.48781 0.51352 0.10812 0.0
H450 H 0.56092 0.59242 0.06571 0.0
C451 C 0.50848 0.49291 0.10813 0.0
C452 C 0.54786 0.50794 0.09247 0.0
H453 H 0.45747 0.5011 0.11994 0.0
H454 H 0.4934 0.46505 0.11973 0.0
C455 C 0.56616 0.54415 0.07758 0.0
C456 C 0.60667 0.29764 0.25044 0.0
C457 C 0.5761 0.26868 0.27409 0.0
H458 H 0.62295 0.34287 0.20492 0.0
C459 C 0.53717 0.26305 0.26793 0.0
H460 H 0.63704 0.30282 0.25419 0.0
C461 C 0.52909 0.28599 0.23936 0.0
C462 C 0.55968 0.31519 0.21605 0.0
H463 H 0.51284 0.2409 0.28523 0.0
H464 H 0.49872 0.28069 0.2354 0.0
C465 C 0.59857 0.32052 0.22177 0.0
C466 C 0.25373 0.53253 0.52426 0.0
C467 C 0.26224 0.5661 0.50429 0.0
H468 H 0.26275 0.50475 0.58149 0.0
C469 C 0.2875 0.59814 0.52756 0.0
H470 H 0.23387 0.50739 0.50746 0.0
C471 C 0.30418 0.59662 0.56986 0.0
C472 C 0.29517 0.56304 0.59016 0.0
H473 H 0.29429 0.62437 0.5131 0.0
H474 H 0.32397 0.62172 0.58682 0.0
C475 C 0.26973 0.53102 0.56701 0.0
C476 C 0.73647 0.27153 0.87351 0.0
C477 C 0.75056 0.30913 0.87882 0.0
H478 H 0.6968 0.2229 0.83869 0.0
C479 C 0.73406 0.32649 0.85124 0.0
H480 H 0.74802 0.25714 0.89455 0.0
C481 C 0.70458 0.30675 0.81876 0.0
C482 C 0.69061 0.26912 0.81351 0.0
H483 H 0.74441 0.35541 0.8542 0.0
H484 H 0.6926 0.32096 0.79797 0.0
C485 C 0.70688 0.25182 0.84149 0.0
C486 C 0.42343 0.70717 0.22083 0.0
C487 C 0.45813 0.70331 0.21876 0.0
H488 H 0.39436 0.73626 0.2497 0.0
C489 C 0.4913 0.72788 0.24373 0.0
H490 H 0.39728 0.68853 0.20235 0.0
C491 C 0.48968 0.7551 0.27082 0.0
C492 C 0.45476 0.75847 0.27398 0.0
H493 H 0.51864 0.72601 0.24245 0.0
H494 H 0.51582 0.77326 0.28973 0.0
C495 C 0.4217 0.73436 0.2483 0.0
C496 C 0.73015 0.4826 0.5638 0.0
C497 C 0.70336 0.45072 0.58616 0.0
H498 H 0.76931 0.50585 0.50653 0.0
C499 C 0.6952 0.41703 0.56657 0.0
H500 H 0.73665 0.50897 0.57774 0.0
C501 C 0.71387 0.41524 0.5258 0.0
C502 C 0.74068 0.4471 0.50343 0.0
H503 H 0.67449 0.39199 0.58284 0.0
H504 H 0.70748 0.38887 0.51194 0.0
C505 C 0.74843 0.48081 0.52266 0.0
C506 C 0.233 0.72763 0.83755 0.0
C507 C 0.24397 0.70925 0.87067 0.0
H508 H 0.2502 0.7635 0.77971 0.0
C509 C 0.28206 0.71196 0.86793 0.0
H510 H 0.2037 0.72558 0.83785 0.0
C511 C 0.30901 0.73383 0.83412 0.0
C512 C 0.29833 0.75329 0.80217 0.0
H513 H 0.29151 0.69825 0.89291 0.0
H514 H 0.3385 0.73625 0.83384 0.0
C515 C 0.25971 0.74927 0.80387 0.0
loop_
_geom_bond_atom_site_label_1
_geom_bond_atom_site_label_2
_geom_bond_distance
_geom_bond_site_symmetry_2
_ccdc_geom_bond_type
Cu0 N1 1.999 . S
Cu0 O6 1.974 . S
Cu0 N11 1.985 . S
Cu0 O20 1.959 . S
N1 Cu0 1.999 . S
N1 C3 1.263 . S
N1 C5 1.389 . S
N2 C3 1.358 . S
N2 C4 1.400 . S
C3 N1 1.263 . S
C3 N2 1.358 . S
C3 H9 0.930 . S
C4 N2 1.400 . S
C4 C5 1.351 . S
C4 H21 0.930 . S
C5 N1 1.389 . S
C5 C4 1.351 . S
C5 H10 0.930 . S
O6 Cu0 1.974 . S
O6 C16 1.282 . S
C7 O8 1.261 . S
C7 O20 1.251 . S
O8 C7 1.261 . S
H9 C3 0.930 . S
H10 C5 0.930 . S
N11 Cu0 1.985 . S
N11 C13 1.335 . S
N11 C14 1.390 . S
N12 C13 1.345 . S
N12 C15 1.336 . S
C13 N11 1.335 . S
C13 N12 1.345 . S
C13 H18 0.930 . S
C14 N11 1.390 . S
C14 C15 1.346 . S
C14 H19 0.930 . S
C15 N12 1.336 . S
C15 C14 1.346 . S
C15 H22 0.929 . S
C16 O6 1.282 . S
C16 O17 1.216 . S
O17 C16 1.216 . S
H18 C13 0.930 . S
H19 C14 0.930 . S
O20 Cu0 1.959 . S
O20 C7 1.251 . S
H21 C4 0.930 . S
H22 C15 0.929 . S
Cu23 N24 1.999 . S
Cu23 O29 1.974 . S
Cu23 N34 1.985 . S
Cu23 O43 1.959 . S
N24 Cu23 1.999 . S
N24 C26 1.263 . S
N24 C28 1.389 . S
N25 C26 1.358 . S
N25 C27 1.400 . S
C26 N24 1.263 . S
C26 N25 1.358 . S
C26 H32 0.930 . S
C27 N25 1.400 . S
C27 C28 1.351 . S
C27 H44 0.930 . S
C28 N24 1.389 . S
C28 C27 1.351 . S
C28 H33 0.930 . S
O29 Cu23 1.974 . S
O29 C39 1.282 . S
C30 O31 1.261 . S
C30 O43 1.251 . S
O31 C30 1.261 . S
H32 C26 0.930 . S
H33 C28 0.930 . S
N34 Cu23 1.985 . S
N34 C36 1.335 . S
N34 C37 1.390 . S
N35 C36 1.345 . S
N35 C38 1.336 . S
C36 N34 1.335 . S
C36 N35 1.345 . S
C36 H41 0.930 . S
C37 N34 1.390 . S
C37 C38 1.346 . S
C37 H42 0.930 . S
C38 N35 1.336 . S
C38 C37 1.346 . S
C38 H45 0.929 . S
C39 O29 1.282 . S
C39 O40 1.216 . S
O40 C39 1.216 . S
H41 C36 0.930 . S
H42 C37 0.930 . S
O43 Cu23 1.959 . S
O43 C30 1.251 . S
H44 C27 0.930 . S
H45 C38 0.929 . S
Cu46 N47 1.999 . S
Cu46 O52 1.974 . S
Cu46 N57 1.985 1_554 S
Cu46 O66 1.959 . S
N47 Cu46 1.999 . S
N47 C49 1.263 . S
N47 C51 1.389 . S
N48 C49 1.358 . S
N48 C50 1.400 . S
C49 N47 1.263 . S
C49 N48 1.358 . S
C49 H55 0.930 . S
C50 N48 1.400 . S
C50 C51 1.351 . S
C50 H67 0.930 . S
C51 N47 1.389 . S
C51 C50 1.351 . S
C51 H56 0.930 . S
O52 Cu46 1.974 . S
O52 C62 1.282 1_554 S
C53 O54 1.261 . S
C53 O66 1.251 1_556 S
O54 C53 1.261 . S
H55 C49 0.930 . S
H56 C51 0.930 . S
N57 Cu46 1.985 1_556 S
N57 C59 1.335 . S
N57 C60 1.390 . S
N58 C59 1.345 . S
N58 C61 1.336 . S
C59 N57 1.335 . S
C59 N58 1.345 . S
C59 H64 0.930 . S
C60 N57 1.390 . S
C60 C61 1.346 . S
C60 H65 0.930 . S
C61 N58 1.336 . S
C61 C60 1.346 . S
C61 H68 0.929 . S
C62 O52 1.282 1_556 S
C62 O63 1.216 . S
O63 C62 1.216 . S
H64 C59 0.930 . S
H65 C60 0.930 . S
O66 Cu46 1.959 . S
O66 C53 1.251 1_554 S
H67 C50 0.930 . S
H68 C61 0.929 . S
Cu69 N70 1.999 . S
Cu69 O75 1.974 . S
Cu69 N80 1.985 . S
Cu69 O89 1.959 . S
N70 Cu69 1.999 . S
N70 C72 1.263 . S
N70 C74 1.389 . S
N71 C72 1.358 . S
N71 C73 1.400 . S
C72 N70 1.263 . S
C72 N71 1.358 . S
C72 H78 0.930 . S
C73 N71 1.400 . S
C73 C74 1.351 . S
C73 H90 0.930 . S
C74 N70 1.389 . S
C74 C73 1.351 . S
C74 H79 0.930 . S
O75 Cu69 1.974 . S
O75 C85 1.282 . S
C76 O77 1.261 . S
C76 O89 1.251 . S
O77 C76 1.261 . S
H78 C72 0.930 . S
H79 C74 0.930 . S
N80 Cu69 1.985 . S
N80 C82 1.335 . S
N80 C83 1.390 . S
N81 C82 1.345 . S
N81 C84 1.336 . S
C82 N80 1.335 . S
C82 N81 1.345 . S
C82 H87 0.930 . S
C83 N80 1.390 . S
C83 C84 1.346 . S
C83 H88 0.930 . S
C84 N81 1.336 . S
C84 C83 1.346 . S
C84 H91 0.929 . S
C85 O75 1.282 . S
C85 O86 1.216 . S
O86 C85 1.216 . S
H87 C82 0.930 . S
H88 C83 0.930 . S
O89 Cu69 1.959 . S
O89 C76 1.251 . S
H90 C73 0.930 . S
H91 C84 0.929 . S
Cu92 N93 1.999 . S
Cu92 O98 1.974 . S
Cu92 N103 1.985 . S
Cu92 O112 1.959 . S
N93 Cu92 1.999 . S
N93 C95 1.263 . S
N93 C97 1.389 . S
N94 C95 1.358 . S
N94 C96 1.400 . S
C95 N93 1.263 . S
C95 N94 1.358 . S
C95 H101 0.930 . S
C96 N94 1.400 . S
C96 C97 1.351 . S
C96 H113 0.930 . S
C97 N93 1.389 . S
C97 C96 1.351 . S
C97 H102 0.930 . S
O98 Cu92 1.974 . S
O98 C108 1.282 . S
C99 O100 1.261 . S
C99 O112 1.251 . S
O100 C99 1.261 . S
H101 C95 0.930 . S
H102 C97 0.930 . S
N103 Cu92 1.985 . S
N103 C105 1.335 . S
N103 C106 1.390 . S
N104 C105 1.345 . S
N104 C107 1.336 . S
C105 N103 1.335 . S
C105 N104 1.345 . S
C105 H110 0.930 . S
C106 N103 1.390 . S
C106 C107 1.346 . S
C106 H111 0.930 . S
C107 N104 1.336 . S
C107 C106 1.346 . S
C107 H114 0.929 . S
C108 O98 1.282 . S
C108 O109 1.216 . S
O109 C108 1.216 . S
H110 C105 0.930 . S
H111 C106 0.930 . S
O112 Cu92 1.959 . S
O112 C99 1.251 . S
H113 C96 0.930 . S
H114 C107 0.929 . S
Cu115 N116 1.999 . S
Cu115 O121 1.974 . S
Cu115 N126 1.985 1_554 S
Cu115 O135 1.959 . S
N116 Cu115 1.999 . S
N116 C118 1.263 . S
N116 C120 1.389 . S
N117 C118 1.358 . S
N117 C119 1.400 . S
C118 N116 1.263 . S
C118 N117 1.358 . S
C118 H124 0.930 . S
C119 N117 1.400 . S
C119 C120 1.351 . S
C119 H136 0.930 . S
C120 N116 1.389 . S
C120 C119 1.351 . S
C120 H125 0.930 . S
O121 Cu115 1.974 . S
O121 C131 1.282 1_554 S
C122 O123 1.261 . S
C122 O135 1.251 1_556 S
O123 C122 1.261 . S
H124 C118 0.930 . S
H125 C120 0.930 . S
N126 Cu115 1.985 1_556 S
N126 C128 1.335 . S
N126 C129 1.390 . S
N127 C128 1.345 . S
N127 C130 1.336 . S
C128 N126 1.335 . S
C128 N127 1.345 . S
C128 H133 0.930 . S
C129 N126 1.390 . S
C129 C130 1.346 . S
C129 H134 0.930 . S
C130 N127 1.336 . S
C130 C129 1.346 . S
C130 H137 0.929 . S
C131 O121 1.282 1_556 S
C131 O132 1.216 . S
O132 C131 1.216 . S
H133 C128 0.930 . S
H134 C129 0.930 . S
O135 Cu115 1.959 . S
O135 C122 1.251 1_554 S
H136 C119 0.930 . S
H137 C130 0.929 . S
Cu138 N139 1.999 . S
Cu138 O144 1.974 . S
Cu138 N149 1.985 . S
Cu138 O158 1.959 . S
N139 Cu138 1.999 . S
N139 C141 1.263 . S
N139 C143 1.389 . S
N140 C141 1.358 . S
N140 C142 1.400 . S
C141 N139 1.263 . S
C141 N140 1.358 . S
C141 H147 0.930 . S
C142 N140 1.400 . S
C142 C143 1.351 . S
C142 H159 0.930 . S
C143 N139 1.389 . S
C143 C142 1.351 . S
C143 H148 0.930 . S
O144 Cu138 1.974 . S
O144 C154 1.282 . S
C145 O146 1.261 . S
C145 O158 1.251 . S
O146 C145 1.261 . S
H147 C141 0.930 . S
H148 C143 0.930 . S
N149 Cu138 1.985 . S
N149 C151 1.335 . S
N149 C152 1.390 . S
N150 C151 1.345 . S
N150 C153 1.336 . S
C151 N149 1.335 . S
C151 N150 1.345 . S
C151 H156 0.930 . S
C152 N149 1.390 . S
C152 C153 1.346 . S
C152 H157 0.930 . S
C153 N150 1.336 . S
C153 C152 1.346 . S
C153 H160 0.929 . S
C154 O144 1.282 . S
C154 O155 1.216 . S
O155 C154 1.216 . S
H156 C151 0.930 . S
H157 C152 0.930 . S
O158 Cu138 1.959 . S
O158 C145 1.251 . S
H159 C142 0.930 . S
H160 C153 0.929 . S
Cu161 N162 1.999 . S
Cu161 O167 1.974 . S
Cu161 N172 1.985 . S
Cu161 O181 1.959 . S
N162 Cu161 1.999 . S
N162 C164 1.263 . S
N162 C166 1.389 . S
N163 C164 1.358 . S
N163 C165 1.400 . S
C164 N162 1.263 . S
C164 N163 1.358 . S
C164 H170 0.930 . S
C165 N163 1.400 . S
C165 C166 1.351 . S
C165 H182 0.930 . S
C166 N162 1.389 . S
C166 C165 1.351 . S
C166 H171 0.930 . S
O167 Cu161 1.974 . S
O167 C177 1.282 . S
C168 O169 1.261 . S
C168 O181 1.251 . S
O169 C168 1.261 . S
H170 C164 0.930 . S
H171 C166 0.930 . S
N172 Cu161 1.985 . S
N172 C174 1.335 . S
N172 C175 1.390 . S
N173 C174 1.345 . S
N173 C176 1.336 . S
C174 N172 1.335 . S
C174 N173 1.345 . S
C174 H179 0.930 . S
C175 N172 1.390 . S
C175 C176 1.346 . S
C175 H180 0.930 . S
C176 N173 1.336 . S
C176 C175 1.346 . S
C176 H183 0.929 . S
C177 O167 1.282 . S
C177 O178 1.216 . S
O178 C177 1.216 . S
H179 C174 0.930 . S
H180 C175 0.930 . S
O181 Cu161 1.959 . S
O181 C168 1.251 . S
H182 C165 0.930 . S
H183 C176 0.929 . S
Cu184 N185 1.999 . S
Cu184 O190 1.974 . S
Cu184 N195 1.985 1_556 S
Cu184 O204 1.959 . S
N185 Cu184 1.999 . S
N185 C187 1.263 . S
N185 C189 1.389 . S
N186 C187 1.358 . S
N186 C188 1.400 . S
C187 N185 1.263 . S
C187 N186 1.358 . S
C187 H193 0.930 . S
C188 N186 1.400 . S
C188 C189 1.351 . S
C188 H205 0.930 . S
C189 N185 1.389 . S
C189 C188 1.351 . S
C189 H194 0.930 . S
O190 Cu184 1.974 . S
O190 C200 1.282 1_556 S
C191 O192 1.261 . S
C191 O204 1.251 1_554 S
O192 C191 1.261 . S
H193 C187 0.930 . S
H194 C189 0.930 . S
N195 Cu184 1.985 1_554 S
N195 C197 1.335 . S
N195 C198 1.390 . S
N196 C197 1.345 . S
N196 C199 1.336 . S
C197 N195 1.335 . S
C197 N196 1.345 . S
C197 H202 0.930 . S
C198 N195 1.390 . S
C198 C199 1.346 . S
C198 H203 0.930 . S
C199 N196 1.336 . S
C199 C198 1.346 . S
C199 H206 0.929 . S
C200 O190 1.282 1_554 S
C200 O201 1.216 . S
O201 C200 1.216 . S
H202 C197 0.930 . S
H203 C198 0.930 . S
O204 Cu184 1.959 . S
O204 C191 1.251 1_556 S
H205 C188 0.930 . S
H206 C199 0.929 . S
Cu207 N208 1.999 . S
Cu207 O213 1.974 . S
Cu207 N218 1.985 . S
Cu207 O227 1.959 . S
N208 Cu207 1.999 . S
N208 C210 1.263 . S
N208 C212 1.389 . S
N209 C210 1.358 . S
N209 C211 1.400 . S
C210 N208 1.263 . S
C210 N209 1.358 . S
C210 H216 0.930 . S
C211 N209 1.400 . S
C211 C212 1.351 . S
C211 H228 0.930 . S
C212 N208 1.389 . S
C212 C211 1.351 . S
C212 H217 0.930 . S
O213 Cu207 1.974 . S
O213 C223 1.282 . S
C214 O215 1.261 . S
C214 O227 1.251 . S
O215 C214 1.261 . S
H216 C210 0.930 . S
H217 C212 0.930 . S
N218 Cu207 1.985 . S
N218 C220 1.335 . S
N218 C221 1.390 . S
N219 C220 1.345 . S
N219 C222 1.336 . S
C220 N218 1.335 . S
C220 N219 1.345 . S
C220 H225 0.930 . S
C221 N218 1.390 . S
C221 C222 1.346 . S
C221 H226 0.930 . S
C222 N219 1.336 . S
C222 C221 1.346 . S
C222 H229 0.929 . S
C223 O213 1.282 . S
C223 O224 1.216 . S
O224 C223 1.216 . S
H225 C220 0.930 . S
H226 C221 0.930 . S
O227 Cu207 1.959 . S
O227 C214 1.251 . S
H228 C211 0.930 . S
H229 C222 0.929 . S
Cu230 N231 1.999 . S
Cu230 O236 1.974 . S
Cu230 N241 1.985 . S
Cu230 O250 1.959 . S
N231 Cu230 1.999 . S
N231 C233 1.263 . S
N231 C235 1.389 . S
N232 C233 1.358 . S
N232 C234 1.400 . S
C233 N231 1.263 . S
C233 N232 1.358 . S
C233 H239 0.930 . S
C234 N232 1.400 . S
C234 C235 1.351 . S
C234 H251 0.930 . S
C235 N231 1.389 . S
C235 C234 1.351 . S
C235 H240 0.930 . S
O236 Cu230 1.974 . S
O236 C246 1.282 . S
C237 O238 1.261 . S
C237 O250 1.251 . S
O238 C237 1.261 . S
H239 C233 0.930 . S
H240 C235 0.930 . S
N241 Cu230 1.985 . S
N241 C243 1.335 . S
N241 C244 1.390 . S
N242 C243 1.345 . S
N242 C245 1.336 . S
C243 N241 1.335 . S
C243 N242 1.345 . S
C243 H248 0.930 . S
C244 N241 1.390 . S
C244 C245 1.346 . S
C244 H249 0.930 . S
C245 N242 1.336 . S
C245 C244 1.346 . S
C245 H252 0.929 . S
C246 O236 1.282 . S
C246 O247 1.216 . S
O247 C246 1.216 . S
H248 C243 0.930 . S
H249 C244 0.930 . S
O250 Cu230 1.959 . S
O250 C237 1.251 . S
H251 C234 0.930 . S
H252 C245 0.929 . S
Cu253 N254 1.999 . S
Cu253 O259 1.974 . S
Cu253 N264 1.985 1_556 S
Cu253 O273 1.959 . S
N254 Cu253 1.999 . S
N254 C256 1.263 . S
N254 C258 1.389 . S
N255 C256 1.358 . S
N255 C257 1.400 . S
C256 N254 1.263 . S
C256 N255 1.358 . S
C256 H262 0.930 . S
C257 N255 1.400 . S
C257 C258 1.351 . S
C257 H274 0.930 . S
C258 N254 1.389 . S
C258 C257 1.351 . S
C258 H263 0.930 . S
O259 Cu253 1.974 . S
O259 C269 1.282 1_556 S
C260 O261 1.261 . S
C260 O273 1.251 1_554 S
O261 C260 1.261 . S
H262 C256 0.930 . S
H263 C258 0.930 . S
N264 Cu253 1.985 1_554 S
N264 C266 1.335 . S
N264 C267 1.390 . S
N265 C266 1.345 . S
N265 C268 1.336 . S
C266 N264 1.335 . S
C266 N265 1.345 . S
C266 H271 0.930 . S
C267 N264 1.390 . S
C267 C268 1.346 . S
C267 H272 0.930 . S
C268 N265 1.336 . S
C268 C267 1.346 . S
C268 H275 0.929 . S
C269 O259 1.282 1_554 S
C269 O270 1.216 . S
O270 C269 1.216 . S
H271 C266 0.930 . S
H272 C267 0.930 . S
O273 Cu253 1.959 . S
O273 C260 1.251 1_556 S
H274 C257 0.930 . S
H275 C268 0.929 . S
C276 C277 1.387 . S
C276 H280 0.950 . S
C276 C285 1.390 . S
C277 C276 1.387 . S
C277 C279 1.387 . S
H278 C285 0.950 . S
C279 C277 1.387 . S
C279 C281 1.390 . S
C279 H283 0.950 . S
H280 C276 0.950 . S
C281 C279 1.390 . S
C281 C282 1.387 . S
C281 H284 0.950 . S
C282 C281 1.387 . S
C282 C285 1.387 . S
H283 C279 0.950 . S
H284 C281 0.950 . S
C285 C276 1.390 . S
C285 H278 0.950 . S
C285 C282 1.387 . S
C286 C287 1.387 . S
C286 H290 0.950 . S
C286 C295 1.390 . S
C287 C286 1.387 . S
C287 C289 1.387 . S
H288 C295 0.950 . S
C289 C287 1.387 . S
C289 C291 1.390 . S
C289 H293 0.950 . S
H290 C286 0.950 . S
C291 C289 1.390 . S
C291 C292 1.387 . S
C291 H294 0.950 . S
C292 C291 1.387 . S
C292 C295 1.387 . S
H293 C289 0.950 . S
H294 C291 0.950 . S
C295 C286 1.390 . S
C295 H288 0.950 . S
C295 C292 1.387 . S
C296 C297 1.387 . S
C296 H300 0.950 . S
C296 C305 1.390 . S
C297 C296 1.387 . S
C297 C299 1.387 . S
H298 C305 0.950 . S
C299 C297 1.387 . S
C299 C301 1.390 . S
C299 H303 0.950 . S
H300 C296 0.950 . S
C301 C299 1.390 . S
C301 C302 1.387 . S
C301 H304 0.950 . S
C302 C301 1.387 . S
C302 C305 1.387 . S
H303 C299 0.950 . S
H304 C301 0.950 . S
C305 C296 1.390 . S
C305 H298 0.950 . S
C305 C302 1.387 . S
C306 C307 1.387 . S
C306 H310 0.950 . S
C306 C315 1.390 . S
C307 C306 1.387 . S
C307 C309 1.387 . S
H308 C315 0.950 . S
C309 C307 1.387 . S
C309 C311 1.390 . S
C309 H313 0.950 . S
H310 C306 0.950 . S
C311 C309 1.390 . S
C311 C312 1.387 . S
C311 H314 0.950 . S
C312 C311 1.387 . S
C312 C315 1.387 . S
H313 C309 0.950 . S
H314 C311 0.950 . S
C315 C306 1.390 . S
C315 H308 0.950 . S
C315 C312 1.387 . S
C316 C317 1.387 . S
C316 H320 0.950 . S
C316 C325 1.390 . S
C317 C316 1.387 . S
C317 C319 1.387 . S
H318 C325 0.950 . S
C319 C317 1.387 . S
C319 C321 1.390 . S
C319 H323 0.950 . S
H320 C316 0.950 . S
C321 C319 1.390 . S
C321 C322 1.387 . S
C321 H324 0.950 . S
C322 C321 1.387 . S
C322 C325 1.387 . S
H323 C319 0.950 . S
H324 C321 0.950 . S
C325 C316 1.390 . S
C325 H318 0.950 . S
C325 C322 1.387 . S
C326 C327 1.387 . S
C326 H330 0.950 . S
C326 C335 1.390 . S
C327 C326 1.387 . S
C327 C329 1.387 . S
H328 C335 0.950 . S
C329 C327 1.387 . S
C329 C331 1.390 . S
C329 H333 0.950 . S
H330 C326 0.950 . S
C331 C329 1.390 . S
C331 C332 1.387 . S
C331 H334 0.950 . S
C332 C331 1.387 . S
C332 C335 1.387 . S
H333 C329 0.950 . S
H334 C331 0.950 . S
C335 C326 1.390 . S
C335 H328 0.950 . S
C335 C332 1.387 . S
C336 C337 1.387 . S
C336 H340 0.950 . S
C336 C345 1.390 . S
C337 C336 1.387 . S
C337 C339 1.387 . S
H338 C345 0.950 . S
C339 C337 1.387 . S
C339 C341 1.390 . S
C339 H343 0.950 . S
H340 C336 0.950 . S
C341 C339 1.390 . S
C341 C342 1.387 . S
C341 H344 0.950 . S
C342 C341 1.387 . S
C342 C345 1.387 . S
H343 C339 0.950 . S
H344 C341 0.950 . S
C345 C336 1.390 . S
C345 H338 0.950 . S
C345 C342 1.387 . S
C346 C347 1.387 . S
C346 H350 0.950 . S
C346 C355 1.390 . S
C347 C346 1.387 . S
C347 C349 1.387 . S
H348 C355 0.950 . S
C349 C347 1.387 . S
C349 C351 1.390 . S
C349 H353 0.950 . S
H350 C346 0.950 . S
C351 C349 1.390 . S
C351 C352 1.387 . S
C351 H354 0.950 . S
C352 C351 1.387 . S
C352 C355 1.387 . S
H353 C349 0.950 . S
H354 C351 0.950 . S
C355 C346 1.390 . S
C355 H348 0.950 . S
C355 C352 1.387 . S
C356 C357 1.387 1_556 S
C356 H360 0.950 . S
C356 C365 1.390 . S
C357 C356 1.387 1_554 S
C357 C359 1.387 . S
H358 C365 0.950 . S
C359 C357 1.387 . S
C359 C361 1.390 . S
C359 H363 0.950 . S
H360 C356 0.950 . S
C361 C359 1.390 . S
C361 C362 1.387 1_554 S
C361 H364 0.950 . S
C362 C361 1.387 1_556 S
C362 C365 1.387 . S
H363 C359 0.950 . S
H364 C361 0.950 . S
C365 C356 1.390 . S
C365 H358 0.950 . S
C365 C362 1.387 . S
C366 C367 1.387 . S
C366 H370 0.950 . S
C366 C375 1.390 . S
C367 C366 1.387 . S
C367 C369 1.387 . S
H368 C375 0.950 . S
C369 C367 1.387 . S
C369 C371 1.390 . S
C369 H373 0.950 . S
H370 C366 0.950 . S
C371 C369 1.390 . S
C371 C372 1.387 . S
C371 H374 0.950 . S
C372 C371 1.387 . S
C372 C375 1.387 . S
H373 C369 0.950 . S
H374 C371 0.950 . S
C375 C366 1.390 . S
C375 H368 0.950 . S
C375 C372 1.387 . S
C376 C377 1.387 . S
C376 H380 0.950 . S
C376 C385 1.390 . S
C377 C376 1.387 . S
C377 C379 1.387 . S
H378 C385 0.950 . S
C379 C377 1.387 . S
C379 C381 1.390 . S
C379 H383 0.950 . S
H380 C376 0.950 . S
C381 C379 1.390 . S
C381 C382 1.387 . S
C381 H384 0.950 . S
C382 C381 1.387 . S
C382 C385 1.387 . S
H383 C379 0.950 . S
H384 C381 0.950 . S
C385 C376 1.390 . S
C385 H378 0.950 . S
C385 C382 1.387 . S
C386 C387 1.387 . S
C386 H390 0.950 . S
C386 C395 1.387 1_556 S
C387 C386 1.387 . S
C387 C389 1.387 1_556 S
H388 C395 0.950 . S
C389 C387 1.387 1_554 S
C389 C391 1.390 . S
C389 H393 0.950 . S
H390 C386 0.950 . S
C391 C389 1.390 . S
C391 C392 1.387 . S
C391 H394 0.950 . S
C392 C391 1.387 . S
C392 C395 1.392 . S
H393 C389 0.950 . S
H394 C391 0.950 . S
C395 C386 1.387 1_554 S
C395 H388 0.950 . S
C395 C392 1.392 . S
C396 C397 1.387 . S
C396 H400 0.950 . S
C396 C405 1.390 1_545 S
C397 C396 1.387 . S
C397 C399 1.387 . S
H398 C405 0.950 . S
C399 C397 1.387 . S
C399 C401 1.390 1_545 S
C399 H403 0.950 . S
H400 C396 0.950 . S
C401 C399 1.390 1_565 S
C401 C402 1.387 . S
C401 H404 0.950 . S
C402 C401 1.387 . S
C402 C405 1.387 . S
H403 C399 0.950 . S
H404 C401 0.950 . S
C405 C396 1.390 1_565 S
C405 H398 0.950 . S
C405 C402 1.387 . S
C406 C407 1.387 . S
C406 H410 0.950 . S
C406 C415 1.390 . S
C407 C406 1.387 . S
C407 C409 1.387 . S
H408 C415 0.950 . S
C409 C407 1.387 . S
C409 C411 1.390 . S
C409 H413 0.950 . S
H410 C406 0.950 . S
C411 C409 1.390 . S
C411 C412 1.387 . S
C411 H414 0.950 . S
C412 C411 1.387 . S
C412 C415 1.387 . S
H413 C409 0.950 . S
H414 C411 0.950 . S
C415 C406 1.390 . S
C415 H408 0.950 . S
C415 C412 1.387 . S
C416 C417 1.385 . S
C416 H420 0.950 . S
C416 C425 1.390 1_655 S
C417 C416 1.385 . S
C417 C419 1.390 1_554 S
H418 C425 0.950 . S
C419 C417 1.390 1_556 S
C419 C421 1.390 1_655 S
C419 H423 0.950 . S
H420 C416 0.950 . S
C421 C419 1.390 1_455 S
C421 C422 1.390 1_556 S
C421 H424 0.950 . S
C422 C421 1.390 1_554 S
C422 C425 1.385 . S
H423 C419 0.950 . S
H424 C421 0.950 . S
C425 C416 1.390 1_455 S
C425 H418 0.950 . S
C425 C422 1.385 . S
C426 C427 1.387 . S
C426 H430 0.950 . S
C426 C435 1.390 1_455 S
C427 C426 1.387 . S
C427 C429 1.387 . S
H428 C435 0.950 . S
C429 C427 1.387 . S
C429 C431 1.390 1_455 S
C429 H433 0.950 . S
H430 C426 0.950 . S
C431 C429 1.390 1_655 S
C431 C432 1.387 . S
C431 H434 0.950 . S
C432 C431 1.387 . S
C432 C435 1.387 . S
H433 C429 0.950 . S
H434 C431 0.950 . S
C435 C426 1.390 1_655 S
C435 H428 0.950 . S
C435 C432 1.387 . S
C436 C437 1.387 . S
C436 H440 0.950 . S
C436 C445 1.390 1_545 S
C437 C436 1.387 . S
C437 C439 1.387 . S
H438 C445 0.950 . S
C439 C437 1.387 . S
C439 C441 1.390 1_545 S
C439 H443 0.950 . S
H440 C436 0.950 . S
C441 C439 1.390 1_565 S
C441 C442 1.387 . S
C441 H444 0.950 . S
C442 C441 1.387 . S
C442 C445 1.387 . S
H443 C439 0.950 . S
H444 C441 0.950 . S
C445 C436 1.390 1_565 S
C445 H438 0.950 . S
C445 C442 1.387 . S
C446 C447 1.387 1_556 S
C446 H450 0.950 . S
C446 C455 1.390 . S
C447 C446 1.387 1_554 S
C447 C449 1.387 . S
H448 C455 0.950 . S
C449 C447 1.387 . S
C449 C451 1.390 . S
C449 H453 0.950 . S
H450 C446 0.950 . S
C451 C449 1.390 . S
C451 C452 1.387 . S
C451 H454 0.950 . S
C452 C451 1.387 . S
C452 C455 1.387 1_554 S
H453 C449 0.950 . S
H454 C451 0.950 . S
C455 C446 1.390 . S
C455 H448 0.950 . S
C455 C452 1.387 1_556 S
C456 C457 1.387 . S
C456 H460 0.950 . S
C456 C465 1.390 . S
C457 C456 1.387 . S
C457 C459 1.387 . S
H458 C465 0.950 . S
C459 C457 1.387 . S
C459 C461 1.390 . S
C459 H463 0.950 . S
H460 C456 0.950 . S
C461 C459 1.390 . S
C461 C462 1.387 . S
C461 H464 0.950 . S
C462 C461 1.387 . S
C462 C465 1.387 . S
H463 C459 0.950 . S
H464 C461 0.950 . S
C465 C456 1.390 . S
C465 H458 0.950 . S
C465 C462 1.387 . S
C466 C467 1.387 . S
C466 H470 0.950 . S
C466 C475 1.390 . S
C467 C466 1.387 . S
C467 C469 1.387 . S
H468 C475 0.950 . S
C469 C467 1.387 . S
C469 C471 1.390 . S
C469 H473 0.950 . S
H470 C466 0.950 . S
C471 C469 1.390 . S
C471 C472 1.387 . S
C471 H474 0.950 . S
C472 C471 1.387 . S
C472 C475 1.387 . S
H473 C469 0.950 . S
H474 C471 0.950 . S
C475 C466 1.390 . S
C475 H468 0.950 . S
C475 C472 1.387 . S
C476 C477 1.387 . S
C476 H480 0.950 . S
C476 C485 1.390 . S
C477 C476 1.387 . S
C477 C479 1.387 . S
H478 C485 0.950 . S
C479 C477 1.387 . S
C479 C481 1.390 . S
C479 H483 0.950 . S
H480 C476 0.950 . S
C481 C479 1.390 . S
C481 C482 1.387 . S
C481 H484 0.950 . S
C482 C481 1.387 . S
C482 C485 1.387 . S
H483 C479 0.950 . S
H484 C481 0.950 . S
C485 C476 1.390 . S
C485 H478 0.950 . S
C485 C482 1.387 . S
C486 C487 1.387 . S
C486 H490 0.950 . S
C486 C495 1.390 . S
C487 C486 1.387 . S
C487 C489 1.387 . S
H488 C495 0.950 . S
C489 C487 1.387 . S
C489 C491 1.390 . S
C489 H493 0.950 . S
H490 C486 0.950 . S
C491 C489 1.390 . S
C491 C492 1.387 . S
C491 H494 0.950 . S
C492 C491 1.387 . S
C492 C495 1.387 . S
H493 C489 0.950 . S
H494 C491 0.950 . S
C495 C486 1.390 . S
C495 H488 0.950 . S
C495 C492 1.387 . S
C496 C497 1.387 . S
C496 H500 0.950 . S
C496 C505 1.390 . S
C497 C496 1.387 . S
C497 C499 1.387 . S
H498 C505 0.950 . S
C499 C497 1.387 . S
C499 C501 1.390 . S
C499 H503 0.950 . S
H500 C496 0.950 . S
C501 C499 1.390 . S
C501 C502 1.387 . S
C501 H504 0.950 . S
C502 C501 1.387 . S
C502 C505 1.387 . S
H503 C499 0.950 . S
H504 C501 0.950 . S
C505 C496 1.390 . S
C505 H498 0.950 . S
C505 C502 1.387 . S
C506 C507 1.387 . S
C506 H510 0.950 . S
C506 C515 1.390 . S
C507 C506 1.387 . S
C507 C509 1.387 . S
H508 C515 0.950 . S
C509 C507 1.387 . S
C509 C511 1.390 . S
C509 H513 0.950 . S
H510 C506 0.950 . S
C511 C509 1.390 . S
C511 C512 1.387 . S
C511 H514 0.950 . S
C512 C511 1.387 . S
C512 C515 1.387 . S
H513 C509 0.950 . S
H514 C511 0.950 . S
C515 C506 1.390 . S
C515 H508 0.950 . S
C515 C512 1.387 . S
C277 C7 1.924 . S
C282 C237 1.924 . S
C287 C30 1.494 . S
C292 N255 1.412 . S
C297 C145 1.495 . S
C302 N48 1.414 . S
C307 C76 1.921 . S
C312 C168 1.921 . S
C317 N186 1.416 . S
C322 C99 1.494 . S
C327 C214 1.494 . S
C332 N117 1.416 . S
C337 N140 1.051 . S
C342 N2 1.110 . S
C347 N163 1.110 . S
C352 N25 1.051 . S
C357 C191 1.684 . S
C362 C53 1.684 . S
C367 N71 1.105 . S
C372 N209 1.058 . S
C377 N94 1.058 . S
C382 N232 1.105 . S
C387 C122 1.684 . S
C392 C260 1.684 . S
C397 N12 2.503 . S
C402 N81 2.503 . S
C407 N35 2.332 . S
C412 N104 2.332 . S
C417 C62 2.422 1_554 S
C422 C131 2.422 1_554 S
C427 N219 2.329 . S
C432 N150 2.329 . S
C437 N242 2.506 . S
C442 N173 2.506 . S
C447 C269 2.421 . S
C452 C200 2.421 . S
C457 C16 2.123 . S
C462 N196 2.149 . S
C467 C223 1.817 . S
C472 C39 1.817 . S
C477 N58 2.148 . S
C482 C246 2.122 . S
C487 N265 2.148 . S
C492 C85 2.121 . S
C497 C108 1.817 . S
C502 C154 1.817 . S
C507 N127 2.148 . S
C512 C177 2.123 . S
