# Generated by pormake.
# Topology wne, (6)-cn, num edge types: 1
# Building blocks:
#     Node 0, Type 0, BuildingBlock: PAMTUU_clean_sbu_0, # of connection points: 6
#     Node 1, Type 0, BuildingBlock: PAMTUU_clean_sbu_0, # of connection points: 6
#     Node 2, Type 0, BuildingBlock: PAMTUU_clean_sbu_0, # of connection points: 6
#     Node 3, Type 0, BuildingBlock: PAMTUU_clean_sbu_0, # of connection points: 6
#     Node 4, Type 0, BuildingBlock: PAMTUU_clean_sbu_0, # of connection points: 6
#     Node 5, Type 0, BuildingBlock: PAMTUU_clean_sbu_0, # of connection points: 6
#     Node 6, Type 0, BuildingBlock: PAMTUU_clean_sbu_0, # of connection points: 6
#     Node 7, Type 0, BuildingBlock: PAMTUU_clean_sbu_0, # of connection points: 6
#     Node 8, Type 0, BuildingBlock: PAMTUU_clean_sbu_0, # of connection points: 6
#     Node 9, Type 0, BuildingBlock: PAMTUU_clean_sbu_0, # of connection points: 6
#     Node 10, Type 0, BuildingBlock: PAMTUU_clean_sbu_0, # of connection points: 6
#     Node 11, Type 0, BuildingBlock: PAMTUU_clean_sbu_0, # of connection points: 6
#     Node 12, Type 0, BuildingBlock: PAMTUU_clean_sbu_0, # of connection points: 6
#     Node 13, Type 0, BuildingBlock: PAMTUU_clean_sbu_0, # of connection points: 6
#     Node 14, Type 0, BuildingBlock: PAMTUU_clean_sbu_0, # of connection points: 6
#     Node 15, Type 0, BuildingBlock: PAMTUU_clean_sbu_0, # of connection points: 6
#     Node 16, Type 0, BuildingBlock: PAMTUU_clean_sbu_0, # of connection points: 6
#     Node 17, Type 0, BuildingBlock: PAMTUU_clean_sbu_0, # of connection points: 6
#     Node 18, Type 0, BuildingBlock: PAMTUU_clean_sbu_0, # of connection points: 6
#     Node 19, Type 0, BuildingBlock: PAMTUU_clean_sbu_0, # of connection points: 6
#     Node 20, Type 0, BuildingBlock: PAMTUU_clean_sbu_0, # of connection points: 6
#     Node 21, Type 0, BuildingBlock: PAMTUU_clean_sbu_0, # of connection points: 6
#     Node 22, Type 0, BuildingBlock: PAMTUU_clean_sbu_0, # of connection points: 6
#     Node 23, Type 0, BuildingBlock: PAMTUU_clean_sbu_0, # of connection points: 6
#     Node 24, Type 0, BuildingBlock: PAMTUU_clean_sbu_0, # of connection points: 6
#     Node 25, Type 0, BuildingBlock: PAMTUU_clean_sbu_0, # of connection points: 6
#     Node 26, Type 0, BuildingBlock: PAMTUU_clean_sbu_0, # of connection points: 6
#     Node 27, Type 0, BuildingBlock: PAMTUU_clean_sbu_0, # of connection points: 6
#     Node 28, Type 0, BuildingBlock: PAMTUU_clean_sbu_0, # of connection points: 6
#     Node 29, Type 0, BuildingBlock: PAMTUU_clean_sbu_0, # of connection points: 6
#     Node 30, Type 0, BuildingBlock: PAMTUU_clean_sbu_0, # of connection points: 6
#     Node 31, Type 0, BuildingBlock: PAMTUU_clean_sbu_0, # of connection points: 6
#     Node 32, Type 0, BuildingBlock: PAMTUU_clean_sbu_0, # of connection points: 6
#     Node 33, Type 0, BuildingBlock: PAMTUU_clean_sbu_0, # of connection points: 6
#     Node 34, Type 0, BuildingBlock: PAMTUU_clean_sbu_0, # of connection points: 6
#     Node 35, Type 0, BuildingBlock: PAMTUU_clean_sbu_0, # of connection points: 6
#     Edge 36, Type (0, 0), BuildingBlock: KIFKEQ_clean_linker_1, # of connection points: 2
#     Edge 37, Type (0, 0), BuildingBlock: KIFKEQ_clean_linker_1, # of connection points: 2
#     Edge 38, Type (0, 0), BuildingBlock: KIFKEQ_clean_linker_1, # of connection points: 2
#     Edge 39, Type (0, 0), BuildingBlock: KIFKEQ_clean_linker_1, # of connection points: 2
#     Edge 40, Type (0, 0), BuildingBlock: KIFKEQ_clean_linker_1, # of connection points: 2
#     Edge 41, Type (0, 0), BuildingBlock: KIFKEQ_clean_linker_1, # of connection points: 2
#     Edge 42, Type (0, 0), BuildingBlock: KIFKEQ_clean_linker_1, # of connection points: 2
#     Edge 43, Type (0, 0), BuildingBlock: KIFKEQ_clean_linker_1, # of connection points: 2
#     Edge 44, Type (0, 0), BuildingBlock: KIFKEQ_clean_linker_1, # of connection points: 2
#     Edge 45, Type (0, 0), BuildingBlock: KIFKEQ_clean_linker_1, # of connection points: 2
#     Edge 46, Type (0, 0), BuildingBlock: KIFKEQ_clean_linker_1, # of connection points: 2
#     Edge 47, Type (0, 0), BuildingBlock: KIFKEQ_clean_linker_1, # of connection points: 2
#     Edge 48, Type (0, 0), BuildingBlock: KIFKEQ_clean_linker_1, # of connection points: 2
#     Edge 49, Type (0, 0), BuildingBlock: KIFKEQ_clean_linker_1, # of connection points: 2
#     Edge 50, Type (0, 0), BuildingBlock: KIFKEQ_clean_linker_1, # of connection points: 2
#     Edge 51, Type (0, 0), BuildingBlock: KIFKEQ_clean_linker_1, # of connection points: 2
#     Edge 52, Type (0, 0), BuildingBlock: KIFKEQ_clean_linker_1, # of connection points: 2
#     Edge 53, Type (0, 0), BuildingBlock: KIFKEQ_clean_linker_1, # of connection points: 2
#     Edge 54, Type (0, 0), BuildingBlock: KIFKEQ_clean_linker_1, # of connection points: 2
#     Edge 55, Type (0, 0), BuildingBlock: KIFKEQ_clean_linker_1, # of connection points: 2
#     Edge 56, Type (0, 0), BuildingBlock: KIFKEQ_clean_linker_1, # of connection points: 2
#     Edge 57, Type (0, 0), BuildingBlock: KIFKEQ_clean_linker_1, # of connection points: 2
#     Edge 58, Type (0, 0), BuildingBlock: KIFKEQ_clean_linker_1, # of connection points: 2
#     Edge 59, Type (0, 0), BuildingBlock: KIFKEQ_clean_linker_1, # of connection points: 2
#     Edge 60, Type (0, 0), BuildingBlock: KIFKEQ_clean_linker_1, # of connection points: 2
#     Edge 61, Type (0, 0), BuildingBlock: KIFKEQ_clean_linker_1, # of connection points: 2
#     Edge 62, Type (0, 0), BuildingBlock: KIFKEQ_clean_linker_1, # of connection points: 2
#     Edge 63, Type (0, 0), BuildingBlock: KIFKEQ_clean_linker_1, # of connection points: 2
#     Edge 64, Type (0, 0), BuildingBlock: KIFKEQ_clean_linker_1, # of connection points: 2
#     Edge 65, Type (0, 0), BuildingBlock: KIFKEQ_clean_linker_1, # of connection points: 2
#     Edge 66, Type (0, 0), BuildingBlock: KIFKEQ_clean_linker_1, # of connection points: 2
#     Edge 67, Type (0, 0), BuildingBlock: KIFKEQ_clean_linker_1, # of connection points: 2
#     Edge 68, Type (0, 0), BuildingBlock: KIFKEQ_clean_linker_1, # of connection points: 2
#     Edge 69, Type (0, 0), BuildingBlock: KIFKEQ_clean_linker_1, # of connection points: 2
#     Edge 70, Type (0, 0), BuildingBlock: KIFKEQ_clean_linker_1, # of connection points: 2
#     Edge 71, Type (0, 0), BuildingBlock: KIFKEQ_clean_linker_1, # of connection points: 2
#     Edge 72, Type (0, 0), BuildingBlock: KIFKEQ_clean_linker_1, # of connection points: 2
#     Edge 73, Type (0, 0), BuildingBlock: KIFKEQ_clean_linker_1, # of connection points: 2
#     Edge 74, Type (0, 0), BuildingBlock: KIFKEQ_clean_linker_1, # of connection points: 2
#     Edge 75, Type (0, 0), BuildingBlock: KIFKEQ_clean_linker_1, # of connection points: 2
#     Edge 76, Type (0, 0), BuildingBlock: KIFKEQ_clean_linker_1, # of connection points: 2
#     Edge 77, Type (0, 0), BuildingBlock: KIFKEQ_clean_linker_1, # of connection points: 2
#     Edge 78, Type (0, 0), BuildingBlock: KIFKEQ_clean_linker_1, # of connection points: 2
#     Edge 79, Type (0, 0), BuildingBlock: KIFKEQ_clean_linker_1, # of connection points: 2
#     Edge 80, Type (0, 0), BuildingBlock: KIFKEQ_clean_linker_1, # of connection points: 2
#     Edge 81, Type (0, 0), BuildingBlock: KIFKEQ_clean_linker_1, # of connection points: 2
#     Edge 82, Type (0, 0), BuildingBlock: KIFKEQ_clean_linker_1, # of connection points: 2
#     Edge 83, Type (0, 0), BuildingBlock: KIFKEQ_clean_linker_1, # of connection points: 2
#     Edge 84, Type (0, 0), BuildingBlock: KIFKEQ_clean_linker_1, # of connection points: 2
#     Edge 85, Type (0, 0), BuildingBlock: KIFKEQ_clean_linker_1, # of connection points: 2
#     Edge 86, Type (0, 0), BuildingBlock: KIFKEQ_clean_linker_1, # of connection points: 2
#     Edge 87, Type (0, 0), BuildingBlock: KIFKEQ_clean_linker_1, # of connection points: 2
#     Edge 88, Type (0, 0), BuildingBlock: KIFKEQ_clean_linker_1, # of connection points: 2
#     Edge 89, Type (0, 0), BuildingBlock: KIFKEQ_clean_linker_1, # of connection points: 2
#     Edge 90, Type (0, 0), BuildingBlock: KIFKEQ_clean_linker_1, # of connection points: 2
#     Edge 91, Type (0, 0), BuildingBlock: KIFKEQ_clean_linker_1, # of connection points: 2
#     Edge 92, Type (0, 0), BuildingBlock: KIFKEQ_clean_linker_1, # of connection points: 2
#     Edge 93, Type (0, 0), BuildingBlock: KIFKEQ_clean_linker_1, # of connection points: 2
#     Edge 94, Type (0, 0), BuildingBlock: KIFKEQ_clean_linker_1, # of connection points: 2
#     Edge 95, Type (0, 0), BuildingBlock: KIFKEQ_clean_linker_1, # of connection points: 2
#     Edge 96, Type (0, 0), BuildingBlock: KIFKEQ_clean_linker_1, # of connection points: 2
#     Edge 97, Type (0, 0), BuildingBlock: KIFKEQ_clean_linker_1, # of connection points: 2
#     Edge 98, Type (0, 0), BuildingBlock: KIFKEQ_clean_linker_1, # of connection points: 2
#     Edge 99, Type (0, 0), BuildingBlock: KIFKEQ_clean_linker_1, # of connection points: 2
#     Edge 100, Type (0, 0), BuildingBlock: KIFKEQ_clean_linker_1, # of connection points: 2
#     Edge 101, Type (0, 0), BuildingBlock: KIFKEQ_clean_linker_1, # of connection points: 2
#     Edge 102, Type (0, 0), BuildingBlock: KIFKEQ_clean_linker_1, # of connection points: 2
#     Edge 103, Type (0, 0), BuildingBlock: KIFKEQ_clean_linker_1, # of connection points: 2
#     Edge 104, Type (0, 0), BuildingBlock: KIFKEQ_clean_linker_1, # of connection points: 2
#     Edge 105, Type (0, 0), BuildingBlock: KIFKEQ_clean_linker_1, # of connection points: 2
#     Edge 106, Type (0, 0), BuildingBlock: KIFKEQ_clean_linker_1, # of connection points: 2
#     Edge 107, Type (0, 0), BuildingBlock: KIFKEQ_clean_linker_1, # of connection points: 2
#     Edge 108, Type (0, 0), BuildingBlock: KIFKEQ_clean_linker_1, # of connection points: 2
#     Edge 109, Type (0, 0), BuildingBlock: KIFKEQ_clean_linker_1, # of connection points: 2
#     Edge 110, Type (0, 0), BuildingBlock: KIFKEQ_clean_linker_1, # of connection points: 2
#     Edge 111, Type (0, 0), BuildingBlock: KIFKEQ_clean_linker_1, # of connection points: 2
#     Edge 112, Type (0, 0), BuildingBlock: KIFKEQ_clean_linker_1, # of connection points: 2
#     Edge 113, Type (0, 0), BuildingBlock: KIFKEQ_clean_linker_1, # of connection points: 2
#     Edge 114, Type (0, 0), BuildingBlock: KIFKEQ_clean_linker_1, # of connection points: 2
#     Edge 115, Type (0, 0), BuildingBlock: KIFKEQ_clean_linker_1, # of connection points: 2
#     Edge 116, Type (0, 0), BuildingBlock: KIFKEQ_clean_linker_1, # of connection points: 2
#     Edge 117, Type (0, 0), BuildingBlock: KIFKEQ_clean_linker_1, # of connection points: 2
#     Edge 118, Type (0, 0), BuildingBlock: KIFKEQ_clean_linker_1, # of connection points: 2
#     Edge 119, Type (0, 0), BuildingBlock: KIFKEQ_clean_linker_1, # of connection points: 2
#     Edge 120, Type (0, 0), BuildingBlock: KIFKEQ_clean_linker_1, # of connection points: 2
#     Edge 121, Type (0, 0), BuildingBlock: KIFKEQ_clean_linker_1, # of connection points: 2
#     Edge 122, Type (0, 0), BuildingBlock: KIFKEQ_clean_linker_1, # of connection points: 2
#     Edge 123, Type (0, 0), BuildingBlock: KIFKEQ_clean_linker_1, # of connection points: 2
#     Edge 124, Type (0, 0), BuildingBlock: KIFKEQ_clean_linker_1, # of connection points: 2
#     Edge 125, Type (0, 0), BuildingBlock: KIFKEQ_clean_linker_1, # of connection points: 2
#     Edge 126, Type (0, 0), BuildingBlock: KIFKEQ_clean_linker_1, # of connection points: 2
#     Edge 127, Type (0, 0), BuildingBlock: KIFKEQ_clean_linker_1, # of connection points: 2
#     Edge 128, Type (0, 0), BuildingBlock: KIFKEQ_clean_linker_1, # of connection points: 2
#     Edge 129, Type (0, 0), BuildingBlock: KIFKEQ_clean_linker_1, # of connection points: 2
#     Edge 130, Type (0, 0), BuildingBlock: KIFKEQ_clean_linker_1, # of connection points: 2
#     Edge 131, Type (0, 0), BuildingBlock: KIFKEQ_clean_linker_1, # of connection points: 2
#     Edge 132, Type (0, 0), BuildingBlock: KIFKEQ_clean_linker_1, # of connection points: 2
#     Edge 133, Type (0, 0), BuildingBlock: KIFKEQ_clean_linker_1, # of connection points: 2
#     Edge 134, Type (0, 0), BuildingBlock: KIFKEQ_clean_linker_1, # of connection points: 2
#     Edge 135, Type (0, 0), BuildingBlock: KIFKEQ_clean_linker_1, # of connection points: 2
#     Edge 136, Type (0, 0), BuildingBlock: KIFKEQ_clean_linker_1, # of connection points: 2
#     Edge 137, Type (0, 0), BuildingBlock: KIFKEQ_clean_linker_1, # of connection points: 2
#     Edge 138, Type (0, 0), BuildingBlock: KIFKEQ_clean_linker_1, # of connection points: 2
#     Edge 139, Type (0, 0), BuildingBlock: KIFKEQ_clean_linker_1, # of connection points: 2
#     Edge 140, Type (0, 0), BuildingBlock: KIFKEQ_clean_linker_1, # of connection points: 2
#     Edge 141, Type (0, 0), BuildingBlock: KIFKEQ_clean_linker_1, # of connection points: 2
#     Edge 142, Type (0, 0), BuildingBlock: KIFKEQ_clean_linker_1, # of connection points: 2
#     Edge 143, Type (0, 0), BuildingBlock: KIFKEQ_clean_linker_1, # of connection points: 2
# Relax obj value: 0.305
# Max RMSD: 0.214
# Mean RMSD: 0.214
data_MOF--net-wne--node1-PAMTUU_clean_sbu_0--edge1-KIFKEQ_clean_linker_1
_symmetry_space_group_name_H-M    P1
_symmetry_Int_Tables_number       1
_symmetry_cell_setting            triclinic
loop_
_symmetry_equiv_pos_as_xyz
'x, y, z'
_cell_length_a     87.481464
_cell_length_b     87.452015
_cell_length_c     32.590817
_cell_angle_alpha  89.933402
_cell_angle_beta   90.078047
_cell_angle_gamma 120.07655
loop_
_atom_site_label
_atom_site_type_symbol
_atom_site_fract_x
_atom_site_fract_y
_atom_site_fract_z
_atom_type_partial_charge
Tb0 Tb 0.31572 0.23911 0.12541 0.0
Tb1 Tb 0.29033 0.19743 0.09885 0.0
C2 C 0.32403 0.22517 0.04438 0.0
C3 C 0.32705 0.28312 0.1613 0.0
C4 C 0.31652 0.30862 0.16498 0.0
C5 C 0.3344 0.31351 0.16997 0.0
C6 C 0.33962 0.30085 0.16794 0.0
C7 C 0.30904 0.27794 0.15973 0.0
C8 C 0.3038 0.29062 0.16137 0.0
C9 C 0.33288 0.27062 0.15027 0.0
O10 O 0.29149 0.23773 0.10245 0.0
O11 O 0.27837 0.21129 0.06718 0.0
O12 O 0.27528 0.2043 0.14458 0.0
O13 O 0.29974 0.22447 0.17754 0.0
O14 O 0.27781 0.17751 0.05384 0.0
O15 O 0.27544 0.17074 0.11801 0.0
O16 O 0.31063 0.19856 0.1411 0.0
O17 O 0.33256 0.2274 0.13259 0.0
O18 O 0.32316 0.23809 0.06256 0.0
O19 O 0.31374 0.20854 0.05654 0.0
C20 C 0.27931 0.22645 0.07701 0.0
O21 O 0.32766 0.25698 0.17421 0.0
O22 O 0.33071 0.26611 0.11176 0.0
C23 C 0.28253 0.21559 0.17546 0.0
C24 C 0.27159 0.14778 0.06978 0.0
C25 C 0.26605 0.1133 0.0488 0.0
C26 C 0.26783 0.11895 0.09005 0.0
C27 C 0.27047 0.13581 0.10032 0.0
C28 C 0.27012 0.14228 0.02859 0.0
C29 C 0.26747 0.12545 1.0183 0.0
C30 C 0.27165 0.16464 0.08054 0.0
C31 C 0.32744 0.211 0.14331 0.0
H32 H 0.34458 0.32728 0.17217 0.0
H33 H 0.35356 0.30504 0.16906 0.0
H34 H 0.29914 0.26423 0.15489 0.0
H35 H 0.28995 0.28647 0.15764 0.0
H36 H 0.26711 0.11032 0.1147 0.0
H37 H 0.27123 0.1393 0.13243 0.0
H38 H 0.27046 0.15082 1.00409 0.0
H39 H 0.26592 0.12177 0.98623 0.0
Tb40 Tb 0.83034 0.0922 0.11983 0.0
Tb41 Tb 0.87234 0.10853 0.09752 0.0
C42 C 0.84567 0.11452 0.03994 0.0
C43 C 0.78539 0.05965 0.15076 0.0
C44 C 0.75932 1.02374 0.15303 0.0
C45 C 0.75473 0.03696 0.15737 0.0
C46 C 0.76768 0.05479 0.15602 0.0
C47 C 0.79022 0.04657 0.14972 0.0
C48 C 0.77725 0.0287 0.15056 0.0
C49 C 0.79837 0.07803 0.141 0.0
O50 O 0.83196 0.06928 0.09879 0.0
O51 O 0.85882 0.08276 0.0654 0.0
O52 O 0.86502 0.08667 0.14368 0.0
O53 O 0.84368 0.09005 0.17382 0.0
O54 O 0.89254 0.11579 0.0535 0.0
O55 O 0.8989 0.12055 0.11781 0.0
O56 O 0.8707 0.12736 0.13979 0.0
O57 O 0.84219 0.12077 0.12783 0.0
O58 O 0.83259 0.10019 0.05604 0.0
O59 O 0.86187 0.12137 0.0552 0.0
C60 C 0.84355 0.06848 0.07441 0.0
O61 O 0.81151 0.08603 0.16645 0.0
O62 O 0.8037 0.08069 0.10307 0.0
C63 C 0.85315 0.0823 0.17333 0.0
C64 C 0.92209 0.13952 0.06978 0.0
C65 C 0.95654 0.16854 0.04875 0.0
C66 C 0.95083 0.16475 0.08998 0.0
C67 C 0.93398 0.1505 0.10028 0.0
C68 C 0.92764 0.14346 0.0286 0.0
C69 C 0.94447 0.15768 1.01829 0.0
C70 C 0.90524 0.12271 0.08062 0.0
C71 C 0.85834 0.13183 0.14061 0.0
H72 H 0.74102 0.03359 0.15868 0.0
H73 H 0.76376 0.06474 0.15674 0.0
H74 H 0.80391 0.05016 0.14605 0.0
H75 H 0.78116 1.0188 0.14732 0.0
H76 H 0.95942 0.17277 0.1146 0.0
H77 H 0.93044 0.14784 0.13239 0.0
H78 H 0.91916 0.13517 1.00413 0.0
H79 H 0.9482 0.15973 0.98624 0.0
Tb80 Tb 0.97681 0.75273 0.11989 0.0
Tb81 Tb 0.96073 0.77852 0.09704 0.0
C82 C 0.95452 0.74568 0.0397 0.0
C83 C 1.00905 0.74051 0.15375 0.0
C84 C 0.04498 0.75077 0.15906 0.0
C85 C 1.03183 0.73287 0.163 0.0
C86 C 1.01399 0.72778 0.16012 0.0
C87 C 1.02201 0.7585 0.15338 0.0
C88 C 1.03989 0.76361 0.15573 0.0
C89 C 0.99084 0.73494 0.14198 0.0
O90 O 0.99982 0.77731 0.09907 0.0
O91 O 0.98654 0.79076 0.0652 0.0
O92 O 0.98247 0.79301 0.14334 0.0
O93 O 0.97897 0.76825 0.17375 0.0
O94 O 0.95344 0.79148 0.05306 0.0
O95 O 0.94907 0.79331 0.1175 0.0
O96 O 0.94173 0.75799 0.1391 0.0
O97 O 0.94821 0.73601 0.12722 0.0
O98 O 0.96864 0.74663 0.05627 0.0
O99 O 0.94788 0.75528 0.05447 0.0
C100 C 1.00076 0.78976 0.07458 0.0
O101 O 0.98214 0.73948 0.16674 0.0
O102 O 0.98892 0.73812 0.10388 0.0
C103 C 0.98673 0.78548 0.17317 0.0
C104 C 0.93005 0.79764 0.07008 0.0
C105 C 0.90131 0.80349 0.04964 0.0
C106 C 0.90602 0.80288 0.09085 0.0
C107 C 0.92014 0.80008 0.10085 0.0
C108 C 0.92517 0.79793 0.02895 0.0
C109 C 0.91106 0.80073 1.01894 0.0
C110 C 0.9468 0.79746 0.08033 0.0
C111 C 0.93718 0.74111 0.13981 0.0
H112 H 1.03531 0.72262 0.16497 0.0
H113 H 1.00414 0.71385 0.16039 0.0
H114 H 1.01835 0.76852 0.14889 0.0
H115 H 0.04973 0.77747 0.15277 0.0
H116 H 0.89885 0.80466 0.11566 0.0
H117 H 0.92358 0.80026 0.13285 0.0
H118 H 0.93263 0.79655 1.0042 0.0
H119 H 0.90824 0.80134 0.98683 0.0
Tb120 Tb 0.2511 0.30198 0.41806 0.0
Tb121 Tb 0.20933 0.27696 0.44353 0.0
C122 C 0.23755 0.30928 0.49914 0.0
C123 C 0.29751 0.3152 0.41262 0.0
C124 C 0.32236 0.3059 0.44028 0.0
C125 C 0.31377 0.31132 0.46824 0.0
C126 C 0.30141 0.31582 0.45461 0.0
C127 C 0.30605 0.30981 0.38461 0.0
C128 C 0.31829 0.30513 0.39829 0.0
C129 C 0.28316 0.31807 0.39821 0.0
O130 O 0.2497 0.27813 0.44364 0.0
O131 O 0.22232 0.26402 0.47476 0.0
O132 O 0.21636 0.26257 0.39658 0.0
O133 O 0.23614 0.28749 0.36457 0.0
O134 O 0.18953 0.26489 0.4889 0.0
O135 O 0.18263 0.26206 0.4247 0.0
O136 O 0.21016 0.29738 0.40248 0.0
O137 O 0.23964 0.31874 0.40446 0.0
O138 O 0.24966 0.30643 0.48323 0.0
O139 O 0.22126 0.30085 0.48408 0.0
C140 C 0.23781 0.26538 0.46695 0.0
O141 O 0.27093 0.305 0.37726 0.0
O142 O 0.27644 0.32425 0.4247 0.0
C143 C 0.22732 0.27022 0.36539 0.0
C144 C 0.15987 0.25877 0.47279 0.0
C145 C 0.12553 0.25364 0.49323 0.0
C146 C 0.1314 0.25572 0.45211 0.0
C147 C 0.1482 0.25817 0.44209 0.0
C148 C 0.15418 0.25703 0.51386 0.0
C149 C 0.13741 0.25458 0.52389 0.0
C150 C 0.17661 0.2586 0.46228 0.0
C151 C 0.223 0.31383 0.39646 0.0
H152 H 0.31685 0.31248 0.50068 0.0
H153 H 0.29484 0.31964 0.4771 0.0
H154 H 0.30298 0.3089 0.35216 0.0
H155 H 0.32453 0.30087 0.37594 0.0
H156 H 0.12298 0.25539 0.42737 0.0
H157 H 0.15185 0.25917 0.41006 0.0
H158 H 0.1625 0.25698 0.53843 0.0
H159 H 0.13355 0.25278 0.55585 0.0
Tb160 Tb 0.76577 0.96299 0.41923 0.0
Tb161 Tb 0.79165 0.94702 0.44163 0.0
C162 C 0.759 0.94087 0.49925 0.0
C163 C 0.75297 0.99522 0.38858 0.0
C164 C 0.76266 0.03108 0.38672 0.0
C165 C 0.74483 1.01778 0.38261 0.0
C166 C 0.74003 0.99998 0.38376 0.0
C167 C 0.77088 1.00839 0.38943 0.0
C168 C 0.7757 1.02623 0.3888 0.0
C169 C 0.74769 0.97687 0.39811 0.0
O170 O 0.79028 0.9861 0.44017 0.0
O171 O 0.80397 0.97288 0.47336 0.0
O172 O 0.80614 0.96887 0.39547 0.0
O173 O 0.78136 0.96547 0.36527 0.0
O174 O 0.8046 0.93978 0.4858 0.0
O175 O 0.80635 0.9352 0.42148 0.0
O176 O 0.77138 0.9282 0.39885 0.0
O177 O 0.74922 0.93436 0.41113 0.0
O178 O 0.76025 0.9552 0.48316 0.0
O179 O 0.76832 0.93404 0.48388 0.0
C180 C 0.80285 0.98708 0.46432 0.0
O181 O 0.75298 0.96904 0.37261 0.0
O182 O 0.75036 0.97416 0.43602 0.0
C183 C 0.7986 0.97323 0.36582 0.0
C184 C 0.81045 0.91613 0.46939 0.0
C185 C 0.81578 0.88706 0.49017 0.0
C186 C 0.81406 0.89103 0.44895 0.0
C187 C 0.81152 0.90532 0.43877 0.0
C188 C 0.81186 0.91201 0.51056 0.0
C189 C 0.81441 0.89775 0.52075 0.0
C190 C 0.81046 0.93297 0.45872 0.0
C191 C 0.75448 0.92349 0.39806 0.0
H192 H 0.73443 1.02108 0.38159 0.0
H193 H 0.72616 0.98997 0.3832 0.0
H194 H 0.78106 1.00489 0.39276 0.0
H195 H 0.78952 0.03619 0.39187 0.0
H196 H 0.81475 0.88314 0.42425 0.0
H197 H 0.8108 0.90812 0.40668 0.0
H198 H 0.81155 0.92017 0.53512 0.0
H199 H 0.81592 0.89554 0.55281 0.0
Tb200 Tb 0.10473 0.81704 0.41281 0.0
Tb201 Tb 0.1209 0.85832 0.443 0.0
C202 C 0.12691 0.82997 0.49513 0.0
C203 C 0.07161 0.77366 0.37403 0.0
C204 C 1.03551 0.74818 0.37175 0.0
C205 C 0.04843 0.74336 0.36466 0.0
C206 C 0.06634 0.75601 0.36603 0.0
C207 C 0.05882 0.77883 0.37739 0.0
C208 C 1.04086 0.76614 0.37649 0.0
C209 C 0.09004 0.786 0.38476 0.0
O210 O 0.08182 0.81814 0.43691 0.0
O211 O 0.09497 0.84414 0.47395 0.0
O212 O 0.09923 0.85182 0.39681 0.0
O213 O 0.10471 0.83298 0.36208 0.0
O214 O 0.12841 0.87803 0.48859 0.0
O215 O 0.13223 0.88499 0.42446 0.0
O216 O 0.1409 0.85789 0.40248 0.0
O217 O 0.13323 0.8286 0.40489 0.0
O218 O 0.11397 0.81705 0.47453 0.0
O219 O 0.13265 0.84678 0.48555 0.0
C220 C 0.0808 0.82909 0.46316 0.0
O221 O 0.09823 0.80007 0.36201 0.0
O222 O 0.09277 0.78982 0.42362 0.0
C223 C 0.09595 0.84138 0.36462 0.0
C224 C 0.15171 0.90783 0.47224 0.0
C225 C 0.18085 0.94231 0.49222 0.0
C226 C 0.1765 0.93667 0.45109 0.0
C227 C 0.16219 0.9198 0.44131 0.0
C228 C 0.15623 0.91331 0.51331 0.0
C229 C 0.17054 0.93016 0.52312 0.0
C230 C 0.13482 0.89098 0.46205 0.0
C231 C 0.14488 0.84529 0.39735 0.0
H232 H 0.04478 0.72962 0.36151 0.0
H233 H 0.07606 0.75183 0.36346 0.0
H234 H 0.06272 0.79249 0.38317 0.0
H235 H 1.03122 0.77024 0.38182 0.0
H236 H 0.18411 0.94533 0.42616 0.0
H237 H 0.15908 0.91631 0.40929 0.0
H238 H 0.14833 0.90475 0.53811 0.0
H239 H 0.17308 0.93386 0.55514 0.0
Tb240 Tb 0.79279 0.85979 0.94032 0.0
Tb241 Tb 0.76756 0.81793 0.91572 0.0
C242 C 0.79926 0.84145 0.8625 0.0
C243 C 0.81144 0.90937 0.96886 0.0
C244 C 0.81692 0.94379 0.98966 0.0
C245 C 0.81576 0.93837 0.94838 0.0
C246 C 0.81314 0.92153 0.93819 0.0
C247 C 0.81227 0.91464 1.01006 0.0
C248 C 0.81489 0.93146 1.02026 0.0
C249 C 0.81143 0.89255 0.95837 0.0
O250 O 0.77211 0.85884 0.89991 0.0
O251 O 0.75078 0.82932 0.90209 0.0
O252 O 0.76324 0.81979 0.98081 0.0
O253 O 0.76902 0.84827 0.98106 0.0
O254 O 0.76406 0.79796 0.87477 0.0
O255 O 0.74557 0.79251 0.92388 0.0
O256 O 0.79145 0.81938 0.94099 0.0
O257 O 0.80542 0.8467 0.97237 0.0
O258 O 0.80699 0.85252 0.89346 0.0
O259 O 0.78199 0.83261 0.86187 0.0
C260 C 0.75565 0.84595 0.89413 0.0
O261 O 0.80521 0.87972 0.98522 0.0
O262 O 0.80772 0.88642 0.9209 0.0
C263 C 0.76052 0.83205 0.9964 0.0
C264 C 0.75497 0.77172 0.91133 0.0
C265 C 0.76552 0.74804 0.94091 0.0
C266 C 0.75685 0.75415 0.96678 0.0
C267 C 0.75168 0.76587 0.95223 0.0
C268 C 0.76341 0.76546 0.88524 0.0
C269 C 0.7687 0.7538 0.8999 0.0
C270 C 0.75153 0.78574 0.89695 0.0
C271 C 0.80409 0.83121 0.96458 0.0
H272 H 0.81696 0.94718 0.92366 0.0
H273 H 0.81288 0.9182 0.90611 0.0
H274 H 0.81146 0.90594 0.03468 0.0
H275 H 0.81595 0.93498 0.05238 0.0
H276 H 0.75372 0.74961 0.99821 0.0
H277 H 0.74529 0.77049 0.97327 0.0
H278 H 0.76627 0.76989 0.85366 0.0
H279 H 0.77535 0.74937 0.87917 0.0
Tb280 Tb 0.21007 0.94798 0.94378 0.0
Tb281 Tb 0.25148 0.96438 0.91562 0.0
C282 C 0.22732 0.97309 0.86585 0.0
C283 C 0.16048 0.91709 0.97278 0.0
C284 C 0.12593 0.88814 0.993 0.0
C285 C 0.13165 0.89221 0.95186 0.0
C286 C 0.14856 0.90643 0.94195 0.0
C287 C 0.15491 0.91285 1.01387 0.0
C288 C 0.13803 0.89864 0.0238 0.0
C289 C 0.17736 0.93391 0.96241 0.0
O290 O 0.21098 0.92859 0.90191 0.0
O291 O 0.23995 0.93581 0.90907 0.0
O292 O 0.25099 0.9559 0.9783 0.0
O293 O 0.22145 0.9359 0.98597 0.0
O294 O 0.26886 0.97053 0.86575 0.0
O295 O 0.2786 0.97639 0.92776 0.0
O296 O 0.25016 0.9873 0.93846 0.0
O297 O 0.22402 0.97396 0.97485 0.0
O298 O 0.21656 0.96958 0.8975 0.0
O299 O 0.23608 0.96467 0.86393 0.0
C300 C 0.22349 0.92437 0.8991 0.0
O301 O 0.19026 0.94042 0.98908 0.0
O302 O 0.18341 0.93638 0.92489 0.0
C303 C 0.23818 0.9422 0.99717 0.0
C304 C 0.29518 0.99723 0.87795 0.0
C305 C 0.32081 0.03327 0.87483 0.0
C306 C 0.32552 1.02023 0.86838 0.0
C307 C 0.3128 1.00234 0.87016 0.0
C308 C 0.29012 1.01011 0.88068 0.0
C309 C 0.30288 0.02805 0.87937 0.0
C310 C 0.28273 0.97886 0.88903 0.0
C311 C 0.23905 0.98823 0.96435 0.0
H312 H 0.12303 0.88445 0.92702 0.0
H313 H 0.15211 0.90933 0.90991 0.0
H314 H 0.16343 0.9209 0.03857 0.0
H315 H 0.13427 0.89633 0.05581 0.0
H316 H 0.33924 1.02378 0.86539 0.0
H317 H 0.31689 0.99255 0.86806 0.0
H318 H 0.27647 1.00632 0.8863 0.0
H319 H 0.29886 0.03779 0.88423 0.0
Tb320 Tb 0.12147 0.27703 0.94212 0.0
Tb321 Tb 0.10542 0.30224 0.91258 0.0
C322 C 0.09538 0.26819 0.86481 0.0
C323 C 0.15199 0.25819 0.97248 0.0
C324 C 0.18103 0.25287 0.99317 0.0
C325 C 0.17723 0.25486 0.952 0.0
C326 C 0.16296 0.25741 0.94185 0.0
C327 C 0.15595 0.25651 1.0136 0.0
C328 C 0.1702 0.25396 0.02376 0.0
C329 C 0.13518 0.25821 0.96188 0.0
O330 O 0.14119 0.29697 0.90021 0.0
O331 O 0.13394 0.31882 0.9034 0.0
O332 O 0.11433 0.31068 0.97518 0.0
O333 O 0.13401 0.30075 0.98295 0.0
O334 O 0.09931 0.31372 0.86309 0.0
O335 O 0.0937 0.31751 0.92532 0.0
O336 O 0.0825 0.27831 0.93692 0.0
O337 O 0.09577 0.26564 0.97408 0.0
O338 O 0.09946 0.26167 0.89709 0.0
O339 O 0.1029 0.28532 0.8611 0.0
C340 C 0.14536 0.31362 0.89513 0.0
O341 O 0.12885 0.26489 0.98813 0.0
O342 O 0.13264 0.26151 0.92413 0.0
C343 C 0.12782 0.3112 0.99427 0.0
C344 C 0.07273 0.31344 0.87608 0.0
C345 C 1.03674 0.30318 0.87451 0.0
C346 C 0.0498 0.32091 0.86739 0.0
C347 C 0.06767 0.326 0.86841 0.0
C348 C 0.05978 0.2955 0.87937 0.0
C349 C 0.04188 0.29041 0.87883 0.0
C350 C 0.09112 0.31929 0.8867 0.0
C351 C 0.08156 0.26645 0.96345 0.0
H352 H 0.18525 0.25439 0.92733 0.0
H353 H 0.16029 0.25837 0.90978 0.0
H354 H 0.14765 0.25661 0.03812 0.0
H355 H 0.17229 0.25224 0.05577 0.0
H356 H 0.04632 0.33113 0.8645 0.0
H357 H 0.07752 0.33988 0.86587 0.0
H358 H 0.06352 0.2856 0.88488 0.0
H359 H 1.03212 0.27667 0.88413 0.0
Tb360 Tb 0.8717 0.77815 0.59618 0.0
Tb361 Tb 0.83018 0.75286 0.62494 0.0
C362 C 0.85409 0.78624 0.67338 0.0
C363 C 0.92122 0.79684 0.56659 0.0
C364 C 0.95566 0.80219 0.54604 0.0
C365 C 0.94982 0.80012 0.58718 0.0
C366 C 0.93298 0.79757 0.59725 0.0
C367 C 0.92691 0.79859 0.52551 0.0
C368 C 0.94372 0.80115 0.51542 0.0
C369 C 0.90439 0.79685 0.57718 0.0
O370 O 0.87105 0.75787 0.63767 0.0
O371 O 0.84186 0.73607 0.63385 0.0
O372 O 0.83068 0.74439 0.56277 0.0
O373 O 0.86033 0.75464 0.55421 0.0
O374 O 0.81264 0.74221 0.67475 0.0
O375 O 0.80312 0.73721 0.61254 0.0
O376 O 0.83138 0.77688 0.60069 0.0
O377 O 0.85762 0.78988 0.5646 0.0
O378 O 0.86501 0.79336 0.64185 0.0
O379 O 0.84549 0.76905 0.6761 0.0
C380 C 0.85848 0.74121 0.64238 0.0
O381 O 0.89143 0.79045 0.55068 0.0
O382 O 0.89841 0.79333 0.61477 0.0
C383 C 0.84359 0.7439 0.54349 0.0
C384 C 0.78619 0.74196 0.66027 0.0
C385 C 0.76051 0.7523 0.66048 0.0
C386 C 0.75571 0.7345 0.66698 0.0
C387 C 0.76846 0.72939 0.66666 0.0
C388 C 0.79127 0.75992 0.65715 0.0
C389 C 0.7785 0.76506 0.65704 0.0
C390 C 0.79884 0.73611 0.65107 0.0
C391 C 0.8425 0.78894 0.57477 0.0
H392 H 0.95829 0.80054 0.6119 0.0
H393 H 0.92935 0.79657 0.6293 0.0
H394 H 0.91853 0.79855 0.50095 0.0
H395 H 0.94755 0.80293 0.48344 0.0
H396 H 0.74195 0.72429 0.6691 0.0
H397 H 0.76434 0.71548 0.66894 0.0
H398 H 0.80499 0.76983 0.65251 0.0
H399 H 0.78259 0.77884 0.65219 0.0
Tb400 Tb 0.28936 0.10745 0.59633 0.0
Tb401 Tb 0.31491 0.09129 0.6259 0.0
C402 C 0.28171 0.08212 0.67412 0.0
C403 C 0.27034 0.13819 0.56897 0.0
C404 C 0.2647 0.16714 0.5491 0.0
C405 C 0.26532 0.16233 0.59022 0.0
C406 C 0.26802 0.14811 0.59993 0.0
C407 C 0.27003 0.14317 0.52794 0.0
C408 C 0.26734 0.15738 0.5182 0.0
C409 C 0.27045 0.12136 0.57897 0.0
O410 O 0.31033 0.12778 0.63542 0.0
O411 O 0.33155 0.11949 0.6375 0.0
O412 O 0.32788 0.10519 0.57007 0.0
O413 O 0.31159 0.11835 0.551 0.0
O414 O 0.32527 0.0843 0.67613 0.0
O415 O 0.32957 0.07885 0.614 0.0
O416 O 0.29151 0.0689 0.59781 0.0
O417 O 0.27696 0.08154 0.56574 0.0
O418 O 0.2745 0.08557 0.64224 0.0
O419 O 0.29889 0.09083 0.67679 0.0
C420 C 0.32666 0.13133 0.64299 0.0
O421 O 0.27663 0.11485 0.55188 0.0
O422 O 0.27433 0.11891 0.61625 0.0
C423 C 0.32524 0.11576 0.54609 0.0
C424 C 0.32453 0.05749 0.66306 0.0
C425 C 0.31388 1.02139 0.6642 0.0
C426 C 0.3315 0.03427 0.67299 0.0
C427 C 0.33679 0.05219 0.67218 0.0
C428 C 0.30663 0.04471 0.65807 0.0
C429 C 0.30134 1.02675 0.6584 0.0
C430 C 0.33081 0.076 0.65277 0.0
C431 C 0.27876 0.0677 0.57388 0.0
H432 H 0.26363 0.1695 0.61518 0.0
H433 H 0.26786 0.14462 0.63189 0.0
H434 H 0.27133 0.1357 0.50305 0.0
H435 H 0.26672 0.16028 0.48615 0.0
H436 H 0.34157 0.03064 0.67702 0.0
H437 H 0.35065 0.06191 0.67603 0.0
H438 H 0.29696 0.04864 0.65141 0.0
H439 H 0.28768 1.01713 0.65178 0.0
Tb440 Tb 0.96057 0.19645 0.59714 0.0
Tb441 Tb 0.97645 0.23737 0.63091 0.0
C442 C 0.98641 0.21287 0.67508 0.0
C443 C 0.93007 0.14693 0.56698 0.0
C444 C 0.90115 0.11234 0.54659 0.0
C445 C 0.90534 0.11798 0.58778 0.0
C446 C 0.91954 0.1349 0.59777 0.0
C447 C 0.92572 0.14145 0.52585 0.0
C448 C 0.91154 0.12455 0.51585 0.0
C449 C 0.94685 0.16388 0.57732 0.0
O450 O 0.94007 0.19616 0.63731 0.0
O451 O 0.9481 0.22554 0.6405 0.0
O452 O 0.96322 0.23762 0.57458 0.0
O453 O 0.94999 0.20848 0.55303 0.0
O454 O 0.98103 0.25361 0.6823 0.0
O455 O 0.99053 0.26477 0.62221 0.0
O456 O 0.99908 0.23709 0.60203 0.0
O457 O 0.98647 0.21066 0.56663 0.0
O458 O 0.98279 0.20305 0.6416 0.0
O459 O 0.97819 0.22169 0.68036 0.0
C460 C 0.93631 0.20874 0.64533 0.0
O461 O 0.95306 0.17693 0.55108 0.0
O462 O 0.9495 0.16972 0.61505 0.0
C463 C 0.95279 0.22485 0.54935 0.0
C464 C 1.00899 0.27911 0.67782 0.0
C465 C 0.04473 0.30336 0.69356 0.0
C466 C 1.03168 0.30807 0.6999 0.0
C467 C 1.01396 0.29605 0.69188 0.0
C468 C 1.02165 0.27375 0.67512 0.0
C469 C 1.03944 0.28583 0.68283 0.0
C470 C 0.99117 0.26789 0.66147 0.0
C471 C 1.00032 0.22611 0.57627 0.0
H472 H 0.89768 0.10927 0.6126 0.0
H473 H 0.92251 0.13838 0.62983 0.0
H474 H 0.93367 0.15006 0.50117 0.0
H475 H 0.90914 0.12088 0.48379 0.0
H476 H 1.03526 0.32151 0.70757 0.0
H477 H 1.00432 0.30033 0.6942 0.0
H478 H 1.01792 0.26058 0.6647 0.0
H479 H 0.04915 0.28178 0.67797 0.0
Tb480 Tb 0.98272 0.572 0.45315 0.0
Tb481 Tb 0.95697 0.53008 0.43078 0.0
C482 C 0.98961 0.55671 0.37317 0.0
C483 C 0.99524 0.61684 0.48501 0.0
C484 C 0.98521 0.64271 0.48855 0.0
C485 C 1.00311 0.64744 0.49201 0.0
C486 C 1.00807 0.63459 0.49001 0.0
C487 C 0.97727 0.61186 0.48496 0.0
C488 C 0.97228 0.62474 0.48643 0.0
C489 C 1.00063 0.60398 0.47426 0.0
O490 O 0.95798 0.57027 0.43301 0.0
O491 O 0.94478 0.54367 0.39857 0.0
O492 O 0.94254 0.53732 0.47723 0.0
O493 O 0.96734 0.55873 0.50731 0.0
O494 O 0.94403 0.50983 0.38677 0.0
O495 O 0.94226 0.50355 0.45116 0.0
O496 O 0.97754 0.53164 0.47274 0.0
O497 O 0.99948 0.56016 0.46081 0.0
O498 O 0.9884 0.5698 0.38929 0.0
O499 O 0.98024 0.54051 0.38844 0.0
C500 C 0.94558 0.55878 0.40833 0.0
O501 O 0.99588 0.59084 0.49956 0.0
O502 O 0.99752 0.59866 0.43633 0.0
C503 C 0.95011 0.54918 0.50694 0.0
C504 C 0.93829 0.48037 0.4036 0.0
C505 C 0.93312 0.446 0.38317 0.0
C506 C 0.93413 0.45146 0.42439 0.0
C507 C 0.93659 0.46826 0.43439 0.0
C508 C 0.93762 0.47508 0.36246 0.0
C509 C 0.93515 0.45829 0.35244 0.0
C510 C 0.93818 0.49716 0.41397 0.0
C511 C 0.99441 0.54399 0.4734 0.0
H512 H 1.01342 0.66119 0.49304 0.0
H513 H 1.02198 0.63862 0.48997 0.0
H514 H 0.96718 0.59813 0.48151 0.0
H515 H 0.95842 0.62073 0.48386 0.0
H516 H 0.93292 0.44269 0.44923 0.0
H517 H 0.93674 0.47159 0.46643 0.0
H518 H 0.93844 0.48374 0.33772 0.0
H519 H 0.93421 0.45476 0.32035 0.0
Tb520 Tb 0.49805 0.4255 0.46124 0.0
Tb521 Tb 0.5393 0.44114 0.43038 0.0
C522 C 0.51135 0.44892 0.38007 0.0
C523 C 0.45594 0.39432 0.50995 0.0
C524 C 0.43153 0.35957 0.5338 0.0
C525 C 0.42687 0.37284 0.53395 0.0
C526 C 0.439 0.39007 0.52232 0.0
C527 C 0.46112 0.38151 0.51215 0.0
C528 C 0.449 0.36423 0.52416 0.0
C529 C 0.46742 0.41151 0.49094 0.0
O530 O 0.49865 0.40256 0.43519 0.0
O531 O 0.5251 0.41519 0.39995 0.0
O532 O 0.53258 0.41932 0.4764 0.0
O533 O 0.51362 0.42454 0.51167 0.0
O534 O 0.55895 0.4482 0.38486 0.0
O535 O 0.566 0.45256 0.44888 0.0
O536 O 0.53924 0.46154 0.47019 0.0
O537 O 0.50999 0.45398 0.46911 0.0
O538 O 0.49816 0.43779 0.40335 0.0
O539 O 0.52783 0.45231 0.38602 0.0
C540 C 0.50973 0.40128 0.40982 0.0
O541 O 0.48162 0.42218 0.51139 0.0
O542 O 0.47069 0.41092 0.45213 0.0
C543 C 0.52204 0.41583 0.50853 0.0
C544 C 0.58874 0.47166 0.40036 0.0
C545 C 0.62308 0.50081 0.37937 0.0
C546 C 0.61721 0.49727 0.4205 0.0
C547 C 0.6004 0.48296 0.43079 0.0
C548 C 0.59445 0.47535 0.35925 0.0
C549 C 0.61123 0.48964 0.34895 0.0
C550 C 0.57193 0.45484 0.41128 0.0
C551 C 0.52671 0.46557 0.47593 0.0
H552 H 0.41343 0.36967 0.54008 0.0
H553 H 0.43483 0.39982 0.52069 0.0
H554 H 0.47423 0.38465 0.50256 0.0
H555 H 0.45296 0.35431 0.52366 0.0
H556 H 0.62562 0.50555 0.44504 0.0
H557 H 0.59673 0.48052 0.46286 0.0
H558 H 0.58613 0.4668 0.33489 0.0
H559 H 0.61511 0.49151 0.31699 0.0
Tb560 Tb 0.64342 0.0868 0.46082 0.0
Tb561 Tb 0.62712 0.11177 0.43042 0.0
C562 C 0.62114 0.07732 0.37869 0.0
C563 C 0.67646 0.07647 0.49992 0.0
C564 C 0.71248 0.08686 0.50263 0.0
C565 C 0.69943 0.06917 0.51013 0.0
C566 C 0.68156 0.06401 0.50856 0.0
C567 C 0.68937 0.0944 0.49613 0.0
C568 C 0.7073 0.09956 0.49727 0.0
C569 C 0.65806 0.07044 0.4891 0.0
O570 O 0.66627 0.11084 0.43649 0.0
O571 O 0.65306 0.12364 0.39946 0.0
O572 O 0.64887 0.12709 0.47645 0.0
O573 O 0.64347 0.1028 0.51137 0.0
O574 O 0.61945 0.12379 0.38463 0.0
O575 O 0.6157 0.12703 0.44869 0.0
O576 O 0.60734 0.09144 0.47159 0.0
O577 O 0.61493 0.06979 0.46881 0.0
O578 O 0.6342 0.07753 0.39915 0.0
O579 O 0.61534 0.08832 0.38823 0.0
C580 C 0.66725 0.12281 0.41019 0.0
O581 O 0.64992 0.07636 0.51175 0.0
O582 O 0.65537 0.07155 0.45021 0.0
C583 C 0.65223 0.11998 0.50867 0.0
C584 C 0.5961 0.13021 0.4008 0.0
C585 C 0.5669 0.13543 0.38069 0.0
C586 C 0.57127 0.13415 0.42184 0.0
C587 C 0.58561 0.13165 0.43168 0.0
C588 C 0.59156 0.13115 0.35971 0.0
C589 C 0.57723 0.13364 0.34985 0.0
C590 C 0.61303 0.13032 0.41105 0.0
C591 C 0.60335 0.07483 0.47671 0.0
H592 H 0.70293 0.05899 0.51377 0.0
H593 H 0.67174 0.05014 0.51148 0.0
H594 H 0.6856 0.10422 0.48985 0.0
H595 H 0.71704 0.11327 0.49163 0.0
H596 H 0.56366 0.13516 0.44675 0.0
H597 H 0.58872 0.13129 0.46372 0.0
H598 H 0.59947 0.13052 0.33494 0.0
H599 H 0.57469 0.13478 0.31781 0.0
Tb600 Tb 0.91826 0.63602 0.75357 0.0
Tb601 Tb 0.87628 0.61013 0.77553 0.0
C602 C 0.90285 0.64274 0.83337 0.0
C603 C 0.96338 0.64877 0.72387 0.0
C604 C 0.98954 0.63909 0.72315 0.0
C605 C 0.99411 0.65691 0.71876 0.0
C606 C 0.98112 0.66171 0.71935 0.0
C607 C 0.9586 0.63085 0.725 0.0
C608 C 0.97161 0.62603 0.72494 0.0
C609 C 0.95028 0.65405 0.73281 0.0
O610 O 0.91673 0.61148 0.77455 0.0
O611 O 0.88975 0.59775 0.80743 0.0
O612 O 0.88367 0.59572 0.72935 0.0
O613 O 0.90506 0.62058 0.69943 0.0
O614 O 0.85598 0.5972 0.81942 0.0
O615 O 0.84977 0.59543 0.75499 0.0
O616 O 0.87789 0.6306 0.73316 0.0
O617 O 0.90633 0.65267 0.74547 0.0
O618 O 0.91591 0.64146 0.81748 0.0
O619 O 0.88668 0.63343 0.81789 0.0
C620 C 0.90509 0.59889 0.7986 0.0
O621 O 0.9372 0.64865 0.70709 0.0
O622 O 0.94484 0.65151 0.77064 0.0
C623 C 0.89559 0.60333 0.6998 0.0
C624 C 0.82651 0.59139 0.8024 0.0
C625 C 0.79207 0.58608 0.82273 0.0
C626 C 0.79747 0.58689 0.78153 0.0
C627 C 0.81431 0.58942 0.77159 0.0
C628 C 0.82127 0.59091 0.84352 0.0
C629 C 0.80446 0.58838 0.85348 0.0
C630 C 0.84334 0.59135 0.79214 0.0
C631 C 0.89018 0.64749 0.73254 0.0
H632 H 1.00783 0.66731 0.71795 0.0
H633 H 0.98501 0.67558 0.71858 0.0
H634 H 0.94489 0.62067 0.72808 0.0
H635 H 0.96772 0.61222 0.72822 0.0
H636 H 0.78865 0.58548 0.75666 0.0
H637 H 0.81759 0.5894 0.73957 0.0
H638 H 0.83 0.59195 0.8683 0.0
H639 H 0.80098 0.5876 0.88557 0.0
Tb640 Tb 0.43304 0.29638 0.74572 0.0
Tb641 Tb 0.45818 0.28045 0.77529 0.0
C642 C 0.42404 0.27461 0.82818 0.0
C643 C 0.42114 0.3265 0.69555 0.0
C644 C 0.43123 0.36071 0.66793 0.0
C645 C 0.41327 0.34749 0.66961 0.0
C646 C 0.40829 0.33052 0.68317 0.0
C647 C 0.43912 0.33918 0.69138 0.0
C648 C 0.44414 0.3562 0.67749 0.0
C649 C 0.41572 0.30976 0.71655 0.0
O650 O 0.45722 0.31952 0.76829 0.0
O651 O 0.46991 0.30642 0.80603 0.0
O652 O 0.4735 0.30213 0.72915 0.0
O653 O 0.4493 0.2975 0.69452 0.0
O654 O 0.4704 0.27303 0.82109 0.0
O655 O 0.47343 0.269 0.75708 0.0
O656 O 0.43807 0.26094 0.73324 0.0
O657 O 0.41617 0.26774 0.74168 0.0
O658 O 0.42432 0.28775 0.80794 0.0
O659 O 0.43486 0.26865 0.81802 0.0
C660 C 0.46913 0.32059 0.79484 0.0
O661 O 0.41854 0.29848 0.69678 0.0
O662 O 0.42059 0.31125 0.75482 0.0
C663 C 0.46648 0.3058 0.69719 0.0
C664 C 0.47705 0.24981 0.80536 0.0
C665 C 0.48277 0.221 0.82613 0.0
C666 C 0.48113 0.22501 0.7849 0.0
C667 C 0.47839 0.23916 0.77472 0.0
C668 C 0.47836 0.24564 0.84654 0.0
C669 C 0.48109 0.2315 0.85673 0.0
C670 C 0.47692 0.26657 0.79473 0.0
C671 C 0.42125 0.25646 0.73117 0.0
H672 H 0.40292 0.35054 0.66341 0.0
H673 H 0.39438 0.32085 0.68625 0.0
H674 H 0.44921 0.33621 0.7009 0.0
H675 H 0.45805 0.36606 0.67648 0.0
H676 H 0.48205 0.21725 0.76019 0.0
H677 H 0.47775 0.24201 0.74263 0.0
H678 H 0.47783 0.25369 0.87111 0.0
H679 H 0.48251 0.22924 0.88881 0.0
Tb680 Tb 0.77137 0.15029 0.75333 0.0
Tb681 Tb 0.78782 0.1923 0.77586 0.0
C682 C 0.79388 0.16556 0.83327 0.0
C683 C 0.73872 0.10577 0.72033 0.0
C684 C 0.70272 0.08014 0.71617 0.0
C685 C 0.71578 0.07534 0.71154 0.0
C686 C 0.73365 0.08807 0.71386 0.0
C687 C 0.72583 0.11086 0.72135 0.0
C688 C 0.70791 0.0981 0.71959 0.0
C689 C 0.75702 0.11839 0.73154 0.0
O690 O 0.74854 0.15203 0.77449 0.0
O691 O 0.76207 0.17885 0.80803 0.0
O692 O 0.76604 0.18512 0.72965 0.0
O693 O 0.7693 0.16371 0.69941 0.0
O694 O 0.79517 0.21257 0.81975 0.0
O695 O 0.79983 0.21883 0.75537 0.0
O696 O 0.80674 0.19058 0.73398 0.0
O697 O 0.79991 0.16196 0.74563 0.0
O698 O 0.77971 0.15238 0.81684 0.0
O699 O 0.80058 0.18182 0.81842 0.0
C700 C 0.74776 0.16362 0.79895 0.0
O701 O 0.76563 0.13161 0.70657 0.0
O702 O 0.75919 0.12355 0.7696 0.0
C703 C 0.76163 0.17325 0.69995 0.0
C704 C 0.81887 0.24209 0.80312 0.0
C705 C 0.84787 0.27658 0.82388 0.0
C706 C 0.8437 0.27103 0.78262 0.0
C707 C 0.82945 0.25416 0.77246 0.0
C708 C 0.8232 0.24748 0.84431 0.0
C709 C 0.83742 0.26433 0.85449 0.0
C710 C 0.80204 0.22523 0.79253 0.0
C711 C 0.81109 0.17812 0.73314 0.0
H712 H 0.71221 0.06158 0.70947 0.0
H713 H 0.74345 0.08395 0.71308 0.0
H714 H 0.72958 0.12456 0.72589 0.0
H715 H 0.69814 0.10216 0.72309 0.0
H716 H 0.8514 0.27976 0.75789 0.0
H717 H 0.82648 0.25074 0.74037 0.0
H718 H 0.81522 0.23885 0.86893 0.0
H719 H 0.83979 0.26793 0.88658 0.0
Tb720 Tb 0.45853 0.19219 0.27696 0.0
Tb721 Tb 0.43281 0.15058 0.24689 0.0
C722 C 0.46619 0.17454 0.19914 0.0
C723 C 0.47739 0.24175 0.30586 0.0
C724 C 0.48255 0.2761 0.32661 0.0
C725 C 0.48031 0.27021 0.28548 0.0
C726 C 0.47784 0.25342 0.27531 0.0
C727 C 0.47932 0.24747 0.34695 0.0
C728 C 0.48178 0.26424 0.35713 0.0
C729 C 0.47745 0.22497 0.29507 0.0
O730 O 0.4377 0.19184 0.23789 0.0
O731 O 0.41633 0.16234 0.23528 0.0
O732 O 0.41978 0.15139 0.30265 0.0
O733 O 0.43631 0.18075 0.32229 0.0
O734 O 0.42243 0.13333 0.19651 0.0
O735 O 0.41793 0.12342 0.25856 0.0
O736 O 0.45608 0.15133 0.27515 0.0
O737 O 0.47086 0.17853 0.30718 0.0
O738 O 0.47339 0.18518 0.23107 0.0
O739 O 0.44903 0.16621 0.19623 0.0
C740 C 0.42134 0.17915 0.23015 0.0
O741 O 0.47138 0.21211 0.32181 0.0
O742 O 0.47354 0.21883 0.25764 0.0
C743 C 0.42253 0.16453 0.32691 0.0
C744 C 0.4229 0.1071 0.20954 0.0
C745 C 0.43345 0.08159 0.20866 0.0
C746 C 0.41577 0.0768 0.20057 0.0
C747 C 0.41054 0.08947 0.20122 0.0
C748 C 0.44083 0.11225 0.21392 0.0
C749 C 0.44607 0.09955 0.21368 0.0
C750 C 0.41674 0.11941 0.21976 0.0
C751 C 0.46893 0.16284 0.299 0.0
H752 H 0.48052 0.27862 0.26084 0.0
H753 H 0.47669 0.24975 0.24325 0.0
H754 H 0.47948 0.23916 0.37141 0.0
H755 H 0.48371 0.26812 0.38909 0.0
H756 H 0.40565 0.06307 0.19716 0.0
H757 H 0.39666 0.0853 0.1979 0.0
H758 H 0.45057 0.12591 0.22003 0.0
H759 H 0.45977 0.10363 0.21974 0.0
Tb760 Tb 0.87644 0.28112 0.27723 0.0
Tb761 Tb 0.91804 0.29707 0.24758 0.0
C762 C 0.8942 0.30653 0.19946 0.0
C763 C 0.82678 0.25034 0.30576 0.0
C764 C 0.79233 0.22123 0.32651 0.0
C765 C 0.79814 0.225 0.28535 0.0
C766 C 0.81499 0.23929 0.27519 0.0
C767 C 0.82112 0.24642 0.34688 0.0
C768 C 0.8043 0.23215 0.35706 0.0
C769 C 0.84363 0.26718 0.29501 0.0
O770 O 0.87686 0.26066 0.23827 0.0
O771 O 0.90634 0.2688 0.23648 0.0
O772 O 0.91724 0.28322 0.30342 0.0
O773 O 0.88791 0.27054 0.32318 0.0
O774 O 0.93519 0.30361 0.19717 0.0
O775 O 0.94522 0.3098 0.25906 0.0
O776 O 0.91726 0.31956 0.27582 0.0
O777 O 0.88999 0.30708 0.30745 0.0
O778 O 0.88353 0.30308 0.2313 0.0
O779 O 0.90247 0.29765 0.19676 0.0
C780 C 0.88956 0.257 0.23089 0.0
O781 O 0.85644 0.27395 0.32186 0.0
O782 O 0.84982 0.26941 0.25766 0.0
C783 C 0.90412 0.27298 0.32794 0.0
C784 C 0.96114 0.33072 0.20883 0.0
C785 C 0.98627 0.36691 0.20549 0.0
C786 C 0.99116 0.35411 0.19738 0.0
C787 C 0.97868 0.33615 0.19927 0.0
C788 C 0.95583 0.34337 0.21312 0.0
C789 C 0.96834 0.36138 0.21169 0.0
C790 C 0.94913 0.31228 0.22016 0.0
C791 C 0.90572 0.32085 0.29953 0.0
H792 H 0.78964 0.21693 0.26068 0.0
H793 H 0.8186 0.24192 0.24311 0.0
H794 H 0.82953 0.25477 0.37139 0.0
H795 H 0.80049 0.23011 0.38906 0.0
H796 H 1.00488 0.35788 0.19308 0.0
H797 H 0.98297 0.32653 0.19593 0.0
H798 H 0.94223 0.33933 0.22013 0.0
H799 H 0.96419 0.37092 0.21783 0.0
Tb800 Tb 0.78786 0.60984 0.27406 0.0
Tb801 Tb 0.77169 0.63495 0.24349 0.0
C802 C 0.76258 0.60162 0.19601 0.0
C803 C 0.81789 0.58987 0.30132 0.0
C804 C 0.84673 0.58429 0.32228 0.0
C805 C 0.8341 0.57388 0.29235 0.0
C806 C 0.82001 0.57663 0.28212 0.0
C807 C 0.83062 0.60056 0.33075 0.0
C808 C 0.84485 0.59788 0.34086 0.0
C809 C 0.80141 0.59076 0.29283 0.0
O810 O 0.80775 0.63018 0.23309 0.0
O811 O 0.80019 0.65186 0.23575 0.0
O812 O 0.78128 0.64454 0.30479 0.0
O813 O 0.79968 0.63322 0.31648 0.0
O814 O 0.7658 0.64591 0.19256 0.0
O815 O 0.75925 0.64974 0.25391 0.0
O816 O 0.74886 0.61098 0.26816 0.0
O817 O 0.7621 0.59833 0.30563 0.0
O818 O 0.76595 0.59457 0.22833 0.0
O819 O 0.77137 0.61878 0.19303 0.0
C820 C 0.81177 0.6468 0.22801 0.0
O821 O 0.79615 0.59828 0.31951 0.0
O822 O 0.79828 0.59371 0.25531 0.0
C823 C 0.79411 0.64447 0.32563 0.0
C824 C 0.73887 0.64524 0.20262 0.0
C825 C 0.70287 0.63478 0.19803 0.0
C826 C 0.71595 0.65244 0.19034 0.0
C827 C 0.73382 0.65763 0.19283 0.0
C828 C 0.72596 0.62731 0.20625 0.0
C829 C 0.70805 0.6221 0.2041 0.0
C830 C 0.75715 0.65134 0.2149 0.0
C831 C 0.74791 0.59914 0.29481 0.0
H832 H 0.83506 0.56349 0.27666 0.0
H833 H 0.81044 0.56804 0.25958 0.0
H834 H 0.8294 0.61077 0.34658 0.0
H835 H 0.8541 0.60616 0.36424 0.0
H836 H 0.71248 0.6626 0.18602 0.0
H837 H 0.74364 0.6715 0.1899 0.0
H838 H 0.7297 0.61753 0.21337 0.0
H839 H 0.69829 0.6084 0.20976 0.0
Tb840 Tb 0.53872 0.11188 0.93213 0.0
Tb841 Tb 0.4968 0.08601 0.95466 0.0
C842 C 0.51961 0.11879 1.00811 0.0
C843 C 0.58849 0.13098 0.90467 0.0
C844 C 0.62299 0.1367 0.88378 0.0
C845 C 0.61753 0.13542 0.92507 0.0
C846 C 0.60065 0.13268 0.93529 0.0
C847 C 0.59379 0.13196 0.86346 0.0
C848 C 0.61065 0.1347 0.85322 0.0
C849 C 0.5716 0.13083 0.9153 0.0
O850 O 0.53721 0.09136 0.97421 0.0
O851 O 0.5087 0.06934 0.96233 0.0
O852 O 0.49894 0.08011 0.89097 0.0
O853 O 0.52832 0.08863 0.88967 0.0
O854 O 0.47808 0.0729 1.00131 0.0
O855 O 0.4701 0.07114 0.93817 0.0
O856 O 0.49834 0.11057 0.93379 0.0
O857 O 0.52514 0.1241 0.90018 0.0
O858 O 0.53147 0.12634 0.97842 0.0
O859 O 0.51009 0.10155 1.00862 0.0
C860 C 0.52488 0.07448 0.97495 0.0
O861 O 0.55892 0.12495 0.88813 0.0
O862 O 0.56525 0.12661 0.95249 0.0
C863 C 0.51209 0.07909 0.87466 0.0
C864 C 0.45212 0.07363 0.98704 0.0
C865 C 0.42639 0.08382 0.9907 0.0
C866 C 0.42159 0.06591 0.99446 0.0
C867 C 0.43437 0.06086 0.99239 0.0
C868 C 0.45717 0.09162 0.98674 0.0
C869 C 0.44436 0.09669 0.98827 0.0
C870 C 0.46489 0.06813 0.97618 0.0
C871 C 0.50988 0.12305 0.90939 0.0
H872 H 0.62635 0.1366 0.94976 0.0
H873 H 0.59731 0.13232 0.96739 0.0
H874 H 0.58509 0.13116 0.83886 0.0
H875 H 0.61418 0.13585 0.82109 0.0
H876 H 0.40783 0.05565 0.99574 0.0
H877 H 0.43028 0.04693 0.99256 0.0
H878 H 0.4709 0.10167 0.983 0.0
H879 H 0.44842 0.11056 0.98547 0.0
Tb880 Tb 0.95754 0.44163 0.93023 0.0
Tb881 Tb 0.98325 0.4255 0.95332 0.0
C882 C 0.95038 0.41549 1.0064 0.0
C883 C 0.93851 0.47242 0.9027 0.0
C884 C 0.9326 0.50115 0.88211 0.0
C885 C 0.9337 0.49676 0.92335 0.0
C886 C 0.93653 0.48265 0.93342 0.0
C887 C 0.93773 0.47697 0.86154 0.0
C888 C 0.9349 0.49106 0.85144 0.0
C889 C 0.93872 0.45567 0.91313 0.0
O890 O 0.97792 0.46052 0.97272 0.0
O891 O 0.99994 0.45413 0.96074 0.0
O892 O 0.98929 0.43344 0.88957 0.0
O893 O 0.98084 0.45434 0.88767 0.0
O894 O 0.9964 0.42013 1.00032 0.0
O895 O 0.99798 0.4135 0.93746 0.0
O896 O 0.95869 0.40246 0.93229 0.0
O897 O 0.94523 0.41577 0.89853 0.0
O898 O 0.94293 0.41985 0.97654 0.0
O899 O 0.96761 0.42316 1.00708 0.0
C900 C 0.99479 0.46512 0.97354 0.0
O901 O 0.94472 0.449 0.88601 0.0
O902 O 0.9428 0.4534 0.95036 0.0
C903 C 0.99032 0.44757 0.87286 0.0
C904 C 0.9956 0.39332 0.98719 0.0
C905 C 0.98552 0.35741 0.99208 0.0
C906 C 1.0034 0.37063 0.99603 0.0
C907 C 1.00839 0.38846 0.99337 0.0
C908 C 0.97763 0.3803 0.98682 0.0
C909 C 0.97262 0.36243 0.989 0.0
C910 C 1.00108 0.41153 0.97558 0.0
C911 C 0.94623 0.40153 0.90781 0.0
H912 H 0.93229 0.50419 0.94814 0.0
H913 H 0.93673 0.47949 0.96549 0.0
H914 H 0.93874 0.46925 0.83684 0.0
H915 H 0.93389 0.49361 0.81933 0.0
H916 H 1.0137 0.36723 0.99782 0.0
H917 H 1.0223 0.39836 0.99363 0.0
H918 H 0.96757 0.3839 0.98245 0.0
H919 H 0.95877 0.35254 0.98607 0.0
Tb920 Tb 0.62718 0.52925 0.92886 0.0
Tb921 Tb 0.64318 0.57062 0.95942 0.0
C922 C 0.65243 0.54655 1.00693 0.0
C923 C 0.59652 0.47975 0.89968 0.0
C924 C 0.56738 0.44542 0.87874 0.0
C925 C 0.57063 0.4515 0.91975 0.0
C926 C 0.58495 0.4683 0.93003 0.0
C927 C 0.59312 0.47383 0.8587 0.0
C928 C 0.57884 0.45706 0.8484 0.0
C929 C 0.61332 0.49652 0.91068 0.0
O930 O 0.60652 0.52956 0.96729 0.0
O931 O 0.61501 0.55912 0.97155 0.0
O932 O 0.62908 0.57003 0.90414 0.0
O933 O 0.61659 0.54084 0.88335 0.0
O934 O 0.65042 0.58771 1.01027 0.0
O935 O 0.65574 0.59783 0.94835 0.0
O936 O 0.66563 0.56988 0.93084 0.0
O937 O 0.65306 0.54282 0.89831 0.0
O938 O 0.64906 0.53608 0.97475 0.0
O939 O 0.64355 0.5548 1.00992 0.0
C940 C 0.60304 0.5423 0.97588 0.0
O941 O 0.62012 0.50938 0.88396 0.0
O942 O 0.61548 0.50262 0.94812 0.0
C943 C 0.61888 0.55702 0.8793 0.0
C944 C 0.67824 0.61296 0.99765 0.0
C945 C 0.71411 0.63623 1.01686 0.0
C946 C 0.70885 0.63042 0.97632 0.0
C947 C 0.6912 0.61892 0.96688 0.0
C948 C 0.6835 0.61782 0.03855 0.0
C949 C 0.70129 0.62929 0.04814 0.0
C950 C 0.65938 0.60156 0.98714 0.0
C951 C 0.66687 0.55846 0.90661 0.0
H952 H 0.56212 0.44324 0.94419 0.0
H953 H 0.58716 0.47214 0.96202 0.0
H954 H 0.60189 0.48199 0.83445 0.0
H955 H 0.57719 0.45301 0.81658 0.0
H956 H 0.71815 0.63562 0.95114 0.0
H957 H 0.68771 0.6152 0.93509 0.0
H958 H 0.6738 0.6131 0.06298 0.0
H959 H 0.70488 0.63328 0.07977 0.0
Tb960 Tb 0.64944 0.90497 0.78735 0.0
Tb961 Tb 0.62366 0.86312 0.76426 0.0
C962 C 0.65658 0.88992 0.70702 0.0
C963 C 0.66142 0.94919 0.82224 0.0
C964 C 0.65078 0.97453 0.82846 0.0
C965 C 0.66874 0.9795 0.83215 0.0
C966 C 0.67401 0.96692 0.82881 0.0
C967 C 0.64338 0.94392 0.82218 0.0
C968 C 0.63809 0.95653 0.825 0.0
C969 C 0.66714 0.93676 0.80986 0.0
O970 O 0.62495 0.90347 0.76605 0.0
O971 O 0.61141 0.87667 0.73238 0.0
O972 O 0.60906 0.87028 0.81041 0.0
O973 O 0.63374 0.8916 0.84104 0.0
O974 O 0.61072 0.84293 0.72014 0.0
O975 O 0.60894 0.83657 0.7845 0.0
O976 O 0.64417 0.86456 0.80626 0.0
O977 O 0.66615 0.89308 0.79458 0.0
O978 O 0.65581 0.90313 0.72387 0.0
O979 O 0.64685 0.87362 0.72156 0.0
C980 C 0.61247 0.89194 0.74159 0.0
O981 O 0.66282 0.92343 0.83432 0.0
O982 O 0.66386 0.93179 0.7717 0.0
C983 C 0.6165 0.8821 0.84022 0.0
C984 C 0.60492 0.81344 0.73677 0.0
C985 C 0.59969 0.7791 0.716 0.0
C986 C 0.60056 0.78443 0.75728 0.0
C987 C 0.60306 0.80123 0.76744 0.0
C988 C 0.60437 0.80827 0.69558 0.0
C989 C 0.60187 0.79149 0.6854 0.0
C990 C 0.60485 0.83023 0.74727 0.0
C991 C 0.66105 0.87688 0.80693 0.0
H992 H 0.67888 0.99329 0.83423 0.0
H993 H 0.68798 0.97118 0.82885 0.0
H994 H 0.63347 0.9302 0.81752 0.0
H995 H 0.62419 0.95234 0.82222 0.0
H996 H 0.59923 0.77558 0.78201 0.0
H997 H 0.6031 0.80448 0.79951 0.0
H998 H 0.60532 0.81702 0.67092 0.0
H999 H 0.60104 0.78805 0.65326 0.0
Tb1000 Tb 0.164 0.75863 0.7966 0.0
Tb1001 Tb 0.20515 0.77482 0.76562 0.0
C1002 C 0.17669 0.78083 0.71421 0.0
C1003 C 0.12078 0.72569 0.83678 0.0
C1004 C 0.09526 0.68962 0.84066 0.0
C1005 C 0.09054 0.70263 0.84752 0.0
C1006 C 0.10321 0.72053 0.84536 0.0
C1007 C 0.12589 0.71285 0.83375 0.0
C1008 C 0.11318 0.6949 0.83548 0.0
C1009 C 0.13304 0.74402 0.82507 0.0
O1010 O 0.16517 0.73573 0.77275 0.0
O1011 O 0.19065 0.74908 0.73397 0.0
O1012 O 0.19878 0.75312 0.81169 0.0
O1013 O 0.18004 0.75854 0.84701 0.0
O1014 O 0.22471 0.78222 0.71969 0.0
O1015 O 0.23187 0.78606 0.7837 0.0
O1016 O 0.20486 0.7949 0.80611 0.0
O1017 O 0.17554 0.78713 0.80438 0.0
O1018 O 0.16385 0.76785 0.7349 0.0
O1019 O 0.19353 0.78663 0.72353 0.0
C1020 C 0.17585 0.73481 0.74553 0.0
O1021 O 0.14716 0.7525 0.84754 0.0
O1022 O 0.13674 0.74634 0.7861 0.0
C1023 C 0.18845 0.7498 0.8441 0.0
C1024 C 0.25467 0.80531 0.73552 0.0
C1025 C 0.28928 0.83412 0.71507 0.0
C1026 C 0.28357 0.83014 0.75624 0.0
C1027 C 0.26664 0.81599 0.76626 0.0
C1028 C 0.26023 0.80945 0.6944 0.0
C1029 C 0.27714 0.82359 0.68436 0.0
C1030 C 0.23773 0.78856 0.74602 0.0
C1031 C 0.19223 0.79882 0.81161 0.0
H1032 H 0.07684 0.69906 0.85102 0.0
H1033 H 0.09908 0.73029 0.84771 0.0
H1034 H 0.1395 0.71668 0.82752 0.0
H1035 H 0.11721 0.68519 0.83035 0.0
H1036 H 0.29222 0.83793 0.78101 0.0
H1037 H 0.2631 0.81317 0.79833 0.0
H1038 H 0.25167 0.80138 0.66978 0.0
H1039 H 0.28088 0.82583 0.65233 0.0
Tb1040 Tb 0.31091 0.42018 0.78476 0.0
Tb1041 Tb 0.29406 0.44527 0.76217 0.0
C1042 C 0.28994 0.41361 0.70437 0.0
C1043 C 0.34401 0.40683 0.78751 0.0
C1044 C 0.37801 0.41631 0.75836 0.0
C1045 C 0.36359 0.41007 0.73122 0.0
C1046 C 0.34681 0.40546 0.74557 0.0
C1047 C 0.35835 0.41301 0.81472 0.0
C1048 C 0.37519 0.41779 0.8003 0.0
C1049 C 0.32681 0.40381 0.80251 0.0
O1050 O 0.33336 0.44424 0.76001 0.0
O1051 O 0.31999 0.45864 0.73087 0.0
O1052 O 0.31553 0.45929 0.80921 0.0
O1053 O 0.31063 0.43411 0.83952 0.0
O1054 O 0.28614 0.4576 0.71792 0.0
O1055 O 0.28231 0.45999 0.78246 0.0
O1056 O 0.27485 0.42463 0.80362 0.0
O1057 O 0.2826 0.40318 0.79693 0.0
O1058 O 0.30513 0.41669 0.71945 0.0
O1059 O 0.28195 0.42165 0.7207 0.0
C1060 C 0.33416 0.45721 0.73772 0.0
O1061 O 0.32769 0.4166 0.82463 0.0
O1062 O 0.31386 0.39796 0.7761 0.0
C1063 C 0.3189 0.45138 0.83973 0.0
C1064 C 0.26287 0.46392 0.73547 0.0
C1065 C 0.23409 0.46984 0.7159 0.0
C1066 C 0.23892 0.46916 0.75697 0.0
C1067 C 0.25306 0.46633 0.76654 0.0
C1068 C 0.25786 0.46426 0.69448 0.0
C1069 C 0.24373 0.46709 0.68489 0.0
C1070 C 0.27969 0.46377 0.74521 0.0
C1071 C 0.27105 0.40802 0.80715 0.0
H1072 H 0.36514 0.40833 0.69889 0.0
H1073 H 0.33609 0.40096 0.72365 0.0
H1074 H 0.35658 0.41446 0.84711 0.0
H1075 H 0.38601 0.42265 0.82202 0.0
H1076 H 0.23183 0.47093 0.78201 0.0
H1077 H 0.25659 0.46648 0.79846 0.0
H1078 H 0.26525 0.46291 0.66951 0.0
H1079 H 0.24082 0.46775 0.65287 0.0
Tb1080 Tb 0.5845 0.96856 0.07879 0.0
Tb1081 Tb 0.54319 0.94333 0.109 0.0
C1082 C 0.57159 0.97781 0.16096 0.0
C1083 C 0.62786 0.97905 0.0397 0.0
C1084 C 0.65339 0.96857 0.03682 0.0
C1085 C 0.65814 0.98631 0.02973 0.0
C1086 C 0.64546 0.99151 0.0314 0.0
C1087 C 0.62275 0.96109 0.04305 0.0
C1088 C 0.63546 0.95588 0.04184 0.0
C1089 C 0.61553 0.98507 0.05076 0.0
O1090 O 0.58343 0.94457 0.10298 0.0
O1091 O 0.55738 0.93155 0.13981 0.0
O1092 O 0.54967 0.92813 0.06286 0.0
O1093 O 0.56863 0.95247 0.02812 0.0
O1094 O 0.52358 0.93103 0.15481 0.0
O1095 O 0.51643 0.92811 0.09082 0.0
O1096 O 0.54365 0.96371 0.06812 0.0
O1097 O 0.5729 0.98544 0.07093 0.0
O1098 O 0.5845 0.97775 0.14049 0.0
O1099 O 0.55478 0.96671 0.15136 0.0
C1100 C 0.57246 0.93251 0.12912 0.0
O1101 O 0.60146 0.97928 0.02804 0.0
O1102 O 0.61172 0.98379 0.08964 0.0
C1103 C 0.56023 0.93529 0.03079 0.0
C1104 C 0.49373 0.92459 0.13934 0.0
C1105 C 0.45932 0.91919 0.16037 0.0
C1106 C 0.46502 0.92113 0.11915 0.0
C1107 C 0.48185 0.92371 0.10884 0.0
C1108 C 0.48819 0.92297 0.18052 0.0
C1109 C 0.47139 0.9204 0.19084 0.0
C1110 C 0.51055 0.9246 0.12849 0.0
C1111 C 0.55624 0.98035 0.06314 0.0
H1112 H 0.67186 0.99647 0.02636 0.0
H1113 H 0.64959 1.0054 0.02883 0.0
H1114 H 0.60912 0.95127 0.04908 0.0
H1115 H 0.63142 0.94214 0.04716 0.0
H1116 H 0.45645 0.92058 0.09453 0.0
H1117 H 0.48537 0.9246 0.07673 0.0
H1118 H 0.49668 0.92315 0.20497 0.0
H1119 H 0.46767 0.91873 0.22289 0.0
Tb1120 Tb 0.09984 0.63009 0.08458 0.0
Tb1121 Tb 0.12562 0.61423 0.11061 0.0
C1122 C 0.09211 0.6079 0.16565 0.0
C1123 C 0.08816 0.66259 0.04939 0.0
C1124 C 0.0985 0.69859 0.04594 0.0
C1125 C 0.08066 0.68549 0.04067 0.0
C1126 C 0.07553 0.66762 0.04263 0.0
C1127 C 0.10615 0.67553 0.05106 0.0
C1128 C 0.11129 0.69344 0.04963 0.0
C1129 C 0.08245 0.64425 0.06026 0.0
O1130 O 0.12416 0.65318 0.1066 0.0
O1131 O 0.13735 0.64005 0.14223 0.0
O1132 O 0.14032 0.63593 0.06425 0.0
O1133 O 0.11571 0.63171 0.03199 0.0
O1134 O 0.13876 0.60757 0.15571 0.0
O1135 O 0.14043 0.60243 0.09162 0.0
O1136 O 0.10522 0.59458 0.06939 0.0
O1137 O 0.08323 0.60153 0.07604 0.0
O1138 O 0.0927 0.62163 0.14777 0.0
O1139 O 0.10221 0.60153 0.15258 0.0
C1140 C 0.13639 0.65423 0.13206 0.0
O1141 O 0.08772 0.63598 0.03612 0.0
O1142 O 0.08468 0.64182 0.09869 0.0
C1143 C 0.13293 0.63988 0.03355 0.0
C1144 C 0.14549 0.58448 0.14071 0.0
C1145 C 0.15107 0.55554 0.16018 0.0
C1146 C 0.14039 0.55466 0.12661 0.0
C1147 C 0.13772 0.56893 0.11688 0.0
C1148 C 0.15576 0.58517 0.17471 0.0
C1149 C 0.1585 0.57102 0.18428 0.0
C1150 C 0.14483 0.60081 0.12903 0.0
C1151 C 0.08846 0.59029 0.06596 0.0
H1152 H 0.07044 0.68901 0.03837 0.0
H1153 H 0.06161 0.65778 0.04136 0.0
H1154 H 0.1161 0.67181 0.05584 0.0
H1155 H 0.12511 0.70324 0.0536 0.0
H1156 H 0.13448 0.54313 0.10697 0.0
H1157 H 0.12986 0.56791 0.09021 0.0
H1158 H 0.16207 0.59694 0.1936 0.0
H1159 H 0.16654 0.57228 0.21076 0.0
Tb1160 Tb 0.43763 0.48269 0.08322 0.0
Tb1161 Tb 0.45404 0.5248 0.10911 0.0
C1162 C 0.46254 0.49778 0.16176 0.0
C1163 C 0.4038 0.43895 0.04817 0.0
C1164 C 0.3676 0.41372 0.04681 0.0
C1165 C 0.38036 0.40872 0.03934 0.0
C1166 C 0.39833 0.42125 0.04024 0.0
C1167 C 0.39116 0.44429 0.05197 0.0
C1168 C 0.37315 0.43174 0.0515 0.0
C1169 C 0.4223 0.45115 0.0586 0.0
O1170 O 0.41539 0.4839 0.11134 0.0
O1171 O 0.4282 0.51178 0.14003 0.0
O1172 O 0.43181 0.51728 0.06379 0.0
O1173 O 0.43642 0.49733 0.03106 0.0
O1174 O 0.46142 0.54523 0.15262 0.0
O1175 O 0.46598 0.55128 0.08818 0.0
O1176 O 0.47364 0.5236 0.06851 0.0
O1177 O 0.46596 0.49431 0.07249 0.0
O1178 O 0.45161 0.48419 0.13927 0.0
O1179 O 0.46535 0.51402 0.15505 0.0
C1180 C 0.41434 0.49593 0.1337 0.0
O1181 O 0.43086 0.4647 0.0344 0.0
O1182 O 0.42499 0.45571 0.09712 0.0
C1183 C 0.42784 0.50595 0.0331 0.0
C1184 C 0.48512 0.57471 0.13553 0.0
C1185 C 0.51422 0.60927 0.15575 0.0
C1186 C 0.50995 0.6036 0.11458 0.0
C1187 C 0.49566 0.5867 0.10469 0.0
C1188 C 0.48954 0.58023 0.17663 0.0
C1189 C 0.50381 0.5971 0.18654 0.0
C1190 C 0.46826 0.55781 0.12521 0.0
C1191 C 0.47755 0.51091 0.06406 0.0
H1192 H 0.37658 0.39494 0.03622 0.0
H1193 H 0.40793 0.41693 0.03738 0.0
H1194 H 0.39522 0.45799 0.05783 0.0
H1195 H 0.36364 0.43597 0.05712 0.0
H1196 H 0.51761 0.61225 0.0897 0.0
H1197 H 0.49262 0.5832 0.07266 0.0
H1198 H 0.4816 0.57167 0.2014 0.0
H1199 H 0.50624 0.60078 0.21858 0.0
Tb1200 Tb 0.12559 0.5266 0.60918 0.0
Tb1201 Tb 0.10023 0.48463 0.58466 0.0
C1202 C 0.13292 0.50798 0.53277 0.0
C1203 C 0.14497 0.57659 0.63532 0.0
C1204 C 0.1502 0.61082 0.65659 0.0
C1205 C 0.16019 0.60875 0.62538 0.0
C1206 C 0.15761 0.59198 0.61501 0.0
C1207 C 0.13467 0.57847 0.66597 0.0
C1208 C 0.13718 0.5953 0.67625 0.0
C1209 C 0.14441 0.55938 0.62689 0.0
O1210 O 0.10532 0.5257 0.56741 0.0
O1211 O 0.08374 0.49633 0.57085 0.0
O1212 O 0.09588 0.4867 0.64965 0.0
O1213 O 0.10175 0.51521 0.64964 0.0
O1214 O 0.09518 0.46467 0.54199 0.0
O1215 O 0.07883 0.45909 0.59551 0.0
O1216 O 0.12393 0.48586 0.61039 0.0
O1217 O 0.13808 0.51332 0.64134 0.0
O1218 O 0.14014 0.51925 0.56361 0.0
O1219 O 0.11569 0.49855 0.53108 0.0
C1220 C 0.08879 0.51293 0.56206 0.0
O1221 O 0.13725 0.54666 0.65397 0.0
O1222 O 0.14132 0.55315 0.58949 0.0
C1223 C 0.09319 0.499 0.66508 0.0
C1224 C 0.08752 0.43836 0.57657 0.0
C1225 C 0.09767 0.41328 0.59654 0.0
C1226 C 0.09391 0.42206 0.6276 0.0
C1227 C 0.08899 0.43452 0.61777 0.0
C1228 C 0.09148 0.42981 0.54546 0.0
C1229 C 0.09657 0.41744 0.55531 0.0
C1230 C 0.0836 0.45242 0.56579 0.0
C1231 C 0.13664 0.49775 0.63378 0.0
H1232 H 0.17013 0.62015 0.60885 0.0
H1233 H 0.1659 0.59111 0.59153 0.0
H1234 H 0.12493 0.567 0.68269 0.0
H1235 H 0.12925 0.59617 0.70063 0.0
H1236 H 0.09424 0.41896 0.65965 0.0
H1237 H 0.08633 0.44111 0.64253 0.0
H1238 H 0.0908 0.43283 0.51349 0.0
H1239 H 0.09953 0.41105 0.53063 0.0
Tb1240 Tb 0.54399 0.61467 0.60697 0.0
Tb1241 Tb 0.58595 0.63102 0.58038 0.0
C1242 C 0.56242 0.64047 0.53025 0.0
C1243 C 0.49402 0.58387 0.6334 0.0
C1244 C 0.45932 0.55512 0.65374 0.0
C1245 C 0.46445 0.56026 0.61261 0.0
C1246 C 0.48141 0.57438 0.60268 0.0
C1247 C 0.48905 0.57857 0.67443 0.0
C1248 C 0.4721 0.56446 0.68438 0.0
C1249 C 0.51104 0.60065 0.62334 0.0
O1250 O 0.5451 0.59502 0.56636 0.0
O1251 O 0.57435 0.60265 0.57079 0.0
O1252 O 0.58472 0.61783 0.63759 0.0
O1253 O 0.55479 0.60318 0.65232 0.0
O1254 O 0.60373 0.63739 0.53127 0.0
O1255 O 0.61297 0.6438 0.59372 0.0
O1256 O 0.58471 0.6534 0.60735 0.0
O1257 O 0.55729 0.64045 0.6383 0.0
O1258 O 0.55133 0.63673 0.56134 0.0
O1259 O 0.57109 0.63195 0.52831 0.0
C1260 C 0.55778 0.59108 0.56224 0.0
O1261 O 0.52364 0.60727 0.6507 0.0
O1262 O 0.51751 0.60298 0.58625 0.0
C1263 C 0.57117 0.60649 0.65961 0.0
C1264 C 0.62964 0.66449 0.54376 0.0
C1265 C 0.65512 0.7006 0.5408 0.0
C1266 C 0.6599 0.68764 0.5338 0.0
C1267 C 0.64725 0.66973 0.53549 0.0
C1268 C 0.62449 0.67729 0.54703 0.0
C1269 C 0.63717 0.69526 0.54574 0.0
C1270 C 0.61738 0.64611 0.55509 0.0
C1271 C 0.57295 0.65441 0.6308 0.0
H1272 H 0.4553 0.55342 0.5878 0.0
H1273 H 0.48449 0.57814 0.57078 0.0
H1274 H 0.49811 0.5857 0.69921 0.0
H1275 H 0.46885 0.56131 0.71646 0.0
H1276 H 0.67362 0.69125 0.53049 0.0
H1277 H 0.65142 0.66 0.53301 0.0
H1278 H 0.61085 0.67341 0.55313 0.0
H1279 H 0.63309 0.70493 0.55096 0.0
Tb1280 Tb 0.45467 0.94349 0.61069 0.0
Tb1281 Tb 0.43859 0.96932 0.58813 0.0
C1282 C 0.4286 0.93656 0.53467 0.0
C1283 C 0.48547 0.92451 0.63799 0.0
C1284 C 0.51436 0.91887 0.6585 0.0
C1285 C 0.51015 0.92028 0.61729 0.0
C1286 C 0.49595 0.92298 0.60725 0.0
C1287 C 0.48983 0.92341 0.67914 0.0
C1288 C 0.504 0.92071 0.6892 0.0
C1289 C 0.46868 0.92462 0.62752 0.0
O1290 O 0.47358 0.96396 0.5684 0.0
O1291 O 0.4672 0.98599 0.58054 0.0
O1292 O 0.4466 0.97512 0.65189 0.0
O1293 O 0.46755 0.96676 0.65315 0.0
O1294 O 0.4331 0.98256 0.54154 0.0
O1295 O 0.42671 0.9841 0.6046 0.0
O1296 O 0.41555 0.94473 0.60876 0.0
O1297 O 0.4288 0.93118 0.6424 0.0
O1298 O 0.43292 0.92902 0.56436 0.0
O1299 O 0.43631 0.9538 0.53418 0.0
C1300 C 0.47817 0.98084 0.56769 0.0
O1301 O 0.46194 0.93051 0.65472 0.0
O1302 O 0.46644 0.92878 0.59034 0.0
C1303 C 0.46082 0.97622 0.66821 0.0
C1304 C 0.40642 0.98188 0.55536 0.0
C1305 C 0.37055 0.97193 0.55024 0.0
C1306 C 0.38381 0.98982 0.54693 0.0
C1307 C 0.40161 0.99475 0.54969 0.0
C1308 C 0.39335 0.96392 0.55536 0.0
C1309 C 0.3755 0.95897 0.55307 0.0
C1310 C 0.42464 0.98727 0.5666 0.0
C1311 C 0.41459 0.93222 0.6331 0.0
H1312 H 0.51778 0.91922 0.59249 0.0
H1313 H 0.49295 0.92343 0.57518 0.0
H1314 H 0.48191 0.92408 0.70383 0.0
H1315 H 0.5064 0.91946 0.72128 0.0
H1316 H 0.38044 1.00015 0.54537 0.0
H1317 H 0.41154 1.00865 0.54975 0.0
H1318 H 0.39691 0.95381 0.55936 0.0
H1319 H 0.36559 0.94511 0.55553 0.0
Tb1320 Tb 0.20543 0.44518 0.26344 0.0
Tb1321 Tb 0.16332 0.41904 0.28387 0.0
C1322 C 0.18546 0.45173 0.33838 0.0
C1323 C 0.25526 0.46475 0.23535 0.0
C1324 C 0.28966 0.47009 0.2153 0.0
C1325 C 0.2802 0.46004 0.24993 0.0
C1326 C 0.26334 0.4575 0.25995 0.0
C1327 C 0.26449 0.47438 0.20033 0.0
C1328 C 0.28132 0.477 0.19048 0.0
C1329 C 0.23835 0.46426 0.24715 0.0
O1330 O 0.2037 0.42458 0.30546 0.0
O1331 O 0.1754 0.40249 0.2919 0.0
O1332 O 0.16602 0.41401 0.2199 0.0
O1333 O 0.19528 0.42213 0.22031 0.0
O1334 O 0.14418 0.40552 0.32945 0.0
O1335 O 0.13681 0.40407 0.26594 0.0
O1336 O 0.16484 0.44365 0.26337 0.0
O1337 O 0.19204 0.45759 0.23153 0.0
O1338 O 0.19781 0.45942 0.3097 0.0
O1339 O 0.17592 0.43449 0.3384 0.0
C1340 C 0.19148 0.40766 0.30541 0.0
O1341 O 0.22574 0.4589 0.21991 0.0
O1342 O 0.23194 0.45929 0.28409 0.0
C1343 C 0.17922 0.41293 0.20419 0.0
C1344 C 0.11827 0.40614 0.31393 0.0
C1345 C 0.09236 0.4161 0.31784 0.0
C1346 C 0.08766 0.3982 0.32102 0.0
C1347 C 0.10053 0.39326 0.31886 0.0
C1348 C 0.12319 0.4241 0.31389 0.0
C1349 C 0.11031 0.42906 0.31556 0.0
C1350 C 0.13122 0.40081 0.30365 0.0
C1351 C 0.17665 0.45638 0.23989 0.0
H1352 H 0.28606 0.45455 0.27015 0.0
H1353 H 0.2568 0.45016 0.28742 0.0
H1354 H 0.25883 0.4803 0.18082 0.0
H1355 H 0.28781 0.48454 0.16321 0.0
H1356 H 0.07392 0.38787 0.32215 0.0
H1357 H 0.09653 0.37936 0.3188 0.0
H1358 H 0.1369 0.43423 0.31044 0.0
H1359 H 0.11429 0.44292 0.31319 0.0
Tb1360 Tb 0.62418 0.77464 0.25926 0.0
Tb1361 Tb 0.64979 0.75851 0.28453 0.0
C1362 C 0.61702 0.74911 0.3365 0.0
C1363 C 0.60533 0.80545 0.23087 0.0
C1364 C 0.59981 0.83447 0.21076 0.0
C1365 C 0.60191 0.83061 0.25182 0.0
C1366 C 0.60456 0.81636 0.26168 0.0
C1367 C 0.60354 0.80946 0.18985 0.0
C1368 C 0.6009 0.82369 0.17998 0.0
C1369 C 0.6054 0.78863 0.24128 0.0
O1370 O 0.64457 0.79404 0.30083 0.0
O1371 O 0.66651 0.78708 0.29348 0.0
O1372 O 0.65629 0.76646 0.22087 0.0
O1373 O 0.64768 0.78724 0.21741 0.0
O1374 O 0.66122 0.75162 0.3327 0.0
O1375 O 0.66564 0.7476 0.26974 0.0
O1376 O 0.6253 0.73549 0.26285 0.0
O1377 O 0.61205 0.74873 0.22787 0.0
O1378 O 0.60955 0.75302 0.30589 0.0
O1379 O 0.63425 0.75717 0.33758 0.0
C1380 C 0.66132 0.79832 0.304 0.0
O1381 O 0.61159 0.78204 0.21441 0.0
O1382 O 0.60919 0.78622 0.27868 0.0
C1383 C 0.65735 0.78051 0.20359 0.0
C1384 C 0.66183 0.72578 0.31637 0.0
C1385 C 0.65208 0.68989 0.31644 0.0
C1386 C 0.66986 0.70313 0.32194 0.0
C1387 C 0.67469 0.72094 0.32168 0.0
C1388 C 0.64393 0.71265 0.31415 0.0
C1389 C 0.63908 0.6948 0.31391 0.0
C1390 C 0.66726 0.74426 0.30788 0.0
C1391 C 0.61297 0.7345 0.23782 0.0
H1392 H 0.60145 0.83858 0.27666 0.0
H1393 H 0.60558 0.81366 0.29369 0.0
H1394 H 0.60362 0.80121 0.16518 0.0
H1395 H 0.59909 0.8258 0.14804 0.0
H1396 H 0.68023 0.69981 0.32336 0.0
H1397 H 0.68855 0.73093 0.32333 0.0
H1398 H 0.63381 0.71621 0.31047 0.0
H1399 H 0.62531 0.68489 0.30982 0.0
Tb1400 Tb 0.29419 0.86365 0.26516 0.0
Tb1401 Tb 0.31055 0.90518 0.29254 0.0
C1402 C 0.3195 0.88124 0.34279 0.0
C1403 C 0.26329 0.81405 0.23587 0.0
C1404 C 0.23433 0.77952 0.21524 0.0
C1405 C 0.23824 0.78526 0.25642 0.0
C1406 C 0.25247 0.80215 0.26653 0.0
C1407 C 0.25921 0.80847 0.19474 0.0
C1408 C 0.24501 0.7916 0.18461 0.0
C1409 C 0.2801 0.83092 0.24648 0.0
O1410 O 0.27489 0.86459 0.30722 0.0
O1411 O 0.28196 0.89351 0.29948 0.0
O1412 O 0.30255 0.90434 0.22927 0.0
O1413 O 0.28196 0.87494 0.2232 0.0
O1414 O 0.31729 0.92291 0.34188 0.0
O1415 O 0.32178 0.93216 0.27946 0.0
O1416 O 0.33352 0.90386 0.27004 0.0
O1417 O 0.32016 0.8776 0.23407 0.0
O1418 O 0.31586 0.87031 0.31141 0.0
O1419 O 0.31112 0.89007 0.34458 0.0
C1420 C 0.2706 0.87707 0.30981 0.0
O1421 O 0.2867 0.84384 0.21986 0.0
O1422 O 0.28252 0.83696 0.28401 0.0
C1423 C 0.28854 0.8916 0.21116 0.0
C1424 C 0.34331 0.94955 0.32726 0.0
C1425 C 0.37921 0.97572 0.32837 0.0
C1426 C 0.36599 0.98021 0.33424 0.0
C1427 C 0.34817 0.96722 0.33348 0.0
C1428 C 0.35641 0.94479 0.32471 0.0
C1429 C 0.37427 0.9578 0.32505 0.0
C1430 C 0.32487 0.93663 0.31791 0.0
C1431 C 0.33443 0.89267 0.24441 0.0
H1432 H 0.23035 0.77666 0.28115 0.0
H1433 H 0.25523 0.8057 0.29861 0.0
H1434 H 0.26739 0.81697 0.17016 0.0
H1435 H 0.24284 0.78785 0.15258 0.0
H1436 H 0.36931 0.9939 0.33625 0.0
H1437 H 0.33821 0.97109 0.33536 0.0
H1438 H 0.35283 0.93112 0.32025 0.0
H1439 H 0.38416 0.95395 0.32068 0.0
H1440 H 0.27693 0.10236 0.98033 0.0
H1441 H 0.24658 0.08171 0.09143 0.0
H1442 H 0.27021 0.07276 0.96125 0.0
H1443 H 0.2406 0.05218 0.07331 0.0
H1444 H 0.21841 0.99759 1.0109 0.0
H1445 H 0.22478 1.02712 0.03126 0.0
H1446 H 0.27581 0.04968 0.97273 0.0
H1447 H 0.26923 1.02035 0.95162 0.0
C1448 C 0.26881 0.09158 1.0009 0.0
C1449 C 0.26236 0.09482 0.03763 0.0
C1450 C 0.26512 0.07443 0.99011 0.0
C1451 C 0.25482 0.05968 1.01556 0.0
C1452 C 0.2484 0.06292 0.05236 0.0
C1453 C 0.25209 0.08009 0.06315 0.0
C1454 C 0.23104 1.00882 1.00251 0.0
C1455 C 0.24323 1.0063 0.97943 0.0
C1456 C 0.23478 1.02591 1.0144 0.0
C1457 C 0.25087 0.04119 1.00372 0.0
C1458 C 0.26312 0.03855 0.98111 0.0
C1459 C 0.25937 1.02152 0.96919 0.0
H1460 H 0.07217 0.23668 1.0111 0.0
H1461 H 0.0495 0.26451 0.95022 0.0
H1462 H 0.04263 0.21357 0.0317 0.0
H1463 H 1.02016 0.24181 0.97159 0.0
H1464 H 0.96751 0.19016 0.97985 0.0
H1465 H 0.9971 0.21305 0.96064 0.0
H1466 H 1.01758 0.20447 0.07352 0.0
H1467 H 0.98806 0.1809 0.09176 0.0
C1468 C 0.06095 0.23804 1.00244 0.0
C1469 C 0.06349 0.25267 0.97885 0.0
C1470 C 0.04386 0.22472 1.01447 0.0
C1471 C 1.02862 0.22549 1.0034 0.0
C1472 C 1.03127 0.24029 0.98029 0.0
C1473 C 0.04831 0.25355 0.96823 0.0
C1474 C 0.97827 0.19293 1.00057 0.0
C1475 C 0.975 0.18335 0.03756 0.0
C1476 C 0.99541 0.20639 0.98971 0.0
C1477 C 1.01012 0.21096 1.01535 0.0
C1478 C 1.00687 0.20143 0.05242 0.0
C1479 C 0.9897 0.18794 0.06328 0.0
H1480 H 0.80418 0.79985 0.95943 0.0
H1481 H 0.83558 0.85303 1.00536 0.0
H1482 H 0.82682 0.79319 0.98096 0.0
H1483 H 0.85859 0.84649 0.02616 0.0
H1484 H 0.89143 0.82533 0.08928 0.0
H1485 H 0.86806 0.83161 0.07139 0.0
H1486 H 0.8549 0.79759 0.96568 0.0
H1487 H 0.87765 0.79067 0.98462 0.0
C1488 C 0.81592 0.81021 0.97415 0.0
C1489 C 0.81786 0.82706 0.98048 0.0
C1490 C 0.82911 0.80639 0.9863 0.0
C1491 C 0.84488 0.81926 1.00518 0.0
C1492 C 0.84669 0.83606 1.01218 0.0
C1493 C 0.83343 0.83988 1.00007 0.0
C1494 C 0.88343 0.81894 0.0625 0.0
C1495 C 0.88667 0.80737 0.03866 0.0
C1496 C 0.87006 0.82278 0.05182 0.0
C1497 C 0.85932 0.81519 1.01688 0.0
C1498 C 0.86255 0.8036 0.99312 0.0
C1499 C 0.87591 0.79978 1.00378 0.0
H1500 H 1.01 0.20613 0.52847 0.0
H1501 H 1.03229 0.25641 0.59029 0.0
H1502 H 1.0396 0.21277 0.50846 0.0
H1503 H 0.06177 0.26328 0.56943 0.0
H1504 H 0.11446 0.26419 0.56201 0.0
H1505 H 0.08484 0.25756 0.5806 0.0
H1506 H 0.06469 0.22895 0.46711 0.0
H1507 H 0.0942 0.23483 0.44948 0.0
C1508 C 1.02115 0.21872 0.53741 0.0
C1509 C 1.01847 0.23069 0.56103 0.0
C1510 C 1.03828 0.22261 0.52573 0.0
C1511 C 0.05346 0.23863 0.53718 0.0
C1512 C 0.05069 0.25067 0.56036 0.0
C1513 C 1.03359 0.24677 0.57209 0.0
C1514 C 0.10376 0.25632 0.54102 0.0
C1515 C 0.1071 0.25009 0.50405 0.0
C1516 C 0.08661 0.25268 0.55153 0.0
C1517 C 0.07198 0.24267 0.52555 0.0
C1518 C 0.07533 0.23651 0.48848 0.0
C1519 C 0.0925 0.24014 0.47797 0.0
H1520 H 0.83526 0.87506 0.44761 0.0
H1521 H 0.80465 0.86501 0.55833 0.0
H1522 H 0.84113 0.85143 0.46564 0.0
H1523 H 0.81125 0.84204 0.57734 0.0
H1524 H 0.81216 0.79057 0.58663 0.0
H1525 H 0.80561 0.81334 0.5654 0.0
H1526 H 0.85688 0.84222 0.50807 0.0
H1527 H 0.86323 0.81907 0.52854 0.0
C1528 C 0.82968 0.86784 0.47578 0.0
C1529 C 0.81937 0.87222 0.50124 0.0
C1530 C 0.8333 0.85431 0.48653 0.0
C1531 C 0.82676 0.84454 0.5232 0.0
C1532 C 0.81642 0.8489 0.54857 0.0
C1533 C 0.8128 0.8624 0.53784 0.0
C1534 C 0.82207 0.8017 0.56928 0.0
C1535 C 0.83828 0.80276 0.55941 0.0
C1536 C 0.81834 0.81498 0.55729 0.0
C1537 C 0.83068 0.82999 0.53501 0.0
C1538 C 0.84683 0.83092 0.52466 0.0
C1539 C 0.85055 0.81758 0.53661 0.0
H1540 H 0.19186 0.9738 0.45028 0.0
H1541 H 0.20383 0.95335 0.55866 0.0
H1542 H 0.2155 1.00344 0.46747 0.0
H1543 H 0.2269 0.98307 0.57685 0.0
H1544 H 0.27814 0.03603 0.58306 0.0
H1545 H 0.25538 1.00652 0.56255 0.0
H1546 H 0.22476 0.02815 0.51095 0.0
H1547 H 0.24783 0.05781 0.53074 0.0
C1548 C 0.19952 0.9755 0.47775 0.0
C1549 C 0.19569 0.96081 0.50282 0.0
C1550 C 0.21305 0.99272 0.48801 0.0
C1551 C 0.22338 0.99602 0.52378 0.0
C1552 C 0.21958 0.98132 0.54877 0.0
C1553 C 0.20604 0.96412 0.53852 0.0
C1554 C 0.26664 0.03461 0.56709 0.0
C1555 C 0.26505 0.04959 0.55864 0.0
C1556 C 0.25338 1.01749 0.55554 0.0
C1557 C 0.2379 1.01458 0.5351 0.0
C1558 C 0.23644 0.02962 0.5261 0.0
C1559 C 0.24974 0.04677 0.53765 0.0
H1560 H 0.86507 0.05919 0.03132 0.0
H1561 H 0.81285 0.03655 0.08336 0.0
H1562 H 0.85879 0.0297 1.01079 0.0
H1563 H 0.80641 1.0073 0.06207 0.0
H1564 H 0.80486 0.95443 0.05638 0.0
H1565 H 0.81156 0.98401 0.07557 0.0
H1566 H 0.84355 1.00508 0.96683 0.0
H1567 H 0.83755 0.97554 0.94868 0.0
C1568 C 0.85217 0.048 0.03806 0.0
C1569 C 0.83955 0.05051 0.0592 0.0
C1570 C 0.8485 0.03095 0.02608 0.0
C1571 C 0.83205 1.01575 0.03474 0.0
C1572 C 0.81937 1.01838 0.05535 0.0
C1573 C 0.82305 0.03536 0.06737 0.0
C1574 C 0.81348 0.96532 0.0366 0.0
C1575 C 0.8206 0.96223 1.00079 0.0
C1576 C 0.81717 0.98245 0.04742 0.0
C1577 C 0.82813 0.9973 0.0229 0.0
C1578 C 0.83523 0.99423 0.98703 0.0
C1579 C 0.83154 0.97707 0.9762 0.0
H1580 H 0.09449 0.87674 0.95046 0.0
H1581 H 0.11482 0.8657 0.06038 0.0
H1582 H 0.06484 0.85315 0.96791 0.0
H1583 H 0.08512 0.84274 0.07879 0.0
H1584 H 1.03267 0.79121 0.08552 0.0
H1585 H 0.06204 0.81413 0.06505 0.0
H1586 H 1.03987 0.8438 1.01081 0.0
H1587 H 1.01026 0.82049 0.03057 0.0
C1588 C 0.09276 0.86931 0.97833 0.0
C1589 C 0.10742 0.87337 1.00374 0.0
C1590 C 0.07555 0.85581 0.98873 0.0
C1591 C 0.07222 0.84576 0.02497 0.0
C1592 C 0.08689 0.84983 0.05033 0.0
C1593 C 0.10408 0.86331 0.03995 0.0
C1594 C 1.03393 0.80255 0.06904 0.0
C1595 C 1.01882 0.80378 0.05982 0.0
C1596 C 0.05098 0.81591 0.0575 0.0
C1597 C 0.05371 0.83117 0.03632 0.0
C1598 C 1.03854 0.8323 0.02659 0.0
C1599 C 1.02143 0.81887 0.03812 0.0
H1600 H 0.24913 0.20556 0.03105 0.0
H1601 H 0.27757 0.25671 0.08898 0.0
H1602 H 0.2259 0.21183 1.0107 0.0
H1603 H 0.25472 0.26315 0.06791 0.0
H1604 H 0.20291 0.2638 0.06153 0.0
H1605 H 0.22592 0.25723 0.08038 0.0
H1606 H 0.21678 0.22772 0.96812 0.0
H1607 H 0.19313 0.23359 0.9502 0.0
C1608 C 0.25059 0.21824 0.03912 0.0
C1609 C 0.26541 0.23056 0.06182 0.0
C1610 C 0.2372 0.2219 0.02725 0.0
C1611 C 0.23812 0.23804 0.03762 0.0
C1612 C 0.25312 0.25043 0.05981 0.0
C1613 C 0.26644 0.24676 0.07169 0.0
C1614 C 0.2056 0.25575 0.04088 0.0
C1615 C 0.19586 0.24928 1.00416 0.0
C1616 C 0.21911 0.25214 0.05152 0.0
C1617 C 0.22354 0.24191 0.02593 0.0
C1618 C 0.21383 0.23547 0.98914 0.0
C1619 C 0.20031 0.23908 0.97848 0.0
H1620 H 0.07134 0.84943 0.51052 0.0
H1621 H 0.04868 0.799 0.44931 0.0
H1622 H 0.04179 0.84303 0.53053 0.0
H1623 H 1.0193 0.7924 0.47006 0.0
H1624 H 0.96675 0.79165 0.47726 0.0
H1625 H 0.99636 0.79825 0.45864 0.0
H1626 H 1.01658 0.82699 0.57193 0.0
H1627 H 0.98706 0.82112 0.58963 0.0
C1628 C 0.06012 0.83688 0.50165 0.0
C1629 C 0.06268 0.82481 0.47813 0.0
C1630 C 0.04302 0.83312 0.51333 0.0
C1631 C 1.02776 0.81714 0.502 0.0
C1632 C 1.03042 0.805 0.47897 0.0
C1633 C 0.04748 0.80876 0.46725 0.0
C1634 C 0.97746 0.79954 0.49821 0.0
C1635 C 0.97412 0.80579 0.53515 0.0
C1636 C 0.99461 0.80317 0.48767 0.0
C1637 C 1.00925 0.8132 0.5136 0.0
C1638 C 1.00592 0.81941 0.55062 0.0
C1639 C 0.98875 0.81578 0.56116 0.0
H1640 H 0.27754 0.19094 0.48427 0.0
H1641 H 0.24312 0.1772 0.58932 0.0
H1642 H 0.27085 0.21394 0.466 0.0
H1643 H 0.23705 0.20079 0.57208 0.0
H1644 H 0.21593 0.23382 0.50746 0.0
H1645 H 0.22227 0.21059 0.52748 0.0
H1646 H 0.27548 0.2421 0.48169 0.0
H1647 H 0.26902 0.26499 0.46097 0.0
C1648 C 0.26853 0.19274 0.50365 0.0
C1649 C 0.26094 0.18191 0.53846 0.0
C1650 C 0.26483 0.20624 0.49338 0.0
C1651 C 0.25338 0.20955 0.51744 0.0
C1652 C 0.24579 0.19874 0.55227 0.0
C1653 C 0.2495 0.18523 0.56258 0.0
C1654 C 0.22903 0.23588 0.50188 0.0
C1655 C 0.24188 0.25146 0.48238 0.0
C1656 C 0.23273 0.22248 0.51354 0.0
C1657 C 0.24943 0.22414 0.50616 0.0
C1658 C 0.26234 0.23991 0.48734 0.0
C1659 C 0.25864 0.25325 0.47566 0.0
H1660 H 0.88993 0.08079 0.58859 0.0
H1661 H 0.87854 0.10131 0.47948 0.0
H1662 H 0.86637 0.05115 0.57096 0.0
H1663 H 0.85559 0.07161 0.4609 0.0
H1664 H 0.80417 1.01899 0.45399 0.0
H1665 H 0.82707 0.04837 0.47458 0.0
H1666 H 0.85697 1.02625 0.52777 0.0
H1667 H 0.83369 0.99664 0.50787 0.0
C1668 C 0.88242 0.07911 0.56086 0.0
C1669 C 0.88639 0.09382 0.53573 0.0
C1670 C 0.86894 0.06189 0.55035 0.0
C1671 C 0.85879 0.05861 0.51428 0.0
C1672 C 0.86276 0.07333 0.48921 0.0
C1673 C 0.87623 0.09053 0.4997 0.0
C1674 C 0.81556 1.02026 0.47025 0.0
C1675 C 0.81686 1.00516 0.47913 0.0
C1676 C 0.8289 0.03732 0.48187 0.0
C1677 C 0.84422 0.04008 0.50281 0.0
C1678 C 0.84543 1.02492 0.51219 0.0
C1679 C 0.83201 1.0078 0.50057 0.0
H1680 H 0.94534 0.43529 0.31675 0.0
H1681 H 0.91259 0.4143 0.42439 0.0
H1682 H 0.93875 0.40567 0.29798 0.0
H1683 H 0.9067 0.38479 0.40669 0.0
H1684 H 0.88477 0.33067 0.34296 0.0
H1685 H 0.89139 0.36025 0.36312 0.0
H1686 H 0.9436 0.38208 0.31117 0.0
H1687 H 0.93679 0.35262 0.29017 0.0
C1688 C 0.93673 0.42443 0.33661 0.0
C1689 C 0.92955 0.42756 0.37227 0.0
C1690 C 0.9331 0.40728 0.32603 0.0
C1691 C 0.92214 0.39246 0.35063 0.0
C1692 C 0.91502 0.3956 0.38639 0.0
C1693 C 0.91865 0.41275 0.39698 0.0
C1694 C 0.89773 0.34173 0.33602 0.0
C1695 C 0.91018 0.33897 0.31482 0.0
C1696 C 0.9016 0.35885 0.34782 0.0
C1697 C 0.91809 0.37394 0.3389 0.0
C1698 C 0.93062 0.37108 0.31818 0.0
C1699 C 0.92674 0.35399 0.30635 0.0
H1700 H 0.71579 0.59697 0.28085 0.0
H1701 H 0.73861 0.56957 0.34306 0.0
H1702 H 0.68645 0.57417 0.30207 0.0
H1703 H 0.7091 0.54639 0.36354 0.0
H1704 H 0.65445 0.51368 0.42315 0.0
H1705 H 0.68393 0.53739 0.4051 0.0
H1706 H 0.66364 0.54518 0.29101 0.0
H1707 H 0.63406 0.5221 0.30995 0.0
C1708 C 0.71463 0.58609 0.29912 0.0
C1709 C 0.72985 0.58534 0.31014 0.0
C1710 C 0.69761 0.57278 0.3111 0.0
C1711 C 0.69501 0.55808 0.33453 0.0
C1712 C 0.71029 0.55745 0.34602 0.0
C1713 C 0.72736 0.57082 0.33407 0.0
C1714 C 0.65612 0.52056 0.39442 0.0
C1715 C 0.6415 0.51571 0.36827 0.0
C1716 C 0.67326 0.53414 0.38369 0.0
C1717 C 0.67655 0.54348 0.34635 0.0
C1718 C 0.6619 0.53866 0.32028 0.0
C1719 C 0.64478 0.5251 0.331 0.0
H1720 H 0.49973 0.1837 0.34278 0.0
H1721 H 0.46968 0.13187 0.2888 0.0
H1722 H 0.52276 0.1771 0.36246 0.0
H1723 H 0.49241 0.1251 0.30925 0.0
H1724 H 0.54401 0.12359 0.31397 0.0
H1725 H 0.52093 0.13018 0.29572 0.0
H1726 H 0.53204 0.1616 0.40547 0.0
H1727 H 0.55569 0.15568 0.42273 0.0
C1728 C 0.49786 0.17079 0.33548 0.0
C1729 C 0.48262 0.15838 0.31408 0.0
C1730 C 0.51115 0.16693 0.34698 0.0
C1731 C 0.50977 0.1505 0.33755 0.0
C1732 C 0.49437 0.13803 0.31665 0.0
C1733 C 0.48111 0.14188 0.30514 0.0
C1734 C 0.54174 0.13206 0.33419 0.0
C1735 C 0.55203 0.13904 0.37002 0.0
C1736 C 0.52818 0.13568 0.3239 0.0
C1737 C 0.52429 0.14648 0.34894 0.0
C1738 C 0.53455 0.15341 0.38484 0.0
C1739 C 0.5481 0.14977 0.39516 0.0
H1740 H 0.76034 0.56526 0.78182 0.0
H1741 H 0.78133 0.59846 0.88882 0.0
H1742 H 0.73081 0.55931 0.79948 0.0
H1743 H 0.75171 0.5918 0.90759 0.0
H1744 H 0.6986 0.58958 0.91569 0.0
H1745 H 0.72805 0.59643 0.89453 0.0
H1746 H 0.70626 0.54415 0.84289 0.0
H1747 H 0.67669 0.53751 0.86313 0.0
C1748 C 0.75879 0.5714 0.80909 0.0
C1749 C 0.77361 0.58245 0.83362 0.0
C1750 C 0.74162 0.56774 0.81965 0.0
C1751 C 0.73847 0.57496 0.85524 0.0
C1752 C 0.75331 0.58607 0.87966 0.0
C1753 C 0.77047 0.58973 0.86909 0.0
C1754 C 0.69998 0.57953 0.89952 0.0
C1755 C 0.68498 0.56294 0.89117 0.0
C1756 C 0.71707 0.58343 0.88761 0.0
C1757 C 0.71994 0.57089 0.86696 0.0
C1758 C 0.70487 0.55437 0.85814 0.0
C1759 C 0.68775 0.55048 0.86998 0.0
H1760 H 0.53109 0.15377 0.86532 0.0
H1761 H 0.47935 0.1244 0.91998 0.0
H1762 H 0.52473 0.17699 0.84519 0.0
H1763 H 0.47284 0.14722 0.89916 0.0
H1764 H 0.47145 0.19864 0.89367 0.0
H1765 H 0.47826 0.17579 0.91251 0.0
H1766 H 0.50907 0.18621 0.80198 0.0
H1767 H 0.50293 0.20968 0.78409 0.0
C1768 C 0.51828 0.15211 0.87274 0.0
C1769 C 0.50581 0.13703 0.89446 0.0
C1770 C 0.51456 0.16549 0.861 0.0
C1771 C 0.49822 0.1643 0.87052 0.0
C1772 C 0.48571 0.14904 0.89174 0.0
C1773 C 0.48943 0.13574 0.90349 0.0
C1774 C 0.47983 0.19627 0.87341 0.0
C1775 C 0.48657 0.2063 0.83716 0.0
C1776 C 0.48359 0.18286 0.88404 0.0
C1777 C 0.49425 0.17882 0.85891 0.0
C1778 C 0.50098 0.18884 0.82263 0.0
C1779 C 0.49721 0.20227 0.81198 0.0
H1780 H 0.87033 0.2874 0.89127 0.0
H1781 H 0.85934 0.30823 0.78211 0.0
H1782 H 0.89327 0.31702 0.9103 0.0
H1783 H 0.88293 0.33779 0.80014 0.0
H1784 H 0.9156 0.39214 0.8636 0.0
H1785 H 0.89232 0.3626 0.84332 0.0
H1786 H 0.92183 0.34023 0.89741 0.0
H1787 H 0.94471 0.36955 0.91845 0.0
C1788 C 0.87273 0.29823 0.87112 0.0
C1789 C 0.86267 0.29505 0.83496 0.0
C1790 C 0.88621 0.31538 0.88186 0.0
C1791 C 0.8903 0.33017 0.85691 0.0
C1792 C 0.88027 0.327 0.82068 0.0
C1793 C 0.86676 0.30982 0.80993 0.0
C1794 C 0.91719 0.38095 0.87103 0.0
C1795 C 0.93222 0.38349 0.89284 0.0
C1796 C 0.90378 0.36387 0.85918 0.0
C1797 C 0.90487 0.34865 0.86867 0.0
C1798 C 0.92008 0.35132 0.89 0.0
C1799 C 0.93342 0.36834 0.90188 0.0
H1800 H 0.50112 0.30745 0.28278 0.0
H1801 H 0.4722 0.28714 0.39577 0.0
H1802 H 0.50695 0.33694 0.30059 0.0
H1803 H 0.47875 0.31675 0.4145 0.0
H1804 H 0.4796 0.36921 0.42432 0.0
H1805 H 0.47283 0.33974 0.40347 0.0
H1806 H 0.52321 0.36208 0.34198 0.0
H1807 H 0.52975 0.39166 0.36201 0.0
C1808 C 0.4959 0.30914 0.31141 0.0
C1809 C 0.48608 0.29453 0.33757 0.0
C1810 C 0.4995 0.32629 0.32202 0.0
C1811 C 0.49344 0.32962 0.35925 0.0
C1812 C 0.48356 0.31499 0.38531 0.0
C1813 C 0.47996 0.29785 0.37471 0.0
C1814 C 0.48924 0.36794 0.40605 0.0
C1815 C 0.50526 0.38311 0.39487 0.0
C1816 C 0.4854 0.35085 0.39431 0.0
C1817 C 0.49743 0.34813 0.37096 0.0
C1818 C 0.51338 0.36335 0.35939 0.0
C1819 C 0.51721 0.38048 0.3711 0.0
H1820 H 0.69936 0.12486 0.42378 0.0
H1821 H 0.67667 0.15264 0.36277 0.0
H1822 H 0.72872 0.14769 0.40283 0.0
H1823 H 0.70621 0.17586 0.34256 0.0
H1824 H 0.7609 0.20874 0.28308 0.0
H1825 H 0.73138 0.18506 0.30096 0.0
H1826 H 0.75167 0.17654 0.4142 0.0
H1827 H 0.78128 0.19958 0.3954 0.0
C1828 C 0.70055 0.13584 0.40584 0.0
C1829 C 0.68535 0.13667 0.39508 0.0
C1830 C 0.71759 0.14916 0.39401 0.0
C1831 C 0.72025 0.16399 0.37098 0.0
C1832 C 0.70499 0.1647 0.35976 0.0
C1833 C 0.68789 0.15132 0.37156 0.0
C1834 C 0.75922 0.2017 0.31158 0.0
C1835 C 0.77387 0.20635 0.33752 0.0
C1836 C 0.74205 0.18814 0.32222 0.0
C1837 C 0.73875 0.17859 0.35928 0.0
C1838 C 0.75341 0.18322 0.38514 0.0
C1839 C 0.77056 0.19676 0.3745 0.0
H1840 H 0.84555 0.55217 0.32982 0.0
H1841 H 0.88161 0.60812 0.34245 0.0
H1842 H 0.86895 0.54621 0.34906 0.0
H1843 H 0.9052 0.60225 0.36098 0.0
H1844 H 0.94073 0.58647 0.43017 0.0
H1845 H 0.91748 0.59241 0.40998 0.0
H1846 H 0.89482 0.54621 0.33223 0.0
H1847 H 0.91791 0.53995 0.35381 0.0
C1848 C 0.85853 0.56329 0.33618 0.0
C1849 C 0.86145 0.5807 0.33431 0.0
C1850 C 0.87212 0.55985 0.34725 0.0
C1851 C 0.88931 0.57365 0.35677 0.0
C1852 C 0.89223 0.59108 0.35478 0.0
C1853 C 0.87859 0.59452 0.34397 0.0
C1854 C 0.93087 0.57754 0.40861 0.0
C1855 C 0.93144 0.56268 0.39373 0.0
C1856 C 0.91743 0.58105 0.39669 0.0
C1857 C 0.90395 0.56991 0.36912 0.0
C1858 C 0.90462 0.55508 0.35396 0.0
C1859 C 0.91805 0.55151 0.36612 0.0
H1860 H 0.71582 0.13299 0.78949 0.0
H1861 H 0.73848 0.18504 0.84259 0.0
H1862 H 0.68657 0.12652 0.81077 0.0
H1863 H 0.70898 0.17874 0.86314 0.0
H1864 H 0.65471 0.15726 0.92501 0.0
H1865 H 0.68427 0.16336 0.90683 0.0
H1866 H 0.66333 0.13172 0.79751 0.0
H1867 H 0.63373 0.12492 0.81671 0.0
C1868 C 0.71464 0.14315 0.80572 0.0
C1869 C 0.72979 0.15961 0.81417 0.0
C1870 C 0.69766 0.13945 0.81773 0.0
C1871 C 0.69502 0.15207 0.83864 0.0
C1872 C 0.71023 0.16849 0.8476 0.0
C1873 C 0.72728 0.17218 0.83561 0.0
C1874 C 0.65627 0.15135 0.89735 0.0
C1875 C 0.64146 0.14048 0.87261 0.0
C1876 C 0.67344 0.1551 0.88651 0.0
C1877 C 0.67656 0.14812 0.85047 0.0
C1878 C 0.66173 0.13724 0.8258 0.0
C1879 C 0.64459 0.13349 0.83663 0.0
H1880 H 0.93587 0.59791 0.78951 0.0
H1881 H 0.88366 0.56782 0.84139 0.0
H1882 H 0.94246 0.57515 0.8104 0.0
H1883 H 0.8901 0.54466 0.86158 0.0
H1884 H 0.91165 0.51181 0.92312 0.0
H1885 H 0.90539 0.53521 0.90523 0.0
H1886 H 0.93758 0.54684 0.79667 0.0
H1887 H 0.94451 0.52409 0.81558 0.0
C1888 C 0.9257 0.58642 0.80538 0.0
C1889 C 0.90916 0.58492 0.8136 0.0
C1890 C 0.92947 0.57314 0.81718 0.0
C1891 C 0.91685 0.5577 0.83764 0.0
C1892 C 0.90035 0.5563 0.84638 0.0
C1893 C 0.89659 0.56964 0.83459 0.0
C1894 C 0.91765 0.51948 0.89569 0.0
C1895 C 0.92871 0.5158 0.87108 0.0
C1896 C 0.91381 0.53287 0.88501 0.0
C1897 C 0.92089 0.54321 0.84928 0.0
C1898 C 0.93196 0.53953 0.82473 0.0
C1899 C 0.93579 0.52616 0.83539 0.0
H1900 H 0.54663 0.43431 0.80854 0.0
H1901 H 0.55402 0.41425 0.92342 0.0
H1902 H 0.5236 0.40471 0.78961 0.0
H1903 H 0.53033 0.38474 0.90534 0.0
H1904 H 0.49842 0.32989 0.84404 0.0
H1905 H 0.5216 0.35943 0.86436 0.0
H1906 H 0.49448 0.38212 0.80013 0.0
H1907 H 0.47168 0.35274 0.77902 0.0
C1908 C 0.54341 0.42365 0.82996 0.0
C1909 C 0.5525 0.42702 0.86769 0.0
C1910 C 0.52989 0.40653 0.81924 0.0
C1911 C 0.52478 0.39198 0.84578 0.0
C1912 C 0.53382 0.39535 0.88359 0.0
C1913 C 0.54737 0.41249 0.89432 0.0
C1914 C 0.49732 0.34116 0.83438 0.0
C1915 C 0.48298 0.33868 0.80976 0.0
C1916 C 0.51068 0.35824 0.84625 0.0
C1917 C 0.51022 0.37352 0.83397 0.0
C1918 C 0.49572 0.37094 0.80979 0.0
C1919 C 0.48242 0.35391 0.79789 0.0
H1920 H 0.6122 0.7686 0.64983 0.0
H1921 H 0.57886 0.74728 0.75648 0.0
H1922 H 0.60565 0.73904 0.6307 0.0
H1923 H 0.57299 0.71779 0.73841 0.0
H1924 H 0.55154 0.66389 0.67346 0.0
H1925 H 0.55793 0.69337 0.69408 0.0
H1926 H 0.61055 0.71554 0.64433 0.0
H1927 H 0.60399 0.68623 0.62291 0.0
C1928 C 0.60346 0.75768 0.6694 0.0
C1929 C 0.59611 0.76069 0.70489 0.0
C1930 C 0.59986 0.74056 0.65862 0.0
C1931 C 0.58875 0.72566 0.68284 0.0
C1932 C 0.58144 0.72868 0.71842 0.0
C1933 C 0.58505 0.74581 0.72921 0.0
C1934 C 0.56453 0.67501 0.66711 0.0
C1935 C 0.57718 0.67241 0.64638 0.0
C1936 C 0.56826 0.69207 0.67915 0.0
C1937 C 0.58481 0.70721 0.67095 0.0
C1938 C 0.59753 0.7045 0.65074 0.0
C1939 C 0.59379 0.68749 0.63867 0.0
H1940 H 0.32073 0.84548 0.75756 0.0
H1941 H 0.30044 0.85645 0.64747 0.0
H1942 H 0.35041 0.86898 0.73996 0.0
H1943 H 0.33017 0.87932 0.62893 0.0
H1944 H 0.38269 0.93079 0.62202 0.0
H1945 H 0.35331 0.90792 0.64251 0.0
H1946 H 0.37539 0.87823 0.69705 0.0
H1947 H 0.40502 0.90149 0.67723 0.0
C1948 C 0.32247 0.85288 0.72962 0.0
C1949 C 0.30782 0.84882 0.70421 0.0
C1950 C 0.33971 0.86632 0.71914 0.0
C1951 C 0.34305 0.87633 0.68282 0.0
C1952 C 0.32839 0.87227 0.65745 0.0
C1953 C 0.31118 0.85884 0.66791 0.0
C1954 C 0.38141 0.91946 0.63856 0.0
C1955 C 0.39651 0.91821 0.64784 0.0
C1956 C 0.36435 0.90613 0.65012 0.0
C1957 C 0.36158 0.89088 0.6714 0.0
C1958 C 0.37674 0.88972 0.68118 0.0
C1959 C 0.39386 0.90312 0.66961 0.0
H1960 H 0.13678 0.46644 0.62786 0.0
H1961 H 0.16817 0.51948 0.67462 0.0
H1962 H 0.15947 0.45975 0.64869 0.0
H1963 H 0.19125 0.51291 0.69472 0.0
H1964 H 0.22432 0.49161 0.75632 0.0
H1965 H 0.20092 0.49796 0.73918 0.0
H1966 H 0.18749 0.46418 0.63294 0.0
H1967 H 0.21027 0.45719 0.65113 0.0
C1968 C 0.14853 0.47676 0.64266 0.0
C1969 C 0.15044 0.49357 0.64943 0.0
C1970 C 0.16176 0.47293 0.65438 0.0
C1971 C 0.17755 0.48575 0.67327 0.0
C1972 C 0.17934 0.50251 0.68073 0.0
C1973 C 0.16603 0.50634 0.66903 0.0
C1974 C 0.21626 0.48529 0.72958 0.0
C1975 C 0.21943 0.47376 0.70538 0.0
C1976 C 0.20287 0.48917 0.71933 0.0
C1977 C 0.19203 0.48166 0.68448 0.0
C1978 C 0.19521 0.47013 0.66035 0.0
C1979 C 0.20858 0.46626 0.67057 0.0
H1980 H 0.34371 0.87196 0.19788 0.0
H1981 H 0.3666 0.92279 0.25731 0.0
H1982 H 0.37321 0.87822 0.17763 0.0
H1983 H 0.39591 0.92924 0.23635 0.0
H1984 H 0.44843 0.92998 0.22905 0.0
H1985 H 0.41886 0.9234 0.24803 0.0
H1986 H 0.39829 0.89409 0.13555 0.0
H1987 H 0.42778 0.89997 0.11749 0.0
C1988 C 0.35496 0.88456 0.20633 0.0
C1989 C 0.35249 0.89679 0.22942 0.0
C1990 C 0.37203 0.88824 0.19451 0.0
C1991 C 0.38733 0.90429 0.20528 0.0
C1992 C 0.38475 0.91658 0.2279 0.0
C1993 C 0.36774 0.9129 0.23974 0.0
C1994 C 0.43765 0.92197 0.20836 0.0
C1995 C 0.44088 0.91557 0.17152 0.0
C1996 C 0.42053 0.91835 0.2191 0.0
C1997 C 0.4058 0.90818 0.1935 0.0
C1998 C 0.40902 0.9018 0.15661 0.0
C1999 C 0.42617 0.90542 0.14585 0.0
H2000 H 0.12867 0.51926 0.15421 0.0
H2001 H 0.18205 0.55785 0.18806 0.0
H2002 H 0.13474 0.49552 0.17062 0.0
H2003 H 0.18796 0.53419 0.20546 0.0
H2004 H 0.19873 0.48786 0.19969 0.0
H2005 H 0.19261 0.51117 0.17902 0.0
H2006 H 0.13964 0.48056 0.22665 0.0
H2007 H 0.14568 0.45726 0.2468 0.0
C2008 C 0.14174 0.52277 0.165 0.0
C2009 C 0.15478 0.5407 0.16981 0.0
C2010 C 0.1452 0.50905 0.1749 0.0
C2011 C 0.1619 0.51271 0.18963 0.0
C2012 C 0.17499 0.53064 0.19392 0.0
C2013 C 0.17149 0.54433 0.18434 0.0
C2014 C 0.18572 0.486 0.20552 0.0
C2015 C 0.17276 0.47047 0.22498 0.0
C2016 C 0.18222 0.49952 0.19391 0.0
C2017 C 0.16557 0.49799 0.20105 0.0
C2018 C 0.15255 0.48233 0.21998 0.0
C2019 C 0.15608 0.46889 0.23182 0.0
H2020 H 0.61132 0.70247 0.24929 0.0
H2021 H 0.5824 0.72501 0.19317 0.0
H2022 H 0.58837 0.6731 0.22874 0.0
H2023 H 0.55907 0.69543 0.17336 0.0
H2024 H 0.5258 0.64082 0.11339 0.0
H2025 H 0.54948 0.67041 0.13092 0.0
H2026 H 0.5598 0.64994 0.2416 0.0
H2027 H 0.53675 0.62029 0.22308 0.0
C2028 C 0.60006 0.70124 0.23255 0.0
C2029 C 0.59895 0.71641 0.22303 0.0
C2030 C 0.58667 0.68419 0.22095 0.0
C2031 C 0.57149 0.68148 0.19939 0.0
C2032 C 0.57049 0.6967 0.1894 0.0
C2033 C 0.58394 0.71382 0.20098 0.0
C2034 C 0.53323 0.64248 0.14123 0.0
C2035 C 0.52909 0.62777 0.16654 0.0
C2036 C 0.5468 0.65968 0.15169 0.0
C2037 C 0.55686 0.66296 0.18792 0.0
C2038 C 0.55272 0.64823 0.21316 0.0
C2039 C 0.53917 0.63106 0.20271 0.0
H2040 H 0.14883 0.70213 0.76968 0.0
H2041 H 0.19334 0.72613 0.68724 0.0
H2042 H 0.14276 0.67295 0.74866 0.0
H2043 H 0.18693 0.69684 0.66499 0.0
H2044 H 0.18213 0.64215 0.6614 0.0
H2045 H 0.18795 0.6714 0.68126 0.0
H2046 H 0.13209 0.65066 0.69953 0.0
H2047 H 0.12635 0.6213 0.68026 0.0
C2048 C 0.15726 0.70126 0.74662 0.0
C2049 C 0.17163 0.71676 0.73029 0.0
C2050 C 0.15369 0.68433 0.73425 0.0
C2051 C 0.16427 0.68213 0.70484 0.0
C2052 C 0.17854 0.69768 0.68816 0.0
C2053 C 0.18217 0.71465 0.70072 0.0
C2054 C 0.171 0.64377 0.66926 0.0
C2055 C 0.1537 0.62906 0.66892 0.0
C2056 C 0.17437 0.66074 0.6807 0.0
C2057 C 0.16058 0.66381 0.69216 0.0
C2058 C 0.14324 0.64908 0.69175 0.0
C2059 C 0.13989 0.63207 0.68052 0.0
H2060 H 0.42741 0.54583 0.61541 0.0
H2061 H 0.44856 0.53079 0.71744 0.0
H2062 H 0.39772 0.5224 0.63314 0.0
H2063 H 0.41886 0.50795 0.73626 0.0
H2064 H 0.36563 0.45727 0.74135 0.0
H2065 H 0.39494 0.4801 0.72022 0.0
H2066 H 0.37348 0.51241 0.67878 0.0
H2067 H 0.3439 0.48921 0.6992 0.0
C2068 C 0.42586 0.53755 0.64158 0.0
C2069 C 0.44077 0.54046 0.6647 0.0
C2070 C 0.40862 0.52413 0.65219 0.0
C2071 C 0.40552 0.51299 0.68634 0.0
C2072 C 0.42043 0.51591 0.70941 0.0
C2073 C 0.43765 0.52931 0.69883 0.0
C2074 C 0.36703 0.46918 0.72755 0.0
C2075 C 0.35211 0.47118 0.72216 0.0
C2076 C 0.38405 0.48248 0.71564 0.0
C2077 C 0.38698 0.49846 0.6979 0.0
C2078 C 0.372 0.50036 0.69185 0.0
C2079 C 0.3549 0.48698 0.70375 0.0
H2080 H 0.58175 0.87072 0.69754 0.0
H2081 H 0.61111 0.92248 0.75219 0.0
H2082 H 0.55852 0.87704 0.67746 0.0
H2083 H 0.58828 0.92898 0.73135 0.0
H2084 H 0.53692 0.93044 0.72571 0.0
H2085 H 0.5598 0.92368 0.74451 0.0
H2086 H 0.54913 0.89253 0.63441 0.0
H2087 H 0.5256 0.89859 0.61662 0.0
C2088 C 0.5834 0.88353 0.70496 0.0
C2089 C 0.59849 0.89601 0.72666 0.0
C2090 C 0.57002 0.88723 0.69323 0.0
C2091 C 0.5712 0.90357 0.70274 0.0
C2092 C 0.58646 0.9161 0.72394 0.0
C2093 C 0.59977 0.91239 0.7357 0.0
C2094 C 0.53923 0.92198 0.70554 0.0
C2095 C 0.5291 0.91513 0.66945 0.0
C2096 C 0.55267 0.91826 0.71614 0.0
C2097 C 0.55665 0.90752 0.69113 0.0
C2098 C 0.54655 0.90068 0.65499 0.0
C2099 C 0.53308 0.90441 0.64438 0.0
H2100 H 0.318 0.50061 0.18437 0.0
H2101 H 0.3038 0.44799 0.2235 0.0
H2102 H 0.34749 0.50643 0.1666 0.0
H2103 H 0.33355 0.45398 0.20661 0.0
H2104 H 0.38266 0.46438 0.12989 0.0
H2105 H 0.35328 0.45817 0.15047 0.0
H2106 H 0.37536 0.51184 0.1932 0.0
H2107 H 0.40476 0.5181 0.17221 0.0
C2108 C 0.32107 0.49019 0.18917 0.0
C2109 C 0.30817 0.47373 0.20532 0.0
C2110 C 0.33822 0.49365 0.17936 0.0
C2111 C 0.34322 0.48075 0.18502 0.0
C2112 C 0.33035 0.46428 0.20128 0.0
C2113 C 0.31322 0.46087 0.21144 0.0
C2114 C 0.38136 0.47489 0.14396 0.0
C2115 C 0.39637 0.4918 0.1493 0.0
C2116 C 0.36437 0.47127 0.15601 0.0
C2117 C 0.36163 0.48445 0.17359 0.0
C2118 C 0.37668 0.50131 0.17934 0.0
C2119 C 0.3937 0.5049 0.16755 0.0
H2120 H 0.61031 0.85634 0.14229 0.0
H2121 H 0.58071 0.84659 0.25455 0.0
H2122 H 0.60357 0.87929 0.12401 0.0
H2123 H 0.57469 0.87018 0.2372 0.0
H2124 H 0.55209 0.90247 0.17599 0.0
H2125 H 0.55859 0.87933 0.19576 0.0
H2126 H 0.60935 0.90804 0.13611 0.0
H2127 H 0.60266 0.93079 0.11561 0.0
C2128 C 0.60236 0.85901 0.16328 0.0
C2129 C 0.59611 0.84929 0.20009 0.0
C2130 C 0.59865 0.8725 0.15295 0.0
C2131 C 0.58854 0.87693 0.17896 0.0
C2132 C 0.58233 0.86724 0.21584 0.0
C2133 C 0.58604 0.85374 0.22618 0.0
C2134 C 0.5647 0.90393 0.16725 0.0
C2135 C 0.57678 0.9187 0.14403 0.0
C2136 C 0.5685 0.89059 0.1788 0.0
C2137 C 0.58455 0.89148 0.16759 0.0
C2138 C 0.5967 0.90644 0.14488 0.0
C2139 C 0.59289 0.91971 0.13332 0.0
H2140 H 0.2225 0.74806 0.25808 0.0
H2141 H 0.21229 0.76842 0.14708 0.0
H2142 H 0.19896 0.71844 0.24029 0.0
H2143 H 0.18939 0.73873 0.12833 0.0
H2144 H 0.13796 0.68617 0.11982 0.0
H2145 H 0.16072 0.71559 0.14067 0.0
H2146 H 0.18981 0.69343 0.19797 0.0
H2147 H 0.16667 0.66381 0.17786 0.0
C2148 C 0.21525 0.74635 0.2299 0.0
C2149 C 0.21956 0.76101 0.20429 0.0
C2150 C 0.20178 0.72914 0.21929 0.0
C2151 C 0.19199 0.72581 0.18263 0.0
C2152 C 0.19627 0.74049 0.15709 0.0
C2153 C 0.20973 0.75768 0.16769 0.0
C2154 C 0.14913 0.68745 0.13707 0.0
C2155 C 0.15026 0.67233 0.14704 0.0
C2156 C 0.16241 0.70452 0.14884 0.0
C2157 C 0.17746 0.70728 0.171 0.0
C2158 C 0.17847 0.6921 0.18144 0.0
C2159 C 0.16513 0.67497 0.1697 0.0
H2160 H 0.32255 0.17997 0.17808 0.0
H2161 H 0.36366 0.23148 0.13913 0.0
H2162 H 0.34486 0.17257 0.19901 0.0
H2163 H 0.38594 0.22392 0.15829 0.0
H2164 H 0.42406 0.212 0.22828 0.0
H2165 H 0.4017 0.21953 0.20916 0.0
H2166 H 0.36551 0.1648 0.17974 0.0
H2167 H 0.38766 0.15725 0.20054 0.0
C2168 C 0.33635 0.18974 0.1738 0.0
C2169 C 0.34114 0.20641 0.15703 0.0
C2170 C 0.34927 0.18543 0.18554 0.0
C2171 C 0.36751 0.19755 0.18053 0.0
C2172 C 0.37222 0.21422 0.16363 0.0
C2173 C 0.35932 0.21857 0.15231 0.0
C2174 C 0.41136 0.20155 0.21756 0.0
C2175 C 0.40785 0.18398 0.21601 0.0
C2176 C 0.39842 0.2059 0.2063 0.0
C2177 C 0.38148 0.19287 0.19264 0.0
C2178 C 0.3781 0.1753 0.19071 0.0
C2179 C 0.39098 0.17094 0.20235 0.0
H2180 H 0.83813 0.14778 0.13476 0.0
H2181 H 0.8888 0.15751 0.17837 0.0
H2182 H 0.84551 0.17748 0.15492 0.0
H2183 H 0.896 0.18706 0.20019 0.0
H2184 H 0.91165 0.24531 0.20276 0.0
H2185 H 0.90424 0.21574 0.18121 0.0
H2186 H 0.84922 0.1971 0.20682 0.0
H2187 H 0.85664 0.2269 0.2268 0.0
C2188 C 0.8508 0.15616 0.14914 0.0
C2189 C 0.86279 0.15001 0.15488 0.0
C2190 C 0.85506 0.17333 0.16105 0.0
C2191 C 0.87144 0.18506 0.17952 0.0
C2192 C 0.88338 0.1788 0.18553 0.0
C2193 C 0.87917 0.16165 0.17326 0.0
C2194 C 0.89794 0.23496 0.20361 0.0
C2195 C 0.8848 0.23874 0.21647 0.0
C2196 C 0.89364 0.21779 0.19153 0.0
C2197 C 0.87604 0.20362 0.19216 0.0
C2198 C 0.86289 0.20747 0.20501 0.0
C2199 C 0.86719 0.22469 0.21676 0.0
H2200 H 0.82373 0.68102 0.20245 0.0
H2201 H 0.84162 0.64374 0.22221 0.0
H2202 H 0.85336 0.70329 0.18134 0.0
H2203 H 0.87148 0.6662 0.20279 0.0
H2204 H 0.92091 0.70498 0.13202 0.0
H2205 H 0.89114 0.68262 0.15168 0.0
H2206 H 0.88209 0.72339 0.20008 0.0
H2207 H 0.91171 0.74581 0.17865 0.0
C2208 C 0.83399 0.67754 0.20247 0.0
C2209 C 0.83005 0.66039 0.21397 0.0
C2210 C 0.85119 0.69048 0.19064 0.0
C2211 C 0.86523 0.68687 0.19022 0.0
C2212 C 0.86122 0.66966 0.20177 0.0
C2213 C 0.84396 0.65667 0.21321 0.0
C2214 C 0.91263 0.70923 0.14699 0.0
C2215 C 0.91894 0.72735 0.15372 0.0
C2216 C 0.89541 0.69628 0.1586 0.0
C2217 C 0.88382 0.70089 0.17782 0.0
C2218 C 0.89025 0.71907 0.18481 0.0
C2219 C 0.90743 0.73205 0.17278 0.0
H2220 H 0.22171 0.41256 0.3446 0.0
H2221 H 0.17183 0.37146 0.29751 0.0
H2222 H 0.22914 0.39034 0.36619 0.0
H2223 H 0.17946 0.34929 0.31738 0.0
H2224 H 0.19013 0.31068 0.38884 0.0
H2225 H 0.18272 0.33297 0.36853 0.0
H2226 H 0.23803 0.37032 0.34869 0.0
H2227 H 0.24542 0.34814 0.37074 0.0
C2228 C 0.21231 0.39878 0.33867 0.0
C2229 C 0.19606 0.39397 0.31944 0.0
C2230 C 0.21665 0.38591 0.3508 0.0
C2231 C 0.205 0.3677 0.3438 0.0
C2232 C 0.18878 0.36297 0.32436 0.0
C2233 C 0.18438 0.37581 0.31262 0.0
C2234 C 0.20076 0.32362 0.37997 0.0
C2235 C 0.21843 0.32741 0.38148 0.0
C2236 C 0.19647 0.33652 0.36799 0.0
C2237 C 0.20967 0.35377 0.35662 0.0
C2238 C 0.22736 0.35747 0.35777 0.0
C2239 C 0.23165 0.34459 0.37013 0.0
H2240 H 0.65764 0.82764 0.31411 0.0
H2241 H 0.69595 0.81067 0.32706 0.0
H2242 H 0.67978 0.85739 0.33491 0.0
H2243 H 0.71795 0.84018 0.34973 0.0
H2244 H 0.75959 0.8988 0.35665 0.0
H2245 H 0.73752 0.86927 0.33387 0.0
H2246 H 0.69631 0.87675 0.38587 0.0
H2247 H 0.71833 0.90648 0.40676 0.0
C2248 C 0.67074 0.83015 0.32191 0.0
C2249 C 0.67483 0.81653 0.31882 0.0
C2250 C 0.68356 0.84736 0.3342 0.0
C2251 C 0.70098 0.85162 0.34437 0.0
C2252 C 0.70496 0.83786 0.34159 0.0
C2253 C 0.69219 0.82071 0.32884 0.0
C2254 C 0.7458 0.89419 0.36303 0.0
C2255 C 0.74089 0.90528 0.38343 0.0
C2256 C 0.73302 0.87704 0.35021 0.0
C2257 C 0.7148 0.87019 0.35775 0.0
C2258 C 0.70999 0.88135 0.3784 0.0
C2259 C 0.72274 0.89854 0.39075 0.0
H2260 H 0.24466 0.84626 0.34591 0.0
H2261 H 0.25465 0.8973 0.30448 0.0
H2262 H 0.21501 0.83887 0.36718 0.0
H2263 H 0.22484 0.88973 0.32382 0.0
H2264 H 0.17488 0.87822 0.3931 0.0
H2265 H 0.20475 0.88574 0.3739 0.0
H2266 H 0.18643 0.83066 0.3494 0.0
H2267 H 0.15678 0.82317 0.37046 0.0
C2268 C 0.24054 0.85592 0.34112 0.0
C2269 C 0.2523 0.87246 0.32359 0.0
C2270 C 0.22333 0.85161 0.35306 0.0
C2271 C 0.21708 0.86359 0.34745 0.0
C2272 C 0.22893 0.88013 0.32972 0.0
C2273 C 0.24618 0.8845 0.31826 0.0
C2274 C 0.17718 0.86769 0.38349 0.0
C2275 C 0.16319 0.85004 0.38341 0.0
C2276 C 0.19446 0.87203 0.37215 0.0
C2277 C 0.19844 0.85891 0.35979 0.0
C2278 C 0.18432 0.84126 0.35935 0.0
C2279 C 0.1671 0.83691 0.37115 0.0
H2280 H 0.72138 0.82342 0.86843 0.0
H2281 H 0.75851 0.87874 0.88766 0.0
H2282 H 0.699 0.83065 0.84736 0.0
H2283 H 0.73601 0.88599 0.86836 0.0
H2284 H 0.69718 0.89678 0.7989 0.0
H2285 H 0.71952 0.88929 0.81784 0.0
H2286 H 0.67882 0.8392 0.86573 0.0
H2287 H 0.6564 0.8465 0.84499 0.0
C2288 C 0.72482 0.83717 0.86827 0.0
C2289 C 0.74197 0.85045 0.87963 0.0
C2290 C 0.71182 0.84136 0.85648 0.0
C2291 C 0.71536 0.85901 0.85596 0.0
C2292 C 0.73257 0.87226 0.86735 0.0
C2293 C 0.74561 0.86808 0.87874 0.0
C2294 C 0.69293 0.88416 0.81362 0.0
C2295 C 0.67482 0.87233 0.82043 0.0
C2296 C 0.70588 0.87985 0.82482 0.0
C2297 C 0.7013 0.86356 0.84373 0.0
C2298 C 0.68313 0.85175 0.85073 0.0
C2299 C 0.67014 0.85601 0.8391 0.0
H2300 H 0.17009 0.81052 0.83928 0.0
H2301 H 0.22508 0.82896 0.81513 0.0
H2302 H 0.17746 0.84014 0.86033 0.0
H2303 H 0.23247 0.85882 0.83434 0.0
H2304 H 0.24392 0.90864 0.90406 0.0
H2305 H 0.23649 0.87886 0.8847 0.0
H2306 H 0.1854 0.86864 0.84221 0.0
H2307 H 0.19265 0.89827 0.8635 0.0
C2308 C 0.18379 0.8209 0.83825 0.0
C2309 C 0.19695 0.81712 0.82557 0.0
C2310 C 0.18807 0.83811 0.85005 0.0
C2311 C 0.20566 0.85231 0.84918 0.0
C2312 C 0.2188 0.84845 0.83642 0.0
C2313 C 0.21454 0.83119 0.82507 0.0
C2314 C 0.23109 0.90009 0.89047 0.0
C2315 C 0.21895 0.90609 0.88539 0.0
C2316 C 0.22681 0.88286 0.87901 0.0
C2317 C 0.21025 0.87093 0.86151 0.0
C2318 C 0.19816 0.87704 0.85615 0.0
C2319 C 0.20239 0.89424 0.86809 0.0
H2320 H 0.17528 0.31058 0.8908 0.0
H2321 H 0.15737 0.34763 0.86779 0.0
H2322 H 0.20522 0.33297 0.87173 0.0
H2323 H 0.18705 0.3698 0.84683 0.0
H2324 H 0.24506 0.4126 0.84349 0.0
H2325 H 0.21549 0.39018 0.86483 0.0
H2326 H 0.22564 0.34931 0.82233 0.0
H2327 H 0.25544 0.37176 0.80292 0.0
C2328 C 0.17764 0.32344 0.88111 0.0
C2329 C 0.16369 0.32712 0.88093 0.0
C2330 C 0.19495 0.3364 0.86986 0.0
C2331 C 0.19901 0.35355 0.8575 0.0
C2332 C 0.1849 0.35707 0.85684 0.0
C2333 C 0.16766 0.34418 0.86857 0.0
C2334 C 0.24105 0.39882 0.83894 0.0
C2335 C 0.2529 0.39416 0.82157 0.0
C2336 C 0.22386 0.38582 0.8509 0.0
C2337 C 0.2177 0.36759 0.84543 0.0
C2338 C 0.22965 0.363 0.82804 0.0
C2339 C 0.2469 0.376 0.81658 0.0
H2340 H 0.8915 0.74461 0.64983 0.0
H2341 H 0.83625 0.70682 0.66718 0.0
H2342 H 0.89904 0.72234 0.66974 0.0
H2343 H 0.84374 0.68471 0.68883 0.0
H2344 H 0.86006 0.64261 0.69288 0.0
H2345 H 0.85271 0.66486 0.67112 0.0
H2346 H 0.90227 0.70587 0.72058 0.0
H2347 H 0.90984 0.68367 0.74056 0.0
C2348 C 0.88092 0.7316 0.65841 0.0
C2349 C 0.86321 0.72769 0.65681 0.0
C2350 C 0.88527 0.71871 0.67015 0.0
C2351 C 0.8721 0.7014 0.68119 0.0
C2352 C 0.85439 0.69761 0.67995 0.0
C2353 C 0.85004 0.71045 0.6678 0.0
C2354 C 0.86946 0.65639 0.69892 0.0
C2355 C 0.88564 0.66118 0.71837 0.0
C2356 C 0.86516 0.66927 0.68669 0.0
C2357 C 0.87679 0.68748 0.69386 0.0
C2358 C 0.89297 0.69219 0.71348 0.0
C2359 C 0.89733 0.67933 0.72529 0.0
H2360 H 0.32438 0.16168 0.64503 0.0
H2361 H 0.36012 0.1426 0.67299 0.0
H2362 H 0.34699 0.19144 0.66464 0.0
H2363 H 0.38251 0.17216 0.69428 0.0
H2364 H 0.42596 0.23028 0.69625 0.0
H2365 H 0.40344 0.20064 0.67497 0.0
H2366 H 0.36268 0.2111 0.7165 0.0
H2367 H 0.38513 0.24083 0.73599 0.0
C2368 C 0.33698 0.16374 0.6559 0.0
C2369 C 0.34025 0.14953 0.65738 0.0
C2370 C 0.35005 0.18094 0.66744 0.0
C2371 C 0.36687 0.18458 0.68131 0.0
C2372 C 0.37001 0.17025 0.68316 0.0
C2373 C 0.357 0.1531 0.67123 0.0
C2374 C 0.41218 0.22628 0.70066 0.0
C2375 C 0.40751 0.23817 0.71772 0.0
C2376 C 0.39915 0.20911 0.68871 0.0
C2377 C 0.38095 0.2031 0.69378 0.0
C2378 C 0.37637 0.21506 0.71107 0.0
C2379 C 0.38937 0.23224 0.72261 0.0
H2380 H 0.92475 0.23072 0.67464 0.0
H2381 H 0.90601 0.17585 0.64771 0.0
H2382 H 0.89516 0.2234 0.69548 0.0
H2383 H 0.87616 0.16852 0.66707 0.0
H2384 H 0.82657 0.15746 0.73831 0.0
H2385 H 0.85625 0.1646 0.71866 0.0
H2386 H 0.86675 0.21569 0.67542 0.0
H2387 H 0.83721 0.20871 0.69669 0.0
C2388 C 0.91432 0.21705 0.67301 0.0
C2389 C 0.91801 0.20392 0.65951 0.0
C2390 C 0.89714 0.21282 0.68469 0.0
C2391 C 0.88286 0.19529 0.68301 0.0
C2392 C 0.88661 0.18214 0.66962 0.0
C2393 C 0.90386 0.18637 0.65824 0.0
C2394 C 0.83515 0.17022 0.72448 0.0
C2395 C 0.82926 0.18244 0.71915 0.0
C2396 C 0.85231 0.17433 0.71288 0.0
C2397 C 0.86429 0.19081 0.69517 0.0
C2398 C 0.85828 0.20298 0.68953 0.0
C2399 C 0.84115 0.1989 0.70147 0.0
H2400 H 1.03055 0.56382 0.4651 0.0
H2401 H 0.98977 0.51377 0.51224 0.0
H2402 H 0.05288 0.55635 0.48434 0.0
H2403 H 1.01217 0.50651 0.53328 0.0
H2404 H 0.05447 0.49048 0.53676 0.0
H2405 H 1.03218 0.49777 0.51531 0.0
H2406 H 0.0695 0.55315 0.53472 0.0
H2407 H 0.09192 0.54582 0.5544 0.0
C2408 C 1.0263 0.55127 0.48011 0.0
C2409 C 1.00819 0.53948 0.48711 0.0
C2410 C 1.03924 0.54696 0.49149 0.0
C2411 C 1.03466 0.53074 0.51076 0.0
C2412 C 1.01649 0.519 0.51798 0.0
C2413 C 1.00351 0.52325 0.50617 0.0
C2414 C 0.058 0.50424 0.53617 0.0
C2415 C 0.0752 0.51751 0.5472 0.0
C2416 C 0.04505 0.50848 0.52416 0.0
C2417 C 0.0487 0.52615 0.52312 0.0
C2418 C 0.06598 0.5394 0.53414 0.0
C2419 C 0.07896 0.53517 0.54573 0.0
H2420 H 0.52683 0.56478 0.5275 0.0
H2421 H 0.57848 0.57566 0.56632 0.0
H2422 H 0.51968 0.53516 0.50638 0.0
H2423 H 0.57117 0.5459 0.54712 0.0
H2424 H 0.55956 0.4958 0.47805 0.0
H2425 H 0.56695 0.52571 0.49686 0.0
H2426 H 0.5121 0.50685 0.52528 0.0
H2427 H 0.50472 0.4772 0.50465 0.0
C2428 C 0.53668 0.56086 0.53172 0.0
C2429 C 0.55331 0.57284 0.54846 0.0
C2430 C 0.53252 0.54368 0.51989 0.0
C2431 C 0.54475 0.53772 0.52485 0.0
C2432 C 0.56138 0.54979 0.54176 0.0
C2433 C 0.5656 0.567 0.5531 0.0
C2434 C 0.54907 0.498 0.48845 0.0
C2435 C 0.53151 0.48389 0.48975 0.0
C2436 C 0.55332 0.51529 0.49954 0.0
C2437 C 0.5402 0.51911 0.51282 0.0
C2438 C 0.52266 0.50485 0.51454 0.0
C2439 C 0.5184 0.48764 0.503 0.0
H2440 H 0.5914 0.04059 0.50223 0.0
H2441 H 0.57357 0.07797 0.48339 0.0
H2442 H 0.56184 1.0184 0.52405 0.0
H2443 H 0.54379 0.0556 0.5035 0.0
H2444 H 0.49458 1.01701 0.57521 0.0
H2445 H 0.52429 0.03928 0.5549 0.0
H2446 H 0.53299 0.99833 0.50622 0.0
H2447 H 0.50344 0.97601 0.52829 0.0
C2448 C 0.58116 0.04411 0.50255 0.0
C2449 C 0.58511 0.06126 0.4911 0.0
C2450 C 0.564 0.03122 0.5148 0.0
C2451 C 0.55 0.03488 0.51569 0.0
C2452 C 0.55402 0.05209 0.50417 0.0
C2453 C 0.57123 0.06503 0.49232 0.0
C2454 C 0.50277 1.0127 0.56005 0.0
C2455 C 0.49638 0.99455 0.55343 0.0
C2456 C 0.51996 1.02559 0.54805 0.0
C2457 C 0.53144 1.02092 0.52855 0.0
C2458 C 0.52493 1.00271 0.52169 0.0
C2459 C 0.50778 0.98979 0.5341 0.0
H2460 H 0.52326 0.97716 0.05703 0.0
H2461 H 0.57847 1.01465 0.03787 0.0
H2462 H 0.5158 0.99956 0.03763 0.0
H2463 H 0.57106 0.03686 1.01677 0.0
H2464 H 0.55511 0.07923 1.01383 0.0
H2465 H 0.56237 0.05687 0.03523 0.0
H2466 H 0.51248 1.01602 0.98681 0.0
H2467 H 0.50501 0.03833 0.96719 0.0
C2468 C 0.53385 0.99013 0.04817 0.0
C2469 C 0.55152 0.99392 0.0491 0.0
C2470 C 0.52955 1.00308 0.03673 0.0
C2471 C 0.54274 1.02034 0.02536 0.0
C2472 C 0.56041 1.02401 0.02593 0.0
C2473 C 0.56471 1.01111 0.03777 0.0
C2474 C 0.54562 0.06547 1.00795 0.0
C2475 C 0.52938 0.06074 0.98889 0.0
C2476 C 0.54987 0.05252 1.01996 0.0
C2477 C 0.53811 0.03432 1.01296 0.0
C2478 C 0.52187 0.02969 0.99375 0.0
C2479 C 0.51757 0.04261 0.98215 0.0
H2480 H 1.03093 0.48181 0.96505 0.0
H2481 H 0.98991 0.49009 1.01427 0.0
H2482 H 0.05312 0.51152 0.98564 0.0
H2483 H 1.01215 0.51961 0.03671 0.0
H2484 H 0.05398 0.57808 0.04221 0.0
H2485 H 1.03189 0.54855 1.01997 0.0
H2486 H 0.0697 0.53101 0.03657 0.0
H2487 H 0.09197 0.56079 0.057 0.0
C2488 C 1.0266 0.48988 0.98079 0.0
C2489 C 1.00847 0.48332 0.98794 0.0
C2490 C 1.03946 0.50706 0.99296 0.0
C2491 C 1.03476 0.51838 1.01322 0.0
C2492 C 1.01656 0.5117 0.02064 0.0
C2493 C 1.00368 0.49456 1.00801 0.0
C2494 C 0.05765 0.56796 0.04092 0.0
C2495 C 0.07494 0.57206 0.05134 0.0
C2496 C 0.04482 0.55081 0.02843 0.0
C2497 C 0.04867 0.53695 0.0263 0.0
C2498 C 0.06603 0.54112 0.03682 0.0
C2499 C 0.07892 0.55833 0.04887 0.0
H2500 H 0.49276 0.48995 0.06545 0.0
H2501 H 0.5041 0.54227 0.03142 0.0
H2502 H 0.52252 0.49737 0.04595 0.0
H2503 H 0.53373 0.54957 1.01012 0.0
H2504 H 0.59166 0.56412 1.00771 0.0
H2505 H 0.56202 0.55668 0.02878 0.0
H2506 H 0.54274 0.50225 0.99512 0.0
H2507 H 0.57257 0.50965 0.97577 0.0
C2508 C 0.50151 0.50301 0.05323 0.0
C2509 C 0.49578 0.51543 0.04999 0.0
C2510 C 0.51874 0.5073 0.04173 0.0
C2511 C 0.53094 0.52416 0.0261 0.0
C2512 C 0.5251 0.53655 0.02258 0.0
C2513 C 0.5079 0.5323 0.03452 0.0
C2514 C 0.58114 0.55052 1.00501 0.0
C2515 C 0.58475 0.53753 0.9901 0.0
C2516 C 0.56393 0.54622 1.01682 0.0
C2517 C 0.54956 0.52877 1.01379 0.0
C2518 C 0.55325 0.51578 0.99887 0.0
C2519 C 0.5705 0.52006 0.98745 0.0
H2520 H 0.33481 0.20472 0.99878 0.0
H2521 H 0.34633 0.25841 1.01565 0.0
H2522 H 0.35894 0.21527 0.94787 0.0
H2523 H 0.37019 0.26872 0.96732 0.0
H2524 H 0.39925 0.2834 0.84939 0.0
H2525 H 0.37544 0.27004 0.89784 0.0
H2526 H 0.39134 0.23237 0.93197 0.0
H2527 H 0.41546 0.24568 0.88095 0.0
C2528 C 0.34231 0.21869 0.99171 0.0
C2529 C 0.33814 0.23053 1.01145 0.0
C2530 C 0.35635 0.22481 0.96268 0.0
C2531 C 0.36666 0.24297 0.95241 0.0
C2532 C 0.36252 0.25463 0.97284 0.0
C2533 C 0.34864 0.2486 1.00125 0.0
C2534 C 0.398 0.27234 0.86707 0.0
C2535 C 0.40981 0.26596 0.86095 0.0
C2536 C 0.38413 0.26461 0.89553 0.0
C2537 C 0.3813 0.25016 0.92012 0.0
C2538 C 0.39289 0.24345 0.91388 0.0
C2539 C 0.40692 0.25122 0.88475 0.0
H2540 H 0.86151 0.15029 1.01861 0.0
H2541 H 0.81847 0.09897 0.98533 0.0
H2542 H 0.85014 0.16414 0.9709 0.0
H2543 H 0.80756 0.11243 0.93733 0.0
H2544 H 0.77853 0.13806 0.88717 0.0
H2545 H 0.79217 0.12734 0.93518 0.0
H2546 H 0.84363 0.17073 0.90309 0.0
H2547 H 0.82959 0.18188 0.85537 0.0
C2548 C 0.84987 0.14191 1.00053 0.0
C2549 C 0.84096 0.12341 1.00625 0.0
C2550 C 0.84325 0.14987 0.97309 0.0
C2551 C 0.82752 0.13961 0.95035 0.0
C2552 C 0.81926 0.12108 0.95488 0.0
C2553 C 0.82572 0.11322 0.98234 0.0
C2554 C 0.79276 0.14553 0.89049 0.0
C2555 C 0.80283 0.16092 0.86698 0.0
C2556 C 0.80073 0.13919 0.91796 0.0
C2557 C 0.81925 0.14773 0.9229 0.0
C2558 C 0.82937 0.16361 0.90057 0.0
C2559 C 0.8213 0.17011 0.87312 0.0
H2560 H 0.88698 0.66262 0.85448 0.0
H2561 H 0.93004 0.6545 0.88803 0.0
H2562 H 0.89831 0.68786 0.90207 0.0
H2563 H 0.94092 0.67891 0.93591 0.0
H2564 H 0.9699 0.73365 0.98582 0.0
H2565 H 0.95628 0.70926 0.93788 0.0
H2566 H 0.9048 0.70097 0.96989 0.0
H2567 H 0.91881 0.72619 1.01756 0.0
C2568 C 0.89862 0.66592 0.87258 0.0
C2569 C 0.90754 0.65636 0.86698 0.0
C2570 C 0.90522 0.68052 0.89997 0.0
C2571 C 0.92094 0.68604 0.92275 0.0
C2572 C 0.92922 0.67581 0.91833 0.0
C2573 C 0.92278 0.66147 0.89094 0.0
C2574 C 0.95566 0.72683 0.98249 0.0
C2575 C 0.94559 0.73211 1.00597 0.0
C2576 C 0.94771 0.71251 0.95507 0.0
C2577 C 0.9292 0.70246 0.95013 0.0
C2578 C 0.91905 0.70816 0.97241 0.0
C2579 C 0.92712 0.72276 0.99983 0.0
H2580 H 0.22188 0.3289 0.52353 0.0
H2581 H 0.26676 0.32259 0.54878 0.0
H2582 H 0.23369 0.3542 0.57061 0.0
H2583 H 0.27812 0.34704 0.59668 0.0
H2584 H 0.30584 0.4012 0.65235 0.0
H2585 H 0.29266 0.37674 0.60445 0.0
H2586 H 0.24081 0.36783 0.6353 0.0
H2587 H 0.25438 0.39314 0.68238 0.0
C2588 C 0.2341 0.33265 0.53963 0.0
C2589 C 0.24328 0.32349 0.53186 0.0
C2590 C 0.24097 0.3473 0.56689 0.0
C2591 C 0.25725 0.35332 0.58771 0.0
C2592 C 0.26595 0.3436 0.58082 0.0
C2593 C 0.25923 0.32921 0.55338 0.0
C2594 C 0.29162 0.3942 0.64878 0.0
C2595 C 0.28132 0.39943 0.67161 0.0
C2596 C 0.28389 0.3798 0.62135 0.0
C2597 C 0.26539 0.3696 0.6158 0.0
C2598 C 0.25506 0.37513 0.63795 0.0
C2599 C 0.26288 0.38978 0.66519 0.0
H2600 H 0.66877 0.91752 0.65341 0.0
H2601 H 0.67575 0.87349 0.68425 0.0
H2602 H 0.693 0.92822 0.60512 0.0
H2603 H 0.70083 0.88463 0.63627 0.0
H2604 H 0.73898 0.90509 0.52065 0.0
H2605 H 0.71386 0.89128 0.56857 0.0
H2606 H 0.72326 0.94302 0.60228 0.0
H2607 H 0.74753 0.95645 0.55404 0.0
C2608 C 0.67545 0.91001 0.64983 0.0
C2609 C 0.67008 0.89455 0.67315 0.0
C2610 C 0.6897 0.91634 0.62219 0.0
C2611 C 0.69957 0.90773 0.61688 0.0
C2612 C 0.69378 0.8918 0.63905 0.0
C2613 C 0.67926 0.88531 0.66666 0.0
C2614 C 0.73581 0.91349 0.53879 0.0
C2615 C 0.74544 0.93199 0.53303 0.0
C2616 C 0.72127 0.90555 0.56637 0.0
C2617 C 0.71591 0.91583 0.58924 0.0
C2618 C 0.72623 0.93436 0.58465 0.0
C2619 C 0.74049 0.94219 0.55705 0.0
H2620 H 0.15691 0.85049 0.54454 0.0
H2621 H 0.11661 0.79648 0.52122 0.0
H2622 H 0.17022 0.83994 0.59619 0.0
H2623 H 0.12991 0.7862 0.57055 0.0
H2624 H 0.14308 0.77094 0.69001 0.0
H2625 H 0.13264 0.78411 0.64075 0.0
H2626 H 0.18632 0.82355 0.61181 0.0
H2627 H 0.19705 0.81038 0.66337 0.0
C2628 C 0.15079 0.83644 0.55034 0.0
C2629 C 0.1354 0.8245 0.52852 0.0
C2630 C 0.15856 0.83033 0.5798 0.0
C2631 C 0.15116 0.81209 0.58851 0.0
C2632 C 0.13595 0.80033 0.56613 0.0
C2633 C 0.12827 0.80635 0.53719 0.0
C2634 C 0.1529 0.78237 0.67332 0.0
C2635 C 0.17109 0.7893 0.68103 0.0
C2636 C 0.14678 0.78998 0.64443 0.0
C2637 C 0.15847 0.8049 0.62113 0.0
C2638 C 0.17676 0.81212 0.62891 0.0
C2639 C 0.18297 0.80443 0.65834 0.0
H2640 H 0.66892 0.76458 0.14995 0.0
H2641 H 0.67736 0.81611 0.18094 0.0
H2642 H 0.69309 0.77768 0.10137 0.0
H2643 H 0.70244 0.82963 0.13305 0.0
H2644 H 0.74112 0.84802 1.02021 0.0
H2645 H 0.7159 0.83654 0.06753 0.0
H2646 H 0.72289 0.79209 0.0949 0.0
H2647 H 0.74725 0.80312 0.04686 0.0
C2648 C 0.67594 0.77881 0.14637 0.0
C2649 C 0.67094 0.78915 0.16974 0.0
C2650 C 0.69017 0.78648 0.11858 0.0
C2651 C 0.70045 0.80498 0.11324 0.0
C2652 C 0.69508 0.81538 0.13566 0.0
C2653 C 0.68055 0.8076 0.16329 0.0
C2654 C 0.73735 0.83587 0.03666 0.0
C2655 C 0.74641 0.82657 0.02922 0.0
C2656 C 0.72275 0.8292 0.06402 0.0
C2657 C 0.71671 0.813 0.08519 0.0
C2658 C 0.72636 0.8042 0.07869 0.0
C2659 C 0.74069 0.81072 0.05118 0.0
H2660 H 0.27177 0.95179 0.0206 0.0
H2661 H 0.21781 0.91224 0.04699 0.0
H2662 H 0.28225 0.93824 0.06853 0.0
H2663 H 0.22859 0.89871 0.09752 0.0
H2664 H 0.25784 0.87138 0.16348 0.0
H2665 H 0.24436 0.88223 0.11302 0.0
H2666 H 0.28548 0.93574 0.13775 0.0
H2667 H 0.29897 0.92515 0.18562 0.0
C2668 C 0.26195 0.94028 0.03705 0.0
C2669 C 0.24376 0.93344 0.02965 0.0
C2670 C 0.2681 0.93243 0.06522 0.0
C2671 C 0.25644 0.91739 0.08822 0.0
C2672 C 0.23814 0.91024 0.08068 0.0
C2673 C 0.2319 0.91814 0.05185 0.0
C2674 C 0.2641 0.88543 0.15768 0.0
C2675 C 0.27981 0.89721 0.17868 0.0
C2676 C 0.25623 0.89172 0.1289 0.0
C2677 C 0.26383 0.91 0.1202 0.0
C2678 C 0.2793 0.92159 0.14198 0.0
C2679 C 0.28711 0.91539 0.17011 0.0
H2680 H 0.19354 0.39142 0.18619 0.0
H2681 H 0.154 0.40357 0.14518 0.0
H2682 H 0.18207 0.36654 0.13762 0.0
H2683 H 0.1431 0.3796 0.09602 0.0
H2684 H 0.11263 0.32566 0.04174 0.0
H2685 H 0.12611 0.34973 0.09046 0.0
H2686 H 0.17667 0.35341 0.07109 0.0
H2687 H 0.1627 0.32844 0.0229 0.0
C2688 C 0.1827 0.38911 0.16614 0.0
C2689 C 0.17476 0.39966 0.16993 0.0
C2690 C 0.17601 0.3747 0.13818 0.0
C2691 C 0.1612 0.37042 0.11286 0.0
C2692 C 0.154 0.38169 0.11551 0.0
C2693 C 0.16049 0.39579 0.1436 0.0
C2694 C 0.12662 0.33143 0.04794 0.0
C2695 C 0.13645 0.3249 0.02789 0.0
C2696 C 0.13453 0.34558 0.07585 0.0
C2697 C 0.1528 0.35424 0.08467 0.0
C2698 C 0.16261 0.34733 0.06562 0.0
C2699 C 0.15457 0.33288 0.03782 0.0
H2700 H 0.81017 0.72084 0.51686 0.0
H2701 H 0.86407 0.73392 0.49547 0.0
H2702 H 0.79985 0.69711 0.46804 0.0
H2703 H 0.85348 0.7099 0.44424 0.0
H2704 H 0.82343 0.65332 0.3772 0.0
H2705 H 0.83673 0.6773 0.42861 0.0
H2706 H 0.79803 0.69227 0.39797 0.0
H2707 H 0.78472 0.66862 0.34897 0.0
C2708 C 0.82002 0.71889 0.5014 0.0
C2709 C 0.83815 0.72979 0.51046 0.0
C2710 C 0.81397 0.70509 0.47274 0.0
C2711 C 0.82568 0.70142 0.45098 0.0
C2712 C 0.8439 0.71212 0.46012 0.0
C2713 C 0.85004 0.72609 0.48935 0.0
C2714 C 0.81767 0.66163 0.38183 0.0
C2715 C 0.80269 0.65856 0.35874 0.0
C2716 C 0.82544 0.67557 0.41118 0.0
C2717 C 0.81845 0.68687 0.41846 0.0
C2718 C 0.80371 0.68382 0.39473 0.0
C2719 C 0.79602 0.67006 0.36596 0.0
H2720 H 0.32241 0.12677 0.46712 0.0
H2721 H 0.36046 0.12727 0.5521 0.0
H2722 H 0.34576 0.14047 0.41464 0.0
H2723 H 0.3836 0.1411 0.5005 0.0
H2724 H 0.42546 0.17818 0.40606 0.0
H2725 H 0.40213 0.16849 0.45855 0.0
H2726 H 0.36413 0.13158 0.37244 0.0
H2727 H 0.38726 0.14094 0.32081 0.0
C2728 C 0.33574 0.12999 0.4749 0.0
C2729 C 0.33935 0.12571 0.51406 0.0
C2730 C 0.34918 0.13779 0.44468 0.0
C2731 C 0.36677 0.142 0.45297 0.0
C2732 C 0.37041 0.1383 0.49267 0.0
C2733 C 0.35698 0.13019 0.52235 0.0
C2734 C 0.41211 0.16814 0.39822 0.0
C2735 C 0.40844 0.16033 0.35898 0.0
C2736 C 0.39868 0.16247 0.42845 0.0
C2737 C 0.38104 0.14915 0.4201 0.0
C2738 C 0.37736 0.14192 0.38032 0.0
C2739 C 0.39078 0.14726 0.35062 0.0
H2740 H 0.94045 0.21022 0.4717 0.0
H2741 H 0.94356 0.25044 0.55333 0.0
H2742 H 0.92689 0.21991 0.41901 0.0
H2743 H 0.92981 0.25979 0.50148 0.0
H2744 H 0.89166 0.26401 0.40849 0.0
H2745 H 0.90164 0.25087 0.46172 0.0
H2746 H 0.93621 0.24671 0.374 0.0
H2747 H 0.92661 0.26004 0.32164 0.0
C2748 C 0.93811 0.22097 0.47869 0.0
C2749 C 0.94334 0.22955 0.51701 0.0
C2750 C 0.93036 0.22662 0.44834 0.0
C2751 C 0.92713 0.24073 0.45563 0.0
C2752 C 0.93185 0.24884 0.49446 0.0
C2753 C 0.93992 0.2435 0.52427 0.0
C2754 C 0.90123 0.26012 0.40047 0.0
C2755 C 0.90832 0.26325 0.36051 0.0
C2756 C 0.90708 0.25265 0.43112 0.0
C2757 C 0.91984 0.24764 0.42253 0.0
C2758 C 0.92633 0.25018 0.38211 0.0
C2759 C 0.92084 0.25798 0.35196 0.0
H2760 H 0.07961 0.62347 0.21767 0.0
H2761 H 0.07321 0.57242 0.18999 0.0
H2762 H 0.05538 0.61006 0.26599 0.0
H2763 H 0.04809 0.55858 0.23788 0.0
H2764 H 1.00974 0.5411 0.35265 0.0
H2765 H 1.03488 0.5524 0.30488 0.0
H2766 H 1.02525 0.59445 0.26958 0.0
H2767 H 1.00098 0.58363 0.31781 0.0
C2768 C 0.07304 0.60928 0.22194 0.0
C2769 C 0.07858 0.59916 0.19951 0.0
C2770 C 0.05879 0.60144 0.24958 0.0
C2771 C 0.04906 0.58297 0.25574 0.0
C2772 C 0.05502 0.5728 0.23445 0.0
C2773 C 0.06956 0.58077 0.20688 0.0
C2774 C 1.01287 0.55261 0.3342 0.0
C2775 C 1.00317 0.5614 0.33949 0.0
C2776 C 1.02742 0.5592 0.3067 0.0
C2777 C 1.03273 0.57476 0.2834 0.0
C2778 C 1.02234 0.58289 0.28754 0.0
C2779 C 1.00808 0.57648 0.31512 0.0
H2780 H 0.48564 0.45783 0.3841 0.0
H2781 H 0.52669 0.46235 0.30333 0.0
H2782 H 0.4764 0.47188 0.3329 0.0
H2783 H 0.51711 0.47626 0.25116 0.0
H2784 H 0.47677 0.47651 0.15368 0.0
H2785 H 0.49057 0.46709 0.20532 0.0
H2786 H 0.485 0.5002 0.29494 0.0
H2787 H 0.47138 0.50998 0.24246 0.0
C2788 C 0.49279 0.46186 0.35535 0.0
C2789 C 0.50692 0.45872 0.34812 0.0
C2790 C 0.48752 0.47011 0.32593 0.0
C2791 C 0.49589 0.47532 0.28748 0.0
C2792 C 0.5102 0.47241 0.28022 0.0
C2793 C 0.51579 0.46446 0.31026 0.0
C2794 C 0.47867 0.48203 0.18427 0.0
C2795 C 0.47285 0.49405 0.19363 0.0
C2796 C 0.48673 0.47664 0.21399 0.0
C2797 C 0.48897 0.48273 0.25473 0.0
C2798 C 0.48347 0.49507 0.26406 0.0
C2799 C 0.47574 0.50082 0.23386 0.0
H2800 H 0.59136 0.06787 0.32837 0.0
H2801 H 0.63109 0.05371 0.35425 0.0
H2802 H 0.57808 0.04384 0.27713 0.0
H2803 H 0.61781 0.02998 0.30538 0.0
H2804 H 0.6051 1.00123 0.18649 0.0
H2805 H 0.61546 1.02495 0.23539 0.0
H2806 H 0.56177 1.0113 0.26168 0.0
H2807 H 0.55114 0.98729 0.21042 0.0
C2808 C 0.59735 0.0598 0.32324 0.0
C2809 C 0.6126 0.0632 0.34563 0.0
C2810 C 0.5896 0.04582 0.294 0.0
C2811 C 0.59687 0.03481 0.2861 0.0
C2812 C 0.6119 0.03819 0.30911 0.0
C2813 C 0.61957 0.052 0.3378 0.0
C2814 C 0.59526 1.00299 0.20252 0.0
C2815 C 0.5771 0.99187 0.19413 0.0
C2816 C 0.60132 1.01678 0.23123 0.0
C2817 C 0.58961 1.02022 0.25368 0.0
C2818 C 0.57135 1.00927 0.24524 0.0
C2819 C 0.56519 0.99531 0.216 0.0
H2820 H 0.44534 0.98793 0.72263 0.0
H2821 H 0.49657 0.99604 0.68979 0.0
H2822 H 0.45887 1.01232 0.77059 0.0
H2823 H 0.51048 1.02126 0.73746 0.0
H2824 H 0.52827 0.05958 0.85291 0.0
H2825 H 0.51706 0.03436 0.80527 0.0
H2826 H 0.47392 0.04266 0.77258 0.0
H2827 H 0.4847 0.06705 0.82051 0.0
C2828 C 0.45959 0.99489 0.72572 0.0
C2829 C 0.46973 0.98979 0.70193 0.0
C2830 C 0.46748 1.00922 0.75315 0.0
C2831 C 0.486 1.01944 0.75778 0.0
C2832 C 0.49622 1.01392 0.73519 0.0
C2833 C 0.48821 0.99933 0.70776 0.0
C2834 C 0.51654 0.05615 0.83505 0.0
C2835 C 0.50744 0.0655 0.84099 0.0
C2836 C 0.51001 0.04155 0.80764 0.0
C2837 C 0.49417 0.03586 0.78517 0.0
C2838 C 0.48572 0.0459 0.78992 0.0
C2839 C 0.4921 0.06023 0.81734 0.0
H2840 H 0.07975 0.47001 0.71529 0.0
H2841 H 0.07407 0.51523 0.68941 0.0
H2842 H 0.05543 0.45906 0.76341 0.0
H2843 H 0.0489 0.50385 0.73695 0.0
H2844 H 1.01065 0.4833 0.85137 0.0
H2845 H 1.03566 0.49685 0.80323 0.0
H2846 H 1.02549 0.44487 0.76907 0.0
H2847 H 1.00136 0.43171 0.81774 0.0
C2848 C 0.0733 0.4777 0.71979 0.0
C2849 C 0.07912 0.4936 0.69798 0.0
C2850 C 0.059 0.47124 0.74737 0.0
C2851 C 0.04949 0.48016 0.75413 0.0
C2852 C 0.05565 0.49642 0.73318 0.0
C2853 C 0.07021 0.50303 0.7057 0.0
C2854 C 1.01363 0.47479 0.83309 0.0
C2855 C 1.00381 0.4563 0.83885 0.0
C2856 C 1.02812 0.48258 0.80534 0.0
C2857 C 1.03325 0.47217 0.78219 0.0
C2858 C 1.02274 0.45366 0.78685 0.0
C2859 C 1.00854 0.44597 0.81469 0.0
H2860 H 0.59533 0.59562 0.65447 0.0
H2861 H 0.55642 0.5944 0.73747 0.0
H2862 H 0.60444 0.58161 0.7061 0.0
H2863 H 0.56587 0.58052 0.79005 0.0
H2864 H 0.60654 0.58004 0.88578 0.0
H2865 H 0.59289 0.5895 0.83391 0.0
H2866 H 0.59552 0.55387 0.74669 0.0
H2867 H 0.609 0.54406 0.79939 0.0
C2868 C 0.58859 0.59228 0.68378 0.0
C2869 C 0.57512 0.59634 0.69153 0.0
C2870 C 0.5938 0.58407 0.71348 0.0
C2871 C 0.58603 0.57984 0.75269 0.0
C2872 C 0.57231 0.58361 0.7604 0.0
C2873 C 0.56678 0.59151 0.73012 0.0
C2874 C 0.60409 0.57402 0.85567 0.0
C2875 C 0.60906 0.56127 0.84707 0.0
C2876 C 0.59609 0.57942 0.82582 0.0
C2877 C 0.59301 0.57258 0.78567 0.0
C2878 C 0.59771 0.55958 0.77708 0.0
C2879 C 0.60538 0.55385 0.80742 0.0
H2880 H 0.21494 0.2337 0.35698 0.0
H2881 H 0.25244 0.28409 0.30476 0.0
H2882 H 0.22634 0.21912 0.31136 0.0
H2883 H 0.26385 0.26977 0.26065 0.0
H2884 H 0.29619 0.2436 0.22856 0.0
H2885 H 0.28156 0.25495 0.27147 0.0
H2886 H 0.23084 0.21247 0.23287 0.0
H2887 H 0.24573 0.20104 0.18816 0.0
C2888 C 0.22542 0.24172 0.33565 0.0
C2889 C 0.23259 0.26026 0.33514 0.0
C2890 C 0.23201 0.2333 0.30931 0.0
C2891 C 0.24626 0.24314 0.28205 0.0
C2892 C 0.25309 0.26157 0.28119 0.0
C2893 C 0.24637 0.26987 0.30674 0.0
C2894 C 0.28189 0.23639 0.22897 0.0
C2895 C 0.27236 0.22114 0.20433 0.0
C2896 C 0.27341 0.24311 0.2538 0.0
C2897 C 0.25486 0.23485 0.2561 0.0
C2898 C 0.24513 0.21928 0.23241 0.0
C2899 C 0.25371 0.21268 0.20658 0.0
H2900 H 0.82667 0.06952 0.23045 0.0
H2901 H 0.86713 0.05956 0.1849 0.0
H2902 H 0.81555 0.04387 0.2746 0.0
H2903 H 0.85588 0.03349 0.23058 0.0
H2904 H 0.83536 0.99606 0.35451 0.0
H2905 H 0.85017 1.02213 0.30881 0.0
H2906 H 0.79942 1.01155 0.26421 0.0
H2907 H 0.78487 0.9859 0.30837 0.0
C2908 C 0.83347 0.06204 0.22997 0.0
C2909 C 0.84803 0.06705 0.20348 0.0
C2910 C 0.82689 0.04704 0.25551 0.0
C2911 C 0.83456 0.0362 0.25652 0.0
C2912 C 0.84953 0.0414 0.23114 0.0
C2913 C 0.85604 0.05645 0.20477 0.0
C2914 C 0.82737 0.99913 0.3345 0.0
C2915 C 0.80873 0.98847 0.33564 0.0
C2916 C 0.83591 1.01417 0.30813 0.0
C2917 C 0.82612 1.01932 0.28258 0.0
C2918 C 0.80759 1.00842 0.28343 0.0
C2919 C 0.79917 0.99342 0.30898 0.0
H2920 H 1.00834 0.82222 0.18701 0.0
H2921 H 1.00058 0.77188 0.22785 0.0
H2922 H 1.03431 0.83728 0.23289 0.0
H2923 H 1.02619 0.78669 0.27211 0.0
H2924 H 0.08458 0.8163 0.30424 0.0
H2925 H 0.05873 0.8047 0.26055 0.0
H2926 H 0.04518 0.84166 0.31228 0.0
H2927 H 0.07137 0.85331 0.35765 0.0
C2928 C 1.01192 0.81431 0.20587 0.0
C2929 C 1.00196 0.79565 0.20328 0.0
C2930 C 1.0269 0.82298 0.23235 0.0
C2931 C 1.03267 0.81333 0.25646 0.0
C2932 C 1.02251 0.79476 0.25408 0.0
C2933 C 1.00755 0.78618 0.22848 0.0
C2934 C 0.07633 0.82224 0.30656 0.0
C2935 C 0.08047 0.83596 0.33509 0.0
C2936 C 0.06125 0.8154 0.28126 0.0
C2937 C 0.04951 0.82202 0.28249 0.0
C2938 C 0.05382 0.83617 0.30998 0.0
C2939 C 0.06893 0.84289 0.33615 0.0
H2940 H 0.868 0.82305 0.68415 0.0
H2941 H 0.82663 0.7726 0.72799 0.0
H2942 H 0.8565 0.83795 0.72862 0.0
H2943 H 0.81517 0.78722 0.77063 0.0
H2944 H 0.78529 0.81574 0.80313 0.0
H2945 H 0.79966 0.80433 0.75914 0.0
H2946 H 0.85041 0.84292 0.80743 0.0
H2947 H 0.83579 0.85431 0.85296 0.0
C2948 C 0.85661 0.81507 0.70327 0.0
C2949 C 0.84849 0.79643 0.70204 0.0
C2950 C 0.84997 0.82366 0.72895 0.0
C2951 C 0.83469 0.81391 0.75352 0.0
C2952 C 0.82678 0.79537 0.75225 0.0
C2953 C 0.83355 0.7869 0.72757 0.0
C2954 C 0.79955 0.82204 0.8046 0.0
C2955 C 0.80917 0.83613 0.83229 0.0
C2956 C 0.80787 0.81533 0.77913 0.0
C2957 C 0.82634 0.82247 0.77935 0.0
C2958 C 0.83619 0.837 0.80589 0.0
C2959 C 0.82776 0.84359 0.83218 0.0
H2960 H 0.21377 0.99622 0.85563 0.0
H2961 H 0.25348 0.98556 0.80803 0.0
H2962 H 0.22495 1.02221 0.80971 0.0
H2963 H 0.2646 1.01122 0.76384 0.0
H2964 H 0.29541 0.06979 0.73236 0.0
H2965 H 0.28088 0.04406 0.77636 0.0
H2966 H 0.23021 0.03255 0.72907 0.0
H2967 H 0.24502 0.05861 0.68333 0.0
C2968 C 0.22469 0.99918 0.8353 0.0
C2969 C 0.23251 0.98841 0.83599 0.0
C2970 C 0.23114 1.01416 0.8088 0.0
C2971 C 0.24587 1.01911 0.7828 0.0
C2972 C 0.2534 1.00816 0.78333 0.0
C2973 C 0.24684 0.99319 0.80892 0.0
C2974 C 0.28114 0.06202 0.73108 0.0
C2975 C 0.27158 0.06668 0.70369 0.0
C2976 C 0.27274 0.04702 0.75657 0.0
C2977 C 0.25425 0.03591 0.75667 0.0
C2978 C 0.24446 0.04073 0.7303 0.0
C2979 C 0.25298 0.05574 0.70391 0.0
H2980 H 0.98916 0.21942 0.75808 0.0
H2981 H 1.0195 0.21753 0.65632 0.0
H2982 H 1.01517 0.23054 0.80263 0.0
H2983 H 0.0458 0.22925 0.70067 0.0
H2984 H 0.09223 0.27364 0.78279 0.0
H2985 H 0.06639 0.25845 0.73783 0.0
H2986 H 1.03712 0.22293 0.83645 0.0
H2987 H 0.06327 0.23788 0.88117 0.0
C2988 C 1.0013 0.22104 0.74525 0.0
C2989 C 1.00188 0.21708 0.70344 0.0
C2990 C 1.01635 0.22751 0.77098 0.0
C2991 C 1.03287 0.2309 0.75579 0.0
C2992 C 1.03346 0.22688 0.71392 0.0
C2993 C 1.01823 0.21991 0.6884 0.0
C2994 C 0.08045 0.2623 0.79474 0.0
C2995 C 0.0802 0.25688 0.83575 0.0
C2996 C 0.0655 0.25354 0.76877 0.0
C2997 C 0.04939 0.2393 0.78297 0.0
C2998 C 0.04914 0.23379 0.82399 0.0
C2999 C 0.06429 0.24227 0.84969 0.0
H3000 H 0.88162 0.56659 0.68806 0.0
H3001 H 0.92207 0.6172 0.64267 0.0
H3002 H 0.89289 0.55188 0.6423 0.0
H3003 H 0.9332 0.60277 0.59842 0.0
H3004 H 0.96387 0.57562 0.56423 0.0
H3005 H 0.94936 0.58667 0.60845 0.0
H3006 H 0.89857 0.5463 0.56424 0.0
H3007 H 0.91336 0.53512 0.51849 0.0
C3008 C 0.89271 0.57463 0.6682 0.0
C3009 C 0.90072 0.59327 0.66957 0.0
C3010 C 0.89923 0.56616 0.64179 0.0
C3011 C 0.9142 0.57601 0.61642 0.0
C3012 C 0.92187 0.59454 0.6175 0.0
C3013 C 0.91528 0.6029 0.6431 0.0
C3014 C 0.94958 0.5688 0.56373 0.0
C3015 C 0.94 0.55425 0.53717 0.0
C3016 C 0.94117 0.57534 0.58931 0.0
C3017 C 0.92264 0.56763 0.59029 0.0
C3018 C 0.91284 0.55267 0.56483 0.0
C3019 C 0.92136 0.5462 0.53843 0.0
H3020 H 0.53486 0.39197 0.51628 0.0
H3021 H 0.49638 0.40357 0.56766 0.0
H3022 H 0.52348 0.36568 0.5613 0.0
H3023 H 0.48489 0.37745 0.61058 0.0
H3024 H 0.4533 0.31789 0.63704 0.0
H3025 H 0.46814 0.34395 0.59399 0.0
H3026 H 0.51836 0.35573 0.64465 0.0
H3027 H 0.50324 0.3295 0.68981 0.0
C3028 C 0.52417 0.38915 0.53722 0.0
C3029 C 0.51676 0.40029 0.53785 0.0
C3030 C 0.5176 0.37399 0.56318 0.0
C3031 C 0.50311 0.36919 0.58989 0.0
C3032 C 0.49595 0.38046 0.59063 0.0
C3033 C 0.5027 0.39566 0.56572 0.0
C3034 C 0.46755 0.32579 0.63926 0.0
C3035 C 0.47687 0.32119 0.66758 0.0
C3036 C 0.47612 0.34095 0.61427 0.0
C3037 C 0.49457 0.35222 0.61538 0.0
C3038 C 0.50416 0.34742 0.64248 0.0
C3039 C 0.49545 0.3323 0.6685 0.0
H3040 H 0.677 0.15655 0.51528 0.0
H3041 H 0.66355 0.10629 0.56927 0.0
H3042 H 0.70323 0.17109 0.56058 0.0
H3043 H 0.68942 0.12053 0.61286 0.0
H3044 H 0.74752 0.14567 0.64565 0.0
H3045 H 0.72192 0.13492 0.60141 0.0
H3046 H 0.71423 0.17769 0.63991 0.0
H3047 H 0.74021 0.18856 0.68577 0.0
C3048 C 0.6794 0.14857 0.53688 0.0
C3049 C 0.66776 0.13007 0.53811 0.0
C3050 C 0.69453 0.15695 0.56302 0.0
C3051 C 0.69878 0.14709 0.59066 0.0
C3052 C 0.68696 0.12872 0.59205 0.0
C3053 C 0.67186 0.12049 0.56678 0.0
C3054 C 0.74065 0.15308 0.64487 0.0
C3055 C 0.74638 0.16822 0.66987 0.0
C3056 C 0.72569 0.14673 0.61928 0.0
C3057 C 0.71564 0.15523 0.61668 0.0
C3058 C 0.72154 0.17072 0.6406 0.0
C3059 C 0.73653 0.177 0.66708 0.0
H3060 H 0.45245 0.14917 0.1394 0.0
H3061 H 0.50278 0.18671 0.19192 0.0
H3062 H 0.46671 0.13763 0.09584 0.0
H3063 H 0.51735 0.17511 0.1467 0.0
H3064 H 0.53468 0.15554 0.0218 0.0
H3065 H 0.52375 0.17054 0.0676 0.0
H3066 H 0.48143 0.11989 0.10716 0.0
H3067 H 0.49224 0.10514 0.06295 0.0
C3068 C 0.46666 0.15523 0.14157 0.0
C3069 C 0.47627 0.1691 0.1698 0.0
C3070 C 0.47492 0.14842 0.11633 0.0
C3071 C 0.49332 0.1552 0.11734 0.0
C3072 C 0.50318 0.16948 0.14457 0.0
C3073 C 0.49479 0.17618 0.17067 0.0
C3074 C 0.52321 0.1476 0.04071 0.0
C3075 C 0.51457 0.12894 0.03821 0.0
C3076 C 0.5169 0.15624 0.06716 0.0
C3077 C 0.5015 0.14656 0.09134 0.0
C3078 C 0.49315 0.12799 0.08906 0.0
C3079 C 0.49954 0.11945 0.06349 0.0
H3080 H 0.88205 0.33096 0.1912 0.0
H3081 H 0.91975 0.31819 0.14019 0.0
H3082 H 0.89374 0.35707 0.14549 0.0
H3083 H 0.93137 0.34392 0.09618 0.0
H3084 H 0.96388 0.40186 0.06199 0.0
H3085 H 0.94905 0.37641 0.10667 0.0
H3086 H 0.8985 0.36794 0.06624 0.0
H3087 H 0.91358 0.39378 1.01996 0.0
C3088 C 0.89264 0.33348 0.1702 0.0
C3089 C 0.89973 0.32206 0.1699 0.0
C3090 C 0.89939 0.34854 0.1438 0.0
C3091 C 0.91373 0.35295 0.11684 0.0
C3092 C 0.92053 0.34135 0.11643 0.0
C3093 C 0.91367 0.32632 0.14194 0.0
C3094 C 0.94958 0.39485 0.06242 0.0
C3095 C 0.94014 0.40033 0.03674 0.0
C3096 C 0.94099 0.37997 0.08828 0.0
C3097 C 0.92242 0.36974 0.09048 0.0
C3098 C 0.91279 0.37539 0.06588 0.0
C3099 C 0.92149 0.3903 0.03915 0.0
H3100 H 0.73903 0.56488 0.18686 0.0
H3101 H 0.74979 0.61529 0.13878 0.0
H3102 H 0.71277 0.55006 0.14171 0.0
H3103 H 0.72384 0.60075 0.09544 0.0
H3104 H 0.66518 0.57298 0.06426 0.0
H3105 H 0.69109 0.58436 0.10776 0.0
H3106 H 0.70208 0.54472 0.06167 0.0
H3107 H 0.67588 0.53333 1.01636 0.0
C3108 C 0.73602 0.57285 0.16663 0.0
C3109 C 0.74693 0.59146 0.16692 0.0
C3110 C 0.72088 0.56431 0.14056 0.0
C3111 C 0.71588 0.57409 0.11461 0.0
C3112 C 0.72693 0.5926 0.11486 0.0
C3113 C 0.74207 0.60101 0.13997 0.0
C3114 C 0.67288 0.56642 0.06313 0.0
C3115 C 0.66802 0.55202 0.03617 0.0
C3116 C 0.68799 0.57312 0.08835 0.0
C3117 C 0.699 0.56565 0.08869 0.0
C3118 C 0.69399 0.55087 0.06275 0.0
C3119 C 0.67889 0.54431 0.03658 0.0
H3120 H 0.57972 0.86687 0.85393 0.0
H3121 H 0.62999 0.90965 0.89467 0.0
H3122 H 0.56461 0.87774 0.89956 0.0
H3123 H 0.61514 0.9204 0.93868 0.0
H3124 H 0.58553 0.94908 0.97091 0.0
H3125 H 0.59721 0.9349 0.92746 0.0
H3126 H 0.56 0.88422 0.97857 0.0
H3127 H 0.54827 0.8987 0.02371 0.0
C3128 C 0.58762 0.87841 0.8727 0.0
C3129 C 0.60627 0.88715 0.87015 0.0
C3130 C 0.57891 0.88469 0.89906 0.0
C3131 C 0.58852 0.90016 0.92311 0.0
C3132 C 0.60708 0.90862 0.92073 0.0
C3133 C 0.61569 0.90226 0.89526 0.0
C3134 C 0.57955 0.93487 0.97316 0.0
C3135 C 0.56572 0.92524 1.00145 0.0
C3136 C 0.58645 0.92667 0.94798 0.0
C3137 C 0.57979 0.90828 0.94908 0.0
C3138 C 0.56554 0.89838 0.97635 0.0
C3139 C 0.55876 0.90673 1.0024 0.0
H3140 H 0.16969 0.6622 0.02143 0.0
H3141 H 0.1193 0.65343 0.97815 0.0
H3142 H 0.18467 0.68836 0.97603 0.0
H3143 H 0.13402 0.67924 0.93444 0.0
H3144 H 0.16303 0.73789 0.90374 0.0
H3145 H 0.15155 0.71192 0.94703 0.0
H3146 H 0.18926 0.69924 0.89616 0.0
H3147 H 0.20078 0.72554 0.85114 0.0
C3148 C 0.16175 0.66561 1.00215 0.0
C3149 C 0.14311 0.65529 1.00389 0.0
C3150 C 0.17038 0.68069 0.97595 0.0
C3151 C 0.16067 0.68622 0.95129 0.0
C3152 C 0.14212 0.67574 0.95288 0.0
C3153 C 0.1336 0.66066 0.97817 0.0
C3154 C 0.16916 0.72981 0.90153 0.0
C3155 C 0.18306 0.73423 0.87335 0.0
C3156 C 0.16239 0.71466 0.9266 0.0
C3157 C 0.16927 0.70314 0.92551 0.0
C3158 C 0.18357 0.70771 0.89835 0.0
C3159 C 0.19022 0.72288 0.87238 0.0
H3160 H 0.41387 0.47806 0.97967 0.0
H3161 H 0.40538 0.52016 1.02007 0.0
H3162 H 0.38805 0.46665 0.93599 0.0
H3163 H 0.37919 0.50865 0.97468 0.0
H3164 H 0.3425 0.48788 0.85032 0.0
H3165 H 0.36823 0.50236 0.89688 0.0
H3166 H 0.35565 0.45145 0.94478 0.0
H3167 H 0.33019 0.4372 0.89961 0.0
C3168 C 0.40666 0.48514 0.97913 0.0
C3169 C 0.41216 0.50028 1.00397 0.0
C3170 C 0.39156 0.47839 0.95387 0.0
C3171 C 0.38115 0.4865 0.95137 0.0
C3172 C 0.38677 0.50195 0.9753 0.0
C3173 C 0.40187 0.5086 1.00152 0.0
C3174 C 0.34504 0.47978 0.87122 0.0
C3175 C 0.33391 0.46119 0.87063 0.0
C3176 C 0.3599 0.48814 0.8981 0.0
C3177 C 0.3644 0.4782 0.92484 0.0
C3178 C 0.35302 0.45972 0.92463 0.0
C3179 C 0.33817 0.45147 0.8985 0.0
H3180 H 0.13033 0.47568 0.53338 0.0
H3181 H 0.15898 0.52596 0.47254 0.0
H3182 H 0.14426 0.46375 0.49001 0.0
H3183 H 0.17258 0.51374 0.42658 0.0
H3184 H 0.20184 0.48818 0.35862 0.0
H3185 H 0.19107 0.50271 0.40591 0.0
H3186 H 0.14452 0.45222 0.42936 0.0
H3187 H 0.15556 0.43805 0.38506 0.0
C3188 C 0.13961 0.48426 0.51041 0.0
C3189 C 0.14335 0.50186 0.50688 0.0
C3190 C 0.14759 0.47728 0.48467 0.0
C3191 C 0.1595 0.48737 0.45298 0.0
C3192 C 0.16363 0.50526 0.45013 0.0
C3193 C 0.15577 0.51238 0.47666 0.0
C3194 C 0.18945 0.48018 0.37444 0.0
C3195 C 0.17994 0.46169 0.36804 0.0
C3196 C 0.18308 0.48858 0.4016 0.0
C3197 C 0.16683 0.47888 0.42312 0.0
C3198 C 0.15732 0.46049 0.41557 0.0
C3199 C 0.16374 0.45218 0.38928 0.0
H3200 H 0.63081 0.73686 0.39478 0.0
H3201 H 0.58029 0.72607 0.34748 0.0
H3202 H 0.61634 0.71138 0.4395 0.0
H3203 H 0.56555 0.70021 0.39381 0.0
H3204 H 0.54878 0.66352 0.51911 0.0
H3205 H 0.56006 0.6895 0.4731 0.0
H3206 H 0.6002 0.67884 0.4291 0.0
H3207 H 0.58902 0.65324 0.47347 0.0
C3208 C 0.61652 0.72924 0.39403 0.0
C3209 C 0.60692 0.73395 0.36688 0.0
C3210 C 0.60814 0.71435 0.41993 0.0
C3211 C 0.58963 0.70336 0.42066 0.0
C3212 C 0.57981 0.70826 0.39459 0.0
C3213 C 0.5883 0.72318 0.36785 0.0
C3214 C 0.55986 0.66657 0.49922 0.0
C3215 C 0.56777 0.65589 0.50049 0.0
C3216 C 0.56636 0.68155 0.47265 0.0
C3217 C 0.58125 0.68661 0.4471 0.0
C3218 C 0.58889 0.67575 0.44825 0.0
C3219 C 0.58229 0.66079 0.47393 0.0
H3220 H 0.4151 0.95022 0.47922 0.0
H3221 H 0.40664 0.8998 0.52152 0.0
H3222 H 0.38947 0.9355 0.43502 0.0
H3223 H 0.38062 0.88482 0.47572 0.0
H3224 H 0.34348 0.86862 0.3511 0.0
H3225 H 0.36961 0.88009 0.39662 0.0
H3226 H 0.35699 0.91804 0.44636 0.0
H3227 H 0.33122 0.90665 0.40246 0.0
C3228 C 0.40797 0.93592 0.47893 0.0
C3229 C 0.41337 0.92641 0.50453 0.0
C3230 C 0.39299 0.92739 0.45337 0.0
C3231 C 0.38261 0.90883 0.45142 0.0
C3232 C 0.3882 0.89912 0.47592 0.0
C3233 C 0.4032 0.90775 0.50234 0.0
C3234 C 0.34611 0.87922 0.3722 0.0
C3235 C 0.33486 0.8865 0.37261 0.0
C3236 C 0.36119 0.88585 0.39846 0.0
C3237 C 0.36575 0.90022 0.42541 0.0
C3238 C 0.35428 0.90717 0.42606 0.0
C3239 C 0.33924 0.90045 0.40064 0.0
H3240 H 0.29526 0.30889 0.10388 0.0
H3241 H 0.32797 0.33997 0.205 0.0
H3242 H 0.29714 0.33526 0.07379 0.0
H3243 H 0.33053 0.36637 0.17431 0.0
H3244 H 0.34758 0.41343 0.11133 0.0
H3245 H 0.32387 0.38702 0.14325 0.0
H3246 H 0.32353 0.35604 0.03957 0.0
H3247 H 0.34658 0.3825 1.00716 0.0
C3248 C 0.30223 0.32121 0.12065 0.0
C3249 C 0.31201 0.32252 0.15609 0.0
C3250 C 0.30342 0.33638 0.10317 0.0
C3251 C 0.31454 0.35306 0.12067 0.0
C3252 C 0.32195 0.35383 0.15955 0.0
C3253 C 0.32067 0.33868 0.17711 0.0
C3254 C 0.34178 0.40114 0.09436 0.0
C3255 C 0.34934 0.39988 0.05738 0.0
C3256 C 0.32826 0.38594 0.11288 0.0
C3257 C 0.32228 0.36928 0.09487 0.0
C3258 C 0.32787 0.36856 0.05476 0.0
C3259 C 0.34128 0.38375 0.03618 0.0
H3260 H 0.65427 0.94897 0.10104 0.0
H3261 H 0.68449 0.97923 0.99629 0.0
H3262 H 0.681 0.95223 0.13236 0.0
H3263 H 0.71125 0.98312 0.02809 0.0
H3264 H 0.7279 1.00412 0.19277 0.0
H3265 H 0.70144 0.98012 0.1625 0.0
H3266 H 0.73235 0.97762 0.06207 0.0
H3267 H 0.75882 1.00218 0.09192 0.0
C3268 C 0.66648 0.95564 0.0838 0.0
C3269 C 0.66744 0.9644 0.04685 0.0
C3270 C 0.68185 0.95762 0.10196 0.0
C3271 C 0.69837 0.96852 0.08359 0.0
C3272 C 0.69883 0.97477 0.0435 0.0
C3273 C 0.68347 0.9727 0.02528 0.0
C3274 C 0.72913 0.99801 0.16502 0.0
C3275 C 0.74527 1.00539 0.14401 0.0
C3276 C 0.71395 0.98406 0.14772 0.0
C3277 C 0.71467 0.97728 0.10904 0.0
C3278 C 0.7313 0.98286 0.09137 0.0
C3279 C 0.7465 0.99687 0.10868 0.0
H3280 H 0.06667 0.7718 0.09809 0.0
H3281 H 0.06462 0.73932 0.20014 0.0
H3282 H 0.09102 0.76956 0.06857 0.0
H3283 H 0.08846 0.73656 0.17023 0.0
H3284 H 0.08755 0.71872 1.00521 0.0
H3285 H 0.08442 0.7422 0.03601 0.0
H3286 H 0.1162 0.74356 0.13916 0.0
H3287 H 0.1188 0.71955 0.1087 0.0
C3288 C 0.07195 0.76485 0.11522 0.0
C3289 C 0.0634 0.75522 0.15074 0.0
C3290 C 0.08585 0.76347 0.09811 0.0
C3291 C 0.09128 0.75237 0.11617 0.0
C3292 C 0.08459 0.74514 0.15514 0.0
C3293 C 0.07075 0.74655 0.17225 0.0
C3294 C 0.09445 0.72452 0.03366 0.0
C3295 C 0.10286 0.71691 0.05522 0.0
C3296 C 0.09282 0.73816 0.0513 0.0
C3297 C 0.09958 0.74438 0.09084 0.0
C3298 C 0.11047 0.73873 0.10915 0.0
C3299 C 0.11206 0.72504 0.0915 0.0
H3300 H 0.42713 0.3327 0.4835 0.0
H3301 H 0.40324 0.34416 0.58583 0.0
H3302 H 0.3985 0.30794 0.46465 0.0
H3303 H 0.37464 0.31988 0.56643 0.0
H3304 H 0.35357 0.31534 0.40204 0.0
H3305 H 0.37962 0.31732 0.43224 0.0
H3306 H 0.35033 0.29191 0.54236 0.0
H3307 H 0.32379 0.28959 0.51137 0.0
C3308 C 0.41598 0.3294 0.50337 0.0
C3309 C 0.41725 0.34083 0.53518 0.0
C3310 C 0.39951 0.31523 0.49234 0.0
C3311 C 0.38419 0.31252 0.51272 0.0
C3312 C 0.38608 0.32174 0.54946 0.0
C3313 C 0.40254 0.33581 0.5606 0.0
C3314 C 0.35237 0.30944 0.43195 0.0
C3315 C 0.3367 0.3028 0.45472 0.0
C3316 C 0.3674 0.31048 0.44938 0.0
C3317 C 0.36718 0.30505 0.49015 0.0
C3318 C 0.35098 0.29649 0.51116 0.0
C3319 C 0.33585 0.29534 0.49355 0.0
H3320 H 0.75065 0.05055 0.34712 0.0
H3321 H 0.78384 0.05271 0.44768 0.0
H3322 H 0.74835 0.07463 0.37719 0.0
H3323 H 0.78207 0.07734 0.47736 0.0
H3324 H 0.73287 0.10621 0.43808 0.0
H3325 H 0.75616 0.10271 0.40678 0.0
H3326 H 0.7556 0.07208 0.51156 0.0
H3327 H 0.73292 0.07622 0.54335 0.0
C3328 C 0.75809 0.05672 0.37477 0.0
C3329 C 0.76692 0.0494 0.39574 0.0
C3330 C 0.75695 0.07071 0.39195 0.0
C3331 C 0.76461 0.07761 0.43048 0.0
C3332 C 0.77568 0.07204 0.44816 0.0
C3333 C 0.77679 0.05799 0.43096 0.0
C3334 C 0.7384 0.09955 0.45543 0.0
C3335 C 0.73066 0.09092 0.49254 0.0
C3336 C 0.75167 0.09742 0.43728 0.0
C3337 C 0.75725 0.08652 0.45582 0.0
C3338 C 0.75155 0.08042 0.49602 0.0
C3339 C 0.73837 0.08263 0.51424 0.0
H3340 H 1.01478 0.717 0.33166 0.0
H3341 H 1.0153 0.74754 0.43618 0.0
H3342 H 0.99192 0.69034 0.36388 0.0
H3343 H 0.99184 0.7209 0.46796 0.0
H3344 H 0.99715 0.67415 0.52827 0.0
H3345 H 0.99941 0.70053 0.49805 0.0
H3346 H 0.96539 0.66933 0.39844 0.0
H3347 H 0.96368 0.64296 0.42825 0.0
C3348 C 1.00939 0.71811 0.36069 0.0
C3349 C 1.01728 0.7342 0.38206 0.0
C3350 C 0.9961 0.70281 0.37916 0.0
C3351 C 0.99048 0.70338 0.41932 0.0
C3352 C 0.99626 0.71996 0.43751 0.0
C3353 C 1.00963 0.73528 0.41908 0.0
C3354 C 0.98962 0.67284 0.50075 0.0
C3355 C 0.98076 0.65666 0.47991 0.0
C3356 C 0.99074 0.68797 0.48348 0.0
C3357 C 0.98302 0.68714 0.44499 0.0
C3358 C 0.97185 0.67046 0.42759 0.0
C3359 C 0.97076 0.65531 0.44487 0.0
H3360 H 0.74588 0.64452 0.98078 0.0
H3361 H 0.72278 0.66385 0.06914 0.0
H3362 H 0.76961 0.67473 0.96861 0.0
H3363 H 0.74655 0.69356 0.05809 0.0
H3364 H 0.76171 0.71917 0.89968 0.0
H3365 H 0.76008 0.69311 0.9296 0.0
H3366 H 0.77633 0.71947 0.04686 0.0
H3367 H 0.77839 0.74598 1.01642 0.0
C3368 C 0.74623 0.65507 0.99888 0.0
C3369 C 0.73188 0.65188 0.02416 0.0
C3370 C 0.75992 0.67235 0.9921 0.0
C3371 C 0.75954 0.68656 1.01113 0.0
C3372 C 0.74715 0.68294 0.04247 0.0
C3373 C 0.73337 0.66574 0.04883 0.0
C3374 C 0.76575 0.71979 0.93134 0.0
C3375 C 0.76957 0.73444 0.95602 0.0
C3376 C 0.76492 0.70479 0.94858 0.0
C3377 C 0.76772 0.7041 0.9909 0.0
C3378 C 0.77383 0.71955 1.01432 0.0
C3379 C 0.77479 0.73463 0.99697 0.0
H3380 H 0.35196 0.05367 0.83444 0.0
H3381 H 0.32161 0.05386 0.93857 0.0
H3382 H 0.37869 0.07666 0.86618 0.0
H3383 H 0.34833 0.07743 0.96988 0.0
H3384 H 0.39505 0.07216 0.03065 0.0
H3385 H 0.36867 0.06986 1.00037 0.0
H3386 H 0.39976 0.10342 0.90009 0.0
H3387 H 0.42613 0.10518 0.92997 0.0
C3388 C 0.35091 0.05924 0.86326 0.0
C3389 C 0.33485 0.05153 0.8847 0.0
C3390 C 0.36625 0.0726 0.88145 0.0
C3391 C 0.36575 0.07847 0.92139 0.0
C3392 C 0.3492 0.07284 0.93959 0.0
C3393 C 0.33385 0.0594 0.92144 0.0
C3394 C 0.39634 0.07959 1.00297 0.0
C3395 C 0.41248 0.08832 0.98197 0.0
C3396 C 0.38121 0.07845 0.98566 0.0
C3397 C 0.382 0.08602 0.94698 0.0
C3398 C 0.39866 0.09709 0.92939 0.0
C3399 C 0.41381 0.0982 0.94671 0.0
H3400 H 0.99741 0.33791 0.03221 0.0
H3401 H 0.96421 0.33562 0.93151 0.0
H3402 H 1.00012 0.31413 1.00173 0.0
H3403 H 0.96636 0.31129 0.90152 0.0
H3404 H 1.01658 0.28352 0.93898 0.0
H3405 H 0.99305 0.28644 0.97091 0.0
H3406 H 0.99322 0.31755 0.86753 0.0
H3407 H 1.01619 0.31402 0.83515 0.0
C3408 C 0.99002 0.33175 1.00449 0.0
C3409 C 0.98115 0.33902 0.98351 0.0
C3410 C 0.99141 0.31794 0.98706 0.0
C3411 C 0.98392 0.31117 0.94832 0.0
C3412 C 0.97265 0.31653 0.93084 0.0
C3413 C 0.97132 0.33041 0.94825 0.0
C3414 C 1.01094 0.29018 0.92208 0.0
C3415 C 1.0186 0.29907 0.88517 0.0
C3416 C 0.99752 0.29196 0.94059 0.0
C3417 C 0.99169 0.30276 0.92259 0.0
C3418 C 0.99743 0.30924 0.88262 0.0
C3419 C 1.01078 0.30739 0.86408 0.0
H3420 H 0.76033 0.77274 0.59729 0.0
H3421 H 0.72903 0.74117 0.69947 0.0
H3422 H 0.73405 0.77061 0.56599 0.0
H3423 H 0.70272 0.73836 0.66765 0.0
H3424 H 0.68641 0.72103 0.50083 0.0
H3425 H 0.71303 0.74407 0.53277 0.0
H3426 H 0.68232 0.74503 0.63553 0.0
H3427 H 0.65575 0.7213 0.60422 0.0
C3428 C 0.74797 0.76597 0.61396 0.0
C3429 C 0.74658 0.7566 0.65019 0.0
C3430 C 0.73286 0.76462 0.5958 0.0
C3431 C 0.71615 0.75377 0.61341 0.0
C3432 C 0.71529 0.74674 0.65281 0.0
C3433 C 0.73038 0.74816 0.67103 0.0
C3434 C 0.68527 0.7266 0.52955 0.0
C3435 C 0.66914 0.71888 0.55074 0.0
C3436 C 0.70055 0.74001 0.54784 0.0
C3437 C 0.69992 0.74597 0.5876 0.0
C3438 C 0.68331 0.74034 0.60546 0.0
C3439 C 0.66803 0.72682 0.58727 0.0
H3440 H 0.3515 0.98412 0.50939 0.0
H3441 H 0.34812 0.95017 0.60941 0.0
H3442 H 0.32713 0.98627 0.53812 0.0
H3443 H 0.32317 0.95173 0.63762 0.0
H3444 H 0.29528 1.00175 0.59802 0.0
H3445 H 0.29894 0.97862 0.56626 0.0
H3446 H 0.32813 0.97786 0.67263 0.0
H3447 H 0.32381 1.00036 0.70482 0.0
C3448 C 0.345 0.97648 0.53658 0.0
C3449 C 0.35208 0.96751 0.5579 0.0
C3450 C 0.33084 0.97753 0.55298 0.0
C3451 C 0.32352 0.96961 0.59105 0.0
C3452 C 0.32882 0.95834 0.60883 0.0
C3453 C 0.34306 0.95735 0.59245 0.0
C3454 C 0.30164 0.99596 0.61555 0.0
C3455 C 0.30982 1.00328 0.65333 0.0
C3456 C 0.30387 0.98278 0.59713 0.0
C3457 C 0.31442 0.97688 0.61609 0.0
C3458 C 0.32005 0.98216 0.65676 0.0
C3459 C 0.31774 0.99524 0.67522 0.0
H3460 H 0.08523 0.38186 0.5566 0.0
H3461 H 0.11671 0.411 0.66129 0.0
H3462 H 0.08294 0.35516 0.5836 0.0
H3463 H 0.11413 0.38384 0.68906 0.0
H3464 H 0.06812 0.30706 0.63363 0.0
H3465 H 0.09215 0.33523 0.60993 0.0
H3466 H 0.08694 0.36046 0.7187 0.0
H3467 H 0.06351 0.33216 0.74324 0.0
C3468 C 0.09231 0.38276 0.58461 0.0
C3469 C 0.10068 0.39849 0.60738 0.0
C3470 C 0.09106 0.36734 0.60018 0.0
C3471 C 0.09806 0.36725 0.63905 0.0
C3472 C 0.10831 0.38342 0.65943 0.0
C3473 C 0.10964 0.39893 0.64367 0.0
C3474 C 0.07277 0.3184 0.6537 0.0
C3475 C 0.06342 0.31759 0.68948 0.0
C3476 C 0.0865 0.33462 0.63987 0.0
C3477 C 0.09086 0.3502 0.6614 0.0
C3478 C 0.08375 0.34879 0.70087 0.0
C3479 C 0.07015 0.33255 0.71487 0.0
H3480 H 1.02112 0.65102 0.68425 0.0
H3481 H 0.98978 0.61804 0.7847 0.0
H3482 H 0.04743 0.65337 0.71506 0.0
H3483 H 1.0161 0.61985 0.81515 0.0
H3484 H 0.06413 0.66921 0.88122 0.0
H3485 H 1.03732 0.6464 0.84931 0.0
H3486 H 0.06758 0.64559 0.74546 0.0
H3487 H 0.09435 0.669 0.77684 0.0
C3488 C 1.01977 0.64363 0.71205 0.0
C3489 C 1.00356 0.63485 0.73274 0.0
C3490 C 1.03486 0.6448 0.72966 0.0
C3491 C 1.03397 0.63721 0.76836 0.0
C3492 C 1.01727 0.62618 0.78582 0.0
C3493 C 1.00216 0.62505 0.76818 0.0
C3494 C 0.06513 0.66367 0.85231 0.0
C3495 C 0.08119 0.67136 0.83084 0.0
C3496 C 0.04975 0.65042 0.83403 0.0
C3497 C 0.05021 0.64461 0.794 0.0
C3498 C 0.06674 0.65016 0.7758 0.0
C3499 C 0.08213 0.6635 0.79401 0.0
H3500 H 0.41729 0.37508 0.61578 0.0
H3501 H 0.45495 0.38864 0.71425 0.0
H3502 H 0.41389 0.40007 0.63287 0.0
H3503 H 0.45188 0.41403 0.73093 0.0
H3504 H 0.39471 0.43154 0.68561 0.0
H3505 H 0.41849 0.42875 0.65392 0.0
H3506 H 0.4243 0.40563 0.76596 0.0
H3507 H 0.40064 0.40808 0.7969 0.0
C3508 C 0.42563 0.38399 0.63954 0.0
C3509 C 0.43578 0.37945 0.66468 0.0
C3510 C 0.42376 0.39848 0.64936 0.0
C3511 C 0.432 0.40855 0.6846 0.0
C3512 C 0.44492 0.40612 0.70441 0.0
C3513 C 0.44675 0.39157 0.69463 0.0
C3514 C 0.40138 0.42623 0.70369 0.0
C3515 C 0.39537 0.41946 0.74331 0.0
C3516 C 0.41512 0.42482 0.68566 0.0
C3517 C 0.42308 0.41667 0.70703 0.0
C3518 C 0.4186 0.4121 0.74848 0.0
C3519 C 0.40485 0.41341 0.76635 0.0
H3520 H 0.6816 0.07947 0.7784 0.0
H3521 H 0.68263 0.04908 0.67526 0.0
H3522 H 0.6575 0.05281 0.80868 0.0
H3523 H 0.65902 1.02242 0.70585 0.0
H3524 H 0.62956 0.97502 0.76775 0.0
H3525 H 0.63162 1.00158 0.7383 0.0
H3526 H 0.66453 0.0321 0.83999 0.0
H3527 H 0.66197 1.00552 0.86982 0.0
C3528 C 0.67613 0.06724 0.76122 0.0
C3529 C 0.68434 0.06619 0.72512 0.0
C3530 C 0.66238 0.05193 0.77875 0.0
C3531 C 0.65675 0.03538 0.76052 0.0
C3532 C 0.66305 0.03487 0.72109 0.0
C3533 C 0.67675 0.05016 0.70357 0.0
C3534 C 0.63644 0.98724 0.78492 0.0
C3535 C 0.64612 0.98837 0.82039 0.0
C3536 C 0.63771 1.0025 0.76785 0.0
C3537 C 0.64876 1.01906 0.78592 0.0
C3538 C 0.656 1.01963 0.82489 0.0
C3539 C 0.6547 1.00439 0.84196 0.0
H3540 H 0.4529 0.081 0.27363 0.0
H3541 H 0.42289 0.05027 0.16913 0.0
H3542 H 0.44984 0.05446 0.30561 0.0
H3543 H 0.41911 1.02369 0.20166 0.0
H3544 H 0.39897 1.00729 0.36763 0.0
H3545 H 0.42251 0.03381 0.3365 0.0
H3546 H 0.42464 1.00283 0.23569 0.0
H3547 H 0.40044 0.97633 0.26624 0.0
C3548 C 0.4463 0.06872 0.25662 0.0
C3549 C 0.43757 0.06757 0.21948 0.0
C3550 C 0.44441 0.05345 0.27519 0.0
C3551 C 0.43363 0.03683 0.25708 0.0
C3552 C 0.42737 0.03618 0.21692 0.0
C3553 C 0.42936 0.05144 0.19827 0.0
C3554 C 0.40488 1.00607 0.33953 0.0
C3555 C 0.39744 0.98988 0.31866 0.0
C3556 C 0.41857 1.02129 0.32174 0.0
C3557 C 0.42511 1.02056 0.28274 0.0
C3558 C 0.41956 1.0039 0.26518 0.0
C3559 C 0.40576 0.98867 0.28292 0.0
H3560 H 1.01697 0.3879 0.16391 0.0
H3561 H 0.98743 0.38696 0.27082 0.0
H3562 H 0.04394 0.41055 0.19551 0.0
H3563 H 1.01436 0.41024 0.30197 0.0
H3564 H 0.06112 0.40401 0.35848 0.0
H3565 H 1.03469 0.40219 0.32992 0.0
H3566 H 0.06542 0.43665 0.23046 0.0
H3567 H 0.09185 0.43792 0.25859 0.0
C3568 C 1.01613 0.39316 0.19337 0.0
C3569 C 1.00026 0.38518 0.21555 0.0
C3570 C 1.03161 0.40633 0.2115 0.0
C3571 C 1.03142 0.41174 0.25209 0.0
C3572 C 1.01501 0.40596 0.27116 0.0
C3573 C 0.99952 0.39269 0.25309 0.0
C3574 C 0.06232 0.41171 0.33134 0.0
C3575 C 0.07838 0.42059 0.31003 0.0
C3576 C 0.04717 0.41085 0.31505 0.0
C3577 C 0.04782 0.41886 0.27706 0.0
C3578 C 0.06441 0.43 0.25923 0.0
C3579 C 0.07959 0.43081 0.27554 0.0
H3580 H 0.63144 0.6689 0.254 0.0
H3581 H 0.66378 0.67 0.35539 0.0
H3582 H 0.63347 0.64461 0.22324 0.0
H3583 H 0.6664 0.6463 0.32421 0.0
H3584 H 0.68225 0.61521 0.26215 0.0
H3585 H 0.65895 0.61864 0.29344 0.0
H3586 H 0.65994 0.64988 0.1895 0.0
H3587 H 0.68258 0.64571 0.15753 0.0
C3588 C 0.63837 0.66347 0.27062 0.0
C3589 C 0.64793 0.67168 0.30646 0.0
C3590 C 0.63964 0.64962 0.25279 0.0
C3591 C 0.65058 0.64388 0.27042 0.0
C3592 C 0.65792 0.65037 0.30944 0.0
C3593 C 0.65659 0.66414 0.32727 0.0
C3594 C 0.67683 0.62199 0.24492 0.0
C3595 C 0.68468 0.63076 0.20801 0.0
C3596 C 0.66354 0.62409 0.26312 0.0
C3597 C 0.65807 0.63513 0.24487 0.0
C3598 C 0.6639 0.64143 0.20484 0.0
C3599 C 0.67707 0.63921 0.18653 0.0
loop_
_geom_bond_atom_site_label_1
_geom_bond_atom_site_label_2
_geom_bond_distance
_geom_bond_site_symmetry_2
_ccdc_geom_bond_type
Tb0 C9 2.764 . S
Tb0 O10 2.325 . S
Tb0 O13 2.303 . S
Tb0 O17 2.322 . S
Tb0 O18 2.349 . S
Tb0 O21 2.415 . S
Tb0 O22 2.399 . S
Tb1 O11 2.322 . S
Tb1 O12 2.349 . S
Tb1 O14 2.415 . S
Tb1 O15 2.399 . S
Tb1 O16 2.325 . S
Tb1 O19 2.303 . S
Tb1 C30 2.764 . S
C2 O18 1.261 . S
C2 O19 1.257 . S
C3 C6 1.358 . S
C3 C7 1.332 . S
C3 C9 1.504 . S
C4 C5 1.373 . S
C4 C8 1.308 . S
C5 C4 1.373 . S
C5 C6 1.429 . S
C5 H32 0.932 . S
C6 C3 1.358 . S
C6 C5 1.429 . S
C6 H33 0.930 . S
C7 C3 1.332 . S
C7 C8 1.394 . S
C7 H34 0.932 . S
C8 C4 1.308 . S
C8 C7 1.394 . S
C8 H35 0.929 . S
C9 Tb0 2.764 . S
C9 C3 1.504 . S
C9 O21 1.239 . S
C9 O22 1.263 . S
O10 Tb0 2.325 . S
O10 C20 1.236 . S
O11 Tb1 2.322 . S
O11 C20 1.257 . S
O12 Tb1 2.349 . S
O12 C23 1.261 . S
O13 Tb0 2.303 . S
O13 C23 1.257 . S
O14 Tb1 2.415 . S
O14 C30 1.239 . S
O15 Tb1 2.399 . S
O15 C30 1.263 . S
O16 Tb1 2.325 . S
O16 C31 1.236 . S
O17 Tb0 2.322 . S
O17 C31 1.257 . S
O18 Tb0 2.349 . S
O18 C2 1.261 . S
O19 Tb1 2.303 . S
O19 C2 1.257 . S
C20 O10 1.236 . S
C20 O11 1.257 . S
O21 Tb0 2.415 . S
O21 C9 1.239 . S
O22 Tb0 2.399 . S
O22 C9 1.263 . S
C23 O12 1.261 . S
C23 O13 1.257 . S
C24 C27 1.358 . S
C24 C28 1.332 . S
C24 C30 1.504 . S
C25 C26 1.373 . S
C25 C29 1.308 . S
C26 C25 1.373 . S
C26 C27 1.429 . S
C26 H36 0.932 . S
C27 C24 1.358 . S
C27 C26 1.429 . S
C27 H37 0.930 . S
C28 C24 1.332 . S
C28 C29 1.394 . S
C28 H38 0.932 . S
C29 C25 1.308 . S
C29 C28 1.394 . S
C29 H39 0.929 . S
C30 Tb1 2.764 . S
C30 O14 1.239 . S
C30 O15 1.263 . S
C30 C24 1.504 . S
C31 O16 1.236 . S
C31 O17 1.257 . S
H32 C5 0.932 . S
H33 C6 0.930 . S
H34 C7 0.932 . S
H35 C8 0.929 . S
H36 C26 0.932 . S
H37 C27 0.930 . S
H38 C28 0.932 . S
H39 C29 0.929 . S
Tb40 C49 2.764 . S
Tb40 O50 2.325 . S
Tb40 O53 2.303 . S
Tb40 O57 2.322 . S
Tb40 O58 2.349 . S
Tb40 O61 2.415 . S
Tb40 O62 2.399 . S
Tb41 O51 2.322 . S
Tb41 O52 2.349 . S
Tb41 O54 2.415 . S
Tb41 O55 2.399 . S
Tb41 O56 2.325 . S
Tb41 O59 2.303 . S
Tb41 C70 2.764 . S
C42 O58 1.261 . S
C42 O59 1.257 . S
C43 C46 1.358 . S
C43 C47 1.332 . S
C43 C49 1.504 . S
C44 C45 1.373 . S
C44 C48 1.308 . S
C45 C44 1.373 . S
C45 C46 1.429 . S
C45 H72 0.932 . S
C46 C43 1.358 . S
C46 C45 1.429 . S
C46 H73 0.930 . S
C47 C43 1.332 . S
C47 C48 1.394 . S
C47 H74 0.932 . S
C48 C44 1.308 . S
C48 C47 1.394 . S
C48 H75 0.929 1_545 S
C49 Tb40 2.764 . S
C49 C43 1.504 . S
C49 O61 1.239 . S
C49 O62 1.263 . S
O50 Tb40 2.325 . S
O50 C60 1.236 . S
O51 Tb41 2.322 . S
O51 C60 1.257 . S
O52 Tb41 2.349 . S
O52 C63 1.261 . S
O53 Tb40 2.303 . S
O53 C63 1.257 . S
O54 Tb41 2.415 . S
O54 C70 1.239 . S
O55 Tb41 2.399 . S
O55 C70 1.263 . S
O56 Tb41 2.325 . S
O56 C71 1.236 . S
O57 Tb40 2.322 . S
O57 C71 1.257 . S
O58 Tb40 2.349 . S
O58 C42 1.261 . S
O59 Tb41 2.303 . S
O59 C42 1.257 . S
C60 O50 1.236 . S
C60 O51 1.257 . S
O61 Tb40 2.415 . S
O61 C49 1.239 . S
O62 Tb40 2.399 . S
O62 C49 1.263 . S
C63 O52 1.261 . S
C63 O53 1.257 . S
C64 C67 1.358 . S
C64 C68 1.332 . S
C64 C70 1.504 . S
C65 C66 1.373 . S
C65 C69 1.308 . S
C66 C65 1.373 . S
C66 C67 1.429 . S
C66 H76 0.932 . S
C67 C64 1.358 . S
C67 C66 1.429 . S
C67 H77 0.930 . S
C68 C64 1.332 . S
C68 C69 1.394 . S
C68 H78 0.932 . S
C69 C65 1.308 . S
C69 C68 1.394 . S
C69 H79 0.929 . S
C70 Tb41 2.764 . S
C70 O54 1.239 . S
C70 O55 1.263 . S
C70 C64 1.504 . S
C71 O56 1.236 . S
C71 O57 1.257 . S
H72 C45 0.932 . S
H73 C46 0.930 . S
H74 C47 0.932 . S
H75 C48 0.929 1_565 S
H76 C66 0.932 . S
H77 C67 0.930 . S
H78 C68 0.932 . S
H79 C69 0.929 . S
Tb80 C89 2.764 . S
Tb80 O90 2.325 . S
Tb80 O93 2.303 . S
Tb80 O97 2.322 . S
Tb80 O98 2.349 . S
Tb80 O101 2.415 . S
Tb80 O102 2.399 . S
Tb81 O91 2.322 . S
Tb81 O92 2.349 . S
Tb81 O94 2.415 . S
Tb81 O95 2.399 . S
Tb81 O96 2.325 . S
Tb81 O99 2.303 . S
Tb81 C110 2.764 . S
C82 O98 1.261 . S
C82 O99 1.257 . S
C83 C86 1.358 . S
C83 C87 1.332 . S
C83 C89 1.504 . S
C84 C85 1.373 . S
C84 C88 1.308 . S
C85 C84 1.373 . S
C85 C86 1.429 . S
C85 H112 0.932 . S
C86 C83 1.358 . S
C86 C85 1.429 . S
C86 H113 0.930 . S
C87 C83 1.332 . S
C87 C88 1.394 . S
C87 H114 0.932 . S
C88 C84 1.308 . S
C88 C87 1.394 . S
C88 H115 0.929 1_655 S
C89 Tb80 2.764 . S
C89 C83 1.504 . S
C89 O101 1.239 . S
C89 O102 1.263 . S
O90 Tb80 2.325 . S
O90 C100 1.236 . S
O91 Tb81 2.322 . S
O91 C100 1.257 . S
O92 Tb81 2.349 . S
O92 C103 1.261 . S
O93 Tb80 2.303 . S
O93 C103 1.257 . S
O94 Tb81 2.415 . S
O94 C110 1.239 . S
O95 Tb81 2.399 . S
O95 C110 1.263 . S
O96 Tb81 2.325 . S
O96 C111 1.236 . S
O97 Tb80 2.322 . S
O97 C111 1.257 . S
O98 Tb80 2.349 . S
O98 C82 1.261 . S
O99 Tb81 2.303 . S
O99 C82 1.257 . S
C100 O90 1.236 . S
C100 O91 1.257 . S
O101 Tb80 2.415 . S
O101 C89 1.239 . S
O102 Tb80 2.399 . S
O102 C89 1.263 . S
C103 O92 1.261 . S
C103 O93 1.257 . S
C104 C107 1.358 . S
C104 C108 1.332 . S
C104 C110 1.504 . S
C105 C106 1.373 . S
C105 C109 1.308 . S
C106 C105 1.373 . S
C106 C107 1.429 . S
C106 H116 0.932 . S
C107 C104 1.358 . S
C107 C106 1.429 . S
C107 H117 0.930 . S
C108 C104 1.332 . S
C108 C109 1.394 . S
C108 H118 0.932 . S
C109 C105 1.308 . S
C109 C108 1.394 . S
C109 H119 0.929 . S
C110 Tb81 2.764 . S
C110 O94 1.239 . S
C110 O95 1.263 . S
C110 C104 1.504 . S
C111 O96 1.236 . S
C111 O97 1.257 . S
H112 C85 0.932 . S
H113 C86 0.930 . S
H114 C87 0.932 . S
H115 C88 0.929 1_455 S
H116 C106 0.932 . S
H117 C107 0.930 . S
H118 C108 0.932 . S
H119 C109 0.929 . S
Tb120 C129 2.764 . S
Tb120 O130 2.325 . S
Tb120 O133 2.303 . S
Tb120 O137 2.322 . S
Tb120 O138 2.349 . S
Tb120 O141 2.415 . S
Tb120 O142 2.399 . S
Tb121 O131 2.322 . S
Tb121 O132 2.349 . S
Tb121 O134 2.415 . S
Tb121 O135 2.399 . S
Tb121 O136 2.325 . S
Tb121 O139 2.303 . S
Tb121 C150 2.764 . S
C122 O138 1.261 . S
C122 O139 1.257 . S
C123 C126 1.358 . S
C123 C127 1.332 . S
C123 C129 1.504 . S
C124 C125 1.373 . S
C124 C128 1.308 . S
C125 C124 1.373 . S
C125 C126 1.429 . S
C125 H152 0.932 . S
C126 C123 1.358 . S
C126 C125 1.429 . S
C126 H153 0.930 . S
C127 C123 1.332 . S
C127 C128 1.394 . S
C127 H154 0.932 . S
C128 C124 1.308 . S
C128 C127 1.394 . S
C128 H155 0.929 . S
C129 Tb120 2.764 . S
C129 C123 1.504 . S
C129 O141 1.239 . S
C129 O142 1.263 . S
O130 Tb120 2.325 . S
O130 C140 1.236 . S
O131 Tb121 2.322 . S
O131 C140 1.257 . S
O132 Tb121 2.349 . S
O132 C143 1.261 . S
O133 Tb120 2.303 . S
O133 C143 1.257 . S
O134 Tb121 2.415 . S
O134 C150 1.239 . S
O135 Tb121 2.399 . S
O135 C150 1.263 . S
O136 Tb121 2.325 . S
O136 C151 1.236 . S
O137 Tb120 2.322 . S
O137 C151 1.257 . S
O138 Tb120 2.349 . S
O138 C122 1.261 . S
O139 Tb121 2.303 . S
O139 C122 1.257 . S
C140 O130 1.236 . S
C140 O131 1.257 . S
O141 Tb120 2.415 . S
O141 C129 1.239 . S
O142 Tb120 2.399 . S
O142 C129 1.263 . S
C143 O132 1.261 . S
C143 O133 1.257 . S
C144 C147 1.358 . S
C144 C148 1.332 . S
C144 C150 1.504 . S
C145 C146 1.373 . S
C145 C149 1.308 . S
C146 C145 1.373 . S
C146 C147 1.429 . S
C146 H156 0.932 . S
C147 C144 1.358 . S
C147 C146 1.429 . S
C147 H157 0.930 . S
C148 C144 1.332 . S
C148 C149 1.394 . S
C148 H158 0.932 . S
C149 C145 1.308 . S
C149 C148 1.394 . S
C149 H159 0.929 . S
C150 Tb121 2.764 . S
C150 O134 1.239 . S
C150 O135 1.263 . S
C150 C144 1.504 . S
C151 O136 1.236 . S
C151 O137 1.257 . S
H152 C125 0.932 . S
H153 C126 0.930 . S
H154 C127 0.932 . S
H155 C128 0.929 . S
H156 C146 0.932 . S
H157 C147 0.930 . S
H158 C148 0.932 . S
H159 C149 0.929 . S
Tb160 C169 2.764 . S
Tb160 O170 2.325 . S
Tb160 O173 2.303 . S
Tb160 O177 2.322 . S
Tb160 O178 2.349 . S
Tb160 O181 2.415 . S
Tb160 O182 2.399 . S
Tb161 O171 2.322 . S
Tb161 O172 2.349 . S
Tb161 O174 2.415 . S
Tb161 O175 2.399 . S
Tb161 O176 2.325 . S
Tb161 O179 2.303 . S
Tb161 C190 2.764 . S
C162 O178 1.261 . S
C162 O179 1.257 . S
C163 C166 1.358 . S
C163 C167 1.332 . S
C163 C169 1.504 . S
C164 C165 1.373 . S
C164 C168 1.308 . S
C165 C164 1.373 . S
C165 C166 1.429 . S
C165 H192 0.932 . S
C166 C163 1.358 . S
C166 C165 1.429 . S
C166 H193 0.930 . S
C167 C163 1.332 . S
C167 C168 1.394 . S
C167 H194 0.932 . S
C168 C164 1.308 . S
C168 C167 1.394 . S
C168 H195 0.929 1_565 S
C169 Tb160 2.764 . S
C169 C163 1.504 . S
C169 O181 1.239 . S
C169 O182 1.263 . S
O170 Tb160 2.325 . S
O170 C180 1.236 . S
O171 Tb161 2.322 . S
O171 C180 1.257 . S
O172 Tb161 2.349 . S
O172 C183 1.261 . S
O173 Tb160 2.303 . S
O173 C183 1.257 . S
O174 Tb161 2.415 . S
O174 C190 1.239 . S
O175 Tb161 2.399 . S
O175 C190 1.263 . S
O176 Tb161 2.325 . S
O176 C191 1.236 . S
O177 Tb160 2.322 . S
O177 C191 1.257 . S
O178 Tb160 2.349 . S
O178 C162 1.261 . S
O179 Tb161 2.303 . S
O179 C162 1.257 . S
C180 O170 1.236 . S
C180 O171 1.257 . S
O181 Tb160 2.415 . S
O181 C169 1.239 . S
O182 Tb160 2.399 . S
O182 C169 1.263 . S
C183 O172 1.261 . S
C183 O173 1.257 . S
C184 C187 1.358 . S
C184 C188 1.332 . S
C184 C190 1.504 . S
C185 C186 1.373 . S
C185 C189 1.308 . S
C186 C185 1.373 . S
C186 C187 1.429 . S
C186 H196 0.932 . S
C187 C184 1.358 . S
C187 C186 1.429 . S
C187 H197 0.930 . S
C188 C184 1.332 . S
C188 C189 1.394 . S
C188 H198 0.932 . S
C189 C185 1.308 . S
C189 C188 1.394 . S
C189 H199 0.929 . S
C190 Tb161 2.764 . S
C190 O174 1.239 . S
C190 O175 1.263 . S
C190 C184 1.504 . S
C191 O176 1.236 . S
C191 O177 1.257 . S
H192 C165 0.932 . S
H193 C166 0.930 . S
H194 C167 0.932 . S
H195 C168 0.929 1_545 S
H196 C186 0.932 . S
H197 C187 0.930 . S
H198 C188 0.932 . S
H199 C189 0.929 . S
Tb200 C209 2.764 . S
Tb200 O210 2.325 . S
Tb200 O213 2.303 . S
Tb200 O217 2.322 . S
Tb200 O218 2.349 . S
Tb200 O221 2.415 . S
Tb200 O222 2.399 . S
Tb201 O211 2.322 . S
Tb201 O212 2.349 . S
Tb201 O214 2.415 . S
Tb201 O215 2.399 . S
Tb201 O216 2.325 . S
Tb201 O219 2.303 . S
Tb201 C230 2.764 . S
C202 O218 1.261 . S
C202 O219 1.257 . S
C203 C206 1.358 . S
C203 C207 1.332 . S
C203 C209 1.504 . S
C204 C205 1.373 . S
C204 C208 1.308 . S
C205 C204 1.373 . S
C205 C206 1.429 . S
C205 H232 0.932 . S
C206 C203 1.358 . S
C206 C205 1.429 . S
C206 H233 0.930 . S
C207 C203 1.332 . S
C207 C208 1.394 . S
C207 H234 0.932 . S
C208 C204 1.308 . S
C208 C207 1.394 . S
C208 H235 0.929 1_455 S
C209 Tb200 2.764 . S
C209 C203 1.504 . S
C209 O221 1.239 . S
C209 O222 1.263 . S
O210 Tb200 2.325 . S
O210 C220 1.236 . S
O211 Tb201 2.322 . S
O211 C220 1.257 . S
O212 Tb201 2.349 . S
O212 C223 1.261 . S
O213 Tb200 2.303 . S
O213 C223 1.257 . S
O214 Tb201 2.415 . S
O214 C230 1.239 . S
O215 Tb201 2.399 . S
O215 C230 1.263 . S
O216 Tb201 2.325 . S
O216 C231 1.236 . S
O217 Tb200 2.322 . S
O217 C231 1.257 . S
O218 Tb200 2.349 . S
O218 C202 1.261 . S
O219 Tb201 2.303 . S
O219 C202 1.257 . S
C220 O210 1.236 . S
C220 O211 1.257 . S
O221 Tb200 2.415 . S
O221 C209 1.239 . S
O222 Tb200 2.399 . S
O222 C209 1.263 . S
C223 O212 1.261 . S
C223 O213 1.257 . S
C224 C227 1.358 . S
C224 C228 1.332 . S
C224 C230 1.504 . S
C225 C226 1.373 . S
C225 C229 1.308 . S
C226 C225 1.373 . S
C226 C227 1.429 . S
C226 H236 0.932 . S
C227 C224 1.358 . S
C227 C226 1.429 . S
C227 H237 0.930 . S
C228 C224 1.332 . S
C228 C229 1.394 . S
C228 H238 0.932 . S
C229 C225 1.308 . S
C229 C228 1.394 . S
C229 H239 0.929 . S
C230 Tb201 2.764 . S
C230 O214 1.239 . S
C230 O215 1.263 . S
C230 C224 1.504 . S
C231 O216 1.236 . S
C231 O217 1.257 . S
H232 C205 0.932 . S
H233 C206 0.930 . S
H234 C207 0.932 . S
H235 C208 0.929 1_655 S
H236 C226 0.932 . S
H237 C227 0.930 . S
H238 C228 0.932 . S
H239 C229 0.929 . S
Tb240 C249 2.764 . S
Tb240 O250 2.325 . S
Tb240 O253 2.303 . S
Tb240 O257 2.322 . S
Tb240 O258 2.349 . S
Tb240 O261 2.415 . S
Tb240 O262 2.399 . S
Tb241 O251 2.322 . S
Tb241 O252 2.349 . S
Tb241 O254 2.415 . S
Tb241 O255 2.399 . S
Tb241 O256 2.325 . S
Tb241 O259 2.303 . S
Tb241 C270 2.764 . S
C242 O258 1.261 . S
C242 O259 1.257 . S
C243 C246 1.358 . S
C243 C247 1.332 . S
C243 C249 1.504 . S
C244 C245 1.373 . S
C244 C248 1.308 . S
C245 C244 1.373 . S
C245 C246 1.429 . S
C245 H272 0.932 . S
C246 C243 1.358 . S
C246 C245 1.429 . S
C246 H273 0.930 . S
C247 C243 1.332 . S
C247 C248 1.394 . S
C247 H274 0.932 . S
C248 C244 1.308 . S
C248 C247 1.394 . S
C248 H275 0.929 . S
C249 Tb240 2.764 . S
C249 C243 1.504 . S
C249 O261 1.239 . S
C249 O262 1.263 . S
O250 Tb240 2.325 . S
O250 C260 1.236 . S
O251 Tb241 2.322 . S
O251 C260 1.257 . S
O252 Tb241 2.349 . S
O252 C263 1.261 . S
O253 Tb240 2.303 . S
O253 C263 1.257 . S
O254 Tb241 2.415 . S
O254 C270 1.239 . S
O255 Tb241 2.399 . S
O255 C270 1.263 . S
O256 Tb241 2.325 . S
O256 C271 1.236 . S
O257 Tb240 2.322 . S
O257 C271 1.257 . S
O258 Tb240 2.349 . S
O258 C242 1.261 . S
O259 Tb241 2.303 . S
O259 C242 1.257 . S
C260 O250 1.236 . S
C260 O251 1.257 . S
O261 Tb240 2.415 . S
O261 C249 1.239 . S
O262 Tb240 2.399 . S
O262 C249 1.263 . S
C263 O252 1.261 . S
C263 O253 1.257 . S
C264 C267 1.358 . S
C264 C268 1.332 . S
C264 C270 1.504 . S
C265 C266 1.373 . S
C265 C269 1.308 . S
C266 C265 1.373 . S
C266 C267 1.429 . S
C266 H276 0.932 . S
C267 C264 1.358 . S
C267 C266 1.429 . S
C267 H277 0.930 . S
C268 C264 1.332 . S
C268 C269 1.394 . S
C268 H278 0.932 . S
C269 C265 1.308 . S
C269 C268 1.394 . S
C269 H279 0.929 . S
C270 Tb241 2.764 . S
C270 O254 1.239 . S
C270 O255 1.263 . S
C270 C264 1.504 . S
C271 O256 1.236 . S
C271 O257 1.257 . S
H272 C245 0.932 . S
H273 C246 0.930 . S
H274 C247 0.932 . S
H275 C248 0.929 . S
H276 C266 0.932 . S
H277 C267 0.930 . S
H278 C268 0.932 . S
H279 C269 0.929 . S
Tb280 C289 2.764 . S
Tb280 O290 2.325 . S
Tb280 O293 2.303 . S
Tb280 O297 2.322 . S
Tb280 O298 2.349 . S
Tb280 O301 2.415 . S
Tb280 O302 2.399 . S
Tb281 O291 2.322 . S
Tb281 O292 2.349 . S
Tb281 O294 2.415 . S
Tb281 O295 2.399 . S
Tb281 O296 2.325 . S
Tb281 O299 2.303 . S
Tb281 C310 2.764 . S
C282 O298 1.261 . S
C282 O299 1.257 . S
C283 C286 1.358 . S
C283 C287 1.332 . S
C283 C289 1.504 . S
C284 C285 1.373 . S
C284 C288 1.308 . S
C285 C284 1.373 . S
C285 C286 1.429 . S
C285 H312 0.932 . S
C286 C283 1.358 . S
C286 C285 1.429 . S
C286 H313 0.930 . S
C287 C283 1.332 . S
C287 C288 1.394 . S
C287 H314 0.932 . S
C288 C284 1.308 . S
C288 C287 1.394 . S
C288 H315 0.929 . S
C289 Tb280 2.764 . S
C289 C283 1.504 . S
C289 O301 1.239 . S
C289 O302 1.263 . S
O290 Tb280 2.325 . S
O290 C300 1.236 . S
O291 Tb281 2.322 . S
O291 C300 1.257 . S
O292 Tb281 2.349 . S
O292 C303 1.261 . S
O293 Tb280 2.303 . S
O293 C303 1.257 . S
O294 Tb281 2.415 . S
O294 C310 1.239 . S
O295 Tb281 2.399 . S
O295 C310 1.263 . S
O296 Tb281 2.325 . S
O296 C311 1.236 . S
O297 Tb280 2.322 . S
O297 C311 1.257 . S
O298 Tb280 2.349 . S
O298 C282 1.261 . S
O299 Tb281 2.303 . S
O299 C282 1.257 . S
C300 O290 1.236 . S
C300 O291 1.257 . S
O301 Tb280 2.415 . S
O301 C289 1.239 . S
O302 Tb280 2.399 . S
O302 C289 1.263 . S
C303 O292 1.261 . S
C303 O293 1.257 . S
C304 C307 1.358 . S
C304 C308 1.332 . S
C304 C310 1.504 . S
C305 C306 1.373 . S
C305 C309 1.308 . S
C306 C305 1.373 . S
C306 C307 1.429 . S
C306 H316 0.932 . S
C307 C304 1.358 . S
C307 C306 1.429 . S
C307 H317 0.930 . S
C308 C304 1.332 . S
C308 C309 1.394 . S
C308 H318 0.932 . S
C309 C305 1.308 . S
C309 C308 1.394 . S
C309 H319 0.929 1_565 S
C310 Tb281 2.764 . S
C310 O294 1.239 . S
C310 O295 1.263 . S
C310 C304 1.504 . S
C311 O296 1.236 . S
C311 O297 1.257 . S
H312 C285 0.932 . S
H313 C286 0.930 . S
H314 C287 0.932 . S
H315 C288 0.929 . S
H316 C306 0.932 . S
H317 C307 0.930 . S
H318 C308 0.932 . S
H319 C309 0.929 1_545 S
Tb320 C329 2.764 . S
Tb320 O330 2.325 . S
Tb320 O333 2.303 . S
Tb320 O337 2.322 . S
Tb320 O338 2.349 . S
Tb320 O341 2.415 . S
Tb320 O342 2.399 . S
Tb321 O331 2.322 . S
Tb321 O332 2.349 . S
Tb321 O334 2.415 . S
Tb321 O335 2.399 . S
Tb321 O336 2.325 . S
Tb321 O339 2.303 . S
Tb321 C350 2.764 . S
C322 O338 1.261 . S
C322 O339 1.257 . S
C323 C326 1.358 . S
C323 C327 1.332 . S
C323 C329 1.504 . S
C324 C325 1.373 . S
C324 C328 1.308 . S
C325 C324 1.373 . S
C325 C326 1.429 . S
C325 H352 0.932 . S
C326 C323 1.358 . S
C326 C325 1.429 . S
C326 H353 0.930 . S
C327 C323 1.332 . S
C327 C328 1.394 . S
C327 H354 0.932 . S
C328 C324 1.308 . S
C328 C327 1.394 . S
C328 H355 0.929 . S
C329 Tb320 2.764 . S
C329 C323 1.504 . S
C329 O341 1.239 . S
C329 O342 1.263 . S
O330 Tb320 2.325 . S
O330 C340 1.236 . S
O331 Tb321 2.322 . S
O331 C340 1.257 . S
O332 Tb321 2.349 . S
O332 C343 1.261 . S
O333 Tb320 2.303 . S
O333 C343 1.257 . S
O334 Tb321 2.415 . S
O334 C350 1.239 . S
O335 Tb321 2.399 . S
O335 C350 1.263 . S
O336 Tb321 2.325 . S
O336 C351 1.236 . S
O337 Tb320 2.322 . S
O337 C351 1.257 . S
O338 Tb320 2.349 . S
O338 C322 1.261 . S
O339 Tb321 2.303 . S
O339 C322 1.257 . S
C340 O330 1.236 . S
C340 O331 1.257 . S
O341 Tb320 2.415 . S
O341 C329 1.239 . S
O342 Tb320 2.399 . S
O342 C329 1.263 . S
C343 O332 1.261 . S
C343 O333 1.257 . S
C344 C347 1.358 . S
C344 C348 1.332 . S
C344 C350 1.504 . S
C345 C346 1.373 . S
C345 C349 1.308 . S
C346 C345 1.373 . S
C346 C347 1.429 . S
C346 H356 0.932 . S
C347 C344 1.358 . S
C347 C346 1.429 . S
C347 H357 0.930 . S
C348 C344 1.332 . S
C348 C349 1.394 . S
C348 H358 0.932 . S
C349 C345 1.308 . S
C349 C348 1.394 . S
C349 H359 0.929 1_455 S
C350 Tb321 2.764 . S
C350 O334 1.239 . S
C350 O335 1.263 . S
C350 C344 1.504 . S
C351 O336 1.236 . S
C351 O337 1.257 . S
H352 C325 0.932 . S
H353 C326 0.930 . S
H354 C327 0.932 . S
H355 C328 0.929 . S
H356 C346 0.932 . S
H357 C347 0.930 . S
H358 C348 0.932 . S
H359 C349 0.929 1_655 S
Tb360 C369 2.764 . S
Tb360 O370 2.325 . S
Tb360 O373 2.303 . S
Tb360 O377 2.322 . S
Tb360 O378 2.349 . S
Tb360 O381 2.415 . S
Tb360 O382 2.399 . S
Tb361 O371 2.322 . S
Tb361 O372 2.349 . S
Tb361 O374 2.415 . S
Tb361 O375 2.399 . S
Tb361 O376 2.325 . S
Tb361 O379 2.303 . S
Tb361 C390 2.764 . S
C362 O378 1.261 . S
C362 O379 1.257 . S
C363 C366 1.358 . S
C363 C367 1.332 . S
C363 C369 1.504 . S
C364 C365 1.373 . S
C364 C368 1.308 . S
C365 C364 1.373 . S
C365 C366 1.429 . S
C365 H392 0.932 . S
C366 C363 1.358 . S
C366 C365 1.429 . S
C366 H393 0.930 . S
C367 C363 1.332 . S
C367 C368 1.394 . S
C367 H394 0.932 . S
C368 C364 1.308 . S
C368 C367 1.394 . S
C368 H395 0.929 . S
C369 Tb360 2.764 . S
C369 C363 1.504 . S
C369 O381 1.239 . S
C369 O382 1.263 . S
O370 Tb360 2.325 . S
O370 C380 1.236 . S
O371 Tb361 2.322 . S
O371 C380 1.257 . S
O372 Tb361 2.349 . S
O372 C383 1.261 . S
O373 Tb360 2.303 . S
O373 C383 1.257 . S
O374 Tb361 2.415 . S
O374 C390 1.239 . S
O375 Tb361 2.399 . S
O375 C390 1.263 . S
O376 Tb361 2.325 . S
O376 C391 1.236 . S
O377 Tb360 2.322 . S
O377 C391 1.257 . S
O378 Tb360 2.349 . S
O378 C362 1.261 . S
O379 Tb361 2.303 . S
O379 C362 1.257 . S
C380 O370 1.236 . S
C380 O371 1.257 . S
O381 Tb360 2.415 . S
O381 C369 1.239 . S
O382 Tb360 2.399 . S
O382 C369 1.263 . S
C383 O372 1.261 . S
C383 O373 1.257 . S
C384 C387 1.358 . S
C384 C388 1.332 . S
C384 C390 1.504 . S
C385 C386 1.373 . S
C385 C389 1.308 . S
C386 C385 1.373 . S
C386 C387 1.429 . S
C386 H396 0.932 . S
C387 C384 1.358 . S
C387 C386 1.429 . S
C387 H397 0.930 . S
C388 C384 1.332 . S
C388 C389 1.394 . S
C388 H398 0.932 . S
C389 C385 1.308 . S
C389 C388 1.394 . S
C389 H399 0.929 . S
C390 Tb361 2.764 . S
C390 O374 1.239 . S
C390 O375 1.263 . S
C390 C384 1.504 . S
C391 O376 1.236 . S
C391 O377 1.257 . S
H392 C365 0.932 . S
H393 C366 0.930 . S
H394 C367 0.932 . S
H395 C368 0.929 . S
H396 C386 0.932 . S
H397 C387 0.930 . S
H398 C388 0.932 . S
H399 C389 0.929 . S
Tb400 C409 2.764 . S
Tb400 O410 2.325 . S
Tb400 O413 2.303 . S
Tb400 O417 2.322 . S
Tb400 O418 2.349 . S
Tb400 O421 2.415 . S
Tb400 O422 2.399 . S
Tb401 O411 2.322 . S
Tb401 O412 2.349 . S
Tb401 O414 2.415 . S
Tb401 O415 2.399 . S
Tb401 O416 2.325 . S
Tb401 O419 2.303 . S
Tb401 C430 2.764 . S
C402 O418 1.261 . S
C402 O419 1.257 . S
C403 C406 1.358 . S
C403 C407 1.332 . S
C403 C409 1.504 . S
C404 C405 1.373 . S
C404 C408 1.308 . S
C405 C404 1.373 . S
C405 C406 1.429 . S
C405 H432 0.932 . S
C406 C403 1.358 . S
C406 C405 1.429 . S
C406 H433 0.930 . S
C407 C403 1.332 . S
C407 C408 1.394 . S
C407 H434 0.932 . S
C408 C404 1.308 . S
C408 C407 1.394 . S
C408 H435 0.929 . S
C409 Tb400 2.764 . S
C409 C403 1.504 . S
C409 O421 1.239 . S
C409 O422 1.263 . S
O410 Tb400 2.325 . S
O410 C420 1.236 . S
O411 Tb401 2.322 . S
O411 C420 1.257 . S
O412 Tb401 2.349 . S
O412 C423 1.261 . S
O413 Tb400 2.303 . S
O413 C423 1.257 . S
O414 Tb401 2.415 . S
O414 C430 1.239 . S
O415 Tb401 2.399 . S
O415 C430 1.263 . S
O416 Tb401 2.325 . S
O416 C431 1.236 . S
O417 Tb400 2.322 . S
O417 C431 1.257 . S
O418 Tb400 2.349 . S
O418 C402 1.261 . S
O419 Tb401 2.303 . S
O419 C402 1.257 . S
C420 O410 1.236 . S
C420 O411 1.257 . S
O421 Tb400 2.415 . S
O421 C409 1.239 . S
O422 Tb400 2.399 . S
O422 C409 1.263 . S
C423 O412 1.261 . S
C423 O413 1.257 . S
C424 C427 1.358 . S
C424 C428 1.332 . S
C424 C430 1.504 . S
C425 C426 1.373 . S
C425 C429 1.308 . S
C426 C425 1.373 . S
C426 C427 1.429 . S
C426 H436 0.932 . S
C427 C424 1.358 . S
C427 C426 1.429 . S
C427 H437 0.930 . S
C428 C424 1.332 . S
C428 C429 1.394 . S
C428 H438 0.932 . S
C429 C425 1.308 . S
C429 C428 1.394 . S
C429 H439 0.929 1_545 S
C430 Tb401 2.764 . S
C430 O414 1.239 . S
C430 O415 1.263 . S
C430 C424 1.504 . S
C431 O416 1.236 . S
C431 O417 1.257 . S
H432 C405 0.932 . S
H433 C406 0.930 . S
H434 C407 0.932 . S
H435 C408 0.929 . S
H436 C426 0.932 . S
H437 C427 0.930 . S
H438 C428 0.932 . S
H439 C429 0.929 1_565 S
Tb440 C449 2.764 . S
Tb440 O450 2.325 . S
Tb440 O453 2.303 . S
Tb440 O457 2.322 . S
Tb440 O458 2.349 . S
Tb440 O461 2.415 . S
Tb440 O462 2.399 . S
Tb441 O451 2.322 . S
Tb441 O452 2.349 . S
Tb441 O454 2.415 . S
Tb441 O455 2.399 . S
Tb441 O456 2.325 . S
Tb441 O459 2.303 . S
Tb441 C470 2.764 . S
C442 O458 1.261 . S
C442 O459 1.257 . S
C443 C446 1.358 . S
C443 C447 1.332 . S
C443 C449 1.504 . S
C444 C445 1.373 . S
C444 C448 1.308 . S
C445 C444 1.373 . S
C445 C446 1.429 . S
C445 H472 0.932 . S
C446 C443 1.358 . S
C446 C445 1.429 . S
C446 H473 0.930 . S
C447 C443 1.332 . S
C447 C448 1.394 . S
C447 H474 0.932 . S
C448 C444 1.308 . S
C448 C447 1.394 . S
C448 H475 0.929 . S
C449 Tb440 2.764 . S
C449 C443 1.504 . S
C449 O461 1.239 . S
C449 O462 1.263 . S
O450 Tb440 2.325 . S
O450 C460 1.236 . S
O451 Tb441 2.322 . S
O451 C460 1.257 . S
O452 Tb441 2.349 . S
O452 C463 1.261 . S
O453 Tb440 2.303 . S
O453 C463 1.257 . S
O454 Tb441 2.415 . S
O454 C470 1.239 . S
O455 Tb441 2.399 . S
O455 C470 1.263 . S
O456 Tb441 2.325 . S
O456 C471 1.236 . S
O457 Tb440 2.322 . S
O457 C471 1.257 . S
O458 Tb440 2.349 . S
O458 C442 1.261 . S
O459 Tb441 2.303 . S
O459 C442 1.257 . S
C460 O450 1.236 . S
C460 O451 1.257 . S
O461 Tb440 2.415 . S
O461 C449 1.239 . S
O462 Tb440 2.399 . S
O462 C449 1.263 . S
C463 O452 1.261 . S
C463 O453 1.257 . S
C464 C467 1.358 . S
C464 C468 1.332 . S
C464 C470 1.504 . S
C465 C466 1.373 . S
C465 C469 1.308 . S
C466 C465 1.373 . S
C466 C467 1.429 . S
C466 H476 0.932 . S
C467 C464 1.358 . S
C467 C466 1.429 . S
C467 H477 0.930 . S
C468 C464 1.332 . S
C468 C469 1.394 . S
C468 H478 0.932 . S
C469 C465 1.308 . S
C469 C468 1.394 . S
C469 H479 0.929 1_655 S
C470 Tb441 2.764 . S
C470 O454 1.239 . S
C470 O455 1.263 . S
C470 C464 1.504 . S
C471 O456 1.236 . S
C471 O457 1.257 . S
H472 C445 0.932 . S
H473 C446 0.930 . S
H474 C447 0.932 . S
H475 C448 0.929 . S
H476 C466 0.932 . S
H477 C467 0.930 . S
H478 C468 0.932 . S
H479 C469 0.929 1_455 S
Tb480 C489 2.764 . S
Tb480 O490 2.325 . S
Tb480 O493 2.303 . S
Tb480 O497 2.322 . S
Tb480 O498 2.349 . S
Tb480 O501 2.415 . S
Tb480 O502 2.399 . S
Tb481 O491 2.322 . S
Tb481 O492 2.349 . S
Tb481 O494 2.415 . S
Tb481 O495 2.399 . S
Tb481 O496 2.325 . S
Tb481 O499 2.303 . S
Tb481 C510 2.764 . S
C482 O498 1.261 . S
C482 O499 1.257 . S
C483 C486 1.358 . S
C483 C487 1.332 . S
C483 C489 1.504 . S
C484 C485 1.373 . S
C484 C488 1.308 . S
C485 C484 1.373 . S
C485 C486 1.429 . S
C485 H512 0.932 . S
C486 C483 1.358 . S
C486 C485 1.429 . S
C486 H513 0.930 . S
C487 C483 1.332 . S
C487 C488 1.394 . S
C487 H514 0.932 . S
C488 C484 1.308 . S
C488 C487 1.394 . S
C488 H515 0.929 . S
C489 Tb480 2.764 . S
C489 C483 1.504 . S
C489 O501 1.239 . S
C489 O502 1.263 . S
O490 Tb480 2.325 . S
O490 C500 1.236 . S
O491 Tb481 2.322 . S
O491 C500 1.257 . S
O492 Tb481 2.349 . S
O492 C503 1.261 . S
O493 Tb480 2.303 . S
O493 C503 1.257 . S
O494 Tb481 2.415 . S
O494 C510 1.239 . S
O495 Tb481 2.399 . S
O495 C510 1.263 . S
O496 Tb481 2.325 . S
O496 C511 1.236 . S
O497 Tb480 2.322 . S
O497 C511 1.257 . S
O498 Tb480 2.349 . S
O498 C482 1.261 . S
O499 Tb481 2.303 . S
O499 C482 1.257 . S
C500 O490 1.236 . S
C500 O491 1.257 . S
O501 Tb480 2.415 . S
O501 C489 1.239 . S
O502 Tb480 2.399 . S
O502 C489 1.263 . S
C503 O492 1.261 . S
C503 O493 1.257 . S
C504 C507 1.358 . S
C504 C508 1.332 . S
C504 C510 1.504 . S
C505 C506 1.373 . S
C505 C509 1.308 . S
C506 C505 1.373 . S
C506 C507 1.429 . S
C506 H516 0.932 . S
C507 C504 1.358 . S
C507 C506 1.429 . S
C507 H517 0.930 . S
C508 C504 1.332 . S
C508 C509 1.394 . S
C508 H518 0.932 . S
C509 C505 1.308 . S
C509 C508 1.394 . S
C509 H519 0.929 . S
C510 Tb481 2.764 . S
C510 O494 1.239 . S
C510 O495 1.263 . S
C510 C504 1.504 . S
C511 O496 1.236 . S
C511 O497 1.257 . S
H512 C485 0.932 . S
H513 C486 0.930 . S
H514 C487 0.932 . S
H515 C488 0.929 . S
H516 C506 0.932 . S
H517 C507 0.930 . S
H518 C508 0.932 . S
H519 C509 0.929 . S
Tb520 C529 2.764 . S
Tb520 O530 2.325 . S
Tb520 O533 2.303 . S
Tb520 O537 2.322 . S
Tb520 O538 2.349 . S
Tb520 O541 2.415 . S
Tb520 O542 2.399 . S
Tb521 O531 2.322 . S
Tb521 O532 2.349 . S
Tb521 O534 2.415 . S
Tb521 O535 2.399 . S
Tb521 O536 2.325 . S
Tb521 O539 2.303 . S
Tb521 C550 2.764 . S
C522 O538 1.261 . S
C522 O539 1.257 . S
C523 C526 1.358 . S
C523 C527 1.332 . S
C523 C529 1.504 . S
C524 C525 1.373 . S
C524 C528 1.308 . S
C525 C524 1.373 . S
C525 C526 1.429 . S
C525 H552 0.932 . S
C526 C523 1.358 . S
C526 C525 1.429 . S
C526 H553 0.930 . S
C527 C523 1.332 . S
C527 C528 1.394 . S
C527 H554 0.932 . S
C528 C524 1.308 . S
C528 C527 1.394 . S
C528 H555 0.929 . S
C529 Tb520 2.764 . S
C529 C523 1.504 . S
C529 O541 1.239 . S
C529 O542 1.263 . S
O530 Tb520 2.325 . S
O530 C540 1.236 . S
O531 Tb521 2.322 . S
O531 C540 1.257 . S
O532 Tb521 2.349 . S
O532 C543 1.261 . S
O533 Tb520 2.303 . S
O533 C543 1.257 . S
O534 Tb521 2.415 . S
O534 C550 1.239 . S
O535 Tb521 2.399 . S
O535 C550 1.263 . S
O536 Tb521 2.325 . S
O536 C551 1.236 . S
O537 Tb520 2.322 . S
O537 C551 1.257 . S
O538 Tb520 2.349 . S
O538 C522 1.261 . S
O539 Tb521 2.303 . S
O539 C522 1.257 . S
C540 O530 1.236 . S
C540 O531 1.257 . S
O541 Tb520 2.415 . S
O541 C529 1.239 . S
O542 Tb520 2.399 . S
O542 C529 1.263 . S
C543 O532 1.261 . S
C543 O533 1.257 . S
C544 C547 1.358 . S
C544 C548 1.332 . S
C544 C550 1.504 . S
C545 C546 1.373 . S
C545 C549 1.308 . S
C546 C545 1.373 . S
C546 C547 1.429 . S
C546 H556 0.932 . S
C547 C544 1.358 . S
C547 C546 1.429 . S
C547 H557 0.930 . S
C548 C544 1.332 . S
C548 C549 1.394 . S
C548 H558 0.932 . S
C549 C545 1.308 . S
C549 C548 1.394 . S
C549 H559 0.929 . S
C550 Tb521 2.764 . S
C550 O534 1.239 . S
C550 O535 1.263 . S
C550 C544 1.504 . S
C551 O536 1.236 . S
C551 O537 1.257 . S
H552 C525 0.932 . S
H553 C526 0.930 . S
H554 C527 0.932 . S
H555 C528 0.929 . S
H556 C546 0.932 . S
H557 C547 0.930 . S
H558 C548 0.932 . S
H559 C549 0.929 . S
Tb560 C569 2.764 . S
Tb560 O570 2.325 . S
Tb560 O573 2.303 . S
Tb560 O577 2.322 . S
Tb560 O578 2.349 . S
Tb560 O581 2.415 . S
Tb560 O582 2.399 . S
Tb561 O571 2.322 . S
Tb561 O572 2.349 . S
Tb561 O574 2.415 . S
Tb561 O575 2.399 . S
Tb561 O576 2.325 . S
Tb561 O579 2.303 . S
Tb561 C590 2.764 . S
C562 O578 1.261 . S
C562 O579 1.257 . S
C563 C566 1.358 . S
C563 C567 1.332 . S
C563 C569 1.504 . S
C564 C565 1.373 . S
C564 C568 1.308 . S
C565 C564 1.373 . S
C565 C566 1.429 . S
C565 H592 0.932 . S
C566 C563 1.358 . S
C566 C565 1.429 . S
C566 H593 0.930 . S
C567 C563 1.332 . S
C567 C568 1.394 . S
C567 H594 0.932 . S
C568 C564 1.308 . S
C568 C567 1.394 . S
C568 H595 0.929 . S
C569 Tb560 2.764 . S
C569 C563 1.504 . S
C569 O581 1.239 . S
C569 O582 1.263 . S
O570 Tb560 2.325 . S
O570 C580 1.236 . S
O571 Tb561 2.322 . S
O571 C580 1.257 . S
O572 Tb561 2.349 . S
O572 C583 1.261 . S
O573 Tb560 2.303 . S
O573 C583 1.257 . S
O574 Tb561 2.415 . S
O574 C590 1.239 . S
O575 Tb561 2.399 . S
O575 C590 1.263 . S
O576 Tb561 2.325 . S
O576 C591 1.236 . S
O577 Tb560 2.322 . S
O577 C591 1.257 . S
O578 Tb560 2.349 . S
O578 C562 1.261 . S
O579 Tb561 2.303 . S
O579 C562 1.257 . S
C580 O570 1.236 . S
C580 O571 1.257 . S
O581 Tb560 2.415 . S
O581 C569 1.239 . S
O582 Tb560 2.399 . S
O582 C569 1.263 . S
C583 O572 1.261 . S
C583 O573 1.257 . S
C584 C587 1.358 . S
C584 C588 1.332 . S
C584 C590 1.504 . S
C585 C586 1.373 . S
C585 C589 1.308 . S
C586 C585 1.373 . S
C586 C587 1.429 . S
C586 H596 0.932 . S
C587 C584 1.358 . S
C587 C586 1.429 . S
C587 H597 0.930 . S
C588 C584 1.332 . S
C588 C589 1.394 . S
C588 H598 0.932 . S
C589 C585 1.308 . S
C589 C588 1.394 . S
C589 H599 0.929 . S
C590 Tb561 2.764 . S
C590 O574 1.239 . S
C590 O575 1.263 . S
C590 C584 1.504 . S
C591 O576 1.236 . S
C591 O577 1.257 . S
H592 C565 0.932 . S
H593 C566 0.930 . S
H594 C567 0.932 . S
H595 C568 0.929 . S
H596 C586 0.932 . S
H597 C587 0.930 . S
H598 C588 0.932 . S
H599 C589 0.929 . S
Tb600 C609 2.764 . S
Tb600 O610 2.325 . S
Tb600 O613 2.303 . S
Tb600 O617 2.322 . S
Tb600 O618 2.349 . S
Tb600 O621 2.415 . S
Tb600 O622 2.399 . S
Tb601 O611 2.322 . S
Tb601 O612 2.349 . S
Tb601 O614 2.415 . S
Tb601 O615 2.399 . S
Tb601 O616 2.325 . S
Tb601 O619 2.303 . S
Tb601 C630 2.764 . S
C602 O618 1.261 . S
C602 O619 1.257 . S
C603 C606 1.358 . S
C603 C607 1.332 . S
C603 C609 1.504 . S
C604 C605 1.373 . S
C604 C608 1.308 . S
C605 C604 1.373 . S
C605 C606 1.429 . S
C605 H632 0.932 . S
C606 C603 1.358 . S
C606 C605 1.429 . S
C606 H633 0.930 . S
C607 C603 1.332 . S
C607 C608 1.394 . S
C607 H634 0.932 . S
C608 C604 1.308 . S
C608 C607 1.394 . S
C608 H635 0.929 . S
C609 Tb600 2.764 . S
C609 C603 1.504 . S
C609 O621 1.239 . S
C609 O622 1.263 . S
O610 Tb600 2.325 . S
O610 C620 1.236 . S
O611 Tb601 2.322 . S
O611 C620 1.257 . S
O612 Tb601 2.349 . S
O612 C623 1.261 . S
O613 Tb600 2.303 . S
O613 C623 1.257 . S
O614 Tb601 2.415 . S
O614 C630 1.239 . S
O615 Tb601 2.399 . S
O615 C630 1.263 . S
O616 Tb601 2.325 . S
O616 C631 1.236 . S
O617 Tb600 2.322 . S
O617 C631 1.257 . S
O618 Tb600 2.349 . S
O618 C602 1.261 . S
O619 Tb601 2.303 . S
O619 C602 1.257 . S
C620 O610 1.236 . S
C620 O611 1.257 . S
O621 Tb600 2.415 . S
O621 C609 1.239 . S
O622 Tb600 2.399 . S
O622 C609 1.263 . S
C623 O612 1.261 . S
C623 O613 1.257 . S
C624 C627 1.358 . S
C624 C628 1.332 . S
C624 C630 1.504 . S
C625 C626 1.373 . S
C625 C629 1.308 . S
C626 C625 1.373 . S
C626 C627 1.429 . S
C626 H636 0.932 . S
C627 C624 1.358 . S
C627 C626 1.429 . S
C627 H637 0.930 . S
C628 C624 1.332 . S
C628 C629 1.394 . S
C628 H638 0.932 . S
C629 C625 1.308 . S
C629 C628 1.394 . S
C629 H639 0.929 . S
C630 Tb601 2.764 . S
C630 O614 1.239 . S
C630 O615 1.263 . S
C630 C624 1.504 . S
C631 O616 1.236 . S
C631 O617 1.257 . S
H632 C605 0.932 . S
H633 C606 0.930 . S
H634 C607 0.932 . S
H635 C608 0.929 . S
H636 C626 0.932 . S
H637 C627 0.930 . S
H638 C628 0.932 . S
H639 C629 0.929 . S
Tb640 C649 2.764 . S
Tb640 O650 2.325 . S
Tb640 O653 2.303 . S
Tb640 O657 2.322 . S
Tb640 O658 2.349 . S
Tb640 O661 2.415 . S
Tb640 O662 2.399 . S
Tb641 O651 2.322 . S
Tb641 O652 2.349 . S
Tb641 O654 2.415 . S
Tb641 O655 2.399 . S
Tb641 O656 2.325 . S
Tb641 O659 2.303 . S
Tb641 C670 2.764 . S
C642 O658 1.261 . S
C642 O659 1.257 . S
C643 C646 1.358 . S
C643 C647 1.332 . S
C643 C649 1.504 . S
C644 C645 1.373 . S
C644 C648 1.308 . S
C645 C644 1.373 . S
C645 C646 1.429 . S
C645 H672 0.932 . S
C646 C643 1.358 . S
C646 C645 1.429 . S
C646 H673 0.930 . S
C647 C643 1.332 . S
C647 C648 1.394 . S
C647 H674 0.932 . S
C648 C644 1.308 . S
C648 C647 1.394 . S
C648 H675 0.929 . S
C649 Tb640 2.764 . S
C649 C643 1.504 . S
C649 O661 1.239 . S
C649 O662 1.263 . S
O650 Tb640 2.325 . S
O650 C660 1.236 . S
O651 Tb641 2.322 . S
O651 C660 1.257 . S
O652 Tb641 2.349 . S
O652 C663 1.261 . S
O653 Tb640 2.303 . S
O653 C663 1.257 . S
O654 Tb641 2.415 . S
O654 C670 1.239 . S
O655 Tb641 2.399 . S
O655 C670 1.263 . S
O656 Tb641 2.325 . S
O656 C671 1.236 . S
O657 Tb640 2.322 . S
O657 C671 1.257 . S
O658 Tb640 2.349 . S
O658 C642 1.261 . S
O659 Tb641 2.303 . S
O659 C642 1.257 . S
C660 O650 1.236 . S
C660 O651 1.257 . S
O661 Tb640 2.415 . S
O661 C649 1.239 . S
O662 Tb640 2.399 . S
O662 C649 1.263 . S
C663 O652 1.261 . S
C663 O653 1.257 . S
C664 C667 1.358 . S
C664 C668 1.332 . S
C664 C670 1.504 . S
C665 C666 1.373 . S
C665 C669 1.308 . S
C666 C665 1.373 . S
C666 C667 1.429 . S
C666 H676 0.932 . S
C667 C664 1.358 . S
C667 C666 1.429 . S
C667 H677 0.930 . S
C668 C664 1.332 . S
C668 C669 1.394 . S
C668 H678 0.932 . S
C669 C665 1.308 . S
C669 C668 1.394 . S
C669 H679 0.929 . S
C670 Tb641 2.764 . S
C670 O654 1.239 . S
C670 O655 1.263 . S
C670 C664 1.504 . S
C671 O656 1.236 . S
C671 O657 1.257 . S
H672 C645 0.932 . S
H673 C646 0.930 . S
H674 C647 0.932 . S
H675 C648 0.929 . S
H676 C666 0.932 . S
H677 C667 0.930 . S
H678 C668 0.932 . S
H679 C669 0.929 . S
Tb680 C689 2.764 . S
Tb680 O690 2.325 . S
Tb680 O693 2.303 . S
Tb680 O697 2.322 . S
Tb680 O698 2.349 . S
Tb680 O701 2.415 . S
Tb680 O702 2.399 . S
Tb681 O691 2.322 . S
Tb681 O692 2.349 . S
Tb681 O694 2.415 . S
Tb681 O695 2.399 . S
Tb681 O696 2.325 . S
Tb681 O699 2.303 . S
Tb681 C710 2.764 . S
C682 O698 1.261 . S
C682 O699 1.257 . S
C683 C686 1.358 . S
C683 C687 1.332 . S
C683 C689 1.504 . S
C684 C685 1.373 . S
C684 C688 1.308 . S
C685 C684 1.373 . S
C685 C686 1.429 . S
C685 H712 0.932 . S
C686 C683 1.358 . S
C686 C685 1.429 . S
C686 H713 0.930 . S
C687 C683 1.332 . S
C687 C688 1.394 . S
C687 H714 0.932 . S
C688 C684 1.308 . S
C688 C687 1.394 . S
C688 H715 0.929 . S
C689 Tb680 2.764 . S
C689 C683 1.504 . S
C689 O701 1.239 . S
C689 O702 1.263 . S
O690 Tb680 2.325 . S
O690 C700 1.236 . S
O691 Tb681 2.322 . S
O691 C700 1.257 . S
O692 Tb681 2.349 . S
O692 C703 1.261 . S
O693 Tb680 2.303 . S
O693 C703 1.257 . S
O694 Tb681 2.415 . S
O694 C710 1.239 . S
O695 Tb681 2.399 . S
O695 C710 1.263 . S
O696 Tb681 2.325 . S
O696 C711 1.236 . S
O697 Tb680 2.322 . S
O697 C711 1.257 . S
O698 Tb680 2.349 . S
O698 C682 1.261 . S
O699 Tb681 2.303 . S
O699 C682 1.257 . S
C700 O690 1.236 . S
C700 O691 1.257 . S
O701 Tb680 2.415 . S
O701 C689 1.239 . S
O702 Tb680 2.399 . S
O702 C689 1.263 . S
C703 O692 1.261 . S
C703 O693 1.257 . S
C704 C707 1.358 . S
C704 C708 1.332 . S
C704 C710 1.504 . S
C705 C706 1.373 . S
C705 C709 1.308 . S
C706 C705 1.373 . S
C706 C707 1.429 . S
C706 H716 0.932 . S
C707 C704 1.358 . S
C707 C706 1.429 . S
C707 H717 0.930 . S
C708 C704 1.332 . S
C708 C709 1.394 . S
C708 H718 0.932 . S
C709 C705 1.308 . S
C709 C708 1.394 . S
C709 H719 0.929 . S
C710 Tb681 2.764 . S
C710 O694 1.239 . S
C710 O695 1.263 . S
C710 C704 1.504 . S
C711 O696 1.236 . S
C711 O697 1.257 . S
H712 C685 0.932 . S
H713 C686 0.930 . S
H714 C687 0.932 . S
H715 C688 0.929 . S
H716 C706 0.932 . S
H717 C707 0.930 . S
H718 C708 0.932 . S
H719 C709 0.929 . S
Tb720 C729 2.764 . S
Tb720 O730 2.325 . S
Tb720 O733 2.303 . S
Tb720 O737 2.322 . S
Tb720 O738 2.349 . S
Tb720 O741 2.415 . S
Tb720 O742 2.399 . S
Tb721 O731 2.322 . S
Tb721 O732 2.349 . S
Tb721 O734 2.415 . S
Tb721 O735 2.399 . S
Tb721 O736 2.325 . S
Tb721 O739 2.303 . S
Tb721 C750 2.764 . S
C722 O738 1.261 . S
C722 O739 1.257 . S
C723 C726 1.358 . S
C723 C727 1.332 . S
C723 C729 1.504 . S
C724 C725 1.373 . S
C724 C728 1.308 . S
C725 C724 1.373 . S
C725 C726 1.429 . S
C725 H752 0.932 . S
C726 C723 1.358 . S
C726 C725 1.429 . S
C726 H753 0.930 . S
C727 C723 1.332 . S
C727 C728 1.394 . S
C727 H754 0.932 . S
C728 C724 1.308 . S
C728 C727 1.394 . S
C728 H755 0.929 . S
C729 Tb720 2.764 . S
C729 C723 1.504 . S
C729 O741 1.239 . S
C729 O742 1.263 . S
O730 Tb720 2.325 . S
O730 C740 1.236 . S
O731 Tb721 2.322 . S
O731 C740 1.257 . S
O732 Tb721 2.349 . S
O732 C743 1.261 . S
O733 Tb720 2.303 . S
O733 C743 1.257 . S
O734 Tb721 2.415 . S
O734 C750 1.239 . S
O735 Tb721 2.399 . S
O735 C750 1.263 . S
O736 Tb721 2.325 . S
O736 C751 1.236 . S
O737 Tb720 2.322 . S
O737 C751 1.257 . S
O738 Tb720 2.349 . S
O738 C722 1.261 . S
O739 Tb721 2.303 . S
O739 C722 1.257 . S
C740 O730 1.236 . S
C740 O731 1.257 . S
O741 Tb720 2.415 . S
O741 C729 1.239 . S
O742 Tb720 2.399 . S
O742 C729 1.263 . S
C743 O732 1.261 . S
C743 O733 1.257 . S
C744 C747 1.358 . S
C744 C748 1.332 . S
C744 C750 1.504 . S
C745 C746 1.373 . S
C745 C749 1.308 . S
C746 C745 1.373 . S
C746 C747 1.429 . S
C746 H756 0.932 . S
C747 C744 1.358 . S
C747 C746 1.429 . S
C747 H757 0.930 . S
C748 C744 1.332 . S
C748 C749 1.394 . S
C748 H758 0.932 . S
C749 C745 1.308 . S
C749 C748 1.394 . S
C749 H759 0.929 . S
C750 Tb721 2.764 . S
C750 O734 1.239 . S
C750 O735 1.263 . S
C750 C744 1.504 . S
C751 O736 1.236 . S
C751 O737 1.257 . S
H752 C725 0.932 . S
H753 C726 0.930 . S
H754 C727 0.932 . S
H755 C728 0.929 . S
H756 C746 0.932 . S
H757 C747 0.930 . S
H758 C748 0.932 . S
H759 C749 0.929 . S
Tb760 C769 2.764 . S
Tb760 O770 2.325 . S
Tb760 O773 2.303 . S
Tb760 O777 2.322 . S
Tb760 O778 2.349 . S
Tb760 O781 2.415 . S
Tb760 O782 2.399 . S
Tb761 O771 2.322 . S
Tb761 O772 2.349 . S
Tb761 O774 2.415 . S
Tb761 O775 2.399 . S
Tb761 O776 2.325 . S
Tb761 O779 2.303 . S
Tb761 C790 2.764 . S
C762 O778 1.261 . S
C762 O779 1.257 . S
C763 C766 1.358 . S
C763 C767 1.332 . S
C763 C769 1.504 . S
C764 C765 1.373 . S
C764 C768 1.308 . S
C765 C764 1.373 . S
C765 C766 1.429 . S
C765 H792 0.932 . S
C766 C763 1.358 . S
C766 C765 1.429 . S
C766 H793 0.930 . S
C767 C763 1.332 . S
C767 C768 1.394 . S
C767 H794 0.932 . S
C768 C764 1.308 . S
C768 C767 1.394 . S
C768 H795 0.929 . S
C769 Tb760 2.764 . S
C769 C763 1.504 . S
C769 O781 1.239 . S
C769 O782 1.263 . S
O770 Tb760 2.325 . S
O770 C780 1.236 . S
O771 Tb761 2.322 . S
O771 C780 1.257 . S
O772 Tb761 2.349 . S
O772 C783 1.261 . S
O773 Tb760 2.303 . S
O773 C783 1.257 . S
O774 Tb761 2.415 . S
O774 C790 1.239 . S
O775 Tb761 2.399 . S
O775 C790 1.263 . S
O776 Tb761 2.325 . S
O776 C791 1.236 . S
O777 Tb760 2.322 . S
O777 C791 1.257 . S
O778 Tb760 2.349 . S
O778 C762 1.261 . S
O779 Tb761 2.303 . S
O779 C762 1.257 . S
C780 O770 1.236 . S
C780 O771 1.257 . S
O781 Tb760 2.415 . S
O781 C769 1.239 . S
O782 Tb760 2.399 . S
O782 C769 1.263 . S
C783 O772 1.261 . S
C783 O773 1.257 . S
C784 C787 1.358 . S
C784 C788 1.332 . S
C784 C790 1.504 . S
C785 C786 1.373 . S
C785 C789 1.308 . S
C786 C785 1.373 . S
C786 C787 1.429 . S
C786 H796 0.932 . S
C787 C784 1.358 . S
C787 C786 1.429 . S
C787 H797 0.930 . S
C788 C784 1.332 . S
C788 C789 1.394 . S
C788 H798 0.932 . S
C789 C785 1.308 . S
C789 C788 1.394 . S
C789 H799 0.929 . S
C790 Tb761 2.764 . S
C790 O774 1.239 . S
C790 O775 1.263 . S
C790 C784 1.504 . S
C791 O776 1.236 . S
C791 O777 1.257 . S
H792 C765 0.932 . S
H793 C766 0.930 . S
H794 C767 0.932 . S
H795 C768 0.929 . S
H796 C786 0.932 . S
H797 C787 0.930 . S
H798 C788 0.932 . S
H799 C789 0.929 . S
Tb800 C809 2.764 . S
Tb800 O810 2.325 . S
Tb800 O813 2.303 . S
Tb800 O817 2.322 . S
Tb800 O818 2.349 . S
Tb800 O821 2.415 . S
Tb800 O822 2.399 . S
Tb801 O811 2.322 . S
Tb801 O812 2.349 . S
Tb801 O814 2.415 . S
Tb801 O815 2.399 . S
Tb801 O816 2.325 . S
Tb801 O819 2.303 . S
Tb801 C830 2.764 . S
C802 O818 1.261 . S
C802 O819 1.257 . S
C803 C806 1.358 . S
C803 C807 1.332 . S
C803 C809 1.504 . S
C804 C805 1.373 . S
C804 C808 1.308 . S
C805 C804 1.373 . S
C805 C806 1.429 . S
C805 H832 0.932 . S
C806 C803 1.358 . S
C806 C805 1.429 . S
C806 H833 0.930 . S
C807 C803 1.332 . S
C807 C808 1.394 . S
C807 H834 0.932 . S
C808 C804 1.308 . S
C808 C807 1.394 . S
C808 H835 0.929 . S
C809 Tb800 2.764 . S
C809 C803 1.504 . S
C809 O821 1.239 . S
C809 O822 1.263 . S
O810 Tb800 2.325 . S
O810 C820 1.236 . S
O811 Tb801 2.322 . S
O811 C820 1.257 . S
O812 Tb801 2.349 . S
O812 C823 1.261 . S
O813 Tb800 2.303 . S
O813 C823 1.257 . S
O814 Tb801 2.415 . S
O814 C830 1.239 . S
O815 Tb801 2.399 . S
O815 C830 1.263 . S
O816 Tb801 2.325 . S
O816 C831 1.236 . S
O817 Tb800 2.322 . S
O817 C831 1.257 . S
O818 Tb800 2.349 . S
O818 C802 1.261 . S
O819 Tb801 2.303 . S
O819 C802 1.257 . S
C820 O810 1.236 . S
C820 O811 1.257 . S
O821 Tb800 2.415 . S
O821 C809 1.239 . S
O822 Tb800 2.399 . S
O822 C809 1.263 . S
C823 O812 1.261 . S
C823 O813 1.257 . S
C824 C827 1.358 . S
C824 C828 1.332 . S
C824 C830 1.504 . S
C825 C826 1.373 . S
C825 C829 1.308 . S
C826 C825 1.373 . S
C826 C827 1.429 . S
C826 H836 0.932 . S
C827 C824 1.358 . S
C827 C826 1.429 . S
C827 H837 0.930 . S
C828 C824 1.332 . S
C828 C829 1.394 . S
C828 H838 0.932 . S
C829 C825 1.308 . S
C829 C828 1.394 . S
C829 H839 0.929 . S
C830 Tb801 2.764 . S
C830 O814 1.239 . S
C830 O815 1.263 . S
C830 C824 1.504 . S
C831 O816 1.236 . S
C831 O817 1.257 . S
H832 C805 0.932 . S
H833 C806 0.930 . S
H834 C807 0.932 . S
H835 C808 0.929 . S
H836 C826 0.932 . S
H837 C827 0.930 . S
H838 C828 0.932 . S
H839 C829 0.929 . S
Tb840 C849 2.764 . S
Tb840 O850 2.325 . S
Tb840 O853 2.303 . S
Tb840 O857 2.322 . S
Tb840 O858 2.349 . S
Tb840 O861 2.415 . S
Tb840 O862 2.399 . S
Tb841 O851 2.322 . S
Tb841 O852 2.349 . S
Tb841 O854 2.415 . S
Tb841 O855 2.399 . S
Tb841 O856 2.325 . S
Tb841 O859 2.303 . S
Tb841 C870 2.764 . S
C842 O858 1.261 . S
C842 O859 1.257 . S
C843 C846 1.358 . S
C843 C847 1.332 . S
C843 C849 1.504 . S
C844 C845 1.373 . S
C844 C848 1.308 . S
C845 C844 1.373 . S
C845 C846 1.429 . S
C845 H872 0.932 . S
C846 C843 1.358 . S
C846 C845 1.429 . S
C846 H873 0.930 . S
C847 C843 1.332 . S
C847 C848 1.394 . S
C847 H874 0.932 . S
C848 C844 1.308 . S
C848 C847 1.394 . S
C848 H875 0.929 . S
C849 Tb840 2.764 . S
C849 C843 1.504 . S
C849 O861 1.239 . S
C849 O862 1.263 . S
O850 Tb840 2.325 . S
O850 C860 1.236 . S
O851 Tb841 2.322 . S
O851 C860 1.257 . S
O852 Tb841 2.349 . S
O852 C863 1.261 . S
O853 Tb840 2.303 . S
O853 C863 1.257 . S
O854 Tb841 2.415 . S
O854 C870 1.239 . S
O855 Tb841 2.399 . S
O855 C870 1.263 . S
O856 Tb841 2.325 . S
O856 C871 1.236 . S
O857 Tb840 2.322 . S
O857 C871 1.257 . S
O858 Tb840 2.349 . S
O858 C842 1.261 . S
O859 Tb841 2.303 . S
O859 C842 1.257 . S
C860 O850 1.236 . S
C860 O851 1.257 . S
O861 Tb840 2.415 . S
O861 C849 1.239 . S
O862 Tb840 2.399 . S
O862 C849 1.263 . S
C863 O852 1.261 . S
C863 O853 1.257 . S
C864 C867 1.358 . S
C864 C868 1.332 . S
C864 C870 1.504 . S
C865 C866 1.373 . S
C865 C869 1.308 . S
C866 C865 1.373 . S
C866 C867 1.429 . S
C866 H876 0.932 . S
C867 C864 1.358 . S
C867 C866 1.429 . S
C867 H877 0.930 . S
C868 C864 1.332 . S
C868 C869 1.394 . S
C868 H878 0.932 . S
C869 C865 1.308 . S
C869 C868 1.394 . S
C869 H879 0.929 . S
C870 Tb841 2.764 . S
C870 O854 1.239 . S
C870 O855 1.263 . S
C870 C864 1.504 . S
C871 O856 1.236 . S
C871 O857 1.257 . S
H872 C845 0.932 . S
H873 C846 0.930 . S
H874 C847 0.932 . S
H875 C848 0.929 . S
H876 C866 0.932 . S
H877 C867 0.930 . S
H878 C868 0.932 . S
H879 C869 0.929 . S
Tb880 C889 2.764 . S
Tb880 O890 2.325 . S
Tb880 O893 2.303 . S
Tb880 O897 2.322 . S
Tb880 O898 2.349 . S
Tb880 O901 2.415 . S
Tb880 O902 2.399 . S
Tb881 O891 2.322 . S
Tb881 O892 2.349 . S
Tb881 O894 2.415 . S
Tb881 O895 2.399 . S
Tb881 O896 2.325 . S
Tb881 O899 2.303 . S
Tb881 C910 2.764 . S
C882 O898 1.261 . S
C882 O899 1.257 . S
C883 C886 1.358 . S
C883 C887 1.332 . S
C883 C889 1.504 . S
C884 C885 1.373 . S
C884 C888 1.308 . S
C885 C884 1.373 . S
C885 C886 1.429 . S
C885 H912 0.932 . S
C886 C883 1.358 . S
C886 C885 1.429 . S
C886 H913 0.930 . S
C887 C883 1.332 . S
C887 C888 1.394 . S
C887 H914 0.932 . S
C888 C884 1.308 . S
C888 C887 1.394 . S
C888 H915 0.929 . S
C889 Tb880 2.764 . S
C889 C883 1.504 . S
C889 O901 1.239 . S
C889 O902 1.263 . S
O890 Tb880 2.325 . S
O890 C900 1.236 . S
O891 Tb881 2.322 . S
O891 C900 1.257 . S
O892 Tb881 2.349 . S
O892 C903 1.261 . S
O893 Tb880 2.303 . S
O893 C903 1.257 . S
O894 Tb881 2.415 . S
O894 C910 1.239 . S
O895 Tb881 2.399 . S
O895 C910 1.263 . S
O896 Tb881 2.325 . S
O896 C911 1.236 . S
O897 Tb880 2.322 . S
O897 C911 1.257 . S
O898 Tb880 2.349 . S
O898 C882 1.261 . S
O899 Tb881 2.303 . S
O899 C882 1.257 . S
C900 O890 1.236 . S
C900 O891 1.257 . S
O901 Tb880 2.415 . S
O901 C889 1.239 . S
O902 Tb880 2.399 . S
O902 C889 1.263 . S
C903 O892 1.261 . S
C903 O893 1.257 . S
C904 C907 1.358 . S
C904 C908 1.332 . S
C904 C910 1.504 . S
C905 C906 1.373 . S
C905 C909 1.308 . S
C906 C905 1.373 . S
C906 C907 1.429 . S
C906 H916 0.932 . S
C907 C904 1.358 . S
C907 C906 1.429 . S
C907 H917 0.930 . S
C908 C904 1.332 . S
C908 C909 1.394 . S
C908 H918 0.932 . S
C909 C905 1.308 . S
C909 C908 1.394 . S
C909 H919 0.929 . S
C910 Tb881 2.764 . S
C910 O894 1.239 . S
C910 O895 1.263 . S
C910 C904 1.504 . S
C911 O896 1.236 . S
C911 O897 1.257 . S
H912 C885 0.932 . S
H913 C886 0.930 . S
H914 C887 0.932 . S
H915 C888 0.929 . S
H916 C906 0.932 . S
H917 C907 0.930 . S
H918 C908 0.932 . S
H919 C909 0.929 . S
Tb920 C929 2.764 . S
Tb920 O930 2.325 . S
Tb920 O933 2.303 . S
Tb920 O937 2.322 . S
Tb920 O938 2.349 . S
Tb920 O941 2.415 . S
Tb920 O942 2.399 . S
Tb921 O931 2.322 . S
Tb921 O932 2.349 . S
Tb921 O934 2.415 . S
Tb921 O935 2.399 . S
Tb921 O936 2.325 . S
Tb921 O939 2.303 . S
Tb921 C950 2.764 . S
C922 O938 1.261 . S
C922 O939 1.257 . S
C923 C926 1.358 . S
C923 C927 1.332 . S
C923 C929 1.504 . S
C924 C925 1.373 . S
C924 C928 1.308 . S
C925 C924 1.373 . S
C925 C926 1.429 . S
C925 H952 0.932 . S
C926 C923 1.358 . S
C926 C925 1.429 . S
C926 H953 0.930 . S
C927 C923 1.332 . S
C927 C928 1.394 . S
C927 H954 0.932 . S
C928 C924 1.308 . S
C928 C927 1.394 . S
C928 H955 0.929 . S
C929 Tb920 2.764 . S
C929 C923 1.504 . S
C929 O941 1.239 . S
C929 O942 1.263 . S
O930 Tb920 2.325 . S
O930 C940 1.236 . S
O931 Tb921 2.322 . S
O931 C940 1.257 . S
O932 Tb921 2.349 . S
O932 C943 1.261 . S
O933 Tb920 2.303 . S
O933 C943 1.257 . S
O934 Tb921 2.415 . S
O934 C950 1.239 . S
O935 Tb921 2.399 . S
O935 C950 1.263 . S
O936 Tb921 2.325 . S
O936 C951 1.236 . S
O937 Tb920 2.322 . S
O937 C951 1.257 . S
O938 Tb920 2.349 . S
O938 C922 1.261 . S
O939 Tb921 2.303 . S
O939 C922 1.257 . S
C940 O930 1.236 . S
C940 O931 1.257 . S
O941 Tb920 2.415 . S
O941 C929 1.239 . S
O942 Tb920 2.399 . S
O942 C929 1.263 . S
C943 O932 1.261 . S
C943 O933 1.257 . S
C944 C947 1.358 . S
C944 C948 1.332 . S
C944 C950 1.504 . S
C945 C946 1.373 . S
C945 C949 1.308 . S
C946 C945 1.373 . S
C946 C947 1.429 . S
C946 H956 0.932 . S
C947 C944 1.358 . S
C947 C946 1.429 . S
C947 H957 0.930 . S
C948 C944 1.332 . S
C948 C949 1.394 . S
C948 H958 0.932 . S
C949 C945 1.308 . S
C949 C948 1.394 . S
C949 H959 0.929 . S
C950 Tb921 2.764 . S
C950 O934 1.239 . S
C950 O935 1.263 . S
C950 C944 1.504 . S
C951 O936 1.236 . S
C951 O937 1.257 . S
H952 C925 0.932 . S
H953 C926 0.930 . S
H954 C927 0.932 . S
H955 C928 0.929 . S
H956 C946 0.932 . S
H957 C947 0.930 . S
H958 C948 0.932 . S
H959 C949 0.929 . S
Tb960 C969 2.764 . S
Tb960 O970 2.325 . S
Tb960 O973 2.303 . S
Tb960 O977 2.322 . S
Tb960 O978 2.349 . S
Tb960 O981 2.415 . S
Tb960 O982 2.399 . S
Tb961 O971 2.322 . S
Tb961 O972 2.349 . S
Tb961 O974 2.415 . S
Tb961 O975 2.399 . S
Tb961 O976 2.325 . S
Tb961 O979 2.303 . S
Tb961 C990 2.764 . S
C962 O978 1.261 . S
C962 O979 1.257 . S
C963 C966 1.358 . S
C963 C967 1.332 . S
C963 C969 1.504 . S
C964 C965 1.373 . S
C964 C968 1.308 . S
C965 C964 1.373 . S
C965 C966 1.429 . S
C965 H992 0.932 . S
C966 C963 1.358 . S
C966 C965 1.429 . S
C966 H993 0.930 . S
C967 C963 1.332 . S
C967 C968 1.394 . S
C967 H994 0.932 . S
C968 C964 1.308 . S
C968 C967 1.394 . S
C968 H995 0.929 . S
C969 Tb960 2.764 . S
C969 C963 1.504 . S
C969 O981 1.239 . S
C969 O982 1.263 . S
O970 Tb960 2.325 . S
O970 C980 1.236 . S
O971 Tb961 2.322 . S
O971 C980 1.257 . S
O972 Tb961 2.349 . S
O972 C983 1.261 . S
O973 Tb960 2.303 . S
O973 C983 1.257 . S
O974 Tb961 2.415 . S
O974 C990 1.239 . S
O975 Tb961 2.399 . S
O975 C990 1.263 . S
O976 Tb961 2.325 . S
O976 C991 1.236 . S
O977 Tb960 2.322 . S
O977 C991 1.257 . S
O978 Tb960 2.349 . S
O978 C962 1.261 . S
O979 Tb961 2.303 . S
O979 C962 1.257 . S
C980 O970 1.236 . S
C980 O971 1.257 . S
O981 Tb960 2.415 . S
O981 C969 1.239 . S
O982 Tb960 2.399 . S
O982 C969 1.263 . S
C983 O972 1.261 . S
C983 O973 1.257 . S
C984 C987 1.358 . S
C984 C988 1.332 . S
C984 C990 1.504 . S
C985 C986 1.373 . S
C985 C989 1.308 . S
C986 C985 1.373 . S
C986 C987 1.429 . S
C986 H996 0.932 . S
C987 C984 1.358 . S
C987 C986 1.429 . S
C987 H997 0.930 . S
C988 C984 1.332 . S
C988 C989 1.394 . S
C988 H998 0.932 . S
C989 C985 1.308 . S
C989 C988 1.394 . S
C989 H999 0.929 . S
C990 Tb961 2.764 . S
C990 O974 1.239 . S
C990 O975 1.263 . S
C990 C984 1.504 . S
C991 O976 1.236 . S
C991 O977 1.257 . S
H992 C965 0.932 . S
H993 C966 0.930 . S
H994 C967 0.932 . S
H995 C968 0.929 . S
H996 C986 0.932 . S
H997 C987 0.930 . S
H998 C988 0.932 . S
H999 C989 0.929 . S
Tb1000 C1009 2.764 . S
Tb1000 O1010 2.325 . S
Tb1000 O1013 2.303 . S
Tb1000 O1017 2.322 . S
Tb1000 O1018 2.349 . S
Tb1000 O1021 2.415 . S
Tb1000 O1022 2.399 . S
Tb1001 O1011 2.322 . S
Tb1001 O1012 2.349 . S
Tb1001 O1014 2.415 . S
Tb1001 O1015 2.399 . S
Tb1001 O1016 2.325 . S
Tb1001 O1019 2.303 . S
Tb1001 C1030 2.764 . S
C1002 O1018 1.261 . S
C1002 O1019 1.257 . S
C1003 C1006 1.358 . S
C1003 C1007 1.332 . S
C1003 C1009 1.504 . S
C1004 C1005 1.373 . S
C1004 C1008 1.308 . S
C1005 C1004 1.373 . S
C1005 C1006 1.429 . S
C1005 H1032 0.932 . S
C1006 C1003 1.358 . S
C1006 C1005 1.429 . S
C1006 H1033 0.930 . S
C1007 C1003 1.332 . S
C1007 C1008 1.394 . S
C1007 H1034 0.932 . S
C1008 C1004 1.308 . S
C1008 C1007 1.394 . S
C1008 H1035 0.929 . S
C1009 Tb1000 2.764 . S
C1009 C1003 1.504 . S
C1009 O1021 1.239 . S
C1009 O1022 1.263 . S
O1010 Tb1000 2.325 . S
O1010 C1020 1.236 . S
O1011 Tb1001 2.322 . S
O1011 C1020 1.257 . S
O1012 Tb1001 2.349 . S
O1012 C1023 1.261 . S
O1013 Tb1000 2.303 . S
O1013 C1023 1.257 . S
O1014 Tb1001 2.415 . S
O1014 C1030 1.239 . S
O1015 Tb1001 2.399 . S
O1015 C1030 1.263 . S
O1016 Tb1001 2.325 . S
O1016 C1031 1.236 . S
O1017 Tb1000 2.322 . S
O1017 C1031 1.257 . S
O1018 Tb1000 2.349 . S
O1018 C1002 1.261 . S
O1019 Tb1001 2.303 . S
O1019 C1002 1.257 . S
C1020 O1010 1.236 . S
C1020 O1011 1.257 . S
O1021 Tb1000 2.415 . S
O1021 C1009 1.239 . S
O1022 Tb1000 2.399 . S
O1022 C1009 1.263 . S
C1023 O1012 1.261 . S
C1023 O1013 1.257 . S
C1024 C1027 1.358 . S
C1024 C1028 1.332 . S
C1024 C1030 1.504 . S
C1025 C1026 1.373 . S
C1025 C1029 1.308 . S
C1026 C1025 1.373 . S
C1026 C1027 1.429 . S
C1026 H1036 0.932 . S
C1027 C1024 1.358 . S
C1027 C1026 1.429 . S
C1027 H1037 0.930 . S
C1028 C1024 1.332 . S
C1028 C1029 1.394 . S
C1028 H1038 0.932 . S
C1029 C1025 1.308 . S
C1029 C1028 1.394 . S
C1029 H1039 0.929 . S
C1030 Tb1001 2.764 . S
C1030 O1014 1.239 . S
C1030 O1015 1.263 . S
C1030 C1024 1.504 . S
C1031 O1016 1.236 . S
C1031 O1017 1.257 . S
H1032 C1005 0.932 . S
H1033 C1006 0.930 . S
H1034 C1007 0.932 . S
H1035 C1008 0.929 . S
H1036 C1026 0.932 . S
H1037 C1027 0.930 . S
H1038 C1028 0.932 . S
H1039 C1029 0.929 . S
Tb1040 C1049 2.764 . S
Tb1040 O1050 2.325 . S
Tb1040 O1053 2.303 . S
Tb1040 O1057 2.322 . S
Tb1040 O1058 2.349 . S
Tb1040 O1061 2.415 . S
Tb1040 O1062 2.399 . S
Tb1041 O1051 2.322 . S
Tb1041 O1052 2.349 . S
Tb1041 O1054 2.415 . S
Tb1041 O1055 2.399 . S
Tb1041 O1056 2.325 . S
Tb1041 O1059 2.303 . S
Tb1041 C1070 2.764 . S
C1042 O1058 1.261 . S
C1042 O1059 1.257 . S
C1043 C1046 1.358 . S
C1043 C1047 1.332 . S
C1043 C1049 1.504 . S
C1044 C1045 1.373 . S
C1044 C1048 1.308 . S
C1045 C1044 1.373 . S
C1045 C1046 1.429 . S
C1045 H1072 0.932 . S
C1046 C1043 1.358 . S
C1046 C1045 1.429 . S
C1046 H1073 0.930 . S
C1047 C1043 1.332 . S
C1047 C1048 1.394 . S
C1047 H1074 0.932 . S
C1048 C1044 1.308 . S
C1048 C1047 1.394 . S
C1048 H1075 0.929 . S
C1049 Tb1040 2.764 . S
C1049 C1043 1.504 . S
C1049 O1061 1.239 . S
C1049 O1062 1.263 . S
O1050 Tb1040 2.325 . S
O1050 C1060 1.236 . S
O1051 Tb1041 2.322 . S
O1051 C1060 1.257 . S
O1052 Tb1041 2.349 . S
O1052 C1063 1.261 . S
O1053 Tb1040 2.303 . S
O1053 C1063 1.257 . S
O1054 Tb1041 2.415 . S
O1054 C1070 1.239 . S
O1055 Tb1041 2.399 . S
O1055 C1070 1.263 . S
O1056 Tb1041 2.325 . S
O1056 C1071 1.236 . S
O1057 Tb1040 2.322 . S
O1057 C1071 1.257 . S
O1058 Tb1040 2.349 . S
O1058 C1042 1.261 . S
O1059 Tb1041 2.303 . S
O1059 C1042 1.257 . S
C1060 O1050 1.236 . S
C1060 O1051 1.257 . S
O1061 Tb1040 2.415 . S
O1061 C1049 1.239 . S
O1062 Tb1040 2.399 . S
O1062 C1049 1.263 . S
C1063 O1052 1.261 . S
C1063 O1053 1.257 . S
C1064 C1067 1.358 . S
C1064 C1068 1.332 . S
C1064 C1070 1.504 . S
C1065 C1066 1.373 . S
C1065 C1069 1.308 . S
C1066 C1065 1.373 . S
C1066 C1067 1.429 . S
C1066 H1076 0.932 . S
C1067 C1064 1.358 . S
C1067 C1066 1.429 . S
C1067 H1077 0.930 . S
C1068 C1064 1.332 . S
C1068 C1069 1.394 . S
C1068 H1078 0.932 . S
C1069 C1065 1.308 . S
C1069 C1068 1.394 . S
C1069 H1079 0.929 . S
C1070 Tb1041 2.764 . S
C1070 O1054 1.239 . S
C1070 O1055 1.263 . S
C1070 C1064 1.504 . S
C1071 O1056 1.236 . S
C1071 O1057 1.257 . S
H1072 C1045 0.932 . S
H1073 C1046 0.930 . S
H1074 C1047 0.932 . S
H1075 C1048 0.929 . S
H1076 C1066 0.932 . S
H1077 C1067 0.930 . S
H1078 C1068 0.932 . S
H1079 C1069 0.929 . S
Tb1080 C1089 2.764 . S
Tb1080 O1090 2.325 . S
Tb1080 O1093 2.303 . S
Tb1080 O1097 2.322 . S
Tb1080 O1098 2.349 . S
Tb1080 O1101 2.415 . S
Tb1080 O1102 2.399 . S
Tb1081 O1091 2.322 . S
Tb1081 O1092 2.349 . S
Tb1081 O1094 2.415 . S
Tb1081 O1095 2.399 . S
Tb1081 O1096 2.325 . S
Tb1081 O1099 2.303 . S
Tb1081 C1110 2.764 . S
C1082 O1098 1.261 . S
C1082 O1099 1.257 . S
C1083 C1086 1.358 . S
C1083 C1087 1.332 . S
C1083 C1089 1.504 . S
C1084 C1085 1.373 . S
C1084 C1088 1.308 . S
C1085 C1084 1.373 . S
C1085 C1086 1.429 . S
C1085 H1112 0.932 . S
C1086 C1083 1.358 . S
C1086 C1085 1.429 . S
C1086 H1113 0.930 . S
C1087 C1083 1.332 . S
C1087 C1088 1.394 . S
C1087 H1114 0.932 . S
C1088 C1084 1.308 . S
C1088 C1087 1.394 . S
C1088 H1115 0.929 . S
C1089 Tb1080 2.764 . S
C1089 C1083 1.504 . S
C1089 O1101 1.239 . S
C1089 O1102 1.263 . S
O1090 Tb1080 2.325 . S
O1090 C1100 1.236 . S
O1091 Tb1081 2.322 . S
O1091 C1100 1.257 . S
O1092 Tb1081 2.349 . S
O1092 C1103 1.261 . S
O1093 Tb1080 2.303 . S
O1093 C1103 1.257 . S
O1094 Tb1081 2.415 . S
O1094 C1110 1.239 . S
O1095 Tb1081 2.399 . S
O1095 C1110 1.263 . S
O1096 Tb1081 2.325 . S
O1096 C1111 1.236 . S
O1097 Tb1080 2.322 . S
O1097 C1111 1.257 . S
O1098 Tb1080 2.349 . S
O1098 C1082 1.261 . S
O1099 Tb1081 2.303 . S
O1099 C1082 1.257 . S
C1100 O1090 1.236 . S
C1100 O1091 1.257 . S
O1101 Tb1080 2.415 . S
O1101 C1089 1.239 . S
O1102 Tb1080 2.399 . S
O1102 C1089 1.263 . S
C1103 O1092 1.261 . S
C1103 O1093 1.257 . S
C1104 C1107 1.358 . S
C1104 C1108 1.332 . S
C1104 C1110 1.504 . S
C1105 C1106 1.373 . S
C1105 C1109 1.308 . S
C1106 C1105 1.373 . S
C1106 C1107 1.429 . S
C1106 H1116 0.932 . S
C1107 C1104 1.358 . S
C1107 C1106 1.429 . S
C1107 H1117 0.930 . S
C1108 C1104 1.332 . S
C1108 C1109 1.394 . S
C1108 H1118 0.932 . S
C1109 C1105 1.308 . S
C1109 C1108 1.394 . S
C1109 H1119 0.929 . S
C1110 Tb1081 2.764 . S
C1110 O1094 1.239 . S
C1110 O1095 1.263 . S
C1110 C1104 1.504 . S
C1111 O1096 1.236 . S
C1111 O1097 1.257 . S
H1112 C1085 0.932 . S
H1113 C1086 0.930 . S
H1114 C1087 0.932 . S
H1115 C1088 0.929 . S
H1116 C1106 0.932 . S
H1117 C1107 0.930 . S
H1118 C1108 0.932 . S
H1119 C1109 0.929 . S
Tb1120 C1129 2.764 . S
Tb1120 O1130 2.325 . S
Tb1120 O1133 2.303 . S
Tb1120 O1137 2.322 . S
Tb1120 O1138 2.349 . S
Tb1120 O1141 2.415 . S
Tb1120 O1142 2.399 . S
Tb1121 O1131 2.322 . S
Tb1121 O1132 2.349 . S
Tb1121 O1134 2.415 . S
Tb1121 O1135 2.399 . S
Tb1121 O1136 2.325 . S
Tb1121 O1139 2.303 . S
Tb1121 C1150 2.764 . S
C1122 O1138 1.261 . S
C1122 O1139 1.257 . S
C1123 C1126 1.358 . S
C1123 C1127 1.332 . S
C1123 C1129 1.504 . S
C1124 C1125 1.373 . S
C1124 C1128 1.308 . S
C1125 C1124 1.373 . S
C1125 C1126 1.429 . S
C1125 H1152 0.932 . S
C1126 C1123 1.358 . S
C1126 C1125 1.429 . S
C1126 H1153 0.930 . S
C1127 C1123 1.332 . S
C1127 C1128 1.394 . S
C1127 H1154 0.932 . S
C1128 C1124 1.308 . S
C1128 C1127 1.394 . S
C1128 H1155 0.929 . S
C1129 Tb1120 2.764 . S
C1129 C1123 1.504 . S
C1129 O1141 1.239 . S
C1129 O1142 1.263 . S
O1130 Tb1120 2.325 . S
O1130 C1140 1.236 . S
O1131 Tb1121 2.322 . S
O1131 C1140 1.257 . S
O1132 Tb1121 2.349 . S
O1132 C1143 1.261 . S
O1133 Tb1120 2.303 . S
O1133 C1143 1.257 . S
O1134 Tb1121 2.415 . S
O1134 C1150 1.239 . S
O1135 Tb1121 2.399 . S
O1135 C1150 1.263 . S
O1136 Tb1121 2.325 . S
O1136 C1151 1.236 . S
O1137 Tb1120 2.322 . S
O1137 C1151 1.257 . S
O1138 Tb1120 2.349 . S
O1138 C1122 1.261 . S
O1139 Tb1121 2.303 . S
O1139 C1122 1.257 . S
C1140 O1130 1.236 . S
C1140 O1131 1.257 . S
O1141 Tb1120 2.415 . S
O1141 C1129 1.239 . S
O1142 Tb1120 2.399 . S
O1142 C1129 1.263 . S
C1143 O1132 1.261 . S
C1143 O1133 1.257 . S
C1144 C1147 1.358 . S
C1144 C1148 1.332 . S
C1144 C1150 1.504 . S
C1145 C1146 1.373 . S
C1145 C1149 1.308 . S
C1146 C1145 1.373 . S
C1146 C1147 1.429 . S
C1146 H1156 0.932 . S
C1147 C1144 1.358 . S
C1147 C1146 1.429 . S
C1147 H1157 0.930 . S
C1148 C1144 1.332 . S
C1148 C1149 1.394 . S
C1148 H1158 0.932 . S
C1149 C1145 1.308 . S
C1149 C1148 1.394 . S
C1149 H1159 0.929 . S
C1150 Tb1121 2.764 . S
C1150 O1134 1.239 . S
C1150 O1135 1.263 . S
C1150 C1144 1.504 . S
C1151 O1136 1.236 . S
C1151 O1137 1.257 . S
H1152 C1125 0.932 . S
H1153 C1126 0.930 . S
H1154 C1127 0.932 . S
H1155 C1128 0.929 . S
H1156 C1146 0.932 . S
H1157 C1147 0.930 . S
H1158 C1148 0.932 . S
H1159 C1149 0.929 . S
Tb1160 C1169 2.764 . S
Tb1160 O1170 2.325 . S
Tb1160 O1173 2.303 . S
Tb1160 O1177 2.322 . S
Tb1160 O1178 2.349 . S
Tb1160 O1181 2.415 . S
Tb1160 O1182 2.399 . S
Tb1161 O1171 2.322 . S
Tb1161 O1172 2.349 . S
Tb1161 O1174 2.415 . S
Tb1161 O1175 2.399 . S
Tb1161 O1176 2.325 . S
Tb1161 O1179 2.303 . S
Tb1161 C1190 2.764 . S
C1162 O1178 1.261 . S
C1162 O1179 1.257 . S
C1163 C1166 1.358 . S
C1163 C1167 1.332 . S
C1163 C1169 1.504 . S
C1164 C1165 1.373 . S
C1164 C1168 1.308 . S
C1165 C1164 1.373 . S
C1165 C1166 1.429 . S
C1165 H1192 0.932 . S
C1166 C1163 1.358 . S
C1166 C1165 1.429 . S
C1166 H1193 0.930 . S
C1167 C1163 1.332 . S
C1167 C1168 1.394 . S
C1167 H1194 0.932 . S
C1168 C1164 1.308 . S
C1168 C1167 1.394 . S
C1168 H1195 0.929 . S
C1169 Tb1160 2.764 . S
C1169 C1163 1.504 . S
C1169 O1181 1.239 . S
C1169 O1182 1.263 . S
O1170 Tb1160 2.325 . S
O1170 C1180 1.236 . S
O1171 Tb1161 2.322 . S
O1171 C1180 1.257 . S
O1172 Tb1161 2.349 . S
O1172 C1183 1.261 . S
O1173 Tb1160 2.303 . S
O1173 C1183 1.257 . S
O1174 Tb1161 2.415 . S
O1174 C1190 1.239 . S
O1175 Tb1161 2.399 . S
O1175 C1190 1.263 . S
O1176 Tb1161 2.325 . S
O1176 C1191 1.236 . S
O1177 Tb1160 2.322 . S
O1177 C1191 1.257 . S
O1178 Tb1160 2.349 . S
O1178 C1162 1.261 . S
O1179 Tb1161 2.303 . S
O1179 C1162 1.257 . S
C1180 O1170 1.236 . S
C1180 O1171 1.257 . S
O1181 Tb1160 2.415 . S
O1181 C1169 1.239 . S
O1182 Tb1160 2.399 . S
O1182 C1169 1.263 . S
C1183 O1172 1.261 . S
C1183 O1173 1.257 . S
C1184 C1187 1.358 . S
C1184 C1188 1.332 . S
C1184 C1190 1.504 . S
C1185 C1186 1.373 . S
C1185 C1189 1.308 . S
C1186 C1185 1.373 . S
C1186 C1187 1.429 . S
C1186 H1196 0.932 . S
C1187 C1184 1.358 . S
C1187 C1186 1.429 . S
C1187 H1197 0.930 . S
C1188 C1184 1.332 . S
C1188 C1189 1.394 . S
C1188 H1198 0.932 . S
C1189 C1185 1.308 . S
C1189 C1188 1.394 . S
C1189 H1199 0.929 . S
C1190 Tb1161 2.764 . S
C1190 O1174 1.239 . S
C1190 O1175 1.263 . S
C1190 C1184 1.504 . S
C1191 O1176 1.236 . S
C1191 O1177 1.257 . S
H1192 C1165 0.932 . S
H1193 C1166 0.930 . S
H1194 C1167 0.932 . S
H1195 C1168 0.929 . S
H1196 C1186 0.932 . S
H1197 C1187 0.930 . S
H1198 C1188 0.932 . S
H1199 C1189 0.929 . S
Tb1200 C1209 2.764 . S
Tb1200 O1210 2.325 . S
Tb1200 O1213 2.303 . S
Tb1200 O1217 2.322 . S
Tb1200 O1218 2.349 . S
Tb1200 O1221 2.415 . S
Tb1200 O1222 2.399 . S
Tb1201 O1211 2.322 . S
Tb1201 O1212 2.349 . S
Tb1201 O1214 2.415 . S
Tb1201 O1215 2.399 . S
Tb1201 O1216 2.325 . S
Tb1201 O1219 2.303 . S
Tb1201 C1230 2.764 . S
C1202 O1218 1.261 . S
C1202 O1219 1.257 . S
C1203 C1206 1.358 . S
C1203 C1207 1.332 . S
C1203 C1209 1.504 . S
C1204 C1205 1.373 . S
C1204 C1208 1.308 . S
C1205 C1204 1.373 . S
C1205 C1206 1.429 . S
C1205 H1232 0.932 . S
C1206 C1203 1.358 . S
C1206 C1205 1.429 . S
C1206 H1233 0.930 . S
C1207 C1203 1.332 . S
C1207 C1208 1.394 . S
C1207 H1234 0.932 . S
C1208 C1204 1.308 . S
C1208 C1207 1.394 . S
C1208 H1235 0.929 . S
C1209 Tb1200 2.764 . S
C1209 C1203 1.504 . S
C1209 O1221 1.239 . S
C1209 O1222 1.263 . S
O1210 Tb1200 2.325 . S
O1210 C1220 1.236 . S
O1211 Tb1201 2.322 . S
O1211 C1220 1.257 . S
O1212 Tb1201 2.349 . S
O1212 C1223 1.261 . S
O1213 Tb1200 2.303 . S
O1213 C1223 1.257 . S
O1214 Tb1201 2.415 . S
O1214 C1230 1.239 . S
O1215 Tb1201 2.399 . S
O1215 C1230 1.263 . S
O1216 Tb1201 2.325 . S
O1216 C1231 1.236 . S
O1217 Tb1200 2.322 . S
O1217 C1231 1.257 . S
O1218 Tb1200 2.349 . S
O1218 C1202 1.261 . S
O1219 Tb1201 2.303 . S
O1219 C1202 1.257 . S
C1220 O1210 1.236 . S
C1220 O1211 1.257 . S
O1221 Tb1200 2.415 . S
O1221 C1209 1.239 . S
O1222 Tb1200 2.399 . S
O1222 C1209 1.263 . S
C1223 O1212 1.261 . S
C1223 O1213 1.257 . S
C1224 C1227 1.358 . S
C1224 C1228 1.332 . S
C1224 C1230 1.504 . S
C1225 C1226 1.373 . S
C1225 C1229 1.308 . S
C1226 C1225 1.373 . S
C1226 C1227 1.429 . S
C1226 H1236 0.932 . S
C1227 C1224 1.358 . S
C1227 C1226 1.429 . S
C1227 H1237 0.930 . S
C1228 C1224 1.332 . S
C1228 C1229 1.394 . S
C1228 H1238 0.932 . S
C1229 C1225 1.308 . S
C1229 C1228 1.394 . S
C1229 H1239 0.929 . S
C1230 Tb1201 2.764 . S
C1230 O1214 1.239 . S
C1230 O1215 1.263 . S
C1230 C1224 1.504 . S
C1231 O1216 1.236 . S
C1231 O1217 1.257 . S
H1232 C1205 0.932 . S
H1233 C1206 0.930 . S
H1234 C1207 0.932 . S
H1235 C1208 0.929 . S
H1236 C1226 0.932 . S
H1237 C1227 0.930 . S
H1238 C1228 0.932 . S
H1239 C1229 0.929 . S
Tb1240 C1249 2.764 . S
Tb1240 O1250 2.325 . S
Tb1240 O1253 2.303 . S
Tb1240 O1257 2.322 . S
Tb1240 O1258 2.349 . S
Tb1240 O1261 2.415 . S
Tb1240 O1262 2.399 . S
Tb1241 O1251 2.322 . S
Tb1241 O1252 2.349 . S
Tb1241 O1254 2.415 . S
Tb1241 O1255 2.399 . S
Tb1241 O1256 2.325 . S
Tb1241 O1259 2.303 . S
Tb1241 C1270 2.764 . S
C1242 O1258 1.261 . S
C1242 O1259 1.257 . S
C1243 C1246 1.358 . S
C1243 C1247 1.332 . S
C1243 C1249 1.504 . S
C1244 C1245 1.373 . S
C1244 C1248 1.308 . S
C1245 C1244 1.373 . S
C1245 C1246 1.429 . S
C1245 H1272 0.932 . S
C1246 C1243 1.358 . S
C1246 C1245 1.429 . S
C1246 H1273 0.930 . S
C1247 C1243 1.332 . S
C1247 C1248 1.394 . S
C1247 H1274 0.932 . S
C1248 C1244 1.308 . S
C1248 C1247 1.394 . S
C1248 H1275 0.929 . S
C1249 Tb1240 2.764 . S
C1249 C1243 1.504 . S
C1249 O1261 1.239 . S
C1249 O1262 1.263 . S
O1250 Tb1240 2.325 . S
O1250 C1260 1.236 . S
O1251 Tb1241 2.322 . S
O1251 C1260 1.257 . S
O1252 Tb1241 2.349 . S
O1252 C1263 1.261 . S
O1253 Tb1240 2.303 . S
O1253 C1263 1.257 . S
O1254 Tb1241 2.415 . S
O1254 C1270 1.239 . S
O1255 Tb1241 2.399 . S
O1255 C1270 1.263 . S
O1256 Tb1241 2.325 . S
O1256 C1271 1.236 . S
O1257 Tb1240 2.322 . S
O1257 C1271 1.257 . S
O1258 Tb1240 2.349 . S
O1258 C1242 1.261 . S
O1259 Tb1241 2.303 . S
O1259 C1242 1.257 . S
C1260 O1250 1.236 . S
C1260 O1251 1.257 . S
O1261 Tb1240 2.415 . S
O1261 C1249 1.239 . S
O1262 Tb1240 2.399 . S
O1262 C1249 1.263 . S
C1263 O1252 1.261 . S
C1263 O1253 1.257 . S
C1264 C1267 1.358 . S
C1264 C1268 1.332 . S
C1264 C1270 1.504 . S
C1265 C1266 1.373 . S
C1265 C1269 1.308 . S
C1266 C1265 1.373 . S
C1266 C1267 1.429 . S
C1266 H1276 0.932 . S
C1267 C1264 1.358 . S
C1267 C1266 1.429 . S
C1267 H1277 0.930 . S
C1268 C1264 1.332 . S
C1268 C1269 1.394 . S
C1268 H1278 0.932 . S
C1269 C1265 1.308 . S
C1269 C1268 1.394 . S
C1269 H1279 0.929 . S
C1270 Tb1241 2.764 . S
C1270 O1254 1.239 . S
C1270 O1255 1.263 . S
C1270 C1264 1.504 . S
C1271 O1256 1.236 . S
C1271 O1257 1.257 . S
H1272 C1245 0.932 . S
H1273 C1246 0.930 . S
H1274 C1247 0.932 . S
H1275 C1248 0.929 . S
H1276 C1266 0.932 . S
H1277 C1267 0.930 . S
H1278 C1268 0.932 . S
H1279 C1269 0.929 . S
Tb1280 C1289 2.764 . S
Tb1280 O1290 2.325 . S
Tb1280 O1293 2.303 . S
Tb1280 O1297 2.322 . S
Tb1280 O1298 2.349 . S
Tb1280 O1301 2.415 . S
Tb1280 O1302 2.399 . S
Tb1281 O1291 2.322 . S
Tb1281 O1292 2.349 . S
Tb1281 O1294 2.415 . S
Tb1281 O1295 2.399 . S
Tb1281 O1296 2.325 . S
Tb1281 O1299 2.303 . S
Tb1281 C1310 2.764 . S
C1282 O1298 1.261 . S
C1282 O1299 1.257 . S
C1283 C1286 1.358 . S
C1283 C1287 1.332 . S
C1283 C1289 1.504 . S
C1284 C1285 1.373 . S
C1284 C1288 1.308 . S
C1285 C1284 1.373 . S
C1285 C1286 1.429 . S
C1285 H1312 0.932 . S
C1286 C1283 1.358 . S
C1286 C1285 1.429 . S
C1286 H1313 0.930 . S
C1287 C1283 1.332 . S
C1287 C1288 1.394 . S
C1287 H1314 0.932 . S
C1288 C1284 1.308 . S
C1288 C1287 1.394 . S
C1288 H1315 0.929 . S
C1289 Tb1280 2.764 . S
C1289 C1283 1.504 . S
C1289 O1301 1.239 . S
C1289 O1302 1.263 . S
O1290 Tb1280 2.325 . S
O1290 C1300 1.236 . S
O1291 Tb1281 2.322 . S
O1291 C1300 1.257 . S
O1292 Tb1281 2.349 . S
O1292 C1303 1.261 . S
O1293 Tb1280 2.303 . S
O1293 C1303 1.257 . S
O1294 Tb1281 2.415 . S
O1294 C1310 1.239 . S
O1295 Tb1281 2.399 . S
O1295 C1310 1.263 . S
O1296 Tb1281 2.325 . S
O1296 C1311 1.236 . S
O1297 Tb1280 2.322 . S
O1297 C1311 1.257 . S
O1298 Tb1280 2.349 . S
O1298 C1282 1.261 . S
O1299 Tb1281 2.303 . S
O1299 C1282 1.257 . S
C1300 O1290 1.236 . S
C1300 O1291 1.257 . S
O1301 Tb1280 2.415 . S
O1301 C1289 1.239 . S
O1302 Tb1280 2.399 . S
O1302 C1289 1.263 . S
C1303 O1292 1.261 . S
C1303 O1293 1.257 . S
C1304 C1307 1.358 . S
C1304 C1308 1.332 . S
C1304 C1310 1.504 . S
C1305 C1306 1.373 . S
C1305 C1309 1.308 . S
C1306 C1305 1.373 . S
C1306 C1307 1.429 . S
C1306 H1316 0.932 . S
C1307 C1304 1.358 . S
C1307 C1306 1.429 . S
C1307 H1317 0.930 . S
C1308 C1304 1.332 . S
C1308 C1309 1.394 . S
C1308 H1318 0.932 . S
C1309 C1305 1.308 . S
C1309 C1308 1.394 . S
C1309 H1319 0.929 . S
C1310 Tb1281 2.764 . S
C1310 O1294 1.239 . S
C1310 O1295 1.263 . S
C1310 C1304 1.504 . S
C1311 O1296 1.236 . S
C1311 O1297 1.257 . S
H1312 C1285 0.932 . S
H1313 C1286 0.930 . S
H1314 C1287 0.932 . S
H1315 C1288 0.929 . S
H1316 C1306 0.932 . S
H1317 C1307 0.930 . S
H1318 C1308 0.932 . S
H1319 C1309 0.929 . S
Tb1320 C1329 2.764 . S
Tb1320 O1330 2.325 . S
Tb1320 O1333 2.303 . S
Tb1320 O1337 2.322 . S
Tb1320 O1338 2.349 . S
Tb1320 O1341 2.415 . S
Tb1320 O1342 2.399 . S
Tb1321 O1331 2.322 . S
Tb1321 O1332 2.349 . S
Tb1321 O1334 2.415 . S
Tb1321 O1335 2.399 . S
Tb1321 O1336 2.325 . S
Tb1321 O1339 2.303 . S
Tb1321 C1350 2.764 . S
C1322 O1338 1.261 . S
C1322 O1339 1.257 . S
C1323 C1326 1.358 . S
C1323 C1327 1.332 . S
C1323 C1329 1.504 . S
C1324 C1325 1.373 . S
C1324 C1328 1.308 . S
C1325 C1324 1.373 . S
C1325 C1326 1.429 . S
C1325 H1352 0.932 . S
C1326 C1323 1.358 . S
C1326 C1325 1.429 . S
C1326 H1353 0.930 . S
C1327 C1323 1.332 . S
C1327 C1328 1.394 . S
C1327 H1354 0.932 . S
C1328 C1324 1.308 . S
C1328 C1327 1.394 . S
C1328 H1355 0.929 . S
C1329 Tb1320 2.764 . S
C1329 C1323 1.504 . S
C1329 O1341 1.239 . S
C1329 O1342 1.263 . S
O1330 Tb1320 2.325 . S
O1330 C1340 1.236 . S
O1331 Tb1321 2.322 . S
O1331 C1340 1.257 . S
O1332 Tb1321 2.349 . S
O1332 C1343 1.261 . S
O1333 Tb1320 2.303 . S
O1333 C1343 1.257 . S
O1334 Tb1321 2.415 . S
O1334 C1350 1.239 . S
O1335 Tb1321 2.399 . S
O1335 C1350 1.263 . S
O1336 Tb1321 2.325 . S
O1336 C1351 1.236 . S
O1337 Tb1320 2.322 . S
O1337 C1351 1.257 . S
O1338 Tb1320 2.349 . S
O1338 C1322 1.261 . S
O1339 Tb1321 2.303 . S
O1339 C1322 1.257 . S
C1340 O1330 1.236 . S
C1340 O1331 1.257 . S
O1341 Tb1320 2.415 . S
O1341 C1329 1.239 . S
O1342 Tb1320 2.399 . S
O1342 C1329 1.263 . S
C1343 O1332 1.261 . S
C1343 O1333 1.257 . S
C1344 C1347 1.358 . S
C1344 C1348 1.332 . S
C1344 C1350 1.504 . S
C1345 C1346 1.373 . S
C1345 C1349 1.308 . S
C1346 C1345 1.373 . S
C1346 C1347 1.429 . S
C1346 H1356 0.932 . S
C1347 C1344 1.358 . S
C1347 C1346 1.429 . S
C1347 H1357 0.930 . S
C1348 C1344 1.332 . S
C1348 C1349 1.394 . S
C1348 H1358 0.932 . S
C1349 C1345 1.308 . S
C1349 C1348 1.394 . S
C1349 H1359 0.929 . S
C1350 Tb1321 2.764 . S
C1350 O1334 1.239 . S
C1350 O1335 1.263 . S
C1350 C1344 1.504 . S
C1351 O1336 1.236 . S
C1351 O1337 1.257 . S
H1352 C1325 0.932 . S
H1353 C1326 0.930 . S
H1354 C1327 0.932 . S
H1355 C1328 0.929 . S
H1356 C1346 0.932 . S
H1357 C1347 0.930 . S
H1358 C1348 0.932 . S
H1359 C1349 0.929 . S
Tb1360 C1369 2.764 . S
Tb1360 O1370 2.325 . S
Tb1360 O1373 2.303 . S
Tb1360 O1377 2.322 . S
Tb1360 O1378 2.349 . S
Tb1360 O1381 2.415 . S
Tb1360 O1382 2.399 . S
Tb1361 O1371 2.322 . S
Tb1361 O1372 2.349 . S
Tb1361 O1374 2.415 . S
Tb1361 O1375 2.399 . S
Tb1361 O1376 2.325 . S
Tb1361 O1379 2.303 . S
Tb1361 C1390 2.764 . S
C1362 O1378 1.261 . S
C1362 O1379 1.257 . S
C1363 C1366 1.358 . S
C1363 C1367 1.332 . S
C1363 C1369 1.504 . S
C1364 C1365 1.373 . S
C1364 C1368 1.308 . S
C1365 C1364 1.373 . S
C1365 C1366 1.429 . S
C1365 H1392 0.932 . S
C1366 C1363 1.358 . S
C1366 C1365 1.429 . S
C1366 H1393 0.930 . S
C1367 C1363 1.332 . S
C1367 C1368 1.394 . S
C1367 H1394 0.932 . S
C1368 C1364 1.308 . S
C1368 C1367 1.394 . S
C1368 H1395 0.929 . S
C1369 Tb1360 2.764 . S
C1369 C1363 1.504 . S
C1369 O1381 1.239 . S
C1369 O1382 1.263 . S
O1370 Tb1360 2.325 . S
O1370 C1380 1.236 . S
O1371 Tb1361 2.322 . S
O1371 C1380 1.257 . S
O1372 Tb1361 2.349 . S
O1372 C1383 1.261 . S
O1373 Tb1360 2.303 . S
O1373 C1383 1.257 . S
O1374 Tb1361 2.415 . S
O1374 C1390 1.239 . S
O1375 Tb1361 2.399 . S
O1375 C1390 1.263 . S
O1376 Tb1361 2.325 . S
O1376 C1391 1.236 . S
O1377 Tb1360 2.322 . S
O1377 C1391 1.257 . S
O1378 Tb1360 2.349 . S
O1378 C1362 1.261 . S
O1379 Tb1361 2.303 . S
O1379 C1362 1.257 . S
C1380 O1370 1.236 . S
C1380 O1371 1.257 . S
O1381 Tb1360 2.415 . S
O1381 C1369 1.239 . S
O1382 Tb1360 2.399 . S
O1382 C1369 1.263 . S
C1383 O1372 1.261 . S
C1383 O1373 1.257 . S
C1384 C1387 1.358 . S
C1384 C1388 1.332 . S
C1384 C1390 1.504 . S
C1385 C1386 1.373 . S
C1385 C1389 1.308 . S
C1386 C1385 1.373 . S
C1386 C1387 1.429 . S
C1386 H1396 0.932 . S
C1387 C1384 1.358 . S
C1387 C1386 1.429 . S
C1387 H1397 0.930 . S
C1388 C1384 1.332 . S
C1388 C1389 1.394 . S
C1388 H1398 0.932 . S
C1389 C1385 1.308 . S
C1389 C1388 1.394 . S
C1389 H1399 0.929 . S
C1390 Tb1361 2.764 . S
C1390 O1374 1.239 . S
C1390 O1375 1.263 . S
C1390 C1384 1.504 . S
C1391 O1376 1.236 . S
C1391 O1377 1.257 . S
H1392 C1365 0.932 . S
H1393 C1366 0.930 . S
H1394 C1367 0.932 . S
H1395 C1368 0.929 . S
H1396 C1386 0.932 . S
H1397 C1387 0.930 . S
H1398 C1388 0.932 . S
H1399 C1389 0.929 . S
Tb1400 C1409 2.764 . S
Tb1400 O1410 2.325 . S
Tb1400 O1413 2.303 . S
Tb1400 O1417 2.322 . S
Tb1400 O1418 2.349 . S
Tb1400 O1421 2.415 . S
Tb1400 O1422 2.399 . S
Tb1401 O1411 2.322 . S
Tb1401 O1412 2.349 . S
Tb1401 O1414 2.415 . S
Tb1401 O1415 2.399 . S
Tb1401 O1416 2.325 . S
Tb1401 O1419 2.303 . S
Tb1401 C1430 2.764 . S
C1402 O1418 1.261 . S
C1402 O1419 1.257 . S
C1403 C1406 1.358 . S
C1403 C1407 1.332 . S
C1403 C1409 1.504 . S
C1404 C1405 1.373 . S
C1404 C1408 1.308 . S
C1405 C1404 1.373 . S
C1405 C1406 1.429 . S
C1405 H1432 0.932 . S
C1406 C1403 1.358 . S
C1406 C1405 1.429 . S
C1406 H1433 0.930 . S
C1407 C1403 1.332 . S
C1407 C1408 1.394 . S
C1407 H1434 0.932 . S
C1408 C1404 1.308 . S
C1408 C1407 1.394 . S
C1408 H1435 0.929 . S
C1409 Tb1400 2.764 . S
C1409 C1403 1.504 . S
C1409 O1421 1.239 . S
C1409 O1422 1.263 . S
O1410 Tb1400 2.325 . S
O1410 C1420 1.236 . S
O1411 Tb1401 2.322 . S
O1411 C1420 1.257 . S
O1412 Tb1401 2.349 . S
O1412 C1423 1.261 . S
O1413 Tb1400 2.303 . S
O1413 C1423 1.257 . S
O1414 Tb1401 2.415 . S
O1414 C1430 1.239 . S
O1415 Tb1401 2.399 . S
O1415 C1430 1.263 . S
O1416 Tb1401 2.325 . S
O1416 C1431 1.236 . S
O1417 Tb1400 2.322 . S
O1417 C1431 1.257 . S
O1418 Tb1400 2.349 . S
O1418 C1402 1.261 . S
O1419 Tb1401 2.303 . S
O1419 C1402 1.257 . S
C1420 O1410 1.236 . S
C1420 O1411 1.257 . S
O1421 Tb1400 2.415 . S
O1421 C1409 1.239 . S
O1422 Tb1400 2.399 . S
O1422 C1409 1.263 . S
C1423 O1412 1.261 . S
C1423 O1413 1.257 . S
C1424 C1427 1.358 . S
C1424 C1428 1.332 . S
C1424 C1430 1.504 . S
C1425 C1426 1.373 . S
C1425 C1429 1.308 . S
C1426 C1425 1.373 . S
C1426 C1427 1.429 . S
C1426 H1436 0.932 . S
C1427 C1424 1.358 . S
C1427 C1426 1.429 . S
C1427 H1437 0.930 . S
C1428 C1424 1.332 . S
C1428 C1429 1.394 . S
C1428 H1438 0.932 . S
C1429 C1425 1.308 . S
C1429 C1428 1.394 . S
C1429 H1439 0.929 . S
C1430 Tb1401 2.764 . S
C1430 O1414 1.239 . S
C1430 O1415 1.263 . S
C1430 C1424 1.504 . S
C1431 O1416 1.236 . S
C1431 O1417 1.257 . S
H1432 C1405 0.932 . S
H1433 C1406 0.930 . S
H1434 C1407 0.932 . S
H1435 C1408 0.929 . S
H1436 C1426 0.932 . S
H1437 C1427 0.930 . S
H1438 C1428 0.932 . S
H1439 C1429 0.929 . S
H1440 C1448 0.952 . S
H1441 C1453 0.950 . S
H1442 C1450 0.950 . S
H1443 C1452 0.950 . S
H1444 C1454 0.950 . S
H1445 C1456 0.950 . S
H1446 C1458 0.950 . S
H1447 C1459 0.950 . S
C1448 H1440 0.952 . S
C1448 C1449 1.386 . S
C1448 C1450 1.391 1_554 S
C1449 C1448 1.386 . S
C1449 C1453 1.393 . S
C1450 H1442 0.950 . S
C1450 C1448 1.391 1_556 S
C1450 C1451 1.400 1_556 S
C1451 C1450 1.400 1_554 S
C1451 C1452 1.398 . S
C1451 C1457 1.498 . S
C1452 H1443 0.950 . S
C1452 C1451 1.398 . S
C1452 C1453 1.391 . S
C1453 H1441 0.950 . S
C1453 C1449 1.393 . S
C1453 C1452 1.391 . S
C1454 H1444 0.950 . S
C1454 C1455 1.386 1_554 S
C1454 C1456 1.391 . S
C1455 C1454 1.386 1_556 S
C1455 C1459 1.393 . S
C1456 H1445 0.950 . S
C1456 C1454 1.391 . S
C1456 C1457 1.409 1_565 S
C1457 C1451 1.498 . S
C1457 C1456 1.409 1_545 S
C1457 C1458 1.382 1_554 S
C1458 H1446 0.950 . S
C1458 C1457 1.382 1_556 S
C1458 C1459 1.391 1_545 S
C1459 H1447 0.950 . S
C1459 C1455 1.393 . S
C1459 C1458 1.391 1_565 S
H1460 C1468 0.950 . S
H1461 C1473 0.950 . S
H1462 C1470 0.950 . S
H1463 C1472 0.950 . S
H1464 C1474 0.950 1_556 S
H1465 C1476 0.950 . S
H1466 C1478 0.950 . S
H1467 C1479 0.950 . S
C1468 H1460 0.950 . S
C1468 C1469 1.386 1_554 S
C1468 C1470 1.391 . S
C1469 C1468 1.386 1_556 S
C1469 C1473 1.393 . S
C1470 H1462 0.950 . S
C1470 C1468 1.391 . S
C1470 C1471 1.400 1_455 S
C1471 C1470 1.400 1_655 S
C1471 C1472 1.398 1_554 S
C1471 C1477 1.491 . S
C1472 H1463 0.950 . S
C1472 C1471 1.398 1_556 S
C1472 C1473 1.391 1_655 S
C1473 H1461 0.950 . S
C1473 C1469 1.393 . S
C1473 C1472 1.391 1_455 S
C1474 H1464 0.950 1_554 S
C1474 C1475 1.386 . S
C1474 C1476 1.391 1_554 S
C1475 C1474 1.386 . S
C1475 C1479 1.393 . S
C1476 H1465 0.950 . S
C1476 C1474 1.391 1_556 S
C1476 C1477 1.400 1_556 S
C1477 C1471 1.491 . S
C1477 C1476 1.400 1_554 S
C1477 C1478 1.398 . S
C1478 H1466 0.950 . S
C1478 C1477 1.398 . S
C1478 C1479 1.391 . S
C1479 H1467 0.950 . S
C1479 C1475 1.393 . S
C1479 C1478 1.391 . S
H1480 C1488 0.950 . S
H1481 C1493 0.950 . S
H1482 C1490 0.950 . S
H1483 C1492 0.950 . S
H1484 C1494 0.950 . S
H1485 C1496 0.950 . S
H1486 C1498 0.950 . S
H1487 C1499 0.950 . S
C1488 H1480 0.950 . S
C1488 C1489 1.386 . S
C1488 C1490 1.391 . S
C1489 C1488 1.386 . S
C1489 C1493 1.393 . S
C1490 H1482 0.950 . S
C1490 C1488 1.391 . S
C1490 C1491 1.394 1_556 S
C1491 C1490 1.394 1_554 S
C1491 C1492 1.399 . S
C1491 C1497 1.496 . S
C1492 H1483 0.950 . S
C1492 C1491 1.399 . S
C1492 C1493 1.391 1_554 S
C1493 H1481 0.950 . S
C1493 C1489 1.393 . S
C1493 C1492 1.391 1_556 S
C1494 H1484 0.950 . S
C1494 C1495 1.386 . S
C1494 C1496 1.391 . S
C1495 C1494 1.386 . S
C1495 C1499 1.393 . S
C1496 H1485 0.950 . S
C1496 C1494 1.391 . S
C1496 C1497 1.400 . S
C1497 C1491 1.496 . S
C1497 C1496 1.400 . S
C1497 C1498 1.398 . S
C1498 H1486 0.950 . S
C1498 C1497 1.398 . S
C1498 C1499 1.391 . S
C1499 H1487 0.950 . S
C1499 C1495 1.393 . S
C1499 C1498 1.391 . S
H1500 C1508 0.950 . S
H1501 C1513 0.950 . S
H1502 C1510 0.950 . S
H1503 C1512 0.950 . S
H1504 C1514 0.950 . S
H1505 C1516 0.950 . S
H1506 C1518 0.950 . S
H1507 C1519 0.950 . S
C1508 H1500 0.950 . S
C1508 C1509 1.386 . S
C1508 C1510 1.391 . S
C1509 C1508 1.386 . S
C1509 C1513 1.393 . S
C1510 H1502 0.950 . S
C1510 C1508 1.391 . S
C1510 C1511 1.400 1_655 S
C1511 C1510 1.400 1_455 S
C1511 C1512 1.400 . S
C1511 C1517 1.491 . S
C1512 H1503 0.950 . S
C1512 C1511 1.400 . S
C1512 C1513 1.388 1_455 S
C1513 H1501 0.950 . S
C1513 C1509 1.393 . S
C1513 C1512 1.388 1_655 S
C1514 H1504 0.950 . S
C1514 C1515 1.386 . S
C1514 C1516 1.391 . S
C1515 C1514 1.386 . S
C1515 C1519 1.393 . S
C1516 H1505 0.950 . S
C1516 C1514 1.391 . S
C1516 C1517 1.400 . S
C1517 C1511 1.491 . S
C1517 C1516 1.400 . S
C1517 C1518 1.398 . S
C1518 H1506 0.950 . S
C1518 C1517 1.398 . S
C1518 C1519 1.391 . S
C1519 H1507 0.950 . S
C1519 C1515 1.393 . S
C1519 C1518 1.391 . S
H1520 C1528 0.950 . S
H1521 C1533 0.950 . S
H1522 C1530 0.950 . S
H1523 C1532 0.950 . S
H1524 C1534 0.950 . S
H1525 C1536 0.950 . S
H1526 C1538 0.950 . S
H1527 C1539 0.950 . S
C1528 H1520 0.950 . S
C1528 C1529 1.386 . S
C1528 C1530 1.391 . S
C1529 C1528 1.386 . S
C1529 C1533 1.393 . S
C1530 H1522 0.950 . S
C1530 C1528 1.391 . S
C1530 C1531 1.400 . S
C1531 C1530 1.400 . S
C1531 C1532 1.398 . S
C1531 C1537 1.491 . S
C1532 H1523 0.950 . S
C1532 C1531 1.398 . S
C1532 C1533 1.391 . S
C1533 H1521 0.950 . S
C1533 C1529 1.393 . S
C1533 C1532 1.391 . S
C1534 H1524 0.950 . S
C1534 C1535 1.386 . S
C1534 C1536 1.391 . S
C1535 C1534 1.386 . S
C1535 C1539 1.393 . S
C1536 H1525 0.950 . S
C1536 C1534 1.391 . S
C1536 C1537 1.400 . S
C1537 C1531 1.491 . S
C1537 C1536 1.400 . S
C1537 C1538 1.398 . S
C1538 H1526 0.950 . S
C1538 C1537 1.398 . S
C1538 C1539 1.391 . S
C1539 H1527 0.950 . S
C1539 C1535 1.393 . S
C1539 C1538 1.391 . S
H1540 C1548 0.950 . S
H1541 C1553 0.950 . S
H1542 C1550 0.950 . S
H1543 C1552 0.950 . S
H1544 C1554 0.950 . S
H1545 C1556 0.950 . S
H1546 C1558 0.950 . S
H1547 C1559 0.950 . S
C1548 H1540 0.950 . S
C1548 C1549 1.386 . S
C1548 C1550 1.391 . S
C1549 C1548 1.386 . S
C1549 C1553 1.393 . S
C1550 H1542 0.950 . S
C1550 C1548 1.391 . S
C1550 C1551 1.400 . S
C1551 C1550 1.400 . S
C1551 C1552 1.398 . S
C1551 C1557 1.491 . S
C1552 H1543 0.950 . S
C1552 C1551 1.398 . S
C1552 C1553 1.391 . S
C1553 H1541 0.950 . S
C1553 C1549 1.393 . S
C1553 C1552 1.391 . S
C1554 H1544 0.950 . S
C1554 C1555 1.386 . S
C1554 C1556 1.391 1_545 S
C1555 C1554 1.386 . S
C1555 C1559 1.393 . S
C1556 H1545 0.950 . S
C1556 C1554 1.391 1_565 S
C1556 C1557 1.400 . S
C1557 C1551 1.491 . S
C1557 C1556 1.400 . S
C1557 C1558 1.398 1_565 S
C1558 H1546 0.950 . S
C1558 C1557 1.398 1_545 S
C1558 C1559 1.391 . S
C1559 H1547 0.950 . S
C1559 C1555 1.393 . S
C1559 C1558 1.391 . S
H1560 C1568 0.950 1_556 S
H1561 C1573 0.950 . S
H1562 C1570 0.950 . S
H1563 C1572 0.950 . S
H1564 C1574 0.950 . S
H1565 C1576 0.950 1_554 S
H1566 C1578 0.950 . S
H1567 C1579 0.950 . S
C1568 H1560 0.950 1_554 S
C1568 C1569 1.386 . S
C1568 C1570 1.391 1_554 S
C1569 C1568 1.386 . S
C1569 C1573 1.393 . S
C1570 H1562 0.950 . S
C1570 C1568 1.391 1_556 S
C1570 C1571 1.405 1_545 S
C1571 C1570 1.405 1_565 S
C1571 C1572 1.387 1_556 S
C1571 C1577 1.497 . S
C1572 H1563 0.950 . S
C1572 C1571 1.387 1_554 S
C1572 C1573 1.391 1_565 S
C1573 H1561 0.950 . S
C1573 C1569 1.393 . S
C1573 C1572 1.391 1_545 S
C1574 H1564 0.950 . S
C1574 C1575 1.386 . S
C1574 C1576 1.391 . S
C1575 C1574 1.386 . S
C1575 C1579 1.393 . S
C1576 H1565 0.950 1_556 S
C1576 C1574 1.391 . S
C1576 C1577 1.400 . S
C1577 C1571 1.497 . S
C1577 C1576 1.400 . S
C1577 C1578 1.398 . S
C1578 H1566 0.950 . S
C1578 C1577 1.398 . S
C1578 C1579 1.391 . S
C1579 H1567 0.950 . S
C1579 C1575 1.393 . S
C1579 C1578 1.391 . S
H1580 C1588 0.950 . S
H1581 C1593 0.950 . S
H1582 C1590 0.950 . S
H1583 C1592 0.950 1_554 S
H1584 C1594 0.950 . S
H1585 C1596 0.950 . S
H1586 C1598 0.950 . S
H1587 C1599 0.950 . S
C1588 H1580 0.950 . S
C1588 C1589 1.386 . S
C1588 C1590 1.391 . S
C1589 C1588 1.386 . S
C1589 C1593 1.393 . S
C1590 H1582 0.950 . S
C1590 C1588 1.391 . S
C1590 C1591 1.400 . S
C1591 C1590 1.400 . S
C1591 C1592 1.398 . S
C1591 C1597 1.499 . S
C1592 H1583 0.950 1_556 S
C1592 C1591 1.398 . S
C1592 C1593 1.391 . S
C1593 H1581 0.950 . S
C1593 C1589 1.393 . S
C1593 C1592 1.391 . S
C1594 H1584 0.950 . S
C1594 C1595 1.386 . S
C1594 C1596 1.391 1_655 S
C1595 C1594 1.386 . S
C1595 C1599 1.393 1_554 S
C1596 H1585 0.950 . S
C1596 C1594 1.391 1_455 S
C1596 C1597 1.384 1_554 S
C1597 C1591 1.499 . S
C1597 C1596 1.384 1_556 S
C1597 C1598 1.406 1_455 S
C1598 H1586 0.950 . S
C1598 C1597 1.406 1_655 S
C1598 C1599 1.391 . S
C1599 H1587 0.950 . S
C1599 C1595 1.393 1_556 S
C1599 C1598 1.391 . S
H1600 C1608 0.950 . S
H1601 C1613 0.950 . S
H1602 C1610 0.950 . S
H1603 C1612 0.950 . S
H1604 C1614 0.950 . S
H1605 C1616 0.950 . S
H1606 C1618 0.950 . S
H1607 C1619 0.950 . S
C1608 H1600 0.950 . S
C1608 C1609 1.386 . S
C1608 C1610 1.391 . S
C1609 C1608 1.386 . S
C1609 C1613 1.393 . S
C1610 H1602 0.950 . S
C1610 C1608 1.391 . S
C1610 C1611 1.398 1_554 S
C1611 C1610 1.398 1_556 S
C1611 C1612 1.396 1_556 S
C1611 C1617 1.495 . S
C1612 H1603 0.950 . S
C1612 C1611 1.396 1_554 S
C1612 C1613 1.391 . S
C1613 H1601 0.950 . S
C1613 C1609 1.393 . S
C1613 C1612 1.391 . S
C1614 H1604 0.950 . S
C1614 C1615 1.386 . S
C1614 C1616 1.391 . S
C1615 C1614 1.386 . S
C1615 C1619 1.393 . S
C1616 H1605 0.950 . S
C1616 C1614 1.391 . S
C1616 C1617 1.400 . S
C1617 C1611 1.495 . S
C1617 C1616 1.400 . S
C1617 C1618 1.398 . S
C1618 H1606 0.950 . S
C1618 C1617 1.398 . S
C1618 C1619 1.391 . S
C1619 H1607 0.950 . S
C1619 C1615 1.393 . S
C1619 C1618 1.391 . S
H1620 C1628 0.950 . S
H1621 C1633 0.950 . S
H1622 C1630 0.950 . S
H1623 C1632 0.950 . S
H1624 C1634 0.950 . S
H1625 C1636 0.950 . S
H1626 C1638 0.950 . S
H1627 C1639 0.950 . S
C1628 H1620 0.950 . S
C1628 C1629 1.386 . S
C1628 C1630 1.391 . S
C1629 C1628 1.386 . S
C1629 C1633 1.393 . S
C1630 H1622 0.950 . S
C1630 C1628 1.391 . S
C1630 C1631 1.400 1_455 S
C1631 C1630 1.400 1_655 S
C1631 C1632 1.398 . S
C1631 C1637 1.491 . S
C1632 H1623 0.950 . S
C1632 C1631 1.398 . S
C1632 C1633 1.391 1_655 S
C1633 H1621 0.950 . S
C1633 C1629 1.393 . S
C1633 C1632 1.391 1_455 S
C1634 H1624 0.950 . S
C1634 C1635 1.386 . S
C1634 C1636 1.391 . S
C1635 C1634 1.386 . S
C1635 C1639 1.393 . S
C1636 H1625 0.950 . S
C1636 C1634 1.391 . S
C1636 C1637 1.400 . S
C1637 C1631 1.491 . S
C1637 C1636 1.400 . S
C1637 C1638 1.398 . S
C1638 H1626 0.950 . S
C1638 C1637 1.398 . S
C1638 C1639 1.391 . S
C1639 H1627 0.950 . S
C1639 C1635 1.393 . S
C1639 C1638 1.391 . S
H1640 C1648 0.950 . S
H1641 C1653 0.950 . S
H1642 C1650 0.950 . S
H1643 C1652 0.950 . S
H1644 C1654 0.950 . S
H1645 C1656 0.950 . S
H1646 C1658 0.950 . S
H1647 C1659 0.950 . S
C1648 H1640 0.950 . S
C1648 C1649 1.386 . S
C1648 C1650 1.391 . S
C1649 C1648 1.386 . S
C1649 C1653 1.393 . S
C1650 H1642 0.950 . S
C1650 C1648 1.391 . S
C1650 C1651 1.400 . S
C1651 C1650 1.400 . S
C1651 C1652 1.398 . S
C1651 C1657 1.491 . S
C1652 H1643 0.950 . S
C1652 C1651 1.398 . S
C1652 C1653 1.391 . S
C1653 H1641 0.950 . S
C1653 C1649 1.393 . S
C1653 C1652 1.391 . S
C1654 H1644 0.950 . S
C1654 C1655 1.386 . S
C1654 C1656 1.391 . S
C1655 C1654 1.386 . S
C1655 C1659 1.393 . S
C1656 H1645 0.950 . S
C1656 C1654 1.391 . S
C1656 C1657 1.400 . S
C1657 C1651 1.491 . S
C1657 C1656 1.400 . S
C1657 C1658 1.398 . S
C1658 H1646 0.950 . S
C1658 C1657 1.398 . S
C1658 C1659 1.391 . S
C1659 H1647 0.950 . S
C1659 C1655 1.393 . S
C1659 C1658 1.391 . S
H1660 C1668 0.950 . S
H1661 C1673 0.950 . S
H1662 C1670 0.950 . S
H1663 C1672 0.950 . S
H1664 C1674 0.950 . S
H1665 C1676 0.911 1_545 S
H1666 C1678 0.950 1_545 S
H1667 C1679 0.950 . S
C1668 H1660 0.950 . S
C1668 C1669 1.386 . S
C1668 C1670 1.391 . S
C1669 C1668 1.386 . S
C1669 C1673 1.393 . S
C1670 H1662 0.950 . S
C1670 C1668 1.391 . S
C1670 C1671 1.400 . S
C1671 C1670 1.400 . S
C1671 C1672 1.398 . S
C1671 C1677 1.491 . S
C1672 H1663 0.950 . S
C1672 C1671 1.398 . S
C1672 C1673 1.391 . S
C1673 H1661 0.950 . S
C1673 C1669 1.393 . S
C1673 C1672 1.391 . S
C1674 H1664 0.950 . S
C1674 C1675 1.386 . S
C1674 C1676 1.425 . S
C1675 C1674 1.386 . S
C1675 C1679 1.393 . S
C1676 H1665 0.911 1_565 S
C1676 C1674 1.425 . S
C1676 C1677 1.407 1_565 S
C1677 C1671 1.491 . S
C1677 C1676 1.407 1_545 S
C1677 C1678 1.398 1_545 S
C1678 H1666 0.950 1_565 S
C1678 C1677 1.398 1_565 S
C1678 C1679 1.391 . S
C1679 H1667 0.950 . S
C1679 C1675 1.393 . S
C1679 C1678 1.391 . S
H1680 C1688 0.950 . S
H1681 C1693 0.950 . S
H1682 C1690 0.950 . S
H1683 C1692 0.950 . S
H1684 C1694 0.950 . S
H1685 C1696 0.950 . S
H1686 C1698 0.950 . S
H1687 C1699 0.950 . S
C1688 H1680 0.950 . S
C1688 C1689 1.386 . S
C1688 C1690 1.391 . S
C1689 C1688 1.386 . S
C1689 C1693 1.393 . S
C1690 H1682 0.950 . S
C1690 C1688 1.391 . S
C1690 C1691 1.400 . S
C1691 C1690 1.400 . S
C1691 C1692 1.398 . S
C1691 C1697 1.491 . S
C1692 H1683 0.950 . S
C1692 C1691 1.398 . S
C1692 C1693 1.391 . S
C1693 H1681 0.950 . S
C1693 C1689 1.393 . S
C1693 C1692 1.391 . S
C1694 H1684 0.950 . S
C1694 C1695 1.386 . S
C1694 C1696 1.391 . S
C1695 C1694 1.386 . S
C1695 C1699 1.393 . S
C1696 H1685 0.950 . S
C1696 C1694 1.391 . S
C1696 C1697 1.400 . S
C1697 C1691 1.491 . S
C1697 C1696 1.400 . S
C1697 C1698 1.398 . S
C1698 H1686 0.950 . S
C1698 C1697 1.398 . S
C1698 C1699 1.391 . S
C1699 H1687 0.950 . S
C1699 C1695 1.393 . S
C1699 C1698 1.391 . S
H1700 C1708 0.950 . S
H1701 C1713 0.950 . S
H1702 C1710 0.950 . S
H1703 C1712 0.950 . S
H1704 C1714 0.950 . S
H1705 C1716 0.950 . S
H1706 C1718 0.950 . S
H1707 C1719 0.950 . S
C1708 H1700 0.950 . S
C1708 C1709 1.386 . S
C1708 C1710 1.391 . S
C1709 C1708 1.386 . S
C1709 C1713 1.393 . S
C1710 H1702 0.950 . S
C1710 C1708 1.391 . S
C1710 C1711 1.400 . S
C1711 C1710 1.400 . S
C1711 C1712 1.398 . S
C1711 C1717 1.491 . S
C1712 H1703 0.950 . S
C1712 C1711 1.398 . S
C1712 C1713 1.391 . S
C1713 H1701 0.950 . S
C1713 C1709 1.393 . S
C1713 C1712 1.391 . S
C1714 H1704 0.950 . S
C1714 C1715 1.386 . S
C1714 C1716 1.391 . S
C1715 C1714 1.386 . S
C1715 C1719 1.393 . S
C1716 H1705 0.950 . S
C1716 C1714 1.391 . S
C1716 C1717 1.400 . S
C1717 C1711 1.491 . S
C1717 C1716 1.400 . S
C1717 C1718 1.398 . S
C1718 H1706 0.950 . S
C1718 C1717 1.398 . S
C1718 C1719 1.391 . S
C1719 H1707 0.950 . S
C1719 C1715 1.393 . S
C1719 C1718 1.391 . S
H1720 C1728 0.950 . S
H1721 C1733 0.950 . S
H1722 C1730 0.950 . S
H1723 C1732 0.950 . S
H1724 C1734 0.950 . S
H1725 C1736 0.950 . S
H1726 C1738 0.950 . S
H1727 C1739 0.950 . S
C1728 H1720 0.950 . S
C1728 C1729 1.386 . S
C1728 C1730 1.391 . S
C1729 C1728 1.386 . S
C1729 C1733 1.393 . S
C1730 H1722 0.950 . S
C1730 C1728 1.391 . S
C1730 C1731 1.400 . S
C1731 C1730 1.400 . S
C1731 C1732 1.398 . S
C1731 C1737 1.491 . S
C1732 H1723 0.950 . S
C1732 C1731 1.398 . S
C1732 C1733 1.391 . S
C1733 H1721 0.950 . S
C1733 C1729 1.393 . S
C1733 C1732 1.391 . S
C1734 H1724 0.950 . S
C1734 C1735 1.386 . S
C1734 C1736 1.391 . S
C1735 C1734 1.386 . S
C1735 C1739 1.393 . S
C1736 H1725 0.950 . S
C1736 C1734 1.391 . S
C1736 C1737 1.400 . S
C1737 C1731 1.491 . S
C1737 C1736 1.400 . S
C1737 C1738 1.398 . S
C1738 H1726 0.950 . S
C1738 C1737 1.398 . S
C1738 C1739 1.391 . S
C1739 H1727 0.950 . S
C1739 C1735 1.393 . S
C1739 C1738 1.391 . S
H1740 C1748 0.950 . S
H1741 C1753 0.950 . S
H1742 C1750 0.950 . S
H1743 C1752 0.950 . S
H1744 C1754 0.950 . S
H1745 C1756 0.950 . S
H1746 C1758 0.950 . S
H1747 C1759 0.950 . S
C1748 H1740 0.950 . S
C1748 C1749 1.386 . S
C1748 C1750 1.391 . S
C1749 C1748 1.386 . S
C1749 C1753 1.393 . S
C1750 H1742 0.950 . S
C1750 C1748 1.391 . S
C1750 C1751 1.400 . S
C1751 C1750 1.400 . S
C1751 C1752 1.398 . S
C1751 C1757 1.491 . S
C1752 H1743 0.950 . S
C1752 C1751 1.398 . S
C1752 C1753 1.391 . S
C1753 H1741 0.950 . S
C1753 C1749 1.393 . S
C1753 C1752 1.391 . S
C1754 H1744 0.950 . S
C1754 C1755 1.386 . S
C1754 C1756 1.391 . S
C1755 C1754 1.386 . S
C1755 C1759 1.393 . S
C1756 H1745 0.950 . S
C1756 C1754 1.391 . S
C1756 C1757 1.400 . S
C1757 C1751 1.491 . S
C1757 C1756 1.400 . S
C1757 C1758 1.398 . S
C1758 H1746 0.950 . S
C1758 C1757 1.398 . S
C1758 C1759 1.391 . S
C1759 H1747 0.950 . S
C1759 C1755 1.393 . S
C1759 C1758 1.391 . S
H1760 C1768 0.950 . S
H1761 C1773 0.950 . S
H1762 C1770 0.950 . S
H1763 C1772 0.950 . S
H1764 C1774 0.950 . S
H1765 C1776 0.950 . S
H1766 C1778 0.950 . S
H1767 C1779 0.950 . S
C1768 H1760 0.950 . S
C1768 C1769 1.386 . S
C1768 C1770 1.391 . S
C1769 C1768 1.386 . S
C1769 C1773 1.393 . S
C1770 H1762 0.950 . S
C1770 C1768 1.391 . S
C1770 C1771 1.400 . S
C1771 C1770 1.400 . S
C1771 C1772 1.398 . S
C1771 C1777 1.491 . S
C1772 H1763 0.950 . S
C1772 C1771 1.398 . S
C1772 C1773 1.391 . S
C1773 H1761 0.950 . S
C1773 C1769 1.393 . S
C1773 C1772 1.391 . S
C1774 H1764 0.950 . S
C1774 C1775 1.386 . S
C1774 C1776 1.391 . S
C1775 C1774 1.386 . S
C1775 C1779 1.393 . S
C1776 H1765 0.950 . S
C1776 C1774 1.391 . S
C1776 C1777 1.400 . S
C1777 C1771 1.491 . S
C1777 C1776 1.400 . S
C1777 C1778 1.398 . S
C1778 H1766 0.950 . S
C1778 C1777 1.398 . S
C1778 C1779 1.391 . S
C1779 H1767 0.950 . S
C1779 C1775 1.393 . S
C1779 C1778 1.391 . S
H1780 C1788 0.950 . S
H1781 C1793 0.950 . S
H1782 C1790 0.950 . S
H1783 C1792 0.950 . S
H1784 C1794 0.950 . S
H1785 C1796 0.950 . S
H1786 C1798 0.950 . S
H1787 C1799 0.950 . S
C1788 H1780 0.950 . S
C1788 C1789 1.386 . S
C1788 C1790 1.391 . S
C1789 C1788 1.386 . S
C1789 C1793 1.393 . S
C1790 H1782 0.950 . S
C1790 C1788 1.391 . S
C1790 C1791 1.400 . S
C1791 C1790 1.400 . S
C1791 C1792 1.398 . S
C1791 C1797 1.491 . S
C1792 H1783 0.950 . S
C1792 C1791 1.398 . S
C1792 C1793 1.391 . S
C1793 H1781 0.950 . S
C1793 C1789 1.393 . S
C1793 C1792 1.391 . S
C1794 H1784 0.950 . S
C1794 C1795 1.386 . S
C1794 C1796 1.391 . S
C1795 C1794 1.386 . S
C1795 C1799 1.393 . S
C1796 H1785 0.950 . S
C1796 C1794 1.391 . S
C1796 C1797 1.400 . S
C1797 C1791 1.491 . S
C1797 C1796 1.400 . S
C1797 C1798 1.398 . S
C1798 H1786 0.950 . S
C1798 C1797 1.398 . S
C1798 C1799 1.391 . S
C1799 H1787 0.950 . S
C1799 C1795 1.393 . S
C1799 C1798 1.391 . S
H1800 C1808 0.950 . S
H1801 C1813 0.950 . S
H1802 C1810 0.950 . S
H1803 C1812 0.950 . S
H1804 C1814 0.950 . S
H1805 C1816 0.950 . S
H1806 C1818 0.950 . S
H1807 C1819 0.950 . S
C1808 H1800 0.950 . S
C1808 C1809 1.386 . S
C1808 C1810 1.391 . S
C1809 C1808 1.386 . S
C1809 C1813 1.393 . S
C1810 H1802 0.950 . S
C1810 C1808 1.391 . S
C1810 C1811 1.400 . S
C1811 C1810 1.400 . S
C1811 C1812 1.398 . S
C1811 C1817 1.491 . S
C1812 H1803 0.950 . S
C1812 C1811 1.398 . S
C1812 C1813 1.391 . S
C1813 H1801 0.950 . S
C1813 C1809 1.393 . S
C1813 C1812 1.391 . S
C1814 H1804 0.950 . S
C1814 C1815 1.386 . S
C1814 C1816 1.391 . S
C1815 C1814 1.386 . S
C1815 C1819 1.393 . S
C1816 H1805 0.950 . S
C1816 C1814 1.391 . S
C1816 C1817 1.400 . S
C1817 C1811 1.491 . S
C1817 C1816 1.400 . S
C1817 C1818 1.398 . S
C1818 H1806 0.950 . S
C1818 C1817 1.398 . S
C1818 C1819 1.391 . S
C1819 H1807 0.950 . S
C1819 C1815 1.393 . S
C1819 C1818 1.391 . S
H1820 C1828 0.950 . S
H1821 C1833 0.950 . S
H1822 C1830 0.950 . S
H1823 C1832 0.950 . S
H1824 C1834 0.950 . S
H1825 C1836 0.950 . S
H1826 C1838 0.950 . S
H1827 C1839 0.950 . S
C1828 H1820 0.950 . S
C1828 C1829 1.386 . S
C1828 C1830 1.391 . S
C1829 C1828 1.386 . S
C1829 C1833 1.393 . S
C1830 H1822 0.950 . S
C1830 C1828 1.391 . S
C1830 C1831 1.400 . S
C1831 C1830 1.400 . S
C1831 C1832 1.398 . S
C1831 C1837 1.491 . S
C1832 H1823 0.950 . S
C1832 C1831 1.398 . S
C1832 C1833 1.391 . S
C1833 H1821 0.950 . S
C1833 C1829 1.393 . S
C1833 C1832 1.391 . S
C1834 H1824 0.950 . S
C1834 C1835 1.386 . S
C1834 C1836 1.391 . S
C1835 C1834 1.386 . S
C1835 C1839 1.393 . S
C1836 H1825 0.950 . S
C1836 C1834 1.391 . S
C1836 C1837 1.400 . S
C1837 C1831 1.491 . S
C1837 C1836 1.400 . S
C1837 C1838 1.398 . S
C1838 H1826 0.950 . S
C1838 C1837 1.398 . S
C1838 C1839 1.391 . S
C1839 H1827 0.950 . S
C1839 C1835 1.393 . S
C1839 C1838 1.391 . S
H1840 C1848 0.950 . S
H1841 C1853 0.950 . S
H1842 C1850 0.950 . S
H1843 C1852 0.950 . S
H1844 C1854 0.950 . S
H1845 C1856 0.950 . S
H1846 C1858 0.950 . S
H1847 C1859 0.950 . S
C1848 H1840 0.950 . S
C1848 C1849 1.386 . S
C1848 C1850 1.391 . S
C1849 C1848 1.386 . S
C1849 C1853 1.393 . S
C1850 H1842 0.950 . S
C1850 C1848 1.391 . S
C1850 C1851 1.400 . S
C1851 C1850 1.400 . S
C1851 C1852 1.398 . S
C1851 C1857 1.491 . S
C1852 H1843 0.950 . S
C1852 C1851 1.398 . S
C1852 C1853 1.391 . S
C1853 H1841 0.950 . S
C1853 C1849 1.393 . S
C1853 C1852 1.391 . S
C1854 H1844 0.950 . S
C1854 C1855 1.386 . S
C1854 C1856 1.391 . S
C1855 C1854 1.386 . S
C1855 C1859 1.393 . S
C1856 H1845 0.950 . S
C1856 C1854 1.391 . S
C1856 C1857 1.400 . S
C1857 C1851 1.491 . S
C1857 C1856 1.400 . S
C1857 C1858 1.398 . S
C1858 H1846 0.950 . S
C1858 C1857 1.398 . S
C1858 C1859 1.391 . S
C1859 H1847 0.950 . S
C1859 C1855 1.393 . S
C1859 C1858 1.391 . S
H1860 C1868 0.950 . S
H1861 C1873 0.950 . S
H1862 C1870 0.950 . S
H1863 C1872 0.950 . S
H1864 C1874 0.950 . S
H1865 C1876 0.950 . S
H1866 C1878 0.950 . S
H1867 C1879 0.950 . S
C1868 H1860 0.950 . S
C1868 C1869 1.386 . S
C1868 C1870 1.391 . S
C1869 C1868 1.386 . S
C1869 C1873 1.393 . S
C1870 H1862 0.950 . S
C1870 C1868 1.391 . S
C1870 C1871 1.400 . S
C1871 C1870 1.400 . S
C1871 C1872 1.398 . S
C1871 C1877 1.491 . S
C1872 H1863 0.950 . S
C1872 C1871 1.398 . S
C1872 C1873 1.391 . S
C1873 H1861 0.950 . S
C1873 C1869 1.393 . S
C1873 C1872 1.391 . S
C1874 H1864 0.950 . S
C1874 C1875 1.386 . S
C1874 C1876 1.391 . S
C1875 C1874 1.386 . S
C1875 C1879 1.393 . S
C1876 H1865 0.950 . S
C1876 C1874 1.391 . S
C1876 C1877 1.400 . S
C1877 C1871 1.491 . S
C1877 C1876 1.400 . S
C1877 C1878 1.398 . S
C1878 H1866 0.950 . S
C1878 C1877 1.398 . S
C1878 C1879 1.391 . S
C1879 H1867 0.950 . S
C1879 C1875 1.393 . S
C1879 C1878 1.391 . S
H1880 C1888 0.950 . S
H1881 C1893 0.950 . S
H1882 C1890 0.950 . S
H1883 C1892 0.950 . S
H1884 C1894 0.950 . S
H1885 C1896 0.950 . S
H1886 C1898 0.950 . S
H1887 C1899 0.950 . S
C1888 H1880 0.950 . S
C1888 C1889 1.386 . S
C1888 C1890 1.391 . S
C1889 C1888 1.386 . S
C1889 C1893 1.393 . S
C1890 H1882 0.950 . S
C1890 C1888 1.391 . S
C1890 C1891 1.400 . S
C1891 C1890 1.400 . S
C1891 C1892 1.398 . S
C1891 C1897 1.491 . S
C1892 H1883 0.950 . S
C1892 C1891 1.398 . S
C1892 C1893 1.391 . S
C1893 H1881 0.950 . S
C1893 C1889 1.393 . S
C1893 C1892 1.391 . S
C1894 H1884 0.950 . S
C1894 C1895 1.386 . S
C1894 C1896 1.391 . S
C1895 C1894 1.386 . S
C1895 C1899 1.393 . S
C1896 H1885 0.950 . S
C1896 C1894 1.391 . S
C1896 C1897 1.400 . S
C1897 C1891 1.491 . S
C1897 C1896 1.400 . S
C1897 C1898 1.398 . S
C1898 H1886 0.950 . S
C1898 C1897 1.398 . S
C1898 C1899 1.391 . S
C1899 H1887 0.950 . S
C1899 C1895 1.393 . S
C1899 C1898 1.391 . S
H1900 C1908 0.950 . S
H1901 C1913 0.950 . S
H1902 C1910 0.950 . S
H1903 C1912 0.950 . S
H1904 C1914 0.950 . S
H1905 C1916 0.950 . S
H1906 C1918 0.950 . S
H1907 C1919 0.950 . S
C1908 H1900 0.950 . S
C1908 C1909 1.386 . S
C1908 C1910 1.391 . S
C1909 C1908 1.386 . S
C1909 C1913 1.393 . S
C1910 H1902 0.950 . S
C1910 C1908 1.391 . S
C1910 C1911 1.400 . S
C1911 C1910 1.400 . S
C1911 C1912 1.398 . S
C1911 C1917 1.491 . S
C1912 H1903 0.950 . S
C1912 C1911 1.398 . S
C1912 C1913 1.391 . S
C1913 H1901 0.950 . S
C1913 C1909 1.393 . S
C1913 C1912 1.391 . S
C1914 H1904 0.950 . S
C1914 C1915 1.386 . S
C1914 C1916 1.391 . S
C1915 C1914 1.386 . S
C1915 C1919 1.393 . S
C1916 H1905 0.950 . S
C1916 C1914 1.391 . S
C1916 C1917 1.400 . S
C1917 C1911 1.491 . S
C1917 C1916 1.400 . S
C1917 C1918 1.398 . S
C1918 H1906 0.950 . S
C1918 C1917 1.398 . S
C1918 C1919 1.391 . S
C1919 H1907 0.950 . S
C1919 C1915 1.393 . S
C1919 C1918 1.391 . S
H1920 C1928 0.950 . S
H1921 C1933 0.950 . S
H1922 C1930 0.950 . S
H1923 C1932 0.950 . S
H1924 C1934 0.950 . S
H1925 C1936 0.950 . S
H1926 C1938 0.950 . S
H1927 C1939 0.950 . S
C1928 H1920 0.950 . S
C1928 C1929 1.386 . S
C1928 C1930 1.391 . S
C1929 C1928 1.386 . S
C1929 C1933 1.393 . S
C1930 H1922 0.950 . S
C1930 C1928 1.391 . S
C1930 C1931 1.400 . S
C1931 C1930 1.400 . S
C1931 C1932 1.398 . S
C1931 C1937 1.491 . S
C1932 H1923 0.950 . S
C1932 C1931 1.398 . S
C1932 C1933 1.391 . S
C1933 H1921 0.950 . S
C1933 C1929 1.393 . S
C1933 C1932 1.391 . S
C1934 H1924 0.950 . S
C1934 C1935 1.386 . S
C1934 C1936 1.391 . S
C1935 C1934 1.386 . S
C1935 C1939 1.393 . S
C1936 H1925 0.950 . S
C1936 C1934 1.391 . S
C1936 C1937 1.400 . S
C1937 C1931 1.491 . S
C1937 C1936 1.400 . S
C1937 C1938 1.398 . S
C1938 H1926 0.950 . S
C1938 C1937 1.398 . S
C1938 C1939 1.391 . S
C1939 H1927 0.950 . S
C1939 C1935 1.393 . S
C1939 C1938 1.391 . S
H1940 C1948 0.950 . S
H1941 C1953 0.950 . S
H1942 C1950 0.950 . S
H1943 C1952 0.950 . S
H1944 C1954 0.950 . S
H1945 C1956 0.950 . S
H1946 C1958 0.950 . S
H1947 C1959 0.950 . S
C1948 H1940 0.950 . S
C1948 C1949 1.386 . S
C1948 C1950 1.391 . S
C1949 C1948 1.386 . S
C1949 C1953 1.393 . S
C1950 H1942 0.950 . S
C1950 C1948 1.391 . S
C1950 C1951 1.400 . S
C1951 C1950 1.400 . S
C1951 C1952 1.398 . S
C1951 C1957 1.491 . S
C1952 H1943 0.950 . S
C1952 C1951 1.398 . S
C1952 C1953 1.391 . S
C1953 H1941 0.950 . S
C1953 C1949 1.393 . S
C1953 C1952 1.391 . S
C1954 H1944 0.950 . S
C1954 C1955 1.386 . S
C1954 C1956 1.391 . S
C1955 C1954 1.386 . S
C1955 C1959 1.393 . S
C1956 H1945 0.950 . S
C1956 C1954 1.391 . S
C1956 C1957 1.400 . S
C1957 C1951 1.491 . S
C1957 C1956 1.400 . S
C1957 C1958 1.398 . S
C1958 H1946 0.950 . S
C1958 C1957 1.398 . S
C1958 C1959 1.391 . S
C1959 H1947 0.950 . S
C1959 C1955 1.393 . S
C1959 C1958 1.391 . S
H1960 C1968 0.950 . S
H1961 C1973 0.950 . S
H1962 C1970 0.950 . S
H1963 C1972 0.950 . S
H1964 C1974 0.950 . S
H1965 C1976 0.950 . S
H1966 C1978 0.950 . S
H1967 C1979 0.950 . S
C1968 H1960 0.950 . S
C1968 C1969 1.386 . S
C1968 C1970 1.391 . S
C1969 C1968 1.386 . S
C1969 C1973 1.393 . S
C1970 H1962 0.950 . S
C1970 C1968 1.391 . S
C1970 C1971 1.400 . S
C1971 C1970 1.400 . S
C1971 C1972 1.398 . S
C1971 C1977 1.491 . S
C1972 H1963 0.950 . S
C1972 C1971 1.398 . S
C1972 C1973 1.391 . S
C1973 H1961 0.950 . S
C1973 C1969 1.393 . S
C1973 C1972 1.391 . S
C1974 H1964 0.950 . S
C1974 C1975 1.386 . S
C1974 C1976 1.391 . S
C1975 C1974 1.386 . S
C1975 C1979 1.393 . S
C1976 H1965 0.950 . S
C1976 C1974 1.391 . S
C1976 C1977 1.400 . S
C1977 C1971 1.491 . S
C1977 C1976 1.400 . S
C1977 C1978 1.398 . S
C1978 H1966 0.950 . S
C1978 C1977 1.398 . S
C1978 C1979 1.391 . S
C1979 H1967 0.950 . S
C1979 C1975 1.393 . S
C1979 C1978 1.391 . S
H1980 C1988 0.950 . S
H1981 C1993 0.950 . S
H1982 C1990 0.950 . S
H1983 C1992 0.950 . S
H1984 C1994 0.950 . S
H1985 C1996 0.950 . S
H1986 C1998 0.950 . S
H1987 C1999 0.950 . S
C1988 H1980 0.950 . S
C1988 C1989 1.386 . S
C1988 C1990 1.391 . S
C1989 C1988 1.386 . S
C1989 C1993 1.393 . S
C1990 H1982 0.950 . S
C1990 C1988 1.391 . S
C1990 C1991 1.400 . S
C1991 C1990 1.400 . S
C1991 C1992 1.398 . S
C1991 C1997 1.491 . S
C1992 H1983 0.950 . S
C1992 C1991 1.398 . S
C1992 C1993 1.391 . S
C1993 H1981 0.950 . S
C1993 C1989 1.393 . S
C1993 C1992 1.391 . S
C1994 H1984 0.950 . S
C1994 C1995 1.386 . S
C1994 C1996 1.391 . S
C1995 C1994 1.386 . S
C1995 C1999 1.393 . S
C1996 H1985 0.950 . S
C1996 C1994 1.391 . S
C1996 C1997 1.400 . S
C1997 C1991 1.491 . S
C1997 C1996 1.400 . S
C1997 C1998 1.398 . S
C1998 H1986 0.950 . S
C1998 C1997 1.398 . S
C1998 C1999 1.391 . S
C1999 H1987 0.950 . S
C1999 C1995 1.393 . S
C1999 C1998 1.391 . S
H2000 C2008 0.950 . S
H2001 C2013 0.950 . S
H2002 C2010 0.950 . S
H2003 C2012 0.950 . S
H2004 C2014 0.950 . S
H2005 C2016 0.950 . S
H2006 C2018 0.950 . S
H2007 C2019 0.950 . S
C2008 H2000 0.950 . S
C2008 C2009 1.386 . S
C2008 C2010 1.391 . S
C2009 C2008 1.386 . S
C2009 C2013 1.393 . S
C2010 H2002 0.950 . S
C2010 C2008 1.391 . S
C2010 C2011 1.400 . S
C2011 C2010 1.400 . S
C2011 C2012 1.398 . S
C2011 C2017 1.491 . S
C2012 H2003 0.950 . S
C2012 C2011 1.398 . S
C2012 C2013 1.391 . S
C2013 H2001 0.950 . S
C2013 C2009 1.393 . S
C2013 C2012 1.391 . S
C2014 H2004 0.950 . S
C2014 C2015 1.386 . S
C2014 C2016 1.391 . S
C2015 C2014 1.386 . S
C2015 C2019 1.393 . S
C2016 H2005 0.950 . S
C2016 C2014 1.391 . S
C2016 C2017 1.400 . S
C2017 C2011 1.491 . S
C2017 C2016 1.400 . S
C2017 C2018 1.398 . S
C2018 H2006 0.950 . S
C2018 C2017 1.398 . S
C2018 C2019 1.391 . S
C2019 H2007 0.950 . S
C2019 C2015 1.393 . S
C2019 C2018 1.391 . S
H2020 C2028 0.950 . S
H2021 C2033 0.950 . S
H2022 C2030 0.950 . S
H2023 C2032 0.950 . S
H2024 C2034 0.950 . S
H2025 C2036 0.950 . S
H2026 C2038 0.950 . S
H2027 C2039 0.950 . S
C2028 H2020 0.950 . S
C2028 C2029 1.386 . S
C2028 C2030 1.391 . S
C2029 C2028 1.386 . S
C2029 C2033 1.393 . S
C2030 H2022 0.950 . S
C2030 C2028 1.391 . S
C2030 C2031 1.400 . S
C2031 C2030 1.400 . S
C2031 C2032 1.398 . S
C2031 C2037 1.491 . S
C2032 H2023 0.950 . S
C2032 C2031 1.398 . S
C2032 C2033 1.391 . S
C2033 H2021 0.950 . S
C2033 C2029 1.393 . S
C2033 C2032 1.391 . S
C2034 H2024 0.950 . S
C2034 C2035 1.386 . S
C2034 C2036 1.391 . S
C2035 C2034 1.386 . S
C2035 C2039 1.393 . S
C2036 H2025 0.950 . S
C2036 C2034 1.391 . S
C2036 C2037 1.400 . S
C2037 C2031 1.491 . S
C2037 C2036 1.400 . S
C2037 C2038 1.398 . S
C2038 H2026 0.950 . S
C2038 C2037 1.398 . S
C2038 C2039 1.391 . S
C2039 H2027 0.950 . S
C2039 C2035 1.393 . S
C2039 C2038 1.391 . S
H2040 C2048 0.950 . S
H2041 C2053 0.950 . S
H2042 C2050 0.950 . S
H2043 C2052 0.950 . S
H2044 C2054 0.950 . S
H2045 C2056 0.950 . S
H2046 C2058 0.950 . S
H2047 C2059 0.950 . S
C2048 H2040 0.950 . S
C2048 C2049 1.386 . S
C2048 C2050 1.391 . S
C2049 C2048 1.386 . S
C2049 C2053 1.393 . S
C2050 H2042 0.950 . S
C2050 C2048 1.391 . S
C2050 C2051 1.400 . S
C2051 C2050 1.400 . S
C2051 C2052 1.398 . S
C2051 C2057 1.491 . S
C2052 H2043 0.950 . S
C2052 C2051 1.398 . S
C2052 C2053 1.391 . S
C2053 H2041 0.950 . S
C2053 C2049 1.393 . S
C2053 C2052 1.391 . S
C2054 H2044 0.950 . S
C2054 C2055 1.386 . S
C2054 C2056 1.391 . S
C2055 C2054 1.386 . S
C2055 C2059 1.393 . S
C2056 H2045 0.950 . S
C2056 C2054 1.391 . S
C2056 C2057 1.400 . S
C2057 C2051 1.491 . S
C2057 C2056 1.400 . S
C2057 C2058 1.398 . S
C2058 H2046 0.950 . S
C2058 C2057 1.398 . S
C2058 C2059 1.391 . S
C2059 H2047 0.950 . S
C2059 C2055 1.393 . S
C2059 C2058 1.391 . S
H2060 C2068 0.950 . S
H2061 C2073 0.950 . S
H2062 C2070 0.950 . S
H2063 C2072 0.950 . S
H2064 C2074 0.950 . S
H2065 C2076 0.950 . S
H2066 C2078 0.950 . S
H2067 C2079 0.950 . S
C2068 H2060 0.950 . S
C2068 C2069 1.386 . S
C2068 C2070 1.391 . S
C2069 C2068 1.386 . S
C2069 C2073 1.393 . S
C2070 H2062 0.950 . S
C2070 C2068 1.391 . S
C2070 C2071 1.400 . S
C2071 C2070 1.400 . S
C2071 C2072 1.398 . S
C2071 C2077 1.491 . S
C2072 H2063 0.950 . S
C2072 C2071 1.398 . S
C2072 C2073 1.391 . S
C2073 H2061 0.950 . S
C2073 C2069 1.393 . S
C2073 C2072 1.391 . S
C2074 H2064 0.950 . S
C2074 C2075 1.386 . S
C2074 C2076 1.391 . S
C2075 C2074 1.386 . S
C2075 C2079 1.393 . S
C2076 H2065 0.950 . S
C2076 C2074 1.391 . S
C2076 C2077 1.400 . S
C2077 C2071 1.491 . S
C2077 C2076 1.400 . S
C2077 C2078 1.398 . S
C2078 H2066 0.950 . S
C2078 C2077 1.398 . S
C2078 C2079 1.391 . S
C2079 H2067 0.950 . S
C2079 C2075 1.393 . S
C2079 C2078 1.391 . S
H2080 C2088 0.950 . S
H2081 C2093 0.950 . S
H2082 C2090 0.950 . S
H2083 C2092 0.950 . S
H2084 C2094 0.950 . S
H2085 C2096 0.950 . S
H2086 C2098 0.950 . S
H2087 C2099 0.950 . S
C2088 H2080 0.950 . S
C2088 C2089 1.386 . S
C2088 C2090 1.391 . S
C2089 C2088 1.386 . S
C2089 C2093 1.393 . S
C2090 H2082 0.950 . S
C2090 C2088 1.391 . S
C2090 C2091 1.400 . S
C2091 C2090 1.400 . S
C2091 C2092 1.398 . S
C2091 C2097 1.491 . S
C2092 H2083 0.950 . S
C2092 C2091 1.398 . S
C2092 C2093 1.391 . S
C2093 H2081 0.950 . S
C2093 C2089 1.393 . S
C2093 C2092 1.391 . S
C2094 H2084 0.950 . S
C2094 C2095 1.386 . S
C2094 C2096 1.391 . S
C2095 C2094 1.386 . S
C2095 C2099 1.393 . S
C2096 H2085 0.950 . S
C2096 C2094 1.391 . S
C2096 C2097 1.400 . S
C2097 C2091 1.491 . S
C2097 C2096 1.400 . S
C2097 C2098 1.398 . S
C2098 H2086 0.950 . S
C2098 C2097 1.398 . S
C2098 C2099 1.391 . S
C2099 H2087 0.950 . S
C2099 C2095 1.393 . S
C2099 C2098 1.391 . S
H2100 C2108 0.950 . S
H2101 C2113 0.950 . S
H2102 C2110 0.950 . S
H2103 C2112 0.950 . S
H2104 C2114 0.950 . S
H2105 C2116 0.950 . S
H2106 C2118 0.950 . S
H2107 C2119 0.950 . S
C2108 H2100 0.950 . S
C2108 C2109 1.386 . S
C2108 C2110 1.391 . S
C2109 C2108 1.386 . S
C2109 C2113 1.393 . S
C2110 H2102 0.950 . S
C2110 C2108 1.391 . S
C2110 C2111 1.400 . S
C2111 C2110 1.400 . S
C2111 C2112 1.398 . S
C2111 C2117 1.491 . S
C2112 H2103 0.950 . S
C2112 C2111 1.398 . S
C2112 C2113 1.391 . S
C2113 H2101 0.950 . S
C2113 C2109 1.393 . S
C2113 C2112 1.391 . S
C2114 H2104 0.950 . S
C2114 C2115 1.386 . S
C2114 C2116 1.391 . S
C2115 C2114 1.386 . S
C2115 C2119 1.393 . S
C2116 H2105 0.950 . S
C2116 C2114 1.391 . S
C2116 C2117 1.400 . S
C2117 C2111 1.491 . S
C2117 C2116 1.400 . S
C2117 C2118 1.398 . S
C2118 H2106 0.950 . S
C2118 C2117 1.398 . S
C2118 C2119 1.391 . S
C2119 H2107 0.950 . S
C2119 C2115 1.393 . S
C2119 C2118 1.391 . S
H2120 C2128 0.950 . S
H2121 C2133 0.950 . S
H2122 C2130 0.950 . S
H2123 C2132 0.950 . S
H2124 C2134 0.950 . S
H2125 C2136 0.950 . S
H2126 C2138 0.950 . S
H2127 C2139 0.950 . S
C2128 H2120 0.950 . S
C2128 C2129 1.386 . S
C2128 C2130 1.391 . S
C2129 C2128 1.386 . S
C2129 C2133 1.393 . S
C2130 H2122 0.950 . S
C2130 C2128 1.391 . S
C2130 C2131 1.400 . S
C2131 C2130 1.400 . S
C2131 C2132 1.398 . S
C2131 C2137 1.491 . S
C2132 H2123 0.950 . S
C2132 C2131 1.398 . S
C2132 C2133 1.391 . S
C2133 H2121 0.950 . S
C2133 C2129 1.393 . S
C2133 C2132 1.391 . S
C2134 H2124 0.950 . S
C2134 C2135 1.386 . S
C2134 C2136 1.391 . S
C2135 C2134 1.386 . S
C2135 C2139 1.393 . S
C2136 H2125 0.950 . S
C2136 C2134 1.391 . S
C2136 C2137 1.400 . S
C2137 C2131 1.491 . S
C2137 C2136 1.400 . S
C2137 C2138 1.398 . S
C2138 H2126 0.950 . S
C2138 C2137 1.398 . S
C2138 C2139 1.391 . S
C2139 H2127 0.950 . S
C2139 C2135 1.393 . S
C2139 C2138 1.391 . S
H2140 C2148 0.950 . S
H2141 C2153 0.950 . S
H2142 C2150 0.950 . S
H2143 C2152 0.950 . S
H2144 C2154 0.950 . S
H2145 C2156 0.950 . S
H2146 C2158 0.950 . S
H2147 C2159 0.950 . S
C2148 H2140 0.950 . S
C2148 C2149 1.386 . S
C2148 C2150 1.391 . S
C2149 C2148 1.386 . S
C2149 C2153 1.393 . S
C2150 H2142 0.950 . S
C2150 C2148 1.391 . S
C2150 C2151 1.400 . S
C2151 C2150 1.400 . S
C2151 C2152 1.398 . S
C2151 C2157 1.491 . S
C2152 H2143 0.950 . S
C2152 C2151 1.398 . S
C2152 C2153 1.391 . S
C2153 H2141 0.950 . S
C2153 C2149 1.393 . S
C2153 C2152 1.391 . S
C2154 H2144 0.950 . S
C2154 C2155 1.386 . S
C2154 C2156 1.391 . S
C2155 C2154 1.386 . S
C2155 C2159 1.393 . S
C2156 H2145 0.950 . S
C2156 C2154 1.391 . S
C2156 C2157 1.400 . S
C2157 C2151 1.491 . S
C2157 C2156 1.400 . S
C2157 C2158 1.398 . S
C2158 H2146 0.950 . S
C2158 C2157 1.398 . S
C2158 C2159 1.391 . S
C2159 H2147 0.950 . S
C2159 C2155 1.393 . S
C2159 C2158 1.391 . S
H2160 C2168 0.950 . S
H2161 C2173 0.950 . S
H2162 C2170 0.950 . S
H2163 C2172 0.950 . S
H2164 C2174 0.950 . S
H2165 C2176 0.950 . S
H2166 C2178 0.950 . S
H2167 C2179 0.950 . S
C2168 H2160 0.950 . S
C2168 C2169 1.386 . S
C2168 C2170 1.391 . S
C2169 C2168 1.386 . S
C2169 C2173 1.393 . S
C2170 H2162 0.950 . S
C2170 C2168 1.391 . S
C2170 C2171 1.400 . S
C2171 C2170 1.400 . S
C2171 C2172 1.398 . S
C2171 C2177 1.491 . S
C2172 H2163 0.950 . S
C2172 C2171 1.398 . S
C2172 C2173 1.391 . S
C2173 H2161 0.950 . S
C2173 C2169 1.393 . S
C2173 C2172 1.391 . S
C2174 H2164 0.950 . S
C2174 C2175 1.386 . S
C2174 C2176 1.391 . S
C2175 C2174 1.386 . S
C2175 C2179 1.393 . S
C2176 H2165 0.950 . S
C2176 C2174 1.391 . S
C2176 C2177 1.400 . S
C2177 C2171 1.491 . S
C2177 C2176 1.400 . S
C2177 C2178 1.398 . S
C2178 H2166 0.950 . S
C2178 C2177 1.398 . S
C2178 C2179 1.391 . S
C2179 H2167 0.950 . S
C2179 C2175 1.393 . S
C2179 C2178 1.391 . S
H2180 C2188 0.950 . S
H2181 C2193 0.950 . S
H2182 C2190 0.950 . S
H2183 C2192 0.950 . S
H2184 C2194 0.950 . S
H2185 C2196 0.950 . S
H2186 C2198 0.950 . S
H2187 C2199 0.950 . S
C2188 H2180 0.950 . S
C2188 C2189 1.386 . S
C2188 C2190 1.391 . S
C2189 C2188 1.386 . S
C2189 C2193 1.393 . S
C2190 H2182 0.950 . S
C2190 C2188 1.391 . S
C2190 C2191 1.400 . S
C2191 C2190 1.400 . S
C2191 C2192 1.398 . S
C2191 C2197 1.491 . S
C2192 H2183 0.950 . S
C2192 C2191 1.398 . S
C2192 C2193 1.391 . S
C2193 H2181 0.950 . S
C2193 C2189 1.393 . S
C2193 C2192 1.391 . S
C2194 H2184 0.950 . S
C2194 C2195 1.386 . S
C2194 C2196 1.391 . S
C2195 C2194 1.386 . S
C2195 C2199 1.393 . S
C2196 H2185 0.950 . S
C2196 C2194 1.391 . S
C2196 C2197 1.400 . S
C2197 C2191 1.491 . S
C2197 C2196 1.400 . S
C2197 C2198 1.398 . S
C2198 H2186 0.950 . S
C2198 C2197 1.398 . S
C2198 C2199 1.391 . S
C2199 H2187 0.950 . S
C2199 C2195 1.393 . S
C2199 C2198 1.391 . S
H2200 C2208 0.950 . S
H2201 C2213 0.950 . S
H2202 C2210 0.950 . S
H2203 C2212 0.950 . S
H2204 C2214 0.950 . S
H2205 C2216 0.950 . S
H2206 C2218 0.950 . S
H2207 C2219 0.950 . S
C2208 H2200 0.950 . S
C2208 C2209 1.386 . S
C2208 C2210 1.391 . S
C2209 C2208 1.386 . S
C2209 C2213 1.393 . S
C2210 H2202 0.950 . S
C2210 C2208 1.391 . S
C2210 C2211 1.400 . S
C2211 C2210 1.400 . S
C2211 C2212 1.398 . S
C2211 C2217 1.491 . S
C2212 H2203 0.950 . S
C2212 C2211 1.398 . S
C2212 C2213 1.391 . S
C2213 H2201 0.950 . S
C2213 C2209 1.393 . S
C2213 C2212 1.391 . S
C2214 H2204 0.950 . S
C2214 C2215 1.386 . S
C2214 C2216 1.391 . S
C2215 C2214 1.386 . S
C2215 C2219 1.393 . S
C2216 H2205 0.950 . S
C2216 C2214 1.391 . S
C2216 C2217 1.400 . S
C2217 C2211 1.491 . S
C2217 C2216 1.400 . S
C2217 C2218 1.398 . S
C2218 H2206 0.950 . S
C2218 C2217 1.398 . S
C2218 C2219 1.391 . S
C2219 H2207 0.950 . S
C2219 C2215 1.393 . S
C2219 C2218 1.391 . S
H2220 C2228 0.950 . S
H2221 C2233 0.950 . S
H2222 C2230 0.950 . S
H2223 C2232 0.950 . S
H2224 C2234 0.950 . S
H2225 C2236 0.950 . S
H2226 C2238 0.950 . S
H2227 C2239 0.950 . S
C2228 H2220 0.950 . S
C2228 C2229 1.386 . S
C2228 C2230 1.391 . S
C2229 C2228 1.386 . S
C2229 C2233 1.393 . S
C2230 H2222 0.950 . S
C2230 C2228 1.391 . S
C2230 C2231 1.400 . S
C2231 C2230 1.400 . S
C2231 C2232 1.398 . S
C2231 C2237 1.491 . S
C2232 H2223 0.950 . S
C2232 C2231 1.398 . S
C2232 C2233 1.391 . S
C2233 H2221 0.950 . S
C2233 C2229 1.393 . S
C2233 C2232 1.391 . S
C2234 H2224 0.950 . S
C2234 C2235 1.386 . S
C2234 C2236 1.391 . S
C2235 C2234 1.386 . S
C2235 C2239 1.393 . S
C2236 H2225 0.950 . S
C2236 C2234 1.391 . S
C2236 C2237 1.400 . S
C2237 C2231 1.491 . S
C2237 C2236 1.400 . S
C2237 C2238 1.398 . S
C2238 H2226 0.950 . S
C2238 C2237 1.398 . S
C2238 C2239 1.391 . S
C2239 H2227 0.950 . S
C2239 C2235 1.393 . S
C2239 C2238 1.391 . S
H2240 C2248 0.950 . S
H2241 C2253 0.950 . S
H2242 C2250 0.950 . S
H2243 C2252 0.950 . S
H2244 C2254 0.950 . S
H2245 C2256 0.950 . S
H2246 C2258 0.950 . S
H2247 C2259 0.950 . S
C2248 H2240 0.950 . S
C2248 C2249 1.386 . S
C2248 C2250 1.391 . S
C2249 C2248 1.386 . S
C2249 C2253 1.393 . S
C2250 H2242 0.950 . S
C2250 C2248 1.391 . S
C2250 C2251 1.400 . S
C2251 C2250 1.400 . S
C2251 C2252 1.398 . S
C2251 C2257 1.491 . S
C2252 H2243 0.950 . S
C2252 C2251 1.398 . S
C2252 C2253 1.391 . S
C2253 H2241 0.950 . S
C2253 C2249 1.393 . S
C2253 C2252 1.391 . S
C2254 H2244 0.950 . S
C2254 C2255 1.386 . S
C2254 C2256 1.391 . S
C2255 C2254 1.386 . S
C2255 C2259 1.393 . S
C2256 H2245 0.950 . S
C2256 C2254 1.391 . S
C2256 C2257 1.400 . S
C2257 C2251 1.491 . S
C2257 C2256 1.400 . S
C2257 C2258 1.398 . S
C2258 H2246 0.950 . S
C2258 C2257 1.398 . S
C2258 C2259 1.391 . S
C2259 H2247 0.950 . S
C2259 C2255 1.393 . S
C2259 C2258 1.391 . S
H2260 C2268 0.950 . S
H2261 C2273 0.950 . S
H2262 C2270 0.950 . S
H2263 C2272 0.950 . S
H2264 C2274 0.950 . S
H2265 C2276 0.950 . S
H2266 C2278 0.950 . S
H2267 C2279 0.950 . S
C2268 H2260 0.950 . S
C2268 C2269 1.386 . S
C2268 C2270 1.391 . S
C2269 C2268 1.386 . S
C2269 C2273 1.393 . S
C2270 H2262 0.950 . S
C2270 C2268 1.391 . S
C2270 C2271 1.400 . S
C2271 C2270 1.400 . S
C2271 C2272 1.398 . S
C2271 C2277 1.491 . S
C2272 H2263 0.950 . S
C2272 C2271 1.398 . S
C2272 C2273 1.391 . S
C2273 H2261 0.950 . S
C2273 C2269 1.393 . S
C2273 C2272 1.391 . S
C2274 H2264 0.950 . S
C2274 C2275 1.386 . S
C2274 C2276 1.391 . S
C2275 C2274 1.386 . S
C2275 C2279 1.393 . S
C2276 H2265 0.950 . S
C2276 C2274 1.391 . S
C2276 C2277 1.400 . S
C2277 C2271 1.491 . S
C2277 C2276 1.400 . S
C2277 C2278 1.398 . S
C2278 H2266 0.950 . S
C2278 C2277 1.398 . S
C2278 C2279 1.391 . S
C2279 H2267 0.950 . S
C2279 C2275 1.393 . S
C2279 C2278 1.391 . S
H2280 C2288 0.950 . S
H2281 C2293 0.950 . S
H2282 C2290 0.950 . S
H2283 C2292 0.950 . S
H2284 C2294 0.950 . S
H2285 C2296 0.950 . S
H2286 C2298 0.950 . S
H2287 C2299 0.950 . S
C2288 H2280 0.950 . S
C2288 C2289 1.386 . S
C2288 C2290 1.391 . S
C2289 C2288 1.386 . S
C2289 C2293 1.393 . S
C2290 H2282 0.950 . S
C2290 C2288 1.391 . S
C2290 C2291 1.400 . S
C2291 C2290 1.400 . S
C2291 C2292 1.398 . S
C2291 C2297 1.491 . S
C2292 H2283 0.950 . S
C2292 C2291 1.398 . S
C2292 C2293 1.391 . S
C2293 H2281 0.950 . S
C2293 C2289 1.393 . S
C2293 C2292 1.391 . S
C2294 H2284 0.950 . S
C2294 C2295 1.386 . S
C2294 C2296 1.391 . S
C2295 C2294 1.386 . S
C2295 C2299 1.393 . S
C2296 H2285 0.950 . S
C2296 C2294 1.391 . S
C2296 C2297 1.400 . S
C2297 C2291 1.491 . S
C2297 C2296 1.400 . S
C2297 C2298 1.398 . S
C2298 H2286 0.950 . S
C2298 C2297 1.398 . S
C2298 C2299 1.391 . S
C2299 H2287 0.950 . S
C2299 C2295 1.393 . S
C2299 C2298 1.391 . S
H2300 C2308 0.950 . S
H2301 C2313 0.950 . S
H2302 C2310 0.950 . S
H2303 C2312 0.950 . S
H2304 C2314 0.950 . S
H2305 C2316 0.950 . S
H2306 C2318 0.950 . S
H2307 C2319 0.950 . S
C2308 H2300 0.950 . S
C2308 C2309 1.386 . S
C2308 C2310 1.391 . S
C2309 C2308 1.386 . S
C2309 C2313 1.393 . S
C2310 H2302 0.950 . S
C2310 C2308 1.391 . S
C2310 C2311 1.400 . S
C2311 C2310 1.400 . S
C2311 C2312 1.398 . S
C2311 C2317 1.491 . S
C2312 H2303 0.950 . S
C2312 C2311 1.398 . S
C2312 C2313 1.391 . S
C2313 H2301 0.950 . S
C2313 C2309 1.393 . S
C2313 C2312 1.391 . S
C2314 H2304 0.950 . S
C2314 C2315 1.386 . S
C2314 C2316 1.391 . S
C2315 C2314 1.386 . S
C2315 C2319 1.393 . S
C2316 H2305 0.950 . S
C2316 C2314 1.391 . S
C2316 C2317 1.400 . S
C2317 C2311 1.491 . S
C2317 C2316 1.400 . S
C2317 C2318 1.398 . S
C2318 H2306 0.950 . S
C2318 C2317 1.398 . S
C2318 C2319 1.391 . S
C2319 H2307 0.950 . S
C2319 C2315 1.393 . S
C2319 C2318 1.391 . S
H2320 C2328 0.950 . S
H2321 C2333 0.950 . S
H2322 C2330 0.950 . S
H2323 C2332 0.950 . S
H2324 C2334 0.950 . S
H2325 C2336 0.950 . S
H2326 C2338 0.950 . S
H2327 C2339 0.950 . S
C2328 H2320 0.950 . S
C2328 C2329 1.386 . S
C2328 C2330 1.391 . S
C2329 C2328 1.386 . S
C2329 C2333 1.393 . S
C2330 H2322 0.950 . S
C2330 C2328 1.391 . S
C2330 C2331 1.400 . S
C2331 C2330 1.400 . S
C2331 C2332 1.398 . S
C2331 C2337 1.491 . S
C2332 H2323 0.950 . S
C2332 C2331 1.398 . S
C2332 C2333 1.391 . S
C2333 H2321 0.950 . S
C2333 C2329 1.393 . S
C2333 C2332 1.391 . S
C2334 H2324 0.950 . S
C2334 C2335 1.386 . S
C2334 C2336 1.391 . S
C2335 C2334 1.386 . S
C2335 C2339 1.393 . S
C2336 H2325 0.950 . S
C2336 C2334 1.391 . S
C2336 C2337 1.400 . S
C2337 C2331 1.491 . S
C2337 C2336 1.400 . S
C2337 C2338 1.398 . S
C2338 H2326 0.950 . S
C2338 C2337 1.398 . S
C2338 C2339 1.391 . S
C2339 H2327 0.950 . S
C2339 C2335 1.393 . S
C2339 C2338 1.391 . S
H2340 C2348 0.950 . S
H2341 C2353 0.950 . S
H2342 C2350 0.950 . S
H2343 C2352 0.950 . S
H2344 C2354 0.950 . S
H2345 C2356 0.950 . S
H2346 C2358 0.950 . S
H2347 C2359 0.950 . S
C2348 H2340 0.950 . S
C2348 C2349 1.386 . S
C2348 C2350 1.391 . S
C2349 C2348 1.386 . S
C2349 C2353 1.393 . S
C2350 H2342 0.950 . S
C2350 C2348 1.391 . S
C2350 C2351 1.400 . S
C2351 C2350 1.400 . S
C2351 C2352 1.398 . S
C2351 C2357 1.491 . S
C2352 H2343 0.950 . S
C2352 C2351 1.398 . S
C2352 C2353 1.391 . S
C2353 H2341 0.950 . S
C2353 C2349 1.393 . S
C2353 C2352 1.391 . S
C2354 H2344 0.950 . S
C2354 C2355 1.386 . S
C2354 C2356 1.391 . S
C2355 C2354 1.386 . S
C2355 C2359 1.393 . S
C2356 H2345 0.950 . S
C2356 C2354 1.391 . S
C2356 C2357 1.400 . S
C2357 C2351 1.491 . S
C2357 C2356 1.400 . S
C2357 C2358 1.398 . S
C2358 H2346 0.950 . S
C2358 C2357 1.398 . S
C2358 C2359 1.391 . S
C2359 H2347 0.950 . S
C2359 C2355 1.393 . S
C2359 C2358 1.391 . S
H2360 C2368 0.950 . S
H2361 C2373 0.950 . S
H2362 C2370 0.950 . S
H2363 C2372 0.950 . S
H2364 C2374 0.950 . S
H2365 C2376 0.950 . S
H2366 C2378 0.950 . S
H2367 C2379 0.950 . S
C2368 H2360 0.950 . S
C2368 C2369 1.386 . S
C2368 C2370 1.391 . S
C2369 C2368 1.386 . S
C2369 C2373 1.393 . S
C2370 H2362 0.950 . S
C2370 C2368 1.391 . S
C2370 C2371 1.400 . S
C2371 C2370 1.400 . S
C2371 C2372 1.398 . S
C2371 C2377 1.491 . S
C2372 H2363 0.950 . S
C2372 C2371 1.398 . S
C2372 C2373 1.391 . S
C2373 H2361 0.950 . S
C2373 C2369 1.393 . S
C2373 C2372 1.391 . S
C2374 H2364 0.950 . S
C2374 C2375 1.386 . S
C2374 C2376 1.391 . S
C2375 C2374 1.386 . S
C2375 C2379 1.393 . S
C2376 H2365 0.950 . S
C2376 C2374 1.391 . S
C2376 C2377 1.400 . S
C2377 C2371 1.491 . S
C2377 C2376 1.400 . S
C2377 C2378 1.398 . S
C2378 H2366 0.950 . S
C2378 C2377 1.398 . S
C2378 C2379 1.391 . S
C2379 H2367 0.950 . S
C2379 C2375 1.393 . S
C2379 C2378 1.391 . S
H2380 C2388 0.950 . S
H2381 C2393 0.950 . S
H2382 C2390 0.950 . S
H2383 C2392 0.950 . S
H2384 C2394 0.950 . S
H2385 C2396 0.950 . S
H2386 C2398 0.950 . S
H2387 C2399 0.950 . S
C2388 H2380 0.950 . S
C2388 C2389 1.386 . S
C2388 C2390 1.391 . S
C2389 C2388 1.386 . S
C2389 C2393 1.393 . S
C2390 H2382 0.950 . S
C2390 C2388 1.391 . S
C2390 C2391 1.400 . S
C2391 C2390 1.400 . S
C2391 C2392 1.398 . S
C2391 C2397 1.491 . S
C2392 H2383 0.950 . S
C2392 C2391 1.398 . S
C2392 C2393 1.391 . S
C2393 H2381 0.950 . S
C2393 C2389 1.393 . S
C2393 C2392 1.391 . S
C2394 H2384 0.950 . S
C2394 C2395 1.386 . S
C2394 C2396 1.391 . S
C2395 C2394 1.386 . S
C2395 C2399 1.393 . S
C2396 H2385 0.950 . S
C2396 C2394 1.391 . S
C2396 C2397 1.400 . S
C2397 C2391 1.491 . S
C2397 C2396 1.400 . S
C2397 C2398 1.398 . S
C2398 H2386 0.950 . S
C2398 C2397 1.398 . S
C2398 C2399 1.391 . S
C2399 H2387 0.950 . S
C2399 C2395 1.393 . S
C2399 C2398 1.391 . S
H2400 C2408 0.950 . S
H2401 C2413 0.950 . S
H2402 C2410 0.950 . S
H2403 C2412 0.950 . S
H2404 C2414 0.950 . S
H2405 C2416 0.950 . S
H2406 C2418 0.950 . S
H2407 C2419 0.950 . S
C2408 H2400 0.950 . S
C2408 C2409 1.386 . S
C2408 C2410 1.391 . S
C2409 C2408 1.386 . S
C2409 C2413 1.393 . S
C2410 H2402 0.950 . S
C2410 C2408 1.391 . S
C2410 C2411 1.400 . S
C2411 C2410 1.400 . S
C2411 C2412 1.398 . S
C2411 C2417 1.491 1_655 S
C2412 H2403 0.950 . S
C2412 C2411 1.398 . S
C2412 C2413 1.391 . S
C2413 H2401 0.950 . S
C2413 C2409 1.393 . S
C2413 C2412 1.391 . S
C2414 H2404 0.950 . S
C2414 C2415 1.386 . S
C2414 C2416 1.391 . S
C2415 C2414 1.386 . S
C2415 C2419 1.393 . S
C2416 H2405 0.950 . S
C2416 C2414 1.391 . S
C2416 C2417 1.400 . S
C2417 C2411 1.491 1_455 S
C2417 C2416 1.400 . S
C2417 C2418 1.398 . S
C2418 H2406 0.950 . S
C2418 C2417 1.398 . S
C2418 C2419 1.391 . S
C2419 H2407 0.950 . S
C2419 C2415 1.393 . S
C2419 C2418 1.391 . S
H2420 C2428 0.950 . S
H2421 C2433 0.950 . S
H2422 C2430 0.950 . S
H2423 C2432 0.950 . S
H2424 C2434 0.950 . S
H2425 C2436 0.950 . S
H2426 C2438 0.950 . S
H2427 C2439 0.950 . S
C2428 H2420 0.950 . S
C2428 C2429 1.386 . S
C2428 C2430 1.391 . S
C2429 C2428 1.386 . S
C2429 C2433 1.393 . S
C2430 H2422 0.950 . S
C2430 C2428 1.391 . S
C2430 C2431 1.400 . S
C2431 C2430 1.400 . S
C2431 C2432 1.398 . S
C2431 C2437 1.491 . S
C2432 H2423 0.950 . S
C2432 C2431 1.398 . S
C2432 C2433 1.391 . S
C2433 H2421 0.950 . S
C2433 C2429 1.393 . S
C2433 C2432 1.391 . S
C2434 H2424 0.950 . S
C2434 C2435 1.386 . S
C2434 C2436 1.391 . S
C2435 C2434 1.386 . S
C2435 C2439 1.393 . S
C2436 H2425 0.950 . S
C2436 C2434 1.391 . S
C2436 C2437 1.400 . S
C2437 C2431 1.491 . S
C2437 C2436 1.400 . S
C2437 C2438 1.398 . S
C2438 H2426 0.950 . S
C2438 C2437 1.398 . S
C2438 C2439 1.391 . S
C2439 H2427 0.950 . S
C2439 C2435 1.393 . S
C2439 C2438 1.391 . S
H2440 C2448 0.950 . S
H2441 C2453 0.950 . S
H2442 C2450 0.972 . S
H2443 C2452 0.950 . S
H2444 C2454 0.950 . S
H2445 C2456 0.972 . S
H2446 C2458 0.950 . S
H2447 C2459 0.950 . S
C2448 H2440 0.950 . S
C2448 C2449 1.386 . S
C2448 C2450 1.391 . S
C2449 C2448 1.386 . S
C2449 C2453 1.393 . S
C2450 H2442 0.972 . S
C2450 C2448 1.391 . S
C2450 C2451 1.400 . S
C2451 C2450 1.400 . S
C2451 C2452 1.398 . S
C2451 C2457 1.491 1_545 S
C2452 H2443 0.950 . S
C2452 C2451 1.398 . S
C2452 C2453 1.391 . S
C2453 H2441 0.950 . S
C2453 C2449 1.393 . S
C2453 C2452 1.391 . S
C2454 H2444 0.950 . S
C2454 C2455 1.386 . S
C2454 C2456 1.391 . S
C2455 C2454 1.386 . S
C2455 C2459 1.393 . S
C2456 H2445 0.972 . S
C2456 C2454 1.391 . S
C2456 C2457 1.400 . S
C2457 C2451 1.491 1_565 S
C2457 C2456 1.400 . S
C2457 C2458 1.398 . S
C2458 H2446 0.950 . S
C2458 C2457 1.398 . S
C2458 C2459 1.391 . S
C2459 H2447 0.950 . S
C2459 C2455 1.393 . S
C2459 C2458 1.391 . S
H2460 C2468 0.950 1_556 S
H2461 C2473 0.950 . S
H2462 C2470 0.950 . S
H2463 C2472 0.950 1_545 S
H2464 C2474 0.950 1_554 S
H2465 C2476 0.950 . S
H2466 C2478 0.950 1_565 S
H2467 C2479 0.950 . S
C2468 H2460 0.950 1_554 S
C2468 C2469 1.386 . S
C2468 C2470 1.391 1_554 S
C2469 C2468 1.386 . S
C2469 C2473 1.393 . S
C2470 H2462 0.950 . S
C2470 C2468 1.391 1_556 S
C2470 C2471 1.400 1_556 S
C2471 C2470 1.400 1_554 S
C2471 C2472 1.398 . S
C2471 C2477 1.491 1_564 S
C2472 H2463 0.950 1_565 S
C2472 C2471 1.398 . S
C2472 C2473 1.391 . S
C2473 H2461 0.950 . S
C2473 C2469 1.393 . S
C2473 C2472 1.391 . S
C2474 H2464 0.950 1_556 S
C2474 C2475 1.386 . S
C2474 C2476 1.391 1_556 S
C2475 C2474 1.386 . S
C2475 C2479 1.393 . S
C2476 H2465 0.950 . S
C2476 C2474 1.391 1_554 S
C2476 C2477 1.400 1_554 S
C2477 C2471 1.491 1_546 S
C2477 C2476 1.400 1_556 S
C2477 C2478 1.398 . S
C2478 H2466 0.950 1_545 S
C2478 C2477 1.398 . S
C2478 C2479 1.391 . S
C2479 H2467 0.950 . S
C2479 C2475 1.393 . S
C2479 C2478 1.391 . S
H2480 C2488 0.950 . S
H2481 C2493 0.950 . S
H2482 C2490 0.950 . S
H2483 C2492 0.950 . S
H2484 C2494 0.950 . S
H2485 C2496 0.950 . S
H2486 C2498 0.950 . S
H2487 C2499 0.950 . S
C2488 H2480 0.950 . S
C2488 C2489 1.386 1_554 S
C2488 C2490 1.391 . S
C2489 C2488 1.386 1_556 S
C2489 C2493 1.393 . S
C2490 H2482 0.950 . S
C2490 C2488 1.391 . S
C2490 C2491 1.400 1_554 S
C2491 C2490 1.400 1_556 S
C2491 C2492 1.398 . S
C2491 C2497 1.491 1_656 S
C2492 H2483 0.950 . S
C2492 C2491 1.398 . S
C2492 C2493 1.391 . S
C2493 H2481 0.950 . S
C2493 C2489 1.393 . S
C2493 C2492 1.391 . S
C2494 H2484 0.950 . S
C2494 C2495 1.386 1_556 S
C2494 C2496 1.391 . S
C2495 C2494 1.386 1_554 S
C2495 C2499 1.393 . S
C2496 H2485 0.950 . S
C2496 C2494 1.391 . S
C2496 C2497 1.400 1_556 S
C2497 C2491 1.491 1_454 S
C2497 C2496 1.400 1_554 S
C2497 C2498 1.398 . S
C2498 H2486 0.950 . S
C2498 C2497 1.398 . S
C2498 C2499 1.391 . S
C2499 H2487 0.950 . S
C2499 C2495 1.393 . S
C2499 C2498 1.391 . S
H2500 C2508 0.950 . S
H2501 C2513 0.950 . S
H2502 C2510 0.950 . S
H2503 C2512 0.950 . S
H2504 C2514 0.950 . S
H2505 C2516 0.950 . S
H2506 C2518 0.950 . S
H2507 C2519 0.950 . S
C2508 H2500 0.950 . S
C2508 C2509 1.386 1_556 S
C2508 C2510 1.391 . S
C2509 C2508 1.386 1_554 S
C2509 C2513 1.393 . S
C2510 H2502 0.950 . S
C2510 C2508 1.391 . S
C2510 C2511 1.400 1_556 S
C2511 C2510 1.400 1_554 S
C2511 C2512 1.398 . S
C2511 C2517 1.491 1_554 S
C2512 H2503 0.950 . S
C2512 C2511 1.398 . S
C2512 C2513 1.391 . S
C2513 H2501 0.950 . S
C2513 C2509 1.393 . S
C2513 C2512 1.391 . S
C2514 H2504 0.950 . S
C2514 C2515 1.386 1_554 S
C2514 C2516 1.391 . S
C2515 C2514 1.386 1_556 S
C2515 C2519 1.393 . S
C2516 H2505 0.950 . S
C2516 C2514 1.391 . S
C2516 C2517 1.400 1_554 S
C2517 C2511 1.491 1_556 S
C2517 C2516 1.400 1_556 S
C2517 C2518 1.398 . S
C2518 H2506 0.950 . S
C2518 C2517 1.398 . S
C2518 C2519 1.391 . S
C2519 H2507 0.950 . S
C2519 C2515 1.393 . S
C2519 C2518 1.391 . S
H2520 C2528 0.950 1_554 S
H2521 C2533 0.950 . S
H2522 C2530 0.950 . S
H2523 C2532 0.950 . S
H2524 C2534 0.950 . S
H2525 C2536 0.950 . S
H2526 C2538 0.950 . S
H2527 C2539 0.950 . S
C2528 H2520 0.950 1_556 S
C2528 C2529 1.386 . S
C2528 C2530 1.391 . S
C2529 C2528 1.386 . S
C2529 C2533 1.393 . S
C2530 H2522 0.950 . S
C2530 C2528 1.391 . S
C2530 C2531 1.400 . S
C2531 C2530 1.400 . S
C2531 C2532 1.398 . S
C2531 C2537 1.491 . S
C2532 H2523 0.950 . S
C2532 C2531 1.398 . S
C2532 C2533 1.391 . S
C2533 H2521 0.950 . S
C2533 C2529 1.393 . S
C2533 C2532 1.391 . S
C2534 H2524 0.950 . S
C2534 C2535 1.386 . S
C2534 C2536 1.391 . S
C2535 C2534 1.386 . S
C2535 C2539 1.393 . S
C2536 H2525 0.950 . S
C2536 C2534 1.391 . S
C2536 C2537 1.400 . S
C2537 C2531 1.491 . S
C2537 C2536 1.400 . S
C2537 C2538 1.398 . S
C2538 H2526 0.950 . S
C2538 C2537 1.398 . S
C2538 C2539 1.391 . S
C2539 H2527 0.950 . S
C2539 C2535 1.393 . S
C2539 C2538 1.391 . S
H2540 C2548 0.950 . S
H2541 C2553 0.950 . S
H2542 C2550 0.950 . S
H2543 C2552 0.950 . S
H2544 C2554 0.950 . S
H2545 C2556 0.950 . S
H2546 C2558 0.950 . S
H2547 C2559 0.950 . S
C2548 H2540 0.950 . S
C2548 C2549 1.386 . S
C2548 C2550 1.391 . S
C2549 C2548 1.386 . S
C2549 C2553 1.393 . S
C2550 H2542 0.950 . S
C2550 C2548 1.391 . S
C2550 C2551 1.400 . S
C2551 C2550 1.400 . S
C2551 C2552 1.398 . S
C2551 C2557 1.491 . S
C2552 H2543 0.950 . S
C2552 C2551 1.398 . S
C2552 C2553 1.391 . S
C2553 H2541 0.950 . S
C2553 C2549 1.393 . S
C2553 C2552 1.391 . S
C2554 H2544 0.950 . S
C2554 C2555 1.386 . S
C2554 C2556 1.391 . S
C2555 C2554 1.386 . S
C2555 C2559 1.393 . S
C2556 H2545 0.950 . S
C2556 C2554 1.391 . S
C2556 C2557 1.400 . S
C2557 C2551 1.491 . S
C2557 C2556 1.400 . S
C2557 C2558 1.398 . S
C2558 H2546 0.950 . S
C2558 C2557 1.398 . S
C2558 C2559 1.391 . S
C2559 H2547 0.950 . S
C2559 C2555 1.393 . S
C2559 C2558 1.391 . S
H2560 C2568 0.950 . S
H2561 C2573 0.950 . S
H2562 C2570 0.950 . S
H2563 C2572 0.950 . S
H2564 C2574 0.950 1_554 S
H2565 C2576 0.950 . S
H2566 C2578 0.950 . S
H2567 C2579 0.950 . S
C2568 H2560 0.950 . S
C2568 C2569 1.386 . S
C2568 C2570 1.391 . S
C2569 C2568 1.386 . S
C2569 C2573 1.393 . S
C2570 H2562 0.950 . S
C2570 C2568 1.391 . S
C2570 C2571 1.400 . S
C2571 C2570 1.400 . S
C2571 C2572 1.398 . S
C2571 C2577 1.491 . S
C2572 H2563 0.950 . S
C2572 C2571 1.398 . S
C2572 C2573 1.391 . S
C2573 H2561 0.950 . S
C2573 C2569 1.393 . S
C2573 C2572 1.391 . S
C2574 H2564 0.950 1_556 S
C2574 C2575 1.386 . S
C2574 C2576 1.391 . S
C2575 C2574 1.386 . S
C2575 C2579 1.393 . S
C2576 H2565 0.950 . S
C2576 C2574 1.391 . S
C2576 C2577 1.400 . S
C2577 C2571 1.491 . S
C2577 C2576 1.400 . S
C2577 C2578 1.398 . S
C2578 H2566 0.950 . S
C2578 C2577 1.398 . S
C2578 C2579 1.391 . S
C2579 H2567 0.950 . S
C2579 C2575 1.393 . S
C2579 C2578 1.391 . S
H2580 C2588 0.950 . S
H2581 C2593 0.950 . S
H2582 C2590 0.950 . S
H2583 C2592 0.950 . S
H2584 C2594 0.950 . S
H2585 C2596 0.950 . S
H2586 C2598 0.950 . S
H2587 C2599 0.950 . S
C2588 H2580 0.950 . S
C2588 C2589 1.386 . S
C2588 C2590 1.391 . S
C2589 C2588 1.386 . S
C2589 C2593 1.393 . S
C2590 H2582 0.950 . S
C2590 C2588 1.391 . S
C2590 C2591 1.400 . S
C2591 C2590 1.400 . S
C2591 C2592 1.398 . S
C2591 C2597 1.491 . S
C2592 H2583 0.950 . S
C2592 C2591 1.398 . S
C2592 C2593 1.391 . S
C2593 H2581 0.950 . S
C2593 C2589 1.393 . S
C2593 C2592 1.391 . S
C2594 H2584 0.950 . S
C2594 C2595 1.386 . S
C2594 C2596 1.391 . S
C2595 C2594 1.386 . S
C2595 C2599 1.393 . S
C2596 H2585 0.950 . S
C2596 C2594 1.391 . S
C2596 C2597 1.400 . S
C2597 C2591 1.491 . S
C2597 C2596 1.400 . S
C2597 C2598 1.398 . S
C2598 H2586 0.950 . S
C2598 C2597 1.398 . S
C2598 C2599 1.391 . S
C2599 H2587 0.950 . S
C2599 C2595 1.393 . S
C2599 C2598 1.391 . S
H2600 C2608 0.950 . S
H2601 C2613 0.950 . S
H2602 C2610 0.950 . S
H2603 C2612 0.950 . S
H2604 C2614 0.950 . S
H2605 C2616 0.950 . S
H2606 C2618 0.950 . S
H2607 C2619 0.950 . S
C2608 H2600 0.950 . S
C2608 C2609 1.386 . S
C2608 C2610 1.391 . S
C2609 C2608 1.386 . S
C2609 C2613 1.393 . S
C2610 H2602 0.950 . S
C2610 C2608 1.391 . S
C2610 C2611 1.400 . S
C2611 C2610 1.400 . S
C2611 C2612 1.398 . S
C2611 C2617 1.491 . S
C2612 H2603 0.950 . S
C2612 C2611 1.398 . S
C2612 C2613 1.391 . S
C2613 H2601 0.950 . S
C2613 C2609 1.393 . S
C2613 C2612 1.391 . S
C2614 H2604 0.950 . S
C2614 C2615 1.386 . S
C2614 C2616 1.391 . S
C2615 C2614 1.386 . S
C2615 C2619 1.393 . S
C2616 H2605 0.950 . S
C2616 C2614 1.391 . S
C2616 C2617 1.400 . S
C2617 C2611 1.491 . S
C2617 C2616 1.400 . S
C2617 C2618 1.398 . S
C2618 H2606 0.950 . S
C2618 C2617 1.398 . S
C2618 C2619 1.391 . S
C2619 H2607 0.950 . S
C2619 C2615 1.393 . S
C2619 C2618 1.391 . S
H2620 C2628 0.950 . S
H2621 C2633 0.950 . S
H2622 C2630 0.950 . S
H2623 C2632 0.950 . S
H2624 C2634 0.950 . S
H2625 C2636 0.950 . S
H2626 C2638 0.950 . S
H2627 C2639 0.950 . S
C2628 H2620 0.950 . S
C2628 C2629 1.386 . S
C2628 C2630 1.391 . S
C2629 C2628 1.386 . S
C2629 C2633 1.393 . S
C2630 H2622 0.950 . S
C2630 C2628 1.391 . S
C2630 C2631 1.400 . S
C2631 C2630 1.400 . S
C2631 C2632 1.398 . S
C2631 C2637 1.491 . S
C2632 H2623 0.950 . S
C2632 C2631 1.398 . S
C2632 C2633 1.391 . S
C2633 H2621 0.950 . S
C2633 C2629 1.393 . S
C2633 C2632 1.391 . S
C2634 H2624 0.950 . S
C2634 C2635 1.386 . S
C2634 C2636 1.391 . S
C2635 C2634 1.386 . S
C2635 C2639 1.393 . S
C2636 H2625 0.950 . S
C2636 C2634 1.391 . S
C2636 C2637 1.400 . S
C2637 C2631 1.491 . S
C2637 C2636 1.400 . S
C2637 C2638 1.398 . S
C2638 H2626 0.950 . S
C2638 C2637 1.398 . S
C2638 C2639 1.391 . S
C2639 H2627 0.950 . S
C2639 C2635 1.393 . S
C2639 C2638 1.391 . S
H2640 C2648 0.950 . S
H2641 C2653 0.950 . S
H2642 C2650 0.950 . S
H2643 C2652 0.950 . S
H2644 C2654 0.950 . S
H2645 C2656 0.950 . S
H2646 C2658 0.950 . S
H2647 C2659 0.950 . S
C2648 H2640 0.950 . S
C2648 C2649 1.386 . S
C2648 C2650 1.391 . S
C2649 C2648 1.386 . S
C2649 C2653 1.393 . S
C2650 H2642 0.950 . S
C2650 C2648 1.391 . S
C2650 C2651 1.400 . S
C2651 C2650 1.400 . S
C2651 C2652 1.398 . S
C2651 C2657 1.491 . S
C2652 H2643 0.950 . S
C2652 C2651 1.398 . S
C2652 C2653 1.391 . S
C2653 H2641 0.950 . S
C2653 C2649 1.393 . S
C2653 C2652 1.391 . S
C2654 H2644 0.950 . S
C2654 C2655 1.386 . S
C2654 C2656 1.391 . S
C2655 C2654 1.386 . S
C2655 C2659 1.393 . S
C2656 H2645 0.950 . S
C2656 C2654 1.391 . S
C2656 C2657 1.400 . S
C2657 C2651 1.491 . S
C2657 C2656 1.400 . S
C2657 C2658 1.398 . S
C2658 H2646 0.950 . S
C2658 C2657 1.398 . S
C2658 C2659 1.391 . S
C2659 H2647 0.950 . S
C2659 C2655 1.393 . S
C2659 C2658 1.391 . S
H2660 C2668 0.950 . S
H2661 C2673 0.950 1_556 S
H2662 C2670 0.950 . S
H2663 C2672 0.950 . S
H2664 C2674 0.950 . S
H2665 C2676 0.950 . S
H2666 C2678 0.950 . S
H2667 C2679 0.950 . S
C2668 H2660 0.950 . S
C2668 C2669 1.386 . S
C2668 C2670 1.391 . S
C2669 C2668 1.386 . S
C2669 C2673 1.393 . S
C2670 H2662 0.950 . S
C2670 C2668 1.391 . S
C2670 C2671 1.400 . S
C2671 C2670 1.400 . S
C2671 C2672 1.398 . S
C2671 C2677 1.491 . S
C2672 H2663 0.950 . S
C2672 C2671 1.398 . S
C2672 C2673 1.391 . S
C2673 H2661 0.950 1_554 S
C2673 C2669 1.393 . S
C2673 C2672 1.391 . S
C2674 H2664 0.950 . S
C2674 C2675 1.386 . S
C2674 C2676 1.391 . S
C2675 C2674 1.386 . S
C2675 C2679 1.393 . S
C2676 H2665 0.950 . S
C2676 C2674 1.391 . S
C2676 C2677 1.400 . S
C2677 C2671 1.491 . S
C2677 C2676 1.400 . S
C2677 C2678 1.398 . S
C2678 H2666 0.950 . S
C2678 C2677 1.398 . S
C2678 C2679 1.391 . S
C2679 H2667 0.950 . S
C2679 C2675 1.393 . S
C2679 C2678 1.391 . S
H2680 C2688 0.950 . S
H2681 C2693 0.950 . S
H2682 C2690 0.950 . S
H2683 C2692 0.950 . S
H2684 C2694 0.950 . S
H2685 C2696 0.950 . S
H2686 C2698 0.950 . S
H2687 C2699 0.950 . S
C2688 H2680 0.950 . S
C2688 C2689 1.386 . S
C2688 C2690 1.391 . S
C2689 C2688 1.386 . S
C2689 C2693 1.393 . S
C2690 H2682 0.950 . S
C2690 C2688 1.391 . S
C2690 C2691 1.400 . S
C2691 C2690 1.400 . S
C2691 C2692 1.398 . S
C2691 C2697 1.491 . S
C2692 H2683 0.950 . S
C2692 C2691 1.398 . S
C2692 C2693 1.391 . S
C2693 H2681 0.950 . S
C2693 C2689 1.393 . S
C2693 C2692 1.391 . S
C2694 H2684 0.950 . S
C2694 C2695 1.386 . S
C2694 C2696 1.391 . S
C2695 C2694 1.386 . S
C2695 C2699 1.393 . S
C2696 H2685 0.950 . S
C2696 C2694 1.391 . S
C2696 C2697 1.400 . S
C2697 C2691 1.491 . S
C2697 C2696 1.400 . S
C2697 C2698 1.398 . S
C2698 H2686 0.950 . S
C2698 C2697 1.398 . S
C2698 C2699 1.391 . S
C2699 H2687 0.950 . S
C2699 C2695 1.393 . S
C2699 C2698 1.391 . S
H2700 C2708 0.950 . S
H2701 C2713 0.950 . S
H2702 C2710 0.950 . S
H2703 C2712 0.950 . S
H2704 C2714 0.950 . S
H2705 C2716 0.950 . S
H2706 C2718 0.950 . S
H2707 C2719 0.950 . S
C2708 H2700 0.950 . S
C2708 C2709 1.386 . S
C2708 C2710 1.391 . S
C2709 C2708 1.386 . S
C2709 C2713 1.393 . S
C2710 H2702 0.950 . S
C2710 C2708 1.391 . S
C2710 C2711 1.400 . S
C2711 C2710 1.400 . S
C2711 C2712 1.398 . S
C2711 C2717 1.491 . S
C2712 H2703 0.950 . S
C2712 C2711 1.398 . S
C2712 C2713 1.391 . S
C2713 H2701 0.950 . S
C2713 C2709 1.393 . S
C2713 C2712 1.391 . S
C2714 H2704 0.950 . S
C2714 C2715 1.386 . S
C2714 C2716 1.391 . S
C2715 C2714 1.386 . S
C2715 C2719 1.393 . S
C2716 H2705 0.950 . S
C2716 C2714 1.391 . S
C2716 C2717 1.400 . S
C2717 C2711 1.491 . S
C2717 C2716 1.400 . S
C2717 C2718 1.398 . S
C2718 H2706 0.950 . S
C2718 C2717 1.398 . S
C2718 C2719 1.391 . S
C2719 H2707 0.950 . S
C2719 C2715 1.393 . S
C2719 C2718 1.391 . S
H2720 C2728 0.950 . S
H2721 C2733 0.950 . S
H2722 C2730 0.950 . S
H2723 C2732 0.950 . S
H2724 C2734 0.950 . S
H2725 C2736 0.950 . S
H2726 C2738 0.950 . S
H2727 C2739 0.950 . S
C2728 H2720 0.950 . S
C2728 C2729 1.386 . S
C2728 C2730 1.391 . S
C2729 C2728 1.386 . S
C2729 C2733 1.393 . S
C2730 H2722 0.950 . S
C2730 C2728 1.391 . S
C2730 C2731 1.400 . S
C2731 C2730 1.400 . S
C2731 C2732 1.398 . S
C2731 C2737 1.491 . S
C2732 H2723 0.950 . S
C2732 C2731 1.398 . S
C2732 C2733 1.391 . S
C2733 H2721 0.950 . S
C2733 C2729 1.393 . S
C2733 C2732 1.391 . S
C2734 H2724 0.950 . S
C2734 C2735 1.386 . S
C2734 C2736 1.391 . S
C2735 C2734 1.386 . S
C2735 C2739 1.393 . S
C2736 H2725 0.950 . S
C2736 C2734 1.391 . S
C2736 C2737 1.400 . S
C2737 C2731 1.491 . S
C2737 C2736 1.400 . S
C2737 C2738 1.398 . S
C2738 H2726 0.950 . S
C2738 C2737 1.398 . S
C2738 C2739 1.391 . S
C2739 H2727 0.950 . S
C2739 C2735 1.393 . S
C2739 C2738 1.391 . S
H2740 C2748 0.950 . S
H2741 C2753 0.950 . S
H2742 C2750 0.950 . S
H2743 C2752 0.950 . S
H2744 C2754 0.950 . S
H2745 C2756 0.950 . S
H2746 C2758 0.950 . S
H2747 C2759 0.950 . S
C2748 H2740 0.950 . S
C2748 C2749 1.386 . S
C2748 C2750 1.391 . S
C2749 C2748 1.386 . S
C2749 C2753 1.393 . S
C2750 H2742 0.950 . S
C2750 C2748 1.391 . S
C2750 C2751 1.400 . S
C2751 C2750 1.400 . S
C2751 C2752 1.398 . S
C2751 C2757 1.491 . S
C2752 H2743 0.950 . S
C2752 C2751 1.398 . S
C2752 C2753 1.391 . S
C2753 H2741 0.950 . S
C2753 C2749 1.393 . S
C2753 C2752 1.391 . S
C2754 H2744 0.950 . S
C2754 C2755 1.386 . S
C2754 C2756 1.391 . S
C2755 C2754 1.386 . S
C2755 C2759 1.393 . S
C2756 H2745 0.950 . S
C2756 C2754 1.391 . S
C2756 C2757 1.400 . S
C2757 C2751 1.491 . S
C2757 C2756 1.400 . S
C2757 C2758 1.398 . S
C2758 H2746 0.950 . S
C2758 C2757 1.398 . S
C2758 C2759 1.391 . S
C2759 H2747 0.950 . S
C2759 C2755 1.393 . S
C2759 C2758 1.391 . S
H2760 C2768 0.950 . S
H2761 C2773 0.950 . S
H2762 C2770 0.950 . S
H2763 C2772 0.950 . S
H2764 C2774 0.950 . S
H2765 C2776 0.950 . S
H2766 C2778 0.950 . S
H2767 C2779 0.950 . S
C2768 H2760 0.950 . S
C2768 C2769 1.386 . S
C2768 C2770 1.391 . S
C2769 C2768 1.386 . S
C2769 C2773 1.393 . S
C2770 H2762 0.950 . S
C2770 C2768 1.391 . S
C2770 C2771 1.400 . S
C2771 C2770 1.400 . S
C2771 C2772 1.398 . S
C2771 C2777 1.491 1_455 S
C2772 H2763 0.950 . S
C2772 C2771 1.398 . S
C2772 C2773 1.391 . S
C2773 H2761 0.950 . S
C2773 C2769 1.393 . S
C2773 C2772 1.391 . S
C2774 H2764 0.950 . S
C2774 C2775 1.386 . S
C2774 C2776 1.391 . S
C2775 C2774 1.386 . S
C2775 C2779 1.393 . S
C2776 H2765 0.950 . S
C2776 C2774 1.391 . S
C2776 C2777 1.400 . S
C2777 C2771 1.491 1_655 S
C2777 C2776 1.400 . S
C2777 C2778 1.398 . S
C2778 H2766 0.950 . S
C2778 C2777 1.398 . S
C2778 C2779 1.391 . S
C2779 H2767 0.950 . S
C2779 C2775 1.393 . S
C2779 C2778 1.391 . S
H2780 C2788 0.950 . S
H2781 C2793 0.950 . S
H2782 C2790 0.950 . S
H2783 C2792 0.950 . S
H2784 C2794 0.950 . S
H2785 C2796 0.950 . S
H2786 C2798 0.950 . S
H2787 C2799 0.950 . S
C2788 H2780 0.950 . S
C2788 C2789 1.386 . S
C2788 C2790 1.391 . S
C2789 C2788 1.386 . S
C2789 C2793 1.393 . S
C2790 H2782 0.950 . S
C2790 C2788 1.391 . S
C2790 C2791 1.400 . S
C2791 C2790 1.400 . S
C2791 C2792 1.398 . S
C2791 C2797 1.491 . S
C2792 H2783 0.950 . S
C2792 C2791 1.398 . S
C2792 C2793 1.391 . S
C2793 H2781 0.950 . S
C2793 C2789 1.393 . S
C2793 C2792 1.391 . S
C2794 H2784 0.950 . S
C2794 C2795 1.386 . S
C2794 C2796 1.391 . S
C2795 C2794 1.386 . S
C2795 C2799 1.393 . S
C2796 H2785 0.950 . S
C2796 C2794 1.391 . S
C2796 C2797 1.400 . S
C2797 C2791 1.491 . S
C2797 C2796 1.400 . S
C2797 C2798 1.398 . S
C2798 H2786 0.950 . S
C2798 C2797 1.398 . S
C2798 C2799 1.391 . S
C2799 H2787 0.950 . S
C2799 C2795 1.393 . S
C2799 C2798 1.391 . S
H2800 C2808 0.950 . S
H2801 C2813 0.950 . S
H2802 C2810 0.950 . S
H2803 C2812 0.927 1_565 S
H2804 C2814 0.950 . S
H2805 C2816 0.950 . S
H2806 C2818 0.927 1_545 S
H2807 C2819 0.950 . S
C2808 H2800 0.950 . S
C2808 C2809 1.386 . S
C2808 C2810 1.391 . S
C2809 C2808 1.386 . S
C2809 C2813 1.393 . S
C2810 H2802 0.950 . S
C2810 C2808 1.391 . S
C2810 C2811 1.400 . S
C2811 C2810 1.400 . S
C2811 C2812 1.398 . S
C2811 C2817 1.491 1_545 S
C2812 H2803 0.927 1_545 S
C2812 C2811 1.398 . S
C2812 C2813 1.391 . S
C2813 H2801 0.950 . S
C2813 C2809 1.393 . S
C2813 C2812 1.391 . S
C2814 H2804 0.950 . S
C2814 C2815 1.386 . S
C2814 C2816 1.391 . S
C2815 C2814 1.386 . S
C2815 C2819 1.393 . S
C2816 H2805 0.950 . S
C2816 C2814 1.391 . S
C2816 C2817 1.400 . S
C2817 C2811 1.491 1_565 S
C2817 C2816 1.400 . S
C2817 C2818 1.398 . S
C2818 H2806 0.927 1_565 S
C2818 C2817 1.398 . S
C2818 C2819 1.391 . S
C2819 H2807 0.950 . S
C2819 C2815 1.393 . S
C2819 C2818 1.391 . S
H2820 C2828 0.950 . S
H2821 C2833 0.950 . S
H2822 C2830 0.950 . S
H2823 C2832 0.950 . S
H2824 C2834 0.950 . S
H2825 C2836 0.950 . S
H2826 C2838 0.950 . S
H2827 C2839 0.950 . S
C2828 H2820 0.950 . S
C2828 C2829 1.386 . S
C2828 C2830 1.391 . S
C2829 C2828 1.386 . S
C2829 C2833 1.393 . S
C2830 H2822 0.950 . S
C2830 C2828 1.391 . S
C2830 C2831 1.400 . S
C2831 C2830 1.400 . S
C2831 C2832 1.398 . S
C2831 C2837 1.491 1_565 S
C2832 H2823 0.950 . S
C2832 C2831 1.398 . S
C2832 C2833 1.391 . S
C2833 H2821 0.950 . S
C2833 C2829 1.393 . S
C2833 C2832 1.391 . S
C2834 H2824 0.950 . S
C2834 C2835 1.386 . S
C2834 C2836 1.391 . S
C2835 C2834 1.386 . S
C2835 C2839 1.393 . S
C2836 H2825 0.950 . S
C2836 C2834 1.391 . S
C2836 C2837 1.400 . S
C2837 C2831 1.491 1_545 S
C2837 C2836 1.400 . S
C2837 C2838 1.398 . S
C2838 H2826 0.950 . S
C2838 C2837 1.398 . S
C2838 C2839 1.391 . S
C2839 H2827 0.950 . S
C2839 C2835 1.393 . S
C2839 C2838 1.391 . S
H2840 C2848 0.950 . S
H2841 C2853 0.950 . S
H2842 C2850 0.950 . S
H2843 C2852 0.950 . S
H2844 C2854 0.950 . S
H2845 C2856 0.950 . S
H2846 C2858 0.950 . S
H2847 C2859 0.950 . S
C2848 H2840 0.950 . S
C2848 C2849 1.386 . S
C2848 C2850 1.391 . S
C2849 C2848 1.386 . S
C2849 C2853 1.393 . S
C2850 H2842 0.950 . S
C2850 C2848 1.391 . S
C2850 C2851 1.400 . S
C2851 C2850 1.400 . S
C2851 C2852 1.398 . S
C2851 C2857 1.491 1_455 S
C2852 H2843 0.950 . S
C2852 C2851 1.398 . S
C2852 C2853 1.391 . S
C2853 H2841 0.950 . S
C2853 C2849 1.393 . S
C2853 C2852 1.391 . S
C2854 H2844 0.950 . S
C2854 C2855 1.386 . S
C2854 C2856 1.391 . S
C2855 C2854 1.386 . S
C2855 C2859 1.393 . S
C2856 H2845 0.950 . S
C2856 C2854 1.391 . S
C2856 C2857 1.400 . S
C2857 C2851 1.491 1_655 S
C2857 C2856 1.400 . S
C2857 C2858 1.398 . S
C2858 H2846 0.950 . S
C2858 C2857 1.398 . S
C2858 C2859 1.391 . S
C2859 H2847 0.950 . S
C2859 C2855 1.393 . S
C2859 C2858 1.391 . S
H2860 C2868 0.950 . S
H2861 C2873 0.950 . S
H2862 C2870 0.950 . S
H2863 C2872 0.950 . S
H2864 C2874 0.950 . S
H2865 C2876 0.950 . S
H2866 C2878 0.950 . S
H2867 C2879 0.950 . S
C2868 H2860 0.950 . S
C2868 C2869 1.386 . S
C2868 C2870 1.391 . S
C2869 C2868 1.386 . S
C2869 C2873 1.393 . S
C2870 H2862 0.950 . S
C2870 C2868 1.391 . S
C2870 C2871 1.400 . S
C2871 C2870 1.400 . S
C2871 C2872 1.398 . S
C2871 C2877 1.491 . S
C2872 H2863 0.950 . S
C2872 C2871 1.398 . S
C2872 C2873 1.391 . S
C2873 H2861 0.950 . S
C2873 C2869 1.393 . S
C2873 C2872 1.391 . S
C2874 H2864 0.950 . S
C2874 C2875 1.386 . S
C2874 C2876 1.391 . S
C2875 C2874 1.386 . S
C2875 C2879 1.393 . S
C2876 H2865 0.950 . S
C2876 C2874 1.391 . S
C2876 C2877 1.400 . S
C2877 C2871 1.491 . S
C2877 C2876 1.400 . S
C2877 C2878 1.398 . S
C2878 H2866 0.950 . S
C2878 C2877 1.398 . S
C2878 C2879 1.391 . S
C2879 H2867 0.950 . S
C2879 C2875 1.393 . S
C2879 C2878 1.391 . S
H2880 C2888 0.950 . S
H2881 C2893 0.950 . S
H2882 C2890 0.950 . S
H2883 C2892 0.950 . S
H2884 C2894 0.950 . S
H2885 C2896 0.950 . S
H2886 C2898 0.950 . S
H2887 C2899 0.950 . S
C2888 H2880 0.950 . S
C2888 C2889 1.386 . S
C2888 C2890 1.391 . S
C2889 C2888 1.386 . S
C2889 C2893 1.393 . S
C2890 H2882 0.950 . S
C2890 C2888 1.391 . S
C2890 C2891 1.400 . S
C2891 C2890 1.400 . S
C2891 C2892 1.398 . S
C2891 C2897 1.491 . S
C2892 H2883 0.950 . S
C2892 C2891 1.398 . S
C2892 C2893 1.391 . S
C2893 H2881 0.950 . S
C2893 C2889 1.393 . S
C2893 C2892 1.391 . S
C2894 H2884 0.950 . S
C2894 C2895 1.386 . S
C2894 C2896 1.391 . S
C2895 C2894 1.386 . S
C2895 C2899 1.393 . S
C2896 H2885 0.950 . S
C2896 C2894 1.391 . S
C2896 C2897 1.400 . S
C2897 C2891 1.491 . S
C2897 C2896 1.400 . S
C2897 C2898 1.398 . S
C2898 H2886 0.950 . S
C2898 C2897 1.398 . S
C2898 C2899 1.391 . S
C2899 H2887 0.950 . S
C2899 C2895 1.393 . S
C2899 C2898 1.391 . S
H2900 C2908 0.950 . S
H2901 C2913 0.950 . S
H2902 C2910 0.950 . S
H2903 C2912 0.950 . S
H2904 C2914 0.950 . S
H2905 C2916 0.950 . S
H2906 C2918 0.950 . S
H2907 C2919 0.950 . S
C2908 H2900 0.950 . S
C2908 C2909 1.386 . S
C2908 C2910 1.391 . S
C2909 C2908 1.386 . S
C2909 C2913 1.393 . S
C2910 H2902 0.950 . S
C2910 C2908 1.391 . S
C2910 C2911 1.400 . S
C2911 C2910 1.400 . S
C2911 C2912 1.398 . S
C2911 C2917 1.491 1_545 S
C2912 H2903 0.950 . S
C2912 C2911 1.398 . S
C2912 C2913 1.391 . S
C2913 H2901 0.950 . S
C2913 C2909 1.393 . S
C2913 C2912 1.391 . S
C2914 H2904 0.950 . S
C2914 C2915 1.386 . S
C2914 C2916 1.391 . S
C2915 C2914 1.386 . S
C2915 C2919 1.393 . S
C2916 H2905 0.950 . S
C2916 C2914 1.391 . S
C2916 C2917 1.400 . S
C2917 C2911 1.491 1_565 S
C2917 C2916 1.400 . S
C2917 C2918 1.398 . S
C2918 H2906 0.950 . S
C2918 C2917 1.398 . S
C2918 C2919 1.391 . S
C2919 H2907 0.950 . S
C2919 C2915 1.393 . S
C2919 C2918 1.391 . S
H2920 C2928 0.950 . S
H2921 C2933 0.950 . S
H2922 C2930 0.950 . S
H2923 C2932 0.950 . S
H2924 C2934 0.950 . S
H2925 C2936 0.950 . S
H2926 C2938 0.950 . S
H2927 C2939 0.950 . S
C2928 H2920 0.950 . S
C2928 C2929 1.386 . S
C2928 C2930 1.391 . S
C2929 C2928 1.386 . S
C2929 C2933 1.393 . S
C2930 H2922 0.950 . S
C2930 C2928 1.391 . S
C2930 C2931 1.400 . S
C2931 C2930 1.400 . S
C2931 C2932 1.398 . S
C2931 C2937 1.491 1_655 S
C2932 H2923 0.950 . S
C2932 C2931 1.398 . S
C2932 C2933 1.391 . S
C2933 H2921 0.950 . S
C2933 C2929 1.393 . S
C2933 C2932 1.391 . S
C2934 H2924 0.950 . S
C2934 C2935 1.386 . S
C2934 C2936 1.391 . S
C2935 C2934 1.386 . S
C2935 C2939 1.393 . S
C2936 H2925 0.950 . S
C2936 C2934 1.391 . S
C2936 C2937 1.400 . S
C2937 C2931 1.491 1_455 S
C2937 C2936 1.400 . S
C2937 C2938 1.398 . S
C2938 H2926 0.950 . S
C2938 C2937 1.398 . S
C2938 C2939 1.391 . S
C2939 H2927 0.950 . S
C2939 C2935 1.393 . S
C2939 C2938 1.391 . S
H2940 C2948 0.950 . S
H2941 C2953 0.950 . S
H2942 C2950 0.950 . S
H2943 C2952 0.950 . S
H2944 C2954 0.950 . S
H2945 C2956 0.950 . S
H2946 C2958 0.950 . S
H2947 C2959 0.950 . S
C2948 H2940 0.950 . S
C2948 C2949 1.386 . S
C2948 C2950 1.391 . S
C2949 C2948 1.386 . S
C2949 C2953 1.393 . S
C2950 H2942 0.950 . S
C2950 C2948 1.391 . S
C2950 C2951 1.400 . S
C2951 C2950 1.400 . S
C2951 C2952 1.398 . S
C2951 C2957 1.491 . S
C2952 H2943 0.950 . S
C2952 C2951 1.398 . S
C2952 C2953 1.391 . S
C2953 H2941 0.950 . S
C2953 C2949 1.393 . S
C2953 C2952 1.391 . S
C2954 H2944 0.950 . S
C2954 C2955 1.386 . S
C2954 C2956 1.391 . S
C2955 C2954 1.386 . S
C2955 C2959 1.393 . S
C2956 H2945 0.950 . S
C2956 C2954 1.391 . S
C2956 C2957 1.400 . S
C2957 C2951 1.491 . S
C2957 C2956 1.400 . S
C2957 C2958 1.398 . S
C2958 H2946 0.950 . S
C2958 C2957 1.398 . S
C2958 C2959 1.391 . S
C2959 H2947 0.950 . S
C2959 C2955 1.393 . S
C2959 C2958 1.391 . S
H2960 C2968 0.950 . S
H2961 C2973 0.950 . S
H2962 C2970 0.950 . S
H2963 C2972 0.950 . S
H2964 C2974 0.950 . S
H2965 C2976 0.950 . S
H2966 C2978 0.950 . S
H2967 C2979 0.950 . S
C2968 H2960 0.950 . S
C2968 C2969 1.386 . S
C2968 C2970 1.391 . S
C2969 C2968 1.386 . S
C2969 C2973 1.393 . S
C2970 H2962 0.950 . S
C2970 C2968 1.391 . S
C2970 C2971 1.400 . S
C2971 C2970 1.400 . S
C2971 C2972 1.398 . S
C2971 C2977 1.491 1_565 S
C2972 H2963 0.950 . S
C2972 C2971 1.398 . S
C2972 C2973 1.391 . S
C2973 H2961 0.950 . S
C2973 C2969 1.393 . S
C2973 C2972 1.391 . S
C2974 H2964 0.950 . S
C2974 C2975 1.386 . S
C2974 C2976 1.391 . S
C2975 C2974 1.386 . S
C2975 C2979 1.393 . S
C2976 H2965 0.950 . S
C2976 C2974 1.391 . S
C2976 C2977 1.400 . S
C2977 C2971 1.491 1_545 S
C2977 C2976 1.400 . S
C2977 C2978 1.398 . S
C2978 H2966 0.950 . S
C2978 C2977 1.398 . S
C2978 C2979 1.391 . S
C2979 H2967 0.950 . S
C2979 C2975 1.393 . S
C2979 C2978 1.391 . S
H2980 C2988 0.950 . S
H2981 C2993 0.950 . S
H2982 C2990 0.950 . S
H2983 C2992 0.950 1_455 S
H2984 C2994 0.950 . S
H2985 C2996 0.950 . S
H2986 C2998 0.950 1_655 S
H2987 C2999 0.950 . S
C2988 H2980 0.950 . S
C2988 C2989 1.386 . S
C2988 C2990 1.391 . S
C2989 C2988 1.386 . S
C2989 C2993 1.393 . S
C2990 H2982 0.950 . S
C2990 C2988 1.391 . S
C2990 C2991 1.400 . S
C2991 C2990 1.400 . S
C2991 C2992 1.398 . S
C2991 C2997 1.491 1_655 S
C2992 H2983 0.950 1_655 S
C2992 C2991 1.398 . S
C2992 C2993 1.391 . S
C2993 H2981 0.950 . S
C2993 C2989 1.393 . S
C2993 C2992 1.391 . S
C2994 H2984 0.950 . S
C2994 C2995 1.386 . S
C2994 C2996 1.391 . S
C2995 C2994 1.386 . S
C2995 C2999 1.393 . S
C2996 H2985 0.950 . S
C2996 C2994 1.391 . S
C2996 C2997 1.400 . S
C2997 C2991 1.491 1_455 S
C2997 C2996 1.400 . S
C2997 C2998 1.398 . S
C2998 H2986 0.950 1_455 S
C2998 C2997 1.398 . S
C2998 C2999 1.391 . S
C2999 H2987 0.950 . S
C2999 C2995 1.393 . S
C2999 C2998 1.391 . S
H3000 C3008 0.950 . S
H3001 C3013 0.950 . S
H3002 C3010 0.950 . S
H3003 C3012 0.950 . S
H3004 C3014 0.950 . S
H3005 C3016 0.950 . S
H3006 C3018 0.950 . S
H3007 C3019 0.950 . S
C3008 H3000 0.950 . S
C3008 C3009 1.386 . S
C3008 C3010 1.391 . S
C3009 C3008 1.386 . S
C3009 C3013 1.393 . S
C3010 H3002 0.950 . S
C3010 C3008 1.391 . S
C3010 C3011 1.400 . S
C3011 C3010 1.400 . S
C3011 C3012 1.398 . S
C3011 C3017 1.491 . S
C3012 H3003 0.950 . S
C3012 C3011 1.398 . S
C3012 C3013 1.391 . S
C3013 H3001 0.950 . S
C3013 C3009 1.393 . S
C3013 C3012 1.391 . S
C3014 H3004 0.950 . S
C3014 C3015 1.386 . S
C3014 C3016 1.391 . S
C3015 C3014 1.386 . S
C3015 C3019 1.393 . S
C3016 H3005 0.950 . S
C3016 C3014 1.391 . S
C3016 C3017 1.400 . S
C3017 C3011 1.491 . S
C3017 C3016 1.400 . S
C3017 C3018 1.398 . S
C3018 H3006 0.950 . S
C3018 C3017 1.398 . S
C3018 C3019 1.391 . S
C3019 H3007 0.950 . S
C3019 C3015 1.393 . S
C3019 C3018 1.391 . S
H3020 C3028 0.950 . S
H3021 C3033 0.950 . S
H3022 C3030 0.950 . S
H3023 C3032 0.950 . S
H3024 C3034 0.950 . S
H3025 C3036 0.950 . S
H3026 C3038 0.950 . S
H3027 C3039 0.950 . S
C3028 H3020 0.950 . S
C3028 C3029 1.386 . S
C3028 C3030 1.391 . S
C3029 C3028 1.386 . S
C3029 C3033 1.393 . S
C3030 H3022 0.950 . S
C3030 C3028 1.391 . S
C3030 C3031 1.400 . S
C3031 C3030 1.400 . S
C3031 C3032 1.398 . S
C3031 C3037 1.491 . S
C3032 H3023 0.950 . S
C3032 C3031 1.398 . S
C3032 C3033 1.391 . S
C3033 H3021 0.950 . S
C3033 C3029 1.393 . S
C3033 C3032 1.391 . S
C3034 H3024 0.950 . S
C3034 C3035 1.386 . S
C3034 C3036 1.391 . S
C3035 C3034 1.386 . S
C3035 C3039 1.393 . S
C3036 H3025 0.950 . S
C3036 C3034 1.391 . S
C3036 C3037 1.400 . S
C3037 C3031 1.491 . S
C3037 C3036 1.400 . S
C3037 C3038 1.398 . S
C3038 H3026 0.950 . S
C3038 C3037 1.398 . S
C3038 C3039 1.391 . S
C3039 H3027 0.950 . S
C3039 C3035 1.393 . S
C3039 C3038 1.391 . S
H3040 C3048 0.950 . S
H3041 C3053 0.950 . S
H3042 C3050 0.950 . S
H3043 C3052 0.950 . S
H3044 C3054 0.950 . S
H3045 C3056 0.950 . S
H3046 C3058 0.950 . S
H3047 C3059 0.950 . S
C3048 H3040 0.950 . S
C3048 C3049 1.386 . S
C3048 C3050 1.391 . S
C3049 C3048 1.386 . S
C3049 C3053 1.393 . S
C3050 H3042 0.950 . S
C3050 C3048 1.391 . S
C3050 C3051 1.400 . S
C3051 C3050 1.400 . S
C3051 C3052 1.398 . S
C3051 C3057 1.491 . S
C3052 H3043 0.950 . S
C3052 C3051 1.398 . S
C3052 C3053 1.391 . S
C3053 H3041 0.950 . S
C3053 C3049 1.393 . S
C3053 C3052 1.391 . S
C3054 H3044 0.950 . S
C3054 C3055 1.386 . S
C3054 C3056 1.391 . S
C3055 C3054 1.386 . S
C3055 C3059 1.393 . S
C3056 H3045 0.950 . S
C3056 C3054 1.391 . S
C3056 C3057 1.400 . S
C3057 C3051 1.491 . S
C3057 C3056 1.400 . S
C3057 C3058 1.398 . S
C3058 H3046 0.950 . S
C3058 C3057 1.398 . S
C3058 C3059 1.391 . S
C3059 H3047 0.950 . S
C3059 C3055 1.393 . S
C3059 C3058 1.391 . S
H3060 C3068 0.950 . S
H3061 C3073 0.950 . S
H3062 C3070 0.950 . S
H3063 C3072 0.950 . S
H3064 C3074 0.950 . S
H3065 C3076 0.950 . S
H3066 C3078 0.950 . S
H3067 C3079 0.950 . S
C3068 H3060 0.950 . S
C3068 C3069 1.386 . S
C3068 C3070 1.391 . S
C3069 C3068 1.386 . S
C3069 C3073 1.393 . S
C3070 H3062 0.950 . S
C3070 C3068 1.391 . S
C3070 C3071 1.400 . S
C3071 C3070 1.400 . S
C3071 C3072 1.398 . S
C3071 C3077 1.491 . S
C3072 H3063 0.950 . S
C3072 C3071 1.398 . S
C3072 C3073 1.391 . S
C3073 H3061 0.950 . S
C3073 C3069 1.393 . S
C3073 C3072 1.391 . S
C3074 H3064 0.950 . S
C3074 C3075 1.386 . S
C3074 C3076 1.391 . S
C3075 C3074 1.386 . S
C3075 C3079 1.393 . S
C3076 H3065 0.950 . S
C3076 C3074 1.391 . S
C3076 C3077 1.400 . S
C3077 C3071 1.491 . S
C3077 C3076 1.400 . S
C3077 C3078 1.398 . S
C3078 H3066 0.950 . S
C3078 C3077 1.398 . S
C3078 C3079 1.391 . S
C3079 H3067 0.950 . S
C3079 C3075 1.393 . S
C3079 C3078 1.391 . S
H3080 C3088 0.950 . S
H3081 C3093 0.950 . S
H3082 C3090 0.950 . S
H3083 C3092 0.950 . S
H3084 C3094 0.950 . S
H3085 C3096 0.950 . S
H3086 C3098 0.950 . S
H3087 C3099 0.950 1_556 S
C3088 H3080 0.950 . S
C3088 C3089 1.386 . S
C3088 C3090 1.391 . S
C3089 C3088 1.386 . S
C3089 C3093 1.393 . S
C3090 H3082 0.950 . S
C3090 C3088 1.391 . S
C3090 C3091 1.400 . S
C3091 C3090 1.400 . S
C3091 C3092 1.398 . S
C3091 C3097 1.491 . S
C3092 H3083 0.950 . S
C3092 C3091 1.398 . S
C3092 C3093 1.391 . S
C3093 H3081 0.950 . S
C3093 C3089 1.393 . S
C3093 C3092 1.391 . S
C3094 H3084 0.950 . S
C3094 C3095 1.386 . S
C3094 C3096 1.391 . S
C3095 C3094 1.386 . S
C3095 C3099 1.393 . S
C3096 H3085 0.950 . S
C3096 C3094 1.391 . S
C3096 C3097 1.400 . S
C3097 C3091 1.491 . S
C3097 C3096 1.400 . S
C3097 C3098 1.398 . S
C3098 H3086 0.950 . S
C3098 C3097 1.398 . S
C3098 C3099 1.391 . S
C3099 H3087 0.950 1_554 S
C3099 C3095 1.393 . S
C3099 C3098 1.391 . S
H3100 C3108 0.950 . S
H3101 C3113 0.950 . S
H3102 C3110 0.950 . S
H3103 C3112 0.950 . S
H3104 C3114 0.950 1_556 S
H3105 C3116 0.950 . S
H3106 C3118 0.950 . S
H3107 C3119 0.950 . S
C3108 H3100 0.950 . S
C3108 C3109 1.386 . S
C3108 C3110 1.391 . S
C3109 C3108 1.386 . S
C3109 C3113 1.393 . S
C3110 H3102 0.950 . S
C3110 C3108 1.391 . S
C3110 C3111 1.400 . S
C3111 C3110 1.400 . S
C3111 C3112 1.398 . S
C3111 C3117 1.491 . S
C3112 H3103 0.950 . S
C3112 C3111 1.398 . S
C3112 C3113 1.391 . S
C3113 H3101 0.950 . S
C3113 C3109 1.393 . S
C3113 C3112 1.391 . S
C3114 H3104 0.950 1_554 S
C3114 C3115 1.386 . S
C3114 C3116 1.391 . S
C3115 C3114 1.386 . S
C3115 C3119 1.393 . S
C3116 H3105 0.950 . S
C3116 C3114 1.391 . S
C3116 C3117 1.400 . S
C3117 C3111 1.491 . S
C3117 C3116 1.400 . S
C3117 C3118 1.398 . S
C3118 H3106 0.950 . S
C3118 C3117 1.398 . S
C3118 C3119 1.391 . S
C3119 H3107 0.950 . S
C3119 C3115 1.393 . S
C3119 C3118 1.391 . S
H3120 C3128 0.950 . S
H3121 C3133 0.950 . S
H3122 C3130 0.950 . S
H3123 C3132 0.950 . S
H3124 C3134 0.950 . S
H3125 C3136 0.950 . S
H3126 C3138 0.950 . S
H3127 C3139 0.950 . S
C3128 H3120 0.950 . S
C3128 C3129 1.386 . S
C3128 C3130 1.391 . S
C3129 C3128 1.386 . S
C3129 C3133 1.393 . S
C3130 H3122 0.950 . S
C3130 C3128 1.391 . S
C3130 C3131 1.400 . S
C3131 C3130 1.400 . S
C3131 C3132 1.398 . S
C3131 C3137 1.491 . S
C3132 H3123 0.950 . S
C3132 C3131 1.398 . S
C3132 C3133 1.391 . S
C3133 H3121 0.950 . S
C3133 C3129 1.393 . S
C3133 C3132 1.391 . S
C3134 H3124 0.950 . S
C3134 C3135 1.386 . S
C3134 C3136 1.391 . S
C3135 C3134 1.386 . S
C3135 C3139 1.393 . S
C3136 H3125 0.950 . S
C3136 C3134 1.391 . S
C3136 C3137 1.400 . S
C3137 C3131 1.491 . S
C3137 C3136 1.400 . S
C3137 C3138 1.398 . S
C3138 H3126 0.950 . S
C3138 C3137 1.398 . S
C3138 C3139 1.391 . S
C3139 H3127 0.950 . S
C3139 C3135 1.393 . S
C3139 C3138 1.391 . S
H3140 C3148 0.950 . S
H3141 C3153 0.950 1_554 S
H3142 C3150 0.950 . S
H3143 C3152 0.950 . S
H3144 C3154 0.950 . S
H3145 C3156 0.950 . S
H3146 C3158 0.950 . S
H3147 C3159 0.950 . S
C3148 H3140 0.950 . S
C3148 C3149 1.386 . S
C3148 C3150 1.391 . S
C3149 C3148 1.386 . S
C3149 C3153 1.393 . S
C3150 H3142 0.950 . S
C3150 C3148 1.391 . S
C3150 C3151 1.400 . S
C3151 C3150 1.400 . S
C3151 C3152 1.398 . S
C3151 C3157 1.491 . S
C3152 H3143 0.950 . S
C3152 C3151 1.398 . S
C3152 C3153 1.391 . S
C3153 H3141 0.950 1_556 S
C3153 C3149 1.393 . S
C3153 C3152 1.391 . S
C3154 H3144 0.950 . S
C3154 C3155 1.386 . S
C3154 C3156 1.391 . S
C3155 C3154 1.386 . S
C3155 C3159 1.393 . S
C3156 H3145 0.950 . S
C3156 C3154 1.391 . S
C3156 C3157 1.400 . S
C3157 C3151 1.491 . S
C3157 C3156 1.400 . S
C3157 C3158 1.398 . S
C3158 H3146 0.950 . S
C3158 C3157 1.398 . S
C3158 C3159 1.391 . S
C3159 H3147 0.950 . S
C3159 C3155 1.393 . S
C3159 C3158 1.391 . S
H3160 C3168 0.950 . S
H3161 C3173 0.950 1_554 S
H3162 C3170 0.950 . S
H3163 C3172 0.950 . S
H3164 C3174 0.950 . S
H3165 C3176 0.950 . S
H3166 C3178 0.950 . S
H3167 C3179 0.950 . S
C3168 H3160 0.950 . S
C3168 C3169 1.386 . S
C3168 C3170 1.391 . S
C3169 C3168 1.386 . S
C3169 C3173 1.393 . S
C3170 H3162 0.950 . S
C3170 C3168 1.391 . S
C3170 C3171 1.400 . S
C3171 C3170 1.400 . S
C3171 C3172 1.398 . S
C3171 C3177 1.491 . S
C3172 H3163 0.950 . S
C3172 C3171 1.398 . S
C3172 C3173 1.391 . S
C3173 H3161 0.950 1_556 S
C3173 C3169 1.393 . S
C3173 C3172 1.391 . S
C3174 H3164 0.950 . S
C3174 C3175 1.386 . S
C3174 C3176 1.391 . S
C3175 C3174 1.386 . S
C3175 C3179 1.393 . S
C3176 H3165 0.950 . S
C3176 C3174 1.391 . S
C3176 C3177 1.400 . S
C3177 C3171 1.491 . S
C3177 C3176 1.400 . S
C3177 C3178 1.398 . S
C3178 H3166 0.950 . S
C3178 C3177 1.398 . S
C3178 C3179 1.391 . S
C3179 H3167 0.950 . S
C3179 C3175 1.393 . S
C3179 C3178 1.391 . S
H3180 C3188 0.950 . S
H3181 C3193 0.950 . S
H3182 C3190 0.950 . S
H3183 C3192 0.950 . S
H3184 C3194 0.950 . S
H3185 C3196 0.950 . S
H3186 C3198 0.950 . S
H3187 C3199 0.950 . S
C3188 H3180 0.950 . S
C3188 C3189 1.386 . S
C3188 C3190 1.391 . S
C3189 C3188 1.386 . S
C3189 C3193 1.393 . S
C3190 H3182 0.950 . S
C3190 C3188 1.391 . S
C3190 C3191 1.400 . S
C3191 C3190 1.400 . S
C3191 C3192 1.398 . S
C3191 C3197 1.491 . S
C3192 H3183 0.950 . S
C3192 C3191 1.398 . S
C3192 C3193 1.391 . S
C3193 H3181 0.950 . S
C3193 C3189 1.393 . S
C3193 C3192 1.391 . S
C3194 H3184 0.950 . S
C3194 C3195 1.386 . S
C3194 C3196 1.391 . S
C3195 C3194 1.386 . S
C3195 C3199 1.393 . S
C3196 H3185 0.950 . S
C3196 C3194 1.391 . S
C3196 C3197 1.400 . S
C3197 C3191 1.491 . S
C3197 C3196 1.400 . S
C3197 C3198 1.398 . S
C3198 H3186 0.950 . S
C3198 C3197 1.398 . S
C3198 C3199 1.391 . S
C3199 H3187 0.950 . S
C3199 C3195 1.393 . S
C3199 C3198 1.391 . S
H3200 C3208 0.950 . S
H3201 C3213 0.950 . S
H3202 C3210 0.950 . S
H3203 C3212 0.950 . S
H3204 C3214 0.950 . S
H3205 C3216 0.950 . S
H3206 C3218 0.950 . S
H3207 C3219 0.950 . S
C3208 H3200 0.950 . S
C3208 C3209 1.386 . S
C3208 C3210 1.391 . S
C3209 C3208 1.386 . S
C3209 C3213 1.393 . S
C3210 H3202 0.950 . S
C3210 C3208 1.391 . S
C3210 C3211 1.400 . S
C3211 C3210 1.400 . S
C3211 C3212 1.398 . S
C3211 C3217 1.491 . S
C3212 H3203 0.950 . S
C3212 C3211 1.398 . S
C3212 C3213 1.391 . S
C3213 H3201 0.950 . S
C3213 C3209 1.393 . S
C3213 C3212 1.391 . S
C3214 H3204 0.950 . S
C3214 C3215 1.386 . S
C3214 C3216 1.391 . S
C3215 C3214 1.386 . S
C3215 C3219 1.393 . S
C3216 H3205 0.950 . S
C3216 C3214 1.391 . S
C3216 C3217 1.400 . S
C3217 C3211 1.491 . S
C3217 C3216 1.400 . S
C3217 C3218 1.398 . S
C3218 H3206 0.950 . S
C3218 C3217 1.398 . S
C3218 C3219 1.391 . S
C3219 H3207 0.950 . S
C3219 C3215 1.393 . S
C3219 C3218 1.391 . S
H3220 C3228 0.950 . S
H3221 C3233 0.950 . S
H3222 C3230 0.950 . S
H3223 C3232 0.950 . S
H3224 C3234 0.950 . S
H3225 C3236 0.950 . S
H3226 C3238 0.950 . S
H3227 C3239 0.950 . S
C3228 H3220 0.950 . S
C3228 C3229 1.386 . S
C3228 C3230 1.391 . S
C3229 C3228 1.386 . S
C3229 C3233 1.393 . S
C3230 H3222 0.950 . S
C3230 C3228 1.391 . S
C3230 C3231 1.400 . S
C3231 C3230 1.400 . S
C3231 C3232 1.398 . S
C3231 C3237 1.491 . S
C3232 H3223 0.950 . S
C3232 C3231 1.398 . S
C3232 C3233 1.391 . S
C3233 H3221 0.950 . S
C3233 C3229 1.393 . S
C3233 C3232 1.391 . S
C3234 H3224 0.950 . S
C3234 C3235 1.386 . S
C3234 C3236 1.391 . S
C3235 C3234 1.386 . S
C3235 C3239 1.393 . S
C3236 H3225 0.950 . S
C3236 C3234 1.391 . S
C3236 C3237 1.400 . S
C3237 C3231 1.491 . S
C3237 C3236 1.400 . S
C3237 C3238 1.398 . S
C3238 H3226 0.950 . S
C3238 C3237 1.398 . S
C3238 C3239 1.391 . S
C3239 H3227 0.950 . S
C3239 C3235 1.393 . S
C3239 C3238 1.391 . S
H3240 C3248 0.950 . S
H3241 C3253 0.950 . S
H3242 C3250 0.950 . S
H3243 C3252 0.950 . S
H3244 C3254 0.950 . S
H3245 C3256 0.950 . S
H3246 C3258 0.950 . S
H3247 C3259 0.950 . S
C3248 H3240 0.950 . S
C3248 C3249 1.386 . S
C3248 C3250 1.391 . S
C3249 C3248 1.386 . S
C3249 C3253 1.393 . S
C3250 H3242 0.950 . S
C3250 C3248 1.391 . S
C3250 C3251 1.400 . S
C3251 C3250 1.400 . S
C3251 C3252 1.398 . S
C3251 C3257 1.491 . S
C3252 H3243 0.950 . S
C3252 C3251 1.398 . S
C3252 C3253 1.391 . S
C3253 H3241 0.950 . S
C3253 C3249 1.393 . S
C3253 C3252 1.391 . S
C3254 H3244 0.950 . S
C3254 C3255 1.386 . S
C3254 C3256 1.391 . S
C3255 C3254 1.386 . S
C3255 C3259 1.393 . S
C3256 H3245 0.950 . S
C3256 C3254 1.391 . S
C3256 C3257 1.400 . S
C3257 C3251 1.491 . S
C3257 C3256 1.400 . S
C3257 C3258 1.398 . S
C3258 H3246 0.950 . S
C3258 C3257 1.398 . S
C3258 C3259 1.391 . S
C3259 H3247 0.950 . S
C3259 C3255 1.393 . S
C3259 C3258 1.391 . S
H3260 C3268 0.950 . S
H3261 C3273 0.950 . S
H3262 C3270 0.950 . S
H3263 C3272 0.950 . S
H3264 C3274 0.950 . S
H3265 C3276 1.007 . S
H3266 C3278 0.950 . S
H3267 C3279 0.950 . S
C3268 H3260 0.950 . S
C3268 C3269 1.386 . S
C3268 C3270 1.391 . S
C3269 C3268 1.386 . S
C3269 C3273 1.393 . S
C3270 H3262 0.950 . S
C3270 C3268 1.391 . S
C3270 C3271 1.400 . S
C3271 C3270 1.400 . S
C3271 C3272 1.398 . S
C3271 C3277 1.491 . S
C3272 H3263 0.950 . S
C3272 C3271 1.398 . S
C3272 C3273 1.391 . S
C3273 H3261 0.950 . S
C3273 C3269 1.393 . S
C3273 C3272 1.391 . S
C3274 H3264 0.950 . S
C3274 C3275 1.408 . S
C3274 C3276 1.393 . S
C3275 C3274 1.408 . S
C3275 C3279 1.371 1_545 S
C3276 H3265 1.007 . S
C3276 C3274 1.393 . S
C3276 C3277 1.345 1_545 S
C3277 C3271 1.491 . S
C3277 C3276 1.345 1_565 S
C3277 C3278 1.398 . S
C3278 H3266 0.950 . S
C3278 C3277 1.398 . S
C3278 C3279 1.391 . S
C3279 H3267 0.950 . S
C3279 C3275 1.371 1_565 S
C3279 C3278 1.391 . S
H3280 C3288 0.950 . S
H3281 C3293 0.950 . S
H3282 C3290 0.950 . S
H3283 C3292 0.958 1_655 S
H3284 C3294 0.950 . S
H3285 C3296 0.950 . S
H3286 C3298 0.950 . S
H3287 C3299 0.950 . S
C3288 H3280 0.950 . S
C3288 C3289 1.373 1_455 S
C3288 C3290 1.391 . S
C3289 C3288 1.373 1_655 S
C3289 C3293 1.392 . S
C3290 H3282 0.950 . S
C3290 C3288 1.391 . S
C3290 C3291 1.400 . S
C3291 C3290 1.400 . S
C3291 C3292 1.452 . S
C3291 C3297 1.491 . S
C3292 H3283 0.958 1_455 S
C3292 C3291 1.452 . S
C3292 C3293 1.333 1_455 S
C3293 H3281 0.950 . S
C3293 C3289 1.392 . S
C3293 C3292 1.333 1_655 S
C3294 H3284 0.950 . S
C3294 C3295 1.386 . S
C3294 C3296 1.391 . S
C3295 C3294 1.386 . S
C3295 C3299 1.393 . S
C3296 H3285 0.950 . S
C3296 C3294 1.391 . S
C3296 C3297 1.400 . S
C3297 C3291 1.491 . S
C3297 C3296 1.400 . S
C3297 C3298 1.398 . S
C3298 H3286 0.950 . S
C3298 C3297 1.398 . S
C3298 C3299 1.391 . S
C3299 H3287 0.950 . S
C3299 C3295 1.393 . S
C3299 C3298 1.391 . S
H3300 C3308 0.950 . S
H3301 C3313 0.950 . S
H3302 C3310 0.950 . S
H3303 C3312 0.950 . S
H3304 C3314 0.950 . S
H3305 C3316 0.950 . S
H3306 C3318 0.950 . S
H3307 C3319 0.950 . S
C3308 H3300 0.950 . S
C3308 C3309 1.386 . S
C3308 C3310 1.391 . S
C3309 C3308 1.386 . S
C3309 C3313 1.393 . S
C3310 H3302 0.950 . S
C3310 C3308 1.391 . S
C3310 C3311 1.400 . S
C3311 C3310 1.400 . S
C3311 C3312 1.398 . S
C3311 C3317 1.491 . S
C3312 H3303 0.950 . S
C3312 C3311 1.398 . S
C3312 C3313 1.391 . S
C3313 H3301 0.950 . S
C3313 C3309 1.393 . S
C3313 C3312 1.391 . S
C3314 H3304 0.950 . S
C3314 C3315 1.386 . S
C3314 C3316 1.391 . S
C3315 C3314 1.386 . S
C3315 C3319 1.393 . S
C3316 H3305 0.950 . S
C3316 C3314 1.391 . S
C3316 C3317 1.400 . S
C3317 C3311 1.491 . S
C3317 C3316 1.400 . S
C3317 C3318 1.398 . S
C3318 H3306 0.950 . S
C3318 C3317 1.398 . S
C3318 C3319 1.391 . S
C3319 H3307 0.950 . S
C3319 C3315 1.393 . S
C3319 C3318 1.391 . S
H3320 C3328 0.950 . S
H3321 C3333 0.950 . S
H3322 C3330 0.954 . S
H3323 C3332 0.950 . S
H3324 C3334 0.950 . S
H3325 C3336 0.950 . S
H3326 C3338 0.950 . S
H3327 C3339 0.950 . S
C3328 H3320 0.950 . S
C3328 C3329 1.387 . S
C3328 C3330 1.447 . S
C3329 C3328 1.387 . S
C3329 C3333 1.366 1_565 S
C3330 H3322 0.954 . S
C3330 C3328 1.447 . S
C3330 C3331 1.344 1_565 S
C3331 C3330 1.344 1_545 S
C3331 C3332 1.398 . S
C3331 C3337 1.491 . S
C3332 H3323 0.950 . S
C3332 C3331 1.398 . S
C3332 C3333 1.391 . S
C3333 H3321 0.950 . S
C3333 C3329 1.366 1_545 S
C3333 C3332 1.391 . S
C3334 H3324 0.950 . S
C3334 C3335 1.386 . S
C3334 C3336 1.391 . S
C3335 C3334 1.386 . S
C3335 C3339 1.393 . S
C3336 H3325 0.950 . S
C3336 C3334 1.391 . S
C3336 C3337 1.400 . S
C3337 C3331 1.491 . S
C3337 C3336 1.400 . S
C3337 C3338 1.398 . S
C3338 H3326 0.950 . S
C3338 C3337 1.398 . S
C3338 C3339 1.391 . S
C3339 H3327 0.950 . S
C3339 C3335 1.393 . S
C3339 C3338 1.391 . S
H3340 C3348 0.950 . S
H3341 C3353 0.950 1_455 S
H3342 C3350 0.950 . S
H3343 C3352 0.950 . S
H3344 C3354 0.950 . S
H3345 C3356 0.950 . S
H3346 C3358 0.950 . S
H3347 C3359 0.950 . S
C3348 H3340 0.950 . S
C3348 C3349 1.393 1_655 S
C3348 C3350 1.391 . S
C3349 C3348 1.393 1_455 S
C3349 C3353 1.392 1_455 S
C3350 H3342 0.950 . S
C3350 C3348 1.391 . S
C3350 C3351 1.400 . S
C3351 C3350 1.400 . S
C3351 C3352 1.398 . S
C3351 C3357 1.491 . S
C3352 H3343 0.950 . S
C3352 C3351 1.398 . S
C3352 C3353 1.391 . S
C3353 H3341 0.950 1_655 S
C3353 C3349 1.392 1_655 S
C3353 C3352 1.391 . S
C3354 H3344 0.950 . S
C3354 C3355 1.386 . S
C3354 C3356 1.391 . S
C3355 C3354 1.386 . S
C3355 C3359 1.393 . S
C3356 H3345 0.950 . S
C3356 C3354 1.391 . S
C3356 C3357 1.400 . S
C3357 C3351 1.491 . S
C3357 C3356 1.400 . S
C3357 C3358 1.398 . S
C3358 H3346 0.950 . S
C3358 C3357 1.398 . S
C3358 C3359 1.391 . S
C3359 H3347 0.950 . S
C3359 C3355 1.393 . S
C3359 C3358 1.391 . S
H3360 C3368 0.950 . S
H3361 C3373 0.950 . S
H3362 C3370 0.950 . S
H3363 C3372 0.950 . S
H3364 C3374 0.950 . S
H3365 C3376 0.950 . S
H3366 C3378 0.950 . S
H3367 C3379 0.950 . S
C3368 H3360 0.950 . S
C3368 C3369 1.386 . S
C3368 C3370 1.391 . S
C3369 C3368 1.386 . S
C3369 C3373 1.393 . S
C3370 H3362 0.950 . S
C3370 C3368 1.391 . S
C3370 C3371 1.400 . S
C3371 C3370 1.400 . S
C3371 C3372 1.398 . S
C3371 C3377 1.491 . S
C3372 H3363 0.950 . S
C3372 C3371 1.398 . S
C3372 C3373 1.391 . S
C3373 H3361 0.950 . S
C3373 C3369 1.393 . S
C3373 C3372 1.391 . S
C3374 H3364 0.950 . S
C3374 C3375 1.386 . S
C3374 C3376 1.391 . S
C3375 C3374 1.386 . S
C3375 C3379 1.393 . S
C3376 H3365 0.950 . S
C3376 C3374 1.391 . S
C3376 C3377 1.400 . S
C3377 C3371 1.491 . S
C3377 C3376 1.400 . S
C3377 C3378 1.398 . S
C3378 H3366 0.950 . S
C3378 C3377 1.398 . S
C3378 C3379 1.391 . S
C3379 H3367 0.950 . S
C3379 C3375 1.393 . S
C3379 C3378 1.391 . S
H3380 C3388 0.950 . S
H3381 C3393 0.950 . S
H3382 C3390 0.950 . S
H3383 C3392 0.950 . S
H3384 C3394 0.950 . S
H3385 C3396 0.950 . S
H3386 C3398 0.950 . S
H3387 C3399 0.950 . S
C3388 H3380 0.950 . S
C3388 C3389 1.386 . S
C3388 C3390 1.391 . S
C3389 C3388 1.386 . S
C3389 C3393 1.392 . S
C3390 H3382 0.950 . S
C3390 C3388 1.391 . S
C3390 C3391 1.400 . S
C3391 C3390 1.400 . S
C3391 C3392 1.398 . S
C3391 C3397 1.491 . S
C3392 H3383 0.950 . S
C3392 C3391 1.398 . S
C3392 C3393 1.391 . S
C3393 H3381 0.950 . S
C3393 C3389 1.392 . S
C3393 C3392 1.391 . S
C3394 H3384 0.950 . S
C3394 C3395 1.386 . S
C3394 C3396 1.391 . S
C3395 C3394 1.386 . S
C3395 C3399 1.393 . S
C3396 H3385 0.950 . S
C3396 C3394 1.391 . S
C3396 C3397 1.400 . S
C3397 C3391 1.491 . S
C3397 C3396 1.400 . S
C3397 C3398 1.398 . S
C3398 H3386 0.950 . S
C3398 C3397 1.398 . S
C3398 C3399 1.391 . S
C3399 H3387 0.950 . S
C3399 C3395 1.393 . S
C3399 C3398 1.391 . S
H3400 C3408 0.950 . S
H3401 C3413 0.950 . S
H3402 C3410 0.950 . S
H3403 C3412 0.950 . S
H3404 C3414 0.950 . S
H3405 C3416 0.950 . S
H3406 C3418 0.956 . S
H3407 C3419 0.950 . S
C3408 H3400 0.950 . S
C3408 C3409 1.386 . S
C3408 C3410 1.391 . S
C3409 C3408 1.386 . S
C3409 C3413 1.393 . S
C3410 H3402 0.950 . S
C3410 C3408 1.391 . S
C3410 C3411 1.400 . S
C3411 C3410 1.400 . S
C3411 C3412 1.398 . S
C3411 C3417 1.491 . S
C3412 H3403 0.950 . S
C3412 C3411 1.398 . S
C3412 C3413 1.391 . S
C3413 H3401 0.950 . S
C3413 C3409 1.393 . S
C3413 C3412 1.391 . S
C3414 H3404 0.950 . S
C3414 C3415 1.346 1_655 S
C3414 C3416 1.391 . S
C3415 C3414 1.346 1_455 S
C3415 C3419 1.395 . S
C3416 H3405 0.950 . S
C3416 C3414 1.391 . S
C3416 C3417 1.400 . S
C3417 C3411 1.491 . S
C3417 C3416 1.400 . S
C3417 C3418 1.336 1_655 S
C3418 H3406 0.956 . S
C3418 C3417 1.336 1_455 S
C3418 C3419 1.450 . S
C3419 H3407 0.950 . S
C3419 C3415 1.395 . S
C3419 C3418 1.450 . S
H3420 C3428 0.950 . S
H3421 C3433 0.950 . S
H3422 C3430 0.950 . S
H3423 C3432 0.950 . S
H3424 C3434 0.950 . S
H3425 C3436 0.950 . S
H3426 C3438 0.950 . S
H3427 C3439 0.950 . S
C3428 H3420 0.950 . S
C3428 C3429 1.386 . S
C3428 C3430 1.391 . S
C3429 C3428 1.386 . S
C3429 C3433 1.393 . S
C3430 H3422 0.950 . S
C3430 C3428 1.391 . S
C3430 C3431 1.400 . S
C3431 C3430 1.400 . S
C3431 C3432 1.398 . S
C3431 C3437 1.491 . S
C3432 H3423 0.950 . S
C3432 C3431 1.398 . S
C3432 C3433 1.391 . S
C3433 H3421 0.950 . S
C3433 C3429 1.393 . S
C3433 C3432 1.391 . S
C3434 H3424 0.950 . S
C3434 C3435 1.386 . S
C3434 C3436 1.391 . S
C3435 C3434 1.386 . S
C3435 C3439 1.393 . S
C3436 H3425 0.950 . S
C3436 C3434 1.391 . S
C3436 C3437 1.400 . S
C3437 C3431 1.491 . S
C3437 C3436 1.400 . S
C3437 C3438 1.398 . S
C3438 H3426 0.950 . S
C3438 C3437 1.398 . S
C3438 C3439 1.391 . S
C3439 H3427 0.950 . S
C3439 C3435 1.393 . S
C3439 C3438 1.391 . S
H3440 C3448 0.950 . S
H3441 C3453 0.950 . S
H3442 C3450 0.950 . S
H3443 C3452 0.950 . S
H3444 C3454 0.950 . S
H3445 C3456 0.950 . S
H3446 C3458 0.950 1_545 S
H3447 C3459 0.950 . S
C3448 H3440 0.950 . S
C3448 C3449 1.386 . S
C3448 C3450 1.391 . S
C3449 C3448 1.386 . S
C3449 C3453 1.393 . S
C3450 H3442 0.950 . S
C3450 C3448 1.391 . S
C3450 C3451 1.400 . S
C3451 C3450 1.400 . S
C3451 C3452 1.398 . S
C3451 C3457 1.491 . S
C3452 H3443 0.950 . S
C3452 C3451 1.398 . S
C3452 C3453 1.391 . S
C3453 H3441 0.950 . S
C3453 C3449 1.393 . S
C3453 C3452 1.391 . S
C3454 H3444 0.950 . S
C3454 C3455 1.367 1_565 S
C3454 C3456 1.391 . S
C3455 C3454 1.367 1_545 S
C3455 C3459 1.392 . S
C3456 H3445 0.950 . S
C3456 C3454 1.391 . S
C3456 C3457 1.400 . S
C3457 C3451 1.491 . S
C3457 C3456 1.400 . S
C3457 C3458 1.397 . S
C3458 H3446 0.950 1_565 S
C3458 C3457 1.397 . S
C3458 C3459 1.392 1_565 S
C3459 H3447 0.950 . S
C3459 C3455 1.392 . S
C3459 C3458 1.392 1_545 S
H3460 C3468 0.950 . S
H3461 C3473 0.950 . S
H3462 C3470 0.950 . S
H3463 C3472 0.950 . S
H3464 C3474 0.950 . S
H3465 C3476 0.950 . S
H3466 C3478 0.950 1_655 S
H3467 C3479 0.950 . S
C3468 H3460 0.950 . S
C3468 C3469 1.386 . S
C3468 C3470 1.391 . S
C3469 C3468 1.386 . S
C3469 C3473 1.393 . S
C3470 H3462 0.950 . S
C3470 C3468 1.391 . S
C3470 C3471 1.400 . S
C3471 C3470 1.400 . S
C3471 C3472 1.398 . S
C3471 C3477 1.491 . S
C3472 H3463 0.950 . S
C3472 C3471 1.398 . S
C3472 C3473 1.391 . S
C3473 H3461 0.950 . S
C3473 C3469 1.393 . S
C3473 C3472 1.391 . S
C3474 H3464 0.950 . S
C3474 C3475 1.379 1_455 S
C3474 C3476 1.391 . S
C3475 C3474 1.379 1_655 S
C3475 C3479 1.400 . S
C3476 H3465 0.950 . S
C3476 C3474 1.391 . S
C3476 C3477 1.400 . S
C3477 C3471 1.491 . S
C3477 C3476 1.400 . S
C3477 C3478 1.398 . S
C3478 H3466 0.950 1_455 S
C3478 C3477 1.398 . S
C3478 C3479 1.391 1_455 S
C3479 H3467 0.950 . S
C3479 C3475 1.400 . S
C3479 C3478 1.391 1_655 S
H3480 C3488 0.950 . S
H3481 C3493 0.950 . S
H3482 C3490 0.950 . S
H3483 C3492 0.950 . S
H3484 C3494 0.950 . S
H3485 C3496 0.950 . S
H3486 C3498 0.950 . S
H3487 C3499 0.950 . S
C3488 H3480 0.950 . S
C3488 C3489 1.386 . S
C3488 C3490 1.391 . S
C3489 C3488 1.386 . S
C3489 C3493 1.393 . S
C3490 H3482 0.950 . S
C3490 C3488 1.391 . S
C3490 C3491 1.400 . S
C3491 C3490 1.400 . S
C3491 C3492 1.398 . S
C3491 C3497 1.491 1_655 S
C3492 H3483 0.950 . S
C3492 C3491 1.398 . S
C3492 C3493 1.391 . S
C3493 H3481 0.950 . S
C3493 C3489 1.393 . S
C3493 C3492 1.391 . S
C3494 H3484 0.950 . S
C3494 C3495 1.386 . S
C3494 C3496 1.391 . S
C3495 C3494 1.386 . S
C3495 C3499 1.393 . S
C3496 H3485 0.950 . S
C3496 C3494 1.391 . S
C3496 C3497 1.400 . S
C3497 C3491 1.491 1_455 S
C3497 C3496 1.400 . S
C3497 C3498 1.398 . S
C3498 H3486 0.950 . S
C3498 C3497 1.398 . S
C3498 C3499 1.391 . S
C3499 H3487 0.950 . S
C3499 C3495 1.393 . S
C3499 C3498 1.391 . S
H3500 C3508 0.950 . S
H3501 C3513 0.950 . S
H3502 C3510 0.950 . S
H3503 C3512 0.950 . S
H3504 C3514 0.950 . S
H3505 C3516 0.950 . S
H3506 C3518 0.950 . S
H3507 C3519 0.950 . S
C3508 H3500 0.950 . S
C3508 C3509 1.386 . S
C3508 C3510 1.391 . S
C3509 C3508 1.386 . S
C3509 C3513 1.393 . S
C3510 H3502 0.950 . S
C3510 C3508 1.391 . S
C3510 C3511 1.400 . S
C3511 C3510 1.400 . S
C3511 C3512 1.398 . S
C3511 C3517 1.491 . S
C3512 H3503 0.950 . S
C3512 C3511 1.398 . S
C3512 C3513 1.391 . S
C3513 H3501 0.950 . S
C3513 C3509 1.393 . S
C3513 C3512 1.391 . S
C3514 H3504 0.950 . S
C3514 C3515 1.386 . S
C3514 C3516 1.391 . S
C3515 C3514 1.386 . S
C3515 C3519 1.393 . S
C3516 H3505 0.950 . S
C3516 C3514 1.391 . S
C3516 C3517 1.400 . S
C3517 C3511 1.491 . S
C3517 C3516 1.400 . S
C3517 C3518 1.398 . S
C3518 H3506 0.950 . S
C3518 C3517 1.398 . S
C3518 C3519 1.391 . S
C3519 H3507 0.950 . S
C3519 C3515 1.393 . S
C3519 C3518 1.391 . S
H3520 C3528 0.950 . S
H3521 C3533 0.950 . S
H3522 C3530 0.950 . S
H3523 C3532 0.950 . S
H3524 C3534 0.950 . S
H3525 C3536 0.950 . S
H3526 C3538 0.950 . S
H3527 C3539 0.950 . S
C3528 H3520 0.950 . S
C3528 C3529 1.386 . S
C3528 C3530 1.391 . S
C3529 C3528 1.386 . S
C3529 C3533 1.393 . S
C3530 H3522 0.950 . S
C3530 C3528 1.391 . S
C3530 C3531 1.400 . S
C3531 C3530 1.400 . S
C3531 C3532 1.398 . S
C3531 C3537 1.491 1_545 S
C3532 H3523 0.950 . S
C3532 C3531 1.398 . S
C3532 C3533 1.391 . S
C3533 H3521 0.950 . S
C3533 C3529 1.393 . S
C3533 C3532 1.391 . S
C3534 H3524 0.950 . S
C3534 C3535 1.386 . S
C3534 C3536 1.391 . S
C3535 C3534 1.386 . S
C3535 C3539 1.393 . S
C3536 H3525 0.950 . S
C3536 C3534 1.391 . S
C3536 C3537 1.400 . S
C3537 C3531 1.491 1_565 S
C3537 C3536 1.400 . S
C3537 C3538 1.398 . S
C3538 H3526 0.950 . S
C3538 C3537 1.398 . S
C3538 C3539 1.391 . S
C3539 H3527 0.950 . S
C3539 C3535 1.393 . S
C3539 C3538 1.391 . S
H3540 C3548 0.950 . S
H3541 C3553 0.950 . S
H3542 C3550 0.950 . S
H3543 C3552 0.950 . S
H3544 C3554 0.950 . S
H3545 C3556 0.950 . S
H3546 C3558 0.950 . S
H3547 C3559 0.950 . S
C3548 H3540 0.950 . S
C3548 C3549 1.386 . S
C3548 C3550 1.391 . S
C3549 C3548 1.386 . S
C3549 C3553 1.393 . S
C3550 H3542 0.950 . S
C3550 C3548 1.391 . S
C3550 C3551 1.400 . S
C3551 C3550 1.400 . S
C3551 C3552 1.398 . S
C3551 C3557 1.491 1_545 S
C3552 H3543 0.950 . S
C3552 C3551 1.398 . S
C3552 C3553 1.391 . S
C3553 H3541 0.950 . S
C3553 C3549 1.393 . S
C3553 C3552 1.391 . S
C3554 H3544 0.950 . S
C3554 C3555 1.386 . S
C3554 C3556 1.391 . S
C3555 C3554 1.386 . S
C3555 C3559 1.393 . S
C3556 H3545 0.950 . S
C3556 C3554 1.391 . S
C3556 C3557 1.400 . S
C3557 C3551 1.491 1_565 S
C3557 C3556 1.400 . S
C3557 C3558 1.398 . S
C3558 H3546 0.950 . S
C3558 C3557 1.398 . S
C3558 C3559 1.391 . S
C3559 H3547 0.950 . S
C3559 C3555 1.393 . S
C3559 C3558 1.391 . S
H3560 C3568 0.950 . S
H3561 C3573 0.950 . S
H3562 C3570 0.950 . S
H3563 C3572 0.950 . S
H3564 C3574 0.950 . S
H3565 C3576 0.950 . S
H3566 C3578 0.950 . S
H3567 C3579 0.950 . S
C3568 H3560 0.950 . S
C3568 C3569 1.386 . S
C3568 C3570 1.391 . S
C3569 C3568 1.386 . S
C3569 C3573 1.393 . S
C3570 H3562 0.950 . S
C3570 C3568 1.391 . S
C3570 C3571 1.400 . S
C3571 C3570 1.400 . S
C3571 C3572 1.398 . S
C3571 C3577 1.491 1_655 S
C3572 H3563 0.950 . S
C3572 C3571 1.398 . S
C3572 C3573 1.391 . S
C3573 H3561 0.950 . S
C3573 C3569 1.393 . S
C3573 C3572 1.391 . S
C3574 H3564 0.950 . S
C3574 C3575 1.386 . S
C3574 C3576 1.391 . S
C3575 C3574 1.386 . S
C3575 C3579 1.393 . S
C3576 H3565 0.950 . S
C3576 C3574 1.391 . S
C3576 C3577 1.400 . S
C3577 C3571 1.491 1_455 S
C3577 C3576 1.400 . S
C3577 C3578 1.398 . S
C3578 H3566 0.950 . S
C3578 C3577 1.398 . S
C3578 C3579 1.391 . S
C3579 H3567 0.950 . S
C3579 C3575 1.393 . S
C3579 C3578 1.391 . S
H3580 C3588 0.950 . S
H3581 C3593 0.950 . S
H3582 C3590 0.950 . S
H3583 C3592 0.950 . S
H3584 C3594 0.950 . S
H3585 C3596 0.950 . S
H3586 C3598 0.950 . S
H3587 C3599 0.950 . S
C3588 H3580 0.950 . S
C3588 C3589 1.386 . S
C3588 C3590 1.391 . S
C3589 C3588 1.386 . S
C3589 C3593 1.393 . S
C3590 H3582 0.950 . S
C3590 C3588 1.391 . S
C3590 C3591 1.400 . S
C3591 C3590 1.400 . S
C3591 C3592 1.398 . S
C3591 C3597 1.491 . S
C3592 H3583 0.950 . S
C3592 C3591 1.398 . S
C3592 C3593 1.391 . S
C3593 H3581 0.950 . S
C3593 C3589 1.393 . S
C3593 C3592 1.391 . S
C3594 H3584 0.950 . S
C3594 C3595 1.386 . S
C3594 C3596 1.391 . S
C3595 C3594 1.386 . S
C3595 C3599 1.393 . S
C3596 H3585 0.950 . S
C3596 C3594 1.391 . S
C3596 C3597 1.400 . S
C3597 C3591 1.491 . S
C3597 C3596 1.400 . S
C3597 C3598 1.398 . S
C3598 H3586 0.950 . S
C3598 C3597 1.398 . S
C3598 C3599 1.391 . S
C3599 H3587 0.950 . S
C3599 C3595 1.393 . S
C3599 C3598 1.391 . S
C1449 C25 1.822 . S
C1455 C311 1.835 . S
C1469 C351 1.839 . S
C1475 C65 1.822 . S
C1489 C271 1.837 . S
C1495 C105 1.825 . S
C1509 C471 1.835 . S
C1515 C145 1.814 . S
C1529 C185 1.815 . S
C1535 C391 1.836 . S
C1549 C225 1.816 . S
C1555 C431 1.837 . S
C1569 C60 1.836 . S
C1575 C244 1.823 . S
C1589 C284 1.821 . S
C1595 C100 1.834 . S
C1609 C20 1.838 . S
C1615 C324 1.826 . S
C1629 C220 1.833 . S
C1635 C364 1.818 . S
C1649 C404 1.816 . S
C1655 C140 1.837 . S
C1669 C444 1.826 . S
C1675 C180 1.838 . S
C1689 C505 1.825 . S
C1695 C791 1.837 . S
C1709 C831 1.834 . S
C1715 C545 1.819 . S
C1729 C751 1.840 . S
C1735 C585 1.823 . S
C1749 C625 1.814 . S
C1755 C951 1.834 . S
C1769 C871 1.838 . S
C1775 C665 1.818 . S
C1789 C705 1.826 . S
C1795 C911 1.838 . S
C1809 C724 1.825 . S
C1815 C540 1.837 . S
C1829 C580 1.838 . S
C1835 C764 1.820 . S
C1849 C804 1.826 . S
C1855 C500 1.840 . S
C1869 C700 1.834 . S
C1875 C844 1.814 . S
C1889 C620 1.835 . S
C1895 C884 1.815 . S
C1909 C924 1.815 . S
C1915 C660 1.836 . S
C1929 C985 1.826 . S
C1935 C1271 1.838 . S
C1949 C1025 1.822 . S
C1955 C1311 1.839 . S
C1969 C1231 1.834 . S
C1975 C1065 1.817 . S
C1989 C1431 1.834 . S
C1995 C1105 1.814 . S
C2009 C1145 1.825 . S
C2015 C1351 1.840 . S
C2029 C1391 1.836 . S
C2035 C1185 1.823 . S
C2049 C1020 1.833 . S
C2055 C1204 1.814 . S
C2069 C1244 1.817 . S
C2075 C1060 1.833 . S
C2089 C980 1.834 . S
C2095 C1284 1.820 . S
C2109 C1324 1.825 . S
C2115 C1180 1.839 . S
C2129 C1364 1.819 . S
C2135 C1100 1.839 . S
C2149 C1404 1.825 . S
C2155 C1140 1.837 . S
C2169 C31 2.130 . S
C2175 C740 2.130 . S
C2189 C71 2.126 . S
C2195 C780 2.126 . S
C2209 C820 2.126 . S
C2215 C111 2.126 . S
C2229 C1340 2.123 . S
C2235 C151 2.123 . S
C2249 C1380 2.118 . S
C2255 C191 2.118 . S
C2269 C1420 2.116 . S
C2275 C231 2.116 . S
C2289 C260 2.120 . S
C2295 C991 2.120 . S
C2309 C1031 2.128 . S
C2315 C300 2.128 . S
C2329 C340 2.119 . S
C2335 C1071 2.119 . S
C2349 C380 2.123 . S
C2355 C631 2.123 . S
C2369 C420 2.118 . S
C2375 C671 2.118 . S
C2389 C460 2.118 . S
C2395 C711 2.118 . S
C2409 C511 2.128 . S
C2415 C1220 2.128 . S
C2429 C1260 2.119 . S
C2435 C551 2.119 . S
C2449 C591 2.125 . S
C2455 C1300 2.125 . S
C2469 C1111 2.125 . S
C2475 C860 2.125 . S
C2489 C900 2.117 . S
C2495 C1151 2.117 . S
C2509 C1191 2.129 . S
C2515 C940 2.129 . S
C2529 C2 2.217 1_556 S
C2535 C642 2.205 . S
C2549 C42 2.214 1_556 S
C2555 C682 2.211 . S
C2569 C602 2.216 . S
C2575 C82 2.206 1_556 S
C2589 C122 2.207 . S
C2595 C1042 2.216 . S
C2609 C962 2.193 . S
C2615 C162 2.196 . S
C2629 C202 2.216 . S
C2635 C1002 2.208 . S
C2649 C1383 2.213 . S
C2655 C263 2.212 1_554 S
C2669 C303 2.217 1_554 S
C2675 C1423 2.202 . S
C2689 C1343 2.197 . S
C2695 C343 2.193 1_554 S
C2709 C383 2.216 . S
C2715 C823 2.200 . S
C2729 C423 2.213 . S
C2735 C743 2.194 . S
C2749 C463 2.216 . S
C2755 C783 2.198 . S
C2769 C1122 2.198 . S
C2775 C482 2.193 . S
C2789 C522 2.212 . S
C2795 C1162 2.193 . S
C2809 C562 2.200 . S
C2815 C1082 2.216 . S
C2829 C1303 2.208 . S
C2835 C863 2.215 . S
C2849 C1223 2.216 . S
C2855 C903 2.207 . S
C2869 C1263 2.195 . S
C2875 C943 2.214 . S
C2889 C143 2.638 . S
C2895 C23 2.637 . S
C2909 C63 2.629 . S
C2915 C183 2.629 . S
C2929 C103 2.638 . S
C2935 C223 2.636 . S
C2949 C362 2.631 . S
C2955 C242 2.630 . S
C2969 C282 2.630 . S
C2975 C402 2.629 . S
C2989 C442 2.632 . S
C2995 C322 2.634 . S
C3009 C623 2.638 . S
C3015 C503 2.639 . S
C3029 C543 2.636 . S
C3035 C663 2.638 . S
C3049 C583 2.636 . S
C3055 C703 2.638 . S
C3069 C722 2.639 . S
C3075 C842 2.639 1_554 S
C3089 C762 2.630 . S
C3095 C882 2.632 1_554 S
C3109 C802 2.632 . S
C3115 C922 2.630 1_554 S
C3129 C983 2.639 . S
C3135 C1103 2.638 1_556 S
C3149 C1143 2.634 1_556 S
C3155 C1023 2.632 . S
C3169 C1183 2.631 1_556 S
C3175 C1063 2.629 . S
C3189 C1202 2.639 . S
C3195 C1322 2.637 . S
C3209 C1362 2.633 . S
C3215 C1242 2.635 . S
C3229 C1282 2.638 . S
C3235 C1402 2.638 . S
C3249 C4 0.288 . S
C3255 C1164 0.253 . S
C3269 C1084 0.334 . S
C3275 C44 0.344 . S
C3289 C84 0.348 . S
C3295 C1124 0.330 . S
C3309 C524 0.337 . S
C3315 C124 0.326 . S
C3329 C164 0.286 . S
C3335 C564 0.252 . S
C3349 C204 0.302 . S
C3355 C484 0.310 . S
C3369 C945 0.250 . S
C3375 C265 0.265 . S
C3389 C305 0.319 1_545 S
C3395 C865 0.277 . S
C3409 C905 0.338 . S
C3415 C345 0.356 . S
C3429 C385 0.260 . S
C3435 C1265 0.252 . S
C3449 C1305 0.333 . S
C3455 C425 0.351 . S
C3469 C1225 0.325 . S
C3475 C465 0.342 . S
C3489 C604 0.295 . S
C3495 C1004 0.330 . S
C3509 C644 0.250 . S
C3515 C1044 0.270 . S
C3529 C684 0.323 . S
C3535 C964 0.285 . S
C3549 C745 0.254 . S
C3555 C1425 0.257 . S
C3569 C785 0.284 . S
C3575 C1345 0.252 . S
C3589 C1385 0.284 . S
C3595 C825 0.323 . S
