# Generated by pormake.
# Topology fng, (5)-cn, num edge types: 1
# Building blocks:
#     Node 0, Type 0, BuildingBlock: XOMCOT_clean_sbu_0, # of connection points: 5
#     Node 1, Type 0, BuildingBlock: XOMCOT_clean_sbu_0, # of connection points: 5
#     Node 2, Type 0, BuildingBlock: XOMCOT_clean_sbu_0, # of connection points: 5
#     Node 3, Type 0, BuildingBlock: XOMCOT_clean_sbu_0, # of connection points: 5
#     Node 4, Type 0, BuildingBlock: XOMCOT_clean_sbu_0, # of connection points: 5
#     Node 5, Type 0, BuildingBlock: XOMCOT_clean_sbu_0, # of connection points: 5
#     Node 6, Type 0, BuildingBlock: XOMCOT_clean_sbu_0, # of connection points: 5
#     Node 7, Type 0, BuildingBlock: XOMCOT_clean_sbu_0, # of connection points: 5
#     Node 8, Type 0, BuildingBlock: XOMCOT_clean_sbu_0, # of connection points: 5
#     Node 9, Type 0, BuildingBlock: XOMCOT_clean_sbu_0, # of connection points: 5
#     Node 10, Type 0, BuildingBlock: XOMCOT_clean_sbu_0, # of connection points: 5
#     Node 11, Type 0, BuildingBlock: XOMCOT_clean_sbu_0, # of connection points: 5
#     Node 12, Type 0, BuildingBlock: XOMCOT_clean_sbu_0, # of connection points: 5
#     Node 13, Type 0, BuildingBlock: XOMCOT_clean_sbu_0, # of connection points: 5
#     Node 14, Type 0, BuildingBlock: XOMCOT_clean_sbu_0, # of connection points: 5
#     Node 15, Type 0, BuildingBlock: XOMCOT_clean_sbu_0, # of connection points: 5
#     Node 16, Type 0, BuildingBlock: XOMCOT_clean_sbu_0, # of connection points: 5
#     Node 17, Type 0, BuildingBlock: XOMCOT_clean_sbu_0, # of connection points: 5
#     Edge 18, Type (0, 0), None
#     Edge 19, Type (0, 0), None
#     Edge 20, Type (0, 0), None
#     Edge 21, Type (0, 0), None
#     Edge 22, Type (0, 0), None
#     Edge 23, Type (0, 0), None
#     Edge 24, Type (0, 0), None
#     Edge 25, Type (0, 0), None
#     Edge 26, Type (0, 0), None
#     Edge 27, Type (0, 0), None
#     Edge 28, Type (0, 0), None
#     Edge 29, Type (0, 0), None
#     Edge 30, Type (0, 0), None
#     Edge 31, Type (0, 0), None
#     Edge 32, Type (0, 0), None
#     Edge 33, Type (0, 0), None
#     Edge 34, Type (0, 0), None
#     Edge 35, Type (0, 0), None
#     Edge 36, Type (0, 0), None
#     Edge 37, Type (0, 0), None
#     Edge 38, Type (0, 0), None
#     Edge 39, Type (0, 0), None
#     Edge 40, Type (0, 0), None
#     Edge 41, Type (0, 0), None
#     Edge 42, Type (0, 0), None
#     Edge 43, Type (0, 0), None
#     Edge 44, Type (0, 0), None
#     Edge 45, Type (0, 0), None
#     Edge 46, Type (0, 0), None
#     Edge 47, Type (0, 0), None
#     Edge 48, Type (0, 0), None
#     Edge 49, Type (0, 0), None
#     Edge 50, Type (0, 0), None
#     Edge 51, Type (0, 0), None
#     Edge 52, Type (0, 0), None
#     Edge 53, Type (0, 0), None
#     Edge 54, Type (0, 0), None
#     Edge 55, Type (0, 0), None
#     Edge 56, Type (0, 0), None
#     Edge 57, Type (0, 0), None
#     Edge 58, Type (0, 0), None
#     Edge 59, Type (0, 0), None
#     Edge 60, Type (0, 0), None
#     Edge 61, Type (0, 0), None
#     Edge 62, Type (0, 0), None
# Relax obj value: 0.133
# Max RMSD: 0.147
# Mean RMSD: 0.147
data_MOF--net-fng--node1-XOMCOT_clean_sbu_0--edge1-none
_symmetry_space_group_name_H-M    P1
_symmetry_Int_Tables_number       1
_symmetry_cell_setting            triclinic
loop_
_symmetry_equiv_pos_as_xyz
'x, y, z'
_cell_length_a     38.29984
_cell_length_b     38.092986
_cell_length_c     9.2671918
_cell_angle_alpha  90.103935
_cell_angle_beta   89.782388
_cell_angle_gamma 119.56373
loop_
_atom_site_label
_atom_site_type_symbol
_atom_site_fract_x
_atom_site_fract_y
_atom_site_fract_z
_atom_type_partial_charge
Co0 Co 0.18211 0.28858 0.12919 0.0
C1 C 0.16915 0.2753 0.82161 0.0
C2 C 0.18877 0.33747 0.86956 0.0
C3 C 0.18497 0.33196 0.7218 0.0
N4 N 0.17946 0.30187 0.93097 0.0
N5 N 0.17307 0.29295 0.69445 0.0
H6 H 0.16043 0.24379 0.8319 0.0
H7 H 0.19853 0.36546 0.92724 0.0
C8 C 0.22388 0.36266 0.29403 0.0
O9 O 0.24831 0.3485 0.32011 0.0
N10 N 0.18268 0.27375 0.32673 0.0
C11 C 0.20241 0.25681 0.39039 0.0
C12 C 0.19853 0.25873 0.53789 0.0
C13 C 0.16647 0.28479 0.43445 0.0
N14 N 0.17632 0.27667 0.56286 0.0
C15 C 0.10142 0.22992 0.18582 0.0
C16 C 0.06799 0.27008 0.04322 0.0
C17 C 0.04447 0.22848 0.06818 0.0
C18 C 0.06081 0.20947 0.15245 0.0
C19 C 0.10833 0.29009 0.0856 0.0
N20 N 0.12505 0.269 0.14491 0.0
H21 H 0.11463 0.21336 0.23383 0.0
H22 H 0.127 0.32147 0.05709 0.0
H23 H 0.22042 0.24635 0.33499 0.0
H24 H 0.15045 0.30128 0.41951 0.0
O25 O 0.18049 0.23925 0.06525 0.0
O26 O 0.23631 0.29772 0.08994 0.0
O27 O 0.1955 0.34447 0.20177 0.0
C28 C 0.21904 0.26045 0.04529 0.0
H29 H 0.19241 0.3549 0.64108 0.0
H30 H 0.21335 0.25065 0.6199 0.0
H31 H 0.05651 0.28626 0.98143 0.0
H32 H 0.04326 0.1779 0.18156 0.0
Co33 Co 0.80223 0.93695 0.07942 0.0
C34 C 0.80872 0.929 0.77067 0.0
C35 C 0.75199 0.92296 0.83086 0.0
C36 C 0.75793 0.93181 0.68558 0.0
N37 N 0.78382 0.92143 0.88434 0.0
N38 N 0.7939 0.93621 0.64954 0.0
H39 H 0.83905 0.93427 0.78094 0.0
H40 H 0.72978 0.92464 0.89771 0.0
C41 C 0.73262 0.87425 0.27224 0.0
O42 O 0.75566 0.86328 0.34063 0.0
N43 N 0.82117 0.95415 0.27717 0.0
C44 C 0.85631 0.96199 0.33891 0.0
C45 C 0.85184 0.95922 0.48645 0.0
C46 C 0.79739 0.95098 0.3902 0.0
N47 N 0.81435 0.95118 0.51747 0.0
C48 C 0.8628 0.91459 0.07251 0.0
C49 C 0.81678 0.83357 0.01045 0.0
C50 C 0.85902 0.85122 1.00556 0.0
C51 C 0.88136 0.89181 0.04691 0.0
C52 C 0.79886 0.85751 0.04751 0.0
N53 N 0.82209 0.8979 0.07761 0.0
H54 H 0.88203 0.94668 0.07648 0.0
H55 H 0.76659 0.84418 0.04201 0.0
H56 H 0.88349 0.96816 0.28434 0.0
H57 H 0.76716 0.94574 0.37962 0.0
O58 O 0.84979 0.9831 1.00058 0.0
O59 O 0.7937 0.98342 0.05184 0.0
O60 O 0.74592 0.89729 0.15986 0.0
C61 C 0.82915 1.00163 0.99229 0.0
H62 H 0.73951 0.93873 0.61616 0.0
H63 H 0.87376 0.96096 0.5636 0.0
H64 H 0.79789 0.8024 0.97885 0.0
H65 H 0.91384 0.90732 0.04972 0.0
Co66 Co 0.15273 0.89541 0.10988 0.0
C67 C 0.15294 0.90818 0.80145 0.0
C68 C 0.19539 0.88865 0.8513 0.0
C69 C 0.19354 0.89163 0.70303 0.0
N70 N 0.16924 0.89838 0.91183 0.0
N71 N 0.16658 0.90364 0.6745 0.0
H72 H 0.12991 0.91658 0.81103 0.0
H73 H 0.21328 0.8787 0.90989 0.0
C74 C 0.18572 0.85348 0.27623 0.0
O75 O 0.14748 0.82882 0.30163 0.0
N76 N 0.13698 0.89425 0.3077 0.0
C77 C 0.10129 0.87074 0.3726 0.0
C78 C 0.10726 0.8736 0.51989 0.0
C79 C 0.16384 0.91148 0.41492 0.0
N80 N 0.14653 0.89898 0.54381 0.0
C81 C 0.1718 0.97606 0.16826 0.0
C82 C 0.24622 1.01334 0.03397 0.0
C83 C 0.22761 0.03633 0.06569 0.0
C84 C 0.19126 1.0175 0.14338 0.0
C85 C 0.22627 0.97183 0.06645 0.0
N86 N 0.18848 0.95343 0.12485 0.0
H87 H 0.14193 0.96162 0.21417 0.0
H88 H 0.23979 0.95397 0.0339 0.0
H89 H 0.07389 0.85023 0.31762 0.0
H90 H 0.19591 0.92978 0.3987 0.0
O91 O 0.10429 0.89559 0.04446 0.0
O92 O 0.10875 0.84047 0.07051 0.0
O93 O 0.19569 0.88246 0.18468 0.0
C94 C 0.08782 0.85684 0.02578 0.0
H95 H 0.20859 0.88311 0.62313 0.0
H96 H 0.08559 0.85581 0.602 0.0
H97 H 0.27448 1.02651 0.97605 0.0
H98 H 0.17641 0.0341 0.17676 0.0
Co99 Co 0.2771 0.21272 0.89591 0.0
C100 C 0.27379 0.20025 0.20378 0.0
C101 C 0.32392 0.25749 0.14537 0.0
C102 C 0.31692 0.25792 0.29137 0.0
N103 N 0.29675 0.22139 0.09075 0.0
N104 N 0.28516 0.22204 0.32615 0.0
H105 H 0.24662 0.1715 0.19304 0.0
H106 H 0.34385 0.28338 0.0809 0.0
C107 C 0.34739 0.22132 0.7098 0.0
O108 O 0.32513 0.18458 0.65979 0.0
N109 N 0.25735 0.20543 0.69844 0.0
C110 C 0.22551 0.17378 0.63543 0.0
C111 C 0.23025 0.17706 0.48807 0.0
C112 C 0.2793 0.22888 0.58722 0.0
N113 N 0.26454 0.21129 0.45913 0.0
C114 C 0.22646 0.12812 0.92 0.0
C115 C 0.28339 0.10728 0.99579 0.0
C116 C 0.24247 0.07787 1.00563 0.0
C117 C 0.2143 0.08879 0.96112 0.0
C118 C 0.29453 0.14678 0.94905 0.0
N119 N 0.26602 0.15676 0.91026 0.0
H120 H 0.20322 0.13586 0.90755 0.0
H121 H 0.32578 0.16982 0.95336 0.0
H122 H 0.20088 0.14885 0.68876 0.0
H123 H 0.30731 0.2567 0.6 0.0
O124 O 0.22608 0.20386 0.97185 0.0
O125 O 0.27612 0.26369 0.91159 0.0
O126 O 0.33415 0.23461 0.81278 0.0
C127 C 0.24083 0.24256 0.97134 0.0
H128 H 0.33174 0.28357 0.36294 0.0
H129 H 0.21098 0.15504 0.40948 0.0
H130 H 0.30638 0.10052 0.0306 0.0
H131 H 0.18241 0.06751 0.96381 0.0
Co132 Co 0.87616 0.10729 0.84493 0.0
C133 C 0.88865 0.11747 0.15175 0.0
C134 C 0.82963 0.10591 0.09712 0.0
C135 C 0.83049 0.09926 0.24323 0.0
N136 N 0.8661 0.11725 0.04015 0.0
N137 N 0.8676 0.10619 0.27539 0.0
H138 H 0.91817 0.12085 0.13945 0.0
H139 H 0.80304 0.09741 0.03387 0.0
C140 C 0.82587 0.13829 0.6994 0.0
O141 O 0.79529 0.10148 0.70851 0.0
N142 N 0.88618 0.09656 0.64695 0.0
C143 C 0.92138 0.10466 0.5837 0.0
C144 C 0.91817 0.1062 0.43678 0.0
C145 C 0.86157 0.091 0.53464 0.0
N146 N 0.88077 0.09846 0.40719 0.0
C147 C 0.95945 0.13913 0.88713 0.0
C148 C 0.97752 0.21609 0.96661 0.0
C149 C 1.00578 0.20339 0.99175 0.0
C150 C 0.99682 0.16506 0.94354 0.0
C151 C 0.94029 0.18918 0.90377 0.0
N152 N 0.93136 0.1508 0.86711 0.0
H153 H 0.95251 0.10846 0.86795 0.0
H154 H 0.91768 0.19819 0.89622 0.0
H155 H 0.94897 0.11182 0.63612 0.0
H156 H 0.83084 0.08363 0.54473 0.0
O157 O 0.8844 0.06446 0.91904 0.0
O158 O 0.82523 0.05542 0.85534 0.0
O159 O 0.85909 0.14683 0.76182 0.0
C160 C 0.84615 0.04093 0.91687 0.0
H161 H 0.80515 0.08695 0.31644 0.0
H162 H 0.94234 0.11511 0.35957 0.0
H163 H 0.98317 0.24554 1.00178 0.0
H164 H 1.01793 0.1541 0.9548 0.0
Co165 Co 0.98313 0.79454 0.87234 0.0
C166 C 0.97507 0.79992 0.18023 0.0
C167 C 0.97652 0.74613 0.12046 0.0
C168 C 0.98409 0.75241 0.2658 0.0
N169 N 0.97106 0.77596 0.06723 0.0
N170 N 0.98364 0.78643 0.30121 0.0
H171 H 0.97606 0.82871 0.17079 0.0
H172 H 0.98064 0.72497 0.05501 0.0
C173 C 0.92212 0.71702 0.70665 0.0
O174 O 0.9018 0.73417 0.66029 0.0
N175 N 0.99708 0.81303 0.6735 0.0
C176 C 1.00848 0.84937 0.61176 0.0
C177 C 1.00531 0.84482 0.46393 0.0
C178 C 0.99233 0.78856 0.56152 0.0
N179 N 0.99475 0.80631 0.43483 0.0
C180 C 0.94477 0.84219 0.84405 0.0
C181 C 0.8724 0.79108 0.97424 0.0
C182 C 0.88165 0.83114 0.94507 0.0
C183 C 0.91726 0.85523 0.86873 0.0
C184 C 0.90017 0.77788 0.936 0.0
N185 N 0.93656 0.80384 0.87361 0.0
H186 H 0.97434 0.86501 0.81641 0.0
H187 H 0.89369 0.74789 0.96695 0.0
H188 H 1.0195 0.87773 0.6675 0.0
H189 H 0.98716 0.75826 0.57076 0.0
O190 O 1.0234 0.84738 0.94541 0.0
O191 O 1.03549 0.79764 0.89826 0.0
O192 O 0.95109 0.73566 0.79754 0.0
C193 C 0.04833 0.83359 0.95199 0.0
H194 H 0.99311 0.73571 0.33628 0.0
H195 H 1.01095 0.8679 0.38483 0.0
H196 H 0.84534 0.77097 0.03306 0.0
H197 H 0.92604 0.88597 0.83894 0.0
Co198 Co 0.87151 0.59656 0.49912 0.0
C199 C 0.8578 0.59088 0.19321 0.0
C200 C 0.91158 0.64565 0.24779 0.0
C201 C 0.91194 0.63917 0.10165 0.0
N202 N 0.87776 0.61523 0.30446 0.0
N203 N 0.8783 0.60455 0.06943 0.0
H204 H 0.83127 0.56166 0.2055 0.0
H205 H 0.93635 0.66778 0.31066 0.0
C206 C 0.91873 0.68095 0.62732 0.0
O207 O 0.95079 0.67695 0.61595 0.0
N208 N 0.86539 0.57727 0.69715 0.0
C209 C 0.83542 0.54349 0.75859 0.0
C210 C 0.83716 0.54802 0.90622 0.0
C211 C 0.88627 0.60038 0.80985 0.0
N212 N 0.8689 0.58418 0.93636 0.0
C213 C 0.78868 0.53985 0.47256 0.0
C214 C 0.76219 0.59312 0.40357 0.0
C215 C 0.73595 0.55144 0.38599 0.0
C216 C 0.74945 0.52501 0.42844 0.0
C217 C 0.80155 0.60696 0.45417 0.0
N218 N 0.81457 0.58026 0.48645 0.0
H219 H 0.79864 0.51814 0.48416 0.0
H220 H 0.82217 0.63906 0.45672 0.0
H221 H 0.81271 0.51744 0.70361 0.0
H222 H 0.91292 0.62901 0.80177 0.0
O223 O 0.86675 0.54667 0.42682 0.0
O224 O 0.92467 0.59955 0.48018 0.0
O225 O 0.88506 0.65291 0.57761 0.0
C226 C 0.90522 0.56334 0.42406 0.0
H227 H 0.93645 0.65635 0.02797 0.0
H228 H 0.81599 0.52712 0.98389 0.0
H229 H 0.75319 0.61485 0.37208 0.0
H230 H 0.7304 0.49259 0.42196 0.0
Co231 Co 0.4637 0.2795 0.48488 0.0
C232 C 0.46688 0.27059 0.17826 0.0
C233 C 0.41865 0.28147 0.23352 0.0
C234 C 0.42576 0.2875 0.08689 0.0
N235 N 0.44448 0.27084 0.28998 0.0
N236 N 0.45637 0.28093 0.05453 0.0
H237 H 0.49326 0.26754 0.18993 0.0
H238 H 0.39976 0.28927 0.29685 0.0
C239 C 0.38331 0.25053 0.62499 0.0
O240 O 0.39048 0.28785 0.61344 0.0
N241 N 0.48358 0.28884 0.68227 0.0
C242 C 0.51038 0.28008 0.74409 0.0
C243 C 0.50591 0.27901 0.89119 0.0
C244 C 0.46476 0.29497 0.79483 0.0
N245 N 0.47663 0.28759 0.9217 0.0
C246 C 0.51556 0.24723 0.43557 0.0
C247 C 0.45788 0.17005 0.35933 0.0
C248 C 0.4985 0.18251 0.33148 0.0
C249 C 0.52728 0.22109 0.37738 0.0
C250 C 0.44725 0.19728 0.42242 0.0
N251 N 0.47608 0.23574 0.45777 0.0
H252 H 0.53878 0.27786 0.45514 0.0
H253 H 0.41583 0.1883 0.43227 0.0
H254 H 0.53037 0.27221 0.69026 0.0
H255 H 0.44156 0.3028 0.78538 0.0
O256 O 0.51421 0.32316 0.41398 0.0
O257 O 0.4634 0.33109 0.48222 0.0
O258 O 0.40752 0.24041 0.56592 0.0
C259 C 0.49887 0.34657 0.42262 0.0
H260 H 0.41184 0.29879 0.013 0.0
H261 H 0.52107 0.26985 0.96799 0.0
H262 H 0.4345 0.14047 0.32599 0.0
H263 H 0.55908 0.23199 0.36336 0.0
Co264 Co 0.76078 0.18002 0.42511 0.0
C265 C 0.77086 0.19342 0.11697 0.0
C266 C 0.76499 0.13631 0.17476 0.0
C267 C 0.75733 0.13573 0.02918 0.0
N268 N 0.77326 0.17238 0.22989 0.0
N269 N 0.76066 0.17152 0.99454 0.0
H270 H 0.77158 0.22202 0.12823 0.0
H271 H 0.75919 0.11035 0.23911 0.0
C272 C 0.8209 0.16917 0.61538 0.0
O273 O 0.835 0.20552 0.66967 0.0
N274 N 0.74698 0.1866 0.62277 0.0
C275 C 0.74699 0.21871 0.68579 0.0
C276 C 0.74944 0.21611 0.83303 0.0
C277 C 0.74619 0.16347 0.73452 0.0
N278 N 0.74989 0.18182 0.86234 0.0
C279 C 0.79202 0.26459 0.40261 0.0
C280 C 0.87147 0.28855 0.349 0.0
C281 C 0.85878 0.31752 0.33861 0.0
C282 C 0.81857 0.30474 0.37123 0.0
C283 C 0.84354 0.24803 0.38588 0.0
N284 N 0.80421 0.23655 0.41474 0.0
H285 H 0.76079 0.25599 0.40935 0.0
H286 H 0.85313 0.22569 0.38352 0.0
H287 H 0.74707 0.24368 0.63215 0.0
H288 H 0.74641 0.1354 0.72193 0.0
O289 O 0.71809 0.18807 0.34697 0.0
O290 O 0.7104 0.12864 0.40564 0.0
O291 O 0.79592 0.15762 0.50886 0.0
C292 C 0.69563 0.14924 0.34439 0.0
H293 H 0.74663 0.10992 0.95815 0.0
H294 H 0.75271 0.23869 0.91102 0.0
H295 H 0.9021 0.29657 0.323 0.0
H296 H 0.80679 0.32536 0.36841 0.0
Co297 Co 0.95004 0.50288 0.26371 0.0
C298 C 0.93732 0.48908 0.57158 0.0
C299 C 0.99961 0.5115 0.52146 0.0
C300 C 0.99472 0.50904 0.66976 0.0
N301 N 0.96354 0.49956 0.46102 0.0
N302 N 0.9556 0.49533 0.69851 0.0
H303 H 0.90571 0.47915 0.56172 0.0
H304 H 1.02754 0.52288 0.46272 0.0
C305 C 1.02381 0.54555 0.09697 0.0
O306 O 1.00965 0.57024 0.07512 0.0
N307 N 0.93538 0.50436 0.06624 0.0
C308 C 0.92007 0.52563 1.00248 0.0
C309 C 0.92261 0.52234 0.85467 0.0
C310 C 0.94612 0.48792 0.95813 0.0
N311 N 0.9393 0.49894 0.82962 0.0
C312 C 0.89004 0.42239 0.19792 0.0
C313 C 0.92601 0.38333 0.33066 0.0
C314 C 0.88541 0.36051 0.29062 0.0
C315 C 0.86867 0.38059 0.21459 0.0
C316 C 0.94718 0.42538 0.30599 0.0
N317 N 0.92841 0.44457 0.24675 0.0
H318 H 0.87484 0.43729 0.15237 0.0
H319 H 0.97771 0.4428 0.3439 0.0
H320 H 0.91053 0.54442 0.05812 0.0
H321 H 0.96163 0.47093 0.9731 0.0
O322 O 0.90192 0.50265 0.33106 0.0
O323 O 0.96037 0.5581 0.30554 0.0
O324 O 1.00554 0.51608 0.18692 0.0
C325 C 0.92343 0.54135 0.35158 0.0
H326 H 1.01818 0.5191 0.74945 0.0
H327 H 0.91585 0.5383 0.7728 0.0
H328 H 0.94061 0.36942 0.38805 0.0
H329 H 0.83819 0.36452 0.17461 0.0
Co330 Co 0.55627 0.45212 0.27467 0.0
C331 C 0.57006 0.45286 0.58184 0.0
C332 C 0.54552 0.49154 0.53465 0.0
C333 C 0.54891 0.48968 0.6825 0.0
N334 N 0.55821 0.46779 0.4728 0.0
N335 N 0.56409 0.46513 0.7094 0.0
H336 H 0.58106 0.43177 0.57056 0.0
H337 H 0.53351 0.50782 0.47702 0.0
C338 C 0.51392 0.48469 0.11071 0.0
O339 O 0.48972 0.44653 0.07983 0.0
N340 N 0.55614 0.4369 0.07669 0.0
C341 C 0.53713 0.40028 0.01284 0.0
C342 C 0.54067 0.40593 0.86532 0.0
C343 C 0.57161 0.46398 0.96886 0.0
N344 N 0.56198 0.44594 0.84039 0.0
C345 C 0.63782 0.47602 0.217 0.0
C346 C 0.66983 0.55041 0.3527 0.0
C347 C 0.69495 0.5342 0.32244 0.0
C348 C 0.67887 0.498 0.2432 0.0
C349 C 0.62893 0.52812 0.31821 0.0
N350 N 0.61319 0.49031 0.26015 0.0
H351 H 0.62535 0.44619 0.1705 0.0
H352 H 0.60938 0.53972 0.34996 0.0
H353 H 0.51974 0.3718 0.06796 0.0
H354 H 0.58685 0.49638 0.98377 0.0
O355 O 0.55895 0.40503 0.3381 0.0
O356 O 0.50241 0.40666 0.31211 0.0
O357 O 0.54204 0.49408 0.20347 0.0
C358 C 0.52028 0.38709 0.35624 0.0
H359 H 0.53862 0.50287 0.76346 0.0
H360 H 0.52618 0.38298 0.78336 0.0
H361 H 0.68084 0.57847 0.41148 0.0
H362 H 0.69731 0.48513 0.21015 0.0
Co363 Co 0.5929 0.09946 0.17702 0.0
C364 C 0.58992 0.11156 0.48468 0.0
C365 C 0.55696 0.04814 0.43651 0.0
C366 C 0.55878 0.05329 0.58455 0.0
N367 N 0.57721 0.08485 0.375 0.0
N368 N 0.57976 0.09314 0.61228 0.0
H369 H 0.60824 0.14389 0.47353 0.0
H370 H 0.54346 1.01987 0.37852 0.0
C371 C 0.5672 1.02568 0.00905 0.0
O372 O 0.60587 0.04246 0.98317 0.0
N373 N 0.6078 0.1152 0.9793 0.0
C374 C 0.64415 0.1335 0.91479 0.0
C375 C 0.63838 0.1308 0.76713 0.0
C376 C 0.58069 0.10251 0.87182 0.0
N377 N 0.59852 0.11103 0.74278 0.0
C378 C 0.56648 0.15563 0.12222 0.0
C379 C 0.49598 0.11571 0.28007 0.0
C380 C 0.51232 0.15717 0.25289 0.0
C381 C 0.54614 0.17597 0.16217 0.0
C382 C 0.51656 0.09579 0.23224 0.0
N383 N 0.55294 0.11677 0.16431 0.0
H384 H 0.59527 0.17243 0.06914 0.0
H385 H 0.50549 0.06475 0.26373 0.0
H386 H 0.6725 0.14521 0.97002 0.0
H387 H 0.54858 0.0844 0.88751 0.0
O388 O 0.63779 0.14997 0.2444 0.0
O389 O 0.64 0.09352 0.21585 0.0
O390 O 0.55444 0.04251 0.10061 0.0
C391 C 0.65721 0.13045 0.26423 0.0
H392 H 0.54819 0.0299 0.66492 0.0
H393 H 0.66123 0.1395 0.68467 0.0
H394 H 0.46956 0.09966 0.34731 0.0
H395 H 0.55894 0.20742 0.13214 0.0
Co396 Co 0.53693 0.92196 0.73209 0.0
C397 C 0.52381 0.91724 0.42362 0.0
C398 C 0.57578 0.97292 0.48263 0.0
C399 C 0.57818 0.96648 0.33705 0.0
N400 N 0.54186 0.94186 0.53712 0.0
N401 N 0.54585 0.93104 0.302 0.0
H402 H 0.49777 0.88757 0.43422 0.0
H403 H 0.59949 0.996 0.54722 0.0
C404 C 0.54012 0.98869 0.9255 0.0
O405 O 0.50457 0.96339 0.97833 0.0
N406 N 0.53416 0.90229 0.93009 0.0
C407 C 0.50678 0.86749 0.994 0.0
C408 C 0.50913 0.87252 0.14159 0.0
C409 C 0.55548 0.92618 0.0417 0.0
N410 N 0.53912 0.90992 0.1703 0.0
C411 C 0.45269 0.86787 0.73772 0.0
C412 C 0.42736 0.92123 0.65473 0.0
C413 C 0.39894 0.87988 0.66271 0.0
C414 C 0.41223 0.85385 0.71416 0.0
C415 C 0.46794 0.9346 0.68989 0.0
N416 N 0.48024 0.90785 0.7313 0.0
H417 H 0.46192 0.84564 0.74765 0.0
H418 H 0.48977 0.96598 0.67392 0.0
H419 H 0.48567 0.84014 0.94083 0.0
H420 H 0.58065 0.95626 0.02923 0.0
O421 O 0.53032 0.87192 0.65161 0.0
O422 O 0.58916 0.92464 0.70125 0.0
O423 O 0.55499 0.9781 0.81904 0.0
C424 C 0.56902 0.88905 0.64158 0.0
H425 H 0.60322 0.9846 0.26627 0.0
H426 H 0.48923 0.85097 0.22048 0.0
H427 H 0.41894 0.94266 0.6144 0.0
H428 H 0.39199 0.8218 0.72689 0.0
Co429 Co 0.12825 0.617 0.82941 0.0
C430 C 0.13441 0.60981 0.51943 0.0
C431 C 0.07686 0.6017 0.58152 0.0
C432 C 0.08253 0.61099 0.43658 0.0
N433 N 0.10954 0.60137 0.6339 0.0
N434 N 0.1191 0.61699 0.39986 0.0
H435 H 0.1649 0.61538 0.5277 0.0
H436 H 0.05298 0.60058 0.6475 0.0
C437 C 0.05978 0.55285 0.01169 0.0
O438 O 0.08368 0.54029 0.06234 0.0
N439 N 0.14633 0.63501 0.02782 0.0
C440 C 0.18284 0.6497 0.09018 0.0
C441 C 0.17821 0.64643 0.23827 0.0
C442 C 0.12141 0.62904 0.14012 0.0
N443 N 0.1392 0.63257 0.26772 0.0
C444 C 0.18116 0.58512 0.86743 0.0
C445 C 0.13468 0.51289 0.7268 0.0
C446 C 0.17537 0.5257 0.75243 0.0
C447 C 0.19721 0.56049 0.83542 0.0
C448 C 0.11856 0.53742 0.77192 0.0
N449 N 0.14241 0.57413 0.83613 0.0
H450 H 0.20204 0.61501 0.89975 0.0
H451 H 0.08811 0.52878 0.74218 0.0
H452 H 0.21124 0.66223 0.03439 0.0
H453 H 0.09045 0.62123 0.13001 0.0
O454 O 0.17852 0.65876 0.75167 0.0
O455 O 0.12555 0.66626 0.7912 0.0
O456 O 0.07185 0.57975 0.91052 0.0
C457 C 0.16126 0.68037 0.73419 0.0
H458 H 0.06295 0.61641 0.36758 0.0
H459 H 0.20145 0.6532 0.31712 0.0
H460 H 0.11643 0.486 0.66388 0.0
H461 H 0.22839 0.57129 0.86213 0.0
Co462 Co 0.45037 0.5293 0.85259 0.0
C463 C 0.458 0.54208 0.54235 0.0
C464 C 0.45927 0.48841 0.60332 0.0
C465 C 0.44973 0.48566 0.45897 0.0
N466 N 0.46403 0.52355 0.65613 0.0
N467 N 0.44807 0.519 0.42298 0.0
H468 H 0.45618 0.56946 0.55118 0.0
H469 H 0.45764 0.46418 0.66888 0.0
C470 C 0.50867 0.5155 0.03151 0.0
O471 O 0.52374 0.55201 0.08535 0.0
N472 N 0.43401 0.5322 0.05139 0.0
C473 C 0.42288 0.55737 0.11387 0.0
C474 C 0.42478 0.55486 0.26208 0.0
C475 C 0.43659 0.51088 0.16308 0.0
N476 N 0.43438 0.5261 0.29104 0.0
C477 C 0.49115 0.61502 0.8885 0.0
C478 C 0.56105 0.62992 0.74926 0.0
C479 C 0.55319 0.66177 0.77154 0.0
C480 C 0.51946 0.6543 0.85332 0.0
C481 C 0.53275 0.59084 0.79586 0.0
N482 N 0.49726 0.58344 0.85869 0.0
H483 H 0.4625 0.61026 0.92173 0.0
H484 H 0.53746 0.56598 0.76735 0.0
H485 H 0.41386 0.5764 0.05799 0.0
H486 H 0.44122 0.48532 0.1524 0.0
O487 O 0.41238 0.54399 0.77665 0.0
O488 O 0.39913 0.48118 0.81793 0.0
O489 O 0.48224 0.50353 0.93027 0.0
C490 C 0.38821 0.50557 0.76083 0.0
H491 H 0.44138 0.45981 0.38983 0.0
H492 H 0.42019 0.57309 0.34135 0.0
H493 H 0.58671 0.63435 0.68574 0.0
H494 H 0.51224 0.67806 0.87339 0.0
Co495 Co 0.62057 0.83222 0.52031 0.0
C496 C 0.61595 0.82185 0.8269 0.0
C497 C 0.65721 0.8833 0.77663 0.0
C498 C 0.64711 0.88099 0.92139 0.0
N499 N 0.63803 0.8459 0.71788 0.0
N500 N 0.62085 0.84217 0.9499 0.0
H501 H 0.59321 0.79069 0.81433 0.0
H502 H 0.6739 0.9109 0.71595 0.0
C503 C 0.69586 0.87043 0.34555 0.0
O504 O 0.68462 0.89663 0.3099 0.0
N505 N 0.60175 0.81746 0.32251 0.0
C506 C 0.59375 0.78215 0.25906 0.0
C507 C 0.59409 0.78581 0.11362 0.0
C508 C 0.60717 0.84245 0.2105 0.0
N509 N 0.60394 0.82396 0.08287 0.0
C510 C 0.56471 0.75002 0.55859 0.0
C511 C 0.61496 0.72585 0.68324 0.0
C512 C 0.5732 0.6998 0.68661 0.0
C513 C 0.54854 0.71165 0.61551 0.0
C514 C 0.63048 0.76429 0.61894 0.0
N515 N 0.60504 0.77622 0.56198 0.0
H516 H 0.54451 0.75908 0.51258 0.0
H517 H 0.66229 0.78545 0.62537 0.0
H518 H 0.59342 0.75659 0.30954 0.0
H519 H 0.61705 0.87424 0.22148 0.0
O520 O 0.57058 0.82889 0.58132 0.0
O521 O 0.62306 0.88519 0.50719 0.0
O522 O 0.67653 0.84468 0.44643 0.0
C523 C 0.58762 0.86759 0.56855 0.0
H524 H 0.65713 0.90571 0.99721 0.0
H525 H 0.5932 0.76382 0.03743 0.0
H526 H 0.63499 0.71762 0.73663 0.0
H527 H 0.51629 0.69204 0.61071 0.0
Co528 Co 0.21638 0.78009 0.54583 0.0
C529 C 0.23051 0.78779 0.8548 0.0
C530 C 0.18294 0.79913 0.79522 0.0
C531 C 0.17929 0.79004 0.94043 0.0
N532 N 0.21479 0.79733 0.74103 0.0
N533 N 0.20872 0.78208 0.97585 0.0
H534 H 0.25412 0.78017 0.84473 0.0
H535 H 0.16072 0.8014 0.7303 0.0
C536 C 0.21502 0.84619 0.3582 0.0
O537 O 0.25003 0.85614 0.30033 0.0
N538 N 0.21567 0.76109 0.34735 0.0
C539 C 0.23891 0.74786 0.28322 0.0
C540 C 0.23805 0.75192 0.13576 0.0
C541 C 0.19719 0.76784 0.2354 0.0
N542 N 0.21245 0.76549 0.10719 0.0
C543 C 0.29821 0.80131 0.5245 0.0
C544 C 0.33239 0.87979 0.62069 0.0
C545 C 0.35681 0.86185 0.60583 0.0
C546 C 0.33918 0.82309 0.5462 0.0
C547 C 0.29103 0.8574 0.5853 0.0
N548 N 0.27426 0.81816 0.53904 0.0
H549 H 0.2857 0.7695 0.51223 0.0
H550 H 0.27205 0.87046 0.60622 0.0
H551 H 0.25552 0.7357 0.33621 0.0
H552 H 0.17428 0.77621 0.24701 0.0
O553 O 0.21959 0.73488 0.62559 0.0
O554 O 0.16256 0.73432 0.58387 0.0
O555 O 0.20113 0.82083 0.46419 0.0
C556 C 0.18102 0.71685 0.6424 0.0
H557 H 0.1549 0.78601 0.01042 0.0
H558 H 0.25551 0.74619 0.05678 0.0
H559 H 0.34438 0.90968 0.66653 0.0
H560 H 0.3562 0.80775 0.52721 0.0
Co561 Co 0.28968 0.46248 0.57887 0.0
C562 C 0.28075 0.46684 0.88787 0.0
C563 C 0.27887 0.41152 0.82914 0.0
C564 C 0.28782 0.41833 0.97444 0.0
N565 N 0.27483 0.44217 0.77439 0.0
N566 N 0.28973 0.45356 0.0094 0.0
H567 H 0.2836 0.4964 0.87682 0.0
H568 H 0.2803 0.38856 0.76467 0.0
C569 C 0.22894 0.39754 0.38111 0.0
O570 O 0.21867 0.4229 0.32633 0.0
N571 N 0.30629 0.48282 0.38109 0.0
C572 C 0.30957 0.5163 0.31745 0.0
C573 C 0.30724 0.51127 0.17009 0.0
C574 C 0.30595 0.45976 0.26889 0.0
N575 N 0.30367 0.4751 0.14046 0.0
C576 C 0.2621 0.519 0.5934 0.0
C577 C 0.18347 0.46609 0.66945 0.0
C578 C 0.19782 0.50779 0.67951 0.0
C579 C 0.23697 0.53395 0.63138 0.0
C580 C 0.20949 0.45209 0.6218 0.0
N581 N 0.24857 0.47863 0.58531 0.0
H582 H 0.29354 0.54049 0.58443 0.0
H583 H 0.19913 0.42015 0.62608 0.0
H584 H 0.31163 0.54229 0.3704 0.0
H585 H 0.30332 0.43038 0.28157 0.0
O586 O 0.33346 0.51104 0.66068 0.0
O587 O 0.33674 0.45626 0.60284 0.0
O588 O 0.25204 0.40731 0.49229 0.0
C589 C 0.35278 0.49116 0.66775 0.0
H590 H 0.29559 0.40063 0.04487 0.0
H591 H 0.30572 0.5316 0.09227 0.0
H592 H 0.15354 0.44469 0.70652 0.0
H593 H 0.24954 0.56641 0.63394 0.0
loop_
_geom_bond_atom_site_label_1
_geom_bond_atom_site_label_2
_geom_bond_distance
_geom_bond_site_symmetry_2
_ccdc_geom_bond_type
Co0 N4 2.148 1_554 S
Co0 N10 2.128 . S
Co0 N20 2.194 . S
Co0 O25 2.351 . S
Co0 O26 2.155 . S
Co0 O27 2.096 . S
C1 N4 1.301 . S
C1 N5 1.328 . S
C1 H6 0.930 . S
C2 C3 1.333 . S
C2 N4 1.317 . S
C2 H7 0.930 . S
C3 C2 1.333 . S
C3 N5 1.350 . S
C3 H29 0.931 . S
N4 Co0 2.148 1_556 S
N4 C1 1.301 . S
N4 C2 1.317 . S
N5 C1 1.328 . S
N5 C3 1.350 . S
H6 C1 0.930 . S
H7 C2 0.930 . S
C8 O9 1.224 . S
C8 O27 1.247 . S
O9 C8 1.224 . S
N10 Co0 2.128 . S
N10 C11 1.355 . S
N10 C13 1.311 . S
C11 N10 1.355 . S
C11 C12 1.363 . S
C11 H23 0.929 . S
C12 C11 1.363 . S
C12 N14 1.375 . S
C12 H30 0.931 . S
C13 N10 1.311 . S
C13 N14 1.347 . S
C13 H24 0.929 . S
N14 C12 1.375 . S
N14 C13 1.347 . S
C15 C18 1.365 1_554 S
C15 N20 1.328 . S
C15 H21 0.929 1_554 S
C16 C17 1.362 . S
C16 C19 1.378 . S
C16 H31 0.929 . S
C17 C16 1.362 . S
C17 C18 1.366 1_554 S
C18 C15 1.365 1_556 S
C18 C17 1.366 1_556 S
C18 H32 0.930 . S
C19 C16 1.378 . S
C19 N20 1.315 . S
C19 H22 0.930 . S
N20 Co0 2.194 . S
N20 C15 1.328 . S
N20 C19 1.315 . S
H21 C15 0.929 1_556 S
H22 C19 0.930 . S
H23 C11 0.929 . S
H24 C13 0.929 . S
O25 Co0 2.351 . S
O25 C28 1.244 . S
O26 Co0 2.155 . S
O26 C28 1.240 . S
O27 Co0 2.096 . S
O27 C8 1.247 . S
C28 O25 1.244 . S
C28 O26 1.240 . S
H29 C3 0.931 . S
H30 C12 0.931 . S
H31 C16 0.929 . S
H32 C18 0.930 . S
Co33 N37 2.148 1_554 S
Co33 N43 2.128 . S
Co33 N53 2.194 . S
Co33 O58 2.351 . S
Co33 O59 2.155 . S
Co33 O60 2.096 . S
C34 N37 1.301 . S
C34 N38 1.328 . S
C34 H39 0.930 . S
C35 C36 1.333 . S
C35 N37 1.317 . S
C35 H40 0.930 . S
C36 C35 1.333 . S
C36 N38 1.350 . S
C36 H62 0.931 . S
N37 Co33 2.148 1_556 S
N37 C34 1.301 . S
N37 C35 1.317 . S
N38 C34 1.328 . S
N38 C36 1.350 . S
H39 C34 0.930 . S
H40 C35 0.930 . S
C41 O42 1.224 . S
C41 O60 1.247 . S
O42 C41 1.224 . S
N43 Co33 2.128 . S
N43 C44 1.355 . S
N43 C46 1.311 . S
C44 N43 1.355 . S
C44 C45 1.363 . S
C44 H56 0.929 . S
C45 C44 1.363 . S
C45 N47 1.375 . S
C45 H63 0.931 . S
C46 N43 1.311 . S
C46 N47 1.347 . S
C46 H57 0.929 . S
N47 C45 1.375 . S
N47 C46 1.347 . S
C48 C51 1.365 1_554 S
C48 N53 1.328 . S
C48 H54 0.929 1_554 S
C49 C50 1.362 . S
C49 C52 1.378 . S
C49 H64 0.929 . S
C50 C49 1.362 . S
C50 C51 1.366 1_554 S
C51 C48 1.365 1_556 S
C51 C50 1.366 1_556 S
C51 H65 0.930 . S
C52 C49 1.378 . S
C52 N53 1.315 . S
C52 H55 0.930 . S
N53 Co33 2.194 . S
N53 C48 1.328 . S
N53 C52 1.315 . S
H54 C48 0.929 1_556 S
H55 C52 0.930 . S
H56 C44 0.929 . S
H57 C46 0.929 . S
O58 Co33 2.351 . S
O58 C61 1.244 . S
O59 Co33 2.155 . S
O59 C61 1.240 . S
O60 Co33 2.096 . S
O60 C41 1.247 . S
C61 O58 1.244 . S
C61 O59 1.240 . S
H62 C36 0.931 . S
H63 C45 0.931 . S
H64 C49 0.929 . S
H65 C51 0.930 . S
Co66 N70 2.148 1_554 S
Co66 N76 2.128 . S
Co66 N86 2.194 . S
Co66 O91 2.351 . S
Co66 O92 2.155 . S
Co66 O93 2.096 . S
C67 N70 1.301 . S
C67 N71 1.328 . S
C67 H72 0.930 . S
C68 C69 1.333 . S
C68 N70 1.317 . S
C68 H73 0.930 . S
C69 C68 1.333 . S
C69 N71 1.350 . S
C69 H95 0.931 . S
N70 Co66 2.148 1_556 S
N70 C67 1.301 . S
N70 C68 1.317 . S
N71 C67 1.328 . S
N71 C69 1.350 . S
H72 C67 0.930 . S
H73 C68 0.930 . S
C74 O75 1.224 . S
C74 O93 1.247 . S
O75 C74 1.224 . S
N76 Co66 2.128 . S
N76 C77 1.355 . S
N76 C79 1.311 . S
C77 N76 1.355 . S
C77 C78 1.363 . S
C77 H89 0.929 . S
C78 C77 1.363 . S
C78 N80 1.375 . S
C78 H96 0.931 . S
C79 N76 1.311 . S
C79 N80 1.347 . S
C79 H90 0.929 . S
N80 C78 1.375 . S
N80 C79 1.347 . S
C81 C84 1.365 1_554 S
C81 N86 1.328 . S
C81 H87 0.929 1_554 S
C82 C83 1.362 . S
C82 C85 1.378 . S
C82 H97 0.929 . S
C83 C82 1.362 . S
C83 C84 1.366 1_554 S
C84 C81 1.365 1_556 S
C84 C83 1.366 1_556 S
C84 H98 0.930 . S
C85 C82 1.378 . S
C85 N86 1.315 . S
C85 H88 0.930 . S
N86 Co66 2.194 . S
N86 C81 1.328 . S
N86 C85 1.315 . S
H87 C81 0.929 1_556 S
H88 C85 0.930 . S
H89 C77 0.929 . S
H90 C79 0.929 . S
O91 Co66 2.351 . S
O91 C94 1.244 . S
O92 Co66 2.155 . S
O92 C94 1.240 . S
O93 Co66 2.096 . S
O93 C74 1.247 . S
C94 O91 1.244 . S
C94 O92 1.240 . S
H95 C69 0.931 . S
H96 C78 0.931 . S
H97 C82 0.929 . S
H98 C84 0.930 . S
Co99 N103 2.148 1_556 S
Co99 N109 2.128 . S
Co99 N119 2.194 . S
Co99 O124 2.351 . S
Co99 O125 2.155 . S
Co99 O126 2.096 . S
C100 N103 1.301 . S
C100 N104 1.328 . S
C100 H105 0.930 . S
C101 C102 1.333 . S
C101 N103 1.317 . S
C101 H106 0.930 . S
C102 C101 1.333 . S
C102 N104 1.350 . S
C102 H128 0.931 . S
N103 Co99 2.148 1_554 S
N103 C100 1.301 . S
N103 C101 1.317 . S
N104 C100 1.328 . S
N104 C102 1.350 . S
H105 C100 0.930 . S
H106 C101 0.930 . S
C107 O108 1.224 . S
C107 O126 1.247 . S
O108 C107 1.224 . S
N109 Co99 2.128 . S
N109 C110 1.355 . S
N109 C112 1.311 . S
C110 N109 1.355 . S
C110 C111 1.363 . S
C110 H122 0.929 . S
C111 C110 1.363 . S
C111 N113 1.375 . S
C111 H129 0.931 . S
C112 N109 1.311 . S
C112 N113 1.347 . S
C112 H123 0.929 . S
N113 C111 1.375 . S
N113 C112 1.347 . S
C114 C117 1.365 1_556 S
C114 N119 1.328 . S
C114 H120 0.929 1_556 S
C115 C116 1.362 . S
C115 C118 1.378 . S
C115 H130 0.929 . S
C116 C115 1.362 . S
C116 C117 1.366 1_556 S
C117 C114 1.365 1_554 S
C117 C116 1.366 1_554 S
C117 H131 0.930 . S
C118 C115 1.378 . S
C118 N119 1.315 . S
C118 H121 0.930 . S
N119 Co99 2.194 . S
N119 C114 1.328 . S
N119 C118 1.315 . S
H120 C114 0.929 1_554 S
H121 C118 0.930 . S
H122 C110 0.929 . S
H123 C112 0.929 . S
O124 Co99 2.351 . S
O124 C127 1.244 . S
O125 Co99 2.155 . S
O125 C127 1.240 . S
O126 Co99 2.096 . S
O126 C107 1.247 . S
C127 O124 1.244 . S
C127 O125 1.240 . S
H128 C102 0.931 . S
H129 C111 0.931 . S
H130 C115 0.929 . S
H131 C117 0.930 . S
Co132 N136 2.148 1_556 S
Co132 N142 2.128 . S
Co132 N152 2.194 . S
Co132 O157 2.351 . S
Co132 O158 2.155 . S
Co132 O159 2.096 . S
C133 N136 1.301 . S
C133 N137 1.328 . S
C133 H138 0.930 . S
C134 C135 1.333 . S
C134 N136 1.317 . S
C134 H139 0.930 . S
C135 C134 1.333 . S
C135 N137 1.350 . S
C135 H161 0.931 . S
N136 Co132 2.148 1_554 S
N136 C133 1.301 . S
N136 C134 1.317 . S
N137 C133 1.328 . S
N137 C135 1.350 . S
H138 C133 0.930 . S
H139 C134 0.930 . S
C140 O141 1.224 . S
C140 O159 1.247 . S
O141 C140 1.224 . S
N142 Co132 2.128 . S
N142 C143 1.355 . S
N142 C145 1.311 . S
C143 N142 1.355 . S
C143 C144 1.363 . S
C143 H155 0.929 . S
C144 C143 1.363 . S
C144 N146 1.375 . S
C144 H162 0.931 . S
C145 N142 1.311 . S
C145 N146 1.347 . S
C145 H156 0.929 . S
N146 C144 1.375 . S
N146 C145 1.347 . S
C147 C150 1.365 1_556 S
C147 N152 1.328 . S
C147 H153 0.929 1_556 S
C148 C149 1.362 . S
C148 C151 1.378 . S
C148 H163 0.929 . S
C149 C148 1.362 . S
C149 C150 1.366 1_556 S
C150 C147 1.365 1_554 S
C150 C149 1.366 1_554 S
C150 H164 0.930 . S
C151 C148 1.378 . S
C151 N152 1.315 . S
C151 H154 0.930 . S
N152 Co132 2.194 . S
N152 C147 1.328 . S
N152 C151 1.315 . S
H153 C147 0.929 1_554 S
H154 C151 0.930 . S
H155 C143 0.929 . S
H156 C145 0.929 . S
O157 Co132 2.351 . S
O157 C160 1.244 . S
O158 Co132 2.155 . S
O158 C160 1.240 . S
O159 Co132 2.096 . S
O159 C140 1.247 . S
C160 O157 1.244 . S
C160 O158 1.240 . S
H161 C135 0.931 . S
H162 C144 0.931 . S
H163 C148 0.929 . S
H164 C150 0.930 . S
Co165 N169 2.148 1_556 S
Co165 N175 2.128 . S
Co165 N185 2.194 . S
Co165 O190 2.351 . S
Co165 O191 2.155 . S
Co165 O192 2.096 . S
C166 N169 1.301 . S
C166 N170 1.328 . S
C166 H171 0.930 . S
C167 C168 1.333 . S
C167 N169 1.317 . S
C167 H172 0.930 . S
C168 C167 1.333 . S
C168 N170 1.350 . S
C168 H194 0.931 . S
N169 Co165 2.148 1_554 S
N169 C166 1.301 . S
N169 C167 1.317 . S
N170 C166 1.328 . S
N170 C168 1.350 . S
H171 C166 0.930 . S
H172 C167 0.930 . S
C173 O174 1.224 . S
C173 O192 1.247 . S
O174 C173 1.224 . S
N175 Co165 2.128 . S
N175 C176 1.355 . S
N175 C178 1.311 . S
C176 N175 1.355 . S
C176 C177 1.363 . S
C176 H188 0.929 . S
C177 C176 1.363 . S
C177 N179 1.375 . S
C177 H195 0.931 . S
C178 N175 1.311 . S
C178 N179 1.347 . S
C178 H189 0.929 . S
N179 C177 1.375 . S
N179 C178 1.347 . S
C180 C183 1.365 1_556 S
C180 N185 1.328 . S
C180 H186 0.929 1_556 S
C181 C182 1.362 . S
C181 C184 1.378 . S
C181 H196 0.929 . S
C182 C181 1.362 . S
C182 C183 1.366 1_556 S
C183 C180 1.365 1_554 S
C183 C182 1.366 1_554 S
C183 H197 0.930 . S
C184 C181 1.378 . S
C184 N185 1.315 . S
C184 H187 0.930 . S
N185 Co165 2.194 . S
N185 C180 1.328 . S
N185 C184 1.315 . S
H186 C180 0.929 1_554 S
H187 C184 0.930 . S
H188 C176 0.929 . S
H189 C178 0.929 . S
O190 Co165 2.351 . S
O190 C193 1.244 . S
O191 Co165 2.155 . S
O191 C193 1.240 . S
O192 Co165 2.096 . S
O192 C173 1.247 . S
C193 O190 1.244 . S
C193 O191 1.240 . S
H194 C168 0.931 . S
H195 C177 0.931 . S
H196 C181 0.929 . S
H197 C183 0.930 . S
Co198 N202 2.148 . S
Co198 N208 2.128 . S
Co198 N218 2.194 . S
Co198 O223 2.351 . S
Co198 O224 2.155 . S
Co198 O225 2.096 . S
C199 N202 1.301 . S
C199 N203 1.328 1_554 S
C199 H204 0.930 . S
C200 C201 1.333 . S
C200 N202 1.317 . S
C200 H205 0.930 . S
C201 C200 1.333 . S
C201 N203 1.350 1_554 S
C201 H227 0.931 1_554 S
N202 Co198 2.148 . S
N202 C199 1.301 . S
N202 C200 1.317 . S
N203 C199 1.328 1_556 S
N203 C201 1.350 1_556 S
H204 C199 0.930 . S
H205 C200 0.930 . S
C206 O207 1.224 . S
C206 O225 1.247 . S
O207 C206 1.224 . S
N208 Co198 2.128 . S
N208 C209 1.355 . S
N208 C211 1.311 . S
C209 N208 1.355 . S
C209 C210 1.363 . S
C209 H221 0.929 . S
C210 C209 1.363 . S
C210 N212 1.375 . S
C210 H228 0.931 . S
C211 N208 1.311 . S
C211 N212 1.347 . S
C211 H222 0.929 . S
N212 C210 1.375 . S
N212 C211 1.347 . S
C213 C216 1.365 . S
C213 N218 1.328 . S
C213 H219 0.929 . S
C214 C215 1.362 . S
C214 C217 1.378 . S
C214 H229 0.929 . S
C215 C214 1.362 . S
C215 C216 1.366 . S
C216 C213 1.365 . S
C216 C215 1.366 . S
C216 H230 0.930 . S
C217 C214 1.378 . S
C217 N218 1.315 . S
C217 H220 0.930 . S
N218 Co198 2.194 . S
N218 C213 1.328 . S
N218 C217 1.315 . S
H219 C213 0.929 . S
H220 C217 0.930 . S
H221 C209 0.929 . S
H222 C211 0.929 . S
O223 Co198 2.351 . S
O223 C226 1.244 . S
O224 Co198 2.155 . S
O224 C226 1.240 . S
O225 Co198 2.096 . S
O225 C206 1.247 . S
C226 O223 1.244 . S
C226 O224 1.240 . S
H227 C201 0.931 1_556 S
H228 C210 0.931 . S
H229 C214 0.929 . S
H230 C216 0.930 . S
Co231 N235 2.148 . S
Co231 N241 2.128 . S
Co231 N251 2.194 . S
Co231 O256 2.351 . S
Co231 O257 2.155 . S
Co231 O258 2.096 . S
C232 N235 1.301 . S
C232 N236 1.328 1_554 S
C232 H237 0.930 . S
C233 C234 1.333 . S
C233 N235 1.317 . S
C233 H238 0.930 . S
C234 C233 1.333 . S
C234 N236 1.350 1_554 S
C234 H260 0.931 1_554 S
N235 Co231 2.148 . S
N235 C232 1.301 . S
N235 C233 1.317 . S
N236 C232 1.328 1_556 S
N236 C234 1.350 1_556 S
H237 C232 0.930 . S
H238 C233 0.930 . S
C239 O240 1.224 . S
C239 O258 1.247 . S
O240 C239 1.224 . S
N241 Co231 2.128 . S
N241 C242 1.355 . S
N241 C244 1.311 . S
C242 N241 1.355 . S
C242 C243 1.363 . S
C242 H254 0.929 . S
C243 C242 1.363 . S
C243 N245 1.375 . S
C243 H261 0.931 . S
C244 N241 1.311 . S
C244 N245 1.347 . S
C244 H255 0.929 . S
N245 C243 1.375 . S
N245 C244 1.347 . S
C246 C249 1.365 . S
C246 N251 1.328 . S
C246 H252 0.929 . S
C247 C248 1.362 . S
C247 C250 1.378 . S
C247 H262 0.929 . S
C248 C247 1.362 . S
C248 C249 1.366 . S
C249 C246 1.365 . S
C249 C248 1.366 . S
C249 H263 0.930 . S
C250 C247 1.378 . S
C250 N251 1.315 . S
C250 H253 0.930 . S
N251 Co231 2.194 . S
N251 C246 1.328 . S
N251 C250 1.315 . S
H252 C246 0.929 . S
H253 C250 0.930 . S
H254 C242 0.929 . S
H255 C244 0.929 . S
O256 Co231 2.351 . S
O256 C259 1.244 . S
O257 Co231 2.155 . S
O257 C259 1.240 . S
O258 Co231 2.096 . S
O258 C239 1.247 . S
C259 O256 1.244 . S
C259 O257 1.240 . S
H260 C234 0.931 1_556 S
H261 C243 0.931 . S
H262 C247 0.929 . S
H263 C249 0.930 . S
Co264 N268 2.148 . S
Co264 N274 2.128 . S
Co264 N284 2.194 . S
Co264 O289 2.351 . S
Co264 O290 2.155 . S
Co264 O291 2.096 . S
C265 N268 1.301 . S
C265 N269 1.328 1_554 S
C265 H270 0.930 . S
C266 C267 1.333 . S
C266 N268 1.317 . S
C266 H271 0.930 . S
C267 C266 1.333 . S
C267 N269 1.350 1_554 S
C267 H293 0.931 1_554 S
N268 Co264 2.148 . S
N268 C265 1.301 . S
N268 C266 1.317 . S
N269 C265 1.328 1_556 S
N269 C267 1.350 1_556 S
H270 C265 0.930 . S
H271 C266 0.930 . S
C272 O273 1.224 . S
C272 O291 1.247 . S
O273 C272 1.224 . S
N274 Co264 2.128 . S
N274 C275 1.355 . S
N274 C277 1.311 . S
C275 N274 1.355 . S
C275 C276 1.363 . S
C275 H287 0.929 . S
C276 C275 1.363 . S
C276 N278 1.375 . S
C276 H294 0.931 . S
C277 N274 1.311 . S
C277 N278 1.347 . S
C277 H288 0.929 . S
N278 C276 1.375 . S
N278 C277 1.347 . S
C279 C282 1.365 . S
C279 N284 1.328 . S
C279 H285 0.929 . S
C280 C281 1.362 . S
C280 C283 1.378 . S
C280 H295 0.929 . S
C281 C280 1.362 . S
C281 C282 1.366 . S
C282 C279 1.365 . S
C282 C281 1.366 . S
C282 H296 0.930 . S
C283 C280 1.378 . S
C283 N284 1.315 . S
C283 H286 0.930 . S
N284 Co264 2.194 . S
N284 C279 1.328 . S
N284 C283 1.315 . S
H285 C279 0.929 . S
H286 C283 0.930 . S
H287 C275 0.929 . S
H288 C277 0.929 . S
O289 Co264 2.351 . S
O289 C292 1.244 . S
O290 Co264 2.155 . S
O290 C292 1.240 . S
O291 Co264 2.096 . S
O291 C272 1.247 . S
C292 O289 1.244 . S
C292 O290 1.240 . S
H293 C267 0.931 1_556 S
H294 C276 0.931 . S
H295 C280 0.929 . S
H296 C282 0.930 . S
Co297 N301 2.148 . S
Co297 N307 2.128 . S
Co297 N317 2.194 . S
Co297 O322 2.351 . S
Co297 O323 2.155 . S
Co297 O324 2.096 . S
C298 N301 1.301 . S
C298 N302 1.328 . S
C298 H303 0.930 . S
C299 C300 1.333 . S
C299 N301 1.317 . S
C299 H304 0.930 1_655 S
C300 C299 1.333 . S
C300 N302 1.350 . S
C300 H326 0.931 1_655 S
N301 Co297 2.148 . S
N301 C298 1.301 . S
N301 C299 1.317 . S
N302 C298 1.328 . S
N302 C300 1.350 . S
H303 C298 0.930 . S
H304 C299 0.930 1_455 S
C305 O306 1.224 . S
C305 O324 1.247 . S
O306 C305 1.224 . S
N307 Co297 2.128 . S
N307 C308 1.355 1_554 S
N307 C310 1.311 1_554 S
C308 N307 1.355 1_556 S
C308 C309 1.363 . S
C308 H320 0.929 1_556 S
C309 C308 1.363 . S
C309 N311 1.375 . S
C309 H327 0.931 . S
C310 N307 1.311 1_556 S
C310 N311 1.347 . S
C310 H321 0.929 . S
N311 C309 1.375 . S
N311 C310 1.347 . S
C312 C315 1.365 . S
C312 N317 1.328 . S
C312 H318 0.929 . S
C313 C314 1.362 . S
C313 C316 1.378 . S
C313 H328 0.929 . S
C314 C313 1.362 . S
C314 C315 1.366 . S
C315 C312 1.365 . S
C315 C314 1.366 . S
C315 H329 0.930 . S
C316 C313 1.378 . S
C316 N317 1.315 . S
C316 H319 0.930 . S
N317 Co297 2.194 . S
N317 C312 1.328 . S
N317 C316 1.315 . S
H318 C312 0.929 . S
H319 C316 0.930 . S
H320 C308 0.929 1_554 S
H321 C310 0.929 . S
O322 Co297 2.351 . S
O322 C325 1.244 . S
O323 Co297 2.155 . S
O323 C325 1.240 . S
O324 Co297 2.096 . S
O324 C305 1.247 . S
C325 O322 1.244 . S
C325 O323 1.240 . S
H326 C300 0.931 1_455 S
H327 C309 0.931 . S
H328 C313 0.929 . S
H329 C315 0.930 . S
Co330 N334 2.148 . S
Co330 N340 2.128 . S
Co330 N350 2.194 . S
Co330 O355 2.351 . S
Co330 O356 2.155 . S
Co330 O357 2.096 . S
C331 N334 1.301 . S
C331 N335 1.328 . S
C331 H336 0.930 . S
C332 C333 1.333 . S
C332 N334 1.317 . S
C332 H337 0.930 . S
C333 C332 1.333 . S
C333 N335 1.350 . S
C333 H359 0.931 . S
N334 Co330 2.148 . S
N334 C331 1.301 . S
N334 C332 1.317 . S
N335 C331 1.328 . S
N335 C333 1.350 . S
H336 C331 0.930 . S
H337 C332 0.930 . S
C338 O339 1.224 . S
C338 O357 1.247 . S
O339 C338 1.224 . S
N340 Co330 2.128 . S
N340 C341 1.355 1_554 S
N340 C343 1.311 1_554 S
C341 N340 1.355 1_556 S
C341 C342 1.363 . S
C341 H353 0.929 1_556 S
C342 C341 1.363 . S
C342 N344 1.375 . S
C342 H360 0.931 . S
C343 N340 1.311 1_556 S
C343 N344 1.347 . S
C343 H354 0.929 . S
N344 C342 1.375 . S
N344 C343 1.347 . S
C345 C348 1.365 . S
C345 N350 1.328 . S
C345 H351 0.929 . S
C346 C347 1.362 . S
C346 C349 1.378 . S
C346 H361 0.929 . S
C347 C346 1.362 . S
C347 C348 1.366 . S
C348 C345 1.365 . S
C348 C347 1.366 . S
C348 H362 0.930 . S
C349 C346 1.378 . S
C349 N350 1.315 . S
C349 H352 0.930 . S
N350 Co330 2.194 . S
N350 C345 1.328 . S
N350 C349 1.315 . S
H351 C345 0.929 . S
H352 C349 0.930 . S
H353 C341 0.929 1_554 S
H354 C343 0.929 . S
O355 Co330 2.351 . S
O355 C358 1.244 . S
O356 Co330 2.155 . S
O356 C358 1.240 . S
O357 Co330 2.096 . S
O357 C338 1.247 . S
C358 O355 1.244 . S
C358 O356 1.240 . S
H359 C333 0.931 . S
H360 C342 0.931 . S
H361 C346 0.929 . S
H362 C348 0.930 . S
Co363 N367 2.148 . S
Co363 N373 2.128 . S
Co363 N383 2.194 . S
Co363 O388 2.351 . S
Co363 O389 2.155 . S
Co363 O390 2.096 . S
C364 N367 1.301 . S
C364 N368 1.328 . S
C364 H369 0.930 . S
C365 C366 1.333 . S
C365 N367 1.317 . S
C365 H370 0.930 1_545 S
C366 C365 1.333 . S
C366 N368 1.350 . S
C366 H392 0.931 1_545 S
N367 Co363 2.148 . S
N367 C364 1.301 . S
N367 C365 1.317 . S
N368 C364 1.328 . S
N368 C366 1.350 . S
H369 C364 0.930 . S
H370 C365 0.930 1_565 S
C371 O372 1.224 . S
C371 O390 1.247 . S
O372 C371 1.224 . S
N373 Co363 2.128 . S
N373 C374 1.355 1_554 S
N373 C376 1.311 1_554 S
C374 N373 1.355 1_556 S
C374 C375 1.363 . S
C374 H386 0.929 1_556 S
C375 C374 1.363 . S
C375 N377 1.375 . S
C375 H393 0.931 . S
C376 N373 1.311 1_556 S
C376 N377 1.347 . S
C376 H387 0.929 . S
N377 C375 1.375 . S
N377 C376 1.347 . S
C378 C381 1.365 . S
C378 N383 1.328 . S
C378 H384 0.929 . S
C379 C380 1.362 . S
C379 C382 1.378 . S
C379 H394 0.929 . S
C380 C379 1.362 . S
C380 C381 1.366 . S
C381 C378 1.365 . S
C381 C380 1.366 . S
C381 H395 0.930 . S
C382 C379 1.378 . S
C382 N383 1.315 . S
C382 H385 0.930 . S
N383 Co363 2.194 . S
N383 C378 1.328 . S
N383 C382 1.315 . S
H384 C378 0.929 . S
H385 C382 0.930 . S
H386 C374 0.929 1_554 S
H387 C376 0.929 . S
O388 Co363 2.351 . S
O388 C391 1.244 . S
O389 Co363 2.155 . S
O389 C391 1.240 . S
O390 Co363 2.096 . S
O390 C371 1.247 . S
C391 O388 1.244 . S
C391 O389 1.240 . S
H392 C366 0.931 1_565 S
H393 C375 0.931 . S
H394 C379 0.929 . S
H395 C381 0.930 . S
Co396 N400 2.148 . S
Co396 N406 2.128 . S
Co396 N416 2.194 . S
Co396 O421 2.351 . S
Co396 O422 2.155 . S
Co396 O423 2.096 . S
C397 N400 1.301 . S
C397 N401 1.328 . S
C397 H402 0.930 . S
C398 C399 1.333 . S
C398 N400 1.317 . S
C398 H403 0.930 1_565 S
C399 C398 1.333 . S
C399 N401 1.350 . S
C399 H425 0.931 1_565 S
N400 Co396 2.148 . S
N400 C397 1.301 . S
N400 C398 1.317 . S
N401 C397 1.328 . S
N401 C399 1.350 . S
H402 C397 0.930 . S
H403 C398 0.930 1_545 S
C404 O405 1.224 . S
C404 O423 1.247 . S
O405 C404 1.224 . S
N406 Co396 2.128 . S
N406 C407 1.355 1_556 S
N406 C409 1.311 1_556 S
C407 N406 1.355 1_554 S
C407 C408 1.363 . S
C407 H419 0.929 1_554 S
C408 C407 1.363 . S
C408 N410 1.375 . S
C408 H426 0.931 . S
C409 N406 1.311 1_554 S
C409 N410 1.347 . S
C409 H420 0.929 . S
N410 C408 1.375 . S
N410 C409 1.347 . S
C411 C414 1.365 . S
C411 N416 1.328 . S
C411 H417 0.929 . S
C412 C413 1.362 . S
C412 C415 1.378 . S
C412 H427 0.929 . S
C413 C412 1.362 . S
C413 C414 1.366 . S
C414 C411 1.365 . S
C414 C413 1.366 . S
C414 H428 0.930 . S
C415 C412 1.378 . S
C415 N416 1.315 . S
C415 H418 0.930 . S
N416 Co396 2.194 . S
N416 C411 1.328 . S
N416 C415 1.315 . S
H417 C411 0.929 . S
H418 C415 0.930 . S
H419 C407 0.929 1_556 S
H420 C409 0.929 . S
O421 Co396 2.351 . S
O421 C424 1.244 . S
O422 Co396 2.155 . S
O422 C424 1.240 . S
O423 Co396 2.096 . S
O423 C404 1.247 . S
C424 O421 1.244 . S
C424 O422 1.240 . S
H425 C399 0.931 1_545 S
H426 C408 0.931 . S
H427 C412 0.929 . S
H428 C414 0.930 . S
Co429 N433 2.148 . S
Co429 N439 2.128 . S
Co429 N449 2.194 . S
Co429 O454 2.351 . S
Co429 O455 2.155 . S
Co429 O456 2.096 . S
C430 N433 1.301 . S
C430 N434 1.328 . S
C430 H435 0.930 . S
C431 C432 1.333 . S
C431 N433 1.317 . S
C431 H436 0.930 1_455 S
C432 C431 1.333 . S
C432 N434 1.350 . S
C432 H458 0.931 1_455 S
N433 Co429 2.148 . S
N433 C430 1.301 . S
N433 C431 1.317 . S
N434 C430 1.328 . S
N434 C432 1.350 . S
H435 C430 0.930 . S
H436 C431 0.930 1_655 S
C437 O438 1.224 . S
C437 O456 1.247 . S
O438 C437 1.224 . S
N439 Co429 2.128 . S
N439 C440 1.355 1_556 S
N439 C442 1.311 1_556 S
C440 N439 1.355 1_554 S
C440 C441 1.363 . S
C440 H452 0.929 1_554 S
C441 C440 1.363 . S
C441 N443 1.375 . S
C441 H459 0.931 . S
C442 N439 1.311 1_554 S
C442 N443 1.347 . S
C442 H453 0.929 . S
N443 C441 1.375 . S
N443 C442 1.347 . S
C444 C447 1.365 . S
C444 N449 1.328 . S
C444 H450 0.929 . S
C445 C446 1.362 . S
C445 C448 1.378 . S
C445 H460 0.929 . S
C446 C445 1.362 . S
C446 C447 1.366 . S
C447 C444 1.365 . S
C447 C446 1.366 . S
C447 H461 0.930 . S
C448 C445 1.378 . S
C448 N449 1.315 . S
C448 H451 0.930 . S
N449 Co429 2.194 . S
N449 C444 1.328 . S
N449 C448 1.315 . S
H450 C444 0.929 . S
H451 C448 0.930 . S
H452 C440 0.929 1_556 S
H453 C442 0.929 . S
O454 Co429 2.351 . S
O454 C457 1.244 . S
O455 Co429 2.155 . S
O455 C457 1.240 . S
O456 Co429 2.096 . S
O456 C437 1.247 . S
C457 O454 1.244 . S
C457 O455 1.240 . S
H458 C432 0.931 1_655 S
H459 C441 0.931 . S
H460 C445 0.929 . S
H461 C447 0.930 . S
Co462 N466 2.148 . S
Co462 N472 2.128 . S
Co462 N482 2.194 . S
Co462 O487 2.351 . S
Co462 O488 2.155 . S
Co462 O489 2.096 . S
C463 N466 1.301 . S
C463 N467 1.328 . S
C463 H468 0.930 . S
C464 C465 1.333 . S
C464 N466 1.317 . S
C464 H469 0.930 . S
C465 C464 1.333 . S
C465 N467 1.350 . S
C465 H491 0.931 . S
N466 Co462 2.148 . S
N466 C463 1.301 . S
N466 C464 1.317 . S
N467 C463 1.328 . S
N467 C465 1.350 . S
H468 C463 0.930 . S
H469 C464 0.930 . S
C470 O471 1.224 . S
C470 O489 1.247 . S
O471 C470 1.224 . S
N472 Co462 2.128 . S
N472 C473 1.355 1_556 S
N472 C475 1.311 1_556 S
C473 N472 1.355 1_554 S
C473 C474 1.363 . S
C473 H485 0.929 1_554 S
C474 C473 1.363 . S
C474 N476 1.375 . S
C474 H492 0.931 . S
C475 N472 1.311 1_554 S
C475 N476 1.347 . S
C475 H486 0.929 . S
N476 C474 1.375 . S
N476 C475 1.347 . S
C477 C480 1.365 . S
C477 N482 1.328 . S
C477 H483 0.929 . S
C478 C479 1.362 . S
C478 C481 1.378 . S
C478 H493 0.929 . S
C479 C478 1.362 . S
C479 C480 1.366 . S
C480 C477 1.365 . S
C480 C479 1.366 . S
C480 H494 0.930 . S
C481 C478 1.378 . S
C481 N482 1.315 . S
C481 H484 0.930 . S
N482 Co462 2.194 . S
N482 C477 1.328 . S
N482 C481 1.315 . S
H483 C477 0.929 . S
H484 C481 0.930 . S
H485 C473 0.929 1_556 S
H486 C475 0.929 . S
O487 Co462 2.351 . S
O487 C490 1.244 . S
O488 Co462 2.155 . S
O488 C490 1.240 . S
O489 Co462 2.096 . S
O489 C470 1.247 . S
C490 O487 1.244 . S
C490 O488 1.240 . S
H491 C465 0.931 . S
H492 C474 0.931 . S
H493 C478 0.929 . S
H494 C480 0.930 . S
Co495 N499 2.148 . S
Co495 N505 2.128 . S
Co495 N515 2.194 . S
Co495 O520 2.351 . S
Co495 O521 2.155 . S
Co495 O522 2.096 . S
C496 N499 1.301 . S
C496 N500 1.328 1_556 S
C496 H501 0.930 . S
C497 C498 1.333 . S
C497 N499 1.317 . S
C497 H502 0.930 . S
C498 C497 1.333 . S
C498 N500 1.350 1_556 S
C498 H524 0.931 1_556 S
N499 Co495 2.148 . S
N499 C496 1.301 . S
N499 C497 1.317 . S
N500 C496 1.328 1_554 S
N500 C498 1.350 1_554 S
H501 C496 0.930 . S
H502 C497 0.930 . S
C503 O504 1.224 . S
C503 O522 1.247 . S
O504 C503 1.224 . S
N505 Co495 2.128 . S
N505 C506 1.355 . S
N505 C508 1.311 . S
C506 N505 1.355 . S
C506 C507 1.363 . S
C506 H518 0.929 . S
C507 C506 1.363 . S
C507 N509 1.375 . S
C507 H525 0.931 . S
C508 N505 1.311 . S
C508 N509 1.347 . S
C508 H519 0.929 . S
N509 C507 1.375 . S
N509 C508 1.347 . S
C510 C513 1.365 . S
C510 N515 1.328 . S
C510 H516 0.929 . S
C511 C512 1.362 . S
C511 C514 1.378 . S
C511 H526 0.929 . S
C512 C511 1.362 . S
C512 C513 1.366 . S
C513 C510 1.365 . S
C513 C512 1.366 . S
C513 H527 0.930 . S
C514 C511 1.378 . S
C514 N515 1.315 . S
C514 H517 0.930 . S
N515 Co495 2.194 . S
N515 C510 1.328 . S
N515 C514 1.315 . S
H516 C510 0.929 . S
H517 C514 0.930 . S
H518 C506 0.929 . S
H519 C508 0.929 . S
O520 Co495 2.351 . S
O520 C523 1.244 . S
O521 Co495 2.155 . S
O521 C523 1.240 . S
O522 Co495 2.096 . S
O522 C503 1.247 . S
C523 O520 1.244 . S
C523 O521 1.240 . S
H524 C498 0.931 1_554 S
H525 C507 0.931 . S
H526 C511 0.929 . S
H527 C513 0.930 . S
Co528 N532 2.148 . S
Co528 N538 2.128 . S
Co528 N548 2.194 . S
Co528 O553 2.351 . S
Co528 O554 2.155 . S
Co528 O555 2.096 . S
C529 N532 1.301 . S
C529 N533 1.328 1_556 S
C529 H534 0.930 . S
C530 C531 1.333 . S
C530 N532 1.317 . S
C530 H535 0.930 . S
C531 C530 1.333 . S
C531 N533 1.350 1_556 S
C531 H557 0.931 1_556 S
N532 Co528 2.148 . S
N532 C529 1.301 . S
N532 C530 1.317 . S
N533 C529 1.328 1_554 S
N533 C531 1.350 1_554 S
H534 C529 0.930 . S
H535 C530 0.930 . S
C536 O537 1.224 . S
C536 O555 1.247 . S
O537 C536 1.224 . S
N538 Co528 2.128 . S
N538 C539 1.355 . S
N538 C541 1.311 . S
C539 N538 1.355 . S
C539 C540 1.363 . S
C539 H551 0.929 . S
C540 C539 1.363 . S
C540 N542 1.375 . S
C540 H558 0.931 . S
C541 N538 1.311 . S
C541 N542 1.347 . S
C541 H552 0.929 . S
N542 C540 1.375 . S
N542 C541 1.347 . S
C543 C546 1.365 . S
C543 N548 1.328 . S
C543 H549 0.929 . S
C544 C545 1.362 . S
C544 C547 1.378 . S
C544 H559 0.929 . S
C545 C544 1.362 . S
C545 C546 1.366 . S
C546 C543 1.365 . S
C546 C545 1.366 . S
C546 H560 0.930 . S
C547 C544 1.378 . S
C547 N548 1.315 . S
C547 H550 0.930 . S
N548 Co528 2.194 . S
N548 C543 1.328 . S
N548 C547 1.315 . S
H549 C543 0.929 . S
H550 C547 0.930 . S
H551 C539 0.929 . S
H552 C541 0.929 . S
O553 Co528 2.351 . S
O553 C556 1.244 . S
O554 Co528 2.155 . S
O554 C556 1.240 . S
O555 Co528 2.096 . S
O555 C536 1.247 . S
C556 O553 1.244 . S
C556 O554 1.240 . S
H557 C531 0.931 1_554 S
H558 C540 0.931 . S
H559 C544 0.929 . S
H560 C546 0.930 . S
Co561 N565 2.148 . S
Co561 N571 2.128 . S
Co561 N581 2.194 . S
Co561 O586 2.351 . S
Co561 O587 2.155 . S
Co561 O588 2.096 . S
C562 N565 1.301 . S
C562 N566 1.328 1_556 S
C562 H567 0.930 . S
C563 C564 1.333 . S
C563 N565 1.317 . S
C563 H568 0.930 . S
C564 C563 1.333 . S
C564 N566 1.350 1_556 S
C564 H590 0.931 1_556 S
N565 Co561 2.148 . S
N565 C562 1.301 . S
N565 C563 1.317 . S
N566 C562 1.328 1_554 S
N566 C564 1.350 1_554 S
H567 C562 0.930 . S
H568 C563 0.930 . S
C569 O570 1.224 . S
C569 O588 1.247 . S
O570 C569 1.224 . S
N571 Co561 2.128 . S
N571 C572 1.355 . S
N571 C574 1.311 . S
C572 N571 1.355 . S
C572 C573 1.363 . S
C572 H584 0.929 . S
C573 C572 1.363 . S
C573 N575 1.375 . S
C573 H591 0.931 . S
C574 N571 1.311 . S
C574 N575 1.347 . S
C574 H585 0.929 . S
N575 C573 1.375 . S
N575 C574 1.347 . S
C576 C579 1.365 . S
C576 N581 1.328 . S
C576 H582 0.929 . S
C577 C578 1.362 . S
C577 C580 1.378 . S
C577 H592 0.929 . S
C578 C577 1.362 . S
C578 C579 1.366 . S
C579 C576 1.365 . S
C579 C578 1.366 . S
C579 H593 0.930 . S
C580 C577 1.378 . S
C580 N581 1.315 . S
C580 H583 0.930 . S
N581 Co561 2.194 . S
N581 C576 1.328 . S
N581 C580 1.315 . S
H582 C576 0.929 . S
H583 C580 0.930 . S
H584 C572 0.929 . S
H585 C574 0.929 . S
O586 Co561 2.351 . S
O586 C589 1.244 . S
O587 Co561 2.155 . S
O587 C589 1.240 . S
O588 Co561 2.096 . S
O588 C569 1.247 . S
C589 O586 1.244 . S
C589 O587 1.240 . S
H590 C564 0.931 1_554 S
H591 C573 0.931 . S
H592 C577 0.929 . S
H593 C579 0.930 . S
N14 N5 2.090 . S
N47 N38 2.090 . S
N71 N80 2.090 . S
N113 N104 2.090 . S
N146 N137 2.090 . S
N170 N179 2.090 . S
N203 N212 2.090 . S
N236 N245 2.090 . S
N278 N269 2.090 . S
N311 N302 2.090 . S
N344 N335 2.090 . S
N368 N377 2.090 . S
N401 N410 2.090 . S
N434 N443 2.090 . S
N467 N476 2.090 . S
N509 N500 2.090 . S
N542 N533 2.090 . S
N566 N575 2.090 . S
C569 C8 2.207 . S
C41 C503 2.207 . S
C536 C74 2.207 . S
C239 C107 2.207 . S
C140 C272 2.207 . S
C173 C206 2.207 . S
C305 C437 2.207 1_654 S
C470 C338 2.207 1_556 S
C371 C404 2.207 1_544 S
C28 C127 1.668 1_554 S
C61 C160 1.668 1_564 S
C193 C94 1.668 1_656 S
C182 C50 1.658 1_556 S
C116 C83 1.658 1_546 S
C149 C17 1.658 1_656 S
C325 C226 1.668 . S
C358 C259 1.668 . S
C292 C391 1.668 . S
C380 C248 1.658 . S
C281 C314 1.658 . S
C215 C347 1.658 . S
C523 C424 1.668 . S
C556 C457 1.668 . S
C589 C490 1.668 . S
C446 C578 1.658 . S
C479 C512 1.658 . S
C545 C413 1.658 . S
