# Generated by pormake.
# Topology uou, (4)-cn, num edge types: 1
# Building blocks:
#     Node 0, Type 0, BuildingBlock: CEKHIL_clean_sbu_0, # of connection points: 4
#     Node 1, Type 0, BuildingBlock: CEKHIL_clean_sbu_0, # of connection points: 4
#     Node 2, Type 0, BuildingBlock: CEKHIL_clean_sbu_0, # of connection points: 4
#     Node 3, Type 0, BuildingBlock: CEKHIL_clean_sbu_0, # of connection points: 4
#     Node 4, Type 0, BuildingBlock: CEKHIL_clean_sbu_0, # of connection points: 4
#     Node 5, Type 0, BuildingBlock: CEKHIL_clean_sbu_0, # of connection points: 4
#     Node 6, Type 0, BuildingBlock: CEKHIL_clean_sbu_0, # of connection points: 4
#     Node 7, Type 0, BuildingBlock: CEKHIL_clean_sbu_0, # of connection points: 4
#     Node 8, Type 0, BuildingBlock: CEKHIL_clean_sbu_0, # of connection points: 4
#     Node 9, Type 0, BuildingBlock: CEKHIL_clean_sbu_0, # of connection points: 4
#     Node 10, Type 0, BuildingBlock: CEKHIL_clean_sbu_0, # of connection points: 4
#     Node 11, Type 0, BuildingBlock: CEKHIL_clean_sbu_0, # of connection points: 4
#     Node 12, Type 0, BuildingBlock: CEKHIL_clean_sbu_0, # of connection points: 4
#     Node 13, Type 0, BuildingBlock: CEKHIL_clean_sbu_0, # of connection points: 4
#     Node 14, Type 0, BuildingBlock: CEKHIL_clean_sbu_0, # of connection points: 4
#     Node 15, Type 0, BuildingBlock: CEKHIL_clean_sbu_0, # of connection points: 4
#     Edge 16, Type (0, 0), BuildingBlock: KIFKEQ_clean_linker_1, # of connection points: 2
#     Edge 17, Type (0, 0), BuildingBlock: KIFKEQ_clean_linker_1, # of connection points: 2
#     Edge 18, Type (0, 0), BuildingBlock: KIFKEQ_clean_linker_1, # of connection points: 2
#     Edge 19, Type (0, 0), BuildingBlock: KIFKEQ_clean_linker_1, # of connection points: 2
#     Edge 20, Type (0, 0), BuildingBlock: KIFKEQ_clean_linker_1, # of connection points: 2
#     Edge 21, Type (0, 0), BuildingBlock: KIFKEQ_clean_linker_1, # of connection points: 2
#     Edge 22, Type (0, 0), BuildingBlock: KIFKEQ_clean_linker_1, # of connection points: 2
#     Edge 23, Type (0, 0), BuildingBlock: KIFKEQ_clean_linker_1, # of connection points: 2
#     Edge 24, Type (0, 0), BuildingBlock: KIFKEQ_clean_linker_1, # of connection points: 2
#     Edge 25, Type (0, 0), BuildingBlock: KIFKEQ_clean_linker_1, # of connection points: 2
#     Edge 26, Type (0, 0), BuildingBlock: KIFKEQ_clean_linker_1, # of connection points: 2
#     Edge 27, Type (0, 0), BuildingBlock: KIFKEQ_clean_linker_1, # of connection points: 2
#     Edge 28, Type (0, 0), BuildingBlock: KIFKEQ_clean_linker_1, # of connection points: 2
#     Edge 29, Type (0, 0), BuildingBlock: KIFKEQ_clean_linker_1, # of connection points: 2
#     Edge 30, Type (0, 0), BuildingBlock: KIFKEQ_clean_linker_1, # of connection points: 2
#     Edge 31, Type (0, 0), BuildingBlock: KIFKEQ_clean_linker_1, # of connection points: 2
#     Edge 32, Type (0, 0), BuildingBlock: KIFKEQ_clean_linker_1, # of connection points: 2
#     Edge 33, Type (0, 0), BuildingBlock: KIFKEQ_clean_linker_1, # of connection points: 2
#     Edge 34, Type (0, 0), BuildingBlock: KIFKEQ_clean_linker_1, # of connection points: 2
#     Edge 35, Type (0, 0), BuildingBlock: KIFKEQ_clean_linker_1, # of connection points: 2
#     Edge 36, Type (0, 0), BuildingBlock: KIFKEQ_clean_linker_1, # of connection points: 2
#     Edge 37, Type (0, 0), BuildingBlock: KIFKEQ_clean_linker_1, # of connection points: 2
#     Edge 38, Type (0, 0), BuildingBlock: KIFKEQ_clean_linker_1, # of connection points: 2
#     Edge 39, Type (0, 0), BuildingBlock: KIFKEQ_clean_linker_1, # of connection points: 2
#     Edge 40, Type (0, 0), BuildingBlock: KIFKEQ_clean_linker_1, # of connection points: 2
#     Edge 41, Type (0, 0), BuildingBlock: KIFKEQ_clean_linker_1, # of connection points: 2
#     Edge 42, Type (0, 0), BuildingBlock: KIFKEQ_clean_linker_1, # of connection points: 2
#     Edge 43, Type (0, 0), BuildingBlock: KIFKEQ_clean_linker_1, # of connection points: 2
#     Edge 44, Type (0, 0), BuildingBlock: KIFKEQ_clean_linker_1, # of connection points: 2
#     Edge 45, Type (0, 0), BuildingBlock: KIFKEQ_clean_linker_1, # of connection points: 2
#     Edge 46, Type (0, 0), BuildingBlock: KIFKEQ_clean_linker_1, # of connection points: 2
#     Edge 47, Type (0, 0), BuildingBlock: KIFKEQ_clean_linker_1, # of connection points: 2
# Relax obj value: 0.038
# Max RMSD: 0.067
# Mean RMSD: 0.067
data_MOF--net-uou--node1-CEKHIL_clean_sbu_0--edge1-KIFKEQ_clean_linker_1
_symmetry_space_group_name_H-M    P1
_symmetry_Int_Tables_number       1
_symmetry_cell_setting            triclinic
loop_
_symmetry_equiv_pos_as_xyz
'x, y, z'
_cell_length_a     38.313372
_cell_length_b     40.652302
_cell_length_c     53.963856
_cell_angle_alpha  90.002683
_cell_angle_beta   89.97315
_cell_angle_gamma 90.008869
loop_
_atom_site_label
_atom_site_type_symbol
_atom_site_fract_x
_atom_site_fract_y
_atom_site_fract_z
_atom_type_partial_charge
Co0 Co 0.07992 0.07302 0.12464 0.0
O1 O 0.10965 0.03468 0.12633 0.0
O2 O 0.12533 0.08186 0.10954 0.0
C3 C 0.06141 0.07122 0.16437 0.0
O4 O 0.05635 0.11829 0.12076 0.0
Co5 Co 0.99967 0.06528 0.13333 0.0
O6 O 1.001 0.11396 0.13457 0.0
C7 C 0.03071 0.04353 0.08616 0.0
C8 C 0.13376 0.05184 0.11552 0.0
C9 C 0.02661 0.13116 0.12679 0.0
O10 O 0.05994 0.05736 0.0919 0.0
O11 O 1.00491 0.04134 0.10115 0.0
O12 O 0.09145 0.08428 0.15903 0.0
O13 O 0.04576 0.05697 0.14617 0.0
Co14 Co 0.4325 0.93611 0.12459 0.0
O15 O 0.40302 0.97465 0.12612 0.0
O16 O 0.38708 0.92743 0.10952 0.0
C17 C 0.45095 0.93815 0.16431 0.0
O18 O 0.45573 0.89065 0.1209 0.0
Co19 Co 0.5128 0.94323 0.1333 0.0
O20 O 0.51098 0.89458 0.13493 0.0
C21 C 0.48206 0.96489 0.08602 0.0
C22 C 0.37882 0.95753 0.11539 0.0
C23 C 0.48527 0.87756 0.12712 0.0
O24 O 0.45266 0.95141 0.09181 0.0
O25 O 0.50787 0.96689 0.101 0.0
O26 O 0.42083 0.92521 0.15903 0.0
O27 O 0.46676 0.95211 0.14605 0.0
Co28 Co 0.57935 0.93631 0.37335 0.0
O29 O 0.60888 0.97484 0.37218 0.0
O30 O 0.62453 0.92748 0.38869 0.0
C31 C 0.56161 0.93871 0.33346 0.0
O32 O 0.55616 0.89074 0.37672 0.0
Co33 Co 0.4992 0.94273 0.36366 0.0
O34 O 0.50155 0.89422 0.36148 0.0
C35 C 0.52827 0.96266 0.41208 0.0
C36 C 0.63294 0.95758 0.38295 0.0
C37 C 0.52702 0.8774 0.36987 0.0
O38 O 0.55865 0.95142 0.40606 0.0
O39 O 0.50241 0.96357 0.3971 0.0
O40 O 0.59158 0.92566 0.33896 0.0
O41 O 0.54541 0.95244 0.35164 0.0
Co42 Co 0.93173 0.07293 0.37316 0.0
O43 O 0.90256 0.03413 0.37158 0.0
O44 O 0.88638 0.08118 0.38837 0.0
C45 C 0.95011 0.07133 0.33337 0.0
O46 O 0.95421 0.11869 0.37701 0.0
Co47 Co 0.01216 0.06744 0.36406 0.0
O48 O 0.01071 0.11602 0.36533 0.0
C49 C 0.98245 0.04613 0.4119 0.0
C50 C 0.87829 0.05107 0.38243 0.0
C51 C 0.98411 0.13225 0.37254 0.0
O52 O 0.95219 0.05762 0.4059 0.0
O53 O 0.00839 0.04532 0.39697 0.0
O54 O 0.91986 0.0839 0.33877 0.0
O55 O 0.96622 0.05751 0.35154 0.0
Co56 Co 0.93254 0.93654 0.87334 0.0
O57 O 0.90316 0.97516 0.87147 0.0
O58 O 0.88728 0.92825 0.88865 0.0
C59 C 0.95081 0.93761 0.83353 0.0
O60 O 0.95516 0.89094 0.87754 0.0
Co61 Co 0.01291 0.94214 0.86415 0.0
O62 O 0.01165 0.89356 0.86585 0.0
C63 C 0.98317 0.9643 0.91176 0.0
C64 C 0.879 0.95821 0.88245 0.0
C65 C 0.98508 0.87738 0.87317 0.0
O66 O 0.95299 0.95243 0.90593 0.0
O67 O 0.00904 0.96503 0.89676 0.0
O68 O 0.92063 0.92501 0.83908 0.0
O69 O 0.96692 0.95177 0.85156 0.0
Co70 Co 0.5795 0.07185 0.87296 0.0
O71 O 0.60909 0.03338 0.87106 0.0
O72 O 0.62472 0.08036 0.88823 0.0
C73 C 0.56119 0.07072 0.83318 0.0
O74 O 0.55655 0.1173 0.87718 0.0
Co75 Co 0.49914 0.0657 0.86385 0.0
O76 O 0.50012 0.11428 0.86542 0.0
C77 C 0.52906 0.04395 0.91149 0.0
C78 C 0.63316 0.05044 0.88204 0.0
C79 C 0.52654 0.13065 0.87276 0.0
O80 O 0.55918 0.05586 0.90557 0.0
O81 O 0.50313 0.04308 0.89656 0.0
O82 O 0.59131 0.08346 0.83869 0.0
O83 O 0.5452 0.05642 0.85122 0.0
Co84 Co 0.43195 0.07321 0.62447 0.0
O85 O 0.40212 0.03495 0.62632 0.0
O86 O 0.38663 0.08202 0.60927 0.0
C87 C 0.45033 0.0717 0.66421 0.0
O88 O 0.45566 0.11841 0.6204 0.0
Co89 Co 0.51216 0.06543 0.63325 0.0
O90 O 0.51095 0.11411 0.6343 0.0
C91 C 0.48117 0.04316 0.58622 0.0
C92 C 0.3781 0.05207 0.61539 0.0
C93 C 0.4854 0.13128 0.62642 0.0
O94 O 0.45198 0.05716 0.59184 0.0
O95 O 0.50692 0.04113 0.60125 0.0
O96 O 0.42034 0.08479 0.65879 0.0
O97 O 0.46601 0.05728 0.64609 0.0
Co98 Co 0.07917 0.93666 0.62442 0.0
O99 O 0.10887 0.97502 0.62633 0.0
O100 O 0.12451 0.92807 0.60916 0.0
C101 C 0.06081 0.9379 0.66418 0.0
O102 O 0.05566 0.89141 0.62026 0.0
Co103 Co 0.99895 0.94419 0.63326 0.0
O104 O 1.00019 0.89549 0.63385 0.0
C105 C 0.0298 0.96659 0.58623 0.0
C106 C 0.13294 0.95802 0.61534 0.0
C107 C 0.02587 0.87844 0.62601 0.0
O108 O 0.05906 0.95273 0.59184 0.0
O109 O 1.00404 0.96855 0.60127 0.0
O110 O 0.09085 0.92496 0.65869 0.0
O111 O 0.04506 0.95237 0.64613 0.0
Co112 Co 0.57833 0.57226 0.12487 0.0
O113 O 0.60791 0.53381 0.12661 0.0
O114 O 0.62363 0.58081 0.10954 0.0
C115 C 0.56016 0.57082 0.16467 0.0
O116 O 0.55499 0.61762 0.12088 0.0
Co117 Co 0.49812 0.56505 0.1339 0.0
O118 O 0.49957 0.61374 0.13461 0.0
C119 C 0.52863 0.54272 0.08672 0.0
C120 C 0.63199 0.55082 0.11562 0.0
C121 C 0.52529 0.6307 0.12674 0.0
O122 O 0.55801 0.5564 0.0923 0.0
O123 O 0.50292 0.54085 0.10181 0.0
O124 O 0.59022 0.58373 0.15915 0.0
O125 O 0.54426 0.55653 0.1466 0.0
Co126 Co 0.931 0.43576 0.12469 0.0
O127 O 0.90119 0.47404 0.12639 0.0
O128 O 0.88564 0.42684 0.10957 0.0
C129 C 0.94943 0.43759 0.16441 0.0
O130 O 0.95466 0.39053 0.12079 0.0
Co131 Co 0.01122 0.44362 0.13338 0.0
O132 O 0.01006 0.39493 0.13444 0.0
C133 C 0.98019 0.46544 0.08626 0.0
C134 C 0.87714 0.45684 0.11557 0.0
C135 C 0.98446 0.37771 0.12669 0.0
O136 O 0.951 0.45149 0.09196 0.0
O137 O 0.00594 0.46768 0.10127 0.0
O138 O 0.91943 0.42446 0.15907 0.0
O139 O 0.96509 0.45186 0.14622 0.0
Co140 Co 0.07854 0.43743 0.37327 0.0
O141 O 0.10773 0.47621 0.37159 0.0
O142 O 0.12387 0.42923 0.3885 0.0
C143 C 0.06022 0.43881 0.33349 0.0
O144 O 0.05604 0.3917 0.37723 0.0
Co145 Co 0.99813 0.44296 0.36421 0.0
O146 O 0.99957 0.39438 0.3655 0.0
C147 C 0.02784 0.46443 0.41199 0.0
C148 C 0.13198 0.4593 0.38249 0.0
C149 C 0.02614 0.37815 0.37274 0.0
O150 O 0.05808 0.45289 0.40598 0.0
O151 O 1.00188 0.4652 0.39709 0.0
O152 O 0.09046 0.42628 0.33893 0.0
O153 O 0.04409 0.45276 0.35162 0.0
Co154 Co 0.43151 0.57314 0.37369 0.0
O155 O 0.40145 0.53505 0.3719 0.0
O156 O 0.38624 0.58227 0.38886 0.0
C157 C 0.4499 0.57143 0.33395 0.0
O158 O 0.45546 0.6182 0.37768 0.0
Co159 Co 0.51167 0.56488 0.36494 0.0
O160 O 0.51094 0.61358 0.36421 0.0
C161 C 0.48049 0.543 0.41201 0.0
C162 C 0.37752 0.55236 0.38277 0.0
C163 C 0.48539 0.63088 0.37193 0.0
O164 O 0.4514 0.55713 0.40635 0.0
O165 O 0.50624 0.54069 0.39699 0.0
O166 O 0.41999 0.58468 0.33937 0.0
O167 O 0.4655 0.55696 0.35207 0.0
Co168 Co 0.4313 0.43546 0.87362 0.0
O169 O 0.402 0.47414 0.87188 0.0
O170 O 0.38587 0.42706 0.88865 0.0
C171 C 0.44999 0.437 0.83391 0.0
O172 O 0.45386 0.38979 0.87762 0.0
Co173 Co 0.5118 0.44111 0.8648 0.0
O174 O 0.51045 0.39253 0.86616 0.0
C175 C 0.48168 0.46241 0.91253 0.0
C176 C 0.37771 0.45711 0.88263 0.0
C177 C 0.48382 0.37628 0.87329 0.0
O178 O 0.45146 0.4509 0.90642 0.0
O179 O 0.50774 0.46321 0.8977 0.0
O180 O 0.41974 0.42437 0.83921 0.0
O181 O 0.46592 0.45092 0.85212 0.0
Co182 Co 0.0788 0.57228 0.87343 0.0
O183 O 0.10806 0.53357 0.87156 0.0
O184 O 0.12409 0.58045 0.8887 0.0
C185 C 0.06049 0.5712 0.83363 0.0
O186 O 0.05629 0.61793 0.87761 0.0
Co187 Co 0.9984 0.56683 0.86428 0.0
O188 O 0.99979 0.6154 0.86594 0.0
C189 C 0.02808 0.54469 0.91189 0.0
C190 C 0.13228 0.55046 0.88252 0.0
C191 C 0.02639 0.63154 0.87325 0.0
O192 O 0.05829 0.55648 0.90604 0.0
O193 O 1.00222 0.54398 0.89691 0.0
O194 O 0.09072 0.58374 0.83914 0.0
O195 O 0.04437 0.5571 0.85169 0.0
Co196 Co 0.93149 0.57354 0.62478 0.0
O197 O 0.90173 0.5352 0.62653 0.0
O198 O 0.88616 0.58232 0.6096 0.0
C199 C 0.94987 0.5719 0.66453 0.0
O200 O 0.95504 0.61881 0.6208 0.0
Co201 Co 0.01172 0.56605 0.63359 0.0
O202 O 0.01024 0.61472 0.63489 0.0
C203 C 0.98092 0.54405 0.58641 0.0
C204 C 0.87768 0.55233 0.61565 0.0
C205 C 0.98466 0.6318 0.62696 0.0
O206 O 0.95159 0.55773 0.59211 0.0
O207 O 0.00671 0.5421 0.6014 0.0
O208 O 0.91985 0.58494 0.65913 0.0
O209 O 0.9656 0.55761 0.64638 0.0
Co210 Co 0.57887 0.43689 0.62496 0.0
O211 O 0.60833 0.47547 0.62642 0.0
O212 O 0.6241 0.42839 0.60952 0.0
C213 C 0.56104 0.43866 0.66486 0.0
O214 O 0.55573 0.39133 0.62123 0.0
Co215 Co 0.49868 0.44326 0.63465 0.0
O216 O 0.50085 0.39469 0.63606 0.0
C217 C 0.5279 0.46394 0.58645 0.0
C218 C 0.63242 0.45844 0.61548 0.0
C219 C 0.52642 0.37796 0.6277 0.0
O220 O 0.55819 0.45241 0.59236 0.0
O221 O 0.50207 0.46482 0.60149 0.0
O222 O 0.59106 0.42578 0.65927 0.0
O223 O 0.54489 0.45266 0.64679 0.0
H224 H 0.35718 0.02037 0.12441 0.0
H225 H 0.31973 0.92666 0.09782 0.0
H226 H 0.29849 0.04289 0.12155 0.0
H227 H 0.26075 0.94944 0.09451 0.0
H228 H 0.15557 0.98909 0.12458 0.0
H229 H 0.21427 0.96667 0.12166 0.0
H230 H 0.25183 0.06015 0.09454 0.0
H231 H 0.1928 0.08285 0.09792 0.0
C232 C 0.33647 0.00462 0.11765 0.0
C233 C 0.34327 0.97159 0.11145 0.0
C234 C 0.30271 0.01767 0.11584 0.0
C235 C 0.2746 0.99809 0.10785 0.0
C236 C 0.28157 0.96522 0.10105 0.0
C237 C 0.31547 0.95216 0.10279 0.0
C238 C 0.17624 0.00488 0.11779 0.0
C239 C 0.16936 0.03789 0.11158 0.0
C240 C 0.21001 0.99188 0.11595 0.0
C241 C 0.23807 0.01149 0.1079 0.0
C242 C 0.23104 0.04436 0.10112 0.0
C243 C 0.19712 0.05736 0.10289 0.0
H244 H 0.69195 0.92612 0.39999 0.0
H245 H 0.65486 0.02045 0.37445 0.0
H246 H 0.75115 0.94848 0.40314 0.0
H247 H 0.71374 0.04257 0.37716 0.0
H248 H 0.81959 0.08168 0.40074 0.0
H249 H 0.7606 0.05905 0.40423 0.0
H250 H 0.79756 0.96602 0.37584 0.0
H251 H 0.85634 0.98842 0.37279 0.0
C252 C 0.69634 0.95167 0.39524 0.0
C253 C 0.66858 0.9714 0.38691 0.0
C254 C 0.73035 0.96448 0.39687 0.0
C255 C 0.73747 0.99741 0.39032 0.0
C256 C 0.7094 0.01729 0.38267 0.0
C257 C 0.67554 0.00448 0.38097 0.0
C258 C 0.81517 0.0563 0.3955 0.0
C259 C 0.84278 0.03696 0.38642 0.0
C260 C 0.78125 0.04333 0.39734 0.0
C261 C 0.77406 0.01064 0.39023 0.0
C262 C 0.80197 0.99111 0.3818 0.0
C263 C 0.83577 1.00408 0.3799 0.0
H264 H 0.82021 0.92706 0.90006 0.0
H265 H 0.85685 0.02084 0.87301 0.0
H266 H 0.76099 0.94928 0.90309 0.0
H267 H 0.79785 0.04285 0.87567 0.0
H268 H 0.65555 0.98791 0.87255 0.0
H269 H 0.71454 0.966 0.87541 0.0
H270 H 0.751 0.05957 0.90309 0.0
H271 H 0.69176 0.0817 0.89984 0.0
C272 C 0.81572 0.95247 0.89494 0.0
C273 C 0.84336 0.97209 0.88623 0.0
C274 C 0.78168 0.96519 0.89652 0.0
C275 C 0.77442 0.99791 0.88954 0.0
C276 C 0.80234 0.01771 0.8815 0.0
C277 C 0.83626 0.00498 0.87983 0.0
C278 C 0.67604 1.0038 0.87946 0.0
C279 C 0.66882 0.03666 0.88588 0.0
C280 C 0.70996 0.99112 0.88125 0.0
C281 C 0.73778 0.01094 0.88944 0.0
C282 C 0.7304 0.04364 0.89641 0.0
C283 C 0.69635 0.05632 0.89471 0.0
H284 H 0.1919 0.92721 0.59747 0.0
H285 H 0.15476 0.02072 0.62468 0.0
H286 H 0.25092 0.94993 0.59414 0.0
H287 H 0.21348 0.04318 0.62177 0.0
H288 H 0.3191 0.08317 0.59789 0.0
H289 H 0.26004 0.06054 0.59454 0.0
H290 H 0.2975 0.96692 0.62141 0.0
H291 H 0.35624 0.98929 0.62433 0.0
C292 C 0.19623 0.95265 0.60257 0.0
C293 C 0.16851 0.97204 0.61141 0.0
C294 C 0.23015 0.96567 0.60082 0.0
C295 C 0.23721 0.99847 0.60776 0.0
C296 C 0.20918 0.01802 0.61594 0.0
C297 C 0.17541 0.005 0.61777 0.0
C298 C 0.31476 0.05767 0.60281 0.0
C299 C 0.34249 0.03815 0.61145 0.0
C300 C 0.28082 0.0447 0.60106 0.0
C301 C 0.27376 0.01182 0.60778 0.0
C302 C 0.3018 0.99215 0.61575 0.0
C303 C 0.33559 0.00512 0.61759 0.0
H304 H 0.81812 0.42563 0.09818 0.0
H305 H 0.85528 0.51963 0.12441 0.0
H306 H 0.75904 0.44822 0.09485 0.0
H307 H 0.79652 0.54196 0.1215 0.0
H308 H 0.65378 0.4881 0.12494 0.0
H309 H 0.71249 0.46564 0.12201 0.0
H310 H 0.74992 0.55886 0.09428 0.0
H311 H 0.69092 0.58158 0.09766 0.0
C312 C 0.81377 0.45115 0.10306 0.0
C313 C 0.84152 0.47072 0.11163 0.0
C314 C 0.77982 0.46409 0.10131 0.0
C315 C 0.77276 0.497 0.10797 0.0
C316 C 0.80082 0.51671 0.11588 0.0
C317 C 0.83461 0.50377 0.11772 0.0
C318 C 0.67442 0.50381 0.11801 0.0
C319 C 0.66753 0.53677 0.11164 0.0
C320 C 0.70819 0.49079 0.11617 0.0
C321 C 0.73622 0.51033 0.10796 0.0
C322 C 0.72916 0.54312 0.10099 0.0
C323 C 0.69525 0.55614 0.10276 0.0
H324 H 0.35528 0.4897 0.37395 0.0
H325 H 0.31861 0.58399 0.39993 0.0
H326 H 0.29636 0.46774 0.37671 0.0
H327 H 0.25933 0.56177 0.40311 0.0
H328 H 0.1539 0.52198 0.37289 0.0
H329 H 0.21271 0.54436 0.37584 0.0
H330 H 0.24971 0.45127 0.40405 0.0
H331 H 0.1907 0.42867 0.40068 0.0
C332 C 0.33468 0.50571 0.38055 0.0
C333 C 0.34178 0.53871 0.38663 0.0
C334 C 0.30079 0.49298 0.3823 0.0
C335 C 0.27282 0.51288 0.39011 0.0
C336 C 0.28005 0.54576 0.39673 0.0
C337 C 0.31411 0.55849 0.39508 0.0
C338 C 0.17448 0.5063 0.37993 0.0
C339 C 0.16749 0.47342 0.38644 0.0
C340 C 0.20829 0.51926 0.38178 0.0
C341 C 0.23622 0.4997 0.39012 0.0
C342 C 0.22903 0.467 0.39723 0.0
C343 C 0.19511 0.45405 0.39545 0.0
H344 H 0.15425 0.48781 0.87292 0.0
H345 H 0.1911 0.5813 0.90037 0.0
H346 H 0.21311 0.46556 0.87568 0.0
H347 H 0.25019 0.55883 0.90353 0.0
H348 H 0.35578 0.51986 0.87339 0.0
H349 H 0.29689 0.54205 0.8761 0.0
H350 H 0.2596 0.44843 0.90314 0.0
H351 H 0.31874 0.42601 0.90003 0.0
C352 C 0.17486 0.50356 0.87984 0.0
C353 C 0.16785 0.53644 0.88633 0.0
C354 C 0.2087 0.49068 0.88158 0.0
C355 C 0.23666 0.51032 0.88978 0.0
C356 C 0.22948 0.54304 0.89683 0.0
C357 C 0.19552 0.5559 0.89518 0.0
C358 C 0.33512 0.50401 0.88012 0.0
C359 C 0.34209 0.47105 0.8864 0.0
C360 C 0.30126 0.51686 0.88183 0.0
C361 C 0.27324 0.49712 0.88979 0.0
C362 C 0.28036 0.46431 0.89662 0.0
C363 C 0.31435 0.45147 0.895 0.0
H364 H 0.69142 0.42751 0.59781 0.0
H365 H 0.6542 0.52125 0.6245 0.0
H366 H 0.75047 0.45016 0.59453 0.0
H367 H 0.71296 0.54366 0.62165 0.0
H368 H 0.81877 0.58339 0.59796 0.0
H369 H 0.7597 0.5608 0.59457 0.0
H370 H 0.79695 0.46728 0.62178 0.0
H371 H 0.85572 0.48961 0.62475 0.0
C372 C 0.69574 0.453 0.6028 0.0
C373 C 0.66799 0.47247 0.61148 0.0
C374 C 0.72968 0.46598 0.60108 0.0
C375 C 0.73674 0.49882 0.60791 0.0
C376 C 0.70867 0.51845 0.61592 0.0
C377 C 0.67487 0.50547 0.61771 0.0
C378 C 0.81438 0.55792 0.60296 0.0
C379 C 0.84207 0.53841 0.6117 0.0
C380 C 0.78043 0.54498 0.60117 0.0
C381 C 0.7733 0.51213 0.60797 0.0
C382 C 0.8013 0.49248 0.61606 0.0
C383 C 0.8351 0.50542 0.61792 0.0
H384 H 0.92065 0.09473 0.29063 0.0
H385 H 0.01635 0.0546 0.32025 0.0
H386 H 0.94764 0.09788 0.24954 0.0
H387 H 0.04314 0.0578 0.27942 0.0
H388 H 0.09005 0.09586 0.20694 0.0
H389 H 0.0628 0.09912 0.24792 0.0
H390 H 0.96837 0.05661 0.21821 0.0
H391 H 0.99545 0.05331 0.17744 0.0
C392 C 0.94744 0.08675 0.28839 0.0
C393 C 0.96633 0.07433 0.30863 0.0
C394 C 0.96284 0.08847 0.2649 0.0
C395 C 0.99752 0.07812 0.2613 0.0
C396 C 0.01654 0.06632 0.28167 0.0
C397 C 1.00107 0.0643 0.30504 0.0
C398 C 0.06344 0.08736 0.20918 0.0
C399 C 0.04495 0.07421 0.18902 0.0
C400 C 0.04789 0.08915 0.23261 0.0
C401 C 0.01345 0.07814 0.23624 0.0
C402 C 0.99478 0.06564 0.21593 0.0
C403 C 0.01042 0.06355 0.19261 0.0
H404 H 0.42194 0.91436 0.20705 0.0
H405 H 0.51705 0.95564 0.17729 0.0
H406 H 0.44904 0.91144 0.24807 0.0
H407 H 0.54398 0.95268 0.2181 0.0
H408 H 0.591 0.91474 0.29086 0.0
H409 H 0.56414 0.91151 0.24975 0.0
H410 H 0.46911 0.95315 0.27924 0.0
H411 H 0.49578 0.95644 0.32009 0.0
C412 C 0.44863 0.92265 0.20925 0.0
C413 C 0.46731 0.93534 0.189 0.0
C414 C 0.4641 0.92106 0.2327 0.0
C415 C 0.49864 0.93182 0.23626 0.0
C416 C 0.51749 0.94386 0.21587 0.0
C417 C 0.50194 0.94575 0.19253 0.0
C418 C 0.56435 0.92307 0.28853 0.0
C419 C 0.54555 0.93592 0.30866 0.0
C420 C 0.54902 0.9213 0.26503 0.0
C421 C 0.5145 0.93202 0.26132 0.0
C422 C 0.49558 0.94432 0.28158 0.0
C423 C 0.51098 0.94639 0.30496 0.0
H424 H 0.08983 0.91304 0.70655 0.0
H425 H 0.99485 0.9554 0.67754 0.0
H426 H 0.06292 0.90952 0.74763 0.0
H427 H 0.96811 0.95185 0.71841 0.0
H428 H 0.92111 0.91383 0.791 0.0
H429 H 0.94779 0.9105 0.74982 0.0
H430 H 0.04348 0.95085 0.77922 0.0
H431 H 0.01699 0.95421 0.82015 0.0
C432 C 0.0632 0.92144 0.70892 0.0
C433 C 0.04451 0.93463 0.68887 0.0
C434 C 0.04785 0.91949 0.73241 0.0
C435 C 0.01341 0.9304 0.7362 0.0
C436 C 0.99453 0.94291 0.716 0.0
C437 C 0.00996 0.94514 0.69262 0.0
C438 C 0.94788 0.92181 0.78865 0.0
C439 C 0.9669 0.93439 0.80877 0.0
C440 C 0.9631 0.91999 0.7651 0.0
C441 C 0.99773 0.93039 0.76134 0.0
C442 C 0.01691 0.94229 0.7816 0.0
C443 C 1.00161 0.94442 0.80502 0.0
H444 H 0.42142 0.09616 0.70678 0.0
H445 H 0.51634 0.05416 0.67731 0.0
H446 H 0.44849 0.09936 0.74781 0.0
H447 H 0.54324 0.05741 0.71811 0.0
H448 H 0.49502 0.05391 0.81993 0.0
H449 H 0.46826 0.05764 0.77912 0.0
H450 H 0.56357 0.0987 0.74963 0.0
H451 H 0.59053 0.09503 0.79068 0.0
C452 C 0.44807 0.08779 0.70903 0.0
C453 C 0.46669 0.07478 0.68887 0.0
C454 C 0.46352 0.08954 0.73249 0.0
C455 C 0.49799 0.07866 0.73613 0.0
C456 C 0.5168 0.06634 0.71582 0.0
C457 C 0.50127 0.06428 0.69248 0.0
C458 C 0.51026 0.06394 0.80481 0.0
C459 C 0.54495 0.07407 0.80848 0.0
C460 C 0.4948 0.06628 0.78146 0.0
C461 C 0.5138 0.07849 0.76121 0.0
C462 C 0.5484 0.08898 0.7649 0.0
C463 C 0.56378 0.08696 0.78838 0.0
H464 H 0.58966 0.59474 0.20719 0.0
H465 H 0.49408 0.55378 0.17801 0.0
H466 H 0.56288 0.59805 0.24834 0.0
H467 H 0.46748 0.55715 0.21892 0.0
H468 H 0.42096 0.59585 0.29143 0.0
H469 H 0.44789 0.59888 0.25034 0.0
H470 H 0.54257 0.55663 0.27983 0.0
H471 H 0.5158 0.55354 0.32071 0.0
C472 C 0.56294 0.58661 0.20954 0.0
C473 C 0.54402 0.57389 0.18942 0.0
C474 C 0.54766 0.58842 0.23306 0.0
C475 C 0.51308 0.57789 0.2368 0.0
C476 C 0.49401 0.56581 0.21654 0.0
C477 C 0.50936 0.56368 0.19314 0.0
C478 C 0.44756 0.58736 0.28912 0.0
C479 C 0.46621 0.57433 0.30924 0.0
C480 C 0.46292 0.58901 0.26562 0.0
C481 C 0.49733 0.578 0.26191 0.0
C482 C 0.51617 0.56564 0.28218 0.0
C483 C 0.50072 0.56367 0.30556 0.0
H484 H 0.08976 0.41506 0.29089 0.0
H485 H 0.99399 0.45544 0.32027 0.0
H486 H 0.06286 0.41154 0.24981 0.0
H487 H 0.96729 0.45188 0.27943 0.0
H488 H 0.01534 0.45557 0.1775 0.0
H489 H 0.04225 0.4526 0.21831 0.0
H490 H 0.94772 0.41028 0.24807 0.0
H491 H 0.92064 0.41321 0.20705 0.0
C492 C 0.06297 0.42302 0.2886 0.0
C493 C 0.04404 0.43562 0.30876 0.0
C494 C 0.04762 0.42109 0.26511 0.0
C495 C 0.01296 0.4314 0.26145 0.0
C496 C 0.99388 0.44338 0.28175 0.0
C497 C 0.0093 0.44561 0.30511 0.0
C498 C 1.00032 0.44544 0.19269 0.0
C499 C 0.9658 0.43474 0.1891 0.0
C500 C 0.01586 0.44354 0.21603 0.0
C501 C 0.99711 0.43119 0.23637 0.0
C502 C 0.9627 0.42013 0.23275 0.0
C503 C 0.94724 0.42173 0.20929 0.0
H504 H 0.59022 0.41388 0.70726 0.0
H505 H 0.49517 0.45619 0.67832 0.0
H506 H 0.56322 0.41005 0.74831 0.0
H507 H 0.46837 0.45232 0.71911 0.0
H508 H 0.42087 0.41345 0.79111 0.0
H509 H 0.44802 0.41052 0.75008 0.0
H510 H 0.54326 0.45087 0.78019 0.0
H511 H 0.5163 0.45384 0.82099 0.0
C512 C 0.56357 0.42221 0.70964 0.0
C513 C 0.54487 0.43543 0.6896 0.0
C514 C 0.54816 0.42009 0.73311 0.0
C515 C 0.51365 0.43083 0.73688 0.0
C516 C 0.49482 0.44346 0.71671 0.0
C517 C 0.5103 0.44588 0.69337 0.0
C518 C 0.44764 0.42152 0.78895 0.0
C519 C 0.46639 0.434 0.80923 0.0
C520 C 0.46314 0.41993 0.76549 0.0
C521 C 0.49777 0.43046 0.76196 0.0
C522 C 0.5167 0.44222 0.78239 0.0
C523 C 0.50113 0.44412 0.80573 0.0
H524 H 0.09007 0.5951 0.79107 0.0
H525 H 0.99427 0.55466 0.82037 0.0
H526 H 0.06322 0.59863 0.74997 0.0
H527 H 0.96762 0.55823 0.77952 0.0
H528 H 0.921 0.59647 0.70707 0.0
H529 H 0.94806 0.59971 0.7481 0.0
H530 H 0.04272 0.55747 0.71849 0.0
H531 H 0.01583 0.5542 0.67768 0.0
C532 C 0.06328 0.58714 0.78876 0.0
C533 C 0.04433 0.5745 0.8089 0.0
C534 C 0.04796 0.58908 0.76526 0.0
C535 C 0.01331 0.57874 0.76157 0.0
C536 C 0.99421 0.56675 0.78185 0.0
C537 C 0.0096 0.56451 0.80523 0.0
C538 C 0.94762 0.58804 0.70935 0.0
C539 C 0.96623 0.57495 0.68921 0.0
C540 C 0.96307 0.58982 0.7328 0.0
C541 C 0.99751 0.57886 0.73647 0.0
C542 C 0.0163 0.56646 0.71618 0.0
C543 C 1.00078 0.56438 0.69284 0.0
H544 H 0.96748 0.16554 0.13829 0.0
H545 H 0.07227 0.17918 0.11037 0.0
H546 H 0.95739 0.22423 0.13608 0.0
H547 H 0.0617 0.23844 0.10765 0.0
H548 H 0.04421 0.34356 0.13686 0.0
H549 H 0.05431 0.28485 0.13475 0.0
H550 H 0.94883 0.27023 0.10878 0.0
H551 H 0.93828 0.3295 0.11141 0.0
C552 C 0.98842 0.18098 0.13147 0.0
C553 C 0.02088 0.16736 0.12461 0.0
C554 C 0.9824 0.21482 0.13 0.0
C555 C 0.00859 0.23626 0.12162 0.0
C556 C 0.04099 0.22273 0.11446 0.0
C557 C 0.04706 0.1887 0.11593 0.0
C558 C 0.02301 0.32802 0.1306 0.0
C559 C 0.99024 0.34152 0.12443 0.0
C560 C 0.02902 0.29417 0.12919 0.0
C561 C 1.0025 0.27261 0.12155 0.0
C562 C 0.96981 0.28604 0.11502 0.0
C563 C 0.96375 0.32007 0.11643 0.0
H564 H 0.44015 0.83016 0.10905 0.0
H565 H 0.54306 0.84244 0.14055 0.0
H566 H 0.4503 0.77083 0.1062 0.0
H567 H 0.55271 0.78368 0.13819 0.0
H568 H 0.57265 0.67877 0.11311 0.0
H569 H 0.56269 0.73815 0.11062 0.0
H570 H 0.4555 0.72385 0.13299 0.0
H571 H 0.46506 0.66504 0.13494 0.0
C572 C 0.46485 0.82032 0.1154 0.0
C573 C 0.49066 0.8413 0.12506 0.0
C574 C 0.47068 0.78626 0.11383 0.0
C575 C 0.50244 0.77233 0.12191 0.0
C576 C 0.52823 0.79341 0.13136 0.0
C577 C 0.52246 0.82728 0.1329 0.0
C578 C 0.54693 0.68829 0.11734 0.0
C579 C 0.51981 0.66692 0.12434 0.0
C580 C 0.54121 0.72239 0.11603 0.0
C581 C 0.50823 0.73594 0.12164 0.0
C582 C 0.48107 0.71444 0.12818 0.0
C583 C 0.48675 0.68054 0.12952 0.0
H584 H 0.43846 0.67949 0.3851 0.0
H585 H 0.54614 0.66455 0.36395 0.0
H586 H 0.44897 0.73879 0.38719 0.0
H587 H 0.55625 0.72332 0.36552 0.0
H588 H 0.57181 0.83018 0.38866 0.0
H589 H 0.56141 0.77091 0.39197 0.0
H590 H 0.45964 0.78349 0.35892 0.0
H591 H 0.46955 0.84214 0.35606 0.0
C592 C 0.46432 0.68873 0.38095 0.0
C593 C 0.49129 0.66704 0.37422 0.0
C594 C 0.47036 0.72278 0.38203 0.0
C595 C 0.50352 0.73597 0.37646 0.0
C596 C 0.53055 0.71418 0.37026 0.0
C597 C 0.52455 0.6803 0.36915 0.0
C598 C 0.54722 0.82029 0.38217 0.0
C599 C 0.52165 0.84116 0.37206 0.0
C600 C 0.54124 0.78626 0.384 0.0
C601 C 0.50956 0.77231 0.3758 0.0
C602 C 0.48405 0.79327 0.36587 0.0
C603 C 0.48997 0.82707 0.36403 0.0
H604 H 0.07387 0.32858 0.36555 0.0
H605 H 0.96714 0.34647 0.38717 0.0
H606 H 0.06305 0.2694 0.36676 0.0
H607 H 0.95665 0.28768 0.38986 0.0
H608 H 0.93644 0.18183 0.36526 0.0
H609 H 0.94724 0.24101 0.36657 0.0
H610 H 0.05348 0.22267 0.38995 0.0
H611 H 0.04301 0.16389 0.38715 0.0
C612 C 0.04832 0.31981 0.37107 0.0
C613 C 0.02135 0.34218 0.3761 0.0
C614 C 0.04201 0.28581 0.37188 0.0
C615 C 0.00875 0.27333 0.37825 0.0
C616 C 0.98229 0.29599 0.3842 0.0
C617 C 0.98841 0.32984 0.3829 0.0
C618 C 0.96195 0.19059 0.37086 0.0
C619 C 0.98888 0.16821 0.37593 0.0
C620 C 0.96825 0.22459 0.37172 0.0
C621 C 1.00147 0.23705 0.37821 0.0
C622 C 0.02789 0.21439 0.3842 0.0
C623 C 0.02178 0.18053 0.38283 0.0
H624 H 0.96754 0.66325 0.88794 0.0
H625 H 0.07426 0.68099 0.8662 0.0
H626 H 0.95727 0.72206 0.89085 0.0
H627 H 0.06365 0.74018 0.86762 0.0
H628 H 0.04396 0.84573 0.88787 0.0
H629 H 0.05426 0.78692 0.89082 0.0
H630 H 0.94793 0.76872 0.86758 0.0
H631 H 0.93729 0.82789 0.86612 0.0
C632 C 0.98885 0.67985 0.88369 0.0
C633 C 0.02172 0.66747 0.87678 0.0
C634 C 0.98286 0.71372 0.88513 0.0
C635 C 0.00937 0.73633 0.87918 0.0
C636 C 0.04257 0.72381 0.87273 0.0
C637 C 0.04876 0.68979 0.8718 0.0
C638 C 0.02267 0.82911 0.88362 0.0
C639 C 0.9898 0.84146 0.87671 0.0
C640 C 0.02868 0.79525 0.88508 0.0
C641 C 1.00218 0.77262 0.87916 0.0
C642 C 0.96899 0.78511 0.87268 0.0
C643 C 0.96279 0.81911 0.87173 0.0
H644 H 0.54247 0.34474 0.88846 0.0
H645 H 0.43636 0.32668 0.86549 0.0
H646 H 0.553 0.28596 0.89119 0.0
H647 H 0.44726 0.26752 0.86673 0.0
H648 H 0.46716 0.16194 0.88692 0.0
H649 H 0.45643 0.22066 0.8899 0.0
H650 H 0.5631 0.23956 0.86773 0.0
H651 H 0.57414 0.18045 0.86623 0.0
C652 C 0.52136 0.32807 0.8839 0.0
C653 C 0.48857 0.34035 0.8767 0.0
C654 C 0.52751 0.29423 0.88523 0.0
C655 C 0.50125 0.27155 0.87889 0.0
C656 C 0.46813 0.28396 0.87214 0.0
C657 C 0.46178 0.31795 0.87132 0.0
C658 C 0.48843 0.17869 0.88291 0.0
C659 C 0.52152 0.16655 0.87628 0.0
C660 C 0.48217 0.2125 0.88439 0.0
C661 C 0.50865 0.2353 0.87879 0.0
C662 C 0.54204 0.22303 0.87259 0.0
C663 C 0.54848 0.18906 0.8716 0.0
H664 H 0.43967 0.17931 0.61017 0.0
H665 H 0.54465 0.16565 0.63765 0.0
H666 H 0.45013 0.23861 0.60767 0.0
H667 H 0.55464 0.22439 0.63566 0.0
H668 H 0.57295 0.33031 0.61183 0.0
H669 H 0.56281 0.27097 0.60871 0.0
H670 H 0.45743 0.28448 0.63529 0.0
H671 H 0.46712 0.34318 0.63791 0.0
C672 C 0.46491 0.18883 0.61567 0.0
C673 C 0.49116 0.16748 0.6242 0.0
C674 C 0.47092 0.22288 0.61432 0.0
C675 C 0.50331 0.23643 0.62147 0.0
C676 C 0.52961 0.21497 0.62961 0.0
C677 C 0.52365 0.18111 0.63095 0.0
C678 C 0.5476 0.32061 0.61689 0.0
C679 C 0.52102 0.34174 0.62522 0.0
C680 C 0.54177 0.28655 0.61519 0.0
C681 C 0.50921 0.2728 0.62172 0.0
C682 C 0.48261 0.29405 0.6297 0.0
C683 C 0.4884 0.3279 0.63142 0.0
H684 H 0.96542 0.84434 0.63402 0.0
H685 H 0.07307 0.83019 0.61249 0.0
H686 H 0.95563 0.78557 0.63212 0.0
H687 H 0.06287 0.77084 0.61003 0.0
H688 H 0.04264 0.66676 0.64023 0.0
H689 H 0.05261 0.72546 0.63764 0.0
H690 H 0.95033 0.7385 0.60549 0.0
H691 H 0.93987 0.67925 0.60858 0.0
C692 C 0.98708 0.82876 0.62867 0.0
C693 C 0.02023 0.84225 0.62357 0.0
C694 C 0.98126 0.79488 0.62736 0.0
C695 C 0.00836 0.77327 0.62092 0.0
C696 C 0.04143 0.78669 0.61536 0.0
C697 C 0.04729 0.82077 0.61665 0.0
C698 C 0.02214 0.68195 0.6325 0.0
C699 C 0.99028 0.66801 0.6247 0.0
C700 C 0.02809 0.71578 0.63082 0.0
C701 C 1.00242 0.7369 0.62127 0.0
C702 C 0.97061 0.72305 0.6132 0.0
C703 C 0.9646 0.68902 0.61491 0.0
H704 H 0.93515 0.97826 0.94831 0.0
H705 H 0.04596 0.97784 0.9331 0.0
H706 H 0.94699 0.99799 0.99025 0.0
H707 H 0.05772 0.99619 0.97489 0.0
H708 H 0.06676 0.05951 0.04394 0.0
H709 H 0.05419 0.04183 0.00169 0.0
H710 H 0.97031 0.98047 0.02885 0.0
H711 H 0.98204 0.99907 0.0708 0.0
C712 C 0.96197 0.98223 0.9539 0.0
C713 C 0.98951 0.97657 0.93726 0.0
C714 C 0.96883 0.99336 0.978 0.0
C715 C 1.00338 0.99875 0.98602 0.0
C716 C 0.03079 0.99299 0.96931 0.0
C717 C 0.02396 0.98223 0.94528 0.0
C718 C 0.04582 0.04208 0.04087 0.0
C719 C 0.02539 0.03079 0.06073 0.0
C720 C 0.03859 0.03188 0.01665 0.0
C721 C 0.01104 0.00981 0.01177 0.0
C722 C 0.99117 0.99802 0.03177 0.0
C723 C 0.99814 0.00848 0.0559 0.0
H724 H 0.46632 0.03181 0.93336 0.0
H725 H 0.57732 0.02888 0.94757 0.0
H726 H 0.45479 0.01345 0.97519 0.0
H727 H 0.56569 0.00912 0.98955 0.0
H728 H 0.53179 0.00819 0.07041 0.0
H729 H 0.54343 0.02677 0.02844 0.0
H730 H 0.45765 0.96748 0.0017 0.0
H731 H 0.4452 0.94982 0.04397 0.0
C732 C 0.48839 0.02685 0.94533 0.0
C733 C 0.52284 0.0318 0.93702 0.0
C734 C 0.4817 0.01609 0.96938 0.0
C735 C 0.50923 0.00961 0.98582 0.0
C736 C 0.54378 0.01432 0.97751 0.0
C737 C 0.55051 0.02547 0.9534 0.0
C738 C 0.51526 0.99921 0.0556 0.0
C739 C 0.4875 0.97752 0.06056 0.0
C740 C 0.52218 0.00967 0.03145 0.0
C741 C 0.50172 0.99847 0.01157 0.0
C742 C 0.47372 0.97698 0.01657 0.0
C743 C 0.46655 0.96679 0.04081 0.0
H744 H 0.44372 0.05683 0.54413 0.0
H745 H 0.53107 0.9998 0.57097 0.0
H746 H 0.45595 0.03821 0.50206 0.0
H747 H 0.54252 0.98034 0.52921 0.0
H748 H 0.5763 0.97829 0.44816 0.0
H749 H 0.56444 0.99796 0.49012 0.0
H750 H 0.45359 0.99146 0.47604 0.0
H751 H 0.46534 0.97309 0.4342 0.0
C752 C 0.4652 0.03997 0.54112 0.0
C753 C 0.48645 0.02992 0.56091 0.0
C754 C 0.47222 0.02922 0.51699 0.0
C755 C 0.50041 0.00787 0.51216 0.0
C756 C 0.52112 0.99731 0.53209 0.0
C757 C 0.51432 0.00829 0.55612 0.0
C758 C 0.54945 0.98114 0.45406 0.0
C759 C 0.52185 0.97428 0.43773 0.0
C760 C 0.54259 0.99226 0.47815 0.0
C761 C 0.50799 0.99641 0.4865 0.0
C762 C 0.48052 0.98925 0.47017 0.0
C763 C 0.48734 0.9785 0.44612 0.0
H764 H 0.98 0.01002 0.57093 0.0
H765 H 0.0669 0.95234 0.5441 0.0
H766 H 0.96835 0.02906 0.52908 0.0
H767 H 0.05446 0.97049 0.50196 0.0
H768 H 0.04531 0.03502 0.43387 0.0
H769 H 0.05701 0.01686 0.47572 0.0
H770 H 0.94616 0.01136 0.4901 0.0
H771 H 0.93433 0.03088 0.44808 0.0
C772 C 0.99661 1.00131 0.55606 0.0
C773 C 0.02443 0.97963 0.56088 0.0
C774 C 0.98969 0.01203 0.53199 0.0
C775 C 0.01022 1.00115 0.51204 0.0
C776 C 0.03833 0.97974 0.5169 0.0
C777 C 0.04549 0.96926 0.54107 0.0
C778 C 0.02328 0.02986 0.44585 0.0
C779 C 0.98879 0.03434 0.43752 0.0
C780 C 0.03008 0.01922 0.46991 0.0
C781 C 1.00261 0.01241 0.48634 0.0
C782 C 0.96802 0.01678 0.47805 0.0
C783 C 0.96118 0.0278 0.45393 0.0
H784 H 0.47795 0.50021 0.07136 0.0
H785 H 0.56626 0.55609 0.04465 0.0
H786 H 0.4663 0.48101 0.02956 0.0
H787 H 0.55384 0.53777 0.00256 0.0
H788 H 0.54439 0.47251 0.93492 0.0
H789 H 0.55587 0.49096 0.97673 0.0
H790 H 0.44494 0.49854 0.99028 0.0
H791 H 0.43333 0.47873 0.94829 0.0
C792 C 0.49487 0.5085 0.05653 0.0
C793 C 0.5231 0.5297 0.06138 0.0
C794 C 0.48795 0.49769 0.03248 0.0
C795 C 0.50891 0.50798 0.01258 0.0
C796 C 0.53738 0.52896 0.01746 0.0
C797 C 0.54452 0.53954 0.0416 0.0
C798 C 0.52231 0.4782 0.9467 0.0
C799 C 0.48785 0.47423 0.93815 0.0
C800 C 0.52898 0.489 0.97074 0.0
C801 C 0.50141 0.4965 0.98692 0.0
C802 C 0.46685 0.4926 0.97842 0.0
C803 C 0.46014 0.48141 0.95432 0.0
H804 H 0.02871 0.51011 0.07099 0.0
H805 H 0.94433 0.44939 0.044 0.0
H806 H 0.04052 0.52878 0.02906 0.0
H807 H 0.95697 0.46715 0.00177 0.0
H808 H 0.96525 0.53111 0.9332 0.0
H809 H 0.95338 0.51282 0.975 0.0
H810 H 0.06406 0.51126 0.99048 0.0
H811 H 0.07601 0.53092 0.94852 0.0
C812 C 0.0127 0.50066 0.05606 0.0
C813 C 0.98553 0.47825 0.06085 0.0
C814 C 0.01972 0.51116 0.03194 0.0
C815 C 0.99997 0.4993 0.01192 0.0
C816 C 0.97249 0.47715 0.01675 0.0
C817 C 0.9652 0.46691 0.04097 0.0
C818 C 0.98722 0.52678 0.9454 0.0
C819 C 0.02169 0.53248 0.93741 0.0
C820 C 0.98033 0.51606 0.96944 0.0
C821 C 0.00769 0.51038 0.98618 0.0
C822 C 0.04227 0.51582 0.97819 0.0
C823 C 0.04918 0.52691 0.95409 0.0
H824 H 0.03101 0.50104 0.5709 0.0
H825 H 0.94357 0.55819 0.54439 0.0
H826 H 0.04256 0.48209 0.52901 0.0
H827 H 0.9559 0.54012 0.5022 0.0
H828 H 0.96504 0.47542 0.43412 0.0
H829 H 0.95347 0.49374 0.47597 0.0
H830 H 0.06438 0.49978 0.48995 0.0
H831 H 0.07606 0.4801 0.44795 0.0
C832 C 0.01427 0.50966 0.55609 0.0
C833 C 0.98631 0.53115 0.56101 0.0
C834 C 0.02113 0.49899 0.53199 0.0
C835 C 1.0004 0.50973 0.51211 0.0
C836 C 0.97218 0.53098 0.51707 0.0
C837 C 0.96509 0.54141 0.54127 0.0
C838 C 0.9871 0.48074 0.44601 0.0
C839 C 0.02157 0.47635 0.43759 0.0
C840 C 0.98038 0.49147 0.47007 0.0
C841 C 0.00792 0.49846 0.48639 0.0
C842 C 0.04248 0.49421 0.47799 0.0
C843 C 0.04924 0.4831 0.45388 0.0
H844 H 0.57584 0.47791 0.54988 0.0
H845 H 0.465 0.47653 0.56493 0.0
H846 H 0.56394 0.49735 0.50787 0.0
H847 H 0.45318 0.49463 0.52307 0.0
H848 H 0.44417 0.55853 0.45422 0.0
H849 H 0.45658 0.54056 0.49642 0.0
H850 H 0.54078 0.47965 0.4692 0.0
H851 H 0.52919 0.49851 0.4273 0.0
C852 C 0.549 0.48159 0.54423 0.0
C853 C 0.52147 0.47579 0.56086 0.0
C854 C 0.54211 0.49255 0.5201 0.0
C855 C 0.50753 0.49764 0.51203 0.0
C856 C 0.48012 0.49167 0.5287 0.0
C857 C 0.48698 0.48106 0.55277 0.0
C858 C 0.46515 0.54113 0.45726 0.0
C859 C 0.48571 0.53005 0.4374 0.0
C860 C 0.47228 0.53075 0.48145 0.0
C861 C 0.49988 0.50875 0.4863 0.0
C862 C 0.51987 0.49715 0.46631 0.0
C863 C 0.51299 0.50777 0.4422 0.0
loop_
_geom_bond_atom_site_label_1
_geom_bond_atom_site_label_2
_geom_bond_distance
_geom_bond_site_symmetry_2
_ccdc_geom_bond_type
Co0 O1 2.216 . S
Co0 O2 2.091 . S
Co0 O4 2.004 . S
Co0 O10 2.021 . S
Co0 O12 2.137 . S
Co0 O13 2.244 . S
O1 Co0 2.216 . S
O1 C8 1.247 . S
O2 Co0 2.091 . S
O2 C8 1.261 . S
C3 O12 1.247 . S
C3 O13 1.272 . S
O4 Co0 2.004 . S
O4 C9 1.259 . S
Co5 O6 2.061 1_655 S
Co5 O11 2.052 1_655 S
Co5 O13 2.135 1_655 S
O6 Co5 2.061 1_455 S
O6 C9 1.235 . S
C7 O10 1.238 . S
C7 O11 1.241 . S
C8 O1 1.247 . S
C8 O2 1.261 . S
C9 O4 1.259 . S
C9 O6 1.235 . S
O10 Co0 2.021 . S
O10 C7 1.238 . S
O11 Co5 2.052 1_455 S
O11 C7 1.241 . S
O12 Co0 2.137 . S
O12 C3 1.247 . S
O13 Co0 2.244 . S
O13 C3 1.272 . S
O13 Co5 2.135 1_455 S
Co14 O15 2.216 . S
Co14 O16 2.091 . S
Co14 O18 2.004 . S
Co14 O24 2.021 . S
Co14 O26 2.137 . S
Co14 O27 2.244 . S
O15 Co14 2.216 . S
O15 C22 1.247 . S
O16 Co14 2.091 . S
O16 C22 1.261 . S
C17 O26 1.247 . S
C17 O27 1.272 . S
O18 Co14 2.004 . S
O18 C23 1.259 . S
Co19 O20 2.061 . S
Co19 O25 2.052 . S
Co19 O27 2.135 . S
O20 Co19 2.061 . S
O20 C23 1.235 . S
C21 O24 1.238 . S
C21 O25 1.241 . S
C22 O15 1.247 . S
C22 O16 1.261 . S
C23 O18 1.259 . S
C23 O20 1.235 . S
O24 Co14 2.021 . S
O24 C21 1.238 . S
O25 Co19 2.052 . S
O25 C21 1.241 . S
O26 Co14 2.137 . S
O26 C17 1.247 . S
O27 Co14 2.244 . S
O27 C17 1.272 . S
O27 Co19 2.135 . S
Co28 O29 2.216 . S
Co28 O30 2.091 . S
Co28 O32 2.004 . S
Co28 O38 2.021 . S
Co28 O40 2.137 . S
Co28 O41 2.244 . S
O29 Co28 2.216 . S
O29 C36 1.247 . S
O30 Co28 2.091 . S
O30 C36 1.261 . S
C31 O40 1.247 . S
C31 O41 1.272 . S
O32 Co28 2.004 . S
O32 C37 1.259 . S
Co33 O34 2.061 . S
Co33 O39 2.052 . S
Co33 O41 2.135 . S
O34 Co33 2.061 . S
O34 C37 1.235 . S
C35 O38 1.238 . S
C35 O39 1.241 . S
C36 O29 1.247 . S
C36 O30 1.261 . S
C37 O32 1.259 . S
C37 O34 1.235 . S
O38 Co28 2.021 . S
O38 C35 1.238 . S
O39 Co33 2.052 . S
O39 C35 1.241 . S
O40 Co28 2.137 . S
O40 C31 1.247 . S
O41 Co28 2.244 . S
O41 C31 1.272 . S
O41 Co33 2.135 . S
Co42 O43 2.216 . S
Co42 O44 2.091 . S
Co42 O46 2.004 . S
Co42 O52 2.021 . S
Co42 O54 2.137 . S
Co42 O55 2.244 . S
O43 Co42 2.216 . S
O43 C50 1.247 . S
O44 Co42 2.091 . S
O44 C50 1.261 . S
C45 O54 1.247 . S
C45 O55 1.272 . S
O46 Co42 2.004 . S
O46 C51 1.259 . S
Co47 O48 2.061 1_455 S
Co47 O53 2.052 1_455 S
Co47 O55 2.135 1_455 S
O48 Co47 2.061 1_655 S
O48 C51 1.235 . S
C49 O52 1.238 . S
C49 O53 1.241 . S
C50 O43 1.247 . S
C50 O44 1.261 . S
C51 O46 1.259 . S
C51 O48 1.235 . S
O52 Co42 2.021 . S
O52 C49 1.238 . S
O53 Co47 2.052 1_655 S
O53 C49 1.241 . S
O54 Co42 2.137 . S
O54 C45 1.247 . S
O55 Co42 2.244 . S
O55 C45 1.272 . S
O55 Co47 2.135 1_655 S
Co56 O57 2.216 . S
Co56 O58 2.091 . S
Co56 O60 2.004 . S
Co56 O66 2.021 . S
Co56 O68 2.137 . S
Co56 O69 2.244 . S
O57 Co56 2.216 . S
O57 C64 1.247 . S
O58 Co56 2.091 . S
O58 C64 1.261 . S
C59 O68 1.247 . S
C59 O69 1.272 . S
O60 Co56 2.004 . S
O60 C65 1.259 . S
Co61 O62 2.061 1_455 S
Co61 O67 2.052 1_455 S
Co61 O69 2.135 1_455 S
O62 Co61 2.061 1_655 S
O62 C65 1.235 . S
C63 O66 1.238 . S
C63 O67 1.241 . S
C64 O57 1.247 . S
C64 O58 1.261 . S
C65 O60 1.259 . S
C65 O62 1.235 . S
O66 Co56 2.021 . S
O66 C63 1.238 . S
O67 Co61 2.052 1_655 S
O67 C63 1.241 . S
O68 Co56 2.137 . S
O68 C59 1.247 . S
O69 Co56 2.244 . S
O69 C59 1.272 . S
O69 Co61 2.135 1_655 S
Co70 O71 2.216 . S
Co70 O72 2.091 . S
Co70 O74 2.004 . S
Co70 O80 2.021 . S
Co70 O82 2.137 . S
Co70 O83 2.244 . S
O71 Co70 2.216 . S
O71 C78 1.247 . S
O72 Co70 2.091 . S
O72 C78 1.261 . S
C73 O82 1.247 . S
C73 O83 1.272 . S
O74 Co70 2.004 . S
O74 C79 1.259 . S
Co75 O76 2.061 . S
Co75 O81 2.052 . S
Co75 O83 2.135 . S
O76 Co75 2.061 . S
O76 C79 1.235 . S
C77 O80 1.238 . S
C77 O81 1.241 . S
C78 O71 1.247 . S
C78 O72 1.261 . S
C79 O74 1.259 . S
C79 O76 1.235 . S
O80 Co70 2.021 . S
O80 C77 1.238 . S
O81 Co75 2.052 . S
O81 C77 1.241 . S
O82 Co70 2.137 . S
O82 C73 1.247 . S
O83 Co70 2.244 . S
O83 C73 1.272 . S
O83 Co75 2.135 . S
Co84 O85 2.216 . S
Co84 O86 2.091 . S
Co84 O88 2.004 . S
Co84 O94 2.021 . S
Co84 O96 2.137 . S
Co84 O97 2.244 . S
O85 Co84 2.216 . S
O85 C92 1.247 . S
O86 Co84 2.091 . S
O86 C92 1.261 . S
C87 O96 1.247 . S
C87 O97 1.272 . S
O88 Co84 2.004 . S
O88 C93 1.259 . S
Co89 O90 2.061 . S
Co89 O95 2.052 . S
Co89 O97 2.135 . S
O90 Co89 2.061 . S
O90 C93 1.235 . S
C91 O94 1.238 . S
C91 O95 1.241 . S
C92 O85 1.247 . S
C92 O86 1.261 . S
C93 O88 1.259 . S
C93 O90 1.235 . S
O94 Co84 2.021 . S
O94 C91 1.238 . S
O95 Co89 2.052 . S
O95 C91 1.241 . S
O96 Co84 2.137 . S
O96 C87 1.247 . S
O97 Co84 2.244 . S
O97 C87 1.272 . S
O97 Co89 2.135 . S
Co98 O99 2.216 . S
Co98 O100 2.091 . S
Co98 O102 2.004 . S
Co98 O108 2.021 . S
Co98 O110 2.137 . S
Co98 O111 2.244 . S
O99 Co98 2.216 . S
O99 C106 1.247 . S
O100 Co98 2.091 . S
O100 C106 1.261 . S
C101 O110 1.247 . S
C101 O111 1.272 . S
O102 Co98 2.004 . S
O102 C107 1.259 . S
Co103 O104 2.061 1_655 S
Co103 O109 2.052 1_655 S
Co103 O111 2.135 1_655 S
O104 Co103 2.061 1_455 S
O104 C107 1.235 . S
C105 O108 1.238 . S
C105 O109 1.241 . S
C106 O99 1.247 . S
C106 O100 1.261 . S
C107 O102 1.259 . S
C107 O104 1.235 . S
O108 Co98 2.021 . S
O108 C105 1.238 . S
O109 Co103 2.052 1_455 S
O109 C105 1.241 . S
O110 Co98 2.137 . S
O110 C101 1.247 . S
O111 Co98 2.244 . S
O111 C101 1.272 . S
O111 Co103 2.135 1_455 S
Co112 O113 2.216 . S
Co112 O114 2.091 . S
Co112 O116 2.004 . S
Co112 O122 2.021 . S
Co112 O124 2.137 . S
Co112 O125 2.244 . S
O113 Co112 2.216 . S
O113 C120 1.247 . S
O114 Co112 2.091 . S
O114 C120 1.261 . S
C115 O124 1.247 . S
C115 O125 1.272 . S
O116 Co112 2.004 . S
O116 C121 1.259 . S
Co117 O118 2.061 . S
Co117 O123 2.052 . S
Co117 O125 2.135 . S
O118 Co117 2.061 . S
O118 C121 1.235 . S
C119 O122 1.238 . S
C119 O123 1.241 . S
C120 O113 1.247 . S
C120 O114 1.261 . S
C121 O116 1.259 . S
C121 O118 1.235 . S
O122 Co112 2.021 . S
O122 C119 1.238 . S
O123 Co117 2.052 . S
O123 C119 1.241 . S
O124 Co112 2.137 . S
O124 C115 1.247 . S
O125 Co112 2.244 . S
O125 C115 1.272 . S
O125 Co117 2.135 . S
Co126 O127 2.216 . S
Co126 O128 2.091 . S
Co126 O130 2.004 . S
Co126 O136 2.021 . S
Co126 O138 2.137 . S
Co126 O139 2.244 . S
O127 Co126 2.216 . S
O127 C134 1.247 . S
O128 Co126 2.091 . S
O128 C134 1.261 . S
C129 O138 1.247 . S
C129 O139 1.272 . S
O130 Co126 2.004 . S
O130 C135 1.259 . S
Co131 O132 2.061 1_455 S
Co131 O137 2.052 1_455 S
Co131 O139 2.135 1_455 S
O132 Co131 2.061 1_655 S
O132 C135 1.235 . S
C133 O136 1.238 . S
C133 O137 1.241 . S
C134 O127 1.247 . S
C134 O128 1.261 . S
C135 O130 1.259 . S
C135 O132 1.235 . S
O136 Co126 2.021 . S
O136 C133 1.238 . S
O137 Co131 2.052 1_655 S
O137 C133 1.241 . S
O138 Co126 2.137 . S
O138 C129 1.247 . S
O139 Co126 2.244 . S
O139 C129 1.272 . S
O139 Co131 2.135 1_655 S
Co140 O141 2.216 . S
Co140 O142 2.091 . S
Co140 O144 2.004 . S
Co140 O150 2.021 . S
Co140 O152 2.137 . S
Co140 O153 2.244 . S
O141 Co140 2.216 . S
O141 C148 1.247 . S
O142 Co140 2.091 . S
O142 C148 1.261 . S
C143 O152 1.247 . S
C143 O153 1.272 . S
O144 Co140 2.004 . S
O144 C149 1.259 . S
Co145 O146 2.061 1_655 S
Co145 O151 2.052 1_655 S
Co145 O153 2.135 1_655 S
O146 Co145 2.061 1_455 S
O146 C149 1.235 . S
C147 O150 1.238 . S
C147 O151 1.241 . S
C148 O141 1.247 . S
C148 O142 1.261 . S
C149 O144 1.259 . S
C149 O146 1.235 . S
O150 Co140 2.021 . S
O150 C147 1.238 . S
O151 Co145 2.052 1_455 S
O151 C147 1.241 . S
O152 Co140 2.137 . S
O152 C143 1.247 . S
O153 Co140 2.244 . S
O153 C143 1.272 . S
O153 Co145 2.135 1_455 S
Co154 O155 2.216 . S
Co154 O156 2.091 . S
Co154 O158 2.004 . S
Co154 O164 2.021 . S
Co154 O166 2.137 . S
Co154 O167 2.244 . S
O155 Co154 2.216 . S
O155 C162 1.247 . S
O156 Co154 2.091 . S
O156 C162 1.261 . S
C157 O166 1.247 . S
C157 O167 1.272 . S
O158 Co154 2.004 . S
O158 C163 1.259 . S
Co159 O160 2.061 . S
Co159 O165 2.052 . S
Co159 O167 2.135 . S
O160 Co159 2.061 . S
O160 C163 1.235 . S
C161 O164 1.238 . S
C161 O165 1.241 . S
C162 O155 1.247 . S
C162 O156 1.261 . S
C163 O158 1.259 . S
C163 O160 1.235 . S
O164 Co154 2.021 . S
O164 C161 1.238 . S
O165 Co159 2.052 . S
O165 C161 1.241 . S
O166 Co154 2.137 . S
O166 C157 1.247 . S
O167 Co154 2.244 . S
O167 C157 1.272 . S
O167 Co159 2.135 . S
Co168 O169 2.216 . S
Co168 O170 2.091 . S
Co168 O172 2.004 . S
Co168 O178 2.021 . S
Co168 O180 2.137 . S
Co168 O181 2.244 . S
O169 Co168 2.216 . S
O169 C176 1.247 . S
O170 Co168 2.091 . S
O170 C176 1.261 . S
C171 O180 1.247 . S
C171 O181 1.272 . S
O172 Co168 2.004 . S
O172 C177 1.259 . S
Co173 O174 2.061 . S
Co173 O179 2.052 . S
Co173 O181 2.135 . S
O174 Co173 2.061 . S
O174 C177 1.235 . S
C175 O178 1.238 . S
C175 O179 1.241 . S
C176 O169 1.247 . S
C176 O170 1.261 . S
C177 O172 1.259 . S
C177 O174 1.235 . S
O178 Co168 2.021 . S
O178 C175 1.238 . S
O179 Co173 2.052 . S
O179 C175 1.241 . S
O180 Co168 2.137 . S
O180 C171 1.247 . S
O181 Co168 2.244 . S
O181 C171 1.272 . S
O181 Co173 2.135 . S
Co182 O183 2.216 . S
Co182 O184 2.091 . S
Co182 O186 2.004 . S
Co182 O192 2.021 . S
Co182 O194 2.137 . S
Co182 O195 2.244 . S
O183 Co182 2.216 . S
O183 C190 1.247 . S
O184 Co182 2.091 . S
O184 C190 1.261 . S
C185 O194 1.247 . S
C185 O195 1.272 . S
O186 Co182 2.004 . S
O186 C191 1.259 . S
Co187 O188 2.061 1_655 S
Co187 O193 2.052 1_655 S
Co187 O195 2.135 1_655 S
O188 Co187 2.061 1_455 S
O188 C191 1.235 . S
C189 O192 1.238 . S
C189 O193 1.241 . S
C190 O183 1.247 . S
C190 O184 1.261 . S
C191 O186 1.259 . S
C191 O188 1.235 . S
O192 Co182 2.021 . S
O192 C189 1.238 . S
O193 Co187 2.052 1_455 S
O193 C189 1.241 . S
O194 Co182 2.137 . S
O194 C185 1.247 . S
O195 Co182 2.244 . S
O195 C185 1.272 . S
O195 Co187 2.135 1_455 S
Co196 O197 2.216 . S
Co196 O198 2.091 . S
Co196 O200 2.004 . S
Co196 O206 2.021 . S
Co196 O208 2.137 . S
Co196 O209 2.244 . S
O197 Co196 2.216 . S
O197 C204 1.247 . S
O198 Co196 2.091 . S
O198 C204 1.261 . S
C199 O208 1.247 . S
C199 O209 1.272 . S
O200 Co196 2.004 . S
O200 C205 1.259 . S
Co201 O202 2.061 1_455 S
Co201 O207 2.052 1_455 S
Co201 O209 2.135 1_455 S
O202 Co201 2.061 1_655 S
O202 C205 1.235 . S
C203 O206 1.238 . S
C203 O207 1.241 . S
C204 O197 1.247 . S
C204 O198 1.261 . S
C205 O200 1.259 . S
C205 O202 1.235 . S
O206 Co196 2.021 . S
O206 C203 1.238 . S
O207 Co201 2.052 1_655 S
O207 C203 1.241 . S
O208 Co196 2.137 . S
O208 C199 1.247 . S
O209 Co196 2.244 . S
O209 C199 1.272 . S
O209 Co201 2.135 1_655 S
Co210 O211 2.216 . S
Co210 O212 2.091 . S
Co210 O214 2.004 . S
Co210 O220 2.021 . S
Co210 O222 2.137 . S
Co210 O223 2.244 . S
O211 Co210 2.216 . S
O211 C218 1.247 . S
O212 Co210 2.091 . S
O212 C218 1.261 . S
C213 O222 1.247 . S
C213 O223 1.272 . S
O214 Co210 2.004 . S
O214 C219 1.259 . S
Co215 O216 2.061 . S
Co215 O221 2.052 . S
Co215 O223 2.135 . S
O216 Co215 2.061 . S
O216 C219 1.235 . S
C217 O220 1.238 . S
C217 O221 1.241 . S
C218 O211 1.247 . S
C218 O212 1.261 . S
C219 O214 1.259 . S
C219 O216 1.235 . S
O220 Co210 2.021 . S
O220 C217 1.238 . S
O221 Co215 2.052 . S
O221 C217 1.241 . S
O222 Co210 2.137 . S
O222 C213 1.247 . S
O223 Co210 2.244 . S
O223 C213 1.272 . S
O223 Co215 2.135 . S
H224 C232 0.950 . S
H225 C237 0.950 . S
H226 C234 0.950 . S
H227 C236 0.950 . S
H228 C238 0.950 . S
H229 C240 0.950 . S
H230 C242 0.950 . S
H231 C243 0.950 . S
C232 H224 0.950 . S
C232 C233 1.386 1_545 S
C232 C234 1.391 . S
C233 C232 1.386 1_565 S
C233 C237 1.393 . S
C234 H226 0.950 . S
C234 C232 1.391 . S
C234 C235 1.400 1_545 S
C235 C234 1.400 1_565 S
C235 C236 1.398 . S
C235 C241 1.491 1_565 S
C236 H227 0.950 . S
C236 C235 1.398 . S
C236 C237 1.391 . S
C237 H225 0.950 . S
C237 C233 1.393 . S
C237 C236 1.391 . S
C238 H228 0.950 . S
C238 C239 1.386 1_565 S
C238 C240 1.391 . S
C239 C238 1.386 1_545 S
C239 C243 1.393 . S
C240 H229 0.950 . S
C240 C238 1.391 . S
C240 C241 1.400 1_565 S
C241 C235 1.491 1_545 S
C241 C240 1.400 1_545 S
C241 C242 1.398 . S
C242 H230 0.950 . S
C242 C241 1.398 . S
C242 C243 1.391 . S
C243 H231 0.950 . S
C243 C239 1.393 . S
C243 C242 1.391 . S
H244 C252 0.950 . S
H245 C257 0.950 . S
H246 C254 0.950 . S
H247 C256 0.950 . S
H248 C258 0.950 . S
H249 C260 0.950 . S
H250 C262 0.950 . S
H251 C263 0.950 . S
C252 H244 0.950 . S
C252 C253 1.386 . S
C252 C254 1.391 . S
C253 C252 1.386 . S
C253 C257 1.393 1_565 S
C254 H246 0.950 . S
C254 C252 1.391 . S
C254 C255 1.400 . S
C255 C254 1.400 . S
C255 C256 1.398 1_565 S
C255 C261 1.491 1_565 S
C256 H247 0.950 . S
C256 C255 1.398 1_545 S
C256 C257 1.391 . S
C257 H245 0.950 . S
C257 C253 1.393 1_545 S
C257 C256 1.391 . S
C258 H248 0.950 . S
C258 C259 1.386 . S
C258 C260 1.391 . S
C259 C258 1.386 . S
C259 C263 1.393 1_545 S
C260 H249 0.950 . S
C260 C258 1.391 . S
C260 C261 1.400 . S
C261 C255 1.491 1_545 S
C261 C260 1.400 . S
C261 C262 1.398 1_545 S
C262 H250 0.950 . S
C262 C261 1.398 1_565 S
C262 C263 1.391 . S
C263 H251 0.950 . S
C263 C259 1.393 1_565 S
C263 C262 1.391 . S
H264 C272 0.950 . S
H265 C277 0.950 . S
H266 C274 0.950 . S
H267 C276 0.950 . S
H268 C278 0.950 . S
H269 C280 0.950 . S
H270 C282 0.950 . S
H271 C283 0.950 . S
C272 H264 0.950 . S
C272 C273 1.386 . S
C272 C274 1.391 . S
C273 C272 1.386 . S
C273 C277 1.393 . S
C274 H266 0.950 . S
C274 C272 1.391 . S
C274 C275 1.400 . S
C275 C274 1.400 . S
C275 C276 1.398 1_565 S
C275 C281 1.491 1_565 S
C276 H267 0.950 . S
C276 C275 1.398 1_545 S
C276 C277 1.391 1_545 S
C277 H265 0.950 . S
C277 C273 1.393 . S
C277 C276 1.391 1_565 S
C278 H268 0.950 . S
C278 C279 1.386 . S
C278 C280 1.391 . S
C279 C278 1.386 . S
C279 C283 1.393 . S
C280 H269 0.950 . S
C280 C278 1.391 . S
C280 C281 1.400 . S
C281 C275 1.491 1_545 S
C281 C280 1.400 . S
C281 C282 1.398 1_545 S
C282 H270 0.950 . S
C282 C281 1.398 1_565 S
C282 C283 1.391 1_565 S
C283 H271 0.950 . S
C283 C279 1.393 . S
C283 C282 1.391 1_545 S
H284 C292 0.950 . S
H285 C297 0.950 1_545 S
H286 C294 0.950 . S
H287 C296 0.950 . S
H288 C298 0.950 . S
H289 C300 0.950 . S
H290 C302 0.950 . S
H291 C303 0.950 1_565 S
C292 H284 0.950 . S
C292 C293 1.386 . S
C292 C294 1.391 . S
C293 C292 1.386 . S
C293 C297 1.393 . S
C294 H286 0.950 . S
C294 C292 1.391 . S
C294 C295 1.400 . S
C295 C294 1.400 . S
C295 C296 1.398 1_565 S
C295 C301 1.491 1_565 S
C296 H287 0.950 . S
C296 C295 1.398 1_545 S
C296 C297 1.391 1_545 S
C297 H285 0.950 1_565 S
C297 C293 1.393 . S
C297 C296 1.391 1_565 S
C298 H288 0.950 . S
C298 C299 1.386 . S
C298 C300 1.391 . S
C299 C298 1.386 . S
C299 C303 1.393 . S
C300 H289 0.950 . S
C300 C298 1.391 . S
C300 C301 1.400 . S
C301 C295 1.491 1_545 S
C301 C300 1.400 . S
C301 C302 1.398 1_545 S
C302 H290 0.950 . S
C302 C301 1.398 1_565 S
C302 C303 1.391 1_565 S
C303 H291 0.950 1_545 S
C303 C299 1.393 . S
C303 C302 1.391 1_545 S
H304 C312 0.950 . S
H305 C317 0.950 . S
H306 C314 0.950 . S
H307 C316 0.950 . S
H308 C318 0.950 . S
H309 C320 0.950 . S
H310 C322 0.950 . S
H311 C323 0.950 . S
C312 H304 0.950 . S
C312 C313 1.386 . S
C312 C314 1.391 . S
C313 C312 1.386 . S
C313 C317 1.393 . S
C314 H306 0.950 . S
C314 C312 1.391 . S
C314 C315 1.400 . S
C315 C314 1.400 . S
C315 C316 1.398 . S
C315 C321 1.491 . S
C316 H307 0.950 . S
C316 C315 1.398 . S
C316 C317 1.391 . S
C317 H305 0.950 . S
C317 C313 1.393 . S
C317 C316 1.391 . S
C318 H308 0.950 . S
C318 C319 1.386 . S
C318 C320 1.391 . S
C319 C318 1.386 . S
C319 C323 1.393 . S
C320 H309 0.950 . S
C320 C318 1.391 . S
C320 C321 1.400 . S
C321 C315 1.491 . S
C321 C320 1.400 . S
C321 C322 1.398 . S
C322 H310 0.950 . S
C322 C321 1.398 . S
C322 C323 1.391 . S
C323 H311 0.950 . S
C323 C319 1.393 . S
C323 C322 1.391 . S
H324 C332 0.950 . S
H325 C337 0.950 . S
H326 C334 0.950 . S
H327 C336 0.950 . S
H328 C338 0.950 . S
H329 C340 0.950 . S
H330 C342 0.950 . S
H331 C343 0.950 . S
C332 H324 0.950 . S
C332 C333 1.386 . S
C332 C334 1.391 . S
C333 C332 1.386 . S
C333 C337 1.393 . S
C334 H326 0.950 . S
C334 C332 1.391 . S
C334 C335 1.400 . S
C335 C334 1.400 . S
C335 C336 1.398 . S
C335 C341 1.491 . S
C336 H327 0.950 . S
C336 C335 1.398 . S
C336 C337 1.391 . S
C337 H325 0.950 . S
C337 C333 1.393 . S
C337 C336 1.391 . S
C338 H328 0.950 . S
C338 C339 1.386 . S
C338 C340 1.391 . S
C339 C338 1.386 . S
C339 C343 1.393 . S
C340 H329 0.950 . S
C340 C338 1.391 . S
C340 C341 1.400 . S
C341 C335 1.491 . S
C341 C340 1.400 . S
C341 C342 1.398 . S
C342 H330 0.950 . S
C342 C341 1.398 . S
C342 C343 1.391 . S
C343 H331 0.950 . S
C343 C339 1.393 . S
C343 C342 1.391 . S
H344 C352 0.950 . S
H345 C357 0.950 . S
H346 C354 0.950 . S
H347 C356 0.950 . S
H348 C358 0.950 . S
H349 C360 0.950 . S
H350 C362 0.950 . S
H351 C363 0.950 . S
C352 H344 0.950 . S
C352 C353 1.386 . S
C352 C354 1.391 . S
C353 C352 1.386 . S
C353 C357 1.393 . S
C354 H346 0.950 . S
C354 C352 1.391 . S
C354 C355 1.400 . S
C355 C354 1.400 . S
C355 C356 1.398 . S
C355 C361 1.491 . S
C356 H347 0.950 . S
C356 C355 1.398 . S
C356 C357 1.391 . S
C357 H345 0.950 . S
C357 C353 1.393 . S
C357 C356 1.391 . S
C358 H348 0.950 . S
C358 C359 1.386 . S
C358 C360 1.391 . S
C359 C358 1.386 . S
C359 C363 1.393 . S
C360 H349 0.950 . S
C360 C358 1.391 . S
C360 C361 1.400 . S
C361 C355 1.491 . S
C361 C360 1.400 . S
C361 C362 1.398 . S
C362 H350 0.950 . S
C362 C361 1.398 . S
C362 C363 1.391 . S
C363 H351 0.950 . S
C363 C359 1.393 . S
C363 C362 1.391 . S
H364 C372 0.950 . S
H365 C377 0.950 . S
H366 C374 0.950 . S
H367 C376 0.950 . S
H368 C378 0.950 . S
H369 C380 0.950 . S
H370 C382 0.950 . S
H371 C383 0.950 . S
C372 H364 0.950 . S
C372 C373 1.386 . S
C372 C374 1.391 . S
C373 C372 1.386 . S
C373 C377 1.393 . S
C374 H366 0.950 . S
C374 C372 1.391 . S
C374 C375 1.400 . S
C375 C374 1.400 . S
C375 C376 1.398 . S
C375 C381 1.491 . S
C376 H367 0.950 . S
C376 C375 1.398 . S
C376 C377 1.391 . S
C377 H365 0.950 . S
C377 C373 1.393 . S
C377 C376 1.391 . S
C378 H368 0.950 . S
C378 C379 1.386 . S
C378 C380 1.391 . S
C379 C378 1.386 . S
C379 C383 1.393 . S
C380 H369 0.950 . S
C380 C378 1.391 . S
C380 C381 1.400 . S
C381 C375 1.491 . S
C381 C380 1.400 . S
C381 C382 1.398 . S
C382 H370 0.950 . S
C382 C381 1.398 . S
C382 C383 1.391 . S
C383 H371 0.950 . S
C383 C379 1.393 . S
C383 C382 1.391 . S
H384 C392 0.950 . S
H385 C397 0.950 1_455 S
H386 C394 0.950 . S
H387 C396 0.950 . S
H388 C398 0.950 . S
H389 C400 0.950 . S
H390 C402 0.950 . S
H391 C403 0.950 1_655 S
C392 H384 0.950 . S
C392 C393 1.386 . S
C392 C394 1.391 . S
C393 C392 1.386 . S
C393 C397 1.393 . S
C394 H386 0.950 . S
C394 C392 1.391 . S
C394 C395 1.400 . S
C395 C394 1.400 . S
C395 C396 1.398 1_655 S
C395 C401 1.491 1_655 S
C396 H387 0.950 . S
C396 C395 1.398 1_455 S
C396 C397 1.391 1_455 S
C397 H385 0.950 1_655 S
C397 C393 1.393 . S
C397 C396 1.391 1_655 S
C398 H388 0.950 . S
C398 C399 1.386 . S
C398 C400 1.391 . S
C399 C398 1.386 . S
C399 C403 1.393 . S
C400 H389 0.950 . S
C400 C398 1.391 . S
C400 C401 1.400 . S
C401 C395 1.491 1_455 S
C401 C400 1.400 . S
C401 C402 1.398 1_455 S
C402 H390 0.950 . S
C402 C401 1.398 1_655 S
C402 C403 1.391 1_655 S
C403 H391 0.950 1_455 S
C403 C399 1.393 . S
C403 C402 1.391 1_455 S
H404 C412 0.950 . S
H405 C417 0.950 . S
H406 C414 0.950 . S
H407 C416 0.950 . S
H408 C418 0.950 . S
H409 C420 0.950 . S
H410 C422 0.950 . S
H411 C423 0.950 . S
C412 H404 0.950 . S
C412 C413 1.386 . S
C412 C414 1.391 . S
C413 C412 1.386 . S
C413 C417 1.393 . S
C414 H406 0.950 . S
C414 C412 1.391 . S
C414 C415 1.400 . S
C415 C414 1.400 . S
C415 C416 1.398 . S
C415 C421 1.491 . S
C416 H407 0.950 . S
C416 C415 1.398 . S
C416 C417 1.391 . S
C417 H405 0.950 . S
C417 C413 1.393 . S
C417 C416 1.391 . S
C418 H408 0.950 . S
C418 C419 1.386 . S
C418 C420 1.391 . S
C419 C418 1.386 . S
C419 C423 1.393 . S
C420 H409 0.950 . S
C420 C418 1.391 . S
C420 C421 1.400 . S
C421 C415 1.491 . S
C421 C420 1.400 . S
C421 C422 1.398 . S
C422 H410 0.950 . S
C422 C421 1.398 . S
C422 C423 1.391 . S
C423 H411 0.950 . S
C423 C419 1.393 . S
C423 C422 1.391 . S
H424 C432 0.950 . S
H425 C437 0.950 . S
H426 C434 0.950 . S
H427 C436 0.950 . S
H428 C438 0.950 . S
H429 C440 0.950 . S
H430 C442 0.950 . S
H431 C443 0.950 . S
C432 H424 0.950 . S
C432 C433 1.386 . S
C432 C434 1.391 . S
C433 C432 1.386 . S
C433 C437 1.393 1_455 S
C434 H426 0.950 . S
C434 C432 1.391 . S
C434 C435 1.400 . S
C435 C434 1.400 . S
C435 C436 1.398 1_455 S
C435 C441 1.491 1_455 S
C436 H427 0.950 . S
C436 C435 1.398 1_655 S
C436 C437 1.391 . S
C437 H425 0.950 . S
C437 C433 1.393 1_655 S
C437 C436 1.391 . S
C438 H428 0.950 . S
C438 C439 1.386 . S
C438 C440 1.391 . S
C439 C438 1.386 . S
C439 C443 1.393 1_655 S
C440 H429 0.950 . S
C440 C438 1.391 . S
C440 C441 1.400 . S
C441 C435 1.491 1_655 S
C441 C440 1.400 . S
C441 C442 1.398 1_655 S
C442 H430 0.950 . S
C442 C441 1.398 1_455 S
C442 C443 1.391 . S
C443 H431 0.950 . S
C443 C439 1.393 1_455 S
C443 C442 1.391 . S
H444 C452 0.950 . S
H445 C457 0.950 . S
H446 C454 0.950 . S
H447 C456 0.950 . S
H448 C458 0.950 . S
H449 C460 0.950 . S
H450 C462 0.950 . S
H451 C463 0.950 . S
C452 H444 0.950 . S
C452 C453 1.386 . S
C452 C454 1.391 . S
C453 C452 1.386 . S
C453 C457 1.393 . S
C454 H446 0.950 . S
C454 C452 1.391 . S
C454 C455 1.400 . S
C455 C454 1.400 . S
C455 C456 1.398 . S
C455 C461 1.491 . S
C456 H447 0.950 . S
C456 C455 1.398 . S
C456 C457 1.391 . S
C457 H445 0.950 . S
C457 C453 1.393 . S
C457 C456 1.391 . S
C458 H448 0.950 . S
C458 C459 1.386 . S
C458 C460 1.391 . S
C459 C458 1.386 . S
C459 C463 1.393 . S
C460 H449 0.950 . S
C460 C458 1.391 . S
C460 C461 1.400 . S
C461 C455 1.491 . S
C461 C460 1.400 . S
C461 C462 1.398 . S
C462 H450 0.950 . S
C462 C461 1.398 . S
C462 C463 1.391 . S
C463 H451 0.950 . S
C463 C459 1.393 . S
C463 C462 1.391 . S
H464 C472 0.950 . S
H465 C477 0.950 . S
H466 C474 0.950 . S
H467 C476 0.950 . S
H468 C478 0.950 . S
H469 C480 0.950 . S
H470 C482 0.950 . S
H471 C483 0.950 . S
C472 H464 0.950 . S
C472 C473 1.386 . S
C472 C474 1.391 . S
C473 C472 1.386 . S
C473 C477 1.393 . S
C474 H466 0.950 . S
C474 C472 1.391 . S
C474 C475 1.400 . S
C475 C474 1.400 . S
C475 C476 1.398 . S
C475 C481 1.491 . S
C476 H467 0.950 . S
C476 C475 1.398 . S
C476 C477 1.391 . S
C477 H465 0.950 . S
C477 C473 1.393 . S
C477 C476 1.391 . S
C478 H468 0.950 . S
C478 C479 1.386 . S
C478 C480 1.391 . S
C479 C478 1.386 . S
C479 C483 1.393 . S
C480 H469 0.950 . S
C480 C478 1.391 . S
C480 C481 1.400 . S
C481 C475 1.491 . S
C481 C480 1.400 . S
C481 C482 1.398 . S
C482 H470 0.950 . S
C482 C481 1.398 . S
C482 C483 1.391 . S
C483 H471 0.950 . S
C483 C479 1.393 . S
C483 C482 1.391 . S
H484 C492 0.950 . S
H485 C497 0.950 . S
H486 C494 0.950 . S
H487 C496 0.950 . S
H488 C498 0.950 . S
H489 C500 0.950 . S
H490 C502 0.950 . S
H491 C503 0.950 . S
C492 H484 0.950 . S
C492 C493 1.386 . S
C492 C494 1.391 . S
C493 C492 1.386 . S
C493 C497 1.393 . S
C494 H486 0.950 . S
C494 C492 1.391 . S
C494 C495 1.400 . S
C495 C494 1.400 . S
C495 C496 1.398 1_455 S
C495 C501 1.491 1_455 S
C496 H487 0.950 . S
C496 C495 1.398 1_655 S
C496 C497 1.391 1_655 S
C497 H485 0.950 . S
C497 C493 1.393 . S
C497 C496 1.391 1_455 S
C498 H488 0.950 . S
C498 C499 1.386 . S
C498 C500 1.391 . S
C499 C498 1.386 . S
C499 C503 1.393 . S
C500 H489 0.950 . S
C500 C498 1.391 . S
C500 C501 1.400 . S
C501 C495 1.491 1_655 S
C501 C500 1.400 . S
C501 C502 1.398 1_655 S
C502 H490 0.950 . S
C502 C501 1.398 1_455 S
C502 C503 1.391 1_455 S
C503 H491 0.950 . S
C503 C499 1.393 . S
C503 C502 1.391 1_655 S
H504 C512 0.950 . S
H505 C517 0.950 . S
H506 C514 0.950 . S
H507 C516 0.950 . S
H508 C518 0.950 . S
H509 C520 0.950 . S
H510 C522 0.950 . S
H511 C523 0.950 . S
C512 H504 0.950 . S
C512 C513 1.386 . S
C512 C514 1.391 . S
C513 C512 1.386 . S
C513 C517 1.393 . S
C514 H506 0.950 . S
C514 C512 1.391 . S
C514 C515 1.400 . S
C515 C514 1.400 . S
C515 C516 1.398 . S
C515 C521 1.491 . S
C516 H507 0.950 . S
C516 C515 1.398 . S
C516 C517 1.391 . S
C517 H505 0.950 . S
C517 C513 1.393 . S
C517 C516 1.391 . S
C518 H508 0.950 . S
C518 C519 1.386 . S
C518 C520 1.391 . S
C519 C518 1.386 . S
C519 C523 1.393 . S
C520 H509 0.950 . S
C520 C518 1.391 . S
C520 C521 1.400 . S
C521 C515 1.491 . S
C521 C520 1.400 . S
C521 C522 1.398 . S
C522 H510 0.950 . S
C522 C521 1.398 . S
C522 C523 1.391 . S
C523 H511 0.950 . S
C523 C519 1.393 . S
C523 C522 1.391 . S
H524 C532 0.950 . S
H525 C537 0.950 . S
H526 C534 0.950 . S
H527 C536 0.950 . S
H528 C538 0.950 . S
H529 C540 0.950 . S
H530 C542 0.950 . S
H531 C543 0.950 . S
C532 H524 0.950 . S
C532 C533 1.386 . S
C532 C534 1.391 . S
C533 C532 1.386 . S
C533 C537 1.393 1_455 S
C534 H526 0.950 . S
C534 C532 1.391 . S
C534 C535 1.400 . S
C535 C534 1.400 . S
C535 C536 1.398 1_455 S
C535 C541 1.491 1_455 S
C536 H527 0.950 . S
C536 C535 1.398 1_655 S
C536 C537 1.391 . S
C537 H525 0.950 . S
C537 C533 1.393 1_655 S
C537 C536 1.391 . S
C538 H528 0.950 . S
C538 C539 1.386 . S
C538 C540 1.391 . S
C539 C538 1.386 . S
C539 C543 1.393 1_655 S
C540 H529 0.950 . S
C540 C538 1.391 . S
C540 C541 1.400 . S
C541 C535 1.491 1_655 S
C541 C540 1.400 . S
C541 C542 1.398 1_655 S
C542 H530 0.950 . S
C542 C541 1.398 1_455 S
C542 C543 1.391 . S
C543 H531 0.950 . S
C543 C539 1.393 1_455 S
C543 C542 1.391 . S
H544 C552 0.950 . S
H545 C557 0.950 . S
H546 C554 0.950 . S
H547 C556 0.950 . S
H548 C558 0.950 . S
H549 C560 0.950 . S
H550 C562 0.950 . S
H551 C563 0.950 . S
C552 H544 0.950 . S
C552 C553 1.386 1_655 S
C552 C554 1.391 . S
C553 C552 1.386 1_455 S
C553 C557 1.393 . S
C554 H546 0.950 . S
C554 C552 1.391 . S
C554 C555 1.400 1_655 S
C555 C554 1.400 1_455 S
C555 C556 1.398 . S
C555 C561 1.491 1_455 S
C556 H547 0.950 . S
C556 C555 1.398 . S
C556 C557 1.391 . S
C557 H545 0.950 . S
C557 C553 1.393 . S
C557 C556 1.391 . S
C558 H548 0.950 . S
C558 C559 1.386 1_455 S
C558 C560 1.391 . S
C559 C558 1.386 1_655 S
C559 C563 1.393 . S
C560 H549 0.950 . S
C560 C558 1.391 . S
C560 C561 1.400 1_455 S
C561 C555 1.491 1_655 S
C561 C560 1.400 1_655 S
C561 C562 1.398 . S
C562 H550 0.950 . S
C562 C561 1.398 . S
C562 C563 1.391 . S
C563 H551 0.950 . S
C563 C559 1.393 . S
C563 C562 1.391 . S
H564 C572 0.950 . S
H565 C577 0.950 . S
H566 C574 0.950 . S
H567 C576 0.950 . S
H568 C578 0.950 . S
H569 C580 0.950 . S
H570 C582 0.950 . S
H571 C583 0.950 . S
C572 H564 0.950 . S
C572 C573 1.386 . S
C572 C574 1.391 . S
C573 C572 1.386 . S
C573 C577 1.393 . S
C574 H566 0.950 . S
C574 C572 1.391 . S
C574 C575 1.400 . S
C575 C574 1.400 . S
C575 C576 1.398 . S
C575 C581 1.491 . S
C576 H567 0.950 . S
C576 C575 1.398 . S
C576 C577 1.391 . S
C577 H565 0.950 . S
C577 C573 1.393 . S
C577 C576 1.391 . S
C578 H568 0.950 . S
C578 C579 1.386 . S
C578 C580 1.391 . S
C579 C578 1.386 . S
C579 C583 1.393 . S
C580 H569 0.950 . S
C580 C578 1.391 . S
C580 C581 1.400 . S
C581 C575 1.491 . S
C581 C580 1.400 . S
C581 C582 1.398 . S
C582 H570 0.950 . S
C582 C581 1.398 . S
C582 C583 1.391 . S
C583 H571 0.950 . S
C583 C579 1.393 . S
C583 C582 1.391 . S
H584 C592 0.950 . S
H585 C597 0.950 . S
H586 C594 0.950 . S
H587 C596 0.950 . S
H588 C598 0.950 . S
H589 C600 0.950 . S
H590 C602 0.950 . S
H591 C603 0.950 . S
C592 H584 0.950 . S
C592 C593 1.386 . S
C592 C594 1.391 . S
C593 C592 1.386 . S
C593 C597 1.393 . S
C594 H586 0.950 . S
C594 C592 1.391 . S
C594 C595 1.400 . S
C595 C594 1.400 . S
C595 C596 1.398 . S
C595 C601 1.491 . S
C596 H587 0.950 . S
C596 C595 1.398 . S
C596 C597 1.391 . S
C597 H585 0.950 . S
C597 C593 1.393 . S
C597 C596 1.391 . S
C598 H588 0.950 . S
C598 C599 1.386 . S
C598 C600 1.391 . S
C599 C598 1.386 . S
C599 C603 1.393 . S
C600 H589 0.950 . S
C600 C598 1.391 . S
C600 C601 1.400 . S
C601 C595 1.491 . S
C601 C600 1.400 . S
C601 C602 1.398 . S
C602 H590 0.950 . S
C602 C601 1.398 . S
C602 C603 1.391 . S
C603 H591 0.950 . S
C603 C599 1.393 . S
C603 C602 1.391 . S
H604 C612 0.950 . S
H605 C617 0.950 . S
H606 C614 0.950 . S
H607 C616 0.950 . S
H608 C618 0.950 . S
H609 C620 0.950 . S
H610 C622 0.950 . S
H611 C623 0.950 . S
C612 H604 0.950 . S
C612 C613 1.386 . S
C612 C614 1.391 . S
C613 C612 1.386 . S
C613 C617 1.393 1_455 S
C614 H606 0.950 . S
C614 C612 1.391 . S
C614 C615 1.400 . S
C615 C614 1.400 . S
C615 C616 1.398 1_455 S
C615 C621 1.491 1_455 S
C616 H607 0.950 . S
C616 C615 1.398 1_655 S
C616 C617 1.391 . S
C617 H605 0.950 . S
C617 C613 1.393 1_655 S
C617 C616 1.391 . S
C618 H608 0.950 . S
C618 C619 1.386 . S
C618 C620 1.391 . S
C619 C618 1.386 . S
C619 C623 1.393 1_655 S
C620 H609 0.950 . S
C620 C618 1.391 . S
C620 C621 1.400 . S
C621 C615 1.491 1_655 S
C621 C620 1.400 . S
C621 C622 1.398 1_655 S
C622 H610 0.950 . S
C622 C621 1.398 1_455 S
C622 C623 1.391 . S
C623 H611 0.950 . S
C623 C619 1.393 1_455 S
C623 C622 1.391 . S
H624 C632 0.950 . S
H625 C637 0.950 . S
H626 C634 0.950 . S
H627 C636 0.950 . S
H628 C638 0.950 . S
H629 C640 0.950 . S
H630 C642 0.950 . S
H631 C643 0.950 . S
C632 H624 0.950 . S
C632 C633 1.386 1_655 S
C632 C634 1.391 . S
C633 C632 1.386 1_455 S
C633 C637 1.393 . S
C634 H626 0.950 . S
C634 C632 1.391 . S
C634 C635 1.400 1_655 S
C635 C634 1.400 1_455 S
C635 C636 1.398 . S
C635 C641 1.491 1_455 S
C636 H627 0.950 . S
C636 C635 1.398 . S
C636 C637 1.391 . S
C637 H625 0.950 . S
C637 C633 1.393 . S
C637 C636 1.391 . S
C638 H628 0.950 . S
C638 C639 1.386 1_455 S
C638 C640 1.391 . S
C639 C638 1.386 1_655 S
C639 C643 1.393 . S
C640 H629 0.950 . S
C640 C638 1.391 . S
C640 C641 1.400 1_455 S
C641 C635 1.491 1_655 S
C641 C640 1.400 1_655 S
C641 C642 1.398 . S
C642 H630 0.950 . S
C642 C641 1.398 . S
C642 C643 1.391 . S
C643 H631 0.950 . S
C643 C639 1.393 . S
C643 C642 1.391 . S
H644 C652 0.950 . S
H645 C657 0.950 . S
H646 C654 0.950 . S
H647 C656 0.950 . S
H648 C658 0.950 . S
H649 C660 0.950 . S
H650 C662 0.950 . S
H651 C663 0.950 . S
C652 H644 0.950 . S
C652 C653 1.386 . S
C652 C654 1.391 . S
C653 C652 1.386 . S
C653 C657 1.393 . S
C654 H646 0.950 . S
C654 C652 1.391 . S
C654 C655 1.400 . S
C655 C654 1.400 . S
C655 C656 1.398 . S
C655 C661 1.491 . S
C656 H647 0.950 . S
C656 C655 1.398 . S
C656 C657 1.391 . S
C657 H645 0.950 . S
C657 C653 1.393 . S
C657 C656 1.391 . S
C658 H648 0.950 . S
C658 C659 1.386 . S
C658 C660 1.391 . S
C659 C658 1.386 . S
C659 C663 1.393 . S
C660 H649 0.950 . S
C660 C658 1.391 . S
C660 C661 1.400 . S
C661 C655 1.491 . S
C661 C660 1.400 . S
C661 C662 1.398 . S
C662 H650 0.950 . S
C662 C661 1.398 . S
C662 C663 1.391 . S
C663 H651 0.950 . S
C663 C659 1.393 . S
C663 C662 1.391 . S
H664 C672 0.950 . S
H665 C677 0.950 . S
H666 C674 0.950 . S
H667 C676 0.950 . S
H668 C678 0.950 . S
H669 C680 0.950 . S
H670 C682 0.950 . S
H671 C683 0.950 . S
C672 H664 0.950 . S
C672 C673 1.386 . S
C672 C674 1.391 . S
C673 C672 1.386 . S
C673 C677 1.393 . S
C674 H666 0.950 . S
C674 C672 1.391 . S
C674 C675 1.400 . S
C675 C674 1.400 . S
C675 C676 1.398 . S
C675 C681 1.491 . S
C676 H667 0.950 . S
C676 C675 1.398 . S
C676 C677 1.391 . S
C677 H665 0.950 . S
C677 C673 1.393 . S
C677 C676 1.391 . S
C678 H668 0.950 . S
C678 C679 1.386 . S
C678 C680 1.391 . S
C679 C678 1.386 . S
C679 C683 1.393 . S
C680 H669 0.950 . S
C680 C678 1.391 . S
C680 C681 1.400 . S
C681 C675 1.491 . S
C681 C680 1.400 . S
C681 C682 1.398 . S
C682 H670 0.950 . S
C682 C681 1.398 . S
C682 C683 1.391 . S
C683 H671 0.950 . S
C683 C679 1.393 . S
C683 C682 1.391 . S
H684 C692 0.950 . S
H685 C697 0.950 . S
H686 C694 0.944 1_655 S
H687 C696 0.950 . S
H688 C698 0.950 . S
H689 C700 0.944 1_455 S
H690 C702 0.950 . S
H691 C703 0.950 . S
C692 H684 0.950 . S
C692 C693 1.386 . S
C692 C694 1.391 . S
C693 C692 1.386 . S
C693 C697 1.393 . S
C694 H686 0.944 1_455 S
C694 C692 1.391 . S
C694 C695 1.400 . S
C695 C694 1.400 . S
C695 C696 1.398 . S
C695 C701 1.491 1_455 S
C696 H687 0.950 . S
C696 C695 1.398 . S
C696 C697 1.391 . S
C697 H685 0.950 . S
C697 C693 1.393 . S
C697 C696 1.391 . S
C698 H688 0.950 . S
C698 C699 1.386 . S
C698 C700 1.391 . S
C699 C698 1.386 . S
C699 C703 1.393 . S
C700 H689 0.944 1_655 S
C700 C698 1.391 . S
C700 C701 1.400 . S
C701 C695 1.491 1_655 S
C701 C700 1.400 . S
C701 C702 1.398 . S
C702 H690 0.950 . S
C702 C701 1.398 . S
C702 C703 1.391 . S
C703 H691 0.950 . S
C703 C699 1.393 . S
C703 C702 1.391 . S
H704 C712 0.950 . S
H705 C717 0.940 1_545 S
H706 C714 0.961 . S
H707 C716 0.950 1_455 S
H708 C718 0.950 . S
H709 C720 0.961 . S
H710 C722 0.950 1_655 S
H711 C723 0.940 1_565 S
C712 H704 0.950 . S
C712 C713 1.386 . S
C712 C714 1.391 . S
C713 C712 1.386 . S
C713 C717 1.410 . S
C714 H706 0.961 . S
C714 C712 1.391 . S
C714 C715 1.400 . S
C715 C714 1.400 . S
C715 C716 1.398 1_565 S
C715 C721 1.491 1_666 S
C716 H707 0.950 1_655 S
C716 C715 1.398 1_545 S
C716 C717 1.384 1_545 S
C717 H705 0.940 1_565 S
C717 C713 1.410 . S
C717 C716 1.384 1_565 S
C718 H708 0.950 . S
C718 C719 1.386 . S
C718 C720 1.391 . S
C719 C718 1.386 . S
C719 C723 1.410 . S
C720 H709 0.961 . S
C720 C718 1.391 . S
C720 C721 1.400 . S
C721 C715 1.491 1_444 S
C721 C720 1.400 . S
C721 C722 1.398 1_545 S
C722 H710 0.950 1_455 S
C722 C721 1.398 1_565 S
C722 C723 1.384 1_565 S
C723 H711 0.940 1_545 S
C723 C719 1.410 . S
C723 C722 1.384 1_545 S
H724 C732 0.950 . S
H725 C737 0.950 . S
H726 C734 0.950 . S
H727 C736 0.950 1_565 S
H728 C738 0.950 . S
H729 C740 0.950 . S
H730 C742 0.950 1_545 S
H731 C743 0.950 . S
C732 H724 0.950 . S
C732 C733 1.386 . S
C732 C734 1.391 . S
C733 C732 1.386 . S
C733 C737 1.393 . S
C734 H726 0.950 . S
C734 C732 1.391 . S
C734 C735 1.400 . S
C735 C734 1.400 . S
C735 C736 1.398 . S
C735 C741 1.491 1_546 S
C736 H727 0.950 1_545 S
C736 C735 1.398 . S
C736 C737 1.391 . S
C737 H725 0.950 . S
C737 C733 1.393 . S
C737 C736 1.391 . S
C738 H728 0.950 . S
C738 C739 1.386 . S
C738 C740 1.391 . S
C739 C738 1.386 . S
C739 C743 1.393 . S
C740 H729 0.950 . S
C740 C738 1.391 . S
C740 C741 1.400 . S
C741 C735 1.491 1_564 S
C741 C740 1.400 . S
C741 C742 1.398 . S
C742 H730 0.950 1_565 S
C742 C741 1.398 . S
C742 C743 1.391 . S
C743 H731 0.950 . S
C743 C739 1.393 . S
C743 C742 1.391 . S
H744 C752 0.950 . S
H745 C757 0.950 . S
H746 C754 0.950 . S
H747 C756 0.950 . S
H748 C758 0.950 . S
H749 C760 0.950 . S
H750 C762 0.950 . S
H751 C763 0.950 . S
C752 H744 0.950 . S
C752 C753 1.386 . S
C752 C754 1.391 1_545 S
C753 C752 1.386 . S
C753 C757 1.393 . S
C754 H746 0.950 . S
C754 C752 1.391 1_565 S
C754 C755 1.400 1_565 S
C755 C754 1.400 1_545 S
C755 C756 1.398 . S
C755 C761 1.491 1_545 S
C756 H747 0.950 . S
C756 C755 1.398 . S
C756 C757 1.391 . S
C757 H745 0.950 . S
C757 C753 1.393 . S
C757 C756 1.391 . S
C758 H748 0.950 . S
C758 C759 1.386 . S
C758 C760 1.391 1_565 S
C759 C758 1.386 . S
C759 C763 1.393 . S
C760 H749 0.950 . S
C760 C758 1.391 1_545 S
C760 C761 1.400 1_545 S
C761 C755 1.491 1_565 S
C761 C760 1.400 1_565 S
C761 C762 1.398 . S
C762 H750 0.950 . S
C762 C761 1.398 . S
C762 C763 1.391 . S
C763 H751 0.950 . S
C763 C759 1.393 . S
C763 C762 1.391 . S
H764 C772 0.950 . S
H765 C777 0.950 . S
H766 C774 0.950 . S
H767 C776 0.962 . S
H768 C778 0.950 . S
H769 C780 0.950 . S
H770 C782 0.962 . S
H771 C783 0.950 . S
C772 H764 0.950 . S
C772 C773 1.386 1_655 S
C772 C774 1.391 . S
C773 C772 1.386 1_455 S
C773 C777 1.393 . S
C774 H766 0.950 . S
C774 C772 1.391 . S
C774 C775 1.400 1_655 S
C775 C774 1.400 1_455 S
C775 C776 1.398 . S
C775 C781 1.491 1_465 S
C776 H767 0.962 . S
C776 C775 1.398 . S
C776 C777 1.391 . S
C777 H765 0.950 . S
C777 C773 1.393 . S
C777 C776 1.391 . S
C778 H768 0.950 . S
C778 C779 1.386 1_455 S
C778 C780 1.391 . S
C779 C778 1.386 1_655 S
C779 C783 1.393 . S
C780 H769 0.950 . S
C780 C778 1.391 . S
C780 C781 1.400 1_455 S
C781 C775 1.491 1_645 S
C781 C780 1.400 1_655 S
C781 C782 1.398 . S
C782 H770 0.962 . S
C782 C781 1.398 . S
C782 C783 1.391 . S
C783 H771 0.950 . S
C783 C779 1.393 . S
C783 C782 1.391 . S
H784 C792 0.950 . S
H785 C797 0.950 . S
H786 C794 0.950 . S
H787 C796 0.950 . S
H788 C798 0.950 . S
H789 C800 0.950 . S
H790 C802 0.950 . S
H791 C803 0.950 . S
C792 H784 0.950 . S
C792 C793 1.386 . S
C792 C794 1.391 . S
C793 C792 1.386 . S
C793 C797 1.393 . S
C794 H786 0.950 . S
C794 C792 1.391 . S
C794 C795 1.400 . S
C795 C794 1.400 . S
C795 C796 1.398 . S
C795 C801 1.491 1_554 S
C796 H787 0.950 . S
C796 C795 1.398 . S
C796 C797 1.391 . S
C797 H785 0.950 . S
C797 C793 1.393 . S
C797 C796 1.391 . S
C798 H788 0.950 . S
C798 C799 1.386 . S
C798 C800 1.391 . S
C799 C798 1.386 . S
C799 C803 1.393 . S
C800 H789 0.950 . S
C800 C798 1.391 . S
C800 C801 1.400 . S
C801 C795 1.491 1_556 S
C801 C800 1.400 . S
C801 C802 1.398 . S
C802 H790 0.950 . S
C802 C801 1.398 . S
C802 C803 1.391 . S
C803 H791 0.950 . S
C803 C799 1.393 . S
C803 C802 1.391 . S
H804 C812 0.950 . S
H805 C817 0.950 . S
H806 C814 0.950 . S
H807 C816 0.950 . S
H808 C818 0.950 . S
H809 C820 0.950 . S
H810 C822 0.950 . S
H811 C823 0.950 . S
C812 H804 0.950 . S
C812 C813 1.386 . S
C812 C814 1.391 . S
C813 C812 1.386 . S
C813 C817 1.393 . S
C814 H806 0.950 . S
C814 C812 1.391 . S
C814 C815 1.400 . S
C815 C814 1.400 . S
C815 C816 1.398 . S
C815 C821 1.491 1_654 S
C816 H807 0.950 . S
C816 C815 1.398 . S
C816 C817 1.391 . S
C817 H805 0.950 . S
C817 C813 1.393 . S
C817 C816 1.391 . S
C818 H808 0.950 . S
C818 C819 1.386 . S
C818 C820 1.391 . S
C819 C818 1.386 . S
C819 C823 1.393 . S
C820 H809 0.950 . S
C820 C818 1.391 . S
C820 C821 1.400 . S
C821 C815 1.491 1_456 S
C821 C820 1.400 . S
C821 C822 1.398 . S
C822 H810 0.950 . S
C822 C821 1.398 . S
C822 C823 1.391 . S
C823 H811 0.950 . S
C823 C819 1.393 . S
C823 C822 1.391 . S
H824 C832 0.950 . S
H825 C837 0.950 . S
H826 C834 0.950 . S
H827 C836 0.950 . S
H828 C838 0.950 . S
H829 C840 0.950 . S
H830 C842 0.950 . S
H831 C843 0.950 . S
C832 H824 0.950 . S
C832 C833 1.386 1_455 S
C832 C834 1.391 . S
C833 C832 1.386 1_655 S
C833 C837 1.393 . S
C834 H826 0.950 . S
C834 C832 1.391 . S
C834 C835 1.400 1_455 S
C835 C834 1.400 1_655 S
C835 C836 1.398 . S
C835 C841 1.491 1_655 S
C836 H827 0.950 . S
C836 C835 1.398 . S
C836 C837 1.391 . S
C837 H825 0.950 . S
C837 C833 1.393 . S
C837 C836 1.391 . S
C838 H828 0.950 . S
C838 C839 1.386 1_655 S
C838 C840 1.391 . S
C839 C838 1.386 1_455 S
C839 C843 1.393 . S
C840 H829 0.950 . S
C840 C838 1.391 . S
C840 C841 1.400 1_655 S
C841 C835 1.491 1_455 S
C841 C840 1.400 1_455 S
C841 C842 1.398 . S
C842 H830 0.950 . S
C842 C841 1.398 . S
C842 C843 1.391 . S
C843 H831 0.950 . S
C843 C839 1.393 . S
C843 C842 1.391 . S
H844 C852 0.950 . S
H845 C857 0.950 . S
H846 C854 0.950 . S
H847 C856 0.950 . S
H848 C858 0.950 . S
H849 C860 0.950 . S
H850 C862 0.950 . S
H851 C863 0.950 . S
C852 H844 0.950 . S
C852 C853 1.386 . S
C852 C854 1.391 . S
C853 C852 1.386 . S
C853 C857 1.393 . S
C854 H846 0.950 . S
C854 C852 1.391 . S
C854 C855 1.400 . S
C855 C854 1.400 . S
C855 C856 1.398 . S
C855 C861 1.491 . S
C856 H847 0.950 . S
C856 C855 1.398 . S
C856 C857 1.391 . S
C857 H845 0.950 . S
C857 C853 1.393 . S
C857 C856 1.391 . S
C858 H848 0.950 . S
C858 C859 1.386 . S
C858 C860 1.391 . S
C859 C858 1.386 . S
C859 C863 1.393 . S
C860 H849 0.950 . S
C860 C858 1.391 . S
C860 C861 1.400 . S
C861 C855 1.491 . S
C861 C860 1.400 . S
C861 C862 1.398 . S
C862 H850 0.950 . S
C862 C861 1.398 . S
C862 C863 1.391 . S
C863 H851 0.950 . S
C863 C859 1.393 . S
C863 C862 1.391 . S
C233 C22 1.503 . S
C239 C8 1.501 . S
C253 C36 1.504 . S
C259 C50 1.506 . S
C273 C64 1.507 . S
C279 C78 1.507 . S
C293 C106 1.507 . S
C299 C92 1.506 . S
C313 C134 1.499 . S
C319 C120 1.499 . S
C333 C162 1.502 . S
C339 C148 1.500 . S
C353 C190 1.499 . S
C359 C176 1.501 . S
C373 C218 1.504 . S
C379 C204 1.502 . S
C393 C45 1.395 . S
C399 C3 1.403 . S
C413 C17 1.397 . S
C419 C31 1.406 . S
C433 C101 1.406 . S
C439 C59 1.397 . S
C453 C87 1.399 . S
C459 C73 1.397 . S
C473 C115 1.399 . S
C479 C157 1.406 . S
C493 C143 1.402 . S
C499 C129 1.405 . S
C513 C213 1.406 . S
C519 C171 1.396 . S
C533 C185 1.406 . S
C539 C199 1.396 . S
C553 C9 1.487 . S
C559 C135 1.495 . S
C573 C23 1.483 . S
C579 C121 1.483 . S
C593 C163 1.494 . S
C599 C37 1.486 . S
C613 C149 1.490 . S
C619 C51 1.482 . S
C633 C191 1.493 . S
C639 C65 1.485 . S
C653 C177 1.494 . S
C659 C79 1.486 . S
C673 C93 1.488 . S
C679 C219 1.495 . S
C693 C107 1.494 . S
C699 C205 1.494 . S
C713 C63 1.328 . S
C719 C7 1.328 . S
C733 C77 1.339 . S
C739 C21 1.339 . S
C753 C91 1.337 . S
C759 C35 1.337 . S
C773 C105 1.341 . S
C779 C49 1.341 . S
C793 C119 1.344 . S
C799 C175 1.344 . S
C813 C133 1.328 . S
C819 C189 1.328 . S
C833 C203 1.337 . S
C839 C147 1.337 . S
C853 C217 1.329 . S
C859 C161 1.329 . S
