# Generated by pormake.
# Topology ull, (4)-cn, num edge types: 1
# Building blocks:
#     Node 0, Type 0, BuildingBlock: ICAMEG_clean_sbu_1, # of connection points: 4
#     Node 1, Type 0, BuildingBlock: ICAMEG_clean_sbu_1, # of connection points: 4
#     Node 2, Type 0, BuildingBlock: ICAMEG_clean_sbu_1, # of connection points: 4
#     Node 3, Type 0, BuildingBlock: ICAMEG_clean_sbu_1, # of connection points: 4
#     Node 4, Type 0, BuildingBlock: ICAMEG_clean_sbu_1, # of connection points: 4
#     Node 5, Type 0, BuildingBlock: ICAMEG_clean_sbu_1, # of connection points: 4
#     Node 6, Type 0, BuildingBlock: ICAMEG_clean_sbu_1, # of connection points: 4
#     Node 7, Type 0, BuildingBlock: ICAMEG_clean_sbu_1, # of connection points: 4
#     Node 8, Type 0, BuildingBlock: ICAMEG_clean_sbu_1, # of connection points: 4
#     Node 9, Type 0, BuildingBlock: ICAMEG_clean_sbu_1, # of connection points: 4
#     Node 10, Type 0, BuildingBlock: ICAMEG_clean_sbu_1, # of connection points: 4
#     Node 11, Type 0, BuildingBlock: ICAMEG_clean_sbu_1, # of connection points: 4
#     Node 12, Type 0, BuildingBlock: ICAMEG_clean_sbu_1, # of connection points: 4
#     Node 13, Type 0, BuildingBlock: ICAMEG_clean_sbu_1, # of connection points: 4
#     Node 14, Type 0, BuildingBlock: ICAMEG_clean_sbu_1, # of connection points: 4
#     Node 15, Type 0, BuildingBlock: ICAMEG_clean_sbu_1, # of connection points: 4
#     Node 16, Type 0, BuildingBlock: ICAMEG_clean_sbu_1, # of connection points: 4
#     Node 17, Type 0, BuildingBlock: ICAMEG_clean_sbu_1, # of connection points: 4
#     Node 18, Type 0, BuildingBlock: ICAMEG_clean_sbu_1, # of connection points: 4
#     Node 19, Type 0, BuildingBlock: ICAMEG_clean_sbu_1, # of connection points: 4
#     Node 20, Type 0, BuildingBlock: ICAMEG_clean_sbu_1, # of connection points: 4
#     Node 21, Type 0, BuildingBlock: ICAMEG_clean_sbu_1, # of connection points: 4
#     Node 22, Type 0, BuildingBlock: ICAMEG_clean_sbu_1, # of connection points: 4
#     Node 23, Type 0, BuildingBlock: ICAMEG_clean_sbu_1, # of connection points: 4
#     Node 24, Type 0, BuildingBlock: ICAMEG_clean_sbu_1, # of connection points: 4
#     Node 25, Type 0, BuildingBlock: ICAMEG_clean_sbu_1, # of connection points: 4
#     Node 26, Type 0, BuildingBlock: ICAMEG_clean_sbu_1, # of connection points: 4
#     Node 27, Type 0, BuildingBlock: ICAMEG_clean_sbu_1, # of connection points: 4
#     Node 28, Type 0, BuildingBlock: ICAMEG_clean_sbu_1, # of connection points: 4
#     Node 29, Type 0, BuildingBlock: ICAMEG_clean_sbu_1, # of connection points: 4
#     Node 30, Type 0, BuildingBlock: ICAMEG_clean_sbu_1, # of connection points: 4
#     Node 31, Type 0, BuildingBlock: ICAMEG_clean_sbu_1, # of connection points: 4
#     Node 32, Type 0, BuildingBlock: ICAMEG_clean_sbu_1, # of connection points: 4
#     Node 33, Type 0, BuildingBlock: ICAMEG_clean_sbu_1, # of connection points: 4
#     Node 34, Type 0, BuildingBlock: ICAMEG_clean_sbu_1, # of connection points: 4
#     Node 35, Type 0, BuildingBlock: ICAMEG_clean_sbu_1, # of connection points: 4
#     Node 36, Type 0, BuildingBlock: ICAMEG_clean_sbu_1, # of connection points: 4
#     Node 37, Type 0, BuildingBlock: ICAMEG_clean_sbu_1, # of connection points: 4
#     Node 38, Type 0, BuildingBlock: ICAMEG_clean_sbu_1, # of connection points: 4
#     Node 39, Type 0, BuildingBlock: ICAMEG_clean_sbu_1, # of connection points: 4
#     Node 40, Type 0, BuildingBlock: ICAMEG_clean_sbu_1, # of connection points: 4
#     Node 41, Type 0, BuildingBlock: ICAMEG_clean_sbu_1, # of connection points: 4
#     Node 42, Type 0, BuildingBlock: ICAMEG_clean_sbu_1, # of connection points: 4
#     Node 43, Type 0, BuildingBlock: ICAMEG_clean_sbu_1, # of connection points: 4
#     Node 44, Type 0, BuildingBlock: ICAMEG_clean_sbu_1, # of connection points: 4
#     Node 45, Type 0, BuildingBlock: ICAMEG_clean_sbu_1, # of connection points: 4
#     Node 46, Type 0, BuildingBlock: ICAMEG_clean_sbu_1, # of connection points: 4
#     Node 47, Type 0, BuildingBlock: ICAMEG_clean_sbu_1, # of connection points: 4
#     Edge 48, Type (0, 0), None
#     Edge 49, Type (0, 0), None
#     Edge 50, Type (0, 0), None
#     Edge 51, Type (0, 0), None
#     Edge 52, Type (0, 0), None
#     Edge 53, Type (0, 0), None
#     Edge 54, Type (0, 0), None
#     Edge 55, Type (0, 0), None
#     Edge 56, Type (0, 0), None
#     Edge 57, Type (0, 0), None
#     Edge 58, Type (0, 0), None
#     Edge 59, Type (0, 0), None
#     Edge 60, Type (0, 0), None
#     Edge 61, Type (0, 0), None
#     Edge 62, Type (0, 0), None
#     Edge 63, Type (0, 0), None
#     Edge 64, Type (0, 0), None
#     Edge 65, Type (0, 0), None
#     Edge 66, Type (0, 0), None
#     Edge 67, Type (0, 0), None
#     Edge 68, Type (0, 0), None
#     Edge 69, Type (0, 0), None
#     Edge 70, Type (0, 0), None
#     Edge 71, Type (0, 0), None
#     Edge 72, Type (0, 0), None
#     Edge 73, Type (0, 0), None
#     Edge 74, Type (0, 0), None
#     Edge 75, Type (0, 0), None
#     Edge 76, Type (0, 0), None
#     Edge 77, Type (0, 0), None
#     Edge 78, Type (0, 0), None
#     Edge 79, Type (0, 0), None
#     Edge 80, Type (0, 0), None
#     Edge 81, Type (0, 0), None
#     Edge 82, Type (0, 0), None
#     Edge 83, Type (0, 0), None
#     Edge 84, Type (0, 0), None
#     Edge 85, Type (0, 0), None
#     Edge 86, Type (0, 0), None
#     Edge 87, Type (0, 0), None
#     Edge 88, Type (0, 0), None
#     Edge 89, Type (0, 0), None
#     Edge 90, Type (0, 0), None
#     Edge 91, Type (0, 0), None
#     Edge 92, Type (0, 0), None
#     Edge 93, Type (0, 0), None
#     Edge 94, Type (0, 0), None
#     Edge 95, Type (0, 0), None
#     Edge 96, Type (0, 0), None
#     Edge 97, Type (0, 0), None
#     Edge 98, Type (0, 0), None
#     Edge 99, Type (0, 0), None
#     Edge 100, Type (0, 0), None
#     Edge 101, Type (0, 0), None
#     Edge 102, Type (0, 0), None
#     Edge 103, Type (0, 0), None
#     Edge 104, Type (0, 0), None
#     Edge 105, Type (0, 0), None
#     Edge 106, Type (0, 0), None
#     Edge 107, Type (0, 0), None
#     Edge 108, Type (0, 0), None
#     Edge 109, Type (0, 0), None
#     Edge 110, Type (0, 0), None
#     Edge 111, Type (0, 0), None
#     Edge 112, Type (0, 0), None
#     Edge 113, Type (0, 0), None
#     Edge 114, Type (0, 0), None
#     Edge 115, Type (0, 0), None
#     Edge 116, Type (0, 0), None
#     Edge 117, Type (0, 0), None
#     Edge 118, Type (0, 0), None
#     Edge 119, Type (0, 0), None
#     Edge 120, Type (0, 0), None
#     Edge 121, Type (0, 0), None
#     Edge 122, Type (0, 0), None
#     Edge 123, Type (0, 0), None
#     Edge 124, Type (0, 0), None
#     Edge 125, Type (0, 0), None
#     Edge 126, Type (0, 0), None
#     Edge 127, Type (0, 0), None
#     Edge 128, Type (0, 0), None
#     Edge 129, Type (0, 0), None
#     Edge 130, Type (0, 0), None
#     Edge 131, Type (0, 0), None
#     Edge 132, Type (0, 0), None
#     Edge 133, Type (0, 0), None
#     Edge 134, Type (0, 0), None
#     Edge 135, Type (0, 0), None
#     Edge 136, Type (0, 0), None
#     Edge 137, Type (0, 0), None
#     Edge 138, Type (0, 0), None
#     Edge 139, Type (0, 0), None
#     Edge 140, Type (0, 0), None
#     Edge 141, Type (0, 0), None
#     Edge 142, Type (0, 0), None
#     Edge 143, Type (0, 0), None
# Relax obj value: 0.057
# Max RMSD: 0.069
# Mean RMSD: 0.069
data_MOF--net-ull--node1-ICAMEG_clean_sbu_1--edge1-none
_symmetry_space_group_name_H-M    P1
_symmetry_Int_Tables_number       1
_symmetry_cell_setting            triclinic
loop_
_symmetry_equiv_pos_as_xyz
'x, y, z'
_cell_length_a     31.682334
_cell_length_b     31.747054
_cell_length_c     31.894793
_cell_angle_alpha  89.846131
_cell_angle_beta   90.203483
_cell_angle_gamma 90.051342
loop_
_atom_site_label
_atom_site_type_symbol
_atom_site_fract_x
_atom_site_fract_y
_atom_site_fract_z
_atom_type_partial_charge
Co0 Co 0.01954 0.25712 0.12143 0.0
Co1 Co 0.02264 0.35805 0.15196 0.0
O2 O 0.02229 0.30127 0.16147 0.0
C3 C 0.97686 0.2366 0.19778 0.0
O4 O 0.96006 0.27394 0.20162 0.0
C5 C 0.08184 0.3503 0.2373 0.0
O6 O 0.06047 0.31858 0.25307 0.0
O7 O 0.06778 0.34968 0.10415 0.0
O8 O 0.04801 0.28784 0.07585 0.0
H9 H 0.00231 0.48494 0.06808 0.0
H10 H 0.06092 0.25246 0.20693 0.0
O11 O 0.99084 0.22356 0.16346 0.0
H12 H 0.17507 0.23049 0.10557 0.0
H13 H 0.0485 0.10505 0.10262 0.0
H14 H 0.97507 0.22799 0.04191 0.0
H15 H 0.10101 0.22965 0.0824 0.0
H16 H 0.05186 0.17221 0.13649 0.0
O17 O 0.07205 0.36484 0.1995 0.0
H18 H 0.00627 0.41094 0.07927 0.0
H19 H 0.04087 0.4315 0.20666 0.0
H20 H 0.96412 0.1562 0.01407 0.0
H21 H 0.13394 0.25278 0.23145 0.0
H22 H 0.00152 0.09559 0.04067 0.0
H23 H 0.19186 0.24342 0.18072 0.0
O24 O 0.963 0.2809 0.09824 0.0
H25 H 0.9619 0.34923 0.29906 0.0
H26 H 0.92476 0.37033 0.15155 0.0
H27 H 0.87104 0.3462 0.19985 0.0
H28 H 0.88974 0.33149 0.27411 0.0
H29 H 0.01265 0.37798 0.24946 0.0
H30 H 0.04938 0.50646 0.19251 0.0
H31 H 0.03407 0.53458 0.12287 0.0
O32 O 0.97456 0.35093 0.10564 0.0
C33 C 0.07021 0.321 0.07483 0.0
C34 C 0.01502 0.47406 0.09754 0.0
C35 C 0.04158 0.48534 0.16745 0.0
N36 N 0.02403 0.41665 0.14344 0.0
C37 C 0.01448 0.43157 0.1048 0.0
C38 C 0.03597 0.44286 0.17519 0.0
C39 C 0.03157 0.50108 0.12821 0.0
C40 C 0.08526 0.24637 0.18456 0.0
N41 N 0.07587 0.24171 0.14292 0.0
C42 C 0.12697 0.24716 0.19868 0.0
C43 C 0.15951 0.24166 0.17017 0.0
C44 C 0.15002 0.23448 0.12816 0.0
C45 C 0.10789 0.23427 0.11515 0.0
C46 C 0.03229 0.13157 0.08878 0.0
C47 C 0.99137 0.20129 0.05534 0.0
C48 C 0.03575 0.17101 0.10675 0.0
N49 N 0.01741 0.20602 0.0888 0.0
C50 C 0.98423 0.16102 0.03948 0.0
C51 C 0.00578 0.12631 0.05475 0.0
C52 C 0.95187 0.31999 0.09088 0.0
C53 C 0.95428 0.35102 0.26598 0.0
C54 C 0.93497 0.36234 0.18264 0.0
C55 C 0.90333 0.34968 0.21055 0.0
C56 C 0.9137 0.34166 0.25216 0.0
N57 N 0.97667 0.36451 0.19478 0.0
C58 C 0.98444 0.36492 0.23704 0.0
Co59 Co 0.63012 0.05373 0.14811 0.0
Co60 Co 0.73339 0.05315 0.13211 0.0
O61 O 0.68459 0.05941 0.16351 0.0
C62 C 0.61728 0.11768 0.22514 0.0
O63 O 0.65472 0.1146 0.24226 0.0
C64 C 0.74286 0.0045 0.20969 0.0
O65 O 0.71176 0.98052 0.19682 0.0
O66 O 0.71532 0.99169 0.11424 0.0
O67 O 0.64389 -0.0028 0.11608 0.0
H68 H 0.84906 0.03732 0.02384 0.0
H69 H 0.66883 0.04613 0.23627 0.0
O70 O 0.6121 0.10765 0.18528 0.0
H71 H 0.57706 0.924 0.22066 0.0
H72 H 0.47604 0.06386 0.17428 0.0
H73 H 0.58977 0.0313 0.0738 0.0
H74 H 0.58122 0.97593 0.16442 0.0
H75 H 0.55039 0.06525 0.19611 0.0
O76 O 0.75804 0.033 0.1861 0.0
H77 H 0.77537 0.0242 0.04954 0.0
H78 H 0.81142 0.08214 0.16383 0.0
H79 H 0.52107 0.02193 0.05303 0.0
H80 H 0.66176 -0.00198 0.29472 0.0
H81 H 0.4586 0.04228 0.10222 0.0
H82 H 0.61834 0.93394 0.28641 0.0
O83 O 0.64218 0.08825 0.08973 0.0
H84 H 0.72129 0.17715 0.22854 0.0
H85 H 0.75494 0.13268 0.08464 0.0
H86 H 0.74361 0.20767 0.09948 0.0
H87 H 0.72376 0.22997 0.17151 0.0
H88 H 0.7326 0.10226 0.21252 0.0
H89 H 0.87846 0.10265 0.13565 0.0
H90 H 0.90013 0.07519 0.0657 0.0
O91 O 0.70978 0.07205 0.07664 0.0
C92 C 0.6775 0.97519 0.108 0.0
C93 C 0.83939 0.04762 0.05373 0.0
C94 C 0.85733 0.084 0.11671 0.0
N95 N 0.78911 0.05177 0.10852 0.0
C96 C 0.79875 0.03956 0.06901 0.0
C97 C 0.81861 0.07221 0.13257 0.0
C98 C 0.86879 0.06952 0.07768 0.0
C99 C 0.64476 0.02277 0.23396 0.0
N100 N 0.62172 0.01768 0.19784 0.0
C101 C 0.64309 0.99347 0.26659 0.0
C102 C 0.61937 0.95714 0.26158 0.0
C103 C 0.59634 0.95151 0.2248 0.0
C104 C 0.59787 0.98201 0.19332 0.0
C105 C 0.50069 0.05678 0.15216 0.0
C106 C 0.56492 0.03827 0.09581 0.0
C107 C 0.54267 0.05817 0.16393 0.0
N108 N 0.57342 0.04958 0.13515 0.0
C109 C 0.52438 0.03428 0.08394 0.0
C110 C 0.49132 0.04489 0.11154 0.0
C111 C 0.67494 0.08735 0.06381 0.0
C112 C 0.72897 0.16758 0.19692 0.0
C113 C 0.74786 0.14202 0.11635 0.0
C114 C 0.74148 0.18474 0.12454 0.0
C115 C 0.73069 0.19731 0.16491 0.0
N116 N 0.74268 0.11244 0.14725 0.0
C117 C 0.7358 0.12516 0.18764 0.0
Co118 Co 0.97277 0.73209 0.12327 0.0
Co119 Co 0.96931 0.63052 0.15371 0.0
O120 O 0.96957 0.68769 0.1623 0.0
C121 C 0.01394 0.75292 0.2011 0.0
O122 O 0.03202 0.71608 0.20407 0.0
C123 C 0.90778 0.63986 0.23618 0.0
O124 O 0.92457 0.67482 0.25043 0.0
O125 O 0.92348 0.63955 0.10518 0.0
O126 O 0.94517 0.70123 0.07708 0.0
H127 H 0.92518 0.48697 0.09882 0.0
H128 H 0.93153 0.73943 0.20771 0.0
O129 O -0.00078 0.76616 0.16696 0.0
H130 H 0.81726 0.75989 0.10522 0.0
H131 H 0.94692 0.88406 0.10056 0.0
H132 H 0.01678 0.75836 0.04329 0.0
H133 H 0.89155 0.7603 0.08267 0.0
H134 H 0.94119 0.81758 0.13607 0.0
O135 O 0.92064 0.62385 0.20043 0.0
H136 H 0.94418 0.56451 0.08916 0.0
H137 H 0.9776 0.56541 0.21798 0.0
H138 H 0.0297 0.82889 0.0135 0.0
H139 H 0.85832 0.73964 0.23186 0.0
H140 H 0.99637 0.89172 0.04063 0.0
H141 H 0.80044 0.74821 0.18052 0.0
O142 O 0.02989 0.70835 0.10211 0.0
H143 H 0.03964 0.65149 0.29743 0.0
H144 H 0.06368 0.60787 0.15239 0.0
H145 H 0.12333 0.63118 0.19467 0.0
H146 H 0.11194 0.65478 0.26784 0.0
H147 H 0.98159 0.63043 0.25336 0.0
H148 H 0.95792 0.49333 0.22622 0.0
H149 H 0.93021 0.45355 0.1652 0.0
O150 O 0.01816 0.6375 0.10652 0.0
C151 C 0.92122 0.66919 0.07618 0.0
C152 C 0.93427 0.50666 0.12407 0.0
C153 C 0.95418 0.50841 0.19602 0.0
N154 N 0.96514 0.56958 0.15187 0.0
C155 C 0.9475 0.54877 0.11894 0.0
C156 C 0.96753 0.54961 0.1902 0.0
C157 C 0.93803 0.48657 0.16236 0.0
C158 C 0.907 0.74451 0.18505 0.0
N159 N 0.9163 0.7479 0.14334 0.0
C160 C 0.86531 0.74441 0.19898 0.0
C161 C 0.83278 0.7495 0.17012 0.0
C162 C 0.8423 0.7559 0.12802 0.0
C163 C 0.88445 0.75556 0.11527 0.0
C164 C 0.96398 0.85728 0.0888 0.0
C165 C 0.00202 0.7859 0.05654 0.0
C166 C 0.95853 0.81822 0.1071 0.0
N167 N 0.9761 0.78262 0.09012 0.0
C168 C 0.01066 0.82558 0.03995 0.0
C169 C 0.99122 0.86133 0.05524 0.0
C170 C 0.04173 0.66966 0.09395 0.0
C171 C 0.04487 0.64487 0.26457 0.0
C172 C 0.05693 0.62125 0.18256 0.0
C173 C 0.09166 0.63314 0.20714 0.0
C174 C 0.08538 0.6462 0.24818 0.0
N175 N 0.01622 0.62652 0.19637 0.0
C176 C 0.01094 0.63449 0.23837 0.0
Co177 Co 0.36562 0.93565 0.14351 0.0
Co178 Co 0.26212 0.93629 0.12662 0.0
O179 O 0.31117 0.92896 0.15795 0.0
C180 C 0.37848 0.8694 0.22007 0.0
O181 O 0.34116 0.87292 0.23705 0.0
C182 C 0.25534 0.98527 0.20311 0.0
O183 O 0.28653 0.00892 0.19 0.0
O184 O 0.28003 -0.00251 0.10837 0.0
O185 O 0.35136 0.99314 0.11206 0.0
H186 H 0.14546 0.95546 0.01898 0.0
H187 H 0.3262 0.94108 0.2311 0.0
O188 O 0.38399 0.88089 0.18049 0.0
H189 H 0.41802 0.0635 0.21992 0.0
H190 H 0.51963 0.9266 0.17199 0.0
H191 H 0.40678 0.9619 0.07038 0.0
H192 H 0.414 0.01357 0.16212 0.0
H193 H 0.44518 0.9224 0.19193 0.0
O194 O 0.23915 0.95708 0.17997 0.0
H195 H 0.21966 0.96589 0.04425 0.0
H196 H 0.18339 0.90995 0.15961 0.0
H197 H 0.47631 0.97477 0.05199 0.0
H198 H 0.33319 0.98708 0.29102 0.0
H199 H 0.53772 0.95291 0.10155 0.0
H200 H 0.3768 0.05127 0.28503 0.0
O201 O 0.35367 0.90206 0.08465 0.0
H202 H 0.27341 0.81286 0.22428 0.0
H203 H 0.23839 0.85716 0.08016 0.0
H204 H 0.24837 0.78205 0.09577 0.0
H205 H 0.26858 0.75974 0.16805 0.0
H206 H 0.26294 0.88777 0.20759 0.0
H207 H 0.11401 0.89424 0.13309 0.0
H208 H 0.09274 0.92085 0.06274 0.0
O209 O 0.28526 0.91656 0.07161 0.0
C210 C 0.31749 0.01473 0.10312 0.0
C211 C 0.15469 0.94564 0.04944 0.0
C212 C 0.13602 0.91107 0.11346 0.0
N213 N 0.20595 0.93896 0.10356 0.0
C214 C 0.19597 0.95179 0.06417 0.0
C215 C 0.17596 0.92026 0.12836 0.0
C216 C 0.1246 0.92551 0.07419 0.0
C217 C 0.35043 0.96435 0.22978 0.0
N218 N 0.37355 0.97061 0.19402 0.0
C219 C 0.35203 0.99251 0.26326 0.0
C220 C 0.37587 0.02891 0.25956 0.0
C221 C 0.39889 0.0358 0.22313 0.0
C222 C 0.39734 0.00645 0.1907 0.0
C223 C 0.49519 0.93461 0.14971 0.0
C224 C 0.43144 0.95477 0.09277 0.0
C225 C 0.45308 0.93136 0.16028 0.0
N226 N 0.42252 0.94073 0.13123 0.0
C227 C 0.47217 0.96098 0.0823 0.0
C228 C 0.50494 0.94945 0.11015 0.0
C229 C 0.32043 0.90192 0.05898 0.0
C230 C 0.26524 0.82237 0.19265 0.0
C231 C 0.24554 0.84781 0.11196 0.0
C232 C 0.25118 0.80503 0.12061 0.0
C233 C 0.26224 0.79247 0.16106 0.0
N234 N 0.25167 0.87743 0.1425 0.0
C235 C 0.25891 0.86482 0.18298 0.0
Co236 Co 0.01963 0.73373 0.86261 0.0
Co237 Co 0.0213 0.63196 0.83434 0.0
O238 O 0.0226 0.68883 0.82408 0.0
C239 C 0.97986 0.75382 0.78331 0.0
O240 O 0.96295 0.71645 0.77953 0.0
C241 C 0.08342 0.63954 0.75189 0.0
O242 O 0.06469 0.6729 0.73613 0.0
O243 O 0.06664 0.64026 0.88279 0.0
O244 O 0.0474 0.70303 0.90948 0.0
H245 H 0.02148 0.49451 0.91011 0.0
H246 H 0.06149 0.73941 0.77806 0.0
O247 O 0.9932 0.76724 0.81804 0.0
H248 H 0.17528 0.76003 0.88095 0.0
H249 H 0.04798 0.88552 0.88472 0.0
H250 H 0.97686 0.76054 0.94298 0.0
H251 H 0.10098 0.76117 0.90317 0.0
H252 H 0.05129 0.81915 0.84859 0.0
O253 O 0.07117 0.62427 0.78842 0.0
H254 H 0.01146 0.57177 0.90601 0.0
H255 H 0.02935 0.56292 0.7747 0.0
H256 H 0.96615 0.83082 0.97357 0.0
H257 H 0.13472 0.73922 0.75436 0.0
H258 H 0.00078 0.89332 0.9464 0.0
H259 H 0.1924 0.74788 0.8059 0.0
O260 O 0.96205 0.71123 0.88424 0.0
H261 H 0.95707 0.64559 0.68764 0.0
H262 H 0.92562 0.61355 0.83441 0.0
H263 H 0.86882 0.63619 0.78825 0.0
H264 H 0.88422 0.65519 0.71431 0.0
H265 H 0.01173 0.62149 0.73494 0.0
H266 H 0.04715 0.48919 0.78069 0.0
H267 H 0.0514 0.45537 0.85072 0.0
O268 O 0.97229 0.6405 0.88037 0.0
C269 C 0.07013 0.67007 0.91108 0.0
C270 C 0.02938 0.51109 0.88204 0.0
C271 C 0.0424 0.50731 0.80863 0.0
N272 N 0.02225 0.57238 0.84059 0.0
C273 C 0.02029 0.5538 0.87866 0.0
C274 C 0.03057 0.54915 0.8055 0.0
C275 C 0.04382 0.48848 0.84772 0.0
C276 C 0.08583 0.74488 0.80081 0.0
N277 N 0.07629 0.74895 0.8424 0.0
C278 C 0.12759 0.74437 0.78713 0.0
C279 C 0.16001 0.74951 0.81609 0.0
C280 C 0.15032 0.75627 0.85805 0.0
C281 C 0.1081 0.75645 0.87057 0.0
C282 C 0.03087 0.85888 0.89694 0.0
C283 C 0.99187 0.78795 0.92951 0.0
C284 C 0.03466 0.81997 0.87797 0.0
N285 N 0.0168 0.78455 0.89522 0.0
C286 C 0.98469 0.82755 0.94675 0.0
C287 C 0.00479 0.86305 0.93138 0.0
C288 C 0.94943 0.67285 0.89265 0.0
C289 C 0.9504 0.64145 0.72068 0.0
C290 C 0.93419 0.62429 0.80364 0.0
C291 C 0.90099 0.63589 0.77691 0.0
C292 C 0.90951 0.64628 0.73546 0.0
N293 N 0.97557 0.62633 0.7909 0.0
C294 C 0.98255 0.62981 0.7486 0.0
Co295 Co 0.36271 0.05351 0.83955 0.0
Co296 Co 0.25957 0.05237 0.85548 0.0
O297 O 0.30829 0.05902 0.82422 0.0
C298 C 0.37438 0.11794 0.76305 0.0
O299 O 0.33655 0.11572 0.74668 0.0
C300 C 0.25097 0.00347 0.77823 0.0
O301 O 0.28195 0.97973 0.79179 0.0
O302 O 0.27785 0.99091 0.87353 0.0
O303 O 0.34925 -0.00332 0.8716 0.0
H304 H 0.14371 0.03626 0.96361 0.0
H305 H 0.32468 0.04679 0.75084 0.0
O306 O 0.38016 0.10767 0.80271 0.0
H307 H 0.41168 0.92219 0.76995 0.0
H308 H 0.51651 0.06449 0.81186 0.0
H309 H 0.4038 0.03082 0.91348 0.0
H310 H 0.41076 0.97573 0.82394 0.0
H311 H 0.44195 0.06587 0.79085 0.0
O312 O 0.23533 0.03203 0.80135 0.0
H313 H 0.21751 0.02361 0.93824 0.0
H314 H 0.18154 0.08065 0.82326 0.0
H315 H 0.47276 0.02119 0.9334 0.0
H316 H 0.33001 -0.00256 0.69365 0.0
H317 H 0.5347 0.0422 0.88373 0.0
H318 H 0.3697 0.93138 0.70445 0.0
O319 O 0.35075 0.08772 0.89779 0.0
H320 H 0.27069 0.17664 0.75853 0.0
H321 H 0.23785 0.13173 0.90271 0.0
H322 H 0.24881 0.20682 0.88753 0.0
H323 H 0.26824 0.22935 0.81536 0.0
H324 H 0.25966 0.10164 0.77486 0.0
H325 H 0.11427 0.10092 0.85102 0.0
H326 H 0.09257 0.07376 0.92121 0.0
O327 O 0.28311 0.07141 0.91095 0.0
C328 C 0.31571 0.97443 0.87955 0.0
C329 C 0.15341 0.04665 0.93366 0.0
C330 C 0.13548 0.08259 0.87024 0.0
N331 N 0.20378 0.05069 0.8789 0.0
C332 C 0.19413 0.03874 0.91856 0.0
C333 C 0.17429 0.07089 0.85459 0.0
C334 C 0.12399 0.06828 0.90941 0.0
C335 C 0.3482 0.023 0.75362 0.0
N336 N 0.37103 0.0178 0.78988 0.0
C337 C 0.34871 0.99296 0.72179 0.0
C338 C 0.37069 0.95575 0.72802 0.0
C339 C 0.39397 0.95038 0.76463 0.0
C340 C 0.39405 0.98174 0.79503 0.0
C341 C 0.4921 0.05709 0.83422 0.0
C342 C 0.42844 0.03801 0.89125 0.0
C343 C 0.44999 0.05847 0.82293 0.0
N344 N 0.41953 0.04963 0.85205 0.0
C345 C 0.46911 0.03391 0.90262 0.0
C346 C 0.50189 0.0448 0.8747 0.0
C347 C 0.31799 0.08684 0.92367 0.0
C348 C 0.2632 0.16696 0.79022 0.0
C349 C 0.24481 0.14115 0.87094 0.0
C350 C 0.25096 0.18392 0.86256 0.0
C351 C 0.2615 0.19663 0.82212 0.0
N352 N 0.25 0.11164 0.84014 0.0
C353 C 0.25657 0.12447 0.79968 0.0
Co354 Co 0.97467 0.25298 0.86625 0.0
Co355 Co 0.97373 0.35222 0.83092 0.0
O356 O 0.97274 0.29551 0.82432 0.0
C357 C 0.02058 0.232 0.7927 0.0
O358 O 0.04043 0.26815 0.79182 0.0
C359 C 0.91175 0.34592 0.74682 0.0
O360 O 0.92891 0.31182 0.73121 0.0
O361 O 0.92741 0.34602 0.87914 0.0
O362 O 0.94618 0.28537 0.91074 0.0
H363 H 0.95196 0.47366 0.91156 0.0
H364 H 0.93277 0.24737 0.78073 0.0
O365 O 0.00347 0.21847 0.82547 0.0
H366 H 0.81879 0.23141 0.88346 0.0
H367 H 0.94358 0.10179 0.88561 0.0
H368 H 0.01974 0.223 0.946 0.0
H369 H 0.89294 0.22729 0.90587 0.0
H370 H 0.9413 0.16896 0.85212 0.0
O371 O 0.92458 0.36016 0.78361 0.0
H372 H 0.97465 0.40512 0.90152 0.0
H373 H 0.97234 0.42236 0.76965 0.0
H374 H 0.02922 0.15013 0.97378 0.0
H375 H 0.85958 0.25155 0.75702 0.0
H376 H 0.98995 0.09107 0.94776 0.0
H377 H 0.80185 0.24538 0.80848 0.0
O378 O 0.03145 0.27687 0.88894 0.0
H379 H 0.03961 0.34196 0.68449 0.0
H380 H 0.07011 0.36864 0.83236 0.0
H381 H 0.12735 0.34971 0.78609 0.0
H382 H 0.11273 0.3337 0.71137 0.0
H383 H 0.98413 0.36082 0.73188 0.0
H384 H 0.94883 0.4947 0.77764 0.0
H385 H 0.93179 0.52137 0.84759 0.0
O386 O 0.02117 0.34673 0.87803 0.0
C387 C 0.92413 0.31867 0.90998 0.0
C388 C 0.95326 0.46417 0.87964 0.0
C389 C 0.95221 0.4749 0.80483 0.0
N390 N 0.97369 0.41013 0.8355 0.0
C391 C 0.96875 0.42482 0.87444 0.0
C392 C 0.96759 0.43452 0.80072 0.0
C393 C 0.94348 0.48963 0.84465 0.0
C394 C 0.90841 0.24268 0.80341 0.0
N395 N 0.91803 0.23804 0.84503 0.0
C396 C 0.86663 0.24562 0.78975 0.0
C397 C 0.83417 0.24186 0.81865 0.0
C398 C 0.84375 0.23412 0.86056 0.0
C399 C 0.88596 0.23192 0.87312 0.0
C400 C 0.95989 0.12796 0.89985 0.0
C401 C 0.00249 0.19674 0.93297 0.0
C402 C 0.95709 0.16757 0.88201 0.0
N403 N 0.97595 0.20228 0.89995 0.0
C404 C 0.00891 0.15605 0.9487 0.0
C405 C 0.9862 0.12199 0.93384 0.0
C406 C 0.04337 0.31609 0.89426 0.0
C407 C 0.04608 0.34442 0.71775 0.0
C408 C 0.0616 0.35887 0.80131 0.0
C409 C 0.09518 0.34936 0.77451 0.0
C410 C 0.0871 0.34054 0.73265 0.0
N411 N 0.02021 0.35623 0.78817 0.0
C412 C 0.01344 0.35327 0.74575 0.0
Co413 Co 0.62802 0.93644 0.84292 0.0
Co414 Co 0.73144 0.93693 0.85973 0.0
O415 O 0.68238 0.92966 0.82854 0.0
C416 C 0.6155 0.87145 0.76558 0.0
O417 O 0.65356 0.87318 0.7499 0.0
C418 C 0.73772 0.98633 0.78327 0.0
O419 O 0.70674 0.00989 0.79677 0.0
O420 O 0.71377 -0.00201 0.87811 0.0
O421 O 0.64245 0.99357 0.87459 0.0
H422 H 0.84853 0.9554 0.96688 0.0
H423 H 0.66728 0.94174 0.75555 0.0
O424 O 0.60947 0.88224 0.80527 0.0
H425 H 0.57497 0.06386 0.76549 0.0
H426 H 0.47408 0.92882 0.81418 0.0
H427 H 0.58704 0.96182 0.91633 0.0
H428 H 0.57961 0.01446 0.82403 0.0
H429 H 0.54866 0.92475 0.79434 0.0
O430 O 0.75415 0.958 0.80621 0.0
H431 H 0.7743 0.96629 0.94185 0.0
H432 H 0.80984 0.91068 0.82643 0.0
H433 H 0.51759 0.97419 0.93499 0.0
H434 H 0.6605 0.98762 0.69538 0.0
H435 H 0.45607 0.95298 0.88515 0.0
H436 H 0.61705 0.05158 0.70077 0.0
O437 O 0.63988 0.90261 0.90183 0.0
H438 H 0.72095 0.8137 0.76213 0.0
H439 H 0.75473 0.85763 0.90643 0.0
H440 H 0.74498 0.78256 0.89089 0.0
H441 H 0.72555 0.76037 0.8185 0.0
H442 H 0.73097 0.88863 0.77879 0.0
H443 H 0.87902 0.89423 0.85284 0.0
H444 H 0.90094 0.92102 0.92276 0.0
O445 O 0.70833 0.91712 0.91484 0.0
C446 C 0.67636 0.01506 0.88364 0.0
C447 C 0.8392 0.94605 0.93632 0.0
C448 C 0.85726 0.91121 0.87247 0.0
N449 N 0.78765 0.93952 0.88254 0.0
C450 C 0.79786 0.95228 0.92182 0.0
C451 C 0.81741 0.92076 0.85766 0.0
C452 C 0.86903 0.92576 0.91151 0.0
C453 C 0.64324 0.96514 0.75677 0.0
N454 N 0.62024 0.97161 0.7925 0.0
C455 C 0.64169 0.99314 0.7231 0.0
C456 C 0.61791 0.02949 0.72655 0.0
C457 C 0.59443 0.03632 0.76267 0.0
C458 C 0.59629 0.00731 0.7955 0.0
C459 C 0.49856 0.93597 0.83668 0.0
C460 C 0.56236 0.95497 0.89391 0.0
C461 C 0.54066 0.93287 0.8261 0.0
N462 N 0.57121 0.94158 0.85529 0.0
C463 C 0.52166 0.96087 0.90451 0.0
C464 C 0.48886 0.94974 0.87653 0.0
C465 C 0.67307 0.90266 0.92759 0.0
C466 C 0.72882 0.82314 0.79381 0.0
C467 C 0.74776 0.84838 0.87461 0.0
C468 C 0.74232 0.80561 0.86599 0.0
C469 C 0.73167 0.79313 0.82548 0.0
N470 N 0.74175 0.87809 0.84398 0.0
C471 C 0.73485 0.8656 0.80347 0.0
Co472 Co 0.14456 0.01641 0.26662 0.0
Co473 Co 0.15709 0.01476 0.36542 0.0
O474 O 0.17764 0.01038 0.31399 0.0
C475 C 0.23327 -0.00399 0.24072 0.0
O476 O 0.25233 0.01602 0.27114 0.0
C477 C 0.22438 0.08572 0.39563 0.0
O478 O 0.1978 0.11066 0.41497 0.0
O479 O 0.11669 0.06714 0.34797 0.0
O480 O 0.09066 0.04107 0.28964 0.0
H481 H 0.05105 0.06209 0.45591 0.0
H482 H 0.2187 0.07142 0.29992 0.0
O483 O 0.19379 0.99022 0.23953 0.0
H484 H 0.12054 0.16887 0.2316 0.0
H485 H 0.1701 0.04343 0.11996 0.0
H486 H 0.07396 0.97403 0.21937 0.0
H487 H 0.1065 0.0937 0.23013 0.0
H488 H 0.1785 0.05311 0.19248 0.0
O489 O 0.21045 0.0525 0.37673 0.0
H490 H 0.07413 0.02519 0.39722 0.0
H491 H 0.19912 0.02243 0.44484 0.0
H492 H 0.06907 0.96117 0.14266 0.0
H493 H 0.23635 0.14479 0.29692 0.0
H494 H 0.10858 0.00137 0.09332 0.0
H495 H 0.18648 0.19593 0.26465 0.0
O496 O 0.11979 0.95832 0.28266 0.0
H497 H 0.31007 0.93708 0.3952 0.0
H498 H 0.13037 0.92824 0.39927 0.0
H499 H 0.20546 0.87113 0.43676 0.0
H500 H 0.24901 0.84202 0.45646 0.0
H501 H 0.25514 0.99476 0.36268 0.0
H502 H 0.173 0.04271 0.51116 0.0
H503 H 0.10504 0.07334 0.51919 0.0
O504 O 0.10876 0.97382 0.35086 0.0
C505 C 0.08671 0.06702 0.31955 0.0
C506 C 0.08357 0.05312 0.45645 0.0
C507 C 0.15301 0.04541 0.48552 0.0
N508 N 0.13754 0.02119 0.41853 0.0
C509 C 0.09638 0.03115 0.42224 0.0
C510 C 0.16601 0.02844 0.44904 0.0
C511 C 0.11252 0.05991 0.48934 0.0
C512 C 0.19868 0.09107 0.28143 0.0
N513 N 0.16389 0.07574 0.26091 0.0
C514 C 0.20787 0.13399 0.28191 0.0
C515 C 0.18002 0.16246 0.26364 0.0
C516 C 0.14351 0.14743 0.24472 0.0
C517 C 0.13598 0.10419 0.24367 0.0
C518 C 0.14636 0.03074 0.14049 0.0
C519 C 0.09346 0.991 0.19739 0.0
C520 C 0.15031 0.03682 0.18273 0.0
N521 N 0.12307 0.0184 0.21093 0.0
C522 C 0.09005 0.98352 0.15463 0.0
C523 C 0.11392 0.00584 0.12621 0.0
C524 C 0.10474 0.9482 0.3197 0.0
C525 C 0.27651 0.93338 0.40201 0.0
C526 C 0.1638 0.92653 0.40242 0.0
C527 C 0.17841 0.88211 0.42902 0.0
C528 C 0.23348 0.87162 0.43765 0.0
N529 N 0.19204 0.96345 0.38313 0.0
C530 C 0.24177 0.96876 0.37992 0.0
Co531 Co 0.97701 0.12975 0.25778 0.0
Co532 Co 0.97754 0.15794 0.35678 0.0
O533 O 0.97506 0.16813 0.30171 0.0
C534 C 0.99267 0.21429 0.23328 0.0
O535 O 0.00428 0.23482 0.26707 0.0
C536 C 0.91656 0.24201 0.35116 0.0
O537 O 0.93794 0.26007 0.3209 0.0
O538 O 0.93196 0.10938 0.34963 0.0
O539 O 0.95099 0.08136 0.288 0.0
H540 H 0.97253 0.06761 0.47458 0.0
H541 H 0.92284 0.21143 0.26501 0.0
O542 O 0.00381 0.17648 0.22741 0.0
H543 H 0.82476 0.09765 0.23079 0.0
H544 H 0.94647 0.11049 0.10763 0.0
H545 H 0.01592 0.04713 0.23095 0.0
H546 H 0.90084 0.08546 0.22677 0.0
H547 H 0.94759 0.14713 0.17373 0.0
O548 O 0.92768 0.2043 0.36503 0.0
H549 H 0.98818 0.08464 0.40584 0.0
H550 H 0.9666 0.21424 0.43002 0.0
H551 H 0.02181 0.01425 0.16141 0.0
H552 H 0.84824 0.22607 0.26344 0.0
H553 H 0.987 0.04341 0.09976 0.0
H554 H 0.79783 0.1686 0.24859 0.0
O555 O 0.03527 0.10811 0.27774 0.0
H556 H 0.03711 0.30661 0.3485 0.0
H557 H 0.07563 0.15849 0.36542 0.0
H558 H 0.1283 0.20791 0.34114 0.0
H559 H 0.10898 0.28272 0.3291 0.0
H560 H 0.98722 0.25574 0.37669 0.0
H561 H 0.94377 0.19781 0.50107 0.0
H562 H 0.94112 0.12479 0.52454 0.0
O563 O 0.02597 0.11146 0.34772 0.0
C564 C 0.92898 0.0798 0.32122 0.0
C565 C 0.96756 0.09991 0.46641 0.0
C566 C 0.95174 0.17286 0.4799 0.0
N567 N 0.97805 0.14996 0.41423 0.0
C568 C 0.97965 0.10971 0.42693 0.0
C569 C 0.96643 0.18193 0.44022 0.0
C570 C 0.95108 0.1313 0.49289 0.0
C571 C 0.90286 0.18674 0.25432 0.0
N572 N 0.9183 0.14767 0.24426 0.0
C573 C 0.85964 0.19521 0.25459 0.0
C574 C 0.83131 0.16306 0.246 0.0
C575 C 0.84647 0.12344 0.23566 0.0
C576 C 0.88997 0.11668 0.23385 0.0
C577 C 0.96284 0.09653 0.13386 0.0
C578 C 0.00156 0.06156 0.2037 0.0
C579 C 0.96246 0.11663 0.17215 0.0
N580 N 0.97972 0.09808 0.20697 0.0
C581 C 0.00567 0.04284 0.16455 0.0
C582 C 0.98561 0.05949 0.12961 0.0
C583 C 0.04792 0.09851 0.31547 0.0
C584 C 0.04494 0.27343 0.34937 0.0
C585 C 0.06493 0.18965 0.35804 0.0
C586 C 0.09606 0.21826 0.34549 0.0
C587 C 0.08536 0.26018 0.33907 0.0
N588 N 0.02332 0.20142 0.36174 0.0
C589 C 0.0153 0.24376 0.36315 0.0
Co590 Co 0.85355 0.97161 0.27643 0.0
Co591 Co 0.84683 0.97903 0.37892 0.0
O592 O 0.82305 0.9783 0.32666 0.0
C593 C 0.76457 0.99446 0.24849 0.0
O594 O 0.7444 0.97603 0.27913 0.0
C595 C 0.77416 0.90452 0.40662 0.0
O596 O 0.79223 0.8738 0.42764 0.0
O597 O 0.89156 0.92982 0.36372 0.0
O598 O 0.90759 0.9457 0.29824 0.0
H599 H 0.97146 0.99046 0.4711 0.0
H600 H 0.77684 0.92098 0.30955 0.0
O601 O 0.80429 -0.00083 0.24859 0.0
H602 H 0.86878 0.8181 0.24197 0.0
H603 H 0.82413 0.94404 0.12952 0.0
H604 H 0.92017 0.0156 0.22755 0.0
H605 H 0.88945 0.89195 0.2444 0.0
H606 H 0.8199 0.93037 0.20197 0.0
O607 O 0.79734 0.936 0.39339 0.0
H608 H 0.93236 0.00042 0.40848 0.0
H609 H 0.82648 0.93792 0.46121 0.0
H610 H 0.91678 0.03633 0.15412 0.0
H611 H 0.75026 0.85094 0.29757 0.0
H612 H 0.87841 0.99381 0.10285 0.0
H613 H 0.79777 0.79631 0.26727 0.0
O614 O 0.88121 0.02896 0.28837 0.0
H615 H 0.70168 0.02714 0.45633 0.0
H616 H 0.83651 0.0761 0.34981 0.0
H617 H 0.75147 0.12169 0.38135 0.0
H618 H 0.70386 0.14306 0.40171 0.0
H619 H 0.77143 0.9829 0.44144 0.0
H620 H 0.87276 0.91494 0.5178 0.0
H621 H 0.93819 0.95404 0.53215 0.0
O622 O 0.88996 0.02434 0.35883 0.0
C623 C 0.91662 0.92537 0.33144 0.0
C624 C 0.93939 0.97945 0.46985 0.0
C625 C 0.88215 0.93969 0.49747 0.0
N626 N 0.87364 0.9762 0.43271 0.0
C627 C 0.91562 0.98682 0.4343 0.0
C628 C 0.85748 0.95093 0.46329 0.0
C629 C 0.92109 0.95829 0.50314 0.0
C630 C 0.79524 0.90048 0.29046 0.0
N631 N 0.83211 0.91333 0.2724 0.0
C632 C 0.7814 0.85905 0.28683 0.0
C633 C 0.80775 0.82886 0.26928 0.0
C634 C 0.8472 0.84098 0.2547 0.0
C635 C 0.85881 0.88327 0.25644 0.0
C636 C 0.84746 0.95785 0.14995 0.0
C637 C 0.89955 -0.00091 0.20628 0.0
C638 C 0.84648 0.94896 0.1921 0.0
N639 N 0.87338 0.96846 0.22005 0.0
C640 C 0.89886 0.0105 0.16434 0.0
C641 C 0.87572 0.98743 0.13569 0.0
C642 C 0.89833 0.04218 0.3232 0.0
C643 C 0.72536 0.04164 0.43685 0.0
C644 C 0.81056 0.07167 0.37009 0.0
C645 C 0.77802 0.11518 0.36824 0.0
C646 C 0.72952 0.11508 0.39816 0.0
N647 N 0.80501 0.0277 0.3946 0.0
C648 C 0.76879 0.01227 0.4251 0.0
Co649 Co 0.0215 0.86101 0.26409 0.0
Co650 Co 0.02734 0.83332 0.36481 0.0
O651 O 0.02658 0.82376 0.30858 0.0
C652 C 0.00184 0.77614 0.23766 0.0
O653 O -0.00111 0.75728 0.27397 0.0
C654 C 0.08521 0.74871 0.35467 0.0
O655 O 0.06434 0.73335 0.32267 0.0
O656 O 0.07325 0.88197 0.35384 0.0
O657 O 0.04897 0.90869 0.29255 0.0
H658 H 0.08272 0.88558 0.5052 0.0
H659 H 0.07403 0.77885 0.26524 0.0
O660 O 0.99331 0.81486 0.23322 0.0
H661 H 0.17239 0.89122 0.22743 0.0
H662 H 0.04348 0.88401 0.11268 0.0
H663 H 0.97787 0.94182 0.23974 0.0
H664 H 0.09629 0.90507 0.22832 0.0
H665 H 0.04788 0.84606 0.17812 0.0
O666 O 0.07512 0.78555 0.37053 0.0
H667 H 0.06086 0.89585 0.42896 0.0
H668 H 0.01367 0.77092 0.43237 0.0
H669 H 0.96435 0.97347 0.17064 0.0
H670 H 0.14826 0.76284 0.26071 0.0
H671 H 0.99577 0.94632 0.10707 0.0
H672 H 0.19885 0.81961 0.24429 0.0
O673 O 0.96513 0.88261 0.28877 0.0
H674 H 0.96005 0.68899 0.34179 0.0
H675 H 0.92951 0.83533 0.37707 0.0
H676 H 0.87517 0.7933 0.34385 0.0
H677 H 0.8904 0.71969 0.32308 0.0
H678 H 0.0131 0.73297 0.37459 0.0
H679 H 0.03295 0.76282 0.50418 0.0
H680 H 0.06715 0.82196 0.54153 0.0
O681 O 0.97995 0.88196 0.35872 0.0
C682 C 0.0741 0.91056 0.32347 0.0
C683 C 0.06661 0.86206 0.48767 0.0
C684 C 0.03877 0.79245 0.48834 0.0
N685 N 0.03236 0.83562 0.42578 0.0
C686 C 0.05358 0.86722 0.44561 0.0
C687 C 0.02666 0.79808 0.44683 0.0
C688 C 0.05817 0.82515 0.50905 0.0
C689 C 0.09408 0.80342 0.25485 0.0
N690 N 0.07898 0.84308 0.24684 0.0
C691 C 0.13704 0.79414 0.253 0.0
C692 C 0.16544 0.8259 0.24338 0.0
C693 C 0.1505 0.86592 0.2339 0.0
C694 C 0.10712 0.87366 0.23493 0.0
C695 C 0.02697 0.8958 0.13973 0.0
C696 C 0.99095 0.92808 0.21172 0.0
C697 C 0.03135 0.87574 0.17781 0.0
N698 N 0.0153 0.89308 0.21368 0.0
C699 C 0.98221 0.94592 0.17289 0.0
C700 C 0.00049 0.93043 0.13682 0.0
C701 C 0.95586 0.89422 0.32701 0.0
C702 C 0.95411 0.72223 0.34648 0.0
C703 C 0.93873 0.80504 0.36561 0.0
C704 C 0.9066 0.78051 0.34786 0.0
C705 C 0.91501 0.73925 0.3364 0.0
N706 N 0.9797 0.79092 0.36812 0.0
C707 C 0.9855 0.7483 0.36334 0.0
Co708 Co 0.14154 0.97286 0.71001 0.0
Co709 Co 0.14535 0.98228 0.60682 0.0
O710 O 0.17098 0.97815 0.65846 0.0
C711 C 0.23038 0.99338 0.73884 0.0
O712 O 0.25027 0.97128 0.71069 0.0
C713 C 0.21896 0.9085 0.57309 0.0
O714 O 0.20485 0.87823 0.54883 0.0
O715 O 0.09986 0.93402 0.62222 0.0
O716 O 0.08753 0.9467 0.68941 0.0
H717 H 0.01336 0.99321 0.52501 0.0
H718 H 0.21618 0.92092 0.67413 0.0
O719 O 0.19125 0.00119 0.73626 0.0
H720 H 0.12622 0.81992 0.7476 0.0
H721 H 0.17151 0.94553 0.85751 0.0
H722 H 0.07344 0.0147 0.75927 0.0
H723 H 0.10613 0.89383 0.74447 0.0
H724 H 0.17723 0.93361 0.78446 0.0
O725 O 0.19163 0.937 0.58634 0.0
H726 H 0.05768 0.00503 0.58329 0.0
H727 H 0.1625 0.95163 0.5199 0.0
H728 H 0.0749 0.03387 0.83316 0.0
H729 H 0.24291 0.85112 0.68724 0.0
H730 H 0.11488 0.99264 0.88406 0.0
H731 H 0.19603 0.7972 0.72019 0.0
O732 O 0.1134 0.03046 0.69918 0.0
H733 H 0.29185 0.02935 0.53287 0.0
H734 H 0.15789 0.07797 0.6391 0.0
H735 H 0.24259 0.1237 0.60742 0.0
H736 H 0.29026 0.14522 0.58719 0.0
H737 H 0.22172 0.98663 0.54492 0.0
H738 H 0.11618 0.93687 0.46175 0.0
H739 H 0.04224 0.96004 0.46042 0.0
O740 O 0.10441 0.02772 0.62918 0.0
C741 C 0.07686 0.92812 0.65581 0.0
C742 C 0.04637 0.98558 0.52235 0.0
C743 C 0.10478 0.95547 0.48639 0.0
N744 N 0.11549 0.98411 0.55428 0.0
C745 C 0.07316 0.9939 0.55565 0.0
C746 C 0.13071 0.9631 0.52062 0.0
C747 C 0.06242 0.96655 0.48701 0.0
C748 C 0.19852 0.90095 0.6947 0.0
N749 N 0.16278 0.9145 0.71435 0.0
C750 C 0.21224 0.85954 0.69885 0.0
C751 C 0.1863 0.82981 0.71794 0.0
C752 C 0.14756 0.84245 0.73373 0.0
C753 C 0.13637 0.88484 0.73174 0.0
C754 C 0.14809 0.95899 0.83688 0.0
C755 C 0.09456 -0.00124 0.78057 0.0
C756 C 0.15013 0.95126 0.79458 0.0
N757 N 0.12258 0.96996 0.76671 0.0
C758 C 0.09425 0.00928 0.82266 0.0
C759 C 0.11822 0.98684 0.8512 0.0
C760 C 0.09593 0.04449 0.66488 0.0
C761 C 0.26756 0.04476 0.55048 0.0
C762 C 0.18339 0.07368 0.6184 0.0
C763 C 0.21616 0.11702 0.6207 0.0
C764 C 0.2643 0.11736 0.59029 0.0
N765 N 0.18825 0.03037 0.59272 0.0
C766 C 0.22432 0.01535 0.56207 0.0
Co767 Co 0.01583 0.1306 0.72961 0.0
Co768 Co 0.01552 0.15994 0.63112 0.0
O769 O 0.01787 0.16962 0.68607 0.0
C770 C 0.00311 0.21418 0.75557 0.0
O771 O 0.99161 0.23873 0.72437 0.0
C772 C 0.07673 0.24377 0.63655 0.0
O773 O 0.05619 0.26137 0.66747 0.0
O774 O 0.06178 0.11176 0.63872 0.0
O775 O 0.04225 0.08249 0.69977 0.0
H776 H 0.03545 0.07162 0.51653 0.0
H777 H 0.07137 0.21171 0.72123 0.0
O778 O 0.98831 0.1773 0.75887 0.0
H779 H 0.16752 0.09698 0.75694 0.0
H780 H 0.04618 0.10935 0.87973 0.0
H781 H 0.9764 0.04803 0.75586 0.0
H782 H 0.09136 0.08596 0.76181 0.0
H783 H 0.04539 0.14685 0.81393 0.0
O784 O 0.06504 0.20644 0.62254 0.0
H785 H 0.01108 0.08692 0.58251 0.0
H786 H 0.02035 0.21799 0.55831 0.0
H787 H 0.97048 0.01415 0.82497 0.0
H788 H 0.14605 0.22531 0.72235 0.0
H789 H 0.00565 0.04207 0.88683 0.0
H790 H 0.19553 0.16723 0.73769 0.0
O791 O 0.95768 0.10894 0.70916 0.0
H792 H 0.95313 0.3077 0.64074 0.0
H793 H 0.91792 0.1593 0.61991 0.0
H794 H 0.86349 0.20716 0.64303 0.0
H795 H 0.88084 0.28211 0.6565 0.0
H796 H 0.00512 0.25848 0.61455 0.0
H797 H 0.04775 0.2045 0.48833 0.0
H798 H 0.06191 0.13191 0.46659 0.0
O799 O 0.96756 0.11292 0.63935 0.0
C800 C 0.06499 0.08188 0.66705 0.0
C801 C 0.03565 0.10435 0.52382 0.0
C802 C 0.04191 0.17867 0.50935 0.0
N803 N 0.01504 0.15279 0.57384 0.0
C804 C 0.01876 0.11269 0.5617 0.0
C805 C 0.02428 0.18594 0.54818 0.0
C806 C 0.04911 0.13741 0.49738 0.0
C807 C 0.09086 0.18692 0.73246 0.0
N808 N 0.0747 0.14829 0.74346 0.0
C809 C 0.13419 0.19476 0.73189 0.0
C810 C 0.162 0.1623 0.74082 0.0
C811 C 0.14622 0.12309 0.752 0.0
C812 C 0.10263 0.11704 0.75432 0.0
C813 C 0.02983 0.09579 0.85334 0.0
C814 C 0.99077 0.06206 0.78324 0.0
C815 C 0.03012 0.11654 0.81529 0.0
N816 N 0.0127 0.09859 0.78033 0.0
C817 C 0.98669 0.04273 0.82216 0.0
C818 C 0.00697 0.05871 0.8572 0.0
C819 C 0.94531 0.09968 0.6713 0.0
C820 C 0.94594 0.27438 0.63919 0.0
C821 C 0.9278 0.19046 0.62832 0.0
C822 C 0.8957 0.21819 0.64015 0.0
C823 C 0.90531 0.2602 0.64741 0.0
N824 N 0.96933 0.20304 0.6264 0.0
C825 C 0.97678 0.24555 0.62663 0.0
Co826 Co 0.84769 0.01746 0.71886 0.0
Co827 Co 0.83635 0.01665 0.61941 0.0
O828 O 0.81498 0.01197 0.67085 0.0
C829 C 0.75913 -0.00281 0.74523 0.0
O830 O 0.73997 0.0185 0.7157 0.0
C831 C 0.76852 0.08641 0.58868 0.0
O832 O 0.79353 0.11124 0.56708 0.0
O833 O 0.87709 0.06852 0.63757 0.0
O834 O 0.90181 0.04241 0.69658 0.0
H835 H 0.9489 0.05314 0.53087 0.0
H836 H 0.77397 0.07278 0.68506 0.0
O837 O 0.79848 0.99067 0.74552 0.0
H838 H 0.87149 0.16932 0.75507 0.0
H839 H 0.82324 0.0441 0.8662 0.0
H840 H 0.91782 0.97444 0.76589 0.0
H841 H 0.88562 0.0943 0.75585 0.0
H842 H 0.81361 0.05338 0.79345 0.0
O843 O 0.78396 0.05425 0.60787 0.0
H844 H 0.91976 0.02462 0.5908 0.0
H845 H 0.79739 0.02568 0.53655 0.0
H846 H 0.92313 0.96091 0.84221 0.0
H847 H 0.7554 0.14575 0.69008 0.0
H848 H 0.88478 0.00173 0.89214 0.0
H849 H 0.80525 0.19669 0.72273 0.0
O850 O 0.87268 0.95975 0.70312 0.0
H851 H 0.68259 0.94046 0.59053 0.0
H852 H 0.86205 0.9321 0.58314 0.0
H853 H 0.78604 0.87316 0.54985 0.0
H854 H 0.74244 0.8435 0.5313 0.0
H855 H 0.73765 -0.00178 0.62089 0.0
H856 H 0.83002 0.03816 0.46895 0.0
H857 H 0.89997 0.06455 0.46427 0.0
O858 O 0.88374 0.9749 0.63468 0.0
C859 C 0.90641 0.06836 0.66666 0.0
C860 C 0.91553 0.04808 0.5294 0.0
C861 C 0.84764 0.04222 0.49648 0.0
N862 N 0.85724 0.02333 0.56652 0.0
C863 C 0.89914 0.03036 0.56441 0.0
C864 C 0.83099 0.0298 0.53379 0.0
C865 C 0.88909 0.0546 0.49453 0.0
C866 C 0.79363 0.09213 0.70423 0.0
N867 N 0.8283 0.0766 0.7248 0.0
C868 C 0.78411 0.13494 0.70461 0.0
C869 C 0.81188 0.16324 0.7232 0.0
C870 C 0.84851 0.14807 0.74179 0.0
C871 C 0.85613 0.10487 0.74237 0.0
C872 C 0.84651 0.03122 0.84534 0.0
C873 C 0.89855 0.99138 0.78797 0.0
C874 C 0.84185 0.03707 0.80305 0.0
N875 N 0.86889 0.01886 0.77467 0.0
C876 C 0.90225 0.98361 0.83065 0.0
C877 C 0.87902 0.00619 0.8593 0.0
C878 C 0.88823 0.94992 0.66636 0.0
C879 C 0.71564 0.9369 0.58217 0.0
C880 C 0.82843 0.92911 0.58213 0.0
C881 C 0.81319 0.88401 0.5572 0.0
C882 C 0.75816 0.87384 0.54874 0.0
N883 N 0.80057 0.96645 0.60067 0.0
C884 C 0.75082 0.97243 0.60342 0.0
Co885 Co 0.97187 0.86238 0.72228 0.0
Co886 Co 0.96696 0.83781 0.62096 0.0
O887 O 0.96761 0.82583 0.6769 0.0
C888 C 0.99246 0.77762 0.74709 0.0
O889 O -0.00235 0.75911 0.71085 0.0
C890 C 0.91094 0.75109 0.62962 0.0
O891 O 0.93562 0.73437 0.65818 0.0
O892 O 0.92128 0.88564 0.63212 0.0
O893 O 0.94339 0.91024 0.6948 0.0
H894 H 0.98856 0.9142 0.4842 0.0
H895 H 0.92062 0.77939 0.71759 0.0
O896 O 0.00105 0.81621 0.75214 0.0
H897 H 0.82048 0.88824 0.75999 0.0
H898 H 0.94928 0.88248 0.87428 0.0
H899 H 0.01456 0.94305 0.74789 0.0
H900 H 0.89614 0.90405 0.75838 0.0
H901 H 0.94517 0.84558 0.80824 0.0
O902 O 0.91825 0.7897 0.61563 0.0
H903 H 0.99178 0.90706 0.56095 0.0
H904 H 0.94287 0.78295 0.54881 0.0
H905 H 0.0281 0.97353 0.81714 0.0
H906 H 0.84687 0.76152 0.72333 0.0
H907 H 0.99585 0.94568 0.88037 0.0
H908 H 0.79539 0.8164 0.74229 0.0
O909 O 0.02799 0.88566 0.69863 0.0
H910 H 0.02374 0.69022 0.62927 0.0
H911 H 0.06633 0.8375 0.61905 0.0
H912 H 0.11373 0.78778 0.65213 0.0
H913 H 0.09148 0.71336 0.66114 0.0
H914 H 0.9787 0.74232 0.59383 0.0
H915 H 0.93416 0.79306 0.47434 0.0
H916 H 0.95101 0.86149 0.44182 0.0
O917 O 0.0143 0.88537 0.62877 0.0
C918 C 0.91922 0.91292 0.66317 0.0
C919 C 0.97514 0.88699 0.49922 0.0
C920 C 0.94367 0.81905 0.49358 0.0
N921 N 0.96458 0.8458 0.56092 0.0
C922 C 0.9783 0.88196 0.54259 0.0
C923 C 0.9496 0.81363 0.53639 0.0
C924 C 0.95467 0.85692 0.47518 0.0
C925 C 0.90031 0.80309 0.72955 0.0
N926 N 0.91472 0.84275 0.73888 0.0
C927 C 0.85758 0.79277 0.73182 0.0
C928 C 0.82866 0.82352 0.74276 0.0
C929 C 0.84284 0.86365 0.75282 0.0
C930 C 0.88601 0.87245 0.75144 0.0
C931 C 0.96535 0.89512 0.84724 0.0
C932 C 0.00143 0.92874 0.77569 0.0
C933 C 0.96134 0.87548 0.80892 0.0
N934 N 0.97733 0.89353 0.77328 0.0
C935 C 0.00998 0.94607 0.81467 0.0
C936 C 0.99137 0.93013 0.85049 0.0
C937 C 0.0375 0.89774 0.66061 0.0
C938 C 0.03216 0.72326 0.62936 0.0
C939 C 0.05413 0.80667 0.625 0.0
C940 C 0.08247 0.77779 0.64252 0.0
C941 C 0.07019 0.73611 0.64717 0.0
N942 N 0.01344 0.79544 0.61473 0.0
C943 C 0.00561 0.75332 0.61066 0.0
Co944 Co 0.3645 0.14499 0.04787 0.0
Co945 Co 0.26151 0.12934 0.04848 0.0
O946 O 0.31047 0.16041 0.05518 0.0
C947 C 0.37693 0.22268 0.11067 0.0
O948 O 0.33824 0.237 0.11233 0.0
C949 C 0.2548 0.20572 -0.00149 0.0
O950 O 0.28505 0.19083 0.97497 0.0
O951 O 0.2786 0.11068 0.98747 0.0
O952 O 0.34981 0.11246 0.99184 0.0
H953 H 0.14692 0.02116 0.02791 0.0
H954 H 0.32809 0.23463 0.04308 0.0
O955 O 0.38348 0.18292 0.10063 0.0
H956 H 0.40617 0.2138 0.91399 0.0
H957 H 0.51781 0.17452 0.05327 0.0
H958 H 0.40547 0.0696 0.02646 0.0
H959 H 0.40884 0.16033 0.96818 0.0
H960 H 0.44292 0.1945 0.05453 0.0
O961 O 0.2383 0.18343 0.02728 0.0
H962 H 0.22054 0.04723 0.01862 0.0
H963 H 0.18289 0.16194 0.07551 0.0
H964 H 0.47551 0.04938 0.01863 0.0
H965 H 0.33085 0.29179 -0.00677 0.0
H966 H 0.53635 0.10121 0.0371 0.0
H967 H 0.36577 0.28026 0.92514 0.0
O968 O 0.35306 0.08681 0.08321 0.0
H969 H 0.26811 0.22929 0.17036 0.0
H970 H 0.23871 0.08299 0.12812 0.0
H971 H 0.24548 0.10009 0.20284 0.0
H972 H 0.26238 0.1736 0.22434 0.0
H973 H 0.26142 0.21099 0.09582 0.0
H974 H 0.11509 0.13359 0.09251 0.0
H975 H 0.09355 0.06414 0.06252 0.0
O976 O 0.28476 0.07385 0.06882 0.0
C977 C 0.31581 0.10489 0.97019 0.0
C978 C 0.15579 0.05126 0.03905 0.0
C979 C 0.13675 0.11446 0.07501 0.0
N980 N 0.20596 0.10609 0.0462 0.0
C981 C 0.19667 0.06659 0.03315 0.0
C982 C 0.17602 0.13032 0.06546 0.0
C983 C 0.12551 0.07553 0.05928 0.0
C984 C 0.34993 0.23151 0.01803 0.0
N985 N 0.37174 0.19479 0.0117 0.0
C986 C 0.34884 0.26334 0.98784 0.0
C987 C 0.368 0.2566 0.94946 0.0
C988 C 0.39081 0.21976 0.94321 0.0
C989 C 0.39272 0.18946 0.97474 0.0
C990 C 0.49349 0.15124 0.04815 0.0
C991 C 0.4301 0.09234 0.0326 0.0
C992 C 0.45136 0.16213 0.0491 0.0
N993 N 0.42107 0.1322 0.04233 0.0
C994 C 0.47097 0.08088 0.02961 0.0
C995 C 0.50347 0.10995 0.03906 0.0
C996 C 0.31987 0.06115 0.08393 0.0
C997 C 0.26139 0.19713 0.16129 0.0
C998 C 0.24509 0.11517 0.13695 0.0
C999 C 0.24867 0.12471 0.17956 0.0
C1000 C 0.25789 0.16584 0.19164 0.0
N1001 N 0.25143 0.14555 0.10705 0.0
C1002 C 0.25734 0.18652 0.11901 0.0
Co1003 Co 0.36568 0.84458 0.93409 0.0
Co1004 Co 0.26225 0.85979 0.93459 0.0
O1005 O 0.31134 0.82883 0.92746 0.0
C1006 C 0.38106 0.76767 0.8715 0.0
O1007 O 0.34376 0.7499 0.87162 0.0
C1008 C 0.25483 0.78334 0.9847 0.0
O1009 O 0.28654 0.79661 0.00756 0.0
O1010 O 0.28047 0.87831 -0.00464 0.0
O1011 O 0.35169 0.87579 0.99095 0.0
H1012 H 0.15154 0.9709 0.95414 0.0
H1013 H 0.32697 0.75613 0.93948 0.0
O1014 O 0.38431 0.80814 0.88035 0.0
H1015 H 0.41778 0.76874 0.06221 0.0
H1016 H 0.5199 0.81849 0.92698 0.0
H1017 H 0.40562 0.91966 0.95739 0.0
H1018 H 0.41439 0.82638 0.01162 0.0
H1019 H 0.44564 0.79692 0.92379 0.0
O1020 O 0.23879 0.80625 0.95609 0.0
H1021 H 0.22349 0.94208 0.9649 0.0
H1022 H 0.18223 0.82855 0.90797 0.0
H1023 H 0.47499 0.94044 0.96816 0.0
H1024 H 0.33251 0.69696 0.98693 0.0
H1025 H 0.53705 0.89073 0.94925 0.0
H1026 H 0.37532 0.70395 0.05151 0.0
O1027 O 0.35301 0.90321 0.89965 0.0
H1028 H 0.27151 0.76037 0.81299 0.0
H1029 H 0.23757 0.90563 0.85507 0.0
H1030 H 0.24551 0.88892 0.78039 0.0
H1031 H 0.2652 0.81614 0.7591 0.0
H1032 H 0.26331 0.77818 0.88743 0.0
H1033 H 0.11569 0.85979 0.8888 0.0
H1034 H 0.09709 0.93066 0.91696 0.0
O1035 O 0.28474 0.91504 0.91403 0.0
C1036 C 0.31791 0.88374 0.01256 0.0
C1037 C 0.15918 0.94067 0.94269 0.0
C1038 C 0.13794 0.87796 0.90688 0.0
N1039 N 0.20698 0.88367 0.93728 0.0
C1040 C 0.1991 0.92358 0.9499 0.0
C1041 C 0.1763 0.86042 0.91774 0.0
C1042 C 0.12831 0.91773 0.92156 0.0
C1043 C 0.35073 0.75794 0.96321 0.0
N1044 N 0.37396 0.79397 0.96917 0.0
C1045 C 0.35162 0.72479 0.99199 0.0
C1046 C 0.37502 0.72903 0.0285 0.0
C1047 C 0.3988 0.76532 0.03459 0.0
C1048 C 0.39767 0.79758 0.00487 0.0
C1049 C 0.49517 0.84079 0.93358 0.0
C1050 C 0.43065 0.89754 0.95093 0.0
C1051 C 0.45324 0.82917 0.93108 0.0
N1052 N 0.42231 0.85807 0.93914 0.0
C1053 C 0.47124 0.90935 0.9559 0.0
C1054 C 0.50438 0.88144 0.94598 0.0
C1055 C 0.31934 0.92821 0.89883 0.0
C1056 C 0.26368 0.79226 0.82202 0.0
C1057 C 0.2446 0.8736 0.84624 0.0
C1058 C 0.24906 0.86433 0.80369 0.0
C1059 C 0.2598 0.82358 0.79171 0.0
N1060 N 0.25138 0.84332 0.87618 0.0
C1061 C 0.25856 0.80256 0.86422 0.0
Co1062 Co 0.1477 0.27475 0.97085 0.0
Co1063 Co 0.15063 0.37749 0.97481 0.0
O1064 O 0.176 0.32618 0.97593 0.0
C1065 C 0.236 0.24577 0.98806 0.0
O1066 O 0.25423 0.27006 0.96048 0.0
C1067 C 0.22572 0.40456 0.9027 0.0
O1068 O 0.20852 0.42153 0.86917 0.0
O1069 O 0.1069 0.3583 0.92579 0.0
O1070 O 0.09328 0.29278 0.94525 0.0
H1071 H 0.0314 0.47782 0.99144 0.0
H1072 H 0.21848 0.31422 0.91657 0.0
O1073 O 0.19823 0.25127 -0.00031 0.0
H1074 H 0.132 0.23108 0.81952 0.0
H1075 H 0.17386 0.12557 0.94536 0.0
H1076 H 0.07755 0.22769 0.01062 0.0
H1077 H 0.11359 0.23422 0.8937 0.0
H1078 H 0.18494 0.1993 0.93642 0.0
O1079 O 0.2012 0.39242 0.93345 0.0
H1080 H 0.06603 0.41121 -0.00038 0.0
H1081 H 0.17015 0.45741 0.92916 0.0
H1082 H 0.07306 0.15321 0.02726 0.0
H1083 H 0.24207 0.30506 0.84561 0.0
H1084 H 0.11089 0.10108 0.98619 0.0
H1085 H 0.19701 0.26653 0.79417 0.0
O1086 O 0.11984 0.28776 0.02715 0.0
H1087 H 0.29096 0.46081 0.02482 0.0
H1088 H 0.16034 0.34845 0.07186 0.0
H1089 H 0.24356 0.38261 0.11764 0.0
H1090 H 0.29046 0.40423 0.13959 0.0
H1091 H 0.2218 0.44408 0.98018 0.0
H1092 H 0.12714 0.51624 0.90892 0.0
H1093 H 0.06572 0.53523 0.95146 0.0
O1094 O 0.10699 0.35755 0.01849 0.0
C1095 C 0.08313 0.32435 0.92335 0.0
C1096 C 0.06159 0.47296 0.97727 0.0
C1097 C 0.11779 0.49667 0.93419 0.0
N1098 N 0.12384 0.43133 0.97027 0.0
C1099 C 0.083 0.43559 0.98358 0.0
C1100 C 0.14041 0.46097 0.94407 0.0
C1101 C 0.08114 0.50513 0.95535 0.0
C1102 C 0.2013 0.29257 0.8972 0.0
N1103 N 0.16829 0.26937 0.91236 0.0
C1104 C 0.21339 0.28995 0.85538 0.0
C1105 C 0.18847 0.26786 0.82698 0.0
C1106 C 0.1524 0.24764 0.84122 0.0
C1107 C 0.14261 0.24909 0.88384 0.0
C1108 C 0.15125 0.14716 0.95831 0.0
C1109 C 0.09826 0.20544 -0.00438 0.0
C1110 C 0.15686 0.18962 0.95276 0.0
N1111 N 0.12922 0.2182 0.96966 0.0
C1112 C 0.09496 0.16328 0.00487 0.0
C1113 C 0.11795 0.13389 0.98268 0.0
C1114 C 0.10047 0.32235 0.03784 0.0
C1115 C 0.26773 0.44065 0.03909 0.0
C1116 C 0.18514 0.36994 0.06752 0.0
C1117 C 0.21751 0.36854 0.11091 0.0
C1118 C 0.26484 0.4003 0.11154 0.0
N1119 N 0.19003 0.39537 0.0241 0.0
C1120 C 0.22484 0.42782 0.00949 0.0
Co1121 Co 0.62917 0.14459 0.93863 0.0
Co1122 Co 0.73207 0.12956 0.93885 0.0
O1123 O 0.68322 0.16048 0.93189 0.0
C1124 C 0.61848 0.22058 0.87476 0.0
O1125 O 0.6573 0.23454 0.87349 0.0
C1126 C 0.73886 0.20638 0.9883 0.0
O1127 O 0.70811 0.1917 0.01143 0.0
O1128 O 0.7146 0.11112 -4e-05 0.0
O1129 O 0.64339 0.11224 -0.00493 0.0
H1130 H 0.84522 0.0207 0.95998 0.0
H1131 H 0.66422 0.23548 0.94304 0.0
O1132 O 0.61121 0.18127 0.88531 0.0
H1133 H 0.59029 0.21021 0.07339 0.0
H1134 H 0.47602 0.17446 0.9294 0.0
H1135 H 0.58749 0.06957 0.96028 0.0
H1136 H 0.58533 0.15884 0.01804 0.0
H1137 H 0.55086 0.19435 0.92938 0.0
O1138 O 0.75551 0.18386 0.95986 0.0
H1139 H 0.77205 0.04739 0.96915 0.0
H1140 H 0.81095 0.1618 0.91182 0.0
H1141 H 0.51729 0.04983 0.96786 0.0
H1142 H 0.66101 0.2919 -0.00667 0.0
H1143 H 0.45685 0.10166 0.94822 0.0
H1144 H 0.62785 0.27817 0.06222 0.0
O1145 O 0.64077 0.08665 0.90371 0.0
H1146 H 0.72644 0.22952 0.81646 0.0
H1147 H 0.7544 0.08297 0.85927 0.0
H1148 H 0.74705 0.10011 0.78451 0.0
H1149 H 0.73057 0.17373 0.76281 0.0
H1150 H 0.73362 0.21119 0.89107 0.0
H1151 H 0.87809 0.13263 0.89434 0.0
H1152 H 0.89894 0.06278 0.92487 0.0
O1153 O 0.70887 0.07391 0.91868 0.0
C1154 C 0.67728 0.1052 0.01709 0.0
C1155 C 0.83667 0.05067 0.94831 0.0
C1156 C 0.85643 0.11375 0.91217 0.0
N1157 N 0.78736 0.10616 0.94142 0.0
C1158 C 0.79611 0.06649 0.95442 0.0
C1159 C 0.81748 0.13009 0.92193 0.0
C1160 C 0.86718 0.07461 0.92796 0.0
C1161 C 0.64255 0.23166 0.96812 0.0
N1162 N 0.62134 0.19447 0.97436 0.0
C1163 C 0.64339 0.26313 -0.00143 0.0
C1164 C 0.62499 0.25538 0.03722 0.0
C1165 C 0.60353 0.21777 0.04356 0.0
C1166 C 0.60093 0.18831 0.01152 0.0
C1167 C 0.50012 0.15126 0.93596 0.0
C1168 C 0.56304 0.09233 0.95351 0.0
C1169 C 0.54233 0.16203 0.93556 0.0
N1170 N 0.57241 0.13206 0.94343 0.0
C1171 C 0.52207 0.08112 0.95629 0.0
C1172 C 0.48979 0.11023 0.9462 0.0
C1173 C 0.67395 0.06119 0.90316 0.0
C1174 C 0.73283 0.1973 0.82567 0.0
C1175 C 0.74825 0.1152 0.85034 0.0
C1176 C 0.74436 0.12475 0.80771 0.0
C1177 C 0.73546 0.16595 0.79549 0.0
N1178 N 0.74241 0.14563 0.88015 0.0
C1179 C 0.73714 0.18666 0.86799 0.0
Co1180 Co 0.84941 0.72201 0.97009 0.0
Co1181 Co 0.83775 0.62271 0.97419 0.0
O1182 O 0.81681 0.67441 0.97641 0.0
C1183 C 0.76011 0.74784 0.99003 0.0
O1184 O 0.74123 0.71794 0.969 0.0
C1185 C 0.77171 0.59127 0.90248 0.0
O1186 O 0.79845 0.57082 0.87868 0.0
O1187 O 0.87965 0.63966 0.92242 0.0
O1188 O 0.90397 0.69935 0.94714 0.0
H1189 H 0.93643 0.53687 0.91313 0.0
H1190 H 0.77618 0.68765 0.91496 0.0
O1191 O 0.79966 0.74929 -0.00475 0.0
H1192 H 0.87243 0.75874 0.81771 0.0
H1193 H 0.82063 0.86809 0.94593 0.0
H1194 H 0.91817 0.76859 0.01372 0.0
H1195 H 0.88796 0.75806 0.89281 0.0
H1196 H 0.81602 0.79596 0.93164 0.0
O1197 O 0.78528 0.6107 0.93546 0.0
H1198 H 0.92046 0.58958 0.96197 0.0
H1199 H 0.79537 0.54374 0.97035 0.0
H1200 H 0.91979 0.84408 0.03019 0.0
H1201 H 0.75798 0.6913 0.84189 0.0
H1202 H 0.8803 0.89481 0.99059 0.0
H1203 H 0.8066 0.72547 0.79115 0.0
O1204 O 0.87369 0.70713 0.02832 0.0
H1205 H 0.68232 0.59582 0.04764 0.0
H1206 H 0.8619 0.58943 0.06148 0.0
H1207 H 0.78452 0.55515 0.11819 0.0
H1208 H 0.73978 0.53661 0.14606 0.0
H1209 H 0.73911 0.62623 0.99128 0.0
H1210 H 0.81789 0.47831 0.9443 0.0
H1211 H 0.88066 0.47545 0.90132 0.0
O1212 O 0.88532 0.63805 0.0156 0.0
C1213 C 0.90935 0.66858 0.92259 0.0
C1214 C 0.90617 0.53437 0.92778 0.0
C1215 C 0.83901 0.50325 0.94321 0.0
N1216 N 0.85734 0.56895 0.9698 0.0
C1217 C 0.89727 0.56537 0.95586 0.0
C1218 C 0.8282 0.53871 0.96378 0.0
C1219 C 0.87631 0.50207 0.92147 0.0
C1220 C 0.79605 0.70629 0.89533 0.0
N1221 N 0.83077 0.72691 0.91062 0.0
C1222 C 0.78647 0.70633 0.85265 0.0
C1223 C 0.81365 0.72563 0.82439 0.0
C1224 C 0.85024 0.74454 0.83927 0.0
C1225 C 0.85851 0.74444 0.88231 0.0
C1226 C 0.84485 0.8478 0.95826 0.0
C1227 C 0.8984 0.79072 -0.00292 0.0
C1228 C 0.84326 0.8058 0.94935 0.0
N1229 N 0.87055 0.77758 0.96789 0.0
C1230 C 0.89961 0.83306 0.00701 0.0
C1231 C 0.87573 0.86191 0.98509 0.0
C1232 C 0.88974 0.67067 0.03936 0.0
C1233 C 0.71564 0.58853 0.05263 0.0
C1234 C 0.82821 0.58771 0.06312 0.0
C1235 C 0.81194 0.56246 0.10781 0.0
C1236 C 0.75636 0.55441 0.11665 0.0
N1237 N 0.8012 0.60617 0.02492 0.0
C1238 C 0.75164 0.60947 0.01797 0.0
Co1239 Co 0.62751 0.84583 0.05289 0.0
Co1240 Co 0.73101 0.86112 0.05247 0.0
O1241 O 0.68183 0.8302 0.05984 0.0
C1242 C 0.61214 0.76941 0.11615 0.0
O1243 O 0.6495 0.75184 0.11659 0.0
C1244 C 0.73765 0.78496 0.00247 0.0
O1245 O 0.70587 0.79839 0.97978 0.0
O1246 O 0.71282 0.87981 0.99168 0.0
O1247 O 0.64161 0.87689 -0.00419 0.0
H1248 H 0.84245 0.97187 0.03197 0.0
H1249 H 0.66579 0.7571 0.04855 0.0
O1250 O 0.60885 0.80978 0.10691 0.0
H1251 H 0.5775 0.77048 0.92421 0.0
H1252 H 0.47336 0.81922 0.06054 0.0
H1253 H 0.5873 0.92069 0.0286 0.0
H1254 H 0.57972 0.82766 0.97498 0.0
H1255 H 0.54762 0.79796 0.06372 0.0
O1256 O 0.75405 0.8077 0.03092 0.0
H1257 H 0.77017 0.94348 0.02201 0.0
H1258 H 0.81115 0.82941 0.07857 0.0
H1259 H 0.51767 0.941 0.01741 0.0
H1260 H 0.66044 0.69786 0.00142 0.0
H1261 H 0.45594 0.89112 0.03705 0.0
H1262 H 0.6188 0.70521 0.93601 0.0
O1263 O 0.64015 0.9044 0.08708 0.0
H1264 H 0.72168 0.76114 0.17404 0.0
H1265 H 0.75609 0.90655 0.13186 0.0
H1266 H 0.74792 0.88956 0.20652 0.0
H1267 H 0.72801 0.81666 0.22786 0.0
H1268 H 0.73001 0.77927 0.09962 0.0
H1269 H 0.8784 0.86003 0.0966 0.0
H1270 H 0.89692 0.93128 0.06904 0.0
O1271 O 0.70864 0.91626 0.0732 0.0
C1272 C 0.67544 0.88491 0.97426 0.0
C1273 C 0.83469 0.94165 0.04364 0.0
C1274 C 0.85596 0.87849 0.079 0.0
N1275 N 0.78647 0.88486 0.04957 0.0
C1276 C 0.79456 0.92479 0.03684 0.0
C1277 C 0.81722 0.8613 0.06872 0.0
C1278 C 0.86562 0.91844 0.0645 0.0
C1279 C 0.64226 0.75895 0.0246 0.0
N1280 N 0.61932 0.79508 0.01816 0.0
C1281 C 0.64157 0.72578 -0.00404 0.0
C1282 C 0.61885 0.73019 0.95902 0.0
C1283 C 0.59564 0.76673 0.95231 0.0
C1284 C 0.59622 0.79881 0.98207 0.0
C1285 C 0.498 0.84154 0.05341 0.0
C1286 C 0.56234 0.89847 0.03524 0.0
C1287 C 0.53997 0.83013 0.05596 0.0
N1288 N 0.57082 0.85912 0.04756 0.0
C1289 C 0.52167 0.91002 0.03004 0.0
C1290 C 0.48864 0.882 0.04038 0.0
C1291 C 0.67395 0.92927 0.08832 0.0
C1292 C 0.72961 0.79307 0.165 0.0
C1293 C 0.74896 0.87449 0.14072 0.0
C1294 C 0.74438 0.86505 0.18326 0.0
C1295 C 0.73351 0.82425 0.19527 0.0
N1296 N 0.74208 0.84436 0.11081 0.0
C1297 C 0.73482 0.80355 0.1228 0.0
Co1298 Co 0.14283 0.71965 0.01743 0.0
Co1299 Co 0.15379 0.61957 0.01251 0.0
O1300 O 0.17539 0.67157 0.01059 0.0
C1301 C 0.23223 0.74604 -0.00306 0.0
O1302 O 0.25144 0.71507 0.01618 0.0
C1303 C 0.22094 0.59051 0.08428 0.0
O1304 O 0.19598 0.57175 0.11128 0.0
O1305 O 0.11141 0.63618 0.06399 0.0
O1306 O 0.08803 0.69658 0.04 0.0
H1307 H 0.04158 0.53366 0.0529 0.0
H1308 H 0.21705 0.68622 0.07149 0.0
O1309 O 0.19257 0.74788 0.99281 0.0
H1310 H 0.1209 0.75483 0.17013 0.0
H1311 H 0.17104 0.8658 0.04313 0.0
H1312 H 0.07552 0.76658 0.97256 0.0
H1313 H 0.10383 0.75325 0.0953 0.0
H1314 H 0.1748 0.79374 0.05812 0.0
O1315 O 0.20529 0.60688 0.05078 0.0
H1316 H 0.07044 0.59069 0.01818 0.0
H1317 H 0.19195 0.53485 0.02113 0.0
H1318 H 0.07654 0.84106 0.95365 0.0
H1319 H 0.23741 0.69201 0.14386 0.0
H1320 H 0.11437 0.89253 -0.0048 0.0
H1321 H 0.18871 0.72461 0.19549 0.0
O1322 O 0.11855 0.70607 0.95913 0.0
H1323 H 0.31064 0.59306 0.94115 0.0
H1324 H 0.1312 0.58578 0.92565 0.0
H1325 H 0.20952 0.55365 0.86914 0.0
H1326 H 0.25428 0.53565 0.84124 0.0
H1327 H 0.25324 0.62267 -0.00308 0.0
H1328 H 0.15776 0.46788 0.0383 0.0
H1329 H 0.08812 0.46761 0.06882 0.0
O1330 O 0.10712 0.63643 0.97001 0.0
C1331 C 0.08199 0.66531 0.064 0.0
C1332 C 0.07462 0.53151 0.04753 0.0
C1333 C 0.14116 0.49641 0.04132 0.0
N1334 N 0.1326 0.56579 0.01744 0.0
C1335 C 0.09091 0.5646 0.02584 0.0
C1336 C 0.15833 0.53278 0.02556 0.0
C1337 C 0.10026 0.49657 0.05611 0.0
C1338 C 0.19718 0.70441 0.09141 0.0
N1339 N 0.16151 0.72376 0.07676 0.0
C1340 C 0.20791 0.70545 0.13378 0.0
C1341 C 0.18073 0.72398 0.16246 0.0
C1342 C 0.14301 0.74117 0.14826 0.0
C1343 C 0.13373 0.74036 0.10543 0.0
C1344 C 0.14727 0.8455 0.03 0.0
C1345 C 0.09515 0.7885 0.98951 0.0
C1346 C 0.14817 0.8035 0.03948 0.0
N1347 N 0.12152 0.77526 0.02007 0.0
C1348 C 0.09523 0.83062 0.97844 0.0
C1349 C 0.11814 0.85959 0.00124 0.0
C1350 C 0.10193 0.67012 0.94763 0.0
C1351 C 0.27762 0.585 0.93598 0.0
C1352 C 0.165 0.58486 0.92393 0.0
C1353 C 0.182 0.56082 0.87904 0.0
C1354 C 0.23747 0.55261 0.87098 0.0
N1355 N 0.19142 0.60263 0.96269 0.0
C1356 C 0.24103 0.60555 0.97045 0.0
Co1357 Co 0.84628 0.27595 0.01678 0.0
Co1358 Co 0.84385 0.37948 0.00892 0.0
O1359 O 0.81826 0.32791 0.0124 0.0
C1360 C 0.75786 0.24641 -0.00101 0.0
O1361 O 0.73925 0.2708 0.02608 0.0
C1362 C 0.76719 0.41083 0.08049 0.0
O1363 O 0.78009 0.42883 0.11525 0.0
O1364 O 0.88976 0.36242 0.05689 0.0
O1365 O 0.9003 0.29467 0.04276 0.0
H1366 H 0.96576 0.47611 0.98318 0.0
H1367 H 0.77467 0.315 0.0704 0.0
O1368 O 0.79582 0.25201 0.98786 0.0
H1369 H 0.86128 0.23267 0.16839 0.0
H1370 H 0.8186 0.12684 0.04187 0.0
H1371 H 0.91666 0.22843 0.97767 0.0
H1372 H 0.88046 0.23644 0.09437 0.0
H1373 H 0.80902 0.20056 0.05202 0.0
O1374 O 0.79628 0.3989 0.05326 0.0
H1375 H 0.92631 0.41307 0.97353 0.0
H1376 H 0.8266 0.46336 0.04785 0.0
H1377 H 0.91983 0.15427 0.96003 0.0
H1378 H 0.74977 0.3039 0.14075 0.0
H1379 H 0.88066 0.10207 0.00027 0.0
H1380 H 0.79505 0.26625 0.19283 0.0
O1381 O 0.87437 0.28751 0.95981 0.0
H1382 H 0.70121 0.45833 0.95915 0.0
H1383 H 0.83006 0.34365 0.91557 0.0
H1384 H 0.74757 0.37784 0.86849 0.0
H1385 H 0.70085 0.39929 0.84598 0.0
H1386 H 0.77085 0.44418 0.00302 0.0
H1387 H 0.87006 0.52249 0.06281 0.0
H1388 H 0.9388 0.533 0.02737 0.0
O1389 O 0.88583 0.35742 0.96442 0.0
C1390 C 0.91192 0.32758 0.06186 0.0
C1391 C 0.93545 0.47316 -0.0024 0.0
C1392 C 0.88015 0.50102 0.03953 0.0
N1393 N 0.87134 0.43386 0.00754 0.0
C1394 C 0.9112 0.43744 0.99104 0.0
C1395 C 0.85624 0.46539 0.03213 0.0
C1396 C 0.91986 0.50526 0.02193 0.0
C1397 C 0.79186 0.2933 0.08988 0.0
N1398 N 0.82545 0.27076 0.07515 0.0
C1399 C 0.77911 0.28987 0.13145 0.0
C1400 C 0.80409 0.26813 0.16017 0.0
C1401 C 0.84085 0.24894 0.14644 0.0
C1402 C 0.85116 0.25084 0.10396 0.0
C1403 C 0.84154 0.14833 0.02909 0.0
C1404 C 0.89541 0.20634 0.99231 0.0
C1405 C 0.83688 0.19077 0.03545 0.0
N1406 N 0.86473 0.21926 0.0185 0.0
C1407 C 0.89784 0.16426 0.98237 0.0
C1408 C 0.8743 0.13492 0.0042 0.0
C1409 C 0.89318 0.32163 0.94691 0.0
C1410 C 0.72462 0.43859 0.94499 0.0
C1411 C 0.80608 0.36621 0.91872 0.0
C1412 C 0.77343 0.36367 0.87563 0.0
C1413 C 0.72654 0.39597 0.87406 0.0
N1414 N 0.80205 0.39366 0.96088 0.0
C1415 C 0.76739 0.4264 0.97476 0.0
Co1416 Co 0.51955 0.75701 0.62146 0.0
Co1417 Co 0.52262 0.85791 0.65207 0.0
O1418 O 0.5223 0.80112 0.66155 0.0
C1419 C 0.47677 0.73648 0.69775 0.0
O1420 O 0.45986 0.77379 0.70146 0.0
C1421 C 0.58189 0.85018 0.73738 0.0
O1422 O 0.56062 0.8184 0.75314 0.0
O1423 O 0.56776 0.84959 0.60425 0.0
O1424 O 0.54798 0.78778 0.57589 0.0
H1425 H 0.50261 0.98487 0.56823 0.0
H1426 H 0.56092 0.75223 0.70694 0.0
O1427 O 0.4909 0.72341 0.6635 0.0
H1428 H 0.67508 0.73053 0.60554 0.0
H1429 H 0.54855 0.60496 0.60252 0.0
H1430 H 0.47496 0.72789 0.542 0.0
H1431 H 0.60101 0.72962 0.58238 0.0
H1432 H 0.55194 0.6721 0.63643 0.0
O1433 O 0.57203 0.86472 0.6996 0.0
H1434 H 0.50638 0.91084 0.5794 0.0
H1435 H 0.5406 0.93126 0.70691 0.0
H1436 H 0.46399 0.6561 0.51415 0.0
H1437 H 0.63396 0.75267 0.73144 0.0
H1438 H 0.50148 0.59552 0.54065 0.0
H1439 H 0.69187 0.74346 0.68068 0.0
O1440 O 0.46298 0.78077 0.59833 0.0
H1441 H 0.46173 0.84897 0.79916 0.0
H1442 H 0.42479 0.87038 0.65165 0.0
H1443 H 0.37096 0.84632 0.69986 0.0
H1444 H 0.38954 0.83149 0.77413 0.0
H1445 H 0.51262 0.87757 0.74965 0.0
H1446 H 0.54925 0.00622 0.69287 0.0
H1447 H 0.53422 0.03442 0.62321 0.0
O1448 O 0.47453 0.8508 0.60575 0.0
C1449 C 0.57018 0.82094 0.57489 0.0
C1450 C 0.5152 0.97395 0.59773 0.0
C1451 C 0.54152 0.98514 0.66775 0.0
N1452 N 0.52398 0.9165 0.64361 0.0
C1453 C 0.51456 0.93145 0.60495 0.0
C1454 C 0.53582 0.94266 0.67543 0.0
C1455 C 0.53167 0.00092 0.62849 0.0
C1456 C 0.58527 0.74622 0.68456 0.0
N1457 N 0.57588 0.74161 0.64292 0.0
C1458 C 0.62699 0.74706 0.69867 0.0
C1459 C 0.65953 0.74165 0.67014 0.0
C1460 C 0.65004 0.73448 0.62813 0.0
C1461 C 0.6079 0.73422 0.61513 0.0
C1462 C 0.5323 0.63148 0.58872 0.0
C1463 C 0.49131 0.7012 0.55539 0.0
C1464 C 0.53578 0.67091 0.6067 0.0
N1465 N 0.51741 0.70593 0.5888 0.0
C1466 C 0.48414 0.66093 0.53953 0.0
C1467 C 0.50574 0.62623 0.55473 0.0
C1468 C 0.45184 0.81986 0.59099 0.0
C1469 C 0.45415 0.85081 0.76607 0.0
C1470 C 0.43495 0.8623 0.68273 0.0
C1471 C 0.40325 0.84969 0.7106 0.0
C1472 C 0.41355 0.8416 0.75221 0.0
N1473 N 0.47664 0.86433 0.69491 0.0
C1474 C 0.48439 0.86463 0.73717 0.0
Co1475 Co 0.13011 0.5537 0.64811 0.0
Co1476 Co 0.23338 0.55312 0.63209 0.0
O1477 O 0.18458 0.55939 0.6635 0.0
C1478 C 0.11723 0.61763 0.72519 0.0
O1479 O 0.15464 0.6145 0.74235 0.0
C1480 C 0.24289 0.50448 0.70969 0.0
O1481 O 0.21181 0.48046 0.69684 0.0
O1482 O 0.21531 0.49166 0.61423 0.0
O1483 O 0.14388 0.49717 0.61608 0.0
H1484 H 0.34911 0.53731 0.52385 0.0
H1485 H 0.16889 0.54606 0.73622 0.0
O1486 O 0.11208 0.60762 0.68531 0.0
H1487 H 0.07692 0.42404 0.72076 0.0
H1488 H 0.97603 0.56376 0.67429 0.0
H1489 H 0.08977 0.53128 0.5738 0.0
H1490 H 0.08112 0.47593 0.66448 0.0
H1491 H 0.05038 0.56519 0.69611 0.0
O1492 O 0.25804 0.53298 0.68608 0.0
H1493 H 0.2754 0.5242 0.54951 0.0
H1494 H 0.31141 0.58207 0.66384 0.0
H1495 H 0.02107 0.52188 0.55303 0.0
H1496 H 0.16186 0.49795 0.79467 0.0
H1497 H 0.9586 0.54221 0.60222 0.0
H1498 H 0.11837 0.43391 0.78642 0.0
O1499 O 0.14217 0.58824 0.58973 0.0
H1500 H 0.22125 0.67713 0.7285 0.0
H1501 H 0.25496 0.63263 0.58462 0.0
H1502 H 0.24364 0.70763 0.59945 0.0
H1503 H 0.22376 0.72994 0.67146 0.0
H1504 H 0.23256 0.60224 0.7125 0.0
H1505 H 0.37847 0.60253 0.63573 0.0
H1506 H 0.40017 0.57513 0.56577 0.0
O1507 O 0.20977 0.57202 0.57662 0.0
C1508 C 0.17749 0.47516 0.60799 0.0
C1509 C 0.33943 0.54757 0.55376 0.0
C1510 C 0.35734 0.5839 0.61677 0.0
N1511 N 0.28911 0.55173 0.60852 0.0
C1512 C 0.29877 0.53953 0.569 0.0
C1513 C 0.31861 0.57213 0.63259 0.0
C1514 C 0.36882 0.56945 0.57773 0.0
C1515 C 0.1448 0.52271 0.73393 0.0
N1516 N 0.12171 0.51765 0.69784 0.0
C1517 C 0.14316 0.49341 0.76657 0.0
C1518 C 0.11939 0.45711 0.76158 0.0
C1519 C 0.09626 0.45152 0.72486 0.0
C1520 C 0.09781 0.48201 0.69336 0.0
C1521 C 0.00068 0.55672 0.65217 0.0
C1522 C 0.06491 0.53823 0.59581 0.0
C1523 C 0.04266 0.55812 0.66393 0.0
N1524 N 0.07341 0.54955 0.63514 0.0
C1525 C 0.02438 0.53423 0.58394 0.0
C1526 C 0.99132 0.54483 0.61154 0.0
C1527 C 0.17492 0.58733 0.5638 0.0
C1528 C 0.22895 0.66756 0.69688 0.0
C1529 C 0.24788 0.64199 0.61633 0.0
C1530 C 0.24149 0.6847 0.62451 0.0
C1531 C 0.2307 0.69728 0.66487 0.0
N1532 N 0.24268 0.61241 0.64723 0.0
C1533 C 0.23578 0.62513 0.68761 0.0
Co1534 Co 0.47277 0.23227 0.6232 0.0
Co1535 Co 0.46936 0.13069 0.65371 0.0
O1536 O 0.46958 0.18787 0.66225 0.0
C1537 C 0.51422 0.25302 0.70088 0.0
O1538 O 0.53244 0.21622 0.70358 0.0
C1539 C 0.40774 0.13998 0.73616 0.0
O1540 O 0.42439 0.17501 0.75038 0.0
O1541 O 0.42355 0.13966 0.60515 0.0
O1542 O 0.44518 0.20137 0.57701 0.0
H1543 H 0.42547 0.98706 0.59888 0.0
H1544 H 0.4316 0.23969 0.70765 0.0
O1545 O 0.49918 0.26633 0.66691 0.0
H1546 H 0.31722 0.25984 0.60522 0.0
H1547 H 0.44672 0.38429 0.6007 0.0
H1548 H 0.51733 0.25891 0.54357 0.0
H1549 H 0.39149 0.26034 0.58261 0.0
H1550 H 0.44089 0.3177 0.63593 0.0
O1551 O 0.42067 0.12399 0.70042 0.0
H1552 H 0.44448 0.06461 0.58917 0.0
H1553 H 0.4776 0.06567 0.71805 0.0
H1554 H 0.53041 0.32966 0.51421 0.0
H1555 H 0.35839 0.23976 0.73184 0.0
H1556 H 0.49648 0.3922 0.54106 0.0
H1557 H 0.30046 0.24819 0.68053 0.0
O1558 O 0.52991 0.20852 0.60205 0.0
H1559 H 0.53969 0.15176 0.79742 0.0
H1560 H 0.56368 0.10792 0.65244 0.0
H1561 H 0.62338 0.13109 0.69473 0.0
H1562 H 0.61202 0.15477 0.76788 0.0
H1563 H 0.4816 0.13092 0.75333 0.0
H1564 H 0.45789 0.9936 0.72634 0.0
H1565 H 0.43033 0.95374 0.6653 0.0
O1566 O 0.51823 0.13767 0.60655 0.0
C1567 C 0.42127 0.16929 0.57612 0.0
C1568 C 0.43449 0.0068 0.62412 0.0
C1569 C 0.45422 0.00865 0.69612 0.0
N1570 N 0.46526 0.06976 0.65191 0.0
C1571 C 0.44773 0.0489 0.61896 0.0
C1572 C 0.46759 0.04983 0.69027 0.0
C1573 C 0.43814 0.98676 0.66244 0.0
C1574 C 0.40703 0.24468 0.685 0.0
N1575 N 0.41629 0.24803 0.64328 0.0
C1576 C 0.36535 0.24451 0.69895 0.0
C1577 C 0.3328 0.24951 0.67011 0.0
C1578 C 0.34227 0.25591 0.62799 0.0
C1579 C 0.38442 0.25561 0.61522 0.0
C1580 C 0.46381 0.35754 0.58888 0.0
C1581 C 0.50233 0.28636 0.55675 0.0
C1582 C 0.45833 0.3184 0.60703 0.0
N1583 N 0.47609 0.28287 0.59008 0.0
C1584 C 0.51105 0.32614 0.54039 0.0
C1585 C 0.49127 0.36175 0.55553 0.0
C1586 C 0.54178 0.16982 0.59395 0.0
C1587 C 0.54493 0.14509 0.76457 0.0
C1588 C 0.55695 0.12134 0.68259 0.0
C1589 C 0.5917 0.13315 0.70719 0.0
C1590 C 0.58545 0.14626 0.74821 0.0
N1591 N 0.51625 0.12674 0.69638 0.0
C1592 C 0.51098 0.13481 0.73836 0.0
Co1593 Co 0.86558 0.43562 0.64349 0.0
Co1594 Co 0.76208 0.43624 0.62658 0.0
O1595 O 0.81113 0.42893 0.65792 0.0
C1596 C 0.8785 0.36939 0.72006 0.0
O1597 O 0.84121 0.37295 0.7371 0.0
C1598 C 0.75526 0.48521 0.70305 0.0
O1599 O 0.78646 0.50886 0.68996 0.0
O1600 O 0.77998 0.49745 0.60833 0.0
O1601 O 0.85131 0.49311 0.61204 0.0
H1602 H 0.6454 0.45539 0.51892 0.0
H1603 H 0.82612 0.44108 0.73107 0.0
O1604 O 0.88395 0.38085 0.68046 0.0
H1605 H 0.91803 0.56343 0.71993 0.0
H1606 H 0.01959 0.42652 0.672 0.0
H1607 H 0.90676 0.46189 0.57039 0.0
H1608 H 0.91396 0.51354 0.66211 0.0
H1609 H 0.94514 0.42236 0.69193 0.0
O1610 O 0.73908 0.45702 0.67992 0.0
H1611 H 0.71959 0.46587 0.5442 0.0
H1612 H 0.68336 0.40979 0.65951 0.0
H1613 H 0.97629 0.47474 0.552 0.0
H1614 H 0.83317 0.48705 0.79102 0.0
H1615 H 0.0377 0.45286 0.60156 0.0
H1616 H 0.87685 0.5512 0.78506 0.0
O1617 O 0.85365 0.40204 0.58463 0.0
H1618 H 0.77345 0.31281 0.72423 0.0
H1619 H 0.7384 0.35708 0.58011 0.0
H1620 H 0.74844 0.28198 0.59572 0.0
H1621 H 0.76867 0.25968 0.668 0.0
H1622 H 0.76293 0.38771 0.70755 0.0
H1623 H 0.614 0.39401 0.63296 0.0
H1624 H 0.59272 0.42066 0.56264 0.0
O1625 O 0.78525 0.41652 0.57157 0.0
C1626 C 0.81744 0.51468 0.60309 0.0
C1627 C 0.65464 0.44554 0.54937 0.0
C1628 C 0.63601 0.41088 0.61335 0.0
N1629 N 0.70591 0.43886 0.60349 0.0
C1630 C 0.69591 0.45172 0.56411 0.0
C1631 C 0.67593 0.42011 0.62827 0.0
C1632 C 0.62457 0.42535 0.5741 0.0
C1633 C 0.85037 0.46433 0.72976 0.0
N1634 N 0.8735 0.47058 0.69401 0.0
C1635 C 0.85201 0.49247 0.76326 0.0
C1636 C 0.87589 0.52884 0.75958 0.0
C1637 C 0.89889 0.53575 0.72314 0.0
C1638 C 0.8973 0.50642 0.69069 0.0
C1639 C 0.99515 0.43455 0.64971 0.0
C1640 C 0.93141 0.45474 0.59277 0.0
C1641 C 0.95304 0.43132 0.66028 0.0
N1642 N 0.92249 0.4407 0.63123 0.0
C1643 C 0.97215 0.46094 0.58231 0.0
C1644 C 0.00491 0.4494 0.61016 0.0
C1645 C 0.82042 0.40189 0.55894 0.0
C1646 C 0.76528 0.32231 0.6926 0.0
C1647 C 0.74556 0.34774 0.61191 0.0
C1648 C 0.75123 0.30496 0.62056 0.0
C1649 C 0.7623 0.29241 0.66101 0.0
N1650 N 0.75167 0.37736 0.64245 0.0
C1651 C 0.75892 0.36476 0.68293 0.0
Co1652 Co 0.51969 0.2337 0.36258 0.0
Co1653 Co 0.52133 0.13192 0.33425 0.0
O1654 O 0.52265 0.18882 0.32405 0.0
C1655 C 0.47984 0.25382 0.28331 0.0
O1656 O 0.46291 0.21647 0.27956 0.0
C1657 C 0.5835 0.13959 0.25185 0.0
O1658 O 0.56489 0.17306 0.23616 0.0
O1659 O 0.56669 0.14018 0.38274 0.0
O1660 O 0.54746 0.20296 0.40943 0.0
H1661 H 0.52325 0.99374 0.40909 0.0
H1662 H 0.56151 0.23951 0.27804 0.0
O1663 O 0.49325 0.26723 0.31802 0.0
H1664 H 0.67532 0.25999 0.38092 0.0
H1665 H 0.54782 0.38549 0.38482 0.0
H1666 H 0.4774 0.26019 0.44324 0.0
H1667 H 0.60102 0.26114 0.40315 0.0
H1668 H 0.5511 0.31918 0.34852 0.0
O1669 O 0.57119 0.12427 0.28833 0.0
H1670 H 0.51263 0.07115 0.40584 0.0
H1671 H 0.5286 0.0633 0.27423 0.0
H1672 H 0.46683 0.33027 0.47417 0.0
H1673 H 0.63473 0.2393 0.25433 0.0
H1674 H 0.5009 0.39305 0.44675 0.0
H1675 H 0.69243 0.24788 0.30587 0.0
O1676 O 0.46211 0.21117 0.38421 0.0
H1677 H 0.45686 0.14596 0.18763 0.0
H1678 H 0.42572 0.11336 0.33435 0.0
H1679 H 0.36879 0.13601 0.28835 0.0
H1680 H 0.38402 0.15522 0.21444 0.0
H1681 H 0.51169 0.12205 0.23478 0.0
H1682 H 0.54662 0.98965 0.27934 0.0
H1683 H 0.5521 0.95527 0.34903 0.0
O1684 O 0.47232 0.14042 0.38032 0.0
C1685 C 0.57018 0.16999 0.41104 0.0
C1686 C 0.53067 0.01072 0.38116 0.0
C1687 C 0.54227 0.00752 0.30751 0.0
N1688 N 0.52234 0.07228 0.34027 0.0
C1689 C 0.52118 0.05342 0.37825 0.0
C1690 C 0.53023 0.04932 0.30491 0.0
C1691 C 0.54446 0.98839 0.34641 0.0
C1692 C 0.58585 0.24494 0.30079 0.0
N1693 N 0.57632 0.24897 0.34239 0.0
C1694 C 0.62762 0.24442 0.2871 0.0
C1695 C 0.66004 0.24952 0.31606 0.0
C1696 C 0.65035 0.25626 0.35803 0.0
C1697 C 0.60814 0.25645 0.37055 0.0
C1698 C 0.53076 0.3588 0.39702 0.0
C1699 C 0.4922 0.28768 0.42972 0.0
C1700 C 0.53455 0.31994 0.37796 0.0
N1701 N 0.51686 0.28446 0.39523 0.0
C1702 C 0.4851 0.3272 0.44715 0.0
C1703 C 0.50488 0.36282 0.43163 0.0
C1704 C 0.44948 0.17279 0.39261 0.0
C1705 C 0.45025 0.14169 0.22066 0.0
C1706 C 0.43422 0.12423 0.3036 0.0
C1707 C 0.40095 0.13583 0.27696 0.0
C1708 C 0.40937 0.14634 0.23552 0.0
N1709 N 0.47558 0.12642 0.29081 0.0
C1710 C 0.48249 0.13014 0.24851 0.0
Co1711 Co 0.8627 0.5535 0.33957 0.0
Co1712 Co 0.75956 0.55236 0.35549 0.0
O1713 O 0.80829 0.55902 0.32424 0.0
C1714 C 0.87439 0.61791 0.26308 0.0
O1715 O 0.83655 0.61575 0.24672 0.0
C1716 C 0.75101 0.50343 0.27828 0.0
O1717 O 0.78198 0.4797 0.29188 0.0
O1718 O 0.77785 0.49091 0.37356 0.0
O1719 O 0.84925 0.49668 0.37161 0.0
H1720 H 0.64367 0.53623 0.46359 0.0
H1721 H 0.82468 0.54681 0.25085 0.0
O1722 O 0.88016 0.60766 0.30275 0.0
H1723 H 0.91155 0.42214 0.27002 0.0
H1724 H 0.01651 0.56447 0.31188 0.0
H1725 H 0.9038 0.53083 0.41351 0.0
H1726 H 0.91072 0.47572 0.32396 0.0
H1727 H 0.94194 0.56581 0.29086 0.0
O1728 O 0.73536 0.532 0.30135 0.0
H1729 H 0.71749 0.5236 0.43824 0.0
H1730 H 0.68153 0.58061 0.32324 0.0
H1731 H 0.97276 0.52124 0.43344 0.0
H1732 H 0.82997 0.49744 0.19368 0.0
H1733 H 0.03469 0.54226 0.38377 0.0
H1734 H 0.86959 0.43134 0.20451 0.0
O1735 O 0.85075 0.58771 0.39781 0.0
H1736 H 0.77068 0.67661 0.25851 0.0
H1737 H 0.73783 0.63173 0.4027 0.0
H1738 H 0.74881 0.70681 0.38751 0.0
H1739 H 0.76824 0.72932 0.31533 0.0
H1740 H 0.75964 0.60161 0.27485 0.0
H1741 H 0.61424 0.60086 0.35098 0.0
H1742 H 0.59254 0.57372 0.42117 0.0
O1743 O 0.78309 0.57143 0.41095 0.0
C1744 C 0.81571 0.47443 0.37957 0.0
C1745 C 0.65338 0.54664 0.43365 0.0
C1746 C 0.63546 0.58255 0.37021 0.0
N1747 N 0.70377 0.55067 0.3789 0.0
C1748 C 0.69411 0.53874 0.41856 0.0
C1749 C 0.67427 0.57087 0.35458 0.0
C1750 C 0.62397 0.56826 0.40939 0.0
C1751 C 0.84818 0.52301 0.25363 0.0
N1752 N 0.87101 0.5178 0.28989 0.0
C1753 C 0.84867 0.49296 0.22181 0.0
C1754 C 0.87061 0.45573 0.22806 0.0
C1755 C 0.89388 0.45036 0.26467 0.0
C1756 C 0.89401 0.48173 0.29505 0.0
C1757 C 0.99209 0.55708 0.33425 0.0
C1758 C 0.92844 0.53802 0.39128 0.0
C1759 C 0.94998 0.55844 0.32294 0.0
N1760 N 0.91953 0.54962 0.35207 0.0
C1761 C 0.9691 0.53395 0.40266 0.0
C1762 C 0.00188 0.54484 0.37474 0.0
C1763 C 0.81797 0.58684 0.42367 0.0
C1764 C 0.76318 0.66693 0.29019 0.0
C1765 C 0.74479 0.64115 0.37093 0.0
C1766 C 0.75095 0.68392 0.36254 0.0
C1767 C 0.76149 0.69661 0.32209 0.0
N1768 N 0.74999 0.61163 0.34013 0.0
C1769 C 0.75655 0.62445 0.29966 0.0
Co1770 Co 0.47464 0.75308 0.36625 0.0
Co1771 Co 0.4736 0.85235 0.33101 0.0
O1772 O 0.47271 0.79564 0.32435 0.0
C1773 C 0.5205 0.73212 0.29266 0.0
O1774 O 0.5403 0.76829 0.29172 0.0
C1775 C 0.41174 0.84598 0.24687 0.0
O1776 O 0.42909 0.81199 0.23123 0.0
O1777 O 0.42734 0.84609 0.37923 0.0
O1778 O 0.44614 0.78542 0.41076 0.0
H1779 H 0.45346 0.97395 0.41211 0.0
H1780 H 0.43276 0.74754 0.28072 0.0
O1781 O 0.50346 0.71859 0.32547 0.0
H1782 H 0.31877 0.73139 0.38342 0.0
H1783 H 0.44358 0.60187 0.3856 0.0
H1784 H 0.51962 0.72313 0.44605 0.0
H1785 H 0.39292 0.72733 0.40584 0.0
H1786 H 0.44131 0.66904 0.35208 0.0
O1787 O 0.42444 0.86021 0.28371 0.0
H1788 H 0.47505 0.90513 0.4017 0.0
H1789 H 0.47151 0.9226 0.26988 0.0
H1790 H 0.5291 0.65029 0.47385 0.0
H1791 H 0.35956 0.75166 0.25701 0.0
H1792 H 0.48992 0.59118 0.44778 0.0
H1793 H 0.30183 0.74538 0.30844 0.0
O1794 O 0.5314 0.77697 0.38896 0.0
H1795 H 0.53934 0.84222 0.18453 0.0
H1796 H 0.57004 0.86867 0.33241 0.0
H1797 H 0.62718 0.8496 0.28608 0.0
H1798 H 0.61244 0.83363 0.21137 0.0
H1799 H 0.48399 0.86144 0.23198 0.0
H1800 H 0.44858 0.9951 0.27826 0.0
H1801 H 0.4328 0.02188 0.34845 0.0
O1802 O 0.5211 0.84684 0.3781 0.0
C1803 C 0.42409 0.81872 0.41005 0.0
C1804 C 0.45415 0.96445 0.38015 0.0
C1805 C 0.45208 0.97521 0.30537 0.0
N1806 N 0.47346 0.91025 0.33569 0.0
C1807 C 0.46906 0.92492 0.3747 0.0
C1808 C 0.46711 0.93472 0.30101 0.0
C1809 C 0.44406 0.99 0.34531 0.0
C1810 C 0.4084 0.7428 0.3034 0.0
N1811 N 0.41801 0.73813 0.34502 0.0
C1812 C 0.36662 0.74571 0.28974 0.0
C1813 C 0.33415 0.74189 0.31862 0.0
C1814 C 0.34373 0.73413 0.36053 0.0
C1815 C 0.38594 0.73197 0.3731 0.0
C1816 C 0.45989 0.62805 0.39983 0.0
C1817 C 0.50241 0.69685 0.43299 0.0
C1818 C 0.45709 0.66766 0.38198 0.0
N1819 N 0.47592 0.70237 0.39993 0.0
C1820 C 0.50883 0.65618 0.44874 0.0
C1821 C 0.48617 0.6221 0.43385 0.0
C1822 C 0.54331 0.81619 0.3943 0.0
C1823 C 0.54584 0.84463 0.2178 0.0
C1824 C 0.56147 0.85896 0.30135 0.0
C1825 C 0.595 0.84936 0.27452 0.0
C1826 C 0.58685 0.84057 0.23267 0.0
N1827 N 0.52007 0.85648 0.28824 0.0
C1828 C 0.51327 0.85366 0.24582 0.0
Co1829 Co 0.128 0.43646 0.34289 0.0
Co1830 Co 0.23141 0.43696 0.3597 0.0
O1831 O 0.18235 0.42968 0.32851 0.0
C1832 C 0.11548 0.37151 0.26552 0.0
O1833 O 0.15353 0.3732 0.24986 0.0
C1834 C 0.23768 0.48641 0.28326 0.0
O1835 O 0.20669 0.50996 0.29679 0.0
O1836 O 0.21374 0.49801 0.37809 0.0
O1837 O 0.14242 0.4936 0.37457 0.0
H1838 H 0.34861 0.45543 0.46675 0.0
H1839 H 0.16729 0.44175 0.25554 0.0
O1840 O 0.10945 0.38228 0.30523 0.0
H1841 H 0.07494 0.56383 0.26541 0.0
H1842 H 0.97405 0.4289 0.31414 0.0
H1843 H 0.08702 0.46183 0.41631 0.0
H1844 H 0.07957 0.51447 0.32396 0.0
H1845 H 0.04864 0.4248 0.29431 0.0
O1846 O 0.2541 0.45805 0.30617 0.0
H1847 H 0.27433 0.46631 0.44181 0.0
H1848 H 0.30978 0.41073 0.32634 0.0
H1849 H 0.01757 0.47422 0.43497 0.0
H1850 H 0.16055 0.48763 0.19537 0.0
H1851 H 0.95605 0.45302 0.38514 0.0
H1852 H 0.11709 0.55159 0.20073 0.0
O1853 O 0.13985 0.40263 0.40179 0.0
H1854 H 0.22094 0.31374 0.26208 0.0
H1855 H 0.25472 0.35765 0.40637 0.0
H1856 H 0.24496 0.28259 0.39084 0.0
H1857 H 0.22552 0.26041 0.31844 0.0
H1858 H 0.23095 0.38867 0.27875 0.0
H1859 H 0.37898 0.39426 0.35269 0.0
H1860 H 0.40096 0.42106 0.42258 0.0
O1861 O 0.20831 0.41713 0.41481 0.0
C1862 C 0.17632 0.51509 0.38363 0.0
C1863 C 0.33924 0.44608 0.43621 0.0
C1864 C 0.35723 0.41124 0.37235 0.0
N1865 N 0.28763 0.43954 0.38248 0.0
C1866 C 0.29788 0.4523 0.42175 0.0
C1867 C 0.31737 0.42079 0.35758 0.0
C1868 C 0.36903 0.42578 0.41137 0.0
C1869 C 0.14325 0.46515 0.25675 0.0
N1870 N 0.12023 0.47163 0.29247 0.0
C1871 C 0.14172 0.49315 0.22308 0.0
C1872 C 0.11793 0.52949 0.22651 0.0
C1873 C 0.09441 0.53631 0.26261 0.0
C1874 C 0.09627 0.50731 0.29545 0.0
C1875 C -0.00146 0.43603 0.33666 0.0
C1876 C 0.06234 0.455 0.39388 0.0
C1877 C 0.04063 0.43291 0.32607 0.0
N1878 N 0.07119 0.44161 0.35526 0.0
C1879 C 0.02164 0.4609 0.40449 0.0
C1880 C 0.98884 0.44978 0.37651 0.0
C1881 C 0.17304 0.40266 0.42755 0.0
C1882 C 0.2288 0.32317 0.29376 0.0
C1883 C 0.24774 0.34841 0.37455 0.0
C1884 C 0.24229 0.30564 0.36594 0.0
C1885 C 0.23164 0.29316 0.32542 0.0
N1886 N 0.24172 0.37812 0.34393 0.0
C1887 C 0.23483 0.36563 0.30342 0.0
Co1888 Co 0.64447 0.51637 0.76659 0.0
Co1889 Co 0.65707 0.51462 0.86537 0.0
O1890 O 0.67758 0.51029 0.81392 0.0
C1891 C 0.73318 0.49596 0.74065 0.0
O1892 O 0.75224 0.51592 0.7711 0.0
C1893 C 0.72439 0.58559 0.8956 0.0
O1894 O 0.69778 0.61056 0.91487 0.0
O1895 O 0.61668 0.56703 0.84801 0.0
O1896 O 0.59059 0.541 0.78968 0.0
H1897 H 0.55123 0.56219 0.95598 0.0
H1898 H 0.71865 0.57134 0.79989 0.0
O1899 O 0.69369 0.49021 0.73944 0.0
H1900 H 0.62043 0.66886 0.73174 0.0
H1901 H 0.67006 0.54349 0.61998 0.0
H1902 H 0.57397 0.47389 0.7193 0.0
H1903 H 0.60638 0.59369 0.73022 0.0
H1904 H 0.67834 0.55322 0.69249 0.0
O1905 O 0.71049 0.55234 0.8767 0.0
H1906 H 0.57411 0.52504 0.89732 0.0
H1907 H 0.6992 0.52226 0.94466 0.0
H1908 H 0.56928 0.46093 0.64258 0.0
H1909 H 0.7363 0.64471 0.79694 0.0
H1910 H 0.60872 0.50125 0.59328 0.0
H1911 H 0.68641 0.69589 0.76474 0.0
O1912 O 0.61971 0.45825 0.78261 0.0
H1913 H 0.81001 0.43677 0.89501 0.0
H1914 H 0.6303 0.42812 0.89923 0.0
H1915 H 0.70537 0.37103 0.93681 0.0
H1916 H 0.74892 0.34194 0.95655 0.0
H1917 H 0.75507 0.49447 0.86242 0.0
H1918 H 0.67342 0.543 0.01086 0.0
H1919 H 0.60544 0.57364 0.01904 0.0
O1920 O 0.60872 0.47372 0.85082 0.0
C1921 C 0.58667 0.56694 0.81961 0.0
C1922 C 0.58373 0.55312 0.95647 0.0
C1923 C 0.65325 0.54549 0.98534 0.0
N1924 N 0.63756 0.521 0.9185 0.0
C1925 C 0.59642 0.53102 0.92229 0.0
C1926 C 0.66611 0.52831 0.94892 0.0
C1927 C 0.61278 0.56003 0.98924 0.0
C1928 C 0.6986 0.59101 0.78144 0.0
N1929 N 0.6638 0.5757 0.76094 0.0
C1930 C 0.70781 0.63393 0.78195 0.0
C1931 C 0.67994 0.66242 0.76372 0.0
C1932 C 0.64341 0.64741 0.74482 0.0
C1933 C 0.63588 0.60417 0.74375 0.0
C1934 C 0.64632 0.53076 0.64049 0.0
C1935 C 0.59346 0.4909 0.69734 0.0
C1936 C 0.65019 0.53688 0.68273 0.0
N1937 N 0.62296 0.51841 0.71091 0.0
C1938 C 0.59015 0.48336 0.65457 0.0
C1939 C 0.61399 0.50574 0.62618 0.0
C1940 C 0.60469 0.44811 0.81965 0.0
C1941 C 0.77644 0.4331 0.90179 0.0
C1942 C 0.66373 0.42639 0.90238 0.0
C1943 C 0.67832 0.38202 0.92908 0.0
C1944 C 0.73339 0.37149 0.93766 0.0
N1945 N 0.69198 0.46324 0.88299 0.0
C1946 C 0.74171 0.46848 0.87967 0.0
Co1947 Co 0.477 0.62973 0.75789 0.0
Co1948 Co 0.47749 0.65784 0.85692 0.0
O1949 O 0.47506 0.66809 0.80185 0.0
C1950 C 0.49251 0.71428 0.73335 0.0
O1951 O 0.50407 0.73492 0.76709 0.0
C1952 C 0.41654 0.74194 0.8513 0.0
O1953 O 0.43797 0.76 0.82108 0.0
O1954 O 0.43194 0.60928 0.84972 0.0
O1955 O 0.451 0.5813 0.78807 0.0
H1956 H 0.47303 0.56739 0.9747 0.0
H1957 H 0.42277 0.71137 0.76523 0.0
O1958 O 0.50379 0.67649 0.72756 0.0
H1959 H 0.32476 0.59759 0.73079 0.0
H1960 H 0.4464 0.61061 0.60773 0.0
H1961 H 0.51614 0.54724 0.73088 0.0
H1962 H 0.40085 0.58543 0.72684 0.0
H1963 H 0.4475 0.64715 0.67388 0.0
O1964 O 0.42762 0.70421 0.86515 0.0
H1965 H 0.48835 0.58452 0.90592 0.0
H1966 H 0.46625 0.71401 0.93024 0.0
H1967 H 0.52209 0.51452 0.66123 0.0
H1968 H 0.34817 0.726 0.76357 0.0
H1969 H 0.48702 0.5436 0.59974 0.0
H1970 H 0.29779 0.66853 0.7486 0.0
O1971 O 0.53526 0.60809 0.77783 0.0
H1972 H 0.53697 0.8065 0.84865 0.0
H1973 H 0.57559 0.6584 0.86555 0.0
H1974 H 0.62821 0.70785 0.84119 0.0
H1975 H 0.60883 0.78264 0.82914 0.0
H1976 H 0.48717 0.75559 0.87699 0.0
H1977 H 0.44355 0.69739 0.00131 0.0
H1978 H 0.44135 0.62432 0.02474 0.0
O1979 O 0.52594 0.61137 0.84782 0.0
C1980 C 0.42899 0.5797 0.82129 0.0
C1981 C 0.46784 0.59966 0.96656 0.0
C1982 C 0.45163 0.6725 0.98011 0.0
N1983 N 0.47796 0.6498 0.91437 0.0
C1984 C 0.47976 0.60954 0.92704 0.0
C1985 C 0.46622 0.68169 0.94041 0.0
C1986 C 0.45122 0.63093 0.99308 0.0
C1987 C 0.40281 0.68669 0.75449 0.0
N1988 N 0.41827 0.64763 0.74439 0.0
C1989 C 0.35959 0.69514 0.75471 0.0
C1990 C 0.33128 0.66299 0.74605 0.0
C1991 C 0.34647 0.62339 0.7357 0.0
C1992 C 0.38997 0.61664 0.73395 0.0
C1993 C 0.46279 0.59663 0.63393 0.0
C1994 C 0.5017 0.56166 0.70367 0.0
C1995 C 0.46242 0.61667 0.67225 0.0
N1996 N 0.47973 0.5981 0.70703 0.0
C1997 C 0.50584 0.54304 0.66447 0.0
C1998 C 0.48564 0.55965 0.62961 0.0
C1999 C 0.5479 0.59845 0.81556 0.0
C2000 C 0.54482 0.77333 0.84953 0.0
C2001 C 0.56487 0.68956 0.85819 0.0
C2002 C 0.59597 0.71819 0.84558 0.0
C2003 C 0.58524 0.7601 0.83916 0.0
N2004 N 0.52326 0.70132 0.86193 0.0
C2005 C 0.51522 0.74365 0.86338 0.0
Co2006 Co 0.35361 0.47153 0.7764 0.0
Co2007 Co 0.34677 0.4789 0.87887 0.0
O2008 O 0.32305 0.47829 0.82659 0.0
C2009 C 0.26465 0.49447 0.74847 0.0
O2010 O 0.24447 0.47626 0.77923 0.0
C2011 C 0.27409 0.40444 0.90643 0.0
O2012 O 0.29224 0.37372 0.92739 0.0
O2013 O 0.39144 0.42965 0.86366 0.0
O2014 O 0.40765 0.44567 0.79829 0.0
H2015 H 0.47136 0.48975 0.97111 0.0
H2016 H 0.27679 0.42097 0.80934 0.0
O2017 O 0.30438 0.49904 0.74847 0.0
H2018 H 0.36894 0.31798 0.74221 0.0
H2019 H 0.32433 0.44378 0.62948 0.0
H2020 H 0.42017 0.51561 0.7275 0.0
H2021 H 0.38958 0.39184 0.74454 0.0
H2022 H 0.32009 0.43016 0.70193 0.0
O2023 O 0.29719 0.43597 0.8932 0.0
H2024 H 0.43234 0.49983 0.90842 0.0
H2025 H 0.32617 0.43783 0.96112 0.0
H2026 H 0.41689 0.53618 0.65402 0.0
H2027 H 0.25025 0.35091 0.79741 0.0
H2028 H 0.37852 0.49365 0.60278 0.0
H2029 H 0.29785 0.29623 0.76733 0.0
O2030 O 0.38126 0.52889 0.78838 0.0
H2031 H 0.20165 0.52711 0.9563 0.0
H2032 H 0.33655 0.576 0.84982 0.0
H2033 H 0.25152 0.62164 0.88134 0.0
H2034 H 0.20392 0.64303 0.90168 0.0
H2035 H 0.27137 0.48282 0.94139 0.0
H2036 H 0.37236 0.41456 0.01769 0.0
H2037 H 0.43785 0.45342 0.03215 0.0
O2038 O 0.38998 0.52419 0.85886 0.0
C2039 C 0.4166 0.42526 0.83146 0.0
C2040 C 0.43928 0.47878 0.9698 0.0
C2041 C 0.38185 0.43926 -0.00263 0.0
N2042 N 0.37352 0.4759 0.93266 0.0
C2043 C 0.41556 0.48627 0.93424 0.0
C2044 C 0.35724 0.45067 0.96321 0.0
C2045 C 0.42087 0.45768 0.00307 0.0
C2046 C 0.29525 0.40044 0.79034 0.0
N2047 N 0.33218 0.41326 0.77239 0.0
C2048 C 0.28142 0.359 0.78675 0.0
C2049 C 0.30782 0.32879 0.76933 0.0
C2050 C 0.34731 0.34088 0.75484 0.0
C2051 C 0.35891 0.38318 0.75654 0.0
C2052 C 0.34764 0.45764 0.64991 0.0
C2053 C 0.39961 0.49903 0.70624 0.0
C2054 C 0.34665 0.44878 0.69207 0.0
N2055 N 0.3735 0.46835 0.72003 0.0
C2056 C 0.39898 0.51035 0.66427 0.0
C2057 C 0.37586 0.48725 0.63563 0.0
C2058 C 0.39836 0.54206 0.82324 0.0
C2059 C 0.22534 0.5416 0.93682 0.0
C2060 C 0.3106 0.57158 0.8701 0.0
C2061 C 0.27808 0.61511 0.86824 0.0
C2062 C 0.22956 0.61504 0.89813 0.0
N2063 N 0.30501 0.52761 0.89459 0.0
C2064 C 0.26877 0.5122 0.92508 0.0
Co2065 Co 0.52143 0.36086 0.76421 0.0
Co2066 Co 0.52735 0.33328 0.86492 0.0
O2067 O 0.52654 0.3236 0.8087 0.0
C2068 C 0.50223 0.27601 0.73762 0.0
O2069 O 0.49909 0.25686 0.77378 0.0
C2070 C 0.58516 0.24864 0.85483 0.0
O2071 O 0.56425 0.23328 0.82286 0.0
O2072 O 0.5733 0.38186 0.85381 0.0
O2073 O 0.54886 0.40858 0.79261 0.0
H2074 H 0.58561 0.38449 0.00428 0.0
H2075 H 0.57424 0.27883 0.76559 0.0
O2076 O 0.49326 0.31466 0.7334 0.0
H2077 H 0.67219 0.39137 0.72732 0.0
H2078 H 0.54337 0.38412 0.61289 0.0
H2079 H 0.47813 0.44184 0.74014 0.0
H2080 H 0.59608 0.405 0.72825 0.0
H2081 H 0.5476 0.3459 0.6782 0.0
O2082 O 0.57508 0.28548 0.8707 0.0
H2083 H 0.56253 0.39523 0.92866 0.0
H2084 H 0.51225 0.27144 0.93299 0.0
H2085 H 0.46478 0.47385 0.67122 0.0
H2086 H 0.64849 0.26301 0.76095 0.0
H2087 H 0.49584 0.4466 0.60746 0.0
H2088 H 0.69889 0.31988 0.7443 0.0
O2089 O 0.46506 0.38239 0.78887 0.0
H2090 H 0.45996 0.18917 0.84166 0.0
H2091 H 0.42959 0.33538 0.8776 0.0
H2092 H 0.37515 0.29354 0.84418 0.0
H2093 H 0.39034 0.22001 0.82305 0.0
H2094 H 0.51301 0.23303 0.87482 0.0
H2095 H 0.53198 0.26326 0.00469 0.0
H2096 H 0.56799 0.32172 0.04143 0.0
O2097 O 0.47998 0.38194 0.85878 0.0
C2098 C 0.57408 0.41046 0.82346 0.0
C2099 C 0.56813 0.36148 0.98732 0.0
C2100 C 0.53834 0.29268 0.98864 0.0
N2101 N 0.53246 0.33569 0.92591 0.0
C2102 C 0.55466 0.36683 0.94543 0.0
C2103 C 0.52606 0.29836 0.94718 0.0
C2104 C 0.55877 0.32498 0.00903 0.0
C2105 C 0.59418 0.30342 0.75506 0.0
N2106 N 0.57894 0.343 0.74693 0.0
C2107 C 0.63716 0.29425 0.75316 0.0
C2108 C 0.66546 0.32607 0.74342 0.0
C2109 C 0.65039 0.36602 0.73385 0.0
C2110 C 0.60699 0.37363 0.73491 0.0
C2111 C 0.52683 0.39584 0.63994 0.0
C2112 C 0.49105 0.42809 0.71205 0.0
C2113 C 0.53112 0.37562 0.67795 0.0
N2114 N 0.51518 0.39294 0.71386 0.0
C2115 C 0.4824 0.44612 0.67331 0.0
C2116 C 0.50048 0.43059 0.63715 0.0
C2117 C 0.45581 0.39409 0.82708 0.0
C2118 C 0.45406 0.2224 0.84645 0.0
C2119 C 0.43873 0.30514 0.86594 0.0
C2120 C 0.40658 0.28072 0.84809 0.0
C2121 C 0.41497 0.2395 0.83644 0.0
N2122 N 0.47969 0.29097 0.86831 0.0
C2123 C 0.48547 0.24838 0.86343 0.0
Co2124 Co 0.64164 0.47296 0.21002 0.0
Co2125 Co 0.64531 0.48238 0.10684 0.0
O2126 O 0.671 0.47821 0.15843 0.0
C2127 C 0.73048 0.49332 0.23887 0.0
O2128 O 0.75032 0.47097 0.21088 0.0
C2129 C 0.71891 0.40861 0.07294 0.0
O2130 O 0.70483 0.37837 0.04863 0.0
O2131 O 0.59982 0.43416 0.12229 0.0
O2132 O 0.58762 0.44678 0.18952 0.0
H2133 H 0.51319 0.49306 0.02514 0.0
H2134 H 0.71613 0.42093 0.17393 0.0
O2135 O 0.6914 0.50134 0.23614 0.0
H2136 H 0.62637 0.32007 0.24784 0.0
H2137 H 0.67172 0.44577 0.35753 0.0
H2138 H 0.57343 0.51464 0.25928 0.0
H2139 H 0.60631 0.39399 0.24468 0.0
H2140 H 0.6775 0.4339 0.28446 0.0
O2141 O 0.69153 0.43707 0.08622 0.0
H2142 H 0.55755 0.50504 0.08343 0.0
H2143 H 0.66251 0.45214 0.01984 0.0
H2144 H 0.57475 0.53372 0.33321 0.0
H2145 H 0.74287 0.35114 0.18706 0.0
H2146 H 0.61486 0.49263 0.38407 0.0
H2147 H 0.69607 0.29728 0.22022 0.0
O2148 O 0.61346 0.53056 0.19921 0.0
H2149 H 0.79185 0.52931 0.03304 0.0
H2150 H 0.65792 0.57805 0.13919 0.0
H2151 H 0.74267 0.62372 0.10755 0.0
H2152 H 0.79037 0.64519 0.08736 0.0
H2153 H 0.72168 0.48673 0.04493 0.0
H2154 H 0.61628 0.43746 0.96163 0.0
H2155 H 0.54227 0.46005 0.96044 0.0
O2156 O 0.60441 0.52782 0.12923 0.0
C2157 C 0.57689 0.42824 0.15592 0.0
C2158 C 0.54622 0.48551 0.02247 0.0
C2159 C 0.60471 0.45567 0.98646 0.0
N2160 N 0.61537 0.48427 0.05435 0.0
C2161 C 0.57302 0.49393 0.05576 0.0
C2162 C 0.63065 0.46338 0.02065 0.0
C2163 C 0.56232 0.46653 0.98713 0.0
C2164 C 0.69852 0.40099 0.19459 0.0
N2165 N 0.66288 0.4146 0.21438 0.0
C2166 C 0.71224 0.35958 0.19875 0.0
C2167 C 0.68635 0.32989 0.21796 0.0
C2168 C 0.64768 0.34257 0.23387 0.0
C2169 C 0.63651 0.38497 0.23188 0.0
C2170 C 0.64827 0.45916 0.3369 0.0
C2171 C 0.59459 0.49875 0.28059 0.0
C2172 C 0.65037 0.45148 0.29459 0.0
N2173 N 0.62275 0.47009 0.26674 0.0
C2174 C 0.59421 0.50922 0.32269 0.0
C2175 C 0.61826 0.48687 0.35122 0.0
C2176 C 0.59595 0.54458 0.16493 0.0
C2177 C 0.76754 0.5448 0.05055 0.0
C2178 C 0.68342 0.57375 0.11849 0.0
C2179 C 0.71623 0.61705 0.12083 0.0
C2180 C 0.76438 0.61737 0.09041 0.0
N2181 N 0.68823 0.53046 0.09276 0.0
C2182 C 0.72427 0.51544 0.0621 0.0
Co2183 Co 0.5158 0.63064 0.22965 0.0
Co2184 Co 0.51551 0.66 0.13116 0.0
O2185 O 0.51785 0.66967 0.18612 0.0
C2186 C 0.50302 0.71423 0.25558 0.0
O2187 O 0.49151 0.7387 0.22432 0.0
C2188 C 0.57671 0.74384 0.1366 0.0
O2189 O 0.55618 0.76144 0.16753 0.0
O2190 O 0.5618 0.61184 0.13879 0.0
O2191 O 0.54223 0.58254 0.19981 0.0
H2192 H 0.53592 0.57167 0.01673 0.0
H2193 H 0.57133 0.71176 0.22131 0.0
O2194 O 0.48828 0.67733 0.25893 0.0
H2195 H 0.66749 0.59701 0.25695 0.0
H2196 H 0.54615 0.60935 0.37977 0.0
H2197 H 0.47639 0.54805 0.25587 0.0
H2198 H 0.59134 0.58599 0.26185 0.0
H2199 H 0.54534 0.64688 0.31398 0.0
O2200 O 0.56501 0.70652 0.12258 0.0
H2201 H 0.51126 0.58696 0.0826 0.0
H2202 H 0.52017 0.71803 0.05831 0.0
H2203 H 0.47048 0.51415 0.32498 0.0
H2204 H 0.64601 0.72535 0.2224 0.0
H2205 H 0.50559 0.54209 0.38687 0.0
H2206 H 0.69549 0.66726 0.2377 0.0
O2207 O 0.45766 0.60898 0.20918 0.0
H2208 H 0.45306 0.80773 0.14082 0.0
H2209 H 0.41791 0.65932 0.11992 0.0
H2210 H 0.36345 0.70715 0.14305 0.0
H2211 H 0.38078 0.78211 0.15655 0.0
H2212 H 0.50508 0.75854 0.11463 0.0
H2213 H 0.54766 0.70457 0.98835 0.0
H2214 H 0.56218 0.632 0.96674 0.0
O2215 O 0.46757 0.61296 0.13938 0.0
C2216 C 0.56501 0.58196 0.16711 0.0
C2217 C 0.53594 0.60441 0.02396 0.0
C2218 C 0.54188 0.67874 0.00939 0.0
N2219 N 0.51504 0.65284 0.07389 0.0
C2220 C 0.51891 0.61273 0.06178 0.0
C2221 C 0.52421 0.686 0.0482 0.0
C2222 C 0.54928 0.63749 -0.00251 0.0
C2223 C 0.59082 0.68696 0.23253 0.0
N2224 N 0.57467 0.64833 0.24352 0.0
C2225 C 0.63415 0.6948 0.23194 0.0
C2226 C 0.66197 0.66233 0.24085 0.0
C2227 C 0.64619 0.62312 0.25203 0.0
C2228 C 0.6026 0.61707 0.25437 0.0
C2229 C 0.5298 0.59579 0.35338 0.0
C2230 C 0.49076 0.56207 0.28326 0.0
C2231 C 0.53009 0.61656 0.31534 0.0
N2232 N 0.51267 0.59862 0.28037 0.0
C2233 C 0.48667 0.54274 0.32218 0.0
C2234 C 0.50692 0.55872 0.35723 0.0
C2235 C 0.44531 0.59972 0.17132 0.0
C2236 C 0.44588 0.77441 0.13925 0.0
C2237 C 0.42778 0.69048 0.12835 0.0
C2238 C 0.39566 0.7182 0.14018 0.0
C2239 C 0.40526 0.76021 0.14746 0.0
N2240 N 0.4693 0.70308 0.12644 0.0
C2241 C 0.47674 0.74559 0.1267 0.0
Co2242 Co 0.34763 0.51754 0.21883 0.0
Co2243 Co 0.33637 0.51672 0.11934 0.0
O2244 O 0.31496 0.51209 0.17078 0.0
C2245 C 0.25907 0.49731 0.24522 0.0
O2246 O 0.23992 0.51876 0.21578 0.0
C2247 C 0.26856 0.58649 0.08854 0.0
O2248 O 0.29353 0.61128 0.06686 0.0
O2249 O 0.37715 0.56855 0.13749 0.0
O2250 O 0.40175 0.5425 0.19659 0.0
H2251 H 0.44921 0.55234 0.03072 0.0
H2252 H 0.27398 0.57291 0.18496 0.0
O2253 O 0.2984 0.49072 0.24545 0.0
H2254 H 0.37142 0.66935 0.2552 0.0
H2255 H 0.32321 0.54409 0.3662 0.0
H2256 H 0.41777 0.4745 0.26581 0.0
H2257 H 0.38554 0.59433 0.25591 0.0
H2258 H 0.31353 0.55337 0.29345 0.0
O2259 O 0.28403 0.55436 0.10776 0.0
H2260 H 0.41982 0.52445 0.09081 0.0
H2261 H 0.29751 0.52579 0.03638 0.0
H2262 H 0.42313 0.46094 0.34211 0.0
H2263 H 0.2554 0.64586 0.19006 0.0
H2264 H 0.38481 0.50176 0.39209 0.0
H2265 H 0.30521 0.69676 0.22282 0.0
O2266 O 0.37263 0.45984 0.20311 0.0
H2267 H 0.18253 0.44072 0.09043 0.0
H2268 H 0.36199 0.43207 0.08317 0.0
H2269 H 0.2859 0.37315 0.05001 0.0
H2270 H 0.24228 0.34352 0.03149 0.0
H2271 H 0.23763 0.49844 0.12071 0.0
H2272 H 0.33028 0.53808 0.96877 0.0
H2273 H 0.40044 0.5639 0.96409 0.0
O2274 O 0.3837 0.47494 0.13466 0.0
C2275 C 0.40641 0.56842 0.16664 0.0
C2276 C 0.41581 0.54755 0.02928 0.0
C2277 C 0.34789 0.54207 -0.00367 0.0
N2278 N 0.35731 0.52335 0.06645 0.0
C2279 C 0.39925 0.53016 0.06437 0.0
C2280 C 0.33113 0.52982 0.03366 0.0
C2281 C 0.38943 0.55415 -0.00563 0.0
C2282 C 0.29361 0.59223 0.20419 0.0
N2283 N 0.32824 0.57667 0.2248 0.0
C2284 C 0.28409 0.63504 0.2046 0.0
C2285 C 0.31184 0.66332 0.22325 0.0
C2286 C 0.34845 0.64812 0.24187 0.0
C2287 C 0.35607 0.60492 0.24241 0.0
C2288 C 0.34647 0.53122 0.34532 0.0
C2289 C 0.3985 0.49143 0.28792 0.0
C2290 C 0.34177 0.53707 0.30304 0.0
N2291 N 0.36882 0.51889 0.27464 0.0
C2292 C 0.40223 0.48365 0.33058 0.0
C2293 C 0.37902 0.50621 0.35925 0.0
C2294 C 0.38822 0.45002 0.16638 0.0
C2295 C 0.21558 0.4371 0.08207 0.0
C2296 C 0.32836 0.42912 0.08219 0.0
C2297 C 0.31306 0.38398 0.05737 0.0
C2298 C 0.25803 0.37389 0.04887 0.0
N2299 N 0.30054 0.46655 0.10062 0.0
C2300 C 0.25079 0.47262 0.10329 0.0
Co2301 Co 0.47186 0.36241 0.22228 0.0
Co2302 Co 0.46702 0.33809 0.12086 0.0
O2303 O 0.46766 0.32592 0.1768 0.0
C2304 C 0.49237 0.27763 0.24706 0.0
O2305 O 0.49762 0.2591 0.21084 0.0
C2306 C 0.41114 0.25127 0.12934 0.0
O2307 O 0.43595 0.23453 0.15777 0.0
O2308 O 0.42133 0.38584 0.13212 0.0
O2309 O 0.44337 0.41032 0.19485 0.0
H2310 H 0.49028 0.41485 0.98464 0.0
H2311 H 0.42062 0.27942 0.21733 0.0
O2312 O 0.50103 0.31621 0.2521 0.0
H2313 H 0.32044 0.38813 0.26 0.0
H2314 H 0.44925 0.38231 0.37435 0.0
H2315 H 0.51449 0.44307 0.24801 0.0
H2316 H 0.39608 0.404 0.25839 0.0
H2317 H 0.4451 0.34552 0.30823 0.0
O2318 O 0.41833 0.28994 0.11543 0.0
H2319 H 0.49326 0.40715 0.06118 0.0
H2320 H 0.44164 0.28415 0.04822 0.0
H2321 H 0.52806 0.47346 0.31728 0.0
H2322 H 0.34689 0.2615 0.22312 0.0
H2323 H 0.49576 0.44556 0.38048 0.0
H2324 H 0.29539 0.3163 0.24223 0.0
O2325 O 0.528 0.38576 0.19873 0.0
H2326 H 0.52317 0.19045 0.12835 0.0
H2327 H 0.56646 0.33762 0.1195 0.0
H2328 H 0.61342 0.28745 0.15256 0.0
H2329 H 0.59075 0.21308 0.16091 0.0
H2330 H 0.47866 0.24307 0.09276 0.0
H2331 H 0.43306 0.29513 0.9738 0.0
H2332 H 0.45173 0.36327 0.9418 0.0
O2333 O 0.51435 0.38557 0.12888 0.0
C2334 C 0.41922 0.41304 0.16321 0.0
C2335 C 0.47653 0.3877 -0.00061 0.0
C2336 C 0.44331 0.32066 -0.00674 0.0
N2337 N 0.46474 0.34643 0.06083 0.0
C2338 C 0.47941 0.38235 0.04271 0.0
C2339 C 0.44906 0.31478 0.03605 0.0
C2340 C 0.45533 0.35833 0.97512 0.0
C2341 C 0.40031 0.30309 0.22938 0.0
N2342 N 0.4147 0.34273 0.2388 0.0
C2343 C 0.35759 0.29274 0.23166 0.0
C2344 C 0.32865 0.32344 0.24268 0.0
C2345 C 0.34281 0.36356 0.25278 0.0
C2346 C 0.38597 0.3724 0.25141 0.0
C2347 C 0.46527 0.39501 0.34731 0.0
C2348 C 0.50135 0.42872 0.27579 0.0
C2349 C 0.46126 0.37542 0.30896 0.0
N2350 N 0.47726 0.39351 0.27333 0.0
C2351 C 0.50991 0.44601 0.31479 0.0
C2352 C 0.49128 0.43004 0.35059 0.0
C2353 C 0.53753 0.39789 0.16075 0.0
C2354 C 0.53175 0.22344 0.12867 0.0
C2355 C 0.5541 0.30678 0.12512 0.0
C2356 C 0.58219 0.27767 0.14262 0.0
C2357 C 0.56969 0.23601 0.1469 0.0
N2358 N 0.51346 0.29577 0.11446 0.0
C2359 C 0.50552 0.25375 0.10991 0.0
Co2360 Co 0.86447 0.64495 0.54789 0.0
Co2361 Co 0.76148 0.62932 0.54847 0.0
O2362 O 0.81044 0.66039 0.55518 0.0
C2363 C 0.87679 0.72253 0.61084 0.0
O2364 O 0.8381 0.73683 0.61239 0.0
C2365 C 0.75479 0.70574 0.49854 0.0
O2366 O 0.78505 0.69088 0.47501 0.0
O2367 O 0.77858 0.61069 0.48746 0.0
O2368 O 0.84979 0.61243 0.49185 0.0
H2369 H 0.64699 0.52108 0.52787 0.0
H2370 H 0.82817 0.73467 0.54312 0.0
O2371 O 0.88342 0.68282 0.60067 0.0
H2372 H 0.906 0.71366 0.41391 0.0
H2373 H 0.01776 0.67451 0.55354 0.0
H2374 H 0.90548 0.56958 0.52645 0.0
H2375 H 0.90874 0.66024 0.46816 0.0
H2376 H 0.94287 0.69449 0.55462 0.0
O2377 O 0.73827 0.68343 0.52728 0.0
H2378 H 0.72058 0.54721 0.51859 0.0
H2379 H 0.68284 0.6619 0.57547 0.0
H2380 H 0.97553 0.5494 0.51866 0.0
H2381 H 0.83097 0.79183 0.49325 0.0
H2382 H 0.03635 0.60124 0.5372 0.0
H2383 H 0.8658 0.78023 0.42511 0.0
O2384 O 0.85302 0.58677 0.5832 0.0
H2385 H 0.76802 0.72922 0.67039 0.0
H2386 H 0.73868 0.58292 0.62808 0.0
H2387 H 0.74541 0.60001 0.70282 0.0
H2388 H 0.76229 0.67351 0.72435 0.0
H2389 H 0.76134 0.71095 0.59583 0.0
H2390 H 0.61506 0.6335 0.59245 0.0
H2391 H 0.59357 0.56402 0.56246 0.0
O2392 O 0.78472 0.57382 0.56879 0.0
C2393 C 0.81579 0.60489 0.47019 0.0
C2394 C 0.65582 0.55119 0.53901 0.0
C2395 C 0.63673 0.61439 0.57495 0.0
N2396 N 0.70594 0.60606 0.54616 0.0
C2397 C 0.69669 0.56655 0.5331 0.0
C2398 C 0.67599 0.63028 0.56541 0.0
C2399 C 0.62552 0.57545 0.55922 0.0
C2400 C 0.84997 0.73152 0.51805 0.0
N2401 N 0.87173 0.69476 0.51171 0.0
C2402 C 0.8489 0.76334 0.48785 0.0
C2403 C 0.868 0.75657 0.44944 0.0
C2404 C 0.8907 0.71967 0.44316 0.0
C2405 C 0.89264 0.68939 0.47472 0.0
C2406 C 0.99345 0.65124 0.54831 0.0
C2407 C 0.9301 0.59233 0.53262 0.0
C2408 C 0.95132 0.66212 0.54918 0.0
N2409 N 0.92104 0.63218 0.54235 0.0
C2410 C 0.97098 0.58089 0.52966 0.0
C2411 C 0.00346 0.60997 0.53916 0.0
C2412 C 0.81983 0.56112 0.58391 0.0
C2413 C 0.76131 0.69706 0.6613 0.0
C2414 C 0.74504 0.61511 0.63693 0.0
C2415 C 0.7486 0.62463 0.67954 0.0
C2416 C 0.75781 0.66576 0.69164 0.0
N2417 N 0.75138 0.6455 0.60704 0.0
C2418 C 0.75726 0.68647 0.61902 0.0
Co2419 Co 0.8657 0.34459 0.43406 0.0
Co2420 Co 0.76227 0.35977 0.43454 0.0
O2421 O 0.81137 0.32882 0.42741 0.0
C2422 C 0.88108 0.26772 0.37139 0.0
O2423 O 0.84379 0.24994 0.37154 0.0
C2424 C 0.75487 0.28334 0.48465 0.0
O2425 O 0.7866 0.29662 0.50749 0.0
O2426 O 0.78047 0.37829 0.4953 0.0
O2427 O 0.85169 0.37577 0.49092 0.0
H2428 H 0.65156 0.47087 0.4541 0.0
H2429 H 0.82702 0.25612 0.4394 0.0
O2430 O 0.88435 0.30818 0.38029 0.0
H2431 H 0.91779 0.26872 0.56217 0.0
H2432 H 0.01992 0.31854 0.4269 0.0
H2433 H 0.90563 0.41966 0.45739 0.0
H2434 H 0.91439 0.32637 0.51159 0.0
H2435 H 0.94568 0.29694 0.42373 0.0
O2436 O 0.73882 0.30623 0.45603 0.0
H2437 H 0.72349 0.44202 0.4649 0.0
H2438 H 0.68225 0.32856 0.40782 0.0
H2439 H 0.97499 0.44046 0.46815 0.0
H2440 H 0.83257 0.19693 0.48683 0.0
H2441 H 0.03707 0.39076 0.44922 0.0
H2442 H 0.87537 0.20391 0.55142 0.0
O2443 O 0.85303 0.40322 0.39964 0.0
H2444 H 0.77155 0.26034 0.31294 0.0
H2445 H 0.73763 0.4056 0.355 0.0
H2446 H 0.74557 0.38889 0.28032 0.0
H2447 H 0.76525 0.31611 0.25904 0.0
H2448 H 0.76334 0.27815 0.38737 0.0
H2449 H 0.61573 0.35987 0.38857 0.0
H2450 H 0.59712 0.43067 0.41682 0.0
O2451 O 0.78474 0.41502 0.41399 0.0
C2452 C 0.81791 0.38372 0.51252 0.0
C2453 C 0.6592 0.44066 0.44262 0.0
C2454 C 0.63798 0.378 0.40668 0.0
N2455 N 0.707 0.38364 0.4372 0.0
C2456 C 0.6991 0.42355 0.44985 0.0
C2457 C 0.67633 0.36043 0.41759 0.0
C2458 C 0.62835 0.41775 0.42141 0.0
C2459 C 0.85078 0.25793 0.46313 0.0
N2460 N 0.87399 0.29396 0.46911 0.0
C2461 C 0.85167 0.22476 0.4919 0.0
C2462 C 0.87506 0.229 0.52842 0.0
C2463 C 0.89881 0.2653 0.53454 0.0
C2464 C 0.89769 0.29757 0.50483 0.0
C2465 C 0.99519 0.34083 0.43353 0.0
C2466 C 0.93066 0.39755 0.45091 0.0
C2467 C 0.95326 0.32919 0.43103 0.0
N2468 N 0.92233 0.35808 0.43911 0.0
C2469 C 0.97126 0.40937 0.45589 0.0
C2470 C 0.0044 0.38147 0.44595 0.0
C2471 C 0.81935 0.42821 0.39882 0.0
C2472 C 0.76373 0.29224 0.32196 0.0
C2473 C 0.74466 0.37358 0.34617 0.0
C2474 C 0.74912 0.36431 0.30363 0.0
C2475 C 0.75985 0.32355 0.29165 0.0
N2476 N 0.75142 0.3433 0.37612 0.0
C2477 C 0.7586 0.30254 0.36416 0.0
Co2478 Co 0.64766 0.77476 0.47084 0.0
Co2479 Co 0.65063 0.87752 0.47487 0.0
O2480 O 0.67597 0.82619 0.4759 0.0
C2481 C 0.73596 0.74578 0.4881 0.0
O2482 O 0.75422 0.77014 0.4606 0.0
C2483 C 0.72578 0.90467 0.4028 0.0
O2484 O 0.70867 0.92169 0.36925 0.0
O2485 O 0.60684 0.8584 0.42587 0.0
O2486 O 0.59326 0.79282 0.44522 0.0
H2487 H 0.53151 0.97798 0.49186 0.0
H2488 H 0.71849 0.8142 0.41658 0.0
O2489 O 0.69817 0.75124 0.49968 0.0
H2490 H 0.63196 0.73114 0.31949 0.0
H2491 H 0.67381 0.62558 0.4453 0.0
H2492 H 0.5775 0.72767 0.5106 0.0
H2493 H 0.61353 0.73429 0.39367 0.0
H2494 H 0.68489 0.69932 0.43638 0.0
O2495 O 0.70117 0.89253 0.43349 0.0
H2496 H 0.56611 0.91134 0.49997 0.0
H2497 H 0.67006 0.95745 0.42921 0.0
H2498 H 0.57304 0.65318 0.52722 0.0
H2499 H 0.74214 0.80496 0.34564 0.0
H2500 H 0.61088 0.60107 0.48615 0.0
H2501 H 0.69704 0.7665 0.29418 0.0
O2502 O 0.61979 0.78774 0.52715 0.0
H2503 H 0.79095 0.9608 0.52483 0.0
H2504 H 0.66059 0.84812 0.57175 0.0
H2505 H 0.74376 0.88237 0.61756 0.0
H2506 H 0.79065 0.904 0.6395 0.0
H2507 H 0.72174 0.94415 0.48027 0.0
H2508 H 0.62707 0.01632 0.40913 0.0
H2509 H 0.56565 0.0353 0.45172 0.0
O2510 O 0.60701 0.85754 0.51858 0.0
C2511 C 0.58309 0.82443 0.42338 0.0
C2512 C 0.56167 0.9731 0.47765 0.0
C2513 C 0.61779 -0.00321 0.43447 0.0
N2514 N 0.62386 0.93139 0.47045 0.0
C2515 C 0.58307 0.9357 0.4839 0.0
C2516 C 0.64039 0.96104 0.44424 0.0
C2517 C 0.58118 0.00527 0.45571 0.0
C2518 C 0.70131 0.79254 0.39721 0.0
N2519 N 0.66826 0.76938 0.41236 0.0
C2520 C 0.71342 0.7899 0.3554 0.0
C2521 C 0.68849 0.76784 0.32699 0.0
C2522 C 0.65238 0.74767 0.3412 0.0
C2523 C 0.64257 0.74913 0.38382 0.0
C2524 C 0.6512 0.64717 0.45826 0.0
C2525 C 0.59821 0.70543 0.49559 0.0
C2526 C 0.6568 0.68963 0.45272 0.0
N2527 N 0.62917 0.7182 0.46963 0.0
C2528 C 0.59493 0.66326 0.50484 0.0
C2529 C 0.61792 0.63388 0.48263 0.0
C2530 C 0.60046 0.82233 0.53789 0.0
C2531 C 0.76773 0.94065 0.53912 0.0
C2532 C 0.6853 0.86972 0.56748 0.0
C2533 C 0.71773 0.86827 0.61082 0.0
C2534 C 0.765 0.90011 0.61147 0.0
N2535 N 0.69008 0.8953 0.52413 0.0
C2536 C 0.72483 0.92783 0.50955 0.0
Co2537 Co 0.12915 0.64463 0.43863 0.0
Co2538 Co 0.23205 0.62958 0.43883 0.0
O2539 O 0.1832 0.66051 0.43188 0.0
C2540 C 0.11849 0.72063 0.37467 0.0
O2541 O 0.15731 0.7346 0.37352 0.0
C2542 C 0.23883 0.70639 0.48828 0.0
O2543 O 0.20807 0.69171 0.5114 0.0
O2544 O 0.21458 0.61113 0.49995 0.0
O2545 O 0.14338 0.61227 0.49507 0.0
H2546 H 0.34519 0.52071 0.45999 0.0
H2547 H 0.16424 0.7355 0.44306 0.0
O2548 O 0.11117 0.68135 0.38531 0.0
H2549 H 0.08999 0.71047 0.57328 0.0
H2550 H 0.97599 0.67448 0.42947 0.0
H2551 H 0.08749 0.56962 0.4603 0.0
H2552 H 0.0853 0.65892 0.51806 0.0
H2553 H 0.05083 0.69439 0.42938 0.0
O2554 O 0.25549 0.68387 0.45985 0.0
H2555 H 0.27203 0.54741 0.46915 0.0
H2556 H 0.31093 0.6618 0.41178 0.0
H2557 H 0.01731 0.54986 0.46791 0.0
H2558 H 0.16088 0.79202 0.49323 0.0
H2559 H 0.95684 0.60168 0.44829 0.0
H2560 H 0.12751 0.77845 0.56204 0.0
O2561 O 0.14073 0.58669 0.4037 0.0
H2562 H 0.2264 0.72954 0.31645 0.0
H2563 H 0.25437 0.58298 0.35925 0.0
H2564 H 0.24699 0.60012 0.28449 0.0
H2565 H 0.2305 0.67374 0.2628 0.0
H2566 H 0.23361 0.71121 0.39106 0.0
H2567 H 0.37807 0.63262 0.39431 0.0
H2568 H 0.39892 0.56279 0.42486 0.0
O2569 O 0.20884 0.57393 0.41866 0.0
C2570 C 0.17727 0.60522 0.51709 0.0
C2571 C 0.33664 0.55068 0.44832 0.0
C2572 C 0.3564 0.61374 0.41215 0.0
N2573 N 0.28734 0.60617 0.4414 0.0
C2574 C 0.29608 0.5665 0.45442 0.0
C2575 C 0.31745 0.63009 0.4219 0.0
C2576 C 0.36716 0.57461 0.42795 0.0
C2577 C 0.14253 0.7317 0.4681 0.0
N2578 N 0.12133 0.69451 0.47437 0.0
C2579 C 0.14328 0.76324 0.4985 0.0
C2580 C 0.12478 0.75557 0.53711 0.0
C2581 C 0.10336 0.71793 0.54349 0.0
C2582 C 0.10089 0.68839 0.51152 0.0
C2583 C 0.0001 0.65129 0.43602 0.0
C2584 C 0.06303 0.59237 0.45354 0.0
C2585 C 0.0423 0.66206 0.43559 0.0
N2586 N 0.0724 0.6321 0.44345 0.0
C2587 C 0.02206 0.58116 0.45635 0.0
C2588 C 0.98978 0.61026 0.44627 0.0
C2589 C 0.17392 0.56122 0.40315 0.0
C2590 C 0.23279 0.69731 0.32566 0.0
C2591 C 0.24821 0.61522 0.35032 0.0
C2592 C 0.24431 0.62476 0.30769 0.0
C2593 C 0.23541 0.66596 0.29547 0.0
N2594 N 0.24238 0.64565 0.38013 0.0
C2595 C 0.23712 0.68668 0.36797 0.0
Co2596 Co 0.34942 0.22204 0.47003 0.0
Co2597 Co 0.33773 0.12273 0.47412 0.0
O2598 O 0.31681 0.17443 0.47637 0.0
C2599 C 0.26012 0.24782 0.49 0.0
O2600 O 0.24124 0.21787 0.46902 0.0
C2601 C 0.2717 0.09136 0.40244 0.0
O2602 O 0.2984 0.07086 0.37864 0.0
O2603 O 0.37966 0.13966 0.42236 0.0
O2604 O 0.40398 0.19937 0.44706 0.0
H2605 H 0.43717 0.03664 0.41428 0.0
H2606 H 0.27618 0.1877 0.41492 0.0
O2607 O 0.29966 0.2493 0.49521 0.0
H2608 H 0.37241 0.25881 0.31768 0.0
H2609 H 0.32066 0.36814 0.44593 0.0
H2610 H 0.4183 0.26863 0.51355 0.0
H2611 H 0.38796 0.2581 0.39276 0.0
H2612 H 0.31595 0.29599 0.43169 0.0
O2613 O 0.2853 0.11076 0.43542 0.0
H2614 H 0.42042 0.08979 0.4622 0.0
H2615 H 0.29543 0.04352 0.47004 0.0
H2616 H 0.42021 0.34417 0.52979 0.0
H2617 H 0.25796 0.19138 0.34186 0.0
H2618 H 0.38052 0.39487 0.49036 0.0
H2619 H 0.30656 0.22556 0.29111 0.0
O2620 O 0.37372 0.20718 0.52825 0.0
H2621 H 0.18229 0.09573 0.54754 0.0
H2622 H 0.36187 0.08948 0.56141 0.0
H2623 H 0.28451 0.05519 0.61811 0.0
H2624 H 0.23979 0.03663 0.64601 0.0
H2625 H 0.23905 0.12614 0.49117 0.0
H2626 H 0.31878 0.97765 0.44509 0.0
H2627 H 0.38189 0.97456 0.40287 0.0
O2628 O 0.3853 0.13808 0.51557 0.0
C2629 C 0.40937 0.16857 0.42254 0.0
C2630 C 0.40671 0.03415 0.42851 0.0
C2631 C 0.33951 0.00292 0.44357 0.0
N2632 N 0.35731 0.06899 0.46966 0.0
C2633 C 0.39736 0.06546 0.45608 0.0
C2634 C 0.3283 0.03861 0.46359 0.0
C2635 C 0.37709 0.0016 0.42233 0.0
C2636 C 0.29604 0.20633 0.3953 0.0
N2637 N 0.33077 0.22696 0.41058 0.0
C2638 C 0.28645 0.20639 0.35262 0.0
C2639 C 0.31363 0.2257 0.32435 0.0
C2640 C 0.35022 0.24461 0.33923 0.0
C2641 C 0.3585 0.24449 0.38227 0.0
C2642 C 0.3449 0.34785 0.45821 0.0
C2643 C 0.39851 0.29076 0.49693 0.0
C2644 C 0.34324 0.30584 0.44935 0.0
N2645 N 0.37055 0.27762 0.46784 0.0
C2646 C 0.39986 0.33313 0.50674 0.0
C2647 C 0.3759 0.36197 0.4849 0.0
C2648 C 0.38977 0.17072 0.53931 0.0
C2649 C 0.2156 0.08843 0.55252 0.0
C2650 C 0.32818 0.08775 0.56304 0.0
C2651 C 0.31192 0.06252 0.60775 0.0
C2652 C 0.25636 0.05441 0.61658 0.0
N2653 N 0.30116 0.10615 0.52482 0.0
C2654 C 0.25159 0.10939 0.51786 0.0
Co2655 Co 0.12749 0.34581 0.55285 0.0
Co2656 Co 0.23099 0.3611 0.55241 0.0
O2657 O 0.18181 0.33017 0.55979 0.0
C2658 C 0.11215 0.26936 0.6161 0.0
O2659 O 0.14951 0.25179 0.61651 0.0
C2660 C 0.23763 0.28493 0.50241 0.0
O2661 O 0.20587 0.29835 0.47969 0.0
O2662 O 0.21278 0.37978 0.49162 0.0
O2663 O 0.14158 0.37689 0.49578 0.0
H2664 H 0.34234 0.47188 0.53181 0.0
H2665 H 0.16578 0.25708 0.54847 0.0
O2666 O 0.10884 0.30973 0.60686 0.0
H2667 H 0.07746 0.27049 0.42415 0.0
H2668 H 0.97334 0.31919 0.56049 0.0
H2669 H 0.08729 0.42067 0.5286 0.0
H2670 H 0.07969 0.32765 0.47494 0.0
H2671 H 0.0476 0.29793 0.56366 0.0
O2672 O 0.25402 0.30768 0.53085 0.0
H2673 H 0.27007 0.44346 0.52195 0.0
H2674 H 0.31115 0.32938 0.5784 0.0
H2675 H 0.01766 0.441 0.51742 0.0
H2676 H 0.16044 0.19786 0.50132 0.0
H2677 H 0.95592 0.39111 0.53703 0.0
H2678 H 0.11879 0.20522 0.43591 0.0
O2679 O 0.14014 0.40436 0.58706 0.0
H2680 H 0.22172 0.26112 0.67398 0.0
H2681 H 0.25613 0.40653 0.63177 0.0
H2682 H 0.24801 0.38954 0.70644 0.0
H2683 H 0.2281 0.31664 0.7278 0.0
H2684 H 0.23 0.27925 0.59955 0.0
H2685 H 0.37842 0.35997 0.59628 0.0
H2686 H 0.39689 0.43126 0.56875 0.0
O2687 O 0.20861 0.41624 0.57315 0.0
C2688 C 0.17541 0.3849 0.47422 0.0
C2689 C 0.33461 0.44164 0.54347 0.0
C2690 C 0.35596 0.37845 0.57873 0.0
N2691 N 0.28642 0.38484 0.54945 0.0
C2692 C 0.29448 0.42478 0.53673 0.0
C2693 C 0.3172 0.36127 0.56854 0.0
C2694 C 0.36558 0.41842 0.56426 0.0
C2695 C 0.14225 0.25893 0.52453 0.0
N2696 N 0.1193 0.29506 0.51811 0.0
C2697 C 0.14156 0.22578 0.49587 0.0
C2698 C 0.11884 0.2302 0.45893 0.0
C2699 C 0.09562 0.26674 0.45224 0.0
C2700 C 0.09619 0.29881 0.48202 0.0
C2701 C -0.00201 0.34151 0.55337 0.0
C2702 C 0.06233 0.39845 0.53523 0.0
C2703 C 0.03995 0.3301 0.55592 0.0
N2704 N 0.0708 0.3591 0.54753 0.0
C2705 C 0.02165 0.41 0.53003 0.0
C2706 C 0.98863 0.38199 0.54035 0.0
C2707 C 0.17393 0.42924 0.5883 0.0
C2708 C 0.22965 0.29305 0.66493 0.0
C2709 C 0.249 0.37447 0.64064 0.0
C2710 C 0.24445 0.36503 0.68319 0.0
C2711 C 0.23358 0.32423 0.6952 0.0
N2712 N 0.2421 0.34434 0.61073 0.0
C2713 C 0.23483 0.30353 0.62273 0.0
Co2714 Co 0.64287 0.21966 0.51739 0.0
Co2715 Co 0.65383 0.11962 0.51257 0.0
O2716 O 0.67543 0.17159 0.51059 0.0
C2717 C 0.73228 0.24605 0.49694 0.0
O2718 O 0.75147 0.21517 0.51635 0.0
C2719 C 0.72091 0.09045 0.58432 0.0
O2720 O 0.69589 0.07152 0.61115 0.0
O2721 O 0.61146 0.1363 0.56404 0.0
O2722 O 0.58807 0.19664 0.53996 0.0
H2723 H 0.5418 0.03378 0.55343 0.0
H2724 H 0.71701 0.18616 0.57153 0.0
O2725 O 0.69262 0.24785 0.49275 0.0
H2726 H 0.62095 0.25506 0.67006 0.0
H2727 H 0.67113 0.3658 0.54291 0.0
H2728 H 0.57558 0.2665 0.47249 0.0
H2729 H 0.60389 0.25341 0.59523 0.0
H2730 H 0.67486 0.29377 0.55802 0.0
O2731 O 0.70534 0.10697 0.55085 0.0
H2732 H 0.5705 0.0907 0.51842 0.0
H2733 H 0.69203 0.03493 0.52113 0.0
H2734 H 0.57682 0.34089 0.4533 0.0
H2735 H 0.73732 0.19195 0.64392 0.0
H2736 H 0.61446 0.39246 0.49496 0.0
H2737 H 0.68868 0.22472 0.69548 0.0
O2738 O 0.6186 0.20602 0.45908 0.0
H2739 H 0.81064 0.09315 0.44113 0.0
H2740 H 0.6312 0.08579 0.42572 0.0
H2741 H 0.70949 0.05368 0.36918 0.0
H2742 H 0.75426 0.03569 0.34126 0.0
H2743 H 0.75325 0.12271 0.49694 0.0
H2744 H 0.65796 0.96799 0.53852 0.0
H2745 H 0.58841 0.96774 0.56929 0.0
O2746 O 0.60713 0.13641 0.47006 0.0
C2747 C 0.58203 0.16543 0.56401 0.0
C2748 C 0.57481 0.0316 0.54791 0.0
C2749 C 0.64134 -0.0035 0.54152 0.0
N2750 N 0.63266 0.06583 0.51755 0.0
C2751 C 0.591 0.06465 0.52609 0.0
C2752 C 0.65843 0.03285 0.52564 0.0
C2753 C 0.60049 -0.00332 0.55645 0.0
C2754 C 0.69716 0.2044 0.59142 0.0
N2755 N 0.66154 0.22381 0.57673 0.0
C2756 C 0.70787 0.20546 0.6338 0.0
C2757 C 0.68072 0.22407 0.66245 0.0
C2758 C 0.64304 0.24133 0.64821 0.0
C2759 C 0.63378 0.24049 0.60538 0.0
C2760 C 0.64735 0.34549 0.5298 0.0
C2761 C 0.59522 0.28845 0.48939 0.0
C2762 C 0.64822 0.30351 0.53935 0.0
N2763 N 0.62157 0.27526 0.51999 0.0
C2764 C 0.59539 0.33052 0.47818 0.0
C2765 C 0.61825 0.35953 0.501 0.0
C2766 C 0.60197 0.17006 0.44762 0.0
C2767 C 0.77761 0.08507 0.43598 0.0
C2768 C 0.665 0.08488 0.42399 0.0
C2769 C 0.68198 0.06084 0.3791 0.0
C2770 C 0.73745 0.05265 0.37101 0.0
N2771 N 0.69142 0.10265 0.46274 0.0
C2772 C 0.74104 0.1056 0.47047 0.0
Co2773 Co 0.34625 0.77591 0.5168 0.0
Co2774 Co 0.34385 0.87943 0.50909 0.0
O2775 O 0.31823 0.82788 0.51241 0.0
C2776 C 0.25783 0.74642 0.49898 0.0
O2777 O 0.23922 0.77082 0.52606 0.0
C2778 C 0.26723 0.91067 0.58067 0.0
O2779 O 0.28013 0.9286 0.61547 0.0
O2780 O 0.38971 0.86227 0.55706 0.0
O2781 O 0.4003 0.79458 0.5428 0.0
H2782 H 0.46597 0.97583 0.48401 0.0
H2783 H 0.27465 0.81497 0.5704 0.0
O2784 O 0.29579 0.752 0.48786 0.0
H2785 H 0.36123 0.73261 0.6684 0.0
H2786 H 0.3186 0.62678 0.54191 0.0
H2787 H 0.41659 0.72838 0.47764 0.0
H2788 H 0.38039 0.73634 0.59438 0.0
H2789 H 0.30897 0.70051 0.55202 0.0
O2790 O 0.29631 0.89878 0.55343 0.0
H2791 H 0.4267 0.91266 0.47461 0.0
H2792 H 0.32646 0.96334 0.54793 0.0
H2793 H 0.41976 0.65422 0.46 0.0
H2794 H 0.2498 0.80398 0.64078 0.0
H2795 H 0.38064 0.60203 0.50029 0.0
H2796 H 0.29504 0.76629 0.69285 0.0
O2797 O 0.37435 0.78752 0.45985 0.0
H2798 H 0.2012 0.95844 0.45928 0.0
H2799 H 0.33022 0.84398 0.41556 0.0
H2800 H 0.24775 0.87818 0.36852 0.0
H2801 H 0.20104 0.89963 0.346 0.0
H2802 H 0.27075 0.94413 0.50328 0.0
H2803 H 0.3699 0.02249 0.56297 0.0
H2804 H 0.43867 0.03302 0.52759 0.0
O2805 O 0.38583 0.85743 0.46454 0.0
C2806 C 0.41189 0.82745 0.56197 0.0
C2807 C 0.43559 0.97296 0.49825 0.0
C2808 C 0.38005 0.00099 0.53976 0.0
N2809 N 0.37141 0.93374 0.50792 0.0
C2810 C 0.41142 0.93719 0.49177 0.0
C2811 C 0.35619 0.96533 0.53236 0.0
C2812 C 0.41981 0.00522 0.52225 0.0
C2813 C 0.29184 0.79327 0.58989 0.0
N2814 N 0.32541 0.7707 0.57516 0.0
C2815 C 0.27911 0.78989 0.63147 0.0
C2816 C 0.30408 0.76814 0.66019 0.0
C2817 C 0.3408 0.7489 0.64646 0.0
C2818 C 0.35111 0.75077 0.60397 0.0
C2819 C 0.34151 0.64828 0.52911 0.0
C2820 C 0.39535 0.70629 0.49229 0.0
C2821 C 0.33683 0.69072 0.53544 0.0
N2822 N 0.36468 0.71921 0.51849 0.0
C2823 C 0.39778 0.66421 0.48235 0.0
C2824 C 0.37426 0.63487 0.50421 0.0
C2825 C 0.39317 0.82165 0.447 0.0
C2826 C 0.22461 0.93869 0.44514 0.0
C2827 C 0.3062 0.86647 0.41879 0.0
C2828 C 0.27362 0.86402 0.37566 0.0
C2829 C 0.2267 0.89626 0.37411 0.0
N2830 N 0.30208 0.89378 0.46103 0.0
C2831 C 0.26736 0.92644 0.47495 0.0
loop_
_geom_bond_atom_site_label_1
_geom_bond_atom_site_label_2
_geom_bond_distance
_geom_bond_site_symmetry_2
_ccdc_geom_bond_type
Co0 O2 2.143 . S
Co0 O8 2.074 . S
Co0 O11 2.094 . S
Co0 O24 2.097 1_455 S
Co0 N41 2.151 . S
Co0 N49 2.214 . S
Co1 O2 2.160 . S
Co1 O7 2.058 . S
Co1 O17 2.057 . S
Co1 O32 2.037 1_455 S
Co1 N36 2.145 . S
Co1 N57 2.257 1_455 S
O2 Co0 2.143 . S
O2 Co1 2.160 . S
C3 O4 1.278 . S
C3 O11 1.224 1_655 S
O4 C3 1.278 . S
C5 O6 1.245 . S
C5 O17 1.232 . S
O6 C5 1.245 . S
O7 Co1 2.058 . S
O7 C33 1.269 . S
O8 Co0 2.074 . S
O8 C33 1.257 . S
H9 C34 0.930 . S
H10 C40 0.930 . S
O11 Co0 2.094 . S
O11 C3 1.224 1_455 S
H12 C44 0.929 . S
H13 C46 0.930 . S
H14 C47 0.930 1_655 S
H15 C45 0.929 . S
H16 C48 0.928 . S
O17 Co1 2.057 . S
O17 C5 1.232 . S
H18 C37 0.929 1_655 S
H19 C38 0.929 . S
H20 C50 0.931 1_556 S
H21 C42 0.929 . S
H22 C51 0.930 1_655 S
H23 C43 0.931 . S
O24 Co0 2.097 1_655 S
O24 C52 1.214 . S
H25 C53 0.929 . S
H26 C54 0.929 . S
H27 C55 0.930 . S
H28 C56 0.929 . S
H29 C58 0.930 1_455 S
H30 C35 0.930 . S
H31 C39 0.930 1_655 S
O32 Co1 2.037 1_655 S
O32 C52 1.234 . S
C33 O7 1.269 . S
C33 O8 1.257 . S
C34 H9 0.930 . S
C34 C37 1.388 1_655 S
C34 C39 1.418 1_655 S
C35 H30 0.930 . S
C35 C38 1.404 . S
C35 C39 1.353 . S
N36 Co1 2.145 . S
N36 C37 1.397 . S
N36 C38 1.334 . S
C37 H18 0.929 1_455 S
C37 C34 1.388 1_455 S
C37 N36 1.397 . S
C38 H19 0.929 . S
C38 C35 1.404 . S
C38 N36 1.334 . S
C39 H31 0.930 1_455 S
C39 C34 1.418 1_455 S
C39 C35 1.353 . S
C40 H10 0.930 . S
C40 N41 1.330 . S
C40 C42 1.446 . S
N41 Co0 2.151 . S
N41 C40 1.330 . S
N41 C45 1.418 . S
C42 H21 0.929 . S
C42 C40 1.446 . S
C42 C43 1.332 . S
C43 H23 0.931 . S
C43 C42 1.332 . S
C43 C44 1.267 . S
C44 H12 0.929 . S
C44 C43 1.267 . S
C44 C45 1.251 . S
C45 H15 0.929 . S
C45 N41 1.418 . S
C45 C44 1.251 . S
C46 H13 0.930 . S
C46 C48 1.406 . S
C46 C51 1.261 . S
C47 H14 0.930 1_455 S
C47 N49 1.325 . S
C47 C50 1.357 1_455 S
C48 H16 0.928 . S
C48 C46 1.406 . S
C48 N49 1.261 . S
N49 Co0 2.214 . S
N49 C47 1.325 . S
N49 C48 1.261 . S
C50 H20 0.931 1_554 S
C50 C47 1.357 1_655 S
C50 C51 1.312 1_655 S
C51 H22 0.930 1_455 S
C51 C46 1.261 . S
C51 C50 1.312 1_455 S
C52 O24 1.214 . S
C52 O32 1.234 . S
C53 H25 0.929 . S
C53 C56 1.391 . S
C53 C58 1.391 . S
C54 H26 0.929 . S
C54 C55 1.390 . S
C54 N57 1.391 . S
C55 H27 0.930 . S
C55 C54 1.390 . S
C55 C56 1.392 . S
C56 H28 0.929 . S
C56 C53 1.391 . S
C56 C55 1.392 . S
N57 Co1 2.257 1_655 S
N57 C54 1.391 . S
N57 C58 1.388 . S
C58 H29 0.930 1_655 S
C58 C53 1.391 . S
C58 N57 1.388 . S
Co59 O61 2.143 . S
Co59 O67 2.074 1_545 S
Co59 O70 2.093 . S
Co59 O83 2.097 . S
Co59 N100 2.151 1_545 S
Co59 N108 2.214 . S
Co60 O61 2.160 . S
Co60 O66 2.058 1_545 S
Co60 O76 2.057 . S
Co60 O91 2.037 . S
Co60 N95 2.145 . S
Co60 N116 2.257 . S
O61 Co59 2.143 . S
O61 Co60 2.160 . S
C62 O63 1.278 . S
C62 O70 1.224 . S
O63 C62 1.278 . S
C64 O65 1.245 . S
C64 O76 1.232 1_565 S
O65 C64 1.245 . S
O66 Co60 2.058 1_565 S
O66 C92 1.269 . S
O67 Co59 2.074 1_565 S
O67 C92 1.257 . S
H68 C93 0.930 . S
H69 C99 0.930 1_545 S
O70 Co59 2.093 . S
O70 C62 1.224 . S
H71 C103 0.929 . S
H72 C105 0.930 . S
H73 C106 0.930 . S
H74 C104 0.929 . S
H75 C107 0.928 . S
O76 Co60 2.057 . S
O76 C64 1.232 1_545 S
H77 C96 0.929 . S
H78 C97 0.929 . S
H79 C109 0.931 . S
H80 C101 0.929 . S
H81 C110 0.930 . S
H82 C102 0.931 . S
O83 Co59 2.097 . S
O83 C111 1.214 . S
H84 C112 0.929 . S
H85 C113 0.929 . S
H86 C114 0.930 . S
H87 C115 0.929 . S
H88 C117 0.930 . S
H89 C94 0.930 . S
H90 C98 0.930 . S
O91 Co60 2.037 . S
O91 C111 1.234 . S
C92 O66 1.269 . S
C92 O67 1.257 . S
C93 H68 0.930 . S
C93 C96 1.388 . S
C93 C98 1.418 . S
C94 H89 0.930 . S
C94 C97 1.404 . S
C94 C98 1.353 . S
N95 Co60 2.145 . S
N95 C96 1.397 . S
N95 C97 1.334 . S
C96 H77 0.929 . S
C96 C93 1.388 . S
C96 N95 1.397 . S
C97 H78 0.929 . S
C97 C94 1.404 . S
C97 N95 1.334 . S
C98 H90 0.930 . S
C98 C93 1.418 . S
C98 C94 1.353 . S
C99 H69 0.930 1_565 S
C99 N100 1.330 . S
C99 C101 1.446 . S
N100 Co59 2.151 1_565 S
N100 C99 1.330 . S
N100 C104 1.418 . S
C101 H80 0.929 . S
C101 C99 1.446 . S
C101 C102 1.332 . S
C102 H82 0.931 . S
C102 C101 1.332 . S
C102 C103 1.267 . S
C103 H71 0.929 . S
C103 C102 1.267 . S
C103 C104 1.251 . S
C104 H74 0.929 . S
C104 N100 1.418 . S
C104 C103 1.251 . S
C105 H72 0.930 . S
C105 C107 1.406 . S
C105 C110 1.261 . S
C106 H73 0.930 . S
C106 N108 1.325 . S
C106 C109 1.357 . S
C107 H75 0.928 . S
C107 C105 1.406 . S
C107 N108 1.261 . S
N108 Co59 2.214 . S
N108 C106 1.325 . S
N108 C107 1.261 . S
C109 H79 0.931 . S
C109 C106 1.357 . S
C109 C110 1.312 . S
C110 H81 0.930 . S
C110 C105 1.261 . S
C110 C109 1.312 . S
C111 O83 1.214 . S
C111 O91 1.234 . S
C112 H84 0.929 . S
C112 C115 1.391 . S
C112 C117 1.391 . S
C113 H85 0.929 . S
C113 C114 1.390 . S
C113 N116 1.391 . S
C114 H86 0.930 . S
C114 C113 1.390 . S
C114 C115 1.392 . S
C115 H87 0.929 . S
C115 C112 1.391 . S
C115 C114 1.392 . S
N116 Co60 2.257 . S
N116 C113 1.391 . S
N116 C117 1.388 . S
C117 H88 0.930 . S
C117 C112 1.391 . S
C117 N116 1.388 . S
Co118 O120 2.143 . S
Co118 O126 2.074 . S
Co118 O129 2.094 . S
Co118 O142 2.097 1_655 S
Co118 N159 2.151 . S
Co118 N167 2.214 . S
Co119 O120 2.160 . S
Co119 O125 2.058 . S
Co119 O135 2.057 . S
Co119 O150 2.037 1_655 S
Co119 N154 2.145 . S
Co119 N175 2.257 1_655 S
O120 Co118 2.143 . S
O120 Co119 2.160 . S
C121 O122 1.278 . S
C121 O129 1.224 1_455 S
O122 C121 1.278 . S
C123 O124 1.245 . S
C123 O135 1.232 . S
O124 C123 1.245 . S
O125 Co119 2.058 . S
O125 C151 1.269 . S
O126 Co118 2.074 . S
O126 C151 1.257 . S
H127 C152 0.930 . S
H128 C158 0.930 . S
O129 Co118 2.094 . S
O129 C121 1.224 1_655 S
H130 C162 0.929 . S
H131 C164 0.930 . S
H132 C165 0.930 1_455 S
H133 C163 0.929 . S
H134 C166 0.928 . S
O135 Co119 2.057 . S
O135 C123 1.232 . S
H136 C155 0.929 1_455 S
H137 C156 0.929 . S
H138 C168 0.931 1_556 S
H139 C160 0.929 . S
H140 C169 0.930 1_455 S
H141 C161 0.931 . S
O142 Co118 2.097 1_455 S
O142 C170 1.214 . S
H143 C171 0.929 . S
H144 C172 0.929 . S
H145 C173 0.930 . S
H146 C174 0.929 . S
H147 C176 0.930 1_655 S
H148 C153 0.930 . S
H149 C157 0.930 1_455 S
O150 Co119 2.037 1_455 S
O150 C170 1.234 . S
C151 O125 1.269 . S
C151 O126 1.257 . S
C152 H127 0.930 . S
C152 C155 1.388 1_455 S
C152 C157 1.418 1_455 S
C153 H148 0.930 . S
C153 C156 1.404 . S
C153 C157 1.353 . S
N154 Co119 2.145 . S
N154 C155 1.397 . S
N154 C156 1.334 . S
C155 H136 0.929 1_655 S
C155 C152 1.388 1_655 S
C155 N154 1.397 . S
C156 H137 0.929 . S
C156 C153 1.404 . S
C156 N154 1.334 . S
C157 H149 0.930 1_655 S
C157 C152 1.418 1_655 S
C157 C153 1.353 . S
C158 H128 0.930 . S
C158 N159 1.330 . S
C158 C160 1.446 . S
N159 Co118 2.151 . S
N159 C158 1.330 . S
N159 C163 1.418 . S
C160 H139 0.929 . S
C160 C158 1.446 . S
C160 C161 1.332 . S
C161 H141 0.931 . S
C161 C160 1.332 . S
C161 C162 1.267 . S
C162 H130 0.929 . S
C162 C161 1.267 . S
C162 C163 1.251 . S
C163 H133 0.929 . S
C163 N159 1.418 . S
C163 C162 1.251 . S
C164 H131 0.930 . S
C164 C166 1.406 . S
C164 C169 1.261 . S
C165 H132 0.930 1_655 S
C165 N167 1.325 . S
C165 C168 1.357 1_655 S
C166 H134 0.928 . S
C166 C164 1.406 . S
C166 N167 1.261 . S
N167 Co118 2.214 . S
N167 C165 1.325 . S
N167 C166 1.261 . S
C168 H138 0.931 1_554 S
C168 C165 1.357 1_455 S
C168 C169 1.312 1_455 S
C169 H140 0.930 1_655 S
C169 C164 1.261 . S
C169 C168 1.312 1_655 S
C170 O142 1.214 . S
C170 O150 1.234 . S
C171 H143 0.929 . S
C171 C174 1.391 . S
C171 C176 1.391 . S
C172 H144 0.929 . S
C172 C173 1.390 . S
C172 N175 1.391 . S
C173 H145 0.930 . S
C173 C172 1.390 . S
C173 C174 1.392 . S
C174 H146 0.929 . S
C174 C171 1.391 . S
C174 C173 1.392 . S
N175 Co119 2.257 1_455 S
N175 C172 1.391 . S
N175 C176 1.388 . S
C176 H147 0.930 1_455 S
C176 C171 1.391 . S
C176 N175 1.388 . S
Co177 O179 2.143 . S
Co177 O185 2.074 1_565 S
Co177 O188 2.093 . S
Co177 O201 2.097 . S
Co177 N218 2.151 1_565 S
Co177 N226 2.214 . S
Co178 O179 2.160 . S
Co178 O184 2.058 1_565 S
Co178 O194 2.057 . S
Co178 O209 2.037 . S
Co178 N213 2.145 . S
Co178 N234 2.257 . S
O179 Co177 2.143 . S
O179 Co178 2.160 . S
C180 O181 1.278 . S
C180 O188 1.224 . S
O181 C180 1.278 . S
C182 O183 1.245 . S
C182 O194 1.232 1_545 S
O183 C182 1.245 . S
O184 Co178 2.058 1_545 S
O184 C210 1.269 . S
O185 Co177 2.074 1_545 S
O185 C210 1.257 . S
H186 C211 0.930 . S
H187 C217 0.930 1_565 S
O188 Co177 2.093 . S
O188 C180 1.224 . S
H189 C221 0.929 . S
H190 C223 0.930 . S
H191 C224 0.930 . S
H192 C222 0.929 . S
H193 C225 0.928 . S
O194 Co178 2.057 . S
O194 C182 1.232 1_565 S
H195 C214 0.929 . S
H196 C215 0.929 . S
H197 C227 0.931 . S
H198 C219 0.929 . S
H199 C228 0.930 . S
H200 C220 0.931 . S
O201 Co177 2.097 . S
O201 C229 1.214 . S
H202 C230 0.929 . S
H203 C231 0.929 . S
H204 C232 0.930 . S
H205 C233 0.929 . S
H206 C235 0.930 . S
H207 C212 0.930 . S
H208 C216 0.930 . S
O209 Co178 2.037 . S
O209 C229 1.234 . S
C210 O184 1.269 . S
C210 O185 1.257 . S
C211 H186 0.930 . S
C211 C214 1.388 . S
C211 C216 1.418 . S
C212 H207 0.930 . S
C212 C215 1.404 . S
C212 C216 1.353 . S
N213 Co178 2.145 . S
N213 C214 1.397 . S
N213 C215 1.334 . S
C214 H195 0.929 . S
C214 C211 1.388 . S
C214 N213 1.397 . S
C215 H196 0.929 . S
C215 C212 1.404 . S
C215 N213 1.334 . S
C216 H208 0.930 . S
C216 C211 1.418 . S
C216 C212 1.353 . S
C217 H187 0.930 1_545 S
C217 N218 1.330 . S
C217 C219 1.446 . S
N218 Co177 2.151 1_545 S
N218 C217 1.330 . S
N218 C222 1.418 . S
C219 H198 0.929 . S
C219 C217 1.446 . S
C219 C220 1.332 . S
C220 H200 0.931 . S
C220 C219 1.332 . S
C220 C221 1.267 . S
C221 H189 0.929 . S
C221 C220 1.267 . S
C221 C222 1.251 . S
C222 H192 0.929 . S
C222 N218 1.418 . S
C222 C221 1.251 . S
C223 H190 0.930 . S
C223 C225 1.406 . S
C223 C228 1.261 . S
C224 H191 0.930 . S
C224 N226 1.325 . S
C224 C227 1.357 . S
C225 H193 0.928 . S
C225 C223 1.406 . S
C225 N226 1.261 . S
N226 Co177 2.214 . S
N226 C224 1.325 . S
N226 C225 1.261 . S
C227 H197 0.931 . S
C227 C224 1.357 . S
C227 C228 1.312 . S
C228 H199 0.930 . S
C228 C223 1.261 . S
C228 C227 1.312 . S
C229 O201 1.214 . S
C229 O209 1.234 . S
C230 H202 0.929 . S
C230 C233 1.391 . S
C230 C235 1.391 . S
C231 H203 0.929 . S
C231 C232 1.390 . S
C231 N234 1.391 . S
C232 H204 0.930 . S
C232 C231 1.390 . S
C232 C233 1.392 . S
C233 H205 0.929 . S
C233 C230 1.391 . S
C233 C232 1.392 . S
N234 Co178 2.257 . S
N234 C231 1.391 . S
N234 C235 1.388 . S
C235 H206 0.930 . S
C235 C230 1.391 . S
C235 N234 1.388 . S
Co236 O238 2.143 . S
Co236 O244 2.074 . S
Co236 O247 2.094 . S
Co236 O260 2.097 1_455 S
Co236 N277 2.151 . S
Co236 N285 2.214 . S
Co237 O238 2.160 . S
Co237 O243 2.058 . S
Co237 O253 2.057 . S
Co237 O268 2.037 1_455 S
Co237 N272 2.145 . S
Co237 N293 2.257 1_455 S
O238 Co236 2.143 . S
O238 Co237 2.160 . S
C239 O240 1.278 . S
C239 O247 1.224 1_655 S
O240 C239 1.278 . S
C241 O242 1.245 . S
C241 O253 1.232 . S
O242 C241 1.245 . S
O243 Co237 2.058 . S
O243 C269 1.269 . S
O244 Co236 2.074 . S
O244 C269 1.257 . S
H245 C270 0.930 . S
H246 C276 0.930 . S
O247 Co236 2.094 . S
O247 C239 1.224 1_455 S
H248 C280 0.929 . S
H249 C282 0.930 . S
H250 C283 0.930 1_655 S
H251 C281 0.929 . S
H252 C284 0.928 . S
O253 Co237 2.057 . S
O253 C241 1.232 . S
H254 C273 0.929 1_655 S
H255 C274 0.929 . S
H256 C286 0.931 1_554 S
H257 C278 0.929 . S
H258 C287 0.930 1_655 S
H259 C279 0.931 . S
O260 Co236 2.097 1_655 S
O260 C288 1.214 . S
H261 C289 0.929 . S
H262 C290 0.929 . S
H263 C291 0.930 . S
H264 C292 0.929 . S
H265 C294 0.930 1_455 S
H266 C271 0.930 . S
H267 C275 0.930 1_655 S
O268 Co237 2.037 1_655 S
O268 C288 1.234 . S
C269 O243 1.269 . S
C269 O244 1.257 . S
C270 H245 0.930 . S
C270 C273 1.388 1_655 S
C270 C275 1.418 1_655 S
C271 H266 0.930 . S
C271 C274 1.404 . S
C271 C275 1.353 . S
N272 Co237 2.145 . S
N272 C273 1.397 . S
N272 C274 1.334 . S
C273 H254 0.929 1_455 S
C273 C270 1.388 1_455 S
C273 N272 1.397 . S
C274 H255 0.929 . S
C274 C271 1.404 . S
C274 N272 1.334 . S
C275 H267 0.930 1_455 S
C275 C270 1.418 1_455 S
C275 C271 1.353 . S
C276 H246 0.930 . S
C276 N277 1.330 . S
C276 C278 1.446 . S
N277 Co236 2.151 . S
N277 C276 1.330 . S
N277 C281 1.418 . S
C278 H257 0.929 . S
C278 C276 1.446 . S
C278 C279 1.332 . S
C279 H259 0.931 . S
C279 C278 1.332 . S
C279 C280 1.267 . S
C280 H248 0.929 . S
C280 C279 1.267 . S
C280 C281 1.251 . S
C281 H251 0.929 . S
C281 N277 1.418 . S
C281 C280 1.251 . S
C282 H249 0.930 . S
C282 C284 1.406 . S
C282 C287 1.261 . S
C283 H250 0.930 1_455 S
C283 N285 1.325 . S
C283 C286 1.357 1_455 S
C284 H252 0.928 . S
C284 C282 1.406 . S
C284 N285 1.261 . S
N285 Co236 2.214 . S
N285 C283 1.325 . S
N285 C284 1.261 . S
C286 H256 0.931 1_556 S
C286 C283 1.357 1_655 S
C286 C287 1.312 1_655 S
C287 H258 0.930 1_455 S
C287 C282 1.261 . S
C287 C286 1.312 1_455 S
C288 O260 1.214 . S
C288 O268 1.234 . S
C289 H261 0.929 . S
C289 C292 1.391 . S
C289 C294 1.391 . S
C290 H262 0.929 . S
C290 C291 1.390 . S
C290 N293 1.391 . S
C291 H263 0.930 . S
C291 C290 1.390 . S
C291 C292 1.392 . S
C292 H264 0.929 . S
C292 C289 1.391 . S
C292 C291 1.392 . S
N293 Co237 2.257 1_655 S
N293 C290 1.391 . S
N293 C294 1.388 . S
C294 H265 0.930 1_655 S
C294 C289 1.391 . S
C294 N293 1.388 . S
Co295 O297 2.143 . S
Co295 O303 2.074 1_545 S
Co295 O306 2.093 . S
Co295 O319 2.097 . S
Co295 N336 2.151 1_545 S
Co295 N344 2.214 . S
Co296 O297 2.160 . S
Co296 O302 2.058 1_545 S
Co296 O312 2.057 . S
Co296 O327 2.037 . S
Co296 N331 2.145 . S
Co296 N352 2.257 . S
O297 Co295 2.143 . S
O297 Co296 2.160 . S
C298 O299 1.278 . S
C298 O306 1.224 . S
O299 C298 1.278 . S
C300 O301 1.245 . S
C300 O312 1.232 1_565 S
O301 C300 1.245 . S
O302 Co296 2.058 1_565 S
O302 C328 1.269 . S
O303 Co295 2.074 1_565 S
O303 C328 1.257 . S
H304 C329 0.930 . S
H305 C335 0.930 1_545 S
O306 Co295 2.093 . S
O306 C298 1.224 . S
H307 C339 0.929 . S
H308 C341 0.930 . S
H309 C342 0.930 . S
H310 C340 0.929 . S
H311 C343 0.928 . S
O312 Co296 2.057 . S
O312 C300 1.232 1_545 S
H313 C332 0.929 . S
H314 C333 0.929 . S
H315 C345 0.931 . S
H316 C337 0.929 . S
H317 C346 0.930 . S
H318 C338 0.931 . S
O319 Co295 2.097 . S
O319 C347 1.214 . S
H320 C348 0.929 . S
H321 C349 0.929 . S
H322 C350 0.930 . S
H323 C351 0.929 . S
H324 C353 0.930 . S
H325 C330 0.930 . S
H326 C334 0.930 . S
O327 Co296 2.037 . S
O327 C347 1.234 . S
C328 O302 1.269 . S
C328 O303 1.257 . S
C329 H304 0.930 . S
C329 C332 1.388 . S
C329 C334 1.418 . S
C330 H325 0.930 . S
C330 C333 1.404 . S
C330 C334 1.353 . S
N331 Co296 2.145 . S
N331 C332 1.397 . S
N331 C333 1.334 . S
C332 H313 0.929 . S
C332 C329 1.388 . S
C332 N331 1.397 . S
C333 H314 0.929 . S
C333 C330 1.404 . S
C333 N331 1.334 . S
C334 H326 0.930 . S
C334 C329 1.418 . S
C334 C330 1.353 . S
C335 H305 0.930 1_565 S
C335 N336 1.330 . S
C335 C337 1.446 . S
N336 Co295 2.151 1_565 S
N336 C335 1.330 . S
N336 C340 1.418 . S
C337 H316 0.929 . S
C337 C335 1.446 . S
C337 C338 1.332 . S
C338 H318 0.931 . S
C338 C337 1.332 . S
C338 C339 1.267 . S
C339 H307 0.929 . S
C339 C338 1.267 . S
C339 C340 1.251 . S
C340 H310 0.929 . S
C340 N336 1.418 . S
C340 C339 1.251 . S
C341 H308 0.930 . S
C341 C343 1.406 . S
C341 C346 1.261 . S
C342 H309 0.930 . S
C342 N344 1.325 . S
C342 C345 1.357 . S
C343 H311 0.928 . S
C343 C341 1.406 . S
C343 N344 1.261 . S
N344 Co295 2.214 . S
N344 C342 1.325 . S
N344 C343 1.261 . S
C345 H315 0.931 . S
C345 C342 1.357 . S
C345 C346 1.312 . S
C346 H317 0.930 . S
C346 C341 1.261 . S
C346 C345 1.312 . S
C347 O319 1.214 . S
C347 O327 1.234 . S
C348 H320 0.929 . S
C348 C351 1.391 . S
C348 C353 1.391 . S
C349 H321 0.929 . S
C349 C350 1.390 . S
C349 N352 1.391 . S
C350 H322 0.930 . S
C350 C349 1.390 . S
C350 C351 1.392 . S
C351 H323 0.929 . S
C351 C348 1.391 . S
C351 C350 1.392 . S
N352 Co296 2.257 . S
N352 C349 1.391 . S
N352 C353 1.388 . S
C353 H324 0.930 . S
C353 C348 1.391 . S
C353 N352 1.388 . S
Co354 O356 2.143 . S
Co354 O362 2.074 . S
Co354 O365 2.094 . S
Co354 O378 2.097 1_655 S
Co354 N395 2.151 . S
Co354 N403 2.214 . S
Co355 O356 2.160 . S
Co355 O361 2.058 . S
Co355 O371 2.057 . S
Co355 O386 2.037 1_655 S
Co355 N390 2.145 . S
Co355 N411 2.257 1_655 S
O356 Co354 2.143 . S
O356 Co355 2.160 . S
C357 O358 1.278 . S
C357 O365 1.224 1_455 S
O358 C357 1.278 . S
C359 O360 1.245 . S
C359 O371 1.232 . S
O360 C359 1.245 . S
O361 Co355 2.058 . S
O361 C387 1.269 . S
O362 Co354 2.074 . S
O362 C387 1.257 . S
H363 C388 0.930 . S
H364 C394 0.930 . S
O365 Co354 2.094 . S
O365 C357 1.224 1_655 S
H366 C398 0.929 . S
H367 C400 0.930 . S
H368 C401 0.930 1_455 S
H369 C399 0.929 . S
H370 C402 0.928 . S
O371 Co355 2.057 . S
O371 C359 1.232 . S
H372 C391 0.929 1_455 S
H373 C392 0.929 . S
H374 C404 0.931 1_554 S
H375 C396 0.929 . S
H376 C405 0.930 1_455 S
H377 C397 0.931 . S
O378 Co354 2.097 1_455 S
O378 C406 1.214 . S
H379 C407 0.929 . S
H380 C408 0.929 . S
H381 C409 0.930 . S
H382 C410 0.929 . S
H383 C412 0.930 1_655 S
H384 C389 0.930 . S
H385 C393 0.930 1_455 S
O386 Co355 2.037 1_455 S
O386 C406 1.234 . S
C387 O361 1.269 . S
C387 O362 1.257 . S
C388 H363 0.930 . S
C388 C391 1.388 1_455 S
C388 C393 1.418 1_455 S
C389 H384 0.930 . S
C389 C392 1.404 . S
C389 C393 1.353 . S
N390 Co355 2.145 . S
N390 C391 1.397 . S
N390 C392 1.334 . S
C391 H372 0.929 1_655 S
C391 C388 1.388 1_655 S
C391 N390 1.397 . S
C392 H373 0.929 . S
C392 C389 1.404 . S
C392 N390 1.334 . S
C393 H385 0.930 1_655 S
C393 C388 1.418 1_655 S
C393 C389 1.353 . S
C394 H364 0.930 . S
C394 N395 1.330 . S
C394 C396 1.446 . S
N395 Co354 2.151 . S
N395 C394 1.330 . S
N395 C399 1.418 . S
C396 H375 0.929 . S
C396 C394 1.446 . S
C396 C397 1.332 . S
C397 H377 0.931 . S
C397 C396 1.332 . S
C397 C398 1.267 . S
C398 H366 0.929 . S
C398 C397 1.267 . S
C398 C399 1.251 . S
C399 H369 0.929 . S
C399 N395 1.418 . S
C399 C398 1.251 . S
C400 H367 0.930 . S
C400 C402 1.406 . S
C400 C405 1.261 . S
C401 H368 0.930 1_655 S
C401 N403 1.325 . S
C401 C404 1.357 1_655 S
C402 H370 0.928 . S
C402 C400 1.406 . S
C402 N403 1.261 . S
N403 Co354 2.214 . S
N403 C401 1.325 . S
N403 C402 1.261 . S
C404 H374 0.931 1_556 S
C404 C401 1.357 1_455 S
C404 C405 1.312 1_455 S
C405 H376 0.930 1_655 S
C405 C400 1.261 . S
C405 C404 1.312 1_655 S
C406 O378 1.214 . S
C406 O386 1.234 . S
C407 H379 0.929 . S
C407 C410 1.391 . S
C407 C412 1.391 . S
C408 H380 0.929 . S
C408 C409 1.390 . S
C408 N411 1.391 . S
C409 H381 0.930 . S
C409 C408 1.390 . S
C409 C410 1.392 . S
C410 H382 0.929 . S
C410 C407 1.391 . S
C410 C409 1.392 . S
N411 Co355 2.257 1_455 S
N411 C408 1.391 . S
N411 C412 1.388 . S
C412 H383 0.930 1_455 S
C412 C407 1.391 . S
C412 N411 1.388 . S
Co413 O415 2.143 . S
Co413 O421 2.074 1_565 S
Co413 O424 2.093 . S
Co413 O437 2.097 . S
Co413 N454 2.151 1_565 S
Co413 N462 2.214 . S
Co414 O415 2.160 . S
Co414 O420 2.058 1_565 S
Co414 O430 2.057 . S
Co414 O445 2.037 . S
Co414 N449 2.145 . S
Co414 N470 2.257 . S
O415 Co413 2.143 . S
O415 Co414 2.160 . S
C416 O417 1.278 . S
C416 O424 1.224 . S
O417 C416 1.278 . S
C418 O419 1.245 . S
C418 O430 1.232 1_545 S
O419 C418 1.245 . S
O420 Co414 2.058 1_545 S
O420 C446 1.269 . S
O421 Co413 2.074 1_545 S
O421 C446 1.257 . S
H422 C447 0.930 . S
H423 C453 0.930 1_565 S
O424 Co413 2.093 . S
O424 C416 1.224 . S
H425 C457 0.929 . S
H426 C459 0.930 . S
H427 C460 0.930 . S
H428 C458 0.929 . S
H429 C461 0.928 . S
O430 Co414 2.057 . S
O430 C418 1.232 1_565 S
H431 C450 0.929 . S
H432 C451 0.929 . S
H433 C463 0.931 . S
H434 C455 0.929 . S
H435 C464 0.930 . S
H436 C456 0.931 . S
O437 Co413 2.097 . S
O437 C465 1.214 . S
H438 C466 0.929 . S
H439 C467 0.929 . S
H440 C468 0.930 . S
H441 C469 0.929 . S
H442 C471 0.930 . S
H443 C448 0.930 . S
H444 C452 0.930 . S
O445 Co414 2.037 . S
O445 C465 1.234 . S
C446 O420 1.269 . S
C446 O421 1.257 . S
C447 H422 0.930 . S
C447 C450 1.388 . S
C447 C452 1.418 . S
C448 H443 0.930 . S
C448 C451 1.404 . S
C448 C452 1.353 . S
N449 Co414 2.145 . S
N449 C450 1.397 . S
N449 C451 1.334 . S
C450 H431 0.929 . S
C450 C447 1.388 . S
C450 N449 1.397 . S
C451 H432 0.929 . S
C451 C448 1.404 . S
C451 N449 1.334 . S
C452 H444 0.930 . S
C452 C447 1.418 . S
C452 C448 1.353 . S
C453 H423 0.930 1_545 S
C453 N454 1.330 . S
C453 C455 1.446 . S
N454 Co413 2.151 1_545 S
N454 C453 1.330 . S
N454 C458 1.418 . S
C455 H434 0.929 . S
C455 C453 1.446 . S
C455 C456 1.332 . S
C456 H436 0.931 . S
C456 C455 1.332 . S
C456 C457 1.267 . S
C457 H425 0.929 . S
C457 C456 1.267 . S
C457 C458 1.251 . S
C458 H428 0.929 . S
C458 N454 1.418 . S
C458 C457 1.251 . S
C459 H426 0.930 . S
C459 C461 1.406 . S
C459 C464 1.261 . S
C460 H427 0.930 . S
C460 N462 1.325 . S
C460 C463 1.357 . S
C461 H429 0.928 . S
C461 C459 1.406 . S
C461 N462 1.261 . S
N462 Co413 2.214 . S
N462 C460 1.325 . S
N462 C461 1.261 . S
C463 H433 0.931 . S
C463 C460 1.357 . S
C463 C464 1.312 . S
C464 H435 0.930 . S
C464 C459 1.261 . S
C464 C463 1.312 . S
C465 O437 1.214 . S
C465 O445 1.234 . S
C466 H438 0.929 . S
C466 C469 1.391 . S
C466 C471 1.391 . S
C467 H439 0.929 . S
C467 C468 1.390 . S
C467 N470 1.391 . S
C468 H440 0.930 . S
C468 C467 1.390 . S
C468 C469 1.392 . S
C469 H441 0.929 . S
C469 C466 1.391 . S
C469 C468 1.392 . S
N470 Co414 2.257 . S
N470 C467 1.391 . S
N470 C471 1.388 . S
C471 H442 0.930 . S
C471 C466 1.391 . S
C471 N470 1.388 . S
Co472 O474 2.143 . S
Co472 O480 2.074 . S
Co472 O483 2.093 . S
Co472 O496 2.097 1_545 S
Co472 N513 2.151 . S
Co472 N521 2.214 . S
Co473 O474 2.160 . S
Co473 O479 2.058 . S
Co473 O489 2.057 . S
Co473 O504 2.037 1_545 S
Co473 N508 2.145 . S
Co473 N529 2.257 1_545 S
O474 Co472 2.143 . S
O474 Co473 2.160 . S
C475 O476 1.278 . S
C475 O483 1.225 1_565 S
O476 C475 1.278 . S
C477 O478 1.245 . S
C477 O489 1.232 . S
O478 C477 1.245 . S
O479 Co473 2.058 . S
O479 C505 1.269 . S
O480 Co472 2.074 . S
O480 C505 1.257 . S
H481 C506 0.930 . S
H482 C512 0.930 . S
O483 Co472 2.093 . S
O483 C475 1.225 1_545 S
H484 C516 0.929 . S
H485 C518 0.930 . S
H486 C519 0.930 1_565 S
H487 C517 0.929 . S
H488 C520 0.928 . S
O489 Co473 2.057 . S
O489 C477 1.232 . S
H490 C509 0.929 1_565 S
H491 C510 0.929 . S
H492 C522 0.931 1_655 S
H493 C514 0.929 . S
H494 C523 0.930 1_565 S
H495 C515 0.931 . S
O496 Co472 2.097 1_565 S
O496 C524 1.214 . S
H497 C525 0.929 . S
H498 C526 0.929 . S
H499 C527 0.930 . S
H500 C528 0.929 . S
H501 C530 0.930 1_545 S
H502 C507 0.930 . S
H503 C511 0.930 1_565 S
O504 Co473 2.037 1_565 S
O504 C524 1.234 . S
C505 O479 1.269 . S
C505 O480 1.257 . S
C506 H481 0.930 . S
C506 C509 1.388 1_565 S
C506 C511 1.418 1_565 S
C507 H502 0.930 . S
C507 C510 1.404 . S
C507 C511 1.353 . S
N508 Co473 2.145 . S
N508 C509 1.397 . S
N508 C510 1.334 . S
C509 H490 0.929 1_545 S
C509 C506 1.388 1_545 S
C509 N508 1.397 . S
C510 H491 0.929 . S
C510 C507 1.404 . S
C510 N508 1.334 . S
C511 H503 0.930 1_545 S
C511 C506 1.418 1_545 S
C511 C507 1.353 . S
C512 H482 0.930 . S
C512 N513 1.330 . S
C512 C514 1.446 . S
N513 Co472 2.151 . S
N513 C512 1.330 . S
N513 C517 1.418 . S
C514 H493 0.929 . S
C514 C512 1.446 . S
C514 C515 1.332 . S
C515 H495 0.931 . S
C515 C514 1.332 . S
C515 C516 1.267 . S
C516 H484 0.929 . S
C516 C515 1.267 . S
C516 C517 1.251 . S
C517 H487 0.929 . S
C517 N513 1.418 . S
C517 C516 1.251 . S
C518 H485 0.930 . S
C518 C520 1.406 . S
C518 C523 1.261 . S
C519 H486 0.930 1_545 S
C519 N521 1.325 . S
C519 C522 1.357 1_545 S
C520 H488 0.928 . S
C520 C518 1.406 . S
C520 N521 1.261 . S
N521 Co472 2.214 . S
N521 C519 1.325 . S
N521 C520 1.261 . S
C522 H492 0.931 1_455 S
C522 C519 1.357 1_565 S
C522 C523 1.312 1_565 S
C523 H494 0.930 1_545 S
C523 C518 1.261 . S
C523 C522 1.312 1_545 S
C524 O496 1.214 . S
C524 O504 1.234 . S
C525 H497 0.929 . S
C525 C528 1.391 . S
C525 C530 1.391 . S
C526 H498 0.929 . S
C526 C527 1.390 . S
C526 N529 1.391 . S
C527 H499 0.930 . S
C527 C526 1.390 . S
C527 C528 1.392 . S
C528 H500 0.929 . S
C528 C525 1.391 . S
C528 C527 1.392 . S
N529 Co473 2.257 1_565 S
N529 C526 1.391 . S
N529 C530 1.388 . S
C530 H501 0.930 1_565 S
C530 C525 1.391 . S
C530 N529 1.388 . S
Co531 O533 2.143 . S
Co531 O539 2.074 . S
Co531 O542 2.094 . S
Co531 O555 2.097 1_655 S
Co531 N572 2.151 . S
Co531 N580 2.214 . S
Co532 O533 2.160 . S
Co532 O538 2.058 . S
Co532 O548 2.057 . S
Co532 O563 2.037 1_655 S
Co532 N567 2.145 . S
Co532 N588 2.257 1_655 S
O533 Co531 2.143 . S
O533 Co532 2.160 . S
C534 O535 1.278 . S
C534 O542 1.224 1_455 S
O535 C534 1.278 . S
C536 O537 1.245 . S
C536 O548 1.232 . S
O537 C536 1.245 . S
O538 Co532 2.058 . S
O538 C564 1.269 . S
O539 Co531 2.074 . S
O539 C564 1.257 . S
H540 C565 0.930 . S
H541 C571 0.930 . S
O542 Co531 2.094 . S
O542 C534 1.224 1_655 S
H543 C575 0.929 . S
H544 C577 0.930 . S
H545 C578 0.930 1_455 S
H546 C576 0.929 . S
H547 C579 0.928 . S
O548 Co532 2.057 . S
O548 C536 1.232 . S
H549 C568 0.929 1_455 S
H550 C569 0.929 . S
H551 C581 0.931 1_565 S
H552 C573 0.929 . S
H553 C582 0.930 1_455 S
H554 C574 0.931 . S
O555 Co531 2.097 1_455 S
O555 C583 1.214 . S
H556 C584 0.929 . S
H557 C585 0.929 . S
H558 C586 0.930 . S
H559 C587 0.929 . S
H560 C589 0.930 1_655 S
H561 C566 0.930 . S
H562 C570 0.930 1_455 S
O563 Co532 2.037 1_455 S
O563 C583 1.234 . S
C564 O538 1.269 . S
C564 O539 1.257 . S
C565 H540 0.930 . S
C565 C568 1.388 1_455 S
C565 C570 1.418 1_455 S
C566 H561 0.930 . S
C566 C569 1.404 . S
C566 C570 1.353 . S
N567 Co532 2.145 . S
N567 C568 1.397 . S
N567 C569 1.334 . S
C568 H549 0.929 1_655 S
C568 C565 1.388 1_655 S
C568 N567 1.397 . S
C569 H550 0.929 . S
C569 C566 1.404 . S
C569 N567 1.334 . S
C570 H562 0.930 1_655 S
C570 C565 1.418 1_655 S
C570 C566 1.353 . S
C571 H541 0.930 . S
C571 N572 1.330 . S
C571 C573 1.446 . S
N572 Co531 2.151 . S
N572 C571 1.330 . S
N572 C576 1.418 . S
C573 H552 0.929 . S
C573 C571 1.446 . S
C573 C574 1.332 . S
C574 H554 0.931 . S
C574 C573 1.332 . S
C574 C575 1.267 . S
C575 H543 0.929 . S
C575 C574 1.267 . S
C575 C576 1.251 . S
C576 H546 0.929 . S
C576 N572 1.418 . S
C576 C575 1.251 . S
C577 H544 0.930 . S
C577 C579 1.406 . S
C577 C582 1.261 . S
C578 H545 0.930 1_655 S
C578 N580 1.325 . S
C578 C581 1.357 1_655 S
C579 H547 0.928 . S
C579 C577 1.406 . S
C579 N580 1.261 . S
N580 Co531 2.214 . S
N580 C578 1.325 . S
N580 C579 1.261 . S
C581 H551 0.931 1_545 S
C581 C578 1.357 1_455 S
C581 C582 1.312 1_455 S
C582 H553 0.930 1_655 S
C582 C577 1.261 . S
C582 C581 1.312 1_655 S
C583 O555 1.214 . S
C583 O563 1.234 . S
C584 H556 0.929 . S
C584 C587 1.391 . S
C584 C589 1.391 . S
C585 H557 0.929 . S
C585 C586 1.390 . S
C585 N588 1.391 . S
C586 H558 0.930 . S
C586 C585 1.390 . S
C586 C587 1.392 . S
C587 H559 0.929 . S
C587 C584 1.391 . S
C587 C586 1.392 . S
N588 Co532 2.257 1_455 S
N588 C585 1.391 . S
N588 C589 1.388 . S
C589 H560 0.930 1_455 S
C589 C584 1.391 . S
C589 N588 1.388 . S
Co590 O592 2.143 . S
Co590 O598 2.074 . S
Co590 O601 2.093 . S
Co590 O614 2.097 1_565 S
Co590 N631 2.151 . S
Co590 N639 2.214 . S
Co591 O592 2.160 . S
Co591 O597 2.058 . S
Co591 O607 2.057 . S
Co591 O622 2.037 1_565 S
Co591 N626 2.145 . S
Co591 N647 2.257 1_565 S
O592 Co590 2.143 . S
O592 Co591 2.160 . S
C593 O594 1.278 . S
C593 O601 1.225 1_545 S
O594 C593 1.278 . S
C595 O596 1.245 . S
C595 O607 1.232 . S
O596 C595 1.245 . S
O597 Co591 2.058 . S
O597 C623 1.269 . S
O598 Co590 2.074 . S
O598 C623 1.257 . S
H599 C624 0.930 . S
H600 C630 0.930 . S
O601 Co590 2.093 . S
O601 C593 1.225 1_565 S
H602 C634 0.929 . S
H603 C636 0.930 . S
H604 C637 0.930 1_545 S
H605 C635 0.929 . S
H606 C638 0.928 . S
O607 Co591 2.057 . S
O607 C595 1.232 . S
H608 C627 0.929 1_545 S
H609 C628 0.929 . S
H610 C640 0.931 1_455 S
H611 C632 0.929 . S
H612 C641 0.930 1_545 S
H613 C633 0.931 . S
O614 Co590 2.097 1_545 S
O614 C642 1.214 . S
H615 C643 0.929 . S
H616 C644 0.929 . S
H617 C645 0.930 . S
H618 C646 0.929 . S
H619 C648 0.930 1_565 S
H620 C625 0.930 . S
H621 C629 0.930 1_545 S
O622 Co591 2.037 1_545 S
O622 C642 1.234 . S
C623 O597 1.269 . S
C623 O598 1.257 . S
C624 H599 0.930 . S
C624 C627 1.388 1_545 S
C624 C629 1.418 1_545 S
C625 H620 0.930 . S
C625 C628 1.404 . S
C625 C629 1.353 . S
N626 Co591 2.145 . S
N626 C627 1.397 . S
N626 C628 1.334 . S
C627 H608 0.929 1_565 S
C627 C624 1.388 1_565 S
C627 N626 1.397 . S
C628 H609 0.929 . S
C628 C625 1.404 . S
C628 N626 1.334 . S
C629 H621 0.930 1_565 S
C629 C624 1.418 1_565 S
C629 C625 1.353 . S
C630 H600 0.930 . S
C630 N631 1.330 . S
C630 C632 1.446 . S
N631 Co590 2.151 . S
N631 C630 1.330 . S
N631 C635 1.418 . S
C632 H611 0.929 . S
C632 C630 1.446 . S
C632 C633 1.332 . S
C633 H613 0.931 . S
C633 C632 1.332 . S
C633 C634 1.267 . S
C634 H602 0.929 . S
C634 C633 1.267 . S
C634 C635 1.251 . S
C635 H605 0.929 . S
C635 N631 1.418 . S
C635 C634 1.251 . S
C636 H603 0.930 . S
C636 C638 1.406 . S
C636 C641 1.261 . S
C637 H604 0.930 1_565 S
C637 N639 1.325 . S
C637 C640 1.357 1_565 S
C638 H606 0.928 . S
C638 C636 1.406 . S
C638 N639 1.261 . S
N639 Co590 2.214 . S
N639 C637 1.325 . S
N639 C638 1.261 . S
C640 H610 0.931 1_655 S
C640 C637 1.357 1_545 S
C640 C641 1.312 1_545 S
C641 H612 0.930 1_565 S
C641 C636 1.261 . S
C641 C640 1.312 1_565 S
C642 O614 1.214 . S
C642 O622 1.234 . S
C643 H615 0.929 . S
C643 C646 1.391 . S
C643 C648 1.391 . S
C644 H616 0.929 . S
C644 C645 1.390 . S
C644 N647 1.391 . S
C645 H617 0.930 . S
C645 C644 1.390 . S
C645 C646 1.392 . S
C646 H618 0.929 . S
C646 C643 1.391 . S
C646 C645 1.392 . S
N647 Co591 2.257 1_545 S
N647 C644 1.391 . S
N647 C648 1.388 . S
C648 H619 0.930 1_545 S
C648 C643 1.391 . S
C648 N647 1.388 . S
Co649 O651 2.143 . S
Co649 O657 2.074 . S
Co649 O660 2.094 . S
Co649 O673 2.097 1_455 S
Co649 N690 2.151 . S
Co649 N698 2.214 . S
Co650 O651 2.160 . S
Co650 O656 2.058 . S
Co650 O666 2.057 . S
Co650 O681 2.037 1_455 S
Co650 N685 2.145 . S
Co650 N706 2.257 1_455 S
O651 Co649 2.143 . S
O651 Co650 2.160 . S
C652 O653 1.278 . S
C652 O660 1.224 1_655 S
O653 C652 1.278 . S
C654 O655 1.245 . S
C654 O666 1.232 . S
O655 C654 1.245 . S
O656 Co650 2.058 . S
O656 C682 1.269 . S
O657 Co649 2.074 . S
O657 C682 1.257 . S
H658 C683 0.930 . S
H659 C689 0.930 . S
O660 Co649 2.094 . S
O660 C652 1.224 1_455 S
H661 C693 0.929 . S
H662 C695 0.930 . S
H663 C696 0.930 1_655 S
H664 C694 0.929 . S
H665 C697 0.928 . S
O666 Co650 2.057 . S
O666 C654 1.232 . S
H667 C686 0.929 1_655 S
H668 C687 0.929 . S
H669 C699 0.931 1_545 S
H670 C691 0.929 . S
H671 C700 0.930 1_655 S
H672 C692 0.931 . S
O673 Co649 2.097 1_655 S
O673 C701 1.214 . S
H674 C702 0.929 . S
H675 C703 0.929 . S
H676 C704 0.930 . S
H677 C705 0.929 . S
H678 C707 0.930 1_455 S
H679 C684 0.930 . S
H680 C688 0.930 1_655 S
O681 Co650 2.037 1_655 S
O681 C701 1.234 . S
C682 O656 1.269 . S
C682 O657 1.257 . S
C683 H658 0.930 . S
C683 C686 1.388 1_655 S
C683 C688 1.418 1_655 S
C684 H679 0.930 . S
C684 C687 1.404 . S
C684 C688 1.353 . S
N685 Co650 2.145 . S
N685 C686 1.397 . S
N685 C687 1.334 . S
C686 H667 0.929 1_455 S
C686 C683 1.388 1_455 S
C686 N685 1.397 . S
C687 H668 0.929 . S
C687 C684 1.404 . S
C687 N685 1.334 . S
C688 H680 0.930 1_455 S
C688 C683 1.418 1_455 S
C688 C684 1.353 . S
C689 H659 0.930 . S
C689 N690 1.330 . S
C689 C691 1.446 . S
N690 Co649 2.151 . S
N690 C689 1.330 . S
N690 C694 1.418 . S
C691 H670 0.929 . S
C691 C689 1.446 . S
C691 C692 1.332 . S
C692 H672 0.931 . S
C692 C691 1.332 . S
C692 C693 1.267 . S
C693 H661 0.929 . S
C693 C692 1.267 . S
C693 C694 1.251 . S
C694 H664 0.929 . S
C694 N690 1.418 . S
C694 C693 1.251 . S
C695 H662 0.930 . S
C695 C697 1.406 . S
C695 C700 1.261 . S
C696 H663 0.930 1_455 S
C696 N698 1.325 . S
C696 C699 1.357 1_455 S
C697 H665 0.928 . S
C697 C695 1.406 . S
C697 N698 1.261 . S
N698 Co649 2.214 . S
N698 C696 1.325 . S
N698 C697 1.261 . S
C699 H669 0.931 1_565 S
C699 C696 1.357 1_655 S
C699 C700 1.312 1_655 S
C700 H671 0.930 1_455 S
C700 C695 1.261 . S
C700 C699 1.312 1_455 S
C701 O673 1.214 . S
C701 O681 1.234 . S
C702 H674 0.929 . S
C702 C705 1.391 . S
C702 C707 1.391 . S
C703 H675 0.929 . S
C703 C704 1.390 . S
C703 N706 1.391 . S
C704 H676 0.930 . S
C704 C703 1.390 . S
C704 C705 1.392 . S
C705 H677 0.929 . S
C705 C702 1.391 . S
C705 C704 1.392 . S
N706 Co650 2.257 1_655 S
N706 C703 1.391 . S
N706 C707 1.388 . S
C707 H678 0.930 1_655 S
C707 C702 1.391 . S
C707 N706 1.388 . S
Co708 O710 2.143 . S
Co708 O716 2.074 . S
Co708 O719 2.093 . S
Co708 O732 2.097 1_565 S
Co708 N749 2.151 . S
Co708 N757 2.214 . S
Co709 O710 2.160 . S
Co709 O715 2.058 . S
Co709 O725 2.057 . S
Co709 O740 2.037 1_565 S
Co709 N744 2.145 . S
Co709 N765 2.257 1_565 S
O710 Co708 2.143 . S
O710 Co709 2.160 . S
C711 O712 1.278 . S
C711 O719 1.225 1_545 S
O712 C711 1.278 . S
C713 O714 1.245 . S
C713 O725 1.232 . S
O714 C713 1.245 . S
O715 Co709 2.058 . S
O715 C741 1.269 . S
O716 Co708 2.074 . S
O716 C741 1.257 . S
H717 C742 0.930 . S
H718 C748 0.930 . S
O719 Co708 2.093 . S
O719 C711 1.225 1_565 S
H720 C752 0.929 . S
H721 C754 0.930 . S
H722 C755 0.930 1_545 S
H723 C753 0.929 . S
H724 C756 0.928 . S
O725 Co709 2.057 . S
O725 C713 1.232 . S
H726 C745 0.929 1_545 S
H727 C746 0.929 . S
H728 C758 0.931 1_655 S
H729 C750 0.929 . S
H730 C759 0.930 1_545 S
H731 C751 0.931 . S
O732 Co708 2.097 1_545 S
O732 C760 1.214 . S
H733 C761 0.929 . S
H734 C762 0.929 . S
H735 C763 0.930 . S
H736 C764 0.929 . S
H737 C766 0.930 1_565 S
H738 C743 0.930 . S
H739 C747 0.930 1_545 S
O740 Co709 2.037 1_545 S
O740 C760 1.234 . S
C741 O715 1.269 . S
C741 O716 1.257 . S
C742 H717 0.930 . S
C742 C745 1.388 1_545 S
C742 C747 1.418 1_545 S
C743 H738 0.930 . S
C743 C746 1.404 . S
C743 C747 1.353 . S
N744 Co709 2.145 . S
N744 C745 1.397 . S
N744 C746 1.334 . S
C745 H726 0.929 1_565 S
C745 C742 1.388 1_565 S
C745 N744 1.397 . S
C746 H727 0.929 . S
C746 C743 1.404 . S
C746 N744 1.334 . S
C747 H739 0.930 1_565 S
C747 C742 1.418 1_565 S
C747 C743 1.353 . S
C748 H718 0.930 . S
C748 N749 1.330 . S
C748 C750 1.446 . S
N749 Co708 2.151 . S
N749 C748 1.330 . S
N749 C753 1.418 . S
C750 H729 0.929 . S
C750 C748 1.446 . S
C750 C751 1.332 . S
C751 H731 0.931 . S
C751 C750 1.332 . S
C751 C752 1.267 . S
C752 H720 0.929 . S
C752 C751 1.267 . S
C752 C753 1.251 . S
C753 H723 0.929 . S
C753 N749 1.418 . S
C753 C752 1.251 . S
C754 H721 0.930 . S
C754 C756 1.406 . S
C754 C759 1.261 . S
C755 H722 0.930 1_565 S
C755 N757 1.325 . S
C755 C758 1.357 1_565 S
C756 H724 0.928 . S
C756 C754 1.406 . S
C756 N757 1.261 . S
N757 Co708 2.214 . S
N757 C755 1.325 . S
N757 C756 1.261 . S
C758 H728 0.931 1_455 S
C758 C755 1.357 1_545 S
C758 C759 1.312 1_545 S
C759 H730 0.930 1_565 S
C759 C754 1.261 . S
C759 C758 1.312 1_565 S
C760 O732 1.214 . S
C760 O740 1.234 . S
C761 H733 0.929 . S
C761 C764 1.391 . S
C761 C766 1.391 . S
C762 H734 0.929 . S
C762 C763 1.390 . S
C762 N765 1.391 . S
C763 H735 0.930 . S
C763 C762 1.390 . S
C763 C764 1.392 . S
C764 H736 0.929 . S
C764 C761 1.391 . S
C764 C763 1.392 . S
N765 Co709 2.257 1_545 S
N765 C762 1.391 . S
N765 C766 1.388 . S
C766 H737 0.930 1_545 S
C766 C761 1.391 . S
C766 N765 1.388 . S
Co767 O769 2.143 . S
Co767 O775 2.074 . S
Co767 O778 2.094 . S
Co767 O791 2.097 1_455 S
Co767 N808 2.151 . S
Co767 N816 2.214 . S
Co768 O769 2.160 . S
Co768 O774 2.058 . S
Co768 O784 2.057 . S
Co768 O799 2.037 1_455 S
Co768 N803 2.145 . S
Co768 N824 2.257 1_455 S
O769 Co767 2.143 . S
O769 Co768 2.160 . S
C770 O771 1.278 . S
C770 O778 1.224 1_655 S
O771 C770 1.278 . S
C772 O773 1.245 . S
C772 O784 1.232 . S
O773 C772 1.245 . S
O774 Co768 2.058 . S
O774 C800 1.269 . S
O775 Co767 2.074 . S
O775 C800 1.257 . S
H776 C801 0.930 . S
H777 C807 0.930 . S
O778 Co767 2.094 . S
O778 C770 1.224 1_455 S
H779 C811 0.929 . S
H780 C813 0.930 . S
H781 C814 0.930 1_655 S
H782 C812 0.929 . S
H783 C815 0.928 . S
O784 Co768 2.057 . S
O784 C772 1.232 . S
H785 C804 0.929 1_655 S
H786 C805 0.929 . S
H787 C817 0.931 1_565 S
H788 C809 0.929 . S
H789 C818 0.930 1_655 S
H790 C810 0.931 . S
O791 Co767 2.097 1_655 S
O791 C819 1.214 . S
H792 C820 0.929 . S
H793 C821 0.929 . S
H794 C822 0.930 . S
H795 C823 0.929 . S
H796 C825 0.930 1_455 S
H797 C802 0.930 . S
H798 C806 0.930 1_655 S
O799 Co768 2.037 1_655 S
O799 C819 1.234 . S
C800 O774 1.269 . S
C800 O775 1.257 . S
C801 H776 0.930 . S
C801 C804 1.388 1_655 S
C801 C806 1.418 1_655 S
C802 H797 0.930 . S
C802 C805 1.404 . S
C802 C806 1.353 . S
N803 Co768 2.145 . S
N803 C804 1.397 . S
N803 C805 1.334 . S
C804 H785 0.929 1_455 S
C804 C801 1.388 1_455 S
C804 N803 1.397 . S
C805 H786 0.929 . S
C805 C802 1.404 . S
C805 N803 1.334 . S
C806 H798 0.930 1_455 S
C806 C801 1.418 1_455 S
C806 C802 1.353 . S
C807 H777 0.930 . S
C807 N808 1.330 . S
C807 C809 1.446 . S
N808 Co767 2.151 . S
N808 C807 1.330 . S
N808 C812 1.418 . S
C809 H788 0.929 . S
C809 C807 1.446 . S
C809 C810 1.332 . S
C810 H790 0.931 . S
C810 C809 1.332 . S
C810 C811 1.267 . S
C811 H779 0.929 . S
C811 C810 1.267 . S
C811 C812 1.251 . S
C812 H782 0.929 . S
C812 N808 1.418 . S
C812 C811 1.251 . S
C813 H780 0.930 . S
C813 C815 1.406 . S
C813 C818 1.261 . S
C814 H781 0.930 1_455 S
C814 N816 1.325 . S
C814 C817 1.357 1_455 S
C815 H783 0.928 . S
C815 C813 1.406 . S
C815 N816 1.261 . S
N816 Co767 2.214 . S
N816 C814 1.325 . S
N816 C815 1.261 . S
C817 H787 0.931 1_545 S
C817 C814 1.357 1_655 S
C817 C818 1.312 1_655 S
C818 H789 0.930 1_455 S
C818 C813 1.261 . S
C818 C817 1.312 1_455 S
C819 O791 1.214 . S
C819 O799 1.234 . S
C820 H792 0.929 . S
C820 C823 1.391 . S
C820 C825 1.391 . S
C821 H793 0.929 . S
C821 C822 1.390 . S
C821 N824 1.391 . S
C822 H794 0.930 . S
C822 C821 1.390 . S
C822 C823 1.392 . S
C823 H795 0.929 . S
C823 C820 1.391 . S
C823 C822 1.392 . S
N824 Co768 2.257 1_655 S
N824 C821 1.391 . S
N824 C825 1.388 . S
C825 H796 0.930 1_655 S
C825 C820 1.391 . S
C825 N824 1.388 . S
Co826 O828 2.143 . S
Co826 O834 2.074 . S
Co826 O837 2.093 . S
Co826 O850 2.097 1_545 S
Co826 N867 2.151 . S
Co826 N875 2.214 . S
Co827 O828 2.160 . S
Co827 O833 2.058 . S
Co827 O843 2.057 . S
Co827 O858 2.037 1_545 S
Co827 N862 2.145 . S
Co827 N883 2.257 1_545 S
O828 Co826 2.143 . S
O828 Co827 2.160 . S
C829 O830 1.278 . S
C829 O837 1.225 1_565 S
O830 C829 1.278 . S
C831 O832 1.245 . S
C831 O843 1.232 . S
O832 C831 1.245 . S
O833 Co827 2.058 . S
O833 C859 1.269 . S
O834 Co826 2.074 . S
O834 C859 1.257 . S
H835 C860 0.930 . S
H836 C866 0.930 . S
O837 Co826 2.093 . S
O837 C829 1.225 1_545 S
H838 C870 0.929 . S
H839 C872 0.930 . S
H840 C873 0.930 1_565 S
H841 C871 0.929 . S
H842 C874 0.928 . S
O843 Co827 2.057 . S
O843 C831 1.232 . S
H844 C863 0.929 1_565 S
H845 C864 0.929 . S
H846 C876 0.931 1_455 S
H847 C868 0.929 . S
H848 C877 0.930 1_565 S
H849 C869 0.931 . S
O850 Co826 2.097 1_565 S
O850 C878 1.214 . S
H851 C879 0.929 . S
H852 C880 0.929 . S
H853 C881 0.930 . S
H854 C882 0.929 . S
H855 C884 0.930 1_545 S
H856 C861 0.930 . S
H857 C865 0.930 1_565 S
O858 Co827 2.037 1_565 S
O858 C878 1.234 . S
C859 O833 1.269 . S
C859 O834 1.257 . S
C860 H835 0.930 . S
C860 C863 1.388 1_565 S
C860 C865 1.418 1_565 S
C861 H856 0.930 . S
C861 C864 1.404 . S
C861 C865 1.353 . S
N862 Co827 2.145 . S
N862 C863 1.397 . S
N862 C864 1.334 . S
C863 H844 0.929 1_545 S
C863 C860 1.388 1_545 S
C863 N862 1.397 . S
C864 H845 0.929 . S
C864 C861 1.404 . S
C864 N862 1.334 . S
C865 H857 0.930 1_545 S
C865 C860 1.418 1_545 S
C865 C861 1.353 . S
C866 H836 0.930 . S
C866 N867 1.330 . S
C866 C868 1.446 . S
N867 Co826 2.151 . S
N867 C866 1.330 . S
N867 C871 1.418 . S
C868 H847 0.929 . S
C868 C866 1.446 . S
C868 C869 1.332 . S
C869 H849 0.931 . S
C869 C868 1.332 . S
C869 C870 1.267 . S
C870 H838 0.929 . S
C870 C869 1.267 . S
C870 C871 1.251 . S
C871 H841 0.929 . S
C871 N867 1.418 . S
C871 C870 1.251 . S
C872 H839 0.930 . S
C872 C874 1.406 . S
C872 C877 1.261 . S
C873 H840 0.930 1_545 S
C873 N875 1.325 . S
C873 C876 1.357 1_545 S
C874 H842 0.928 . S
C874 C872 1.406 . S
C874 N875 1.261 . S
N875 Co826 2.214 . S
N875 C873 1.325 . S
N875 C874 1.261 . S
C876 H846 0.931 1_655 S
C876 C873 1.357 1_565 S
C876 C877 1.312 1_565 S
C877 H848 0.930 1_545 S
C877 C872 1.261 . S
C877 C876 1.312 1_545 S
C878 O850 1.214 . S
C878 O858 1.234 . S
C879 H851 0.929 . S
C879 C882 1.391 . S
C879 C884 1.391 . S
C880 H852 0.929 . S
C880 C881 1.390 . S
C880 N883 1.391 . S
C881 H853 0.930 . S
C881 C880 1.390 . S
C881 C882 1.392 . S
C882 H854 0.929 . S
C882 C879 1.391 . S
C882 C881 1.392 . S
N883 Co827 2.257 1_565 S
N883 C880 1.391 . S
N883 C884 1.388 . S
C884 H855 0.930 1_565 S
C884 C879 1.391 . S
C884 N883 1.388 . S
Co885 O887 2.143 . S
Co885 O893 2.074 . S
Co885 O896 2.094 . S
Co885 O909 2.097 1_655 S
Co885 N926 2.151 . S
Co885 N934 2.214 . S
Co886 O887 2.160 . S
Co886 O892 2.058 . S
Co886 O902 2.057 . S
Co886 O917 2.037 1_655 S
Co886 N921 2.145 . S
Co886 N942 2.257 1_655 S
O887 Co885 2.143 . S
O887 Co886 2.160 . S
C888 O889 1.278 . S
C888 O896 1.224 1_455 S
O889 C888 1.278 . S
C890 O891 1.245 . S
C890 O902 1.232 . S
O891 C890 1.245 . S
O892 Co886 2.058 . S
O892 C918 1.269 . S
O893 Co885 2.074 . S
O893 C918 1.257 . S
H894 C919 0.930 . S
H895 C925 0.930 . S
O896 Co885 2.094 . S
O896 C888 1.224 1_655 S
H897 C929 0.929 . S
H898 C931 0.930 . S
H899 C932 0.930 1_455 S
H900 C930 0.929 . S
H901 C933 0.928 . S
O902 Co886 2.057 . S
O902 C890 1.232 . S
H903 C922 0.929 1_455 S
H904 C923 0.929 . S
H905 C935 0.931 1_545 S
H906 C927 0.929 . S
H907 C936 0.930 1_455 S
H908 C928 0.931 . S
O909 Co885 2.097 1_455 S
O909 C937 1.214 . S
H910 C938 0.929 . S
H911 C939 0.929 . S
H912 C940 0.930 . S
H913 C941 0.929 . S
H914 C943 0.930 1_655 S
H915 C920 0.930 . S
H916 C924 0.930 1_455 S
O917 Co886 2.037 1_455 S
O917 C937 1.234 . S
C918 O892 1.269 . S
C918 O893 1.257 . S
C919 H894 0.930 . S
C919 C922 1.388 1_455 S
C919 C924 1.418 1_455 S
C920 H915 0.930 . S
C920 C923 1.404 . S
C920 C924 1.353 . S
N921 Co886 2.145 . S
N921 C922 1.397 . S
N921 C923 1.334 . S
C922 H903 0.929 1_655 S
C922 C919 1.388 1_655 S
C922 N921 1.397 . S
C923 H904 0.929 . S
C923 C920 1.404 . S
C923 N921 1.334 . S
C924 H916 0.930 1_655 S
C924 C919 1.418 1_655 S
C924 C920 1.353 . S
C925 H895 0.930 . S
C925 N926 1.330 . S
C925 C927 1.446 . S
N926 Co885 2.151 . S
N926 C925 1.330 . S
N926 C930 1.418 . S
C927 H906 0.929 . S
C927 C925 1.446 . S
C927 C928 1.332 . S
C928 H908 0.931 . S
C928 C927 1.332 . S
C928 C929 1.267 . S
C929 H897 0.929 . S
C929 C928 1.267 . S
C929 C930 1.251 . S
C930 H900 0.929 . S
C930 N926 1.418 . S
C930 C929 1.251 . S
C931 H898 0.930 . S
C931 C933 1.406 . S
C931 C936 1.261 . S
C932 H899 0.930 1_655 S
C932 N934 1.325 . S
C932 C935 1.357 1_655 S
C933 H901 0.928 . S
C933 C931 1.406 . S
C933 N934 1.261 . S
N934 Co885 2.214 . S
N934 C932 1.325 . S
N934 C933 1.261 . S
C935 H905 0.931 1_565 S
C935 C932 1.357 1_455 S
C935 C936 1.312 1_455 S
C936 H907 0.930 1_655 S
C936 C931 1.261 . S
C936 C935 1.312 1_655 S
C937 O909 1.214 . S
C937 O917 1.234 . S
C938 H910 0.929 . S
C938 C941 1.391 . S
C938 C943 1.391 . S
C939 H911 0.929 . S
C939 C940 1.390 . S
C939 N942 1.391 . S
C940 H912 0.930 . S
C940 C939 1.390 . S
C940 C941 1.392 . S
C941 H913 0.929 . S
C941 C938 1.391 . S
C941 C940 1.392 . S
N942 Co886 2.257 1_455 S
N942 C939 1.391 . S
N942 C943 1.388 . S
C943 H914 0.930 1_455 S
C943 C938 1.391 . S
C943 N942 1.388 . S
Co944 O946 2.143 . S
Co944 O952 2.074 1_554 S
Co944 O955 2.093 . S
Co944 O968 2.097 . S
Co944 N985 2.151 1_554 S
Co944 N993 2.214 . S
Co945 O946 2.160 . S
Co945 O951 2.058 1_554 S
Co945 O961 2.057 . S
Co945 O976 2.037 . S
Co945 N980 2.145 . S
Co945 N1001 2.257 . S
O946 Co944 2.143 . S
O946 Co945 2.160 . S
C947 O948 1.278 . S
C947 O955 1.224 . S
O948 C947 1.278 . S
C949 O950 1.245 . S
C949 O961 1.232 1_556 S
O950 C949 1.245 . S
O951 Co945 2.058 1_556 S
O951 C977 1.269 . S
O952 Co944 2.074 1_556 S
O952 C977 1.257 . S
H953 C978 0.930 . S
H954 C984 0.930 1_554 S
O955 Co944 2.093 . S
O955 C947 1.224 . S
H956 C988 0.929 . S
H957 C990 0.930 . S
H958 C991 0.930 . S
H959 C989 0.929 . S
H960 C992 0.928 . S
O961 Co945 2.057 . S
O961 C949 1.232 1_554 S
H962 C981 0.929 . S
H963 C982 0.929 . S
H964 C994 0.931 . S
H965 C986 0.929 . S
H966 C995 0.930 . S
H967 C987 0.931 . S
O968 Co944 2.097 . S
O968 C996 1.214 . S
H969 C997 0.929 . S
H970 C998 0.929 . S
H971 C999 0.930 . S
H972 C1000 0.929 . S
H973 C1002 0.930 . S
H974 C979 0.930 . S
H975 C983 0.930 . S
O976 Co945 2.037 . S
O976 C996 1.234 . S
C977 O951 1.269 . S
C977 O952 1.257 . S
C978 H953 0.930 . S
C978 C981 1.388 . S
C978 C983 1.418 . S
C979 H974 0.930 . S
C979 C982 1.404 . S
C979 C983 1.353 . S
N980 Co945 2.145 . S
N980 C981 1.397 . S
N980 C982 1.334 . S
C981 H962 0.929 . S
C981 C978 1.388 . S
C981 N980 1.397 . S
C982 H963 0.929 . S
C982 C979 1.404 . S
C982 N980 1.334 . S
C983 H975 0.930 . S
C983 C978 1.418 . S
C983 C979 1.353 . S
C984 H954 0.930 1_556 S
C984 N985 1.330 . S
C984 C986 1.446 . S
N985 Co944 2.151 1_556 S
N985 C984 1.330 . S
N985 C989 1.418 . S
C986 H965 0.929 . S
C986 C984 1.446 . S
C986 C987 1.332 . S
C987 H967 0.931 . S
C987 C986 1.332 . S
C987 C988 1.267 . S
C988 H956 0.929 . S
C988 C987 1.267 . S
C988 C989 1.251 . S
C989 H959 0.929 . S
C989 N985 1.418 . S
C989 C988 1.251 . S
C990 H957 0.930 . S
C990 C992 1.406 . S
C990 C995 1.261 . S
C991 H958 0.930 . S
C991 N993 1.325 . S
C991 C994 1.357 . S
C992 H960 0.928 . S
C992 C990 1.406 . S
C992 N993 1.261 . S
N993 Co944 2.214 . S
N993 C991 1.325 . S
N993 C992 1.261 . S
C994 H964 0.931 . S
C994 C991 1.357 . S
C994 C995 1.312 . S
C995 H966 0.930 . S
C995 C990 1.261 . S
C995 C994 1.312 . S
C996 O968 1.214 . S
C996 O976 1.234 . S
C997 H969 0.929 . S
C997 C1000 1.391 . S
C997 C1002 1.391 . S
C998 H970 0.929 . S
C998 C999 1.390 . S
C998 N1001 1.391 . S
C999 H971 0.930 . S
C999 C998 1.390 . S
C999 C1000 1.392 . S
C1000 H972 0.929 . S
C1000 C997 1.391 . S
C1000 C999 1.392 . S
N1001 Co945 2.257 . S
N1001 C998 1.391 . S
N1001 C1002 1.388 . S
C1002 H973 0.930 . S
C1002 C997 1.391 . S
C1002 N1001 1.388 . S
Co1003 O1005 2.143 . S
Co1003 O1011 2.074 1_556 S
Co1003 O1014 2.093 . S
Co1003 O1027 2.097 . S
Co1003 N1044 2.151 1_556 S
Co1003 N1052 2.214 . S
Co1004 O1005 2.160 . S
Co1004 O1010 2.058 1_556 S
Co1004 O1020 2.057 . S
Co1004 O1035 2.037 . S
Co1004 N1039 2.145 . S
Co1004 N1060 2.257 . S
O1005 Co1003 2.143 . S
O1005 Co1004 2.160 . S
C1006 O1007 1.278 . S
C1006 O1014 1.224 . S
O1007 C1006 1.278 . S
C1008 O1009 1.245 . S
C1008 O1020 1.232 1_554 S
O1009 C1008 1.245 . S
O1010 Co1004 2.058 1_554 S
O1010 C1036 1.269 . S
O1011 Co1003 2.074 1_554 S
O1011 C1036 1.257 . S
H1012 C1037 0.930 . S
H1013 C1043 0.930 1_556 S
O1014 Co1003 2.093 . S
O1014 C1006 1.224 . S
H1015 C1047 0.929 . S
H1016 C1049 0.930 . S
H1017 C1050 0.930 . S
H1018 C1048 0.929 . S
H1019 C1051 0.928 . S
O1020 Co1004 2.057 . S
O1020 C1008 1.232 1_556 S
H1021 C1040 0.929 . S
H1022 C1041 0.929 . S
H1023 C1053 0.931 . S
H1024 C1045 0.929 . S
H1025 C1054 0.930 . S
H1026 C1046 0.931 . S
O1027 Co1003 2.097 . S
O1027 C1055 1.214 . S
H1028 C1056 0.929 . S
H1029 C1057 0.929 . S
H1030 C1058 0.930 . S
H1031 C1059 0.929 . S
H1032 C1061 0.930 . S
H1033 C1038 0.930 . S
H1034 C1042 0.930 . S
O1035 Co1004 2.037 . S
O1035 C1055 1.234 . S
C1036 O1010 1.269 . S
C1036 O1011 1.257 . S
C1037 H1012 0.930 . S
C1037 C1040 1.388 . S
C1037 C1042 1.418 . S
C1038 H1033 0.930 . S
C1038 C1041 1.404 . S
C1038 C1042 1.353 . S
N1039 Co1004 2.145 . S
N1039 C1040 1.397 . S
N1039 C1041 1.334 . S
C1040 H1021 0.929 . S
C1040 C1037 1.388 . S
C1040 N1039 1.397 . S
C1041 H1022 0.929 . S
C1041 C1038 1.404 . S
C1041 N1039 1.334 . S
C1042 H1034 0.930 . S
C1042 C1037 1.418 . S
C1042 C1038 1.353 . S
C1043 H1013 0.930 1_554 S
C1043 N1044 1.330 . S
C1043 C1045 1.446 . S
N1044 Co1003 2.151 1_554 S
N1044 C1043 1.330 . S
N1044 C1048 1.418 . S
C1045 H1024 0.929 . S
C1045 C1043 1.446 . S
C1045 C1046 1.332 . S
C1046 H1026 0.931 . S
C1046 C1045 1.332 . S
C1046 C1047 1.267 . S
C1047 H1015 0.929 . S
C1047 C1046 1.267 . S
C1047 C1048 1.251 . S
C1048 H1018 0.929 . S
C1048 N1044 1.418 . S
C1048 C1047 1.251 . S
C1049 H1016 0.930 . S
C1049 C1051 1.406 . S
C1049 C1054 1.261 . S
C1050 H1017 0.930 . S
C1050 N1052 1.325 . S
C1050 C1053 1.357 . S
C1051 H1019 0.928 . S
C1051 C1049 1.406 . S
C1051 N1052 1.261 . S
N1052 Co1003 2.214 . S
N1052 C1050 1.325 . S
N1052 C1051 1.261 . S
C1053 H1023 0.931 . S
C1053 C1050 1.357 . S
C1053 C1054 1.312 . S
C1054 H1025 0.930 . S
C1054 C1049 1.261 . S
C1054 C1053 1.312 . S
C1055 O1027 1.214 . S
C1055 O1035 1.234 . S
C1056 H1028 0.929 . S
C1056 C1059 1.391 . S
C1056 C1061 1.391 . S
C1057 H1029 0.929 . S
C1057 C1058 1.390 . S
C1057 N1060 1.391 . S
C1058 H1030 0.930 . S
C1058 C1057 1.390 . S
C1058 C1059 1.392 . S
C1059 H1031 0.929 . S
C1059 C1056 1.391 . S
C1059 C1058 1.392 . S
N1060 Co1004 2.257 . S
N1060 C1057 1.391 . S
N1060 C1061 1.388 . S
C1061 H1032 0.930 . S
C1061 C1056 1.391 . S
C1061 N1060 1.388 . S
Co1062 O1064 2.143 . S
Co1062 O1070 2.074 . S
Co1062 O1073 2.093 . S
Co1062 O1086 2.097 1_556 S
Co1062 N1103 2.151 . S
Co1062 N1111 2.214 . S
Co1063 O1064 2.160 . S
Co1063 O1069 2.058 . S
Co1063 O1079 2.057 . S
Co1063 O1094 2.037 1_556 S
Co1063 N1098 2.145 . S
Co1063 N1119 2.257 1_556 S
O1064 Co1062 2.143 . S
O1064 Co1063 2.160 . S
C1065 O1066 1.278 . S
C1065 O1073 1.225 1_554 S
O1066 C1065 1.278 . S
C1067 O1068 1.245 . S
C1067 O1079 1.232 . S
O1068 C1067 1.245 . S
O1069 Co1063 2.058 . S
O1069 C1095 1.269 . S
O1070 Co1062 2.074 . S
O1070 C1095 1.257 . S
H1071 C1096 0.930 . S
H1072 C1102 0.930 . S
O1073 Co1062 2.093 . S
O1073 C1065 1.225 1_556 S
H1074 C1106 0.929 . S
H1075 C1108 0.930 . S
H1076 C1109 0.930 1_554 S
H1077 C1107 0.929 . S
H1078 C1110 0.928 . S
O1079 Co1063 2.057 . S
O1079 C1067 1.232 . S
H1080 C1099 0.929 1_554 S
H1081 C1100 0.929 . S
H1082 C1112 0.931 1_655 S
H1083 C1104 0.929 . S
H1084 C1113 0.930 1_554 S
H1085 C1105 0.931 . S
O1086 Co1062 2.097 1_554 S
O1086 C1114 1.214 . S
H1087 C1115 0.929 . S
H1088 C1116 0.929 . S
H1089 C1117 0.930 . S
H1090 C1118 0.929 . S
H1091 C1120 0.930 1_556 S
H1092 C1097 0.930 . S
H1093 C1101 0.930 1_554 S
O1094 Co1063 2.037 1_554 S
O1094 C1114 1.234 . S
C1095 O1069 1.269 . S
C1095 O1070 1.257 . S
C1096 H1071 0.930 . S
C1096 C1099 1.388 1_554 S
C1096 C1101 1.418 1_554 S
C1097 H1092 0.930 . S
C1097 C1100 1.404 . S
C1097 C1101 1.353 . S
N1098 Co1063 2.145 . S
N1098 C1099 1.397 . S
N1098 C1100 1.334 . S
C1099 H1080 0.929 1_556 S
C1099 C1096 1.388 1_556 S
C1099 N1098 1.397 . S
C1100 H1081 0.929 . S
C1100 C1097 1.404 . S
C1100 N1098 1.334 . S
C1101 H1093 0.930 1_556 S
C1101 C1096 1.418 1_556 S
C1101 C1097 1.353 . S
C1102 H1072 0.930 . S
C1102 N1103 1.330 . S
C1102 C1104 1.446 . S
N1103 Co1062 2.151 . S
N1103 C1102 1.330 . S
N1103 C1107 1.418 . S
C1104 H1083 0.929 . S
C1104 C1102 1.446 . S
C1104 C1105 1.332 . S
C1105 H1085 0.931 . S
C1105 C1104 1.332 . S
C1105 C1106 1.267 . S
C1106 H1074 0.929 . S
C1106 C1105 1.267 . S
C1106 C1107 1.251 . S
C1107 H1077 0.929 . S
C1107 N1103 1.418 . S
C1107 C1106 1.251 . S
C1108 H1075 0.930 . S
C1108 C1110 1.406 . S
C1108 C1113 1.261 . S
C1109 H1076 0.930 1_556 S
C1109 N1111 1.325 . S
C1109 C1112 1.357 1_556 S
C1110 H1078 0.928 . S
C1110 C1108 1.406 . S
C1110 N1111 1.261 . S
N1111 Co1062 2.214 . S
N1111 C1109 1.325 . S
N1111 C1110 1.261 . S
C1112 H1082 0.931 1_455 S
C1112 C1109 1.357 1_554 S
C1112 C1113 1.312 1_554 S
C1113 H1084 0.930 1_556 S
C1113 C1108 1.261 . S
C1113 C1112 1.312 1_556 S
C1114 O1086 1.214 . S
C1114 O1094 1.234 . S
C1115 H1087 0.929 . S
C1115 C1118 1.391 . S
C1115 C1120 1.391 . S
C1116 H1088 0.929 . S
C1116 C1117 1.390 . S
C1116 N1119 1.391 . S
C1117 H1089 0.930 . S
C1117 C1116 1.390 . S
C1117 C1118 1.392 . S
C1118 H1090 0.929 . S
C1118 C1115 1.391 . S
C1118 C1117 1.392 . S
N1119 Co1063 2.257 1_554 S
N1119 C1116 1.391 . S
N1119 C1120 1.388 . S
C1120 H1091 0.930 1_554 S
C1120 C1115 1.391 . S
C1120 N1119 1.388 . S
Co1121 O1123 2.143 . S
Co1121 O1129 2.074 1_556 S
Co1121 O1132 2.093 . S
Co1121 O1145 2.097 . S
Co1121 N1162 2.151 1_556 S
Co1121 N1170 2.214 . S
Co1122 O1123 2.160 . S
Co1122 O1128 2.058 1_556 S
Co1122 O1138 2.057 . S
Co1122 O1153 2.037 . S
Co1122 N1157 2.145 . S
Co1122 N1178 2.257 . S
O1123 Co1121 2.143 . S
O1123 Co1122 2.160 . S
C1124 O1125 1.278 . S
C1124 O1132 1.224 . S
O1125 C1124 1.278 . S
C1126 O1127 1.245 . S
C1126 O1138 1.232 1_554 S
O1127 C1126 1.245 . S
O1128 Co1122 2.058 1_554 S
O1128 C1154 1.269 . S
O1129 Co1121 2.074 1_554 S
O1129 C1154 1.257 . S
H1130 C1155 0.930 . S
H1131 C1161 0.930 1_556 S
O1132 Co1121 2.093 . S
O1132 C1124 1.224 . S
H1133 C1165 0.929 . S
H1134 C1167 0.930 . S
H1135 C1168 0.930 . S
H1136 C1166 0.929 . S
H1137 C1169 0.928 . S
O1138 Co1122 2.057 . S
O1138 C1126 1.232 1_556 S
H1139 C1158 0.929 . S
H1140 C1159 0.929 . S
H1141 C1171 0.931 . S
H1142 C1163 0.929 . S
H1143 C1172 0.930 . S
H1144 C1164 0.931 . S
O1145 Co1121 2.097 . S
O1145 C1173 1.214 . S
H1146 C1174 0.929 . S
H1147 C1175 0.929 . S
H1148 C1176 0.930 . S
H1149 C1177 0.929 . S
H1150 C1179 0.930 . S
H1151 C1156 0.930 . S
H1152 C1160 0.930 . S
O1153 Co1122 2.037 . S
O1153 C1173 1.234 . S
C1154 O1128 1.269 . S
C1154 O1129 1.257 . S
C1155 H1130 0.930 . S
C1155 C1158 1.388 . S
C1155 C1160 1.418 . S
C1156 H1151 0.930 . S
C1156 C1159 1.404 . S
C1156 C1160 1.353 . S
N1157 Co1122 2.145 . S
N1157 C1158 1.397 . S
N1157 C1159 1.334 . S
C1158 H1139 0.929 . S
C1158 C1155 1.388 . S
C1158 N1157 1.397 . S
C1159 H1140 0.929 . S
C1159 C1156 1.404 . S
C1159 N1157 1.334 . S
C1160 H1152 0.930 . S
C1160 C1155 1.418 . S
C1160 C1156 1.353 . S
C1161 H1131 0.930 1_554 S
C1161 N1162 1.330 . S
C1161 C1163 1.446 . S
N1162 Co1121 2.151 1_554 S
N1162 C1161 1.330 . S
N1162 C1166 1.418 . S
C1163 H1142 0.929 . S
C1163 C1161 1.446 . S
C1163 C1164 1.332 . S
C1164 H1144 0.931 . S
C1164 C1163 1.332 . S
C1164 C1165 1.267 . S
C1165 H1133 0.929 . S
C1165 C1164 1.267 . S
C1165 C1166 1.251 . S
C1166 H1136 0.929 . S
C1166 N1162 1.418 . S
C1166 C1165 1.251 . S
C1167 H1134 0.930 . S
C1167 C1169 1.406 . S
C1167 C1172 1.261 . S
C1168 H1135 0.930 . S
C1168 N1170 1.325 . S
C1168 C1171 1.357 . S
C1169 H1137 0.928 . S
C1169 C1167 1.406 . S
C1169 N1170 1.261 . S
N1170 Co1121 2.214 . S
N1170 C1168 1.325 . S
N1170 C1169 1.261 . S
C1171 H1141 0.931 . S
C1171 C1168 1.357 . S
C1171 C1172 1.312 . S
C1172 H1143 0.930 . S
C1172 C1167 1.261 . S
C1172 C1171 1.312 . S
C1173 O1145 1.214 . S
C1173 O1153 1.234 . S
C1174 H1146 0.929 . S
C1174 C1177 1.391 . S
C1174 C1179 1.391 . S
C1175 H1147 0.929 . S
C1175 C1176 1.390 . S
C1175 N1178 1.391 . S
C1176 H1148 0.930 . S
C1176 C1175 1.390 . S
C1176 C1177 1.392 . S
C1177 H1149 0.929 . S
C1177 C1174 1.391 . S
C1177 C1176 1.392 . S
N1178 Co1122 2.257 . S
N1178 C1175 1.391 . S
N1178 C1179 1.388 . S
C1179 H1150 0.930 . S
C1179 C1174 1.391 . S
C1179 N1178 1.388 . S
Co1180 O1182 2.143 . S
Co1180 O1188 2.074 . S
Co1180 O1191 2.093 . S
Co1180 O1204 2.097 1_556 S
Co1180 N1221 2.151 . S
Co1180 N1229 2.214 . S
Co1181 O1182 2.160 . S
Co1181 O1187 2.058 . S
Co1181 O1197 2.057 . S
Co1181 O1212 2.037 1_556 S
Co1181 N1216 2.145 . S
Co1181 N1237 2.257 1_556 S
O1182 Co1180 2.143 . S
O1182 Co1181 2.160 . S
C1183 O1184 1.278 . S
C1183 O1191 1.225 1_554 S
O1184 C1183 1.278 . S
C1185 O1186 1.245 . S
C1185 O1197 1.232 . S
O1186 C1185 1.245 . S
O1187 Co1181 2.058 . S
O1187 C1213 1.269 . S
O1188 Co1180 2.074 . S
O1188 C1213 1.257 . S
H1189 C1214 0.930 . S
H1190 C1220 0.930 . S
O1191 Co1180 2.093 . S
O1191 C1183 1.225 1_556 S
H1192 C1224 0.929 . S
H1193 C1226 0.930 . S
H1194 C1227 0.930 1_554 S
H1195 C1225 0.929 . S
H1196 C1228 0.928 . S
O1197 Co1181 2.057 . S
O1197 C1185 1.232 . S
H1198 C1217 0.929 1_554 S
H1199 C1218 0.929 . S
H1200 C1230 0.931 1_455 S
H1201 C1222 0.929 . S
H1202 C1231 0.930 1_554 S
H1203 C1223 0.931 . S
O1204 Co1180 2.097 1_554 S
O1204 C1232 1.214 . S
H1205 C1233 0.929 . S
H1206 C1234 0.929 . S
H1207 C1235 0.930 . S
H1208 C1236 0.929 . S
H1209 C1238 0.930 1_556 S
H1210 C1215 0.930 . S
H1211 C1219 0.930 1_554 S
O1212 Co1181 2.037 1_554 S
O1212 C1232 1.234 . S
C1213 O1187 1.269 . S
C1213 O1188 1.257 . S
C1214 H1189 0.930 . S
C1214 C1217 1.388 1_554 S
C1214 C1219 1.418 1_554 S
C1215 H1210 0.930 . S
C1215 C1218 1.404 . S
C1215 C1219 1.353 . S
N1216 Co1181 2.145 . S
N1216 C1217 1.397 . S
N1216 C1218 1.334 . S
C1217 H1198 0.929 1_556 S
C1217 C1214 1.388 1_556 S
C1217 N1216 1.397 . S
C1218 H1199 0.929 . S
C1218 C1215 1.404 . S
C1218 N1216 1.334 . S
C1219 H1211 0.930 1_556 S
C1219 C1214 1.418 1_556 S
C1219 C1215 1.353 . S
C1220 H1190 0.930 . S
C1220 N1221 1.330 . S
C1220 C1222 1.446 . S
N1221 Co1180 2.151 . S
N1221 C1220 1.330 . S
N1221 C1225 1.418 . S
C1222 H1201 0.929 . S
C1222 C1220 1.446 . S
C1222 C1223 1.332 . S
C1223 H1203 0.931 . S
C1223 C1222 1.332 . S
C1223 C1224 1.267 . S
C1224 H1192 0.929 . S
C1224 C1223 1.267 . S
C1224 C1225 1.251 . S
C1225 H1195 0.929 . S
C1225 N1221 1.418 . S
C1225 C1224 1.251 . S
C1226 H1193 0.930 . S
C1226 C1228 1.406 . S
C1226 C1231 1.261 . S
C1227 H1194 0.930 1_556 S
C1227 N1229 1.325 . S
C1227 C1230 1.357 1_556 S
C1228 H1196 0.928 . S
C1228 C1226 1.406 . S
C1228 N1229 1.261 . S
N1229 Co1180 2.214 . S
N1229 C1227 1.325 . S
N1229 C1228 1.261 . S
C1230 H1200 0.931 1_655 S
C1230 C1227 1.357 1_554 S
C1230 C1231 1.312 1_554 S
C1231 H1202 0.930 1_556 S
C1231 C1226 1.261 . S
C1231 C1230 1.312 1_556 S
C1232 O1204 1.214 . S
C1232 O1212 1.234 . S
C1233 H1205 0.929 . S
C1233 C1236 1.391 . S
C1233 C1238 1.391 . S
C1234 H1206 0.929 . S
C1234 C1235 1.390 . S
C1234 N1237 1.391 . S
C1235 H1207 0.930 . S
C1235 C1234 1.390 . S
C1235 C1236 1.392 . S
C1236 H1208 0.929 . S
C1236 C1233 1.391 . S
C1236 C1235 1.392 . S
N1237 Co1181 2.257 1_554 S
N1237 C1234 1.391 . S
N1237 C1238 1.388 . S
C1238 H1209 0.930 1_554 S
C1238 C1233 1.391 . S
C1238 N1237 1.388 . S
Co1239 O1241 2.143 . S
Co1239 O1247 2.074 1_554 S
Co1239 O1250 2.093 . S
Co1239 O1263 2.097 . S
Co1239 N1280 2.151 1_554 S
Co1239 N1288 2.214 . S
Co1240 O1241 2.160 . S
Co1240 O1246 2.058 1_554 S
Co1240 O1256 2.057 . S
Co1240 O1271 2.037 . S
Co1240 N1275 2.145 . S
Co1240 N1296 2.257 . S
O1241 Co1239 2.143 . S
O1241 Co1240 2.160 . S
C1242 O1243 1.278 . S
C1242 O1250 1.224 . S
O1243 C1242 1.278 . S
C1244 O1245 1.245 . S
C1244 O1256 1.232 1_556 S
O1245 C1244 1.245 . S
O1246 Co1240 2.058 1_556 S
O1246 C1272 1.269 . S
O1247 Co1239 2.074 1_556 S
O1247 C1272 1.257 . S
H1248 C1273 0.930 . S
H1249 C1279 0.930 1_554 S
O1250 Co1239 2.093 . S
O1250 C1242 1.224 . S
H1251 C1283 0.929 . S
H1252 C1285 0.930 . S
H1253 C1286 0.930 . S
H1254 C1284 0.929 . S
H1255 C1287 0.928 . S
O1256 Co1240 2.057 . S
O1256 C1244 1.232 1_554 S
H1257 C1276 0.929 . S
H1258 C1277 0.929 . S
H1259 C1289 0.931 . S
H1260 C1281 0.929 . S
H1261 C1290 0.930 . S
H1262 C1282 0.931 . S
O1263 Co1239 2.097 . S
O1263 C1291 1.214 . S
H1264 C1292 0.929 . S
H1265 C1293 0.929 . S
H1266 C1294 0.930 . S
H1267 C1295 0.929 . S
H1268 C1297 0.930 . S
H1269 C1274 0.930 . S
H1270 C1278 0.930 . S
O1271 Co1240 2.037 . S
O1271 C1291 1.234 . S
C1272 O1246 1.269 . S
C1272 O1247 1.257 . S
C1273 H1248 0.930 . S
C1273 C1276 1.388 . S
C1273 C1278 1.418 . S
C1274 H1269 0.930 . S
C1274 C1277 1.404 . S
C1274 C1278 1.353 . S
N1275 Co1240 2.145 . S
N1275 C1276 1.397 . S
N1275 C1277 1.334 . S
C1276 H1257 0.929 . S
C1276 C1273 1.388 . S
C1276 N1275 1.397 . S
C1277 H1258 0.929 . S
C1277 C1274 1.404 . S
C1277 N1275 1.334 . S
C1278 H1270 0.930 . S
C1278 C1273 1.418 . S
C1278 C1274 1.353 . S
C1279 H1249 0.930 1_556 S
C1279 N1280 1.330 . S
C1279 C1281 1.446 . S
N1280 Co1239 2.151 1_556 S
N1280 C1279 1.330 . S
N1280 C1284 1.418 . S
C1281 H1260 0.929 . S
C1281 C1279 1.446 . S
C1281 C1282 1.332 . S
C1282 H1262 0.931 . S
C1282 C1281 1.332 . S
C1282 C1283 1.267 . S
C1283 H1251 0.929 . S
C1283 C1282 1.267 . S
C1283 C1284 1.251 . S
C1284 H1254 0.929 . S
C1284 N1280 1.418 . S
C1284 C1283 1.251 . S
C1285 H1252 0.930 . S
C1285 C1287 1.406 . S
C1285 C1290 1.261 . S
C1286 H1253 0.930 . S
C1286 N1288 1.325 . S
C1286 C1289 1.357 . S
C1287 H1255 0.928 . S
C1287 C1285 1.406 . S
C1287 N1288 1.261 . S
N1288 Co1239 2.214 . S
N1288 C1286 1.325 . S
N1288 C1287 1.261 . S
C1289 H1259 0.931 . S
C1289 C1286 1.357 . S
C1289 C1290 1.312 . S
C1290 H1261 0.930 . S
C1290 C1285 1.261 . S
C1290 C1289 1.312 . S
C1291 O1263 1.214 . S
C1291 O1271 1.234 . S
C1292 H1264 0.929 . S
C1292 C1295 1.391 . S
C1292 C1297 1.391 . S
C1293 H1265 0.929 . S
C1293 C1294 1.390 . S
C1293 N1296 1.391 . S
C1294 H1266 0.930 . S
C1294 C1293 1.390 . S
C1294 C1295 1.392 . S
C1295 H1267 0.929 . S
C1295 C1292 1.391 . S
C1295 C1294 1.392 . S
N1296 Co1240 2.257 . S
N1296 C1293 1.391 . S
N1296 C1297 1.388 . S
C1297 H1268 0.930 . S
C1297 C1292 1.391 . S
C1297 N1296 1.388 . S
Co1298 O1300 2.143 . S
Co1298 O1306 2.074 . S
Co1298 O1309 2.093 . S
Co1298 O1322 2.097 1_554 S
Co1298 N1339 2.151 . S
Co1298 N1347 2.214 . S
Co1299 O1300 2.160 . S
Co1299 O1305 2.058 . S
Co1299 O1315 2.057 . S
Co1299 O1330 2.037 1_554 S
Co1299 N1334 2.145 . S
Co1299 N1355 2.257 1_554 S
O1300 Co1298 2.143 . S
O1300 Co1299 2.160 . S
C1301 O1302 1.278 . S
C1301 O1309 1.225 1_556 S
O1302 C1301 1.278 . S
C1303 O1304 1.245 . S
C1303 O1315 1.232 . S
O1304 C1303 1.245 . S
O1305 Co1299 2.058 . S
O1305 C1331 1.269 . S
O1306 Co1298 2.074 . S
O1306 C1331 1.257 . S
H1307 C1332 0.930 . S
H1308 C1338 0.930 . S
O1309 Co1298 2.093 . S
O1309 C1301 1.225 1_554 S
H1310 C1342 0.929 . S
H1311 C1344 0.930 . S
H1312 C1345 0.930 1_556 S
H1313 C1343 0.929 . S
H1314 C1346 0.928 . S
O1315 Co1299 2.057 . S
O1315 C1303 1.232 . S
H1316 C1335 0.929 1_556 S
H1317 C1336 0.929 . S
H1318 C1348 0.931 1_655 S
H1319 C1340 0.929 . S
H1320 C1349 0.930 1_556 S
H1321 C1341 0.931 . S
O1322 Co1298 2.097 1_556 S
O1322 C1350 1.214 . S
H1323 C1351 0.929 . S
H1324 C1352 0.929 . S
H1325 C1353 0.930 . S
H1326 C1354 0.929 . S
H1327 C1356 0.930 1_554 S
H1328 C1333 0.930 . S
H1329 C1337 0.930 1_556 S
O1330 Co1299 2.037 1_556 S
O1330 C1350 1.234 . S
C1331 O1305 1.269 . S
C1331 O1306 1.257 . S
C1332 H1307 0.930 . S
C1332 C1335 1.388 1_556 S
C1332 C1337 1.418 1_556 S
C1333 H1328 0.930 . S
C1333 C1336 1.404 . S
C1333 C1337 1.353 . S
N1334 Co1299 2.145 . S
N1334 C1335 1.397 . S
N1334 C1336 1.334 . S
C1335 H1316 0.929 1_554 S
C1335 C1332 1.388 1_554 S
C1335 N1334 1.397 . S
C1336 H1317 0.929 . S
C1336 C1333 1.404 . S
C1336 N1334 1.334 . S
C1337 H1329 0.930 1_554 S
C1337 C1332 1.418 1_554 S
C1337 C1333 1.353 . S
C1338 H1308 0.930 . S
C1338 N1339 1.330 . S
C1338 C1340 1.446 . S
N1339 Co1298 2.151 . S
N1339 C1338 1.330 . S
N1339 C1343 1.418 . S
C1340 H1319 0.929 . S
C1340 C1338 1.446 . S
C1340 C1341 1.332 . S
C1341 H1321 0.931 . S
C1341 C1340 1.332 . S
C1341 C1342 1.267 . S
C1342 H1310 0.929 . S
C1342 C1341 1.267 . S
C1342 C1343 1.251 . S
C1343 H1313 0.929 . S
C1343 N1339 1.418 . S
C1343 C1342 1.251 . S
C1344 H1311 0.930 . S
C1344 C1346 1.406 . S
C1344 C1349 1.261 . S
C1345 H1312 0.930 1_554 S
C1345 N1347 1.325 . S
C1345 C1348 1.357 1_554 S
C1346 H1314 0.928 . S
C1346 C1344 1.406 . S
C1346 N1347 1.261 . S
N1347 Co1298 2.214 . S
N1347 C1345 1.325 . S
N1347 C1346 1.261 . S
C1348 H1318 0.931 1_455 S
C1348 C1345 1.357 1_556 S
C1348 C1349 1.312 1_556 S
C1349 H1320 0.930 1_554 S
C1349 C1344 1.261 . S
C1349 C1348 1.312 1_554 S
C1350 O1322 1.214 . S
C1350 O1330 1.234 . S
C1351 H1323 0.929 . S
C1351 C1354 1.391 . S
C1351 C1356 1.391 . S
C1352 H1324 0.929 . S
C1352 C1353 1.390 . S
C1352 N1355 1.391 . S
C1353 H1325 0.930 . S
C1353 C1352 1.390 . S
C1353 C1354 1.392 . S
C1354 H1326 0.929 . S
C1354 C1351 1.391 . S
C1354 C1353 1.392 . S
N1355 Co1299 2.257 1_556 S
N1355 C1352 1.391 . S
N1355 C1356 1.388 . S
C1356 H1327 0.930 1_556 S
C1356 C1351 1.391 . S
C1356 N1355 1.388 . S
Co1357 O1359 2.143 . S
Co1357 O1365 2.074 . S
Co1357 O1368 2.093 . S
Co1357 O1381 2.097 1_554 S
Co1357 N1398 2.151 . S
Co1357 N1406 2.214 . S
Co1358 O1359 2.160 . S
Co1358 O1364 2.058 . S
Co1358 O1374 2.057 . S
Co1358 O1389 2.037 1_554 S
Co1358 N1393 2.145 . S
Co1358 N1414 2.257 1_554 S
O1359 Co1357 2.143 . S
O1359 Co1358 2.160 . S
C1360 O1361 1.278 . S
C1360 O1368 1.225 1_556 S
O1361 C1360 1.278 . S
C1362 O1363 1.245 . S
C1362 O1374 1.232 . S
O1363 C1362 1.245 . S
O1364 Co1358 2.058 . S
O1364 C1390 1.269 . S
O1365 Co1357 2.074 . S
O1365 C1390 1.257 . S
H1366 C1391 0.930 . S
H1367 C1397 0.930 . S
O1368 Co1357 2.093 . S
O1368 C1360 1.225 1_554 S
H1369 C1401 0.929 . S
H1370 C1403 0.930 . S
H1371 C1404 0.930 1_556 S
H1372 C1402 0.929 . S
H1373 C1405 0.928 . S
O1374 Co1358 2.057 . S
O1374 C1362 1.232 . S
H1375 C1394 0.929 1_556 S
H1376 C1395 0.929 . S
H1377 C1407 0.931 1_455 S
H1378 C1399 0.929 . S
H1379 C1408 0.930 1_556 S
H1380 C1400 0.931 . S
O1381 Co1357 2.097 1_556 S
O1381 C1409 1.214 . S
H1382 C1410 0.929 . S
H1383 C1411 0.929 . S
H1384 C1412 0.930 . S
H1385 C1413 0.929 . S
H1386 C1415 0.930 1_554 S
H1387 C1392 0.930 . S
H1388 C1396 0.930 1_556 S
O1389 Co1358 2.037 1_556 S
O1389 C1409 1.234 . S
C1390 O1364 1.269 . S
C1390 O1365 1.257 . S
C1391 H1366 0.930 . S
C1391 C1394 1.388 1_556 S
C1391 C1396 1.418 1_556 S
C1392 H1387 0.930 . S
C1392 C1395 1.404 . S
C1392 C1396 1.353 . S
N1393 Co1358 2.145 . S
N1393 C1394 1.397 . S
N1393 C1395 1.334 . S
C1394 H1375 0.929 1_554 S
C1394 C1391 1.388 1_554 S
C1394 N1393 1.397 . S
C1395 H1376 0.929 . S
C1395 C1392 1.404 . S
C1395 N1393 1.334 . S
C1396 H1388 0.930 1_554 S
C1396 C1391 1.418 1_554 S
C1396 C1392 1.353 . S
C1397 H1367 0.930 . S
C1397 N1398 1.330 . S
C1397 C1399 1.446 . S
N1398 Co1357 2.151 . S
N1398 C1397 1.330 . S
N1398 C1402 1.418 . S
C1399 H1378 0.929 . S
C1399 C1397 1.446 . S
C1399 C1400 1.332 . S
C1400 H1380 0.931 . S
C1400 C1399 1.332 . S
C1400 C1401 1.267 . S
C1401 H1369 0.929 . S
C1401 C1400 1.267 . S
C1401 C1402 1.251 . S
C1402 H1372 0.929 . S
C1402 N1398 1.418 . S
C1402 C1401 1.251 . S
C1403 H1370 0.930 . S
C1403 C1405 1.406 . S
C1403 C1408 1.261 . S
C1404 H1371 0.930 1_554 S
C1404 N1406 1.325 . S
C1404 C1407 1.357 1_554 S
C1405 H1373 0.928 . S
C1405 C1403 1.406 . S
C1405 N1406 1.261 . S
N1406 Co1357 2.214 . S
N1406 C1404 1.325 . S
N1406 C1405 1.261 . S
C1407 H1377 0.931 1_655 S
C1407 C1404 1.357 1_556 S
C1407 C1408 1.312 1_556 S
C1408 H1379 0.930 1_554 S
C1408 C1403 1.261 . S
C1408 C1407 1.312 1_554 S
C1409 O1381 1.214 . S
C1409 O1389 1.234 . S
C1410 H1382 0.929 . S
C1410 C1413 1.391 . S
C1410 C1415 1.391 . S
C1411 H1383 0.929 . S
C1411 C1412 1.390 . S
C1411 N1414 1.391 . S
C1412 H1384 0.930 . S
C1412 C1411 1.390 . S
C1412 C1413 1.392 . S
C1413 H1385 0.929 . S
C1413 C1410 1.391 . S
C1413 C1412 1.392 . S
N1414 Co1358 2.257 1_556 S
N1414 C1411 1.391 . S
N1414 C1415 1.388 . S
C1415 H1386 0.930 1_556 S
C1415 C1410 1.391 . S
C1415 N1414 1.388 . S
Co1416 O1418 2.143 . S
Co1416 O1424 2.074 . S
Co1416 O1427 2.093 . S
Co1416 O1440 2.097 . S
Co1416 N1457 2.151 . S
Co1416 N1465 2.214 . S
Co1417 O1418 2.160 . S
Co1417 O1423 2.058 . S
Co1417 O1433 2.057 . S
Co1417 O1448 2.037 . S
Co1417 N1452 2.145 . S
Co1417 N1473 2.257 . S
O1418 Co1416 2.143 . S
O1418 Co1417 2.160 . S
C1419 O1420 1.278 . S
C1419 O1427 1.224 . S
O1420 C1419 1.278 . S
C1421 O1422 1.245 . S
C1421 O1433 1.232 . S
O1422 C1421 1.245 . S
O1423 Co1417 2.058 . S
O1423 C1449 1.269 . S
O1424 Co1416 2.074 . S
O1424 C1449 1.257 . S
H1425 C1450 0.931 . S
H1426 C1456 0.930 . S
O1427 Co1416 2.093 . S
O1427 C1419 1.224 . S
H1428 C1460 0.929 . S
H1429 C1462 0.930 . S
H1430 C1463 0.930 . S
H1431 C1461 0.929 . S
H1432 C1464 0.928 . S
O1433 Co1417 2.057 . S
O1433 C1421 1.232 . S
H1434 C1453 0.929 . S
H1435 C1454 0.929 . S
H1436 C1466 0.931 . S
H1437 C1458 0.929 . S
H1438 C1467 0.930 . S
H1439 C1459 0.931 . S
O1440 Co1416 2.097 . S
O1440 C1468 1.214 . S
H1441 C1469 0.929 . S
H1442 C1470 0.929 . S
H1443 C1471 0.930 . S
H1444 C1472 0.929 . S
H1445 C1474 0.930 . S
H1446 C1451 0.930 . S
H1447 C1455 0.930 . S
O1448 Co1417 2.037 . S
O1448 C1468 1.234 . S
C1449 O1423 1.269 . S
C1449 O1424 1.257 . S
C1450 H1425 0.931 . S
C1450 C1453 1.388 . S
C1450 C1455 1.418 1_565 S
C1451 H1446 0.930 . S
C1451 C1454 1.404 1_545 S
C1451 C1455 1.353 . S
N1452 Co1417 2.145 . S
N1452 C1453 1.397 . S
N1452 C1454 1.334 . S
C1453 H1434 0.929 . S
C1453 C1450 1.388 . S
C1453 N1452 1.397 . S
C1454 H1435 0.929 . S
C1454 C1451 1.404 1_565 S
C1454 N1452 1.334 . S
C1455 H1447 0.930 . S
C1455 C1450 1.418 1_545 S
C1455 C1451 1.353 . S
C1456 H1426 0.930 . S
C1456 N1457 1.330 . S
C1456 C1458 1.446 . S
N1457 Co1416 2.151 . S
N1457 C1456 1.330 . S
N1457 C1461 1.418 . S
C1458 H1437 0.929 . S
C1458 C1456 1.446 . S
C1458 C1459 1.332 . S
C1459 H1439 0.931 . S
C1459 C1458 1.332 . S
C1459 C1460 1.267 . S
C1460 H1428 0.929 . S
C1460 C1459 1.267 . S
C1460 C1461 1.251 . S
C1461 H1431 0.929 . S
C1461 N1457 1.418 . S
C1461 C1460 1.251 . S
C1462 H1429 0.930 . S
C1462 C1464 1.406 . S
C1462 C1467 1.261 . S
C1463 H1430 0.930 . S
C1463 N1465 1.325 . S
C1463 C1466 1.357 . S
C1464 H1432 0.928 . S
C1464 C1462 1.406 . S
C1464 N1465 1.261 . S
N1465 Co1416 2.214 . S
N1465 C1463 1.325 . S
N1465 C1464 1.261 . S
C1466 H1436 0.931 . S
C1466 C1463 1.357 . S
C1466 C1467 1.312 . S
C1467 H1438 0.930 . S
C1467 C1462 1.261 . S
C1467 C1466 1.312 . S
C1468 O1440 1.214 . S
C1468 O1448 1.234 . S
C1469 H1441 0.929 . S
C1469 C1472 1.391 . S
C1469 C1474 1.391 . S
C1470 H1442 0.929 . S
C1470 C1471 1.390 . S
C1470 N1473 1.391 . S
C1471 H1443 0.930 . S
C1471 C1470 1.390 . S
C1471 C1472 1.392 . S
C1472 H1444 0.929 . S
C1472 C1469 1.391 . S
C1472 C1471 1.392 . S
N1473 Co1417 2.257 . S
N1473 C1470 1.391 . S
N1473 C1474 1.388 . S
C1474 H1445 0.930 . S
C1474 C1469 1.391 . S
C1474 N1473 1.388 . S
Co1475 O1477 2.143 . S
Co1475 O1483 2.074 . S
Co1475 O1486 2.093 . S
Co1475 O1499 2.097 . S
Co1475 N1516 2.151 . S
Co1475 N1524 2.214 . S
Co1476 O1477 2.160 . S
Co1476 O1482 2.058 . S
Co1476 O1492 2.057 . S
Co1476 O1507 2.037 . S
Co1476 N1511 2.145 . S
Co1476 N1532 2.257 . S
O1477 Co1475 2.143 . S
O1477 Co1476 2.160 . S
C1478 O1479 1.278 . S
C1478 O1486 1.224 . S
O1479 C1478 1.278 . S
C1480 O1481 1.245 . S
C1480 O1492 1.232 . S
O1481 C1480 1.245 . S
O1482 Co1476 2.058 . S
O1482 C1508 1.269 . S
O1483 Co1475 2.074 . S
O1483 C1508 1.257 . S
H1484 C1509 0.930 . S
H1485 C1515 0.930 . S
O1486 Co1475 2.093 . S
O1486 C1478 1.224 . S
H1487 C1519 0.929 . S
H1488 C1521 0.930 . S
H1489 C1522 0.930 . S
H1490 C1520 0.929 . S
H1491 C1523 0.928 . S
O1492 Co1476 2.057 . S
O1492 C1480 1.232 . S
H1493 C1512 0.929 . S
H1494 C1513 0.929 . S
H1495 C1525 0.931 . S
H1496 C1517 0.929 . S
H1497 C1526 0.930 . S
H1498 C1518 0.931 . S
O1499 Co1475 2.097 . S
O1499 C1527 1.214 . S
H1500 C1528 0.929 . S
H1501 C1529 0.929 . S
H1502 C1530 0.930 . S
H1503 C1531 0.929 . S
H1504 C1533 0.930 . S
H1505 C1510 0.930 . S
H1506 C1514 0.930 . S
O1507 Co1476 2.037 . S
O1507 C1527 1.234 . S
C1508 O1482 1.269 . S
C1508 O1483 1.257 . S
C1509 H1484 0.930 . S
C1509 C1512 1.388 . S
C1509 C1514 1.418 . S
C1510 H1505 0.930 . S
C1510 C1513 1.404 . S
C1510 C1514 1.353 . S
N1511 Co1476 2.145 . S
N1511 C1512 1.397 . S
N1511 C1513 1.334 . S
C1512 H1493 0.929 . S
C1512 C1509 1.388 . S
C1512 N1511 1.397 . S
C1513 H1494 0.929 . S
C1513 C1510 1.404 . S
C1513 N1511 1.334 . S
C1514 H1506 0.930 . S
C1514 C1509 1.418 . S
C1514 C1510 1.353 . S
C1515 H1485 0.930 . S
C1515 N1516 1.330 . S
C1515 C1517 1.446 . S
N1516 Co1475 2.151 . S
N1516 C1515 1.330 . S
N1516 C1520 1.418 . S
C1517 H1496 0.929 . S
C1517 C1515 1.446 . S
C1517 C1518 1.332 . S
C1518 H1498 0.931 . S
C1518 C1517 1.332 . S
C1518 C1519 1.267 . S
C1519 H1487 0.929 . S
C1519 C1518 1.267 . S
C1519 C1520 1.251 . S
C1520 H1490 0.929 . S
C1520 N1516 1.418 . S
C1520 C1519 1.251 . S
C1521 H1488 0.930 . S
C1521 C1523 1.406 1_655 S
C1521 C1526 1.261 . S
C1522 H1489 0.930 . S
C1522 N1524 1.325 . S
C1522 C1525 1.357 . S
C1523 H1491 0.928 . S
C1523 C1521 1.406 1_455 S
C1523 N1524 1.261 . S
N1524 Co1475 2.214 . S
N1524 C1522 1.325 . S
N1524 C1523 1.261 . S
C1525 H1495 0.931 . S
C1525 C1522 1.357 . S
C1525 C1526 1.312 1_455 S
C1526 H1497 0.930 . S
C1526 C1521 1.261 . S
C1526 C1525 1.312 1_655 S
C1527 O1499 1.214 . S
C1527 O1507 1.234 . S
C1528 H1500 0.929 . S
C1528 C1531 1.391 . S
C1528 C1533 1.391 . S
C1529 H1501 0.929 . S
C1529 C1530 1.390 . S
C1529 N1532 1.391 . S
C1530 H1502 0.930 . S
C1530 C1529 1.390 . S
C1530 C1531 1.392 . S
C1531 H1503 0.929 . S
C1531 C1528 1.391 . S
C1531 C1530 1.392 . S
N1532 Co1476 2.257 . S
N1532 C1529 1.391 . S
N1532 C1533 1.388 . S
C1533 H1504 0.930 . S
C1533 C1528 1.391 . S
C1533 N1532 1.388 . S
Co1534 O1536 2.143 . S
Co1534 O1542 2.074 . S
Co1534 O1545 2.093 . S
Co1534 O1558 2.097 . S
Co1534 N1575 2.151 . S
Co1534 N1583 2.214 . S
Co1535 O1536 2.160 . S
Co1535 O1541 2.058 . S
Co1535 O1551 2.057 . S
Co1535 O1566 2.037 . S
Co1535 N1570 2.145 . S
Co1535 N1591 2.257 . S
O1536 Co1534 2.143 . S
O1536 Co1535 2.160 . S
C1537 O1538 1.278 . S
C1537 O1545 1.224 . S
O1538 C1537 1.278 . S
C1539 O1540 1.245 . S
C1539 O1551 1.232 . S
O1540 C1539 1.245 . S
O1541 Co1535 2.058 . S
O1541 C1567 1.269 . S
O1542 Co1534 2.074 . S
O1542 C1567 1.257 . S
H1543 C1568 0.931 . S
H1544 C1574 0.930 . S
O1545 Co1534 2.093 . S
O1545 C1537 1.224 . S
H1546 C1578 0.929 . S
H1547 C1580 0.930 . S
H1548 C1581 0.930 . S
H1549 C1579 0.929 . S
H1550 C1582 0.928 . S
O1551 Co1535 2.057 . S
O1551 C1539 1.232 . S
H1552 C1571 0.929 . S
H1553 C1572 0.929 . S
H1554 C1584 0.931 . S
H1555 C1576 0.929 . S
H1556 C1585 0.930 . S
H1557 C1577 0.931 . S
O1558 Co1534 2.097 . S
O1558 C1586 1.214 . S
H1559 C1587 0.929 . S
H1560 C1588 0.929 . S
H1561 C1589 0.930 . S
H1562 C1590 0.929 . S
H1563 C1592 0.930 . S
H1564 C1569 0.930 . S
H1565 C1573 0.930 . S
O1566 Co1535 2.037 . S
O1566 C1586 1.234 . S
C1567 O1541 1.269 . S
C1567 O1542 1.257 . S
C1568 H1543 0.931 . S
C1568 C1571 1.388 . S
C1568 C1573 1.418 1_545 S
C1569 H1564 0.930 . S
C1569 C1572 1.404 1_565 S
C1569 C1573 1.353 . S
N1570 Co1535 2.145 . S
N1570 C1571 1.397 . S
N1570 C1572 1.334 . S
C1571 H1552 0.929 . S
C1571 C1568 1.388 . S
C1571 N1570 1.397 . S
C1572 H1553 0.929 . S
C1572 C1569 1.404 1_545 S
C1572 N1570 1.334 . S
C1573 H1565 0.930 . S
C1573 C1568 1.418 1_565 S
C1573 C1569 1.353 . S
C1574 H1544 0.930 . S
C1574 N1575 1.330 . S
C1574 C1576 1.446 . S
N1575 Co1534 2.151 . S
N1575 C1574 1.330 . S
N1575 C1579 1.418 . S
C1576 H1555 0.929 . S
C1576 C1574 1.446 . S
C1576 C1577 1.332 . S
C1577 H1557 0.931 . S
C1577 C1576 1.332 . S
C1577 C1578 1.267 . S
C1578 H1546 0.929 . S
C1578 C1577 1.267 . S
C1578 C1579 1.251 . S
C1579 H1549 0.929 . S
C1579 N1575 1.418 . S
C1579 C1578 1.251 . S
C1580 H1547 0.930 . S
C1580 C1582 1.406 . S
C1580 C1585 1.261 . S
C1581 H1548 0.930 . S
C1581 N1583 1.325 . S
C1581 C1584 1.357 . S
C1582 H1550 0.928 . S
C1582 C1580 1.406 . S
C1582 N1583 1.261 . S
N1583 Co1534 2.214 . S
N1583 C1581 1.325 . S
N1583 C1582 1.261 . S
C1584 H1554 0.931 . S
C1584 C1581 1.357 . S
C1584 C1585 1.312 . S
C1585 H1556 0.930 . S
C1585 C1580 1.261 . S
C1585 C1584 1.312 . S
C1586 O1558 1.214 . S
C1586 O1566 1.234 . S
C1587 H1559 0.929 . S
C1587 C1590 1.391 . S
C1587 C1592 1.391 . S
C1588 H1560 0.929 . S
C1588 C1589 1.390 . S
C1588 N1591 1.391 . S
C1589 H1561 0.930 . S
C1589 C1588 1.390 . S
C1589 C1590 1.392 . S
C1590 H1562 0.929 . S
C1590 C1587 1.391 . S
C1590 C1589 1.392 . S
N1591 Co1535 2.257 . S
N1591 C1588 1.391 . S
N1591 C1592 1.388 . S
C1592 H1563 0.930 . S
C1592 C1587 1.391 . S
C1592 N1591 1.388 . S
Co1593 O1595 2.143 . S
Co1593 O1601 2.074 . S
Co1593 O1604 2.093 . S
Co1593 O1617 2.097 . S
Co1593 N1634 2.151 . S
Co1593 N1642 2.214 . S
Co1594 O1595 2.160 . S
Co1594 O1600 2.058 . S
Co1594 O1610 2.057 . S
Co1594 O1625 2.037 . S
Co1594 N1629 2.145 . S
Co1594 N1650 2.257 . S
O1595 Co1593 2.143 . S
O1595 Co1594 2.160 . S
C1596 O1597 1.278 . S
C1596 O1604 1.224 . S
O1597 C1596 1.278 . S
C1598 O1599 1.245 . S
C1598 O1610 1.232 . S
O1599 C1598 1.245 . S
O1600 Co1594 2.058 . S
O1600 C1626 1.269 . S
O1601 Co1593 2.074 . S
O1601 C1626 1.257 . S
H1602 C1627 0.930 . S
H1603 C1633 0.930 . S
O1604 Co1593 2.093 . S
O1604 C1596 1.224 . S
H1605 C1637 0.929 . S
H1606 C1639 0.930 . S
H1607 C1640 0.930 . S
H1608 C1638 0.929 . S
H1609 C1641 0.928 . S
O1610 Co1594 2.057 . S
O1610 C1598 1.232 . S
H1611 C1630 0.929 . S
H1612 C1631 0.929 . S
H1613 C1643 0.931 . S
H1614 C1635 0.929 . S
H1615 C1644 0.930 . S
H1616 C1636 0.931 . S
O1617 Co1593 2.097 . S
O1617 C1645 1.214 . S
H1618 C1646 0.929 . S
H1619 C1647 0.929 . S
H1620 C1648 0.930 . S
H1621 C1649 0.929 . S
H1622 C1651 0.930 . S
H1623 C1628 0.930 . S
H1624 C1632 0.930 . S
O1625 Co1594 2.037 . S
O1625 C1645 1.234 . S
C1626 O1600 1.269 . S
C1626 O1601 1.257 . S
C1627 H1602 0.930 . S
C1627 C1630 1.388 . S
C1627 C1632 1.418 . S
C1628 H1623 0.930 . S
C1628 C1631 1.404 . S
C1628 C1632 1.353 . S
N1629 Co1594 2.145 . S
N1629 C1630 1.397 . S
N1629 C1631 1.334 . S
C1630 H1611 0.929 . S
C1630 C1627 1.388 . S
C1630 N1629 1.397 . S
C1631 H1612 0.929 . S
C1631 C1628 1.404 . S
C1631 N1629 1.334 . S
C1632 H1624 0.930 . S
C1632 C1627 1.418 . S
C1632 C1628 1.353 . S
C1633 H1603 0.930 . S
C1633 N1634 1.330 . S
C1633 C1635 1.446 . S
N1634 Co1593 2.151 . S
N1634 C1633 1.330 . S
N1634 C1638 1.418 . S
C1635 H1614 0.929 . S
C1635 C1633 1.446 . S
C1635 C1636 1.332 . S
C1636 H1616 0.931 . S
C1636 C1635 1.332 . S
C1636 C1637 1.267 . S
C1637 H1605 0.929 . S
C1637 C1636 1.267 . S
C1637 C1638 1.251 . S
C1638 H1608 0.929 . S
C1638 N1634 1.418 . S
C1638 C1637 1.251 . S
C1639 H1606 0.930 . S
C1639 C1641 1.406 1_455 S
C1639 C1644 1.261 . S
C1640 H1607 0.930 . S
C1640 N1642 1.325 . S
C1640 C1643 1.357 . S
C1641 H1609 0.928 . S
C1641 C1639 1.406 1_655 S
C1641 N1642 1.261 . S
N1642 Co1593 2.214 . S
N1642 C1640 1.325 . S
N1642 C1641 1.261 . S
C1643 H1613 0.931 . S
C1643 C1640 1.357 . S
C1643 C1644 1.312 1_655 S
C1644 H1615 0.930 . S
C1644 C1639 1.261 . S
C1644 C1643 1.312 1_455 S
C1645 O1617 1.214 . S
C1645 O1625 1.234 . S
C1646 H1618 0.929 . S
C1646 C1649 1.391 . S
C1646 C1651 1.391 . S
C1647 H1619 0.929 . S
C1647 C1648 1.390 . S
C1647 N1650 1.391 . S
C1648 H1620 0.930 . S
C1648 C1647 1.390 . S
C1648 C1649 1.392 . S
C1649 H1621 0.929 . S
C1649 C1646 1.391 . S
C1649 C1648 1.392 . S
N1650 Co1594 2.257 . S
N1650 C1647 1.391 . S
N1650 C1651 1.388 . S
C1651 H1622 0.930 . S
C1651 C1646 1.391 . S
C1651 N1650 1.388 . S
Co1652 O1654 2.143 . S
Co1652 O1660 2.074 . S
Co1652 O1663 2.093 . S
Co1652 O1676 2.097 . S
Co1652 N1693 2.151 . S
Co1652 N1701 2.214 . S
Co1653 O1654 2.160 . S
Co1653 O1659 2.058 . S
Co1653 O1669 2.057 . S
Co1653 O1684 2.037 . S
Co1653 N1688 2.145 . S
Co1653 N1709 2.257 . S
O1654 Co1652 2.143 . S
O1654 Co1653 2.160 . S
C1655 O1656 1.278 . S
C1655 O1663 1.224 . S
O1656 C1655 1.278 . S
C1657 O1658 1.245 . S
C1657 O1669 1.232 . S
O1658 C1657 1.245 . S
O1659 Co1653 2.058 . S
O1659 C1685 1.269 . S
O1660 Co1652 2.074 . S
O1660 C1685 1.257 . S
H1661 C1686 0.931 . S
H1662 C1692 0.930 . S
O1663 Co1652 2.093 . S
O1663 C1655 1.224 . S
H1664 C1696 0.929 . S
H1665 C1698 0.930 . S
H1666 C1699 0.930 . S
H1667 C1697 0.929 . S
H1668 C1700 0.928 . S
O1669 Co1653 2.057 . S
O1669 C1657 1.232 . S
H1670 C1689 0.929 . S
H1671 C1690 0.929 . S
H1672 C1702 0.931 . S
H1673 C1694 0.929 . S
H1674 C1703 0.930 . S
H1675 C1695 0.931 . S
O1676 Co1652 2.097 . S
O1676 C1704 1.214 . S
H1677 C1705 0.929 . S
H1678 C1706 0.929 . S
H1679 C1707 0.930 . S
H1680 C1708 0.929 . S
H1681 C1710 0.930 . S
H1682 C1687 0.930 . S
H1683 C1691 0.930 . S
O1684 Co1653 2.037 . S
O1684 C1704 1.234 . S
C1685 O1659 1.269 . S
C1685 O1660 1.257 . S
C1686 H1661 0.931 . S
C1686 C1689 1.388 . S
C1686 C1691 1.418 1_545 S
C1687 H1682 0.930 . S
C1687 C1690 1.404 1_565 S
C1687 C1691 1.353 . S
N1688 Co1653 2.145 . S
N1688 C1689 1.397 . S
N1688 C1690 1.334 . S
C1689 H1670 0.929 . S
C1689 C1686 1.388 . S
C1689 N1688 1.397 . S
C1690 H1671 0.929 . S
C1690 C1687 1.404 1_545 S
C1690 N1688 1.334 . S
C1691 H1683 0.930 . S
C1691 C1686 1.418 1_565 S
C1691 C1687 1.353 . S
C1692 H1662 0.930 . S
C1692 N1693 1.330 . S
C1692 C1694 1.446 . S
N1693 Co1652 2.151 . S
N1693 C1692 1.330 . S
N1693 C1697 1.418 . S
C1694 H1673 0.929 . S
C1694 C1692 1.446 . S
C1694 C1695 1.332 . S
C1695 H1675 0.931 . S
C1695 C1694 1.332 . S
C1695 C1696 1.267 . S
C1696 H1664 0.929 . S
C1696 C1695 1.267 . S
C1696 C1697 1.251 . S
C1697 H1667 0.929 . S
C1697 N1693 1.418 . S
C1697 C1696 1.251 . S
C1698 H1665 0.930 . S
C1698 C1700 1.406 . S
C1698 C1703 1.261 . S
C1699 H1666 0.930 . S
C1699 N1701 1.325 . S
C1699 C1702 1.357 . S
C1700 H1668 0.928 . S
C1700 C1698 1.406 . S
C1700 N1701 1.261 . S
N1701 Co1652 2.214 . S
N1701 C1699 1.325 . S
N1701 C1700 1.261 . S
C1702 H1672 0.931 . S
C1702 C1699 1.357 . S
C1702 C1703 1.312 . S
C1703 H1674 0.930 . S
C1703 C1698 1.261 . S
C1703 C1702 1.312 . S
C1704 O1676 1.214 . S
C1704 O1684 1.234 . S
C1705 H1677 0.929 . S
C1705 C1708 1.391 . S
C1705 C1710 1.391 . S
C1706 H1678 0.929 . S
C1706 C1707 1.390 . S
C1706 N1709 1.391 . S
C1707 H1679 0.930 . S
C1707 C1706 1.390 . S
C1707 C1708 1.392 . S
C1708 H1680 0.929 . S
C1708 C1705 1.391 . S
C1708 C1707 1.392 . S
N1709 Co1653 2.257 . S
N1709 C1706 1.391 . S
N1709 C1710 1.388 . S
C1710 H1681 0.930 . S
C1710 C1705 1.391 . S
C1710 N1709 1.388 . S
Co1711 O1713 2.143 . S
Co1711 O1719 2.074 . S
Co1711 O1722 2.093 . S
Co1711 O1735 2.097 . S
Co1711 N1752 2.151 . S
Co1711 N1760 2.214 . S
Co1712 O1713 2.160 . S
Co1712 O1718 2.058 . S
Co1712 O1728 2.057 . S
Co1712 O1743 2.037 . S
Co1712 N1747 2.145 . S
Co1712 N1768 2.257 . S
O1713 Co1711 2.143 . S
O1713 Co1712 2.160 . S
C1714 O1715 1.278 . S
C1714 O1722 1.224 . S
O1715 C1714 1.278 . S
C1716 O1717 1.245 . S
C1716 O1728 1.232 . S
O1717 C1716 1.245 . S
O1718 Co1712 2.058 . S
O1718 C1744 1.269 . S
O1719 Co1711 2.074 . S
O1719 C1744 1.257 . S
H1720 C1745 0.930 . S
H1721 C1751 0.930 . S
O1722 Co1711 2.093 . S
O1722 C1714 1.224 . S
H1723 C1755 0.929 . S
H1724 C1757 0.930 . S
H1725 C1758 0.930 . S
H1726 C1756 0.929 . S
H1727 C1759 0.928 . S
O1728 Co1712 2.057 . S
O1728 C1716 1.232 . S
H1729 C1748 0.929 . S
H1730 C1749 0.929 . S
H1731 C1761 0.931 . S
H1732 C1753 0.929 . S
H1733 C1762 0.930 . S
H1734 C1754 0.931 . S
O1735 Co1711 2.097 . S
O1735 C1763 1.214 . S
H1736 C1764 0.929 . S
H1737 C1765 0.929 . S
H1738 C1766 0.930 . S
H1739 C1767 0.929 . S
H1740 C1769 0.930 . S
H1741 C1746 0.930 . S
H1742 C1750 0.930 . S
O1743 Co1712 2.037 . S
O1743 C1763 1.234 . S
C1744 O1718 1.269 . S
C1744 O1719 1.257 . S
C1745 H1720 0.930 . S
C1745 C1748 1.388 . S
C1745 C1750 1.418 . S
C1746 H1741 0.930 . S
C1746 C1749 1.404 . S
C1746 C1750 1.353 . S
N1747 Co1712 2.145 . S
N1747 C1748 1.397 . S
N1747 C1749 1.334 . S
C1748 H1729 0.929 . S
C1748 C1745 1.388 . S
C1748 N1747 1.397 . S
C1749 H1730 0.929 . S
C1749 C1746 1.404 . S
C1749 N1747 1.334 . S
C1750 H1742 0.930 . S
C1750 C1745 1.418 . S
C1750 C1746 1.353 . S
C1751 H1721 0.930 . S
C1751 N1752 1.330 . S
C1751 C1753 1.446 . S
N1752 Co1711 2.151 . S
N1752 C1751 1.330 . S
N1752 C1756 1.418 . S
C1753 H1732 0.929 . S
C1753 C1751 1.446 . S
C1753 C1754 1.332 . S
C1754 H1734 0.931 . S
C1754 C1753 1.332 . S
C1754 C1755 1.267 . S
C1755 H1723 0.929 . S
C1755 C1754 1.267 . S
C1755 C1756 1.251 . S
C1756 H1726 0.929 . S
C1756 N1752 1.418 . S
C1756 C1755 1.251 . S
C1757 H1724 0.930 . S
C1757 C1759 1.406 1_455 S
C1757 C1762 1.261 . S
C1758 H1725 0.930 . S
C1758 N1760 1.325 . S
C1758 C1761 1.357 . S
C1759 H1727 0.928 . S
C1759 C1757 1.406 1_655 S
C1759 N1760 1.261 . S
N1760 Co1711 2.214 . S
N1760 C1758 1.325 . S
N1760 C1759 1.261 . S
C1761 H1731 0.931 . S
C1761 C1758 1.357 . S
C1761 C1762 1.312 1_655 S
C1762 H1733 0.930 . S
C1762 C1757 1.261 . S
C1762 C1761 1.312 1_455 S
C1763 O1735 1.214 . S
C1763 O1743 1.234 . S
C1764 H1736 0.929 . S
C1764 C1767 1.391 . S
C1764 C1769 1.391 . S
C1765 H1737 0.929 . S
C1765 C1766 1.390 . S
C1765 N1768 1.391 . S
C1766 H1738 0.930 . S
C1766 C1765 1.390 . S
C1766 C1767 1.392 . S
C1767 H1739 0.929 . S
C1767 C1764 1.391 . S
C1767 C1766 1.392 . S
N1768 Co1712 2.257 . S
N1768 C1765 1.391 . S
N1768 C1769 1.388 . S
C1769 H1740 0.930 . S
C1769 C1764 1.391 . S
C1769 N1768 1.388 . S
Co1770 O1772 2.143 . S
Co1770 O1778 2.074 . S
Co1770 O1781 2.093 . S
Co1770 O1794 2.097 . S
Co1770 N1811 2.151 . S
Co1770 N1819 2.214 . S
Co1771 O1772 2.160 . S
Co1771 O1777 2.058 . S
Co1771 O1787 2.057 . S
Co1771 O1802 2.037 . S
Co1771 N1806 2.145 . S
Co1771 N1827 2.257 . S
O1772 Co1770 2.143 . S
O1772 Co1771 2.160 . S
C1773 O1774 1.278 . S
C1773 O1781 1.224 . S
O1774 C1773 1.278 . S
C1775 O1776 1.245 . S
C1775 O1787 1.232 . S
O1776 C1775 1.245 . S
O1777 Co1771 2.058 . S
O1777 C1803 1.269 . S
O1778 Co1770 2.074 . S
O1778 C1803 1.257 . S
H1779 C1804 0.931 . S
H1780 C1810 0.930 . S
O1781 Co1770 2.093 . S
O1781 C1773 1.224 . S
H1782 C1814 0.929 . S
H1783 C1816 0.930 . S
H1784 C1817 0.930 . S
H1785 C1815 0.929 . S
H1786 C1818 0.928 . S
O1787 Co1771 2.057 . S
O1787 C1775 1.232 . S
H1788 C1807 0.929 . S
H1789 C1808 0.929 . S
H1790 C1820 0.931 . S
H1791 C1812 0.929 . S
H1792 C1821 0.930 . S
H1793 C1813 0.931 . S
O1794 Co1770 2.097 . S
O1794 C1822 1.214 . S
H1795 C1823 0.929 . S
H1796 C1824 0.929 . S
H1797 C1825 0.930 . S
H1798 C1826 0.929 . S
H1799 C1828 0.930 . S
H1800 C1805 0.930 . S
H1801 C1809 0.930 . S
O1802 Co1771 2.037 . S
O1802 C1822 1.234 . S
C1803 O1777 1.269 . S
C1803 O1778 1.257 . S
C1804 H1779 0.931 . S
C1804 C1807 1.388 . S
C1804 C1809 1.418 1_565 S
C1805 H1800 0.930 . S
C1805 C1808 1.404 1_545 S
C1805 C1809 1.353 . S
N1806 Co1771 2.145 . S
N1806 C1807 1.397 . S
N1806 C1808 1.334 . S
C1807 H1788 0.929 . S
C1807 C1804 1.388 . S
C1807 N1806 1.397 . S
C1808 H1789 0.929 . S
C1808 C1805 1.404 1_565 S
C1808 N1806 1.334 . S
C1809 H1801 0.930 . S
C1809 C1804 1.418 1_545 S
C1809 C1805 1.353 . S
C1810 H1780 0.930 . S
C1810 N1811 1.330 . S
C1810 C1812 1.446 . S
N1811 Co1770 2.151 . S
N1811 C1810 1.330 . S
N1811 C1815 1.418 . S
C1812 H1791 0.929 . S
C1812 C1810 1.446 . S
C1812 C1813 1.332 . S
C1813 H1793 0.931 . S
C1813 C1812 1.332 . S
C1813 C1814 1.267 . S
C1814 H1782 0.929 . S
C1814 C1813 1.267 . S
C1814 C1815 1.251 . S
C1815 H1785 0.929 . S
C1815 N1811 1.418 . S
C1815 C1814 1.251 . S
C1816 H1783 0.930 . S
C1816 C1818 1.406 . S
C1816 C1821 1.261 . S
C1817 H1784 0.930 . S
C1817 N1819 1.325 . S
C1817 C1820 1.357 . S
C1818 H1786 0.928 . S
C1818 C1816 1.406 . S
C1818 N1819 1.261 . S
N1819 Co1770 2.214 . S
N1819 C1817 1.325 . S
N1819 C1818 1.261 . S
C1820 H1790 0.931 . S
C1820 C1817 1.357 . S
C1820 C1821 1.312 . S
C1821 H1792 0.930 . S
C1821 C1816 1.261 . S
C1821 C1820 1.312 . S
C1822 O1794 1.214 . S
C1822 O1802 1.234 . S
C1823 H1795 0.929 . S
C1823 C1826 1.391 . S
C1823 C1828 1.391 . S
C1824 H1796 0.929 . S
C1824 C1825 1.390 . S
C1824 N1827 1.391 . S
C1825 H1797 0.930 . S
C1825 C1824 1.390 . S
C1825 C1826 1.392 . S
C1826 H1798 0.929 . S
C1826 C1823 1.391 . S
C1826 C1825 1.392 . S
N1827 Co1771 2.257 . S
N1827 C1824 1.391 . S
N1827 C1828 1.388 . S
C1828 H1799 0.930 . S
C1828 C1823 1.391 . S
C1828 N1827 1.388 . S
Co1829 O1831 2.143 . S
Co1829 O1837 2.074 . S
Co1829 O1840 2.093 . S
Co1829 O1853 2.097 . S
Co1829 N1870 2.151 . S
Co1829 N1878 2.214 . S
Co1830 O1831 2.160 . S
Co1830 O1836 2.058 . S
Co1830 O1846 2.057 . S
Co1830 O1861 2.037 . S
Co1830 N1865 2.145 . S
Co1830 N1886 2.257 . S
O1831 Co1829 2.143 . S
O1831 Co1830 2.160 . S
C1832 O1833 1.278 . S
C1832 O1840 1.224 . S
O1833 C1832 1.278 . S
C1834 O1835 1.245 . S
C1834 O1846 1.232 . S
O1835 C1834 1.245 . S
O1836 Co1830 2.058 . S
O1836 C1862 1.269 . S
O1837 Co1829 2.074 . S
O1837 C1862 1.257 . S
H1838 C1863 0.930 . S
H1839 C1869 0.930 . S
O1840 Co1829 2.093 . S
O1840 C1832 1.224 . S
H1841 C1873 0.929 . S
H1842 C1875 0.930 . S
H1843 C1876 0.930 . S
H1844 C1874 0.929 . S
H1845 C1877 0.928 . S
O1846 Co1830 2.057 . S
O1846 C1834 1.232 . S
H1847 C1866 0.929 . S
H1848 C1867 0.929 . S
H1849 C1879 0.931 . S
H1850 C1871 0.929 . S
H1851 C1880 0.930 . S
H1852 C1872 0.931 . S
O1853 Co1829 2.097 . S
O1853 C1881 1.214 . S
H1854 C1882 0.929 . S
H1855 C1883 0.929 . S
H1856 C1884 0.930 . S
H1857 C1885 0.929 . S
H1858 C1887 0.930 . S
H1859 C1864 0.930 . S
H1860 C1868 0.930 . S
O1861 Co1830 2.037 . S
O1861 C1881 1.234 . S
C1862 O1836 1.269 . S
C1862 O1837 1.257 . S
C1863 H1838 0.930 . S
C1863 C1866 1.388 . S
C1863 C1868 1.418 . S
C1864 H1859 0.930 . S
C1864 C1867 1.404 . S
C1864 C1868 1.353 . S
N1865 Co1830 2.145 . S
N1865 C1866 1.397 . S
N1865 C1867 1.334 . S
C1866 H1847 0.929 . S
C1866 C1863 1.388 . S
C1866 N1865 1.397 . S
C1867 H1848 0.929 . S
C1867 C1864 1.404 . S
C1867 N1865 1.334 . S
C1868 H1860 0.930 . S
C1868 C1863 1.418 . S
C1868 C1864 1.353 . S
C1869 H1839 0.930 . S
C1869 N1870 1.330 . S
C1869 C1871 1.446 . S
N1870 Co1829 2.151 . S
N1870 C1869 1.330 . S
N1870 C1874 1.418 . S
C1871 H1850 0.929 . S
C1871 C1869 1.446 . S
C1871 C1872 1.332 . S
C1872 H1852 0.931 . S
C1872 C1871 1.332 . S
C1872 C1873 1.267 . S
C1873 H1841 0.929 . S
C1873 C1872 1.267 . S
C1873 C1874 1.251 . S
C1874 H1844 0.929 . S
C1874 N1870 1.418 . S
C1874 C1873 1.251 . S
C1875 H1842 0.930 . S
C1875 C1877 1.406 1_655 S
C1875 C1880 1.261 . S
C1876 H1843 0.930 . S
C1876 N1878 1.325 . S
C1876 C1879 1.357 . S
C1877 H1845 0.928 . S
C1877 C1875 1.406 1_455 S
C1877 N1878 1.261 . S
N1878 Co1829 2.214 . S
N1878 C1876 1.325 . S
N1878 C1877 1.261 . S
C1879 H1849 0.931 . S
C1879 C1876 1.357 . S
C1879 C1880 1.312 1_455 S
C1880 H1851 0.930 . S
C1880 C1875 1.261 . S
C1880 C1879 1.312 1_655 S
C1881 O1853 1.214 . S
C1881 O1861 1.234 . S
C1882 H1854 0.929 . S
C1882 C1885 1.391 . S
C1882 C1887 1.391 . S
C1883 H1855 0.929 . S
C1883 C1884 1.390 . S
C1883 N1886 1.391 . S
C1884 H1856 0.930 . S
C1884 C1883 1.390 . S
C1884 C1885 1.392 . S
C1885 H1857 0.929 . S
C1885 C1882 1.391 . S
C1885 C1884 1.392 . S
N1886 Co1830 2.257 . S
N1886 C1883 1.391 . S
N1886 C1887 1.388 . S
C1887 H1858 0.930 . S
C1887 C1882 1.391 . S
C1887 N1886 1.388 . S
Co1888 O1890 2.143 . S
Co1888 O1896 2.074 . S
Co1888 O1899 2.093 . S
Co1888 O1912 2.097 . S
Co1888 N1929 2.151 . S
Co1888 N1937 2.214 . S
Co1889 O1890 2.160 . S
Co1889 O1895 2.058 . S
Co1889 O1905 2.057 . S
Co1889 O1920 2.037 . S
Co1889 N1924 2.145 . S
Co1889 N1945 2.257 . S
O1890 Co1888 2.143 . S
O1890 Co1889 2.160 . S
C1891 O1892 1.278 . S
C1891 O1899 1.224 . S
O1892 C1891 1.278 . S
C1893 O1894 1.245 . S
C1893 O1905 1.232 . S
O1894 C1893 1.245 . S
O1895 Co1889 2.058 . S
O1895 C1921 1.269 . S
O1896 Co1888 2.074 . S
O1896 C1921 1.257 . S
H1897 C1922 0.931 . S
H1898 C1928 0.930 . S
O1899 Co1888 2.093 . S
O1899 C1891 1.224 . S
H1900 C1932 0.929 . S
H1901 C1934 0.930 . S
H1902 C1935 0.930 . S
H1903 C1933 0.929 . S
H1904 C1936 0.928 . S
O1905 Co1889 2.057 . S
O1905 C1893 1.232 . S
H1906 C1925 0.929 . S
H1907 C1926 0.929 . S
H1908 C1938 0.931 . S
H1909 C1930 0.929 . S
H1910 C1939 0.930 . S
H1911 C1931 0.931 . S
O1912 Co1888 2.097 . S
O1912 C1940 1.214 . S
H1913 C1941 0.929 . S
H1914 C1942 0.929 . S
H1915 C1943 0.930 . S
H1916 C1944 0.929 . S
H1917 C1946 0.930 . S
H1918 C1923 0.930 . S
H1919 C1927 0.930 . S
O1920 Co1889 2.037 . S
O1920 C1940 1.234 . S
C1921 O1895 1.269 . S
C1921 O1896 1.257 . S
C1922 H1897 0.931 . S
C1922 C1925 1.388 . S
C1922 C1927 1.418 1_556 S
C1923 H1918 0.930 . S
C1923 C1926 1.404 1_554 S
C1923 C1927 1.353 . S
N1924 Co1889 2.145 . S
N1924 C1925 1.397 . S
N1924 C1926 1.334 . S
C1925 H1906 0.929 . S
C1925 C1922 1.388 . S
C1925 N1924 1.397 . S
C1926 H1907 0.929 . S
C1926 C1923 1.404 1_556 S
C1926 N1924 1.334 . S
C1927 H1919 0.930 . S
C1927 C1922 1.418 1_554 S
C1927 C1923 1.353 . S
C1928 H1898 0.930 . S
C1928 N1929 1.330 . S
C1928 C1930 1.446 . S
N1929 Co1888 2.151 . S
N1929 C1928 1.330 . S
N1929 C1933 1.418 . S
C1930 H1909 0.929 . S
C1930 C1928 1.446 . S
C1930 C1931 1.332 . S
C1931 H1911 0.931 . S
C1931 C1930 1.332 . S
C1931 C1932 1.267 . S
C1932 H1900 0.929 . S
C1932 C1931 1.267 . S
C1932 C1933 1.251 . S
C1933 H1903 0.929 . S
C1933 N1929 1.418 . S
C1933 C1932 1.251 . S
C1934 H1901 0.930 . S
C1934 C1936 1.406 . S
C1934 C1939 1.261 . S
C1935 H1902 0.930 . S
C1935 N1937 1.325 . S
C1935 C1938 1.357 . S
C1936 H1904 0.928 . S
C1936 C1934 1.406 . S
C1936 N1937 1.261 . S
N1937 Co1888 2.214 . S
N1937 C1935 1.325 . S
N1937 C1936 1.261 . S
C1938 H1908 0.931 . S
C1938 C1935 1.357 . S
C1938 C1939 1.312 . S
C1939 H1910 0.930 . S
C1939 C1934 1.261 . S
C1939 C1938 1.312 . S
C1940 O1912 1.214 . S
C1940 O1920 1.234 . S
C1941 H1913 0.929 . S
C1941 C1944 1.391 . S
C1941 C1946 1.391 . S
C1942 H1914 0.929 . S
C1942 C1943 1.390 . S
C1942 N1945 1.391 . S
C1943 H1915 0.930 . S
C1943 C1942 1.390 . S
C1943 C1944 1.392 . S
C1944 H1916 0.929 . S
C1944 C1941 1.391 . S
C1944 C1943 1.392 . S
N1945 Co1889 2.257 . S
N1945 C1942 1.391 . S
N1945 C1946 1.388 . S
C1946 H1917 0.930 . S
C1946 C1941 1.391 . S
C1946 N1945 1.388 . S
Co1947 O1949 2.143 . S
Co1947 O1955 2.074 . S
Co1947 O1958 2.093 . S
Co1947 O1971 2.097 . S
Co1947 N1988 2.151 . S
Co1947 N1996 2.214 . S
Co1948 O1949 2.160 . S
Co1948 O1954 2.058 . S
Co1948 O1964 2.057 . S
Co1948 O1979 2.037 . S
Co1948 N1983 2.145 . S
Co1948 N2004 2.257 . S
O1949 Co1947 2.143 . S
O1949 Co1948 2.160 . S
C1950 O1951 1.278 . S
C1950 O1958 1.224 . S
O1951 C1950 1.278 . S
C1952 O1953 1.245 . S
C1952 O1964 1.232 . S
O1953 C1952 1.245 . S
O1954 Co1948 2.058 . S
O1954 C1980 1.269 . S
O1955 Co1947 2.074 . S
O1955 C1980 1.257 . S
H1956 C1981 0.931 . S
H1957 C1987 0.930 . S
O1958 Co1947 2.093 . S
O1958 C1950 1.224 . S
H1959 C1991 0.929 . S
H1960 C1993 0.930 . S
H1961 C1994 0.930 . S
H1962 C1992 0.929 . S
H1963 C1995 0.928 . S
O1964 Co1948 2.057 . S
O1964 C1952 1.232 . S
H1965 C1984 0.929 . S
H1966 C1985 0.929 . S
H1967 C1997 0.931 . S
H1968 C1989 0.929 . S
H1969 C1998 0.930 . S
H1970 C1990 0.931 . S
O1971 Co1947 2.097 . S
O1971 C1999 1.214 . S
H1972 C2000 0.929 . S
H1973 C2001 0.929 . S
H1974 C2002 0.930 . S
H1975 C2003 0.929 . S
H1976 C2005 0.930 . S
H1977 C1982 0.930 . S
H1978 C1986 0.930 . S
O1979 Co1948 2.037 . S
O1979 C1999 1.234 . S
C1980 O1954 1.269 . S
C1980 O1955 1.257 . S
C1981 H1956 0.931 . S
C1981 C1984 1.388 . S
C1981 C1986 1.418 1_556 S
C1982 H1977 0.930 . S
C1982 C1985 1.404 1_554 S
C1982 C1986 1.353 . S
N1983 Co1948 2.145 . S
N1983 C1984 1.397 . S
N1983 C1985 1.334 . S
C1984 H1965 0.929 . S
C1984 C1981 1.388 . S
C1984 N1983 1.397 . S
C1985 H1966 0.929 . S
C1985 C1982 1.404 1_556 S
C1985 N1983 1.334 . S
C1986 H1978 0.930 . S
C1986 C1981 1.418 1_554 S
C1986 C1982 1.353 . S
C1987 H1957 0.930 . S
C1987 N1988 1.330 . S
C1987 C1989 1.446 . S
N1988 Co1947 2.151 . S
N1988 C1987 1.330 . S
N1988 C1992 1.418 . S
C1989 H1968 0.929 . S
C1989 C1987 1.446 . S
C1989 C1990 1.332 . S
C1990 H1970 0.931 . S
C1990 C1989 1.332 . S
C1990 C1991 1.267 . S
C1991 H1959 0.929 . S
C1991 C1990 1.267 . S
C1991 C1992 1.251 . S
C1992 H1962 0.929 . S
C1992 N1988 1.418 . S
C1992 C1991 1.251 . S
C1993 H1960 0.930 . S
C1993 C1995 1.406 . S
C1993 C1998 1.261 . S
C1994 H1961 0.930 . S
C1994 N1996 1.325 . S
C1994 C1997 1.357 . S
C1995 H1963 0.928 . S
C1995 C1993 1.406 . S
C1995 N1996 1.261 . S
N1996 Co1947 2.214 . S
N1996 C1994 1.325 . S
N1996 C1995 1.261 . S
C1997 H1967 0.931 . S
C1997 C1994 1.357 . S
C1997 C1998 1.312 . S
C1998 H1969 0.930 . S
C1998 C1993 1.261 . S
C1998 C1997 1.312 . S
C1999 O1971 1.214 . S
C1999 O1979 1.234 . S
C2000 H1972 0.929 . S
C2000 C2003 1.391 . S
C2000 C2005 1.391 . S
C2001 H1973 0.929 . S
C2001 C2002 1.390 . S
C2001 N2004 1.391 . S
C2002 H1974 0.930 . S
C2002 C2001 1.390 . S
C2002 C2003 1.392 . S
C2003 H1975 0.929 . S
C2003 C2000 1.391 . S
C2003 C2002 1.392 . S
N2004 Co1948 2.257 . S
N2004 C2001 1.391 . S
N2004 C2005 1.388 . S
C2005 H1976 0.930 . S
C2005 C2000 1.391 . S
C2005 N2004 1.388 . S
Co2006 O2008 2.143 . S
Co2006 O2014 2.074 . S
Co2006 O2017 2.093 . S
Co2006 O2030 2.097 . S
Co2006 N2047 2.151 . S
Co2006 N2055 2.214 . S
Co2007 O2008 2.160 . S
Co2007 O2013 2.058 . S
Co2007 O2023 2.057 . S
Co2007 O2038 2.037 . S
Co2007 N2042 2.145 . S
Co2007 N2063 2.257 . S
O2008 Co2006 2.143 . S
O2008 Co2007 2.160 . S
C2009 O2010 1.278 . S
C2009 O2017 1.224 . S
O2010 C2009 1.278 . S
C2011 O2012 1.245 . S
C2011 O2023 1.232 . S
O2012 C2011 1.245 . S
O2013 Co2007 2.058 . S
O2013 C2039 1.269 . S
O2014 Co2006 2.074 . S
O2014 C2039 1.257 . S
H2015 C2040 0.931 . S
H2016 C2046 0.930 . S
O2017 Co2006 2.093 . S
O2017 C2009 1.224 . S
H2018 C2050 0.929 . S
H2019 C2052 0.930 . S
H2020 C2053 0.930 . S
H2021 C2051 0.929 . S
H2022 C2054 0.928 . S
O2023 Co2007 2.057 . S
O2023 C2011 1.232 . S
H2024 C2043 0.929 . S
H2025 C2044 0.929 . S
H2026 C2056 0.931 . S
H2027 C2048 0.929 . S
H2028 C2057 0.930 . S
H2029 C2049 0.931 . S
O2030 Co2006 2.097 . S
O2030 C2058 1.214 . S
H2031 C2059 0.929 . S
H2032 C2060 0.929 . S
H2033 C2061 0.930 . S
H2034 C2062 0.929 . S
H2035 C2064 0.930 . S
H2036 C2041 0.930 . S
H2037 C2045 0.930 . S
O2038 Co2007 2.037 . S
O2038 C2058 1.234 . S
C2039 O2013 1.269 . S
C2039 O2014 1.257 . S
C2040 H2015 0.931 . S
C2040 C2043 1.388 . S
C2040 C2045 1.418 1_556 S
C2041 H2036 0.930 . S
C2041 C2044 1.404 1_554 S
C2041 C2045 1.353 . S
N2042 Co2007 2.145 . S
N2042 C2043 1.397 . S
N2042 C2044 1.334 . S
C2043 H2024 0.929 . S
C2043 C2040 1.388 . S
C2043 N2042 1.397 . S
C2044 H2025 0.929 . S
C2044 C2041 1.404 1_556 S
C2044 N2042 1.334 . S
C2045 H2037 0.930 . S
C2045 C2040 1.418 1_554 S
C2045 C2041 1.353 . S
C2046 H2016 0.930 . S
C2046 N2047 1.330 . S
C2046 C2048 1.446 . S
N2047 Co2006 2.151 . S
N2047 C2046 1.330 . S
N2047 C2051 1.418 . S
C2048 H2027 0.929 . S
C2048 C2046 1.446 . S
C2048 C2049 1.332 . S
C2049 H2029 0.931 . S
C2049 C2048 1.332 . S
C2049 C2050 1.267 . S
C2050 H2018 0.929 . S
C2050 C2049 1.267 . S
C2050 C2051 1.251 . S
C2051 H2021 0.929 . S
C2051 N2047 1.418 . S
C2051 C2050 1.251 . S
C2052 H2019 0.930 . S
C2052 C2054 1.406 . S
C2052 C2057 1.261 . S
C2053 H2020 0.930 . S
C2053 N2055 1.325 . S
C2053 C2056 1.357 . S
C2054 H2022 0.928 . S
C2054 C2052 1.406 . S
C2054 N2055 1.261 . S
N2055 Co2006 2.214 . S
N2055 C2053 1.325 . S
N2055 C2054 1.261 . S
C2056 H2026 0.931 . S
C2056 C2053 1.357 . S
C2056 C2057 1.312 . S
C2057 H2028 0.930 . S
C2057 C2052 1.261 . S
C2057 C2056 1.312 . S
C2058 O2030 1.214 . S
C2058 O2038 1.234 . S
C2059 H2031 0.929 . S
C2059 C2062 1.391 . S
C2059 C2064 1.391 . S
C2060 H2032 0.929 . S
C2060 C2061 1.390 . S
C2060 N2063 1.391 . S
C2061 H2033 0.930 . S
C2061 C2060 1.390 . S
C2061 C2062 1.392 . S
C2062 H2034 0.929 . S
C2062 C2059 1.391 . S
C2062 C2061 1.392 . S
N2063 Co2007 2.257 . S
N2063 C2060 1.391 . S
N2063 C2064 1.388 . S
C2064 H2035 0.930 . S
C2064 C2059 1.391 . S
C2064 N2063 1.388 . S
Co2065 O2067 2.143 . S
Co2065 O2073 2.074 . S
Co2065 O2076 2.093 . S
Co2065 O2089 2.097 . S
Co2065 N2106 2.151 . S
Co2065 N2114 2.214 . S
Co2066 O2067 2.160 . S
Co2066 O2072 2.058 . S
Co2066 O2082 2.057 . S
Co2066 O2097 2.037 . S
Co2066 N2101 2.145 . S
Co2066 N2122 2.257 . S
O2067 Co2065 2.143 . S
O2067 Co2066 2.160 . S
C2068 O2069 1.278 . S
C2068 O2076 1.224 . S
O2069 C2068 1.278 . S
C2070 O2071 1.245 . S
C2070 O2082 1.232 . S
O2071 C2070 1.245 . S
O2072 Co2066 2.058 . S
O2072 C2098 1.269 . S
O2073 Co2065 2.074 . S
O2073 C2098 1.257 . S
H2074 C2099 0.931 . S
H2075 C2105 0.930 . S
O2076 Co2065 2.093 . S
O2076 C2068 1.224 . S
H2077 C2109 0.929 . S
H2078 C2111 0.930 . S
H2079 C2112 0.930 . S
H2080 C2110 0.929 . S
H2081 C2113 0.928 . S
O2082 Co2066 2.057 . S
O2082 C2070 1.232 . S
H2083 C2102 0.929 . S
H2084 C2103 0.929 . S
H2085 C2115 0.931 . S
H2086 C2107 0.929 . S
H2087 C2116 0.930 . S
H2088 C2108 0.931 . S
O2089 Co2065 2.097 . S
O2089 C2117 1.214 . S
H2090 C2118 0.929 . S
H2091 C2119 0.929 . S
H2092 C2120 0.930 . S
H2093 C2121 0.929 . S
H2094 C2123 0.930 . S
H2095 C2100 0.930 . S
H2096 C2104 0.930 . S
O2097 Co2066 2.037 . S
O2097 C2117 1.234 . S
C2098 O2072 1.269 . S
C2098 O2073 1.257 . S
C2099 H2074 0.931 . S
C2099 C2102 1.388 . S
C2099 C2104 1.418 1_556 S
C2100 H2095 0.930 . S
C2100 C2103 1.404 1_554 S
C2100 C2104 1.353 . S
N2101 Co2066 2.145 . S
N2101 C2102 1.397 . S
N2101 C2103 1.334 . S
C2102 H2083 0.929 . S
C2102 C2099 1.388 . S
C2102 N2101 1.397 . S
C2103 H2084 0.929 . S
C2103 C2100 1.404 1_556 S
C2103 N2101 1.334 . S
C2104 H2096 0.930 . S
C2104 C2099 1.418 1_554 S
C2104 C2100 1.353 . S
C2105 H2075 0.930 . S
C2105 N2106 1.330 . S
C2105 C2107 1.446 . S
N2106 Co2065 2.151 . S
N2106 C2105 1.330 . S
N2106 C2110 1.418 . S
C2107 H2086 0.929 . S
C2107 C2105 1.446 . S
C2107 C2108 1.332 . S
C2108 H2088 0.931 . S
C2108 C2107 1.332 . S
C2108 C2109 1.267 . S
C2109 H2077 0.929 . S
C2109 C2108 1.267 . S
C2109 C2110 1.251 . S
C2110 H2080 0.929 . S
C2110 N2106 1.418 . S
C2110 C2109 1.251 . S
C2111 H2078 0.930 . S
C2111 C2113 1.406 . S
C2111 C2116 1.261 . S
C2112 H2079 0.930 . S
C2112 N2114 1.325 . S
C2112 C2115 1.357 . S
C2113 H2081 0.928 . S
C2113 C2111 1.406 . S
C2113 N2114 1.261 . S
N2114 Co2065 2.214 . S
N2114 C2112 1.325 . S
N2114 C2113 1.261 . S
C2115 H2085 0.931 . S
C2115 C2112 1.357 . S
C2115 C2116 1.312 . S
C2116 H2087 0.930 . S
C2116 C2111 1.261 . S
C2116 C2115 1.312 . S
C2117 O2089 1.214 . S
C2117 O2097 1.234 . S
C2118 H2090 0.929 . S
C2118 C2121 1.391 . S
C2118 C2123 1.391 . S
C2119 H2091 0.929 . S
C2119 C2120 1.390 . S
C2119 N2122 1.391 . S
C2120 H2092 0.930 . S
C2120 C2119 1.390 . S
C2120 C2121 1.392 . S
C2121 H2093 0.929 . S
C2121 C2118 1.391 . S
C2121 C2120 1.392 . S
N2122 Co2066 2.257 . S
N2122 C2119 1.391 . S
N2122 C2123 1.388 . S
C2123 H2094 0.930 . S
C2123 C2118 1.391 . S
C2123 N2122 1.388 . S
Co2124 O2126 2.143 . S
Co2124 O2132 2.074 . S
Co2124 O2135 2.093 . S
Co2124 O2148 2.097 . S
Co2124 N2165 2.151 . S
Co2124 N2173 2.214 . S
Co2125 O2126 2.160 . S
Co2125 O2131 2.058 . S
Co2125 O2141 2.057 . S
Co2125 O2156 2.037 . S
Co2125 N2160 2.145 . S
Co2125 N2181 2.257 . S
O2126 Co2124 2.143 . S
O2126 Co2125 2.160 . S
C2127 O2128 1.278 . S
C2127 O2135 1.224 . S
O2128 C2127 1.278 . S
C2129 O2130 1.245 . S
C2129 O2141 1.232 . S
O2130 C2129 1.245 . S
O2131 Co2125 2.058 . S
O2131 C2157 1.269 . S
O2132 Co2124 2.074 . S
O2132 C2157 1.257 . S
H2133 C2158 0.931 . S
H2134 C2164 0.930 . S
O2135 Co2124 2.093 . S
O2135 C2127 1.224 . S
H2136 C2168 0.929 . S
H2137 C2170 0.930 . S
H2138 C2171 0.930 . S
H2139 C2169 0.929 . S
H2140 C2172 0.928 . S
O2141 Co2125 2.057 . S
O2141 C2129 1.232 . S
H2142 C2161 0.929 . S
H2143 C2162 0.929 . S
H2144 C2174 0.931 . S
H2145 C2166 0.929 . S
H2146 C2175 0.930 . S
H2147 C2167 0.931 . S
O2148 Co2124 2.097 . S
O2148 C2176 1.214 . S
H2149 C2177 0.929 . S
H2150 C2178 0.929 . S
H2151 C2179 0.930 . S
H2152 C2180 0.929 . S
H2153 C2182 0.930 . S
H2154 C2159 0.930 . S
H2155 C2163 0.930 . S
O2156 Co2125 2.037 . S
O2156 C2176 1.234 . S
C2157 O2131 1.269 . S
C2157 O2132 1.257 . S
C2158 H2133 0.931 . S
C2158 C2161 1.388 . S
C2158 C2163 1.418 1_554 S
C2159 H2154 0.930 . S
C2159 C2162 1.404 1_556 S
C2159 C2163 1.353 . S
N2160 Co2125 2.145 . S
N2160 C2161 1.397 . S
N2160 C2162 1.334 . S
C2161 H2142 0.929 . S
C2161 C2158 1.388 . S
C2161 N2160 1.397 . S
C2162 H2143 0.929 . S
C2162 C2159 1.404 1_554 S
C2162 N2160 1.334 . S
C2163 H2155 0.930 . S
C2163 C2158 1.418 1_556 S
C2163 C2159 1.353 . S
C2164 H2134 0.930 . S
C2164 N2165 1.330 . S
C2164 C2166 1.446 . S
N2165 Co2124 2.151 . S
N2165 C2164 1.330 . S
N2165 C2169 1.418 . S
C2166 H2145 0.929 . S
C2166 C2164 1.446 . S
C2166 C2167 1.332 . S
C2167 H2147 0.931 . S
C2167 C2166 1.332 . S
C2167 C2168 1.267 . S
C2168 H2136 0.929 . S
C2168 C2167 1.267 . S
C2168 C2169 1.251 . S
C2169 H2139 0.929 . S
C2169 N2165 1.418 . S
C2169 C2168 1.251 . S
C2170 H2137 0.930 . S
C2170 C2172 1.406 . S
C2170 C2175 1.261 . S
C2171 H2138 0.930 . S
C2171 N2173 1.325 . S
C2171 C2174 1.357 . S
C2172 H2140 0.928 . S
C2172 C2170 1.406 . S
C2172 N2173 1.261 . S
N2173 Co2124 2.214 . S
N2173 C2171 1.325 . S
N2173 C2172 1.261 . S
C2174 H2144 0.931 . S
C2174 C2171 1.357 . S
C2174 C2175 1.312 . S
C2175 H2146 0.930 . S
C2175 C2170 1.261 . S
C2175 C2174 1.312 . S
C2176 O2148 1.214 . S
C2176 O2156 1.234 . S
C2177 H2149 0.929 . S
C2177 C2180 1.391 . S
C2177 C2182 1.391 . S
C2178 H2150 0.929 . S
C2178 C2179 1.390 . S
C2178 N2181 1.391 . S
C2179 H2151 0.930 . S
C2179 C2178 1.390 . S
C2179 C2180 1.392 . S
C2180 H2152 0.929 . S
C2180 C2177 1.391 . S
C2180 C2179 1.392 . S
N2181 Co2125 2.257 . S
N2181 C2178 1.391 . S
N2181 C2182 1.388 . S
C2182 H2153 0.930 . S
C2182 C2177 1.391 . S
C2182 N2181 1.388 . S
Co2183 O2185 2.143 . S
Co2183 O2191 2.074 . S
Co2183 O2194 2.093 . S
Co2183 O2207 2.097 . S
Co2183 N2224 2.151 . S
Co2183 N2232 2.214 . S
Co2184 O2185 2.160 . S
Co2184 O2190 2.058 . S
Co2184 O2200 2.057 . S
Co2184 O2215 2.037 . S
Co2184 N2219 2.145 . S
Co2184 N2240 2.257 . S
O2185 Co2183 2.143 . S
O2185 Co2184 2.160 . S
C2186 O2187 1.278 . S
C2186 O2194 1.224 . S
O2187 C2186 1.278 . S
C2188 O2189 1.245 . S
C2188 O2200 1.232 . S
O2189 C2188 1.245 . S
O2190 Co2184 2.058 . S
O2190 C2216 1.269 . S
O2191 Co2183 2.074 . S
O2191 C2216 1.257 . S
H2192 C2217 0.931 . S
H2193 C2223 0.930 . S
O2194 Co2183 2.093 . S
O2194 C2186 1.224 . S
H2195 C2227 0.929 . S
H2196 C2229 0.930 . S
H2197 C2230 0.930 . S
H2198 C2228 0.929 . S
H2199 C2231 0.928 . S
O2200 Co2184 2.057 . S
O2200 C2188 1.232 . S
H2201 C2220 0.929 . S
H2202 C2221 0.929 . S
H2203 C2233 0.931 . S
H2204 C2225 0.929 . S
H2205 C2234 0.930 . S
H2206 C2226 0.931 . S
O2207 Co2183 2.097 . S
O2207 C2235 1.214 . S
H2208 C2236 0.929 . S
H2209 C2237 0.929 . S
H2210 C2238 0.930 . S
H2211 C2239 0.929 . S
H2212 C2241 0.930 . S
H2213 C2218 0.930 . S
H2214 C2222 0.930 . S
O2215 Co2184 2.037 . S
O2215 C2235 1.234 . S
C2216 O2190 1.269 . S
C2216 O2191 1.257 . S
C2217 H2192 0.931 . S
C2217 C2220 1.388 . S
C2217 C2222 1.418 1_554 S
C2218 H2213 0.930 . S
C2218 C2221 1.404 1_556 S
C2218 C2222 1.353 . S
N2219 Co2184 2.145 . S
N2219 C2220 1.397 . S
N2219 C2221 1.334 . S
C2220 H2201 0.929 . S
C2220 C2217 1.388 . S
C2220 N2219 1.397 . S
C2221 H2202 0.929 . S
C2221 C2218 1.404 1_554 S
C2221 N2219 1.334 . S
C2222 H2214 0.930 . S
C2222 C2217 1.418 1_556 S
C2222 C2218 1.353 . S
C2223 H2193 0.930 . S
C2223 N2224 1.330 . S
C2223 C2225 1.446 . S
N2224 Co2183 2.151 . S
N2224 C2223 1.330 . S
N2224 C2228 1.418 . S
C2225 H2204 0.929 . S
C2225 C2223 1.446 . S
C2225 C2226 1.332 . S
C2226 H2206 0.931 . S
C2226 C2225 1.332 . S
C2226 C2227 1.267 . S
C2227 H2195 0.929 . S
C2227 C2226 1.267 . S
C2227 C2228 1.251 . S
C2228 H2198 0.929 . S
C2228 N2224 1.418 . S
C2228 C2227 1.251 . S
C2229 H2196 0.930 . S
C2229 C2231 1.406 . S
C2229 C2234 1.261 . S
C2230 H2197 0.930 . S
C2230 N2232 1.325 . S
C2230 C2233 1.357 . S
C2231 H2199 0.928 . S
C2231 C2229 1.406 . S
C2231 N2232 1.261 . S
N2232 Co2183 2.214 . S
N2232 C2230 1.325 . S
N2232 C2231 1.261 . S
C2233 H2203 0.931 . S
C2233 C2230 1.357 . S
C2233 C2234 1.312 . S
C2234 H2205 0.930 . S
C2234 C2229 1.261 . S
C2234 C2233 1.312 . S
C2235 O2207 1.214 . S
C2235 O2215 1.234 . S
C2236 H2208 0.929 . S
C2236 C2239 1.391 . S
C2236 C2241 1.391 . S
C2237 H2209 0.929 . S
C2237 C2238 1.390 . S
C2237 N2240 1.391 . S
C2238 H2210 0.930 . S
C2238 C2237 1.390 . S
C2238 C2239 1.392 . S
C2239 H2211 0.929 . S
C2239 C2236 1.391 . S
C2239 C2238 1.392 . S
N2240 Co2184 2.257 . S
N2240 C2237 1.391 . S
N2240 C2241 1.388 . S
C2241 H2212 0.930 . S
C2241 C2236 1.391 . S
C2241 N2240 1.388 . S
Co2242 O2244 2.143 . S
Co2242 O2250 2.074 . S
Co2242 O2253 2.093 . S
Co2242 O2266 2.097 . S
Co2242 N2283 2.151 . S
Co2242 N2291 2.214 . S
Co2243 O2244 2.160 . S
Co2243 O2249 2.058 . S
Co2243 O2259 2.057 . S
Co2243 O2274 2.037 . S
Co2243 N2278 2.145 . S
Co2243 N2299 2.257 . S
O2244 Co2242 2.143 . S
O2244 Co2243 2.160 . S
C2245 O2246 1.278 . S
C2245 O2253 1.224 . S
O2246 C2245 1.278 . S
C2247 O2248 1.245 . S
C2247 O2259 1.232 . S
O2248 C2247 1.245 . S
O2249 Co2243 2.058 . S
O2249 C2275 1.269 . S
O2250 Co2242 2.074 . S
O2250 C2275 1.257 . S
H2251 C2276 0.931 . S
H2252 C2282 0.930 . S
O2253 Co2242 2.093 . S
O2253 C2245 1.224 . S
H2254 C2286 0.929 . S
H2255 C2288 0.930 . S
H2256 C2289 0.930 . S
H2257 C2287 0.929 . S
H2258 C2290 0.928 . S
O2259 Co2243 2.057 . S
O2259 C2247 1.232 . S
H2260 C2279 0.929 . S
H2261 C2280 0.929 . S
H2262 C2292 0.931 . S
H2263 C2284 0.929 . S
H2264 C2293 0.930 . S
H2265 C2285 0.931 . S
O2266 Co2242 2.097 . S
O2266 C2294 1.214 . S
H2267 C2295 0.929 . S
H2268 C2296 0.929 . S
H2269 C2297 0.930 . S
H2270 C2298 0.929 . S
H2271 C2300 0.930 . S
H2272 C2277 0.930 . S
H2273 C2281 0.930 . S
O2274 Co2243 2.037 . S
O2274 C2294 1.234 . S
C2275 O2249 1.269 . S
C2275 O2250 1.257 . S
C2276 H2251 0.931 . S
C2276 C2279 1.388 . S
C2276 C2281 1.418 1_554 S
C2277 H2272 0.930 . S
C2277 C2280 1.404 1_556 S
C2277 C2281 1.353 . S
N2278 Co2243 2.145 . S
N2278 C2279 1.397 . S
N2278 C2280 1.334 . S
C2279 H2260 0.929 . S
C2279 C2276 1.388 . S
C2279 N2278 1.397 . S
C2280 H2261 0.929 . S
C2280 C2277 1.404 1_554 S
C2280 N2278 1.334 . S
C2281 H2273 0.930 . S
C2281 C2276 1.418 1_556 S
C2281 C2277 1.353 . S
C2282 H2252 0.930 . S
C2282 N2283 1.330 . S
C2282 C2284 1.446 . S
N2283 Co2242 2.151 . S
N2283 C2282 1.330 . S
N2283 C2287 1.418 . S
C2284 H2263 0.929 . S
C2284 C2282 1.446 . S
C2284 C2285 1.332 . S
C2285 H2265 0.931 . S
C2285 C2284 1.332 . S
C2285 C2286 1.267 . S
C2286 H2254 0.929 . S
C2286 C2285 1.267 . S
C2286 C2287 1.251 . S
C2287 H2257 0.929 . S
C2287 N2283 1.418 . S
C2287 C2286 1.251 . S
C2288 H2255 0.930 . S
C2288 C2290 1.406 . S
C2288 C2293 1.261 . S
C2289 H2256 0.930 . S
C2289 N2291 1.325 . S
C2289 C2292 1.357 . S
C2290 H2258 0.928 . S
C2290 C2288 1.406 . S
C2290 N2291 1.261 . S
N2291 Co2242 2.214 . S
N2291 C2289 1.325 . S
N2291 C2290 1.261 . S
C2292 H2262 0.931 . S
C2292 C2289 1.357 . S
C2292 C2293 1.312 . S
C2293 H2264 0.930 . S
C2293 C2288 1.261 . S
C2293 C2292 1.312 . S
C2294 O2266 1.214 . S
C2294 O2274 1.234 . S
C2295 H2267 0.929 . S
C2295 C2298 1.391 . S
C2295 C2300 1.391 . S
C2296 H2268 0.929 . S
C2296 C2297 1.390 . S
C2296 N2299 1.391 . S
C2297 H2269 0.930 . S
C2297 C2296 1.390 . S
C2297 C2298 1.392 . S
C2298 H2270 0.929 . S
C2298 C2295 1.391 . S
C2298 C2297 1.392 . S
N2299 Co2243 2.257 . S
N2299 C2296 1.391 . S
N2299 C2300 1.388 . S
C2300 H2271 0.930 . S
C2300 C2295 1.391 . S
C2300 N2299 1.388 . S
Co2301 O2303 2.143 . S
Co2301 O2309 2.074 . S
Co2301 O2312 2.093 . S
Co2301 O2325 2.097 . S
Co2301 N2342 2.151 . S
Co2301 N2350 2.214 . S
Co2302 O2303 2.160 . S
Co2302 O2308 2.058 . S
Co2302 O2318 2.057 . S
Co2302 O2333 2.037 . S
Co2302 N2337 2.145 . S
Co2302 N2358 2.257 . S
O2303 Co2301 2.143 . S
O2303 Co2302 2.160 . S
C2304 O2305 1.278 . S
C2304 O2312 1.224 . S
O2305 C2304 1.278 . S
C2306 O2307 1.245 . S
C2306 O2318 1.232 . S
O2307 C2306 1.245 . S
O2308 Co2302 2.058 . S
O2308 C2334 1.269 . S
O2309 Co2301 2.074 . S
O2309 C2334 1.257 . S
H2310 C2335 0.931 . S
H2311 C2341 0.930 . S
O2312 Co2301 2.093 . S
O2312 C2304 1.224 . S
H2313 C2345 0.929 . S
H2314 C2347 0.930 . S
H2315 C2348 0.930 . S
H2316 C2346 0.929 . S
H2317 C2349 0.928 . S
O2318 Co2302 2.057 . S
O2318 C2306 1.232 . S
H2319 C2338 0.929 . S
H2320 C2339 0.929 . S
H2321 C2351 0.931 . S
H2322 C2343 0.929 . S
H2323 C2352 0.930 . S
H2324 C2344 0.931 . S
O2325 Co2301 2.097 . S
O2325 C2353 1.214 . S
H2326 C2354 0.929 . S
H2327 C2355 0.929 . S
H2328 C2356 0.930 . S
H2329 C2357 0.929 . S
H2330 C2359 0.930 . S
H2331 C2336 0.930 . S
H2332 C2340 0.930 . S
O2333 Co2302 2.037 . S
O2333 C2353 1.234 . S
C2334 O2308 1.269 . S
C2334 O2309 1.257 . S
C2335 H2310 0.931 . S
C2335 C2338 1.388 . S
C2335 C2340 1.418 1_554 S
C2336 H2331 0.930 . S
C2336 C2339 1.404 1_556 S
C2336 C2340 1.353 . S
N2337 Co2302 2.145 . S
N2337 C2338 1.397 . S
N2337 C2339 1.334 . S
C2338 H2319 0.929 . S
C2338 C2335 1.388 . S
C2338 N2337 1.397 . S
C2339 H2320 0.929 . S
C2339 C2336 1.404 1_554 S
C2339 N2337 1.334 . S
C2340 H2332 0.930 . S
C2340 C2335 1.418 1_556 S
C2340 C2336 1.353 . S
C2341 H2311 0.930 . S
C2341 N2342 1.330 . S
C2341 C2343 1.446 . S
N2342 Co2301 2.151 . S
N2342 C2341 1.330 . S
N2342 C2346 1.418 . S
C2343 H2322 0.929 . S
C2343 C2341 1.446 . S
C2343 C2344 1.332 . S
C2344 H2324 0.931 . S
C2344 C2343 1.332 . S
C2344 C2345 1.267 . S
C2345 H2313 0.929 . S
C2345 C2344 1.267 . S
C2345 C2346 1.251 . S
C2346 H2316 0.929 . S
C2346 N2342 1.418 . S
C2346 C2345 1.251 . S
C2347 H2314 0.930 . S
C2347 C2349 1.406 . S
C2347 C2352 1.261 . S
C2348 H2315 0.930 . S
C2348 N2350 1.325 . S
C2348 C2351 1.357 . S
C2349 H2317 0.928 . S
C2349 C2347 1.406 . S
C2349 N2350 1.261 . S
N2350 Co2301 2.214 . S
N2350 C2348 1.325 . S
N2350 C2349 1.261 . S
C2351 H2321 0.931 . S
C2351 C2348 1.357 . S
C2351 C2352 1.312 . S
C2352 H2323 0.930 . S
C2352 C2347 1.261 . S
C2352 C2351 1.312 . S
C2353 O2325 1.214 . S
C2353 O2333 1.234 . S
C2354 H2326 0.929 . S
C2354 C2357 1.391 . S
C2354 C2359 1.391 . S
C2355 H2327 0.929 . S
C2355 C2356 1.390 . S
C2355 N2358 1.391 . S
C2356 H2328 0.930 . S
C2356 C2355 1.390 . S
C2356 C2357 1.392 . S
C2357 H2329 0.929 . S
C2357 C2354 1.391 . S
C2357 C2356 1.392 . S
N2358 Co2302 2.257 . S
N2358 C2355 1.391 . S
N2358 C2359 1.388 . S
C2359 H2330 0.930 . S
C2359 C2354 1.391 . S
C2359 N2358 1.388 . S
Co2360 O2362 2.143 . S
Co2360 O2368 2.074 . S
Co2360 O2371 2.093 . S
Co2360 O2384 2.097 . S
Co2360 N2401 2.151 . S
Co2360 N2409 2.214 . S
Co2361 O2362 2.160 . S
Co2361 O2367 2.058 . S
Co2361 O2377 2.057 . S
Co2361 O2392 2.037 . S
Co2361 N2396 2.145 . S
Co2361 N2417 2.257 . S
O2362 Co2360 2.143 . S
O2362 Co2361 2.160 . S
C2363 O2364 1.278 . S
C2363 O2371 1.224 . S
O2364 C2363 1.278 . S
C2365 O2366 1.245 . S
C2365 O2377 1.232 . S
O2366 C2365 1.245 . S
O2367 Co2361 2.058 . S
O2367 C2393 1.269 . S
O2368 Co2360 2.074 . S
O2368 C2393 1.257 . S
H2369 C2394 0.930 . S
H2370 C2400 0.930 . S
O2371 Co2360 2.093 . S
O2371 C2363 1.224 . S
H2372 C2404 0.929 . S
H2373 C2406 0.930 . S
H2374 C2407 0.930 . S
H2375 C2405 0.929 . S
H2376 C2408 0.928 . S
O2377 Co2361 2.057 . S
O2377 C2365 1.232 . S
H2378 C2397 0.929 . S
H2379 C2398 0.929 . S
H2380 C2410 0.931 . S
H2381 C2402 0.929 . S
H2382 C2411 0.930 . S
H2383 C2403 0.931 . S
O2384 Co2360 2.097 . S
O2384 C2412 1.214 . S
H2385 C2413 0.929 . S
H2386 C2414 0.929 . S
H2387 C2415 0.930 . S
H2388 C2416 0.929 . S
H2389 C2418 0.930 . S
H2390 C2395 0.930 . S
H2391 C2399 0.930 . S
O2392 Co2361 2.037 . S
O2392 C2412 1.234 . S
C2393 O2367 1.269 . S
C2393 O2368 1.257 . S
C2394 H2369 0.930 . S
C2394 C2397 1.388 . S
C2394 C2399 1.418 . S
C2395 H2390 0.930 . S
C2395 C2398 1.404 . S
C2395 C2399 1.353 . S
N2396 Co2361 2.145 . S
N2396 C2397 1.397 . S
N2396 C2398 1.334 . S
C2397 H2378 0.929 . S
C2397 C2394 1.388 . S
C2397 N2396 1.397 . S
C2398 H2379 0.929 . S
C2398 C2395 1.404 . S
C2398 N2396 1.334 . S
C2399 H2391 0.930 . S
C2399 C2394 1.418 . S
C2399 C2395 1.353 . S
C2400 H2370 0.930 . S
C2400 N2401 1.330 . S
C2400 C2402 1.446 . S
N2401 Co2360 2.151 . S
N2401 C2400 1.330 . S
N2401 C2405 1.418 . S
C2402 H2381 0.929 . S
C2402 C2400 1.446 . S
C2402 C2403 1.332 . S
C2403 H2383 0.931 . S
C2403 C2402 1.332 . S
C2403 C2404 1.267 . S
C2404 H2372 0.929 . S
C2404 C2403 1.267 . S
C2404 C2405 1.251 . S
C2405 H2375 0.929 . S
C2405 N2401 1.418 . S
C2405 C2404 1.251 . S
C2406 H2373 0.930 . S
C2406 C2408 1.406 1_455 S
C2406 C2411 1.261 . S
C2407 H2374 0.930 . S
C2407 N2409 1.325 . S
C2407 C2410 1.357 . S
C2408 H2376 0.928 . S
C2408 C2406 1.406 1_655 S
C2408 N2409 1.261 . S
N2409 Co2360 2.214 . S
N2409 C2407 1.325 . S
N2409 C2408 1.261 . S
C2410 H2380 0.931 . S
C2410 C2407 1.357 . S
C2410 C2411 1.312 1_655 S
C2411 H2382 0.930 . S
C2411 C2406 1.261 . S
C2411 C2410 1.312 1_455 S
C2412 O2384 1.214 . S
C2412 O2392 1.234 . S
C2413 H2385 0.929 . S
C2413 C2416 1.391 . S
C2413 C2418 1.391 . S
C2414 H2386 0.929 . S
C2414 C2415 1.390 . S
C2414 N2417 1.391 . S
C2415 H2387 0.930 . S
C2415 C2414 1.390 . S
C2415 C2416 1.392 . S
C2416 H2388 0.929 . S
C2416 C2413 1.391 . S
C2416 C2415 1.392 . S
N2417 Co2361 2.257 . S
N2417 C2414 1.391 . S
N2417 C2418 1.388 . S
C2418 H2389 0.930 . S
C2418 C2413 1.391 . S
C2418 N2417 1.388 . S
Co2419 O2421 2.143 . S
Co2419 O2427 2.074 . S
Co2419 O2430 2.093 . S
Co2419 O2443 2.097 . S
Co2419 N2460 2.151 . S
Co2419 N2468 2.214 . S
Co2420 O2421 2.160 . S
Co2420 O2426 2.058 . S
Co2420 O2436 2.057 . S
Co2420 O2451 2.037 . S
Co2420 N2455 2.145 . S
Co2420 N2476 2.257 . S
O2421 Co2419 2.143 . S
O2421 Co2420 2.160 . S
C2422 O2423 1.278 . S
C2422 O2430 1.224 . S
O2423 C2422 1.278 . S
C2424 O2425 1.245 . S
C2424 O2436 1.232 . S
O2425 C2424 1.245 . S
O2426 Co2420 2.058 . S
O2426 C2452 1.269 . S
O2427 Co2419 2.074 . S
O2427 C2452 1.257 . S
H2428 C2453 0.930 . S
H2429 C2459 0.930 . S
O2430 Co2419 2.093 . S
O2430 C2422 1.224 . S
H2431 C2463 0.929 . S
H2432 C2465 0.930 . S
H2433 C2466 0.930 . S
H2434 C2464 0.929 . S
H2435 C2467 0.928 . S
O2436 Co2420 2.057 . S
O2436 C2424 1.232 . S
H2437 C2456 0.929 . S
H2438 C2457 0.929 . S
H2439 C2469 0.931 . S
H2440 C2461 0.929 . S
H2441 C2470 0.930 . S
H2442 C2462 0.931 . S
O2443 Co2419 2.097 . S
O2443 C2471 1.214 . S
H2444 C2472 0.929 . S
H2445 C2473 0.929 . S
H2446 C2474 0.930 . S
H2447 C2475 0.929 . S
H2448 C2477 0.930 . S
H2449 C2454 0.930 . S
H2450 C2458 0.930 . S
O2451 Co2420 2.037 . S
O2451 C2471 1.234 . S
C2452 O2426 1.269 . S
C2452 O2427 1.257 . S
C2453 H2428 0.930 . S
C2453 C2456 1.388 . S
C2453 C2458 1.418 . S
C2454 H2449 0.930 . S
C2454 C2457 1.404 . S
C2454 C2458 1.353 . S
N2455 Co2420 2.145 . S
N2455 C2456 1.397 . S
N2455 C2457 1.334 . S
C2456 H2437 0.929 . S
C2456 C2453 1.388 . S
C2456 N2455 1.397 . S
C2457 H2438 0.929 . S
C2457 C2454 1.404 . S
C2457 N2455 1.334 . S
C2458 H2450 0.930 . S
C2458 C2453 1.418 . S
C2458 C2454 1.353 . S
C2459 H2429 0.930 . S
C2459 N2460 1.330 . S
C2459 C2461 1.446 . S
N2460 Co2419 2.151 . S
N2460 C2459 1.330 . S
N2460 C2464 1.418 . S
C2461 H2440 0.929 . S
C2461 C2459 1.446 . S
C2461 C2462 1.332 . S
C2462 H2442 0.931 . S
C2462 C2461 1.332 . S
C2462 C2463 1.267 . S
C2463 H2431 0.929 . S
C2463 C2462 1.267 . S
C2463 C2464 1.251 . S
C2464 H2434 0.929 . S
C2464 N2460 1.418 . S
C2464 C2463 1.251 . S
C2465 H2432 0.930 . S
C2465 C2467 1.406 1_455 S
C2465 C2470 1.261 . S
C2466 H2433 0.930 . S
C2466 N2468 1.325 . S
C2466 C2469 1.357 . S
C2467 H2435 0.928 . S
C2467 C2465 1.406 1_655 S
C2467 N2468 1.261 . S
N2468 Co2419 2.214 . S
N2468 C2466 1.325 . S
N2468 C2467 1.261 . S
C2469 H2439 0.931 . S
C2469 C2466 1.357 . S
C2469 C2470 1.312 1_655 S
C2470 H2441 0.930 . S
C2470 C2465 1.261 . S
C2470 C2469 1.312 1_455 S
C2471 O2443 1.214 . S
C2471 O2451 1.234 . S
C2472 H2444 0.929 . S
C2472 C2475 1.391 . S
C2472 C2477 1.391 . S
C2473 H2445 0.929 . S
C2473 C2474 1.390 . S
C2473 N2476 1.391 . S
C2474 H2446 0.930 . S
C2474 C2473 1.390 . S
C2474 C2475 1.392 . S
C2475 H2447 0.929 . S
C2475 C2472 1.391 . S
C2475 C2474 1.392 . S
N2476 Co2420 2.257 . S
N2476 C2473 1.391 . S
N2476 C2477 1.388 . S
C2477 H2448 0.930 . S
C2477 C2472 1.391 . S
C2477 N2476 1.388 . S
Co2478 O2480 2.143 . S
Co2478 O2486 2.074 . S
Co2478 O2489 2.093 . S
Co2478 O2502 2.097 . S
Co2478 N2519 2.151 . S
Co2478 N2527 2.214 . S
Co2479 O2480 2.160 . S
Co2479 O2485 2.058 . S
Co2479 O2495 2.057 . S
Co2479 O2510 2.037 . S
Co2479 N2514 2.145 . S
Co2479 N2535 2.257 . S
O2480 Co2478 2.143 . S
O2480 Co2479 2.160 . S
C2481 O2482 1.278 . S
C2481 O2489 1.224 . S
O2482 C2481 1.278 . S
C2483 O2484 1.245 . S
C2483 O2495 1.232 . S
O2484 C2483 1.245 . S
O2485 Co2479 2.058 . S
O2485 C2511 1.269 . S
O2486 Co2478 2.074 . S
O2486 C2511 1.257 . S
H2487 C2512 0.931 . S
H2488 C2518 0.930 . S
O2489 Co2478 2.093 . S
O2489 C2481 1.224 . S
H2490 C2522 0.929 . S
H2491 C2524 0.930 . S
H2492 C2525 0.930 . S
H2493 C2523 0.929 . S
H2494 C2526 0.928 . S
O2495 Co2479 2.057 . S
O2495 C2483 1.232 . S
H2496 C2515 0.929 . S
H2497 C2516 0.929 . S
H2498 C2528 0.931 . S
H2499 C2520 0.929 . S
H2500 C2529 0.930 . S
H2501 C2521 0.931 . S
O2502 Co2478 2.097 . S
O2502 C2530 1.214 . S
H2503 C2531 0.929 . S
H2504 C2532 0.929 . S
H2505 C2533 0.930 . S
H2506 C2534 0.929 . S
H2507 C2536 0.930 . S
H2508 C2513 0.930 . S
H2509 C2517 0.930 . S
O2510 Co2479 2.037 . S
O2510 C2530 1.234 . S
C2511 O2485 1.269 . S
C2511 O2486 1.257 . S
C2512 H2487 0.931 . S
C2512 C2515 1.388 . S
C2512 C2517 1.418 1_565 S
C2513 H2508 0.930 . S
C2513 C2516 1.404 1_545 S
C2513 C2517 1.353 . S
N2514 Co2479 2.145 . S
N2514 C2515 1.397 . S
N2514 C2516 1.334 . S
C2515 H2496 0.929 . S
C2515 C2512 1.388 . S
C2515 N2514 1.397 . S
C2516 H2497 0.929 . S
C2516 C2513 1.404 1_565 S
C2516 N2514 1.334 . S
C2517 H2509 0.930 . S
C2517 C2512 1.418 1_545 S
C2517 C2513 1.353 . S
C2518 H2488 0.930 . S
C2518 N2519 1.330 . S
C2518 C2520 1.446 . S
N2519 Co2478 2.151 . S
N2519 C2518 1.330 . S
N2519 C2523 1.418 . S
C2520 H2499 0.929 . S
C2520 C2518 1.446 . S
C2520 C2521 1.332 . S
C2521 H2501 0.931 . S
C2521 C2520 1.332 . S
C2521 C2522 1.267 . S
C2522 H2490 0.929 . S
C2522 C2521 1.267 . S
C2522 C2523 1.251 . S
C2523 H2493 0.929 . S
C2523 N2519 1.418 . S
C2523 C2522 1.251 . S
C2524 H2491 0.930 . S
C2524 C2526 1.406 . S
C2524 C2529 1.261 . S
C2525 H2492 0.930 . S
C2525 N2527 1.325 . S
C2525 C2528 1.357 . S
C2526 H2494 0.928 . S
C2526 C2524 1.406 . S
C2526 N2527 1.261 . S
N2527 Co2478 2.214 . S
N2527 C2525 1.325 . S
N2527 C2526 1.261 . S
C2528 H2498 0.931 . S
C2528 C2525 1.357 . S
C2528 C2529 1.312 . S
C2529 H2500 0.930 . S
C2529 C2524 1.261 . S
C2529 C2528 1.312 . S
C2530 O2502 1.214 . S
C2530 O2510 1.234 . S
C2531 H2503 0.929 . S
C2531 C2534 1.391 . S
C2531 C2536 1.391 . S
C2532 H2504 0.929 . S
C2532 C2533 1.390 . S
C2532 N2535 1.391 . S
C2533 H2505 0.930 . S
C2533 C2532 1.390 . S
C2533 C2534 1.392 . S
C2534 H2506 0.929 . S
C2534 C2531 1.391 . S
C2534 C2533 1.392 . S
N2535 Co2479 2.257 . S
N2535 C2532 1.391 . S
N2535 C2536 1.388 . S
C2536 H2507 0.930 . S
C2536 C2531 1.391 . S
C2536 N2535 1.388 . S
Co2537 O2539 2.143 . S
Co2537 O2545 2.074 . S
Co2537 O2548 2.093 . S
Co2537 O2561 2.097 . S
Co2537 N2578 2.151 . S
Co2537 N2586 2.214 . S
Co2538 O2539 2.160 . S
Co2538 O2544 2.058 . S
Co2538 O2554 2.057 . S
Co2538 O2569 2.037 . S
Co2538 N2573 2.145 . S
Co2538 N2594 2.257 . S
O2539 Co2537 2.143 . S
O2539 Co2538 2.160 . S
C2540 O2541 1.278 . S
C2540 O2548 1.224 . S
O2541 C2540 1.278 . S
C2542 O2543 1.245 . S
C2542 O2554 1.232 . S
O2543 C2542 1.245 . S
O2544 Co2538 2.058 . S
O2544 C2570 1.269 . S
O2545 Co2537 2.074 . S
O2545 C2570 1.257 . S
H2546 C2571 0.930 . S
H2547 C2577 0.930 . S
O2548 Co2537 2.093 . S
O2548 C2540 1.224 . S
H2549 C2581 0.929 . S
H2550 C2583 0.930 . S
H2551 C2584 0.930 . S
H2552 C2582 0.929 . S
H2553 C2585 0.928 . S
O2554 Co2538 2.057 . S
O2554 C2542 1.232 . S
H2555 C2574 0.929 . S
H2556 C2575 0.929 . S
H2557 C2587 0.931 . S
H2558 C2579 0.929 . S
H2559 C2588 0.930 . S
H2560 C2580 0.931 . S
O2561 Co2537 2.097 . S
O2561 C2589 1.214 . S
H2562 C2590 0.929 . S
H2563 C2591 0.929 . S
H2564 C2592 0.930 . S
H2565 C2593 0.929 . S
H2566 C2595 0.930 . S
H2567 C2572 0.930 . S
H2568 C2576 0.930 . S
O2569 Co2538 2.037 . S
O2569 C2589 1.234 . S
C2570 O2544 1.269 . S
C2570 O2545 1.257 . S
C2571 H2546 0.930 . S
C2571 C2574 1.388 . S
C2571 C2576 1.418 . S
C2572 H2567 0.930 . S
C2572 C2575 1.404 . S
C2572 C2576 1.353 . S
N2573 Co2538 2.145 . S
N2573 C2574 1.397 . S
N2573 C2575 1.334 . S
C2574 H2555 0.929 . S
C2574 C2571 1.388 . S
C2574 N2573 1.397 . S
C2575 H2556 0.929 . S
C2575 C2572 1.404 . S
C2575 N2573 1.334 . S
C2576 H2568 0.930 . S
C2576 C2571 1.418 . S
C2576 C2572 1.353 . S
C2577 H2547 0.930 . S
C2577 N2578 1.330 . S
C2577 C2579 1.446 . S
N2578 Co2537 2.151 . S
N2578 C2577 1.330 . S
N2578 C2582 1.418 . S
C2579 H2558 0.929 . S
C2579 C2577 1.446 . S
C2579 C2580 1.332 . S
C2580 H2560 0.931 . S
C2580 C2579 1.332 . S
C2580 C2581 1.267 . S
C2581 H2549 0.929 . S
C2581 C2580 1.267 . S
C2581 C2582 1.251 . S
C2582 H2552 0.929 . S
C2582 N2578 1.418 . S
C2582 C2581 1.251 . S
C2583 H2550 0.930 . S
C2583 C2585 1.406 1_655 S
C2583 C2588 1.261 . S
C2584 H2551 0.930 . S
C2584 N2586 1.325 . S
C2584 C2587 1.357 . S
C2585 H2553 0.928 . S
C2585 C2583 1.406 1_455 S
C2585 N2586 1.261 . S
N2586 Co2537 2.214 . S
N2586 C2584 1.325 . S
N2586 C2585 1.261 . S
C2587 H2557 0.931 . S
C2587 C2584 1.357 . S
C2587 C2588 1.312 1_455 S
C2588 H2559 0.930 . S
C2588 C2583 1.261 . S
C2588 C2587 1.312 1_655 S
C2589 O2561 1.214 . S
C2589 O2569 1.234 . S
C2590 H2562 0.929 . S
C2590 C2593 1.391 . S
C2590 C2595 1.391 . S
C2591 H2563 0.929 . S
C2591 C2592 1.390 . S
C2591 N2594 1.391 . S
C2592 H2564 0.930 . S
C2592 C2591 1.390 . S
C2592 C2593 1.392 . S
C2593 H2565 0.929 . S
C2593 C2590 1.391 . S
C2593 C2592 1.392 . S
N2594 Co2538 2.257 . S
N2594 C2591 1.391 . S
N2594 C2595 1.388 . S
C2595 H2566 0.930 . S
C2595 C2590 1.391 . S
C2595 N2594 1.388 . S
Co2596 O2598 2.143 . S
Co2596 O2604 2.074 . S
Co2596 O2607 2.093 . S
Co2596 O2620 2.097 . S
Co2596 N2637 2.151 . S
Co2596 N2645 2.214 . S
Co2597 O2598 2.160 . S
Co2597 O2603 2.058 . S
Co2597 O2613 2.057 . S
Co2597 O2628 2.037 . S
Co2597 N2632 2.145 . S
Co2597 N2653 2.257 . S
O2598 Co2596 2.143 . S
O2598 Co2597 2.160 . S
C2599 O2600 1.278 . S
C2599 O2607 1.224 . S
O2600 C2599 1.278 . S
C2601 O2602 1.245 . S
C2601 O2613 1.232 . S
O2602 C2601 1.245 . S
O2603 Co2597 2.058 . S
O2603 C2629 1.269 . S
O2604 Co2596 2.074 . S
O2604 C2629 1.257 . S
H2605 C2630 0.931 . S
H2606 C2636 0.930 . S
O2607 Co2596 2.093 . S
O2607 C2599 1.224 . S
H2608 C2640 0.929 . S
H2609 C2642 0.930 . S
H2610 C2643 0.930 . S
H2611 C2641 0.929 . S
H2612 C2644 0.928 . S
O2613 Co2597 2.057 . S
O2613 C2601 1.232 . S
H2614 C2633 0.929 . S
H2615 C2634 0.929 . S
H2616 C2646 0.931 . S
H2617 C2638 0.929 . S
H2618 C2647 0.930 . S
H2619 C2639 0.931 . S
O2620 Co2596 2.097 . S
O2620 C2648 1.214 . S
H2621 C2649 0.929 . S
H2622 C2650 0.929 . S
H2623 C2651 0.930 . S
H2624 C2652 0.929 . S
H2625 C2654 0.930 . S
H2626 C2631 0.930 . S
H2627 C2635 0.930 . S
O2628 Co2597 2.037 . S
O2628 C2648 1.234 . S
C2629 O2603 1.269 . S
C2629 O2604 1.257 . S
C2630 H2605 0.931 . S
C2630 C2633 1.388 . S
C2630 C2635 1.418 1_545 S
C2631 H2626 0.930 . S
C2631 C2634 1.404 1_565 S
C2631 C2635 1.353 . S
N2632 Co2597 2.145 . S
N2632 C2633 1.397 . S
N2632 C2634 1.334 . S
C2633 H2614 0.929 . S
C2633 C2630 1.388 . S
C2633 N2632 1.397 . S
C2634 H2615 0.929 . S
C2634 C2631 1.404 1_545 S
C2634 N2632 1.334 . S
C2635 H2627 0.930 . S
C2635 C2630 1.418 1_565 S
C2635 C2631 1.353 . S
C2636 H2606 0.930 . S
C2636 N2637 1.330 . S
C2636 C2638 1.446 . S
N2637 Co2596 2.151 . S
N2637 C2636 1.330 . S
N2637 C2641 1.418 . S
C2638 H2617 0.929 . S
C2638 C2636 1.446 . S
C2638 C2639 1.332 . S
C2639 H2619 0.931 . S
C2639 C2638 1.332 . S
C2639 C2640 1.267 . S
C2640 H2608 0.929 . S
C2640 C2639 1.267 . S
C2640 C2641 1.251 . S
C2641 H2611 0.929 . S
C2641 N2637 1.418 . S
C2641 C2640 1.251 . S
C2642 H2609 0.930 . S
C2642 C2644 1.406 . S
C2642 C2647 1.261 . S
C2643 H2610 0.930 . S
C2643 N2645 1.325 . S
C2643 C2646 1.357 . S
C2644 H2612 0.928 . S
C2644 C2642 1.406 . S
C2644 N2645 1.261 . S
N2645 Co2596 2.214 . S
N2645 C2643 1.325 . S
N2645 C2644 1.261 . S
C2646 H2616 0.931 . S
C2646 C2643 1.357 . S
C2646 C2647 1.312 . S
C2647 H2618 0.930 . S
C2647 C2642 1.261 . S
C2647 C2646 1.312 . S
C2648 O2620 1.214 . S
C2648 O2628 1.234 . S
C2649 H2621 0.929 . S
C2649 C2652 1.391 . S
C2649 C2654 1.391 . S
C2650 H2622 0.929 . S
C2650 C2651 1.390 . S
C2650 N2653 1.391 . S
C2651 H2623 0.930 . S
C2651 C2650 1.390 . S
C2651 C2652 1.392 . S
C2652 H2624 0.929 . S
C2652 C2649 1.391 . S
C2652 C2651 1.392 . S
N2653 Co2597 2.257 . S
N2653 C2650 1.391 . S
N2653 C2654 1.388 . S
C2654 H2625 0.930 . S
C2654 C2649 1.391 . S
C2654 N2653 1.388 . S
Co2655 O2657 2.143 . S
Co2655 O2663 2.074 . S
Co2655 O2666 2.093 . S
Co2655 O2679 2.097 . S
Co2655 N2696 2.151 . S
Co2655 N2704 2.214 . S
Co2656 O2657 2.160 . S
Co2656 O2662 2.058 . S
Co2656 O2672 2.057 . S
Co2656 O2687 2.037 . S
Co2656 N2691 2.145 . S
Co2656 N2712 2.257 . S
O2657 Co2655 2.143 . S
O2657 Co2656 2.160 . S
C2658 O2659 1.278 . S
C2658 O2666 1.224 . S
O2659 C2658 1.278 . S
C2660 O2661 1.245 . S
C2660 O2672 1.232 . S
O2661 C2660 1.245 . S
O2662 Co2656 2.058 . S
O2662 C2688 1.269 . S
O2663 Co2655 2.074 . S
O2663 C2688 1.257 . S
H2664 C2689 0.930 . S
H2665 C2695 0.930 . S
O2666 Co2655 2.093 . S
O2666 C2658 1.224 . S
H2667 C2699 0.929 . S
H2668 C2701 0.930 . S
H2669 C2702 0.930 . S
H2670 C2700 0.929 . S
H2671 C2703 0.928 . S
O2672 Co2656 2.057 . S
O2672 C2660 1.232 . S
H2673 C2692 0.929 . S
H2674 C2693 0.929 . S
H2675 C2705 0.931 . S
H2676 C2697 0.929 . S
H2677 C2706 0.930 . S
H2678 C2698 0.931 . S
O2679 Co2655 2.097 . S
O2679 C2707 1.214 . S
H2680 C2708 0.929 . S
H2681 C2709 0.929 . S
H2682 C2710 0.930 . S
H2683 C2711 0.929 . S
H2684 C2713 0.930 . S
H2685 C2690 0.930 . S
H2686 C2694 0.930 . S
O2687 Co2656 2.037 . S
O2687 C2707 1.234 . S
C2688 O2662 1.269 . S
C2688 O2663 1.257 . S
C2689 H2664 0.930 . S
C2689 C2692 1.388 . S
C2689 C2694 1.418 . S
C2690 H2685 0.930 . S
C2690 C2693 1.404 . S
C2690 C2694 1.353 . S
N2691 Co2656 2.145 . S
N2691 C2692 1.397 . S
N2691 C2693 1.334 . S
C2692 H2673 0.929 . S
C2692 C2689 1.388 . S
C2692 N2691 1.397 . S
C2693 H2674 0.929 . S
C2693 C2690 1.404 . S
C2693 N2691 1.334 . S
C2694 H2686 0.930 . S
C2694 C2689 1.418 . S
C2694 C2690 1.353 . S
C2695 H2665 0.930 . S
C2695 N2696 1.330 . S
C2695 C2697 1.446 . S
N2696 Co2655 2.151 . S
N2696 C2695 1.330 . S
N2696 C2700 1.418 . S
C2697 H2676 0.929 . S
C2697 C2695 1.446 . S
C2697 C2698 1.332 . S
C2698 H2678 0.931 . S
C2698 C2697 1.332 . S
C2698 C2699 1.267 . S
C2699 H2667 0.929 . S
C2699 C2698 1.267 . S
C2699 C2700 1.251 . S
C2700 H2670 0.929 . S
C2700 N2696 1.418 . S
C2700 C2699 1.251 . S
C2701 H2668 0.930 . S
C2701 C2703 1.406 1_655 S
C2701 C2706 1.261 . S
C2702 H2669 0.930 . S
C2702 N2704 1.325 . S
C2702 C2705 1.357 . S
C2703 H2671 0.928 . S
C2703 C2701 1.406 1_455 S
C2703 N2704 1.261 . S
N2704 Co2655 2.214 . S
N2704 C2702 1.325 . S
N2704 C2703 1.261 . S
C2705 H2675 0.931 . S
C2705 C2702 1.357 . S
C2705 C2706 1.312 1_455 S
C2706 H2677 0.930 . S
C2706 C2701 1.261 . S
C2706 C2705 1.312 1_655 S
C2707 O2679 1.214 . S
C2707 O2687 1.234 . S
C2708 H2680 0.929 . S
C2708 C2711 1.391 . S
C2708 C2713 1.391 . S
C2709 H2681 0.929 . S
C2709 C2710 1.390 . S
C2709 N2712 1.391 . S
C2710 H2682 0.930 . S
C2710 C2709 1.390 . S
C2710 C2711 1.392 . S
C2711 H2683 0.929 . S
C2711 C2708 1.391 . S
C2711 C2710 1.392 . S
N2712 Co2656 2.257 . S
N2712 C2709 1.391 . S
N2712 C2713 1.388 . S
C2713 H2684 0.930 . S
C2713 C2708 1.391 . S
C2713 N2712 1.388 . S
Co2714 O2716 2.143 . S
Co2714 O2722 2.074 . S
Co2714 O2725 2.093 . S
Co2714 O2738 2.097 . S
Co2714 N2755 2.151 . S
Co2714 N2763 2.214 . S
Co2715 O2716 2.160 . S
Co2715 O2721 2.058 . S
Co2715 O2731 2.057 . S
Co2715 O2746 2.037 . S
Co2715 N2750 2.145 . S
Co2715 N2771 2.257 . S
O2716 Co2714 2.143 . S
O2716 Co2715 2.160 . S
C2717 O2718 1.278 . S
C2717 O2725 1.224 . S
O2718 C2717 1.278 . S
C2719 O2720 1.245 . S
C2719 O2731 1.232 . S
O2720 C2719 1.245 . S
O2721 Co2715 2.058 . S
O2721 C2747 1.269 . S
O2722 Co2714 2.074 . S
O2722 C2747 1.257 . S
H2723 C2748 0.931 . S
H2724 C2754 0.930 . S
O2725 Co2714 2.093 . S
O2725 C2717 1.224 . S
H2726 C2758 0.929 . S
H2727 C2760 0.930 . S
H2728 C2761 0.930 . S
H2729 C2759 0.929 . S
H2730 C2762 0.928 . S
O2731 Co2715 2.057 . S
O2731 C2719 1.232 . S
H2732 C2751 0.929 . S
H2733 C2752 0.929 . S
H2734 C2764 0.931 . S
H2735 C2756 0.929 . S
H2736 C2765 0.930 . S
H2737 C2757 0.931 . S
O2738 Co2714 2.097 . S
O2738 C2766 1.214 . S
H2739 C2767 0.929 . S
H2740 C2768 0.929 . S
H2741 C2769 0.930 . S
H2742 C2770 0.929 . S
H2743 C2772 0.930 . S
H2744 C2749 0.930 . S
H2745 C2753 0.930 . S
O2746 Co2715 2.037 . S
O2746 C2766 1.234 . S
C2747 O2721 1.269 . S
C2747 O2722 1.257 . S
C2748 H2723 0.931 . S
C2748 C2751 1.388 . S
C2748 C2753 1.418 1_545 S
C2749 H2744 0.930 . S
C2749 C2752 1.404 1_565 S
C2749 C2753 1.353 . S
N2750 Co2715 2.145 . S
N2750 C2751 1.397 . S
N2750 C2752 1.334 . S
C2751 H2732 0.929 . S
C2751 C2748 1.388 . S
C2751 N2750 1.397 . S
C2752 H2733 0.929 . S
C2752 C2749 1.404 1_545 S
C2752 N2750 1.334 . S
C2753 H2745 0.930 . S
C2753 C2748 1.418 1_565 S
C2753 C2749 1.353 . S
C2754 H2724 0.930 . S
C2754 N2755 1.330 . S
C2754 C2756 1.446 . S
N2755 Co2714 2.151 . S
N2755 C2754 1.330 . S
N2755 C2759 1.418 . S
C2756 H2735 0.929 . S
C2756 C2754 1.446 . S
C2756 C2757 1.332 . S
C2757 H2737 0.931 . S
C2757 C2756 1.332 . S
C2757 C2758 1.267 . S
C2758 H2726 0.929 . S
C2758 C2757 1.267 . S
C2758 C2759 1.251 . S
C2759 H2729 0.929 . S
C2759 N2755 1.418 . S
C2759 C2758 1.251 . S
C2760 H2727 0.930 . S
C2760 C2762 1.406 . S
C2760 C2765 1.261 . S
C2761 H2728 0.930 . S
C2761 N2763 1.325 . S
C2761 C2764 1.357 . S
C2762 H2730 0.928 . S
C2762 C2760 1.406 . S
C2762 N2763 1.261 . S
N2763 Co2714 2.214 . S
N2763 C2761 1.325 . S
N2763 C2762 1.261 . S
C2764 H2734 0.931 . S
C2764 C2761 1.357 . S
C2764 C2765 1.312 . S
C2765 H2736 0.930 . S
C2765 C2760 1.261 . S
C2765 C2764 1.312 . S
C2766 O2738 1.214 . S
C2766 O2746 1.234 . S
C2767 H2739 0.929 . S
C2767 C2770 1.391 . S
C2767 C2772 1.391 . S
C2768 H2740 0.929 . S
C2768 C2769 1.390 . S
C2768 N2771 1.391 . S
C2769 H2741 0.930 . S
C2769 C2768 1.390 . S
C2769 C2770 1.392 . S
C2770 H2742 0.929 . S
C2770 C2767 1.391 . S
C2770 C2769 1.392 . S
N2771 Co2715 2.257 . S
N2771 C2768 1.391 . S
N2771 C2772 1.388 . S
C2772 H2743 0.930 . S
C2772 C2767 1.391 . S
C2772 N2771 1.388 . S
Co2773 O2775 2.143 . S
Co2773 O2781 2.074 . S
Co2773 O2784 2.093 . S
Co2773 O2797 2.097 . S
Co2773 N2814 2.151 . S
Co2773 N2822 2.214 . S
Co2774 O2775 2.160 . S
Co2774 O2780 2.058 . S
Co2774 O2790 2.057 . S
Co2774 O2805 2.037 . S
Co2774 N2809 2.145 . S
Co2774 N2830 2.257 . S
O2775 Co2773 2.143 . S
O2775 Co2774 2.160 . S
C2776 O2777 1.278 . S
C2776 O2784 1.224 . S
O2777 C2776 1.278 . S
C2778 O2779 1.245 . S
C2778 O2790 1.232 . S
O2779 C2778 1.245 . S
O2780 Co2774 2.058 . S
O2780 C2806 1.269 . S
O2781 Co2773 2.074 . S
O2781 C2806 1.257 . S
H2782 C2807 0.931 . S
H2783 C2813 0.930 . S
O2784 Co2773 2.093 . S
O2784 C2776 1.224 . S
H2785 C2817 0.929 . S
H2786 C2819 0.930 . S
H2787 C2820 0.930 . S
H2788 C2818 0.929 . S
H2789 C2821 0.928 . S
O2790 Co2774 2.057 . S
O2790 C2778 1.232 . S
H2791 C2810 0.929 . S
H2792 C2811 0.929 . S
H2793 C2823 0.931 . S
H2794 C2815 0.929 . S
H2795 C2824 0.930 . S
H2796 C2816 0.931 . S
O2797 Co2773 2.097 . S
O2797 C2825 1.214 . S
H2798 C2826 0.929 . S
H2799 C2827 0.929 . S
H2800 C2828 0.930 . S
H2801 C2829 0.929 . S
H2802 C2831 0.930 . S
H2803 C2808 0.930 . S
H2804 C2812 0.930 . S
O2805 Co2774 2.037 . S
O2805 C2825 1.234 . S
C2806 O2780 1.269 . S
C2806 O2781 1.257 . S
C2807 H2782 0.931 . S
C2807 C2810 1.388 . S
C2807 C2812 1.418 1_565 S
C2808 H2803 0.930 . S
C2808 C2811 1.404 1_545 S
C2808 C2812 1.353 . S
N2809 Co2774 2.145 . S
N2809 C2810 1.397 . S
N2809 C2811 1.334 . S
C2810 H2791 0.929 . S
C2810 C2807 1.388 . S
C2810 N2809 1.397 . S
C2811 H2792 0.929 . S
C2811 C2808 1.404 1_565 S
C2811 N2809 1.334 . S
C2812 H2804 0.930 . S
C2812 C2807 1.418 1_545 S
C2812 C2808 1.353 . S
C2813 H2783 0.930 . S
C2813 N2814 1.330 . S
C2813 C2815 1.446 . S
N2814 Co2773 2.151 . S
N2814 C2813 1.330 . S
N2814 C2818 1.418 . S
C2815 H2794 0.929 . S
C2815 C2813 1.446 . S
C2815 C2816 1.332 . S
C2816 H2796 0.931 . S
C2816 C2815 1.332 . S
C2816 C2817 1.267 . S
C2817 H2785 0.929 . S
C2817 C2816 1.267 . S
C2817 C2818 1.251 . S
C2818 H2788 0.929 . S
C2818 N2814 1.418 . S
C2818 C2817 1.251 . S
C2819 H2786 0.930 . S
C2819 C2821 1.406 . S
C2819 C2824 1.261 . S
C2820 H2787 0.930 . S
C2820 N2822 1.325 . S
C2820 C2823 1.357 . S
C2821 H2789 0.928 . S
C2821 C2819 1.406 . S
C2821 N2822 1.261 . S
N2822 Co2773 2.214 . S
N2822 C2820 1.325 . S
N2822 C2821 1.261 . S
C2823 H2793 0.931 . S
C2823 C2820 1.357 . S
C2823 C2824 1.312 . S
C2824 H2795 0.930 . S
C2824 C2819 1.261 . S
C2824 C2823 1.312 . S
C2825 O2797 1.214 . S
C2825 O2805 1.234 . S
C2826 H2798 0.929 . S
C2826 C2829 1.391 . S
C2826 C2831 1.391 . S
C2827 H2799 0.929 . S
C2827 C2828 1.390 . S
C2827 N2830 1.391 . S
C2828 H2800 0.930 . S
C2828 C2827 1.390 . S
C2828 C2829 1.392 . S
C2829 H2801 0.929 . S
C2829 C2826 1.391 . S
C2829 C2828 1.392 . S
N2830 Co2774 2.257 . S
N2830 C2827 1.391 . S
N2830 C2831 1.388 . S
C2831 H2802 0.930 . S
C2831 C2826 1.391 . S
C2831 N2830 1.388 . S
C1832 C5 1.971 . S
C62 C1657 1.971 . S
C123 C1714 1.971 . S
C1775 C180 1.971 . S
C1478 C241 1.971 . S
C298 C1539 1.971 . S
C1596 C359 1.971 . S
C416 C1421 1.971 . S
C477 C2601 1.897 . S
C2422 C536 1.971 . S
C2483 C595 1.897 . S
C654 C2540 1.971 . S
C713 C2778 1.897 . S
C772 C2658 1.971 . S
C831 C2719 1.897 . S
C2363 C890 1.971 . S
C2306 C947 1.971 . S
C1006 C1952 1.971 . S
C2011 C1067 1.897 . S
C1124 C2070 1.971 . S
C1893 C1185 1.897 . S
C2188 C1242 1.971 . S
C1303 C2247 1.897 . S
C2129 C1362 1.897 . S
C534 C3 1.357 1_455 S
C593 C64 1.322 1_545 S
C121 C652 1.357 1_455 S
C475 C182 1.322 1_565 S
C239 C888 1.357 1_655 S
C711 C300 1.322 1_545 S
C770 C357 1.357 1_655 S
C829 C418 1.322 1_565 S
C1065 C949 1.322 1_554 S
C1301 C1008 1.322 1_556 S
C1360 C1126 1.322 1_556 S
C1183 C1244 1.322 1_554 S
C1950 C1419 1.357 . S
C2009 C1480 1.322 . S
C2068 C1537 1.357 . S
C1598 C1891 1.322 . S
C1655 C2304 1.357 . S
C1716 C2127 1.322 . S
C2186 C1773 1.357 . S
C2245 C1834 1.322 . S
C2365 C2481 1.322 . S
C2717 C2424 1.322 . S
C2776 C2542 1.322 . S
C2660 C2599 1.322 . S
C33 C1114 1.742 . S
C111 C1154 1.749 . S
C151 C1232 1.742 . S
C1036 C229 1.749 . S
C269 C1350 1.742 . S
C347 C977 1.749 . S
C1409 C387 1.742 . S
C1272 C465 1.749 . S
C505 C583 1.746 . S
C564 C642 1.742 . S
C623 C701 1.746 . S
C524 C682 1.742 . S
C937 C741 1.746 . S
C760 C800 1.742 . S
C819 C859 1.746 . S
C918 C878 1.742 . S
C210 C996 1.749 . S
C328 C1055 1.749 . S
C406 C1095 1.746 . S
C1173 C446 1.749 . S
C288 C1213 1.746 . S
C92 C1291 1.749 . S
C170 C1331 1.746 . S
C52 C1390 1.746 . S
C2530 C1449 1.742 . S
C1527 C2570 1.749 . S
C2648 C1567 1.742 . S
C2452 C1645 1.749 . S
C1685 C2766 1.742 . S
C1763 C2393 1.749 . S
C2825 C1803 1.742 . S
C1881 C2688 1.749 . S
C1921 C1999 1.746 . S
C1980 C2058 1.742 . S
C2039 C2117 1.746 . S
C2098 C1940 1.742 . S
C2353 C2157 1.746 . S
C2176 C2216 1.742 . S
C2235 C2275 1.746 . S
C2334 C2294 1.742 . S
C1626 C2412 1.749 . S
C1744 C2471 1.749 . S
C1822 C2511 1.746 . S
C2589 C1862 1.749 . S
C1704 C2629 1.746 . S
C1508 C2707 1.749 . S
C2747 C1586 1.746 . S
C1468 C2806 1.746 . S
