# Generated by pormake.
# Topology uoj, (4)-cn, num edge types: 1
# Building blocks:
#     Node 0, Type 0, BuildingBlock: ESEHIV_clean_sbu_0, # of connection points: 4
#     Node 1, Type 0, BuildingBlock: ESEHIV_clean_sbu_0, # of connection points: 4
#     Node 2, Type 0, BuildingBlock: ESEHIV_clean_sbu_0, # of connection points: 4
#     Node 3, Type 0, BuildingBlock: ESEHIV_clean_sbu_0, # of connection points: 4
#     Node 4, Type 0, BuildingBlock: ESEHIV_clean_sbu_0, # of connection points: 4
#     Node 5, Type 0, BuildingBlock: ESEHIV_clean_sbu_0, # of connection points: 4
#     Node 6, Type 0, BuildingBlock: ESEHIV_clean_sbu_0, # of connection points: 4
#     Node 7, Type 0, BuildingBlock: ESEHIV_clean_sbu_0, # of connection points: 4
#     Edge 8, Type (0, 0), BuildingBlock: EZIPEK_clean_linker_0, # of connection points: 2
#     Edge 9, Type (0, 0), BuildingBlock: EZIPEK_clean_linker_0, # of connection points: 2
#     Edge 10, Type (0, 0), BuildingBlock: EZIPEK_clean_linker_0, # of connection points: 2
#     Edge 11, Type (0, 0), BuildingBlock: EZIPEK_clean_linker_0, # of connection points: 2
#     Edge 12, Type (0, 0), BuildingBlock: EZIPEK_clean_linker_0, # of connection points: 2
#     Edge 13, Type (0, 0), BuildingBlock: EZIPEK_clean_linker_0, # of connection points: 2
#     Edge 14, Type (0, 0), BuildingBlock: EZIPEK_clean_linker_0, # of connection points: 2
#     Edge 15, Type (0, 0), BuildingBlock: EZIPEK_clean_linker_0, # of connection points: 2
#     Edge 16, Type (0, 0), BuildingBlock: EZIPEK_clean_linker_0, # of connection points: 2
#     Edge 17, Type (0, 0), BuildingBlock: EZIPEK_clean_linker_0, # of connection points: 2
#     Edge 18, Type (0, 0), BuildingBlock: EZIPEK_clean_linker_0, # of connection points: 2
#     Edge 19, Type (0, 0), BuildingBlock: EZIPEK_clean_linker_0, # of connection points: 2
#     Edge 20, Type (0, 0), BuildingBlock: EZIPEK_clean_linker_0, # of connection points: 2
#     Edge 21, Type (0, 0), BuildingBlock: EZIPEK_clean_linker_0, # of connection points: 2
#     Edge 22, Type (0, 0), BuildingBlock: EZIPEK_clean_linker_0, # of connection points: 2
#     Edge 23, Type (0, 0), BuildingBlock: EZIPEK_clean_linker_0, # of connection points: 2
# Relax obj value: 0.039
# Max RMSD: 0.231
# Mean RMSD: 0.231
data_MOF--net-uoj--node1-ESEHIV_clean_sbu_0--edge1-EZIPEK_clean_linker_0
_symmetry_space_group_name_H-M    P1
_symmetry_Int_Tables_number       1
_symmetry_cell_setting            triclinic
loop_
_symmetry_equiv_pos_as_xyz
'x, y, z'
_cell_length_a     25.605147
_cell_length_b     25.735803
_cell_length_c     34.429761
_cell_angle_alpha  89.883829
_cell_angle_beta   90.125572
_cell_angle_gamma 89.132604
loop_
_atom_site_label
_atom_site_type_symbol
_atom_site_fract_x
_atom_site_fract_y
_atom_site_fract_z
_atom_type_partial_charge
Cu0 Cu 0.05766 0.31112 0.45973 0.0
N1 N 0.99335 0.27936 0.45302 0.0
N2 N 0.91979 0.23867 0.46814 0.0
C3 C 0.96864 0.25027 0.47961 0.0
C4 C 0.91336 0.26122 0.43304 0.0
C5 C 0.95899 0.28634 0.42374 0.0
O6 O 0.09521 0.27101 0.49927 0.0
C7 C 0.07031 0.42149 0.4662 0.0
O8 O 0.11738 0.4137 0.45216 0.0
H9 H 0.98515 0.23984 0.50759 0.0
H10 H 0.96591 0.30984 0.39824 0.0
N11 N 0.09581 0.30824 0.41329 0.0
N12 N 0.13437 0.3296 0.35743 0.0
C13 C 0.09803 0.34327 0.38407 0.0
C14 C 0.13122 0.27102 0.40425 0.0
C15 C 0.15515 0.28414 0.36987 0.0
C16 C 0.14072 0.28096 0.51181 0.0
O17 O 0.164 0.32343 0.5003 0.0
H18 H 0.07519 0.37895 0.38304 0.0
H19 H 0.14013 0.23744 0.42215 0.0
O20 O 0.04183 0.38285 0.47427 0.0
H21 H 0.87771 0.26092 0.4161 0.0
H22 H 0.18645 0.26286 0.35562 0.0
Cu23 Cu 0.32131 0.98363 0.5994 0.0
N24 N 0.28606 0.0453 0.61271 0.0
N25 N 0.24396 0.12082 0.60217 0.0
C26 C 0.2567 0.07366 0.5877 0.0
C27 C 0.26603 0.12247 0.63771 0.0
C28 C 0.29213 0.07576 0.64414 0.0
O29 O 0.279 0.95011 0.55975 0.0
C30 C 0.4285 0.97029 0.57807 0.0
O31 O 0.41842 0.92048 0.57622 0.0
H32 H 0.2478 0.06144 0.55842 0.0
H33 H 0.31653 0.06619 0.66886 0.0
N34 N 0.32887 0.93614 0.64056 0.0
N35 N 0.35009 0.8976 0.69692 0.0
C36 C 0.33781 0.94307 0.67892 0.0
C37 C 0.33511 0.88476 0.63456 0.0
C38 C 0.34847 0.86103 0.66902 0.0
C39 C 0.29321 0.93066 0.52746 0.0
O40 O 0.34205 0.93334 0.51626 0.0
H41 H 0.33737 0.98052 0.69312 0.0
H42 H 0.33222 0.86613 0.60652 0.0
O43 O 0.39152 1.00292 0.58391 0.0
H44 H 0.26565 0.156 0.65665 0.0
H45 H 0.35698 0.82008 0.67332 0.0
Cu46 Cu 1.00404 0.73851 0.43433 0.0
N47 N 0.06369 0.77879 0.42792 0.0
N48 N 0.13438 0.82549 0.44079 0.0
C49 C 0.09735 0.79447 0.45557 0.0
C50 C 0.12403 0.82954 0.40253 0.0
C51 C 0.08034 0.80058 0.39465 0.0
O52 O 0.95909 0.77197 0.47274 0.0
C53 C 0.99234 0.63417 0.45937 0.0
O54 O 0.94296 0.6474 0.46377 0.0
H55 H 0.09445 0.78422 0.48594 0.0
H56 H 0.06141 0.79643 0.36673 0.0
N57 N 0.96639 0.73745 0.38768 0.0
N58 N 0.92759 0.71245 0.33279 0.0
C59 C 0.96141 0.6989 0.36141 0.0
C60 C 0.93514 0.77641 0.37492 0.0
C61 C 0.91121 0.76114 0.34105 0.0
C62 C 0.96946 0.77559 0.50876 0.0
O63 O 1.01167 0.75299 0.52298 0.0
H64 H 0.98141 0.66166 0.36342 0.0
H65 H 0.92958 0.81314 0.38968 0.0
O66 O 1.02485 0.66799 0.44832 0.0
H67 H 0.14595 0.85252 0.38205 0.0
H68 H 0.88341 0.78366 0.32398 0.0
Cu69 Cu 0.7483 0.04039 0.60975 0.0
N70 N 0.78721 0.97888 0.61535 0.0
N71 N 0.83838 0.91096 0.60036 0.0
C72 C 0.81653 0.95586 0.58765 0.0
C73 C 0.82243 0.90529 0.63738 0.0
C74 C 0.79071 0.9474 0.64658 0.0
O75 O 0.7846 0.0816 0.57124 0.0
C76 C 0.63777 0.05 0.59636 0.0
O77 O 0.64163 0.09758 0.60962 0.0
H78 H 0.8214 0.97139 0.55866 0.0
H79 H 0.77118 0.95442 0.67395 0.0
N80 N 0.74705 0.07708 0.65686 0.0
N81 N 0.72188 0.11602 0.7119 0.0
C82 C 0.70873 0.08219 0.68362 0.0
C83 C 0.78559 0.10807 0.66913 0.0
C84 C 0.77019 0.13215 0.703 0.0
C85 C 0.77318 0.12859 0.56298 0.0
O86 O 0.73227 0.15111 0.57903 0.0
H87 H 0.67153 0.06294 0.68191 0.0
H88 H 0.8219 0.11378 0.65382 0.0
O89 O 0.6785 1.02145 0.59295 0.0
H90 H 0.83278 0.87294 0.65616 0.0
H91 H 0.79215 0.16027 0.71941 0.0
Cu92 Cu 0.4831 0.81942 0.95446 0.0
N93 N 0.54435 0.78272 0.94189 0.0
N94 N 0.61925 0.73994 0.95424 0.0
C95 C 0.57115 0.75265 0.96737 0.0
C96 C 0.62307 0.7627 0.91908 0.0
C97 C 0.57676 0.78927 0.91155 0.0
O98 O 0.44733 0.77706 0.99294 0.0
C99 C 0.47489 0.92689 0.97585 0.0
O100 O 0.42414 0.92072 0.97489 0.0
H101 H 0.55723 0.74355 0.99623 0.0
H102 H 0.56891 0.81459 0.88708 0.0
N103 N 0.43692 0.82994 0.9125 0.0
N104 N 0.40078 0.85 0.85498 0.0
C105 C 0.44484 0.83418 0.87377 0.0
C106 C 0.38628 0.84281 0.9178 0.0
C107 C 0.36408 0.85538 0.88267 0.0
C108 C 0.41947 0.79214 1.02142 0.0
O109 O 0.41421 0.84182 0.02913 0.0
H110 H 0.48212 0.82762 0.85977 0.0
H111 H 0.36722 0.84508 0.94573 0.0
O112 O 0.50539 0.88784 0.9715 0.0
H113 H 0.65789 0.76269 0.90131 0.0
H114 H 0.32413 0.86818 0.87772 0.0
Cu115 Cu 0.81574 0.55424 0.09511 0.0
N116 N 0.79076 0.48671 0.09815 0.0
N117 N 0.75647 0.41149 0.07948 0.0
C118 C 0.7638 0.46188 0.07035 0.0
C119 C 0.77908 0.40443 0.11455 0.0
C120 C 0.80044 0.45097 0.12595 0.0
O121 O 0.77085 0.59195 0.05851 0.0
C122 C 0.92365 0.5798 0.08777 0.0
O123 O 0.91089 0.62286 0.10603 0.0
H124 H 0.75122 0.47989 0.04339 0.0
H125 H 0.8228 0.45794 0.15207 0.0
N126 N 0.81154 0.58618 0.14401 0.0
N127 N 0.83254 0.61971 0.20172 0.0
C128 C 0.84775 0.58783 0.1726 0.0
C129 C 0.77207 0.61733 0.15597 0.0
C130 C 0.78494 0.63813 0.19153 0.0
C131 C 0.77905 0.63774 0.0462 0.0
O132 O 0.82145 0.66194 0.05701 0.0
H133 H 0.88538 0.56816 0.17133 0.0
H134 H 0.7372 0.62588 0.1392 0.0
O135 O 0.8881 0.54834 0.078 0.0
H136 H 0.78118 0.36794 0.13022 0.0
H137 H 0.76218 0.66623 0.20793 0.0
Cu138 Cu 0.55017 0.24195 0.94314 0.0
N139 N 0.48875 0.28176 0.94043 0.0
N140 N 0.42174 0.33224 0.95891 0.0
C141 C 0.46532 0.30636 0.97035 0.0
C142 C 0.4174 0.32375 0.92043 0.0
C143 C 0.45888 0.29237 0.90908 0.0
O144 O 0.59474 0.27603 0.98072 0.0
C145 C 0.56073 0.13283 0.95871 0.0
O146 O 0.60988 0.13754 0.94869 0.0
H147 H 0.48022 0.30591 0.9998 0.0
H148 H 0.46699 0.2786 0.88002 0.0
N149 N 0.58325 0.24106 0.89448 0.0
N150 N 0.62106 0.21586 0.83897 0.0
C151 C 0.59261 0.20099 0.87 0.0
C152 C 0.60608 0.28238 0.878 0.0
C153 C 0.62944 0.26698 0.84381 0.0
C154 C 0.64399 0.26946 0.9826 0.0
O155 O 0.66711 0.23511 0.96001 0.0
H156 H 0.58015 0.16161 0.87507 0.0
H157 H 0.60663 0.32087 0.89055 0.0
O158 O 0.53076 0.17265 0.95947 0.0
H159 H 0.38682 0.33962 0.90195 0.0
H160 H 0.6517 0.2911 0.8243 0.0
Cu161 Cu 0.23859 0.50062 0.12225 0.0
N162 N 0.26559 0.56779 0.12466 0.0
N163 N 0.30531 0.64183 0.10977 0.0
C164 C 0.29984 0.59118 0.10091 0.0
C165 C 0.27363 0.65093 0.14023 0.0
C166 C 0.24928 0.60509 0.14943 0.0
O167 O 0.27777 0.45548 0.08638 0.0
C168 C 0.14592 0.53274 0.08161 0.0
O169 O 0.1777 0.55195 0.05559 0.0
H170 H 0.31875 0.57258 0.07661 0.0
H171 H 0.22015 0.59965 0.17172 0.0
N172 N 0.24421 0.47045 0.17152 0.0
N173 N 0.22469 0.4321 0.22778 0.0
C174 C 0.20553 0.4551 0.19532 0.0
C175 C 0.28901 0.45699 0.18969 0.0
C176 C 0.27709 0.43331 0.22444 0.0
C177 C 0.2888 0.46509 0.05105 0.0
O178 O 0.27224 0.50833 0.03465 0.0
H179 H 0.16436 0.45974 0.18876 0.0
H180 H 0.32764 0.46332 0.1781 0.0
O181 O 0.1645 0.50724 0.11032 0.0
H182 H 0.26731 0.68838 0.15384 0.0
H183 H 0.3046 0.41768 0.2455 0.0
C184 C 0.16874 0.36266 0.25425 0.0
C185 C 0.19609 0.40962 0.25956 0.0
C186 C 0.18122 0.40466 0.32979 0.0
C187 C 0.15173 0.35907 0.32431 0.0
N188 N 0.10876 0.30002 0.28141 0.0
N189 N 0.21903 0.48121 0.30042 0.0
C190 C 0.14273 0.33984 0.28642 0.0
C191 C 0.19925 0.4325 0.29683 0.0
N192 N 0.17006 0.33855 0.21897 0.0
N193 N 0.19451 0.41959 0.36649 0.0
H194 H 0.23191 0.50244 0.27651 0.0
H195 H 0.21816 0.50226 0.32622 0.0
H196 H 0.18337 0.39899 0.39113 0.0
H197 H 0.22025 0.44952 0.37236 0.0
H198 H 0.15545 0.30158 0.21416 0.0
H199 H 0.18951 0.35388 0.19509 0.0
H200 H 0.09661 0.28701 0.25429 0.0
H201 H 0.0892 0.28303 0.30466 0.0
C202 C 0.33342 0.85116 0.75831 0.0
C203 C 0.36269 0.88806 0.73733 0.0
C204 C 0.41851 0.90051 0.79468 0.0
C205 C 0.39225 0.8598 0.81406 0.0
N206 N 0.33282 0.78858 0.8109 0.0
N207 N 0.43893 0.94162 0.73331 0.0
C208 C 0.35211 0.83278 0.79472 0.0
C209 C 0.40689 0.91114 0.7549 0.0
N210 N 0.28652 0.83527 0.74403 0.0
N211 N 0.45294 0.93044 0.8146 0.0
H212 H 0.43162 0.95042 0.7043 0.0
H213 H 0.47487 0.95467 0.74324 0.0
H214 H 0.46282 0.92353 0.84348 0.0
H215 H 0.46863 0.96442 0.80339 0.0
H216 H 0.26114 0.81188 0.75963 0.0
H217 H 0.27052 0.85016 0.71836 0.0
H218 H 0.30669 0.76451 0.79662 0.0
H219 H 0.34737 0.77315 0.83688 0.0
C220 C 0.87264 0.6431 0.30524 0.0
C221 C 0.91055 0.68208 0.30008 0.0
C222 C 0.90038 0.67637 0.22939 0.0
C223 C 0.86287 0.63699 0.23447 0.0
N224 N 0.81979 0.57598 0.27562 0.0
N225 N 0.96865 0.72831 0.25843 0.0
C226 C 0.8513 0.61802 0.27204 0.0
C227 C 0.92712 0.6961 0.26237 0.0
N228 N 0.85517 0.63224 0.34177 0.0
N229 N 0.90816 0.69678 0.19327 0.0
H230 H 0.98863 0.74299 0.28239 0.0
H231 H 0.98601 0.73682 0.2319 0.0
H232 H 0.88859 0.68352 0.16873 0.0
H233 H 0.931 0.72913 0.18795 0.0
H234 H 0.82391 0.60805 0.34752 0.0
H235 H 0.87012 0.65011 0.36647 0.0
H236 H 0.81297 0.557 0.3018 0.0
H237 H 0.80361 0.55759 0.25152 0.0
C238 C 0.62153 0.19214 0.76956 0.0
C239 C 0.64116 0.18423 0.80763 0.0
C240 C 0.70562 0.1214 0.78239 0.0
C241 C 0.69063 0.13469 0.74398 0.0
N242 N 0.63776 0.18618 0.70026 0.0
N243 N 0.70472 0.14516 0.8506 0.0
C244 C 0.64899 0.17057 0.73731 0.0
C245 C 0.68363 0.14933 0.81424 0.0
N246 N 0.57627 0.22009 0.76455 0.0
N247 N 0.7408 0.08173 0.78811 0.0
H248 H 0.68985 0.16556 0.87436 0.0
H249 H 0.73907 0.12456 0.85673 0.0
H250 H 0.75708 0.06082 0.76505 0.0
H251 H 0.7503 0.06669 0.81536 0.0
H252 H 0.55699 0.22369 0.73801 0.0
H253 H 0.55559 0.23592 0.7879 0.0
H254 H 0.61157 0.21624 0.69358 0.0
H255 H 0.65758 0.17156 0.67613 0.0
C256 C 0.1688 0.18104 0.59173 0.0
C257 C 0.21942 0.16335 0.58125 0.0
C258 C 0.2181 0.22138 0.52466 0.0
C259 C 0.16889 0.24209 0.53665 0.0
N260 N 0.10202 0.24849 0.58579 0.0
N261 N 0.29713 0.17457 0.54339 0.0
C262 C 0.14549 0.22383 0.57144 0.0
C263 C 0.24554 0.18601 0.54939 0.0
N264 N 0.14239 0.15563 0.62027 0.0
N265 N 0.23741 0.23296 0.48873 0.0
H266 H 0.31846 0.14957 0.56152 0.0
H267 H 0.31989 0.19372 0.52298 0.0
H268 H 0.21804 0.25717 0.46895 0.0
H269 H 0.27021 0.2145 0.47697 0.0
H270 H 0.10322 0.16287 0.62666 0.0
H271 H 0.15869 0.12428 0.63553 0.0
H272 H 0.08611 0.24022 0.61287 0.0
H273 H 0.0846 0.28067 0.57226 0.0
C274 C 0.25852 0.84937 0.49661 0.0
C275 C 0.25399 0.9038 0.50309 0.0
C276 C 0.16836 0.90515 0.47084 0.0
C277 C 0.17472 0.85181 0.46194 0.0
N278 N 0.22784 0.77429 0.46092 0.0
N279 N 0.20951 0.9853 0.49021 0.0
C280 C 0.2205 0.82425 0.47326 0.0
C281 C 0.21018 0.93223 0.4885 0.0
N282 N 0.29771 0.8213 0.51421 0.0
N283 N 0.12159 0.92939 0.46336 0.0
H284 H 0.24028 1.00639 0.50181 0.0
H285 H 0.18104 1.00854 0.47689 0.0
H286 H 0.09039 0.91031 0.45044 0.0
H287 H 0.11224 0.9668 0.47279 0.0
H288 H 0.2998 0.78087 0.51408 0.0
H289 H 0.32619 0.83814 0.53161 0.0
H290 H 0.26264 0.75342 0.46463 0.0
H291 H 0.20014 0.75502 0.44424 0.0
C292 C 0.85019 0.83122 0.56131 0.0
C293 C 0.87157 0.87605 0.57854 0.0
C294 C 0.95659 0.85622 0.54898 0.0
C295 C 0.93618 0.80934 0.53379 0.0
N296 N 0.86602 0.74814 0.52981 0.0
N297 N 0.94561 0.92808 0.59406 0.0
C298 C 0.88355 0.79571 0.54112 0.0
C299 C 0.92503 0.88755 0.57391 0.0
N300 N 0.7976 0.82366 0.56342 0.0
N301 N 1.00516 0.87207 0.53806 0.0
H302 H 0.92298 0.95193 0.61207 0.0
H303 H 0.9854 0.93564 0.59537 0.0
H304 H 1.0293 0.85061 0.51953 0.0
H305 H 1.02 0.90842 0.54472 0.0
H306 H 0.77824 0.79483 0.54818 0.0
H307 H 0.77258 0.84889 0.57843 0.0
H308 H 0.82978 0.73363 0.53759 0.0
H309 H 0.88946 0.72117 0.51511 0.0
C310 C 0.82218 0.13904 0.50017 0.0
C311 C 0.80851 0.15864 0.53742 0.0
C312 C 0.86214 0.23522 0.52547 0.0
C313 C 0.8808 0.21241 0.49071 0.0
N314 N 0.8847 0.13953 0.4473 0.0
N315 N 0.82384 0.22092 0.58863 0.0
C316 C 0.86236 0.16347 0.47861 0.0
C317 C 0.83051 0.20572 0.55091 0.0
N318 N 0.79559 0.09823 0.48482 0.0
N319 N 0.87362 0.28568 0.53362 0.0
H320 H 0.80278 0.19962 0.60887 0.0
H321 H 0.84359 0.25195 0.60091 0.0
H322 H 0.89567 0.3086 0.515 0.0
H323 H 0.85695 0.30618 0.55665 0.0
H324 H 0.80042 0.08552 0.45634 0.0
H325 H 0.76497 0.08025 0.49927 0.0
H326 H 0.87686 0.10141 0.43934 0.0
H327 H 0.91457 0.15634 0.43127 0.0
C328 C 0.37906 0.70223 0.10407 0.0
C329 C 0.33376 0.67988 0.08794 0.0
C330 C 0.34701 0.72776 0.02728 0.0
C331 C 0.39019 0.75334 0.04439 0.0
N332 N 0.44473 0.76915 0.10022 0.0
N333 N 0.26858 0.67792 0.03775 0.0
C334 C 0.4053 0.74199 0.08326 0.0
C335 C 0.31615 0.69436 0.05044 0.0
N336 N 0.39793 0.68374 0.13864 0.0
N337 N 0.33564 0.73495 0.98882 0.0
H338 H 0.24457 0.6544 0.05448 0.0
H339 H 0.25069 0.69132 1.01237 0.0
H340 H 0.35584 0.76048 0.97108 0.0
H341 H 0.30869 0.71278 0.97371 0.0
H342 H 0.43361 0.69436 0.15051 0.0
H343 H 0.37947 0.65443 0.15418 0.0
H344 H 0.45388 0.76684 0.12965 0.0
H345 H 0.46662 0.79655 0.08527 0.0
C346 C 0.71702 0.71303 0.03399 0.0
C347 C 0.73903 0.66479 1.02164 0.0
C348 C 0.67948 0.66517 0.96547 0.0
C349 C 0.66084 0.71515 0.9762 0.0
N350 N 0.66963 0.79156 1.01554 0.0
N351 N 0.74778 0.59931 0.97186 0.0
C352 C 0.68197 0.74052 1.00899 0.0
C353 C 0.72204 0.64197 0.98629 0.0
N354 N 0.72734 0.73139 0.0704 0.0
N355 N 0.65529 0.63931 0.93607 0.0
H356 H 0.77976 0.5819 0.98579 0.0
H357 H 0.74057 0.58402 0.94442 0.0
H358 H 0.62415 0.65556 0.92041 0.0
H359 H 0.6632 0.60057 0.9293 0.0
H360 H 0.70804 0.76348 0.08234 0.0
H361 H 0.75129 0.71174 0.09027 0.0
H362 H 0.68775 0.81382 0.03675 0.0
H363 H 0.64503 0.81304 0.99719 0.0
C364 C 0.68821 0.346 0.07118 0.0
C365 C 0.73107 0.3729 0.05594 0.0
C366 C 0.71633 0.33352 0.99227 0.0
C367 C 0.67535 0.3035 1.00822 0.0
N368 N 0.62946 0.27319 0.06491 0.0
N369 N 0.79473 0.38215 1.00533 0.0
C370 C 0.66315 0.30746 0.04839 0.0
C371 C 0.74779 0.36365 1.01741 0.0
N372 N 0.67124 0.35998 0.10715 0.0
N373 N 0.72353 0.3357 0.95297 0.0
H374 H 0.81963 0.40228 1.02379 0.0
H375 H 0.81136 0.37262 0.97864 0.0
H376 H 0.70018 0.31606 0.93317 0.0
H377 H 0.74931 0.36118 0.93977 0.0
H378 H 0.63765 0.34585 0.12029 0.0
H379 H 0.63765 0.34585 0.12029 0.0
H380 H 0.62326 0.27049 0.0947 0.0
H381 H 0.61152 0.24377 0.04921 0.0
C382 C 0.33818 0.34776 0.99322 0.0
C383 C 0.38849 0.36486 0.98257 0.0
C384 C 0.37592 0.44364 1.02145 0.0
C385 C 0.3236 0.42919 0.02897 0.0
N386 N 0.25262 0.37012 1.01922 0.0
N387 N 0.45281 0.43174 0.9812 0.0
C388 C 0.30406 0.3818 1.01418 0.0
C389 C 0.40671 0.41357 0.99528 0.0
N390 N 0.32386 0.29836 0.98414 0.0
N391 N 0.39683 0.48498 0.04048 0.0
H392 H 0.47594 0.41063 0.96174 0.0
H393 H 0.46587 0.4693 0.98605 0.0
H394 H 0.37592 0.50681 0.06077 0.0
H395 H 0.43618 0.49443 0.03916 0.0
H396 H 0.28985 0.28129 0.99419 0.0
H397 H 0.34828 0.27288 0.96883 0.0
H398 H 0.23455 0.33901 1.00569 0.0
H399 H 0.22687 0.39368 0.03501 0.0
C400 C 0.98932 0.54119 0.43742 0.0
C401 C 1.00944 0.57894 0.46327 0.0
C402 C 0.0694 0.51335 0.49139 0.0
C403 C 0.04763 0.47506 0.46677 0.0
N404 N 0.98245 0.45067 0.41942 0.0
N405 N 0.06188 0.59999 0.51902 0.0
C406 C 1.00595 0.48836 0.44099 0.0
C407 C 0.04774 0.56475 0.49138 0.0
N408 N 0.95678 0.55635 0.40776 0.0
N409 N 0.11104 0.5006 0.51465 0.0
H410 H 0.04642 0.6377 0.52007 0.0
H411 H 0.0855 0.59092 0.54279 0.0
H412 H 0.12564 0.46272 0.51747 0.0
H413 H 0.13295 0.52779 0.52964 0.0
H414 H 0.94625 0.5323 0.38487 0.0
H415 H 0.9432 0.59438 0.40404 0.0
H416 H 0.94737 0.45649 0.40459 0.0
H417 H 0.996 0.41239 0.41788 0.0
C418 C 0.55216 0.04773 0.56024 0.0
C419 C 0.58535 1.0275 0.58995 0.0
C420 C 0.51578 0.96952 0.61161 0.0
C421 C 0.48344 0.98789 0.58072 0.0
N422 N 0.47295 0.03795 0.52202 0.0
N423 N 0.60161 0.96494 0.64122 0.0
C424 C 0.50219 1.02535 0.55407 0.0
C425 C 0.56817 0.98676 0.61452 0.0
N426 N 0.56839 0.0885 0.53802 0.0
N427 N 0.49542 0.93831 0.63985 0.0
H428 H 0.63837 0.97953 0.64756 0.0
H429 H 0.59421 0.93032 0.65575 0.0
H430 H 0.45709 0.92537 0.63966 0.0
H431 H 0.51488 0.92863 0.66548 0.0
H432 H 0.54403 0.10929 0.51918 0.0
H433 H 0.60591 0.10355 0.53984 0.0
H434 H 0.48623 0.06094 0.49931 0.0
H435 H 0.43655 1.02183 0.51647 0.0
C436 C 0.5548 0.04829 0.99537 0.0
C437 C 0.53834 0.0804 0.96386 0.0
C438 C 0.48302 1.01059 0.93936 0.0
C439 C 0.49632 0.97995 0.9724 0.0
N440 N 0.53965 0.97089 0.03419 0.0
N441 N 0.48248 0.09473 0.90795 0.0
C442 C 0.53106 0.99903 1.00099 0.0
C443 C 0.50087 0.06245 0.93668 0.0
N444 N 0.59311 0.06493 1.0199 0.0
N445 N 0.456 0.98907 0.90921 0.0
H446 H 0.49767 0.13122 0.90214 0.0
H447 H 0.44979 0.08665 0.89109 0.0
H448 H 0.44316 0.95086 0.90923 0.0
H449 H 0.45037 1.00726 0.88247 0.0
H450 H 0.6113 0.04129 0.0406 0.0
H451 H 0.60897 0.10196 1.01826 0.0
H452 H 0.56016 0.98464 0.05808 0.0
H453 H 0.52283 0.93481 0.03913 0.0
C454 C 0.0695 0.59512 0.07252 0.0
C455 C 0.08869 0.54373 0.07936 0.0
C456 C 0.99955 0.51595 0.09337 0.0
C457 C 0.97982 0.56584 0.08227 0.0
N458 N 0.99607 0.64821 0.05124 0.0
N459 N 0.06943 0.45254 0.08577 0.0
C460 C 1.01483 0.60395 0.06863 0.0
C461 C 0.0529 0.50326 0.08644 0.0
N462 N 0.1027 0.63621 0.07228 0.0
N463 N 0.96877 0.48173 0.11288 0.0
H464 H 0.10778 0.44149 0.07926 0.0
H465 H 0.0438 0.42152 0.08731 0.0
H466 H 0.93055 0.49019 0.12131 0.0
H467 H 0.98327 0.44709 0.12472 0.0
H468 H 0.0896 0.67473 0.07111 0.0
H469 H 0.14261 0.6326 0.07779 0.0
H470 H 1.02021 0.67496 0.03769 0.0
H471 H 0.95632 0.6552 0.0465 0.0
loop_
_geom_bond_atom_site_label_1
_geom_bond_atom_site_label_2
_geom_bond_distance
_geom_bond_site_symmetry_2
_ccdc_geom_bond_type
Cu0 N1 1.999 1_455 S
Cu0 O6 1.974 . S
Cu0 N11 1.985 . S
Cu0 O20 1.958 1_455 S
N1 Cu0 1.999 1_655 S
N1 C3 1.263 . S
N1 C5 1.389 . S
N2 C3 1.358 . S
N2 C4 1.400 . S
C3 N1 1.263 . S
C3 N2 1.358 . S
C3 H9 0.930 1_655 S
C4 N2 1.400 . S
C4 C5 1.351 . S
C4 H21 0.930 . S
C5 N1 1.389 . S
C5 C4 1.351 . S
C5 H10 0.930 . S
O6 Cu0 1.974 . S
O6 C16 1.282 . S
C7 O8 1.261 . S
C7 O20 1.251 1_455 S
O8 C7 1.261 . S
H9 C3 0.930 1_455 S
H10 C5 0.930 . S
N11 Cu0 1.985 . S
N11 C13 1.335 . S
N11 C14 1.390 . S
N12 C13 1.345 . S
N12 C15 1.336 . S
C13 N11 1.335 . S
C13 N12 1.345 . S
C13 H18 0.930 . S
C14 N11 1.390 . S
C14 C15 1.346 . S
C14 H19 0.930 . S
C15 N12 1.336 . S
C15 C14 1.346 . S
C15 H22 0.929 . S
C16 O6 1.282 . S
C16 O17 1.216 . S
O17 C16 1.216 . S
H18 C13 0.930 . S
H19 C14 0.930 . S
O20 Cu0 1.958 1_655 S
O20 C7 1.251 1_655 S
H21 C4 0.930 . S
H22 C15 0.929 . S
Cu23 N24 1.999 1_565 S
Cu23 O29 1.974 . S
Cu23 N34 1.985 . S
Cu23 O43 1.958 1_565 S
N24 Cu23 1.999 1_545 S
N24 C26 1.263 . S
N24 C28 1.389 . S
N25 C26 1.358 . S
N25 C27 1.400 . S
C26 N24 1.263 . S
C26 N25 1.358 . S
C26 H32 0.930 1_545 S
C27 N25 1.400 . S
C27 C28 1.351 . S
C27 H44 0.930 . S
C28 N24 1.389 . S
C28 C27 1.351 . S
C28 H33 0.930 . S
O29 Cu23 1.974 . S
O29 C39 1.282 . S
C30 O31 1.261 . S
C30 O43 1.251 1_565 S
O31 C30 1.261 . S
H32 C26 0.930 1_565 S
H33 C28 0.930 . S
N34 Cu23 1.985 . S
N34 C36 1.335 . S
N34 C37 1.390 . S
N35 C36 1.345 . S
N35 C38 1.336 . S
C36 N34 1.335 . S
C36 N35 1.345 . S
C36 H41 0.930 . S
C37 N34 1.390 . S
C37 C38 1.346 . S
C37 H42 0.930 . S
C38 N35 1.336 . S
C38 C37 1.346 . S
C38 H45 0.929 . S
C39 O29 1.282 . S
C39 O40 1.216 . S
O40 C39 1.216 . S
H41 C36 0.930 . S
H42 C37 0.930 . S
O43 Cu23 1.958 1_545 S
O43 C30 1.251 1_545 S
H44 C27 0.930 . S
H45 C38 0.929 . S
Cu46 N47 1.999 1_655 S
Cu46 O52 1.974 . S
Cu46 N57 1.985 . S
Cu46 O66 1.958 1_655 S
N47 Cu46 1.999 1_455 S
N47 C49 1.263 . S
N47 C51 1.389 . S
N48 C49 1.358 . S
N48 C50 1.400 . S
C49 N47 1.263 . S
C49 N48 1.358 . S
C49 H55 0.930 1_455 S
C50 N48 1.400 . S
C50 C51 1.351 . S
C50 H67 0.930 . S
C51 N47 1.389 . S
C51 C50 1.351 . S
C51 H56 0.930 . S
O52 Cu46 1.974 . S
O52 C62 1.282 . S
C53 O54 1.261 . S
C53 O66 1.251 1_655 S
O54 C53 1.261 . S
H55 C49 0.930 1_655 S
H56 C51 0.930 . S
N57 Cu46 1.985 . S
N57 C59 1.335 . S
N57 C60 1.390 . S
N58 C59 1.345 . S
N58 C61 1.336 . S
C59 N57 1.335 . S
C59 N58 1.345 . S
C59 H64 0.930 . S
C60 N57 1.390 . S
C60 C61 1.346 . S
C60 H65 0.930 . S
C61 N58 1.336 . S
C61 C60 1.346 . S
C61 H68 0.929 . S
C62 O52 1.282 . S
C62 O63 1.216 . S
O63 C62 1.216 . S
H64 C59 0.930 . S
H65 C60 0.930 . S
O66 Cu46 1.958 1_455 S
O66 C53 1.251 1_455 S
H67 C50 0.930 . S
H68 C61 0.929 . S
Cu69 N70 1.999 1_545 S
Cu69 O75 1.974 . S
Cu69 N80 1.985 . S
Cu69 O89 1.958 1_545 S
N70 Cu69 1.999 1_565 S
N70 C72 1.263 . S
N70 C74 1.389 . S
N71 C72 1.358 . S
N71 C73 1.400 . S
C72 N70 1.263 . S
C72 N71 1.358 . S
C72 H78 0.930 1_565 S
C73 N71 1.400 . S
C73 C74 1.351 . S
C73 H90 0.930 . S
C74 N70 1.389 . S
C74 C73 1.351 . S
C74 H79 0.930 . S
O75 Cu69 1.974 . S
O75 C85 1.282 . S
C76 O77 1.261 . S
C76 O89 1.251 1_545 S
O77 C76 1.261 . S
H78 C72 0.930 1_545 S
H79 C74 0.930 . S
N80 Cu69 1.985 . S
N80 C82 1.335 . S
N80 C83 1.390 . S
N81 C82 1.345 . S
N81 C84 1.336 . S
C82 N80 1.335 . S
C82 N81 1.345 . S
C82 H87 0.930 . S
C83 N80 1.390 . S
C83 C84 1.346 . S
C83 H88 0.930 . S
C84 N81 1.336 . S
C84 C83 1.346 . S
C84 H91 0.929 . S
C85 O75 1.282 . S
C85 O86 1.216 . S
O86 C85 1.216 . S
H87 C82 0.930 . S
H88 C83 0.930 . S
O89 Cu69 1.958 1_565 S
O89 C76 1.251 1_565 S
H90 C73 0.930 . S
H91 C84 0.929 . S
Cu92 N93 1.999 . S
Cu92 O98 1.974 . S
Cu92 N103 1.985 . S
Cu92 O112 1.959 . S
N93 Cu92 1.999 . S
N93 C95 1.263 . S
N93 C97 1.389 . S
N94 C95 1.358 . S
N94 C96 1.400 . S
C95 N93 1.263 . S
C95 N94 1.358 . S
C95 H101 0.930 . S
C96 N94 1.400 . S
C96 C97 1.351 . S
C96 H113 0.930 . S
C97 N93 1.389 . S
C97 C96 1.351 . S
C97 H102 0.930 . S
O98 Cu92 1.974 . S
O98 C108 1.282 . S
C99 O100 1.261 . S
C99 O112 1.251 . S
O100 C99 1.261 . S
H101 C95 0.930 . S
H102 C97 0.930 . S
N103 Cu92 1.985 . S
N103 C105 1.335 . S
N103 C106 1.390 . S
N104 C105 1.345 . S
N104 C107 1.336 . S
C105 N103 1.335 . S
C105 N104 1.345 . S
C105 H110 0.930 . S
C106 N103 1.390 . S
C106 C107 1.346 . S
C106 H111 0.930 . S
C107 N104 1.336 . S
C107 C106 1.346 . S
C107 H114 0.929 . S
C108 O98 1.282 . S
C108 O109 1.216 . S
O109 C108 1.216 . S
H110 C105 0.930 . S
H111 C106 0.930 . S
O112 Cu92 1.959 . S
O112 C99 1.251 . S
H113 C96 0.930 . S
H114 C107 0.929 . S
Cu115 N116 1.999 . S
Cu115 O121 1.974 . S
Cu115 N126 1.985 . S
Cu115 O135 1.959 . S
N116 Cu115 1.999 . S
N116 C118 1.263 . S
N116 C120 1.389 . S
N117 C118 1.358 . S
N117 C119 1.400 . S
C118 N116 1.263 . S
C118 N117 1.358 . S
C118 H124 0.930 . S
C119 N117 1.400 . S
C119 C120 1.351 . S
C119 H136 0.930 . S
C120 N116 1.389 . S
C120 C119 1.351 . S
C120 H125 0.930 . S
O121 Cu115 1.974 . S
O121 C131 1.282 . S
C122 O123 1.261 . S
C122 O135 1.251 . S
O123 C122 1.261 . S
H124 C118 0.930 . S
H125 C120 0.930 . S
N126 Cu115 1.985 . S
N126 C128 1.335 . S
N126 C129 1.390 . S
N127 C128 1.345 . S
N127 C130 1.336 . S
C128 N126 1.335 . S
C128 N127 1.345 . S
C128 H133 0.930 . S
C129 N126 1.390 . S
C129 C130 1.346 . S
C129 H134 0.930 . S
C130 N127 1.336 . S
C130 C129 1.346 . S
C130 H137 0.929 . S
C131 O121 1.282 . S
C131 O132 1.216 . S
O132 C131 1.216 . S
H133 C128 0.930 . S
H134 C129 0.930 . S
O135 Cu115 1.959 . S
O135 C122 1.251 . S
H136 C119 0.930 . S
H137 C130 0.929 . S
Cu138 N139 1.999 . S
Cu138 O144 1.974 . S
Cu138 N149 1.985 . S
Cu138 O158 1.959 . S
N139 Cu138 1.999 . S
N139 C141 1.263 . S
N139 C143 1.389 . S
N140 C141 1.358 . S
N140 C142 1.400 . S
C141 N139 1.263 . S
C141 N140 1.358 . S
C141 H147 0.930 . S
C142 N140 1.400 . S
C142 C143 1.351 . S
C142 H159 0.930 . S
C143 N139 1.389 . S
C143 C142 1.351 . S
C143 H148 0.930 . S
O144 Cu138 1.974 . S
O144 C154 1.282 . S
C145 O146 1.261 . S
C145 O158 1.251 . S
O146 C145 1.261 . S
H147 C141 0.930 . S
H148 C143 0.930 . S
N149 Cu138 1.985 . S
N149 C151 1.335 . S
N149 C152 1.390 . S
N150 C151 1.345 . S
N150 C153 1.336 . S
C151 N149 1.335 . S
C151 N150 1.345 . S
C151 H156 0.930 . S
C152 N149 1.390 . S
C152 C153 1.346 . S
C152 H157 0.930 . S
C153 N150 1.336 . S
C153 C152 1.346 . S
C153 H160 0.929 . S
C154 O144 1.282 . S
C154 O155 1.216 . S
O155 C154 1.216 . S
H156 C151 0.930 . S
H157 C152 0.930 . S
O158 Cu138 1.959 . S
O158 C145 1.251 . S
H159 C142 0.930 . S
H160 C153 0.929 . S
Cu161 N162 1.999 . S
Cu161 O167 1.974 . S
Cu161 N172 1.985 . S
Cu161 O181 1.959 . S
N162 Cu161 1.999 . S
N162 C164 1.263 . S
N162 C166 1.389 . S
N163 C164 1.358 . S
N163 C165 1.400 . S
C164 N162 1.263 . S
C164 N163 1.358 . S
C164 H170 0.930 . S
C165 N163 1.400 . S
C165 C166 1.351 . S
C165 H182 0.930 . S
C166 N162 1.389 . S
C166 C165 1.351 . S
C166 H171 0.930 . S
O167 Cu161 1.974 . S
O167 C177 1.282 . S
C168 O169 1.261 . S
C168 O181 1.251 . S
O169 C168 1.261 . S
H170 C164 0.930 . S
H171 C166 0.930 . S
N172 Cu161 1.985 . S
N172 C174 1.335 . S
N172 C175 1.390 . S
N173 C174 1.345 . S
N173 C176 1.336 . S
C174 N172 1.335 . S
C174 N173 1.345 . S
C174 H179 0.930 . S
C175 N172 1.390 . S
C175 C176 1.346 . S
C175 H180 0.930 . S
C176 N173 1.336 . S
C176 C175 1.346 . S
C176 H183 0.929 . S
C177 O167 1.282 . S
C177 O178 1.216 . S
O178 C177 1.216 . S
H179 C174 0.930 . S
H180 C175 0.930 . S
O181 Cu161 1.959 . S
O181 C168 1.251 . S
H182 C165 0.930 . S
H183 C176 0.929 . S
C184 C185 1.363 . S
C184 C190 1.379 . S
C184 N192 1.356 . S
C185 C184 1.363 . S
C185 C191 1.363 . S
C186 C187 1.363 . S
C186 C191 1.379 . S
C186 N193 1.356 . S
C187 C186 1.363 . S
C187 C190 1.363 . S
N188 C190 1.356 . S
N188 H200 0.984 . S
N188 H201 0.985 . S
N189 C191 1.356 . S
N189 H194 0.984 . S
N189 H195 0.985 . S
C190 C184 1.379 . S
C190 C187 1.363 . S
C190 N188 1.356 . S
C191 C185 1.363 . S
C191 C186 1.379 . S
C191 N189 1.356 . S
N192 C184 1.356 . S
N192 H198 0.984 . S
N192 H199 0.984 . S
N193 C186 1.356 . S
N193 H196 0.984 . S
N193 H197 0.985 . S
H194 N189 0.984 . S
H195 N189 0.985 . S
H196 N193 0.984 . S
H197 N193 0.985 . S
H198 N192 0.984 . S
H199 N192 0.984 . S
H200 N188 0.984 . S
H201 N188 0.985 . S
C202 C203 1.363 . S
C202 C208 1.379 . S
C202 N210 1.356 . S
C203 C202 1.363 . S
C203 C209 1.363 . S
C204 C205 1.363 . S
C204 C209 1.379 . S
C204 N211 1.356 . S
C205 C204 1.363 . S
C205 C208 1.363 . S
N206 C208 1.356 . S
N206 H218 0.984 . S
N206 H219 0.985 . S
N207 C209 1.356 . S
N207 H212 0.984 . S
N207 H213 0.985 . S
C208 C202 1.379 . S
C208 C205 1.363 . S
C208 N206 1.356 . S
C209 C203 1.363 . S
C209 C204 1.379 . S
C209 N207 1.356 . S
N210 C202 1.356 . S
N210 H216 0.984 . S
N210 H217 0.984 . S
N211 C204 1.356 . S
N211 H214 0.984 . S
N211 H215 0.985 . S
H212 N207 0.984 . S
H213 N207 0.985 . S
H214 N211 0.984 . S
H215 N211 0.985 . S
H216 N210 0.984 . S
H217 N210 0.984 . S
H218 N206 0.984 . S
H219 N206 0.985 . S
C220 C221 1.363 . S
C220 C226 1.379 . S
C220 N228 1.356 . S
C221 C220 1.363 . S
C221 C227 1.363 . S
C222 C223 1.363 . S
C222 C227 1.379 . S
C222 N229 1.356 . S
C223 C222 1.363 . S
C223 C226 1.363 . S
N224 C226 1.356 . S
N224 H236 0.984 . S
N224 H237 0.985 . S
N225 C227 1.356 . S
N225 H230 0.984 . S
N225 H231 0.985 . S
C226 C220 1.379 . S
C226 C223 1.363 . S
C226 N224 1.356 . S
C227 C221 1.363 . S
C227 C222 1.379 . S
C227 N225 1.356 . S
N228 C220 1.356 . S
N228 H234 0.984 . S
N228 H235 0.984 . S
N229 C222 1.356 . S
N229 H232 0.984 . S
N229 H233 0.985 . S
H230 N225 0.984 . S
H231 N225 0.985 . S
H232 N229 0.984 . S
H233 N229 0.985 . S
H234 N228 0.984 . S
H235 N228 0.984 . S
H236 N224 0.984 . S
H237 N224 0.985 . S
C238 C239 1.363 . S
C238 C244 1.379 . S
C238 N246 1.356 . S
C239 C238 1.363 . S
C239 C245 1.363 . S
C240 C241 1.363 . S
C240 C245 1.379 . S
C240 N247 1.356 . S
C241 C240 1.363 . S
C241 C244 1.363 . S
N242 C244 1.356 . S
N242 H254 0.984 . S
N242 H255 0.985 . S
N243 C245 1.356 . S
N243 H248 0.984 . S
N243 H249 0.985 . S
C244 C238 1.379 . S
C244 C241 1.363 . S
C244 N242 1.356 . S
C245 C239 1.363 . S
C245 C240 1.379 . S
C245 N243 1.356 . S
N246 C238 1.356 . S
N246 H252 0.984 . S
N246 H253 0.984 . S
N247 C240 1.356 . S
N247 H250 0.984 . S
N247 H251 0.985 . S
H248 N243 0.984 . S
H249 N243 0.985 . S
H250 N247 0.984 . S
H251 N247 0.985 . S
H252 N246 0.984 . S
H253 N246 0.984 . S
H254 N242 0.984 . S
H255 N242 0.985 . S
C256 C257 1.363 . S
C256 C262 1.379 . S
C256 N264 1.356 . S
C257 C256 1.363 . S
C257 C263 1.363 . S
C258 C259 1.363 . S
C258 C263 1.379 . S
C258 N265 1.356 . S
C259 C258 1.363 . S
C259 C262 1.363 . S
N260 C262 1.356 . S
N260 H272 0.984 . S
N260 H273 0.985 . S
N261 C263 1.356 . S
N261 H266 0.984 . S
N261 H267 0.985 . S
C262 C256 1.379 . S
C262 C259 1.363 . S
C262 N260 1.356 . S
C263 C257 1.363 . S
C263 C258 1.379 . S
C263 N261 1.356 . S
N264 C256 1.356 . S
N264 H270 0.984 . S
N264 H271 0.984 . S
N265 C258 1.356 . S
N265 H268 0.984 . S
N265 H269 0.985 . S
H266 N261 0.984 . S
H267 N261 0.985 . S
H268 N265 0.984 . S
H269 N265 0.985 . S
H270 N264 0.984 . S
H271 N264 0.984 . S
H272 N260 0.984 . S
H273 N260 0.985 . S
C274 C275 1.363 . S
C274 C280 1.379 . S
C274 N282 1.356 . S
C275 C274 1.363 . S
C275 C281 1.363 . S
C276 C277 1.363 . S
C276 C281 1.379 . S
C276 N283 1.356 . S
C277 C276 1.363 . S
C277 C280 1.363 . S
N278 C280 1.356 . S
N278 H290 0.984 . S
N278 H291 0.985 . S
N279 C281 1.356 . S
N279 H284 0.984 . S
N279 H285 0.985 . S
C280 C274 1.379 . S
C280 C277 1.363 . S
C280 N278 1.356 . S
C281 C275 1.363 . S
C281 C276 1.379 . S
C281 N279 1.356 . S
N282 C274 1.356 . S
N282 H288 0.984 . S
N282 H289 0.984 . S
N283 C276 1.356 . S
N283 H286 0.984 . S
N283 H287 0.985 . S
H284 N279 0.984 . S
H285 N279 0.985 . S
H286 N283 0.984 . S
H287 N283 0.985 . S
H288 N282 0.984 . S
H289 N282 0.984 . S
H290 N278 0.984 . S
H291 N278 0.985 . S
C292 C293 1.363 . S
C292 C298 1.379 . S
C292 N300 1.356 . S
C293 C292 1.363 . S
C293 C299 1.363 . S
C294 C295 1.363 . S
C294 C299 1.379 . S
C294 N301 1.356 . S
C295 C294 1.363 . S
C295 C298 1.363 . S
N296 C298 1.356 . S
N296 H308 0.984 . S
N296 H309 0.985 . S
N297 C299 1.356 . S
N297 H302 0.984 . S
N297 H303 0.985 . S
C298 C292 1.379 . S
C298 C295 1.363 . S
C298 N296 1.356 . S
C299 C293 1.363 . S
C299 C294 1.379 . S
C299 N297 1.356 . S
N300 C292 1.356 . S
N300 H306 0.984 . S
N300 H307 0.984 . S
N301 C294 1.356 . S
N301 H304 0.984 . S
N301 H305 0.985 . S
H302 N297 0.984 . S
H303 N297 0.985 . S
H304 N301 0.984 . S
H305 N301 0.985 . S
H306 N300 0.984 . S
H307 N300 0.984 . S
H308 N296 0.984 . S
H309 N296 0.985 . S
C310 C311 1.363 . S
C310 C316 1.379 . S
C310 N318 1.356 . S
C311 C310 1.363 . S
C311 C317 1.363 . S
C312 C313 1.363 . S
C312 C317 1.379 . S
C312 N319 1.356 . S
C313 C312 1.363 . S
C313 C316 1.363 . S
N314 C316 1.356 . S
N314 H326 0.984 . S
N314 H327 0.985 . S
N315 C317 1.356 . S
N315 H320 0.984 . S
N315 H321 0.985 . S
C316 C310 1.379 . S
C316 C313 1.363 . S
C316 N314 1.356 . S
C317 C311 1.363 . S
C317 C312 1.379 . S
C317 N315 1.356 . S
N318 C310 1.356 . S
N318 H324 0.984 . S
N318 H325 0.984 . S
N319 C312 1.356 . S
N319 H322 0.984 . S
N319 H323 0.985 . S
H320 N315 0.984 . S
H321 N315 0.985 . S
H322 N319 0.984 . S
H323 N319 0.985 . S
H324 N318 0.984 . S
H325 N318 0.984 . S
H326 N314 0.984 . S
H327 N314 0.985 . S
C328 C329 1.363 . S
C328 C334 1.379 . S
C328 N336 1.357 1_556 S
C329 C328 1.363 . S
C329 C335 1.363 . S
C330 C331 1.363 . S
C330 C335 1.379 . S
C330 N337 1.356 . S
C331 C330 1.363 . S
C331 C334 1.363 . S
N332 C334 1.365 . S
N332 H344 0.962 1_556 S
N332 H345 1.000 . S
N333 C335 1.356 . S
N333 H338 0.984 . S
N333 H339 0.985 . S
C334 C328 1.379 . S
C334 C331 1.363 . S
C334 N332 1.365 . S
C335 C329 1.363 . S
C335 C330 1.379 . S
C335 N333 1.356 . S
N336 C328 1.357 1_554 S
N336 H342 0.984 . S
N336 H343 0.984 . S
N337 C330 1.356 . S
N337 H340 0.984 . S
N337 H341 0.985 . S
H338 N333 0.984 . S
H339 N333 0.985 . S
H340 N337 0.984 . S
H341 N337 0.985 . S
H342 N336 0.984 . S
H343 N336 0.984 . S
H344 N332 0.962 1_554 S
H345 N332 1.000 . S
C346 C347 1.363 . S
C346 C352 1.379 . S
C346 N354 1.356 . S
C347 C346 1.363 . S
C347 C353 1.363 . S
C348 C349 1.348 1_556 S
C348 C353 1.370 1_556 S
C348 N355 1.379 . S
C349 C348 1.348 1_554 S
C349 C352 1.363 . S
N350 C352 1.356 . S
N350 H362 0.984 . S
N350 H363 0.985 . S
N351 C353 1.348 1_556 S
N351 H356 0.970 1_556 S
N351 H357 1.009 . S
C352 C346 1.379 . S
C352 C349 1.363 . S
C352 N350 1.356 . S
C353 C347 1.363 . S
C353 C348 1.370 1_554 S
C353 N351 1.348 1_554 S
N354 C346 1.356 . S
N354 H360 0.984 . S
N354 H361 0.984 . S
N355 C348 1.379 . S
N355 H358 0.984 . S
N355 H359 0.985 . S
H356 N351 0.970 1_554 S
H357 N351 1.009 . S
H358 N355 0.984 . S
H359 N355 0.985 . S
H360 N354 0.984 . S
H361 N354 0.984 . S
H362 N350 0.984 . S
H363 N350 0.985 . S
C364 C365 1.363 . S
C364 C370 1.379 . S
C364 N372 1.356 1_556 S
C365 C364 1.363 . S
C365 C371 1.363 . S
C366 C367 1.363 . S
C366 C371 1.379 . S
C366 N373 1.356 . S
C367 C366 1.363 . S
C367 C370 1.363 . S
N368 C370 1.356 . S
N368 H380 0.984 1_556 S
N368 H381 0.985 . S
N369 C371 1.356 . S
N369 H374 0.984 . S
N369 H375 0.985 . S
C370 C364 1.379 . S
C370 C367 1.363 . S
C370 N368 1.356 . S
C371 C365 1.363 . S
C371 C366 1.379 . S
C371 N369 1.356 . S
N372 C364 1.356 1_554 S
N372 H378 0.984 . S
N372 H379 0.984 . S
N373 C366 1.356 . S
N373 H376 0.984 . S
N373 H377 0.985 . S
H374 N369 0.984 . S
H375 N369 0.985 . S
H376 N373 0.984 . S
H377 N373 0.985 . S
H378 N372 0.984 . S
H379 N372 0.984 . S
H380 N368 0.984 1_554 S
H381 N368 0.985 . S
C382 C383 1.363 . S
C382 C388 1.379 . S
C382 N390 1.356 . S
C383 C382 1.363 . S
C383 C389 1.363 . S
C384 C385 1.363 . S
C384 C389 1.379 . S
C384 N391 1.356 . S
C385 C384 1.363 . S
C385 C388 1.363 . S
N386 C388 1.356 . S
N386 H398 0.984 . S
N386 H399 0.985 . S
N387 C389 1.356 1_556 S
N387 H392 0.984 . S
N387 H393 0.985 . S
C388 C382 1.379 . S
C388 C385 1.363 . S
C388 N386 1.356 . S
C389 C383 1.363 . S
C389 C384 1.379 . S
C389 N387 1.356 1_554 S
N390 C382 1.356 . S
N390 H396 0.984 . S
N390 H397 0.984 . S
N391 C384 1.356 . S
N391 H394 0.984 . S
N391 H395 0.985 . S
H392 N387 0.984 . S
H393 N387 0.985 . S
H394 N391 0.984 . S
H395 N391 0.985 . S
H396 N390 0.984 . S
H397 N390 0.984 . S
H398 N386 0.984 . S
H399 N386 0.985 . S
C400 C401 1.374 . S
C400 C406 1.379 . S
C400 N408 1.356 . S
C401 C400 1.374 . S
C401 C407 1.352 1_655 S
C402 C403 1.374 . S
C402 C407 1.379 . S
C402 N409 1.356 . S
C403 C402 1.374 . S
C403 C406 1.352 1_455 S
N404 C406 1.356 . S
N404 H416 0.984 . S
N404 H417 0.985 . S
N405 C407 1.356 . S
N405 H410 0.984 . S
N405 H411 0.985 . S
C406 C400 1.379 . S
C406 C403 1.352 1_655 S
C406 N404 1.356 . S
C407 C401 1.352 1_455 S
C407 C402 1.379 . S
C407 N405 1.356 . S
N408 C400 1.356 . S
N408 H414 0.984 . S
N408 H415 0.984 . S
N409 C402 1.356 . S
N409 H412 0.984 . S
N409 H413 0.985 . S
H410 N405 0.984 . S
H411 N405 0.985 . S
H412 N409 0.984 . S
H413 N409 0.985 . S
H414 N408 0.984 . S
H415 N408 0.984 . S
H416 N404 0.984 . S
H417 N404 0.985 . S
C418 C419 1.374 . S
C418 C424 1.379 . S
C418 N426 1.356 . S
C419 C418 1.374 . S
C419 C425 1.352 1_545 S
C420 C421 1.374 . S
C420 C425 1.379 . S
C420 N427 1.356 . S
C421 C420 1.374 . S
C421 C424 1.352 1_565 S
N422 C424 1.356 . S
N422 H434 0.984 . S
N422 H435 0.985 . S
N423 C425 1.356 . S
N423 H428 0.984 . S
N423 H429 0.985 . S
C424 C418 1.379 . S
C424 C421 1.352 1_545 S
C424 N422 1.356 . S
C425 C419 1.352 1_565 S
C425 C420 1.379 . S
C425 N423 1.356 . S
N426 C418 1.356 . S
N426 H432 0.984 . S
N426 H433 0.984 . S
N427 C420 1.356 . S
N427 H430 0.984 . S
N427 H431 0.985 . S
H428 N423 0.984 . S
H429 N423 0.985 . S
H430 N427 0.984 . S
H431 N427 0.985 . S
H432 N426 0.984 . S
H433 N426 0.984 . S
H434 N422 0.984 . S
H435 N422 0.985 . S
C436 C437 1.363 . S
C436 C442 1.379 1_545 S
C436 N444 1.356 . S
C437 C436 1.363 . S
C437 C443 1.363 . S
C438 C439 1.363 . S
C438 C443 1.379 1_565 S
C438 N445 1.356 . S
C439 C438 1.363 . S
C439 C442 1.363 . S
N440 C442 1.356 . S
N440 H452 0.984 . S
N440 H453 0.985 . S
N441 C443 1.356 . S
N441 H446 0.984 . S
N441 H447 0.985 . S
C442 C436 1.379 1_565 S
C442 C439 1.363 . S
C442 N440 1.356 . S
C443 C437 1.363 . S
C443 C438 1.379 1_545 S
C443 N441 1.356 . S
N444 C436 1.356 . S
N444 H450 0.984 . S
N444 H451 0.984 . S
N445 C438 1.356 . S
N445 H448 0.984 . S
N445 H449 0.985 . S
H446 N441 0.984 . S
H447 N441 0.985 . S
H448 N445 0.984 . S
H449 N445 0.985 . S
H450 N444 0.984 . S
H451 N444 0.984 . S
H452 N440 0.984 . S
H453 N440 0.985 . S
C454 C455 1.363 . S
C454 C460 1.379 1_455 S
C454 N462 1.356 . S
C455 C454 1.363 . S
C455 C461 1.363 . S
C456 C457 1.363 . S
C456 C461 1.379 1_655 S
C456 N463 1.356 . S
C457 C456 1.363 . S
C457 C460 1.363 . S
N458 C460 1.356 . S
N458 H470 0.984 . S
N458 H471 0.985 . S
N459 C461 1.356 . S
N459 H464 0.984 . S
N459 H465 0.985 . S
C460 C454 1.379 1_655 S
C460 C457 1.363 . S
C460 N458 1.356 . S
C461 C455 1.363 . S
C461 C456 1.379 1_455 S
C461 N459 1.356 . S
N462 C454 1.356 . S
N462 H468 0.984 . S
N462 H469 0.984 . S
N463 C456 1.356 . S
N463 H466 0.984 . S
N463 H467 0.985 . S
H464 N459 0.984 . S
H465 N459 0.985 . S
H466 N463 0.984 . S
H467 N463 0.985 . S
H468 N462 0.984 . S
H469 N462 0.984 . S
H470 N458 0.984 . S
H471 N458 0.985 . S
C185 N173 1.833 . S
C187 N12 1.833 . S
C203 N35 1.833 . S
C205 N104 1.833 . S
C221 N58 1.833 . S
C223 N127 1.833 . S
C239 N150 1.833 . S
C241 N81 1.833 . S
C257 N25 1.608 . S
C259 C16 1.698 . S
C275 C39 1.698 . S
C277 N48 1.608 . S
C293 N71 1.608 . S
C295 C62 1.698 . S
C311 C85 1.698 . S
C313 N2 1.608 . S
C329 N163 1.608 1_556 S
C331 C108 1.698 . S
C347 C131 1.698 . S
C349 N94 1.608 1_554 S
C365 N117 1.608 1_556 S
C367 C154 1.698 . S
C383 N140 1.608 1_554 S
C385 C177 1.698 . S
C401 C53 1.807 . S
C403 C7 1.807 . S
C419 C76 1.807 . S
C421 C30 1.807 . S
C437 C145 1.804 . S
C439 C99 1.804 . S
C455 C168 1.804 . S
C457 C122 1.804 . S
