# Generated by pormake.
# Topology msp, (4)-cn, num edge types: 1
# Building blocks:
#     Node 0, Type 0, BuildingBlock: GALJAG_clean_sbu_0, # of connection points: 4
#     Node 1, Type 0, BuildingBlock: GALJAG_clean_sbu_0, # of connection points: 4
#     Node 2, Type 0, BuildingBlock: GALJAG_clean_sbu_0, # of connection points: 4
#     Node 3, Type 0, BuildingBlock: GALJAG_clean_sbu_0, # of connection points: 4
#     Node 4, Type 0, BuildingBlock: GALJAG_clean_sbu_0, # of connection points: 4
#     Node 5, Type 0, BuildingBlock: GALJAG_clean_sbu_0, # of connection points: 4
#     Node 6, Type 0, BuildingBlock: GALJAG_clean_sbu_0, # of connection points: 4
#     Node 7, Type 0, BuildingBlock: GALJAG_clean_sbu_0, # of connection points: 4
#     Edge 8, Type (0, 0), BuildingBlock: MIFKUJ_clean_linker_0, # of connection points: 2
#     Edge 9, Type (0, 0), BuildingBlock: MIFKUJ_clean_linker_0, # of connection points: 2
#     Edge 10, Type (0, 0), BuildingBlock: MIFKUJ_clean_linker_0, # of connection points: 2
#     Edge 11, Type (0, 0), BuildingBlock: MIFKUJ_clean_linker_0, # of connection points: 2
#     Edge 12, Type (0, 0), BuildingBlock: MIFKUJ_clean_linker_0, # of connection points: 2
#     Edge 13, Type (0, 0), BuildingBlock: MIFKUJ_clean_linker_0, # of connection points: 2
#     Edge 14, Type (0, 0), BuildingBlock: MIFKUJ_clean_linker_0, # of connection points: 2
#     Edge 15, Type (0, 0), BuildingBlock: MIFKUJ_clean_linker_0, # of connection points: 2
#     Edge 16, Type (0, 0), BuildingBlock: MIFKUJ_clean_linker_0, # of connection points: 2
#     Edge 17, Type (0, 0), BuildingBlock: MIFKUJ_clean_linker_0, # of connection points: 2
#     Edge 18, Type (0, 0), BuildingBlock: MIFKUJ_clean_linker_0, # of connection points: 2
#     Edge 19, Type (0, 0), BuildingBlock: MIFKUJ_clean_linker_0, # of connection points: 2
#     Edge 20, Type (0, 0), BuildingBlock: MIFKUJ_clean_linker_0, # of connection points: 2
#     Edge 21, Type (0, 0), BuildingBlock: MIFKUJ_clean_linker_0, # of connection points: 2
#     Edge 22, Type (0, 0), BuildingBlock: MIFKUJ_clean_linker_0, # of connection points: 2
#     Edge 23, Type (0, 0), BuildingBlock: MIFKUJ_clean_linker_0, # of connection points: 2
# Relax obj value: 0.108
# Max RMSD: 0.183
# Mean RMSD: 0.183
data_MOF--net-msp--node1-GALJAG_clean_sbu_0--edge1-MIFKUJ_clean_linker_0
_symmetry_space_group_name_H-M    P1
_symmetry_Int_Tables_number       1
_symmetry_cell_setting            triclinic
loop_
_symmetry_equiv_pos_as_xyz
'x, y, z'
_cell_length_a     28.006159
_cell_length_b     27.674668
_cell_length_c     56.403017
_cell_angle_alpha  89.989989
_cell_angle_beta   99.761258
_cell_angle_gamma 90.025455
loop_
_atom_site_label
_atom_site_type_symbol
_atom_site_fract_x
_atom_site_fract_y
_atom_site_fract_z
_atom_type_partial_charge
In0 In 0.04431 0.26599 0.37239 0.0
O1 O 0.97555 0.22583 0.35546 0.0
O2 O 0.98122 0.30079 0.34792 0.0
C3 C 0.09457 0.19637 0.39922 0.0
C4 C 0.09622 0.27095 0.33657 0.0
C5 C 0.03559 0.33194 0.40676 0.0
O6 O 0.04889 0.19832 0.39637 0.0
O7 O 0.11415 0.2289 0.38856 0.0
O8 O 0.06039 0.34009 0.39043 0.0
O9 O 0.01525 0.29118 0.40548 0.0
C10 C 0.95658 0.26252 0.34425 0.0
O11 O 0.09854 0.30359 0.35247 0.0
O12 O 0.06764 0.23656 0.3388 0.0
In13 In 0.45784 0.25608 0.62754 0.0
O14 O 0.52626 0.21744 0.64594 0.0
O15 O 0.52182 0.29361 0.65019 0.0
C16 C 0.4102 0.1856 0.60032 0.0
C17 C 0.40471 0.26053 0.66293 0.0
C18 C 0.46481 0.32149 0.59274 0.0
O19 O 0.45595 0.18678 0.60503 0.0
O20 O 0.38926 0.21928 0.60953 0.0
O21 O 0.44169 0.33008 0.60968 0.0
O22 O 0.48455 0.28043 0.59361 0.0
C23 C 0.54595 0.25547 0.65542 0.0
O24 O 0.40255 0.29308 0.64701 0.0
O25 O 0.43374 0.22649 0.66095 0.0
In26 In 0.95407 0.73488 0.62513 0.0
O27 O 0.89993 0.69682 0.64525 0.0
O28 O 0.90576 0.77331 0.6475 0.0
C29 C 0.97588 0.66443 0.59578 0.0
C30 C 0.03634 0.74047 0.65758 0.0
C31 C 0.91533 0.79878 0.59145 0.0
O32 O 0.94152 0.66036 0.60763 0.0
O33 O -0.00043 0.70338 0.59923 0.0
O34 O 0.94358 0.81218 0.61019 0.0
O35 O 0.90688 0.75406 0.58993 0.0
C36 C 0.8862 0.73557 0.65388 0.0
O37 O 0.02654 0.77066 0.64064 0.0
O38 O 0.00505 0.70786 0.65784 0.0
In39 In 0.53947 0.72969 0.37445 0.0
O40 O 0.4715 0.77121 0.35764 0.0
O41 O 0.47574 0.69604 0.35008 0.0
C42 C 0.59366 0.79406 0.40301 0.0
C43 C 0.59228 0.72756 0.33881 0.0
C44 C 0.52523 0.66308 0.40749 0.0
O45 O 0.54865 0.80044 0.39628 0.0
O46 O 0.6102 0.75574 0.39545 0.0
O47 O 0.54918 0.65396 0.39092 0.0
O48 O 0.50853 0.70547 0.40722 0.0
C49 C 0.45177 0.73472 0.3465 0.0
O50 O 0.59283 0.69301 0.35357 0.0
O51 O 0.56485 0.76226 0.34199 0.0
In52 In 0.54067 0.76747 0.87369 0.0
O53 O 0.59429 0.80566 0.85329 0.0
O54 O 0.58927 0.72908 0.85149 0.0
C55 C 0.51778 0.83846 0.90248 0.0
C56 C 0.45868 0.76055 0.84114 0.0
C57 C 0.57997 0.7043 0.90765 0.0
O58 O 0.55299 0.84203 0.89116 0.0
O59 O 0.49386 0.79968 0.89881 0.0
O60 O 0.55201 0.69046 0.8889 0.0
O61 O 0.58773 0.74914 0.90908 0.0
C62 C 0.60835 0.76687 0.84484 0.0
O63 O 0.46853 0.73089 0.85832 0.0
O64 O 0.48977 0.7933 0.84071 0.0
In65 In 0.95789 0.76338 0.12664 0.0
O66 O 0.02587 0.72151 0.14313 0.0
O67 O 0.02249 0.79686 0.15043 0.0
C68 C 0.90311 0.69965 0.09797 0.0
C69 C 0.9062 0.76542 0.16272 0.0
C70 C 0.9707 0.83028 0.09351 0.0
O71 O 0.94826 0.6934 0.10423 0.0
O72 O 0.88668 0.73737 0.10617 0.0
O73 O 0.94749 0.83922 0.11038 0.0
O74 O 0.98754 0.78797 0.09358 0.0
C75 C 0.04618 0.75801 0.154 0.0
O76 O 0.90551 0.80013 0.14804 0.0
O77 O 0.93318 0.73055 0.15923 0.0
In78 In 0.46127 0.24388 0.12424 0.0
O79 O 0.40307 0.2092 0.14264 0.0
O80 O 0.43787 0.27347 0.15778 0.0
C81 C 0.46492 0.17693 0.08963 0.0
C82 C 0.54814 0.24149 0.15329 0.0
C83 C 0.41909 0.31842 0.09774 0.0
O84 O 0.43795 0.17193 0.1053 0.0
O85 O 0.48987 0.21505 0.09167 0.0
O86 O 0.46374 0.30958 0.0994 0.0
O87 O 0.39651 0.29019 0.10938 0.0
C88 C 0.40667 0.24099 0.15902 0.0
O89 O 0.5318 0.2794 0.14233 0.0
O90 O 0.52133 0.20482 0.14899 0.0
In91 In 0.04028 0.24192 0.87585 0.0
O92 O 0.09492 0.20466 0.85607 0.0
O93 O 0.06453 0.27186 0.84255 0.0
C94 C 0.03018 0.17464 0.90934 0.0
C95 C 0.95241 0.24606 0.84788 0.0
C96 C 0.09051 0.30995 0.90383 0.0
O97 O 0.05364 0.16651 0.89248 0.0
O98 O 0.0119 0.21631 0.90912 0.0
O99 O 0.04474 0.31041 0.89919 0.0
O100 O 0.11015 0.27575 0.89433 0.0
C101 C 0.0931 0.23754 0.84033 0.0
O102 O 0.97303 0.28319 0.85791 0.0
O103 O 0.9755 0.20715 0.85261 0.0
H104 H 0.98541 0.31961 0.4436 0.0
H105 H 0.97747 0.37605 0.47593 0.0
H106 H 0.06659 0.47938 0.44628 0.0
H107 H 0.07527 0.4225 0.41389 0.0
H108 H 0.09208 0.47189 0.49492 0.0
H109 H 0.94449 0.49404 0.4387 0.0
H110 H 0.86947 0.4679 0.41239 0.0
H111 H 0.816 0.40954 0.4734 0.0
H112 H 0.89102 0.43475 0.50004 0.0
H113 H 0.03653 0.67348 0.56306 0.0
H114 H 0.04857 0.61654 0.53159 0.0
H115 H 0.94999 0.51634 0.55668 0.0
H116 H 0.93652 0.57415 0.58777 0.0
H117 H 0.92997 0.52248 0.51002 0.0
H118 H 0.07675 0.49933 0.5664 0.0
H119 H 0.15195 0.52395 0.59303 0.0
H120 H 0.20722 0.58229 0.53253 0.0
H121 H 0.13207 0.55858 0.50557 0.0
C122 C 0.00327 0.35438 0.44389 0.0
C123 C 0.03079 0.36674 0.42612 0.0
C124 C 0.99856 0.38668 0.46236 0.0
C125 C 0.02091 0.4322 0.46336 0.0
C126 C 0.04892 0.44448 0.44581 0.0
C127 C 0.05372 0.41206 0.42729 0.0
C128 C 0.01511 0.46668 0.48285 0.0
C129 C 0.05669 0.48355 0.49804 0.0
C130 C 0.96886 0.48082 0.4873 0.0
C131 C 0.92357 0.46592 0.47133 0.0
C132 C 0.91688 0.47533 0.44648 0.0
C133 C 0.87433 0.46073 0.43151 0.0
C134 C 0.83804 0.43698 0.44121 0.0
C135 C 0.84416 0.42789 0.46591 0.0
C136 C 0.88667 0.44238 0.48096 0.0
C137 C 0.01775 0.63912 0.56203 0.0
C138 C 0.98567 0.6282 0.57794 0.0
C139 C 0.02484 0.60646 0.54407 0.0
C140 C 0.00073 0.56175 0.54191 0.0
C141 C 0.96907 0.55056 0.55799 0.0
C142 C 0.96152 0.58351 0.5758 0.0
C143 C 0.00698 0.52763 0.52228 0.0
C144 C 0.96544 0.51085 0.50699 0.0
C145 C 0.05328 0.51341 0.51783 0.0
C146 C 0.09858 0.52756 0.534 0.0
C147 C 0.10479 0.51772 0.5588 0.0
C148 C 0.14744 0.53146 0.57395 0.0
C149 C 0.18429 0.55477 0.56449 0.0
C150 C 0.17863 0.56428 0.53984 0.0
C151 C 0.13604 0.55065 0.52461 0.0
H152 H 0.21727 0.56539 0.57624 0.0
H153 H 0.80513 0.42569 0.42959 0.0
H154 H 0.55667 0.56932 0.41197 0.0
H155 H 0.54425 0.51096 0.44303 0.0
H156 H 0.46367 0.61769 0.47563 0.0
H157 H 0.47647 0.67625 0.44489 0.0
H158 H 0.52705 0.5722 0.50899 0.0
H159 H 0.40623 0.52528 0.44217 0.0
H160 H 0.37516 0.50082 0.40036 0.0
H161 H 0.46547 0.37455 0.40935 0.0
H162 H 0.49762 0.39862 0.45113 0.0
H163 H 0.42897 0.41362 0.58761 0.0
H164 H 0.43707 0.47143 0.55562 0.0
H165 H 0.51777 0.36608 0.5222 0.0
H166 H 0.50927 0.30807 0.55388 0.0
H167 H 0.45312 0.41113 0.48918 0.0
H168 H 0.57501 0.45873 0.55564 0.0
H169 H 0.60643 0.48313 0.59742 0.0
H170 H 0.51437 0.60816 0.58904 0.0
H171 H 0.48188 0.58412 0.54729 0.0
C172 C 0.53622 0.58027 0.42574 0.0
C173 C 0.51745 0.62732 0.42596 0.0
C174 C 0.52897 0.54684 0.44341 0.0
C175 C 0.50259 0.55979 0.46153 0.0
C176 C 0.48408 0.60686 0.46183 0.0
C177 C 0.49132 0.64025 0.44419 0.0
C178 C 0.49493 0.52465 0.48046 0.0
C179 C 0.51026 0.53725 0.50466 0.0
C180 C 0.474 0.47861 0.47481 0.0
C181 C 0.4547 0.46403 0.4497 0.0
C182 C 0.41978 0.49251 0.43517 0.0
C183 C 0.40191 0.47868 0.41148 0.0
C184 C 0.41843 0.43623 0.40218 0.0
C185 C 0.45277 0.40746 0.41656 0.0
C186 C 0.47079 0.42116 0.44025 0.0
C187 C 0.44839 0.40283 0.57343 0.0
C188 C 0.46881 0.35647 0.57335 0.0
C189 C 0.45314 0.43592 0.55521 0.0
C190 C 0.47859 0.4233 0.53667 0.0
C191 C 0.49812 0.37667 0.53634 0.0
C192 C 0.49341 0.34364 0.55453 0.0
C193 C 0.48527 0.45871 0.5177 0.0
C194 C 0.46981 0.44614 0.4935 0.0
C195 C 0.50612 0.50479 0.52333 0.0
C196 C 0.52564 0.51934 0.54842 0.0
C197 C 0.56117 0.49121 0.56277 0.0
C198 C 0.57923 0.50502 0.58643 0.0
C199 C 0.56231 0.5471 0.5959 0.0
C200 C 0.52738 0.57553 0.58169 0.0
C201 C 0.50916 0.56185 0.55802 0.0
H202 H 0.57635 0.55774 0.61422 0.0
H203 H 0.40454 0.42557 0.38384 0.0
H204 H 0.41503 0.09168 0.08084 0.0
H205 H 0.41928 0.03407 0.0482 0.0
H206 H 0.52436 0.12489 0.02206 0.0
H207 H 0.51983 0.18263 0.0543 0.0
H208 H 0.45775 0.09392 0.98562 0.0
H209 H 0.55859 0.02247 0.05415 0.0
H210 H 0.57784 0.99054 0.09548 0.0
H211 H 0.46596 0.88369 0.07881 0.0
H212 H 0.4456 0.91544 0.03744 0.0
H213 H 0.56081 0.92669 0.91231 0.0
H214 H 0.54629 0.98465 0.94315 0.0
H215 H 0.43699 0.89053 0.96323 0.0
H216 H 0.45126 0.83253 0.93247 0.0
H217 H 0.50099 0.92199 0.00232 0.0
H218 H 0.40327 0.99147 0.93286 0.0
H219 H 0.38552 0.02326 0.89147 0.0
H220 H 0.49306 0.1338 0.90982 0.0
H221 H 0.51197 0.10222 0.95126 0.0
C222 C 0.43903 0.09927 0.06813 0.0
C223 C 0.46721 0.14157 0.07018 0.0
C224 C 0.44153 0.0663 0.04953 0.0
C225 C 0.47244 0.07499 0.03278 0.0
C226 C 0.50022 0.11744 0.03473 0.0
C227 C 0.49772 0.15032 0.05325 0.0
C228 C 0.47618 0.03998 0.0132 0.0
C229 C 0.46769 0.05644 0.98929 0.0
C230 C 0.48807 0.9908 0.01792 0.0
C231 C 0.50021 0.97169 0.04279 0.0
C232 C 0.53781 0.99244 0.05936 0.0
C233 C 0.54898 0.97432 0.08278 0.0
C234 C 0.52304 0.93521 0.08979 0.0
C235 C 0.48596 0.91405 0.07337 0.0
C236 C 0.47461 0.93207 0.04993 0.0
C237 C 0.53339 0.91858 0.92315 0.0
C238 C 0.50714 0.87511 0.91995 0.0
C239 C 0.52505 0.95175 0.94072 0.0
C240 C 0.49039 0.94198 0.95542 0.0
C241 C 0.4639 0.89877 0.9521 0.0
C242 C 0.47198 0.86578 0.93445 0.0
C243 C 0.48294 0.97605 0.97478 0.0
C244 C 0.49077 0.95941 0.99864 0.0
C245 C 0.47062 0.02508 0.97002 0.0
C246 C 0.45937 0.04417 0.94511 0.0
C247 C 0.42345 0.02229 0.92802 0.0
C248 C 0.41311 0.04033 0.90456 0.0
C249 C 0.43823 0.08045 0.898 0.0
C250 C 0.47368 0.10269 0.91492 0.0
C251 C 0.48419 0.08476 0.9384 0.0
H252 H 0.43016 0.09438 0.87983 0.0
H253 H 0.53176 0.92121 0.10793 0.0
H254 H 0.01693 0.81718 0.0552 0.0
H255 H 0.02741 0.87568 0.02405 0.0
H256 H 0.95046 0.98277 0.05844 0.0
H257 H 0.93923 0.92402 0.08956 0.0
H258 H 0.92017 0.98161 0.01048 0.0
H259 H 0.07356 0.98706 0.06338 0.0
H260 H 0.14831 0.9533 0.08695 0.0
H261 H 0.18975 0.89769 0.02233 0.0
H262 H 0.11489 0.93055 0.99839 0.0
H263 H 0.98424 0.18656 0.94779 0.0
H264 H 0.97464 0.12753 0.97881 0.0
H265 H 0.05298 0.02204 0.94416 0.0
H266 H 0.06345 0.08144 0.91319 0.0
H267 H 0.08263 0.02178 0.99201 0.0
H268 H 0.92964 0.01639 0.93906 0.0
H269 H 0.85493 0.04996 0.91537 0.0
H270 H 0.81262 0.105 0.9799 0.0
H271 H 0.88745 0.07233 0.00396 0.0
C272 C 0.00235 0.85323 0.05619 0.0
C273 C 0.97742 0.8661 0.07489 0.0
C274 C 0.00853 0.88669 0.03841 0.0
C275 C 0.99025 0.9338 0.03906 0.0
C276 C 0.96497 0.94664 0.05761 0.0
C277 C 0.9587 0.91312 0.07541 0.0
C278 C 0.99693 0.9694 0.02018 0.0
C279 C 0.95574 0.99093 0.00667 0.0
C280 C 0.04326 0.98056 0.01477 0.0
C281 C 0.08838 0.96088 0.02912 0.0
C282 C 0.09842 0.9673 0.05421 0.0
C283 C 0.14085 0.94839 0.06764 0.0
C284 C 0.1737 0.92326 0.05615 0.0
C285 C 0.16424 0.9171 0.03121 0.0
C286 C 0.12184 0.93591 0.0177 0.0
C287 C -0.00062 0.15077 0.94673 0.0
C288 C 0.02443 0.13855 0.92799 0.0
C289 C 0.99368 0.11699 0.96443 0.0
C290 C 0.0125 0.07012 0.96364 0.0
C291 C 0.03804 0.05795 0.94509 0.0
C292 C 0.04388 0.09185 0.92738 0.0
C293 C 0.00587 0.03408 0.98234 0.0
C294 C 0.04705 0.01245 0.99581 0.0
C295 C 0.95952 0.02277 0.98769 0.0
C296 C 0.91438 0.04229 0.97328 0.0
C297 C 0.90459 0.03597 0.94818 0.0
C298 C 0.86219 0.05479 0.93469 0.0
C299 C 0.82911 0.0797 0.94612 0.0
C300 C 0.83831 0.08574 0.97107 0.0
C301 C 0.88069 0.06704 0.98465 0.0
H302 H 0.7963 0.09424 0.93564 0.0
H303 H 0.20653 0.90865 0.06658 0.0
H304 H 0.61356 0.31459 0.16492 0.0
H305 H 0.68396 0.31513 0.19727 0.0
H306 H 0.65362 0.16791 0.21502 0.0
H307 H 0.58327 0.16708 0.18275 0.0
H308 H 0.66888 0.22635 0.2547 0.0
H309 H 0.74736 0.19025 0.18798 0.0
H310 H 0.7685 0.20091 0.14761 0.0
H311 H 0.8292 0.34033 0.16807 0.0
H312 H 0.80776 0.33081 0.20847 0.0
H313 H 0.89505 0.18568 0.33373 0.0
H314 H 0.82448 0.18061 0.30148 0.0
H315 H 0.84671 0.32869 0.28207 0.0
H316 H 0.91689 0.33411 0.31422 0.0
H317 H 0.83604 0.26659 0.24315 0.0
H318 H 0.75549 0.3029 0.3097 0.0
H319 H 0.73449 0.29152 0.35005 0.0
H320 H 0.6781 0.15038 0.32982 0.0
H321 H 0.69943 0.16064 0.28943 0.0
C322 C 0.62224 0.28219 0.17554 0.0
C323 C 0.59299 0.2408 0.17131 0.0
C324 C 0.66246 0.28251 0.19398 0.0
C325 C 0.67401 0.24149 0.20848 0.0
C326 C 0.64525 0.19992 0.20405 0.0
C327 C 0.60524 0.19947 0.18554 0.0
C328 C 0.71507 0.24259 0.22883 0.0
C329 C 0.70559 0.23441 0.25216 0.0
C330 C 0.76269 0.25405 0.2255 0.0
C331 C 0.77547 0.26003 0.20118 0.0
C332 C 0.76479 0.22339 0.1838 0.0
C333 C 0.77691 0.22919 0.16093 0.0
C334 C 0.80005 0.27133 0.15526 0.0
C335 C 0.8112 0.30773 0.17247 0.0
C336 C 0.7991 0.30214 0.19537 0.0
C337 C 0.88448 0.21729 0.32277 0.0
C338 C 0.91143 0.26028 0.32648 0.0
C339 C 0.84421 0.21436 0.30439 0.0
C340 C 0.83049 0.2543 0.28942 0.0
C341 C 0.85684 0.29745 0.2934 0.0
C342 C 0.89677 0.30053 0.31185 0.0
C343 C 0.78977 0.25072 0.26901 0.0
C344 C 0.79935 0.25838 0.24567 0.0
C345 C 0.7423 0.23866 0.27233 0.0
C346 C 0.72959 0.23232 0.29663 0.0
C347 C 0.73906 0.26924 0.31393 0.0
C348 C 0.727 0.26303 0.33679 0.0
C349 C 0.70512 0.22019 0.34252 0.0
C350 C 0.69514 0.18351 0.32537 0.0
C351 C 0.70719 0.18951 0.30249 0.0
H352 H 0.69577 0.21547 0.36023 0.0
H353 H 0.80944 0.27573 0.13754 0.0
H354 H 0.59615 0.33321 0.67616 0.0
H355 H 0.66677 0.33288 0.70825 0.0
H356 H 0.66752 0.17695 0.7074 0.0
H357 H 0.59747 0.17709 0.67494 0.0
H358 H 0.67354 0.29841 0.75248 0.0
H359 H 0.78184 0.13532 0.72515 0.0
H360 H 0.79768 0.09476 0.68832 0.0
H361 H 0.76968 0.22728 0.64881 0.0
H362 H 0.75431 0.26877 0.68546 0.0
H363 H 0.90023 0.17028 0.82642 0.0
H364 H 0.83024 0.17316 0.79408 0.0
H365 H 0.83364 0.32902 0.79616 0.0
H366 H 0.90323 0.32633 0.82891 0.0
H367 H 0.82627 0.2093 0.75016 0.0
H368 H 0.71937 0.3728 0.77748 0.0
H369 H 0.70362 0.41364 0.81427 0.0
H370 H 0.72902 0.28073 0.85367 0.0
H371 H 0.74429 0.23897 0.81707 0.0
C372 C 0.61181 0.29886 0.68257 0.0
C373 C 0.59139 0.25516 0.67303 0.0
C374 C 0.652 0.29874 0.70098 0.0
C375 C 0.67255 0.25494 0.71017 0.0
C376 C 0.65274 0.21122 0.70035 0.0
C377 C 0.61267 0.21132 0.68182 0.0
C378 C 0.71327 0.25502 0.73076 0.0
C379 C 0.70724 0.27953 0.75185 0.0
C380 C 0.75677 0.22945 0.73013 0.0
C381 C 0.76645 0.205 0.70801 0.0
C382 C 0.77924 0.15584 0.70862 0.0
C383 C 0.78811 0.13268 0.68777 0.0
C384 C 0.78453 0.15839 0.66622 0.0
C385 C 0.77225 0.20736 0.66549 0.0
C386 C 0.76338 0.23069 0.68629 0.0
C387 C 0.88564 0.20518 0.82023 0.0
C388 C 0.90714 0.24811 0.83019 0.0
C389 C 0.8458 0.20675 0.80168 0.0
C390 C 0.82665 0.25126 0.79272 0.0
C391 C 0.8474 0.29425 0.803 0.0
C392 C 0.88718 0.29268 0.82169 0.0
C393 C 0.78643 0.25247 0.77192 0.0
C394 C 0.79259 0.22824 0.75077 0.0
C395 C 0.7431 0.27834 0.77249 0.0
C396 C 0.73348 0.30292 0.79458 0.0
C397 C 0.72144 0.35227 0.79398 0.0
C398 C 0.71262 0.37558 0.8148 0.0
C399 C 0.71549 0.34983 0.83631 0.0
C400 C 0.72701 0.30068 0.83703 0.0
C401 C 0.73583 0.27719 0.81625 0.0
H402 H 0.70868 0.36795 0.85241 0.0
H403 H 0.79138 0.14039 0.65009 0.0
H404 H 0.05838 0.68437 0.69744 0.0
H405 H 0.13029 0.68849 0.72857 0.0
H406 H 0.18574 0.806 0.69092 0.0
H407 H 0.11349 0.80209 0.6595 0.0
H408 H 0.2549 0.73547 0.7066 0.0
H409 H 0.13888 0.83089 0.73913 0.0
H410 H 0.06012 0.84855 0.7512 0.0
H411 H 0.0802 0.73013 0.80109 0.0
H412 H 0.15882 0.71129 0.78906 0.0
H413 H 0.43653 0.81562 0.80094 0.0
H414 H 0.36477 0.81059 0.76978 0.0
H415 H 0.30982 0.69359 0.80797 0.0
H416 H 0.38194 0.69845 0.83943 0.0
H417 H 0.24039 0.76337 0.79203 0.0
H418 H 0.35659 0.66816 0.75966 0.0
H419 H 0.43532 0.65043 0.74758 0.0
H420 H 0.41491 0.76831 0.69738 0.0
H421 H 0.33632 0.78723 0.70942 0.0
C422 C 0.08587 0.71111 0.69574 0.0
C423 C 0.08033 0.74303 0.67608 0.0
C424 C 0.12682 0.7135 0.71359 0.0
C425 C 0.16301 0.74784 0.71214 0.0
C426 C 0.15805 0.77933 0.69235 0.0
C427 C 0.11681 0.77715 0.67449 0.0
C428 C 0.20606 0.7505 0.73133 0.0
C429 C 0.25187 0.74229 0.72523 0.0
C430 C 0.20176 0.75809 0.75569 0.0
C431 C 0.15453 0.76938 0.76301 0.0
C432 C 0.12631 0.80834 0.75252 0.0
C433 C 0.08173 0.81862 0.75939 0.0
C434 C 0.0651 0.7904 0.77685 0.0
C435 C 0.09309 0.75191 0.78754 0.0
C436 C 0.13769 0.74144 0.78072 0.0
C437 C 0.4092 0.78879 0.80275 0.0
C438 C 0.41483 0.75732 0.82259 0.0
C439 C 0.36833 0.78586 0.78487 0.0
C440 C 0.33231 0.75141 0.78647 0.0
C441 C 0.33739 0.72033 0.80642 0.0
C442 C 0.37854 0.72306 0.82431 0.0
C443 C 0.28924 0.74838 0.76731 0.0
C444 C 0.24342 0.75652 0.7734 0.0
C445 C 0.29354 0.74071 0.74295 0.0
C446 C 0.34077 0.72941 0.73562 0.0
C447 C 0.36907 0.69058 0.7462 0.0
C448 C 0.41364 0.68026 0.73933 0.0
C449 C 0.43017 0.70831 0.72177 0.0
C450 C 0.40209 0.74666 0.711 0.0
C451 C 0.35751 0.75717 0.71783 0.0
H452 H 0.46468 0.70025 0.71647 0.0
H453 H 0.03057 0.79843 0.78214 0.0
H454 H 0.40038 0.65978 0.32373 0.0
H455 H 0.33086 0.66398 0.29121 0.0
H456 H 0.33208 0.81956 0.2962 0.0
H457 H 0.40132 0.81555 0.32919 0.0
H458 H 0.24059 0.78432 0.28889 0.0
H459 H 0.38351 0.76285 0.25348 0.0
H460 H 0.45961 0.72311 0.24789 0.0
H461 H 0.38203 0.59191 0.2268 0.0
H462 H 0.30553 0.63068 0.23261 0.0
H463 H 0.09842 0.83283 0.17638 0.0
H464 H 0.16823 0.82847 0.20874 0.0
H465 H 0.16608 0.67287 0.20401 0.0
H466 H 0.09647 0.67701 0.17121 0.0
H467 H 0.25804 0.70805 0.21115 0.0
H468 H 0.11512 0.72959 0.24657 0.0
H469 H 0.03903 0.76942 0.25212 0.0
H470 H 0.11669 0.9006 0.27316 0.0
H471 H 0.19318 0.86175 0.26739 0.0
C472 C 0.38551 0.69489 0.31811 0.0
C473 C 0.40646 0.73739 0.32886 0.0
C474 C 0.34595 0.69722 0.29943 0.0
C475 C 0.32698 0.74211 0.29095 0.0
C476 C 0.34639 0.78455 0.3024 0.0
C477 C 0.38588 0.78223 0.32122 0.0
C478 C 0.288 0.74469 0.26964 0.0
C479 C 0.24462 0.76821 0.27181 0.0
C480 C 0.29297 0.72277 0.24748 0.0
C481 C 0.33885 0.69955 0.24369 0.0
C482 C 0.38272 0.72543 0.2478 0.0
C483 C 0.42593 0.70309 0.24458 0.0
C484 C 0.42567 0.65498 0.23705 0.0
C485 C 0.38218 0.62916 0.23265 0.0
C486 C 0.33888 0.65131 0.23589 0.0
C487 C 0.11315 0.79768 0.18201 0.0
C488 C 0.0918 0.75521 0.17142 0.0
C489 C 0.1529 0.79526 0.20058 0.0
C490 C 0.17167 0.75032 0.2091 0.0
C491 C 0.15192 0.7079 0.19778 0.0
C492 C 0.11222 0.71031 0.17906 0.0
C493 C 0.21065 0.7477 0.23041 0.0
C494 C 0.25402 0.72416 0.22824 0.0
C495 C 0.20569 0.76962 0.25256 0.0
C496 C 0.15981 0.79288 0.25634 0.0
C497 C 0.11593 0.76703 0.25223 0.0
C498 C 0.07273 0.78941 0.25543 0.0
C499 C 0.073 0.83754 0.26293 0.0
C500 C 0.11652 0.86334 0.26732 0.0
C501 C 0.15981 0.84114 0.26411 0.0
H502 H 0.03952 0.85482 0.26539 0.0
H503 H 0.45917 0.63774 0.23457 0.0
H504 H 0.41228 0.30322 0.19667 0.0
H505 H 0.35905 0.30776 0.22665 0.0
H506 H 0.27732 0.18596 0.19367 0.0
H507 H 0.33046 0.18144 0.16333 0.0
H508 H 0.21866 0.25955 0.20338 0.0
H509 H 0.35358 0.17162 0.24592 0.0
H510 H 0.43968 0.15551 0.26171 0.0
H511 H 0.44837 0.28644 0.30307 0.0
H512 H 0.36245 0.3037 0.28724 0.0
H513 H 0.09025 0.20907 0.29875 0.0
H514 H 0.14234 0.20586 0.2682 0.0
H515 H 0.22216 0.32942 0.30042 0.0
H516 H 0.17003 0.33278 0.33125 0.0
H517 H 0.28162 0.25515 0.29107 0.0
H518 H 0.14615 0.3426 0.24856 0.0
H519 H 0.05991 0.35806 0.23283 0.0
H520 H 0.05208 0.22715 0.1915 0.0
H521 H 0.13815 0.21052 0.20726 0.0
C522 C 0.38316 0.27719 0.19585 0.0
C523 C 0.37558 0.24187 0.1777 0.0
C524 C 0.35286 0.27975 0.21305 0.0
C525 C 0.31451 0.24693 0.21252 0.0
C526 C 0.3068 0.21157 0.19441 0.0
C527 C 0.33726 0.20889 0.17718 0.0
C528 C 0.28195 0.25044 0.2306 0.0
C529 C 0.23228 0.25785 0.22255 0.0
C530 C 0.30001 0.24951 0.2556 0.0
C531 C 0.35168 0.23919 0.2652 0.0
C532 C 0.37395 0.19719 0.25822 0.0
C533 C 0.4227 0.18781 0.26721 0.0
C534 C 0.44951 0.22 0.28333 0.0
C535 C 0.42757 0.26157 0.29055 0.0
C536 C 0.37883 0.27115 0.28159 0.0
C537 C 0.11866 0.23582 0.29925 0.0
C538 C 0.12609 0.27123 0.31737 0.0
C539 C 0.14828 0.23401 0.28173 0.0
C540 C 0.18587 0.26759 0.28196 0.0
C541 C 0.19326 0.30322 0.29994 0.0
C542 C 0.16339 0.30522 0.31744 0.0
C543 C 0.21836 0.26429 0.26385 0.0
C544 C 0.26802 0.25689 0.27189 0.0
C545 C 0.20027 0.26513 0.23885 0.0
C546 C 0.14851 0.27508 0.22928 0.0
C547 C 0.12594 0.31689 0.23628 0.0
C548 C 0.0771 0.3259 0.22733 0.0
C549 C 0.05049 0.29354 0.21123 0.0
C550 C 0.07272 0.25215 0.204 0.0
C551 C 0.12155 0.24294 0.21292 0.0
H552 H 0.01268 0.30059 0.20432 0.0
H553 H 0.48725 0.21267 0.29027 0.0
H554 H 0.40908 0.19788 0.70036 0.0
H555 H 0.35614 0.1946 0.73051 0.0
H556 H 0.27785 0.31899 0.69827 0.0
H557 H 0.33153 0.32306 0.6682 0.0
H558 H 0.2938 0.32477 0.74669 0.0
H559 H 0.2321 0.20532 0.68763 0.0
H560 H 0.23701 0.13448 0.66164 0.0
H561 H 0.28237 0.04606 0.72395 0.0
H562 H 0.2784 0.11656 0.75031 0.0
H563 H 0.08883 0.30049 0.80303 0.0
H564 H 0.14171 0.30388 0.77285 0.0
H565 H 0.21964 0.17902 0.80479 0.0
H566 H 0.16599 0.17482 0.83487 0.0
H567 H 0.20386 0.17352 0.75651 0.0
H568 H 0.26567 0.29281 0.81558 0.0
H569 H 0.26092 0.36359 0.84163 0.0
H570 H 0.21558 0.45224 0.7794 0.0
H571 H 0.21939 0.3818 0.75298 0.0
C572 C 0.38074 0.22471 0.69974 0.0
C573 C 0.3742 0.26058 0.68184 0.0
C574 C 0.35038 0.22263 0.71692 0.0
C575 C 0.31251 0.256 0.71637 0.0
C576 C 0.30673 0.29274 0.69893 0.0
C577 C 0.33734 0.29501 0.68177 0.0
C578 C 0.27875 0.25214 0.73387 0.0
C579 C 0.2736 0.29195 0.74861 0.0
C580 C 0.25331 0.20887 0.73675 0.0
C581 C 0.25536 0.16633 0.72094 0.0
C582 C 0.24345 0.17085 0.69579 0.0
C583 C 0.24602 0.13074 0.68099 0.0
C584 C 0.2601 0.08582 0.69114 0.0
C585 C 0.27152 0.08089 0.71611 0.0
C586 C 0.26907 0.1209 0.73099 0.0
C587 C 0.11708 0.27359 0.80358 0.0
C588 C 0.12352 0.23754 0.82138 0.0
C589 C 0.14741 0.27572 0.78638 0.0
C590 C 0.18517 0.24225 0.78685 0.0
C591 C 0.19084 0.20534 0.80419 0.0
C592 C 0.16025 0.203 0.82136 0.0
C593 C 0.2189 0.24614 0.76933 0.0
C594 C 0.22405 0.20634 0.75458 0.0
C595 C 0.24436 0.28941 0.76645 0.0
C596 C 0.2424 0.33191 0.78231 0.0
C597 C 0.25436 0.32732 0.80745 0.0
C598 C 0.25188 0.36739 0.82229 0.0
C599 C 0.23785 0.41235 0.81218 0.0
C600 C 0.2264 0.41737 0.78721 0.0
C601 C 0.22875 0.3774 0.77229 0.0
H602 H 0.23595 0.44333 0.82369 0.0
H603 H 0.26208 0.05481 0.67965 0.0
H604 H 0.64952 0.68732 0.82852 0.0
H605 H 0.69769 0.68296 0.79635 0.0
H606 H 0.68954 0.8379 0.78833 0.0
H607 H 0.64094 0.84253 0.82062 0.0
H608 H 0.66636 0.79034 0.74513 0.0
H609 H 0.79414 0.78669 0.81317 0.0
H610 H 0.83763 0.75832 0.85238 0.0
H611 H 0.85047 0.61673 0.82298 0.0
H612 H 0.80642 0.64408 0.78366 0.0
H613 H 0.84495 0.81505 0.67023 0.0
H614 H 0.79637 0.8192 0.70225 0.0
H615 H 0.80425 0.66419 0.70999 0.0
H616 H 0.85317 0.65977 0.67782 0.0
H617 H 0.82747 0.71162 0.75328 0.0
H618 H 0.69986 0.71512 0.68529 0.0
H619 H 0.65627 0.74328 0.64606 0.0
H620 H 0.64301 0.88489 0.67534 0.0
H621 H 0.68716 0.85776 0.71469 0.0
C622 C 0.65844 0.72057 0.82011 0.0
C623 C 0.64151 0.7653 0.82709 0.0
C624 C 0.68608 0.71801 0.80177 0.0
C625 C 0.69738 0.76011 0.79002 0.0
C626 C 0.6812 0.80498 0.79719 0.0
C627 C 0.65373 0.80761 0.8157 0.0
C628 C 0.72429 0.75679 0.76959 0.0
C629 C 0.70194 0.77385 0.74698 0.0
C630 C 0.77004 0.73392 0.77189 0.0
C631 C 0.79654 0.71733 0.79552 0.0
C632 C 0.80585 0.74938 0.81511 0.0
C633 C 0.83068 0.73351 0.83735 0.0
C634 C 0.84669 0.68572 0.84019 0.0
C635 C 0.83799 0.65373 0.82077 0.0
C636 C 0.81313 0.66941 0.79849 0.0
C637 C 0.83588 0.78175 0.67854 0.0
C638 C 0.85283 0.73705 0.67153 0.0
C639 C 0.808 0.78419 0.6968 0.0
C640 C 0.79654 0.742 0.70843 0.0
C641 C 0.81271 0.69717 0.70121 0.0
C642 C 0.84039 0.69466 0.68278 0.0
C643 C 0.76955 0.7452 0.72884 0.0
C644 C 0.79189 0.72811 0.75143 0.0
C645 C 0.72379 0.76802 0.72653 0.0
C646 C 0.69726 0.78451 0.70288 0.0
C647 C 0.68804 0.75239 0.68331 0.0
C648 C 0.66315 0.76814 0.66106 0.0
C649 C 0.64699 0.81588 0.65819 0.0
C650 C 0.65561 0.84794 0.67759 0.0
C651 C 0.68053 0.83238 0.69987 0.0
H652 H 0.62771 0.828 0.64095 0.0
H653 H 0.86593 0.6735 0.85742 0.0
H654 H 0.83463 0.82829 0.17 0.0
H655 H 0.78158 0.82199 0.20023 0.0
H656 H 0.85736 0.69336 0.22885 0.0
H657 H 0.90959 0.69886 0.19842 0.0
H658 H 0.76282 0.67976 0.22355 0.0
H659 H 0.87377 0.80325 0.25828 0.0
H660 H 0.91834 0.88024 0.25894 0.0
H661 H 0.78392 0.95826 0.24606 0.0
H662 H 0.73852 0.88164 0.245 0.0
H663 H 0.66439 0.66486 0.33204 0.0
H664 H 0.71818 0.67117 0.30214 0.0
H665 H 0.64265 0.79961 0.27307 0.0
H666 H 0.58965 0.79407 0.30315 0.0
H667 H 0.7374 0.81319 0.27876 0.0
H668 H 0.62649 0.68971 0.24382 0.0
H669 H 0.5819 0.61271 0.24314 0.0
H670 H 0.71632 0.53473 0.25643 0.0
H671 H 0.76173 0.61135 0.2575 0.0
C672 C 0.84017 0.79894 0.18288 0.0
C673 C 0.8762 0.76408 0.18186 0.0
C674 C 0.80994 0.79541 0.20017 0.0
C675 C 0.8157 0.75734 0.21692 0.0
C676 C 0.85214 0.72293 0.21608 0.0
C677 C 0.88207 0.72624 0.19873 0.0
C678 C 0.78296 0.75239 0.23491 0.0
C679 C 0.75777 0.70872 0.23585 0.0
C680 C 0.7755 0.79053 0.25058 0.0
C681 C 0.80275 0.83666 0.25134 0.0
C682 C 0.85371 0.83679 0.25542 0.0
C683 C 0.87912 0.88037 0.25589 0.0
C684 C 0.85397 0.92411 0.25249 0.0
C685 C 0.80335 0.92435 0.24866 0.0
C686 C 0.77776 0.88086 0.24815 0.0
C687 C 0.65907 0.69417 0.31914 0.0
C688 C 0.62286 0.72895 0.31991 0.0
C689 C 0.68973 0.69771 0.30203 0.0
C690 C 0.68424 0.73573 0.28525 0.0
C691 C 0.64767 0.77008 0.28587 0.0
C692 C 0.61729 0.76675 0.30302 0.0
C693 C 0.71725 0.74058 0.26739 0.0
C694 C 0.74249 0.78423 0.26647 0.0
C695 C 0.72476 0.70242 0.25174 0.0
C696 C 0.6975 0.6563 0.25097 0.0
C697 C 0.64654 0.65617 0.24677 0.0
C698 C 0.62112 0.61259 0.24628 0.0
C699 C 0.64627 0.56887 0.2498 0.0
C700 C 0.69689 0.56863 0.25374 0.0
C701 C 0.72249 0.61211 0.25426 0.0
H702 H 0.62653 0.53517 0.24942 0.0
H703 H 0.8737 0.95781 0.25286 0.0
H704 H 0.44404 0.13211 0.56593 0.0
H705 H 0.39438 0.09746 0.52999 0.0
H706 H 0.26495 0.13103 0.55865 0.0
H707 H 0.31416 0.16545 0.59446 0.0
H708 H 0.25318 0.04989 0.52746 0.0
H709 H 0.31133 0.21694 0.53086 0.0
H710 H 0.37599 0.27855 0.53726 0.0
H711 H 0.44176 0.21483 0.48131 0.0
H712 H 0.37795 0.15224 0.47493 0.0
H713 H 0.07417 0.16043 0.44131 0.0
H714 H 0.13249 0.12463 0.47366 0.0
H715 H 0.23977 0.12099 0.42696 0.0
H716 H 0.18222 0.15936 0.39513 0.0
H717 H 0.27315 0.16886 0.46408 0.0
H718 H 0.19703 0.01492 0.45362 0.0
H719 H 0.12912 0.95703 0.44787 0.0
H720 H 0.09331 0.99723 0.51625 0.0
H721 H 0.16063 0.05582 0.52231 0.0
C722 C 0.40513 0.13026 0.56497 0.0
C723 C 0.38276 0.1524 0.58263 0.0
C724 C 0.37682 0.11038 0.54448 0.0
C725 C 0.32602 0.11251 0.54154 0.0
C726 C 0.30406 0.1291 0.56056 0.0
C727 C 0.33223 0.14917 0.58092 0.0
C728 C 0.29611 0.10848 0.51736 0.0
C729 C 0.25755 0.07542 0.51339 0.0
C730 C 0.30232 0.14162 0.49904 0.0
C731 C 0.34031 0.17958 0.50264 0.0
C732 C 0.3398 0.21588 0.52006 0.0
C733 C 0.37626 0.25097 0.52368 0.0
C734 C 0.41302 0.25052 0.50974 0.0
C735 C 0.41333 0.21504 0.49213 0.0
C736 C 0.37708 0.17972 0.48853 0.0
C737 C 0.10967 0.1504 0.43776 0.0
C738 C 0.12406 0.16299 0.41594 0.0
C739 C 0.14302 0.12965 0.45621 0.0
C740 C 0.19075 0.12002 0.45282 0.0
C741 C 0.20335 0.12831 0.4301 0.0
C742 C 0.17048 0.15014 0.41191 0.0
C743 C 0.2293 0.11027 0.47384 0.0
C744 C 0.26941 0.14156 0.47746 0.0
C745 C 0.22406 0.07568 0.49175 0.0
C746 C 0.18387 0.03996 0.48837 0.0
C747 C 0.17455 0.01162 0.46739 0.0
C748 C 0.13616 0.97863 0.46408 0.0
C749 C 0.10689 0.97349 0.48167 0.0
C750 C 0.11605 0.00122 0.50265 0.0
C751 C 0.15441 0.03424 0.50606 0.0
H752 H 0.07713 0.948 0.47905 0.0
H753 H 0.44117 0.27776 0.51252 0.0
H754 H 0.90663 0.78627 0.54369 0.0
H755 H 0.85437 0.83118 0.5123 0.0
H756 H 0.81576 0.92872 0.56565 0.0
H757 H 0.86996 0.88429 0.59729 0.0
H758 H 0.73751 0.87682 0.53822 0.0
H759 H 0.86047 0.98168 0.52313 0.0
H760 H 0.94269 0.00661 0.51815 0.0
H761 H 0.9343 0.91544 0.45601 0.0
H762 H 0.85236 0.88931 0.46079 0.0
H763 H 0.56718 0.86987 0.42967 0.0
H764 H 0.62053 0.91507 0.46118 0.0
H765 H 0.74366 0.83574 0.44488 0.0
H766 H 0.69135 0.79189 0.41348 0.0
H767 H 0.77069 0.92504 0.45791 0.0
H768 H 0.67347 0.79527 0.48776 0.0
H769 H 0.59546 0.75967 0.49363 0.0
H770 H 0.56015 0.88982 0.52835 0.0
H771 H 0.63784 0.92626 0.52245 0.0
C772 C 0.88832 0.81833 0.54859 0.0
C773 C 0.89211 0.83205 0.57273 0.0
C774 C 0.85871 0.84415 0.53067 0.0
C775 C 0.8315 0.88354 0.53664 0.0
C776 C 0.83699 0.89883 0.56069 0.0
C777 C 0.86785 0.87357 0.57867 0.0
C778 C 0.79168 0.90169 0.51816 0.0
C779 C 0.74433 0.88942 0.52088 0.0
C780 C 0.80077 0.91776 0.49556 0.0
C781 C 0.85 0.93364 0.4923 0.0
C782 C 0.87617 0.96678 0.50844 0.0
C783 C 0.92278 0.98113 0.50566 0.0
C784 C 0.94369 0.96266 0.48676 0.0
C785 C 0.918 0.92983 0.4706 0.0
C786 C 0.87138 0.91534 0.4733 0.0
C787 C 0.60581 0.86306 0.43253 0.0
C788 C 0.62506 0.8268 0.41946 0.0
C789 C 0.63621 0.88885 0.4505 0.0
C790 C 0.68607 0.87842 0.45561 0.0
C791 C 0.70544 0.84467 0.44129 0.0
C792 C 0.67533 0.81916 0.42346 0.0
C793 C 0.71771 0.89627 0.47767 0.0
C794 C 0.76333 0.91535 0.47557 0.0
C795 C 0.70744 0.88548 0.50082 0.0
C796 C 0.66097 0.86364 0.5044 0.0
C797 C 0.64889 0.8163 0.49653 0.0
C798 C 0.6048 0.796 0.49987 0.0
C799 C 0.57279 0.82253 0.51128 0.0
C800 C 0.5849 0.86938 0.51945 0.0
C801 C 0.62892 0.88988 0.5161 0.0
H802 H 0.53868 0.80676 0.51386 0.0
H803 H 0.9798 0.97377 0.48466 0.0
H804 H 0.92922 0.62621 0.06977 0.0
H805 H 0.87561 0.58375 0.03732 0.0
H806 H 0.75282 0.66072 0.05564 0.0
H807 H 0.80537 0.7017 0.088 0.0
H808 H 0.72516 0.57343 0.04037 0.0
H809 H 0.8235 0.70551 0.01367 0.0
H810 H 0.90178 0.74178 0.00874 0.0
H811 H 0.93637 0.61526 0.97093 0.0
H812 H 0.85841 0.57814 0.97589 0.0
H813 H 0.59021 0.71732 0.95548 0.0
H814 H 0.64301 0.67236 0.9867 0.0
H815 H 0.68019 0.57456 0.93312 0.0
H816 H 0.62539 0.6189 0.90168 0.0
H817 H 0.7593 0.62794 0.96117 0.0
H818 H 0.63597 0.52099 0.97437 0.0
H819 H 0.55367 0.49541 0.97888 0.0
H820 H 0.56153 0.58348 0.04207 0.0
H821 H 0.64354 0.61023 0.03778 0.0
C822 C 0.8906 0.63299 0.06716 0.0
C823 C 0.87152 0.66785 0.08109 0.0
C824 C 0.86005 0.6088 0.04864 0.0
C825 C 0.81024 0.61953 0.04381 0.0
C826 C 0.79101 0.65163 0.05897 0.0
C827 C 0.82126 0.6755 0.07738 0.0
C828 C 0.77852 0.6038 0.02133 0.0
C829 C 0.73274 0.58455 0.02295 0.0
C830 C 0.789 0.61659 0.99845 0.0
C831 C 0.83562 0.63888 0.99541 0.0
C832 C 0.84797 0.68541 0.00442 0.0
C833 C 0.89222 0.70609 0.00162 0.0
C834 C 0.9241 0.68077 0.9896 0.0
C835 C 0.91171 0.63476 0.9803 0.0
C836 C 0.86754 0.61388 0.98311 0.0
C837 C 0.60838 0.68524 0.9505 0.0
C838 C 0.60391 0.67134 0.92634 0.0
C839 C 0.63831 0.65943 0.96831 0.0
C840 C 0.6652 0.61993 0.96221 0.0
C841 C 0.65922 0.60458 0.93816 0.0
C842 C 0.62801 0.62977 0.92031 0.0
C843 C 0.70486 0.60126 0.98061 0.0
C844 C 0.75228 0.61405 0.97825 0.0
C845 C 0.69546 0.58364 0.00287 0.0
C846 C 0.64613 0.56753 0.00575 0.0
C847 C 0.62011 0.53509 0.98918 0.0
C848 C 0.57347 0.52037 0.9917 0.0
C849 C 0.55241 0.53776 0.01077 0.0
C850 C 0.57795 0.56992 0.02735 0.0
C851 C 0.62459 0.58478 0.02491 0.0
H852 H 0.51629 0.52634 0.01268 0.0
H853 H 0.95834 0.69683 0.98744 0.0
H854 H 0.34166 0.3725 0.10402 0.0
H855 H 0.2836 0.41001 0.07207 0.0
H856 H 0.37705 0.37649 0.02085 0.0
H857 H 0.4364 0.34137 0.0531 0.0
H858 H 0.31964 0.45322 0.00547 0.0
H859 H 0.29963 0.29161 0.03574 0.0
H860 H 0.29247 0.23236 0.06764 0.0
H861 H 0.16647 0.30609 0.08322 0.0
H862 H 0.17344 0.36626 0.05163 0.0
H863 H 0.18654 0.32855 0.90802 0.0
H864 H 0.2381 0.36781 0.94163 0.0
H865 H 0.11211 0.40432 0.97261 0.0
H866 H 0.06003 0.36486 0.93875 0.0
H867 H 0.17531 0.34751 0.00142 0.0
H868 H 0.18617 0.49413 0.95944 0.0
H869 H 0.19666 0.54655 0.92537 0.0
H870 H 0.34181 0.49401 0.92849 0.0
H871 H 0.33202 0.44069 0.96234 0.0
C872 C 0.3507 0.37521 0.08613 0.0
C873 C 0.39292 0.35354 0.08081 0.0
C874 C 0.31754 0.39656 0.0679 0.0
C875 C 0.32531 0.39461 0.04397 0.0
C876 C 0.37017 0.37814 0.03916 0.0
C877 C 0.40404 0.35796 0.05757 0.0
C878 C 0.28393 0.39961 0.02389 0.0
C879 C 0.28788 0.43041 0.00454 0.0
C880 C 0.24215 0.37026 0.02288 0.0
C881 C 0.23741 0.33372 0.04158 0.0
C882 C 0.27056 0.29529 0.04607 0.0
C883 C 0.26655 0.26157 0.06408 0.0
C884 C 0.22912 0.26554 0.0775 0.0
C885 C 0.19552 0.30315 0.07286 0.0
C886 C 0.1995 0.33709 0.05492 0.0
C887 C 0.16967 0.34623 0.92162 0.0
C888 C 0.11942 0.34313 0.92101 0.0
C889 C 0.19916 0.36912 0.94072 0.0
C890 C 0.17897 0.38917 0.95961 0.0
C891 C 0.12836 0.38933 0.95812 0.0
C892 C 0.09868 0.36678 0.93881 0.0
C893 C 0.21119 0.40043 0.9826 0.0
C894 C 0.20589 0.37202 0.00256 0.0
C895 C 0.25201 0.4311 0.98379 0.0
C896 C 0.25826 0.46324 0.96344 0.0
C897 C 0.22024 0.49348 0.95277 0.0
C898 C 0.22608 0.52341 0.9335 0.0
C899 C 0.26986 0.52359 0.92476 0.0
C900 C 0.30792 0.49387 0.93529 0.0
C901 C 0.30228 0.46385 0.95457 0.0
H902 H 0.2743 0.54678 0.90983 0.0
H903 H 0.22607 0.23942 0.09144 0.0
loop_
_geom_bond_atom_site_label_1
_geom_bond_atom_site_label_2
_geom_bond_distance
_geom_bond_site_symmetry_2
_ccdc_geom_bond_type
In0 O1 2.294 1_455 S
In0 O2 2.326 1_455 S
In0 O6 2.266 . S
In0 O7 2.326 . S
In0 O8 2.266 . S
In0 O9 2.326 . S
In0 O11 2.294 . S
In0 O12 2.326 . S
O1 In0 2.294 1_655 S
O1 C10 1.240 . S
O2 In0 2.326 1_655 S
O2 C10 1.252 . S
C3 O6 1.252 . S
C3 O7 1.260 . S
C4 O11 1.240 . S
C4 O12 1.252 . S
C5 O8 1.252 . S
C5 O9 1.260 . S
O6 In0 2.266 . S
O6 C3 1.252 . S
O7 In0 2.326 . S
O7 C3 1.260 . S
O8 In0 2.266 . S
O8 C5 1.252 . S
O9 In0 2.326 . S
O9 C5 1.260 . S
C10 O1 1.240 . S
C10 O2 1.252 . S
O11 In0 2.294 . S
O11 C4 1.240 . S
O12 In0 2.326 . S
O12 C4 1.252 . S
In13 O14 2.294 . S
In13 O15 2.326 . S
In13 O19 2.266 . S
In13 O20 2.326 . S
In13 O21 2.266 . S
In13 O22 2.326 . S
In13 O24 2.294 . S
In13 O25 2.326 . S
O14 In13 2.294 . S
O14 C23 1.240 . S
O15 In13 2.326 . S
O15 C23 1.252 . S
C16 O19 1.252 . S
C16 O20 1.260 . S
C17 O24 1.240 . S
C17 O25 1.252 . S
C18 O21 1.252 . S
C18 O22 1.260 . S
O19 In13 2.266 . S
O19 C16 1.252 . S
O20 In13 2.326 . S
O20 C16 1.260 . S
O21 In13 2.266 . S
O21 C18 1.252 . S
O22 In13 2.326 . S
O22 C18 1.260 . S
C23 O14 1.240 . S
C23 O15 1.252 . S
O24 In13 2.294 . S
O24 C17 1.240 . S
O25 In13 2.326 . S
O25 C17 1.252 . S
In26 O27 2.294 . S
In26 O28 2.326 . S
In26 O32 2.266 . S
In26 O33 2.326 . S
In26 O34 2.266 . S
In26 O35 2.326 . S
In26 O37 2.294 1_655 S
In26 O38 2.326 1_655 S
O27 In26 2.294 . S
O27 C36 1.240 . S
O28 In26 2.326 . S
O28 C36 1.252 . S
C29 O32 1.252 . S
C29 O33 1.260 . S
C30 O37 1.240 . S
C30 O38 1.252 . S
C31 O34 1.252 . S
C31 O35 1.260 . S
O32 In26 2.266 . S
O32 C29 1.252 . S
O33 In26 2.326 . S
O33 C29 1.260 . S
O34 In26 2.266 . S
O34 C31 1.252 . S
O35 In26 2.326 . S
O35 C31 1.260 . S
C36 O27 1.240 . S
C36 O28 1.252 . S
O37 In26 2.294 1_455 S
O37 C30 1.240 . S
O38 In26 2.326 1_455 S
O38 C30 1.252 . S
In39 O40 2.294 . S
In39 O41 2.326 . S
In39 O45 2.266 . S
In39 O46 2.326 . S
In39 O47 2.266 . S
In39 O48 2.326 . S
In39 O50 2.294 . S
In39 O51 2.326 . S
O40 In39 2.294 . S
O40 C49 1.240 . S
O41 In39 2.326 . S
O41 C49 1.252 . S
C42 O45 1.252 . S
C42 O46 1.260 . S
C43 O50 1.240 . S
C43 O51 1.252 . S
C44 O47 1.252 . S
C44 O48 1.260 . S
O45 In39 2.266 . S
O45 C42 1.252 . S
O46 In39 2.326 . S
O46 C42 1.260 . S
O47 In39 2.266 . S
O47 C44 1.252 . S
O48 In39 2.326 . S
O48 C44 1.260 . S
C49 O40 1.240 . S
C49 O41 1.252 . S
O50 In39 2.294 . S
O50 C43 1.240 . S
O51 In39 2.326 . S
O51 C43 1.252 . S
In52 O53 2.294 . S
In52 O54 2.326 . S
In52 O58 2.266 . S
In52 O59 2.326 . S
In52 O60 2.266 . S
In52 O61 2.326 . S
In52 O63 2.294 . S
In52 O64 2.326 . S
O53 In52 2.294 . S
O53 C62 1.240 . S
O54 In52 2.326 . S
O54 C62 1.252 . S
C55 O58 1.252 . S
C55 O59 1.260 . S
C56 O63 1.240 . S
C56 O64 1.252 . S
C57 O60 1.252 . S
C57 O61 1.260 . S
O58 In52 2.266 . S
O58 C55 1.252 . S
O59 In52 2.326 . S
O59 C55 1.260 . S
O60 In52 2.266 . S
O60 C57 1.252 . S
O61 In52 2.326 . S
O61 C57 1.260 . S
C62 O53 1.240 . S
C62 O54 1.252 . S
O63 In52 2.294 . S
O63 C56 1.240 . S
O64 In52 2.326 . S
O64 C56 1.252 . S
In65 O66 2.294 1_655 S
In65 O67 2.326 1_655 S
In65 O71 2.266 . S
In65 O72 2.326 . S
In65 O73 2.266 . S
In65 O74 2.326 . S
In65 O76 2.294 . S
In65 O77 2.326 . S
O66 In65 2.294 1_455 S
O66 C75 1.240 . S
O67 In65 2.326 1_455 S
O67 C75 1.252 . S
C68 O71 1.252 . S
C68 O72 1.260 . S
C69 O76 1.240 . S
C69 O77 1.252 . S
C70 O73 1.252 . S
C70 O74 1.260 . S
O71 In65 2.266 . S
O71 C68 1.252 . S
O72 In65 2.326 . S
O72 C68 1.260 . S
O73 In65 2.266 . S
O73 C70 1.252 . S
O74 In65 2.326 . S
O74 C70 1.260 . S
C75 O66 1.240 . S
C75 O67 1.252 . S
O76 In65 2.294 . S
O76 C69 1.240 . S
O77 In65 2.326 . S
O77 C69 1.252 . S
In78 O79 2.294 . S
In78 O80 2.326 . S
In78 O84 2.266 . S
In78 O85 2.326 . S
In78 O86 2.266 . S
In78 O87 2.326 . S
In78 O89 2.294 . S
In78 O90 2.326 . S
O79 In78 2.294 . S
O79 C88 1.240 . S
O80 In78 2.326 . S
O80 C88 1.252 . S
C81 O84 1.252 . S
C81 O85 1.260 . S
C82 O89 1.240 . S
C82 O90 1.252 . S
C83 O86 1.252 . S
C83 O87 1.260 . S
O84 In78 2.266 . S
O84 C81 1.252 . S
O85 In78 2.326 . S
O85 C81 1.260 . S
O86 In78 2.266 . S
O86 C83 1.252 . S
O87 In78 2.326 . S
O87 C83 1.260 . S
C88 O79 1.240 . S
C88 O80 1.252 . S
O89 In78 2.294 . S
O89 C82 1.240 . S
O90 In78 2.326 . S
O90 C82 1.252 . S
In91 O92 2.294 . S
In91 O93 2.326 . S
In91 O97 2.266 . S
In91 O98 2.326 . S
In91 O99 2.266 . S
In91 O100 2.326 . S
In91 O102 2.294 1_455 S
In91 O103 2.326 1_455 S
O92 In91 2.294 . S
O92 C101 1.240 . S
O93 In91 2.326 . S
O93 C101 1.252 . S
C94 O97 1.252 . S
C94 O98 1.260 . S
C95 O102 1.240 . S
C95 O103 1.252 . S
C96 O99 1.252 . S
C96 O100 1.260 . S
O97 In91 2.266 . S
O97 C94 1.252 . S
O98 In91 2.326 . S
O98 C94 1.260 . S
O99 In91 2.266 . S
O99 C96 1.252 . S
O100 In91 2.326 . S
O100 C96 1.260 . S
C101 O92 1.240 . S
C101 O93 1.252 . S
O102 In91 2.294 1_655 S
O102 C95 1.240 . S
O103 In91 2.326 1_655 S
O103 C95 1.252 . S
H104 C122 0.951 . S
H105 C124 0.951 . S
H106 C126 0.950 . S
H107 C127 0.950 1_655 S
H108 C129 0.950 . S
H109 C132 0.950 . S
H110 C133 0.950 . S
H111 C135 0.950 . S
H112 C136 0.950 . S
H113 C137 0.951 . S
H114 C139 0.951 . S
H115 C141 0.950 . S
H116 C142 0.950 1_455 S
H117 C144 0.950 . S
H118 C147 0.950 . S
H119 C148 0.950 . S
H120 C150 0.950 . S
H121 C151 0.950 . S
C122 H104 0.951 . S
C122 C123 1.366 . S
C122 C124 1.388 . S
C123 C122 1.366 . S
C123 C127 1.388 . S
C124 H105 0.951 . S
C124 C122 1.388 . S
C124 C125 1.366 . S
C125 C124 1.366 . S
C125 C126 1.414 1_455 S
C125 C128 1.500 . S
C126 H106 0.950 . S
C126 C125 1.414 1_655 S
C126 C127 1.371 1_655 S
C127 H107 0.950 1_455 S
C127 C123 1.388 . S
C127 C126 1.371 1_455 S
C128 C125 1.500 . S
C128 C129 1.376 . S
C128 C130 1.386 1_455 S
C129 H108 0.950 . S
C129 C128 1.376 . S
C129 C145 1.377 . S
C130 C128 1.386 1_655 S
C130 C131 1.524 . S
C130 C144 1.377 . S
C131 C130 1.524 . S
C131 C132 1.397 . S
C131 C136 1.363 . S
C132 H109 0.950 . S
C132 C131 1.397 . S
C132 C133 1.334 . S
C133 H110 0.950 . S
C133 C132 1.334 . S
C133 C134 1.287 . S
C134 C133 1.287 . S
C134 C135 1.524 . S
C134 H153 0.913 . S
C135 H111 0.950 . S
C135 C134 1.524 . S
C135 C136 1.415 . S
C136 H112 0.950 . S
C136 C131 1.363 . S
C136 C135 1.415 . S
C137 H113 0.951 . S
C137 C138 1.366 . S
C137 C139 1.388 . S
C138 C137 1.366 . S
C138 C142 1.388 . S
C139 H114 0.951 . S
C139 C137 1.388 . S
C139 C140 1.366 . S
C140 C139 1.366 . S
C140 C141 1.414 1_655 S
C140 C143 1.500 . S
C141 H115 0.950 . S
C141 C140 1.414 1_455 S
C141 C142 1.371 1_455 S
C142 H116 0.950 1_655 S
C142 C138 1.388 . S
C142 C141 1.371 1_655 S
C143 C140 1.500 . S
C143 C144 1.376 . S
C143 C145 1.386 1_655 S
C144 H117 0.950 . S
C144 C130 1.377 . S
C144 C143 1.376 . S
C145 C129 1.377 . S
C145 C143 1.386 1_455 S
C145 C146 1.524 . S
C146 C145 1.524 . S
C146 C147 1.397 . S
C146 C151 1.363 . S
C147 H118 0.950 . S
C147 C146 1.397 . S
C147 C148 1.334 . S
C148 H119 0.950 . S
C148 C147 1.334 . S
C148 C149 1.287 . S
C149 C148 1.287 . S
C149 C150 1.524 . S
C149 H152 0.999 . S
C150 H120 0.950 . S
C150 C149 1.524 . S
C150 C151 1.415 . S
C151 H121 0.950 . S
C151 C146 1.363 . S
C151 C150 1.415 . S
H152 C149 0.999 . S
H153 C134 0.913 . S
H154 C172 0.951 . S
H155 C174 0.951 . S
H156 C176 0.950 . S
H157 C177 0.950 . S
H158 C179 0.950 . S
H159 C182 0.950 . S
H160 C183 0.950 . S
H161 C185 0.950 . S
H162 C186 0.950 . S
H163 C187 0.951 . S
H164 C189 0.951 . S
H165 C191 0.950 . S
H166 C192 0.950 . S
H167 C194 0.950 . S
H168 C197 0.950 . S
H169 C198 0.950 . S
H170 C200 0.950 . S
H171 C201 0.950 . S
C172 H154 0.951 . S
C172 C173 1.366 . S
C172 C174 1.388 . S
C173 C172 1.366 . S
C173 C177 1.385 . S
C174 H155 0.951 . S
C174 C172 1.388 . S
C174 C175 1.366 . S
C175 C174 1.366 . S
C175 C176 1.414 . S
C175 C178 1.499 . S
C176 H156 0.950 . S
C176 C175 1.414 . S
C176 C177 1.374 . S
C177 H157 0.950 . S
C177 C173 1.385 . S
C177 C176 1.374 . S
C178 C175 1.499 . S
C178 C179 1.373 . S
C178 C180 1.389 . S
C179 H158 0.950 . S
C179 C178 1.373 . S
C179 C195 1.377 . S
C180 C178 1.389 . S
C180 C181 1.524 . S
C180 C194 1.377 . S
C181 C180 1.524 . S
C181 C182 1.397 . S
C181 C186 1.363 . S
C182 H159 0.950 . S
C182 C181 1.397 . S
C182 C183 1.334 . S
C183 H160 0.950 . S
C183 C182 1.334 . S
C183 C184 1.287 . S
C184 C183 1.287 . S
C184 C185 1.524 . S
C184 H203 0.913 . S
C185 H161 0.950 . S
C185 C184 1.524 . S
C185 C186 1.415 . S
C186 H162 0.950 . S
C186 C181 1.363 . S
C186 C185 1.415 . S
C187 H163 0.951 . S
C187 C188 1.366 . S
C187 C189 1.388 . S
C188 C187 1.366 . S
C188 C192 1.385 . S
C189 H164 0.951 . S
C189 C187 1.388 . S
C189 C190 1.366 . S
C190 C189 1.366 . S
C190 C191 1.414 . S
C190 C193 1.499 . S
C191 H165 0.950 . S
C191 C190 1.414 . S
C191 C192 1.374 . S
C192 H166 0.950 . S
C192 C188 1.385 . S
C192 C191 1.374 . S
C193 C190 1.499 . S
C193 C194 1.373 . S
C193 C195 1.389 . S
C194 H167 0.950 . S
C194 C180 1.377 . S
C194 C193 1.373 . S
C195 C179 1.377 . S
C195 C193 1.389 . S
C195 C196 1.524 . S
C196 C195 1.524 . S
C196 C197 1.397 . S
C196 C201 1.363 . S
C197 H168 0.950 . S
C197 C196 1.397 . S
C197 C198 1.334 . S
C198 H169 0.950 . S
C198 C197 1.334 . S
C198 C199 1.287 . S
C199 C198 1.287 . S
C199 C200 1.524 . S
C199 H202 0.999 . S
C200 H170 0.950 . S
C200 C199 1.524 . S
C200 C201 1.415 . S
C201 H171 0.950 . S
C201 C196 1.363 . S
C201 C200 1.415 . S
H202 C199 0.999 . S
H203 C184 0.913 . S
H204 C222 0.951 . S
H205 C224 0.951 . S
H206 C226 0.950 . S
H207 C227 0.950 . S
H208 C229 0.950 . S
H209 C232 0.950 . S
H210 C233 0.950 . S
H211 C235 0.950 . S
H212 C236 0.950 . S
H213 C237 0.951 . S
H214 C239 0.951 . S
H215 C241 0.950 . S
H216 C242 0.950 . S
H217 C244 0.950 . S
H218 C247 0.950 . S
H219 C248 0.950 . S
H220 C250 0.950 . S
H221 C251 0.950 . S
C222 H204 0.951 . S
C222 C223 1.366 . S
C222 C224 1.388 . S
C223 C222 1.366 . S
C223 C227 1.385 . S
C224 H205 0.951 . S
C224 C222 1.388 . S
C224 C225 1.366 . S
C225 C224 1.366 . S
C225 C226 1.414 . S
C225 C228 1.499 . S
C226 H206 0.950 . S
C226 C225 1.414 . S
C226 C227 1.374 . S
C227 H207 0.950 . S
C227 C223 1.385 . S
C227 C226 1.374 . S
C228 C225 1.499 . S
C228 C229 1.373 1_554 S
C228 C230 1.389 1_545 S
C229 H208 0.950 . S
C229 C228 1.373 1_556 S
C229 C245 1.377 . S
C230 C228 1.389 1_565 S
C230 C231 1.524 . S
C230 C244 1.377 . S
C231 C230 1.524 . S
C231 C232 1.397 1_565 S
C231 C236 1.363 . S
C232 H209 0.950 . S
C232 C231 1.397 1_545 S
C232 C233 1.334 . S
C233 H210 0.950 . S
C233 C232 1.334 . S
C233 C234 1.287 1_545 S
C234 C233 1.287 1_565 S
C234 C235 1.524 . S
C234 H253 0.913 . S
C235 H211 0.950 . S
C235 C234 1.524 . S
C235 C236 1.415 . S
C236 H212 0.950 . S
C236 C231 1.363 . S
C236 C235 1.415 . S
C237 H213 0.951 . S
C237 C238 1.366 . S
C237 C239 1.388 . S
C238 C237 1.366 . S
C238 C242 1.385 . S
C239 H214 0.951 . S
C239 C237 1.388 . S
C239 C240 1.366 . S
C240 C239 1.366 . S
C240 C241 1.414 . S
C240 C243 1.499 . S
C241 H215 0.950 . S
C241 C240 1.414 . S
C241 C242 1.374 . S
C242 H216 0.950 . S
C242 C238 1.385 . S
C242 C241 1.374 . S
C243 C240 1.499 . S
C243 C244 1.373 1_556 S
C243 C245 1.389 1_565 S
C244 H217 0.950 . S
C244 C230 1.377 . S
C244 C243 1.373 1_554 S
C245 C229 1.377 . S
C245 C243 1.389 1_545 S
C245 C246 1.524 . S
C246 C245 1.524 . S
C246 C247 1.397 1_545 S
C246 C251 1.363 . S
C247 H218 0.950 . S
C247 C246 1.397 1_565 S
C247 C248 1.334 . S
C248 H219 0.950 . S
C248 C247 1.334 . S
C248 C249 1.287 1_565 S
C249 C248 1.287 1_545 S
C249 C250 1.524 . S
C249 H252 0.999 . S
C250 H220 0.950 . S
C250 C249 1.524 . S
C250 C251 1.415 . S
C251 H221 0.950 . S
C251 C246 1.363 . S
C251 C250 1.415 . S
H252 C249 0.999 . S
H253 C234 0.913 . S
H254 C272 0.951 . S
H255 C274 0.951 . S
H256 C276 0.950 . S
H257 C277 0.950 . S
H258 C279 0.950 . S
H259 C282 0.950 . S
H260 C283 0.950 . S
H261 C285 0.950 . S
H262 C286 0.950 1_556 S
H263 C287 0.951 . S
H264 C289 0.951 . S
H265 C291 0.950 . S
H266 C292 0.950 . S
H267 C294 0.950 . S
H268 C297 0.950 . S
H269 C298 0.950 . S
H270 C300 0.950 . S
H271 C301 0.950 1_554 S
C272 H254 0.951 . S
C272 C273 1.366 1_455 S
C272 C274 1.388 . S
C273 C272 1.366 1_655 S
C273 C277 1.385 . S
C274 H255 0.951 . S
C274 C272 1.388 . S
C274 C275 1.366 1_455 S
C275 C274 1.366 1_655 S
C275 C276 1.414 . S
C275 C278 1.499 . S
C276 H256 0.950 . S
C276 C275 1.414 . S
C276 C277 1.374 . S
C277 H257 0.950 . S
C277 C273 1.385 . S
C277 C276 1.374 . S
C278 C275 1.499 . S
C278 C279 1.373 . S
C278 C280 1.389 1_655 S
C279 H258 0.950 . S
C279 C278 1.373 . S
C279 C295 1.377 1_564 S
C280 C278 1.389 1_455 S
C280 C281 1.524 . S
C280 C294 1.377 1_564 S
C281 C280 1.524 . S
C281 C282 1.397 . S
C281 C286 1.363 . S
C282 H259 0.950 . S
C282 C281 1.397 . S
C282 C283 1.334 . S
C283 H260 0.950 . S
C283 C282 1.334 . S
C283 C284 1.287 . S
C284 C283 1.287 . S
C284 C285 1.524 . S
C284 H303 0.913 . S
C285 H261 0.950 . S
C285 C284 1.524 . S
C285 C286 1.415 . S
C286 H262 0.950 1_554 S
C286 C281 1.363 . S
C286 C285 1.415 . S
C287 H263 0.951 . S
C287 C288 1.366 1_655 S
C287 C289 1.388 . S
C288 C287 1.366 1_455 S
C288 C292 1.385 . S
C289 H264 0.951 . S
C289 C287 1.388 . S
C289 C290 1.366 1_655 S
C290 C289 1.366 1_455 S
C290 C291 1.414 . S
C290 C293 1.499 . S
C291 H265 0.950 . S
C291 C290 1.414 . S
C291 C292 1.374 . S
C292 H266 0.950 . S
C292 C288 1.385 . S
C292 C291 1.374 . S
C293 C290 1.499 . S
C293 C294 1.373 . S
C293 C295 1.389 1_455 S
C294 H267 0.950 . S
C294 C280 1.377 1_546 S
C294 C293 1.373 . S
C295 C279 1.377 1_546 S
C295 C293 1.389 1_655 S
C295 C296 1.524 . S
C296 C295 1.524 . S
C296 C297 1.397 . S
C296 C301 1.363 . S
C297 H268 0.950 . S
C297 C296 1.397 . S
C297 C298 1.334 . S
C298 H269 0.950 . S
C298 C297 1.334 . S
C298 C299 1.287 . S
C299 C298 1.287 . S
C299 C300 1.524 . S
C299 H302 0.999 . S
C300 H270 0.950 . S
C300 C299 1.524 . S
C300 C301 1.415 . S
C301 H271 0.950 1_556 S
C301 C296 1.363 . S
C301 C300 1.415 . S
H302 C299 0.999 . S
H303 C284 0.913 . S
H304 C322 0.951 . S
H305 C324 0.951 . S
H306 C326 0.950 . S
H307 C327 0.950 . S
H308 C329 0.950 . S
H309 C332 0.950 . S
H310 C333 0.950 . S
H311 C335 0.950 . S
H312 C336 0.950 . S
H313 C337 0.951 . S
H314 C339 0.951 . S
H315 C341 0.950 . S
H316 C342 0.950 . S
H317 C344 0.950 . S
H318 C347 0.950 . S
H319 C348 0.950 . S
H320 C350 0.950 . S
H321 C351 0.950 . S
C322 H304 0.951 . S
C322 C323 1.366 . S
C322 C324 1.388 . S
C323 C322 1.366 . S
C323 C327 1.385 . S
C324 H305 0.951 . S
C324 C322 1.388 . S
C324 C325 1.366 . S
C325 C324 1.366 . S
C325 C326 1.414 . S
C325 C328 1.499 . S
C326 H306 0.950 . S
C326 C325 1.414 . S
C326 C327 1.374 . S
C327 H307 0.950 . S
C327 C323 1.385 . S
C327 C326 1.374 . S
C328 C325 1.499 . S
C328 C329 1.373 . S
C328 C330 1.389 . S
C329 H308 0.950 . S
C329 C328 1.373 . S
C329 C345 1.377 . S
C330 C328 1.389 . S
C330 C331 1.524 . S
C330 C344 1.377 . S
C331 C330 1.524 . S
C331 C332 1.397 . S
C331 C336 1.363 . S
C332 H309 0.950 . S
C332 C331 1.397 . S
C332 C333 1.334 . S
C333 H310 0.950 . S
C333 C332 1.334 . S
C333 C334 1.287 . S
C334 C333 1.287 . S
C334 C335 1.524 . S
C334 H353 0.913 . S
C335 H311 0.950 . S
C335 C334 1.524 . S
C335 C336 1.415 . S
C336 H312 0.950 . S
C336 C331 1.363 . S
C336 C335 1.415 . S
C337 H313 0.951 . S
C337 C338 1.366 . S
C337 C339 1.388 . S
C338 C337 1.366 . S
C338 C342 1.385 . S
C339 H314 0.951 . S
C339 C337 1.388 . S
C339 C340 1.366 . S
C340 C339 1.366 . S
C340 C341 1.414 . S
C340 C343 1.499 . S
C341 H315 0.950 . S
C341 C340 1.414 . S
C341 C342 1.374 . S
C342 H316 0.950 . S
C342 C338 1.385 . S
C342 C341 1.374 . S
C343 C340 1.499 . S
C343 C344 1.373 . S
C343 C345 1.389 . S
C344 H317 0.950 . S
C344 C330 1.377 . S
C344 C343 1.373 . S
C345 C329 1.377 . S
C345 C343 1.389 . S
C345 C346 1.524 . S
C346 C345 1.524 . S
C346 C347 1.397 . S
C346 C351 1.363 . S
C347 H318 0.950 . S
C347 C346 1.397 . S
C347 C348 1.334 . S
C348 H319 0.950 . S
C348 C347 1.334 . S
C348 C349 1.287 . S
C349 C348 1.287 . S
C349 C350 1.524 . S
C349 H352 0.999 . S
C350 H320 0.950 . S
C350 C349 1.524 . S
C350 C351 1.415 . S
C351 H321 0.950 . S
C351 C346 1.363 . S
C351 C350 1.415 . S
H352 C349 0.999 . S
H353 C334 0.913 . S
H354 C372 0.951 . S
H355 C374 0.951 . S
H356 C376 0.950 . S
H357 C377 0.950 . S
H358 C379 0.950 . S
H359 C382 0.950 . S
H360 C383 0.950 . S
H361 C385 0.950 . S
H362 C386 0.950 . S
H363 C387 0.951 . S
H364 C389 0.951 . S
H365 C391 0.950 . S
H366 C392 0.950 . S
H367 C394 0.950 . S
H368 C397 0.950 . S
H369 C398 0.950 . S
H370 C400 0.950 . S
H371 C401 0.950 . S
C372 H354 0.951 . S
C372 C373 1.366 . S
C372 C374 1.388 . S
C373 C372 1.366 . S
C373 C377 1.385 . S
C374 H355 0.951 . S
C374 C372 1.388 . S
C374 C375 1.366 . S
C375 C374 1.366 . S
C375 C376 1.414 . S
C375 C378 1.499 . S
C376 H356 0.950 . S
C376 C375 1.414 . S
C376 C377 1.374 . S
C377 H357 0.950 . S
C377 C373 1.385 . S
C377 C376 1.374 . S
C378 C375 1.499 . S
C378 C379 1.373 . S
C378 C380 1.389 . S
C379 H358 0.950 . S
C379 C378 1.373 . S
C379 C395 1.377 . S
C380 C378 1.389 . S
C380 C381 1.524 . S
C380 C394 1.377 . S
C381 C380 1.524 . S
C381 C382 1.397 . S
C381 C386 1.363 . S
C382 H359 0.950 . S
C382 C381 1.397 . S
C382 C383 1.334 . S
C383 H360 0.950 . S
C383 C382 1.334 . S
C383 C384 1.287 . S
C384 C383 1.287 . S
C384 C385 1.524 . S
C384 H403 0.913 . S
C385 H361 0.950 . S
C385 C384 1.524 . S
C385 C386 1.415 . S
C386 H362 0.950 . S
C386 C381 1.363 . S
C386 C385 1.415 . S
C387 H363 0.951 . S
C387 C388 1.366 . S
C387 C389 1.388 . S
C388 C387 1.366 . S
C388 C392 1.385 . S
C389 H364 0.951 . S
C389 C387 1.388 . S
C389 C390 1.366 . S
C390 C389 1.366 . S
C390 C391 1.414 . S
C390 C393 1.499 . S
C391 H365 0.950 . S
C391 C390 1.414 . S
C391 C392 1.374 . S
C392 H366 0.950 . S
C392 C388 1.385 . S
C392 C391 1.374 . S
C393 C390 1.499 . S
C393 C394 1.373 . S
C393 C395 1.389 . S
C394 H367 0.950 . S
C394 C380 1.377 . S
C394 C393 1.373 . S
C395 C379 1.377 . S
C395 C393 1.389 . S
C395 C396 1.524 . S
C396 C395 1.524 . S
C396 C397 1.397 . S
C396 C401 1.363 . S
C397 H368 0.950 . S
C397 C396 1.397 . S
C397 C398 1.334 . S
C398 H369 0.950 . S
C398 C397 1.334 . S
C398 C399 1.287 . S
C399 C398 1.287 . S
C399 C400 1.524 . S
C399 H402 0.999 . S
C400 H370 0.950 . S
C400 C399 1.524 . S
C400 C401 1.415 . S
C401 H371 0.950 . S
C401 C396 1.363 . S
C401 C400 1.415 . S
H402 C399 0.999 . S
H403 C384 0.913 . S
H404 C422 0.951 . S
H405 C424 0.951 . S
H406 C426 0.950 . S
H407 C427 0.950 . S
H408 C429 0.950 . S
H409 C432 0.950 . S
H410 C433 0.950 . S
H411 C435 0.950 . S
H412 C436 0.950 . S
H413 C437 0.951 . S
H414 C439 0.951 . S
H415 C441 0.950 . S
H416 C442 0.950 . S
H417 C444 0.950 . S
H418 C447 0.950 . S
H419 C448 0.950 . S
H420 C450 0.950 . S
H421 C451 0.950 . S
C422 H404 0.951 . S
C422 C423 1.366 . S
C422 C424 1.388 . S
C423 C422 1.366 . S
C423 C427 1.385 . S
C424 H405 0.951 . S
C424 C422 1.388 . S
C424 C425 1.366 . S
C425 C424 1.366 . S
C425 C426 1.414 . S
C425 C428 1.499 . S
C426 H406 0.950 . S
C426 C425 1.414 . S
C426 C427 1.374 . S
C427 H407 0.950 . S
C427 C423 1.385 . S
C427 C426 1.374 . S
C428 C425 1.499 . S
C428 C429 1.373 . S
C428 C430 1.389 . S
C429 H408 0.950 . S
C429 C428 1.373 . S
C429 C445 1.377 . S
C430 C428 1.389 . S
C430 C431 1.524 . S
C430 C444 1.377 . S
C431 C430 1.524 . S
C431 C432 1.397 . S
C431 C436 1.363 . S
C432 H409 0.950 . S
C432 C431 1.397 . S
C432 C433 1.334 . S
C433 H410 0.950 . S
C433 C432 1.334 . S
C433 C434 1.287 . S
C434 C433 1.287 . S
C434 C435 1.524 . S
C434 H453 0.913 . S
C435 H411 0.950 . S
C435 C434 1.524 . S
C435 C436 1.415 . S
C436 H412 0.950 . S
C436 C431 1.363 . S
C436 C435 1.415 . S
C437 H413 0.951 . S
C437 C438 1.366 . S
C437 C439 1.388 . S
C438 C437 1.366 . S
C438 C442 1.385 . S
C439 H414 0.951 . S
C439 C437 1.388 . S
C439 C440 1.366 . S
C440 C439 1.366 . S
C440 C441 1.414 . S
C440 C443 1.499 . S
C441 H415 0.950 . S
C441 C440 1.414 . S
C441 C442 1.374 . S
C442 H416 0.950 . S
C442 C438 1.385 . S
C442 C441 1.374 . S
C443 C440 1.499 . S
C443 C444 1.373 . S
C443 C445 1.389 . S
C444 H417 0.950 . S
C444 C430 1.377 . S
C444 C443 1.373 . S
C445 C429 1.377 . S
C445 C443 1.389 . S
C445 C446 1.524 . S
C446 C445 1.524 . S
C446 C447 1.397 . S
C446 C451 1.363 . S
C447 H418 0.950 . S
C447 C446 1.397 . S
C447 C448 1.334 . S
C448 H419 0.950 . S
C448 C447 1.334 . S
C448 C449 1.287 . S
C449 C448 1.287 . S
C449 C450 1.524 . S
C449 H452 0.999 . S
C450 H420 0.950 . S
C450 C449 1.524 . S
C450 C451 1.415 . S
C451 H421 0.950 . S
C451 C446 1.363 . S
C451 C450 1.415 . S
H452 C449 0.999 . S
H453 C434 0.913 . S
H454 C472 0.951 . S
H455 C474 0.951 . S
H456 C476 0.950 . S
H457 C477 0.950 . S
H458 C479 0.950 . S
H459 C482 0.950 . S
H460 C483 0.950 . S
H461 C485 0.950 . S
H462 C486 0.950 . S
H463 C487 0.951 . S
H464 C489 0.951 . S
H465 C491 0.950 . S
H466 C492 0.950 . S
H467 C494 0.950 . S
H468 C497 0.950 . S
H469 C498 0.950 . S
H470 C500 0.950 . S
H471 C501 0.950 . S
C472 H454 0.951 . S
C472 C473 1.366 . S
C472 C474 1.388 . S
C473 C472 1.366 . S
C473 C477 1.385 . S
C474 H455 0.951 . S
C474 C472 1.388 . S
C474 C475 1.366 . S
C475 C474 1.366 . S
C475 C476 1.414 . S
C475 C478 1.499 . S
C476 H456 0.950 . S
C476 C475 1.414 . S
C476 C477 1.374 . S
C477 H457 0.950 . S
C477 C473 1.385 . S
C477 C476 1.374 . S
C478 C475 1.499 . S
C478 C479 1.373 . S
C478 C480 1.389 . S
C479 H458 0.950 . S
C479 C478 1.373 . S
C479 C495 1.377 . S
C480 C478 1.389 . S
C480 C481 1.524 . S
C480 C494 1.377 . S
C481 C480 1.524 . S
C481 C482 1.397 . S
C481 C486 1.363 . S
C482 H459 0.950 . S
C482 C481 1.397 . S
C482 C483 1.334 . S
C483 H460 0.950 . S
C483 C482 1.334 . S
C483 C484 1.287 . S
C484 C483 1.287 . S
C484 C485 1.524 . S
C484 H503 0.913 . S
C485 H461 0.950 . S
C485 C484 1.524 . S
C485 C486 1.415 . S
C486 H462 0.950 . S
C486 C481 1.363 . S
C486 C485 1.415 . S
C487 H463 0.951 . S
C487 C488 1.366 . S
C487 C489 1.388 . S
C488 C487 1.366 . S
C488 C492 1.385 . S
C489 H464 0.951 . S
C489 C487 1.388 . S
C489 C490 1.366 . S
C490 C489 1.366 . S
C490 C491 1.414 . S
C490 C493 1.499 . S
C491 H465 0.950 . S
C491 C490 1.414 . S
C491 C492 1.374 . S
C492 H466 0.950 . S
C492 C488 1.385 . S
C492 C491 1.374 . S
C493 C490 1.499 . S
C493 C494 1.373 . S
C493 C495 1.389 . S
C494 H467 0.950 . S
C494 C480 1.377 . S
C494 C493 1.373 . S
C495 C479 1.377 . S
C495 C493 1.389 . S
C495 C496 1.524 . S
C496 C495 1.524 . S
C496 C497 1.397 . S
C496 C501 1.363 . S
C497 H468 0.950 . S
C497 C496 1.397 . S
C497 C498 1.334 . S
C498 H469 0.950 . S
C498 C497 1.334 . S
C498 C499 1.287 . S
C499 C498 1.287 . S
C499 C500 1.524 . S
C499 H502 0.999 . S
C500 H470 0.950 . S
C500 C499 1.524 . S
C500 C501 1.415 . S
C501 H471 0.950 . S
C501 C496 1.363 . S
C501 C500 1.415 . S
H502 C499 0.999 . S
H503 C484 0.913 . S
H504 C522 0.951 . S
H505 C524 0.951 . S
H506 C526 0.950 . S
H507 C527 0.950 . S
H508 C529 0.950 . S
H509 C532 0.950 . S
H510 C533 0.950 . S
H511 C535 0.950 . S
H512 C536 0.950 . S
H513 C537 0.951 . S
H514 C539 0.951 . S
H515 C541 0.950 . S
H516 C542 0.950 . S
H517 C544 0.950 . S
H518 C547 0.950 . S
H519 C548 0.950 . S
H520 C550 0.950 . S
H521 C551 0.950 . S
C522 H504 0.951 . S
C522 C523 1.366 . S
C522 C524 1.388 . S
C523 C522 1.366 . S
C523 C527 1.385 . S
C524 H505 0.951 . S
C524 C522 1.388 . S
C524 C525 1.366 . S
C525 C524 1.366 . S
C525 C526 1.414 . S
C525 C528 1.499 . S
C526 H506 0.950 . S
C526 C525 1.414 . S
C526 C527 1.374 . S
C527 H507 0.950 . S
C527 C523 1.385 . S
C527 C526 1.374 . S
C528 C525 1.499 . S
C528 C529 1.373 . S
C528 C530 1.389 . S
C529 H508 0.950 . S
C529 C528 1.373 . S
C529 C545 1.377 . S
C530 C528 1.389 . S
C530 C531 1.524 . S
C530 C544 1.377 . S
C531 C530 1.524 . S
C531 C532 1.397 . S
C531 C536 1.363 . S
C532 H509 0.950 . S
C532 C531 1.397 . S
C532 C533 1.334 . S
C533 H510 0.950 . S
C533 C532 1.334 . S
C533 C534 1.287 . S
C534 C533 1.287 . S
C534 C535 1.524 . S
C534 H553 0.913 . S
C535 H511 0.950 . S
C535 C534 1.524 . S
C535 C536 1.415 . S
C536 H512 0.950 . S
C536 C531 1.363 . S
C536 C535 1.415 . S
C537 H513 0.951 . S
C537 C538 1.366 . S
C537 C539 1.388 . S
C538 C537 1.366 . S
C538 C542 1.385 . S
C539 H514 0.951 . S
C539 C537 1.388 . S
C539 C540 1.366 . S
C540 C539 1.366 . S
C540 C541 1.414 . S
C540 C543 1.499 . S
C541 H515 0.950 . S
C541 C540 1.414 . S
C541 C542 1.374 . S
C542 H516 0.950 . S
C542 C538 1.385 . S
C542 C541 1.374 . S
C543 C540 1.499 . S
C543 C544 1.373 . S
C543 C545 1.389 . S
C544 H517 0.950 . S
C544 C530 1.377 . S
C544 C543 1.373 . S
C545 C529 1.377 . S
C545 C543 1.389 . S
C545 C546 1.524 . S
C546 C545 1.524 . S
C546 C547 1.397 . S
C546 C551 1.363 . S
C547 H518 0.950 . S
C547 C546 1.397 . S
C547 C548 1.334 . S
C548 H519 0.950 . S
C548 C547 1.334 . S
C548 C549 1.287 . S
C549 C548 1.287 . S
C549 C550 1.524 . S
C549 H552 0.999 . S
C550 H520 0.950 . S
C550 C549 1.524 . S
C550 C551 1.415 . S
C551 H521 0.950 . S
C551 C546 1.363 . S
C551 C550 1.415 . S
H552 C549 0.999 . S
H553 C534 0.913 . S
H554 C572 0.951 . S
H555 C574 0.951 . S
H556 C576 0.950 . S
H557 C577 0.950 . S
H558 C579 0.950 . S
H559 C582 0.950 . S
H560 C583 0.950 . S
H561 C585 0.950 . S
H562 C586 0.950 . S
H563 C587 0.951 . S
H564 C589 0.951 . S
H565 C591 0.950 . S
H566 C592 0.950 . S
H567 C594 0.950 . S
H568 C597 0.950 . S
H569 C598 0.950 . S
H570 C600 0.950 . S
H571 C601 0.950 . S
C572 H554 0.951 . S
C572 C573 1.366 . S
C572 C574 1.388 . S
C573 C572 1.366 . S
C573 C577 1.385 . S
C574 H555 0.951 . S
C574 C572 1.388 . S
C574 C575 1.366 . S
C575 C574 1.366 . S
C575 C576 1.414 . S
C575 C578 1.499 . S
C576 H556 0.950 . S
C576 C575 1.414 . S
C576 C577 1.374 . S
C577 H557 0.950 . S
C577 C573 1.385 . S
C577 C576 1.374 . S
C578 C575 1.499 . S
C578 C579 1.373 . S
C578 C580 1.389 . S
C579 H558 0.950 . S
C579 C578 1.373 . S
C579 C595 1.377 . S
C580 C578 1.389 . S
C580 C581 1.524 . S
C580 C594 1.377 . S
C581 C580 1.524 . S
C581 C582 1.397 . S
C581 C586 1.363 . S
C582 H559 0.950 . S
C582 C581 1.397 . S
C582 C583 1.334 . S
C583 H560 0.950 . S
C583 C582 1.334 . S
C583 C584 1.287 . S
C584 C583 1.287 . S
C584 C585 1.524 . S
C584 H603 0.913 . S
C585 H561 0.950 . S
C585 C584 1.524 . S
C585 C586 1.415 . S
C586 H562 0.950 . S
C586 C581 1.363 . S
C586 C585 1.415 . S
C587 H563 0.951 . S
C587 C588 1.366 . S
C587 C589 1.388 . S
C588 C587 1.366 . S
C588 C592 1.385 . S
C589 H564 0.951 . S
C589 C587 1.388 . S
C589 C590 1.366 . S
C590 C589 1.366 . S
C590 C591 1.414 . S
C590 C593 1.499 . S
C591 H565 0.950 . S
C591 C590 1.414 . S
C591 C592 1.374 . S
C592 H566 0.950 . S
C592 C588 1.385 . S
C592 C591 1.374 . S
C593 C590 1.499 . S
C593 C594 1.373 . S
C593 C595 1.389 . S
C594 H567 0.950 . S
C594 C580 1.377 . S
C594 C593 1.373 . S
C595 C579 1.377 . S
C595 C593 1.389 . S
C595 C596 1.524 . S
C596 C595 1.524 . S
C596 C597 1.397 . S
C596 C601 1.363 . S
C597 H568 0.950 . S
C597 C596 1.397 . S
C597 C598 1.334 . S
C598 H569 0.950 . S
C598 C597 1.334 . S
C598 C599 1.287 . S
C599 C598 1.287 . S
C599 C600 1.524 . S
C599 H602 0.999 . S
C600 H570 0.950 . S
C600 C599 1.524 . S
C600 C601 1.415 . S
C601 H571 0.950 . S
C601 C596 1.363 . S
C601 C600 1.415 . S
H602 C599 0.999 . S
H603 C584 0.913 . S
H604 C622 0.951 . S
H605 C624 0.951 . S
H606 C626 0.950 . S
H607 C627 0.950 . S
H608 C629 0.950 . S
H609 C632 0.950 . S
H610 C633 0.950 . S
H611 C635 0.950 . S
H612 C636 0.950 . S
H613 C637 0.951 . S
H614 C639 0.951 . S
H615 C641 0.950 . S
H616 C642 0.950 . S
H617 C644 0.950 . S
H618 C647 0.950 . S
H619 C648 0.950 . S
H620 C650 0.950 . S
H621 C651 0.950 . S
C622 H604 0.951 . S
C622 C623 1.366 . S
C622 C624 1.388 . S
C623 C622 1.366 . S
C623 C627 1.385 . S
C624 H605 0.951 . S
C624 C622 1.388 . S
C624 C625 1.366 . S
C625 C624 1.366 . S
C625 C626 1.414 . S
C625 C628 1.499 . S
C626 H606 0.950 . S
C626 C625 1.414 . S
C626 C627 1.374 . S
C627 H607 0.950 . S
C627 C623 1.385 . S
C627 C626 1.374 . S
C628 C625 1.499 . S
C628 C629 1.373 . S
C628 C630 1.389 . S
C629 H608 0.950 . S
C629 C628 1.373 . S
C629 C645 1.377 . S
C630 C628 1.389 . S
C630 C631 1.524 . S
C630 C644 1.377 . S
C631 C630 1.524 . S
C631 C632 1.397 . S
C631 C636 1.363 . S
C632 H609 0.950 . S
C632 C631 1.397 . S
C632 C633 1.334 . S
C633 H610 0.950 . S
C633 C632 1.334 . S
C633 C634 1.287 . S
C634 C633 1.287 . S
C634 C635 1.524 . S
C634 H653 0.913 . S
C635 H611 0.950 . S
C635 C634 1.524 . S
C635 C636 1.415 . S
C636 H612 0.950 . S
C636 C631 1.363 . S
C636 C635 1.415 . S
C637 H613 0.951 . S
C637 C638 1.366 . S
C637 C639 1.388 . S
C638 C637 1.366 . S
C638 C642 1.385 . S
C639 H614 0.951 . S
C639 C637 1.388 . S
C639 C640 1.366 . S
C640 C639 1.366 . S
C640 C641 1.414 . S
C640 C643 1.499 . S
C641 H615 0.950 . S
C641 C640 1.414 . S
C641 C642 1.374 . S
C642 H616 0.950 . S
C642 C638 1.385 . S
C642 C641 1.374 . S
C643 C640 1.499 . S
C643 C644 1.373 . S
C643 C645 1.389 . S
C644 H617 0.950 . S
C644 C630 1.377 . S
C644 C643 1.373 . S
C645 C629 1.377 . S
C645 C643 1.389 . S
C645 C646 1.524 . S
C646 C645 1.524 . S
C646 C647 1.397 . S
C646 C651 1.363 . S
C647 H618 0.950 . S
C647 C646 1.397 . S
C647 C648 1.334 . S
C648 H619 0.950 . S
C648 C647 1.334 . S
C648 C649 1.287 . S
C649 C648 1.287 . S
C649 C650 1.524 . S
C649 H652 0.999 . S
C650 H620 0.950 . S
C650 C649 1.524 . S
C650 C651 1.415 . S
C651 H621 0.950 . S
C651 C646 1.363 . S
C651 C650 1.415 . S
H652 C649 0.999 . S
H653 C634 0.913 . S
H654 C672 0.951 . S
H655 C674 0.951 . S
H656 C676 0.950 . S
H657 C677 0.950 . S
H658 C679 0.950 . S
H659 C682 0.950 . S
H660 C683 0.950 . S
H661 C685 0.950 . S
H662 C686 0.950 . S
H663 C687 0.951 . S
H664 C689 0.951 . S
H665 C691 0.950 . S
H666 C692 0.950 . S
H667 C694 0.950 . S
H668 C697 0.950 . S
H669 C698 0.950 . S
H670 C700 0.950 . S
H671 C701 0.950 . S
C672 H654 0.951 . S
C672 C673 1.366 . S
C672 C674 1.388 . S
C673 C672 1.366 . S
C673 C677 1.385 . S
C674 H655 0.951 . S
C674 C672 1.388 . S
C674 C675 1.366 . S
C675 C674 1.366 . S
C675 C676 1.414 . S
C675 C678 1.499 . S
C676 H656 0.950 . S
C676 C675 1.414 . S
C676 C677 1.374 . S
C677 H657 0.950 . S
C677 C673 1.385 . S
C677 C676 1.374 . S
C678 C675 1.499 . S
C678 C679 1.373 . S
C678 C680 1.389 . S
C679 H658 0.950 . S
C679 C678 1.373 . S
C679 C695 1.377 . S
C680 C678 1.389 . S
C680 C681 1.524 . S
C680 C694 1.377 . S
C681 C680 1.524 . S
C681 C682 1.397 . S
C681 C686 1.363 . S
C682 H659 0.950 . S
C682 C681 1.397 . S
C682 C683 1.334 . S
C683 H660 0.950 . S
C683 C682 1.334 . S
C683 C684 1.287 . S
C684 C683 1.287 . S
C684 C685 1.524 . S
C684 H703 0.913 . S
C685 H661 0.950 . S
C685 C684 1.524 . S
C685 C686 1.415 . S
C686 H662 0.950 . S
C686 C681 1.363 . S
C686 C685 1.415 . S
C687 H663 0.951 . S
C687 C688 1.366 . S
C687 C689 1.388 . S
C688 C687 1.366 . S
C688 C692 1.385 . S
C689 H664 0.951 . S
C689 C687 1.388 . S
C689 C690 1.366 . S
C690 C689 1.366 . S
C690 C691 1.414 . S
C690 C693 1.499 . S
C691 H665 0.950 . S
C691 C690 1.414 . S
C691 C692 1.374 . S
C692 H666 0.950 . S
C692 C688 1.385 . S
C692 C691 1.374 . S
C693 C690 1.499 . S
C693 C694 1.373 . S
C693 C695 1.389 . S
C694 H667 0.950 . S
C694 C680 1.377 . S
C694 C693 1.373 . S
C695 C679 1.377 . S
C695 C693 1.389 . S
C695 C696 1.524 . S
C696 C695 1.524 . S
C696 C697 1.397 . S
C696 C701 1.363 . S
C697 H668 0.950 . S
C697 C696 1.397 . S
C697 C698 1.334 . S
C698 H669 0.950 . S
C698 C697 1.334 . S
C698 C699 1.287 . S
C699 C698 1.287 . S
C699 C700 1.524 . S
C699 H702 0.999 . S
C700 H670 0.950 . S
C700 C699 1.524 . S
C700 C701 1.415 . S
C701 H671 0.950 . S
C701 C696 1.363 . S
C701 C700 1.415 . S
H702 C699 0.999 . S
H703 C684 0.913 . S
H704 C722 0.951 . S
H705 C724 0.951 . S
H706 C726 0.950 . S
H707 C727 0.950 . S
H708 C729 0.950 . S
H709 C732 0.950 . S
H710 C733 0.950 . S
H711 C735 0.950 . S
H712 C736 0.950 . S
H713 C737 0.951 . S
H714 C739 0.951 . S
H715 C741 0.950 . S
H716 C742 0.950 . S
H717 C744 0.950 . S
H718 C747 0.950 . S
H719 C748 0.950 . S
H720 C750 0.950 . S
H721 C751 0.950 . S
C722 H704 0.951 . S
C722 C723 1.366 . S
C722 C724 1.388 . S
C723 C722 1.366 . S
C723 C727 1.385 . S
C724 H705 0.951 . S
C724 C722 1.388 . S
C724 C725 1.366 . S
C725 C724 1.366 . S
C725 C726 1.414 . S
C725 C728 1.499 . S
C726 H706 0.950 . S
C726 C725 1.414 . S
C726 C727 1.374 . S
C727 H707 0.950 . S
C727 C723 1.385 . S
C727 C726 1.374 . S
C728 C725 1.499 . S
C728 C729 1.373 . S
C728 C730 1.389 . S
C729 H708 0.950 . S
C729 C728 1.373 . S
C729 C745 1.377 . S
C730 C728 1.389 . S
C730 C731 1.524 . S
C730 C744 1.377 . S
C731 C730 1.524 . S
C731 C732 1.397 . S
C731 C736 1.363 . S
C732 H709 0.950 . S
C732 C731 1.397 . S
C732 C733 1.334 . S
C733 H710 0.950 . S
C733 C732 1.334 . S
C733 C734 1.287 . S
C734 C733 1.287 . S
C734 C735 1.524 . S
C734 H753 0.913 . S
C735 H711 0.950 . S
C735 C734 1.524 . S
C735 C736 1.415 . S
C736 H712 0.950 . S
C736 C731 1.363 . S
C736 C735 1.415 . S
C737 H713 0.951 . S
C737 C738 1.366 . S
C737 C739 1.388 . S
C738 C737 1.366 . S
C738 C742 1.385 . S
C739 H714 0.951 . S
C739 C737 1.388 . S
C739 C740 1.366 . S
C740 C739 1.366 . S
C740 C741 1.414 . S
C740 C743 1.499 . S
C741 H715 0.950 . S
C741 C740 1.414 . S
C741 C742 1.374 . S
C742 H716 0.950 . S
C742 C738 1.385 . S
C742 C741 1.374 . S
C743 C740 1.499 . S
C743 C744 1.373 . S
C743 C745 1.389 . S
C744 H717 0.950 . S
C744 C730 1.377 . S
C744 C743 1.373 . S
C745 C729 1.377 . S
C745 C743 1.389 . S
C745 C746 1.524 . S
C746 C745 1.524 . S
C746 C747 1.397 . S
C746 C751 1.363 . S
C747 H718 0.950 . S
C747 C746 1.397 . S
C747 C748 1.334 . S
C748 H719 0.950 . S
C748 C747 1.334 . S
C748 C749 1.287 . S
C749 C748 1.287 . S
C749 C750 1.524 . S
C749 H752 0.985 1_545 S
C750 H720 0.950 . S
C750 C749 1.524 . S
C750 C751 1.415 . S
C751 H721 0.950 . S
C751 C746 1.363 . S
C751 C750 1.415 . S
H752 C749 0.985 1_565 S
H753 C734 0.913 . S
H754 C772 0.951 . S
H755 C774 0.951 . S
H756 C776 0.950 . S
H757 C777 0.950 . S
H758 C779 0.950 . S
H759 C782 0.950 . S
H760 C783 0.950 . S
H761 C785 0.950 . S
H762 C786 0.950 . S
H763 C787 0.951 . S
H764 C789 0.951 . S
H765 C791 0.950 . S
H766 C792 0.950 . S
H767 C794 0.950 . S
H768 C797 0.950 . S
H769 C798 0.950 . S
H770 C800 0.950 . S
H771 C801 0.950 . S
C772 H754 0.951 . S
C772 C773 1.366 . S
C772 C774 1.388 . S
C773 C772 1.366 . S
C773 C777 1.385 . S
C774 H755 0.951 . S
C774 C772 1.388 . S
C774 C775 1.366 . S
C775 C774 1.366 . S
C775 C776 1.414 . S
C775 C778 1.499 . S
C776 H756 0.950 . S
C776 C775 1.414 . S
C776 C777 1.374 . S
C777 H757 0.950 . S
C777 C773 1.385 . S
C777 C776 1.374 . S
C778 C775 1.499 . S
C778 C779 1.373 . S
C778 C780 1.389 . S
C779 H758 0.950 . S
C779 C778 1.373 . S
C779 C795 1.377 . S
C780 C778 1.389 . S
C780 C781 1.524 . S
C780 C794 1.377 . S
C781 C780 1.524 . S
C781 C782 1.397 . S
C781 C786 1.363 . S
C782 H759 0.950 . S
C782 C781 1.397 . S
C782 C783 1.334 . S
C783 H760 0.950 . S
C783 C782 1.334 . S
C783 C784 1.287 . S
C784 C783 1.287 . S
C784 C785 1.524 . S
C784 H803 0.913 . S
C785 H761 0.950 . S
C785 C784 1.524 . S
C785 C786 1.415 . S
C786 H762 0.950 . S
C786 C781 1.363 . S
C786 C785 1.415 . S
C787 H763 0.951 . S
C787 C788 1.366 . S
C787 C789 1.388 . S
C788 C787 1.366 . S
C788 C792 1.385 . S
C789 H764 0.951 . S
C789 C787 1.388 . S
C789 C790 1.366 . S
C790 C789 1.366 . S
C790 C791 1.414 . S
C790 C793 1.499 . S
C791 H765 0.950 . S
C791 C790 1.414 . S
C791 C792 1.374 . S
C792 H766 0.950 . S
C792 C788 1.385 . S
C792 C791 1.374 . S
C793 C790 1.499 . S
C793 C794 1.373 . S
C793 C795 1.389 . S
C794 H767 0.950 . S
C794 C780 1.377 . S
C794 C793 1.373 . S
C795 C779 1.377 . S
C795 C793 1.389 . S
C795 C796 1.524 . S
C796 C795 1.524 . S
C796 C797 1.397 . S
C796 C801 1.363 . S
C797 H768 0.950 . S
C797 C796 1.397 . S
C797 C798 1.334 . S
C798 H769 0.950 . S
C798 C797 1.334 . S
C798 C799 1.287 . S
C799 C798 1.287 . S
C799 C800 1.524 . S
C799 H802 0.999 . S
C800 H770 0.950 . S
C800 C799 1.524 . S
C800 C801 1.415 . S
C801 H771 0.950 . S
C801 C796 1.363 . S
C801 C800 1.415 . S
H802 C799 0.999 . S
H803 C784 0.913 . S
H804 C822 0.951 . S
H805 C824 0.951 . S
H806 C826 0.950 . S
H807 C827 0.950 . S
H808 C829 0.950 . S
H809 C832 0.950 1_554 S
H810 C833 0.950 . S
H811 C835 0.950 . S
H812 C836 0.950 . S
H813 C837 0.951 . S
H814 C839 0.951 . S
H815 C841 0.950 . S
H816 C842 0.950 . S
H817 C844 0.950 . S
H818 C847 0.950 1_556 S
H819 C848 0.950 . S
H820 C850 0.950 . S
H821 C851 0.950 . S
C822 H804 0.951 . S
C822 C823 1.366 . S
C822 C824 1.388 . S
C823 C822 1.366 . S
C823 C827 1.385 . S
C824 H805 0.951 . S
C824 C822 1.388 . S
C824 C825 1.366 . S
C825 C824 1.366 . S
C825 C826 1.414 . S
C825 C828 1.499 . S
C826 H806 0.950 . S
C826 C825 1.414 . S
C826 C827 1.374 . S
C827 H807 0.950 . S
C827 C823 1.385 . S
C827 C826 1.374 . S
C828 C825 1.499 . S
C828 C829 1.373 . S
C828 C830 1.389 1_554 S
C829 H808 0.950 . S
C829 C828 1.373 . S
C829 C845 1.377 . S
C830 C828 1.389 1_556 S
C830 C831 1.524 . S
C830 C844 1.377 . S
C831 C830 1.524 . S
C831 C832 1.397 . S
C831 C836 1.363 . S
C832 H809 0.950 1_556 S
C832 C831 1.397 . S
C832 C833 1.334 . S
C833 H810 0.950 . S
C833 C832 1.334 . S
C833 C834 1.287 . S
C834 C833 1.287 . S
C834 C835 1.524 . S
C834 H853 0.913 . S
C835 H811 0.950 . S
C835 C834 1.524 . S
C835 C836 1.415 . S
C836 H812 0.950 . S
C836 C831 1.363 . S
C836 C835 1.415 . S
C837 H813 0.951 . S
C837 C838 1.366 . S
C837 C839 1.388 . S
C838 C837 1.366 . S
C838 C842 1.385 . S
C839 H814 0.951 . S
C839 C837 1.388 . S
C839 C840 1.366 . S
C840 C839 1.366 . S
C840 C841 1.414 . S
C840 C843 1.499 . S
C841 H815 0.950 . S
C841 C840 1.414 . S
C841 C842 1.374 . S
C842 H816 0.950 . S
C842 C838 1.385 . S
C842 C841 1.374 . S
C843 C840 1.499 . S
C843 C844 1.373 . S
C843 C845 1.389 1_556 S
C844 H817 0.950 . S
C844 C830 1.377 . S
C844 C843 1.373 . S
C845 C829 1.377 . S
C845 C843 1.389 1_554 S
C845 C846 1.524 . S
C846 C845 1.524 . S
C846 C847 1.397 . S
C846 C851 1.363 . S
C847 H818 0.950 1_554 S
C847 C846 1.397 . S
C847 C848 1.334 . S
C848 H819 0.950 . S
C848 C847 1.334 . S
C848 C849 1.287 . S
C849 C848 1.287 . S
C849 C850 1.524 . S
C849 H852 0.999 . S
C850 H820 0.950 . S
C850 C849 1.524 . S
C850 C851 1.415 . S
C851 H821 0.950 . S
C851 C846 1.363 . S
C851 C850 1.415 . S
H852 C849 0.999 . S
H853 C834 0.913 . S
H854 C872 0.951 . S
H855 C874 0.951 . S
H856 C876 0.950 . S
H857 C877 0.950 . S
H858 C879 0.950 . S
H859 C882 0.950 . S
H860 C883 0.950 . S
H861 C885 0.950 . S
H862 C886 0.950 . S
H863 C887 0.951 . S
H864 C889 0.951 . S
H865 C891 0.950 . S
H866 C892 0.950 . S
H867 C894 0.950 . S
H868 C897 0.950 . S
H869 C898 0.950 . S
H870 C900 0.950 . S
H871 C901 0.950 . S
C872 H854 0.951 . S
C872 C873 1.366 . S
C872 C874 1.388 . S
C873 C872 1.366 . S
C873 C877 1.385 . S
C874 H855 0.951 . S
C874 C872 1.388 . S
C874 C875 1.366 . S
C875 C874 1.366 . S
C875 C876 1.414 . S
C875 C878 1.499 . S
C876 H856 0.950 . S
C876 C875 1.414 . S
C876 C877 1.374 . S
C877 H857 0.950 . S
C877 C873 1.385 . S
C877 C876 1.374 . S
C878 C875 1.499 . S
C878 C879 1.373 . S
C878 C880 1.389 . S
C879 H858 0.950 . S
C879 C878 1.373 . S
C879 C895 1.377 1_554 S
C880 C878 1.389 . S
C880 C881 1.524 . S
C880 C894 1.377 1_554 S
C881 C880 1.524 . S
C881 C882 1.397 . S
C881 C886 1.363 . S
C882 H859 0.950 . S
C882 C881 1.397 . S
C882 C883 1.334 . S
C883 H860 0.950 . S
C883 C882 1.334 . S
C883 C884 1.287 . S
C884 C883 1.287 . S
C884 C885 1.524 . S
C884 H903 0.913 . S
C885 H861 0.950 . S
C885 C884 1.524 . S
C885 C886 1.415 . S
C886 H862 0.950 . S
C886 C881 1.363 . S
C886 C885 1.415 . S
C887 H863 0.951 . S
C887 C888 1.366 . S
C887 C889 1.388 . S
C888 C887 1.366 . S
C888 C892 1.385 . S
C889 H864 0.951 . S
C889 C887 1.388 . S
C889 C890 1.366 . S
C890 C889 1.366 . S
C890 C891 1.414 . S
C890 C893 1.499 . S
C891 H865 0.950 . S
C891 C890 1.414 . S
C891 C892 1.374 . S
C892 H866 0.950 . S
C892 C888 1.385 . S
C892 C891 1.374 . S
C893 C890 1.499 . S
C893 C894 1.373 . S
C893 C895 1.389 . S
C894 H867 0.950 . S
C894 C880 1.377 1_556 S
C894 C893 1.373 . S
C895 C879 1.377 1_556 S
C895 C893 1.389 . S
C895 C896 1.524 . S
C896 C895 1.524 . S
C896 C897 1.397 . S
C896 C901 1.363 . S
C897 H868 0.950 . S
C897 C896 1.397 . S
C897 C898 1.334 . S
C898 H869 0.950 . S
C898 C897 1.334 . S
C898 C899 1.287 . S
C899 C898 1.287 . S
C899 C900 1.524 . S
C899 H902 0.999 . S
C900 H870 0.950 . S
C900 C899 1.524 . S
C900 C901 1.415 . S
C901 H871 0.950 . S
C901 C896 1.363 . S
C901 C900 1.415 . S
H902 C899 0.999 . S
H903 C884 0.913 . S
C123 C5 1.543 . S
C138 C29 1.543 . S
C173 C44 1.543 . S
C188 C18 1.543 . S
C223 C81 1.543 . S
C238 C55 1.543 . S
C273 C70 1.543 . S
C288 C94 1.543 . S
C323 C82 1.756 . S
C338 C10 1.756 . S
C373 C23 1.756 . S
C388 C95 1.756 . S
C423 C30 1.755 . S
C438 C56 1.755 . S
C473 C49 1.756 . S
C488 C75 1.756 . S
C523 C88 1.585 . S
C538 C4 1.585 . S
C573 C17 1.585 . S
C588 C101 1.585 . S
C623 C62 1.585 . S
C638 C36 1.585 . S
C673 C69 1.585 . S
C688 C43 1.585 . S
C723 C16 0.349 . S
C738 C3 0.344 . S
C773 C31 0.345 . S
C788 C42 0.347 . S
C823 C68 0.346 . S
C838 C57 0.345 . S
C873 C83 0.349 . S
C888 C96 0.345 . S
