# Generated by pormake.
# Topology ske, (6)-cn, num edge types: 1
# Building blocks:
#     Node 0, Type 0, BuildingBlock: KUMBOL_clean_sbu_0, # of connection points: 6
#     Node 1, Type 0, BuildingBlock: KUMBOL_clean_sbu_0, # of connection points: 6
#     Node 2, Type 0, BuildingBlock: KUMBOL_clean_sbu_0, # of connection points: 6
#     Node 3, Type 0, BuildingBlock: KUMBOL_clean_sbu_0, # of connection points: 6
#     Node 4, Type 0, BuildingBlock: KUMBOL_clean_sbu_0, # of connection points: 6
#     Node 5, Type 0, BuildingBlock: KUMBOL_clean_sbu_0, # of connection points: 6
#     Node 6, Type 0, BuildingBlock: KUMBOL_clean_sbu_0, # of connection points: 6
#     Node 7, Type 0, BuildingBlock: KUMBOL_clean_sbu_0, # of connection points: 6
#     Edge 8, Type (0, 0), BuildingBlock: KIFKEQ_clean_linker_1, # of connection points: 2
#     Edge 9, Type (0, 0), BuildingBlock: KIFKEQ_clean_linker_1, # of connection points: 2
#     Edge 10, Type (0, 0), BuildingBlock: KIFKEQ_clean_linker_1, # of connection points: 2
#     Edge 11, Type (0, 0), BuildingBlock: KIFKEQ_clean_linker_1, # of connection points: 2
#     Edge 12, Type (0, 0), BuildingBlock: KIFKEQ_clean_linker_1, # of connection points: 2
#     Edge 13, Type (0, 0), BuildingBlock: KIFKEQ_clean_linker_1, # of connection points: 2
#     Edge 14, Type (0, 0), BuildingBlock: KIFKEQ_clean_linker_1, # of connection points: 2
#     Edge 15, Type (0, 0), BuildingBlock: KIFKEQ_clean_linker_1, # of connection points: 2
#     Edge 16, Type (0, 0), BuildingBlock: KIFKEQ_clean_linker_1, # of connection points: 2
#     Edge 17, Type (0, 0), BuildingBlock: KIFKEQ_clean_linker_1, # of connection points: 2
#     Edge 18, Type (0, 0), BuildingBlock: KIFKEQ_clean_linker_1, # of connection points: 2
#     Edge 19, Type (0, 0), BuildingBlock: KIFKEQ_clean_linker_1, # of connection points: 2
#     Edge 20, Type (0, 0), BuildingBlock: KIFKEQ_clean_linker_1, # of connection points: 2
#     Edge 21, Type (0, 0), BuildingBlock: KIFKEQ_clean_linker_1, # of connection points: 2
#     Edge 22, Type (0, 0), BuildingBlock: KIFKEQ_clean_linker_1, # of connection points: 2
#     Edge 23, Type (0, 0), BuildingBlock: KIFKEQ_clean_linker_1, # of connection points: 2
#     Edge 24, Type (0, 0), BuildingBlock: KIFKEQ_clean_linker_1, # of connection points: 2
#     Edge 25, Type (0, 0), BuildingBlock: KIFKEQ_clean_linker_1, # of connection points: 2
#     Edge 26, Type (0, 0), BuildingBlock: KIFKEQ_clean_linker_1, # of connection points: 2
#     Edge 27, Type (0, 0), BuildingBlock: KIFKEQ_clean_linker_1, # of connection points: 2
#     Edge 28, Type (0, 0), BuildingBlock: KIFKEQ_clean_linker_1, # of connection points: 2
#     Edge 29, Type (0, 0), BuildingBlock: KIFKEQ_clean_linker_1, # of connection points: 2
#     Edge 30, Type (0, 0), BuildingBlock: KIFKEQ_clean_linker_1, # of connection points: 2
#     Edge 31, Type (0, 0), BuildingBlock: KIFKEQ_clean_linker_1, # of connection points: 2
# Relax obj value: 0.115
# Max RMSD: 0.190
# Mean RMSD: 0.185
data_MOF--net-ske--node1-KUMBOL_clean_sbu_0--edge1-KIFKEQ_clean_linker_1
_symmetry_space_group_name_H-M    P1
_symmetry_Int_Tables_number       1
_symmetry_cell_setting            triclinic
loop_
_symmetry_equiv_pos_as_xyz
'x, y, z'
_cell_length_a     98.853645
_cell_length_b     30.949806
_cell_length_c     14.692985
_cell_angle_alpha  89.828258
_cell_angle_beta   90.284297
_cell_angle_gamma 115.54593
loop_
_atom_site_label
_atom_site_type_symbol
_atom_site_fract_x
_atom_site_fract_y
_atom_site_fract_z
_atom_type_partial_charge
Gd0 Gd 0.15549 0.27059 0.53927 0.0
Gd1 Gd 0.11475 0.20954 0.5727 0.0
C2 C 0.09228 0.15393 0.84599 0.0
C3 C 0.08157 0.06769 0.82458 0.0
C4 C 0.09563 0.1213 0.70258 0.0
C5 C 0.09821 0.16051 0.75717 0.0
C6 C 0.0871 0.07446 0.73525 0.0
C7 C 0.08415 0.10734 0.87982 0.0
C8 C 0.09448 0.19439 0.89759 0.0
C9 C 0.10213 0.23992 0.85966 0.0
N10 N 0.10615 0.2051 0.72267 0.0
C11 C 0.10776 0.24463 0.77122 0.0
H12 H 0.11365 0.28 0.74253 0.0
C13 C 0.09767 0.09151 0.55756 0.0
N14 N 0.1011 0.12901 0.6165 0.0
C15 C 0.08933 0.04444 0.58711 0.0
C16 C 0.08414 0.03583 0.67658 0.0
H17 H 0.10163 0.0979 0.48825 0.0
H18 H 0.07961 0.10159 0.9481 0.0
H19 H 0.15745 0.20127 0.36922 0.0
H20 H 0.09014 0.19084 0.96616 0.0
H21 H 0.10373 0.27141 0.89855 0.0
H22 H 0.07507 0.03197 0.85107 0.0
H23 H 0.17188 0.38088 0.62777 0.0
H24 H 0.17733 0.28993 0.13818 0.0
H25 H 0.16587 0.20982 0.21004 0.0
H26 H 0.19319 0.44865 0.25574 0.0
H27 H 0.08691 0.01484 0.54083 0.0
H28 H 0.07764 -0.00069 0.69919 0.0
H29 H 0.18724 0.37919 0.1554 0.0
H30 H 0.18675 0.46399 0.57598 0.0
N31 N 0.16357 0.27558 0.38729 0.0
C32 C 0.17362 0.28639 0.20822 0.0
C33 C 0.16721 0.24116 0.24865 0.0
C34 C 0.17576 0.32671 0.25998 0.0
C35 C 0.17067 0.32004 0.35075 0.0
C36 C 0.16244 0.23647 0.33916 0.0
N37 N 0.17 0.35075 0.49568 0.0
C38 C 0.17409 0.35899 0.40704 0.0
C39 C 0.18321 0.4348 0.52766 0.0
C40 C 0.18693 0.44404 0.43577 0.0
C41 C 0.17481 0.38764 0.55679 0.0
C42 C 0.18256 0.40586 0.37436 0.0
H43 H 0.19346 0.48058 0.4134 0.0
O44 O 0.17527 0.29341 0.62643 0.0
O45 O 0.1371 0.23792 0.64212 0.0
O46 O 0.12373 0.2906 0.5855 0.0
O47 O 0.14603 0.3228 0.50352 0.0
O48 O 0.15521 0.29885 0.68163 0.0
O49 O 0.16942 0.23212 0.53857 0.0
O50 O 0.09647 0.18953 0.47546 0.0
O51 O 0.1331 0.24335 0.47046 0.0
O52 O 0.14579 0.18997 0.51928 0.0
O53 O 0.1247 0.15882 0.61128 0.0
O54 O 0.11517 0.18167 0.43001 0.0
O55 O 0.09807 0.23801 0.58503 0.0
C56 C 0.14253 0.26639 0.70874 0.0
C57 C 0.18683 0.41289 0.28247 0.0
C58 C 0.18342 0.37335 0.22531 0.0
C59 C 0.1793 0.2614 0.59511 0.0
C60 C 0.19518 0.27859 0.56837 0.0
C61 C 0.20046 0.30627 0.48946 0.0
C62 C 0.20507 0.26633 0.62017 0.0
C63 C 0.22003 0.28083 0.59174 0.0
C64 C 0.21525 0.32096 0.46148 0.0
C65 C 0.22496 0.30816 0.51182 0.0
C66 C 0.13431 0.32614 0.54007 0.0
C67 C 0.12778 0.21493 0.40358 0.0
C68 C 0.08983 0.21176 0.51872 0.0
C69 C 0.07359 0.18371 0.53703 0.0
C70 C 0.06755 0.13369 0.54588 0.0
C71 C 0.06394 0.20647 0.54401 0.0
C72 C 0.04841 0.1793 0.55982 0.0
C73 C 0.05231 0.10679 0.56145 0.0
C74 C 0.0428 0.12921 0.568 0.0
C75 C 0.13565 0.15447 0.56691 0.0
H76 H 0.19317 0.31632 0.44909 0.0
H77 H 0.20106 0.24482 0.68113 0.0
H78 H 0.21918 0.34223 0.4003 0.0
H79 H 0.2364 0.3201 0.4888 0.0
H80 H 0.07452 0.11504 0.53949 0.0
H81 H 0.06854 0.24507 0.53766 0.0
H82 H 0.0478 0.06822 0.56749 0.0
H83 H 0.03095 0.107 0.57791 0.0
Gd84 Gd 0.86348 0.22478 0.56547 0.0
Gd85 Gd 0.90435 0.278 0.59524 0.0
C86 C 0.91552 0.25351 0.8891 0.0
C87 C 0.92317 0.33191 0.95686 0.0
C88 C 0.91553 0.31875 0.7973 0.0
C89 C 0.91282 0.27115 0.80532 0.0
C90 C 0.92108 0.34985 0.87282 0.0
C91 C 0.92045 0.28389 0.96489 0.0
C92 C 0.9132 0.20576 0.89453 0.0
C93 C 0.90853 0.17697 0.81748 0.0
N94 N 0.90763 0.24209 0.73154 0.0
C95 C 0.90595 0.19583 0.73625 0.0
H96 H 0.90302 0.17302 0.67771 0.0
C97 C 0.91892 0.38382 0.70171 0.0
N98 N 0.91355 0.33531 0.7149 0.0
C99 C 0.92414 0.41571 0.77461 0.0
C100 C 0.9249 0.39851 0.8611 0.0
H101 H 0.91978 0.39884 0.63453 0.0
H102 H 0.92234 0.27068 1.02985 0.0
H103 H 0.86678 0.32177 0.44224 0.0
H104 H 0.91514 0.19097 0.9575 0.0
H105 H 0.90702 0.14021 0.8203 0.0
H106 H 0.92723 0.35518 1.01556 0.0
H107 H 0.84329 0.10524 0.58045 0.0
H108 H 0.85116 0.27729 0.17262 0.0
H109 H 0.86214 0.34124 0.2877 0.0
H110 H 0.83223 0.10679 0.18592 0.0
H111 H 0.92795 0.45375 0.76343 0.0
H112 H 0.92917 0.42341 0.91733 0.0
H113 H 0.84034 0.18995 0.13477 0.0
H114 H 0.83031 0.03616 0.47887 0.0
N115 N 0.85925 0.24707 0.41715 0.0
C116 C 0.85325 0.26836 0.241 0.0
C117 C 0.85947 0.30451 0.30568 0.0
C118 C 0.84945 0.22096 0.26601 0.0
C119 C 0.8525 0.21126 0.35592 0.0
C120 C 0.86223 0.29315 0.39389 0.0
N121 N 0.84998 0.15669 0.47322 0.0
C122 C 0.84804 0.16461 0.38437 0.0
C123 C 0.8354 0.07204 0.45101 0.0
C124 C 0.83435 0.07946 0.35813 0.0
C125 C 0.84288 0.11129 0.50815 0.0
C126 C 0.84027 0.12624 0.32417 0.0
H127 H 0.82835 0.04906 0.3141 0.0
O128 O 0.84169 0.18611 0.6298 0.0
O129 O 0.88231 0.25639 0.66799 0.0
O130 O 0.89604 0.20137 0.54589 0.0
O131 O 0.87019 0.1639 0.5693 0.0
O132 O 0.864 0.19336 0.70359 0.0
O133 O 0.84904 0.26004 0.59277 0.0
O134 O 0.92639 0.32774 0.5486 0.0
O135 O 0.88558 0.24701 0.49304 0.0
O136 O 0.87239 0.30431 0.59129 0.0
O137 O 0.89833 0.33922 0.57339 0.0
O138 O 0.90457 0.30637 0.45286 0.0
O139 O 0.92173 0.25365 0.57006 0.0
C140 C 0.87665 0.22596 0.73193 0.0
C141 C 0.83799 0.13578 0.23336 0.0
C142 C 0.84253 0.18309 0.20438 0.0
C143 C 0.83801 0.22164 0.62377 0.0
C144 C 0.823 0.21082 0.58577 0.0
C145 C 0.81921 0.19193 0.49779 0.0
C146 C 0.8125 0.22062 0.63594 0.0
C147 C 0.79846 0.21234 0.5972 0.0
C148 C 0.80536 0.18338 0.45953 0.0
C149 C 0.79508 0.19366 0.50854 0.0
C150 C 0.88307 0.16273 0.55101 0.0
C151 C 0.89158 0.27504 0.42602 0.0
C152 C 0.93198 0.29659 0.55297 0.0
C153 C 0.94655 0.3119 0.60118 0.0
C154 C 0.95059 0.34653 0.67037 0.0
C155 C 0.95675 0.29315 0.57649 0.0
C156 C 0.97094 0.30974 0.6194 0.0
C157 C 0.96446 0.36244 0.71369 0.0
C158 C 0.9746 0.34443 0.6883 0.0
C159 C 0.88548 0.34192 0.58282 0.0
H160 H 0.82694 0.18388 0.45834 0.0
H161 H 0.81534 0.23545 0.70388 0.0
H162 H 0.80261 0.16881 0.39146 0.0
H163 H 0.78436 0.18647 0.47741 0.0
H164 H 0.94313 0.36188 0.6906 0.0
H165 H 0.95379 0.26658 0.52294 0.0
H166 H 0.96741 0.38909 0.76695 0.0
H167 H 0.98528 0.35728 0.72349 0.0
Gd168 Gd 0.11333 0.71294 0.46841 0.0
Gd169 Gd 0.15417 0.76298 0.49868 0.0
C170 C 0.1694 0.76942 0.79537 0.0
C171 C 0.183 0.85503 0.82067 0.0
C172 C 0.17154 0.82469 0.67325 0.0
C173 C 0.16619 0.7783 0.70529 0.0
C174 C 0.1805 0.8635 0.72959 0.0
C175 C 0.17746 0.80803 0.85351 0.0
C176 C 0.16458 0.72199 0.824 0.0
C177 C 0.15721 0.6849 0.76253 0.0
N178 N 0.15836 0.74178 0.64744 0.0
C179 C 0.15434 0.69548 0.67396 0.0
H180 H 0.14885 0.66626 0.62781 0.0
C181 C 0.17723 0.87537 0.5449 0.0
N182 N 0.1693 0.8315 0.58429 0.0
C183 C 0.18599 0.91511 0.5981 0.0
C184 C 0.18737 0.90934 0.69137 0.0
H185 H 0.17639 0.87984 0.47235 0.0
H186 H 0.1798 0.80188 0.92324 0.0
H187 H 0.11465 0.81651 0.37752 0.0
H188 H 0.16674 0.71368 0.89268 0.0
H189 H 0.15371 0.64806 0.78331 0.0
H190 H 0.18967 0.88443 0.86527 0.0
H191 H 0.09852 0.59109 0.43533 0.0
H192 H 0.10247 0.79317 0.09825 0.0
H193 H 0.11038 0.84625 0.23232 0.0
H194 H 0.09138 0.62893 0.05056 0.0
H195 H 0.19176 0.95005 0.56698 0.0
H196 H 0.19433 0.94005 0.73232 0.0
H197 H 0.09579 0.7127 1.03089 0.0
H198 H 0.09088 0.53474 0.30917 0.0
N199 N 0.11007 0.74639 0.32894 0.0
C200 C 0.10444 0.77958 0.16256 0.0
C201 C 0.10898 0.80968 0.23786 0.0
C202 C 0.10238 0.7322 0.17124 0.0
C203 C 0.1051 0.71613 0.25668 0.0
C204 C 0.11164 0.79244 0.32076 0.0
N205 N 0.1046 0.65369 0.35171 0.0
C206 C 0.10266 0.66888 0.26778 0.0
C207 C 0.09451 0.57253 0.29596 0.0
C208 C 0.0938 0.58836 0.20822 0.0
C209 C 0.09943 0.60541 0.36743 0.0
C210 C 0.09737 0.63666 0.19367 0.0
H211 H 0.08974 0.56265 0.15314 0.0
O212 O 0.09094 0.66391 0.51046 0.0
O213 O 0.13218 0.74331 0.56988 0.0
O214 O 0.14426 0.68316 0.47101 0.0
O215 O 0.11872 0.65156 0.50226 0.0
O216 O 0.11244 0.68878 0.61485 0.0
O217 O 0.09625 0.73877 0.49215 0.0
O218 O 0.17457 0.79485 0.41789 0.0
O219 O 0.13534 0.73299 0.39587 0.0
O220 O 0.12207 0.79122 0.50806 0.0
O221 O 0.14831 0.82577 0.50932 0.0
O222 O 0.15378 0.79649 0.36288 0.0
O223 O 0.16895 0.72759 0.48602 0.0
C224 C 0.1258 0.71821 0.63967 0.0
C225 C 0.09525 0.65308 0.10812 0.0
C226 C 0.09769 0.70069 0.09703 0.0
C227 C 0.08568 0.6959 0.50586 0.0
C228 C 0.07153 0.68225 0.45392 0.0
C229 C 0.06787 0.64894 0.38252 0.0
C230 C 0.06134 0.70128 0.47701 0.0
C231 C 0.04754 0.68642 0.43004 0.0
C232 C 0.05441 0.63484 0.33505 0.0
C233 C 0.04429 0.65324 0.35862 0.0
C234 C 0.1311 0.64694 0.48668 0.0
C235 C 0.14114 0.76425 0.33328 0.0
C236 C 0.17889 0.76166 0.4375 0.0
C237 C 0.19478 0.77793 0.46486 0.0
C238 C 0.2004 0.80665 0.54223 0.0
C239 C 0.20453 0.76524 0.41312 0.0
C240 C 0.21981 0.78235 0.4377 0.0
C241 C 0.21544 0.82343 0.56694 0.0
C242 C 0.22511 0.81166 0.51491 0.0
C243 C 0.13535 0.82866 0.51391 0.0
H244 H 0.07529 0.63319 0.36378 0.0
H245 H 0.06399 0.72667 0.53249 0.0
H246 H 0.05176 0.60926 0.28002 0.0
H247 H 0.03394 0.64178 0.32025 0.0
H248 H 0.19324 0.8163 0.58374 0.0
H249 H 0.20031 0.74288 0.35335 0.0
H250 H 0.21961 0.84569 0.62675 0.0
H251 H 0.23674 0.82494 0.53582 0.0
Gd252 Gd 0.90439 0.78004 0.48126 0.0
Gd253 Gd 0.86334 0.72481 0.50987 0.0
C254 C 0.84837 0.70272 0.80824 0.0
C255 C 0.83748 0.61619 0.8231 0.0
C256 C 0.84735 0.6541 0.67751 0.0
C257 C 0.85171 0.69863 0.71621 0.0
C258 C 0.83956 0.61229 0.72953 0.0
C259 C 0.84187 0.66143 0.86243 0.0
C260 C 0.85101 0.74787 0.84185 0.0
C261 C 0.85621 0.78711 0.78312 0.0
N262 N 0.85781 0.73768 0.66144 0.0
C263 C 0.85946 0.78133 0.69264 0.0
H264 H 0.8635 0.81235 0.64916 0.0
C265 C 0.84151 0.60925 0.54156 0.0
N266 N 0.84902 0.65181 0.58644 0.0
C267 C 0.83393 0.56668 0.59016 0.0
C268 C 0.83327 0.56806 0.68491 0.0
H269 H 0.84207 0.608 0.46815 0.0
H270 H 0.83955 0.66397 0.93373 0.0
H271 H 0.89812 0.68045 0.35551 0.0
H272 H 0.84858 0.75251 0.91201 0.0
H273 H 0.85789 0.82199 0.80769 0.0
H274 H 0.83179 0.58448 0.86454 0.0
H275 H 0.92518 0.89749 0.50272 0.0
H276 H 0.91864 0.72564 0.09674 0.0
H277 H 0.90409 0.66105 0.20457 0.0
H278 H 0.94235 0.89646 0.11881 0.0
H279 H 0.82859 0.53289 0.5545 0.0
H280 H 0.82723 0.53512 0.72241 0.0
H281 H 0.93262 0.81333 0.06485 0.0
H282 H 0.94126 0.9666 0.40754 0.0
N283 N 0.90913 0.75628 0.33639 0.0
C284 C 0.91617 0.73465 0.16389 0.0
C285 C 0.90797 0.69812 0.22457 0.0
C286 C 0.92124 0.78236 0.19098 0.0
C287 C 0.91761 0.79223 0.27903 0.0
C288 C 0.90465 0.70954 0.31106 0.0
N289 N 0.91961 0.84742 0.39453 0.0
C290 C 0.92288 0.83913 0.30869 0.0
C291 C 0.93598 0.93108 0.37831 0.0
C292 C 0.93847 0.92375 0.28749 0.0
C293 C 0.92677 0.8921 0.43166 0.0
C294 C 0.93219 0.87723 0.25214 0.0
H295 H 0.9457 0.95393 0.24632 0.0
O296 O 0.9225 0.8118 0.57867 0.0
O297 O 0.88553 0.7486 0.58236 0.0
O298 O 0.87281 0.80574 0.50626 0.0
O299 O 0.89752 0.83936 0.45384 0.0
O300 O 0.90323 0.81317 0.61655 0.0
O301 O 0.92234 0.75659 0.48831 0.0
O302 O 0.84229 0.69224 0.43405 0.0
O303 O 0.88219 0.75633 0.40938 0.0
O304 O 0.89629 0.70095 0.50745 0.0
O305 O 0.87019 0.66447 0.52032 0.0
O306 O 0.86362 0.69628 0.36834 0.0
O307 O 0.84934 0.76246 0.4916 0.0
C308 C 0.89086 0.77952 0.6458 0.0
C309 C 0.93537 0.86762 0.16351 0.0
C310 C 0.92989 0.82028 0.13294 0.0
C311 C 0.92991 0.78861 0.54921 0.0
C312 C 0.94628 0.81696 0.53459 0.0
C313 C 0.95285 0.86715 0.54282 0.0
C314 C 0.95563 0.79392 0.51796 0.0
C315 C 0.97131 0.82084 0.50841 0.0
C316 C 0.96823 0.89385 0.53192 0.0
C317 C 0.9774 0.87105 0.515 0.0
C318 C 0.88508 0.84243 0.47779 0.0
C319 C 0.87647 0.72831 0.34214 0.0
C320 C 0.83859 0.72702 0.45033 0.0
C321 C 0.82333 0.71348 0.4858 0.0
C322 C 0.81939 0.69237 0.57206 0.0
C323 C 0.81275 0.72309 0.43536 0.0
C324 C 0.79847 0.71244 0.47216 0.0
C325 C 0.80529 0.68141 0.60831 0.0
C326 C 0.79491 0.69153 0.55907 0.0
C327 C 0.88334 0.66307 0.51839 0.0
H328 H 0.94621 0.88605 0.55952 0.0
H329 H 0.95073 0.75521 0.51303 0.0
H330 H 0.97311 0.93245 0.53842 0.0
H331 H 0.98937 0.89284 0.50976 0.0
H332 H 0.82723 0.68462 0.61181 0.0
H333 H 0.81572 0.7397 0.36886 0.0
H334 H 0.80241 0.66517 0.67506 0.0
H335 H 0.784 0.68257 0.58863 0.0
Gd336 Gd 0.6536 0.7654 0.09191 0.0
Gd337 Gd 0.61258 0.70904 0.12425 0.0
C338 C 0.60057 0.72791 0.41842 0.0
C339 C 0.59048 0.64665 0.47649 0.0
C340 C 0.59919 0.66354 0.31965 0.0
C341 C 0.60314 0.71173 0.3331 0.0
C342 C 0.59248 0.63037 0.39087 0.0
C343 C 0.59448 0.6953 0.49016 0.0
C344 C 0.60418 0.77645 0.42942 0.0
C345 C 0.61018 0.80767 0.35664 0.0
N346 N 0.60944 0.74282 0.26324 0.0
C347 C 0.61274 0.79031 0.27399 0.0
H348 H 0.61739 0.81578 0.2201 0.0
C349 C 0.595 0.60065 0.21695 0.0
N350 N 0.60123 0.64869 0.23614 0.0
C351 C 0.58849 0.56658 0.28532 0.0
C352 C 0.58751 0.58154 0.37327 0.0
H353 H 0.59477 0.58831 0.1481 0.0
H354 H 0.59267 0.70729 0.55626 0.0
H355 H 0.65337 0.69026 0.9252 0.0
H356 H 0.60236 0.79016 0.4937 0.0
H357 H 0.61295 0.84534 0.36426 0.0
H358 H 0.58554 0.62175 0.53203 0.0
H359 H 0.67318 0.8761 0.17244 0.0
H360 H 0.67395 0.77269 0.68908 0.0
H361 H 0.66135 0.69434 0.76633 0.0
H362 H 0.69227 0.93448 0.7936 0.0
H363 H 0.58397 0.52878 0.26963 0.0
H364 H 0.58231 0.55506 0.42607 0.0
H365 H 0.685 0.86237 0.69898 0.0
H366 H 0.68893 0.95745 0.11404 0.0
N367 N 0.66086 0.76571 0.93882 0.0
C368 C 0.67044 0.7712 0.75922 0.0
C369 C 0.66337 0.72694 0.80266 0.0
C370 C 0.67332 0.81309 0.80778 0.0
C371 C 0.66847 0.80913 0.89892 0.0
C372 C 0.65884 0.72487 0.89324 0.0
N373 N 0.66893 0.84382 0.04136 0.0
C374 C 0.67248 0.84963 0.95171 0.0
C375 C 0.68427 0.92751 0.06748 0.0
C376 C 0.6871 0.93463 0.9743 0.0
C377 C 0.67539 0.88145 0.10033 0.0
C378 C 0.68155 0.89525 0.91546 0.0
H379 H 0.6941 0.97026 0.94913 0.0
O380 O 0.67261 0.78638 0.18517 0.0
O381 O 0.63489 0.7314 0.19391 0.0
O382 O 0.62021 0.78675 0.08053 0.0
O383 O 0.64639 0.82458 0.06861 0.0
O384 O 0.65306 0.79357 0.23305 0.0
O385 O 0.66845 0.72999 0.08832 0.0
O386 O 0.59168 0.66272 0.05845 0.0
O387 O 0.63116 0.73986 1.02243 0.0
O388 O 0.64465 0.68499 0.07765 0.0
O389 O 0.61968 0.64896 0.1245 0.0
O390 O 0.61242 0.67986 0.98265 0.0
O391 O 0.59477 0.73236 0.10663 0.0
C392 C 0.64049 0.7604 0.25991 0.0
C393 C 0.6855 0.89968 0.82306 0.0
C394 C 0.68139 0.85862 0.76926 0.0
C395 C 0.67757 0.75737 0.15015 0.0
C396 C 0.69374 0.7781 0.12816 0.0
C397 C 0.69962 0.81411 0.06213 0.0
C398 C 0.70342 0.76191 0.17241 0.0
C399 C 0.71888 0.78195 0.15076 0.0
C400 C 0.71482 0.83443 0.0412 0.0
C401 C 0.72439 0.81878 0.08528 0.0
C402 C 0.63308 0.82511 0.06713 0.0
C403 C 0.62529 0.71156 0.95562 0.0
C404 C 0.5854 0.69152 0.07228 0.0
C405 C 0.56985 0.66994 0.10812 0.0
C406 C 0.56375 0.62383 0.14672 0.0
C407 C 0.56066 0.6942 0.09894 0.0
C408 C 0.5455 0.67209 0.12644 0.0
C409 C 0.54891 0.60243 0.17587 0.0
C410 C 0.53981 0.62617 0.16546 0.0
C411 C 0.63217 0.64704 0.09835 0.0
H412 H 0.69252 0.82671 1.02663 0.0
H413 H 0.69887 0.7335 0.22244 0.0
H414 H 0.7192 0.86259 0.99069 0.0
H415 H 0.7362 0.83609 0.06861 0.0
H416 H 0.57029 0.60371 0.15304 0.0
H417 H 0.56514 0.72948 0.06812 0.0
H418 H 0.54437 0.56697 0.20567 0.0
H419 H 0.52829 0.60867 0.18837 0.0
Gd420 Gd 0.36298 0.72093 0.074 0.0
Gd421 Gd 0.40369 0.7736 0.10043 0.0
C422 C 0.41525 0.74759 0.39221 0.0
C423 C 0.42186 0.82454 0.46379 0.0
C424 C 0.41429 0.8126 0.30394 0.0
C425 C 0.41226 0.76548 0.30949 0.0
C426 C 0.41937 0.84277 0.38109 0.0
C427 C 0.41985 0.77712 0.46924 0.0
C428 C 0.41347 0.70034 0.39551 0.0
C429 C 0.40908 0.67231 0.31742 0.0
N430 N 0.40733 0.73702 0.23471 0.0
C431 C 0.40625 0.69139 0.23726 0.0
H432 H 0.40373 0.66945 0.17758 0.0
C433 C 0.41612 0.8778 0.21314 0.0
N434 N 0.41182 0.8295 0.22295 0.0
C435 C 0.42086 0.90861 0.28783 0.0
C436 C 0.42221 0.89085 0.37265 0.0
H437 H 0.4166 0.89403 0.1475 0.0
H438 H 0.42196 0.76368 0.53334 0.0
H439 H 0.36575 0.81687 0.94997 0.0
H440 H 0.41564 0.68538 0.45763 0.0
H441 H 0.40805 0.63604 0.31851 0.0
H442 H 0.42558 0.8471 0.52361 0.0
H443 H 0.3433 0.60107 0.09105 0.0
H444 H 0.34992 0.77111 0.68112 0.0
H445 H 0.36096 0.83563 0.79513 0.0
H446 H 0.33118 0.6007 0.69747 0.0
H447 H 0.42387 0.9464 0.27926 0.0
H448 H 0.42609 0.91499 0.43024 0.0
H449 H 0.33909 0.68355 0.64491 0.0
H450 H 0.33024 0.53156 0.99081 0.0
N451 N 0.35847 0.74228 0.92562 0.0
C452 C 0.35214 0.76257 0.74952 0.0
C453 C 0.35839 0.79904 0.81356 0.0
C454 C 0.34843 0.71532 0.77529 0.0
C455 C 0.35165 0.70614 0.86517 0.0
C456 C 0.36129 0.78815 0.90183 0.0
N457 N 0.3494 0.65225 0.98327 0.0
C458 C 0.34724 0.65966 0.89452 0.0
C459 C 0.33511 0.56735 0.96247 0.0
C460 C 0.33375 0.57433 0.86973 0.0
C461 C 0.34263 0.6069 1.01885 0.0
C462 C 0.33944 0.62094 0.83511 0.0
H463 H 0.32773 0.54367 0.8263 0.0
O464 O 0.34115 0.68231 0.13796 0.0
O465 O 0.38192 0.75315 0.17553 0.0
O466 O 0.39535 0.69684 0.05002 0.0
O467 O 0.36978 0.6601 0.08242 0.0
O468 O 0.36376 0.68942 0.2111 0.0
O469 O 0.34877 0.75671 0.1041 0.0
O470 O 0.42547 0.82554 0.05527 0.0
O471 O 0.38479 0.74166 0.99936 0.0
O472 O 0.37215 0.80091 0.0996 0.0
O473 O 0.39781 0.83443 0.07079 0.0
O474 O 0.40389 0.80005 0.9568 0.0
O475 O 0.42188 0.75244 0.07824 0.0
C476 C 0.37637 0.72236 0.23909 0.0
C477 C 0.33697 0.62996 0.74431 0.0
C478 C 0.34142 0.67709 0.7145 0.0
C479 C 0.33766 0.71827 0.13424 0.0
C480 C 0.32266 0.70841 0.09718 0.0
C481 C 0.31898 0.69216 1.00757 0.0
C482 C 0.31202 0.71597 0.15042 0.0
C483 C 0.2978 0.70746 0.11377 0.0
C484 C 0.3051 0.68405 0.97067 0.0
C485 C 0.29463 0.69183 1.02286 0.0
C486 C 0.38244 0.65835 0.06021 0.0
C487 C 0.39078 0.76897 0.93138 0.0
C488 C 0.43171 0.79623 0.06279 0.0
C489 C 0.446 0.81393 0.11482 0.0
C490 C 0.45005 0.85348 0.17328 0.0
C491 C 0.45592 0.79237 0.10462 0.0
C492 C 0.4698 0.81047 0.15184 0.0
C493 C 0.46367 0.87151 0.21973 0.0
C494 C 0.47351 0.85057 0.20876 0.0
C495 C 0.38518 0.83788 0.08449 0.0
H496 H 0.32686 0.68595 0.96576 0.0
H497 H 0.3148 0.72801 0.2201 0.0
H498 H 0.30248 0.67197 0.90097 0.0
H499 H 0.28409 0.68624 0.9911 0.0
H500 H 0.44282 0.87113 0.18238 0.0
H501 H 0.45278 0.76155 0.06045 0.0
H502 H 0.4667 0.90231 0.26374 0.0
H503 H 0.48418 0.8665 0.24408 0.0
Gd504 Gd 0.61211 0.21005 0.93143 0.0
Gd505 Gd 0.65315 0.26425 0.96518 0.0
C506 C 0.67208 0.3017 0.25406 0.0
C507 C 0.6847 0.38858 0.24878 0.0
C508 C 0.67184 0.34328 0.11469 0.0
C509 C 0.66751 0.301 0.16265 0.0
C510 C 0.68098 0.38744 0.15618 0.0
C511 C 0.68026 0.34574 0.29766 0.0
C512 C 0.66866 0.25811 0.29808 0.0
C513 C 0.6613 0.21537 0.25014 0.0
N514 N 0.65968 0.25906 0.11823 0.0
C515 C 0.65705 0.21651 0.15954 0.0
H516 H 0.65133 0.18305 0.12406 0.0
C517 C 0.67532 0.38017 0.97018 0.0
N518 N 0.66852 0.3407 1.02463 0.0
C519 C 0.68423 0.4249 1.00838 0.0
C520 C 0.68682 0.42874 0.10215 0.0
H521 H 0.67333 0.37727 0.89755 0.0
H522 H 0.68365 0.34698 0.36822 0.0
H523 H 0.61555 0.31697 0.84286 0.0
H524 H 0.67192 0.2571 0.36828 0.0
H525 H 0.65883 0.18147 0.28303 0.0
H526 H 0.69154 0.42221 0.28219 0.0
H527 H 0.59617 0.089 0.89496 0.0
H528 H 0.60233 0.29633 0.56519 0.0
H529 H 0.61142 0.34864 0.69977 0.0
H530 H 0.58877 0.13078 0.51272 0.0
H531 H 0.68912 0.45632 0.96545 0.0
H532 H 0.69387 0.46333 0.13146 0.0
H533 H 0.59433 0.21567 0.49579 0.0
H534 H 0.58754 0.03323 0.76752 0.0
N535 N 0.60941 0.24592 0.79333 0.0
C536 C 0.60416 0.28176 0.62875 0.0
C537 C 0.60934 0.31138 0.70437 0.0
C538 C 0.60135 0.23364 0.63603 0.0
C539 C 0.6039 0.21627 0.72054 0.0
C540 C 0.61184 0.29289 0.78626 0.0
N541 N 0.60271 0.15213 0.81294 0.0
C542 C 0.60084 0.16842 0.72999 0.0
C543 C 0.5916 0.07128 0.75533 0.0
C544 C 0.59089 0.08806 0.66839 0.0
C545 C 0.59705 0.10363 0.82739 0.0
C546 C 0.59504 0.13684 0.65531 0.0
H547 H 0.58643 0.06281 0.61283 0.0
O548 O 0.58965 0.16079 0.97325 0.0
O549 O 0.63076 0.23971 0.03377 0.0
O550 O 0.64404 0.18356 0.96873 0.0
O551 O 0.618 0.14815 0.95307 0.0
O552 O 0.61134 0.18303 0.076 0.0
O553 O 0.59515 0.2359 0.95782 0.0
O554 O 0.67253 0.28816 0.87531 0.0
O555 O 0.63441 0.2315 0.86194 0.0
O556 O 0.62005 0.28747 0.97748 0.0
O557 O 0.64627 0.32418 0.98683 0.0
O558 O 0.65267 0.29423 0.82553 0.0
O559 O 0.66799 0.22873 0.96584 0.0
C560 C 0.62455 0.21312 0.1022 0.0
C561 C 0.59303 0.15444 0.57074 0.0
C562 C 0.59612 0.20269 0.56122 0.0
C563 C 0.58449 0.19311 0.97071 0.0
C564 C 0.57035 0.18078 0.91919 0.0
C565 C 0.56669 0.14922 0.84491 0.0
C566 C 0.56044 0.20082 0.94321 0.0
C567 C 0.54722 0.19004 0.892 0.0
C568 C 0.5537 0.13859 0.79427 0.0
C569 C 0.54406 0.15889 0.81725 0.0
C570 C 0.63092 0.1458 0.96415 0.0
C571 C 0.64011 0.26135 0.79715 0.0
C572 C 0.67733 0.25794 0.90724 0.0
C573 C 0.69345 0.27756 0.93152 0.0
C574 C 0.69933 0.31268 0.99912 0.0
C575 C 0.70306 0.26111 0.88804 0.0
C576 C 0.71845 0.27996 0.91219 0.0
C577 C 0.71444 0.33178 1.02256 0.0
C578 C 0.72395 0.31584 0.97938 0.0
C579 C 0.63308 0.32544 0.98962 0.0
H580 H 0.57379 0.13237 0.82589 0.0
H581 H 0.56309 0.22512 1.00051 0.0
H582 H 0.55106 0.1143 0.73707 0.0
H583 H 0.53395 0.1496 0.77723 0.0
H584 H 0.6923 0.32558 0.03392 0.0
H585 H 0.69854 0.23344 0.83665 0.0
H586 H 0.71883 0.35926 0.07432 0.0
H587 H 0.73571 0.33223 0.99805 0.0
Gd588 Gd 0.40169 0.27299 0.97571 0.0
Gd589 Gd 0.36082 0.21517 1.00092 0.0
C590 C 0.33947 0.16235 0.27868 0.0
C591 C 0.32809 0.07594 0.25903 0.0
C592 C 0.34157 0.12834 0.13424 0.0
C593 C 0.34484 0.16798 0.1886 0.0
C594 C 0.33274 0.08193 0.16782 0.0
C595 C 0.33148 0.1161 0.31446 0.0
C596 C 0.34176 0.20332 0.32878 0.0
C597 C 0.34863 0.24825 0.28743 0.0
N598 N 0.35229 0.21209 0.15116 0.0
C599 C 0.35366 0.25194 0.19762 0.0
H600 H 0.35903 0.28692 0.16669 0.0
C601 C 0.34116 0.09815 0.98601 0.0
N602 N 0.34604 0.13553 0.04607 0.0
C603 C 0.33239 0.05142 1.01612 0.0
C604 C 0.32836 0.04316 0.10775 0.0
H605 H 0.34429 0.10422 0.91522 0.0
H606 H 0.32742 0.11106 0.38385 0.0
H607 H 0.40146 0.20046 0.80524 0.0
H608 H 0.33786 0.20056 0.39829 0.0
H609 H 0.35014 0.2801 0.32481 0.0
H610 H 0.32146 0.04052 0.28648 0.0
H611 H 0.41898 0.38316 0.06584 0.0
H612 H 0.42615 0.28736 0.58236 0.0
H613 H 0.41115 0.20743 0.64912 0.0
H614 H 0.44582 0.44647 0.70295 0.0
H615 H 0.3288 0.02181 0.96874 0.0
H616 H 0.32154 0.00695 0.13083 0.0
H617 H 0.43888 0.37656 0.60268 0.0
H618 H 0.43638 0.46455 1.01724 0.0
N619 N 0.41029 0.27579 0.82588 0.0
C620 C 0.42186 0.28454 0.65093 0.0
C621 C 0.41343 0.23937 0.68842 0.0
C622 C 0.42508 0.32548 0.70344 0.0
C623 C 0.41917 0.31986 0.79225 0.0
C624 C 0.40791 0.2356 0.77699 0.0
N625 N 0.41773 0.35224 0.935 0.0
C626 C 0.42303 0.35925 0.84854 0.0
C627 C 0.43264 0.43534 0.96892 0.0
C628 C 0.43757 0.44361 0.87893 0.0
C629 C 0.42277 0.38912 0.9962 0.0
C630 C 0.43295 0.40528 0.81776 0.0
H631 H 0.44521 0.47946 0.85798 0.0
O632 O 0.41684 0.27924 0.08756 0.0
O633 O 0.38273 0.24115 0.07446 0.0
O634 O 0.37043 0.29619 1.01475 0.0
O635 O 0.39388 0.33005 0.94446 0.0
O636 O 0.40059 0.30335 0.11458 0.0
O637 O 0.41938 0.24878 0.9609 0.0
O638 O 0.34229 0.19433 0.90467 0.0
O639 O 0.37972 0.24781 0.90114 0.0
O640 O 0.39188 0.1919 0.9608 0.0
O641 O 0.3696 0.16181 0.04215 0.0
O642 O 0.36181 0.18591 0.86136 0.0
O643 O 0.34573 0.24975 1.00317 0.0
C644 C 0.38778 0.27066 0.14007 0.0
C645 C 0.43831 0.41132 0.72806 0.0
C646 C 0.43436 0.37151 0.67097 0.0
C647 C 0.42519 0.26463 0.0405 0.0
C648 C 0.44164 0.29461 0.04512 0.0
C649 C 0.4473 0.34222 0.07583 0.0
C650 C 0.45183 0.27565 1.02117 0.0
C651 C 0.46748 0.30442 1.02624 0.0
C652 C 0.46269 0.37067 0.0806 0.0
C653 C 0.47271 0.35209 0.05592 0.0
C654 C 0.38184 0.33297 0.97755 0.0
C655 C 0.37445 0.21887 0.8348 0.0
C656 C 0.33704 0.22275 0.93917 0.0
C657 C 0.32072 0.2013 0.95687 0.0
C658 C 0.31431 0.16241 1.01657 0.0
C659 C 0.3114 0.21902 0.913 0.0
C660 C 0.29573 0.19759 0.92836 0.0
C661 C 0.29892 0.14095 0.03183 0.0
C662 C 0.28968 0.15807 0.98788 0.0
C663 C 0.38124 0.15727 1.00749 0.0
H664 H 0.43987 0.35751 0.09739 0.0
H665 H 0.44761 0.23888 0.99813 0.0
H666 H 0.46689 0.40725 0.10439 0.0
H667 H 0.48462 0.37487 0.06172 0.0
H668 H 0.32114 0.14822 0.05089 0.0
H669 H 0.31638 0.24948 0.86769 0.0
H670 H 0.2941 0.11057 0.07738 0.0
H671 H 0.27773 0.13964 0.99961 0.0
H672 H 0.22675 0.29323 0.77357 0.0
H673 H 0.23751 0.23979 0.52699 0.0
H674 H 0.2458 0.27803 0.85581 0.0
H675 H 0.25602 0.22227 0.6091 0.0
H676 H 0.29749 0.23279 0.75383 0.0
H677 H 0.2797 0.2553 0.67587 0.0
H678 H 0.2522 0.22046 0.9174 0.0
H679 H 0.27054 0.20189 0.9971 0.0
C680 C 0.23303 0.27743 0.73744 0.0
C681 C 0.23066 0.26775 0.64395 0.0
C682 C 0.24397 0.26858 0.78447 0.0
C683 C 0.25264 0.24907 0.73943 0.0
C684 C 0.24993 0.23843 0.64608 0.0
C685 C 0.23919 0.248 0.59896 0.0
C686 C 0.28783 0.23093 0.791 0.0
C687 C 0.28546 0.21491 0.88177 0.0
C688 C 0.27743 0.24308 0.74565 0.0
C689 C 0.26427 0.23912 0.78942 0.0
C690 C 0.26216 0.22443 0.88102 0.0
C691 C 0.27264 0.21295 0.9266 0.0
H692 H 0.74144 0.26606 0.99137 0.0
H693 H 0.71959 0.25695 0.73213 0.0
H694 H 0.76077 0.25055 0.91752 0.0
H695 H 0.73843 0.23796 0.6586 0.0
H696 H 0.78335 0.26259 0.53665 0.0
H697 H 0.76356 0.27529 0.61292 0.0
H698 H 0.76762 0.19591 0.84591 0.0
H699 H 0.78789 0.18502 0.7701 0.0
C700 C 0.74067 0.26036 0.91848 0.0
C701 C 0.72904 0.2637 0.86765 0.0
C702 C 0.75171 0.25073 0.87609 0.0
C703 C 0.75137 0.24341 0.78154 0.0
C704 C 0.73933 0.24449 0.73121 0.0
C705 C 0.72833 0.25463 0.77363 0.0
C706 C 0.78005 0.24809 0.60442 0.0
C707 C 0.78719 0.22286 0.64746 0.0
C708 C 0.76857 0.25493 0.64797 0.0
C709 C 0.76375 0.23621 0.73556 0.0
C710 C 0.77108 0.21143 0.77905 0.0
C711 C 0.78272 0.20513 0.73574 0.0
H712 H 0.2672 0.65512 0.11052 0.0
H713 H 0.30211 0.778 0.24024 0.0
H714 H 0.2483 0.67305 0.18364 0.0
H715 H 0.28314 0.79386 0.31937 0.0
H716 H 0.24698 0.84363 0.37032 0.0
H717 H 0.26557 0.82423 0.2953 0.0
H718 H 0.23569 0.67344 0.31624 0.0
H719 H 0.21686 0.69352 0.38764 0.0
C720 C 0.27089 0.68591 0.15511 0.0
C721 C 0.28629 0.71554 0.16788 0.0
C722 C 0.25997 0.69581 0.19843 0.0
C723 C 0.26406 0.73527 0.25725 0.0
C724 C 0.27947 0.76379 0.27301 0.0
C725 C 0.29042 0.7542 0.22869 0.0
C726 C 0.24437 0.80636 0.358 0.0
C727 C 0.23046 0.77009 0.3846 0.0
C728 C 0.2551 0.7951 0.31587 0.0
C729 C 0.25234 0.74712 0.30031 0.0
C730 C 0.23825 0.71084 0.32575 0.0
C731 C 0.22741 0.72223 0.36676 0.0
H732 H 0.71943 0.75592 0.32988 0.0
H733 H 0.74251 0.77129 0.07441 0.0
H734 H 0.73813 0.73633 0.40501 0.0
H735 H 0.76171 0.75533 0.15019 0.0
H736 H 0.78861 0.68833 0.29688 0.0
H737 H 0.76847 0.69977 0.21934 0.0
H738 H 0.76298 0.77304 0.45651 0.0
H739 H 0.78262 0.7596 0.53444 0.0
C740 C 0.72843 0.7549 0.28952 0.0
C741 C 0.7295 0.76583 0.19612 0.0
C742 C 0.73933 0.74441 0.33295 0.0
C743 C 0.75167 0.74489 0.28431 0.0
C744 C 0.75241 0.75423 0.19029 0.0
C745 C 0.74145 0.76415 0.14685 0.0
C746 C 0.78314 0.70717 0.33184 0.0
C747 C 0.78717 0.723 0.42165 0.0
C748 C 0.77157 0.71381 0.28753 0.0
C749 C 0.76391 0.73712 0.33155 0.0
C750 C 0.76826 0.75385 0.42088 0.0
C751 C 0.77965 0.7466 0.46543 0.0
H752 H 0.11202 0.8492 0.56258 0.0
H753 H 0.15908 0.91671 0.49449 0.0
H754 H 0.11223 0.92782 0.57892 0.0
H755 H 0.1595 0.99485 0.5158 0.0
H756 H 0.15086 0.12406 0.44851 0.0
H757 H 0.15068 0.04556 0.43954 0.0
H758 H 0.12121 -0.00102 0.67206 0.0
H759 H 0.12116 0.0777 0.67988 0.0
C760 C 0.12247 0.88071 0.55228 0.0
C761 C 0.1356 0.87644 0.52815 0.0
C762 C 0.12261 0.92584 0.56244 0.0
C763 C 0.13588 0.96776 0.54875 0.0
C764 C 0.14903 0.9634 0.52585 0.0
C765 C 0.14886 0.91838 0.5151 0.0
C766 C 0.1444 0.09726 0.49813 0.0
C767 C 0.13597 0.10713 0.56463 0.0
C768 C 0.14435 0.05218 0.49324 0.0
C769 C 0.13597 0.01587 0.55524 0.0
C770 C 0.12763 0.02588 0.62245 0.0
C771 C 0.12764 0.07105 0.62713 0.0
H772 H 0.8633 0.36636 0.63708 0.0
H773 H 0.90764 0.42549 0.5193 0.0
H774 H 0.86294 0.44442 0.62534 0.0
H775 H 0.90725 0.50338 0.50772 0.0
H776 H 0.86112 0.5742 0.48183 0.0
H777 H 0.86175 0.49713 0.50349 0.0
H778 H 0.90737 0.56902 0.60152 0.0
H779 H 0.90668 0.64626 0.58052 0.0
C780 C 0.873 0.39601 0.6091 0.0
C781 C 0.88556 0.38977 0.57996 0.0
C782 C 0.87276 0.44067 0.60206 0.0
C783 C 0.88506 0.48003 0.56562 0.0
C784 C 0.89769 0.47393 0.53746 0.0
C785 C 0.89792 0.42926 0.54431 0.0
C786 C 0.87116 0.57358 0.50984 0.0
C787 C 0.88373 0.61628 0.53098 0.0
C788 C 0.87155 0.52939 0.52187 0.0
C789 C 0.88458 0.52699 0.55476 0.0
C790 C 0.89721 0.56974 0.57534 0.0
C791 C 0.8968 0.61395 0.56344 0.0
H792 H 0.90864 0.93066 0.49773 0.0
H793 H 0.86071 0.86129 0.45735 0.0
H794 H 0.90788 0.00763 0.50806 0.0
H795 H 0.85989 0.93875 0.46623 0.0
H796 H 0.86251 0.07472 0.60671 0.0
H797 H 0.86277 -0.00245 0.57977 0.0
H798 H 0.90375 0.06755 0.42609 0.0
H799 H 0.90361 0.14486 0.45479 0.0
C800 C 0.898 0.93187 0.48859 0.0
C801 C 0.8848 0.88978 0.47602 0.0
C802 C 0.89753 0.97618 0.49475 0.0
C803 C 0.88382 0.97947 0.48808 0.0
C804 C 0.87062 0.93744 0.47315 0.0
C805 C 0.8711 0.89306 0.46762 0.0
C806 C 0.87146 0.07355 0.56624 0.0
C807 C 0.88301 0.1158 0.53267 0.0
C808 C 0.8716 0.02928 0.55055 0.0
C809 C 0.88327 0.02629 0.50061 0.0
C810 C 0.89471 0.06861 0.46596 0.0
C811 C 0.89462 0.11291 0.48222 0.0
H812 H 0.11737 0.57831 0.61357 0.0
H813 H 0.14328 0.60732 0.36714 0.0
H814 H 0.11772 0.50029 0.62582 0.0
H815 H 0.14263 0.52787 0.37368 0.0
H816 H 0.15376 0.40754 0.45435 0.0
H817 H 0.1527 0.48364 0.44362 0.0
H818 H 0.10959 0.42305 0.57809 0.0
H819 H 0.11161 0.34802 0.59776 0.0
C820 C 0.12288 0.5673 0.56102 0.0
C821 C 0.1304 0.59857 0.48986 0.0
C822 C 0.123 0.52241 0.56741 0.0
C823 C 0.13029 0.50727 0.50112 0.0
C824 C 0.1373 0.53838 0.42787 0.0
C825 C 0.13758 0.58383 0.42329 0.0
C826 C 0.14425 0.41067 0.48395 0.0
C827 C 0.13304 0.37193 0.52956 0.0
C828 C 0.14342 0.45435 0.47578 0.0
C829 C 0.13102 0.46016 0.50973 0.0
C830 C 0.11952 0.42075 0.5529 0.0
C831 C 0.1206 0.37736 0.56353 0.0
H832 H 0.60848 0.56221 0.05443 0.0
H833 H 0.65584 0.62427 0.11526 0.0
H834 H 0.60855 0.48441 0.0321 0.0
H835 H 0.65594 0.54629 0.09434 0.0
H836 H 0.6543 0.41462 0.94672 0.0
H837 H 0.65406 0.49136 0.97714 0.0
H838 H 0.61074 0.4187 0.10514 0.0
H839 H 0.61101 0.34159 0.0734 0.0
C840 C 0.61884 0.55901 0.06517 0.0
C841 C 0.6321 0.59932 0.08789 0.0
C842 C 0.6189 0.51433 0.05208 0.0
C843 C 0.63224 0.5088 0.06151 0.0
C844 C 0.64549 0.54919 0.08507 0.0
C845 C 0.64543 0.59392 0.09753 0.0
C846 C 0.64488 0.41501 0.98305 0.0
C847 C 0.63283 0.37204 1.00923 0.0
C848 C 0.6447 0.45913 1.00032 0.0
C849 C 0.63244 0.46151 0.0444 0.0
C850 C 0.62031 0.41836 0.07025 0.0
C851 C 0.62048 0.37413 0.05243 0.0
H852 H 0.37156 0.87697 0.19598 0.0
H853 H 0.39929 0.90581 0.95736 0.0
H854 H 0.37171 0.95563 0.18326 0.0
H855 H 0.39846 0.98273 0.93863 0.0
H856 H 0.40408 0.13455 0.95696 0.0
H857 H 0.406 0.05983 0.98219 0.0
H858 H 0.36228 0.00031 0.10925 0.0
H859 H 0.36131 0.07645 0.09324 0.0
C860 C 0.37757 0.90022 0.14023 0.0
C861 C 0.38546 0.88572 0.07791 0.0
C862 C 0.37755 0.94523 0.13202 0.0
C863 C 0.38499 0.97611 0.05921 0.0
C864 C 0.39287 0.961 0.99684 0.0
C865 C 0.39327 0.91665 1.00697 0.0
C866 C 0.39491 0.10551 0.99061 0.0
C867 C 0.38233 0.11131 1.02096 0.0
C868 C 0.39593 0.06222 1.00445 0.0
C869 C 0.38423 0.02312 0.04715 0.0
C870 C 0.37169 0.02929 0.07748 0.0
C871 C 0.37092 0.07297 0.06622 0.0
H872 H 0.35891 0.35313 0.03534 0.0
H873 H 0.40328 0.42026 0.91984 0.0
H874 H 0.35844 0.43037 0.04668 0.0
H875 H 0.40365 0.49827 0.94104 0.0
H876 H 0.39734 0.63406 0.92953 0.0
H877 H 0.39633 0.55535 0.89987 0.0
H878 H 0.36652 0.49817 0.12959 0.0
H879 H 0.36667 0.57603 0.15315 0.0
C880 C 0.36873 0.38447 1.01371 0.0
C881 C 0.38137 0.38035 0.97942 0.0
C882 C 0.36854 0.42921 1.02137 0.0
C883 C 0.38115 0.47146 0.99721 0.0
C884 C 0.39363 0.46704 0.96029 0.0
C885 C 0.3936 0.42207 0.9499 0.0
C886 C 0.39054 0.60438 0.97312 0.0
C887 C 0.38207 0.6109 0.04345 0.0
C888 C 0.39002 0.55915 0.95675 0.0
C889 C 0.38135 0.51964 1.0122 0.0
C890 C 0.37302 0.52686 0.08343 0.0
C891 C 0.3732 0.57171 0.09785 0.0
H892 H 0.60744 0.06117 1.01391 0.0
H893 H 0.65423 0.12203 0.93934 0.0
H894 H 0.60766 0.98329 0.03545 0.0
H895 H 0.65439 0.04423 0.95939 0.0
H896 H 0.65425 0.91476 0.10748 0.0
H897 H 0.6535 0.99093 0.07895 0.0
H898 H 0.60937 0.91678 0.95982 0.0
H899 H 0.6102 0.8401 0.98917 0.0
C900 C 0.61771 0.05782 1.00066 0.0
C901 C 0.6308 0.0979 0.97454 0.0
C902 C 0.61783 0.01308 1.01299 0.0
C903 C 0.63105 0.00733 0.99945 0.0
C904 C 0.64407 0.04737 0.97208 0.0
C905 C 0.64396 0.09206 0.96019 0.0
C906 C 0.64455 0.91465 0.07327 0.0
C907 C 0.63247 0.87138 0.04865 0.0
C908 C 0.64406 0.95846 0.05724 0.0
C909 C 0.63144 0.96026 1.0161 0.0
C910 C 0.61924 0.91683 0.99224 0.0
C911 C 0.61973 0.87287 1.00867 0.0
H912 H 0.12557 0.15034 0.2729 0.0
H913 H 0.13674 0.29984 0.30668 0.0
H914 H 0.12914 0.16134 0.11005 0.0
H915 H 0.13921 0.31126 0.14276 0.0
H916 H 0.1507 0.33257 0.84336 0.0
H917 H 0.14844 0.32185 1.00634 0.0
H918 H 0.12459 0.16849 0.96722 0.0
H919 H 0.12849 0.18013 0.80396 0.0
C920 C 0.1288 0.18584 0.24497 0.0
C921 C 0.13121 0.22434 0.30373 0.0
C922 C 0.13067 0.19232 0.15002 0.0
C923 C 0.13447 0.23742 0.10853 0.0
C924 C 0.13665 0.2759 0.16854 0.0
C925 C 0.13518 0.26954 0.26406 0.0
C926 C 0.1449 0.29647 0.86975 0.0
C927 C 0.13934 0.25741 0.80924 0.0
C928 C 0.14343 0.29007 0.96481 0.0
C929 C 0.13609 0.24408 1.00463 0.0
C930 C 0.13053 0.2048 0.943 0.0
C931 C 0.13242 0.21132 0.84762 0.0
H932 H 0.87911 0.18871 0.33128 0.0
H933 H 0.89856 0.34121 0.292 0.0
H934 H 0.87499 0.17668 0.16791 0.0
H935 H 0.896 0.3305 0.12898 0.0
H936 H 0.88285 0.30786 0.83196 0.0
H937 H 0.88526 0.31801 0.99608 0.0
H938 H 0.87918 0.17132 1.02389 0.0
H939 H 0.8755 0.16115 0.8607 0.0
C940 C 0.8824 0.21977 0.28747 0.0
C941 C 0.88843 0.26589 0.32572 0.0
C942 C 0.88034 0.21311 0.19223 0.0
C943 C 0.88485 0.25247 0.13096 0.0
C944 C 0.89164 0.29861 0.17057 0.0
C945 C 0.89331 0.30504 0.26545 0.0
C946 C 0.88214 0.27801 0.87361 0.0
C947 C 0.87948 0.23415 0.83247 0.0
C948 C 0.88361 0.28369 0.96907 0.0
C949 C 0.88274 0.24589 1.02751 0.0
C950 C 0.87982 0.20175 0.98489 0.0
C951 C 0.8779 0.19582 0.88984 0.0
H952 H 0.14272 0.83011 0.20539 0.0
H953 H 0.13529 0.68316 0.23144 0.0
H954 H 0.13943 0.82091 0.04136 0.0
H955 H 0.13318 0.67407 0.0667 0.0
H956 H 0.11791 0.6521 0.77352 0.0
H957 H 0.12096 0.66268 0.93656 0.0
H958 H 0.14518 0.81582 0.8973 0.0
H959 H 0.14069 0.80444 0.73344 0.0
C960 C 0.14039 0.79562 0.17559 0.0
C961 C 0.13864 0.75687 0.23232 0.0
C962 C 0.13869 0.79032 0.08031 0.0
C963 C 0.13581 0.74639 0.03709 0.0
C964 C 0.13481 0.70821 0.09472 0.0
C965 C 0.13611 0.71329 0.19032 0.0
C966 C 0.124 0.68809 0.79979 0.0
C967 C 0.12962 0.72719 0.73932 0.0
C968 C 0.12594 0.69434 0.89454 0.0
C969 C 0.13369 0.74021 0.93379 0.0
C970 C 0.13905 0.77966 0.87258 0.0
C971 C 0.13678 0.77328 0.77733 0.0
H972 H 0.883 0.69559 0.7447 0.0
H973 H 0.89429 0.84523 0.77778 0.0
H974 H 0.88093 0.68467 0.90908 0.0
H975 H 0.89116 0.83462 0.94134 0.0
H976 H 0.89185 0.81461 0.24835 0.0
H977 H 0.89616 0.8266 0.0849 0.0
H978 H 0.8702 0.67438 0.04277 0.0
H979 H 0.8674 0.66296 0.20564 0.0
C980 C 0.88472 0.72607 0.78723 0.0
C981 C 0.88838 0.77103 0.74704 0.0
C982 C 0.88345 0.71995 0.88288 0.0
C983 C 0.88561 0.75845 0.94268 0.0
C984 C 0.88952 0.80359 0.90112 0.0
C985 C 0.89116 0.80982 0.80589 0.0
C986 C 0.88747 0.78368 0.204 0.0
C987 C 0.87981 0.73759 0.24152 0.0
C988 C 0.88965 0.79047 0.10871 0.0
C989 C 0.8837 0.75157 0.0464 0.0
C990 C 0.87556 0.7057 0.08519 0.0
C991 C 0.87376 0.69897 0.18008 0.0
H992 H 0.63154 0.67592 0.3587 0.0
H993 H 0.64356 0.82605 0.39018 0.0
H994 H 0.62886 0.66511 0.52254 0.0
H995 H 0.63982 0.81588 0.55261 0.0
H996 H 0.63871 0.7975 0.85951 0.0
H997 H 0.64272 0.80884 0.6965 0.0
H998 H 0.6201 0.65503 0.65911 0.0
H999 H 0.61759 0.6449 0.82204 0.0
C1000 C 0.63325 0.70652 0.40081 0.0
C1001 C 0.63732 0.75159 0.36031 0.0
C1002 C 0.63165 0.70053 0.49637 0.0
C1003 C 0.63389 0.73934 0.55574 0.0
C1004 C 0.6381 0.78448 0.51349 0.0
C1005 C 0.64008 0.79052 0.41856 0.0
C1006 C 0.63504 0.76622 0.81619 0.0
C1007 C 0.62845 0.72024 0.8551 0.0
C1008 C 0.63702 0.7725 0.72083 0.0
C1009 C 0.63195 0.73299 0.65967 0.0
C1010 C 0.6248 0.68706 0.70007 0.0
C1011 C 0.62318 0.68095 0.79515 0.0
H1012 H 0.39745 0.83535 0.79897 0.0
H1013 H 0.37806 0.68269 0.83666 0.0
H1014 H 0.39498 0.82513 0.63584 0.0
H1015 H 0.37399 0.6712 0.67288 0.0
H1016 H 0.37624 0.65816 0.36586 0.0
H1017 H 0.37964 0.66774 0.52951 0.0
H1018 H 0.38341 0.81203 0.50457 0.0
H1019 H 0.38138 0.80284 0.34008 0.0
C1020 C 0.3922 0.79926 0.77202 0.0
C1021 C 0.38735 0.75989 0.83169 0.0
C1022 C 0.3906 0.79314 0.67723 0.0
C1023 C 0.38389 0.74714 0.63734 0.0
C1024 C 0.37932 0.70752 0.69792 0.0
C1025 C 0.38132 0.71385 0.79316 0.0
C1026 C 0.37809 0.69223 0.39577 0.0
C1027 C 0.37915 0.73032 0.33935 0.0
C1028 C 0.37982 0.69772 0.49086 0.0
C1029 C 0.38198 0.74101 0.53411 0.0
C1030 C 0.38236 0.77849 0.47665 0.0
C1031 C 0.3811 0.77334 0.38117 0.0
H1032 H 0.61676 0.14673 0.23637 0.0
H1033 H 0.63881 0.29918 0.19696 0.0
H1034 H 0.61968 0.15725 0.39951 0.0
H1035 H 0.64323 0.31064 0.36034 0.0
H1036 H 0.64222 0.32672 0.66739 0.0
H1037 H 0.63864 0.31672 0.50413 0.0
H1038 H 0.63066 0.16833 0.53267 0.0
H1039 H 0.63309 0.17849 0.69711 0.0
C1040 C 0.62266 0.18276 0.26279 0.0
C1041 C 0.62809 0.22192 0.20237 0.0
C1042 C 0.62452 0.18902 0.35774 0.0
C1043 C 0.63205 0.23496 0.39734 0.0
C1044 C 0.63725 0.27437 0.33595 0.0
C1045 C 0.63505 0.26797 0.24067 0.0
C1046 C 0.63944 0.29171 0.63852 0.0
C1047 C 0.63733 0.25301 0.69633 0.0
C1048 C 0.63757 0.28589 0.5434 0.0
C1049 C 0.63416 0.24137 0.50093 0.0
C1050 C 0.63274 0.20306 0.55967 0.0
C1051 C 0.63421 0.20872 0.65529 0.0
H1052 H 0.39032 0.33551 0.27106 0.0
H1053 H 0.37862 0.18566 0.23655 0.0
H1054 H 0.38706 0.32454 0.43435 0.0
H1055 H 0.37647 0.17433 0.40056 0.0
H1056 H 0.36508 0.15331 0.69942 0.0
H1057 H 0.36691 0.16437 0.53659 0.0
H1058 H 0.39271 0.31695 0.5762 0.0
H1059 H 0.38926 0.30529 0.74012 0.0
C1060 C 0.38703 0.29995 0.29887 0.0
C1061 C 0.38441 0.26135 0.23994 0.0
C1062 C 0.38535 0.29352 0.3939 0.0
C1063 C 0.38153 0.24836 0.43503 0.0
C1064 C 0.37906 0.20973 0.37485 0.0
C1065 C 0.38035 0.21605 0.27936 0.0
C1066 C 0.37119 0.18933 0.67331 0.0
C1067 C 0.37736 0.22817 0.73412 0.0
C1068 C 0.37242 0.19587 0.57834 0.0
C1069 C 0.38017 0.24172 0.53884 0.0
C1070 C 0.38641 0.28081 0.60059 0.0
C1071 C 0.38475 0.27424 0.69611 0.0
H1072 H 0.02478 0.15597 0.67656 0.0
H1073 H 0.04783 0.25381 0.45875 0.0
H1074 H 1.00592 0.18666 0.67907 0.0
H1075 H 0.02898 0.28541 0.46294 0.0
H1076 H 1.0008 0.3612 0.58487 0.0
H1077 H 0.01976 0.33113 0.56586 0.0
H1078 H 0.98525 0.18602 0.58055 0.0
H1079 H 0.96627 0.21626 0.60045 0.0
C1080 C 0.02582 0.18394 0.6288 0.0
C1081 C 0.03779 0.20193 0.56662 0.0
C1082 C 0.01495 0.20147 0.6302 0.0
C1083 C 0.01578 0.23795 0.57025 0.0
C1084 C 0.02801 0.25725 0.51005 0.0
C1085 C 0.03886 0.23934 0.50805 0.0
C1086 C 0.99725 0.32284 0.58311 0.0
C1087 C 0.98205 0.29107 0.59487 0.0
C1088 C 1.00811 0.30563 0.57169 0.0
C1089 C 1.00406 0.25619 0.57265 0.0
C1090 C 0.98877 0.22436 0.58078 0.0
C1091 C 0.97787 0.2416 0.59123 0.0
H1092 H 0.9957 0.84947 0.39636 0.0
H1093 H 0.97043 0.73979 0.59118 0.0
H1094 H 0.01414 0.8171 0.38628 0.0
H1095 H 0.98887 0.70691 0.58004 0.0
H1096 H 0.01731 0.63548 0.45178 0.0
H1097 H 0.99858 0.66626 0.47199 0.0
H1098 H 0.03378 0.81045 0.48192 0.0
H1099 H 0.05254 0.77954 0.46007 0.0
C1100 C 0.99407 0.81843 0.43722 0.0
C1101 C 0.98161 0.79752 0.4952 0.0
C1102 C 1.0047 0.79999 0.43164 0.0
C1103 C 1.00312 0.75983 0.48333 0.0
C1104 C 0.99041 0.73783 0.5391 0.0
C1105 C 0.97979 0.7565 0.54509 0.0
C1106 C 0.02106 0.67376 0.45876 0.0
C1107 C 0.03641 0.70513 0.45355 0.0
C1108 C 0.01032 0.69136 0.47098 0.0
C1109 C 0.01464 0.74085 0.47769 0.0
C1110 C 0.03005 0.77215 0.4756 0.0
C1111 C 0.04082 0.75447 0.46411 0.0
H1112 H 0.55018 0.76185 0.18181 0.0
H1113 H 0.5178 0.6355 0.04763 0.0
H1114 H 0.53197 0.79619 0.18148 0.0
H1115 H 0.49965 0.6698 0.04674 0.0
H1116 H 0.47628 0.77125 0.99875 0.0
H1117 H 0.49511 0.74012 0.98322 0.0
H1118 H 0.50708 0.77097 0.26623 0.0
H1119 H 0.48798 0.79997 0.2833 0.0
C1120 C 0.53928 0.74188 0.15075 0.0
C1121 C 0.53537 0.69595 0.11522 0.0
C1122 C 0.52882 0.76129 0.15116 0.0
C1123 C 0.51434 0.73549 0.11465 0.0
C1124 C 0.51072 0.6906 0.075 0.0
C1125 C 0.52108 0.67091 0.07589 0.0
C1126 C 0.48275 0.77075 0.05807 0.0
C1127 C 0.48063 0.78873 0.14209 0.0
C1128 C 0.49362 0.75325 0.04889 0.0
C1129 C 0.50275 0.75391 0.12314 0.0
C1130 C 0.50048 0.77109 0.20721 0.0
C1131 C 0.4895 0.7878 0.21679 0.0
H1132 H 0.49229 0.3474 0.92011 0.0
H1133 H 0.46805 0.21992 0.07927 0.0
H1134 H 0.51198 0.32171 0.89185 0.0
H1135 H 0.48777 0.19364 0.0498 0.0
H1136 H 0.53465 0.19164 0.05763 0.0
H1137 H 0.515 0.21799 0.0895 0.0
H1138 H 0.51566 0.25926 0.80796 0.0
H1139 H 0.53525 0.23345 0.77676 0.0
C1140 C 0.49113 0.31365 0.94861 0.0
C1141 C 0.4786 0.28572 1.00202 0.0
C1142 C 0.50239 0.29882 0.93209 0.0
C1143 C 0.50151 0.25571 0.96888 0.0
C1144 C 0.48888 0.22732 1.02136 0.0
C1145 C 0.47749 0.24202 0.03726 0.0
C1146 C 0.53072 0.20701 1.0031 0.0
C1147 C 0.5365 0.21051 0.91474 0.0
C1148 C 0.51935 0.22152 1.02099 0.0
C1149 C 0.51368 0.24048 0.95114 0.0
C1150 C 0.5198 0.2451 0.86348 0.0
C1151 C 0.531 0.23017 0.84549 0.0
loop_
_geom_bond_atom_site_label_1
_geom_bond_atom_site_label_2
_geom_bond_distance
_geom_bond_site_symmetry_2
_ccdc_geom_bond_type
Gd0 N31 2.661 . S
Gd0 N37 2.601 . S
Gd0 O44 2.545 . S
Gd0 O45 2.606 . S
Gd0 O47 2.429 . S
Gd0 O48 2.545 . S
Gd0 O49 2.412 . S
Gd0 O51 2.362 . S
Gd0 O52 2.324 . S
Gd0 C59 2.828 . S
Gd1 N10 2.661 . S
Gd1 N14 2.601 . S
Gd1 O45 2.362 . S
Gd1 O46 2.324 . S
Gd1 O50 2.545 . S
Gd1 O51 2.606 . S
Gd1 O53 2.429 . S
Gd1 O54 2.545 . S
Gd1 O55 2.412 . S
Gd1 C68 2.828 . S
C2 C5 1.417 . S
C2 C7 1.431 . S
C2 C8 1.412 . S
C3 C6 1.437 . S
C3 C7 1.317 . S
C3 H22 0.929 . S
C4 C5 1.426 . S
C4 C6 1.413 . S
C4 N14 1.359 . S
C5 C2 1.417 . S
C5 C4 1.426 . S
C5 N10 1.350 . S
C6 C3 1.437 . S
C6 C4 1.413 . S
C6 C16 1.391 . S
C7 C2 1.431 . S
C7 C3 1.317 . S
C7 H18 0.930 . S
C8 C2 1.412 . S
C8 C9 1.355 . S
C8 H20 0.930 . S
C9 C8 1.355 . S
C9 C11 1.402 . S
C9 H21 0.930 . S
N10 Gd1 2.661 . S
N10 C5 1.350 . S
N10 C11 1.307 . S
C11 C9 1.402 . S
C11 N10 1.307 . S
C11 H12 0.930 . S
H12 C11 0.930 . S
C13 N14 1.334 . S
C13 C15 1.394 . S
C13 H17 0.930 . S
N14 Gd1 2.601 . S
N14 C4 1.359 . S
N14 C13 1.334 . S
C15 C13 1.394 . S
C15 C16 1.359 . S
C15 H27 0.930 . S
C16 C6 1.391 . S
C16 C15 1.359 . S
C16 H28 0.929 . S
H17 C13 0.930 . S
H18 C7 0.930 . S
H19 C36 0.930 . S
H20 C8 0.930 . S
H21 C9 0.930 . S
H22 C3 0.929 . S
H23 C41 0.930 . S
H24 C32 0.930 . S
H25 C33 0.930 . S
H26 C57 0.929 . S
H27 C15 0.930 . S
H28 C16 0.929 . S
H29 C58 0.930 . S
H30 C39 0.930 . S
N31 Gd0 2.661 . S
N31 C35 1.350 . S
N31 C36 1.307 . S
C32 H24 0.930 . S
C32 C33 1.355 . S
C32 C34 1.412 . S
C33 H25 0.930 . S
C33 C32 1.355 . S
C33 C36 1.402 . S
C34 C32 1.412 . S
C34 C35 1.417 . S
C34 C58 1.431 . S
C35 N31 1.350 . S
C35 C34 1.417 . S
C35 C38 1.426 . S
C36 H19 0.930 . S
C36 N31 1.307 . S
C36 C33 1.402 . S
N37 Gd0 2.601 . S
N37 C38 1.359 . S
N37 C41 1.334 . S
C38 C35 1.426 . S
C38 N37 1.359 . S
C38 C42 1.413 . S
C39 H30 0.930 . S
C39 C40 1.359 . S
C39 C41 1.394 . S
C40 C39 1.359 . S
C40 C42 1.391 . S
C40 H43 0.929 . S
C41 H23 0.930 . S
C41 N37 1.334 . S
C41 C39 1.394 . S
C42 C38 1.413 . S
C42 C40 1.391 . S
C42 C57 1.437 . S
H43 C40 0.929 . S
O44 Gd0 2.545 . S
O44 C59 1.258 . S
O45 Gd0 2.606 . S
O45 Gd1 2.362 . S
O45 C56 1.284 . S
O46 Gd1 2.324 . S
O46 C66 1.254 . S
O47 Gd0 2.429 . S
O47 C66 1.268 . S
O48 Gd0 2.545 . S
O48 C56 1.250 . S
O49 Gd0 2.412 . S
O49 C59 1.252 . S
O50 Gd1 2.545 . S
O50 C68 1.258 . S
O51 Gd0 2.362 . S
O51 Gd1 2.606 . S
O51 C67 1.284 . S
O52 Gd0 2.324 . S
O52 C75 1.254 . S
O53 Gd1 2.429 . S
O53 C75 1.268 . S
O54 Gd1 2.545 . S
O54 C67 1.250 . S
O55 Gd1 2.412 . S
O55 C68 1.252 . S
C56 O45 1.284 . S
C56 O48 1.250 . S
C57 H26 0.929 . S
C57 C42 1.437 . S
C57 C58 1.317 . S
C58 H29 0.930 . S
C58 C34 1.431 . S
C58 C57 1.317 . S
C59 Gd0 2.828 . S
C59 O44 1.258 . S
C59 O49 1.252 . S
C59 C60 1.497 . S
C60 C59 1.497 . S
C60 C61 1.395 . S
C60 C62 1.380 . S
C61 C60 1.395 . S
C61 C64 1.398 . S
C61 H76 0.930 . S
C62 C60 1.380 . S
C62 C63 1.391 . S
C62 H77 0.930 . S
C63 C62 1.391 . S
C63 C65 1.387 . S
C64 C61 1.398 . S
C64 C65 1.380 . S
C64 H78 0.930 . S
C65 C63 1.387 . S
C65 C64 1.380 . S
C65 H79 0.930 . S
C66 O46 1.254 . S
C66 O47 1.268 . S
C67 O51 1.284 . S
C67 O54 1.250 . S
C68 Gd1 2.828 . S
C68 O50 1.258 . S
C68 O55 1.252 . S
C68 C69 1.497 . S
C69 C68 1.497 . S
C69 C70 1.395 . S
C69 C71 1.380 . S
C70 C69 1.395 . S
C70 C73 1.398 . S
C70 H80 0.930 . S
C71 C69 1.380 . S
C71 C72 1.391 . S
C71 H81 0.930 . S
C72 C71 1.391 . S
C72 C74 1.387 . S
C73 C70 1.398 . S
C73 C74 1.380 . S
C73 H82 0.930 . S
C74 C72 1.387 . S
C74 C73 1.380 . S
C74 H83 0.930 . S
C75 O52 1.254 . S
C75 O53 1.268 . S
H76 C61 0.930 . S
H77 C62 0.930 . S
H78 C64 0.930 . S
H79 C65 0.930 . S
H80 C70 0.930 . S
H81 C71 0.930 . S
H82 C73 0.930 . S
H83 C74 0.930 . S
Gd84 N115 2.661 . S
Gd84 N121 2.601 . S
Gd84 O128 2.545 . S
Gd84 O129 2.606 . S
Gd84 O131 2.429 . S
Gd84 O132 2.545 . S
Gd84 O133 2.412 . S
Gd84 O135 2.362 . S
Gd84 O136 2.324 . S
Gd84 C143 2.828 . S
Gd85 N94 2.661 . S
Gd85 N98 2.601 . S
Gd85 O129 2.362 . S
Gd85 O130 2.324 . S
Gd85 O134 2.545 . S
Gd85 O135 2.606 . S
Gd85 O137 2.429 . S
Gd85 O138 2.545 . S
Gd85 O139 2.412 . S
Gd85 C152 2.828 . S
C86 C89 1.417 . S
C86 C91 1.431 . S
C86 C92 1.412 . S
C87 C90 1.437 . S
C87 C91 1.317 . S
C87 H106 0.929 . S
C88 C89 1.426 . S
C88 C90 1.413 . S
C88 N98 1.359 . S
C89 C86 1.417 . S
C89 C88 1.426 . S
C89 N94 1.350 . S
C90 C87 1.437 . S
C90 C88 1.413 . S
C90 C100 1.391 . S
C91 C86 1.431 . S
C91 C87 1.317 . S
C91 H102 0.930 . S
C92 C86 1.412 . S
C92 C93 1.355 . S
C92 H104 0.930 . S
C93 C92 1.355 . S
C93 C95 1.402 . S
C93 H105 0.930 . S
N94 Gd85 2.661 . S
N94 C89 1.350 . S
N94 C95 1.307 . S
C95 C93 1.402 . S
C95 N94 1.307 . S
C95 H96 0.930 . S
H96 C95 0.930 . S
C97 N98 1.334 . S
C97 C99 1.394 . S
C97 H101 0.930 . S
N98 Gd85 2.601 . S
N98 C88 1.359 . S
N98 C97 1.334 . S
C99 C97 1.394 . S
C99 C100 1.359 . S
C99 H111 0.930 . S
C100 C90 1.391 . S
C100 C99 1.359 . S
C100 H112 0.929 . S
H101 C97 0.930 . S
H102 C91 0.930 . S
H103 C120 0.930 . S
H104 C92 0.930 . S
H105 C93 0.930 . S
H106 C87 0.929 . S
H107 C125 0.930 . S
H108 C116 0.930 . S
H109 C117 0.930 . S
H110 C141 0.929 . S
H111 C99 0.930 . S
H112 C100 0.929 . S
H113 C142 0.930 . S
H114 C123 0.930 . S
N115 Gd84 2.661 . S
N115 C119 1.350 . S
N115 C120 1.307 . S
C116 H108 0.930 . S
C116 C117 1.355 . S
C116 C118 1.412 . S
C117 H109 0.930 . S
C117 C116 1.355 . S
C117 C120 1.402 . S
C118 C116 1.412 . S
C118 C119 1.417 . S
C118 C142 1.431 . S
C119 N115 1.350 . S
C119 C118 1.417 . S
C119 C122 1.426 . S
C120 H103 0.930 . S
C120 N115 1.307 . S
C120 C117 1.402 . S
N121 Gd84 2.601 . S
N121 C122 1.359 . S
N121 C125 1.334 . S
C122 C119 1.426 . S
C122 N121 1.359 . S
C122 C126 1.413 . S
C123 H114 0.930 . S
C123 C124 1.359 . S
C123 C125 1.394 . S
C124 C123 1.359 . S
C124 C126 1.391 . S
C124 H127 0.929 . S
C125 H107 0.930 . S
C125 N121 1.334 . S
C125 C123 1.394 . S
C126 C122 1.413 . S
C126 C124 1.391 . S
C126 C141 1.437 . S
H127 C124 0.929 . S
O128 Gd84 2.545 . S
O128 C143 1.258 . S
O129 Gd84 2.606 . S
O129 Gd85 2.362 . S
O129 C140 1.284 . S
O130 Gd85 2.324 . S
O130 C150 1.254 . S
O131 Gd84 2.429 . S
O131 C150 1.268 . S
O132 Gd84 2.545 . S
O132 C140 1.250 . S
O133 Gd84 2.412 . S
O133 C143 1.252 . S
O134 Gd85 2.545 . S
O134 C152 1.258 . S
O135 Gd84 2.362 . S
O135 Gd85 2.606 . S
O135 C151 1.284 . S
O136 Gd84 2.324 . S
O136 C159 1.254 . S
O137 Gd85 2.429 . S
O137 C159 1.268 . S
O138 Gd85 2.545 . S
O138 C151 1.250 . S
O139 Gd85 2.412 . S
O139 C152 1.252 . S
C140 O129 1.284 . S
C140 O132 1.250 . S
C141 H110 0.929 . S
C141 C126 1.437 . S
C141 C142 1.317 . S
C142 H113 0.930 . S
C142 C118 1.431 . S
C142 C141 1.317 . S
C143 Gd84 2.828 . S
C143 O128 1.258 . S
C143 O133 1.252 . S
C143 C144 1.497 . S
C144 C143 1.497 . S
C144 C145 1.395 . S
C144 C146 1.380 . S
C145 C144 1.395 . S
C145 C148 1.398 . S
C145 H160 0.930 . S
C146 C144 1.380 . S
C146 C147 1.391 . S
C146 H161 0.930 . S
C147 C146 1.391 . S
C147 C149 1.387 . S
C148 C145 1.398 . S
C148 C149 1.380 . S
C148 H162 0.930 . S
C149 C147 1.387 . S
C149 C148 1.380 . S
C149 H163 0.930 . S
C150 O130 1.254 . S
C150 O131 1.268 . S
C151 O135 1.284 . S
C151 O138 1.250 . S
C152 Gd85 2.828 . S
C152 O134 1.258 . S
C152 O139 1.252 . S
C152 C153 1.497 . S
C153 C152 1.497 . S
C153 C154 1.395 . S
C153 C155 1.380 . S
C154 C153 1.395 . S
C154 C157 1.398 . S
C154 H164 0.930 . S
C155 C153 1.380 . S
C155 C156 1.391 . S
C155 H165 0.930 . S
C156 C155 1.391 . S
C156 C158 1.387 . S
C157 C154 1.398 . S
C157 C158 1.380 . S
C157 H166 0.930 . S
C158 C156 1.387 . S
C158 C157 1.380 . S
C158 H167 0.930 . S
C159 O136 1.254 . S
C159 O137 1.268 . S
H160 C145 0.930 . S
H161 C146 0.930 . S
H162 C148 0.930 . S
H163 C149 0.930 . S
H164 C154 0.930 . S
H165 C155 0.930 . S
H166 C157 0.930 . S
H167 C158 0.930 . S
Gd168 N199 2.661 . S
Gd168 N205 2.601 . S
Gd168 O212 2.545 . S
Gd168 O213 2.606 . S
Gd168 O215 2.429 . S
Gd168 O216 2.545 . S
Gd168 O217 2.412 . S
Gd168 O219 2.362 . S
Gd168 O220 2.324 . S
Gd168 C227 2.828 . S
Gd169 N178 2.661 . S
Gd169 N182 2.601 . S
Gd169 O213 2.362 . S
Gd169 O214 2.324 . S
Gd169 O218 2.545 . S
Gd169 O219 2.606 . S
Gd169 O221 2.429 . S
Gd169 O222 2.545 . S
Gd169 O223 2.412 . S
Gd169 C236 2.828 . S
C170 C173 1.417 . S
C170 C175 1.431 . S
C170 C176 1.412 . S
C171 C174 1.437 . S
C171 C175 1.317 . S
C171 H190 0.929 . S
C172 C173 1.426 . S
C172 C174 1.413 . S
C172 N182 1.359 . S
C173 C170 1.417 . S
C173 C172 1.426 . S
C173 N178 1.350 . S
C174 C171 1.437 . S
C174 C172 1.413 . S
C174 C184 1.391 . S
C175 C170 1.431 . S
C175 C171 1.317 . S
C175 H186 0.930 . S
C176 C170 1.412 . S
C176 C177 1.355 . S
C176 H188 0.930 . S
C177 C176 1.355 . S
C177 C179 1.402 . S
C177 H189 0.930 . S
N178 Gd169 2.661 . S
N178 C173 1.350 . S
N178 C179 1.307 . S
C179 C177 1.402 . S
C179 N178 1.307 . S
C179 H180 0.930 . S
H180 C179 0.930 . S
C181 N182 1.334 . S
C181 C183 1.394 . S
C181 H185 0.930 . S
N182 Gd169 2.601 . S
N182 C172 1.359 . S
N182 C181 1.334 . S
C183 C181 1.394 . S
C183 C184 1.359 . S
C183 H195 0.930 . S
C184 C174 1.391 . S
C184 C183 1.359 . S
C184 H196 0.929 . S
H185 C181 0.930 . S
H186 C175 0.930 . S
H187 C204 0.930 . S
H188 C176 0.930 . S
H189 C177 0.930 . S
H190 C171 0.929 . S
H191 C209 0.930 . S
H192 C200 0.930 . S
H193 C201 0.930 . S
H194 C225 0.929 . S
H195 C183 0.930 . S
H196 C184 0.929 . S
H197 C226 0.930 . S
H198 C207 0.930 . S
N199 Gd168 2.661 . S
N199 C203 1.350 . S
N199 C204 1.307 . S
C200 H192 0.930 . S
C200 C201 1.355 . S
C200 C202 1.412 . S
C201 H193 0.930 . S
C201 C200 1.355 . S
C201 C204 1.402 . S
C202 C200 1.412 . S
C202 C203 1.417 . S
C202 C226 1.431 . S
C203 N199 1.350 . S
C203 C202 1.417 . S
C203 C206 1.426 . S
C204 H187 0.930 . S
C204 N199 1.307 . S
C204 C201 1.402 . S
N205 Gd168 2.601 . S
N205 C206 1.359 . S
N205 C209 1.334 . S
C206 C203 1.426 . S
C206 N205 1.359 . S
C206 C210 1.413 . S
C207 H198 0.930 . S
C207 C208 1.359 . S
C207 C209 1.394 . S
C208 C207 1.359 . S
C208 C210 1.391 . S
C208 H211 0.929 . S
C209 H191 0.930 . S
C209 N205 1.334 . S
C209 C207 1.394 . S
C210 C206 1.413 . S
C210 C208 1.391 . S
C210 C225 1.437 . S
H211 C208 0.929 . S
O212 Gd168 2.545 . S
O212 C227 1.258 . S
O213 Gd168 2.606 . S
O213 Gd169 2.362 . S
O213 C224 1.284 . S
O214 Gd169 2.324 . S
O214 C234 1.254 . S
O215 Gd168 2.429 . S
O215 C234 1.268 . S
O216 Gd168 2.545 . S
O216 C224 1.250 . S
O217 Gd168 2.412 . S
O217 C227 1.252 . S
O218 Gd169 2.545 . S
O218 C236 1.258 . S
O219 Gd168 2.362 . S
O219 Gd169 2.606 . S
O219 C235 1.284 . S
O220 Gd168 2.324 . S
O220 C243 1.254 . S
O221 Gd169 2.429 . S
O221 C243 1.268 . S
O222 Gd169 2.545 . S
O222 C235 1.250 . S
O223 Gd169 2.412 . S
O223 C236 1.252 . S
C224 O213 1.284 . S
C224 O216 1.250 . S
C225 H194 0.929 . S
C225 C210 1.437 . S
C225 C226 1.317 . S
C226 H197 0.930 . S
C226 C202 1.431 . S
C226 C225 1.317 . S
C227 Gd168 2.828 . S
C227 O212 1.258 . S
C227 O217 1.252 . S
C227 C228 1.497 . S
C228 C227 1.497 . S
C228 C229 1.395 . S
C228 C230 1.380 . S
C229 C228 1.395 . S
C229 C232 1.398 . S
C229 H244 0.930 . S
C230 C228 1.380 . S
C230 C231 1.391 . S
C230 H245 0.930 . S
C231 C230 1.391 . S
C231 C233 1.387 . S
C232 C229 1.398 . S
C232 C233 1.380 . S
C232 H246 0.930 . S
C233 C231 1.387 . S
C233 C232 1.380 . S
C233 H247 0.930 . S
C234 O214 1.254 . S
C234 O215 1.268 . S
C235 O219 1.284 . S
C235 O222 1.250 . S
C236 Gd169 2.828 . S
C236 O218 1.258 . S
C236 O223 1.252 . S
C236 C237 1.497 . S
C237 C236 1.497 . S
C237 C238 1.395 . S
C237 C239 1.380 . S
C238 C237 1.395 . S
C238 C241 1.398 . S
C238 H248 0.930 . S
C239 C237 1.380 . S
C239 C240 1.391 . S
C239 H249 0.930 . S
C240 C239 1.391 . S
C240 C242 1.387 . S
C241 C238 1.398 . S
C241 C242 1.380 . S
C241 H250 0.930 . S
C242 C240 1.387 . S
C242 C241 1.380 . S
C242 H251 0.930 . S
C243 O220 1.254 . S
C243 O221 1.268 . S
H244 C229 0.930 . S
H245 C230 0.930 . S
H246 C232 0.930 . S
H247 C233 0.930 . S
H248 C238 0.930 . S
H249 C239 0.930 . S
H250 C241 0.930 . S
H251 C242 0.930 . S
Gd252 N283 2.661 . S
Gd252 N289 2.601 . S
Gd252 O296 2.545 . S
Gd252 O297 2.606 . S
Gd252 O299 2.429 . S
Gd252 O300 2.545 . S
Gd252 O301 2.412 . S
Gd252 O303 2.362 . S
Gd252 O304 2.324 . S
Gd252 C311 2.828 . S
Gd253 N262 2.661 . S
Gd253 N266 2.601 . S
Gd253 O297 2.362 . S
Gd253 O298 2.324 . S
Gd253 O302 2.545 . S
Gd253 O303 2.606 . S
Gd253 O305 2.429 . S
Gd253 O306 2.545 . S
Gd253 O307 2.412 . S
Gd253 C320 2.828 . S
C254 C257 1.417 . S
C254 C259 1.431 . S
C254 C260 1.412 . S
C255 C258 1.437 . S
C255 C259 1.317 . S
C255 H274 0.929 . S
C256 C257 1.426 . S
C256 C258 1.413 . S
C256 N266 1.359 . S
C257 C254 1.417 . S
C257 C256 1.426 . S
C257 N262 1.350 . S
C258 C255 1.437 . S
C258 C256 1.413 . S
C258 C268 1.391 . S
C259 C254 1.431 . S
C259 C255 1.317 . S
C259 H270 0.930 . S
C260 C254 1.412 . S
C260 C261 1.355 . S
C260 H272 0.930 . S
C261 C260 1.355 . S
C261 C263 1.402 . S
C261 H273 0.930 . S
N262 Gd253 2.661 . S
N262 C257 1.350 . S
N262 C263 1.307 . S
C263 C261 1.402 . S
C263 N262 1.307 . S
C263 H264 0.930 . S
H264 C263 0.930 . S
C265 N266 1.334 . S
C265 C267 1.394 . S
C265 H269 0.930 . S
N266 Gd253 2.601 . S
N266 C256 1.359 . S
N266 C265 1.334 . S
C267 C265 1.394 . S
C267 C268 1.359 . S
C267 H279 0.930 . S
C268 C258 1.391 . S
C268 C267 1.359 . S
C268 H280 0.929 . S
H269 C265 0.930 . S
H270 C259 0.930 . S
H271 C288 0.930 . S
H272 C260 0.930 . S
H273 C261 0.930 . S
H274 C255 0.929 . S
H275 C293 0.930 . S
H276 C284 0.930 . S
H277 C285 0.930 . S
H278 C309 0.929 . S
H279 C267 0.930 . S
H280 C268 0.929 . S
H281 C310 0.930 . S
H282 C291 0.930 . S
N283 Gd252 2.661 . S
N283 C287 1.350 . S
N283 C288 1.307 . S
C284 H276 0.930 . S
C284 C285 1.355 . S
C284 C286 1.412 . S
C285 H277 0.930 . S
C285 C284 1.355 . S
C285 C288 1.402 . S
C286 C284 1.412 . S
C286 C287 1.417 . S
C286 C310 1.431 . S
C287 N283 1.350 . S
C287 C286 1.417 . S
C287 C290 1.426 . S
C288 H271 0.930 . S
C288 N283 1.307 . S
C288 C285 1.402 . S
N289 Gd252 2.601 . S
N289 C290 1.359 . S
N289 C293 1.334 . S
C290 C287 1.426 . S
C290 N289 1.359 . S
C290 C294 1.413 . S
C291 H282 0.930 . S
C291 C292 1.359 . S
C291 C293 1.394 . S
C292 C291 1.359 . S
C292 C294 1.391 . S
C292 H295 0.929 . S
C293 H275 0.930 . S
C293 N289 1.334 . S
C293 C291 1.394 . S
C294 C290 1.413 . S
C294 C292 1.391 . S
C294 C309 1.437 . S
H295 C292 0.929 . S
O296 Gd252 2.545 . S
O296 C311 1.258 . S
O297 Gd252 2.606 . S
O297 Gd253 2.362 . S
O297 C308 1.284 . S
O298 Gd253 2.324 . S
O298 C318 1.254 . S
O299 Gd252 2.429 . S
O299 C318 1.268 . S
O300 Gd252 2.545 . S
O300 C308 1.250 . S
O301 Gd252 2.412 . S
O301 C311 1.252 . S
O302 Gd253 2.545 . S
O302 C320 1.258 . S
O303 Gd252 2.362 . S
O303 Gd253 2.606 . S
O303 C319 1.284 . S
O304 Gd252 2.324 . S
O304 C327 1.254 . S
O305 Gd253 2.429 . S
O305 C327 1.268 . S
O306 Gd253 2.545 . S
O306 C319 1.250 . S
O307 Gd253 2.412 . S
O307 C320 1.252 . S
C308 O297 1.284 . S
C308 O300 1.250 . S
C309 H278 0.929 . S
C309 C294 1.437 . S
C309 C310 1.317 . S
C310 H281 0.930 . S
C310 C286 1.431 . S
C310 C309 1.317 . S
C311 Gd252 2.828 . S
C311 O296 1.258 . S
C311 O301 1.252 . S
C311 C312 1.497 . S
C312 C311 1.497 . S
C312 C313 1.395 . S
C312 C314 1.380 . S
C313 C312 1.395 . S
C313 C316 1.398 . S
C313 H328 0.930 . S
C314 C312 1.380 . S
C314 C315 1.391 . S
C314 H329 0.930 . S
C315 C314 1.391 . S
C315 C317 1.387 . S
C316 C313 1.398 . S
C316 C317 1.380 . S
C316 H330 0.930 . S
C317 C315 1.387 . S
C317 C316 1.380 . S
C317 H331 0.930 . S
C318 O298 1.254 . S
C318 O299 1.268 . S
C319 O303 1.284 . S
C319 O306 1.250 . S
C320 Gd253 2.828 . S
C320 O302 1.258 . S
C320 O307 1.252 . S
C320 C321 1.497 . S
C321 C320 1.497 . S
C321 C322 1.395 . S
C321 C323 1.380 . S
C322 C321 1.395 . S
C322 C325 1.398 . S
C322 H332 0.930 . S
C323 C321 1.380 . S
C323 C324 1.391 . S
C323 H333 0.930 . S
C324 C323 1.391 . S
C324 C326 1.387 . S
C325 C322 1.398 . S
C325 C326 1.380 . S
C325 H334 0.930 . S
C326 C324 1.387 . S
C326 C325 1.380 . S
C326 H335 0.930 . S
C327 O304 1.254 . S
C327 O305 1.268 . S
H328 C313 0.930 . S
H329 C314 0.930 . S
H330 C316 0.930 . S
H331 C317 0.930 . S
H332 C322 0.930 . S
H333 C323 0.930 . S
H334 C325 0.930 . S
H335 C326 0.930 . S
Gd336 N367 2.661 . S
Gd336 N373 2.601 . S
Gd336 O380 2.545 1_556 S
Gd336 O381 2.606 1_556 S
Gd336 O383 2.429 1_556 S
Gd336 O384 2.545 1_556 S
Gd336 O385 2.412 1_556 S
Gd336 O387 2.362 . S
Gd336 O388 2.324 . S
Gd336 C395 2.828 1_556 S
Gd337 N346 2.661 . S
Gd337 N350 2.601 . S
Gd337 O381 2.362 . S
Gd337 O382 2.324 . S
Gd337 O386 2.545 1_554 S
Gd337 O387 2.606 1_554 S
Gd337 O389 2.429 1_554 S
Gd337 O390 2.545 1_554 S
Gd337 O391 2.412 1_554 S
Gd337 C404 2.828 1_554 S
C338 C341 1.417 . S
C338 C343 1.431 . S
C338 C344 1.412 . S
C339 C342 1.437 . S
C339 C343 1.317 . S
C339 H358 0.929 . S
C340 C341 1.426 . S
C340 C342 1.413 . S
C340 N350 1.359 . S
C341 C338 1.417 . S
C341 C340 1.426 . S
C341 N346 1.350 . S
C342 C339 1.437 . S
C342 C340 1.413 . S
C342 C352 1.391 . S
C343 C338 1.431 . S
C343 C339 1.317 . S
C343 H354 0.930 . S
C344 C338 1.412 . S
C344 C345 1.355 . S
C344 H356 0.930 . S
C345 C344 1.355 . S
C345 C347 1.402 . S
C345 H357 0.930 . S
N346 Gd337 2.661 . S
N346 C341 1.350 . S
N346 C347 1.307 . S
C347 C345 1.402 . S
C347 N346 1.307 . S
C347 H348 0.930 . S
H348 C347 0.930 . S
C349 N350 1.334 . S
C349 C351 1.394 . S
C349 H353 0.930 . S
N350 Gd337 2.601 . S
N350 C340 1.359 . S
N350 C349 1.334 . S
C351 C349 1.394 . S
C351 C352 1.359 . S
C351 H363 0.930 . S
C352 C342 1.391 . S
C352 C351 1.359 . S
C352 H364 0.929 . S
H353 C349 0.930 . S
H354 C343 0.930 . S
H355 C372 0.930 . S
H356 C344 0.930 . S
H357 C345 0.930 . S
H358 C339 0.929 . S
H359 C377 0.930 . S
H360 C368 0.930 . S
H361 C369 0.930 . S
H362 C393 0.929 . S
H363 C351 0.930 . S
H364 C352 0.929 . S
H365 C394 0.930 . S
H366 C375 0.930 . S
N367 Gd336 2.661 . S
N367 C371 1.350 . S
N367 C372 1.307 . S
C368 H360 0.930 . S
C368 C369 1.355 . S
C368 C370 1.412 . S
C369 H361 0.930 . S
C369 C368 1.355 . S
C369 C372 1.402 . S
C370 C368 1.412 . S
C370 C371 1.417 . S
C370 C394 1.431 . S
C371 N367 1.350 . S
C371 C370 1.417 . S
C371 C374 1.426 . S
C372 H355 0.930 . S
C372 N367 1.307 . S
C372 C369 1.402 . S
N373 Gd336 2.601 . S
N373 C374 1.359 . S
N373 C377 1.334 . S
C374 C371 1.426 . S
C374 N373 1.359 . S
C374 C378 1.413 . S
C375 H366 0.930 . S
C375 C376 1.359 . S
C375 C377 1.394 . S
C376 C375 1.359 . S
C376 C378 1.391 . S
C376 H379 0.929 . S
C377 H359 0.930 . S
C377 N373 1.334 . S
C377 C375 1.394 . S
C378 C374 1.413 . S
C378 C376 1.391 . S
C378 C393 1.437 . S
H379 C376 0.929 . S
O380 Gd336 2.545 1_554 S
O380 C395 1.258 . S
O381 Gd336 2.606 1_554 S
O381 Gd337 2.362 . S
O381 C392 1.284 . S
O382 Gd337 2.324 . S
O382 C402 1.254 1_554 S
O383 Gd336 2.429 1_554 S
O383 C402 1.268 1_554 S
O384 Gd336 2.545 1_554 S
O384 C392 1.250 . S
O385 Gd336 2.412 1_554 S
O385 C395 1.252 . S
O386 Gd337 2.545 1_556 S
O386 C404 1.258 . S
O387 Gd336 2.362 . S
O387 Gd337 2.606 1_556 S
O387 C403 1.284 . S
O388 Gd336 2.324 . S
O388 C411 1.254 1_556 S
O389 Gd337 2.429 1_556 S
O389 C411 1.268 1_556 S
O390 Gd337 2.545 1_556 S
O390 C403 1.250 . S
O391 Gd337 2.412 1_556 S
O391 C404 1.252 . S
C392 O381 1.284 . S
C392 O384 1.250 . S
C393 H362 0.929 . S
C393 C378 1.437 . S
C393 C394 1.317 . S
C394 H365 0.930 . S
C394 C370 1.431 . S
C394 C393 1.317 . S
C395 Gd336 2.828 1_554 S
C395 O380 1.258 . S
C395 O385 1.252 . S
C395 C396 1.497 . S
C396 C395 1.497 . S
C396 C397 1.395 . S
C396 C398 1.380 . S
C397 C396 1.395 . S
C397 C400 1.398 . S
C397 H412 0.930 . S
C398 C396 1.380 . S
C398 C399 1.391 . S
C398 H413 0.930 . S
C399 C398 1.391 . S
C399 C401 1.387 . S
C400 C397 1.398 . S
C400 C401 1.380 . S
C400 H414 0.930 . S
C401 C399 1.387 . S
C401 C400 1.380 . S
C401 H415 0.930 . S
C402 O382 1.254 1_556 S
C402 O383 1.268 1_556 S
C403 O387 1.284 . S
C403 O390 1.250 . S
C404 Gd337 2.828 1_556 S
C404 O386 1.258 . S
C404 O391 1.252 . S
C404 C405 1.497 . S
C405 C404 1.497 . S
C405 C406 1.395 . S
C405 C407 1.380 . S
C406 C405 1.395 . S
C406 C409 1.398 . S
C406 H416 0.930 . S
C407 C405 1.380 . S
C407 C408 1.391 . S
C407 H417 0.930 . S
C408 C407 1.391 . S
C408 C410 1.387 . S
C409 C406 1.398 . S
C409 C410 1.380 . S
C409 H418 0.930 . S
C410 C408 1.387 . S
C410 C409 1.380 . S
C410 H419 0.930 . S
C411 O388 1.254 1_554 S
C411 O389 1.268 1_554 S
H412 C397 0.930 . S
H413 C398 0.930 . S
H414 C400 0.930 . S
H415 C401 0.930 . S
H416 C406 0.930 . S
H417 C407 0.930 . S
H418 C409 0.930 . S
H419 C410 0.930 . S
Gd420 N451 2.661 . S
Gd420 N457 2.601 . S
Gd420 O464 2.545 1_556 S
Gd420 O465 2.606 1_556 S
Gd420 O467 2.429 1_556 S
Gd420 O468 2.545 1_556 S
Gd420 O469 2.412 1_556 S
Gd420 O471 2.362 . S
Gd420 O472 2.324 . S
Gd420 C479 2.828 1_556 S
Gd421 N430 2.661 . S
Gd421 N434 2.601 . S
Gd421 O465 2.362 . S
Gd421 O466 2.324 . S
Gd421 O470 2.545 1_554 S
Gd421 O471 2.606 1_554 S
Gd421 O473 2.429 1_554 S
Gd421 O474 2.545 1_554 S
Gd421 O475 2.412 1_554 S
Gd421 C488 2.828 1_554 S
C422 C425 1.417 . S
C422 C427 1.431 . S
C422 C428 1.412 . S
C423 C426 1.437 . S
C423 C427 1.317 . S
C423 H442 0.929 . S
C424 C425 1.426 . S
C424 C426 1.413 . S
C424 N434 1.359 . S
C425 C422 1.417 . S
C425 C424 1.426 . S
C425 N430 1.350 . S
C426 C423 1.437 . S
C426 C424 1.413 . S
C426 C436 1.391 . S
C427 C422 1.431 . S
C427 C423 1.317 . S
C427 H438 0.930 . S
C428 C422 1.412 . S
C428 C429 1.355 . S
C428 H440 0.930 . S
C429 C428 1.355 . S
C429 C431 1.402 . S
C429 H441 0.930 . S
N430 Gd421 2.661 . S
N430 C425 1.350 . S
N430 C431 1.307 . S
C431 C429 1.402 . S
C431 N430 1.307 . S
C431 H432 0.930 . S
H432 C431 0.930 . S
C433 N434 1.334 . S
C433 C435 1.394 . S
C433 H437 0.930 . S
N434 Gd421 2.601 . S
N434 C424 1.359 . S
N434 C433 1.334 . S
C435 C433 1.394 . S
C435 C436 1.359 . S
C435 H447 0.930 . S
C436 C426 1.391 . S
C436 C435 1.359 . S
C436 H448 0.929 . S
H437 C433 0.930 . S
H438 C427 0.930 . S
H439 C456 0.930 . S
H440 C428 0.930 . S
H441 C429 0.930 . S
H442 C423 0.929 . S
H443 C461 0.930 . S
H444 C452 0.930 . S
H445 C453 0.930 . S
H446 C477 0.929 . S
H447 C435 0.930 . S
H448 C436 0.929 . S
H449 C478 0.930 . S
H450 C459 0.930 . S
N451 Gd420 2.661 . S
N451 C455 1.350 . S
N451 C456 1.307 . S
C452 H444 0.930 . S
C452 C453 1.355 . S
C452 C454 1.412 . S
C453 H445 0.930 . S
C453 C452 1.355 . S
C453 C456 1.402 . S
C454 C452 1.412 . S
C454 C455 1.417 . S
C454 C478 1.431 . S
C455 N451 1.350 . S
C455 C454 1.417 . S
C455 C458 1.426 . S
C456 H439 0.930 . S
C456 N451 1.307 . S
C456 C453 1.402 . S
N457 Gd420 2.601 . S
N457 C458 1.359 . S
N457 C461 1.334 . S
C458 C455 1.426 . S
C458 N457 1.359 . S
C458 C462 1.413 . S
C459 H450 0.930 . S
C459 C460 1.359 . S
C459 C461 1.394 . S
C460 C459 1.359 . S
C460 C462 1.391 . S
C460 H463 0.929 . S
C461 H443 0.930 . S
C461 N457 1.334 . S
C461 C459 1.394 . S
C462 C458 1.413 . S
C462 C460 1.391 . S
C462 C477 1.437 . S
H463 C460 0.929 . S
O464 Gd420 2.545 1_554 S
O464 C479 1.258 . S
O465 Gd420 2.606 1_554 S
O465 Gd421 2.362 . S
O465 C476 1.284 . S
O466 Gd421 2.324 . S
O466 C486 1.254 1_554 S
O467 Gd420 2.429 1_554 S
O467 C486 1.268 1_554 S
O468 Gd420 2.545 1_554 S
O468 C476 1.250 . S
O469 Gd420 2.412 1_554 S
O469 C479 1.252 . S
O470 Gd421 2.545 1_556 S
O470 C488 1.258 . S
O471 Gd420 2.362 . S
O471 Gd421 2.606 1_556 S
O471 C487 1.284 . S
O472 Gd420 2.324 . S
O472 C495 1.254 1_556 S
O473 Gd421 2.429 1_556 S
O473 C495 1.268 1_556 S
O474 Gd421 2.545 1_556 S
O474 C487 1.250 . S
O475 Gd421 2.412 1_556 S
O475 C488 1.252 . S
C476 O465 1.284 . S
C476 O468 1.250 . S
C477 H446 0.929 . S
C477 C462 1.437 . S
C477 C478 1.317 . S
C478 H449 0.930 . S
C478 C454 1.431 . S
C478 C477 1.317 . S
C479 Gd420 2.828 1_554 S
C479 O464 1.258 . S
C479 O469 1.252 . S
C479 C480 1.497 . S
C480 C479 1.497 . S
C480 C481 1.395 . S
C480 C482 1.380 . S
C481 C480 1.395 . S
C481 C484 1.398 . S
C481 H496 0.930 . S
C482 C480 1.380 . S
C482 C483 1.391 . S
C482 H497 0.930 . S
C483 C482 1.391 . S
C483 C485 1.387 . S
C484 C481 1.398 . S
C484 C485 1.380 . S
C484 H498 0.930 . S
C485 C483 1.387 . S
C485 C484 1.380 . S
C485 H499 0.930 . S
C486 O466 1.254 1_556 S
C486 O467 1.268 1_556 S
C487 O471 1.284 . S
C487 O474 1.250 . S
C488 Gd421 2.828 1_556 S
C488 O470 1.258 . S
C488 O475 1.252 . S
C488 C489 1.497 . S
C489 C488 1.497 . S
C489 C490 1.395 . S
C489 C491 1.380 . S
C490 C489 1.395 . S
C490 C493 1.398 . S
C490 H500 0.930 . S
C491 C489 1.380 . S
C491 C492 1.391 . S
C491 H501 0.930 . S
C492 C491 1.391 . S
C492 C494 1.387 . S
C493 C490 1.398 . S
C493 C494 1.380 . S
C493 H502 0.930 . S
C494 C492 1.387 . S
C494 C493 1.380 . S
C494 H503 0.930 . S
C495 O472 1.254 1_554 S
C495 O473 1.268 1_554 S
H496 C481 0.930 . S
H497 C482 0.930 . S
H498 C484 0.930 . S
H499 C485 0.930 . S
H500 C490 0.930 . S
H501 C491 0.930 . S
H502 C493 0.930 . S
H503 C494 0.930 . S
Gd504 N535 2.661 . S
Gd504 N541 2.601 . S
Gd504 O548 2.545 1_556 S
Gd504 O549 2.606 1_556 S
Gd504 O551 2.429 1_556 S
Gd504 O552 2.545 1_556 S
Gd504 O553 2.412 1_556 S
Gd504 O555 2.362 . S
Gd504 O556 2.324 . S
Gd504 C563 2.828 1_556 S
Gd505 N514 2.661 . S
Gd505 N518 2.601 . S
Gd505 O549 2.362 . S
Gd505 O550 2.324 . S
Gd505 O554 2.545 1_554 S
Gd505 O555 2.606 1_554 S
Gd505 O557 2.429 1_554 S
Gd505 O558 2.545 1_554 S
Gd505 O559 2.412 1_554 S
Gd505 C572 2.828 1_554 S
C506 C509 1.417 . S
C506 C511 1.431 . S
C506 C512 1.412 . S
C507 C510 1.437 . S
C507 C511 1.317 . S
C507 H526 0.929 . S
C508 C509 1.426 . S
C508 C510 1.413 . S
C508 N518 1.359 . S
C509 C506 1.417 . S
C509 C508 1.426 . S
C509 N514 1.350 . S
C510 C507 1.437 . S
C510 C508 1.413 . S
C510 C520 1.391 . S
C511 C506 1.431 . S
C511 C507 1.317 . S
C511 H522 0.930 . S
C512 C506 1.412 . S
C512 C513 1.355 . S
C512 H524 0.930 . S
C513 C512 1.355 . S
C513 C515 1.402 . S
C513 H525 0.930 . S
N514 Gd505 2.661 . S
N514 C509 1.350 . S
N514 C515 1.307 . S
C515 C513 1.402 . S
C515 N514 1.307 . S
C515 H516 0.930 . S
H516 C515 0.930 . S
C517 N518 1.334 . S
C517 C519 1.394 . S
C517 H521 0.930 . S
N518 Gd505 2.601 . S
N518 C508 1.359 . S
N518 C517 1.334 . S
C519 C517 1.394 . S
C519 C520 1.359 . S
C519 H531 0.930 . S
C520 C510 1.391 . S
C520 C519 1.359 . S
C520 H532 0.929 . S
H521 C517 0.930 . S
H522 C511 0.930 . S
H523 C540 0.930 . S
H524 C512 0.930 . S
H525 C513 0.930 . S
H526 C507 0.929 . S
H527 C545 0.930 . S
H528 C536 0.930 . S
H529 C537 0.930 . S
H530 C561 0.929 . S
H531 C519 0.930 . S
H532 C520 0.929 . S
H533 C562 0.930 . S
H534 C543 0.930 . S
N535 Gd504 2.661 . S
N535 C539 1.350 . S
N535 C540 1.307 . S
C536 H528 0.930 . S
C536 C537 1.355 . S
C536 C538 1.412 . S
C537 H529 0.930 . S
C537 C536 1.355 . S
C537 C540 1.402 . S
C538 C536 1.412 . S
C538 C539 1.417 . S
C538 C562 1.431 . S
C539 N535 1.350 . S
C539 C538 1.417 . S
C539 C542 1.426 . S
C540 H523 0.930 . S
C540 N535 1.307 . S
C540 C537 1.402 . S
N541 Gd504 2.601 . S
N541 C542 1.359 . S
N541 C545 1.334 . S
C542 C539 1.426 . S
C542 N541 1.359 . S
C542 C546 1.413 . S
C543 H534 0.930 . S
C543 C544 1.359 . S
C543 C545 1.394 . S
C544 C543 1.359 . S
C544 C546 1.391 . S
C544 H547 0.929 . S
C545 H527 0.930 . S
C545 N541 1.334 . S
C545 C543 1.394 . S
C546 C542 1.413 . S
C546 C544 1.391 . S
C546 C561 1.437 . S
H547 C544 0.929 . S
O548 Gd504 2.545 1_554 S
O548 C563 1.258 . S
O549 Gd504 2.606 1_554 S
O549 Gd505 2.362 . S
O549 C560 1.284 . S
O550 Gd505 2.324 . S
O550 C570 1.254 1_554 S
O551 Gd504 2.429 1_554 S
O551 C570 1.268 1_554 S
O552 Gd504 2.545 1_554 S
O552 C560 1.250 . S
O553 Gd504 2.412 1_554 S
O553 C563 1.252 . S
O554 Gd505 2.545 1_556 S
O554 C572 1.258 . S
O555 Gd504 2.362 . S
O555 Gd505 2.606 1_556 S
O555 C571 1.284 . S
O556 Gd504 2.324 . S
O556 C579 1.254 1_556 S
O557 Gd505 2.429 1_556 S
O557 C579 1.268 1_556 S
O558 Gd505 2.545 1_556 S
O558 C571 1.250 . S
O559 Gd505 2.412 1_556 S
O559 C572 1.252 . S
C560 O549 1.284 . S
C560 O552 1.250 . S
C561 H530 0.929 . S
C561 C546 1.437 . S
C561 C562 1.317 . S
C562 H533 0.930 . S
C562 C538 1.431 . S
C562 C561 1.317 . S
C563 Gd504 2.828 1_554 S
C563 O548 1.258 . S
C563 O553 1.252 . S
C563 C564 1.497 . S
C564 C563 1.497 . S
C564 C565 1.395 . S
C564 C566 1.380 . S
C565 C564 1.395 . S
C565 C568 1.398 . S
C565 H580 0.930 . S
C566 C564 1.380 . S
C566 C567 1.391 . S
C566 H581 0.930 . S
C567 C566 1.391 . S
C567 C569 1.387 . S
C568 C565 1.398 . S
C568 C569 1.380 . S
C568 H582 0.930 . S
C569 C567 1.387 . S
C569 C568 1.380 . S
C569 H583 0.930 . S
C570 O550 1.254 1_556 S
C570 O551 1.268 1_556 S
C571 O555 1.284 . S
C571 O558 1.250 . S
C572 Gd505 2.828 1_556 S
C572 O554 1.258 . S
C572 O559 1.252 . S
C572 C573 1.497 . S
C573 C572 1.497 . S
C573 C574 1.395 . S
C573 C575 1.380 . S
C574 C573 1.395 . S
C574 C577 1.398 . S
C574 H584 0.930 . S
C575 C573 1.380 . S
C575 C576 1.391 . S
C575 H585 0.930 . S
C576 C575 1.391 . S
C576 C578 1.387 . S
C577 C574 1.398 . S
C577 C578 1.380 . S
C577 H586 0.930 . S
C578 C576 1.387 . S
C578 C577 1.380 . S
C578 H587 0.930 . S
C579 O556 1.254 1_554 S
C579 O557 1.268 1_554 S
H580 C565 0.930 . S
H581 C566 0.930 . S
H582 C568 0.930 . S
H583 C569 0.930 . S
H584 C574 0.930 . S
H585 C575 0.930 . S
H586 C577 0.930 . S
H587 C578 0.930 . S
Gd588 N619 2.661 . S
Gd588 N625 2.601 . S
Gd588 O632 2.545 1_556 S
Gd588 O633 2.606 1_556 S
Gd588 O635 2.429 1_556 S
Gd588 O636 2.545 1_556 S
Gd588 O637 2.412 1_556 S
Gd588 O639 2.362 . S
Gd588 O640 2.324 . S
Gd588 C647 2.828 1_556 S
Gd589 N598 2.661 . S
Gd589 N602 2.601 . S
Gd589 O633 2.362 . S
Gd589 O634 2.324 . S
Gd589 O638 2.545 1_554 S
Gd589 O639 2.606 1_554 S
Gd589 O641 2.429 1_554 S
Gd589 O642 2.545 1_554 S
Gd589 O643 2.412 1_554 S
Gd589 C656 2.828 1_554 S
C590 C593 1.417 . S
C590 C595 1.431 . S
C590 C596 1.412 . S
C591 C594 1.437 . S
C591 C595 1.317 . S
C591 H610 0.929 . S
C592 C593 1.426 . S
C592 C594 1.413 . S
C592 N602 1.359 . S
C593 C590 1.417 . S
C593 C592 1.426 . S
C593 N598 1.350 . S
C594 C591 1.437 . S
C594 C592 1.413 . S
C594 C604 1.391 . S
C595 C590 1.431 . S
C595 C591 1.317 . S
C595 H606 0.930 . S
C596 C590 1.412 . S
C596 C597 1.355 . S
C596 H608 0.930 . S
C597 C596 1.355 . S
C597 C599 1.402 . S
C597 H609 0.930 . S
N598 Gd589 2.661 . S
N598 C593 1.350 . S
N598 C599 1.307 . S
C599 C597 1.402 . S
C599 N598 1.307 . S
C599 H600 0.930 . S
H600 C599 0.930 . S
C601 N602 1.334 . S
C601 C603 1.394 . S
C601 H605 0.930 . S
N602 Gd589 2.601 . S
N602 C592 1.359 . S
N602 C601 1.334 . S
C603 C601 1.394 . S
C603 C604 1.359 . S
C603 H615 0.930 . S
C604 C594 1.391 . S
C604 C603 1.359 . S
C604 H616 0.929 . S
H605 C601 0.930 . S
H606 C595 0.930 . S
H607 C624 0.930 . S
H608 C596 0.930 . S
H609 C597 0.930 . S
H610 C591 0.929 . S
H611 C629 0.930 . S
H612 C620 0.930 . S
H613 C621 0.930 . S
H614 C645 0.929 . S
H615 C603 0.930 . S
H616 C604 0.929 . S
H617 C646 0.930 . S
H618 C627 0.930 . S
N619 Gd588 2.661 . S
N619 C623 1.350 . S
N619 C624 1.307 . S
C620 H612 0.930 . S
C620 C621 1.355 . S
C620 C622 1.412 . S
C621 H613 0.930 . S
C621 C620 1.355 . S
C621 C624 1.402 . S
C622 C620 1.412 . S
C622 C623 1.417 . S
C622 C646 1.431 . S
C623 N619 1.350 . S
C623 C622 1.417 . S
C623 C626 1.426 . S
C624 H607 0.930 . S
C624 N619 1.307 . S
C624 C621 1.402 . S
N625 Gd588 2.601 . S
N625 C626 1.359 . S
N625 C629 1.334 . S
C626 C623 1.426 . S
C626 N625 1.359 . S
C626 C630 1.413 . S
C627 H618 0.930 . S
C627 C628 1.359 . S
C627 C629 1.394 . S
C628 C627 1.359 . S
C628 C630 1.391 . S
C628 H631 0.929 . S
C629 H611 0.930 . S
C629 N625 1.334 . S
C629 C627 1.394 . S
C630 C626 1.413 . S
C630 C628 1.391 . S
C630 C645 1.437 . S
H631 C628 0.929 . S
O632 Gd588 2.545 1_554 S
O632 C647 1.258 . S
O633 Gd588 2.606 1_554 S
O633 Gd589 2.362 . S
O633 C644 1.284 . S
O634 Gd589 2.324 . S
O634 C654 1.254 1_554 S
O635 Gd588 2.429 1_554 S
O635 C654 1.268 1_554 S
O636 Gd588 2.545 1_554 S
O636 C644 1.250 . S
O637 Gd588 2.412 1_554 S
O637 C647 1.252 . S
O638 Gd589 2.545 1_556 S
O638 C656 1.258 . S
O639 Gd588 2.362 . S
O639 Gd589 2.606 1_556 S
O639 C655 1.284 . S
O640 Gd588 2.324 . S
O640 C663 1.254 1_556 S
O641 Gd589 2.429 1_556 S
O641 C663 1.268 1_556 S
O642 Gd589 2.545 1_556 S
O642 C655 1.250 . S
O643 Gd589 2.412 1_556 S
O643 C656 1.252 . S
C644 O633 1.284 . S
C644 O636 1.250 . S
C645 H614 0.929 . S
C645 C630 1.437 . S
C645 C646 1.317 . S
C646 H617 0.930 . S
C646 C622 1.431 . S
C646 C645 1.317 . S
C647 Gd588 2.828 1_554 S
C647 O632 1.258 . S
C647 O637 1.252 . S
C647 C648 1.497 . S
C648 C647 1.497 . S
C648 C649 1.395 . S
C648 C650 1.380 . S
C649 C648 1.395 . S
C649 C652 1.398 . S
C649 H664 0.930 . S
C650 C648 1.380 . S
C650 C651 1.391 . S
C650 H665 0.930 . S
C651 C650 1.391 . S
C651 C653 1.387 . S
C652 C649 1.398 . S
C652 C653 1.380 . S
C652 H666 0.930 . S
C653 C651 1.387 . S
C653 C652 1.380 . S
C653 H667 0.930 . S
C654 O634 1.254 1_556 S
C654 O635 1.268 1_556 S
C655 O639 1.284 . S
C655 O642 1.250 . S
C656 Gd589 2.828 1_556 S
C656 O638 1.258 . S
C656 O643 1.252 . S
C656 C657 1.497 . S
C657 C656 1.497 . S
C657 C658 1.395 . S
C657 C659 1.380 . S
C658 C657 1.395 . S
C658 C661 1.398 . S
C658 H668 0.930 . S
C659 C657 1.380 . S
C659 C660 1.391 . S
C659 H669 0.930 . S
C660 C659 1.391 . S
C660 C662 1.387 . S
C661 C658 1.398 . S
C661 C662 1.380 . S
C661 H670 0.930 . S
C662 C660 1.387 . S
C662 C661 1.380 . S
C662 H671 0.930 . S
C663 O640 1.254 1_554 S
C663 O641 1.268 1_554 S
H664 C649 0.930 . S
H665 C650 0.930 . S
H666 C652 0.930 . S
H667 C653 0.930 . S
H668 C658 0.930 . S
H669 C659 0.930 . S
H670 C661 0.930 . S
H671 C662 0.930 . S
H672 C680 0.950 . S
H673 C685 0.950 . S
H674 C682 0.950 . S
H675 C684 0.950 . S
H676 C686 0.950 . S
H677 C688 0.950 . S
H678 C690 0.950 . S
H679 C691 0.950 . S
C680 H672 0.950 . S
C680 C681 1.386 . S
C680 C682 1.391 . S
C681 C680 1.386 . S
C681 C685 1.393 . S
C682 H674 0.950 . S
C682 C680 1.391 . S
C682 C683 1.400 . S
C683 C682 1.400 . S
C683 C684 1.398 . S
C683 C689 1.491 . S
C684 H675 0.950 . S
C684 C683 1.398 . S
C684 C685 1.391 . S
C685 H673 0.950 . S
C685 C681 1.393 . S
C685 C684 1.391 . S
C686 H676 0.950 . S
C686 C687 1.386 . S
C686 C688 1.391 . S
C687 C686 1.386 . S
C687 C691 1.393 . S
C688 H677 0.950 . S
C688 C686 1.391 . S
C688 C689 1.400 . S
C689 C683 1.491 . S
C689 C688 1.400 . S
C689 C690 1.398 . S
C690 H678 0.950 . S
C690 C689 1.398 . S
C690 C691 1.391 . S
C691 H679 0.950 . S
C691 C687 1.393 . S
C691 C690 1.391 . S
H692 C700 0.950 . S
H693 C705 0.950 . S
H694 C702 0.950 . S
H695 C704 0.950 . S
H696 C706 0.950 . S
H697 C708 0.950 . S
H698 C710 0.950 . S
H699 C711 0.950 . S
C700 H692 0.950 . S
C700 C701 1.386 . S
C700 C702 1.391 . S
C701 C700 1.386 . S
C701 C705 1.393 . S
C702 H694 0.950 . S
C702 C700 1.391 . S
C702 C703 1.400 . S
C703 C702 1.400 . S
C703 C704 1.398 . S
C703 C709 1.491 . S
C704 H695 0.950 . S
C704 C703 1.398 . S
C704 C705 1.391 . S
C705 H693 0.950 . S
C705 C701 1.393 . S
C705 C704 1.391 . S
C706 H696 0.950 . S
C706 C707 1.386 . S
C706 C708 1.391 . S
C707 C706 1.386 . S
C707 C711 1.393 . S
C708 H697 0.950 . S
C708 C706 1.391 . S
C708 C709 1.400 . S
C709 C703 1.491 . S
C709 C708 1.400 . S
C709 C710 1.398 . S
C710 H698 0.950 . S
C710 C709 1.398 . S
C710 C711 1.391 . S
C711 H699 0.950 . S
C711 C707 1.393 . S
C711 C710 1.391 . S
H712 C720 0.950 . S
H713 C725 0.950 . S
H714 C722 0.950 . S
H715 C724 0.950 . S
H716 C726 0.950 . S
H717 C728 0.950 . S
H718 C730 0.950 . S
H719 C731 0.950 . S
C720 H712 0.950 . S
C720 C721 1.386 . S
C720 C722 1.391 . S
C721 C720 1.386 . S
C721 C725 1.393 . S
C722 H714 0.950 . S
C722 C720 1.391 . S
C722 C723 1.400 . S
C723 C722 1.400 . S
C723 C724 1.398 . S
C723 C729 1.491 . S
C724 H715 0.950 . S
C724 C723 1.398 . S
C724 C725 1.391 . S
C725 H713 0.950 . S
C725 C721 1.393 . S
C725 C724 1.391 . S
C726 H716 0.950 . S
C726 C727 1.386 . S
C726 C728 1.391 . S
C727 C726 1.386 . S
C727 C731 1.393 . S
C728 H717 0.950 . S
C728 C726 1.391 . S
C728 C729 1.400 . S
C729 C723 1.491 . S
C729 C728 1.400 . S
C729 C730 1.398 . S
C730 H718 0.950 . S
C730 C729 1.398 . S
C730 C731 1.391 . S
C731 H719 0.950 . S
C731 C727 1.393 . S
C731 C730 1.391 . S
H732 C740 0.950 . S
H733 C745 0.950 . S
H734 C742 0.950 . S
H735 C744 0.950 . S
H736 C746 0.950 . S
H737 C748 0.950 . S
H738 C750 0.950 . S
H739 C751 0.950 . S
C740 H732 0.950 . S
C740 C741 1.386 . S
C740 C742 1.391 . S
C741 C740 1.386 . S
C741 C745 1.393 . S
C742 H734 0.950 . S
C742 C740 1.391 . S
C742 C743 1.400 . S
C743 C742 1.400 . S
C743 C744 1.398 . S
C743 C749 1.491 . S
C744 H735 0.950 . S
C744 C743 1.398 . S
C744 C745 1.391 . S
C745 H733 0.950 . S
C745 C741 1.393 . S
C745 C744 1.391 . S
C746 H736 0.950 . S
C746 C747 1.386 . S
C746 C748 1.391 . S
C747 C746 1.386 . S
C747 C751 1.393 . S
C748 H737 0.950 . S
C748 C746 1.391 . S
C748 C749 1.400 . S
C749 C743 1.491 . S
C749 C748 1.400 . S
C749 C750 1.398 . S
C750 H738 0.950 . S
C750 C749 1.398 . S
C750 C751 1.391 . S
C751 H739 0.950 . S
C751 C747 1.393 . S
C751 C750 1.391 . S
H752 C760 0.950 . S
H753 C765 0.950 . S
H754 C762 0.950 . S
H755 C764 0.950 . S
H756 C766 0.950 . S
H757 C768 0.950 . S
H758 C770 0.950 . S
H759 C771 0.950 . S
C760 H752 0.950 . S
C760 C761 1.386 . S
C760 C762 1.391 . S
C761 C760 1.386 . S
C761 C765 1.393 . S
C762 H754 0.950 . S
C762 C760 1.391 . S
C762 C763 1.400 . S
C763 C762 1.400 . S
C763 C764 1.398 . S
C763 C769 1.491 1_565 S
C764 H755 0.950 . S
C764 C763 1.398 . S
C764 C765 1.391 . S
C765 H753 0.950 . S
C765 C761 1.393 . S
C765 C764 1.391 . S
C766 H756 0.950 . S
C766 C767 1.386 . S
C766 C768 1.391 . S
C767 C766 1.386 . S
C767 C771 1.393 . S
C768 H757 0.950 . S
C768 C766 1.391 . S
C768 C769 1.400 . S
C769 C763 1.491 1_545 S
C769 C768 1.400 . S
C769 C770 1.398 . S
C770 H758 0.950 . S
C770 C769 1.398 . S
C770 C771 1.391 . S
C771 H759 0.950 . S
C771 C767 1.393 . S
C771 C770 1.391 . S
H772 C780 0.950 . S
H773 C785 0.950 . S
H774 C782 0.950 . S
H775 C784 0.950 . S
H776 C786 0.950 . S
H777 C788 0.950 . S
H778 C790 0.950 . S
H779 C791 0.950 . S
C780 H772 0.950 . S
C780 C781 1.386 . S
C780 C782 1.391 . S
C781 C780 1.386 . S
C781 C785 1.393 . S
C782 H774 0.950 . S
C782 C780 1.391 . S
C782 C783 1.400 . S
C783 C782 1.400 . S
C783 C784 1.398 . S
C783 C789 1.491 . S
C784 H775 0.950 . S
C784 C783 1.398 . S
C784 C785 1.391 . S
C785 H773 0.950 . S
C785 C781 1.393 . S
C785 C784 1.391 . S
C786 H776 0.950 . S
C786 C787 1.386 . S
C786 C788 1.391 . S
C787 C786 1.386 . S
C787 C791 1.393 . S
C788 H777 0.950 . S
C788 C786 1.391 . S
C788 C789 1.400 . S
C789 C783 1.491 . S
C789 C788 1.400 . S
C789 C790 1.398 . S
C790 H778 0.950 . S
C790 C789 1.398 . S
C790 C791 1.391 . S
C791 H779 0.950 . S
C791 C787 1.393 . S
C791 C790 1.391 . S
H792 C800 0.950 . S
H793 C805 0.950 . S
H794 C802 0.950 . S
H795 C804 0.950 . S
H796 C806 0.950 . S
H797 C808 0.950 . S
H798 C810 0.950 . S
H799 C811 0.950 . S
C800 H792 0.950 . S
C800 C801 1.386 . S
C800 C802 1.391 . S
C801 C800 1.386 . S
C801 C805 1.393 . S
C802 H794 0.950 . S
C802 C800 1.391 . S
C802 C803 1.400 . S
C803 C802 1.400 . S
C803 C804 1.398 . S
C803 C809 1.491 1_565 S
C804 H795 0.950 . S
C804 C803 1.398 . S
C804 C805 1.391 . S
C805 H793 0.950 . S
C805 C801 1.393 . S
C805 C804 1.391 . S
C806 H796 0.950 . S
C806 C807 1.386 . S
C806 C808 1.391 . S
C807 C806 1.386 . S
C807 C811 1.393 . S
C808 H797 0.950 . S
C808 C806 1.391 . S
C808 C809 1.400 . S
C809 C803 1.491 1_545 S
C809 C808 1.400 . S
C809 C810 1.398 . S
C810 H798 0.950 . S
C810 C809 1.398 . S
C810 C811 1.391 . S
C811 H799 0.950 . S
C811 C807 1.393 . S
C811 C810 1.391 . S
H812 C820 0.950 . S
H813 C825 0.950 . S
H814 C822 0.950 . S
H815 C824 0.950 . S
H816 C826 0.950 . S
H817 C828 0.950 . S
H818 C830 0.950 . S
H819 C831 0.950 . S
C820 H812 0.950 . S
C820 C821 1.386 . S
C820 C822 1.391 . S
C821 C820 1.386 . S
C821 C825 1.393 . S
C822 H814 0.950 . S
C822 C820 1.391 . S
C822 C823 1.400 . S
C823 C822 1.400 . S
C823 C824 1.398 . S
C823 C829 1.491 . S
C824 H815 0.950 . S
C824 C823 1.398 . S
C824 C825 1.391 . S
C825 H813 0.950 . S
C825 C821 1.393 . S
C825 C824 1.391 . S
C826 H816 0.950 . S
C826 C827 1.386 . S
C826 C828 1.391 . S
C827 C826 1.386 . S
C827 C831 1.393 . S
C828 H817 0.950 . S
C828 C826 1.391 . S
C828 C829 1.400 . S
C829 C823 1.491 . S
C829 C828 1.400 . S
C829 C830 1.398 . S
C830 H818 0.950 . S
C830 C829 1.398 . S
C830 C831 1.391 . S
C831 H819 0.950 . S
C831 C827 1.393 . S
C831 C830 1.391 . S
H832 C840 0.950 . S
H833 C845 0.950 . S
H834 C842 0.950 . S
H835 C844 0.950 . S
H836 C846 0.950 . S
H837 C848 0.950 . S
H838 C850 0.950 1_556 S
H839 C851 0.950 1_556 S
C840 H832 0.950 . S
C840 C841 1.386 1_556 S
C840 C842 1.391 . S
C841 C840 1.386 1_554 S
C841 C845 1.393 . S
C842 H834 0.950 . S
C842 C840 1.391 . S
C842 C843 1.400 1_556 S
C843 C842 1.400 1_554 S
C843 C844 1.398 . S
C843 C849 1.491 . S
C844 H835 0.950 . S
C844 C843 1.398 . S
C844 C845 1.391 . S
C845 H833 0.950 . S
C845 C841 1.393 . S
C845 C844 1.391 . S
C846 H836 0.950 . S
C846 C847 1.386 . S
C846 C848 1.391 . S
C847 C846 1.386 . S
C847 C851 1.393 . S
C848 H837 0.950 . S
C848 C846 1.391 . S
C848 C849 1.400 . S
C849 C843 1.491 . S
C849 C848 1.400 . S
C849 C850 1.398 . S
C850 H838 0.950 1_554 S
C850 C849 1.398 . S
C850 C851 1.391 . S
C851 H839 0.950 1_554 S
C851 C847 1.393 . S
C851 C850 1.391 . S
H852 C860 0.950 . S
H853 C865 0.948 1_556 S
H854 C862 0.950 . S
H855 C864 0.950 . S
H856 C866 0.950 1_556 S
H857 C868 0.950 1_556 S
H858 C870 0.950 1_565 S
H859 C871 0.950 . S
C860 H852 0.950 . S
C860 C861 1.386 . S
C860 C862 1.391 . S
C861 C860 1.386 . S
C861 C865 1.393 . S
C862 H854 0.950 . S
C862 C860 1.391 . S
C862 C863 1.400 . S
C863 C862 1.400 . S
C863 C864 1.398 . S
C863 C869 1.491 1_565 S
C864 H855 0.950 . S
C864 C863 1.398 . S
C864 C865 1.391 . S
C865 H853 0.948 1_554 S
C865 C861 1.393 . S
C865 C864 1.391 . S
C866 H856 0.950 1_554 S
C866 C867 1.386 . S
C866 C868 1.391 . S
C867 C866 1.386 . S
C867 C871 1.393 . S
C868 H857 0.950 1_554 S
C868 C866 1.391 . S
C868 C869 1.400 . S
C869 C863 1.491 1_545 S
C869 C868 1.400 . S
C869 C870 1.398 . S
C870 H858 0.950 1_545 S
C870 C869 1.398 . S
C870 C871 1.391 . S
C871 H859 0.950 . S
C871 C867 1.393 . S
C871 C870 1.391 . S
H872 C880 0.950 . S
H873 C885 0.950 . S
H874 C882 0.950 . S
H875 C884 0.950 . S
H876 C886 0.950 . S
H877 C888 0.950 . S
H878 C890 0.950 . S
H879 C891 0.950 . S
C880 H872 0.950 . S
C880 C881 1.386 1_554 S
C880 C882 1.391 . S
C881 C880 1.386 1_556 S
C881 C885 1.393 . S
C882 H874 0.950 . S
C882 C880 1.391 . S
C882 C883 1.400 1_554 S
C883 C882 1.400 1_556 S
C883 C884 1.398 . S
C883 C889 1.491 . S
C884 H875 0.950 . S
C884 C883 1.398 . S
C884 C885 1.391 . S
C885 H873 0.950 . S
C885 C881 1.393 . S
C885 C884 1.391 . S
C886 H876 0.950 . S
C886 C887 1.386 . S
C886 C888 1.391 . S
C887 C886 1.386 . S
C887 C891 1.393 1_556 S
C888 H877 0.950 . S
C888 C886 1.391 . S
C888 C889 1.400 . S
C889 C883 1.491 . S
C889 C888 1.400 . S
C889 C890 1.398 1_556 S
C890 H878 0.950 . S
C890 C889 1.398 1_554 S
C890 C891 1.391 . S
C891 H879 0.950 . S
C891 C887 1.393 1_554 S
C891 C890 1.391 . S
H892 C900 0.950 . S
H893 C905 0.950 1_554 S
H894 C902 0.950 . S
H895 C904 0.950 . S
H896 C906 0.950 1_554 S
H897 C908 0.950 1_544 S
H898 C910 0.950 . S
H899 C911 0.950 . S
C900 H892 0.950 . S
C900 C901 1.386 . S
C900 C902 1.391 . S
C901 C900 1.386 . S
C901 C905 1.393 . S
C902 H894 0.950 . S
C902 C900 1.391 . S
C902 C903 1.400 . S
C903 C902 1.400 . S
C903 C904 1.398 . S
C903 C909 1.491 1_545 S
C904 H895 0.950 . S
C904 C903 1.398 . S
C904 C905 1.391 . S
C905 H893 0.950 1_556 S
C905 C901 1.393 . S
C905 C904 1.391 . S
C906 H896 0.950 1_556 S
C906 C907 1.386 . S
C906 C908 1.391 . S
C907 C906 1.386 . S
C907 C911 1.393 . S
C908 H897 0.950 1_566 S
C908 C906 1.391 . S
C908 C909 1.400 . S
C909 C903 1.491 1_565 S
C909 C908 1.400 . S
C909 C910 1.398 . S
C910 H898 0.950 . S
C910 C909 1.398 . S
C910 C911 1.391 . S
C911 H899 0.950 . S
C911 C907 1.393 . S
C911 C910 1.391 . S
H912 C920 0.950 . S
H913 C925 0.950 . S
H914 C922 0.950 . S
H915 C924 0.950 . S
H916 C926 0.950 . S
H917 C928 0.950 . S
H918 C930 0.950 . S
H919 C931 0.950 . S
C920 H912 0.950 . S
C920 C921 1.386 . S
C920 C922 1.391 . S
C921 C920 1.386 . S
C921 C925 1.393 . S
C922 H914 0.950 . S
C922 C920 1.391 . S
C922 C923 1.400 . S
C923 C922 1.400 . S
C923 C924 1.398 . S
C923 C929 1.491 1_554 S
C924 H915 0.950 . S
C924 C923 1.398 . S
C924 C925 1.391 . S
C925 H913 0.950 . S
C925 C921 1.393 . S
C925 C924 1.391 . S
C926 H916 0.950 . S
C926 C927 1.386 . S
C926 C928 1.391 . S
C927 C926 1.386 . S
C927 C931 1.393 . S
C928 H917 0.950 . S
C928 C926 1.391 . S
C928 C929 1.400 . S
C929 C923 1.491 1_556 S
C929 C928 1.400 . S
C929 C930 1.398 . S
C930 H918 0.950 . S
C930 C929 1.398 . S
C930 C931 1.391 . S
C931 H919 0.950 . S
C931 C927 1.393 . S
C931 C930 1.391 . S
H932 C940 0.950 . S
H933 C945 0.950 . S
H934 C942 0.948 1_556 S
H935 C944 0.950 . S
H936 C946 0.950 . S
H937 C948 0.950 . S
H938 C950 0.950 . S
H939 C951 0.950 . S
C940 H932 0.950 . S
C940 C941 1.386 . S
C940 C942 1.391 . S
C941 C940 1.386 . S
C941 C945 1.393 . S
C942 H934 0.948 1_554 S
C942 C940 1.391 . S
C942 C943 1.400 . S
C943 C942 1.400 . S
C943 C944 1.398 . S
C943 C949 1.491 1_554 S
C944 H935 0.950 . S
C944 C943 1.398 . S
C944 C945 1.391 . S
C945 H933 0.950 . S
C945 C941 1.393 . S
C945 C944 1.391 . S
C946 H936 0.950 . S
C946 C947 1.386 . S
C946 C948 1.391 . S
C947 C946 1.386 . S
C947 C951 1.393 . S
C948 H937 0.950 . S
C948 C946 1.391 . S
C948 C949 1.400 . S
C949 C943 1.491 1_556 S
C949 C948 1.400 . S
C949 C950 1.398 . S
C950 H938 0.950 . S
C950 C949 1.398 . S
C950 C951 1.391 . S
C951 H939 0.950 . S
C951 C947 1.393 . S
C951 C950 1.391 . S
H952 C960 0.950 . S
H953 C965 0.950 . S
H954 C962 0.950 . S
H955 C964 0.950 . S
H956 C966 0.950 . S
H957 C968 0.950 . S
H958 C970 0.942 1_554 S
H959 C971 0.950 . S
C960 H952 0.950 . S
C960 C961 1.386 . S
C960 C962 1.391 . S
C961 C960 1.386 . S
C961 C965 1.393 . S
C962 H954 0.950 . S
C962 C960 1.391 . S
C962 C963 1.400 . S
C963 C962 1.400 . S
C963 C964 1.398 . S
C963 C969 1.491 1_554 S
C964 H955 0.950 . S
C964 C963 1.398 . S
C964 C965 1.391 . S
C965 H953 0.950 . S
C965 C961 1.393 . S
C965 C964 1.391 . S
C966 H956 0.950 . S
C966 C967 1.386 . S
C966 C968 1.391 . S
C967 C966 1.386 . S
C967 C971 1.393 . S
C968 H957 0.950 . S
C968 C966 1.391 . S
C968 C969 1.400 . S
C969 C963 1.491 1_556 S
C969 C968 1.400 . S
C969 C970 1.398 . S
C970 H958 0.942 1_556 S
C970 C969 1.398 . S
C970 C971 1.391 . S
C971 H959 0.950 . S
C971 C967 1.393 . S
C971 C970 1.391 . S
H972 C980 0.950 . S
H973 C985 0.950 . S
H974 C982 0.950 . S
H975 C984 0.950 . S
H976 C986 0.950 . S
H977 C988 0.950 . S
H978 C990 0.950 . S
H979 C991 0.950 . S
C980 H972 0.950 . S
C980 C981 1.386 . S
C980 C982 1.391 . S
C981 C980 1.386 . S
C981 C985 1.393 . S
C982 H974 0.950 . S
C982 C980 1.391 . S
C982 C983 1.400 . S
C983 C982 1.400 . S
C983 C984 1.398 . S
C983 C989 1.491 1_556 S
C984 H975 0.950 . S
C984 C983 1.398 . S
C984 C985 1.391 . S
C985 H973 0.950 . S
C985 C981 1.393 . S
C985 C984 1.391 . S
C986 H976 0.950 . S
C986 C987 1.386 . S
C986 C988 1.391 . S
C987 C986 1.386 . S
C987 C991 1.393 . S
C988 H977 0.950 . S
C988 C986 1.391 . S
C988 C989 1.400 . S
C989 C983 1.491 1_554 S
C989 C988 1.400 . S
C989 C990 1.398 . S
C990 H978 0.950 . S
C990 C989 1.398 . S
C990 C991 1.391 . S
C991 H979 0.950 . S
C991 C987 1.393 . S
C991 C990 1.391 . S
H992 C1000 0.950 . S
H993 C1005 0.950 . S
H994 C1002 0.950 . S
H995 C1004 0.950 . S
H996 C1006 0.950 . S
H997 C1008 0.950 . S
H998 C1010 0.950 . S
H999 C1011 0.950 . S
C1000 H992 0.950 . S
C1000 C1001 1.386 . S
C1000 C1002 1.391 . S
C1001 C1000 1.386 . S
C1001 C1005 1.393 . S
C1002 H994 0.950 . S
C1002 C1000 1.391 . S
C1002 C1003 1.400 . S
C1003 C1002 1.400 . S
C1003 C1004 1.398 . S
C1003 C1009 1.491 . S
C1004 H995 0.950 . S
C1004 C1003 1.398 . S
C1004 C1005 1.391 . S
C1005 H993 0.950 . S
C1005 C1001 1.393 . S
C1005 C1004 1.391 . S
C1006 H996 0.950 . S
C1006 C1007 1.386 . S
C1006 C1008 1.391 . S
C1007 C1006 1.386 . S
C1007 C1011 1.393 . S
C1008 H997 0.950 . S
C1008 C1006 1.391 . S
C1008 C1009 1.400 . S
C1009 C1003 1.491 . S
C1009 C1008 1.400 . S
C1009 C1010 1.398 . S
C1010 H998 0.950 . S
C1010 C1009 1.398 . S
C1010 C1011 1.391 . S
C1011 H999 0.950 . S
C1011 C1007 1.393 . S
C1011 C1010 1.391 . S
H1012 C1020 0.950 . S
H1013 C1025 0.950 . S
H1014 C1022 0.950 . S
H1015 C1024 0.950 . S
H1016 C1026 0.950 . S
H1017 C1028 0.950 . S
H1018 C1030 0.950 . S
H1019 C1031 0.950 . S
C1020 H1012 0.950 . S
C1020 C1021 1.386 . S
C1020 C1022 1.391 . S
C1021 C1020 1.386 . S
C1021 C1025 1.393 . S
C1022 H1014 0.950 . S
C1022 C1020 1.391 . S
C1022 C1023 1.400 . S
C1023 C1022 1.400 . S
C1023 C1024 1.398 . S
C1023 C1029 1.491 . S
C1024 H1015 0.950 . S
C1024 C1023 1.398 . S
C1024 C1025 1.391 . S
C1025 H1013 0.950 . S
C1025 C1021 1.393 . S
C1025 C1024 1.391 . S
C1026 H1016 0.950 . S
C1026 C1027 1.386 . S
C1026 C1028 1.391 . S
C1027 C1026 1.386 . S
C1027 C1031 1.393 . S
C1028 H1017 0.950 . S
C1028 C1026 1.391 . S
C1028 C1029 1.400 . S
C1029 C1023 1.491 . S
C1029 C1028 1.400 . S
C1029 C1030 1.398 . S
C1030 H1018 0.950 . S
C1030 C1029 1.398 . S
C1030 C1031 1.391 . S
C1031 H1019 0.950 . S
C1031 C1027 1.393 . S
C1031 C1030 1.391 . S
H1032 C1040 0.950 . S
H1033 C1045 0.950 . S
H1034 C1042 0.950 . S
H1035 C1044 0.950 . S
H1036 C1046 0.950 . S
H1037 C1048 0.950 . S
H1038 C1050 0.950 . S
H1039 C1051 0.950 . S
C1040 H1032 0.950 . S
C1040 C1041 1.386 . S
C1040 C1042 1.391 . S
C1041 C1040 1.386 . S
C1041 C1045 1.393 . S
C1042 H1034 0.950 . S
C1042 C1040 1.391 . S
C1042 C1043 1.400 . S
C1043 C1042 1.400 . S
C1043 C1044 1.398 . S
C1043 C1049 1.491 . S
C1044 H1035 0.950 . S
C1044 C1043 1.398 . S
C1044 C1045 1.391 . S
C1045 H1033 0.950 . S
C1045 C1041 1.393 . S
C1045 C1044 1.391 . S
C1046 H1036 0.950 . S
C1046 C1047 1.386 . S
C1046 C1048 1.391 . S
C1047 C1046 1.386 . S
C1047 C1051 1.393 . S
C1048 H1037 0.950 . S
C1048 C1046 1.391 . S
C1048 C1049 1.400 . S
C1049 C1043 1.491 . S
C1049 C1048 1.400 . S
C1049 C1050 1.398 . S
C1050 H1038 0.950 . S
C1050 C1049 1.398 . S
C1050 C1051 1.391 . S
C1051 H1039 0.950 . S
C1051 C1047 1.393 . S
C1051 C1050 1.391 . S
H1052 C1060 0.950 . S
H1053 C1065 0.950 . S
H1054 C1062 0.950 . S
H1055 C1064 0.950 . S
H1056 C1066 0.950 . S
H1057 C1068 0.950 . S
H1058 C1070 0.950 . S
H1059 C1071 0.950 . S
C1060 H1052 0.950 . S
C1060 C1061 1.386 . S
C1060 C1062 1.391 . S
C1061 C1060 1.386 . S
C1061 C1065 1.393 . S
C1062 H1054 0.950 . S
C1062 C1060 1.391 . S
C1062 C1063 1.400 . S
C1063 C1062 1.400 . S
C1063 C1064 1.398 . S
C1063 C1069 1.491 . S
C1064 H1055 0.950 . S
C1064 C1063 1.398 . S
C1064 C1065 1.391 . S
C1065 H1053 0.950 . S
C1065 C1061 1.393 . S
C1065 C1064 1.391 . S
C1066 H1056 0.950 . S
C1066 C1067 1.386 . S
C1066 C1068 1.391 . S
C1067 C1066 1.386 . S
C1067 C1071 1.393 . S
C1068 H1057 0.950 . S
C1068 C1066 1.391 . S
C1068 C1069 1.400 . S
C1069 C1063 1.491 . S
C1069 C1068 1.400 . S
C1069 C1070 1.398 . S
C1070 H1058 0.950 . S
C1070 C1069 1.398 . S
C1070 C1071 1.391 . S
C1071 H1059 0.950 . S
C1071 C1067 1.393 . S
C1071 C1070 1.391 . S
H1072 C1080 0.950 . S
H1073 C1085 0.950 . S
H1074 C1082 0.950 . S
H1075 C1084 0.950 . S
H1076 C1086 0.950 . S
H1077 C1088 0.950 . S
H1078 C1090 0.950 . S
H1079 C1091 0.950 . S
C1080 H1072 0.950 . S
C1080 C1081 1.386 . S
C1080 C1082 1.391 . S
C1081 C1080 1.386 . S
C1081 C1085 1.393 . S
C1082 H1074 0.950 . S
C1082 C1080 1.391 . S
C1082 C1083 1.400 . S
C1083 C1082 1.400 . S
C1083 C1084 1.398 . S
C1083 C1089 1.491 1_455 S
C1084 H1075 0.950 . S
C1084 C1083 1.398 . S
C1084 C1085 1.391 . S
C1085 H1073 0.950 . S
C1085 C1081 1.393 . S
C1085 C1084 1.391 . S
C1086 H1076 0.950 . S
C1086 C1087 1.386 . S
C1086 C1088 1.391 . S
C1087 C1086 1.386 . S
C1087 C1091 1.393 . S
C1088 H1077 0.950 . S
C1088 C1086 1.391 . S
C1088 C1089 1.400 . S
C1089 C1083 1.491 1_655 S
C1089 C1088 1.400 . S
C1089 C1090 1.398 . S
C1090 H1078 0.950 . S
C1090 C1089 1.398 . S
C1090 C1091 1.391 . S
C1091 H1079 0.950 . S
C1091 C1087 1.393 . S
C1091 C1090 1.391 . S
H1092 C1100 0.950 . S
H1093 C1105 0.950 . S
H1094 C1102 0.950 . S
H1095 C1104 0.950 . S
H1096 C1106 0.950 . S
H1097 C1108 0.950 . S
H1098 C1110 0.950 . S
H1099 C1111 0.950 . S
C1100 H1092 0.950 . S
C1100 C1101 1.386 . S
C1100 C1102 1.391 . S
C1101 C1100 1.386 . S
C1101 C1105 1.393 . S
C1102 H1094 0.950 . S
C1102 C1100 1.391 . S
C1102 C1103 1.400 . S
C1103 C1102 1.400 . S
C1103 C1104 1.398 . S
C1103 C1109 1.491 1_655 S
C1104 H1095 0.950 . S
C1104 C1103 1.398 . S
C1104 C1105 1.391 . S
C1105 H1093 0.950 . S
C1105 C1101 1.393 . S
C1105 C1104 1.391 . S
C1106 H1096 0.950 . S
C1106 C1107 1.386 . S
C1106 C1108 1.391 . S
C1107 C1106 1.386 . S
C1107 C1111 1.393 . S
C1108 H1097 0.950 . S
C1108 C1106 1.391 . S
C1108 C1109 1.400 . S
C1109 C1103 1.491 1_455 S
C1109 C1108 1.400 . S
C1109 C1110 1.398 . S
C1110 H1098 0.950 . S
C1110 C1109 1.398 . S
C1110 C1111 1.391 . S
C1111 H1099 0.950 . S
C1111 C1107 1.393 . S
C1111 C1110 1.391 . S
H1112 C1120 0.950 . S
H1113 C1125 0.950 . S
H1114 C1122 0.950 . S
H1115 C1124 0.950 . S
H1116 C1126 0.950 . S
H1117 C1128 0.950 . S
H1118 C1130 0.950 . S
H1119 C1131 0.950 . S
C1120 H1112 0.950 . S
C1120 C1121 1.386 . S
C1120 C1122 1.391 . S
C1121 C1120 1.386 . S
C1121 C1125 1.393 . S
C1122 H1114 0.950 . S
C1122 C1120 1.391 . S
C1122 C1123 1.400 . S
C1123 C1122 1.400 . S
C1123 C1124 1.398 . S
C1123 C1129 1.491 . S
C1124 H1115 0.950 . S
C1124 C1123 1.398 . S
C1124 C1125 1.391 . S
C1125 H1113 0.950 . S
C1125 C1121 1.393 . S
C1125 C1124 1.391 . S
C1126 H1116 0.950 . S
C1126 C1127 1.386 . S
C1126 C1128 1.391 . S
C1127 C1126 1.386 . S
C1127 C1131 1.393 . S
C1128 H1117 0.950 . S
C1128 C1126 1.391 . S
C1128 C1129 1.400 . S
C1129 C1123 1.491 . S
C1129 C1128 1.400 . S
C1129 C1130 1.398 . S
C1130 H1118 0.950 . S
C1130 C1129 1.398 . S
C1130 C1131 1.391 . S
C1131 H1119 0.950 . S
C1131 C1127 1.393 . S
C1131 C1130 1.391 . S
H1132 C1140 0.950 . S
H1133 C1145 0.950 . S
H1134 C1142 0.950 . S
H1135 C1144 0.950 . S
H1136 C1146 0.950 . S
H1137 C1148 0.950 . S
H1138 C1150 0.950 . S
H1139 C1151 0.950 . S
C1140 H1132 0.950 . S
C1140 C1141 1.386 . S
C1140 C1142 1.391 . S
C1141 C1140 1.386 . S
C1141 C1145 1.393 . S
C1142 H1134 0.950 . S
C1142 C1140 1.391 . S
C1142 C1143 1.400 . S
C1143 C1142 1.400 . S
C1143 C1144 1.398 . S
C1143 C1149 1.491 . S
C1144 H1135 0.950 . S
C1144 C1143 1.398 . S
C1144 C1145 1.391 . S
C1145 H1133 0.950 . S
C1145 C1141 1.393 . S
C1145 C1144 1.391 . S
C1146 H1136 0.950 . S
C1146 C1147 1.386 . S
C1146 C1148 1.391 . S
C1147 C1146 1.386 . S
C1147 C1151 1.393 . S
C1148 H1137 0.950 . S
C1148 C1146 1.391 . S
C1148 C1149 1.400 . S
C1149 C1143 1.491 . S
C1149 C1148 1.400 . S
C1149 C1150 1.398 . S
C1150 H1138 0.950 . S
C1150 C1149 1.398 . S
C1150 C1151 1.391 . S
C1151 H1139 0.950 . S
C1151 C1147 1.393 . S
C1151 C1150 1.391 . S
C681 C63 1.495 . S
C687 C660 1.494 . S
C701 C576 1.492 . S
C707 C147 1.491 . S
C721 C483 1.483 . S
C727 C240 1.482 . S
C741 C399 1.494 . S
C747 C324 1.493 . S
C761 C243 1.491 . S
C767 C75 1.545 . S
C781 C159 1.544 . S
C787 C327 1.492 . S
C801 C318 1.554 . S
C807 C150 1.487 . S
C821 C234 1.556 . S
C827 C66 1.475 . S
C841 C411 1.461 . S
C847 C579 1.483 . S
C861 C495 1.480 . S
C867 C663 1.459 . S
C881 C654 1.459 . S
C887 C486 1.480 . S
C901 C570 1.482 . S
C907 C402 1.461 . S
C921 C67 1.883 . S
C927 C56 1.883 . S
C941 C151 1.884 . S
C947 C140 1.884 . S
C961 C235 1.865 . S
C967 C224 1.865 . S
C981 C308 1.868 . S
C987 C319 1.868 . S
C1001 C392 1.865 . S
C1007 C403 1.865 . S
C1021 C487 1.883 . S
C1027 C476 1.883 . S
C1041 C560 1.880 . S
C1047 C571 1.880 . S
C1061 C644 1.884 . S
C1067 C655 1.884 . S
C1081 C72 1.755 . S
C1087 C156 1.769 . S
C1101 C315 1.750 . S
C1107 C231 1.734 . S
C1121 C408 1.769 . S
C1127 C492 1.752 . S
C1141 C651 1.760 . S
C1147 C567 1.740 . S
