# Generated by pormake.
# Topology lon, (4)-cn, num edge types: 1
# Building blocks:
#     Node 0, Type 0, BuildingBlock: CEKHIL_clean_sbu_0, # of connection points: 4
#     Node 1, Type 0, BuildingBlock: CEKHIL_clean_sbu_0, # of connection points: 4
#     Node 2, Type 0, BuildingBlock: CEKHIL_clean_sbu_0, # of connection points: 4
#     Node 3, Type 0, BuildingBlock: CEKHIL_clean_sbu_0, # of connection points: 4
#     Edge 4, Type (0, 0), BuildingBlock: XUDNAN_clean_linker_2, # of connection points: 2
#     Edge 5, Type (0, 0), BuildingBlock: XUDNAN_clean_linker_2, # of connection points: 2
#     Edge 6, Type (0, 0), BuildingBlock: XUDNAN_clean_linker_2, # of connection points: 2
#     Edge 7, Type (0, 0), BuildingBlock: XUDNAN_clean_linker_2, # of connection points: 2
#     Edge 8, Type (0, 0), BuildingBlock: XUDNAN_clean_linker_2, # of connection points: 2
#     Edge 9, Type (0, 0), BuildingBlock: XUDNAN_clean_linker_2, # of connection points: 2
#     Edge 10, Type (0, 0), BuildingBlock: XUDNAN_clean_linker_2, # of connection points: 2
#     Edge 11, Type (0, 0), BuildingBlock: XUDNAN_clean_linker_2, # of connection points: 2
# Relax obj value: 0.141
# Max RMSD: 0.174
# Mean RMSD: 0.173
data_MOF--net-lon--node1-CEKHIL_clean_sbu_0--edge1-XUDNAN_clean_linker_2
_symmetry_space_group_name_H-M    P1
_symmetry_Int_Tables_number       1
_symmetry_cell_setting            triclinic
loop_
_symmetry_equiv_pos_as_xyz
'x, y, z'
_cell_length_a     22.492231
_cell_length_b     24.353087
_cell_length_c     40.16992
_cell_angle_alpha  91.637411
_cell_angle_beta   89.578522
_cell_angle_gamma 117.29633
loop_
_atom_site_label
_atom_site_type_symbol
_atom_site_fract_x
_atom_site_fract_y
_atom_site_fract_z
_atom_type_partial_charge
Co0 Co 0.38905 0.71065 0.08723 0.0
O1 O 0.3635 0.7363 0.12929 0.0
O2 O 0.39424 0.66262 0.12333 0.0
C3 C 0.4577 0.80762 0.07016 0.0
O4 O 0.42279 0.67116 0.05116 0.0
Co5 Co 0.36581 0.74292 1.01662 0.0
O6 O 0.42973 0.71217 1.00125 0.0
C7 C 0.25321 0.64389 0.05252 0.0
C8 C 0.37683 0.69557 0.14322 0.0
C9 C 0.44102 0.67736 0.02049 0.0
O10 O 0.29255 0.64863 0.07695 0.0
O11 O 0.27243 0.67955 0.0276 0.0
O12 O 0.47881 0.78073 0.09118 0.0
O13 O 0.39572 0.77685 0.06124 0.0
Co14 Co 0.66457 0.35806 0.58946 0.0
O15 O 0.60294 0.32375 0.62581 0.0
O16 O 0.7099 0.34691 0.62797 0.0
C17 C 0.63126 0.4309 0.57824 0.0
O18 O 0.74488 0.39587 0.55791 0.0
Co19 Co 0.61484 0.35753 0.51748 0.0
O20 O 0.7108 0.4022 0.50624 0.0
C21 C 0.60432 0.24179 0.54487 0.0
C22 C 0.65288 0.3271 0.64324 0.0
C23 C 0.75676 0.41067 0.5271 0.0
O24 O 0.63968 0.27171 0.57065 0.0
O25 O 0.58458 0.2671 0.52297 0.0
O26 O 0.67473 0.44049 0.60166 0.0
O27 O 0.60703 0.37712 0.56367 0.0
Co28 Co 0.33473 0.68139 0.44448 0.0
O29 O 0.31609 0.70914 0.4024 0.0
O30 O 0.39563 0.68175 0.41043 0.0
C31 C 0.2267 0.61443 0.45581 0.0
O32 O 0.36959 0.64689 0.48113 0.0
Co33 Co 0.28072 0.69577 0.51366 0.0
O34 O 0.32551 0.64888 0.53117 0.0
C35 C 0.395 0.80298 0.48454 0.0
C36 C 0.36359 0.69879 0.38977 0.0
C37 C 0.36328 0.63567 0.51242 0.0
O38 O 0.39797 0.7695 0.45969 0.0
O39 O 0.34979 0.78309 0.5069 0.0
O40 O 0.26144 0.59892 0.4351 0.0
O41 O 0.25638 0.67058 0.46749 0.0
Co42 Co 0.68374 0.30709 0.94442 0.0
O43 O 0.62001 0.2721 0.90837 0.0
O44 O 0.72414 0.34385 0.90219 0.0
C45 C 0.66024 0.21487 0.96709 0.0
O46 O 0.76521 0.35253 0.97539 0.0
Co47 Co 0.63825 0.29094 0.01785 0.0
O48 O 0.73489 0.32323 0.02794 0.0
C49 C 0.61716 0.37964 0.97692 0.0
C50 C 0.66668 0.30734 0.88843 0.0
C51 C 0.77961 0.35168 1.00638 0.0
O52 O 0.65281 0.37267 0.9534 0.0
O53 O 0.60133 0.34742 1.00318 0.0
O54 O 0.70177 0.23544 0.94247 0.0
O55 O 0.63121 0.24808 0.97568 0.0
H56 H 0.32385 0.74151 0.19348 0.0
H57 H 0.4354 0.63761 0.17641 0.0
H58 H 0.44707 0.63197 0.23678 0.0
H59 H 0.41581 0.82907 0.26644 0.0
H60 H 0.34343 0.82436 0.28831 0.0
H61 H 0.34404 0.82209 0.24343 0.0
H62 H 0.23536 0.7182 0.24258 0.0
H63 H 0.23414 0.72042 0.28744 0.0
H64 H 0.23251 0.65428 0.26533 0.0
H65 H 0.45201 0.64067 0.29817 0.0
H66 H 0.43801 0.65186 0.35825 0.0
H67 H 0.31649 0.74383 0.33843 0.0
C68 C 0.35049 0.71744 0.20253 0.0
C69 C 0.3789 0.69015 0.18 0.0
C70 C 0.413 0.65876 0.19293 0.0
C71 C 0.42028 0.65554 0.2273 0.0
C72 C 0.39247 0.68324 0.24876 0.0
C73 C 0.35728 0.71275 0.2371 0.0
C74 C 0.33042 0.73638 0.26611 0.0
C75 C 0.36021 0.80719 0.26606 0.0
C76 C 0.25354 0.70546 0.26531 0.0
C77 C 0.35622 0.71552 0.2957 0.0
C78 C 0.39273 0.68582 0.28485 0.0
C79 C 0.42313 0.66343 0.30701 0.0
C80 C 0.41508 0.67035 0.34121 0.0
C81 C 0.37607 0.69865 0.35328 0.0
C82 C 0.34657 0.72194 0.33007 0.0
H83 H 0.74987 0.36702 0.69294 0.0
H84 H 0.53689 0.25603 0.67506 0.0
H85 H 0.51896 0.2383 0.73521 0.0
H86 H 0.76395 0.27715 0.76184 0.0
H87 H 0.8228 0.34452 0.78501 0.0
H88 H 0.8202 0.34529 0.7402 0.0
H89 H 0.80246 0.44307 0.74392 0.0
H90 H 0.80445 0.44231 0.78872 0.0
H91 H 0.73351 0.44159 0.76774 0.0
H92 H 0.52232 0.23501 0.79682 0.0
H93 H 0.54661 0.24529 0.85689 0.0
H94 H 0.75733 0.36106 0.8371 0.0
C95 C 0.69971 0.33808 0.70169 0.0
C96 C 0.64475 0.31242 0.67918 0.0
C97 C 0.57972 0.27596 0.69172 0.0
C98 C 0.56901 0.26563 0.72589 0.0
C99 C 0.62377 0.29241 0.74747 0.0
C100 C 0.68792 0.32782 0.73601 0.0
C101 C 0.7373 0.35319 0.76501 0.0
C102 C 0.78913 0.32856 0.76288 0.0
C103 C 0.77143 0.42426 0.76642 0.0
C104 C 0.69071 0.32667 0.79443 0.0
C105 C 0.62554 0.29155 0.78353 0.0
C106 C 0.57317 0.26226 0.80566 0.0
C107 C 0.58758 0.2685 0.83984 0.0
C108 C 0.65387 0.30405 0.85191 0.0
C109 C 0.70611 0.33378 0.82875 0.0
H110 H 0.42217 0.56462 0.041 0.0
H111 H 0.5314 0.70514 0.96928 0.0
H112 H 0.58577 0.64266 0.94798 0.0
H113 H 0.54818 0.52362 0.06114 0.0
H114 H 0.49242 0.44207 0.06346 0.0
H115 H 0.46159 0.49735 0.07194 0.0
H116 H 0.36993 0.44401 0.02658 0.0
H117 H 0.40066 0.38859 0.01789 0.0
H118 H 0.39383 0.43388 0.98481 0.0
H119 H 0.6317 0.56461 0.93635 0.0
H120 H 0.66365 0.4797 0.93561 0.0
H121 H 0.52053 0.39066 1.01406 0.0
C122 C 0.4576 0.58237 0.02083 0.0
C123 C 0.473 0.64 1.00697 0.0
C124 C 0.51882 0.66105 0.98024 0.0
C125 C 0.54992 0.62587 0.968 0.0
C126 C 0.53365 0.56917 0.98234 0.0
C127 C 0.48796 0.54742 1.00796 0.0
C128 C 0.47829 0.48499 0.01901 0.0
C129 C 0.49624 0.4872 0.05608 0.0
C130 C 0.40642 0.43492 1.01163 0.0
C131 C 0.52794 0.4761 0.99674 0.0
C132 C 0.55886 0.52454 0.97537 0.0
C133 C 0.60737 0.52632 0.95287 0.0
C134 C 0.62512 0.47779 0.95255 0.0
C135 C 0.59487 0.4284 0.9748 0.0
C136 C 0.54504 0.42767 0.99678 0.0
H137 H 0.15342 0.62075 0.50972 0.0
H138 H 0.14031 0.51332 0.41951 0.0
H139 H 0.0199 0.44786 0.42948 0.0
H140 H 0.03534 0.48752 0.55789 0.0
H141 H 1.00058 0.53194 0.57953 0.0
H142 H 0.08644 0.5691 0.56608 0.0
H143 H 0.06338 0.64798 0.53381 0.0
H144 H 0.97745 0.6109 0.54696 0.0
H145 H 0.99695 0.62036 0.50324 0.0
H146 H 0.90006 0.40155 0.44568 0.0
H147 H 0.78866 0.36879 0.47039 0.0
H148 H 0.87821 0.49922 0.55311 0.0
C149 C 0.12525 0.58298 0.4923 0.0
C150 C 0.15611 0.57215 0.46374 0.0
C151 C 0.11778 0.52223 0.44159 0.0
C152 C 0.04932 0.48494 0.447 0.0
C153 C 0.02017 0.49733 0.47507 0.0
C154 C 0.05697 0.54432 0.49774 0.0
C155 C 1.01298 0.54734 0.52594 0.0
C156 C 0.03516 0.53312 0.55934 0.0
C157 C 1.01269 0.61039 0.52757 0.0
C158 C 0.94532 0.49594 0.515 0.0
C159 C 0.9509 0.46807 0.48546 0.0
C160 C 0.89521 0.42225 0.46908 0.0
C161 C 0.83213 0.40421 0.48322 0.0
C162 C 0.82496 0.43116 0.51372 0.0
C163 C 0.88247 0.47724 0.53003 0.0
H164 H 0.54038 0.13328 0.99273 0.0
H165 H 0.74353 0.16265 0.97705 0.0
H166 H 0.71571 0.06317 1.0038 0.0
H167 H 0.51032 0.05764 0.07156 0.0
H168 H 0.42517 1.00312 0.06129 0.0
H169 H 0.46271 0.07824 0.04309 0.0
H170 H 0.43497 0.0268 0.98406 0.0
H171 H 0.39735 0.95156 1.00207 0.0
H172 H 0.46366 0.97104 0.97218 0.0
H173 H 0.66487 0.96064 0.03423 0.0
H174 H 0.5931 0.85968 0.05953 0.0
H175 H 0.42114 0.89368 0.04963 0.0
C176 C 0.57915 0.11899 0.99525 0.0
C177 C 0.64437 0.15586 0.98327 0.0
C178 C 0.69337 0.13506 0.98623 0.0
C179 C 0.67801 0.07879 1.00147 0.0
C180 C 0.61302 0.04329 1.01296 0.0
C181 C 0.56415 0.06225 1.0095 0.0
C182 C 0.49709 0.01398 0.0218 0.0
C183 C 0.47239 0.0398 0.05118 0.0
C184 C 0.44523 0.98939 0.99333 0.0
C185 C 0.51573 0.96493 0.03293 0.0
C186 C 0.58304 0.983 0.02819 0.0
C187 C 0.61202 0.9459 0.03774 0.0
C188 C 0.57102 0.88878 0.05218 0.0
C189 C 0.50162 0.86876 0.05623 0.0
C190 C 0.47394 0.90751 0.04644 0.0
H191 H 0.56247 0.43549 0.52315 0.0
H192 H 0.63329 0.52147 0.62062 0.0
H193 H 0.57243 0.58321 0.61426 0.0
H194 H 0.57474 0.57565 0.48436 0.0
H195 H 0.50111 0.53286 0.45898 0.0
H196 H 0.55226 0.4973 0.47086 0.0
H197 H 0.44834 0.40703 0.49617 0.0
H198 H 0.39704 0.44266 0.48477 0.0
H199 H 0.40051 0.42355 0.5275 0.0
H200 H 0.49429 0.62711 0.59974 0.0
H201 H 0.41792 0.66213 0.57474 0.0
H202 H 0.4048 0.55434 0.48471 0.0
C203 C 0.56596 0.46803 0.54292 0.0
C204 C 0.60252 0.4737 0.57243 0.0
C205 C 0.60597 0.51672 0.59774 0.0
C206 C 0.57123 0.5517 0.59442 0.0
C207 C 0.53431 0.54395 0.56536 0.0
C208 C 0.53269 0.50424 0.53972 0.0
C209 C 0.48976 0.50506 0.51095 0.0
C210 C 0.532 0.52917 0.47942 0.0
C211 C 0.4304 0.44075 0.50448 0.0
C212 C 0.46642 0.55052 0.52468 0.0
C213 C 0.49209 0.57181 0.55628 0.0
C214 C 0.47473 0.61149 0.57482 0.0
C215 C 0.43091 0.63074 0.56051 0.0
C216 C 0.4057 0.61118 0.52776 0.0
C217 C 0.42385 0.57053 0.50967 0.0
H218 H 0.16124 0.61188 1.00167 0.0
H219 H 0.1845 0.56292 0.10217 0.0
H220 H 0.06705 0.48082 0.10057 0.0
H221 H 0.9937 0.58968 1.00996 0.0
H222 H 0.96927 0.55823 0.96826 0.0
H223 H 0.05511 0.61215 0.9773 0.0
H224 H 0.09292 0.53308 0.95374 0.0
H225 H 1.00714 0.47879 0.94471 0.0
H226 H 0.05755 0.45662 0.97035 0.0
H227 H 0.94572 0.4056 0.08819 0.0
H228 H 0.8311 0.34352 0.06656 0.0
H229 H 0.88811 0.4409 0.9736 0.0
C230 C 0.14197 0.5841 0.02348 0.0
C231 C 0.18252 0.59428 0.05217 0.0
C232 C 0.15477 0.55628 0.07993 0.0
C233 C 0.08805 0.50946 0.07922 0.0
C234 C 0.04975 0.50089 0.05051 0.0
C235 C 0.07584 0.53714 0.02313 0.0
C236 C 0.02432 0.51892 0.99536 0.0
C237 C 1.00975 0.57296 0.98726 0.0
C238 C 0.04684 0.49545 0.9642 0.0
C239 C 0.96465 0.46699 1.01145 0.0
C240 C 0.98042 0.45728 0.04324 0.0
C241 C 0.93304 0.41274 0.0633 0.0
C242 C 0.86787 0.3777 0.05072 0.0
C243 C 0.85019 0.38703 0.01826 0.0
C244 C 0.89982 0.43207 0.99835 0.0
H245 H 0.5183 0.16242 0.49763 0.0
H246 H 0.64907 0.17012 0.57857 0.0
H247 H 0.6199 0.0602 0.56677 0.0
H248 H 0.38957 0.01344 0.51277 0.0
H249 H 0.3699 0.99276 0.46934 0.0
H250 H 0.40517 0.07249 0.483 0.0
H251 H 0.5013 0.09973 0.44052 0.0
H252 H 0.46676 0.01974 0.42708 0.0
H253 H 0.55214 0.06019 0.44164 0.0
H254 H 0.57145 0.94757 0.54757 0.0
H255 H 0.50073 0.84067 0.52628 0.0
H256 H 0.40234 0.90781 0.45816 0.0
C257 C 0.54147 0.14148 0.51284 0.0
C258 C 0.58642 0.17536 0.53901 0.0
C259 C 0.61459 0.14537 0.55841 0.0
C260 C 0.59866 0.08304 0.55172 0.0
C261 C 0.5546 0.0514 0.52551 0.0
C262 C 0.5261 0.07965 0.50657 0.0
C263 C 0.47707 0.03489 0.48115 0.0
C264 C 0.40625 0.02798 0.48693 0.0
C265 C 0.50076 0.05485 0.44549 0.0
C266 C 0.48108 0.97632 0.48913 0.0
C267 C 0.5269 0.98698 0.51444 0.0
C268 C 0.53637 0.93905 0.52741 0.0
C269 C 0.49649 0.87862 0.515 0.0
C270 C 0.44796 0.8667 0.48989 0.0
C271 C 0.44102 0.91625 0.47642 0.0
loop_
_geom_bond_atom_site_label_1
_geom_bond_atom_site_label_2
_geom_bond_distance
_geom_bond_site_symmetry_2
_ccdc_geom_bond_type
Co0 O1 2.216 . S
Co0 O2 2.091 . S
Co0 O4 2.004 . S
Co0 O10 2.021 . S
Co0 O12 2.137 . S
Co0 O13 2.244 . S
O1 Co0 2.216 . S
O1 C8 1.247 . S
O2 Co0 2.091 . S
O2 C8 1.261 . S
C3 O12 1.247 . S
C3 O13 1.272 . S
O4 Co0 2.004 . S
O4 C9 1.259 . S
Co5 O6 2.061 1_556 S
Co5 O11 2.052 1_556 S
Co5 O13 2.135 1_556 S
O6 Co5 2.061 1_554 S
O6 C9 1.235 . S
C7 O10 1.238 . S
C7 O11 1.241 . S
C8 O1 1.247 . S
C8 O2 1.261 . S
C9 O4 1.259 . S
C9 O6 1.235 . S
O10 Co0 2.021 . S
O10 C7 1.238 . S
O11 Co5 2.052 1_554 S
O11 C7 1.241 . S
O12 Co0 2.137 . S
O12 C3 1.247 . S
O13 Co0 2.244 . S
O13 C3 1.272 . S
O13 Co5 2.135 1_554 S
Co14 O15 2.216 . S
Co14 O16 2.091 . S
Co14 O18 2.004 . S
Co14 O24 2.021 . S
Co14 O26 2.137 . S
Co14 O27 2.244 . S
O15 Co14 2.216 . S
O15 C22 1.247 . S
O16 Co14 2.091 . S
O16 C22 1.261 . S
C17 O26 1.247 . S
C17 O27 1.272 . S
O18 Co14 2.004 . S
O18 C23 1.259 . S
Co19 O20 2.061 . S
Co19 O25 2.052 . S
Co19 O27 2.135 . S
O20 Co19 2.061 . S
O20 C23 1.235 . S
C21 O24 1.238 . S
C21 O25 1.241 . S
C22 O15 1.247 . S
C22 O16 1.261 . S
C23 O18 1.259 . S
C23 O20 1.235 . S
O24 Co14 2.021 . S
O24 C21 1.238 . S
O25 Co19 2.052 . S
O25 C21 1.241 . S
O26 Co14 2.137 . S
O26 C17 1.247 . S
O27 Co14 2.244 . S
O27 C17 1.272 . S
O27 Co19 2.135 . S
Co28 O29 2.216 . S
Co28 O30 2.091 . S
Co28 O32 2.004 . S
Co28 O38 2.021 . S
Co28 O40 2.137 . S
Co28 O41 2.244 . S
O29 Co28 2.216 . S
O29 C36 1.247 . S
O30 Co28 2.091 . S
O30 C36 1.261 . S
C31 O40 1.247 . S
C31 O41 1.272 . S
O32 Co28 2.004 . S
O32 C37 1.259 . S
Co33 O34 2.061 . S
Co33 O39 2.052 . S
Co33 O41 2.135 . S
O34 Co33 2.061 . S
O34 C37 1.235 . S
C35 O38 1.238 . S
C35 O39 1.241 . S
C36 O29 1.247 . S
C36 O30 1.261 . S
C37 O32 1.259 . S
C37 O34 1.235 . S
O38 Co28 2.021 . S
O38 C35 1.238 . S
O39 Co33 2.052 . S
O39 C35 1.241 . S
O40 Co28 2.137 . S
O40 C31 1.247 . S
O41 Co28 2.244 . S
O41 C31 1.272 . S
O41 Co33 2.135 . S
Co42 O43 2.216 . S
Co42 O44 2.091 . S
Co42 O46 2.004 . S
Co42 O52 2.021 . S
Co42 O54 2.137 . S
Co42 O55 2.244 . S
O43 Co42 2.216 . S
O43 C50 1.247 . S
O44 Co42 2.091 . S
O44 C50 1.261 . S
C45 O54 1.247 . S
C45 O55 1.272 . S
O46 Co42 2.004 . S
O46 C51 1.259 . S
Co47 O48 2.061 1_554 S
Co47 O53 2.052 1_554 S
Co47 O55 2.135 1_554 S
O48 Co47 2.061 1_556 S
O48 C51 1.235 . S
C49 O52 1.238 . S
C49 O53 1.241 . S
C50 O43 1.247 . S
C50 O44 1.261 . S
C51 O46 1.259 . S
C51 O48 1.235 . S
O52 Co42 2.021 . S
O52 C49 1.238 . S
O53 Co47 2.052 1_556 S
O53 C49 1.241 . S
O54 Co42 2.137 . S
O54 C45 1.247 . S
O55 Co42 2.244 . S
O55 C45 1.272 . S
O55 Co47 2.135 1_556 S
H56 C68 0.930 . S
H57 C70 0.930 . S
H58 C71 0.930 . S
H59 C75 0.959 . S
H60 C75 0.959 . S
H61 C75 0.961 . S
H62 C76 0.960 . S
H63 C76 0.961 . S
H64 C76 0.959 . S
H65 C79 0.929 . S
H66 C80 0.931 . S
H67 C82 0.930 . S
C68 H56 0.930 . S
C68 C69 1.399 . S
C68 C73 1.399 . S
C69 C68 1.399 . S
C69 C70 1.376 . S
C70 H57 0.930 . S
C70 C69 1.376 . S
C70 C71 1.388 . S
C71 H58 0.930 . S
C71 C70 1.388 . S
C71 C72 1.390 . S
C72 C71 1.390 . S
C72 C73 1.394 . S
C72 C78 1.465 . S
C73 C68 1.399 . S
C73 C72 1.394 . S
C73 C74 1.516 . S
C74 C73 1.516 . S
C74 C75 1.502 . S
C74 C76 1.561 . S
C74 C77 1.526 . S
C75 H59 0.959 . S
C75 H60 0.959 . S
C75 H61 0.961 . S
C75 C74 1.502 . S
C76 H62 0.960 . S
C76 H63 0.961 . S
C76 H64 0.959 . S
C76 C74 1.561 . S
C77 C74 1.526 . S
C77 C78 1.396 . S
C77 C82 1.390 . S
C78 C72 1.465 . S
C78 C77 1.396 . S
C78 C79 1.399 . S
C79 H65 0.929 . S
C79 C78 1.399 . S
C79 C80 1.385 . S
C80 H66 0.931 . S
C80 C79 1.385 . S
C80 C81 1.389 . S
C81 C80 1.389 . S
C81 C82 1.387 . S
C82 H67 0.930 . S
C82 C77 1.390 . S
C82 C81 1.387 . S
H83 C95 0.930 . S
H84 C97 0.930 . S
H85 C98 0.930 . S
H86 C102 0.959 . S
H87 C102 0.959 . S
H88 C102 0.961 . S
H89 C103 0.960 . S
H90 C103 0.961 . S
H91 C103 0.959 . S
H92 C106 0.929 . S
H93 C107 0.931 . S
H94 C109 0.930 . S
C95 H83 0.930 . S
C95 C96 1.399 . S
C95 C100 1.399 . S
C96 C95 1.399 . S
C96 C97 1.376 . S
C97 H84 0.930 . S
C97 C96 1.376 . S
C97 C98 1.388 . S
C98 H85 0.930 . S
C98 C97 1.388 . S
C98 C99 1.390 . S
C99 C98 1.390 . S
C99 C100 1.394 . S
C99 C105 1.465 . S
C100 C95 1.399 . S
C100 C99 1.394 . S
C100 C101 1.516 . S
C101 C100 1.516 . S
C101 C102 1.502 . S
C101 C103 1.561 . S
C101 C104 1.526 . S
C102 H86 0.959 . S
C102 H87 0.959 . S
C102 H88 0.961 . S
C102 C101 1.502 . S
C103 H89 0.960 . S
C103 H90 0.961 . S
C103 H91 0.959 . S
C103 C101 1.561 . S
C104 C101 1.526 . S
C104 C105 1.396 . S
C104 C109 1.390 . S
C105 C99 1.465 . S
C105 C104 1.396 . S
C105 C106 1.399 . S
C106 H92 0.929 . S
C106 C105 1.399 . S
C106 C107 1.385 . S
C107 H93 0.931 . S
C107 C106 1.385 . S
C107 C108 1.389 . S
C108 C107 1.389 . S
C108 C109 1.387 . S
C109 H94 0.930 . S
C109 C104 1.390 . S
C109 C108 1.387 . S
H110 C122 0.930 . S
H111 C124 0.930 . S
H112 C125 0.930 . S
H113 C129 0.959 . S
H114 C129 0.959 . S
H115 C129 0.961 . S
H116 C130 0.960 . S
H117 C130 0.961 . S
H118 C130 0.959 . S
H119 C133 0.929 1_554 S
H120 C134 0.931 . S
H121 C136 0.930 . S
C122 H110 0.930 . S
C122 C123 1.399 1_556 S
C122 C127 1.399 . S
C123 C122 1.399 1_554 S
C123 C124 1.376 . S
C124 H111 0.930 . S
C124 C123 1.376 . S
C124 C125 1.388 . S
C125 H112 0.930 . S
C125 C124 1.388 . S
C125 C126 1.372 1_554 S
C126 C125 1.372 1_556 S
C126 C127 1.406 . S
C126 C132 1.474 . S
C127 C122 1.399 . S
C127 C126 1.406 . S
C127 C128 1.516 . S
C128 C127 1.516 . S
C128 C129 1.502 . S
C128 C130 1.561 . S
C128 C131 1.526 . S
C129 H113 0.959 . S
C129 H114 0.959 . S
C129 H115 0.961 . S
C129 C128 1.502 . S
C130 H116 0.960 . S
C130 H117 0.961 . S
C130 H118 0.959 . S
C130 C128 1.561 . S
C131 C128 1.526 . S
C131 C132 1.396 . S
C131 C136 1.390 . S
C132 C126 1.474 . S
C132 C131 1.396 . S
C132 C133 1.399 . S
C133 H119 0.929 1_556 S
C133 C132 1.399 . S
C133 C134 1.385 . S
C134 H120 0.931 . S
C134 C133 1.385 . S
C134 C135 1.389 . S
C135 C134 1.389 . S
C135 C136 1.387 . S
C136 H121 0.930 . S
C136 C131 1.390 . S
C136 C135 1.387 . S
H137 C149 0.930 . S
H138 C151 0.930 . S
H139 C152 0.930 . S
H140 C156 0.959 . S
H141 C156 0.959 . S
H142 C156 0.961 . S
H143 C157 0.960 . S
H144 C157 0.961 . S
H145 C157 0.959 . S
H146 C160 0.929 . S
H147 C161 0.931 . S
H148 C163 0.930 . S
C149 H137 0.930 . S
C149 C150 1.399 . S
C149 C154 1.399 . S
C150 C149 1.399 . S
C150 C151 1.376 . S
C151 H138 0.930 . S
C151 C150 1.376 . S
C151 C152 1.388 . S
C152 H139 0.930 . S
C152 C151 1.388 . S
C152 C153 1.390 . S
C153 C152 1.390 . S
C153 C154 1.394 . S
C153 C159 1.465 1_455 S
C154 C149 1.399 . S
C154 C153 1.394 . S
C154 C155 1.516 . S
C155 C154 1.516 . S
C155 C156 1.502 . S
C155 C157 1.561 . S
C155 C158 1.526 1_455 S
C156 H140 0.959 . S
C156 H141 0.959 . S
C156 H142 0.961 . S
C156 C155 1.502 . S
C157 H143 0.960 . S
C157 H144 0.961 . S
C157 H145 0.959 . S
C157 C155 1.561 . S
C158 C155 1.526 1_655 S
C158 C159 1.396 . S
C158 C163 1.390 . S
C159 C153 1.465 1_655 S
C159 C158 1.396 . S
C159 C160 1.399 . S
C160 H146 0.929 . S
C160 C159 1.399 . S
C160 C161 1.385 . S
C161 H147 0.931 . S
C161 C160 1.385 . S
C161 C162 1.389 . S
C162 C161 1.389 . S
C162 C163 1.387 . S
C163 H148 0.930 . S
C163 C158 1.390 . S
C163 C162 1.387 . S
H164 C176 0.930 . S
H165 C178 0.930 . S
H166 C179 0.930 . S
H167 C183 0.959 . S
H168 C183 0.959 1_565 S
H169 C183 0.961 . S
H170 C184 0.960 1_545 S
H171 C184 0.961 . S
H172 C184 0.959 . S
H173 C187 0.929 . S
H174 C188 0.931 . S
H175 C190 0.930 . S
C176 H164 0.930 . S
C176 C177 1.399 . S
C176 C181 1.399 . S
C177 C176 1.399 . S
C177 C178 1.376 . S
C178 H165 0.930 . S
C178 C177 1.376 . S
C178 C179 1.388 . S
C179 H166 0.930 . S
C179 C178 1.388 . S
C179 C180 1.390 . S
C180 C179 1.390 . S
C180 C181 1.394 . S
C180 C186 1.465 1_546 S
C181 C176 1.399 . S
C181 C180 1.394 . S
C181 C182 1.516 1_546 S
C182 C181 1.516 1_564 S
C182 C183 1.500 1_565 S
C182 C184 1.562 1_554 S
C182 C185 1.527 . S
C183 H167 0.959 . S
C183 H168 0.959 1_545 S
C183 H169 0.961 . S
C183 C182 1.500 1_545 S
C184 H170 0.960 1_565 S
C184 H171 0.961 . S
C184 H172 0.959 . S
C184 C182 1.562 1_556 S
C185 C182 1.527 . S
C185 C186 1.396 . S
C185 C190 1.390 . S
C186 C180 1.465 1_564 S
C186 C185 1.396 . S
C186 C187 1.399 . S
C187 H173 0.929 . S
C187 C186 1.399 . S
C187 C188 1.385 . S
C188 H174 0.931 . S
C188 C187 1.385 . S
C188 C189 1.389 . S
C189 C188 1.389 . S
C189 C190 1.387 . S
C190 H175 0.930 . S
C190 C185 1.390 . S
C190 C189 1.387 . S
H191 C203 0.930 . S
H192 C205 0.930 . S
H193 C206 0.930 . S
H194 C210 0.959 . S
H195 C210 0.959 . S
H196 C210 0.961 . S
H197 C211 0.960 . S
H198 C211 0.961 . S
H199 C211 0.959 . S
H200 C214 0.929 . S
H201 C215 0.931 . S
H202 C217 0.930 . S
C203 H191 0.930 . S
C203 C204 1.399 . S
C203 C208 1.399 . S
C204 C203 1.399 . S
C204 C205 1.376 . S
C205 H192 0.930 . S
C205 C204 1.376 . S
C205 C206 1.388 . S
C206 H193 0.930 . S
C206 C205 1.388 . S
C206 C207 1.390 . S
C207 C206 1.390 . S
C207 C208 1.394 . S
C207 C213 1.465 . S
C208 C203 1.399 . S
C208 C207 1.394 . S
C208 C209 1.516 . S
C209 C208 1.516 . S
C209 C210 1.502 . S
C209 C211 1.561 . S
C209 C212 1.526 . S
C210 H194 0.959 . S
C210 H195 0.959 . S
C210 H196 0.961 . S
C210 C209 1.502 . S
C211 H197 0.960 . S
C211 H198 0.961 . S
C211 H199 0.959 . S
C211 C209 1.561 . S
C212 C209 1.526 . S
C212 C213 1.396 . S
C212 C217 1.390 . S
C213 C207 1.465 . S
C213 C212 1.396 . S
C213 C214 1.399 . S
C214 H200 0.929 . S
C214 C213 1.399 . S
C214 C215 1.385 . S
C215 H201 0.931 . S
C215 C214 1.385 . S
C215 C216 1.389 . S
C216 C215 1.389 . S
C216 C217 1.387 . S
C217 H202 0.930 . S
C217 C212 1.390 . S
C217 C216 1.387 . S
H218 C230 0.942 . S
H219 C232 0.930 . S
H220 C233 0.930 . S
H221 C237 0.959 1_655 S
H222 C237 0.959 1_655 S
H223 C237 0.961 . S
H224 C238 0.960 . S
H225 C238 0.961 . S
H226 C238 0.959 . S
H227 C241 0.929 . S
H228 C242 0.931 . S
H229 C244 0.930 . S
C230 H218 0.942 . S
C230 C231 1.399 . S
C230 C235 1.399 . S
C231 C230 1.399 . S
C231 C232 1.376 . S
C232 H219 0.930 . S
C232 C231 1.376 . S
C232 C233 1.388 . S
C233 H220 0.930 . S
C233 C232 1.388 . S
C233 C234 1.390 . S
C234 C233 1.390 . S
C234 C235 1.394 . S
C234 C240 1.465 1_455 S
C235 C230 1.399 . S
C235 C234 1.394 . S
C235 C236 1.516 1_554 S
C236 C235 1.516 1_556 S
C236 C237 1.502 . S
C236 C238 1.561 . S
C236 C239 1.526 1_455 S
C237 H221 0.959 1_455 S
C237 H222 0.959 1_455 S
C237 H223 0.961 . S
C237 C236 1.502 . S
C238 H224 0.960 . S
C238 H225 0.961 . S
C238 H226 0.959 . S
C238 C236 1.561 . S
C239 C236 1.526 1_655 S
C239 C240 1.396 1_556 S
C239 C244 1.390 . S
C240 C234 1.465 1_655 S
C240 C239 1.396 1_554 S
C240 C241 1.399 . S
C241 H227 0.929 . S
C241 C240 1.399 . S
C241 C242 1.385 . S
C242 H228 0.931 . S
C242 C241 1.385 . S
C242 C243 1.389 1_554 S
C243 C242 1.389 1_556 S
C243 C244 1.387 . S
C244 H229 0.930 . S
C244 C239 1.390 . S
C244 C243 1.387 . S
H245 C257 0.930 . S
H246 C259 0.930 . S
H247 C260 0.930 . S
H248 C264 0.959 . S
H249 C264 0.959 . S
H250 C264 0.961 . S
H251 C265 0.960 . S
H252 C265 0.961 . S
H253 C265 0.959 . S
H254 C268 0.929 . S
H255 C269 0.931 . S
H256 C271 0.930 . S
C257 H245 0.930 . S
C257 C258 1.399 . S
C257 C262 1.399 . S
C258 C257 1.399 . S
C258 C259 1.376 . S
C259 H246 0.930 . S
C259 C258 1.376 . S
C259 C260 1.388 . S
C260 H247 0.930 . S
C260 C259 1.388 . S
C260 C261 1.390 . S
C261 C260 1.390 . S
C261 C262 1.394 . S
C261 C267 1.465 1_545 S
C262 C257 1.399 . S
C262 C261 1.394 . S
C262 C263 1.516 . S
C263 C262 1.516 . S
C263 C264 1.502 . S
C263 C265 1.561 . S
C263 C266 1.526 1_545 S
C264 H248 0.959 . S
C264 H249 0.959 . S
C264 H250 0.961 . S
C264 C263 1.502 . S
C265 H251 0.960 . S
C265 H252 0.961 . S
C265 H253 0.959 . S
C265 C263 1.561 . S
C266 C263 1.526 1_565 S
C266 C267 1.396 . S
C266 C271 1.390 . S
C267 C261 1.465 1_565 S
C267 C266 1.396 . S
C267 C268 1.399 . S
C268 H254 0.929 . S
C268 C267 1.399 . S
C268 C269 1.385 . S
C269 H255 0.931 . S
C269 C268 1.385 . S
C269 C270 1.389 . S
C270 C269 1.389 . S
C270 C271 1.387 . S
C271 H256 0.930 . S
C271 C266 1.390 . S
C271 C270 1.387 . S
C69 C8 1.570 . S
C81 C36 1.555 . S
C96 C22 1.579 . S
C108 C50 1.576 . S
C123 C9 1.540 . S
C135 C49 1.487 . S
C150 C31 1.562 . S
C162 C23 1.548 . S
C177 C45 1.587 . S
C189 C3 1.585 . S
C204 C17 1.561 . S
C216 C37 1.550 . S
C231 C7 1.516 . S
C243 C51 1.535 . S
C258 C21 1.497 . S
C270 C35 1.435 . S
