# Generated by pormake.
# Topology umy, (4)-cn, num edge types: 1
# Building blocks:
#     Node 0, Type 0, BuildingBlock: AZAVOO_clean_sbu_0, # of connection points: 4
#     Node 1, Type 0, BuildingBlock: AZAVOO_clean_sbu_0, # of connection points: 4
#     Node 2, Type 0, BuildingBlock: AZAVOO_clean_sbu_0, # of connection points: 4
#     Node 3, Type 0, BuildingBlock: AZAVOO_clean_sbu_0, # of connection points: 4
#     Node 4, Type 0, BuildingBlock: AZAVOO_clean_sbu_0, # of connection points: 4
#     Node 5, Type 0, BuildingBlock: AZAVOO_clean_sbu_0, # of connection points: 4
#     Node 6, Type 0, BuildingBlock: AZAVOO_clean_sbu_0, # of connection points: 4
#     Node 7, Type 0, BuildingBlock: AZAVOO_clean_sbu_0, # of connection points: 4
#     Node 8, Type 0, BuildingBlock: AZAVOO_clean_sbu_0, # of connection points: 4
#     Node 9, Type 0, BuildingBlock: AZAVOO_clean_sbu_0, # of connection points: 4
#     Node 10, Type 0, BuildingBlock: AZAVOO_clean_sbu_0, # of connection points: 4
#     Node 11, Type 0, BuildingBlock: AZAVOO_clean_sbu_0, # of connection points: 4
#     Edge 12, Type (0, 0), BuildingBlock: OJICUG_clean_linker_0, # of connection points: 2
#     Edge 13, Type (0, 0), BuildingBlock: OJICUG_clean_linker_0, # of connection points: 2
#     Edge 14, Type (0, 0), BuildingBlock: OJICUG_clean_linker_0, # of connection points: 2
#     Edge 15, Type (0, 0), BuildingBlock: OJICUG_clean_linker_0, # of connection points: 2
#     Edge 16, Type (0, 0), BuildingBlock: OJICUG_clean_linker_0, # of connection points: 2
#     Edge 17, Type (0, 0), BuildingBlock: OJICUG_clean_linker_0, # of connection points: 2
#     Edge 18, Type (0, 0), BuildingBlock: OJICUG_clean_linker_0, # of connection points: 2
#     Edge 19, Type (0, 0), BuildingBlock: OJICUG_clean_linker_0, # of connection points: 2
#     Edge 20, Type (0, 0), BuildingBlock: OJICUG_clean_linker_0, # of connection points: 2
#     Edge 21, Type (0, 0), BuildingBlock: OJICUG_clean_linker_0, # of connection points: 2
#     Edge 22, Type (0, 0), BuildingBlock: OJICUG_clean_linker_0, # of connection points: 2
#     Edge 23, Type (0, 0), BuildingBlock: OJICUG_clean_linker_0, # of connection points: 2
#     Edge 24, Type (0, 0), BuildingBlock: OJICUG_clean_linker_0, # of connection points: 2
#     Edge 25, Type (0, 0), BuildingBlock: OJICUG_clean_linker_0, # of connection points: 2
#     Edge 26, Type (0, 0), BuildingBlock: OJICUG_clean_linker_0, # of connection points: 2
#     Edge 27, Type (0, 0), BuildingBlock: OJICUG_clean_linker_0, # of connection points: 2
#     Edge 28, Type (0, 0), BuildingBlock: OJICUG_clean_linker_0, # of connection points: 2
#     Edge 29, Type (0, 0), BuildingBlock: OJICUG_clean_linker_0, # of connection points: 2
#     Edge 30, Type (0, 0), BuildingBlock: OJICUG_clean_linker_0, # of connection points: 2
#     Edge 31, Type (0, 0), BuildingBlock: OJICUG_clean_linker_0, # of connection points: 2
#     Edge 32, Type (0, 0), BuildingBlock: OJICUG_clean_linker_0, # of connection points: 2
#     Edge 33, Type (0, 0), BuildingBlock: OJICUG_clean_linker_0, # of connection points: 2
#     Edge 34, Type (0, 0), BuildingBlock: OJICUG_clean_linker_0, # of connection points: 2
#     Edge 35, Type (0, 0), BuildingBlock: OJICUG_clean_linker_0, # of connection points: 2
# Relax obj value: 0.132
# Max RMSD: 0.154
# Mean RMSD: 0.154
data_MOF--net-umy--node1-AZAVOO_clean_sbu_0--edge1-OJICUG_clean_linker_0
_symmetry_space_group_name_H-M    P1
_symmetry_Int_Tables_number       1
_symmetry_cell_setting            triclinic
loop_
_symmetry_equiv_pos_as_xyz
'x, y, z'
_cell_length_a     30.277778
_cell_length_b     30.470247
_cell_length_c     32.836705
_cell_angle_alpha  90.051484
_cell_angle_beta   90.166584
_cell_angle_gamma 120.17137
loop_
_atom_site_label
_atom_site_type_symbol
_atom_site_fract_x
_atom_site_fract_y
_atom_site_fract_z
_atom_type_partial_charge
Mg0 Mg 0.09559 0.35273 0.09468 0.0
O1 O 0.13546 0.36559 0.15602 0.0
O2 O 0.21919 0.41935 0.14992 0.0
Mg3 Mg 0.23374 0.43515 0.08132 0.0
C4 C 0.17986 0.39156 0.17145 0.0
C5 C 0.01312 0.2807 0.15297 0.0
O6 O 0.04831 0.26763 0.15521 0.0
O7 O 0.10683 0.43287 0.09757 0.0
O8 O 0.19073 0.47884 0.08522 0.0
O9 O 0.10659 0.28726 0.0812 0.0
O10 O 0.16174 0.36635 0.06414 0.0
C11 C 0.1475 0.4755 0.09153 0.0
C12 C 0.14982 0.31945 0.06495 0.0
O13 O 0.02028 0.31678 0.12933 0.0
Mg14 Mg 0.73169 0.10294 0.26208 0.0
O15 O 0.75521 0.13989 0.32467 0.0
O16 O 0.79383 0.2242 0.32087 0.0
Mg17 Mg 0.7898 0.24111 0.2531 0.0
C18 C 0.77734 0.18345 0.34145 0.0
C19 C 0.72068 0.01959 0.31853 0.0
O20 O 0.76876 0.05543 0.32194 0.0
O21 O 0.66263 0.11395 0.26421 0.0
O22 O 0.70212 0.19833 0.25672 0.0
O23 O 0.80953 0.11498 0.25 0.0
O24 O 0.78552 0.17006 0.23347 0.0
C25 C 0.66145 0.15514 0.26067 0.0
C26 C 0.82082 0.15839 0.2345 0.0
O27 O 0.69157 0.02663 0.29471 0.0
Mg28 Mg 0.62399 0.73815 0.42225 0.0
O29 O 0.61056 0.76076 0.48527 0.0
O30 O 0.56214 0.79667 0.48082 0.0
Mg31 Mg 0.53996 0.79196 0.41336 0.0
C32 C 0.58763 0.78161 0.50168 0.0
C33 C 0.64911 0.67305 0.48437 0.0
O34 O 0.6022 0.65529 0.49741 0.0
O35 O 0.54459 0.66737 0.4253 0.0
O36 O 0.49786 0.70509 0.41829 0.0
O37 O 0.68829 0.81622 0.4105 0.0
O38 O 0.6082 0.79024 0.39379 0.0
C39 C 0.5014 0.66523 0.42248 0.0
C40 C 0.655 0.82633 0.39517 0.0
O41 O 0.66493 0.70245 0.4538 0.0
Mg42 Mg 0.85674 0.61274 0.5987 0.0
O43 O 0.82207 0.60346 0.66195 0.0
O44 O 0.73929 0.54418 0.65996 0.0
Mg45 Mg 0.71877 0.52129 0.59306 0.0
C46 C 0.77932 0.5759 0.67941 0.0
C47 C 0.94418 0.69304 0.65128 0.0
O48 O 0.90832 0.70501 0.6551 0.0
O49 O 0.85202 0.53546 0.60509 0.0
O50 O 0.76776 0.4843 0.59714 0.0
O51 O 0.83863 0.67324 0.58186 0.0
O52 O 0.78597 0.59139 0.572 0.0
C53 C 0.81266 0.49114 0.60195 0.0
C54 C 0.79455 0.63709 0.56958 0.0
O55 O 0.93566 0.65559 0.62867 0.0
Mg56 Mg 0.2301 0.87346 0.75676 0.0
O57 O 0.20685 0.83591 0.81899 0.0
O58 O 0.16836 0.75164 0.81425 0.0
Mg59 Mg 0.17203 0.7354 0.74624 0.0
C60 C 0.18489 0.79217 0.8353 0.0
C61 C 0.24122 0.95671 0.81411 0.0
O62 O 0.19311 0.92092 0.8172 0.0
O63 O 0.29948 0.86238 0.75876 0.0
O64 O 0.25984 0.7781 0.75035 0.0
O65 O 0.15208 0.86152 0.74466 0.0
O66 O 0.17574 0.80646 0.72739 0.0
C67 C 0.30061 0.82118 0.7548 0.0
C68 C 0.14048 0.81819 0.7287 0.0
O69 O 0.27024 0.94964 0.7903 0.0
Mg70 Mg 0.34061 0.2376 0.92198 0.0
O71 O 0.35559 0.21409 0.98396 0.0
O72 O 0.40256 0.1768 0.97888 0.0
Mg73 Mg 0.42331 0.18243 0.91102 0.0
C74 C 0.37797 0.19251 1.00006 0.0
C75 C 0.2687 0.2483 0.98031 0.0
O76 O 0.25589 0.20036 0.98337 0.0
O77 O 0.42032 0.30711 0.92506 0.0
O78 O 0.4669 0.26937 0.91721 0.0
O79 O 0.27531 0.15969 0.90936 0.0
O80 O 0.35501 0.18522 0.89226 0.0
C81 C 0.4634 0.30919 0.92206 0.0
C82 C 0.30811 0.14941 0.89339 0.0
O83 O 0.30422 0.27671 0.95588 0.0
Mg84 Mg 0.61505 0.87224 0.75618 0.0
O85 O 0.60285 0.83524 0.69387 0.0
O86 O 0.55596 0.75095 0.6974 0.0
Mg87 Mg 0.53267 0.73421 0.76476 0.0
C88 C 0.58141 0.79174 0.67703 0.0
C89 C 0.69068 0.95555 0.70038 0.0
O90 O 0.70269 0.91978 0.69784 0.0
O91 O 0.53483 0.86167 0.75182 0.0
O92 O 0.48855 0.77729 0.75899 0.0
O93 O 0.68017 0.86 0.77011 0.0
O94 O 0.60012 0.80495 0.78551 0.0
C95 C 0.49177 0.82053 0.75451 0.0
C96 C 0.64726 0.81658 0.78535 0.0
O97 O 0.65367 0.94842 0.72318 0.0
Mg98 Mg 0.72522 0.62321 0.92847 0.0
O99 O 0.75364 0.60993 0.86814 0.0
O100 O 0.7838 0.55703 0.87662 0.0
Mg101 Mg 0.78025 0.54118 0.9452 0.0
C102 C 0.77273 0.58423 0.85404 0.0
C103 C 0.71579 0.6947 0.86868 0.0
O104 O 0.76427 0.70796 0.86687 0.0
O105 O 0.65578 0.54285 0.92455 0.0
O106 O 0.69347 0.4974 0.93827 0.0
O107 O 0.80238 0.68882 0.94273 0.0
O108 O 0.77698 0.60978 0.96037 0.0
C109 C 0.65365 0.50035 0.93058 0.0
C110 C 0.81276 0.65651 0.95929 0.0
O111 O 0.68652 0.65877 0.8924 0.0
Mg112 Mg 0.09383 0.73462 0.09046 0.0
O113 O 0.13021 0.75762 0.02763 0.0
O114 O 0.21512 0.79623 0.03154 0.0
Mg115 Mg 0.23294 0.79244 0.09914 0.0
C116 C 0.17397 0.77966 0.01091 0.0
C117 C 0.00872 0.72342 0.03502 0.0
O118 O 0.04472 0.77115 0.03138 0.0
O119 O 0.1047 0.66584 0.08776 0.0
O120 O 0.18973 0.70532 0.09476 0.0
O121 O 0.10595 0.81193 0.1027 0.0
O122 O 0.16177 0.78845 0.11898 0.0
C123 C 0.14628 0.66482 0.09076 0.0
C124 C 0.1499 0.82344 0.11799 0.0
O125 O 0.01648 0.69463 0.0584 0.0
Mg126 Mg 0.34664 0.10076 0.25446 0.0
O127 O 0.35995 0.13765 0.19205 0.0
O128 O 0.4061 0.22199 0.19633 0.0
Mg129 Mg 0.42736 0.23907 0.26412 0.0
C130 C 0.38157 0.18125 0.17553 0.0
C131 C 0.27397 0.01666 0.19749 0.0
O132 O 0.26096 0.05167 0.19432 0.0
O133 O 0.42721 0.11263 0.25222 0.0
O134 O 0.47244 0.19703 0.26014 0.0
O135 O 0.28056 0.11225 0.26686 0.0
O136 O 0.36025 0.16766 0.28343 0.0
C137 C 0.46986 0.15405 0.25592 0.0
C138 C 0.31309 0.15573 0.28253 0.0
O139 O 0.31043 0.02451 0.22139 0.0
Mg140 Mg 0.23684 0.35211 0.42266 0.0
O141 O 0.20965 0.36495 0.3615 0.0
O142 O 0.18067 0.41899 0.36809 0.0
Mg143 Mg 0.1829 0.43526 0.43671 0.0
C144 C 0.19157 0.39105 0.34633 0.0
C145 C 0.24524 0.27899 0.36422 0.0
O146 O 0.19687 0.26611 0.36208 0.0
O147 O 0.30718 0.43207 0.41946 0.0
O148 O 0.26998 0.47819 0.43205 0.0
O149 O 0.15944 0.2871 0.43637 0.0
O150 O 0.18499 0.36637 0.45359 0.0
C151 C 0.30974 0.47479 0.42546 0.0
C152 C 0.14919 0.31958 0.45277 0.0
O153 O 0.27487 0.3153 0.38773 0.0
Mg154 Mg 0.87547 0.23761 0.59527 0.0
O155 O 0.83667 0.21515 0.53313 0.0
O156 O 0.7519 0.17627 0.53832 0.0
Mg157 Mg 0.7363 0.17878 0.60654 0.0
C158 C 0.7924 0.19329 0.51703 0.0
C159 C 0.95825 0.24981 0.53676 0.0
O160 O 0.92253 0.20188 0.53345 0.0
O161 O 0.86431 0.30651 0.59474 0.0
O162 O 0.77963 0.26553 0.60379 0.0
O163 O 0.86291 0.15943 0.6065 0.0
O164 O 0.80853 0.18389 0.62442 0.0
C165 C 0.82245 0.30658 0.59964 0.0
C166 C 0.81972 0.14853 0.62276 0.0
O167 O 0.95147 0.27813 0.56144 0.0
C168 C 0.19133 0.61537 0.08876 0.0
C169 C 0.14512 0.61565 0.09029 0.0
H170 H 0.22821 0.57164 0.08815 0.0
C171 C 0.09895 0.56903 0.09233 0.0
H172 H 0.22767 0.65041 0.08709 0.0
C173 C 0.09926 0.52315 0.09309 0.0
C174 C 0.14572 0.5232 0.09157 0.0
H175 H 0.0627 0.56797 0.09368 0.0
H176 H 0.06322 0.48779 0.09468 0.0
C177 C 0.19162 0.56991 0.08934 0.0
C178 C 0.56514 0.10744 0.25913 0.0
C179 C 0.61181 0.15365 0.26 0.0
H180 H 0.48336 0.07108 0.2568 0.0
C181 C 0.61105 0.19936 0.2591 0.0
H182 H 0.5644 0.07154 0.25963 0.0
C183 C 0.56503 0.1991 0.25739 0.0
C184 C 0.51827 0.15311 0.25649 0.0
H185 H 0.64614 0.23573 0.2597 0.0
H186 H 0.56631 0.23527 0.2568 0.0
C187 C 0.51874 0.10717 0.2573 0.0
C188 C 0.40656 0.61485 0.42597 0.0
C189 C 0.45328 0.61566 0.42385 0.0
H190 H 0.3256 0.57061 0.42796 0.0
C191 C 0.4528 0.56925 0.42231 0.0
H192 H 0.40521 0.64968 0.42734 0.0
C193 C 0.40629 0.52305 0.42254 0.0
C194 C 0.35966 0.52264 0.42461 0.0
H195 H 0.48819 0.56861 0.42059 0.0
H196 H 0.40688 0.48783 0.42127 0.0
C197 C 0.36058 0.56917 0.42638 0.0
C198 C 0.86471 0.44739 0.59809 0.0
C199 C 0.81761 0.4453 0.60349 0.0
H200 H 0.90351 0.40489 0.59222 0.0
C201 C 0.77333 0.39784 0.60866 0.0
H202 H 0.89949 0.48346 0.59398 0.0
C203 C 0.77553 0.35349 0.60753 0.0
C204 C 0.82213 0.35499 0.60123 0.0
H205 H 0.7364 0.39463 0.61332 0.0
H206 H 0.74018 0.31786 0.61139 0.0
C207 C 0.86695 0.40246 0.59688 0.0
C208 C 0.39654 0.77633 0.75257 0.0
C209 C 0.44356 0.82206 0.75357 0.0
H210 H 0.31541 0.74025 0.75237 0.0
C211 C 0.44343 0.86817 0.75488 0.0
H212 H 0.39494 0.74002 0.75147 0.0
C213 C 0.39715 0.86831 0.75556 0.0
C214 C 0.35021 0.82234 0.75472 0.0
H215 H 0.47899 0.90409 0.7558 0.0
H216 H 0.39819 0.90434 0.75665 0.0
C217 C 0.35066 0.77647 0.75311 0.0
C218 C 0.55823 0.36 0.92665 0.0
C219 C 0.51132 0.35878 0.92436 0.0
H220 H 0.63912 0.40494 0.93028 0.0
C221 C 0.51125 0.40495 0.92399 0.0
H222 H 0.55992 0.32532 0.9271 0.0
C223 C 0.55739 0.45135 0.92569 0.0
C224 C 0.60421 0.45221 0.92813 0.0
H225 H 0.4757 0.40527 0.92216 0.0
H226 H 0.55636 0.48636 0.92536 0.0
C227 C 0.6039 0.40594 0.92857 0.0
C228 C 0.17106 0.25187 0.04969 0.0
C229 C 0.18332 0.30269 0.04647 0.0
H230 H 0.18852 0.19501 0.03149 0.0
C231 C 0.22565 0.33634 0.02292 0.0
H232 H 0.13875 0.22505 0.06765 0.0
C233 C 0.2541 0.31904 1.00188 0.0
C234 C 0.24083 0.26782 1.00414 0.0
H235 H 0.23596 0.37573 0.01974 0.0
H236 H 0.28585 0.34559 0.98331 0.0
C237 C 0.19958 0.23466 0.02885 0.0
C238 C 0.88061 0.23564 0.19468 0.0
C239 C 0.87173 0.19264 0.2171 0.0
H240 H 0.93222 0.29722 0.15666 0.0
C241 C 0.91073 0.18069 0.2201 0.0
H242 H 0.85122 0.24577 0.19167 0.0
C243 C 0.95708 0.21016 0.20006 0.0
C244 C 0.96531 0.25205 0.17638 0.0
H245 H 0.9051 0.14789 0.2372 0.0
H246 H -0.014 0.1993 0.20242 0.0
C247 C 0.92693 0.26502 0.17445 0.0
C248 C 0.72072 0.91708 0.38328 0.0
C249 C 0.67025 0.87711 0.37882 0.0
H250 H 0.77601 -0.00661 0.36801 0.0
C251 C 0.63543 0.8852 0.35622 0.0
H252 H 0.74839 0.91209 0.40059 0.0
C253 C 0.65133 0.93184 0.33724 0.0
C254 C 0.70228 0.97128 0.34066 0.0
H255 H 0.59626 0.85504 0.35213 0.0
H256 H 0.624 0.93661 0.31925 0.0
C257 C 0.73652 0.96369 0.36451 0.0
C258 C 0.66875 0.62074 0.53189 0.0
C259 C 0.68563 0.66405 0.50755 0.0
H260 H 0.69012 0.57819 0.57085 0.0
C261 C 0.73815 0.69982 0.50603 0.0
H262 H 0.62846 0.59284 0.53388 0.0
C263 C 0.77323 0.69207 0.52791 0.0
C264 C 0.75662 0.64783 0.55094 0.0
H265 H 0.75223 0.73401 0.48799 0.0
H266 H 0.81353 0.71986 0.5256 0.0
C267 C 0.70406 0.61238 0.553 0.0
C268 C 0.03208 0.71051 0.67004 0.0
C269 C -0.00634 0.72338 0.67271 0.0
H270 H 0.10848 0.73013 0.68592 0.0
C271 C 0.00307 0.76615 0.69582 0.0
H272 H 0.02598 0.67768 0.65265 0.0
C273 C 0.05027 0.79616 0.71492 0.0
C274 C 0.08908 0.78396 0.71152 0.0
H275 H 0.97423 0.77704 0.6987 0.0
H276 H 0.05658 0.8294 0.7318 0.0
C277 C 0.07928 0.74046 0.6893 0.0
C278 C 0.22566 0.01257 0.86052 0.0
C279 C 0.25979 0.00493 0.83668 0.0
H280 H 0.21416 0.064 0.89725 0.0
C281 C 0.31082 0.04422 0.83381 0.0
H282 H 0.18609 0.983 0.86358 0.0
C283 C 0.32696 0.09067 0.8534 0.0
C284 C 0.29234 0.09878 0.87612 0.0
H285 H 0.33808 0.03947 0.81584 0.0
H286 H 0.36624 0.12067 0.84976 0.0
C287 C 0.24171 0.059 0.87992 0.0
C288 C 0.731 0.76491 0.82112 0.0
C289 C 0.69686 0.72314 0.84483 0.0
H290 H 0.74206 0.82695 0.78357 0.0
C291 C 0.64534 0.71018 0.84639 0.0
H292 H 0.77092 0.77579 0.81902 0.0
C293 C 0.62873 0.73946 0.82575 0.0
C294 C 0.66337 0.78234 0.8033 0.0
H295 H 0.61804 0.67807 0.86419 0.0
H296 H 0.58908 0.72934 0.82844 0.0
C297 C 0.71448 0.79426 0.80069 0.0
C298 C 0.8724 0.63838 0.99915 0.0
C299 C 0.86386 0.67246 0.97627 0.0
H300 H 0.92491 0.62765 0.03575 0.0
C301 C 0.90395 0.72255 0.97144 0.0
H302 H 0.84215 0.59954 1.0036 0.0
C303 C 0.95126 0.7386 0.98984 0.0
C304 C 0.95945 0.70496 0.01364 0.0
H305 H 0.89861 0.74966 0.95392 0.0
H306 H -0.01886 0.77773 0.98593 0.0
C307 C 0.91975 0.65449 0.0177 0.0
C308 C 0.20245 0.95965 0.15092 0.0
C309 C 0.24484 0.96843 0.17474 0.0
H310 H 0.13944 0.90712 0.11413 0.0
C311 C 0.25782 0.93029 0.17738 0.0
H312 H 0.19154 -0.01165 0.14802 0.0
C313 C 0.22801 0.88372 0.15763 0.0
C314 C 0.18457 0.87438 0.13504 0.0
H315 H 0.2904 0.936 0.1953 0.0
H316 H 0.23818 0.85455 0.16112 0.0
C317 C 0.17257 0.91309 0.13139 0.0
C318 C 0.33161 0.23325 0.32234 0.0
C319 C 0.29679 0.18997 0.30012 0.0
H320 H 0.34272 0.29535 0.36015 0.0
C321 C 0.24563 0.17789 0.2974 0.0
H322 H 0.3713 0.24349 0.32517 0.0
C323 C 0.2293 0.20762 0.31746 0.0
C324 C 0.26372 0.2499 0.34086 0.0
H325 H 0.21792 0.14485 0.28048 0.0
H326 H 0.18936 0.19671 0.3153 0.0
C327 C 0.31522 0.26288 0.34256 0.0
C328 C 0.05924 0.25271 0.46747 0.0
C329 C 0.09882 0.30329 0.47117 0.0
H330 H -0.0161 0.19637 0.48504 0.0
C331 C 0.09093 0.33712 0.49502 0.0
H332 H 0.06407 0.22576 0.44926 0.0
C333 C 0.04493 0.32018 0.51586 0.0
C334 C 0.00593 0.26916 0.51309 0.0
H335 H 0.12081 0.37634 0.49857 0.0
H336 H 0.04032 0.34681 0.53468 0.0
C337 C 0.01328 0.23588 0.48809 0.0
C338 C 0.74122 0.08948 0.66184 0.0
C339 C 0.78447 0.09778 0.63967 0.0
H340 H 0.67765 0.03815 0.69843 0.0
C341 C 0.79515 0.05817 0.63609 0.0
H342 H 0.73207 0.11934 0.66543 0.0
C343 C 0.76392 0.01162 0.65511 0.0
C344 C 0.72151 0.00381 0.67827 0.0
H345 H 0.82813 0.06337 0.61923 0.0
H346 H 0.7737 0.9821 0.65226 0.0
C347 C 0.71008 0.043 0.68095 0.0
C348 C 0.20925 0.43731 0.28039 0.0
C349 C 0.1868 0.39122 0.30174 0.0
H350 H 0.22639 0.47338 0.22181 0.0
C351 C 0.16337 0.34529 0.27998 0.0
H352 H 0.22819 0.47315 0.29665 0.0
C353 C 0.16128 0.34543 0.23744 0.0
C354 C 0.18457 0.39149 0.21605 0.0
H355 H 0.14625 0.30934 0.29592 0.0
H356 H 0.14196 0.30958 0.22121 0.0
C357 C 0.20885 0.43744 0.23777 0.0
C358 C 0.74674 0.14949 0.4527 0.0
C359 C 0.78862 0.19023 0.47213 0.0
H360 H 0.71109 0.11497 0.39594 0.0
C361 C 0.82705 0.22879 0.44826 0.0
H362 H 0.71671 0.11925 0.47036 0.0
C363 C 0.82321 0.22709 0.40576 0.0
C364 C 0.78167 0.18602 0.38633 0.0
H365 H 0.85967 0.26081 0.4625 0.0
H366 H 0.85305 0.25751 0.38811 0.0
C367 C 0.74369 0.14702 0.41018 0.0
C368 C 0.58484 0.74849 0.61312 0.0
C369 C 0.58425 0.78938 0.63225 0.0
H370 H 0.58781 0.71483 0.55663 0.0
C371 C 0.58591 0.82835 0.60815 0.0
H372 H 0.58377 0.7181 0.63098 0.0
C373 C 0.58692 0.82589 0.56568 0.0
C374 C 0.58792 0.78523 0.54655 0.0
H375 H 0.58529 0.86025 0.62214 0.0
H376 H 0.58728 0.85594 0.54781 0.0
C377 C 0.58745 0.74684 0.57065 0.0
C378 C 0.80005 0.62537 0.74418 0.0
C379 C 0.77746 0.57832 0.72404 0.0
H380 H 0.81525 0.664 0.80171 0.0
C381 C 0.75533 0.53343 0.74696 0.0
H382 H 0.81761 0.66043 0.727 0.0
C383 C 0.75602 0.53554 0.78949 0.0
C384 C 0.77738 0.58251 0.80961 0.0
H385 H 0.73829 0.49677 0.73198 0.0
H386 H 0.73847 0.50045 0.80663 0.0
C387 C 0.79901 0.62742 0.78669 0.0
C388 C 0.21977 0.82782 0.90421 0.0
C389 C 0.1813 0.78913 0.88019 0.0
H390 H 0.24821 0.85464 0.96447 0.0
C391 C 0.14024 0.74773 0.89949 0.0
H392 H 0.25203 0.86009 0.89009 0.0
C393 C 0.13742 0.74536 0.94202 0.0
C394 C 0.17643 0.78355 0.96602 0.0
H395 H 0.11005 0.71752 0.88171 0.0
H396 H 0.1052 0.71307 0.95616 0.0
C397 C 0.21775 0.82467 0.94672 0.0
C398 C 0.37928 0.22479 0.11157 0.0
C399 C 0.37984 0.18393 0.13068 0.0
H400 H 0.37691 0.2587 0.0551 0.0
C401 C 0.37915 0.14539 0.10653 0.0
H402 H 0.37961 0.25485 0.12946 0.0
C403 C 0.37895 0.1482 0.06402 0.0
C404 C 0.37782 0.18878 0.04492 0.0
H405 H 0.37978 0.11352 0.12054 0.0
H406 H 0.37913 0.11841 0.04612 0.0
C407 C 0.37749 0.22679 0.06909 0.0
loop_
_geom_bond_atom_site_label_1
_geom_bond_atom_site_label_2
_geom_bond_distance
_geom_bond_site_symmetry_2
_ccdc_geom_bond_type
Mg0 O1 2.028 . S
Mg0 O7 1.986 . S
Mg0 O9 2.114 . S
Mg0 O10 2.251 . S
Mg0 O13 2.010 . S
O1 Mg0 2.028 . S
O1 C4 1.250 . S
O2 Mg3 2.028 . S
O2 C4 1.248 . S
Mg3 O2 2.028 . S
Mg3 O8 2.032 . S
Mg3 O10 2.079 . S
C4 O1 1.250 . S
C4 O2 1.248 . S
C5 O6 1.264 . S
C5 O13 1.249 1_655 S
O6 C5 1.264 . S
O7 Mg0 1.986 . S
O7 C11 1.246 . S
O8 Mg3 2.032 . S
O8 C11 1.259 . S
O9 Mg0 2.114 . S
O9 C12 1.252 . S
O10 Mg0 2.251 . S
O10 Mg3 2.079 . S
O10 C12 1.273 . S
C11 O7 1.246 . S
C11 O8 1.259 . S
C12 O9 1.252 . S
C12 O10 1.273 . S
O13 Mg0 2.010 . S
O13 C5 1.249 1_455 S
Mg14 O15 2.028 . S
Mg14 O21 1.986 . S
Mg14 O23 2.114 . S
Mg14 O24 2.251 . S
Mg14 O27 2.010 . S
O15 Mg14 2.028 . S
O15 C18 1.250 . S
O16 Mg17 2.028 . S
O16 C18 1.248 . S
Mg17 O16 2.028 . S
Mg17 O22 2.032 . S
Mg17 O24 2.079 . S
C18 O15 1.250 . S
C18 O16 1.248 . S
C19 O20 1.264 . S
C19 O27 1.249 1_565 S
O20 C19 1.264 . S
O21 Mg14 1.986 . S
O21 C25 1.246 . S
O22 Mg17 2.032 . S
O22 C25 1.259 . S
O23 Mg14 2.114 . S
O23 C26 1.252 . S
O24 Mg14 2.251 . S
O24 Mg17 2.079 . S
O24 C26 1.273 . S
C25 O21 1.246 . S
C25 O22 1.259 . S
C26 O23 1.252 . S
C26 O24 1.273 . S
O27 Mg14 2.010 . S
O27 C19 1.249 1_545 S
Mg28 O29 2.028 . S
Mg28 O35 1.986 . S
Mg28 O37 2.114 . S
Mg28 O38 2.251 . S
Mg28 O41 2.010 . S
O29 Mg28 2.028 . S
O29 C32 1.250 . S
O30 Mg31 2.028 . S
O30 C32 1.248 . S
Mg31 O30 2.028 . S
Mg31 O36 2.032 . S
Mg31 O38 2.079 . S
C32 O29 1.250 . S
C32 O30 1.248 . S
C33 O34 1.264 . S
C33 O41 1.249 . S
O34 C33 1.264 . S
O35 Mg28 1.986 . S
O35 C39 1.246 . S
O36 Mg31 2.032 . S
O36 C39 1.259 . S
O37 Mg28 2.114 . S
O37 C40 1.252 . S
O38 Mg28 2.251 . S
O38 Mg31 2.079 . S
O38 C40 1.273 . S
C39 O35 1.246 . S
C39 O36 1.259 . S
C40 O37 1.252 . S
C40 O38 1.273 . S
O41 Mg28 2.010 . S
O41 C33 1.249 . S
Mg42 O43 2.028 . S
Mg42 O49 1.986 . S
Mg42 O51 2.114 . S
Mg42 O52 2.251 . S
Mg42 O55 2.010 . S
O43 Mg42 2.028 . S
O43 C46 1.250 . S
O44 Mg45 2.028 . S
O44 C46 1.248 . S
Mg45 O44 2.028 . S
Mg45 O50 2.032 . S
Mg45 O52 2.079 . S
C46 O43 1.250 . S
C46 O44 1.248 . S
C47 O48 1.264 . S
C47 O55 1.249 1_455 S
O48 C47 1.264 . S
O49 Mg42 1.986 . S
O49 C53 1.246 . S
O50 Mg45 2.032 . S
O50 C53 1.259 . S
O51 Mg42 2.114 . S
O51 C54 1.252 . S
O52 Mg42 2.251 . S
O52 Mg45 2.079 . S
O52 C54 1.273 . S
C53 O49 1.246 . S
C53 O50 1.259 . S
C54 O51 1.252 . S
C54 O52 1.273 . S
O55 Mg42 2.010 . S
O55 C47 1.249 1_655 S
Mg56 O57 2.028 . S
Mg56 O63 1.986 . S
Mg56 O65 2.114 . S
Mg56 O66 2.251 . S
Mg56 O69 2.010 . S
O57 Mg56 2.028 . S
O57 C60 1.250 . S
O58 Mg59 2.028 . S
O58 C60 1.248 . S
Mg59 O58 2.028 . S
Mg59 O64 2.032 . S
Mg59 O66 2.079 . S
C60 O57 1.250 . S
C60 O58 1.248 . S
C61 O62 1.264 . S
C61 O69 1.249 1_545 S
O62 C61 1.264 . S
O63 Mg56 1.986 . S
O63 C67 1.246 . S
O64 Mg59 2.032 . S
O64 C67 1.259 . S
O65 Mg56 2.114 . S
O65 C68 1.252 . S
O66 Mg56 2.251 . S
O66 Mg59 2.079 . S
O66 C68 1.273 . S
C67 O63 1.246 . S
C67 O64 1.259 . S
C68 O65 1.252 . S
C68 O66 1.273 . S
O69 Mg56 2.010 . S
O69 C61 1.249 1_565 S
Mg70 O71 2.028 . S
Mg70 O77 1.986 . S
Mg70 O79 2.114 . S
Mg70 O80 2.251 . S
Mg70 O83 2.010 . S
O71 Mg70 2.028 . S
O71 C74 1.250 1_556 S
O72 Mg73 2.028 . S
O72 C74 1.248 1_556 S
Mg73 O72 2.028 . S
Mg73 O78 2.032 . S
Mg73 O80 2.079 . S
C74 O71 1.250 1_554 S
C74 O72 1.248 1_554 S
C75 O76 1.264 . S
C75 O83 1.249 . S
O76 C75 1.264 . S
O77 Mg70 1.986 . S
O77 C81 1.246 . S
O78 Mg73 2.032 . S
O78 C81 1.259 . S
O79 Mg70 2.114 . S
O79 C82 1.252 . S
O80 Mg70 2.251 . S
O80 Mg73 2.079 . S
O80 C82 1.273 . S
C81 O77 1.246 . S
C81 O78 1.259 . S
C82 O79 1.252 . S
C82 O80 1.273 . S
O83 Mg70 2.010 . S
O83 C75 1.249 . S
Mg84 O85 2.028 . S
Mg84 O91 1.986 . S
Mg84 O93 2.114 . S
Mg84 O94 2.251 . S
Mg84 O97 2.010 . S
O85 Mg84 2.028 . S
O85 C88 1.250 . S
O86 Mg87 2.028 . S
O86 C88 1.248 . S
Mg87 O86 2.028 . S
Mg87 O92 2.032 . S
Mg87 O94 2.079 . S
C88 O85 1.250 . S
C88 O86 1.248 . S
C89 O90 1.264 . S
C89 O97 1.249 1_545 S
O90 C89 1.264 . S
O91 Mg84 1.986 . S
O91 C95 1.246 . S
O92 Mg87 2.032 . S
O92 C95 1.259 . S
O93 Mg84 2.114 . S
O93 C96 1.252 . S
O94 Mg84 2.251 . S
O94 Mg87 2.079 . S
O94 C96 1.273 . S
C95 O91 1.246 . S
C95 O92 1.259 . S
C96 O93 1.252 . S
C96 O94 1.273 . S
O97 Mg84 2.010 . S
O97 C89 1.249 1_565 S
Mg98 O99 2.028 . S
Mg98 O105 1.986 . S
Mg98 O107 2.114 . S
Mg98 O108 2.251 . S
Mg98 O111 2.010 . S
O99 Mg98 2.028 . S
O99 C102 1.250 . S
O100 Mg101 2.028 . S
O100 C102 1.248 . S
Mg101 O100 2.028 . S
Mg101 O106 2.032 . S
Mg101 O108 2.079 . S
C102 O99 1.250 . S
C102 O100 1.248 . S
C103 O104 1.264 . S
C103 O111 1.249 . S
O104 C103 1.264 . S
O105 Mg98 1.986 . S
O105 C109 1.246 . S
O106 Mg101 2.032 . S
O106 C109 1.259 . S
O107 Mg98 2.114 . S
O107 C110 1.252 . S
O108 Mg98 2.251 . S
O108 Mg101 2.079 . S
O108 C110 1.273 . S
C109 O105 1.246 . S
C109 O106 1.259 . S
C110 O107 1.252 . S
C110 O108 1.273 . S
O111 Mg98 2.010 . S
O111 C103 1.249 . S
Mg112 O113 2.028 . S
Mg112 O119 1.986 . S
Mg112 O121 2.114 . S
Mg112 O122 2.251 . S
Mg112 O125 2.010 . S
O113 Mg112 2.028 . S
O113 C116 1.250 1_554 S
O114 Mg115 2.028 . S
O114 C116 1.248 1_554 S
Mg115 O114 2.028 . S
Mg115 O120 2.032 . S
Mg115 O122 2.079 . S
C116 O113 1.250 1_556 S
C116 O114 1.248 1_556 S
C117 O118 1.264 . S
C117 O125 1.249 1_655 S
O118 C117 1.264 . S
O119 Mg112 1.986 . S
O119 C123 1.246 . S
O120 Mg115 2.032 . S
O120 C123 1.259 . S
O121 Mg112 2.114 . S
O121 C124 1.252 . S
O122 Mg112 2.251 . S
O122 Mg115 2.079 . S
O122 C124 1.273 . S
C123 O119 1.246 . S
C123 O120 1.259 . S
C124 O121 1.252 . S
C124 O122 1.273 . S
O125 Mg112 2.010 . S
O125 C117 1.249 1_455 S
Mg126 O127 2.028 . S
Mg126 O133 1.986 . S
Mg126 O135 2.114 . S
Mg126 O136 2.251 . S
Mg126 O139 2.010 . S
O127 Mg126 2.028 . S
O127 C130 1.250 . S
O128 Mg129 2.028 . S
O128 C130 1.248 . S
Mg129 O128 2.028 . S
Mg129 O134 2.032 . S
Mg129 O136 2.079 . S
C130 O127 1.250 . S
C130 O128 1.248 . S
C131 O132 1.264 . S
C131 O139 1.249 1_565 S
O132 C131 1.264 . S
O133 Mg126 1.986 . S
O133 C137 1.246 . S
O134 Mg129 2.032 . S
O134 C137 1.259 . S
O135 Mg126 2.114 . S
O135 C138 1.252 . S
O136 Mg126 2.251 . S
O136 Mg129 2.079 . S
O136 C138 1.273 . S
C137 O133 1.246 . S
C137 O134 1.259 . S
C138 O135 1.252 . S
C138 O136 1.273 . S
O139 Mg126 2.010 . S
O139 C131 1.249 1_545 S
Mg140 O141 2.028 . S
Mg140 O147 1.986 . S
Mg140 O149 2.114 . S
Mg140 O150 2.251 . S
Mg140 O153 2.010 . S
O141 Mg140 2.028 . S
O141 C144 1.250 . S
O142 Mg143 2.028 . S
O142 C144 1.248 . S
Mg143 O142 2.028 . S
Mg143 O148 2.032 . S
Mg143 O150 2.079 . S
C144 O141 1.250 . S
C144 O142 1.248 . S
C145 O146 1.264 . S
C145 O153 1.249 . S
O146 C145 1.264 . S
O147 Mg140 1.986 . S
O147 C151 1.246 . S
O148 Mg143 2.032 . S
O148 C151 1.259 . S
O149 Mg140 2.114 . S
O149 C152 1.252 . S
O150 Mg140 2.251 . S
O150 Mg143 2.079 . S
O150 C152 1.273 . S
C151 O147 1.246 . S
C151 O148 1.259 . S
C152 O149 1.252 . S
C152 O150 1.273 . S
O153 Mg140 2.010 . S
O153 C145 1.249 . S
Mg154 O155 2.028 . S
Mg154 O161 1.986 . S
Mg154 O163 2.114 . S
Mg154 O164 2.251 . S
Mg154 O167 2.010 . S
O155 Mg154 2.028 . S
O155 C158 1.250 . S
O156 Mg157 2.028 . S
O156 C158 1.248 . S
Mg157 O156 2.028 . S
Mg157 O162 2.032 . S
Mg157 O164 2.079 . S
C158 O155 1.250 . S
C158 O156 1.248 . S
C159 O160 1.264 . S
C159 O167 1.249 1_455 S
O160 C159 1.264 . S
O161 Mg154 1.986 . S
O161 C165 1.246 . S
O162 Mg157 2.032 . S
O162 C165 1.259 . S
O163 Mg154 2.114 . S
O163 C166 1.252 . S
O164 Mg154 2.251 . S
O164 Mg157 2.079 . S
O164 C166 1.273 . S
C165 O161 1.246 . S
C165 O162 1.259 . S
C166 O163 1.252 . S
C166 O164 1.273 . S
O167 Mg154 2.010 . S
O167 C159 1.249 1_655 S
C168 C169 1.387 . S
C168 H172 0.950 . S
C168 C177 1.390 . S
C169 C168 1.387 . S
C169 C171 1.387 . S
H170 C177 0.950 . S
C171 C169 1.387 . S
C171 C173 1.390 . S
C171 H175 0.950 . S
H172 C168 0.950 . S
C173 C171 1.390 . S
C173 C174 1.387 . S
C173 H176 0.950 . S
C174 C173 1.387 . S
C174 C177 1.387 . S
H175 C171 0.950 . S
H176 C173 0.950 . S
C177 C168 1.390 . S
C177 H170 0.950 . S
C177 C174 1.387 . S
C178 C179 1.387 . S
C178 H182 0.950 . S
C178 C187 1.390 . S
C179 C178 1.387 . S
C179 C181 1.387 . S
H180 C187 0.950 . S
C181 C179 1.387 . S
C181 C183 1.390 . S
C181 H185 0.950 . S
H182 C178 0.950 . S
C183 C181 1.390 . S
C183 C184 1.387 . S
C183 H186 0.950 . S
C184 C183 1.387 . S
C184 C187 1.387 . S
H185 C181 0.950 . S
H186 C183 0.950 . S
C187 C178 1.390 . S
C187 H180 0.950 . S
C187 C184 1.387 . S
C188 C189 1.387 . S
C188 H192 0.950 . S
C188 C197 1.390 . S
C189 C188 1.387 . S
C189 C191 1.387 . S
H190 C197 0.950 . S
C191 C189 1.387 . S
C191 C193 1.390 . S
C191 H195 0.950 . S
H192 C188 0.950 . S
C193 C191 1.390 . S
C193 C194 1.387 . S
C193 H196 0.950 . S
C194 C193 1.387 . S
C194 C197 1.387 . S
H195 C191 0.950 . S
H196 C193 0.950 . S
C197 C188 1.390 . S
C197 H190 0.950 . S
C197 C194 1.387 . S
C198 C199 1.387 . S
C198 H202 0.950 . S
C198 C207 1.390 . S
C199 C198 1.387 . S
C199 C201 1.387 . S
H200 C207 0.950 . S
C201 C199 1.387 . S
C201 C203 1.390 . S
C201 H205 0.950 . S
H202 C198 0.950 . S
C203 C201 1.390 . S
C203 C204 1.387 . S
C203 H206 0.950 . S
C204 C203 1.387 . S
C204 C207 1.387 . S
H205 C201 0.950 . S
H206 C203 0.950 . S
C207 C198 1.390 . S
C207 H200 0.950 . S
C207 C204 1.387 . S
C208 C209 1.387 . S
C208 H212 0.950 . S
C208 C217 1.390 . S
C209 C208 1.387 . S
C209 C211 1.387 . S
H210 C217 0.950 . S
C211 C209 1.387 . S
C211 C213 1.390 . S
C211 H215 0.950 . S
H212 C208 0.950 . S
C213 C211 1.390 . S
C213 C214 1.387 . S
C213 H216 0.950 . S
C214 C213 1.387 . S
C214 C217 1.387 . S
H215 C211 0.950 . S
H216 C213 0.950 . S
C217 C208 1.390 . S
C217 H210 0.950 . S
C217 C214 1.387 . S
C218 C219 1.387 . S
C218 H222 0.950 . S
C218 C227 1.390 . S
C219 C218 1.387 . S
C219 C221 1.387 . S
H220 C227 0.950 . S
C221 C219 1.387 . S
C221 C223 1.390 . S
C221 H225 0.950 . S
H222 C218 0.950 . S
C223 C221 1.390 . S
C223 C224 1.387 . S
C223 H226 0.950 . S
C224 C223 1.387 . S
C224 C227 1.387 . S
H225 C221 0.950 . S
H226 C223 0.950 . S
C227 C218 1.390 . S
C227 H220 0.950 . S
C227 C224 1.387 . S
C228 C229 1.387 . S
C228 H232 0.950 . S
C228 C237 1.390 . S
C229 C228 1.387 . S
C229 C231 1.387 . S
H230 C237 0.950 . S
C231 C229 1.387 . S
C231 C233 1.390 1_554 S
C231 H235 0.950 . S
H232 C228 0.950 . S
C233 C231 1.390 1_556 S
C233 C234 1.385 1_556 S
C233 H236 0.950 . S
C234 C233 1.385 1_554 S
C234 C237 1.398 . S
H235 C231 0.950 . S
H236 C233 0.950 . S
C237 C228 1.390 . S
C237 H230 0.950 . S
C237 C234 1.398 . S
C238 C239 1.387 . S
C238 H242 0.950 . S
C238 C247 1.390 . S
C239 C238 1.387 . S
C239 C241 1.387 . S
H240 C247 0.950 . S
C241 C239 1.387 . S
C241 C243 1.390 . S
C241 H245 0.950 . S
H242 C238 0.950 . S
C243 C241 1.390 . S
C243 C244 1.387 . S
C243 H246 0.950 . S
C244 C243 1.387 . S
C244 C247 1.387 . S
H245 C241 0.950 . S
H246 C243 0.950 . S
C247 C238 1.390 . S
C247 H240 0.950 . S
C247 C244 1.387 . S
C248 C249 1.387 . S
C248 H252 0.950 . S
C248 C257 1.390 . S
C249 C248 1.387 . S
C249 C251 1.387 . S
H250 C257 0.950 . S
C251 C249 1.387 . S
C251 C253 1.390 . S
C251 H255 0.950 . S
H252 C248 0.950 . S
C253 C251 1.390 . S
C253 C254 1.387 . S
C253 H256 0.950 . S
C254 C253 1.387 . S
C254 C257 1.387 . S
H255 C251 0.950 . S
H256 C253 0.950 . S
C257 C248 1.390 . S
C257 H250 0.950 . S
C257 C254 1.387 . S
C258 C259 1.387 . S
C258 H262 0.950 . S
C258 C267 1.390 . S
C259 C258 1.387 . S
C259 C261 1.387 . S
H260 C267 0.950 . S
C261 C259 1.387 . S
C261 C263 1.390 . S
C261 H265 0.950 . S
H262 C258 0.950 . S
C263 C261 1.390 . S
C263 C264 1.387 . S
C263 H266 0.950 . S
C264 C263 1.387 . S
C264 C267 1.387 . S
H265 C261 0.950 . S
H266 C263 0.950 . S
C267 C258 1.390 . S
C267 H260 0.950 . S
C267 C264 1.387 . S
C268 C269 1.387 . S
C268 H272 0.950 . S
C268 C277 1.390 . S
C269 C268 1.387 . S
C269 C271 1.387 . S
H270 C277 0.950 . S
C271 C269 1.387 . S
C271 C273 1.390 . S
C271 H275 0.950 . S
H272 C268 0.950 . S
C273 C271 1.390 . S
C273 C274 1.387 . S
C273 H276 0.950 . S
C274 C273 1.387 . S
C274 C277 1.387 . S
H275 C271 0.950 . S
H276 C273 0.950 . S
C277 C268 1.390 . S
C277 H270 0.950 . S
C277 C274 1.387 . S
C278 C279 1.387 . S
C278 H282 0.950 . S
C278 C287 1.390 . S
C279 C278 1.387 . S
C279 C281 1.387 . S
H280 C287 0.950 . S
C281 C279 1.387 . S
C281 C283 1.390 . S
C281 H285 0.950 . S
H282 C278 0.950 . S
C283 C281 1.390 . S
C283 C284 1.387 . S
C283 H286 0.950 . S
C284 C283 1.387 . S
C284 C287 1.387 . S
H285 C281 0.950 . S
H286 C283 0.950 . S
C287 C278 1.390 . S
C287 H280 0.950 . S
C287 C284 1.387 . S
C288 C289 1.387 . S
C288 H292 0.950 . S
C288 C297 1.390 . S
C289 C288 1.387 . S
C289 C291 1.387 . S
H290 C297 0.950 . S
C291 C289 1.387 . S
C291 C293 1.390 . S
C291 H295 0.950 . S
H292 C288 0.950 . S
C293 C291 1.390 . S
C293 C294 1.387 . S
C293 H296 0.950 . S
C294 C293 1.387 . S
C294 C297 1.387 . S
H295 C291 0.950 . S
H296 C293 0.950 . S
C297 C288 1.390 . S
C297 H290 0.950 . S
C297 C294 1.387 . S
C298 C299 1.387 . S
C298 H302 0.950 . S
C298 C307 1.390 . S
C299 C298 1.387 . S
C299 C301 1.387 . S
H300 C307 0.950 1_554 S
C301 C299 1.387 . S
C301 C303 1.390 . S
C301 H305 0.950 . S
H302 C298 0.950 . S
C303 C301 1.390 . S
C303 C304 1.399 . S
C303 H306 0.950 . S
C304 C303 1.399 . S
C304 C307 1.389 . S
H305 C301 0.950 . S
H306 C303 0.950 . S
C307 C298 1.390 . S
C307 H300 0.950 1_556 S
C307 C304 1.389 . S
C308 C309 1.387 . S
C308 H312 0.950 . S
C308 C317 1.390 . S
C309 C308 1.387 . S
C309 C311 1.387 . S
H310 C317 0.950 . S
C311 C309 1.387 . S
C311 C313 1.390 . S
C311 H315 0.950 . S
H312 C308 0.950 . S
C313 C311 1.390 . S
C313 C314 1.387 . S
C313 H316 0.950 . S
C314 C313 1.387 . S
C314 C317 1.387 . S
H315 C311 0.950 . S
H316 C313 0.950 . S
C317 C308 1.390 . S
C317 H310 0.950 . S
C317 C314 1.387 . S
C318 C319 1.387 . S
C318 H322 0.950 . S
C318 C327 1.390 . S
C319 C318 1.387 . S
C319 C321 1.387 . S
H320 C327 0.950 . S
C321 C319 1.387 . S
C321 C323 1.390 . S
C321 H325 0.950 . S
H322 C318 0.950 . S
C323 C321 1.390 . S
C323 C324 1.387 . S
C323 H326 0.950 . S
C324 C323 1.387 . S
C324 C327 1.387 . S
H325 C321 0.950 . S
H326 C323 0.950 . S
C327 C318 1.390 . S
C327 H320 0.950 . S
C327 C324 1.387 . S
C328 C329 1.387 . S
C328 H332 0.950 . S
C328 C337 1.390 . S
C329 C328 1.387 . S
C329 C331 1.387 . S
H330 C337 0.950 . S
C331 C329 1.387 . S
C331 C333 1.390 . S
C331 H335 0.950 . S
H332 C328 0.950 . S
C333 C331 1.390 . S
C333 C334 1.387 . S
C333 H336 0.950 . S
C334 C333 1.387 . S
C334 C337 1.387 . S
H335 C331 0.950 . S
H336 C333 0.950 . S
C337 C328 1.390 . S
C337 H330 0.950 . S
C337 C334 1.387 . S
C338 C339 1.387 . S
C338 H342 0.950 . S
C338 C347 1.390 . S
C339 C338 1.387 . S
C339 C341 1.387 . S
H340 C347 0.950 . S
C341 C339 1.387 . S
C341 C343 1.390 . S
C341 H345 0.950 . S
H342 C338 0.950 . S
C343 C341 1.390 . S
C343 C344 1.387 . S
C343 H346 0.950 . S
C344 C343 1.387 . S
C344 C347 1.387 . S
H345 C341 0.950 . S
H346 C343 0.950 . S
C347 C338 1.390 . S
C347 H340 0.950 . S
C347 C344 1.387 . S
C348 C349 1.387 . S
C348 H352 0.950 . S
C348 C357 1.390 . S
C349 C348 1.387 . S
C349 C351 1.387 . S
H350 C357 0.950 . S
C351 C349 1.387 . S
C351 C353 1.390 . S
C351 H355 0.950 . S
H352 C348 0.950 . S
C353 C351 1.390 . S
C353 C354 1.387 . S
C353 H356 0.950 . S
C354 C353 1.387 . S
C354 C357 1.387 . S
H355 C351 0.950 . S
H356 C353 0.950 . S
C357 C348 1.390 . S
C357 H350 0.950 . S
C357 C354 1.387 . S
C358 C359 1.387 . S
C358 H362 0.950 . S
C358 C367 1.390 . S
C359 C358 1.387 . S
C359 C361 1.387 . S
H360 C367 0.950 . S
C361 C359 1.387 . S
C361 C363 1.390 . S
C361 H365 0.950 . S
H362 C358 0.950 . S
C363 C361 1.390 . S
C363 C364 1.387 . S
C363 H366 0.950 . S
C364 C363 1.387 . S
C364 C367 1.387 . S
H365 C361 0.950 . S
H366 C363 0.950 . S
C367 C358 1.390 . S
C367 H360 0.950 . S
C367 C364 1.387 . S
C368 C369 1.387 . S
C368 H372 0.950 . S
C368 C377 1.390 . S
C369 C368 1.387 . S
C369 C371 1.387 . S
H370 C377 0.950 . S
C371 C369 1.387 . S
C371 C373 1.390 . S
C371 H375 0.950 . S
H372 C368 0.950 . S
C373 C371 1.390 . S
C373 C374 1.387 . S
C373 H376 0.950 . S
C374 C373 1.387 . S
C374 C377 1.387 . S
H375 C371 0.950 . S
H376 C373 0.950 . S
C377 C368 1.390 . S
C377 H370 0.950 . S
C377 C374 1.387 . S
C378 C379 1.387 . S
C378 H382 0.950 . S
C378 C387 1.390 . S
C379 C378 1.387 . S
C379 C381 1.387 . S
H380 C387 0.950 . S
C381 C379 1.387 . S
C381 C383 1.390 . S
C381 H385 0.950 . S
H382 C378 0.950 . S
C383 C381 1.390 . S
C383 C384 1.387 . S
C383 H386 0.950 . S
C384 C383 1.387 . S
C384 C387 1.387 . S
H385 C381 0.950 . S
H386 C383 0.950 . S
C387 C378 1.390 . S
C387 H380 0.950 . S
C387 C384 1.387 . S
C388 C389 1.387 . S
C388 H392 0.950 . S
C388 C397 1.390 . S
C389 C388 1.387 . S
C389 C391 1.387 . S
H390 C397 0.950 . S
C391 C389 1.387 . S
C391 C393 1.390 . S
C391 H395 0.950 . S
H392 C388 0.950 . S
C393 C391 1.390 . S
C393 C394 1.387 . S
C393 H396 0.950 . S
C394 C393 1.387 . S
C394 C397 1.387 . S
H395 C391 0.950 . S
H396 C393 0.950 . S
C397 C388 1.390 . S
C397 H390 0.950 . S
C397 C394 1.387 . S
C398 C399 1.387 . S
C398 H402 0.950 . S
C398 C407 1.390 . S
C399 C398 1.387 . S
C399 C401 1.387 . S
H400 C407 0.950 . S
C401 C399 1.387 . S
C401 C403 1.390 . S
C401 H405 0.950 . S
H402 C398 0.950 . S
C403 C401 1.390 . S
C403 C404 1.387 . S
C403 H406 0.950 . S
C404 C403 1.387 . S
C404 C407 1.387 . S
H405 C401 0.950 . S
H406 C403 0.950 . S
C407 C398 1.390 . S
C407 H400 0.950 . S
C407 C404 1.387 . S
C169 C123 1.386 . S
C174 C11 1.388 . S
C179 C25 1.387 . S
C184 C137 1.387 . S
C189 C39 1.386 . S
C194 C151 1.388 . S
C199 C53 1.388 . S
C204 C165 1.386 . S
C209 C95 1.387 . S
C214 C67 1.387 . S
C219 C81 1.386 . S
C224 C109 1.387 . S
C229 C12 1.436 . S
C234 C75 1.309 1_554 S
C239 C26 1.437 . S
C244 C5 1.325 . S
C249 C40 1.436 . S
C254 C19 1.322 . S
C259 C33 1.325 . S
C264 C54 1.437 . S
C269 C47 1.325 . S
C274 C68 1.437 . S
C279 C61 1.321 . S
C284 C82 1.436 . S
C289 C103 1.321 . S
C294 C96 1.436 . S
C299 C110 1.437 . S
C304 C117 1.306 1_556 S
C309 C131 1.324 . S
C314 C124 1.437 . S
C319 C138 1.437 . S
C324 C145 1.325 . S
C329 C152 1.436 . S
C334 C159 1.321 . S
C339 C166 1.437 . S
C344 C89 1.325 . S
C349 C144 1.316 . S
C354 C4 1.316 . S
C359 C158 1.317 . S
C364 C18 1.316 . S
C369 C88 1.318 . S
C374 C32 1.317 . S
C379 C46 1.319 . S
C384 C102 1.319 . S
C389 C60 1.318 . S
C394 C116 1.318 . S
C399 C130 1.318 . S
C404 C74 1.318 . S
