# Generated by pormake.
# Topology uko, (4)-cn, num edge types: 1
# Building blocks:
#     Node 0, Type 0, BuildingBlock: CEKHIL_clean_sbu_0, # of connection points: 4
#     Node 1, Type 0, BuildingBlock: CEKHIL_clean_sbu_0, # of connection points: 4
#     Node 2, Type 0, BuildingBlock: CEKHIL_clean_sbu_0, # of connection points: 4
#     Node 3, Type 0, BuildingBlock: CEKHIL_clean_sbu_0, # of connection points: 4
#     Node 4, Type 0, BuildingBlock: CEKHIL_clean_sbu_0, # of connection points: 4
#     Node 5, Type 0, BuildingBlock: CEKHIL_clean_sbu_0, # of connection points: 4
#     Node 6, Type 0, BuildingBlock: CEKHIL_clean_sbu_0, # of connection points: 4
#     Node 7, Type 0, BuildingBlock: CEKHIL_clean_sbu_0, # of connection points: 4
#     Node 8, Type 0, BuildingBlock: CEKHIL_clean_sbu_0, # of connection points: 4
#     Node 9, Type 0, BuildingBlock: CEKHIL_clean_sbu_0, # of connection points: 4
#     Node 10, Type 0, BuildingBlock: CEKHIL_clean_sbu_0, # of connection points: 4
#     Node 11, Type 0, BuildingBlock: CEKHIL_clean_sbu_0, # of connection points: 4
#     Node 12, Type 0, BuildingBlock: CEKHIL_clean_sbu_0, # of connection points: 4
#     Node 13, Type 0, BuildingBlock: CEKHIL_clean_sbu_0, # of connection points: 4
#     Node 14, Type 0, BuildingBlock: CEKHIL_clean_sbu_0, # of connection points: 4
#     Node 15, Type 0, BuildingBlock: CEKHIL_clean_sbu_0, # of connection points: 4
#     Node 16, Type 0, BuildingBlock: CEKHIL_clean_sbu_0, # of connection points: 4
#     Node 17, Type 0, BuildingBlock: CEKHIL_clean_sbu_0, # of connection points: 4
#     Node 18, Type 0, BuildingBlock: CEKHIL_clean_sbu_0, # of connection points: 4
#     Node 19, Type 0, BuildingBlock: CEKHIL_clean_sbu_0, # of connection points: 4
#     Node 20, Type 0, BuildingBlock: CEKHIL_clean_sbu_0, # of connection points: 4
#     Node 21, Type 0, BuildingBlock: CEKHIL_clean_sbu_0, # of connection points: 4
#     Node 22, Type 0, BuildingBlock: CEKHIL_clean_sbu_0, # of connection points: 4
#     Node 23, Type 0, BuildingBlock: CEKHIL_clean_sbu_0, # of connection points: 4
#     Node 24, Type 0, BuildingBlock: CEKHIL_clean_sbu_0, # of connection points: 4
#     Node 25, Type 0, BuildingBlock: CEKHIL_clean_sbu_0, # of connection points: 4
#     Node 26, Type 0, BuildingBlock: CEKHIL_clean_sbu_0, # of connection points: 4
#     Node 27, Type 0, BuildingBlock: CEKHIL_clean_sbu_0, # of connection points: 4
#     Node 28, Type 0, BuildingBlock: CEKHIL_clean_sbu_0, # of connection points: 4
#     Node 29, Type 0, BuildingBlock: CEKHIL_clean_sbu_0, # of connection points: 4
#     Node 30, Type 0, BuildingBlock: CEKHIL_clean_sbu_0, # of connection points: 4
#     Node 31, Type 0, BuildingBlock: CEKHIL_clean_sbu_0, # of connection points: 4
#     Node 32, Type 0, BuildingBlock: CEKHIL_clean_sbu_0, # of connection points: 4
#     Node 33, Type 0, BuildingBlock: CEKHIL_clean_sbu_0, # of connection points: 4
#     Node 34, Type 0, BuildingBlock: CEKHIL_clean_sbu_0, # of connection points: 4
#     Node 35, Type 0, BuildingBlock: CEKHIL_clean_sbu_0, # of connection points: 4
#     Node 36, Type 0, BuildingBlock: CEKHIL_clean_sbu_0, # of connection points: 4
#     Node 37, Type 0, BuildingBlock: CEKHIL_clean_sbu_0, # of connection points: 4
#     Node 38, Type 0, BuildingBlock: CEKHIL_clean_sbu_0, # of connection points: 4
#     Node 39, Type 0, BuildingBlock: CEKHIL_clean_sbu_0, # of connection points: 4
#     Node 40, Type 0, BuildingBlock: CEKHIL_clean_sbu_0, # of connection points: 4
#     Node 41, Type 0, BuildingBlock: CEKHIL_clean_sbu_0, # of connection points: 4
#     Node 42, Type 0, BuildingBlock: CEKHIL_clean_sbu_0, # of connection points: 4
#     Node 43, Type 0, BuildingBlock: CEKHIL_clean_sbu_0, # of connection points: 4
#     Node 44, Type 0, BuildingBlock: CEKHIL_clean_sbu_0, # of connection points: 4
#     Node 45, Type 0, BuildingBlock: CEKHIL_clean_sbu_0, # of connection points: 4
#     Node 46, Type 0, BuildingBlock: CEKHIL_clean_sbu_0, # of connection points: 4
#     Node 47, Type 0, BuildingBlock: CEKHIL_clean_sbu_0, # of connection points: 4
#     Edge 48, Type (0, 0), BuildingBlock: EZIPEK_clean_linker_0, # of connection points: 2
#     Edge 49, Type (0, 0), BuildingBlock: EZIPEK_clean_linker_0, # of connection points: 2
#     Edge 50, Type (0, 0), BuildingBlock: EZIPEK_clean_linker_0, # of connection points: 2
#     Edge 51, Type (0, 0), BuildingBlock: EZIPEK_clean_linker_0, # of connection points: 2
#     Edge 52, Type (0, 0), BuildingBlock: EZIPEK_clean_linker_0, # of connection points: 2
#     Edge 53, Type (0, 0), BuildingBlock: EZIPEK_clean_linker_0, # of connection points: 2
#     Edge 54, Type (0, 0), BuildingBlock: EZIPEK_clean_linker_0, # of connection points: 2
#     Edge 55, Type (0, 0), BuildingBlock: EZIPEK_clean_linker_0, # of connection points: 2
#     Edge 56, Type (0, 0), BuildingBlock: EZIPEK_clean_linker_0, # of connection points: 2
#     Edge 57, Type (0, 0), BuildingBlock: EZIPEK_clean_linker_0, # of connection points: 2
#     Edge 58, Type (0, 0), BuildingBlock: EZIPEK_clean_linker_0, # of connection points: 2
#     Edge 59, Type (0, 0), BuildingBlock: EZIPEK_clean_linker_0, # of connection points: 2
#     Edge 60, Type (0, 0), BuildingBlock: EZIPEK_clean_linker_0, # of connection points: 2
#     Edge 61, Type (0, 0), BuildingBlock: EZIPEK_clean_linker_0, # of connection points: 2
#     Edge 62, Type (0, 0), BuildingBlock: EZIPEK_clean_linker_0, # of connection points: 2
#     Edge 63, Type (0, 0), BuildingBlock: EZIPEK_clean_linker_0, # of connection points: 2
#     Edge 64, Type (0, 0), BuildingBlock: EZIPEK_clean_linker_0, # of connection points: 2
#     Edge 65, Type (0, 0), BuildingBlock: EZIPEK_clean_linker_0, # of connection points: 2
#     Edge 66, Type (0, 0), BuildingBlock: EZIPEK_clean_linker_0, # of connection points: 2
#     Edge 67, Type (0, 0), BuildingBlock: EZIPEK_clean_linker_0, # of connection points: 2
#     Edge 68, Type (0, 0), BuildingBlock: EZIPEK_clean_linker_0, # of connection points: 2
#     Edge 69, Type (0, 0), BuildingBlock: EZIPEK_clean_linker_0, # of connection points: 2
#     Edge 70, Type (0, 0), BuildingBlock: EZIPEK_clean_linker_0, # of connection points: 2
#     Edge 71, Type (0, 0), BuildingBlock: EZIPEK_clean_linker_0, # of connection points: 2
#     Edge 72, Type (0, 0), BuildingBlock: EZIPEK_clean_linker_0, # of connection points: 2
#     Edge 73, Type (0, 0), BuildingBlock: EZIPEK_clean_linker_0, # of connection points: 2
#     Edge 74, Type (0, 0), BuildingBlock: EZIPEK_clean_linker_0, # of connection points: 2
#     Edge 75, Type (0, 0), BuildingBlock: EZIPEK_clean_linker_0, # of connection points: 2
#     Edge 76, Type (0, 0), BuildingBlock: EZIPEK_clean_linker_0, # of connection points: 2
#     Edge 77, Type (0, 0), BuildingBlock: EZIPEK_clean_linker_0, # of connection points: 2
#     Edge 78, Type (0, 0), BuildingBlock: EZIPEK_clean_linker_0, # of connection points: 2
#     Edge 79, Type (0, 0), BuildingBlock: EZIPEK_clean_linker_0, # of connection points: 2
#     Edge 80, Type (0, 0), BuildingBlock: EZIPEK_clean_linker_0, # of connection points: 2
#     Edge 81, Type (0, 0), BuildingBlock: EZIPEK_clean_linker_0, # of connection points: 2
#     Edge 82, Type (0, 0), BuildingBlock: EZIPEK_clean_linker_0, # of connection points: 2
#     Edge 83, Type (0, 0), BuildingBlock: EZIPEK_clean_linker_0, # of connection points: 2
#     Edge 84, Type (0, 0), BuildingBlock: EZIPEK_clean_linker_0, # of connection points: 2
#     Edge 85, Type (0, 0), BuildingBlock: EZIPEK_clean_linker_0, # of connection points: 2
#     Edge 86, Type (0, 0), BuildingBlock: EZIPEK_clean_linker_0, # of connection points: 2
#     Edge 87, Type (0, 0), BuildingBlock: EZIPEK_clean_linker_0, # of connection points: 2
#     Edge 88, Type (0, 0), BuildingBlock: EZIPEK_clean_linker_0, # of connection points: 2
#     Edge 89, Type (0, 0), BuildingBlock: EZIPEK_clean_linker_0, # of connection points: 2
#     Edge 90, Type (0, 0), BuildingBlock: EZIPEK_clean_linker_0, # of connection points: 2
#     Edge 91, Type (0, 0), BuildingBlock: EZIPEK_clean_linker_0, # of connection points: 2
#     Edge 92, Type (0, 0), BuildingBlock: EZIPEK_clean_linker_0, # of connection points: 2
#     Edge 93, Type (0, 0), BuildingBlock: EZIPEK_clean_linker_0, # of connection points: 2
#     Edge 94, Type (0, 0), BuildingBlock: EZIPEK_clean_linker_0, # of connection points: 2
#     Edge 95, Type (0, 0), BuildingBlock: EZIPEK_clean_linker_0, # of connection points: 2
#     Edge 96, Type (0, 0), BuildingBlock: EZIPEK_clean_linker_0, # of connection points: 2
#     Edge 97, Type (0, 0), BuildingBlock: EZIPEK_clean_linker_0, # of connection points: 2
#     Edge 98, Type (0, 0), BuildingBlock: EZIPEK_clean_linker_0, # of connection points: 2
#     Edge 99, Type (0, 0), BuildingBlock: EZIPEK_clean_linker_0, # of connection points: 2
#     Edge 100, Type (0, 0), BuildingBlock: EZIPEK_clean_linker_0, # of connection points: 2
#     Edge 101, Type (0, 0), BuildingBlock: EZIPEK_clean_linker_0, # of connection points: 2
#     Edge 102, Type (0, 0), BuildingBlock: EZIPEK_clean_linker_0, # of connection points: 2
#     Edge 103, Type (0, 0), BuildingBlock: EZIPEK_clean_linker_0, # of connection points: 2
#     Edge 104, Type (0, 0), BuildingBlock: EZIPEK_clean_linker_0, # of connection points: 2
#     Edge 105, Type (0, 0), BuildingBlock: EZIPEK_clean_linker_0, # of connection points: 2
#     Edge 106, Type (0, 0), BuildingBlock: EZIPEK_clean_linker_0, # of connection points: 2
#     Edge 107, Type (0, 0), BuildingBlock: EZIPEK_clean_linker_0, # of connection points: 2
#     Edge 108, Type (0, 0), BuildingBlock: EZIPEK_clean_linker_0, # of connection points: 2
#     Edge 109, Type (0, 0), BuildingBlock: EZIPEK_clean_linker_0, # of connection points: 2
#     Edge 110, Type (0, 0), BuildingBlock: EZIPEK_clean_linker_0, # of connection points: 2
#     Edge 111, Type (0, 0), BuildingBlock: EZIPEK_clean_linker_0, # of connection points: 2
#     Edge 112, Type (0, 0), BuildingBlock: EZIPEK_clean_linker_0, # of connection points: 2
#     Edge 113, Type (0, 0), BuildingBlock: EZIPEK_clean_linker_0, # of connection points: 2
#     Edge 114, Type (0, 0), BuildingBlock: EZIPEK_clean_linker_0, # of connection points: 2
#     Edge 115, Type (0, 0), BuildingBlock: EZIPEK_clean_linker_0, # of connection points: 2
#     Edge 116, Type (0, 0), BuildingBlock: EZIPEK_clean_linker_0, # of connection points: 2
#     Edge 117, Type (0, 0), BuildingBlock: EZIPEK_clean_linker_0, # of connection points: 2
#     Edge 118, Type (0, 0), BuildingBlock: EZIPEK_clean_linker_0, # of connection points: 2
#     Edge 119, Type (0, 0), BuildingBlock: EZIPEK_clean_linker_0, # of connection points: 2
#     Edge 120, Type (0, 0), BuildingBlock: EZIPEK_clean_linker_0, # of connection points: 2
#     Edge 121, Type (0, 0), BuildingBlock: EZIPEK_clean_linker_0, # of connection points: 2
#     Edge 122, Type (0, 0), BuildingBlock: EZIPEK_clean_linker_0, # of connection points: 2
#     Edge 123, Type (0, 0), BuildingBlock: EZIPEK_clean_linker_0, # of connection points: 2
#     Edge 124, Type (0, 0), BuildingBlock: EZIPEK_clean_linker_0, # of connection points: 2
#     Edge 125, Type (0, 0), BuildingBlock: EZIPEK_clean_linker_0, # of connection points: 2
#     Edge 126, Type (0, 0), BuildingBlock: EZIPEK_clean_linker_0, # of connection points: 2
#     Edge 127, Type (0, 0), BuildingBlock: EZIPEK_clean_linker_0, # of connection points: 2
#     Edge 128, Type (0, 0), BuildingBlock: EZIPEK_clean_linker_0, # of connection points: 2
#     Edge 129, Type (0, 0), BuildingBlock: EZIPEK_clean_linker_0, # of connection points: 2
#     Edge 130, Type (0, 0), BuildingBlock: EZIPEK_clean_linker_0, # of connection points: 2
#     Edge 131, Type (0, 0), BuildingBlock: EZIPEK_clean_linker_0, # of connection points: 2
#     Edge 132, Type (0, 0), BuildingBlock: EZIPEK_clean_linker_0, # of connection points: 2
#     Edge 133, Type (0, 0), BuildingBlock: EZIPEK_clean_linker_0, # of connection points: 2
#     Edge 134, Type (0, 0), BuildingBlock: EZIPEK_clean_linker_0, # of connection points: 2
#     Edge 135, Type (0, 0), BuildingBlock: EZIPEK_clean_linker_0, # of connection points: 2
#     Edge 136, Type (0, 0), BuildingBlock: EZIPEK_clean_linker_0, # of connection points: 2
#     Edge 137, Type (0, 0), BuildingBlock: EZIPEK_clean_linker_0, # of connection points: 2
#     Edge 138, Type (0, 0), BuildingBlock: EZIPEK_clean_linker_0, # of connection points: 2
#     Edge 139, Type (0, 0), BuildingBlock: EZIPEK_clean_linker_0, # of connection points: 2
#     Edge 140, Type (0, 0), BuildingBlock: EZIPEK_clean_linker_0, # of connection points: 2
#     Edge 141, Type (0, 0), BuildingBlock: EZIPEK_clean_linker_0, # of connection points: 2
#     Edge 142, Type (0, 0), BuildingBlock: EZIPEK_clean_linker_0, # of connection points: 2
#     Edge 143, Type (0, 0), BuildingBlock: EZIPEK_clean_linker_0, # of connection points: 2
# Relax obj value: 0.293
# Max RMSD: 0.162
# Mean RMSD: 0.162
data_MOF--net-uko--node1-CEKHIL_clean_sbu_0--edge1-EZIPEK_clean_linker_0
_symmetry_space_group_name_H-M    P1
_symmetry_Int_Tables_number       1
_symmetry_cell_setting            triclinic
loop_
_symmetry_equiv_pos_as_xyz
'x, y, z'
_cell_length_a     40.497114
_cell_length_b     40.461451
_cell_length_c     40.475404
_cell_angle_alpha  90.018928
_cell_angle_beta   90.093574
_cell_angle_gamma 89.956861
loop_
_atom_site_label
_atom_site_type_symbol
_atom_site_fract_x
_atom_site_fract_y
_atom_site_fract_z
_atom_type_partial_charge
Co0 Co 0.0359 0.36629 0.25119 0.0
O1 O 0.0483 0.32087 0.24365 0.0
O2 O 0.99771 0.33844 0.25558 0.0
C3 C 0.06362 0.3873 0.20779 0.0
O4 O 0.01218 0.40995 0.25872 0.0
Co5 Co 0.08727 0.42118 0.26636 0.0
O6 O 0.04957 0.45099 0.25836 0.0
C7 C 0.07215 0.37091 0.31663 0.0
C8 C 0.01739 0.31404 0.24882 0.0
C9 C 0.01988 0.44066 0.25841 0.0
O10 O 0.04714 0.36084 0.29963 0.0
O11 O 0.09201 0.39342 0.30684 0.0
O12 O 0.03451 0.37444 0.20341 0.0
O13 O 0.0757 0.38502 0.23716 0.0
Co14 Co 0.94534 0.12967 0.24468 0.0
O15 O 0.93618 0.17505 0.23324 0.0
O16 O 0.98361 0.15629 0.25367 0.0
C17 C 0.92395 0.1062 0.19869 0.0
O18 O 0.9654 0.0858 0.25814 0.0
Co19 Co 0.88915 0.0795 0.25681 0.0
O20 O 0.92542 0.04802 0.26549 0.0
C21 C 0.90211 0.1302 0.30642 0.0
C22 C 0.96605 0.1811 0.24338 0.0
C23 C 0.95567 0.05653 0.2652 0.0
O24 O 0.92847 0.13831 0.29075 0.0
O25 O 0.88166 0.10853 0.29599 0.0
O26 O 0.9536 0.11853 0.1984 0.0
O27 O 0.90716 0.11115 0.22538 0.0
Co28 Co 0.06171 0.6242 0.25789 0.0
O29 O 0.07957 0.66751 0.26697 0.0
O30 O 0.0276 0.65663 0.2528 0.0
C31 C 0.08431 0.59876 0.30216 0.0
O32 O 0.03271 0.58448 0.24885 0.0
Co33 Co 0.10553 0.56431 0.2416 0.0
O34 O 0.06369 0.53922 0.2407 0.0
C35 C 0.09887 0.61719 0.19311 0.0
C36 C 0.04988 0.67817 0.26092 0.0
C37 C 0.03584 0.55343 0.24385 0.0
O38 O 0.07463 0.6291 0.20988 0.0
O39 O 0.11639 0.59276 0.20279 0.0
O40 O 0.05705 0.61548 0.30504 0.0
O41 O 0.09827 0.59977 0.27344 0.0
Co42 Co 0.96432 0.85491 0.26336 0.0
O43 O 0.96161 0.80751 0.26482 0.0
O44 O 0.00818 0.83655 0.2643 0.0
C45 C 0.92541 0.86484 0.30208 0.0
O46 O 0.97782 0.90311 0.26326 0.0
Co47 Co 0.90386 0.89777 0.24233 0.0
O48 O 0.93296 0.93502 0.2552 0.0
C49 C 0.93827 0.85611 0.19364 0.0
C50 C 0.99371 0.80792 0.26485 0.0
C51 C 0.96362 0.93134 0.26137 0.0
O52 O 0.96323 0.85355 0.2133 0.0
O53 O 0.91094 0.86942 0.20234 0.0
O54 O 0.9554 0.85757 0.31114 0.0
O55 O 0.91967 0.86301 0.27088 0.0
Co56 Co 0.25031 0.04553 0.36927 0.0
O57 O 0.24415 0.0614 0.32499 0.0
O58 O 0.2529 0.00895 0.33923 0.0
C59 C 0.20817 0.07398 0.39157 0.0
O60 O 0.2561 0.01917 0.41138 0.0
Co61 Co 0.26888 0.09337 0.42594 0.0
O62 O 0.26172 0.05434 0.45407 0.0
C63 C 0.3162 0.07941 0.37318 0.0
C64 C 0.24779 0.03076 0.31624 0.0
C65 C 0.25848 0.02534 0.44231 0.0
O66 O 0.29907 0.05406 0.36461 0.0
O67 O 0.30726 0.09968 0.39569 0.0
O68 O 0.20271 0.04592 0.37689 0.0
O69 O 0.23805 0.08494 0.39008 0.0
Co70 Co 0.74334 0.46595 0.3665 0.0
O71 O 0.74747 0.45511 0.32042 0.0
O72 O 0.7403 0.50574 0.3406 0.0
C73 C 0.78537 0.43415 0.38426 0.0
O74 O 0.73954 0.48736 0.41177 0.0
Co75 Co 0.72508 0.41233 0.41787 0.0
O76 O 0.73337 0.44782 0.45036 0.0
C77 C 0.67832 0.43168 0.36627 0.0
C78 C 0.7438 0.48653 0.31512 0.0
C79 C 0.73749 0.47784 0.44192 0.0
O80 O 0.69429 0.45885 0.36267 0.0
O81 O 0.68816 0.40831 0.38513 0.0
O82 O 0.79127 0.46345 0.37243 0.0
O83 O 0.75517 0.42423 0.38242 0.0
Co84 Co 0.25387 0.95864 0.13347 0.0
O85 O 0.25067 0.95049 0.18004 0.0
O86 O 0.24993 2e-05 0.15622 0.0
C87 C 0.21747 0.91968 0.11763 0.0
O88 O 0.2548 0.97779 0.08759 0.0
Co89 Co 0.27998 0.90555 0.08509 0.0
O90 O 0.26771 0.93834 0.05077 0.0
C91 C 0.32409 0.93511 0.1343 0.0
C92 C 0.24902 0.98244 0.18302 0.0
C93 C 0.25901 0.96774 0.058 0.0
O94 O 0.3038 0.95951 0.13711 0.0
O95 O 0.31688 0.909 0.11799 0.0
O96 O 0.20689 0.94837 0.12756 0.0
O97 O 0.2488 0.91474 0.12013 0.0
Co98 Co 0.73595 0.55129 0.12858 0.0
O99 O 0.74055 0.5652 0.17384 0.0
O100 O 0.73503 0.51322 0.15696 0.0
C101 C 0.77654 0.58342 0.10854 0.0
O102 O 0.73239 0.52635 0.08522 0.0
Co103 Co 0.71569 0.59928 0.07277 0.0
O104 O 0.72619 0.56198 0.04311 0.0
C105 C 0.66998 0.58329 0.12641 0.0
C106 C 0.73865 0.53402 0.18113 0.0
C107 C 0.73095 0.53297 0.0543 0.0
O108 O 0.68678 0.55706 0.13262 0.0
O109 O 0.67895 0.605 0.10531 0.0
O110 O 0.78354 0.55505 0.12194 0.0
O111 O 0.74594 0.5923 0.10956 0.0
Co112 Co 0.35717 0.25629 0.0373 0.0
O113 O 0.31332 0.24996 0.05392 0.0
O114 O 0.32696 0.24596 0.00158 0.0
C115 C 0.3826 0.22528 0.07598 0.0
O116 O 0.39987 0.25905 0.01103 0.0
Co117 Co 0.40856 0.2937 0.07888 0.0
O118 O 0.43967 0.27831 0.04461 0.0
C119 C 0.35278 0.32981 0.0508 0.0
C120 C 0.30396 0.24389 0.02393 0.0
C121 C 0.43022 0.26579 0.01731 0.0
O122 O 0.34764 0.30495 0.03174 0.0
O123 O 0.37438 0.32923 0.07387 0.0
O124 O 0.36931 0.21153 0.0502 0.0
O125 O 0.37775 0.25676 0.07903 0.0
Co126 Co 0.36009 0.7434 0.445 0.0
O127 O 0.31536 0.74356 0.42826 0.0
O128 O 0.32974 0.73541 0.48061 0.0
C129 C 0.37739 0.78871 0.41795 0.0
O130 O 0.40195 0.74299 0.47284 0.0
Co131 Co 0.42097 0.73447 0.39928 0.0
O132 O 0.44668 0.7427 0.43998 0.0
C133 C 0.37305 0.68124 0.40774 0.0
C134 C 0.30656 0.73754 0.45854 0.0
C135 C 0.43327 0.74408 0.46839 0.0
O136 O 0.36295 0.69475 0.43469 0.0
O137 O 0.39373 0.6948 0.3882 0.0
O138 O 0.361 0.79186 0.44541 0.0
O139 O 0.38041 0.75909 0.40672 0.0
Co140 Co 0.61868 0.7701 0.45722 0.0
O141 O 0.66395 0.76452 0.44339 0.0
O142 O 0.64807 0.77955 0.49364 0.0
C143 C 0.59945 0.72344 0.43379 0.0
O144 O 0.57538 0.77631 0.482 0.0
Co145 Co 0.56149 0.77855 0.40665 0.0
O146 O 0.53312 0.77431 0.44586 0.0
C147 C 0.61161 0.82999 0.414 0.0
C148 C 0.67197 0.77279 0.47335 0.0
C149 C 0.54442 0.77547 0.47521 0.0
O150 O 0.62048 0.81746 0.44189 0.0
O151 O 0.5898 0.8171 0.39514 0.0
O152 O 0.61389 0.72219 0.46252 0.0
O153 O 0.59934 0.75187 0.41949 0.0
Co154 Co 0.12225 0.70866 0.5258 0.0
O155 O 0.16878 0.71107 0.53619 0.0
O156 O 0.14743 0.71408 0.48584 0.0
C157 C 0.10569 0.74404 0.56562 0.0
O158 O 0.07693 0.70976 0.50396 0.0
Co159 Co 0.06906 0.68285 0.57391 0.0
O160 O 0.03732 0.70131 0.54171 0.0
C161 C 0.119 0.63727 0.54655 0.0
C162 C 0.17343 0.71474 0.5046 0.0
C163 C 0.04653 0.70951 0.51281 0.0
O164 O 0.12592 0.65871 0.524 0.0
O165 O 0.09966 0.64419 0.57055 0.0
O166 O 0.11677 0.7553 0.53766 0.0
O167 O 0.10649 0.71237 0.56912 0.0
Co168 Co 0.94565 0.6194 0.72159 0.0
O169 O 0.92912 0.66386 0.72778 0.0
O170 O 0.982 0.65037 0.72374 0.0
C171 C 0.913 0.5955 0.7593 0.0
O172 O 0.97252 0.57668 0.71754 0.0
Co173 Co 0.90063 0.56292 0.69567 0.0
O174 O 0.93807 0.53414 0.7079 0.0
C175 C 0.91468 0.62121 0.65564 0.0
C176 C 0.95972 0.67321 0.72744 0.0
C177 C 0.96653 0.54551 0.71502 0.0
O178 O 0.94127 0.62565 0.67248 0.0
O179 O 0.89338 0.59905 0.66271 0.0
O180 O 0.9401 0.6101 0.7686 0.0
O181 O 0.90561 0.59786 0.7284 0.0
Co182 Co 0.04916 0.84698 0.73925 0.0
O183 O 0.04565 0.79996 0.74417 0.0
O184 O 0.00329 0.83346 0.7348 0.0
C185 C 0.08268 0.85657 0.78198 0.0
O186 O 0.04484 0.89775 0.73587 0.0
Co187 Co 0.11768 0.87498 0.72034 0.0
O188 O 0.09357 0.91717 0.71767 0.0
C189 C 0.08352 0.83115 0.67592 0.0
C190 C 0.01431 0.80345 0.73902 0.0
C191 C 0.06454 0.9219 0.72879 0.0
O192 O 0.05638 0.83961 0.69017 0.0
O193 O 0.11179 0.83982 0.68675 0.0
O194 O 0.05119 0.85297 0.78715 0.0
O195 O 0.09284 0.84961 0.75259 0.0
Co196 Co 0.94244 0.36295 0.76443 0.0
O197 O 0.9236 0.31921 0.75973 0.0
O198 O 0.97702 0.3307 0.75732 0.0
C199 C 0.90621 0.3888 0.73126 0.0
O200 O 0.97135 0.40451 0.76571 0.0
Co201 Co 0.90338 0.421 0.79606 0.0
O202 O 0.9402 0.44835 0.77975 0.0
C203 C 0.92089 0.36226 0.83446 0.0
C204 C 0.95366 0.30871 0.75623 0.0
C205 C 0.96712 0.43588 0.76931 0.0
O206 O 0.94415 0.3559 0.81376 0.0
O207 O 0.89994 0.38551 0.83024 0.0
O208 O 0.93136 0.37331 0.71857 0.0
O209 O 0.9027 0.38625 0.76281 0.0
Co210 Co 0.03909 0.13334 0.75049 0.0
O211 O 0.03613 0.18013 0.74361 0.0
O212 O 0.99299 0.147 0.74921 0.0
C213 C 0.07737 0.12223 0.71235 0.0
O214 O 0.03473 0.0827 0.75491 0.0
Co215 Co 0.10423 0.10558 0.7786 0.0
O216 O 0.07667 0.06628 0.78716 0.0
C217 C 0.06633 0.15216 0.81616 0.0
C218 C 0.00443 0.17692 0.74563 0.0
C219 C 0.05188 0.05974 0.76899 0.0
O220 O 0.04076 0.14256 0.79984 0.0
O221 O 0.09552 0.14326 0.80853 0.0
O222 O 0.04667 0.12563 0.7034 0.0
O223 O 0.08412 0.13018 0.74248 0.0
Co224 Co 0.75754 0.96819 0.62792 0.0
O225 O 0.77005 0.96056 0.67317 0.0
O226 O 0.75348 0.00866 0.65266 0.0
C227 C 0.80024 0.9412 0.60425 0.0
O228 O 0.74461 0.98681 0.58316 0.0
Co229 Co 0.73783 0.91044 0.58248 0.0
O230 O 0.73175 0.94531 0.54858 0.0
C231 C 0.69614 0.92706 0.6384 0.0
C232 C 0.76278 0.99146 0.67813 0.0
C233 C 0.73595 0.97593 0.5547 0.0
O234 O 0.71027 0.95561 0.6392 0.0
O235 O 0.70672 0.90351 0.62023 0.0
O236 O 0.80393 0.97138 0.6147 0.0
O237 O 0.77235 0.92746 0.61127 0.0
Co238 Co 0.25891 0.5287 0.62378 0.0
O239 O 0.24307 0.53767 0.66778 0.0
O240 O 0.26534 0.49037 0.65134 0.0
C241 C 0.21523 0.54946 0.59534 0.0
O242 O 0.27654 0.50914 0.58125 0.0
Co243 Co 0.27645 0.58558 0.57698 0.0
O244 O 0.2901 0.54989 0.54625 0.0
C245 C 0.31698 0.5751 0.63496 0.0
C246 C 0.25321 0.50808 0.6752 0.0
C247 C 0.28742 0.51932 0.55336 0.0
O248 O 0.30403 0.54611 0.63715 0.0
O249 O 0.30618 0.59693 0.61488 0.0
O250 O 0.21418 0.51983 0.60774 0.0
O251 O 0.24094 0.56669 0.60341 0.0
Co252 Co 0.74219 0.03345 0.86901 0.0
O253 O 0.75588 0.0563 0.82945 0.0
O254 O 0.74699 0.00227 0.83349 0.0
C255 C 0.7775 0.05767 0.90522 0.0
O256 O 0.73052 0.00065 0.90511 0.0
Co257 Co 0.70829 0.07126 0.92548 0.0
O258 O 0.7092 0.0281 0.94831 0.0
C259 C 0.67549 0.06576 0.86254 0.0
C260 C 0.75475 0.02749 0.81526 0.0
C261 C 0.71973 0.00165 0.93489 0.0
O262 O 0.69455 0.04121 0.85592 0.0
O263 O 0.67909 0.08398 0.88798 0.0
O264 O 0.78723 0.03367 0.88621 0.0
O265 O 0.74818 0.0687 0.89854 0.0
Co266 Co 0.26087 0.46116 0.86801 0.0
O267 O 0.25261 0.44293 0.82466 0.0
O268 O 0.26165 0.49593 0.83533 0.0
C269 C 0.22073 0.43347 0.8946 0.0
O270 O 0.26819 0.48992 0.90864 0.0
Co271 Co 0.28405 0.41728 0.92624 0.0
O272 O 0.27776 0.45776 0.95287 0.0
C273 C 0.32484 0.42546 0.86768 0.0
C274 C 0.2558 0.47289 0.81375 0.0
C275 C 0.27243 0.48593 0.93984 0.0
O276 O 0.30937 0.45251 0.86151 0.0
O277 O 0.31645 0.4057 0.89078 0.0
O278 O 0.21369 0.46032 0.87831 0.0
O279 O 0.25071 0.42303 0.89196 0.0
Co280 Co 0.6369 0.75422 0.97468 0.0
O281 O 0.68081 0.76347 0.95845 0.0
O282 O 0.66749 0.75521 0.01098 0.0
C283 C 0.61071 0.79353 0.9447 0.0
O284 O 0.5957 0.7462 0.00202 0.0
Co285 Co 0.58126 0.72824 0.9304 0.0
O286 O 0.55466 0.72552 0.97124 0.0
C287 C 0.63882 0.68737 0.94299 0.0
C288 C 0.69018 0.76097 0.98909 0.0
C289 C 0.56617 0.73531 -0.00118 0.0
O290 O 0.64559 0.70553 0.96812 0.0
O291 O 0.61615 0.69444 0.92222 0.0
O292 O 0.62502 0.80086 0.97256 0.0
O293 O 0.61416 0.76327 0.93494 0.0
Co294 Co 0.62089 0.26191 0.52735 0.0
O295 O 0.66582 0.25981 0.54258 0.0
O296 O 0.65002 0.26388 0.49008 0.0
C297 C 0.60188 0.22065 0.55934 0.0
O298 O 0.57819 0.26272 0.50113 0.0
Co299 Co 0.56319 0.28023 0.57366 0.0
O300 O 0.53514 0.26851 0.53558 0.0
C301 C 0.61553 0.32778 0.55892 0.0
C302 C 0.67375 0.26173 0.51157 0.0
C303 C 0.54714 0.26354 0.50696 0.0
O304 O 0.62248 0.31135 0.53266 0.0
O305 O 0.59428 0.31804 0.58011 0.0
O306 O 0.61646 0.21403 0.5315 0.0
O307 O 0.60129 0.25137 0.56793 0.0
Co308 Co 0.36672 0.24342 0.53911 0.0
O309 O 0.32295 0.25286 0.55556 0.0
O310 O 0.33506 0.23716 0.50434 0.0
C311 C 0.3914 0.28836 0.56126 0.0
O312 O 0.40704 0.23372 0.51129 0.0
Co313 Co 0.426 0.22854 0.58419 0.0
O314 O 0.45167 0.22505 0.5429 0.0
C315 C 0.37351 0.17964 0.57805 0.0
C316 C 0.31297 0.24582 0.52583 0.0
C317 C 0.43789 0.22788 0.51477 0.0
O318 O 0.36168 0.19582 0.55334 0.0
O319 O 0.39786 0.18973 0.59541 0.0
O320 O 0.3754 0.29049 0.53346 0.0
O321 O 0.39032 0.25994 0.57585 0.0
Co322 Co 0.85989 0.25754 0.44768 0.0
O323 O 0.81424 0.25544 0.4348 0.0
O324 O 0.83272 0.26253 0.48616 0.0
C325 C 0.87623 0.21387 0.41742 0.0
O326 O 0.90382 0.25949 0.47167 0.0
Co327 Co 0.91576 0.27081 0.39752 0.0
O328 O 0.94533 0.26073 0.43492 0.0
C329 C 0.86819 0.32303 0.41386 0.0
C330 C 0.80797 0.25955 0.46598 0.0
C331 C 0.93454 0.25878 0.46435 0.0
O332 O 0.85905 0.30658 0.43944 0.0
O333 O 0.88921 0.31225 0.3929 0.0
O334 O 0.86316 0.20934 0.4464 0.0
O335 O 0.8771 0.24396 0.40696 0.0
Co336 Co 0.55359 0.86752 0.76375 0.0
O337 O 0.56919 0.82265 0.75925 0.0
O338 O 0.51656 0.83793 0.7614 0.0
C339 C 0.58801 0.88953 0.7251 0.0
O340 O 0.52672 0.90971 0.76534 0.0
Co341 Co 0.59631 0.92371 0.78905 0.0
O342 O 0.55743 0.95251 0.78186 0.0
C343 C 0.57373 0.87459 0.83637 0.0
C344 C 0.53817 0.81437 0.7589 0.0
C345 C 0.53035 0.9405 0.77149 0.0
O346 O 0.55457 0.86302 0.81374 0.0
O347 O 0.59566 0.89622 0.82976 0.0
O348 O 0.56036 0.87555 0.71673 0.0
O349 O 0.59493 0.88825 0.75636 0.0
Co350 Co 0.46216 0.63195 0.76026 0.0
O351 O 0.45407 0.67836 0.75288 0.0
O352 O 0.50353 0.65505 0.75723 0.0
C353 C 0.42503 0.61254 0.72275 0.0
O354 O 0.48192 0.58635 0.76504 0.0
Co355 Co 0.41138 0.5853 0.78954 0.0
O356 O 0.44578 0.55042 0.78602 0.0
C357 C 0.43726 0.63749 0.83058 0.0
C358 C 0.48601 0.68169 0.75385 0.0
C359 C 0.47396 0.55715 0.77399 0.0
O360 O 0.46114 0.63999 0.80975 0.0
O361 O 0.41208 0.61933 0.82525 0.0
O362 O 0.45439 0.62195 0.71373 0.0
O363 O 0.41824 0.6172 0.75371 0.0
Co364 Co 0.54312 0.12668 0.72877 0.0
O365 O 0.55581 0.1724 0.73264 0.0
O366 O 0.50427 0.15397 0.72845 0.0
C367 C 0.57649 0.10696 0.76859 0.0
O368 O 0.51959 0.08248 0.72607 0.0
Co369 Co 0.5926 0.07297 0.70648 0.0
O370 O 0.55633 0.04198 0.71663 0.0
C371 C 0.57311 0.12618 0.66182 0.0
C372 C 0.52441 0.17883 0.73089 0.0
C373 C 0.52716 0.05186 0.72306 0.0
O374 O 0.54716 0.13075 0.67943 0.0
O375 O 0.59611 0.1061 0.66994 0.0
O376 O 0.54821 0.12012 0.77631 0.0
O377 O 0.58482 0.10869 0.73786 0.0
Co378 Co 0.45337 0.36363 0.73072 0.0
O379 O 0.44176 0.31747 0.73085 0.0
O380 O 0.49287 0.33733 0.72814 0.0
C381 C 0.41994 0.37857 0.77261 0.0
O382 O 0.47584 0.40855 0.73178 0.0
Co383 Co 0.40168 0.41806 0.71537 0.0
O384 O 0.43712 0.44837 0.72981 0.0
C385 C 0.42723 0.37655 0.66118 0.0
C386 C 0.47331 0.31194 0.72927 0.0
C387 C 0.46693 0.43894 0.73329 0.0
O388 O 0.44922 0.3645 0.68086 0.0
O389 O 0.40406 0.39536 0.67153 0.0
O390 O 0.44866 0.36562 0.77884 0.0
O391 O 0.41138 0.37949 0.74192 0.0
Co392 Co 0.7443 0.53945 0.86743 0.0
O393 O 0.72952 0.55477 0.82494 0.0
O394 O 0.73108 0.5027 0.84005 0.0
C395 C 0.71581 0.57734 0.89646 0.0
O396 O 0.75515 0.51348 0.90905 0.0
Co397 Co 0.78518 0.58311 0.91538 0.0
O398 O 0.77557 0.54792 0.94752 0.0
C399 C 0.81413 0.55907 0.85347 0.0
C400 C 0.7227 0.52429 0.8178 0.0
C401 C 0.76446 0.51985 0.9387 0.0
O402 O 0.79099 0.53749 0.85031 0.0
O403 O 0.81448 0.5813 0.87587 0.0
O404 O 0.70136 0.5505 0.88633 0.0
O405 O 0.74614 0.58112 0.88752 0.0
Co406 Co 0.24669 0.94453 0.86747 0.0
O407 O 0.25668 0.93184 0.82271 0.0
O408 O 0.24064 0.98188 0.83908 0.0
C409 C 0.2908 0.92037 0.8911 0.0
O410 O 0.23603 0.9685 0.90988 0.0
Co411 Co 0.23208 0.89343 0.92261 0.0
O412 O 0.23257 0.93243 0.95188 0.0
C413 C 0.18554 0.90275 0.86805 0.0
C414 C 0.24949 0.96228 0.81533 0.0
C415 C 0.23283 0.96178 0.94054 0.0
O416 O 0.19957 0.93023 0.86046 0.0
O417 O 0.19642 0.88304 0.8902 0.0
O418 O 0.29376 0.94933 0.87745 0.0
O419 O 0.26253 0.90614 0.88779 0.0
Co420 Co 0.7352 0.46481 0.6351 0.0
O421 O 0.71971 0.4524 0.67822 0.0
O422 O 0.7284 0.50346 0.66214 0.0
C423 C 0.70057 0.43126 0.60728 0.0
O424 O 0.74862 0.48827 0.59276 0.0
Co425 Co 0.76756 0.41451 0.58711 0.0
O426 O 0.76246 0.45038 0.55454 0.0
C427 C 0.80226 0.43557 0.64728 0.0
C428 C 0.71768 0.48367 0.68499 0.0
C429 C 0.75608 0.47998 0.56308 0.0
O430 O 0.78224 0.46003 0.651 0.0
O431 O 0.79871 0.41314 0.62534 0.0
O432 O 0.69046 0.46003 0.61739 0.0
O433 O 0.73018 0.4231 0.61576 0.0
Co434 Co 0.25024 0.04057 0.63425 0.0
O435 O 0.25659 0.04998 0.68047 0.0
O436 O 0.24538 0.00061 0.65906 0.0
C437 C 0.29365 0.06993 0.61607 0.0
O438 O 0.2436 0.0195 0.58942 0.0
Co439 Co 0.23574 0.09463 0.58179 0.0
O440 O 0.24067 0.0582 0.54975 0.0
C441 C 0.18704 0.07876 0.6331 0.0
C442 C 0.25119 0.01861 0.68495 0.0
C443 C 0.24197 0.0282 0.5591 0.0
O444 O 0.20191 0.05133 0.63934 0.0
O445 O 0.19812 0.10051 0.61308 0.0
O446 O 0.29813 0.04007 0.62718 0.0
O447 O 0.26414 0.08154 0.61823 0.0
Co448 Co 0.86053 0.76795 0.53474 0.0
O449 O 0.81473 0.76978 0.54779 0.0
O450 O 0.83296 0.77478 0.49636 0.0
C451 C 0.8738 0.72316 0.565 0.0
O452 O 0.90474 0.76552 0.51081 0.0
Co453 Co 0.9172 0.77656 0.58571 0.0
O454 O 0.9458 0.76381 0.54827 0.0
C455 C 0.87871 0.83461 0.56496 0.0
C456 C 0.80815 0.77366 0.51664 0.0
C457 C 0.93534 0.76243 0.5186 0.0
O458 O 0.86483 0.81718 0.54214 0.0
O459 O 0.89713 0.82165 0.58711 0.0
O460 O 0.85966 0.71956 0.53637 0.0
O461 O 0.87685 0.7531 0.57543 0.0
Co462 Co 0.85891 0.23399 0.97129 0.0
O463 O 0.81346 0.24069 0.95943 0.0
O464 O 0.83261 0.23685 0.01074 0.0
C465 C 0.88025 0.27138 0.93624 0.0
O466 O 0.90326 0.22914 0.99382 0.0
Co467 Co 0.9094 0.20677 0.92106 0.0
O468 O 0.94202 0.21803 0.95585 0.0
C469 C 0.85624 0.16426 0.94498 0.0
C470 C 0.8075 0.23989 0.99094 0.0
C471 C 0.93343 0.22532 0.98525 0.0
O472 O 0.85188 0.18447 0.96918 0.0
O473 O 0.87592 0.1703 0.92106 0.0
O474 O 0.86839 0.28086 0.96455 0.0
O475 O 0.87623 0.24057 0.92897 0.0
Co476 Co 0.11806 0.27111 0.96176 0.0
O477 O 0.16299 0.26378 0.94694 0.0
O478 O 0.14588 0.26159 -0.00125 0.0
C479 C 0.09338 0.23944 0.92327 0.0
O480 O 0.07575 0.2746 0.98819 0.0
Co481 Co 0.06316 0.30514 0.92097 0.0
O482 O 0.03323 0.28842 0.95552 0.0
C483 C 0.12285 0.34127 0.94099 0.0
C484 C 0.17008 0.25918 0.97797 0.0
C485 C 0.04478 0.27804 0.98287 0.0
O486 O 0.1279 0.32 0.96415 0.0
O487 O 0.09979 0.33825 0.9196 0.0
O488 O 0.10603 0.22603 0.94963 0.0
O489 O 0.09725 0.271 0.92038 0.0
Co490 Co 0.61814 0.22801 0.04642 0.0
O491 O 0.66261 0.23403 0.0621 0.0
O492 O 0.64785 0.23018 0.00932 0.0
C493 C 0.59508 0.26636 0.07941 0.0
O494 O 0.57537 0.22358 0.02044 0.0
Co495 Co 0.56364 0.20181 0.09246 0.0
O496 O 0.53372 0.2131 0.05547 0.0
C497 C 0.61985 0.16022 0.07487 0.0
C498 C 0.67109 0.23371 0.03122 0.0
C499 C 0.54452 0.22024 0.02682 0.0
O500 O 0.62458 0.17881 0.04962 0.0
O501 O 0.59839 0.16669 0.09709 0.0
O502 O 0.60896 0.27497 0.05179 0.0
O503 O 0.59765 0.23549 0.08733 0.0
Co504 Co 0.45479 0.13892 0.24824 0.0
O505 O 0.43888 0.18332 0.25346 0.0
O506 O 0.49164 0.16864 0.2483 0.0
C507 C 0.42356 0.11615 0.28801 0.0
O508 O 0.4813 0.09674 0.24424 0.0
Co509 Co 0.40885 0.08298 0.22492 0.0
O510 O 0.44708 0.05412 0.23479 0.0
C511 C 0.4234 0.13883 0.18195 0.0
C512 C 0.46973 0.1918 0.25186 0.0
C513 C 0.47557 0.0658 0.24121 0.0
O514 O 0.44967 0.14389 0.19902 0.0
O515 O 0.40167 0.11743 0.19001 0.0
O516 O 0.45105 0.13093 0.29562 0.0
O517 O 0.41457 0.11808 0.25743 0.0
Co518 Co 0.53569 0.37637 0.24132 0.0
O519 O 0.54716 0.33105 0.24939 0.0
O520 O 0.49603 0.35103 0.24556 0.0
C521 C 0.57173 0.39833 0.27742 0.0
O522 O 0.51318 0.42049 0.2351 0.0
Co523 Co 0.58471 0.42603 0.21144 0.0
O524 O 0.55017 0.45924 0.22124 0.0
C525 C 0.56309 0.36816 0.17407 0.0
C526 C 0.51551 0.32583 0.24941 0.0
C527 C 0.52118 0.45055 0.22968 0.0
O528 O 0.53738 0.36693 0.19253 0.0
O529 O 0.58688 0.38824 0.17936 0.0
O530 O 0.54325 0.38751 0.28758 0.0
O531 O 0.57831 0.3936 0.24653 0.0
Co532 Co 0.45958 0.88145 0.25681 0.0
O533 O 0.44445 0.83724 0.24735 0.0
O534 O 0.49573 0.85114 0.26132 0.0
C535 C 0.43465 0.90694 0.2136 0.0
O536 O 0.48569 0.92299 0.26636 0.0
Co537 Co 0.41173 0.93745 0.27586 0.0
O538 O 0.45206 0.96436 0.2814 0.0
C539 C 0.41966 0.88108 0.31923 0.0
C540 C 0.47461 0.82821 0.25382 0.0
C541 C 0.48068 0.95294 0.27523 0.0
O542 O 0.44708 0.87453 0.3046 0.0
O543 O 0.39986 0.90362 0.30949 0.0
O544 O 0.46272 0.8918 0.20965 0.0
O545 O 0.42167 0.90389 0.24262 0.0
Co546 Co 0.53798 0.641 0.26061 0.0
O547 O 0.55068 0.68658 0.25523 0.0
O548 O 0.49937 0.66858 0.26275 0.0
C549 C 0.56915 0.62137 0.21904 0.0
O550 O 0.51395 0.59724 0.26501 0.0
Co551 Co 0.58769 0.58559 0.27863 0.0
O552 O 0.55086 0.55584 0.26759 0.0
C553 C 0.56954 0.63556 0.32807 0.0
C554 C 0.51942 0.69314 0.25817 0.0
C555 C 0.5214 0.56647 0.26504 0.0
O556 O 0.54543 0.64538 0.30974 0.0
O557 O 0.58992 0.61299 0.31953 0.0
O558 O 0.54032 0.63415 0.21281 0.0
O559 O 0.5789 0.62265 0.24935 0.0
Co560 Co 0.22543 0.46297 0.118 0.0
O561 O 0.22775 0.44346 0.16149 0.0
O562 O 0.22739 0.49728 0.15079 0.0
C563 C 0.26319 0.42944 0.09411 0.0
O564 O 0.22554 0.49286 0.07745 0.0
Co565 Co 0.20113 0.42304 0.05656 0.0
O566 O 0.21534 0.46258 0.03192 0.0
C567 C 0.15796 0.43566 0.11318 0.0
C568 C 0.22871 0.47366 0.17243 0.0
C569 C 0.22328 0.48963 0.04594 0.0
O570 O 0.17575 0.46094 0.12072 0.0
O571 O 0.16542 0.41572 0.08984 0.0
O572 O 0.27274 0.45468 0.11167 0.0
O573 O 0.23174 0.42463 0.09367 0.0
Co574 Co 0.76418 0.03209 0.11779 0.0
O575 O 0.76311 0.04608 0.16332 0.0
O576 O 0.76869 0.99421 0.14622 0.0
C577 C 0.72066 0.06277 0.10129 0.0
O578 O 0.76433 0.00677 0.0744 0.0
Co579 Co 0.77739 0.07992 0.06034 0.0
O580 O 0.76426 0.04239 0.03191 0.0
C581 C 0.83169 0.06215 0.10522 0.0
C582 C 0.76614 0.01497 0.17055 0.0
C583 C 0.76191 0.01325 0.0435 0.0
O584 O 0.81354 0.0389 0.11714 0.0
O585 O 0.82016 0.08349 0.08497 0.0
O586 O 0.71603 0.03431 0.1154 0.0
O587 O 0.75088 0.07278 0.09965 0.0
Co588 Co 0.25384 0.53483 0.35902 0.0
O589 O 0.24559 0.54666 0.31363 0.0
O590 O 0.24839 0.49534 0.33291 0.0
C591 C 0.29564 0.57059 0.36662 0.0
O592 O 0.26316 0.51226 0.40314 0.0
Co593 Co 0.24699 0.58545 0.41636 0.0
O594 O 0.27051 0.55119 0.44211 0.0
C595 C 0.18734 0.55956 0.3828 0.0
C596 C 0.24429 0.51511 0.30794 0.0
C597 C 0.27186 0.52132 0.4323 0.0
O598 O 0.2049 0.5373 0.36825 0.0
O599 O 0.20038 0.58267 0.40002 0.0
O600 O 0.30139 0.54213 0.3528 0.0
O601 O 0.26526 0.57711 0.37314 0.0
Co602 Co 0.74961 0.95279 0.3578 0.0
O603 O 0.74785 0.93994 0.31204 0.0
O604 O 0.76124 0.98993 0.33037 0.0
C605 C 0.7016 0.92884 0.3719 0.0
O606 O 0.75244 0.97641 0.40226 0.0
Co607 Co 0.75236 0.90088 0.41423 0.0
O608 O 0.74282 0.9395 0.44267 0.0
C609 C 0.80889 0.90964 0.36964 0.0
C610 C 0.75642 0.97015 0.30552 0.0
C611 C 0.74652 0.96907 0.43254 0.0
O612 O 0.79708 0.93752 0.35976 0.0
O613 O 0.79357 0.89008 0.38913 0.0
O614 O 0.70141 0.95807 0.35852 0.0
O615 O 0.72993 0.91459 0.37421 0.0
Co616 Co 0.12719 0.24892 0.45846 0.0
O617 O 0.17316 0.25488 0.44781 0.0
O618 O 0.15324 0.24519 0.49803 0.0
C619 C 0.10813 0.2915 0.42809 0.0
O620 O 0.08254 0.24293 0.48033 0.0
Co621 Co 0.07433 0.23253 0.40516 0.0
O622 O 0.0429 0.23957 0.4415 0.0
C623 C 0.12395 0.1829 0.42398 0.0
C624 C 0.1786 0.25016 0.47911 0.0
C625 C 0.0522 0.24138 0.47148 0.0
O626 O 0.1323 0.20021 0.44933 0.0
O627 O 0.10252 0.19222 0.40269 0.0
O628 O 0.11994 0.29688 0.45753 0.0
O629 O 0.1104 0.26164 0.41735 0.0
Co630 Co 0.14699 0.7387 0.04841 0.0
O631 O 0.19365 0.73599 0.05776 0.0
O632 O 0.1716 0.74316 0.00801 0.0
C633 C 0.13194 0.69567 0.08033 0.0
O634 O 0.10128 0.74128 0.02761 0.0
Co635 Co 0.09443 0.75266 0.10246 0.0
O636 O 0.06221 0.74342 0.06698 0.0
C637 C 0.14214 0.80385 0.08324 0.0
C638 C 0.19786 0.74025 0.02621 0.0
C639 C 0.07102 0.74118 0.0369 0.0
O640 O 0.14899 0.78787 0.05659 0.0
O641 O 0.12312 0.79271 0.10582 0.0
O642 O 0.14307 0.69037 0.05064 0.0
O643 O 0.1323 0.72588 0.09026 0.0
Co644 Co 0.87963 0.75168 0.04601 0.0
O645 O 0.83599 0.76436 0.06019 0.0
O646 O 0.85026 0.75321 0.00844 0.0
C647 C 0.90768 0.79008 0.07576 0.0
O648 O 0.92178 0.73971 0.02163 0.0
Co649 Co 0.9296 0.72331 0.09638 0.0
O650 O 0.95832 0.71785 0.05736 0.0
C651 C 0.87126 0.6855 0.07924 0.0
C652 C 0.82729 0.76093 0.02949 0.0
C653 C 0.95008 0.72713 0.02844 0.0
O654 O 0.86755 0.7038 0.05353 0.0
O655 O 0.89262 0.69132 0.10171 0.0
O656 O 0.8947 0.7977 0.04735 0.0
O657 O 0.90096 0.76064 0.08612 0.0
Co658 Co 0.38562 0.75887 0.9692 0.0
O659 O 0.34301 0.74972 0.94948 0.0
O660 O 0.35247 0.75743 0.00302 0.0
C661 C 0.41516 0.71994 0.94145 0.0
O662 O 0.42467 0.76618 -7e-05 0.0
Co663 Co 0.44445 0.7856 0.92939 0.0
O664 O 0.4698 0.7787 0.97039 0.0
C665 C 0.38581 0.82596 0.9375 0.0
C666 C 0.33159 0.75148 0.97945 0.0
C667 C 0.45579 0.77146 0.99752 0.0
O668 O 0.37739 0.80765 0.96209 0.0
O669 O 0.41086 0.81997 0.91938 0.0
O670 O 0.39755 0.71216 0.96713 0.0
O671 O 0.41167 0.75026 0.93177 0.0
C672 C 0.98347 0.23075 0.27585 0.0
C673 C 0.97917 0.21513 0.24469 0.0
C674 C 0.00245 0.26343 0.2165 0.0
C675 C 0.005 0.27974 0.24746 0.0
N676 N 0.99614 0.28087 0.30637 0.0
N677 N 0.98138 0.21669 0.18522 0.0
C678 C 0.99497 0.26394 0.27709 0.0
C679 C 0.98774 0.23152 0.21494 0.0
N680 N 0.97689 0.21365 0.30427 0.0
N681 N 0.01442 0.27837 0.18866 0.0
H682 H 0.97217 0.19271 0.18314 0.0
H683 H 0.98339 0.22857 0.16252 0.0
H684 H 0.02381 0.30236 0.18849 0.0
H685 H 0.01687 0.26655 0.16597 0.0
H686 H 0.98305 0.22192 0.32782 0.0
H687 H 0.96665 0.19004 0.30445 0.0
H688 H 0.98555 0.27254 0.32823 0.0
H689 H 0.00644 0.30437 0.30868 0.0
C690 C 0.02524 0.72421 0.29322 0.0
C691 C 0.04103 0.71332 0.264 0.0
C692 C 0.03243 0.76743 0.23827 0.0
C693 C 0.01275 0.77678 0.2658 0.0
N694 N 0.99054 0.76517 0.31985 0.0
N695 N 0.05973 0.72303 0.20843 0.0
C696 C 0.00936 0.75552 0.2935 0.0
C697 C 0.0451 0.73467 0.23658 0.0
N698 N 0.02601 0.7047 0.32082 0.0
N699 N 0.03874 0.78969 0.21366 0.0
H700 H 0.07049 0.69965 0.2069 0.0
H701 H 0.05988 0.73568 0.18605 0.0
H702 H 0.02853 0.81331 0.21296 0.0
H703 H 0.05571 0.78566 0.1948 0.0
H704 H 0.01775 0.71222 0.34396 0.0
H705 H 0.03744 0.68159 0.32126 0.0
H706 H 0.98345 0.74944 0.33889 0.0
H707 H 0.98078 0.78892 0.32222 0.0
C708 C 0.22004 0.98998 0.23689 0.0
C709 C 0.24693 0.998 0.21588 0.0
C710 C 0.27369 0.02891 0.26052 0.0
C711 C 0.24671 0.02108 0.28132 0.0
N712 N 0.19152 0.00028 0.28861 0.0
N713 N 0.29633 0.02999 0.20529 0.0
C714 C 0.21908 0.00332 0.26932 0.0
C715 C 0.27269 0.01922 0.22686 0.0
N716 N 0.19546 0.96959 0.22579 0.0
N717 N 0.30104 0.04405 0.27342 0.0
H718 H 0.29834 0.02174 0.18102 0.0
H719 H 0.31306 0.04872 0.21081 0.0
H720 H 0.3025 0.05217 0.29782 0.0
H721 H 0.32327 0.04657 0.26078 0.0
H722 H 0.17756 0.95926 0.24103 0.0
H723 H 0.19353 0.96186 0.20129 0.0
H724 H 0.16919 0.99064 0.28027 0.0
H725 H 0.19004 0.00987 0.31249 0.0
C726 C 0.71104 0.50897 0.23022 0.0
C727 C 0.73983 0.52266 0.21571 0.0
C728 C 0.77148 0.51187 0.26626 0.0
C729 C 0.74235 0.49963 0.28122 0.0
N730 N 0.68363 0.48993 0.27996 0.0
N731 N 0.79647 0.54073 0.22009 0.0
C732 C 0.71189 0.49905 0.26387 0.0
C733 C 0.76976 0.52531 0.23385 0.0
N734 N 0.68292 0.5054 0.21174 0.0
N735 N 0.80096 0.50952 0.28267 0.0
H736 H 0.79688 0.54911 0.19574 0.0
H737 H 0.81768 0.54697 0.23322 0.0
H738 H 0.80297 0.50046 0.30672 0.0
H739 H 0.82376 0.51445 0.27193 0.0
H740 H 0.66242 0.49193 0.21934 0.0
H741 H 0.68046 0.51458 0.18781 0.0
H742 H 0.66003 0.49213 0.27003 0.0
H743 H 0.68342 0.48216 0.30448 0.0
C744 C 0.25864 0.22594 0.98406 0.0
C745 C 0.2682 0.23931 0.01516 0.0
C746 C 0.21434 0.26549 0.02075 0.0
C747 C 0.20418 0.25225 0.98991 0.0
N748 N 0.21338 0.21102 0.94761 0.0
N749 N 0.24702 0.25448 0.06913 0.0
C750 C 0.2254 0.22997 0.97287 0.0
C751 C 0.24354 0.25348 0.0356 0.0
N752 N 0.28079 0.2082 0.96586 0.0
N753 N 0.19708 0.29053 0.03546 0.0
H754 H 0.26519 0.2412 0.0816 0.0
H755 H 0.22856 0.26344 0.0847 0.0
H756 H 0.17801 0.30325 0.0237 0.0
H757 H 0.20454 0.30155 0.0575 0.0
H758 H 0.27711 0.20221 0.94109 0.0
H759 H 0.30289 0.19938 0.97575 0.0
H760 H 0.22686 0.19227 0.93627 0.0
H761 H 0.18874 0.21139 0.94021 0.0
C762 C 0.2564 0.75647 0.48898 0.0
C763 C 0.27154 0.73307 0.46781 0.0
C764 C 0.22053 0.70041 0.46645 0.0
C765 C 0.2067 0.72166 0.49082 0.0
N766 N 0.21096 0.77024 0.52536 0.0
N767 N 0.26993 0.68121 0.43852 0.0
C768 C 0.22456 0.74975 0.50217 0.0
C769 C 0.25402 0.70479 0.4568 0.0
N770 N 0.27194 0.78585 0.49523 0.0
N771 N 0.20176 0.67605 0.45243 0.0
H772 H 0.29432 0.68361 0.43074 0.0
H773 H 0.25994 0.65814 0.43308 0.0
H774 H 0.17778 0.67066 0.45982 0.0
H775 H 0.20907 0.66252 0.43182 0.0
H776 H 0.26098 0.8056 0.5075 0.0
H777 H 0.2951 0.79174 0.48561 0.0
H778 H 0.22426 0.78821 0.53808 0.0
H779 H 0.18645 0.76867 0.53297 0.0
C780 C 0.75474 0.80355 0.50628 0.0
C781 C 0.77365 0.77406 0.50457 0.0
C782 C 0.72521 0.74348 0.48489 0.0
C783 C 0.70693 0.7734 0.48417 0.0
N784 N 0.70518 0.83277 0.48913 0.0
N785 N 0.77886 0.71706 0.48785 0.0
C786 C 0.7219 0.80372 0.49358 0.0
C787 C 0.75949 0.74438 0.49241 0.0
N788 N 0.76808 0.83122 0.52036 0.0
N789 N 0.70943 0.71399 0.48006 0.0
H790 H 0.80382 0.7163 0.49417 0.0
H791 H 0.77089 0.69594 0.47549 0.0
H792 H 0.68418 0.71223 0.47533 0.0
H793 H 0.72058 0.69109 0.48379 0.0
H794 H 0.75455 0.85247 0.52564 0.0
H795 H 0.79241 0.83224 0.5288 0.0
H796 H 0.71587 0.85596 0.49215 0.0
H797 H 0.68118 0.83383 0.47977 0.0
C798 C 0.98925 0.75376 0.76574 0.0
C799 C 0.9931 0.77363 0.7371 0.0
C800 C 0.97146 0.72874 0.70238 0.0
C801 C 0.9688 0.70852 0.73093 0.0
N802 N 0.96793 0.7032 0.79015 0.0
N803 N 0.98282 0.78306 0.67922 0.0
C804 C 0.97539 0.72155 0.76278 0.0
C805 C 0.98228 0.76213 0.70575 0.0
N806 N -0.0002 0.76549 0.79565 0.0
N807 N 0.96471 0.71552 0.67199 0.0
H808 H 0.99137 0.8073 0.68071 0.0
H809 H 0.97284 0.77748 0.6562 0.0
H810 H 0.95564 0.69162 0.66885 0.0
H811 H 0.96927 0.72741 0.64969 0.0
H812 H 0.00174 0.7511 0.81686 0.0
H813 H 0.00786 0.78976 0.79902 0.0
H814 H 0.96904 0.71222 0.8142 0.0
H815 H 0.9582 0.67937 0.78876 0.0
C816 C 0.96837 0.21751 0.77564 0.0
C817 C 0.98346 0.20708 0.74573 0.0
C818 C 0.97178 0.26127 0.72074 0.0
C819 C 0.96114 0.27303 0.75195 0.0
N820 N 0.94939 0.26337 0.80949 0.0
N821 N -0.00109 0.21787 0.68936 0.0
C822 C 0.95887 0.25126 0.77939 0.0
C823 C 0.98463 0.22859 0.71803 0.0
N824 N 0.9637 0.1953 0.80065 0.0
N825 N 0.96891 0.28123 0.69361 0.0
H826 H 0.00618 0.19337 0.68578 0.0
H827 H 0.00457 0.23322 0.66955 0.0
H828 H 0.95961 0.30526 0.69489 0.0
H829 H 0.97324 0.2734 0.66952 0.0
H830 H 0.95003 0.20027 0.82182 0.0
H831 H 0.97134 0.17076 0.79931 0.0
H832 H 0.95084 0.25012 0.83146 0.0
H833 H 0.94175 0.2877 0.81301 0.0
C834 C 0.788 0.00749 0.76704 0.0
C835 C 0.75941 0.02353 0.77927 0.0
C836 C 0.73359 0.02074 0.72461 0.0
C837 C 0.76261 0.00545 0.712 0.0
N838 N 0.82017 0.99187 0.71898 0.0
N839 N 0.70844 0.05254 0.76852 0.0
C840 C 0.79068 0.00108 0.73259 0.0
C841 C 0.73348 0.03273 0.75756 0.0
N842 N 0.81237 0.99799 0.78844 0.0
N843 N 0.70523 0.02159 0.70619 0.0
H844 H 0.70692 0.06094 0.79276 0.0
H845 H 0.69086 0.06311 0.75295 0.0
H846 H 0.70335 0.01212 0.68236 0.0
H847 H 0.68242 0.02865 0.71571 0.0
H848 H 0.83195 0.98271 0.78174 0.0
H849 H 0.81206 0.004 0.81352 0.0
H850 H 0.84228 0.99117 0.73213 0.0
H851 H 0.82321 0.98807 0.69367 0.0
C852 C 0.28476 0.48133 0.7599 0.0
C853 C 0.25479 0.48015 0.77793 0.0
C854 C 0.22346 0.49555 0.72827 0.0
C855 C 0.25343 0.49634 0.71 0.0
N856 N 0.31231 0.48608 0.70708 0.0
N857 N 0.19542 0.48138 0.77948 0.0
C858 C 0.28395 0.48779 0.72536 0.0
C859 C 0.22405 0.48589 0.76214 0.0
N860 N 0.31419 0.47749 0.77615 0.0
N861 N 0.19445 0.50411 0.71315 0.0
H862 H 0.19507 0.47511 0.80448 0.0
H863 H 0.17198 0.48182 0.76896 0.0
H864 H 0.19247 0.50824 0.6878 0.0
H865 H 0.17241 0.50822 0.72566 0.0
H866 H 0.33717 0.48208 0.76566 0.0
H867 H 0.3158 0.47157 0.80113 0.0
H868 H 0.33412 0.47538 0.71552 0.0
H869 H 0.31413 0.49408 0.68274 0.0
C870 C 0.73874 0.7337 0.01564 0.0
C871 C 0.72552 0.76132 -0.00144 0.0
C872 C 0.77997 0.788 -0.0005 0.0
C873 C 0.79209 0.76188 0.01955 0.0
N874 N 0.78139 0.71254 0.05152 0.0
N875 N 0.73191 0.81694 0.97817 0.0
C876 C 0.77093 0.73565 0.02921 0.0
C877 C 0.74573 0.78905 0.99134 0.0
N878 N 0.72128 0.70481 0.01733 0.0
N879 N 0.80114 0.81181 0.98839 0.0
H880 H 0.70689 0.81875 0.97238 0.0
H881 H 0.74454 0.83918 0.97552 0.0
H882 H 0.82593 0.8128 0.99535 0.0
H883 H 0.79468 0.82937 0.97072 0.0
H884 H 0.73123 0.68276 0.02616 0.0
H885 H 0.69805 0.70174 0.00669 0.0
H886 H 0.76571 0.69528 0.06238 0.0
H887 H 0.80505 0.71226 0.06145 0.0
C888 C 0.72222 0.29056 0.4868 0.0
C889 C 0.70848 0.2616 0.50103 0.0
C890 C 0.75976 0.23112 0.49117 0.0
C891 C 0.77387 0.26037 0.47816 0.0
N892 N 0.77119 0.31876 0.46677 0.0
N893 N 0.7144 0.20553 0.52061 0.0
C894 C 0.75582 0.29036 0.47677 0.0
C895 C 0.72739 0.23225 0.50451 0.0
N896 N 0.70305 0.31816 0.48285 0.0
N897 N 0.77694 0.20201 0.48957 0.0
H898 H 0.69007 0.20454 0.52893 0.0
H899 H 0.72814 0.18492 0.52754 0.0
H900 H 0.80097 0.20036 0.48047 0.0
H901 H 0.76682 0.17904 0.49509 0.0
H902 H 0.71013 0.33875 0.46921 0.0
H903 H 0.6791 0.3201 0.49208 0.0
H904 H 0.76072 0.34219 0.46834 0.0
H905 H 0.79561 0.31932 0.45864 0.0
C906 C 0.23125 0.27891 0.49391 0.0
C907 C 0.2125 0.24932 0.49253 0.0
C908 C 0.25942 0.21756 0.51421 0.0
C909 C 0.2778 0.2473 0.51645 0.0
N910 N 0.28121 0.30659 0.51233 0.0
N911 N 0.20666 0.19102 0.50384 0.0
C912 C 0.26365 0.27811 0.5075 0.0
C913 C 0.22595 0.2188 0.50358 0.0
N914 N 0.21815 0.30764 0.48173 0.0
N915 N 0.27436 0.18807 0.52146 0.0
H916 H 0.18277 0.19034 0.49426 0.0
H917 H 0.21348 0.16887 0.51497 0.0
H918 H 0.29827 0.18639 0.53091 0.0
H919 H 0.26394 0.16506 0.51675 0.0
H920 H 0.23159 0.32926 0.47834 0.0
H921 H 0.19387 0.30961 0.47332 0.0
H922 H 0.27137 0.33021 0.50981 0.0
H923 H 0.3055 0.30674 0.52087 0.0
C924 C 0.50825 0.7694 0.72856 0.0
C925 C 0.52753 0.7795 0.75614 0.0
C926 C 0.52031 0.72514 0.78187 0.0
C927 C 0.50167 0.71475 0.7539 0.0
N928 N 0.48295 0.72419 0.6982 0.0
N929 N 0.55611 0.76616 0.80683 0.0
C930 C 0.49695 0.73616 0.72658 0.0
C931 C 0.53508 0.757 0.78196 0.0
N932 N 0.50072 0.79167 0.70425 0.0
N933 N 0.52224 0.70537 0.80924 0.0
H934 H 0.56553 0.78997 0.80943 0.0
H935 H 0.566 0.74969 0.82395 0.0
H936 H 0.51204 0.68181 0.81048 0.0
H937 H 0.53152 0.71318 0.83193 0.0
H938 H 0.48333 0.78734 0.6858 0.0
H939 H 0.51088 0.81532 0.70322 0.0
H940 H 0.48174 0.73733 0.67615 0.0
H941 H 0.47488 0.69983 0.69576 0.0
C942 C 0.48382 0.25817 0.70075 0.0
C943 C 0.48653 0.27797 0.72953 0.0
C944 C 0.51628 0.23371 0.75836 0.0
C945 C 0.51203 0.21319 0.73021 0.0
N946 N 0.49133 0.20457 0.67487 0.0
N947 N 0.50125 0.28432 0.78688 0.0
C948 C 0.49558 0.22503 0.70148 0.0
C949 C 0.50187 0.26577 0.7586 0.0
N950 N 0.47099 0.27154 0.67244 0.0
N951 N 0.53405 0.2225 0.78488 0.0
H952 H 0.49109 0.30799 0.78794 0.0
H953 H 0.50857 0.27563 0.80994 0.0
H954 H 0.54291 0.19838 0.7868 0.0
H955 H 0.54164 0.23746 0.80436 0.0
H956 H 0.47153 0.26009 0.64944 0.0
H957 H 0.46116 0.29533 0.67143 0.0
H958 H 0.47621 0.20998 0.65478 0.0
H959 H 0.50209 0.18124 0.67315 0.0
C960 C 0.70353 0.53919 0.76017 0.0
C961 C 0.70832 0.51475 0.7849 0.0
C962 C 0.69737 0.47243 0.74294 0.0
C963 C 0.70592 0.49566 0.7181 0.0
N964 N 0.70467 0.55333 0.70219 0.0
N965 N 0.69706 0.45825 0.80095 0.0
C966 C 0.70521 0.52984 0.72634 0.0
C967 C 0.70134 0.48128 0.77672 0.0
N968 N 0.69418 0.57043 0.76895 0.0
N969 N 0.6825 0.44335 0.73435 0.0
H970 H 0.69161 0.46462 0.82528 0.0
H971 H 0.69776 0.43289 0.79654 0.0
H972 H 0.67424 0.43875 0.71037 0.0
H973 H 0.67383 0.42617 0.75138 0.0
H974 H 0.68838 0.58892 0.75201 0.0
H975 H 0.6872 0.5764 0.79301 0.0
H976 H 0.71011 0.57812 0.70658 0.0
H977 H 0.69748 0.5482 0.678 0.0
C978 C 0.27935 0.00708 0.73883 0.0
C979 C 0.25118 0.00376 0.71821 0.0
C980 C 0.22478 0.96805 0.75926 0.0
C981 C 0.25123 0.97456 0.78123 0.0
N982 N 0.30225 0.00255 0.79398 0.0
N983 N 0.19476 0.98579 0.71064 0.0
C984 C 0.27808 0.99483 0.77164 0.0
C985 C 0.22329 0.98531 0.72879 0.0
N986 N 0.30785 0.02039 0.72656 0.0
N987 N 0.20108 0.94547 0.76755 0.0
H988 H 0.19201 -0.00047 0.68902 0.0
H989 H 0.17275 0.97514 0.7185 0.0
H990 H 0.20076 0.93315 0.79018 0.0
H991 H 0.18332 0.93688 0.75103 0.0
H992 H 0.33019 0.02028 0.73932 0.0
H993 H 0.31014 0.02881 0.70233 0.0
H994 H 0.32024 0.02043 0.78972 0.0
H995 H 0.30319 0.99253 0.81771 0.0
C996 C 0.71834 0.26513 0.00693 0.0
C997 C 0.70612 0.23578 0.02157 0.0
C998 C 0.76134 0.21102 0.02029 0.0
C999 C 0.77316 0.23941 0.0033 0.0
N1000 N 0.76326 0.2928 0.97858 0.0
N1001 N 0.71404 0.17919 0.03838 0.0
C1002 C 0.7517 0.26625 0.996 0.0
C1003 C 0.72715 0.20839 0.02751 0.0
N1004 N 0.69833 0.29231 0.00468 0.0
N1005 N 0.78262 0.18628 0.02924 0.0
H1006 H 0.68913 0.1763 0.04395 0.0
H1007 H 0.72704 0.15702 0.03941 0.0
H1008 H 0.80718 0.18518 0.02182 0.0
H1009 H 0.77645 0.1674 0.04556 0.0
H1010 H 0.70651 0.31562 0.99759 0.0
H1011 H 0.6737 0.29222 0.01218 0.0
H1012 H 0.74813 0.3111 0.96869 0.0
H1013 H 0.78811 0.29596 0.97267 0.0
C1014 C 0.48604 0.27898 0.22257 0.0
C1015 C 0.50224 0.2921 0.25082 0.0
C1016 C 0.49328 0.24052 0.28108 0.0
C1017 C 0.4795 0.22668 0.25204 0.0
N1018 N 0.46492 0.2306 0.19438 0.0
N1019 N 0.52334 0.2859 0.30626 0.0
C1020 C 0.47615 0.24541 0.22264 0.0
C1021 C 0.5065 0.273 0.27991 0.0
N1022 N 0.48029 0.29852 0.19555 0.0
N1023 N 0.49272 0.2229 0.30993 0.0
H1024 H 0.53149 0.31033 0.30714 0.0
H1025 H 0.53071 0.27211 0.32668 0.0
H1026 H 0.48329 0.19896 0.31148 0.0
H1027 H 0.49927 0.23261 0.33282 0.0
H1028 H 0.46482 0.29189 0.17611 0.0
H1029 H 0.48955 0.32237 0.19302 0.0
H1030 H 0.46571 0.24141 0.17108 0.0
H1031 H 0.45655 0.20632 0.19369 0.0
C1032 C 0.49243 0.77849 0.28585 0.0
C1033 C 0.48431 0.79306 0.25493 0.0
C1034 C 0.50017 0.74223 0.22604 0.0
C1035 C 0.50711 0.72737 0.25702 0.0
N1036 N 0.50611 0.72876 0.31654 0.0
N1037 N 0.47629 0.78845 0.19606 0.0
C1038 C 0.50215 0.74477 0.28699 0.0
C1039 C 0.4868 0.77475 0.22513 0.0
N1040 N 0.49116 0.79704 0.3141 0.0
N1041 N 0.50719 0.72546 0.19753 0.0
H1042 H 0.46785 0.81274 0.19418 0.0
H1043 H 0.47397 0.77534 0.17406 0.0
H1044 H 0.51609 0.70126 0.19732 0.0
H1045 H 0.50618 0.73597 0.17409 0.0
H1046 H 0.50072 0.7894 0.33673 0.0
H1047 H 0.4819 0.82105 0.31481 0.0
H1048 H 0.49936 0.73868 0.33927 0.0
H1049 H 0.51428 0.70439 0.31836 0.0
C1050 C 0.20872 0.50765 0.25782 0.0
C1051 C 0.23933 0.5023 0.27408 0.0
C1052 C 0.26084 0.4733 0.2254 0.0
C1053 C 0.23135 0.48124 0.20811 0.0
N1054 N 0.17726 0.50623 0.20671 0.0
N1055 N 0.29591 0.48375 0.27291 0.0
C1056 C 0.20526 0.49848 0.22403 0.0
C1057 C 0.26565 0.48576 0.25791 0.0
N1058 N 0.18271 0.52057 0.27508 0.0
N1059 N 0.28444 0.45414 0.21063 0.0
H1060 H 0.30052 0.49261 0.29667 0.0
H1061 H 0.31723 0.47566 0.26107 0.0
H1062 H 0.28308 0.44639 0.18611 0.0
H1063 H 0.30449 0.44404 0.22319 0.0
H1064 H 0.15868 0.52199 0.26605 0.0
H1065 H 0.18461 0.52799 0.29966 0.0
H1066 H 0.15905 0.52223 0.21526 0.0
H1067 H 0.17262 0.49756 0.18288 0.0
C1068 C 0.79143 0.0073 0.22657 0.0
C1069 C 0.76406 0.00339 0.20503 0.0
C1070 C 0.73102 0.98051 0.25018 0.0
C1071 C 0.75918 0.98182 0.27104 0.0
N1072 N 0.81756 0.99136 0.27817 0.0
N1073 N 0.70915 0.98265 0.1945 0.0
C1074 C 0.78979 0.99398 0.25906 0.0
C1075 C 0.7343 0.98876 0.21627 0.0
N1076 N 0.81889 0.02384 0.216 0.0
N1077 N 0.70074 0.97305 0.26316 0.0
H1078 H 0.70976 0.98989 0.16979 0.0
H1079 H 0.68858 0.96837 0.20029 0.0
H1080 H 0.69707 0.9675 0.28804 0.0
H1081 H 0.67871 0.97529 0.25006 0.0
H1082 H 0.83826 0.03065 0.23151 0.0
H1083 H 0.82139 0.03282 0.19198 0.0
H1084 H 0.84123 0.9965 0.26962 0.0
H1085 H 0.81739 0.98131 0.3019 0.0
C1086 C 0.24214 0.77294 0.99789 0.0
C1087 C 0.2313 0.7425 0.01167 0.0
C1088 C 0.28432 0.71656 0.99782 0.0
C1089 C 0.29612 0.74765 0.98693 0.0
N1090 N 0.2878 0.80571 0.97683 0.0
N1091 N 0.24147 0.68552 0.02597 0.0
C1092 C 0.27532 0.77587 0.98666 0.0
C1093 C 0.25222 0.71431 0.01191 0.0
N1094 N 0.2208 0.79911 0.99586 0.0
N1095 N 0.3037 0.68912 0.99392 0.0
H1096 H 0.21743 0.68222 0.03455 0.0
H1097 H 0.25659 0.66525 0.0306 0.0
H1098 H 0.32731 0.69009 0.98369 0.0
H1099 H 0.29573 0.66509 0.99834 0.0
H1100 H 0.22566 0.82068 0.98278 0.0
H1101 H 0.19719 0.79891 0.00607 0.0
H1102 H 0.27561 0.82817 0.9796 0.0
H1103 H 0.31139 0.80834 0.9669 0.0
C1104 C 0.06733 0.33028 0.40169 0.0
C1105 C 0.10007 0.31819 0.40459 0.0
C1106 C 0.11346 0.33935 0.34988 0.0
C1107 C 0.08122 0.35306 0.34729 0.0
N1108 N 0.02949 0.36722 0.37319 0.0
N1109 N 0.1565 0.31937 0.38624 0.0
C1110 C 0.05865 0.35022 0.37396 0.0
C1111 C 0.12387 0.32566 0.38028 0.0
N1112 N 0.04447 0.32197 0.42497 0.0
N1113 N 0.13337 0.33714 0.32268 0.0
H1114 H 0.16488 0.30961 0.40859 0.0
H1115 H 0.17536 0.32716 0.37058 0.0
H1116 H 0.12608 0.34466 0.29914 0.0
H1117 H 0.15573 0.32438 0.32266 0.0
H1118 H 0.01928 0.32653 0.42247 0.0
H1119 H 0.05086 0.30909 0.44633 0.0
H1120 H 0.01336 0.36852 0.39316 0.0
H1121 H 0.02266 0.38234 0.35346 0.0
C1122 C 0.9125 0.17158 0.39019 0.0
C1123 C 0.88112 0.18657 0.3938 0.0
C1124 C 0.8633 0.16413 0.34073 0.0
C1125 C 0.89428 0.14798 0.3374 0.0
N1126 N 0.94527 0.12974 0.36249 0.0
N1127 N 0.82385 0.18915 0.37794 0.0
C1128 C 0.91802 0.14969 0.36324 0.0
C1129 C 0.85556 0.18002 0.37089 0.0
N1130 N 0.93717 0.17892 0.412 0.0
N1131 N 0.8422 0.16652 0.31441 0.0
H1132 H 0.81735 0.20044 0.40016 0.0
H1133 H 0.80369 0.18224 0.3635 0.0
H1134 H 0.84746 0.15702 0.29107 0.0
H1135 H 0.82094 0.18104 0.31471 0.0
H1136 H 0.9617 0.17202 0.40856 0.0
H1137 H 0.93316 0.19345 0.43287 0.0
H1138 H 0.96192 0.12777 0.38202 0.0
H1139 H 0.94958 0.11275 0.34359 0.0
C1140 C 0.09322 0.65546 0.10737 0.0
C1141 C 0.12532 0.66903 0.10439 0.0
C1142 C 0.14022 0.64792 0.15898 0.0
C1143 C 0.10829 0.63369 0.16189 0.0
N1144 N 0.05698 0.61749 0.13632 0.0
N1145 N 0.18183 0.67083 0.12263 0.0
C1146 C 0.08551 0.63549 0.13526 0.0
C1147 C 0.14965 0.66266 0.12866 0.0
N1148 N 0.06991 0.66255 0.08407 0.0
N1149 N 0.16078 0.64936 0.18581 0.0
H1150 H 0.18942 0.68149 0.10044 0.0
H1151 H 0.2013 0.66398 0.13802 0.0
H1152 H 0.15456 0.63995 0.20895 0.0
H1153 H 0.18278 0.66267 0.18605 0.0
H1154 H 0.04494 0.65698 0.08663 0.0
H1155 H 0.07562 0.67547 0.0626 0.0
H1156 H 0.04081 0.61529 0.11642 0.0
H1157 H 0.05081 0.60236 0.15625 0.0
C1158 C 0.95378 0.81247 0.15088 0.0
C1159 C 0.9402 0.84385 0.15895 0.0
C1160 C 0.91304 0.84602 0.10469 0.0
C1161 C 0.92538 0.81387 0.09774 0.0
N1162 N 0.9714 0.77751 0.10584 0.0
N1163 N 0.92002 0.89572 0.13746 0.0
C1164 C 0.95054 0.80083 0.1181 0.0
C1165 C 0.92419 0.86243 0.13373 0.0
N1166 N 0.96731 0.79241 0.17436 0.0
N1167 N 0.88972 0.86043 0.08503 0.0
H1168 H 0.92942 0.90855 0.15779 0.0
H1169 H 0.91084 0.91091 0.11878 0.0
H1170 H 0.88229 0.8509 0.06238 0.0
H1171 H 0.87692 0.88169 0.09192 0.0
H1172 H 0.97476 0.76825 0.16931 0.0
H1173 H 0.96809 0.79827 0.1993 0.0
H1174 H 0.99152 0.76832 0.11908 0.0
H1175 H 0.97103 0.77164 0.08078 0.0
C1176 C 0.37192 0.06623 0.34872 0.0
C1177 C 0.34513 0.08847 0.35295 0.0
C1178 C 0.3745 0.13065 0.32141 0.0
C1179 C 0.39914 0.10721 0.31345 0.0
N1180 N 0.42092 0.05196 0.31727 0.0
N1181 N 0.31757 0.13898 0.33637 0.0
C1182 C 0.39782 0.07472 0.32653 0.0
C1183 C 0.34553 0.11999 0.33755 0.0
N1184 N 0.37307 0.03761 0.36661 0.0
N1185 N 0.37886 0.16327 0.31381 0.0
H1186 H 0.29494 0.13144 0.34601 0.0
H1187 H 0.31582 0.16061 0.32251 0.0
H1188 H 0.40011 0.17215 0.30239 0.0
H1189 H 0.3631 0.18187 0.3221 0.0
H1190 H 0.39339 0.02184 0.36692 0.0
H1191 H 0.35469 0.03094 0.38336 0.0
H1192 H 0.41927 0.02688 0.32279 0.0
H1193 H 0.441 0.05807 0.30246 0.0
C1194 C 0.62662 0.38683 0.3028 0.0
C1195 C 0.59826 0.4073 0.30089 0.0
C1196 C 0.6213 0.44341 0.34389 0.0
C1197 C 0.65078 0.42448 0.34338 0.0
N1198 N 0.68464 0.38356 0.31602 0.0
N1199 N 0.57019 0.45765 0.31581 0.0
C1200 C 0.65436 0.39774 0.321 0.0
C1201 C 0.59596 0.43635 0.32044 0.0
N1202 N 0.62667 0.35625 0.28837 0.0
N1203 N 0.61716 0.46738 0.36731 0.0
H1204 H 0.55139 0.45306 0.29883 0.0
H1205 H 0.56878 0.48089 0.32677 0.0
H1206 H 0.63532 0.47317 0.38468 0.0
H1207 H 0.59495 0.47976 0.37112 0.0
H1208 H 0.64544 0.33901 0.29209 0.0
H1209 H 0.60648 0.34664 0.27561 0.0
H1210 H 0.68916 0.36634 0.29741 0.0
H1211 H 0.70606 0.39148 0.32796 0.0
C1212 C 0.36245 0.95075 0.18195 0.0
C1213 C 0.35735 0.93625 0.15034 0.0
C1214 C 0.41164 0.90932 0.15463 0.0
C1215 C 0.41564 0.92339 0.18657 0.0
N1216 N 0.40419 0.97164 0.21897 0.0
N1217 N 0.38429 0.91464 0.10159 0.0
C1218 C 0.39421 0.94911 0.19611 0.0
C1219 C 0.38435 0.9197 0.13495 0.0
N1220 N 0.33708 0.9632 0.2002 0.0
N1221 N 0.43256 0.88546 0.14328 0.0
H1222 H 0.36583 0.92409 0.08624 0.0
H1223 H 0.40444 0.90485 0.08891 0.0
H1224 H 0.45438 0.87889 0.1551 0.0
H1225 H 0.42758 0.87157 0.12216 0.0
H1226 H 0.34033 0.97173 0.22432 0.0
H1227 H 0.31253 0.96106 0.19336 0.0
H1228 H 0.38981 0.99194 0.22575 0.0
H1229 H 0.42868 0.97215 0.22688 0.0
C1230 C 0.62176 0.63193 0.18962 0.0
C1231 C 0.59281 0.61258 0.19272 0.0
C1232 C 0.61293 0.575 0.14958 0.0
C1233 C 0.64323 0.59248 0.14929 0.0
N1234 N 0.67926 0.63318 0.17414 0.0
N1235 N 0.56174 0.56386 0.17858 0.0
C1236 C 0.64842 0.61977 0.1707 0.0
C1237 C 0.58849 0.58365 0.17335 0.0
N1238 N 0.62344 0.66246 0.20403 0.0
N1239 N 0.60733 0.55074 0.12677 0.0
H1240 H 0.5434 0.56997 0.19546 0.0
H1241 H 0.55884 0.5406 0.16796 0.0
H1242 H 0.625 0.54364 0.10942 0.0
H1243 H 0.58453 0.53932 0.12349 0.0
H1244 H 0.64262 0.67905 0.19972 0.0
H1245 H 0.60404 0.67268 0.21752 0.0
H1246 H 0.68511 0.65061 0.19216 0.0
H1247 H 0.69989 0.62463 0.16132 0.0
C1248 C 0.31813 0.41576 0.06625 0.0
C1249 C 0.28643 0.40577 0.07793 0.0
C1250 C 0.29559 0.35212 0.05223 0.0
C1251 C 0.32969 0.35849 0.04978 0.0
N1252 N 0.37379 0.39827 0.05217 0.0
N1253 N 0.2506 0.35884 0.08964 0.0
C1254 C 0.34114 0.39102 0.05612 0.0
C1255 C 0.27645 0.37246 0.07286 0.0
N1256 N 0.32584 0.44845 0.06337 0.0
N1257 N 0.28109 0.32711 0.03507 0.0
H1258 H 0.24468 0.33384 0.08748 0.0
H1259 H 0.23884 0.37047 0.10932 0.0
H1260 H 0.29333 0.31396 0.01669 0.0
H1261 H 0.25559 0.32387 0.03521 0.0
H1262 H 0.34763 0.4568 0.05256 0.0
H1263 H 0.30893 0.4672 0.06806 0.0
H1264 H 0.38428 0.42043 0.06006 0.0
H1265 H 0.39039 0.38143 0.04187 0.0
C1266 C 0.36405 0.61993 0.40792 0.0
C1267 C 0.35582 0.65163 0.39557 0.0
C1268 C 0.31647 0.6271 0.35681 0.0
C1269 C 0.32106 0.59614 0.37237 0.0
N1270 N 0.34921 0.56202 0.41201 0.0
N1271 N 0.32237 0.68645 0.36037 0.0
C1272 C 0.34522 0.59213 0.39746 0.0
C1273 C 0.33174 0.6555 0.37035 0.0
N1274 N 0.39012 0.6165 0.42916 0.0
N1275 N 0.29792 0.62905 0.32861 0.0
H1276 H 0.33302 0.70807 0.36948 0.0
H1277 H 0.3022 0.6909 0.34502 0.0
H1278 H 0.28703 0.60834 0.31774 0.0
H1279 H 0.29614 0.65028 0.31419 0.0
H1280 H 0.39952 0.59378 0.43671 0.0
H1281 H 0.40389 0.63659 0.43763 0.0
H1282 H 0.3632 0.55802 0.43323 0.0
H1283 H 0.33738 0.54105 0.40306 0.0
C1284 C 0.66434 0.88294 0.35768 0.0
C1285 C 0.67144 0.90969 0.37886 0.0
C1286 C 0.63233 0.88813 0.41961 0.0
C1287 C 0.6302 0.8585 0.40105 0.0
N1288 N 0.64851 0.82566 0.35436 0.0
N1289 N 0.66258 0.93875 0.42974 0.0
C1290 C 0.64691 0.85545 0.37029 0.0
C1291 C 0.65518 0.91281 0.40964 0.0
N1292 N 0.67478 0.88374 0.3256 0.0
N1293 N 0.6122 0.89281 0.44627 0.0
H1294 H 0.67772 0.95779 0.42167 0.0
H1295 H 0.65497 0.94065 0.45423 0.0
H1296 H 0.5949 0.87527 0.45382 0.0
H1297 H 0.61061 0.91504 0.45913 0.0
H1298 H 0.66775 0.86626 0.30804 0.0
H1299 H 0.68753 0.9039 0.31582 0.0
H1300 H 0.66327 0.82153 0.3337 0.0
H1301 H 0.63804 0.80401 0.36351 0.0
C1302 C 0.16737 0.59925 0.53128 0.0
C1303 C 0.13769 0.6051 0.54896 0.0
C1304 C 0.15526 0.56669 0.59222 0.0
C1305 C 0.18677 0.56433 0.57717 0.0
N1306 N 0.21655 0.56538 0.52596 0.0
N1307 N 0.09728 0.57802 0.58309 0.0
C1308 C 0.19113 0.5769 0.54469 0.0
C1309 C 0.12957 0.5833 0.57515 0.0
N1310 N 0.17235 0.61389 0.50139 0.0
N1311 N 0.15004 0.55492 0.6234 0.0
H1312 H 0.07809 0.5881 0.56904 0.0
H1313 H 0.08984 0.56055 0.60047 0.0
H1314 H 0.16824 0.54328 0.6374 0.0
H1315 H 0.12822 0.55923 0.63634 0.0
H1316 H 0.19522 0.61481 0.48971 0.0
H1317 H 0.15298 0.62394 0.48772 0.0
H1318 H 0.22056 0.57177 0.50139 0.0
H1319 H 0.23087 0.54571 0.53406 0.0
C1320 C 0.91917 0.64815 0.60003 0.0
C1321 C 0.90462 0.64677 0.63174 0.0
C1322 C 0.86633 0.69128 0.61695 0.0
C1323 C 0.88291 0.69495 0.58641 0.0
N1324 N 0.92649 0.679 0.54932 0.0
N1325 N 0.86768 0.66973 0.67262 0.0
C1326 C 0.90961 0.6738 0.57795 0.0
C1327 C 0.87908 0.66906 0.64082 0.0
N1328 N 0.94143 0.62447 0.5908 0.0
N1329 N 0.83759 0.70814 0.62261 0.0
H1330 H 0.87576 0.65346 0.69088 0.0
H1331 H 0.85215 0.68812 0.6817 0.0
H1332 H 0.82708 0.7242 0.60538 0.0
H1333 H 0.82241 0.70383 0.6429 0.0
H1334 H 0.95038 0.62191 0.56684 0.0
H1335 H 0.94936 0.60581 0.60674 0.0
H1336 H 0.94863 0.66736 0.54339 0.0
H1337 H 0.91902 0.69662 0.53226 0.0
C1338 C 0.06948 0.81443 0.61734 0.0
C1339 C 0.08338 0.8069 0.64858 0.0
C1340 C 0.11293 0.75994 0.6249 0.0
C1341 C 0.09754 0.76588 0.59395 0.0
N1342 N 0.0553 0.79413 0.5628 0.0
N1343 N 0.10946 0.76669 0.68406 0.0
C1344 C 0.07404 0.79181 0.59073 0.0
C1345 C 0.10213 0.77766 0.65295 0.0
N1346 N 0.05314 0.8436 0.61269 0.0
N1347 N 0.1394 0.73904 0.62731 0.0
H1348 H 0.10122 0.77872 0.70532 0.0
H1349 H 0.12049 0.74385 0.68861 0.0
H1350 H 0.14999 0.72726 0.60702 0.0
H1351 H 0.15331 0.73649 0.64885 0.0
H1352 H 0.04569 0.85204 0.58954 0.0
H1353 H 0.04897 0.86041 0.63177 0.0
H1354 H 0.03559 0.8105 0.56025 0.0
H1355 H 0.05751 0.77733 0.5435 0.0
C1356 C 0.93099 0.33609 0.88999 0.0
C1357 C 0.91288 0.33762 0.86008 0.0
C1358 C 0.87208 0.2987 0.88178 0.0
C1359 C 0.8913 0.29519 0.91085 0.0
N1360 N 0.9406 0.3075 0.94185 0.0
N1361 N 0.86995 0.31595 0.82469 0.0
C1362 C 0.92122 0.3131 0.91481 0.0
C1363 C 0.88457 0.31754 0.85515 0.0
N1364 N 0.9568 0.35726 0.89498 0.0
N1365 N 0.84102 0.28546 0.88025 0.0
H1366 H 0.87786 0.32983 0.80452 0.0
H1367 H 0.85183 0.29874 0.81857 0.0
H1368 H 0.83042 0.27219 0.89958 0.0
H1369 H 0.82442 0.2904 0.8612 0.0
H1370 H 0.9689 0.36 0.91752 0.0
H1371 H 0.96495 0.37367 0.87686 0.0
H1372 H 0.96436 0.31687 0.94468 0.0
H1373 H 0.93349 0.29165 0.96076 0.0
C1374 C 0.05098 0.17144 0.87344 0.0
C1375 C 0.06381 0.1782 0.84163 0.0
C1376 C 0.09494 0.22498 0.86316 0.0
C1377 C 0.08155 0.21927 0.89505 0.0
N1378 N 0.04056 0.19224 0.92874 0.0
N1379 N 0.08813 0.21759 0.80437 0.0
C1380 C 0.0575 0.19409 0.89968 0.0
C1381 C 0.0821 0.20737 0.83595 0.0
N1382 N 0.03397 0.14286 0.8789 0.0
N1383 N 0.12201 0.24473 0.85903 0.0
H1384 H 0.07923 0.20483 0.78383 0.0
H1385 H 0.09884 0.24035 0.79887 0.0
H1386 H 0.13495 0.25526 0.8786 0.0
H1387 H 0.13429 0.24712 0.83655 0.0
H1388 H 0.02725 0.13471 0.90235 0.0
H1389 H 0.02804 0.12647 0.8599 0.0
H1390 H 0.02076 0.17629 0.93255 0.0
H1391 H 0.04439 0.20893 0.94797 0.0
C1392 C 0.63424 0.92808 0.70943 0.0
C1393 C 0.61255 0.90208 0.70035 0.0
C1394 C 0.64014 0.90076 0.64645 0.0
C1395 C 0.66624 0.92064 0.65901 0.0
N1396 N 0.69078 0.9455 0.70771 0.0
N1397 N 0.60099 0.85836 0.66058 0.0
C1398 C 0.6641 0.93232 0.69197 0.0
C1399 C 0.61688 0.88696 0.66882 0.0
N1400 N 0.62588 0.94979 0.73366 0.0
N1401 N 0.63698 0.89547 0.61328 0.0
H1402 H 0.58631 0.84497 0.67682 0.0
H1403 H 0.60593 0.84563 0.63873 0.0
H1404 H 0.65209 0.90697 0.5959 0.0
H1405 H 0.61681 0.88308 0.60308 0.0
H1406 H 0.64042 0.97019 0.73975 0.0
H1407 H 0.60216 0.95024 0.74326 0.0
H1408 H 0.69026 0.95216 0.73262 0.0
H1409 H 0.71423 0.94563 0.69737 0.0
C1410 C 0.39657 0.61504 0.66633 0.0
C1411 C 0.39923 0.60121 0.69861 0.0
C1412 C 0.34581 0.57428 0.69024 0.0
C1413 C 0.34563 0.58367 0.65653 0.0
N1414 N 0.37709 0.60552 0.61064 0.0
N1415 N 0.38109 0.55728 0.73464 0.0
C1416 C 0.37294 0.60174 0.6439 0.0
C1417 C 0.37522 0.57775 0.70866 0.0
N1418 N 0.41474 0.64198 0.65735 0.0
N1419 N 0.31774 0.56362 0.70544 0.0
H1420 H 0.40433 0.55582 0.74523 0.0
H1421 H 0.36491 0.53844 0.7415 0.0
H1422 H 0.2948 0.56386 0.69383 0.0
H1423 H 0.31676 0.55872 0.73072 0.0
H1424 H 0.41124 0.65411 0.63488 0.0
H1425 H 0.43003 0.65483 0.67354 0.0
H1426 H 0.39814 0.6163 0.60051 0.0
H1427 H 0.36165 0.59441 0.59325 0.0
C1428 C 0.6546 0.105 0.82001 0.0
C1429 C 0.65002 0.07546 0.83833 0.0
C1430 C 0.59699 0.06603 0.81074 0.0
C1431 C 0.60069 0.0966 0.79394 0.0
N1432 N 0.62962 0.14822 0.78701 0.0
N1433 N 0.61574 0.02975 0.85478 0.0
C1434 C 0.62857 0.11695 0.79982 0.0
C1435 C 0.62092 0.05639 0.83465 0.0
N1436 N 0.68436 0.12099 0.82099 0.0
N1437 N 0.57103 0.04591 0.80317 0.0
H1438 H 0.63303 0.0218 0.87219 0.0
H1439 H 0.59356 0.01682 0.85588 0.0
H1440 H 0.5525 0.05307 0.78689 0.0
H1441 H 0.56877 0.02166 0.81142 0.0
H1442 H 0.69053 0.14039 0.80528 0.0
H1443 H 0.70419 0.11299 0.8354 0.0
H1444 H 0.64748 0.16558 0.79342 0.0
H1445 H 0.61089 0.15803 0.77225 0.0
C1446 C 0.3821 0.42696 0.8443 0.0
C1447 C 0.34975 0.41381 0.84388 0.0
C1448 C 0.36548 0.37428 0.80087 0.0
C1449 C 0.39692 0.38949 0.79887 0.0
N1450 N 0.43457 0.43217 0.81626 0.0
N1451 N 0.30869 0.3785 0.8188 0.0
C1452 C 0.40518 0.41623 0.8201 0.0
C1453 C 0.34088 0.38844 0.82134 0.0
N1454 N 0.39092 0.44905 0.86831 0.0
N1455 N 0.35959 0.3454 0.78429 0.0
H1456 H 0.28988 0.38773 0.83378 0.0
H1457 H 0.30005 0.3631 0.80008 0.0
H1458 H 0.37733 0.3337 0.76972 0.0
H1459 H 0.33838 0.33125 0.78755 0.0
H1460 H 0.41508 0.4569 0.87227 0.0
H1461 H 0.37431 0.45787 0.88592 0.0
H1462 H 0.44062 0.45425 0.82799 0.0
H1463 H 0.45219 0.42416 0.79949 0.0
C1464 C 0.68112 0.66366 0.90592 0.0
C1465 C 0.6612 0.65999 0.93437 0.0
C1466 C 0.68043 0.60291 0.94077 0.0
C1467 C 0.69685 0.60549 0.9099 0.0
N1468 N 0.70708 0.63644 0.85978 0.0
N1469 N 0.6396 0.62609 0.97817 0.0
C1470 C 0.69582 0.6354 0.89162 0.0
C1471 C 0.66035 0.62964 0.95182 0.0
N1472 N 0.68642 0.69436 0.89283 0.0
N1473 N 0.68474 0.57536 0.95979 0.0
H1474 H 0.62526 0.6455 0.98726 0.0
H1475 H 0.63511 0.60357 0.98975 0.0
H1476 H 0.6991 0.5554 0.95217 0.0
H1477 H 0.67626 0.57331 0.98397 0.0
H1478 H 0.70354 0.6989 0.87418 0.0
H1479 H 0.67627 0.71584 0.90286 0.0
H1480 H 0.70356 0.65668 0.84427 0.0
H1481 H 0.71677 0.61599 0.84751 0.0
C1482 C 0.65673 0.34962 0.59858 0.0
C1483 C 0.63801 0.3545 0.56935 0.0
C1484 C 0.6621 0.40969 0.56312 0.0
C1485 C 0.67761 0.40598 0.5944 0.0
N1486 N 0.68303 0.37536 0.6454 0.0
N1487 N 0.62002 0.38993 0.52503 0.0
C1488 C 0.67303 0.37678 0.61314 0.0
C1489 C 0.63992 0.38476 0.55181 0.0
N1490 N 0.66002 0.31868 0.61186 0.0
N1491 N 0.66942 0.43638 0.54386 0.0
H1492 H 0.60392 0.37192 0.51601 0.0
H1493 H 0.6178 0.41267 0.51319 0.0
H1494 H 0.68545 0.45493 0.55165 0.0
H1495 H 0.66167 0.43889 0.51945 0.0
H1496 H 0.67622 0.31334 0.63116 0.0
H1497 H 0.64942 0.29764 0.60139 0.0
H1498 H 0.67712 0.3558 0.66106 0.0
H1499 H 0.69402 0.39517 0.65764 0.0
C1500 C 0.32954 0.11662 0.63169 0.0
C1501 C 0.32097 0.09254 0.6079 0.0
C1502 C 0.35303 0.12219 0.56607 0.0
C1503 C 0.35676 0.14891 0.58851 0.0
N1504 N 0.34391 0.17365 0.64146 0.0
N1505 N 0.32343 0.07189 0.55227 0.0
C1506 C 0.34417 0.14658 0.62119 0.0
C1507 C 0.33267 0.09499 0.57504 0.0
N1508 N 0.32335 0.11085 0.66437 0.0
N1509 N 0.36957 0.12248 0.53666 0.0
H1510 H 0.31013 0.05087 0.5588 0.0
H1511 H 0.32762 0.07425 0.527 0.0
H1512 H 0.3851 0.14179 0.52963 0.0
H1513 H 0.37021 0.10241 0.52056 0.0
H1514 H 0.33184 0.12615 0.68327 0.0
H1515 H 0.31277 0.08889 0.67273 0.0
H1516 H 0.33182 0.17415 0.66415 0.0
H1517 H 0.35273 0.19678 0.63438 0.0
C1518 C 0.81863 0.38639 0.36578 0.0
C1519 C 0.81186 0.40994 0.39065 0.0
C1520 C 0.84795 0.37993 0.42898 0.0
C1521 C 0.85025 0.35381 0.40568 0.0
N1522 N 0.83123 0.32937 0.35435 0.0
N1523 N 0.81796 0.42871 0.44674 0.0
C1524 C 0.83411 0.35634 0.37456 0.0
C1525 C 0.82611 0.40675 0.4225 0.0
N1526 N 0.81008 0.39267 0.33372 0.0
N1527 N 0.86712 0.37944 0.45679 0.0
H1528 H 0.80293 0.44908 0.44219 0.0
H1529 H 0.82445 0.42568 0.47147 0.0
H1530 H 0.88376 0.36041 0.46189 0.0
H1531 H 0.86871 0.39918 0.47322 0.0
H1532 H 0.81729 0.37765 0.31409 0.0
H1533 H 0.79895 0.41474 0.32639 0.0
H1534 H 0.81675 0.32929 0.33304 0.0
H1535 H 0.83997 0.30594 0.36054 0.0
C1536 C 0.55489 0.83168 0.8793 0.0
C1537 C 0.57369 0.8601 0.87069 0.0
C1538 C 0.6122 0.84906 0.91581 0.0
C1539 C 0.59564 0.81894 0.92269 0.0
N1540 N 0.54406 0.78964 0.92059 0.0
N1541 N 0.60484 0.90458 0.89547 0.0
C1542 C 0.56478 0.8125 0.90718 0.0
C1543 C 0.59737 0.87174 0.89377 0.0
N1544 N 0.52716 0.82359 0.86191 0.0
N1545 N 0.64289 0.85554 0.92825 0.0
H1546 H 0.59157 0.92226 0.88214 0.0
H1547 H 0.62054 0.91435 0.91344 0.0
H1548 H 0.65621 0.83901 0.94275 0.0
H1549 H 0.65655 0.87618 0.9211 0.0
H1550 H 0.51593 0.80048 0.86326 0.0
H1551 H 0.51473 0.8405 0.84698 0.0
H1552 H 0.52013 0.78537 0.91226 0.0
H1553 H 0.54951 0.77815 0.94291 0.0
C1554 C 0.43086 0.64072 0.89261 0.0
C1555 C 0.43858 0.65641 0.86207 0.0
C1556 C 0.44958 0.70715 0.89227 0.0
C1557 C 0.43214 0.69502 0.91982 0.0
N1558 N 0.41364 0.64679 0.94974 0.0
N1559 N 0.44992 0.70768 0.8332 0.0
C1560 C 0.42515 0.6606 0.92127 0.0
C1561 C 0.447 0.6904 0.86195 0.0
N1562 N 0.43038 0.607 0.89448 0.0
N1563 N 0.46924 0.73421 0.89531 0.0
H1564 H 0.4444 0.69749 0.81031 0.0
H1565 H 0.45386 0.73315 0.83271 0.0
H1566 H 0.47461 0.74391 0.91853 0.0
H1567 H 0.48383 0.74302 0.876 0.0
H1568 H 0.42749 0.594 0.91648 0.0
H1569 H 0.43622 0.59188 0.87444 0.0
H1570 H 0.40296 0.62341 0.95078 0.0
H1571 H 0.41573 0.65849 0.97257 0.0
C1572 C 0.56006 0.15028 0.60596 0.0
C1573 C 0.57991 0.14966 0.63483 0.0
C1574 C 0.61639 0.19164 0.61147 0.0
C1575 C 0.59492 0.19467 0.58397 0.0
N1576 N 0.54412 0.18031 0.55653 0.0
N1577 N 0.6222 0.17519 0.66849 0.0
C1578 C 0.56612 0.17486 0.58152 0.0
C1579 C 0.60679 0.17182 0.63854 0.0
N1580 N 0.53604 0.12697 0.60161 0.0
N1581 N 0.64642 0.20705 0.61144 0.0
H1582 H 0.61543 0.16189 0.68948 0.0
H1583 H 0.63944 0.19363 0.67346 0.0
H1584 H 0.65464 0.2216 0.5919 0.0
H1585 H 0.66452 0.20274 0.62926 0.0
H1586 H 0.52292 0.12402 0.57967 0.0
H1587 H 0.53092 0.10887 0.61923 0.0
H1588 H 0.52096 0.16922 0.55521 0.0
H1589 H 0.5482 0.19794 0.53828 0.0
C1590 C 0.44852 0.34128 0.61341 0.0
C1591 C 0.42515 0.3641 0.6262 0.0
C1592 C 0.38324 0.34406 0.58793 0.0
C1593 C 0.40461 0.31785 0.57864 0.0
N1594 N 0.46055 0.29934 0.57196 0.0
N1595 N 0.38088 0.39998 0.60865 0.0
C1596 C 0.43836 0.31883 0.58816 0.0
C1597 C 0.39586 0.36978 0.60791 0.0
N1598 N 0.48031 0.34197 0.62461 0.0
N1599 N 0.35054 0.34365 0.57968 0.0
H1600 H 0.39187 0.4203 0.62014 0.0
H1601 H 0.36052 0.40584 0.59396 0.0
H1602 H 0.33965 0.32482 0.56599 0.0
H1603 H 0.33369 0.36077 0.58899 0.0
H1604 H 0.49777 0.32381 0.61952 0.0
H1605 H 0.48937 0.36166 0.6386 0.0
H1606 H 0.48581 0.29917 0.57657 0.0
H1607 H 0.4537 0.2857 0.55125 0.0
C1608 C 0.89348 0.55664 0.80374 0.0
C1609 C 0.88783 0.58449 0.78315 0.0
C1610 C 0.83113 0.58866 0.80316 0.0
C1611 C 0.83791 0.56347 0.82646 0.0
N1612 N 0.87541 0.52447 0.85111 0.0
N1613 N 0.85364 0.63111 0.768 0.0
C1614 C 0.86904 0.54754 0.82729 0.0
C1615 C 0.8572 0.60148 0.78392 0.0
N1616 N 0.92175 0.53858 0.8002 0.0
N1617 N 0.79969 0.6005 0.79957 0.0
H1618 H 0.8726 0.64242 0.75483 0.0
H1619 H 0.83304 0.6463 0.77071 0.0
H1620 H 0.78 0.59238 0.81396 0.0
H1621 H 0.79254 0.61613 0.78039 0.0
H1622 H 0.92599 0.51614 0.81204 0.0
H1623 H 0.94015 0.54508 0.78349 0.0
H1624 H 0.89873 0.51451 0.85546 0.0
H1625 H 0.85743 0.51645 0.86772 0.0
C1626 C 0.16241 0.86166 0.82878 0.0
C1627 C 0.15796 0.89098 0.84747 0.0
C1628 C 0.1021 0.89729 0.82512 0.0
C1629 C 0.10616 0.86691 0.80788 0.0
N1630 N 0.13595 0.8157 0.80145 0.0
N1631 N 0.12216 0.93363 0.8685 0.0
C1632 C 0.13504 0.84771 0.81226 0.0
C1633 C 0.12734 0.90793 0.8472 0.0
N1634 N 0.19311 0.84794 0.82546 0.0
N1635 N 0.07515 0.91678 0.81922 0.0
H1636 H 0.14028 0.94213 0.88477 0.0
H1637 H 0.09924 0.94476 0.87196 0.0
H1638 H 0.05599 0.90999 0.80346 0.0
H1639 H 0.07294 0.9409 0.82793 0.0
H1640 H 0.19814 0.82856 0.80927 0.0
H1641 H 0.21429 0.85793 0.83623 0.0
H1642 H 0.15526 0.79956 0.8069 0.0
H1643 H 0.11575 0.80417 0.7903 0.0
C1644 C 0.84713 0.39022 0.71394 0.0
C1645 C 0.87958 0.40308 0.71072 0.0
C1646 C 0.86039 0.44139 0.66778 0.0
C1647 C 0.82786 0.42945 0.67236 0.0
N1648 N 0.78869 0.39862 0.70474 0.0
N1649 N 0.91634 0.44454 0.68903 0.0
C1650 C 0.82076 0.406 0.69726 0.0
C1651 C 0.88604 0.4298 0.68891 0.0
N1652 N 0.84177 0.36155 0.73104 0.0
N1653 N 0.8668 0.46299 0.64266 0.0
H1654 H 0.93556 0.43632 0.704 0.0
H1655 H 0.92167 0.46623 0.67628 0.0
H1656 H 0.84817 0.47294 0.62783 0.0
H1657 H 0.89053 0.46979 0.63551 0.0
H1658 H 0.8192 0.34923 0.73118 0.0
H1659 H 0.86058 0.34795 0.74221 0.0
H1660 H 0.78191 0.38429 0.725 0.0
H1661 H 0.7687 0.40945 0.6926 0.0
C1662 C 0.1016 0.08086 0.67239 0.0
C1663 C 0.10371 0.11149 0.68955 0.0
C1664 C 0.16136 0.11724 0.67326 0.0
C1665 C 0.1585 0.08844 0.65349 0.0
N1666 N 0.1249 0.0452 0.63014 0.0
N1667 N 0.13266 0.1628 0.69886 0.0
C1668 C 0.12832 0.07082 0.65187 0.0
C1669 C 0.13274 0.13086 0.68778 0.0
N1670 N 0.07495 0.06067 0.67681 0.0
N1671 N 0.19166 0.13093 0.67928 0.0
H1672 H 0.11165 0.17428 0.70837 0.0
H1673 H 0.15231 0.17899 0.69514 0.0
H1674 H 0.21362 0.12103 0.67013 0.0
H1675 H 0.19535 0.14997 0.69623 0.0
H1676 H 0.07397 0.03645 0.66815 0.0
H1677 H 0.05483 0.067 0.69149 0.0
H1678 H 0.10241 0.03369 0.62528 0.0
H1679 H 0.1441 0.03707 0.61502 0.0
C1680 C 0.8266 0.91133 0.55654 0.0
C1681 C 0.82781 0.92163 0.5901 0.0
C1682 C 0.87678 0.88741 0.59838 0.0
C1683 C 0.8692 0.87027 0.56875 0.0
N1684 N 0.84985 0.87684 0.51303 0.0
N1685 N 0.85555 0.92086 0.64301 0.0
C1686 C 0.8479 0.88557 0.54558 0.0
C1687 C 0.85377 0.91063 0.61089 0.0
N1688 N 0.80522 0.92646 0.53544 0.0
N1689 N 0.90674 0.8831 0.61327 0.0
H1690 H 0.83951 0.93829 0.65312 0.0
H1691 H 0.87169 0.9104 0.66016 0.0
H1692 H 0.92568 0.86969 0.60207 0.0
H1693 H 0.9144 0.89673 0.63374 0.0
H1694 H 0.8001 0.91872 0.51148 0.0
H1695 H 0.79319 0.94798 0.54232 0.0
H1696 H 0.83527 0.88672 0.49432 0.0
H1697 H 0.86867 0.86159 0.50422 0.0
C1698 C 0.78623 0.10156 0.94726 0.0
C1699 C 0.80014 0.07621 0.92796 0.0
C1700 C 0.85412 0.10276 0.93522 0.0
C1701 C 0.83758 0.13258 0.94399 0.0
N1702 N 0.78533 0.16009 0.95483 0.0
N1703 N 0.84995 0.04721 0.91272 0.0
C1704 C 0.80301 0.13187 0.94987 0.0
C1705 C 0.83507 0.07486 0.92494 0.0
N1706 N 0.75718 0.09649 0.96328 0.0
N1707 N 0.88772 0.10091 0.93783 0.0
H1708 H 0.83781 0.02455 0.91134 0.0
H1709 H 0.87445 0.04651 0.90502 0.0
H1710 H 0.90194 0.12037 0.94699 0.0
H1711 H 0.90118 0.07931 0.93409 0.0
H1712 H 0.7469 0.11382 0.97936 0.0
H1713 H 0.74667 0.07304 0.96414 0.0
H1714 H 0.75965 0.16024 0.95676 0.0
H1715 H 0.79562 0.18342 0.95287 0.0
C1716 C 0.1531 0.39538 0.9483 0.0
C1717 C 0.1496 0.36446 0.93219 0.0
C1718 C 0.18933 0.38108 0.88987 0.0
C1719 C 0.19481 0.41105 0.90709 0.0
N1720 N 0.18472 0.44619 0.95401 0.0
N1721 N 0.16892 0.32515 0.89166 0.0
C1722 C 0.17743 0.41813 0.93673 0.0
C1723 C 0.16918 0.35652 0.90425 0.0
N1724 N 0.13266 0.40313 0.97399 0.0
N1725 N 0.20208 0.37668 0.85888 0.0
H1726 H 0.15395 0.30646 0.90096 0.0
H1727 H 0.18563 0.31681 0.87398 0.0
H1728 H 0.21635 0.39439 0.84691 0.0
H1729 H 0.19575 0.35696 0.84359 0.0
H1730 H 0.13149 0.42641 0.98485 0.0
H1731 H 0.11548 0.38642 0.98345 0.0
H1732 H 0.17524 0.45159 0.97726 0.0
H1733 H 0.20184 0.46344 0.94562 0.0
C1734 C 0.66701 0.13897 0.10819 0.0
C1735 C 0.64441 0.13409 0.0818 0.0
C1736 C 0.67227 0.08226 0.06718 0.0
C1737 C 0.6931 0.08602 0.09517 0.0
N1738 N 0.70578 0.11414 0.14623 0.0
N1739 N 0.62249 0.0998 0.03841 0.0
C1740 C 0.68912 0.11325 0.11683 0.0
C1741 C 0.64617 0.10533 0.06186 0.0
N1742 N 0.66858 0.16884 0.12399 0.0
N1743 N 0.67812 0.05732 0.04522 0.0
H1744 H 0.60331 0.11643 0.03383 0.0
H1745 H 0.62039 0.07783 0.0252 0.0
H1746 H 0.69656 0.03977 0.04893 0.0
H1747 H 0.66631 0.05522 0.02246 0.0
H1748 H 0.68724 0.17503 0.14061 0.0
H1749 H 0.6532 0.18873 0.11829 0.0
H1750 H 0.70103 0.13151 0.16462 0.0
H1751 H 0.72208 0.09566 0.1537 0.0
C1752 C 0.42395 0.18558 0.10014 0.0
C1753 C 0.39487 0.20489 0.10382 0.0
C1754 C 0.38844 0.18465 0.16041 0.0
C1755 C 0.41502 0.16238 0.15531 0.0
N1756 N 0.457 0.1395 0.12002 0.0
N1757 N 0.34612 0.21855 0.13543 0.0
C1758 C 0.43269 0.16237 0.12514 0.0
C1759 C 0.3763 0.20346 0.13348 0.0
N1760 N 0.44357 0.19006 0.07312 0.0
N1761 N 0.37535 0.18857 0.19131 0.0
H1762 H 0.3358 0.23223 0.11621 0.0
H1763 H 0.32986 0.21495 0.15502 0.0
H1764 H 0.38357 0.17538 0.21188 0.0
H1765 H 0.35855 0.20715 0.19722 0.0
H1766 H 0.46681 0.17939 0.07042 0.0
H1767 H 0.43764 0.20675 0.05448 0.0
H1768 H 0.46847 0.13579 0.09732 0.0
H1769 H 0.46424 0.12254 0.13805 0.0
C1770 C 0.59362 0.31734 0.15808 0.0
C1771 C 0.56886 0.34095 0.15041 0.0
C1772 C 0.55776 0.31254 0.09801 0.0
C1773 C 0.58518 0.29146 0.1041 0.0
N1774 N 0.63302 0.27775 0.13724 0.0
N1775 N 0.52852 0.36299 0.11264 0.0
C1776 C 0.60404 0.29477 0.13349 0.0
C1777 C 0.55104 0.33901 0.1203 0.0
N1778 N 0.60669 0.31593 0.18925 0.0
N1779 N 0.53776 0.30668 0.07144 0.0
H1780 H 0.5227 0.38224 0.12878 0.0
H1781 H 0.51717 0.36507 0.08965 0.0
H1782 H 0.54218 0.28756 0.05478 0.0
H1783 H 0.51556 0.31897 0.06725 0.0
H1784 H 0.62189 0.29676 0.19732 0.0
H1785 H 0.59996 0.33211 0.20813 0.0
H1786 H 0.64963 0.28222 0.15641 0.0
H1787 H 0.64227 0.26142 0.11964 0.0
C1788 C 0.42677 0.85669 0.37595 0.0
C1789 C 0.40844 0.85929 0.34618 0.0
C1790 C 0.36577 0.82299 0.36873 0.0
C1791 C 0.38603 0.81693 0.39656 0.0
N1792 N 0.43675 0.82574 0.42627 0.0
N1793 N 0.36367 0.83994 0.31159 0.0
C1794 C 0.41676 0.83332 0.4002 0.0
C1795 C 0.37864 0.84129 0.3419 0.0
N1796 N 0.45312 0.8771 0.38133 0.0
N1797 N 0.33412 0.81128 0.36803 0.0
H1798 H 0.37295 0.85176 0.29069 0.0
H1799 H 0.34392 0.82432 0.30628 0.0
H1800 H 0.32386 0.7979 0.3875 0.0
H1801 H 0.31709 0.81769 0.34981 0.0
H1802 H 0.46555 0.87862 0.40381 0.0
H1803 H 0.461 0.89451 0.36405 0.0
H1804 H 0.46111 0.8337 0.42846 0.0
H1805 H 0.4292 0.80986 0.44497 0.0
C1806 C 0.56011 0.68214 0.40943 0.0
C1807 C 0.59285 0.69376 0.41371 0.0
C1808 C 0.60967 0.66754 0.36234 0.0
C1809 C 0.57733 0.65439 0.35845 0.0
N1810 N 0.52362 0.64339 0.38166 0.0
N1811 N 0.65049 0.68915 0.40016 0.0
C1812 C 0.55302 0.65988 0.38308 0.0
C1813 C 0.61821 0.68326 0.3923 0.0
N1814 N 0.53582 0.69304 0.43003 0.0
N1815 N 0.63143 0.66776 0.3365 0.0
H1816 H 0.65748 0.70072 0.42208 0.0
H1817 H 0.67016 0.67934 0.38678 0.0
H1818 H 0.62557 0.65934 0.31288 0.0
H1819 H 0.65403 0.68003 0.33735 0.0
H1820 H 0.51076 0.68879 0.42604 0.0
H1821 H 0.54103 0.70758 0.45062 0.0
H1822 H 0.50603 0.64427 0.40037 0.0
H1823 H 0.51802 0.6265 0.363 0.0
C1824 C 0.13925 0.3946 0.15473 0.0
C1825 C 0.1328 0.42416 0.13692 0.0
C1826 C 0.07905 0.42914 0.16419 0.0
C1827 C 0.08484 0.39849 0.18028 0.0
N1828 N 0.11648 0.34824 0.18465 0.0
N1829 N 0.0954 0.46761 0.12103 0.0
C1830 C 0.11376 0.38007 0.17361 0.0
C1831 C 0.10232 0.44096 0.14059 0.0
N1832 N 0.17024 0.3811 0.15482 0.0
N1833 N 0.05188 0.44731 0.17227 0.0
H1834 H 0.11226 0.47706 0.10401 0.0
H1835 H 0.07236 0.47899 0.12007 0.0
H1836 H 0.03396 0.43838 0.18832 0.0
H1837 H 0.04798 0.47153 0.16454 0.0
H1838 H 0.17721 0.36176 0.17032 0.0
H1839 H 0.19003 0.3912 0.14188 0.0
H1840 H 0.1355 0.3324 0.17762 0.0
H1841 H 0.09788 0.33648 0.19803 0.0
C1842 C 0.87883 0.04533 0.14311 0.0
C1843 C 0.86545 0.06776 0.11969 0.0
C1844 C 0.89929 0.11246 0.14205 0.0
C1845 C 0.90839 0.09173 0.16877 0.0
N1846 N 0.91705 0.03649 0.18862 0.0
N1847 N 0.88026 0.11419 0.08541 0.0
C1848 C 0.90128 0.05738 0.16743 0.0
C1849 C 0.88114 0.09878 0.11539 0.0
N1850 N 0.87081 0.01261 0.14121 0.0
N1851 N 0.90662 0.1454 0.14263 0.0
H1852 H 0.87082 0.10256 0.06441 0.0
H1853 H 0.89319 0.13587 0.08039 0.0
H1854 H 0.92025 0.15645 0.1615 0.0
H1855 H 0.8972 0.16209 0.1254 0.0
H1856 H 0.87629 0.99522 0.15932 0.0
H1857 H 0.85933 0.00265 0.12036 0.0
H1858 H 0.91403 0.01099 0.18918 0.0
H1859 H 0.93574 0.04495 0.20397 0.0
C1860 C 0.11357 0.60596 0.35665 0.0
C1861 C 0.10194 0.58486 0.33115 0.0
C1862 C 0.13585 0.53952 0.35294 0.0
C1863 C 0.15135 0.56255 0.37432 0.0
N1864 N 0.13909 0.60807 0.41069 0.0
N1865 N 0.0914 0.52912 0.31375 0.0
C1866 C 0.13494 0.59272 0.38096 0.0
C1867 C 0.10978 0.55066 0.332 0.0
N1868 N 0.10616 0.6389 0.35674 0.0
N1869 N 0.14567 0.50725 0.35335 0.0
H1870 H 0.07024 0.53692 0.30142 0.0
H1871 H 0.09481 0.50364 0.31346 0.0
H1872 H 0.16103 0.49802 0.37193 0.0
H1873 H 0.13829 0.4897 0.33608 0.0
H1874 H 0.11722 0.65557 0.37298 0.0
H1875 H 0.09095 0.65006 0.33924 0.0
H1876 H 0.12602 0.6292 0.41751 0.0
H1877 H 0.15204 0.59685 0.42999 0.0
C1878 C 0.83838 0.8696 0.33334 0.0
C1879 C 0.83984 0.89735 0.35474 0.0
C1880 C 0.89963 0.90129 0.34606 0.0
C1881 C 0.89811 0.8731 0.32515 0.0
N1882 N 0.86826 0.82486 0.30725 0.0
N1883 N 0.87197 0.93597 0.3866 0.0
C1884 C 0.86811 0.85553 0.32147 0.0
C1885 C 0.87055 0.91215 0.36266 0.0
N1886 N 0.8085 0.85762 0.32301 0.0
N1887 N 0.92846 0.91836 0.34912 0.0
H1888 H 0.85105 0.94462 0.39889 0.0
H1889 H 0.89396 0.94539 0.39604 0.0
H1890 H 0.95053 0.90964 0.33943 0.0
H1891 H 0.93029 0.94154 0.36014 0.0
H1892 H 0.80604 0.83983 0.30456 0.0
H1893 H 0.78596 0.86754 0.33055 0.0
H1894 H 0.84769 0.80943 0.3067 0.0
H1895 H 0.88992 0.81338 0.29928 0.0
C1896 C 0.14767 0.12729 0.43964 0.0
C1897 C 0.14321 0.15289 0.41605 0.0
C1898 C 0.1721 0.11999 0.3746 0.0
C1899 C 0.18121 0.09711 0.39931 0.0
N1900 N 0.17951 0.07905 0.45591 0.0
N1901 N 0.15901 0.17686 0.36347 0.0
C1902 C 0.16943 0.10067 0.43207 0.0
C1903 C 0.15733 0.15009 0.38405 0.0
N1904 N 0.1305 0.12791 0.46867 0.0
N1905 N 0.1778 0.11312 0.34206 0.0
H1906 H 0.15124 0.20048 0.37022 0.0
H1907 H 0.1719 0.17657 0.3412 0.0
H1908 H 0.18801 0.09083 0.33419 0.0
H1909 H 0.16889 0.12785 0.32288 0.0
H1910 H 0.13057 0.10848 0.48553 0.0
H1911 H 0.11385 0.14666 0.47458 0.0
H1912 H 0.17491 0.08241 0.481 0.0
H1913 H 0.19396 0.05844 0.45048 0.0
C1914 C 0.17689 0.8914 0.07961 0.0
C1915 C 0.19518 0.8919 0.10957 0.0
C1916 C 0.18156 0.834 0.11946 0.0
C1917 C 0.16093 0.83414 0.09107 0.0
N1918 N 0.13493 0.86397 0.04654 0.0
N1919 N 0.20831 0.86647 0.16184 0.0
C1920 C 0.15742 0.86315 0.07174 0.0
C1921 C 0.19546 0.86403 0.13066 0.0
N1922 N 0.17913 0.91733 0.05821 0.0
N1923 N 0.18921 0.80488 0.13486 0.0
H1924 H 0.21811 0.88838 0.17125 0.0
H1925 H 0.20607 0.84786 0.17947 0.0
H1926 H 0.18066 0.78195 0.12675 0.0
H1927 H 0.20684 0.80304 0.15355 0.0
H1928 H 0.16941 0.91707 0.03437 0.0
H1929 H 0.19282 0.93837 0.06369 0.0
H1930 H 0.12881 0.88542 0.03371 0.0
H1931 H 0.12049 0.84361 0.04009 0.0
C1932 C 0.84521 0.63078 0.06492 0.0
C1933 C 0.84701 0.65905 0.0856 0.0
C1934 C 0.80649 0.63496 0.12318 0.0
C1935 C 0.80234 0.60806 0.10114 0.0
N1936 N 0.81451 0.58163 0.04924 0.0
N1937 N 0.82403 0.69156 0.13006 0.0
C1938 C 0.82086 0.60624 0.07146 0.0
C1939 C 0.82618 0.66211 0.11355 0.0
N1940 N 0.86738 0.62696 0.03979 0.0
N1941 N 0.79241 0.63417 0.15385 0.0
H1942 H 0.83734 0.71255 0.12329 0.0
H1943 H 0.80651 0.69625 0.14829 0.0
H1944 H 0.7781 0.6145 0.16215 0.0
H1945 H 0.79765 0.6514 0.17225 0.0
H1946 H 0.86956 0.60541 0.02591 0.0
H1947 H 0.88534 0.64459 0.03429 0.0
H1948 H 0.82451 0.58085 0.02557 0.0
H1949 H 0.79739 0.56298 0.05379 0.0
C1950 C 0.33174 0.87649 0.88047 0.0
C1951 C 0.31945 0.90083 0.90224 0.0
C1952 C 0.35433 0.87894 0.94677 0.0
C1953 C 0.36294 0.852 0.92607 0.0
N1954 N 0.35374 0.82138 0.87546 0.0
N1955 N 0.31699 0.92484 0.95656 0.0
C1956 C 0.35017 0.84982 0.89342 0.0
C1957 C 0.33029 0.90209 0.93556 0.0
N1958 N 0.32582 0.87892 0.8473 0.0
N1959 N 0.3697 0.88283 0.9766 0.0
H1960 H 0.30067 0.94296 0.94839 0.0
H1961 H 0.3208 0.92476 0.98201 0.0
H1962 H 0.38748 0.86634 0.98537 0.0
H1963 H 0.36678 0.90364 0.99146 0.0
H1964 H 0.33695 0.86357 0.82988 0.0
H1965 H 0.31263 0.8985 0.83693 0.0
H1966 H 0.34197 0.81742 0.8529 0.0
H1967 H 0.36535 0.80023 0.88455 0.0
C1968 C 0.99733 0.51245 0.22004 0.0
C1969 C 0.00684 0.53192 0.24738 0.0
C1970 C 0.9933 0.48717 0.28499 0.0
C1971 C 0.99392 0.46601 0.25743 0.0
N1972 N 0.97566 0.4593 0.20179 0.0
N1973 N -0.0003 0.54352 0.30516 0.0
C1974 C 0.98782 0.4793 0.22593 0.0
C1975 C -0.00101 0.52138 0.27978 0.0
N1976 N 0.00025 0.52493 0.18892 0.0
N1977 N 0.99143 0.47355 0.31571 0.0
H1978 H 0.00392 0.56862 0.30102 0.0
H1979 H 0.99403 0.5376 0.32951 0.0
H1980 H 0.98788 0.44813 0.31862 0.0
H1981 H 0.99343 0.48688 0.33761 0.0
H1982 H 0.99652 0.51098 0.16761 0.0
H1983 H 0.00701 0.54953 0.18497 0.0
H1984 H 0.96953 0.46764 0.17822 0.0
H1985 H 0.97007 0.43458 0.20677 0.0
C1986 C 0.98937 0.98026 0.23544 0.0
C1987 C 0.98351 0.96157 0.26428 0.0
C1988 C 0.98073 0.01129 0.29756 0.0
C1989 C 0.97997 0.02973 0.26799 0.0
N1990 N -0.00013 0.03468 0.21235 0.0
N1991 N 0.99196 0.95789 0.32264 0.0
C1992 C 0.99063 0.01514 0.23815 0.0
C1993 C 0.9857 0.97672 0.29552 0.0
N1994 N 0.99106 0.96473 0.20557 0.0
N1995 N 0.9743 0.02658 0.32686 0.0
H1996 H 0.99752 0.9328 0.32022 0.0
H1997 H 0.99517 0.96765 0.34625 0.0
H1998 H 0.97145 0.05221 0.3283 0.0
H1999 H 0.97103 0.0139 0.34901 0.0
H2000 H 0.99157 0.97721 0.18308 0.0
H2001 H 0.99104 0.93897 0.20369 0.0
H2002 H 0.00933 0.02542 0.1903 0.0
H2003 H 0.00063 0.06037 0.21451 0.0
C2004 C 0.27504 0.99323 0.52216 0.0
C2005 C 0.24341 0.00284 0.53324 0.0
C2006 C 0.22145 0.99507 0.47799 0.0
C2007 C 0.25396 -0.00133 0.46631 0.0
N2008 N 0.3117 0.99022 0.4746 0.0
N2009 N 0.18486 0.00389 0.52477 0.0
C2010 C 0.28079 0.99261 0.48764 0.0
C2011 C 0.21578 -0.00043 0.51221 0.0
N2012 N 0.29941 0.98712 0.54459 0.0
N2013 N 0.19644 0.99066 0.45588 0.0
H2014 H 0.18104 0.00678 0.55014 0.0
H2015 H 0.16357 0.00497 0.51037 0.0
H2016 H 0.20129 0.98845 0.43063 0.0
H2017 H 0.17191 0.98706 0.46262 0.0
H2018 H 0.32302 0.97919 0.53823 0.0
H2019 H 0.29482 0.98794 0.56996 0.0
H2020 H 0.3332 0.98886 0.48865 0.0
H2021 H 0.31526 0.99003 0.44902 0.0
C2022 C 0.78064 0.50685 0.51441 0.0
C2023 C 0.75356 0.50438 0.53618 0.0
C2024 C 0.71497 0.50732 0.49038 0.0
C2025 C 0.74185 0.50186 0.46888 0.0
N2026 N 0.79897 0.5123 0.45742 0.0
N2027 N 0.69736 0.51987 0.54644 0.0
C2028 C 0.77439 0.50779 0.47993 0.0
C2029 C 0.72147 0.51144 0.52456 0.0
N2030 N 0.81188 0.5051 0.5269 0.0
N2031 N 0.68356 0.50572 0.4783 0.0
H2032 H 0.70245 0.52281 0.57156 0.0
H2033 H 0.67354 0.52659 0.53938 0.0
H2034 H 0.67897 0.50341 0.45299 0.0
H2035 H 0.66259 0.50588 0.49314 0.0
H2036 H 0.833 0.50329 0.51239 0.0
H2037 H 0.81608 0.50485 0.55239 0.0
H2038 H 0.82321 0.51801 0.46381 0.0
H2039 H 0.79404 0.51272 0.4321 0.0
C2040 C 0.26676 -0.00114 0.97342 0.0
C2041 C 0.23464 0.98867 0.96472 0.0
C2042 C 0.21773 0.99418 0.02187 0.0
C2043 C 0.25128 0.99021 0.03058 0.0
N2044 N 0.30837 0.99734 0.01667 0.0
N2045 N 0.17727 0.9857 0.97827 0.0
C2046 C 0.27611 0.99649 0.00702 0.0
C2047 C 0.20906 0.99062 0.98818 0.0
N2048 N 0.28841 0.00793 0.94935 0.0
N2049 N 0.19467 -0.00037 0.04572 0.0
H2050 H 0.17132 0.98336 0.95324 0.0
H2051 H 0.15755 0.98316 0.99455 0.0
H2052 H 0.2013 0.00238 0.07049 0.0
H2053 H 0.16985 0.00409 0.04059 0.0
H2054 H 0.31209 0.01669 0.95424 0.0
H2055 H 0.28117 0.00907 0.92461 0.0
H2056 H 0.32808 0.99833 0.00021 0.0
H2057 H 0.31498 0.99624 0.04162 0.0
C2058 C 0.77063 0.4976 0.02405 0.0
C2059 C 0.73741 0.5067 0.02994 0.0
C2060 C 0.72342 0.49225 0.97328 0.0
C2061 C 0.7571 0.49625 0.96548 0.0
N2062 N 0.81335 0.49069 0.98221 0.0
N2063 N 0.68055 0.50461 0.01342 0.0
C2064 C 0.78093 0.49354 0.99078 0.0
C2065 C 0.71305 0.50034 0.00573 0.0
N2066 N 0.79216 0.49496 0.04987 0.0
N2067 N 0.70172 0.4831 0.94921 0.0
H2068 H 0.67304 0.50975 0.03757 0.0
H2069 H 0.66153 0.50378 0.9961 0.0
H2070 H 0.70981 0.47683 0.92555 0.0
H2071 H 0.67675 0.4788 0.95348 0.0
H2072 H 0.81667 0.48768 0.04738 0.0
H2073 H 0.78449 0.49779 0.07429 0.0
H2074 H 0.83288 0.49155 -0.00109 0.0
H2075 H 0.82023 0.48773 0.9575 0.0
C2076 C 0.46086 0.22004 0.991 0.0
C2077 C 0.45661 0.2545 0.99469 0.0
C2078 C 0.51627 0.26185 0.99166 0.0
C2079 C 0.51958 0.22839 0.00133 0.0
N2080 N 0.49736 0.1735 0.00173 0.0
N2081 N 0.47888 0.30888 0.98849 0.0
C2082 C 0.49264 0.20657 0.99719 0.0
C2083 C 0.48404 0.27563 0.99049 0.0
N2084 N 0.4344 0.20059 0.98357 0.0
N2085 N 0.54366 0.28035 0.98532 0.0
H2086 H 0.45501 0.31861 0.98697 0.0
H2087 H 0.49768 0.32639 0.98911 0.0
H2088 H 0.56727 0.27011 0.98523 0.0
H2089 H 0.54275 0.30468 0.97702 0.0
H2090 H 0.43612 0.17524 0.9795 0.0
H2091 H 0.41132 0.21071 0.97817 0.0
H2092 H 0.47824 0.15635 0.00275 0.0
H2093 H 0.52096 0.16366 0.00531 0.0
C2094 C 0.49501 0.79463 0.50426 0.0
C2095 C 0.52016 0.77065 0.50175 0.0
C2096 C 0.47986 0.72646 0.50332 0.0
C2097 C 0.4554 0.75038 0.4966 0.0
N2098 N 0.43592 0.80498 0.50855 0.0
N2099 N 0.53758 0.71628 0.51702 0.0
C2100 C 0.4617 0.78383 0.50409 0.0
C2101 C 0.5127 0.73736 0.5087 0.0
N2102 N 0.50324 0.82723 0.50295 0.0
N2103 N 0.47199 0.69379 0.50114 0.0
H2104 H 0.56178 0.72479 0.51978 0.0
H2105 H 0.53381 0.69162 0.5233 0.0
H2106 H 0.44761 0.68622 0.49733 0.0
H2107 H 0.48931 0.6748 0.50248 0.0
H2108 H 0.48601 0.84626 0.50116 0.0
H2109 H 0.52797 0.83463 0.50294 0.0
H2110 H 0.43882 0.82968 0.51522 0.0
H2111 H 0.41155 0.79658 0.50772 0.0
C2112 C 0.99223 0.70422 0.48462 0.0
C2113 C 0.021 0.72308 0.49047 0.0
C2114 C 0.98876 0.77367 0.49141 0.0
C2115 C 0.96 0.75405 0.49309 0.0
N2116 N 0.93346 0.70542 0.47208 0.0
N2117 N 0.04773 0.77514 0.48042 0.0
C2118 C 0.96146 0.72086 0.48253 0.0
C2119 C 0.01964 0.75778 0.48678 0.0
N2120 N 0.99432 0.67063 0.48355 0.0
N2121 N 0.9865 0.80682 0.497 0.0
H2122 H 0.07031 0.76333 0.47665 0.0
H2123 H 0.04791 0.80051 0.47603 0.0
H2124 H 0.9636 0.81842 0.49973 0.0
H2125 H 0.00695 0.82217 0.49978 0.0
H2126 H 0.97375 0.6552 0.48278 0.0
H2127 H 0.01713 0.65856 0.48435 0.0
H2128 H 0.93328 0.68149 0.46258 0.0
H2129 H 0.91099 0.718 0.47066 0.0
C2130 C 0.99776 0.48856 0.77568 0.0
C2131 C 0.99204 0.45971 0.75677 0.0
C2132 C 0.99461 0.49176 0.70601 0.0
C2133 C 0.99164 0.52077 0.72529 0.0
N2134 N 0.00844 0.54778 0.77541 0.0
N2135 N 0.00353 0.43224 0.70544 0.0
C2136 C 0.0001 0.51948 0.75916 0.0
C2137 C 0.99748 0.46076 0.7223 0.0
N2138 N 0.99802 0.48631 0.80928 0.0
N2139 N 0.99184 0.49405 0.67251 0.0
H2140 H 0.00641 0.40971 0.71763 0.0
H2141 H 0.00884 0.4315 0.68029 0.0
H2142 H 0.99045 0.51701 0.66078 0.0
H2143 H 0.99015 0.47368 0.65687 0.0
H2144 H -0.00156 0.50668 0.825 0.0
H2145 H 0.99701 0.46339 0.82112 0.0
H2146 H 0.01598 0.54834 0.80001 0.0
H2147 H 0.01085 0.57025 0.76302 0.0
C2148 C 0.02256 0.00571 0.7508 0.0
C2149 C 0.05147 0.02508 0.75583 0.0
C2150 C 0.085 0.97579 0.75056 0.0
C2151 C 0.05755 0.95671 0.73986 0.0
N2152 N -0.00043 0.95623 0.72525 0.0
N2153 N 0.11011 0.02862 0.74366 0.0
C2154 C 0.02591 0.97234 0.7387 0.0
C2155 C 0.08261 0.01019 0.75015 0.0
N2156 N 0.99233 0.01858 0.7581 0.0
N2157 N 0.11311 0.96151 0.76272 0.0
H2158 H 0.10926 0.05409 0.73982 0.0
H2159 H 0.13277 0.01778 0.73791 0.0
H2160 H 0.11525 0.93628 0.76742 0.0
H2161 H 0.13249 0.97558 0.77234 0.0
H2162 H 0.97075 0.00458 0.75773 0.0
H2163 H 0.98935 0.0426 0.76695 0.0
H2164 H 0.97679 0.96757 0.72133 0.0
H2165 H 0.00137 0.93257 0.71525 0.0
C2166 C 0.77352 -0.00045 0.4779 0.0
C2167 C 0.74531 0.99518 0.45791 0.0
C2168 C 0.70933 0.00086 0.50541 0.0
C2169 C 0.73745 0.99815 0.52585 0.0
N2170 N 0.79465 0.01271 0.53257 0.0
N2171 N 0.68917 0.01164 0.44985 0.0
C2172 C 0.76906 0.00436 0.51233 0.0
C2173 C 0.714 0.00302 0.47081 0.0
N2174 N 0.80411 0.99605 0.46434 0.0
N2175 N 0.67861 -0.00107 0.51895 0.0
H2176 H 0.69345 0.01367 0.42447 0.0
H2177 H 0.66594 0.01922 0.4579 0.0
H2178 H 0.67528 0.99805 0.54453 0.0
H2179 H 0.65711 0.99729 0.50487 0.0
H2180 H 0.82578 0.99514 0.47821 0.0
H2181 H 0.80723 0.99312 0.43888 0.0
H2182 H 0.81804 0.01889 0.52387 0.0
H2183 H 0.79128 0.01631 0.55786 0.0
C2184 C 0.3121 0.49555 0.46976 0.0
C2185 C 0.27948 0.4964 0.45775 0.0
C2186 C 0.25963 0.48325 0.51289 0.0
C2187 C 0.28974 0.49591 0.52545 0.0
N2188 N 0.34744 0.50599 0.51715 0.0
N2189 N 0.2224 0.48301 0.46573 0.0
C2190 C 0.31728 0.49842 0.50426 0.0
C2191 C 0.25338 0.4864 0.47853 0.0
N2192 N 0.33747 0.49272 0.44799 0.0
N2193 N 0.23681 0.47019 0.53386 0.0
H2194 H 0.21802 0.48456 0.44034 0.0
H2195 H 0.20137 0.47963 0.48011 0.0
H2196 H 0.24176 0.46691 0.55893 0.0
H2197 H 0.21485 0.45943 0.52589 0.0
H2198 H 0.36211 0.49069 0.45514 0.0
H2199 H 0.33278 0.48896 0.42287 0.0
H2200 H 0.36798 0.51154 0.50272 0.0
H2201 H 0.35116 0.50738 0.54267 0.0
C2202 C 0.76275 0.97094 0.96262 0.0
C2203 C 0.72849 0.97461 0.9578 0.0
C2204 C 0.72068 0.97596 0.01735 0.0
C2205 C 0.75395 0.98656 0.01994 0.0
N2206 N 0.80894 0.9863 0.99776 0.0
N2207 N 0.67459 0.96616 0.97959 0.0
C2208 C 0.77603 0.9805 0.99359 0.0
C2209 C 0.70746 0.97063 0.98521 0.0
N2210 N 0.78211 0.96133 0.93688 0.0
N2211 N 0.70185 0.97308 0.04509 0.0
H2212 H 0.66567 0.96304 0.95553 0.0
H2213 H 0.65671 0.9658 0.99801 0.0
H2214 H 0.7117 0.97684 0.06861 0.0
H2215 H 0.67749 0.96493 0.045 0.0
H2216 H 0.80743 0.95729 0.93898 0.0
H2217 H 0.77168 0.95466 0.91421 0.0
H2218 H 0.82596 0.98567 0.97851 0.0
H2219 H 0.81873 0.9925 0.02084 0.0
C2220 C 0.23192 0.52406 0.96442 0.0
C2221 C 0.26513 0.51344 0.96282 0.0
C2222 C 0.26955 0.52055 0.02238 0.0
C2223 C 0.23504 0.51625 0.02395 0.0
N2224 N 0.18241 0.5246 -0.00155 0.0
N2225 N 0.31839 0.51186 0.98855 0.0
C2226 C 0.21588 0.52292 0.99556 0.0
C2227 C 0.28516 0.51635 0.99129 0.0
N2228 N 0.21569 0.53282 0.93624 0.0
N2229 N 0.2869 0.5265 0.05058 0.0
H2230 H 0.32952 0.50908 0.96543 0.0
H2231 H 0.33428 0.51021 0.00874 0.0
H2232 H 0.27497 0.52955 0.07322 0.0
H2233 H 0.3122 0.53114 0.05092 0.0
H2234 H 0.19154 0.54165 0.93596 0.0
H2235 H 0.22789 0.53421 0.9136 0.0
H2236 H 0.16635 0.52588 0.97838 0.0
H2237 H 0.17109 0.52383 0.02163 0.0
C2238 C 0.48333 0.72895 0.03037 0.0
C2239 C 0.47779 0.76304 0.02528 0.0
C2240 C 0.53604 0.77363 0.03514 0.0
C2241 C 0.54206 0.74053 0.02576 0.0
N2242 N 0.52367 0.68441 0.02629 0.0
N2243 N 0.49612 0.8186 0.03327 0.0
C2244 C 0.51632 0.7172 0.02865 0.0
C2245 C 0.50325 0.7857 0.03251 0.0
N2246 N 0.45708 0.70822 0.03399 0.0
N2247 N 0.56166 0.79336 0.04446 0.0
H2248 H 0.47175 0.82694 0.03138 0.0
H2249 H 0.51392 0.83708 0.03501 0.0
H2250 H 0.58548 0.78393 0.04734 0.0
H2251 H 0.55869 0.81765 0.05243 0.0
H2252 H 0.45932 0.68296 0.0383 0.0
H2253 H 0.43299 0.7173 0.03539 0.0
H2254 H 0.50604 0.66575 0.02513 0.0
H2255 H 0.54819 0.67639 0.02513 0.0
C2256 C 0.48554 0.20813 0.48272 0.0
C2257 C 0.45989 0.2315 0.48607 0.0
C2258 C 0.49773 0.27642 0.4746 0.0
C2259 C 0.5237 0.25411 0.48089 0.0
N2260 N 0.5441 0.19924 0.47232 0.0
N2261 N 0.43852 0.28364 0.46733 0.0
C2262 C 0.51806 0.21991 0.47749 0.0
C2263 C 0.46495 0.2642 0.4749 0.0
N2264 N 0.47894 0.17557 0.48813 0.0
N2265 N 0.50463 0.30927 0.47202 0.0
H2266 H 0.41454 0.27422 0.46725 0.0
H2267 H 0.44064 0.30763 0.45829 0.0
H2268 H 0.52904 0.31767 0.47185 0.0
H2269 H 0.48669 0.32766 0.47072 0.0
H2270 H 0.49703 0.15732 0.48942 0.0
H2271 H 0.45476 0.16742 0.49196 0.0
H2272 H 0.54162 0.17387 0.46876 0.0
H2273 H 0.56797 0.20848 0.46927 0.0
C2274 C 0.97984 0.28164 0.49781 0.0
C2275 C 0.95917 0.2545 0.49062 0.0
C2276 C 0.00462 0.21623 0.49847 0.0
C2277 C 0.02601 0.2436 0.49635 0.0
N2278 N 0.03569 0.30008 0.51065 0.0
N2279 N 0.94761 0.19703 0.49857 0.0
C2280 C 0.01397 0.27562 0.50273 0.0
C2281 C 0.97012 0.22198 0.49681 0.0
N2282 N 0.96711 0.31283 0.49675 0.0
N2283 N 0.01778 0.18521 0.49841 0.0
H2284 H 0.92231 0.20178 0.49692 0.0
H2285 H 0.95369 0.17255 0.50364 0.0
H2286 H 0.04332 0.18164 0.49954 0.0
H2287 H 0.00388 0.16363 0.4971 0.0
H2288 H 0.98127 0.3342 0.49873 0.0
H2289 H 0.94182 0.31685 0.49349 0.0
H2290 H 0.02866 0.32412 0.5165 0.0
H2291 H 0.06086 0.29508 0.51336 0.0
C2292 C 0.49459 0.02322 0.76577 0.0
C2293 C 0.50283 0.02623 0.73199 0.0
C2294 C 0.49894 0.96654 0.72613 0.0
C2295 C 0.50479 0.96419 0.76052 0.0
N2296 N 0.49896 0.98809 0.81433 0.0
N2297 N 0.5032 0.00223 0.67797 0.0
C2298 C 0.4984 0.99182 0.78086 0.0
C2299 C 0.50068 0.99824 0.71132 0.0
N2300 N 0.48531 0.05044 0.78328 0.0
N2301 N 0.49342 0.93871 0.70796 0.0
H2302 H 0.50379 0.02577 0.66737 0.0
H2303 H 0.50544 0.98271 0.66136 0.0
H2304 H 0.49073 0.91561 0.71904 0.0
H2305 H 0.48792 0.93906 0.68283 0.0
H2306 H 0.47793 0.04958 0.8079 0.0
H2307 H 0.48207 0.07336 0.77192 0.0
H2308 H 0.49813 0.00775 0.8309 0.0
H2309 H 0.50114 0.96472 0.82512 0.0
C2310 C 0.49967 0.50255 0.78601 0.0
C2311 C 0.495 0.52908 0.76377 0.0
C2312 C 0.49397 0.4911 0.71726 0.0
C2313 C 0.49153 0.46489 0.74008 0.0
N2314 N 0.51077 0.44378 0.79199 0.0
N2315 N 0.50634 0.54911 0.70875 0.0
C2316 C 0.50121 0.46998 0.77317 0.0
C2317 C 0.49899 0.52354 0.72941 0.0
N2318 N 0.5003 0.50853 0.81914 0.0
N2319 N 0.48906 0.48496 0.68447 0.0
H2320 H 0.51207 0.57261 0.71756 0.0
H2321 H 0.51077 0.54606 0.6836 0.0
H2322 H 0.48645 0.46087 0.67554 0.0
H2323 H 0.48664 0.50344 0.66673 0.0
H2324 H 0.50009 0.48988 0.83688 0.0
H2325 H 0.50013 0.53262 0.82847 0.0
H2326 H 0.51977 0.44619 0.816 0.0
H2327 H 0.51204 0.41996 0.78213 0.0
C2328 C 0.0198 0.23042 0.01162 0.0
C2329 C 0.02099 0.26508 0.00721 0.0
C2330 C 0.96208 0.26802 0.01831 0.0
C2331 C 0.95996 0.2345 0.00862 0.0
N2332 N 0.98581 0.18136 0.0051 0.0
N2333 N 0.99533 0.31788 0.01493 0.0
C2334 C 0.98864 0.21467 0.00931 0.0
C2335 C 0.99281 0.28429 0.01443 0.0
N2336 N 0.04821 0.21293 0.01631 0.0
N2337 N 0.93473 0.28425 0.02935 0.0
H2338 H 0.01822 0.32961 0.01294 0.0
H2339 H 0.97507 0.33368 0.01634 0.0
H2340 H 0.91243 0.27202 0.03331 0.0
H2341 H 0.93518 0.30854 0.03785 0.0
H2342 H 0.04865 0.18761 0.02087 0.0
H2343 H 0.071 0.22457 0.0191 0.0
H2344 H 0.00588 0.16565 0.00158 0.0
H2345 H 0.9627 0.1699 0.00431 0.0
C2346 C 0.50788 0.03608 0.28347 0.0
C2347 C 0.50172 0.04193 0.24955 0.0
C2348 C 0.5149 0.98465 0.2375 0.0
C2349 C 0.50714 0.97745 0.27069 0.0
N2350 N 0.50784 0.99454 0.32708 0.0
N2351 N 0.50823 0.02479 0.19328 0.0
C2352 C 0.50897 0.00281 0.29447 0.0
C2353 C 0.50928 0.01727 0.2261 0.0
N2354 N 0.51026 0.06204 0.30483 0.0
N2355 N 0.52491 0.95991 0.21699 0.0
H2356 H 0.50467 0.04908 0.18523 0.0
H2357 H 0.5102 0.00727 0.17454 0.0
H2358 H 0.52918 0.93607 0.22588 0.0
H2359 H 0.53181 0.96371 0.19251 0.0
H2360 H 0.51546 0.05946 0.32988 0.0
H2361 H 0.50965 0.08644 0.29657 0.0
H2362 H 0.5058 0.0116 0.34622 0.0
H2363 H 0.50848 0.96979 0.33444 0.0
C2364 C 0.49064 0.48318 0.27123 0.0
C2365 C 0.49735 0.47696 0.23748 0.0
C2366 C 0.48853 0.53511 0.22545 0.0
C2367 C 0.4957 0.54166 0.25887 0.0
N2368 N 0.49437 0.52401 0.31519 0.0
N2369 N 0.4941 0.495 0.18114 0.0
C2370 C 0.49242 0.51629 0.28246 0.0
C2371 C 0.49239 0.50227 0.21398 0.0
N2372 N 0.48443 0.45763 0.29226 0.0
N2373 N 0.48044 0.56054 0.20493 0.0
H2374 H 0.49623 0.47061 0.17289 0.0
H2375 H 0.49413 0.51285 0.16261 0.0
H2376 H 0.47823 0.58467 0.21383 0.0
H2377 H 0.47366 0.55727 0.18031 0.0
H2378 H 0.4782 0.46089 0.31699 0.0
H2379 H 0.48239 0.43333 0.28394 0.0
H2380 H 0.49594 0.50647 0.33395 0.0
H2381 H 0.49528 0.5486 0.32305 0.0
C2382 C 0.02438 0.76636 0.00635 0.0
C2383 C 0.04449 0.73841 0.01215 0.0
C2384 C -0.00183 0.70168 0.00175 0.0
C2385 C 0.97722 0.72945 0.00433 0.0
N2386 N 0.9699 0.78673 0.99107 0.0
N2387 N 0.05472 0.6812 0.00061 0.0
C2388 C 0.99037 0.76139 -0.00038 0.0
C2389 C 0.0328 0.70652 0.00415 0.0
N2390 N 0.03748 0.79723 0.00982 0.0
N2391 N 0.9844 0.67097 0.00056 0.0
H2392 H 0.08015 0.68519 0.00227 0.0
H2393 H 0.04803 0.65734 0.99372 0.0
H2394 H 0.95882 0.66801 -0.00126 0.0
H2395 H 0.99785 0.64909 0.00188 0.0
H2396 H 0.02351 0.81883 0.00933 0.0
H2397 H 0.06272 0.80077 0.01387 0.0
H2398 H 0.97808 0.81061 0.98618 0.0
H2399 H 0.94499 0.78266 0.98581 0.0
loop_
_geom_bond_atom_site_label_1
_geom_bond_atom_site_label_2
_geom_bond_distance
_geom_bond_site_symmetry_2
_ccdc_geom_bond_type
Co0 O1 2.216 . S
Co0 O2 2.091 . S
Co0 O4 2.004 . S
Co0 O10 2.021 . S
Co0 O12 2.137 . S
Co0 O13 2.244 . S
O1 Co0 2.216 . S
O1 C8 1.247 . S
O2 Co0 2.091 . S
O2 C8 1.261 . S
C3 O12 1.247 . S
C3 O13 1.272 . S
O4 Co0 2.004 . S
O4 C9 1.259 . S
Co5 O6 2.061 . S
Co5 O11 2.052 . S
Co5 O13 2.135 . S
O6 Co5 2.061 . S
O6 C9 1.235 . S
C7 O10 1.238 . S
C7 O11 1.241 . S
C8 O1 1.247 . S
C8 O2 1.261 . S
C9 O4 1.259 . S
C9 O6 1.235 . S
O10 Co0 2.021 . S
O10 C7 1.238 . S
O11 Co5 2.052 . S
O11 C7 1.241 . S
O12 Co0 2.137 . S
O12 C3 1.247 . S
O13 Co0 2.244 . S
O13 C3 1.272 . S
O13 Co5 2.135 . S
Co14 O15 2.216 . S
Co14 O16 2.091 . S
Co14 O18 2.004 . S
Co14 O24 2.021 . S
Co14 O26 2.137 . S
Co14 O27 2.244 . S
O15 Co14 2.216 . S
O15 C22 1.247 . S
O16 Co14 2.091 . S
O16 C22 1.261 . S
C17 O26 1.247 . S
C17 O27 1.272 . S
O18 Co14 2.004 . S
O18 C23 1.259 . S
Co19 O20 2.061 . S
Co19 O25 2.052 . S
Co19 O27 2.135 . S
O20 Co19 2.061 . S
O20 C23 1.235 . S
C21 O24 1.238 . S
C21 O25 1.241 . S
C22 O15 1.247 . S
C22 O16 1.261 . S
C23 O18 1.259 . S
C23 O20 1.235 . S
O24 Co14 2.021 . S
O24 C21 1.238 . S
O25 Co19 2.052 . S
O25 C21 1.241 . S
O26 Co14 2.137 . S
O26 C17 1.247 . S
O27 Co14 2.244 . S
O27 C17 1.272 . S
O27 Co19 2.135 . S
Co28 O29 2.216 . S
Co28 O30 2.091 . S
Co28 O32 2.004 . S
Co28 O38 2.021 . S
Co28 O40 2.137 . S
Co28 O41 2.244 . S
O29 Co28 2.216 . S
O29 C36 1.247 . S
O30 Co28 2.091 . S
O30 C36 1.261 . S
C31 O40 1.247 . S
C31 O41 1.272 . S
O32 Co28 2.004 . S
O32 C37 1.259 . S
Co33 O34 2.061 . S
Co33 O39 2.052 . S
Co33 O41 2.135 . S
O34 Co33 2.061 . S
O34 C37 1.235 . S
C35 O38 1.238 . S
C35 O39 1.241 . S
C36 O29 1.247 . S
C36 O30 1.261 . S
C37 O32 1.259 . S
C37 O34 1.235 . S
O38 Co28 2.021 . S
O38 C35 1.238 . S
O39 Co33 2.052 . S
O39 C35 1.241 . S
O40 Co28 2.137 . S
O40 C31 1.247 . S
O41 Co28 2.244 . S
O41 C31 1.272 . S
O41 Co33 2.135 . S
Co42 O43 2.216 . S
Co42 O44 2.091 . S
Co42 O46 2.004 . S
Co42 O52 2.021 . S
Co42 O54 2.137 . S
Co42 O55 2.244 . S
O43 Co42 2.216 . S
O43 C50 1.247 . S
O44 Co42 2.091 . S
O44 C50 1.261 . S
C45 O54 1.247 . S
C45 O55 1.272 . S
O46 Co42 2.004 . S
O46 C51 1.259 . S
Co47 O48 2.061 . S
Co47 O53 2.052 . S
Co47 O55 2.135 . S
O48 Co47 2.061 . S
O48 C51 1.235 . S
C49 O52 1.238 . S
C49 O53 1.241 . S
C50 O43 1.247 . S
C50 O44 1.261 . S
C51 O46 1.259 . S
C51 O48 1.235 . S
O52 Co42 2.021 . S
O52 C49 1.238 . S
O53 Co47 2.052 . S
O53 C49 1.241 . S
O54 Co42 2.137 . S
O54 C45 1.247 . S
O55 Co42 2.244 . S
O55 C45 1.272 . S
O55 Co47 2.135 . S
Co56 O57 2.216 . S
Co56 O58 2.091 . S
Co56 O60 2.004 . S
Co56 O66 2.021 . S
Co56 O68 2.137 . S
Co56 O69 2.244 . S
O57 Co56 2.216 . S
O57 C64 1.247 . S
O58 Co56 2.091 . S
O58 C64 1.261 . S
C59 O68 1.247 . S
C59 O69 1.272 . S
O60 Co56 2.004 . S
O60 C65 1.259 . S
Co61 O62 2.061 . S
Co61 O67 2.052 . S
Co61 O69 2.135 . S
O62 Co61 2.061 . S
O62 C65 1.235 . S
C63 O66 1.238 . S
C63 O67 1.241 . S
C64 O57 1.247 . S
C64 O58 1.261 . S
C65 O60 1.259 . S
C65 O62 1.235 . S
O66 Co56 2.021 . S
O66 C63 1.238 . S
O67 Co61 2.052 . S
O67 C63 1.241 . S
O68 Co56 2.137 . S
O68 C59 1.247 . S
O69 Co56 2.244 . S
O69 C59 1.272 . S
O69 Co61 2.135 . S
Co70 O71 2.216 . S
Co70 O72 2.091 . S
Co70 O74 2.004 . S
Co70 O80 2.021 . S
Co70 O82 2.137 . S
Co70 O83 2.244 . S
O71 Co70 2.216 . S
O71 C78 1.247 . S
O72 Co70 2.091 . S
O72 C78 1.261 . S
C73 O82 1.247 . S
C73 O83 1.272 . S
O74 Co70 2.004 . S
O74 C79 1.259 . S
Co75 O76 2.061 . S
Co75 O81 2.052 . S
Co75 O83 2.135 . S
O76 Co75 2.061 . S
O76 C79 1.235 . S
C77 O80 1.238 . S
C77 O81 1.241 . S
C78 O71 1.247 . S
C78 O72 1.261 . S
C79 O74 1.259 . S
C79 O76 1.235 . S
O80 Co70 2.021 . S
O80 C77 1.238 . S
O81 Co75 2.052 . S
O81 C77 1.241 . S
O82 Co70 2.137 . S
O82 C73 1.247 . S
O83 Co70 2.244 . S
O83 C73 1.272 . S
O83 Co75 2.135 . S
Co84 O85 2.216 . S
Co84 O86 2.091 . S
Co84 O88 2.004 . S
Co84 O94 2.021 . S
Co84 O96 2.137 . S
Co84 O97 2.244 . S
O85 Co84 2.216 . S
O85 C92 1.247 . S
O86 Co84 2.091 . S
O86 C92 1.261 . S
C87 O96 1.247 . S
C87 O97 1.272 . S
O88 Co84 2.004 . S
O88 C93 1.259 . S
Co89 O90 2.061 . S
Co89 O95 2.052 . S
Co89 O97 2.135 . S
O90 Co89 2.061 . S
O90 C93 1.235 . S
C91 O94 1.238 . S
C91 O95 1.241 . S
C92 O85 1.247 . S
C92 O86 1.261 . S
C93 O88 1.259 . S
C93 O90 1.235 . S
O94 Co84 2.021 . S
O94 C91 1.238 . S
O95 Co89 2.052 . S
O95 C91 1.241 . S
O96 Co84 2.137 . S
O96 C87 1.247 . S
O97 Co84 2.244 . S
O97 C87 1.272 . S
O97 Co89 2.135 . S
Co98 O99 2.216 . S
Co98 O100 2.091 . S
Co98 O102 2.004 . S
Co98 O108 2.021 . S
Co98 O110 2.137 . S
Co98 O111 2.244 . S
O99 Co98 2.216 . S
O99 C106 1.247 . S
O100 Co98 2.091 . S
O100 C106 1.261 . S
C101 O110 1.247 . S
C101 O111 1.272 . S
O102 Co98 2.004 . S
O102 C107 1.259 . S
Co103 O104 2.061 . S
Co103 O109 2.052 . S
Co103 O111 2.135 . S
O104 Co103 2.061 . S
O104 C107 1.235 . S
C105 O108 1.238 . S
C105 O109 1.241 . S
C106 O99 1.247 . S
C106 O100 1.261 . S
C107 O102 1.259 . S
C107 O104 1.235 . S
O108 Co98 2.021 . S
O108 C105 1.238 . S
O109 Co103 2.052 . S
O109 C105 1.241 . S
O110 Co98 2.137 . S
O110 C101 1.247 . S
O111 Co98 2.244 . S
O111 C101 1.272 . S
O111 Co103 2.135 . S
Co112 O113 2.216 . S
Co112 O114 2.091 . S
Co112 O116 2.004 . S
Co112 O122 2.021 . S
Co112 O124 2.137 . S
Co112 O125 2.244 . S
O113 Co112 2.216 . S
O113 C120 1.247 . S
O114 Co112 2.091 . S
O114 C120 1.261 . S
C115 O124 1.247 . S
C115 O125 1.272 . S
O116 Co112 2.004 . S
O116 C121 1.259 . S
Co117 O118 2.061 . S
Co117 O123 2.052 . S
Co117 O125 2.135 . S
O118 Co117 2.061 . S
O118 C121 1.235 . S
C119 O122 1.238 . S
C119 O123 1.241 . S
C120 O113 1.247 . S
C120 O114 1.261 . S
C121 O116 1.259 . S
C121 O118 1.235 . S
O122 Co112 2.021 . S
O122 C119 1.238 . S
O123 Co117 2.052 . S
O123 C119 1.241 . S
O124 Co112 2.137 . S
O124 C115 1.247 . S
O125 Co112 2.244 . S
O125 C115 1.272 . S
O125 Co117 2.135 . S
Co126 O127 2.216 . S
Co126 O128 2.091 . S
Co126 O130 2.004 . S
Co126 O136 2.021 . S
Co126 O138 2.137 . S
Co126 O139 2.244 . S
O127 Co126 2.216 . S
O127 C134 1.247 . S
O128 Co126 2.091 . S
O128 C134 1.261 . S
C129 O138 1.247 . S
C129 O139 1.272 . S
O130 Co126 2.004 . S
O130 C135 1.259 . S
Co131 O132 2.061 . S
Co131 O137 2.052 . S
Co131 O139 2.135 . S
O132 Co131 2.061 . S
O132 C135 1.235 . S
C133 O136 1.238 . S
C133 O137 1.241 . S
C134 O127 1.247 . S
C134 O128 1.261 . S
C135 O130 1.259 . S
C135 O132 1.235 . S
O136 Co126 2.021 . S
O136 C133 1.238 . S
O137 Co131 2.052 . S
O137 C133 1.241 . S
O138 Co126 2.137 . S
O138 C129 1.247 . S
O139 Co126 2.244 . S
O139 C129 1.272 . S
O139 Co131 2.135 . S
Co140 O141 2.216 . S
Co140 O142 2.091 . S
Co140 O144 2.004 . S
Co140 O150 2.021 . S
Co140 O152 2.137 . S
Co140 O153 2.244 . S
O141 Co140 2.216 . S
O141 C148 1.247 . S
O142 Co140 2.091 . S
O142 C148 1.261 . S
C143 O152 1.247 . S
C143 O153 1.272 . S
O144 Co140 2.004 . S
O144 C149 1.259 . S
Co145 O146 2.061 . S
Co145 O151 2.052 . S
Co145 O153 2.135 . S
O146 Co145 2.061 . S
O146 C149 1.235 . S
C147 O150 1.238 . S
C147 O151 1.241 . S
C148 O141 1.247 . S
C148 O142 1.261 . S
C149 O144 1.259 . S
C149 O146 1.235 . S
O150 Co140 2.021 . S
O150 C147 1.238 . S
O151 Co145 2.052 . S
O151 C147 1.241 . S
O152 Co140 2.137 . S
O152 C143 1.247 . S
O153 Co140 2.244 . S
O153 C143 1.272 . S
O153 Co145 2.135 . S
Co154 O155 2.216 . S
Co154 O156 2.091 . S
Co154 O158 2.004 . S
Co154 O164 2.021 . S
Co154 O166 2.137 . S
Co154 O167 2.244 . S
O155 Co154 2.216 . S
O155 C162 1.247 . S
O156 Co154 2.091 . S
O156 C162 1.261 . S
C157 O166 1.247 . S
C157 O167 1.272 . S
O158 Co154 2.004 . S
O158 C163 1.259 . S
Co159 O160 2.061 . S
Co159 O165 2.052 . S
Co159 O167 2.135 . S
O160 Co159 2.061 . S
O160 C163 1.235 . S
C161 O164 1.238 . S
C161 O165 1.241 . S
C162 O155 1.247 . S
C162 O156 1.261 . S
C163 O158 1.259 . S
C163 O160 1.235 . S
O164 Co154 2.021 . S
O164 C161 1.238 . S
O165 Co159 2.052 . S
O165 C161 1.241 . S
O166 Co154 2.137 . S
O166 C157 1.247 . S
O167 Co154 2.244 . S
O167 C157 1.272 . S
O167 Co159 2.135 . S
Co168 O169 2.216 . S
Co168 O170 2.091 . S
Co168 O172 2.004 . S
Co168 O178 2.021 . S
Co168 O180 2.137 . S
Co168 O181 2.244 . S
O169 Co168 2.216 . S
O169 C176 1.247 . S
O170 Co168 2.091 . S
O170 C176 1.261 . S
C171 O180 1.247 . S
C171 O181 1.272 . S
O172 Co168 2.004 . S
O172 C177 1.259 . S
Co173 O174 2.061 . S
Co173 O179 2.052 . S
Co173 O181 2.135 . S
O174 Co173 2.061 . S
O174 C177 1.235 . S
C175 O178 1.238 . S
C175 O179 1.241 . S
C176 O169 1.247 . S
C176 O170 1.261 . S
C177 O172 1.259 . S
C177 O174 1.235 . S
O178 Co168 2.021 . S
O178 C175 1.238 . S
O179 Co173 2.052 . S
O179 C175 1.241 . S
O180 Co168 2.137 . S
O180 C171 1.247 . S
O181 Co168 2.244 . S
O181 C171 1.272 . S
O181 Co173 2.135 . S
Co182 O183 2.216 . S
Co182 O184 2.091 . S
Co182 O186 2.004 . S
Co182 O192 2.021 . S
Co182 O194 2.137 . S
Co182 O195 2.244 . S
O183 Co182 2.216 . S
O183 C190 1.247 . S
O184 Co182 2.091 . S
O184 C190 1.261 . S
C185 O194 1.247 . S
C185 O195 1.272 . S
O186 Co182 2.004 . S
O186 C191 1.259 . S
Co187 O188 2.061 . S
Co187 O193 2.052 . S
Co187 O195 2.135 . S
O188 Co187 2.061 . S
O188 C191 1.235 . S
C189 O192 1.238 . S
C189 O193 1.241 . S
C190 O183 1.247 . S
C190 O184 1.261 . S
C191 O186 1.259 . S
C191 O188 1.235 . S
O192 Co182 2.021 . S
O192 C189 1.238 . S
O193 Co187 2.052 . S
O193 C189 1.241 . S
O194 Co182 2.137 . S
O194 C185 1.247 . S
O195 Co182 2.244 . S
O195 C185 1.272 . S
O195 Co187 2.135 . S
Co196 O197 2.216 . S
Co196 O198 2.091 . S
Co196 O200 2.004 . S
Co196 O206 2.021 . S
Co196 O208 2.137 . S
Co196 O209 2.244 . S
O197 Co196 2.216 . S
O197 C204 1.247 . S
O198 Co196 2.091 . S
O198 C204 1.261 . S
C199 O208 1.247 . S
C199 O209 1.272 . S
O200 Co196 2.004 . S
O200 C205 1.259 . S
Co201 O202 2.061 . S
Co201 O207 2.052 . S
Co201 O209 2.135 . S
O202 Co201 2.061 . S
O202 C205 1.235 . S
C203 O206 1.238 . S
C203 O207 1.241 . S
C204 O197 1.247 . S
C204 O198 1.261 . S
C205 O200 1.259 . S
C205 O202 1.235 . S
O206 Co196 2.021 . S
O206 C203 1.238 . S
O207 Co201 2.052 . S
O207 C203 1.241 . S
O208 Co196 2.137 . S
O208 C199 1.247 . S
O209 Co196 2.244 . S
O209 C199 1.272 . S
O209 Co201 2.135 . S
Co210 O211 2.216 . S
Co210 O212 2.091 . S
Co210 O214 2.004 . S
Co210 O220 2.021 . S
Co210 O222 2.137 . S
Co210 O223 2.244 . S
O211 Co210 2.216 . S
O211 C218 1.247 . S
O212 Co210 2.091 . S
O212 C218 1.261 . S
C213 O222 1.247 . S
C213 O223 1.272 . S
O214 Co210 2.004 . S
O214 C219 1.259 . S
Co215 O216 2.061 . S
Co215 O221 2.052 . S
Co215 O223 2.135 . S
O216 Co215 2.061 . S
O216 C219 1.235 . S
C217 O220 1.238 . S
C217 O221 1.241 . S
C218 O211 1.247 . S
C218 O212 1.261 . S
C219 O214 1.259 . S
C219 O216 1.235 . S
O220 Co210 2.021 . S
O220 C217 1.238 . S
O221 Co215 2.052 . S
O221 C217 1.241 . S
O222 Co210 2.137 . S
O222 C213 1.247 . S
O223 Co210 2.244 . S
O223 C213 1.272 . S
O223 Co215 2.135 . S
Co224 O225 2.216 . S
Co224 O226 2.091 . S
Co224 O228 2.004 . S
Co224 O234 2.021 . S
Co224 O236 2.137 . S
Co224 O237 2.244 . S
O225 Co224 2.216 . S
O225 C232 1.247 . S
O226 Co224 2.091 . S
O226 C232 1.261 . S
C227 O236 1.247 . S
C227 O237 1.272 . S
O228 Co224 2.004 . S
O228 C233 1.259 . S
Co229 O230 2.061 . S
Co229 O235 2.052 . S
Co229 O237 2.135 . S
O230 Co229 2.061 . S
O230 C233 1.235 . S
C231 O234 1.238 . S
C231 O235 1.241 . S
C232 O225 1.247 . S
C232 O226 1.261 . S
C233 O228 1.259 . S
C233 O230 1.235 . S
O234 Co224 2.021 . S
O234 C231 1.238 . S
O235 Co229 2.052 . S
O235 C231 1.241 . S
O236 Co224 2.137 . S
O236 C227 1.247 . S
O237 Co224 2.244 . S
O237 C227 1.272 . S
O237 Co229 2.135 . S
Co238 O239 2.216 . S
Co238 O240 2.091 . S
Co238 O242 2.004 . S
Co238 O248 2.021 . S
Co238 O250 2.137 . S
Co238 O251 2.244 . S
O239 Co238 2.216 . S
O239 C246 1.247 . S
O240 Co238 2.091 . S
O240 C246 1.261 . S
C241 O250 1.247 . S
C241 O251 1.272 . S
O242 Co238 2.004 . S
O242 C247 1.259 . S
Co243 O244 2.061 . S
Co243 O249 2.052 . S
Co243 O251 2.135 . S
O244 Co243 2.061 . S
O244 C247 1.235 . S
C245 O248 1.238 . S
C245 O249 1.241 . S
C246 O239 1.247 . S
C246 O240 1.261 . S
C247 O242 1.259 . S
C247 O244 1.235 . S
O248 Co238 2.021 . S
O248 C245 1.238 . S
O249 Co243 2.052 . S
O249 C245 1.241 . S
O250 Co238 2.137 . S
O250 C241 1.247 . S
O251 Co238 2.244 . S
O251 C241 1.272 . S
O251 Co243 2.135 . S
Co252 O253 2.216 . S
Co252 O254 2.091 . S
Co252 O256 2.004 . S
Co252 O262 2.021 . S
Co252 O264 2.137 . S
Co252 O265 2.244 . S
O253 Co252 2.216 . S
O253 C260 1.247 . S
O254 Co252 2.091 . S
O254 C260 1.261 . S
C255 O264 1.247 . S
C255 O265 1.272 . S
O256 Co252 2.004 . S
O256 C261 1.259 . S
Co257 O258 2.061 . S
Co257 O263 2.052 . S
Co257 O265 2.135 . S
O258 Co257 2.061 . S
O258 C261 1.235 . S
C259 O262 1.238 . S
C259 O263 1.241 . S
C260 O253 1.247 . S
C260 O254 1.261 . S
C261 O256 1.259 . S
C261 O258 1.235 . S
O262 Co252 2.021 . S
O262 C259 1.238 . S
O263 Co257 2.052 . S
O263 C259 1.241 . S
O264 Co252 2.137 . S
O264 C255 1.247 . S
O265 Co252 2.244 . S
O265 C255 1.272 . S
O265 Co257 2.135 . S
Co266 O267 2.216 . S
Co266 O268 2.091 . S
Co266 O270 2.004 . S
Co266 O276 2.021 . S
Co266 O278 2.137 . S
Co266 O279 2.244 . S
O267 Co266 2.216 . S
O267 C274 1.247 . S
O268 Co266 2.091 . S
O268 C274 1.261 . S
C269 O278 1.247 . S
C269 O279 1.272 . S
O270 Co266 2.004 . S
O270 C275 1.259 . S
Co271 O272 2.061 . S
Co271 O277 2.052 . S
Co271 O279 2.135 . S
O272 Co271 2.061 . S
O272 C275 1.235 . S
C273 O276 1.238 . S
C273 O277 1.241 . S
C274 O267 1.247 . S
C274 O268 1.261 . S
C275 O270 1.259 . S
C275 O272 1.235 . S
O276 Co266 2.021 . S
O276 C273 1.238 . S
O277 Co271 2.052 . S
O277 C273 1.241 . S
O278 Co266 2.137 . S
O278 C269 1.247 . S
O279 Co266 2.244 . S
O279 C269 1.272 . S
O279 Co271 2.135 . S
Co280 O281 2.216 . S
Co280 O282 2.091 . S
Co280 O284 2.004 . S
Co280 O290 2.021 . S
Co280 O292 2.137 . S
Co280 O293 2.244 . S
O281 Co280 2.216 . S
O281 C288 1.247 . S
O282 Co280 2.091 . S
O282 C288 1.261 . S
C283 O292 1.247 . S
C283 O293 1.272 . S
O284 Co280 2.004 . S
O284 C289 1.259 . S
Co285 O286 2.061 . S
Co285 O291 2.052 . S
Co285 O293 2.135 . S
O286 Co285 2.061 . S
O286 C289 1.235 . S
C287 O290 1.238 . S
C287 O291 1.241 . S
C288 O281 1.247 . S
C288 O282 1.261 . S
C289 O284 1.259 . S
C289 O286 1.235 . S
O290 Co280 2.021 . S
O290 C287 1.238 . S
O291 Co285 2.052 . S
O291 C287 1.241 . S
O292 Co280 2.137 . S
O292 C283 1.247 . S
O293 Co280 2.244 . S
O293 C283 1.272 . S
O293 Co285 2.135 . S
Co294 O295 2.216 . S
Co294 O296 2.091 . S
Co294 O298 2.004 . S
Co294 O304 2.021 . S
Co294 O306 2.137 . S
Co294 O307 2.244 . S
O295 Co294 2.216 . S
O295 C302 1.247 . S
O296 Co294 2.091 . S
O296 C302 1.261 . S
C297 O306 1.247 . S
C297 O307 1.272 . S
O298 Co294 2.004 . S
O298 C303 1.259 . S
Co299 O300 2.061 . S
Co299 O305 2.052 . S
Co299 O307 2.135 . S
O300 Co299 2.061 . S
O300 C303 1.235 . S
C301 O304 1.238 . S
C301 O305 1.241 . S
C302 O295 1.247 . S
C302 O296 1.261 . S
C303 O298 1.259 . S
C303 O300 1.235 . S
O304 Co294 2.021 . S
O304 C301 1.238 . S
O305 Co299 2.052 . S
O305 C301 1.241 . S
O306 Co294 2.137 . S
O306 C297 1.247 . S
O307 Co294 2.244 . S
O307 C297 1.272 . S
O307 Co299 2.135 . S
Co308 O309 2.216 . S
Co308 O310 2.091 . S
Co308 O312 2.004 . S
Co308 O318 2.021 . S
Co308 O320 2.137 . S
Co308 O321 2.244 . S
O309 Co308 2.216 . S
O309 C316 1.247 . S
O310 Co308 2.091 . S
O310 C316 1.261 . S
C311 O320 1.247 . S
C311 O321 1.272 . S
O312 Co308 2.004 . S
O312 C317 1.259 . S
Co313 O314 2.061 . S
Co313 O319 2.052 . S
Co313 O321 2.135 . S
O314 Co313 2.061 . S
O314 C317 1.235 . S
C315 O318 1.238 . S
C315 O319 1.241 . S
C316 O309 1.247 . S
C316 O310 1.261 . S
C317 O312 1.259 . S
C317 O314 1.235 . S
O318 Co308 2.021 . S
O318 C315 1.238 . S
O319 Co313 2.052 . S
O319 C315 1.241 . S
O320 Co308 2.137 . S
O320 C311 1.247 . S
O321 Co308 2.244 . S
O321 C311 1.272 . S
O321 Co313 2.135 . S
Co322 O323 2.216 . S
Co322 O324 2.091 . S
Co322 O326 2.004 . S
Co322 O332 2.021 . S
Co322 O334 2.137 . S
Co322 O335 2.244 . S
O323 Co322 2.216 . S
O323 C330 1.247 . S
O324 Co322 2.091 . S
O324 C330 1.261 . S
C325 O334 1.247 . S
C325 O335 1.272 . S
O326 Co322 2.004 . S
O326 C331 1.259 . S
Co327 O328 2.061 . S
Co327 O333 2.052 . S
Co327 O335 2.135 . S
O328 Co327 2.061 . S
O328 C331 1.235 . S
C329 O332 1.238 . S
C329 O333 1.241 . S
C330 O323 1.247 . S
C330 O324 1.261 . S
C331 O326 1.259 . S
C331 O328 1.235 . S
O332 Co322 2.021 . S
O332 C329 1.238 . S
O333 Co327 2.052 . S
O333 C329 1.241 . S
O334 Co322 2.137 . S
O334 C325 1.247 . S
O335 Co322 2.244 . S
O335 C325 1.272 . S
O335 Co327 2.135 . S
Co336 O337 2.216 . S
Co336 O338 2.091 . S
Co336 O340 2.004 . S
Co336 O346 2.021 . S
Co336 O348 2.137 . S
Co336 O349 2.244 . S
O337 Co336 2.216 . S
O337 C344 1.247 . S
O338 Co336 2.091 . S
O338 C344 1.261 . S
C339 O348 1.247 . S
C339 O349 1.272 . S
O340 Co336 2.004 . S
O340 C345 1.259 . S
Co341 O342 2.061 . S
Co341 O347 2.052 . S
Co341 O349 2.135 . S
O342 Co341 2.061 . S
O342 C345 1.235 . S
C343 O346 1.238 . S
C343 O347 1.241 . S
C344 O337 1.247 . S
C344 O338 1.261 . S
C345 O340 1.259 . S
C345 O342 1.235 . S
O346 Co336 2.021 . S
O346 C343 1.238 . S
O347 Co341 2.052 . S
O347 C343 1.241 . S
O348 Co336 2.137 . S
O348 C339 1.247 . S
O349 Co336 2.244 . S
O349 C339 1.272 . S
O349 Co341 2.135 . S
Co350 O351 2.216 . S
Co350 O352 2.091 . S
Co350 O354 2.004 . S
Co350 O360 2.021 . S
Co350 O362 2.137 . S
Co350 O363 2.244 . S
O351 Co350 2.216 . S
O351 C358 1.247 . S
O352 Co350 2.091 . S
O352 C358 1.261 . S
C353 O362 1.247 . S
C353 O363 1.272 . S
O354 Co350 2.004 . S
O354 C359 1.259 . S
Co355 O356 2.061 . S
Co355 O361 2.052 . S
Co355 O363 2.135 . S
O356 Co355 2.061 . S
O356 C359 1.235 . S
C357 O360 1.238 . S
C357 O361 1.241 . S
C358 O351 1.247 . S
C358 O352 1.261 . S
C359 O354 1.259 . S
C359 O356 1.235 . S
O360 Co350 2.021 . S
O360 C357 1.238 . S
O361 Co355 2.052 . S
O361 C357 1.241 . S
O362 Co350 2.137 . S
O362 C353 1.247 . S
O363 Co350 2.244 . S
O363 C353 1.272 . S
O363 Co355 2.135 . S
Co364 O365 2.216 . S
Co364 O366 2.091 . S
Co364 O368 2.004 . S
Co364 O374 2.021 . S
Co364 O376 2.137 . S
Co364 O377 2.244 . S
O365 Co364 2.216 . S
O365 C372 1.247 . S
O366 Co364 2.091 . S
O366 C372 1.261 . S
C367 O376 1.247 . S
C367 O377 1.272 . S
O368 Co364 2.004 . S
O368 C373 1.259 . S
Co369 O370 2.061 . S
Co369 O375 2.052 . S
Co369 O377 2.135 . S
O370 Co369 2.061 . S
O370 C373 1.235 . S
C371 O374 1.238 . S
C371 O375 1.241 . S
C372 O365 1.247 . S
C372 O366 1.261 . S
C373 O368 1.259 . S
C373 O370 1.235 . S
O374 Co364 2.021 . S
O374 C371 1.238 . S
O375 Co369 2.052 . S
O375 C371 1.241 . S
O376 Co364 2.137 . S
O376 C367 1.247 . S
O377 Co364 2.244 . S
O377 C367 1.272 . S
O377 Co369 2.135 . S
Co378 O379 2.216 . S
Co378 O380 2.091 . S
Co378 O382 2.004 . S
Co378 O388 2.021 . S
Co378 O390 2.137 . S
Co378 O391 2.244 . S
O379 Co378 2.216 . S
O379 C386 1.247 . S
O380 Co378 2.091 . S
O380 C386 1.261 . S
C381 O390 1.247 . S
C381 O391 1.272 . S
O382 Co378 2.004 . S
O382 C387 1.259 . S
Co383 O384 2.061 . S
Co383 O389 2.052 . S
Co383 O391 2.135 . S
O384 Co383 2.061 . S
O384 C387 1.235 . S
C385 O388 1.238 . S
C385 O389 1.241 . S
C386 O379 1.247 . S
C386 O380 1.261 . S
C387 O382 1.259 . S
C387 O384 1.235 . S
O388 Co378 2.021 . S
O388 C385 1.238 . S
O389 Co383 2.052 . S
O389 C385 1.241 . S
O390 Co378 2.137 . S
O390 C381 1.247 . S
O391 Co378 2.244 . S
O391 C381 1.272 . S
O391 Co383 2.135 . S
Co392 O393 2.216 . S
Co392 O394 2.091 . S
Co392 O396 2.004 . S
Co392 O402 2.021 . S
Co392 O404 2.137 . S
Co392 O405 2.244 . S
O393 Co392 2.216 . S
O393 C400 1.247 . S
O394 Co392 2.091 . S
O394 C400 1.261 . S
C395 O404 1.247 . S
C395 O405 1.272 . S
O396 Co392 2.004 . S
O396 C401 1.259 . S
Co397 O398 2.061 . S
Co397 O403 2.052 . S
Co397 O405 2.135 . S
O398 Co397 2.061 . S
O398 C401 1.235 . S
C399 O402 1.238 . S
C399 O403 1.241 . S
C400 O393 1.247 . S
C400 O394 1.261 . S
C401 O396 1.259 . S
C401 O398 1.235 . S
O402 Co392 2.021 . S
O402 C399 1.238 . S
O403 Co397 2.052 . S
O403 C399 1.241 . S
O404 Co392 2.137 . S
O404 C395 1.247 . S
O405 Co392 2.244 . S
O405 C395 1.272 . S
O405 Co397 2.135 . S
Co406 O407 2.216 . S
Co406 O408 2.091 . S
Co406 O410 2.004 . S
Co406 O416 2.021 . S
Co406 O418 2.137 . S
Co406 O419 2.244 . S
O407 Co406 2.216 . S
O407 C414 1.247 . S
O408 Co406 2.091 . S
O408 C414 1.261 . S
C409 O418 1.247 . S
C409 O419 1.272 . S
O410 Co406 2.004 . S
O410 C415 1.259 . S
Co411 O412 2.061 . S
Co411 O417 2.052 . S
Co411 O419 2.135 . S
O412 Co411 2.061 . S
O412 C415 1.235 . S
C413 O416 1.238 . S
C413 O417 1.241 . S
C414 O407 1.247 . S
C414 O408 1.261 . S
C415 O410 1.259 . S
C415 O412 1.235 . S
O416 Co406 2.021 . S
O416 C413 1.238 . S
O417 Co411 2.052 . S
O417 C413 1.241 . S
O418 Co406 2.137 . S
O418 C409 1.247 . S
O419 Co406 2.244 . S
O419 C409 1.272 . S
O419 Co411 2.135 . S
Co420 O421 2.216 . S
Co420 O422 2.091 . S
Co420 O424 2.004 . S
Co420 O430 2.021 . S
Co420 O432 2.137 . S
Co420 O433 2.244 . S
O421 Co420 2.216 . S
O421 C428 1.247 . S
O422 Co420 2.091 . S
O422 C428 1.261 . S
C423 O432 1.247 . S
C423 O433 1.272 . S
O424 Co420 2.004 . S
O424 C429 1.259 . S
Co425 O426 2.061 . S
Co425 O431 2.052 . S
Co425 O433 2.135 . S
O426 Co425 2.061 . S
O426 C429 1.235 . S
C427 O430 1.238 . S
C427 O431 1.241 . S
C428 O421 1.247 . S
C428 O422 1.261 . S
C429 O424 1.259 . S
C429 O426 1.235 . S
O430 Co420 2.021 . S
O430 C427 1.238 . S
O431 Co425 2.052 . S
O431 C427 1.241 . S
O432 Co420 2.137 . S
O432 C423 1.247 . S
O433 Co420 2.244 . S
O433 C423 1.272 . S
O433 Co425 2.135 . S
Co434 O435 2.216 . S
Co434 O436 2.091 . S
Co434 O438 2.004 . S
Co434 O444 2.021 . S
Co434 O446 2.137 . S
Co434 O447 2.244 . S
O435 Co434 2.216 . S
O435 C442 1.247 . S
O436 Co434 2.091 . S
O436 C442 1.261 . S
C437 O446 1.247 . S
C437 O447 1.272 . S
O438 Co434 2.004 . S
O438 C443 1.259 . S
Co439 O440 2.061 . S
Co439 O445 2.052 . S
Co439 O447 2.135 . S
O440 Co439 2.061 . S
O440 C443 1.235 . S
C441 O444 1.238 . S
C441 O445 1.241 . S
C442 O435 1.247 . S
C442 O436 1.261 . S
C443 O438 1.259 . S
C443 O440 1.235 . S
O444 Co434 2.021 . S
O444 C441 1.238 . S
O445 Co439 2.052 . S
O445 C441 1.241 . S
O446 Co434 2.137 . S
O446 C437 1.247 . S
O447 Co434 2.244 . S
O447 C437 1.272 . S
O447 Co439 2.135 . S
Co448 O449 2.216 . S
Co448 O450 2.091 . S
Co448 O452 2.004 . S
Co448 O458 2.021 . S
Co448 O460 2.137 . S
Co448 O461 2.244 . S
O449 Co448 2.216 . S
O449 C456 1.247 . S
O450 Co448 2.091 . S
O450 C456 1.261 . S
C451 O460 1.247 . S
C451 O461 1.272 . S
O452 Co448 2.004 . S
O452 C457 1.259 . S
Co453 O454 2.061 . S
Co453 O459 2.052 . S
Co453 O461 2.135 . S
O454 Co453 2.061 . S
O454 C457 1.235 . S
C455 O458 1.238 . S
C455 O459 1.241 . S
C456 O449 1.247 . S
C456 O450 1.261 . S
C457 O452 1.259 . S
C457 O454 1.235 . S
O458 Co448 2.021 . S
O458 C455 1.238 . S
O459 Co453 2.052 . S
O459 C455 1.241 . S
O460 Co448 2.137 . S
O460 C451 1.247 . S
O461 Co448 2.244 . S
O461 C451 1.272 . S
O461 Co453 2.135 . S
Co462 O463 2.216 . S
Co462 O464 2.091 . S
Co462 O466 2.004 . S
Co462 O472 2.021 . S
Co462 O474 2.137 . S
Co462 O475 2.244 . S
O463 Co462 2.216 . S
O463 C470 1.247 . S
O464 Co462 2.091 . S
O464 C470 1.261 . S
C465 O474 1.247 . S
C465 O475 1.272 . S
O466 Co462 2.004 . S
O466 C471 1.259 . S
Co467 O468 2.061 . S
Co467 O473 2.052 . S
Co467 O475 2.135 . S
O468 Co467 2.061 . S
O468 C471 1.235 . S
C469 O472 1.238 . S
C469 O473 1.241 . S
C470 O463 1.247 . S
C470 O464 1.261 . S
C471 O466 1.259 . S
C471 O468 1.235 . S
O472 Co462 2.021 . S
O472 C469 1.238 . S
O473 Co467 2.052 . S
O473 C469 1.241 . S
O474 Co462 2.137 . S
O474 C465 1.247 . S
O475 Co462 2.244 . S
O475 C465 1.272 . S
O475 Co467 2.135 . S
Co476 O477 2.216 . S
Co476 O478 2.091 . S
Co476 O480 2.004 . S
Co476 O486 2.021 . S
Co476 O488 2.137 . S
Co476 O489 2.244 . S
O477 Co476 2.216 . S
O477 C484 1.247 . S
O478 Co476 2.091 . S
O478 C484 1.261 . S
C479 O488 1.247 . S
C479 O489 1.272 . S
O480 Co476 2.004 . S
O480 C485 1.259 . S
Co481 O482 2.061 . S
Co481 O487 2.052 . S
Co481 O489 2.135 . S
O482 Co481 2.061 . S
O482 C485 1.235 . S
C483 O486 1.238 . S
C483 O487 1.241 . S
C484 O477 1.247 . S
C484 O478 1.261 . S
C485 O480 1.259 . S
C485 O482 1.235 . S
O486 Co476 2.021 . S
O486 C483 1.238 . S
O487 Co481 2.052 . S
O487 C483 1.241 . S
O488 Co476 2.137 . S
O488 C479 1.247 . S
O489 Co476 2.244 . S
O489 C479 1.272 . S
O489 Co481 2.135 . S
Co490 O491 2.216 . S
Co490 O492 2.091 . S
Co490 O494 2.004 . S
Co490 O500 2.021 . S
Co490 O502 2.137 . S
Co490 O503 2.244 . S
O491 Co490 2.216 . S
O491 C498 1.247 . S
O492 Co490 2.091 . S
O492 C498 1.261 . S
C493 O502 1.247 . S
C493 O503 1.272 . S
O494 Co490 2.004 . S
O494 C499 1.259 . S
Co495 O496 2.061 . S
Co495 O501 2.052 . S
Co495 O503 2.135 . S
O496 Co495 2.061 . S
O496 C499 1.235 . S
C497 O500 1.238 . S
C497 O501 1.241 . S
C498 O491 1.247 . S
C498 O492 1.261 . S
C499 O494 1.259 . S
C499 O496 1.235 . S
O500 Co490 2.021 . S
O500 C497 1.238 . S
O501 Co495 2.052 . S
O501 C497 1.241 . S
O502 Co490 2.137 . S
O502 C493 1.247 . S
O503 Co490 2.244 . S
O503 C493 1.272 . S
O503 Co495 2.135 . S
Co504 O505 2.216 . S
Co504 O506 2.091 . S
Co504 O508 2.004 . S
Co504 O514 2.021 . S
Co504 O516 2.137 . S
Co504 O517 2.244 . S
O505 Co504 2.216 . S
O505 C512 1.247 . S
O506 Co504 2.091 . S
O506 C512 1.261 . S
C507 O516 1.247 . S
C507 O517 1.272 . S
O508 Co504 2.004 . S
O508 C513 1.259 . S
Co509 O510 2.061 . S
Co509 O515 2.052 . S
Co509 O517 2.135 . S
O510 Co509 2.061 . S
O510 C513 1.235 . S
C511 O514 1.238 . S
C511 O515 1.241 . S
C512 O505 1.247 . S
C512 O506 1.261 . S
C513 O508 1.259 . S
C513 O510 1.235 . S
O514 Co504 2.021 . S
O514 C511 1.238 . S
O515 Co509 2.052 . S
O515 C511 1.241 . S
O516 Co504 2.137 . S
O516 C507 1.247 . S
O517 Co504 2.244 . S
O517 C507 1.272 . S
O517 Co509 2.135 . S
Co518 O519 2.216 . S
Co518 O520 2.091 . S
Co518 O522 2.004 . S
Co518 O528 2.021 . S
Co518 O530 2.137 . S
Co518 O531 2.244 . S
O519 Co518 2.216 . S
O519 C526 1.247 . S
O520 Co518 2.091 . S
O520 C526 1.261 . S
C521 O530 1.247 . S
C521 O531 1.272 . S
O522 Co518 2.004 . S
O522 C527 1.259 . S
Co523 O524 2.061 . S
Co523 O529 2.052 . S
Co523 O531 2.135 . S
O524 Co523 2.061 . S
O524 C527 1.235 . S
C525 O528 1.238 . S
C525 O529 1.241 . S
C526 O519 1.247 . S
C526 O520 1.261 . S
C527 O522 1.259 . S
C527 O524 1.235 . S
O528 Co518 2.021 . S
O528 C525 1.238 . S
O529 Co523 2.052 . S
O529 C525 1.241 . S
O530 Co518 2.137 . S
O530 C521 1.247 . S
O531 Co518 2.244 . S
O531 C521 1.272 . S
O531 Co523 2.135 . S
Co532 O533 2.216 . S
Co532 O534 2.091 . S
Co532 O536 2.004 . S
Co532 O542 2.021 . S
Co532 O544 2.137 . S
Co532 O545 2.244 . S
O533 Co532 2.216 . S
O533 C540 1.247 . S
O534 Co532 2.091 . S
O534 C540 1.261 . S
C535 O544 1.247 . S
C535 O545 1.272 . S
O536 Co532 2.004 . S
O536 C541 1.259 . S
Co537 O538 2.061 . S
Co537 O543 2.052 . S
Co537 O545 2.135 . S
O538 Co537 2.061 . S
O538 C541 1.235 . S
C539 O542 1.238 . S
C539 O543 1.241 . S
C540 O533 1.247 . S
C540 O534 1.261 . S
C541 O536 1.259 . S
C541 O538 1.235 . S
O542 Co532 2.021 . S
O542 C539 1.238 . S
O543 Co537 2.052 . S
O543 C539 1.241 . S
O544 Co532 2.137 . S
O544 C535 1.247 . S
O545 Co532 2.244 . S
O545 C535 1.272 . S
O545 Co537 2.135 . S
Co546 O547 2.216 . S
Co546 O548 2.091 . S
Co546 O550 2.004 . S
Co546 O556 2.021 . S
Co546 O558 2.137 . S
Co546 O559 2.244 . S
O547 Co546 2.216 . S
O547 C554 1.247 . S
O548 Co546 2.091 . S
O548 C554 1.261 . S
C549 O558 1.247 . S
C549 O559 1.272 . S
O550 Co546 2.004 . S
O550 C555 1.259 . S
Co551 O552 2.061 . S
Co551 O557 2.052 . S
Co551 O559 2.135 . S
O552 Co551 2.061 . S
O552 C555 1.235 . S
C553 O556 1.238 . S
C553 O557 1.241 . S
C554 O547 1.247 . S
C554 O548 1.261 . S
C555 O550 1.259 . S
C555 O552 1.235 . S
O556 Co546 2.021 . S
O556 C553 1.238 . S
O557 Co551 2.052 . S
O557 C553 1.241 . S
O558 Co546 2.137 . S
O558 C549 1.247 . S
O559 Co546 2.244 . S
O559 C549 1.272 . S
O559 Co551 2.135 . S
Co560 O561 2.216 . S
Co560 O562 2.091 . S
Co560 O564 2.004 . S
Co560 O570 2.021 . S
Co560 O572 2.137 . S
Co560 O573 2.244 . S
O561 Co560 2.216 . S
O561 C568 1.247 . S
O562 Co560 2.091 . S
O562 C568 1.261 . S
C563 O572 1.247 . S
C563 O573 1.272 . S
O564 Co560 2.004 . S
O564 C569 1.259 . S
Co565 O566 2.061 . S
Co565 O571 2.052 . S
Co565 O573 2.135 . S
O566 Co565 2.061 . S
O566 C569 1.235 . S
C567 O570 1.238 . S
C567 O571 1.241 . S
C568 O561 1.247 . S
C568 O562 1.261 . S
C569 O564 1.259 . S
C569 O566 1.235 . S
O570 Co560 2.021 . S
O570 C567 1.238 . S
O571 Co565 2.052 . S
O571 C567 1.241 . S
O572 Co560 2.137 . S
O572 C563 1.247 . S
O573 Co560 2.244 . S
O573 C563 1.272 . S
O573 Co565 2.135 . S
Co574 O575 2.216 . S
Co574 O576 2.091 . S
Co574 O578 2.004 . S
Co574 O584 2.021 . S
Co574 O586 2.137 . S
Co574 O587 2.244 . S
O575 Co574 2.216 . S
O575 C582 1.247 . S
O576 Co574 2.091 . S
O576 C582 1.261 . S
C577 O586 1.247 . S
C577 O587 1.272 . S
O578 Co574 2.004 . S
O578 C583 1.259 . S
Co579 O580 2.061 . S
Co579 O585 2.052 . S
Co579 O587 2.135 . S
O580 Co579 2.061 . S
O580 C583 1.235 . S
C581 O584 1.238 . S
C581 O585 1.241 . S
C582 O575 1.247 . S
C582 O576 1.261 . S
C583 O578 1.259 . S
C583 O580 1.235 . S
O584 Co574 2.021 . S
O584 C581 1.238 . S
O585 Co579 2.052 . S
O585 C581 1.241 . S
O586 Co574 2.137 . S
O586 C577 1.247 . S
O587 Co574 2.244 . S
O587 C577 1.272 . S
O587 Co579 2.135 . S
Co588 O589 2.216 . S
Co588 O590 2.091 . S
Co588 O592 2.004 . S
Co588 O598 2.021 . S
Co588 O600 2.137 . S
Co588 O601 2.244 . S
O589 Co588 2.216 . S
O589 C596 1.247 . S
O590 Co588 2.091 . S
O590 C596 1.261 . S
C591 O600 1.247 . S
C591 O601 1.272 . S
O592 Co588 2.004 . S
O592 C597 1.259 . S
Co593 O594 2.061 . S
Co593 O599 2.052 . S
Co593 O601 2.135 . S
O594 Co593 2.061 . S
O594 C597 1.235 . S
C595 O598 1.238 . S
C595 O599 1.241 . S
C596 O589 1.247 . S
C596 O590 1.261 . S
C597 O592 1.259 . S
C597 O594 1.235 . S
O598 Co588 2.021 . S
O598 C595 1.238 . S
O599 Co593 2.052 . S
O599 C595 1.241 . S
O600 Co588 2.137 . S
O600 C591 1.247 . S
O601 Co588 2.244 . S
O601 C591 1.272 . S
O601 Co593 2.135 . S
Co602 O603 2.216 . S
Co602 O604 2.091 . S
Co602 O606 2.004 . S
Co602 O612 2.021 . S
Co602 O614 2.137 . S
Co602 O615 2.244 . S
O603 Co602 2.216 . S
O603 C610 1.247 . S
O604 Co602 2.091 . S
O604 C610 1.261 . S
C605 O614 1.247 . S
C605 O615 1.272 . S
O606 Co602 2.004 . S
O606 C611 1.259 . S
Co607 O608 2.061 . S
Co607 O613 2.052 . S
Co607 O615 2.135 . S
O608 Co607 2.061 . S
O608 C611 1.235 . S
C609 O612 1.238 . S
C609 O613 1.241 . S
C610 O603 1.247 . S
C610 O604 1.261 . S
C611 O606 1.259 . S
C611 O608 1.235 . S
O612 Co602 2.021 . S
O612 C609 1.238 . S
O613 Co607 2.052 . S
O613 C609 1.241 . S
O614 Co602 2.137 . S
O614 C605 1.247 . S
O615 Co602 2.244 . S
O615 C605 1.272 . S
O615 Co607 2.135 . S
Co616 O617 2.216 . S
Co616 O618 2.091 . S
Co616 O620 2.004 . S
Co616 O626 2.021 . S
Co616 O628 2.137 . S
Co616 O629 2.244 . S
O617 Co616 2.216 . S
O617 C624 1.247 . S
O618 Co616 2.091 . S
O618 C624 1.261 . S
C619 O628 1.247 . S
C619 O629 1.272 . S
O620 Co616 2.004 . S
O620 C625 1.259 . S
Co621 O622 2.061 . S
Co621 O627 2.052 . S
Co621 O629 2.135 . S
O622 Co621 2.061 . S
O622 C625 1.235 . S
C623 O626 1.238 . S
C623 O627 1.241 . S
C624 O617 1.247 . S
C624 O618 1.261 . S
C625 O620 1.259 . S
C625 O622 1.235 . S
O626 Co616 2.021 . S
O626 C623 1.238 . S
O627 Co621 2.052 . S
O627 C623 1.241 . S
O628 Co616 2.137 . S
O628 C619 1.247 . S
O629 Co616 2.244 . S
O629 C619 1.272 . S
O629 Co621 2.135 . S
Co630 O631 2.216 . S
Co630 O632 2.091 . S
Co630 O634 2.004 . S
Co630 O640 2.021 . S
Co630 O642 2.137 . S
Co630 O643 2.244 . S
O631 Co630 2.216 . S
O631 C638 1.247 . S
O632 Co630 2.091 . S
O632 C638 1.261 . S
C633 O642 1.247 . S
C633 O643 1.272 . S
O634 Co630 2.004 . S
O634 C639 1.259 . S
Co635 O636 2.061 . S
Co635 O641 2.052 . S
Co635 O643 2.135 . S
O636 Co635 2.061 . S
O636 C639 1.235 . S
C637 O640 1.238 . S
C637 O641 1.241 . S
C638 O631 1.247 . S
C638 O632 1.261 . S
C639 O634 1.259 . S
C639 O636 1.235 . S
O640 Co630 2.021 . S
O640 C637 1.238 . S
O641 Co635 2.052 . S
O641 C637 1.241 . S
O642 Co630 2.137 . S
O642 C633 1.247 . S
O643 Co630 2.244 . S
O643 C633 1.272 . S
O643 Co635 2.135 . S
Co644 O645 2.216 . S
Co644 O646 2.091 . S
Co644 O648 2.004 . S
Co644 O654 2.021 . S
Co644 O656 2.137 . S
Co644 O657 2.244 . S
O645 Co644 2.216 . S
O645 C652 1.247 . S
O646 Co644 2.091 . S
O646 C652 1.261 . S
C647 O656 1.247 . S
C647 O657 1.272 . S
O648 Co644 2.004 . S
O648 C653 1.259 . S
Co649 O650 2.061 . S
Co649 O655 2.052 . S
Co649 O657 2.135 . S
O650 Co649 2.061 . S
O650 C653 1.235 . S
C651 O654 1.238 . S
C651 O655 1.241 . S
C652 O645 1.247 . S
C652 O646 1.261 . S
C653 O648 1.259 . S
C653 O650 1.235 . S
O654 Co644 2.021 . S
O654 C651 1.238 . S
O655 Co649 2.052 . S
O655 C651 1.241 . S
O656 Co644 2.137 . S
O656 C647 1.247 . S
O657 Co644 2.244 . S
O657 C647 1.272 . S
O657 Co649 2.135 . S
Co658 O659 2.216 . S
Co658 O660 2.091 . S
Co658 O662 2.004 . S
Co658 O668 2.021 . S
Co658 O670 2.137 . S
Co658 O671 2.244 . S
O659 Co658 2.216 . S
O659 C666 1.247 . S
O660 Co658 2.091 . S
O660 C666 1.261 . S
C661 O670 1.247 . S
C661 O671 1.272 . S
O662 Co658 2.004 . S
O662 C667 1.259 . S
Co663 O664 2.061 . S
Co663 O669 2.052 . S
Co663 O671 2.135 . S
O664 Co663 2.061 . S
O664 C667 1.235 . S
C665 O668 1.238 . S
C665 O669 1.241 . S
C666 O659 1.247 . S
C666 O660 1.261 . S
C667 O662 1.259 . S
C667 O664 1.235 . S
O668 Co658 2.021 . S
O668 C665 1.238 . S
O669 Co663 2.052 . S
O669 C665 1.241 . S
O670 Co658 2.137 . S
O670 C661 1.247 . S
O671 Co658 2.244 . S
O671 C661 1.272 . S
O671 Co663 2.135 . S
C672 C673 1.363 . S
C672 C678 1.379 . S
C672 N680 1.356 . S
C673 C672 1.363 . S
C673 C679 1.363 1_655 S
C674 C675 1.363 . S
C674 C679 1.379 . S
C674 N681 1.356 . S
C675 C674 1.363 . S
C675 C678 1.363 1_455 S
N676 C678 1.356 . S
N676 H688 0.984 . S
N676 H689 0.985 . S
N677 C679 1.356 . S
N677 H682 0.984 . S
N677 H683 0.985 . S
C678 C672 1.379 . S
C678 C675 1.363 1_655 S
C678 N676 1.356 . S
C679 C673 1.363 1_455 S
C679 C674 1.379 . S
C679 N677 1.356 . S
N680 C672 1.356 . S
N680 H686 0.984 . S
N680 H687 0.984 . S
N681 C674 1.356 . S
N681 H684 0.984 . S
N681 H685 0.985 . S
H682 N677 0.984 . S
H683 N677 0.985 . S
H684 N681 0.984 . S
H685 N681 0.985 . S
H686 N680 0.984 . S
H687 N680 0.984 . S
H688 N676 0.984 . S
H689 N676 0.985 . S
C690 C691 1.363 1_655 S
C690 C696 1.379 . S
C690 N698 1.356 . S
C691 C690 1.363 1_455 S
C691 C697 1.363 . S
C692 C693 1.363 1_455 S
C692 C697 1.379 . S
C692 N699 1.356 . S
C693 C692 1.363 1_655 S
C693 C696 1.363 . S
N694 C696 1.356 . S
N694 H706 0.984 . S
N694 H707 0.985 . S
N695 C697 1.356 . S
N695 H700 0.984 . S
N695 H701 0.985 . S
C696 C690 1.379 . S
C696 C693 1.363 . S
C696 N694 1.356 . S
C697 C691 1.363 . S
C697 C692 1.379 . S
C697 N695 1.356 . S
N698 C690 1.356 . S
N698 H704 0.984 . S
N698 H705 0.984 . S
N699 C692 1.356 . S
N699 H702 0.984 . S
N699 H703 0.985 . S
H700 N695 0.984 . S
H701 N695 0.985 . S
H702 N699 0.984 . S
H703 N699 0.985 . S
H704 N698 0.984 . S
H705 N698 0.984 . S
H706 N694 0.984 . S
H707 N694 0.985 . S
C708 C709 1.363 . S
C708 C714 1.379 . S
C708 N716 1.356 . S
C709 C708 1.363 . S
C709 C715 1.363 1_565 S
C710 C711 1.363 . S
C710 C715 1.379 . S
C710 N717 1.356 . S
C711 C710 1.363 . S
C711 C714 1.363 1_545 S
N712 C714 1.356 . S
N712 H724 0.984 . S
N712 H725 0.985 . S
N713 C715 1.356 . S
N713 H718 0.984 . S
N713 H719 0.985 . S
C714 C708 1.379 . S
C714 C711 1.363 1_565 S
C714 N712 1.356 . S
C715 C709 1.363 1_545 S
C715 C710 1.379 . S
C715 N713 1.356 . S
N716 C708 1.356 . S
N716 H722 0.984 . S
N716 H723 0.984 . S
N717 C710 1.356 . S
N717 H720 0.984 . S
N717 H721 0.985 . S
H718 N713 0.984 . S
H719 N713 0.985 . S
H720 N717 0.984 . S
H721 N717 0.985 . S
H722 N716 0.984 . S
H723 N716 0.984 . S
H724 N712 0.984 . S
H725 N712 0.985 . S
C726 C727 1.363 . S
C726 C732 1.379 . S
C726 N734 1.356 . S
C727 C726 1.363 . S
C727 C733 1.363 . S
C728 C729 1.363 . S
C728 C733 1.379 . S
C728 N735 1.356 . S
C729 C728 1.363 . S
C729 C732 1.363 . S
N730 C732 1.356 . S
N730 H742 0.984 . S
N730 H743 0.985 . S
N731 C733 1.356 . S
N731 H736 0.984 . S
N731 H737 0.985 . S
C732 C726 1.379 . S
C732 C729 1.363 . S
C732 N730 1.356 . S
C733 C727 1.363 . S
C733 C728 1.379 . S
C733 N731 1.356 . S
N734 C726 1.356 . S
N734 H740 0.984 . S
N734 H741 0.984 . S
N735 C728 1.356 . S
N735 H738 0.984 . S
N735 H739 0.985 . S
H736 N731 0.984 . S
H737 N731 0.985 . S
H738 N735 0.984 . S
H739 N735 0.985 . S
H740 N734 0.984 . S
H741 N734 0.984 . S
H742 N730 0.984 . S
H743 N730 0.985 . S
C744 C745 1.363 1_556 S
C744 C750 1.379 . S
C744 N752 1.356 . S
C745 C744 1.363 1_554 S
C745 C751 1.363 . S
C746 C747 1.363 1_554 S
C746 C751 1.379 . S
C746 N753 1.356 . S
C747 C746 1.363 1_556 S
C747 C750 1.363 . S
N748 C750 1.356 . S
N748 H760 0.984 . S
N748 H761 0.985 . S
N749 C751 1.356 . S
N749 H754 0.984 . S
N749 H755 0.985 . S
C750 C744 1.379 . S
C750 C747 1.363 . S
C750 N748 1.356 . S
C751 C745 1.363 . S
C751 C746 1.379 . S
C751 N749 1.356 . S
N752 C744 1.356 . S
N752 H758 0.984 . S
N752 H759 0.984 . S
N753 C746 1.356 . S
N753 H756 0.984 . S
N753 H757 0.985 . S
H754 N749 0.984 . S
H755 N749 0.985 . S
H756 N753 0.984 . S
H757 N753 0.985 . S
H758 N752 0.984 . S
H759 N752 0.984 . S
H760 N748 0.984 . S
H761 N748 0.985 . S
C762 C763 1.363 . S
C762 C768 1.379 . S
C762 N770 1.356 . S
C763 C762 1.363 . S
C763 C769 1.363 . S
C764 C765 1.363 . S
C764 C769 1.379 . S
C764 N771 1.356 . S
C765 C764 1.363 . S
C765 C768 1.363 . S
N766 C768 1.356 . S
N766 H778 0.984 . S
N766 H779 0.985 . S
N767 C769 1.356 . S
N767 H772 0.984 . S
N767 H773 0.985 . S
C768 C762 1.379 . S
C768 C765 1.363 . S
C768 N766 1.356 . S
C769 C763 1.363 . S
C769 C764 1.379 . S
C769 N767 1.356 . S
N770 C762 1.356 . S
N770 H776 0.984 . S
N770 H777 0.984 . S
N771 C764 1.356 . S
N771 H774 0.984 . S
N771 H775 0.985 . S
H772 N767 0.984 . S
H773 N767 0.985 . S
H774 N771 0.984 . S
H775 N771 0.985 . S
H776 N770 0.984 . S
H777 N770 0.984 . S
H778 N766 0.984 . S
H779 N766 0.985 . S
C780 C781 1.363 . S
C780 C786 1.379 . S
C780 N788 1.356 . S
C781 C780 1.363 . S
C781 C787 1.363 . S
C782 C783 1.363 . S
C782 C787 1.379 . S
C782 N789 1.356 . S
C783 C782 1.363 . S
C783 C786 1.363 . S
N784 C786 1.356 . S
N784 H796 0.984 . S
N784 H797 0.985 . S
N785 C787 1.356 . S
N785 H790 0.984 . S
N785 H791 0.985 . S
C786 C780 1.379 . S
C786 C783 1.363 . S
C786 N784 1.356 . S
C787 C781 1.363 . S
C787 C782 1.379 . S
C787 N785 1.356 . S
N788 C780 1.356 . S
N788 H794 0.984 . S
N788 H795 0.984 . S
N789 C782 1.356 . S
N789 H792 0.984 . S
N789 H793 0.985 . S
H790 N785 0.984 . S
H791 N785 0.985 . S
H792 N789 0.984 . S
H793 N789 0.985 . S
H794 N788 0.984 . S
H795 N788 0.984 . S
H796 N784 0.984 . S
H797 N784 0.985 . S
C798 C799 1.363 . S
C798 C804 1.379 . S
C798 N806 1.356 . S
C799 C798 1.363 . S
C799 C805 1.363 1_455 S
C800 C801 1.363 . S
C800 C805 1.379 . S
C800 N807 1.356 . S
C801 C800 1.363 . S
C801 C804 1.363 1_655 S
N802 C804 1.356 . S
N802 H814 0.984 . S
N802 H815 0.985 . S
N803 C805 1.356 . S
N803 H808 0.984 . S
N803 H809 0.985 . S
C804 C798 1.379 . S
C804 C801 1.363 1_455 S
C804 N802 1.356 . S
C805 C799 1.363 1_655 S
C805 C800 1.379 . S
C805 N803 1.356 . S
N806 C798 1.356 . S
N806 H812 0.984 . S
N806 H813 0.984 . S
N807 C800 1.356 . S
N807 H810 0.984 . S
N807 H811 0.985 . S
H808 N803 0.984 . S
H809 N803 0.985 . S
H810 N807 0.984 . S
H811 N807 0.985 . S
H812 N806 0.984 . S
H813 N806 0.984 . S
H814 N802 0.984 . S
H815 N802 0.985 . S
C816 C817 1.363 1_655 S
C816 C822 1.379 . S
C816 N824 1.356 . S
C817 C816 1.363 1_455 S
C817 C823 1.363 . S
C818 C819 1.363 1_455 S
C818 C823 1.379 . S
C818 N825 1.356 . S
C819 C818 1.363 1_655 S
C819 C822 1.363 . S
N820 C822 1.356 . S
N820 H832 0.984 . S
N820 H833 0.985 . S
N821 C823 1.356 . S
N821 H826 0.984 . S
N821 H827 0.985 . S
C822 C816 1.379 . S
C822 C819 1.363 . S
C822 N820 1.356 . S
C823 C817 1.363 . S
C823 C818 1.379 . S
C823 N821 1.356 . S
N824 C816 1.356 . S
N824 H830 0.984 . S
N824 H831 0.984 . S
N825 C818 1.356 . S
N825 H828 0.984 . S
N825 H829 0.985 . S
H826 N821 0.984 . S
H827 N821 0.985 . S
H828 N825 0.984 . S
H829 N825 0.985 . S
H830 N824 0.984 . S
H831 N824 0.984 . S
H832 N820 0.984 . S
H833 N820 0.985 . S
C834 C835 1.363 1_565 S
C834 C840 1.379 . S
C834 N842 1.356 . S
C835 C834 1.363 1_545 S
C835 C841 1.363 . S
C836 C837 1.363 1_545 S
C836 C841 1.379 . S
C836 N843 1.356 . S
C837 C836 1.363 1_565 S
C837 C840 1.363 . S
N838 C840 1.356 . S
N838 H850 0.984 . S
N838 H851 0.985 . S
N839 C841 1.356 . S
N839 H844 0.984 . S
N839 H845 0.985 . S
C840 C834 1.379 . S
C840 C837 1.363 . S
C840 N838 1.356 . S
C841 C835 1.363 . S
C841 C836 1.379 . S
C841 N839 1.356 . S
N842 C834 1.356 . S
N842 H848 0.984 . S
N842 H849 0.984 . S
N843 C836 1.356 . S
N843 H846 0.984 . S
N843 H847 0.985 . S
H844 N839 0.984 . S
H845 N839 0.985 . S
H846 N843 0.984 . S
H847 N843 0.985 . S
H848 N842 0.984 . S
H849 N842 0.984 . S
H850 N838 0.984 . S
H851 N838 0.985 . S
C852 C853 1.363 . S
C852 C858 1.379 . S
C852 N860 1.356 . S
C853 C852 1.363 . S
C853 C859 1.363 . S
C854 C855 1.363 . S
C854 C859 1.379 . S
C854 N861 1.356 . S
C855 C854 1.363 . S
C855 C858 1.363 . S
N856 C858 1.356 . S
N856 H868 0.984 . S
N856 H869 0.985 . S
N857 C859 1.356 . S
N857 H862 0.984 . S
N857 H863 0.985 . S
C858 C852 1.379 . S
C858 C855 1.363 . S
C858 N856 1.356 . S
C859 C853 1.363 . S
C859 C854 1.379 . S
C859 N857 1.356 . S
N860 C852 1.356 . S
N860 H866 0.984 . S
N860 H867 0.984 . S
N861 C854 1.356 . S
N861 H864 0.984 . S
N861 H865 0.985 . S
H862 N857 0.984 . S
H863 N857 0.985 . S
H864 N861 0.984 . S
H865 N861 0.985 . S
H866 N860 0.984 . S
H867 N860 0.984 . S
H868 N856 0.984 . S
H869 N856 0.985 . S
C870 C871 1.363 1_554 S
C870 C876 1.379 . S
C870 N878 1.356 . S
C871 C870 1.363 1_556 S
C871 C877 1.363 . S
C872 C873 1.363 1_556 S
C872 C877 1.379 . S
C872 N879 1.356 . S
C873 C872 1.363 1_554 S
C873 C876 1.363 . S
N874 C876 1.356 . S
N874 H886 0.984 . S
N874 H887 0.985 . S
N875 C877 1.356 . S
N875 H880 0.984 . S
N875 H881 0.985 . S
C876 C870 1.379 . S
C876 C873 1.363 . S
C876 N874 1.356 . S
C877 C871 1.363 . S
C877 C872 1.379 . S
C877 N875 1.356 . S
N878 C870 1.356 . S
N878 H884 0.984 . S
N878 H885 0.984 . S
N879 C872 1.356 . S
N879 H882 0.984 . S
N879 H883 0.985 . S
H880 N875 0.984 . S
H881 N875 0.985 . S
H882 N879 0.984 . S
H883 N879 0.985 . S
H884 N878 0.984 . S
H885 N878 0.984 . S
H886 N874 0.984 . S
H887 N874 0.985 . S
C888 C889 1.363 . S
C888 C894 1.379 . S
C888 N896 1.356 . S
C889 C888 1.363 . S
C889 C895 1.363 . S
C890 C891 1.363 . S
C890 C895 1.379 . S
C890 N897 1.356 . S
C891 C890 1.363 . S
C891 C894 1.363 . S
N892 C894 1.356 . S
N892 H904 0.984 . S
N892 H905 0.985 . S
N893 C895 1.356 . S
N893 H898 0.984 . S
N893 H899 0.985 . S
C894 C888 1.379 . S
C894 C891 1.363 . S
C894 N892 1.356 . S
C895 C889 1.363 . S
C895 C890 1.379 . S
C895 N893 1.356 . S
N896 C888 1.356 . S
N896 H902 0.984 . S
N896 H903 0.984 . S
N897 C890 1.356 . S
N897 H900 0.984 . S
N897 H901 0.985 . S
H898 N893 0.984 . S
H899 N893 0.985 . S
H900 N897 0.984 . S
H901 N897 0.985 . S
H902 N896 0.984 . S
H903 N896 0.984 . S
H904 N892 0.984 . S
H905 N892 0.985 . S
C906 C907 1.363 . S
C906 C912 1.379 . S
C906 N914 1.356 . S
C907 C906 1.363 . S
C907 C913 1.363 . S
C908 C909 1.363 . S
C908 C913 1.379 . S
C908 N915 1.356 . S
C909 C908 1.363 . S
C909 C912 1.363 . S
N910 C912 1.356 . S
N910 H922 0.984 . S
N910 H923 0.985 . S
N911 C913 1.356 . S
N911 H916 0.984 . S
N911 H917 0.985 . S
C912 C906 1.379 . S
C912 C909 1.363 . S
C912 N910 1.356 . S
C913 C907 1.363 . S
C913 C908 1.379 . S
C913 N911 1.356 . S
N914 C906 1.356 . S
N914 H920 0.984 . S
N914 H921 0.984 . S
N915 C908 1.356 . S
N915 H918 0.984 . S
N915 H919 0.985 . S
H916 N911 0.984 . S
H917 N911 0.985 . S
H918 N915 0.984 . S
H919 N915 0.985 . S
H920 N914 0.984 . S
H921 N914 0.984 . S
H922 N910 0.984 . S
H923 N910 0.985 . S
C924 C925 1.363 . S
C924 C930 1.379 . S
C924 N932 1.356 . S
C925 C924 1.363 . S
C925 C931 1.363 . S
C926 C927 1.363 . S
C926 C931 1.379 . S
C926 N933 1.356 . S
C927 C926 1.363 . S
C927 C930 1.363 . S
N928 C930 1.356 . S
N928 H940 0.984 . S
N928 H941 0.985 . S
N929 C931 1.356 . S
N929 H934 0.984 . S
N929 H935 0.985 . S
C930 C924 1.379 . S
C930 C927 1.363 . S
C930 N928 1.356 . S
C931 C925 1.363 . S
C931 C926 1.379 . S
C931 N929 1.356 . S
N932 C924 1.356 . S
N932 H938 0.984 . S
N932 H939 0.984 . S
N933 C926 1.356 . S
N933 H936 0.984 . S
N933 H937 0.985 . S
H934 N929 0.984 . S
H935 N929 0.985 . S
H936 N933 0.984 . S
H937 N933 0.985 . S
H938 N932 0.984 . S
H939 N932 0.984 . S
H940 N928 0.984 . S
H941 N928 0.985 . S
C942 C943 1.363 . S
C942 C948 1.379 . S
C942 N950 1.356 . S
C943 C942 1.363 . S
C943 C949 1.363 . S
C944 C945 1.363 . S
C944 C949 1.379 . S
C944 N951 1.356 . S
C945 C944 1.363 . S
C945 C948 1.363 . S
N946 C948 1.356 . S
N946 H958 0.984 . S
N946 H959 0.985 . S
N947 C949 1.356 . S
N947 H952 0.984 . S
N947 H953 0.985 . S
C948 C942 1.379 . S
C948 C945 1.363 . S
C948 N946 1.356 . S
C949 C943 1.363 . S
C949 C944 1.379 . S
C949 N947 1.356 . S
N950 C942 1.356 . S
N950 H956 0.984 . S
N950 H957 0.984 . S
N951 C944 1.356 . S
N951 H954 0.984 . S
N951 H955 0.985 . S
H952 N947 0.984 . S
H953 N947 0.985 . S
H954 N951 0.984 . S
H955 N951 0.985 . S
H956 N950 0.984 . S
H957 N950 0.984 . S
H958 N946 0.984 . S
H959 N946 0.985 . S
C960 C961 1.363 . S
C960 C966 1.379 . S
C960 N968 1.356 . S
C961 C960 1.363 . S
C961 C967 1.363 . S
C962 C963 1.363 . S
C962 C967 1.379 . S
C962 N969 1.356 . S
C963 C962 1.363 . S
C963 C966 1.363 . S
N964 C966 1.356 . S
N964 H976 0.984 . S
N964 H977 0.985 . S
N965 C967 1.356 . S
N965 H970 0.984 . S
N965 H971 0.985 . S
C966 C960 1.379 . S
C966 C963 1.363 . S
C966 N964 1.356 . S
C967 C961 1.363 . S
C967 C962 1.379 . S
C967 N965 1.356 . S
N968 C960 1.356 . S
N968 H974 0.984 . S
N968 H975 0.984 . S
N969 C962 1.356 . S
N969 H972 0.984 . S
N969 H973 0.985 . S
H970 N965 0.984 . S
H971 N965 0.985 . S
H972 N969 0.984 . S
H973 N969 0.985 . S
H974 N968 0.984 . S
H975 N968 0.984 . S
H976 N964 0.984 . S
H977 N964 0.985 . S
C978 C979 1.363 . S
C978 C984 1.379 . S
C978 N986 1.356 . S
C979 C978 1.363 . S
C979 C985 1.363 1_545 S
C980 C981 1.363 . S
C980 C985 1.379 . S
C980 N987 1.356 . S
C981 C980 1.363 . S
C981 C984 1.363 1_565 S
N982 C984 1.356 . S
N982 H994 0.984 . S
N982 H995 0.985 . S
N983 C985 1.356 . S
N983 H988 0.984 . S
N983 H989 0.985 . S
C984 C978 1.379 . S
C984 C981 1.363 1_545 S
C984 N982 1.356 . S
C985 C979 1.363 1_565 S
C985 C980 1.379 . S
C985 N983 1.356 . S
N986 C978 1.356 . S
N986 H992 0.984 . S
N986 H993 0.984 . S
N987 C980 1.356 . S
N987 H990 0.984 . S
N987 H991 0.985 . S
H988 N983 0.984 . S
H989 N983 0.985 . S
H990 N987 0.984 . S
H991 N987 0.985 . S
H992 N986 0.984 . S
H993 N986 0.984 . S
H994 N982 0.984 . S
H995 N982 0.985 . S
C996 C997 1.363 1_556 S
C996 C1002 1.379 . S
C996 N1004 1.356 . S
C997 C996 1.363 1_554 S
C997 C1003 1.363 . S
C998 C999 1.363 1_554 S
C998 C1003 1.379 . S
C998 N1005 1.356 . S
C999 C998 1.363 1_556 S
C999 C1002 1.363 . S
N1000 C1002 1.356 . S
N1000 H1012 0.984 . S
N1000 H1013 0.985 . S
N1001 C1003 1.356 . S
N1001 H1006 0.984 . S
N1001 H1007 0.985 . S
C1002 C996 1.379 . S
C1002 C999 1.363 . S
C1002 N1000 1.356 . S
C1003 C997 1.363 . S
C1003 C998 1.379 . S
C1003 N1001 1.356 . S
N1004 C996 1.356 . S
N1004 H1010 0.984 . S
N1004 H1011 0.984 . S
N1005 C998 1.356 . S
N1005 H1008 0.984 . S
N1005 H1009 0.985 . S
H1006 N1001 0.984 . S
H1007 N1001 0.985 . S
H1008 N1005 0.984 . S
H1009 N1005 0.985 . S
H1010 N1004 0.984 . S
H1011 N1004 0.984 . S
H1012 N1000 0.984 . S
H1013 N1000 0.985 . S
C1014 C1015 1.363 . S
C1014 C1020 1.379 . S
C1014 N1022 1.356 . S
C1015 C1014 1.363 . S
C1015 C1021 1.363 . S
C1016 C1017 1.363 . S
C1016 C1021 1.379 . S
C1016 N1023 1.356 . S
C1017 C1016 1.363 . S
C1017 C1020 1.363 . S
N1018 C1020 1.356 . S
N1018 H1030 0.984 . S
N1018 H1031 0.985 . S
N1019 C1021 1.356 . S
N1019 H1024 0.984 . S
N1019 H1025 0.985 . S
C1020 C1014 1.379 . S
C1020 C1017 1.363 . S
C1020 N1018 1.356 . S
C1021 C1015 1.363 . S
C1021 C1016 1.379 . S
C1021 N1019 1.356 . S
N1022 C1014 1.356 . S
N1022 H1028 0.984 . S
N1022 H1029 0.984 . S
N1023 C1016 1.356 . S
N1023 H1026 0.984 . S
N1023 H1027 0.985 . S
H1024 N1019 0.984 . S
H1025 N1019 0.985 . S
H1026 N1023 0.984 . S
H1027 N1023 0.985 . S
H1028 N1022 0.984 . S
H1029 N1022 0.984 . S
H1030 N1018 0.984 . S
H1031 N1018 0.985 . S
C1032 C1033 1.363 . S
C1032 C1038 1.379 . S
C1032 N1040 1.356 . S
C1033 C1032 1.363 . S
C1033 C1039 1.363 . S
C1034 C1035 1.363 . S
C1034 C1039 1.379 . S
C1034 N1041 1.356 . S
C1035 C1034 1.363 . S
C1035 C1038 1.363 . S
N1036 C1038 1.356 . S
N1036 H1048 0.984 . S
N1036 H1049 0.985 . S
N1037 C1039 1.356 . S
N1037 H1042 0.984 . S
N1037 H1043 0.985 . S
C1038 C1032 1.379 . S
C1038 C1035 1.363 . S
C1038 N1036 1.356 . S
C1039 C1033 1.363 . S
C1039 C1034 1.379 . S
C1039 N1037 1.356 . S
N1040 C1032 1.356 . S
N1040 H1046 0.984 . S
N1040 H1047 0.984 . S
N1041 C1034 1.356 . S
N1041 H1044 0.984 . S
N1041 H1045 0.985 . S
H1042 N1037 0.984 . S
H1043 N1037 0.985 . S
H1044 N1041 0.984 . S
H1045 N1041 0.985 . S
H1046 N1040 0.984 . S
H1047 N1040 0.984 . S
H1048 N1036 0.984 . S
H1049 N1036 0.985 . S
C1050 C1051 1.363 . S
C1050 C1056 1.379 . S
C1050 N1058 1.356 . S
C1051 C1050 1.363 . S
C1051 C1057 1.363 . S
C1052 C1053 1.363 . S
C1052 C1057 1.379 . S
C1052 N1059 1.356 . S
C1053 C1052 1.363 . S
C1053 C1056 1.363 . S
N1054 C1056 1.356 . S
N1054 H1066 0.984 . S
N1054 H1067 0.985 . S
N1055 C1057 1.356 . S
N1055 H1060 0.984 . S
N1055 H1061 0.985 . S
C1056 C1050 1.379 . S
C1056 C1053 1.363 . S
C1056 N1054 1.356 . S
C1057 C1051 1.363 . S
C1057 C1052 1.379 . S
C1057 N1055 1.356 . S
N1058 C1050 1.356 . S
N1058 H1064 0.984 . S
N1058 H1065 0.984 . S
N1059 C1052 1.356 . S
N1059 H1062 0.984 . S
N1059 H1063 0.985 . S
H1060 N1055 0.984 . S
H1061 N1055 0.985 . S
H1062 N1059 0.984 . S
H1063 N1059 0.985 . S
H1064 N1058 0.984 . S
H1065 N1058 0.984 . S
H1066 N1054 0.984 . S
H1067 N1054 0.985 . S
C1068 C1069 1.363 . S
C1068 C1074 1.379 . S
C1068 N1076 1.356 . S
C1069 C1068 1.363 . S
C1069 C1075 1.363 1_545 S
C1070 C1071 1.363 . S
C1070 C1075 1.379 . S
C1070 N1077 1.356 . S
C1071 C1070 1.363 . S
C1071 C1074 1.363 1_565 S
N1072 C1074 1.356 . S
N1072 H1084 0.984 . S
N1072 H1085 0.985 . S
N1073 C1075 1.356 . S
N1073 H1078 0.984 . S
N1073 H1079 0.985 . S
C1074 C1068 1.379 . S
C1074 C1071 1.363 1_545 S
C1074 N1072 1.356 . S
C1075 C1069 1.363 1_565 S
C1075 C1070 1.379 . S
C1075 N1073 1.356 . S
N1076 C1068 1.356 . S
N1076 H1082 0.984 . S
N1076 H1083 0.984 . S
N1077 C1070 1.356 . S
N1077 H1080 0.984 . S
N1077 H1081 0.985 . S
H1078 N1073 0.984 . S
H1079 N1073 0.985 . S
H1080 N1077 0.984 . S
H1081 N1077 0.985 . S
H1082 N1076 0.984 . S
H1083 N1076 0.984 . S
H1084 N1072 0.984 . S
H1085 N1072 0.985 . S
C1086 C1087 1.363 1_556 S
C1086 C1092 1.379 . S
C1086 N1094 1.356 . S
C1087 C1086 1.363 1_554 S
C1087 C1093 1.363 . S
C1088 C1089 1.363 1_554 S
C1088 C1093 1.379 . S
C1088 N1095 1.356 . S
C1089 C1088 1.363 1_556 S
C1089 C1092 1.363 . S
N1090 C1092 1.356 . S
N1090 H1102 0.984 . S
N1090 H1103 0.985 . S
N1091 C1093 1.356 . S
N1091 H1096 0.984 . S
N1091 H1097 0.985 . S
C1092 C1086 1.379 . S
C1092 C1089 1.363 . S
C1092 N1090 1.356 . S
C1093 C1087 1.363 . S
C1093 C1088 1.379 . S
C1093 N1091 1.356 . S
N1094 C1086 1.356 . S
N1094 H1100 0.984 . S
N1094 H1101 0.984 . S
N1095 C1088 1.356 . S
N1095 H1098 0.984 . S
N1095 H1099 0.985 . S
H1096 N1091 0.984 . S
H1097 N1091 0.985 . S
H1098 N1095 0.984 . S
H1099 N1095 0.985 . S
H1100 N1094 0.984 . S
H1101 N1094 0.984 . S
H1102 N1090 0.984 . S
H1103 N1090 0.985 . S
C1104 C1105 1.363 . S
C1104 C1110 1.379 . S
C1104 N1112 1.356 . S
C1105 C1104 1.363 . S
C1105 C1111 1.363 . S
C1106 C1107 1.363 . S
C1106 C1111 1.379 . S
C1106 N1113 1.356 . S
C1107 C1106 1.363 . S
C1107 C1110 1.363 . S
N1108 C1110 1.356 . S
N1108 H1120 0.984 . S
N1108 H1121 0.985 . S
N1109 C1111 1.356 . S
N1109 H1114 0.984 . S
N1109 H1115 0.985 . S
C1110 C1104 1.379 . S
C1110 C1107 1.363 . S
C1110 N1108 1.356 . S
C1111 C1105 1.363 . S
C1111 C1106 1.379 . S
C1111 N1109 1.356 . S
N1112 C1104 1.356 . S
N1112 H1118 0.984 . S
N1112 H1119 0.984 . S
N1113 C1106 1.356 . S
N1113 H1116 0.984 . S
N1113 H1117 0.985 . S
H1114 N1109 0.984 . S
H1115 N1109 0.985 . S
H1116 N1113 0.984 . S
H1117 N1113 0.985 . S
H1118 N1112 0.984 . S
H1119 N1112 0.984 . S
H1120 N1108 0.984 . S
H1121 N1108 0.985 . S
C1122 C1123 1.363 . S
C1122 C1128 1.379 . S
C1122 N1130 1.356 . S
C1123 C1122 1.363 . S
C1123 C1129 1.363 . S
C1124 C1125 1.363 . S
C1124 C1129 1.379 . S
C1124 N1131 1.356 . S
C1125 C1124 1.363 . S
C1125 C1128 1.363 . S
N1126 C1128 1.356 . S
N1126 H1138 0.984 . S
N1126 H1139 0.985 . S
N1127 C1129 1.356 . S
N1127 H1132 0.984 . S
N1127 H1133 0.985 . S
C1128 C1122 1.379 . S
C1128 C1125 1.363 . S
C1128 N1126 1.356 . S
C1129 C1123 1.363 . S
C1129 C1124 1.379 . S
C1129 N1127 1.356 . S
N1130 C1122 1.356 . S
N1130 H1136 0.984 . S
N1130 H1137 0.984 . S
N1131 C1124 1.356 . S
N1131 H1134 0.984 . S
N1131 H1135 0.985 . S
H1132 N1127 0.984 . S
H1133 N1127 0.985 . S
H1134 N1131 0.984 . S
H1135 N1131 0.985 . S
H1136 N1130 0.984 . S
H1137 N1130 0.984 . S
H1138 N1126 0.984 . S
H1139 N1126 0.985 . S
C1140 C1141 1.363 . S
C1140 C1146 1.379 . S
C1140 N1148 1.356 . S
C1141 C1140 1.363 . S
C1141 C1147 1.363 . S
C1142 C1143 1.363 . S
C1142 C1147 1.379 . S
C1142 N1149 1.356 . S
C1143 C1142 1.363 . S
C1143 C1146 1.363 . S
N1144 C1146 1.356 . S
N1144 H1156 0.984 . S
N1144 H1157 0.985 . S
N1145 C1147 1.356 . S
N1145 H1150 0.984 . S
N1145 H1151 0.985 . S
C1146 C1140 1.379 . S
C1146 C1143 1.363 . S
C1146 N1144 1.356 . S
C1147 C1141 1.363 . S
C1147 C1142 1.379 . S
C1147 N1145 1.356 . S
N1148 C1140 1.356 . S
N1148 H1154 0.984 . S
N1148 H1155 0.984 . S
N1149 C1142 1.356 . S
N1149 H1152 0.984 . S
N1149 H1153 0.985 . S
H1150 N1145 0.984 . S
H1151 N1145 0.985 . S
H1152 N1149 0.984 . S
H1153 N1149 0.985 . S
H1154 N1148 0.984 . S
H1155 N1148 0.984 . S
H1156 N1144 0.984 . S
H1157 N1144 0.985 . S
C1158 C1159 1.363 . S
C1158 C1164 1.379 . S
C1158 N1166 1.356 . S
C1159 C1158 1.363 . S
C1159 C1165 1.363 . S
C1160 C1161 1.363 . S
C1160 C1165 1.379 . S
C1160 N1167 1.356 . S
C1161 C1160 1.363 . S
C1161 C1164 1.363 . S
N1162 C1164 1.356 . S
N1162 H1174 0.984 . S
N1162 H1175 0.985 . S
N1163 C1165 1.356 . S
N1163 H1168 0.984 . S
N1163 H1169 0.985 . S
C1164 C1158 1.379 . S
C1164 C1161 1.363 . S
C1164 N1162 1.356 . S
C1165 C1159 1.363 . S
C1165 C1160 1.379 . S
C1165 N1163 1.356 . S
N1166 C1158 1.356 . S
N1166 H1172 0.984 . S
N1166 H1173 0.984 . S
N1167 C1160 1.356 . S
N1167 H1170 0.984 . S
N1167 H1171 0.985 . S
H1168 N1163 0.984 . S
H1169 N1163 0.985 . S
H1170 N1167 0.984 . S
H1171 N1167 0.985 . S
H1172 N1166 0.984 . S
H1173 N1166 0.984 . S
H1174 N1162 0.984 . S
H1175 N1162 0.985 . S
C1176 C1177 1.363 . S
C1176 C1182 1.379 . S
C1176 N1184 1.356 . S
C1177 C1176 1.363 . S
C1177 C1183 1.363 . S
C1178 C1179 1.363 . S
C1178 C1183 1.379 . S
C1178 N1185 1.356 . S
C1179 C1178 1.363 . S
C1179 C1182 1.363 . S
N1180 C1182 1.356 . S
N1180 H1192 0.984 . S
N1180 H1193 0.985 . S
N1181 C1183 1.356 . S
N1181 H1186 0.984 . S
N1181 H1187 0.985 . S
C1182 C1176 1.379 . S
C1182 C1179 1.363 . S
C1182 N1180 1.356 . S
C1183 C1177 1.363 . S
C1183 C1178 1.379 . S
C1183 N1181 1.356 . S
N1184 C1176 1.356 . S
N1184 H1190 0.984 . S
N1184 H1191 0.984 . S
N1185 C1178 1.356 . S
N1185 H1188 0.984 . S
N1185 H1189 0.985 . S
H1186 N1181 0.984 . S
H1187 N1181 0.985 . S
H1188 N1185 0.984 . S
H1189 N1185 0.985 . S
H1190 N1184 0.984 . S
H1191 N1184 0.984 . S
H1192 N1180 0.984 . S
H1193 N1180 0.985 . S
C1194 C1195 1.363 . S
C1194 C1200 1.379 . S
C1194 N1202 1.356 . S
C1195 C1194 1.363 . S
C1195 C1201 1.363 . S
C1196 C1197 1.363 . S
C1196 C1201 1.379 . S
C1196 N1203 1.356 . S
C1197 C1196 1.363 . S
C1197 C1200 1.363 . S
N1198 C1200 1.356 . S
N1198 H1210 0.984 . S
N1198 H1211 0.985 . S
N1199 C1201 1.356 . S
N1199 H1204 0.984 . S
N1199 H1205 0.985 . S
C1200 C1194 1.379 . S
C1200 C1197 1.363 . S
C1200 N1198 1.356 . S
C1201 C1195 1.363 . S
C1201 C1196 1.379 . S
C1201 N1199 1.356 . S
N1202 C1194 1.356 . S
N1202 H1208 0.984 . S
N1202 H1209 0.984 . S
N1203 C1196 1.356 . S
N1203 H1206 0.984 . S
N1203 H1207 0.985 . S
H1204 N1199 0.984 . S
H1205 N1199 0.985 . S
H1206 N1203 0.984 . S
H1207 N1203 0.985 . S
H1208 N1202 0.984 . S
H1209 N1202 0.984 . S
H1210 N1198 0.984 . S
H1211 N1198 0.985 . S
C1212 C1213 1.363 . S
C1212 C1218 1.379 . S
C1212 N1220 1.356 . S
C1213 C1212 1.363 . S
C1213 C1219 1.363 . S
C1214 C1215 1.363 . S
C1214 C1219 1.379 . S
C1214 N1221 1.356 . S
C1215 C1214 1.363 . S
C1215 C1218 1.363 . S
N1216 C1218 1.356 . S
N1216 H1228 0.984 . S
N1216 H1229 0.985 . S
N1217 C1219 1.356 . S
N1217 H1222 0.984 . S
N1217 H1223 0.985 . S
C1218 C1212 1.379 . S
C1218 C1215 1.363 . S
C1218 N1216 1.356 . S
C1219 C1213 1.363 . S
C1219 C1214 1.379 . S
C1219 N1217 1.356 . S
N1220 C1212 1.356 . S
N1220 H1226 0.984 . S
N1220 H1227 0.984 . S
N1221 C1214 1.356 . S
N1221 H1224 0.984 . S
N1221 H1225 0.985 . S
H1222 N1217 0.984 . S
H1223 N1217 0.985 . S
H1224 N1221 0.984 . S
H1225 N1221 0.985 . S
H1226 N1220 0.984 . S
H1227 N1220 0.984 . S
H1228 N1216 0.984 . S
H1229 N1216 0.985 . S
C1230 C1231 1.363 . S
C1230 C1236 1.379 . S
C1230 N1238 1.356 . S
C1231 C1230 1.363 . S
C1231 C1237 1.363 . S
C1232 C1233 1.363 . S
C1232 C1237 1.379 . S
C1232 N1239 1.356 . S
C1233 C1232 1.363 . S
C1233 C1236 1.363 . S
N1234 C1236 1.356 . S
N1234 H1246 0.984 . S
N1234 H1247 0.985 . S
N1235 C1237 1.356 . S
N1235 H1240 0.984 . S
N1235 H1241 0.985 . S
C1236 C1230 1.379 . S
C1236 C1233 1.363 . S
C1236 N1234 1.356 . S
C1237 C1231 1.363 . S
C1237 C1232 1.379 . S
C1237 N1235 1.356 . S
N1238 C1230 1.356 . S
N1238 H1244 0.984 . S
N1238 H1245 0.984 . S
N1239 C1232 1.356 . S
N1239 H1242 0.984 . S
N1239 H1243 0.985 . S
H1240 N1235 0.984 . S
H1241 N1235 0.985 . S
H1242 N1239 0.984 . S
H1243 N1239 0.985 . S
H1244 N1238 0.984 . S
H1245 N1238 0.984 . S
H1246 N1234 0.984 . S
H1247 N1234 0.985 . S
C1248 C1249 1.363 . S
C1248 C1254 1.379 . S
C1248 N1256 1.356 . S
C1249 C1248 1.363 . S
C1249 C1255 1.363 . S
C1250 C1251 1.363 . S
C1250 C1255 1.379 . S
C1250 N1257 1.356 . S
C1251 C1250 1.363 . S
C1251 C1254 1.363 . S
N1252 C1254 1.356 . S
N1252 H1264 0.984 . S
N1252 H1265 0.985 . S
N1253 C1255 1.356 . S
N1253 H1258 0.984 . S
N1253 H1259 0.985 . S
C1254 C1248 1.379 . S
C1254 C1251 1.363 . S
C1254 N1252 1.356 . S
C1255 C1249 1.363 . S
C1255 C1250 1.379 . S
C1255 N1253 1.356 . S
N1256 C1248 1.356 . S
N1256 H1262 0.984 . S
N1256 H1263 0.984 . S
N1257 C1250 1.356 . S
N1257 H1260 0.984 . S
N1257 H1261 0.985 . S
H1258 N1253 0.984 . S
H1259 N1253 0.985 . S
H1260 N1257 0.984 . S
H1261 N1257 0.985 . S
H1262 N1256 0.984 . S
H1263 N1256 0.984 . S
H1264 N1252 0.984 . S
H1265 N1252 0.985 . S
C1266 C1267 1.363 . S
C1266 C1272 1.379 . S
C1266 N1274 1.356 . S
C1267 C1266 1.363 . S
C1267 C1273 1.363 . S
C1268 C1269 1.363 . S
C1268 C1273 1.379 . S
C1268 N1275 1.356 . S
C1269 C1268 1.363 . S
C1269 C1272 1.363 . S
N1270 C1272 1.356 . S
N1270 H1282 0.984 . S
N1270 H1283 0.985 . S
N1271 C1273 1.356 . S
N1271 H1276 0.984 . S
N1271 H1277 0.985 . S
C1272 C1266 1.379 . S
C1272 C1269 1.363 . S
C1272 N1270 1.356 . S
C1273 C1267 1.363 . S
C1273 C1268 1.379 . S
C1273 N1271 1.356 . S
N1274 C1266 1.356 . S
N1274 H1280 0.984 . S
N1274 H1281 0.984 . S
N1275 C1268 1.356 . S
N1275 H1278 0.984 . S
N1275 H1279 0.985 . S
H1276 N1271 0.984 . S
H1277 N1271 0.985 . S
H1278 N1275 0.984 . S
H1279 N1275 0.985 . S
H1280 N1274 0.984 . S
H1281 N1274 0.984 . S
H1282 N1270 0.984 . S
H1283 N1270 0.985 . S
C1284 C1285 1.363 . S
C1284 C1290 1.379 . S
C1284 N1292 1.356 . S
C1285 C1284 1.363 . S
C1285 C1291 1.363 . S
C1286 C1287 1.363 . S
C1286 C1291 1.379 . S
C1286 N1293 1.356 . S
C1287 C1286 1.363 . S
C1287 C1290 1.363 . S
N1288 C1290 1.356 . S
N1288 H1300 0.984 . S
N1288 H1301 0.985 . S
N1289 C1291 1.356 . S
N1289 H1294 0.984 . S
N1289 H1295 0.985 . S
C1290 C1284 1.379 . S
C1290 C1287 1.363 . S
C1290 N1288 1.356 . S
C1291 C1285 1.363 . S
C1291 C1286 1.379 . S
C1291 N1289 1.356 . S
N1292 C1284 1.356 . S
N1292 H1298 0.984 . S
N1292 H1299 0.984 . S
N1293 C1286 1.356 . S
N1293 H1296 0.984 . S
N1293 H1297 0.985 . S
H1294 N1289 0.984 . S
H1295 N1289 0.985 . S
H1296 N1293 0.984 . S
H1297 N1293 0.985 . S
H1298 N1292 0.984 . S
H1299 N1292 0.984 . S
H1300 N1288 0.984 . S
H1301 N1288 0.985 . S
C1302 C1303 1.363 . S
C1302 C1308 1.379 . S
C1302 N1310 1.356 . S
C1303 C1302 1.363 . S
C1303 C1309 1.363 . S
C1304 C1305 1.363 . S
C1304 C1309 1.379 . S
C1304 N1311 1.356 . S
C1305 C1304 1.363 . S
C1305 C1308 1.363 . S
N1306 C1308 1.356 . S
N1306 H1318 0.984 . S
N1306 H1319 0.985 . S
N1307 C1309 1.356 . S
N1307 H1312 0.984 . S
N1307 H1313 0.985 . S
C1308 C1302 1.379 . S
C1308 C1305 1.363 . S
C1308 N1306 1.356 . S
C1309 C1303 1.363 . S
C1309 C1304 1.379 . S
C1309 N1307 1.356 . S
N1310 C1302 1.356 . S
N1310 H1316 0.984 . S
N1310 H1317 0.984 . S
N1311 C1304 1.356 . S
N1311 H1314 0.984 . S
N1311 H1315 0.985 . S
H1312 N1307 0.984 . S
H1313 N1307 0.985 . S
H1314 N1311 0.984 . S
H1315 N1311 0.985 . S
H1316 N1310 0.984 . S
H1317 N1310 0.984 . S
H1318 N1306 0.984 . S
H1319 N1306 0.985 . S
C1320 C1321 1.363 . S
C1320 C1326 1.379 . S
C1320 N1328 1.356 . S
C1321 C1320 1.363 . S
C1321 C1327 1.363 . S
C1322 C1323 1.363 . S
C1322 C1327 1.379 . S
C1322 N1329 1.356 . S
C1323 C1322 1.363 . S
C1323 C1326 1.363 . S
N1324 C1326 1.356 . S
N1324 H1336 0.984 . S
N1324 H1337 0.985 . S
N1325 C1327 1.356 . S
N1325 H1330 0.984 . S
N1325 H1331 0.985 . S
C1326 C1320 1.379 . S
C1326 C1323 1.363 . S
C1326 N1324 1.356 . S
C1327 C1321 1.363 . S
C1327 C1322 1.379 . S
C1327 N1325 1.356 . S
N1328 C1320 1.356 . S
N1328 H1334 0.984 . S
N1328 H1335 0.984 . S
N1329 C1322 1.356 . S
N1329 H1332 0.984 . S
N1329 H1333 0.985 . S
H1330 N1325 0.984 . S
H1331 N1325 0.985 . S
H1332 N1329 0.984 . S
H1333 N1329 0.985 . S
H1334 N1328 0.984 . S
H1335 N1328 0.984 . S
H1336 N1324 0.984 . S
H1337 N1324 0.985 . S
C1338 C1339 1.363 . S
C1338 C1344 1.379 . S
C1338 N1346 1.356 . S
C1339 C1338 1.363 . S
C1339 C1345 1.363 . S
C1340 C1341 1.363 . S
C1340 C1345 1.379 . S
C1340 N1347 1.356 . S
C1341 C1340 1.363 . S
C1341 C1344 1.363 . S
N1342 C1344 1.356 . S
N1342 H1354 0.984 . S
N1342 H1355 0.985 . S
N1343 C1345 1.356 . S
N1343 H1348 0.984 . S
N1343 H1349 0.985 . S
C1344 C1338 1.379 . S
C1344 C1341 1.363 . S
C1344 N1342 1.356 . S
C1345 C1339 1.363 . S
C1345 C1340 1.379 . S
C1345 N1343 1.356 . S
N1346 C1338 1.356 . S
N1346 H1352 0.984 . S
N1346 H1353 0.984 . S
N1347 C1340 1.356 . S
N1347 H1350 0.984 . S
N1347 H1351 0.985 . S
H1348 N1343 0.984 . S
H1349 N1343 0.985 . S
H1350 N1347 0.984 . S
H1351 N1347 0.985 . S
H1352 N1346 0.984 . S
H1353 N1346 0.984 . S
H1354 N1342 0.984 . S
H1355 N1342 0.985 . S
C1356 C1357 1.363 . S
C1356 C1362 1.379 . S
C1356 N1364 1.356 . S
C1357 C1356 1.363 . S
C1357 C1363 1.363 . S
C1358 C1359 1.363 . S
C1358 C1363 1.379 . S
C1358 N1365 1.356 . S
C1359 C1358 1.363 . S
C1359 C1362 1.363 . S
N1360 C1362 1.356 . S
N1360 H1372 0.984 . S
N1360 H1373 0.985 . S
N1361 C1363 1.356 . S
N1361 H1366 0.984 . S
N1361 H1367 0.985 . S
C1362 C1356 1.379 . S
C1362 C1359 1.363 . S
C1362 N1360 1.356 . S
C1363 C1357 1.363 . S
C1363 C1358 1.379 . S
C1363 N1361 1.356 . S
N1364 C1356 1.356 . S
N1364 H1370 0.984 . S
N1364 H1371 0.984 . S
N1365 C1358 1.356 . S
N1365 H1368 0.984 . S
N1365 H1369 0.985 . S
H1366 N1361 0.984 . S
H1367 N1361 0.985 . S
H1368 N1365 0.984 . S
H1369 N1365 0.985 . S
H1370 N1364 0.984 . S
H1371 N1364 0.984 . S
H1372 N1360 0.984 . S
H1373 N1360 0.985 . S
C1374 C1375 1.363 . S
C1374 C1380 1.379 . S
C1374 N1382 1.356 . S
C1375 C1374 1.363 . S
C1375 C1381 1.363 . S
C1376 C1377 1.363 . S
C1376 C1381 1.379 . S
C1376 N1383 1.356 . S
C1377 C1376 1.363 . S
C1377 C1380 1.363 . S
N1378 C1380 1.356 . S
N1378 H1390 0.984 . S
N1378 H1391 0.985 . S
N1379 C1381 1.356 . S
N1379 H1384 0.984 . S
N1379 H1385 0.985 . S
C1380 C1374 1.379 . S
C1380 C1377 1.363 . S
C1380 N1378 1.356 . S
C1381 C1375 1.363 . S
C1381 C1376 1.379 . S
C1381 N1379 1.356 . S
N1382 C1374 1.356 . S
N1382 H1388 0.984 . S
N1382 H1389 0.984 . S
N1383 C1376 1.356 . S
N1383 H1386 0.984 . S
N1383 H1387 0.985 . S
H1384 N1379 0.984 . S
H1385 N1379 0.985 . S
H1386 N1383 0.984 . S
H1387 N1383 0.985 . S
H1388 N1382 0.984 . S
H1389 N1382 0.984 . S
H1390 N1378 0.984 . S
H1391 N1378 0.985 . S
C1392 C1393 1.363 . S
C1392 C1398 1.379 . S
C1392 N1400 1.356 . S
C1393 C1392 1.363 . S
C1393 C1399 1.363 . S
C1394 C1395 1.363 . S
C1394 C1399 1.379 . S
C1394 N1401 1.356 . S
C1395 C1394 1.363 . S
C1395 C1398 1.363 . S
N1396 C1398 1.356 . S
N1396 H1408 0.984 . S
N1396 H1409 0.985 . S
N1397 C1399 1.356 . S
N1397 H1402 0.984 . S
N1397 H1403 0.985 . S
C1398 C1392 1.379 . S
C1398 C1395 1.363 . S
C1398 N1396 1.356 . S
C1399 C1393 1.363 . S
C1399 C1394 1.379 . S
C1399 N1397 1.356 . S
N1400 C1392 1.356 . S
N1400 H1406 0.984 . S
N1400 H1407 0.984 . S
N1401 C1394 1.356 . S
N1401 H1404 0.984 . S
N1401 H1405 0.985 . S
H1402 N1397 0.984 . S
H1403 N1397 0.985 . S
H1404 N1401 0.984 . S
H1405 N1401 0.985 . S
H1406 N1400 0.984 . S
H1407 N1400 0.984 . S
H1408 N1396 0.984 . S
H1409 N1396 0.985 . S
C1410 C1411 1.363 . S
C1410 C1416 1.379 . S
C1410 N1418 1.356 . S
C1411 C1410 1.363 . S
C1411 C1417 1.363 . S
C1412 C1413 1.363 . S
C1412 C1417 1.379 . S
C1412 N1419 1.356 . S
C1413 C1412 1.363 . S
C1413 C1416 1.363 . S
N1414 C1416 1.356 . S
N1414 H1426 0.984 . S
N1414 H1427 0.985 . S
N1415 C1417 1.356 . S
N1415 H1420 0.984 . S
N1415 H1421 0.985 . S
C1416 C1410 1.379 . S
C1416 C1413 1.363 . S
C1416 N1414 1.356 . S
C1417 C1411 1.363 . S
C1417 C1412 1.379 . S
C1417 N1415 1.356 . S
N1418 C1410 1.356 . S
N1418 H1424 0.984 . S
N1418 H1425 0.984 . S
N1419 C1412 1.356 . S
N1419 H1422 0.984 . S
N1419 H1423 0.985 . S
H1420 N1415 0.984 . S
H1421 N1415 0.985 . S
H1422 N1419 0.984 . S
H1423 N1419 0.985 . S
H1424 N1418 0.984 . S
H1425 N1418 0.984 . S
H1426 N1414 0.984 . S
H1427 N1414 0.985 . S
C1428 C1429 1.363 . S
C1428 C1434 1.379 . S
C1428 N1436 1.356 . S
C1429 C1428 1.363 . S
C1429 C1435 1.363 . S
C1430 C1431 1.363 . S
C1430 C1435 1.379 . S
C1430 N1437 1.356 . S
C1431 C1430 1.363 . S
C1431 C1434 1.363 . S
N1432 C1434 1.356 . S
N1432 H1444 0.984 . S
N1432 H1445 0.985 . S
N1433 C1435 1.356 . S
N1433 H1438 0.984 . S
N1433 H1439 0.985 . S
C1434 C1428 1.379 . S
C1434 C1431 1.363 . S
C1434 N1432 1.356 . S
C1435 C1429 1.363 . S
C1435 C1430 1.379 . S
C1435 N1433 1.356 . S
N1436 C1428 1.356 . S
N1436 H1442 0.984 . S
N1436 H1443 0.984 . S
N1437 C1430 1.356 . S
N1437 H1440 0.984 . S
N1437 H1441 0.985 . S
H1438 N1433 0.984 . S
H1439 N1433 0.985 . S
H1440 N1437 0.984 . S
H1441 N1437 0.985 . S
H1442 N1436 0.984 . S
H1443 N1436 0.984 . S
H1444 N1432 0.984 . S
H1445 N1432 0.985 . S
C1446 C1447 1.363 . S
C1446 C1452 1.379 . S
C1446 N1454 1.356 . S
C1447 C1446 1.363 . S
C1447 C1453 1.363 . S
C1448 C1449 1.363 . S
C1448 C1453 1.379 . S
C1448 N1455 1.356 . S
C1449 C1448 1.363 . S
C1449 C1452 1.363 . S
N1450 C1452 1.356 . S
N1450 H1462 0.984 . S
N1450 H1463 0.985 . S
N1451 C1453 1.356 . S
N1451 H1456 0.984 . S
N1451 H1457 0.985 . S
C1452 C1446 1.379 . S
C1452 C1449 1.363 . S
C1452 N1450 1.356 . S
C1453 C1447 1.363 . S
C1453 C1448 1.379 . S
C1453 N1451 1.356 . S
N1454 C1446 1.356 . S
N1454 H1460 0.984 . S
N1454 H1461 0.984 . S
N1455 C1448 1.356 . S
N1455 H1458 0.984 . S
N1455 H1459 0.985 . S
H1456 N1451 0.984 . S
H1457 N1451 0.985 . S
H1458 N1455 0.984 . S
H1459 N1455 0.985 . S
H1460 N1454 0.984 . S
H1461 N1454 0.984 . S
H1462 N1450 0.984 . S
H1463 N1450 0.985 . S
C1464 C1465 1.363 . S
C1464 C1470 1.379 . S
C1464 N1472 1.356 . S
C1465 C1464 1.363 . S
C1465 C1471 1.363 . S
C1466 C1467 1.363 . S
C1466 C1471 1.379 . S
C1466 N1473 1.356 . S
C1467 C1466 1.363 . S
C1467 C1470 1.363 . S
N1468 C1470 1.356 . S
N1468 H1480 0.984 . S
N1468 H1481 0.985 . S
N1469 C1471 1.356 . S
N1469 H1474 0.984 . S
N1469 H1475 0.985 . S
C1470 C1464 1.379 . S
C1470 C1467 1.363 . S
C1470 N1468 1.356 . S
C1471 C1465 1.363 . S
C1471 C1466 1.379 . S
C1471 N1469 1.356 . S
N1472 C1464 1.356 . S
N1472 H1478 0.984 . S
N1472 H1479 0.984 . S
N1473 C1466 1.356 . S
N1473 H1476 0.984 . S
N1473 H1477 0.985 . S
H1474 N1469 0.984 . S
H1475 N1469 0.985 . S
H1476 N1473 0.984 . S
H1477 N1473 0.985 . S
H1478 N1472 0.984 . S
H1479 N1472 0.984 . S
H1480 N1468 0.984 . S
H1481 N1468 0.985 . S
C1482 C1483 1.363 . S
C1482 C1488 1.379 . S
C1482 N1490 1.356 . S
C1483 C1482 1.363 . S
C1483 C1489 1.363 . S
C1484 C1485 1.363 . S
C1484 C1489 1.379 . S
C1484 N1491 1.356 . S
C1485 C1484 1.363 . S
C1485 C1488 1.363 . S
N1486 C1488 1.356 . S
N1486 H1498 0.984 . S
N1486 H1499 0.985 . S
N1487 C1489 1.356 . S
N1487 H1492 0.984 . S
N1487 H1493 0.985 . S
C1488 C1482 1.379 . S
C1488 C1485 1.363 . S
C1488 N1486 1.356 . S
C1489 C1483 1.363 . S
C1489 C1484 1.379 . S
C1489 N1487 1.356 . S
N1490 C1482 1.356 . S
N1490 H1496 0.984 . S
N1490 H1497 0.984 . S
N1491 C1484 1.356 . S
N1491 H1494 0.984 . S
N1491 H1495 0.985 . S
H1492 N1487 0.984 . S
H1493 N1487 0.985 . S
H1494 N1491 0.984 . S
H1495 N1491 0.985 . S
H1496 N1490 0.984 . S
H1497 N1490 0.984 . S
H1498 N1486 0.984 . S
H1499 N1486 0.985 . S
C1500 C1501 1.363 . S
C1500 C1506 1.379 . S
C1500 N1508 1.356 . S
C1501 C1500 1.363 . S
C1501 C1507 1.363 . S
C1502 C1503 1.363 . S
C1502 C1507 1.379 . S
C1502 N1509 1.356 . S
C1503 C1502 1.363 . S
C1503 C1506 1.363 . S
N1504 C1506 1.356 . S
N1504 H1516 0.984 . S
N1504 H1517 0.985 . S
N1505 C1507 1.356 . S
N1505 H1510 0.984 . S
N1505 H1511 0.985 . S
C1506 C1500 1.379 . S
C1506 C1503 1.363 . S
C1506 N1504 1.356 . S
C1507 C1501 1.363 . S
C1507 C1502 1.379 . S
C1507 N1505 1.356 . S
N1508 C1500 1.356 . S
N1508 H1514 0.984 . S
N1508 H1515 0.984 . S
N1509 C1502 1.356 . S
N1509 H1512 0.984 . S
N1509 H1513 0.985 . S
H1510 N1505 0.984 . S
H1511 N1505 0.985 . S
H1512 N1509 0.984 . S
H1513 N1509 0.985 . S
H1514 N1508 0.984 . S
H1515 N1508 0.984 . S
H1516 N1504 0.984 . S
H1517 N1504 0.985 . S
C1518 C1519 1.363 . S
C1518 C1524 1.379 . S
C1518 N1526 1.356 . S
C1519 C1518 1.363 . S
C1519 C1525 1.363 . S
C1520 C1521 1.363 . S
C1520 C1525 1.379 . S
C1520 N1527 1.356 . S
C1521 C1520 1.363 . S
C1521 C1524 1.363 . S
N1522 C1524 1.356 . S
N1522 H1534 0.984 . S
N1522 H1535 0.985 . S
N1523 C1525 1.356 . S
N1523 H1528 0.984 . S
N1523 H1529 0.985 . S
C1524 C1518 1.379 . S
C1524 C1521 1.363 . S
C1524 N1522 1.356 . S
C1525 C1519 1.363 . S
C1525 C1520 1.379 . S
C1525 N1523 1.356 . S
N1526 C1518 1.356 . S
N1526 H1532 0.984 . S
N1526 H1533 0.984 . S
N1527 C1520 1.356 . S
N1527 H1530 0.984 . S
N1527 H1531 0.985 . S
H1528 N1523 0.984 . S
H1529 N1523 0.985 . S
H1530 N1527 0.984 . S
H1531 N1527 0.985 . S
H1532 N1526 0.984 . S
H1533 N1526 0.984 . S
H1534 N1522 0.984 . S
H1535 N1522 0.985 . S
C1536 C1537 1.363 . S
C1536 C1542 1.379 . S
C1536 N1544 1.356 . S
C1537 C1536 1.363 . S
C1537 C1543 1.363 . S
C1538 C1539 1.363 . S
C1538 C1543 1.379 . S
C1538 N1545 1.356 . S
C1539 C1538 1.363 . S
C1539 C1542 1.363 . S
N1540 C1542 1.356 . S
N1540 H1552 0.984 . S
N1540 H1553 0.985 . S
N1541 C1543 1.356 . S
N1541 H1546 0.984 . S
N1541 H1547 0.985 . S
C1542 C1536 1.379 . S
C1542 C1539 1.363 . S
C1542 N1540 1.356 . S
C1543 C1537 1.363 . S
C1543 C1538 1.379 . S
C1543 N1541 1.356 . S
N1544 C1536 1.356 . S
N1544 H1550 0.984 . S
N1544 H1551 0.984 . S
N1545 C1538 1.356 . S
N1545 H1548 0.984 . S
N1545 H1549 0.985 . S
H1546 N1541 0.984 . S
H1547 N1541 0.985 . S
H1548 N1545 0.984 . S
H1549 N1545 0.985 . S
H1550 N1544 0.984 . S
H1551 N1544 0.984 . S
H1552 N1540 0.984 . S
H1553 N1540 0.985 . S
C1554 C1555 1.363 . S
C1554 C1560 1.379 . S
C1554 N1562 1.356 . S
C1555 C1554 1.363 . S
C1555 C1561 1.363 . S
C1556 C1557 1.363 . S
C1556 C1561 1.379 . S
C1556 N1563 1.356 . S
C1557 C1556 1.363 . S
C1557 C1560 1.363 . S
N1558 C1560 1.356 . S
N1558 H1570 0.984 . S
N1558 H1571 0.985 . S
N1559 C1561 1.356 . S
N1559 H1564 0.984 . S
N1559 H1565 0.985 . S
C1560 C1554 1.379 . S
C1560 C1557 1.363 . S
C1560 N1558 1.356 . S
C1561 C1555 1.363 . S
C1561 C1556 1.379 . S
C1561 N1559 1.356 . S
N1562 C1554 1.356 . S
N1562 H1568 0.984 . S
N1562 H1569 0.984 . S
N1563 C1556 1.356 . S
N1563 H1566 0.984 . S
N1563 H1567 0.985 . S
H1564 N1559 0.984 . S
H1565 N1559 0.985 . S
H1566 N1563 0.984 . S
H1567 N1563 0.985 . S
H1568 N1562 0.984 . S
H1569 N1562 0.984 . S
H1570 N1558 0.984 . S
H1571 N1558 0.985 . S
C1572 C1573 1.363 . S
C1572 C1578 1.379 . S
C1572 N1580 1.356 . S
C1573 C1572 1.363 . S
C1573 C1579 1.363 . S
C1574 C1575 1.363 . S
C1574 C1579 1.379 . S
C1574 N1581 1.356 . S
C1575 C1574 1.363 . S
C1575 C1578 1.363 . S
N1576 C1578 1.356 . S
N1576 H1588 0.984 . S
N1576 H1589 0.985 . S
N1577 C1579 1.356 . S
N1577 H1582 0.984 . S
N1577 H1583 0.985 . S
C1578 C1572 1.379 . S
C1578 C1575 1.363 . S
C1578 N1576 1.356 . S
C1579 C1573 1.363 . S
C1579 C1574 1.379 . S
C1579 N1577 1.356 . S
N1580 C1572 1.356 . S
N1580 H1586 0.984 . S
N1580 H1587 0.984 . S
N1581 C1574 1.356 . S
N1581 H1584 0.984 . S
N1581 H1585 0.985 . S
H1582 N1577 0.984 . S
H1583 N1577 0.985 . S
H1584 N1581 0.984 . S
H1585 N1581 0.985 . S
H1586 N1580 0.984 . S
H1587 N1580 0.984 . S
H1588 N1576 0.984 . S
H1589 N1576 0.985 . S
C1590 C1591 1.363 . S
C1590 C1596 1.379 . S
C1590 N1598 1.356 . S
C1591 C1590 1.363 . S
C1591 C1597 1.363 . S
C1592 C1593 1.363 . S
C1592 C1597 1.379 . S
C1592 N1599 1.356 . S
C1593 C1592 1.363 . S
C1593 C1596 1.363 . S
N1594 C1596 1.356 . S
N1594 H1606 0.984 . S
N1594 H1607 0.985 . S
N1595 C1597 1.356 . S
N1595 H1600 0.984 . S
N1595 H1601 0.985 . S
C1596 C1590 1.379 . S
C1596 C1593 1.363 . S
C1596 N1594 1.356 . S
C1597 C1591 1.363 . S
C1597 C1592 1.379 . S
C1597 N1595 1.356 . S
N1598 C1590 1.356 . S
N1598 H1604 0.984 . S
N1598 H1605 0.984 . S
N1599 C1592 1.356 . S
N1599 H1602 0.984 . S
N1599 H1603 0.985 . S
H1600 N1595 0.984 . S
H1601 N1595 0.985 . S
H1602 N1599 0.984 . S
H1603 N1599 0.985 . S
H1604 N1598 0.984 . S
H1605 N1598 0.984 . S
H1606 N1594 0.984 . S
H1607 N1594 0.985 . S
C1608 C1609 1.363 . S
C1608 C1614 1.379 . S
C1608 N1616 1.356 . S
C1609 C1608 1.363 . S
C1609 C1615 1.363 . S
C1610 C1611 1.363 . S
C1610 C1615 1.379 . S
C1610 N1617 1.356 . S
C1611 C1610 1.363 . S
C1611 C1614 1.363 . S
N1612 C1614 1.356 . S
N1612 H1624 0.984 . S
N1612 H1625 0.985 . S
N1613 C1615 1.356 . S
N1613 H1618 0.984 . S
N1613 H1619 0.985 . S
C1614 C1608 1.379 . S
C1614 C1611 1.363 . S
C1614 N1612 1.356 . S
C1615 C1609 1.363 . S
C1615 C1610 1.379 . S
C1615 N1613 1.356 . S
N1616 C1608 1.356 . S
N1616 H1622 0.984 . S
N1616 H1623 0.984 . S
N1617 C1610 1.356 . S
N1617 H1620 0.984 . S
N1617 H1621 0.985 . S
H1618 N1613 0.984 . S
H1619 N1613 0.985 . S
H1620 N1617 0.984 . S
H1621 N1617 0.985 . S
H1622 N1616 0.984 . S
H1623 N1616 0.984 . S
H1624 N1612 0.984 . S
H1625 N1612 0.985 . S
C1626 C1627 1.363 . S
C1626 C1632 1.379 . S
C1626 N1634 1.356 . S
C1627 C1626 1.363 . S
C1627 C1633 1.363 . S
C1628 C1629 1.363 . S
C1628 C1633 1.379 . S
C1628 N1635 1.356 . S
C1629 C1628 1.363 . S
C1629 C1632 1.363 . S
N1630 C1632 1.356 . S
N1630 H1642 0.984 . S
N1630 H1643 0.985 . S
N1631 C1633 1.356 . S
N1631 H1636 0.984 . S
N1631 H1637 0.985 . S
C1632 C1626 1.379 . S
C1632 C1629 1.363 . S
C1632 N1630 1.356 . S
C1633 C1627 1.363 . S
C1633 C1628 1.379 . S
C1633 N1631 1.356 . S
N1634 C1626 1.356 . S
N1634 H1640 0.984 . S
N1634 H1641 0.984 . S
N1635 C1628 1.356 . S
N1635 H1638 0.984 . S
N1635 H1639 0.985 . S
H1636 N1631 0.984 . S
H1637 N1631 0.985 . S
H1638 N1635 0.984 . S
H1639 N1635 0.985 . S
H1640 N1634 0.984 . S
H1641 N1634 0.984 . S
H1642 N1630 0.984 . S
H1643 N1630 0.985 . S
C1644 C1645 1.363 . S
C1644 C1650 1.379 . S
C1644 N1652 1.356 . S
C1645 C1644 1.363 . S
C1645 C1651 1.363 . S
C1646 C1647 1.363 . S
C1646 C1651 1.379 . S
C1646 N1653 1.356 . S
C1647 C1646 1.363 . S
C1647 C1650 1.363 . S
N1648 C1650 1.356 . S
N1648 H1660 0.984 . S
N1648 H1661 0.985 . S
N1649 C1651 1.356 . S
N1649 H1654 0.984 . S
N1649 H1655 0.985 . S
C1650 C1644 1.379 . S
C1650 C1647 1.363 . S
C1650 N1648 1.356 . S
C1651 C1645 1.363 . S
C1651 C1646 1.379 . S
C1651 N1649 1.356 . S
N1652 C1644 1.356 . S
N1652 H1658 0.984 . S
N1652 H1659 0.984 . S
N1653 C1646 1.356 . S
N1653 H1656 0.984 . S
N1653 H1657 0.985 . S
H1654 N1649 0.984 . S
H1655 N1649 0.985 . S
H1656 N1653 0.984 . S
H1657 N1653 0.985 . S
H1658 N1652 0.984 . S
H1659 N1652 0.984 . S
H1660 N1648 0.984 . S
H1661 N1648 0.985 . S
C1662 C1663 1.363 . S
C1662 C1668 1.379 . S
C1662 N1670 1.356 . S
C1663 C1662 1.363 . S
C1663 C1669 1.363 . S
C1664 C1665 1.363 . S
C1664 C1669 1.379 . S
C1664 N1671 1.356 . S
C1665 C1664 1.363 . S
C1665 C1668 1.363 . S
N1666 C1668 1.356 . S
N1666 H1678 0.984 . S
N1666 H1679 0.985 . S
N1667 C1669 1.356 . S
N1667 H1672 0.984 . S
N1667 H1673 0.985 . S
C1668 C1662 1.379 . S
C1668 C1665 1.363 . S
C1668 N1666 1.356 . S
C1669 C1663 1.363 . S
C1669 C1664 1.379 . S
C1669 N1667 1.356 . S
N1670 C1662 1.356 . S
N1670 H1676 0.984 . S
N1670 H1677 0.984 . S
N1671 C1664 1.356 . S
N1671 H1674 0.984 . S
N1671 H1675 0.985 . S
H1672 N1667 0.984 . S
H1673 N1667 0.985 . S
H1674 N1671 0.984 . S
H1675 N1671 0.985 . S
H1676 N1670 0.984 . S
H1677 N1670 0.984 . S
H1678 N1666 0.984 . S
H1679 N1666 0.985 . S
C1680 C1681 1.363 . S
C1680 C1686 1.379 . S
C1680 N1688 1.356 . S
C1681 C1680 1.363 . S
C1681 C1687 1.363 . S
C1682 C1683 1.363 . S
C1682 C1687 1.379 . S
C1682 N1689 1.356 . S
C1683 C1682 1.363 . S
C1683 C1686 1.363 . S
N1684 C1686 1.356 . S
N1684 H1696 0.984 . S
N1684 H1697 0.985 . S
N1685 C1687 1.356 . S
N1685 H1690 0.984 . S
N1685 H1691 0.985 . S
C1686 C1680 1.379 . S
C1686 C1683 1.363 . S
C1686 N1684 1.356 . S
C1687 C1681 1.363 . S
C1687 C1682 1.379 . S
C1687 N1685 1.356 . S
N1688 C1680 1.356 . S
N1688 H1694 0.984 . S
N1688 H1695 0.984 . S
N1689 C1682 1.356 . S
N1689 H1692 0.984 . S
N1689 H1693 0.985 . S
H1690 N1685 0.984 . S
H1691 N1685 0.985 . S
H1692 N1689 0.984 . S
H1693 N1689 0.985 . S
H1694 N1688 0.984 . S
H1695 N1688 0.984 . S
H1696 N1684 0.984 . S
H1697 N1684 0.985 . S
C1698 C1699 1.363 . S
C1698 C1704 1.379 . S
C1698 N1706 1.356 . S
C1699 C1698 1.363 . S
C1699 C1705 1.363 . S
C1700 C1701 1.363 . S
C1700 C1705 1.379 . S
C1700 N1707 1.356 . S
C1701 C1700 1.363 . S
C1701 C1704 1.363 . S
N1702 C1704 1.356 . S
N1702 H1714 0.984 . S
N1702 H1715 0.985 . S
N1703 C1705 1.356 . S
N1703 H1708 0.984 . S
N1703 H1709 0.985 . S
C1704 C1698 1.379 . S
C1704 C1701 1.363 . S
C1704 N1702 1.356 . S
C1705 C1699 1.363 . S
C1705 C1700 1.379 . S
C1705 N1703 1.356 . S
N1706 C1698 1.356 . S
N1706 H1712 0.984 . S
N1706 H1713 0.984 . S
N1707 C1700 1.356 . S
N1707 H1710 0.984 . S
N1707 H1711 0.985 . S
H1708 N1703 0.984 . S
H1709 N1703 0.985 . S
H1710 N1707 0.984 . S
H1711 N1707 0.985 . S
H1712 N1706 0.984 . S
H1713 N1706 0.984 . S
H1714 N1702 0.984 . S
H1715 N1702 0.985 . S
C1716 C1717 1.363 . S
C1716 C1722 1.379 . S
C1716 N1724 1.356 . S
C1717 C1716 1.363 . S
C1717 C1723 1.363 . S
C1718 C1719 1.363 . S
C1718 C1723 1.379 . S
C1718 N1725 1.356 . S
C1719 C1718 1.363 . S
C1719 C1722 1.363 . S
N1720 C1722 1.356 . S
N1720 H1732 0.984 . S
N1720 H1733 0.985 . S
N1721 C1723 1.356 . S
N1721 H1726 0.984 . S
N1721 H1727 0.985 . S
C1722 C1716 1.379 . S
C1722 C1719 1.363 . S
C1722 N1720 1.356 . S
C1723 C1717 1.363 . S
C1723 C1718 1.379 . S
C1723 N1721 1.356 . S
N1724 C1716 1.356 . S
N1724 H1730 0.984 . S
N1724 H1731 0.984 . S
N1725 C1718 1.356 . S
N1725 H1728 0.984 . S
N1725 H1729 0.985 . S
H1726 N1721 0.984 . S
H1727 N1721 0.985 . S
H1728 N1725 0.984 . S
H1729 N1725 0.985 . S
H1730 N1724 0.984 . S
H1731 N1724 0.984 . S
H1732 N1720 0.984 . S
H1733 N1720 0.985 . S
C1734 C1735 1.363 . S
C1734 C1740 1.379 . S
C1734 N1742 1.356 . S
C1735 C1734 1.363 . S
C1735 C1741 1.363 . S
C1736 C1737 1.363 . S
C1736 C1741 1.379 . S
C1736 N1743 1.356 . S
C1737 C1736 1.363 . S
C1737 C1740 1.363 . S
N1738 C1740 1.356 . S
N1738 H1750 0.984 . S
N1738 H1751 0.985 . S
N1739 C1741 1.356 . S
N1739 H1744 0.984 . S
N1739 H1745 0.985 . S
C1740 C1734 1.379 . S
C1740 C1737 1.363 . S
C1740 N1738 1.356 . S
C1741 C1735 1.363 . S
C1741 C1736 1.379 . S
C1741 N1739 1.356 . S
N1742 C1734 1.356 . S
N1742 H1748 0.984 . S
N1742 H1749 0.984 . S
N1743 C1736 1.356 . S
N1743 H1746 0.984 . S
N1743 H1747 0.985 . S
H1744 N1739 0.984 . S
H1745 N1739 0.985 . S
H1746 N1743 0.984 . S
H1747 N1743 0.985 . S
H1748 N1742 0.984 . S
H1749 N1742 0.984 . S
H1750 N1738 0.984 . S
H1751 N1738 0.985 . S
C1752 C1753 1.363 . S
C1752 C1758 1.379 . S
C1752 N1760 1.356 . S
C1753 C1752 1.363 . S
C1753 C1759 1.363 . S
C1754 C1755 1.363 . S
C1754 C1759 1.379 . S
C1754 N1761 1.356 . S
C1755 C1754 1.363 . S
C1755 C1758 1.363 . S
N1756 C1758 1.356 . S
N1756 H1768 0.984 . S
N1756 H1769 0.985 . S
N1757 C1759 1.356 . S
N1757 H1762 0.984 . S
N1757 H1763 0.985 . S
C1758 C1752 1.379 . S
C1758 C1755 1.363 . S
C1758 N1756 1.356 . S
C1759 C1753 1.363 . S
C1759 C1754 1.379 . S
C1759 N1757 1.356 . S
N1760 C1752 1.356 . S
N1760 H1766 0.984 . S
N1760 H1767 0.984 . S
N1761 C1754 1.356 . S
N1761 H1764 0.984 . S
N1761 H1765 0.985 . S
H1762 N1757 0.984 . S
H1763 N1757 0.985 . S
H1764 N1761 0.984 . S
H1765 N1761 0.985 . S
H1766 N1760 0.984 . S
H1767 N1760 0.984 . S
H1768 N1756 0.984 . S
H1769 N1756 0.985 . S
C1770 C1771 1.363 . S
C1770 C1776 1.379 . S
C1770 N1778 1.356 . S
C1771 C1770 1.363 . S
C1771 C1777 1.363 . S
C1772 C1773 1.363 . S
C1772 C1777 1.379 . S
C1772 N1779 1.356 . S
C1773 C1772 1.363 . S
C1773 C1776 1.363 . S
N1774 C1776 1.356 . S
N1774 H1786 0.984 . S
N1774 H1787 0.985 . S
N1775 C1777 1.356 . S
N1775 H1780 0.984 . S
N1775 H1781 0.985 . S
C1776 C1770 1.379 . S
C1776 C1773 1.363 . S
C1776 N1774 1.356 . S
C1777 C1771 1.363 . S
C1777 C1772 1.379 . S
C1777 N1775 1.356 . S
N1778 C1770 1.356 . S
N1778 H1784 0.984 . S
N1778 H1785 0.984 . S
N1779 C1772 1.356 . S
N1779 H1782 0.984 . S
N1779 H1783 0.985 . S
H1780 N1775 0.984 . S
H1781 N1775 0.985 . S
H1782 N1779 0.984 . S
H1783 N1779 0.985 . S
H1784 N1778 0.984 . S
H1785 N1778 0.984 . S
H1786 N1774 0.984 . S
H1787 N1774 0.985 . S
C1788 C1789 1.363 . S
C1788 C1794 1.379 . S
C1788 N1796 1.356 . S
C1789 C1788 1.363 . S
C1789 C1795 1.363 . S
C1790 C1791 1.363 . S
C1790 C1795 1.379 . S
C1790 N1797 1.356 . S
C1791 C1790 1.363 . S
C1791 C1794 1.363 . S
N1792 C1794 1.356 . S
N1792 H1804 0.984 . S
N1792 H1805 0.985 . S
N1793 C1795 1.356 . S
N1793 H1798 0.984 . S
N1793 H1799 0.985 . S
C1794 C1788 1.379 . S
C1794 C1791 1.363 . S
C1794 N1792 1.356 . S
C1795 C1789 1.363 . S
C1795 C1790 1.379 . S
C1795 N1793 1.356 . S
N1796 C1788 1.356 . S
N1796 H1802 0.984 . S
N1796 H1803 0.984 . S
N1797 C1790 1.356 . S
N1797 H1800 0.984 . S
N1797 H1801 0.985 . S
H1798 N1793 0.984 . S
H1799 N1793 0.985 . S
H1800 N1797 0.984 . S
H1801 N1797 0.985 . S
H1802 N1796 0.984 . S
H1803 N1796 0.984 . S
H1804 N1792 0.984 . S
H1805 N1792 0.985 . S
C1806 C1807 1.363 . S
C1806 C1812 1.379 . S
C1806 N1814 1.356 . S
C1807 C1806 1.363 . S
C1807 C1813 1.363 . S
C1808 C1809 1.363 . S
C1808 C1813 1.379 . S
C1808 N1815 1.356 . S
C1809 C1808 1.363 . S
C1809 C1812 1.363 . S
N1810 C1812 1.356 . S
N1810 H1822 0.984 . S
N1810 H1823 0.985 . S
N1811 C1813 1.356 . S
N1811 H1816 0.984 . S
N1811 H1817 0.985 . S
C1812 C1806 1.379 . S
C1812 C1809 1.363 . S
C1812 N1810 1.356 . S
C1813 C1807 1.363 . S
C1813 C1808 1.379 . S
C1813 N1811 1.356 . S
N1814 C1806 1.356 . S
N1814 H1820 0.984 . S
N1814 H1821 0.984 . S
N1815 C1808 1.356 . S
N1815 H1818 0.984 . S
N1815 H1819 0.985 . S
H1816 N1811 0.984 . S
H1817 N1811 0.985 . S
H1818 N1815 0.984 . S
H1819 N1815 0.985 . S
H1820 N1814 0.984 . S
H1821 N1814 0.984 . S
H1822 N1810 0.984 . S
H1823 N1810 0.985 . S
C1824 C1825 1.363 . S
C1824 C1830 1.379 . S
C1824 N1832 1.356 . S
C1825 C1824 1.363 . S
C1825 C1831 1.363 . S
C1826 C1827 1.363 . S
C1826 C1831 1.379 . S
C1826 N1833 1.356 . S
C1827 C1826 1.363 . S
C1827 C1830 1.363 . S
N1828 C1830 1.356 . S
N1828 H1840 0.984 . S
N1828 H1841 0.985 . S
N1829 C1831 1.356 . S
N1829 H1834 0.984 . S
N1829 H1835 0.985 . S
C1830 C1824 1.379 . S
C1830 C1827 1.363 . S
C1830 N1828 1.356 . S
C1831 C1825 1.363 . S
C1831 C1826 1.379 . S
C1831 N1829 1.356 . S
N1832 C1824 1.356 . S
N1832 H1838 0.984 . S
N1832 H1839 0.984 . S
N1833 C1826 1.356 . S
N1833 H1836 0.984 . S
N1833 H1837 0.985 . S
H1834 N1829 0.984 . S
H1835 N1829 0.985 . S
H1836 N1833 0.984 . S
H1837 N1833 0.985 . S
H1838 N1832 0.984 . S
H1839 N1832 0.984 . S
H1840 N1828 0.984 . S
H1841 N1828 0.985 . S
C1842 C1843 1.363 . S
C1842 C1848 1.379 . S
C1842 N1850 1.356 . S
C1843 C1842 1.363 . S
C1843 C1849 1.363 . S
C1844 C1845 1.363 . S
C1844 C1849 1.379 . S
C1844 N1851 1.356 . S
C1845 C1844 1.363 . S
C1845 C1848 1.363 . S
N1846 C1848 1.356 . S
N1846 H1858 0.984 . S
N1846 H1859 0.985 . S
N1847 C1849 1.356 . S
N1847 H1852 0.984 . S
N1847 H1853 0.985 . S
C1848 C1842 1.379 . S
C1848 C1845 1.363 . S
C1848 N1846 1.356 . S
C1849 C1843 1.363 . S
C1849 C1844 1.379 . S
C1849 N1847 1.356 . S
N1850 C1842 1.356 . S
N1850 H1856 0.984 . S
N1850 H1857 0.984 . S
N1851 C1844 1.356 . S
N1851 H1854 0.984 . S
N1851 H1855 0.985 . S
H1852 N1847 0.984 . S
H1853 N1847 0.985 . S
H1854 N1851 0.984 . S
H1855 N1851 0.985 . S
H1856 N1850 0.984 . S
H1857 N1850 0.984 . S
H1858 N1846 0.984 . S
H1859 N1846 0.985 . S
C1860 C1861 1.363 . S
C1860 C1866 1.379 . S
C1860 N1868 1.356 . S
C1861 C1860 1.363 . S
C1861 C1867 1.363 . S
C1862 C1863 1.363 . S
C1862 C1867 1.379 . S
C1862 N1869 1.356 . S
C1863 C1862 1.363 . S
C1863 C1866 1.363 . S
N1864 C1866 1.356 . S
N1864 H1876 0.984 . S
N1864 H1877 0.985 . S
N1865 C1867 1.356 . S
N1865 H1870 0.984 . S
N1865 H1871 0.985 . S
C1866 C1860 1.379 . S
C1866 C1863 1.363 . S
C1866 N1864 1.356 . S
C1867 C1861 1.363 . S
C1867 C1862 1.379 . S
C1867 N1865 1.356 . S
N1868 C1860 1.356 . S
N1868 H1874 0.984 . S
N1868 H1875 0.984 . S
N1869 C1862 1.356 . S
N1869 H1872 0.984 . S
N1869 H1873 0.985 . S
H1870 N1865 0.984 . S
H1871 N1865 0.985 . S
H1872 N1869 0.984 . S
H1873 N1869 0.985 . S
H1874 N1868 0.984 . S
H1875 N1868 0.984 . S
H1876 N1864 0.984 . S
H1877 N1864 0.985 . S
C1878 C1879 1.363 . S
C1878 C1884 1.379 . S
C1878 N1886 1.356 . S
C1879 C1878 1.363 . S
C1879 C1885 1.363 . S
C1880 C1881 1.363 . S
C1880 C1885 1.379 . S
C1880 N1887 1.356 . S
C1881 C1880 1.363 . S
C1881 C1884 1.363 . S
N1882 C1884 1.356 . S
N1882 H1894 0.984 . S
N1882 H1895 0.985 . S
N1883 C1885 1.356 . S
N1883 H1888 0.984 . S
N1883 H1889 0.985 . S
C1884 C1878 1.379 . S
C1884 C1881 1.363 . S
C1884 N1882 1.356 . S
C1885 C1879 1.363 . S
C1885 C1880 1.379 . S
C1885 N1883 1.356 . S
N1886 C1878 1.356 . S
N1886 H1892 0.984 . S
N1886 H1893 0.984 . S
N1887 C1880 1.356 . S
N1887 H1890 0.984 . S
N1887 H1891 0.985 . S
H1888 N1883 0.984 . S
H1889 N1883 0.985 . S
H1890 N1887 0.984 . S
H1891 N1887 0.985 . S
H1892 N1886 0.984 . S
H1893 N1886 0.984 . S
H1894 N1882 0.984 . S
H1895 N1882 0.985 . S
C1896 C1897 1.363 . S
C1896 C1902 1.379 . S
C1896 N1904 1.356 . S
C1897 C1896 1.363 . S
C1897 C1903 1.363 . S
C1898 C1899 1.363 . S
C1898 C1903 1.379 . S
C1898 N1905 1.356 . S
C1899 C1898 1.363 . S
C1899 C1902 1.363 . S
N1900 C1902 1.356 . S
N1900 H1912 0.984 . S
N1900 H1913 0.985 . S
N1901 C1903 1.356 . S
N1901 H1906 0.984 . S
N1901 H1907 0.985 . S
C1902 C1896 1.379 . S
C1902 C1899 1.363 . S
C1902 N1900 1.356 . S
C1903 C1897 1.363 . S
C1903 C1898 1.379 . S
C1903 N1901 1.356 . S
N1904 C1896 1.356 . S
N1904 H1910 0.984 . S
N1904 H1911 0.984 . S
N1905 C1898 1.356 . S
N1905 H1908 0.984 . S
N1905 H1909 0.985 . S
H1906 N1901 0.984 . S
H1907 N1901 0.985 . S
H1908 N1905 0.984 . S
H1909 N1905 0.985 . S
H1910 N1904 0.984 . S
H1911 N1904 0.984 . S
H1912 N1900 0.984 . S
H1913 N1900 0.985 . S
C1914 C1915 1.363 . S
C1914 C1920 1.379 . S
C1914 N1922 1.356 . S
C1915 C1914 1.363 . S
C1915 C1921 1.363 . S
C1916 C1917 1.363 . S
C1916 C1921 1.379 . S
C1916 N1923 1.356 . S
C1917 C1916 1.363 . S
C1917 C1920 1.363 . S
N1918 C1920 1.356 . S
N1918 H1930 0.984 . S
N1918 H1931 0.985 . S
N1919 C1921 1.356 . S
N1919 H1924 0.984 . S
N1919 H1925 0.985 . S
C1920 C1914 1.379 . S
C1920 C1917 1.363 . S
C1920 N1918 1.356 . S
C1921 C1915 1.363 . S
C1921 C1916 1.379 . S
C1921 N1919 1.356 . S
N1922 C1914 1.356 . S
N1922 H1928 0.984 . S
N1922 H1929 0.984 . S
N1923 C1916 1.356 . S
N1923 H1926 0.984 . S
N1923 H1927 0.985 . S
H1924 N1919 0.984 . S
H1925 N1919 0.985 . S
H1926 N1923 0.984 . S
H1927 N1923 0.985 . S
H1928 N1922 0.984 . S
H1929 N1922 0.984 . S
H1930 N1918 0.984 . S
H1931 N1918 0.985 . S
C1932 C1933 1.363 . S
C1932 C1938 1.379 . S
C1932 N1940 1.356 . S
C1933 C1932 1.363 . S
C1933 C1939 1.363 . S
C1934 C1935 1.363 . S
C1934 C1939 1.379 . S
C1934 N1941 1.356 . S
C1935 C1934 1.363 . S
C1935 C1938 1.363 . S
N1936 C1938 1.356 . S
N1936 H1948 0.984 . S
N1936 H1949 0.985 . S
N1937 C1939 1.356 . S
N1937 H1942 0.984 . S
N1937 H1943 0.985 . S
C1938 C1932 1.379 . S
C1938 C1935 1.363 . S
C1938 N1936 1.356 . S
C1939 C1933 1.363 . S
C1939 C1934 1.379 . S
C1939 N1937 1.356 . S
N1940 C1932 1.356 . S
N1940 H1946 0.984 . S
N1940 H1947 0.984 . S
N1941 C1934 1.356 . S
N1941 H1944 0.984 . S
N1941 H1945 0.985 . S
H1942 N1937 0.984 . S
H1943 N1937 0.985 . S
H1944 N1941 0.984 . S
H1945 N1941 0.985 . S
H1946 N1940 0.984 . S
H1947 N1940 0.984 . S
H1948 N1936 0.984 . S
H1949 N1936 0.985 . S
C1950 C1951 1.363 . S
C1950 C1956 1.379 . S
C1950 N1958 1.356 . S
C1951 C1950 1.363 . S
C1951 C1957 1.363 . S
C1952 C1953 1.363 . S
C1952 C1957 1.379 . S
C1952 N1959 1.356 . S
C1953 C1952 1.363 . S
C1953 C1956 1.363 . S
N1954 C1956 1.356 . S
N1954 H1966 0.984 . S
N1954 H1967 0.985 . S
N1955 C1957 1.356 . S
N1955 H1960 0.984 . S
N1955 H1961 0.985 . S
C1956 C1950 1.379 . S
C1956 C1953 1.363 . S
C1956 N1954 1.356 . S
C1957 C1951 1.363 . S
C1957 C1952 1.379 . S
C1957 N1955 1.356 . S
N1958 C1950 1.356 . S
N1958 H1964 0.984 . S
N1958 H1965 0.984 . S
N1959 C1952 1.356 . S
N1959 H1962 0.984 . S
N1959 H1963 0.985 . S
H1960 N1955 0.984 . S
H1961 N1955 0.985 . S
H1962 N1959 0.984 . S
H1963 N1959 0.985 . S
H1964 N1958 0.984 . S
H1965 N1958 0.984 . S
H1966 N1954 0.984 . S
H1967 N1954 0.985 . S
C1968 C1969 1.363 . S
C1968 C1974 1.379 . S
C1968 N1976 1.356 . S
C1969 C1968 1.363 . S
C1969 C1975 1.363 . S
C1970 C1971 1.363 . S
C1970 C1975 1.379 . S
C1970 N1977 1.356 . S
C1971 C1970 1.363 . S
C1971 C1974 1.363 . S
N1972 C1974 1.356 . S
N1972 H1984 0.984 1_455 S
N1972 H1985 0.985 . S
N1973 C1975 1.356 . S
N1973 H1978 0.984 . S
N1973 H1979 0.985 . S
C1974 C1968 1.379 . S
C1974 C1971 1.363 . S
C1974 N1972 1.356 . S
C1975 C1969 1.363 . S
C1975 C1970 1.379 . S
C1975 N1973 1.356 . S
N1976 C1968 1.356 . S
N1976 H1982 0.984 1_455 S
N1976 H1983 0.984 . S
N1977 C1970 1.356 . S
N1977 H1980 0.984 . S
N1977 H1981 0.985 . S
H1978 N1973 0.984 . S
H1979 N1973 0.985 . S
H1980 N1977 0.984 . S
H1981 N1977 0.985 . S
H1982 N1976 0.984 1_655 S
H1983 N1976 0.984 . S
H1984 N1972 0.984 1_655 S
H1985 N1972 0.985 . S
C1986 C1987 1.363 . S
C1986 C1992 1.350 1_565 S
C1986 N1994 1.356 . S
C1987 C1986 1.363 . S
C1987 C1993 1.392 . S
C1988 C1989 1.363 . S
C1988 C1993 1.350 1_545 S
C1988 N1995 1.356 . S
C1989 C1988 1.363 . S
C1989 C1992 1.392 . S
N1990 C1992 1.367 . S
N1990 H2002 0.984 1_545 S
N1990 H2003 0.985 . S
N1991 C1993 1.367 . S
N1991 H1996 0.984 . S
N1991 H1997 0.985 1_565 S
C1992 C1986 1.350 1_545 S
C1992 C1989 1.392 . S
C1992 N1990 1.367 . S
C1993 C1987 1.392 . S
C1993 C1988 1.350 1_565 S
C1993 N1991 1.367 . S
N1994 C1986 1.356 . S
N1994 H2000 0.984 . S
N1994 H2001 0.984 . S
N1995 C1988 1.356 . S
N1995 H1998 0.984 . S
N1995 H1999 0.985 . S
H1996 N1991 0.984 . S
H1997 N1991 0.985 1_545 S
H1998 N1995 0.984 . S
H1999 N1995 0.985 . S
H2000 N1994 0.984 . S
H2001 N1994 0.984 . S
H2002 N1990 0.984 1_565 S
H2003 N1990 0.985 . S
C2004 C2005 1.363 . S
C2004 C2010 1.379 . S
C2004 N2012 1.356 1_545 S
C2005 C2004 1.363 . S
C2005 C2011 1.363 . S
C2006 C2007 1.363 . S
C2006 C2011 1.379 . S
C2006 N2013 1.356 . S
C2007 C2006 1.363 . S
C2007 C2010 1.363 . S
N2008 C2010 1.356 1_565 S
N2008 H2020 0.984 . S
N2008 H2021 0.986 . S
N2009 C2011 1.356 . S
N2009 H2014 0.984 . S
N2009 H2015 0.985 . S
C2010 C2004 1.379 . S
C2010 C2007 1.363 . S
C2010 N2008 1.356 1_545 S
C2011 C2005 1.363 . S
C2011 C2006 1.379 . S
C2011 N2009 1.356 . S
N2012 C2004 1.356 1_565 S
N2012 H2018 0.984 . S
N2012 H2019 0.986 . S
N2013 C2006 1.356 . S
N2013 H2016 0.984 . S
N2013 H2017 0.985 . S
H2014 N2009 0.984 . S
H2015 N2009 0.985 . S
H2016 N2013 0.984 . S
H2017 N2013 0.985 . S
H2018 N2012 0.984 . S
H2019 N2012 0.986 . S
H2020 N2008 0.984 . S
H2021 N2008 0.986 . S
C2022 C2023 1.363 . S
C2022 C2028 1.379 . S
C2022 N2030 1.356 . S
C2023 C2022 1.363 . S
C2023 C2029 1.363 . S
C2024 C2025 1.363 . S
C2024 C2029 1.379 . S
C2024 N2031 1.356 . S
C2025 C2024 1.363 . S
C2025 C2028 1.363 . S
N2026 C2028 1.356 . S
N2026 H2038 0.984 . S
N2026 H2039 0.985 . S
N2027 C2029 1.356 . S
N2027 H2032 0.984 . S
N2027 H2033 0.985 . S
C2028 C2022 1.379 . S
C2028 C2025 1.363 . S
C2028 N2026 1.356 . S
C2029 C2023 1.363 . S
C2029 C2024 1.379 . S
C2029 N2027 1.356 . S
N2030 C2022 1.356 . S
N2030 H2036 0.984 . S
N2030 H2037 0.984 . S
N2031 C2024 1.356 . S
N2031 H2034 0.984 . S
N2031 H2035 0.985 . S
H2032 N2027 0.984 . S
H2033 N2027 0.985 . S
H2034 N2031 0.984 . S
H2035 N2031 0.985 . S
H2036 N2030 0.984 . S
H2037 N2030 0.984 . S
H2038 N2026 0.984 . S
H2039 N2026 0.985 . S
C2040 C2041 1.363 . S
C2040 C2046 1.379 1_556 S
C2040 N2048 1.356 1_565 S
C2041 C2040 1.363 . S
C2041 C2047 1.363 . S
C2042 C2043 1.363 . S
C2042 C2047 1.379 1_554 S
C2042 N2049 1.356 . S
C2043 C2042 1.363 . S
C2043 C2046 1.363 . S
N2044 C2046 1.356 1_545 S
N2044 H2056 0.984 . S
N2044 H2057 0.986 . S
N2045 C2047 1.356 . S
N2045 H2050 0.984 . S
N2045 H2051 0.985 . S
C2046 C2040 1.379 1_554 S
C2046 C2043 1.363 . S
C2046 N2044 1.356 1_565 S
C2047 C2041 1.363 . S
C2047 C2042 1.379 1_556 S
C2047 N2045 1.356 . S
N2048 C2040 1.356 1_545 S
N2048 H2054 0.984 . S
N2048 H2055 0.986 . S
N2049 C2042 1.356 . S
N2049 H2052 0.984 . S
N2049 H2053 0.985 . S
H2050 N2045 0.984 . S
H2051 N2045 0.985 . S
H2052 N2049 0.984 . S
H2053 N2049 0.985 . S
H2054 N2048 0.984 . S
H2055 N2048 0.986 . S
H2056 N2044 0.984 . S
H2057 N2044 0.986 . S
C2058 C2059 1.363 . S
C2058 C2064 1.379 1_554 S
C2058 N2066 1.356 . S
C2059 C2058 1.363 . S
C2059 C2065 1.363 . S
C2060 C2061 1.363 . S
C2060 C2065 1.379 1_556 S
C2060 N2067 1.356 . S
C2061 C2060 1.363 . S
C2061 C2064 1.363 . S
N2062 C2064 1.356 . S
N2062 H2074 0.984 . S
N2062 H2075 0.985 . S
N2063 C2065 1.356 . S
N2063 H2068 0.984 . S
N2063 H2069 0.985 . S
C2064 C2058 1.379 1_556 S
C2064 C2061 1.363 . S
C2064 N2062 1.356 . S
C2065 C2059 1.363 . S
C2065 C2060 1.379 1_554 S
C2065 N2063 1.356 . S
N2066 C2058 1.356 . S
N2066 H2072 0.984 . S
N2066 H2073 0.984 . S
N2067 C2060 1.356 . S
N2067 H2070 0.984 . S
N2067 H2071 0.985 . S
H2068 N2063 0.984 . S
H2069 N2063 0.985 . S
H2070 N2067 0.984 . S
H2071 N2067 0.985 . S
H2072 N2066 0.984 . S
H2073 N2066 0.984 . S
H2074 N2062 0.984 . S
H2075 N2062 0.985 . S
C2076 C2077 1.363 . S
C2076 C2082 1.379 . S
C2076 N2084 1.356 1_554 S
C2077 C2076 1.363 . S
C2077 C2083 1.363 . S
C2078 C2079 1.363 . S
C2078 C2083 1.379 . S
C2078 N2085 1.356 . S
C2079 C2078 1.363 . S
C2079 C2082 1.363 . S
N2080 C2082 1.356 1_556 S
N2080 H2092 0.984 . S
N2080 H2093 0.986 . S
N2081 C2083 1.356 . S
N2081 H2086 0.984 . S
N2081 H2087 0.985 . S
C2082 C2076 1.379 . S
C2082 C2079 1.363 . S
C2082 N2080 1.356 1_554 S
C2083 C2077 1.363 . S
C2083 C2078 1.379 . S
C2083 N2081 1.356 . S
N2084 C2076 1.356 1_556 S
N2084 H2090 0.984 . S
N2084 H2091 0.986 . S
N2085 C2078 1.356 . S
N2085 H2088 0.984 . S
N2085 H2089 0.985 . S
H2086 N2081 0.984 . S
H2087 N2081 0.985 . S
H2088 N2085 0.984 . S
H2089 N2085 0.985 . S
H2090 N2084 0.984 . S
H2091 N2084 0.986 . S
H2092 N2080 0.984 . S
H2093 N2080 0.986 . S
C2094 C2095 1.363 . S
C2094 C2100 1.379 . S
C2094 N2102 1.356 . S
C2095 C2094 1.363 . S
C2095 C2101 1.363 . S
C2096 C2097 1.363 . S
C2096 C2101 1.379 . S
C2096 N2103 1.356 . S
C2097 C2096 1.363 . S
C2097 C2100 1.363 . S
N2098 C2100 1.356 . S
N2098 H2110 0.984 . S
N2098 H2111 0.985 . S
N2099 C2101 1.356 . S
N2099 H2104 0.984 . S
N2099 H2105 0.985 . S
C2100 C2094 1.379 . S
C2100 C2097 1.363 . S
C2100 N2098 1.356 . S
C2101 C2095 1.363 . S
C2101 C2096 1.379 . S
C2101 N2099 1.356 . S
N2102 C2094 1.356 . S
N2102 H2108 0.984 . S
N2102 H2109 0.984 . S
N2103 C2096 1.356 . S
N2103 H2106 0.984 . S
N2103 H2107 0.985 . S
H2104 N2099 0.984 . S
H2105 N2099 0.985 . S
H2106 N2103 0.984 . S
H2107 N2103 0.985 . S
H2108 N2102 0.984 . S
H2109 N2102 0.984 . S
H2110 N2098 0.984 . S
H2111 N2098 0.985 . S
C2112 C2113 1.363 . S
C2112 C2118 1.379 1_455 S
C2112 N2120 1.356 . S
C2113 C2112 1.363 . S
C2113 C2119 1.363 . S
C2114 C2115 1.363 . S
C2114 C2119 1.379 1_655 S
C2114 N2121 1.356 . S
C2115 C2114 1.363 . S
C2115 C2118 1.363 . S
N2116 C2118 1.356 . S
N2116 H2128 0.984 . S
N2116 H2129 0.985 . S
N2117 C2119 1.356 . S
N2117 H2122 0.984 . S
N2117 H2123 0.985 . S
C2118 C2112 1.379 1_655 S
C2118 C2115 1.363 . S
C2118 N2116 1.356 . S
C2119 C2113 1.363 . S
C2119 C2114 1.379 1_455 S
C2119 N2117 1.356 . S
N2120 C2112 1.356 . S
N2120 H2126 0.984 . S
N2120 H2127 0.984 . S
N2121 C2114 1.356 . S
N2121 H2124 0.984 . S
N2121 H2125 0.985 . S
H2122 N2117 0.984 . S
H2123 N2117 0.985 . S
H2124 N2121 0.984 . S
H2125 N2121 0.985 . S
H2126 N2120 0.984 . S
H2127 N2120 0.984 . S
H2128 N2116 0.984 . S
H2129 N2116 0.985 . S
C2130 C2131 1.363 . S
C2130 C2136 1.379 . S
C2130 N2138 1.356 . S
C2131 C2130 1.363 . S
C2131 C2137 1.363 . S
C2132 C2133 1.363 . S
C2132 C2137 1.379 . S
C2132 N2139 1.356 . S
C2133 C2132 1.363 . S
C2133 C2136 1.363 . S
N2134 C2136 1.356 . S
N2134 H2146 0.984 . S
N2134 H2147 0.985 . S
N2135 C2137 1.356 . S
N2135 H2140 0.984 . S
N2135 H2141 0.985 . S
C2136 C2130 1.379 . S
C2136 C2133 1.363 . S
C2136 N2134 1.356 . S
C2137 C2131 1.363 . S
C2137 C2132 1.379 . S
C2137 N2135 1.356 . S
N2138 C2130 1.356 . S
N2138 H2144 0.984 . S
N2138 H2145 0.984 . S
N2139 C2132 1.356 . S
N2139 H2142 0.984 . S
N2139 H2143 0.985 . S
H2140 N2135 0.984 . S
H2141 N2135 0.985 . S
H2142 N2139 0.984 . S
H2143 N2139 0.985 . S
H2144 N2138 0.984 . S
H2145 N2138 0.984 . S
H2146 N2134 0.984 . S
H2147 N2134 0.985 . S
C2148 C2149 1.363 . S
C2148 C2154 1.379 1_545 S
C2148 N2156 1.356 1_455 S
C2149 C2148 1.363 . S
C2149 C2155 1.363 . S
C2150 C2151 1.363 . S
C2150 C2155 1.379 1_565 S
C2150 N2157 1.356 . S
C2151 C2150 1.363 . S
C2151 C2154 1.363 . S
N2152 C2154 1.356 1_655 S
N2152 H2164 0.984 . S
N2152 H2165 0.985 . S
N2153 C2155 1.356 . S
N2153 H2158 0.984 . S
N2153 H2159 0.985 . S
C2154 C2148 1.379 1_565 S
C2154 C2151 1.363 . S
C2154 N2152 1.356 1_455 S
C2155 C2149 1.363 . S
C2155 C2150 1.379 1_545 S
C2155 N2153 1.356 . S
N2156 C2148 1.356 1_655 S
N2156 H2162 0.984 . S
N2156 H2163 0.984 . S
N2157 C2150 1.356 . S
N2157 H2160 0.984 . S
N2157 H2161 0.985 . S
H2158 N2153 0.984 . S
H2159 N2153 0.985 . S
H2160 N2157 0.984 . S
H2161 N2157 0.985 . S
H2162 N2156 0.984 . S
H2163 N2156 0.984 . S
H2164 N2152 0.984 . S
H2165 N2152 0.985 . S
C2166 C2167 1.363 . S
C2166 C2172 1.379 . S
C2166 N2174 1.356 1_565 S
C2167 C2166 1.363 . S
C2167 C2173 1.363 . S
C2168 C2169 1.363 . S
C2168 C2173 1.379 . S
C2168 N2175 1.356 . S
C2169 C2168 1.363 . S
C2169 C2172 1.363 . S
N2170 C2172 1.356 1_545 S
N2170 H2182 0.984 . S
N2170 H2183 0.986 . S
N2171 C2173 1.356 . S
N2171 H2176 0.984 . S
N2171 H2177 0.985 . S
C2172 C2166 1.379 . S
C2172 C2169 1.363 . S
C2172 N2170 1.356 1_565 S
C2173 C2167 1.363 . S
C2173 C2168 1.379 . S
C2173 N2171 1.356 . S
N2174 C2166 1.356 1_545 S
N2174 H2180 0.984 . S
N2174 H2181 0.986 . S
N2175 C2168 1.356 . S
N2175 H2178 0.984 . S
N2175 H2179 0.985 . S
H2176 N2171 0.984 . S
H2177 N2171 0.985 . S
H2178 N2175 0.984 . S
H2179 N2175 0.985 . S
H2180 N2174 0.984 . S
H2181 N2174 0.986 . S
H2182 N2170 0.984 . S
H2183 N2170 0.986 . S
C2184 C2185 1.363 . S
C2184 C2190 1.379 . S
C2184 N2192 1.356 . S
C2185 C2184 1.363 . S
C2185 C2191 1.363 . S
C2186 C2187 1.363 . S
C2186 C2191 1.379 . S
C2186 N2193 1.356 . S
C2187 C2186 1.363 . S
C2187 C2190 1.363 . S
N2188 C2190 1.356 . S
N2188 H2200 0.984 . S
N2188 H2201 0.985 . S
N2189 C2191 1.356 . S
N2189 H2194 0.984 . S
N2189 H2195 0.985 . S
C2190 C2184 1.379 . S
C2190 C2187 1.363 . S
C2190 N2188 1.356 . S
C2191 C2185 1.363 . S
C2191 C2186 1.379 . S
C2191 N2189 1.356 . S
N2192 C2184 1.356 . S
N2192 H2198 0.984 . S
N2192 H2199 0.984 . S
N2193 C2186 1.356 . S
N2193 H2196 0.984 . S
N2193 H2197 0.985 . S
H2194 N2189 0.984 . S
H2195 N2189 0.985 . S
H2196 N2193 0.984 . S
H2197 N2193 0.985 . S
H2198 N2192 0.984 . S
H2199 N2192 0.984 . S
H2200 N2188 0.984 . S
H2201 N2188 0.985 . S
C2202 C2203 1.363 . S
C2202 C2208 1.379 1_556 S
C2202 N2210 1.356 . S
C2203 C2202 1.363 . S
C2203 C2209 1.363 . S
C2204 C2205 1.363 . S
C2204 C2209 1.379 1_554 S
C2204 N2211 1.356 1_545 S
C2205 C2204 1.363 . S
C2205 C2208 1.363 . S
N2206 C2208 1.356 . S
N2206 H2218 0.984 . S
N2206 H2219 0.985 . S
N2207 C2209 1.356 1_565 S
N2207 H2212 0.986 . S
N2207 H2213 0.985 . S
C2208 C2202 1.379 1_554 S
C2208 C2205 1.363 . S
C2208 N2206 1.356 . S
C2209 C2203 1.363 . S
C2209 C2204 1.379 1_556 S
C2209 N2207 1.356 1_545 S
N2210 C2202 1.356 . S
N2210 H2216 0.984 . S
N2210 H2217 0.984 . S
N2211 C2204 1.356 1_565 S
N2211 H2214 0.986 . S
N2211 H2215 0.985 . S
H2212 N2207 0.986 . S
H2213 N2207 0.985 . S
H2214 N2211 0.986 . S
H2215 N2211 0.985 . S
H2216 N2210 0.984 . S
H2217 N2210 0.984 . S
H2218 N2206 0.984 . S
H2219 N2206 0.985 . S
C2220 C2221 1.363 . S
C2220 C2226 1.379 1_556 S
C2220 N2228 1.356 . S
C2221 C2220 1.363 . S
C2221 C2227 1.363 . S
C2222 C2223 1.363 . S
C2222 C2227 1.379 1_554 S
C2222 N2229 1.356 . S
C2223 C2222 1.363 . S
C2223 C2226 1.363 . S
N2224 C2226 1.356 . S
N2224 H2236 0.984 . S
N2224 H2237 0.985 . S
N2225 C2227 1.356 . S
N2225 H2230 0.984 . S
N2225 H2231 0.985 . S
C2226 C2220 1.379 1_554 S
C2226 C2223 1.363 . S
C2226 N2224 1.356 . S
C2227 C2221 1.363 . S
C2227 C2222 1.379 1_556 S
C2227 N2225 1.356 . S
N2228 C2220 1.356 . S
N2228 H2234 0.984 . S
N2228 H2235 0.984 . S
N2229 C2222 1.356 . S
N2229 H2232 0.984 . S
N2229 H2233 0.985 . S
H2230 N2225 0.984 . S
H2231 N2225 0.985 . S
H2232 N2229 0.984 . S
H2233 N2229 0.985 . S
H2234 N2228 0.984 . S
H2235 N2228 0.984 . S
H2236 N2224 0.984 . S
H2237 N2224 0.985 . S
C2238 C2239 1.363 . S
C2238 C2244 1.379 . S
C2238 N2246 1.356 . S
C2239 C2238 1.363 . S
C2239 C2245 1.363 . S
C2240 C2241 1.363 . S
C2240 C2245 1.379 . S
C2240 N2247 1.356 1_556 S
C2241 C2240 1.363 . S
C2241 C2244 1.363 . S
N2242 C2244 1.356 . S
N2242 H2254 0.984 . S
N2242 H2255 0.985 . S
N2243 C2245 1.356 1_554 S
N2243 H2248 0.986 . S
N2243 H2249 0.985 . S
C2244 C2238 1.379 . S
C2244 C2241 1.363 . S
C2244 N2242 1.356 . S
C2245 C2239 1.363 . S
C2245 C2240 1.379 . S
C2245 N2243 1.356 1_556 S
N2246 C2238 1.356 . S
N2246 H2252 0.984 . S
N2246 H2253 0.984 . S
N2247 C2240 1.356 1_554 S
N2247 H2250 0.986 . S
N2247 H2251 0.985 . S
H2248 N2243 0.986 . S
H2249 N2243 0.985 . S
H2250 N2247 0.986 . S
H2251 N2247 0.985 . S
H2252 N2246 0.984 . S
H2253 N2246 0.984 . S
H2254 N2242 0.984 . S
H2255 N2242 0.985 . S
C2256 C2257 1.363 . S
C2256 C2262 1.379 . S
C2256 N2264 1.356 . S
C2257 C2256 1.363 . S
C2257 C2263 1.363 . S
C2258 C2259 1.363 . S
C2258 C2263 1.379 . S
C2258 N2265 1.356 . S
C2259 C2258 1.363 . S
C2259 C2262 1.363 . S
N2260 C2262 1.356 . S
N2260 H2272 0.984 . S
N2260 H2273 0.985 . S
N2261 C2263 1.356 . S
N2261 H2266 0.984 . S
N2261 H2267 0.985 . S
C2262 C2256 1.379 . S
C2262 C2259 1.363 . S
C2262 N2260 1.356 . S
C2263 C2257 1.363 . S
C2263 C2258 1.379 . S
C2263 N2261 1.356 . S
N2264 C2256 1.356 . S
N2264 H2270 0.984 . S
N2264 H2271 0.984 . S
N2265 C2258 1.356 . S
N2265 H2268 0.984 . S
N2265 H2269 0.985 . S
H2266 N2261 0.984 . S
H2267 N2261 0.985 . S
H2268 N2265 0.984 . S
H2269 N2265 0.985 . S
H2270 N2264 0.984 . S
H2271 N2264 0.984 . S
H2272 N2260 0.984 . S
H2273 N2260 0.985 . S
C2274 C2275 1.363 . S
C2274 C2280 1.379 1_655 S
C2274 N2282 1.356 . S
C2275 C2274 1.363 . S
C2275 C2281 1.363 . S
C2276 C2277 1.363 . S
C2276 C2281 1.379 1_455 S
C2276 N2283 1.356 . S
C2277 C2276 1.363 . S
C2277 C2280 1.363 . S
N2278 C2280 1.356 . S
N2278 H2290 0.984 . S
N2278 H2291 0.985 . S
N2279 C2281 1.356 . S
N2279 H2284 0.984 . S
N2279 H2285 0.985 . S
C2280 C2274 1.379 1_455 S
C2280 C2277 1.363 . S
C2280 N2278 1.356 . S
C2281 C2275 1.363 . S
C2281 C2276 1.379 1_655 S
C2281 N2279 1.356 . S
N2282 C2274 1.356 . S
N2282 H2288 0.984 . S
N2282 H2289 0.984 . S
N2283 C2276 1.356 . S
N2283 H2286 0.984 . S
N2283 H2287 0.985 . S
H2284 N2279 0.984 . S
H2285 N2279 0.985 . S
H2286 N2283 0.984 . S
H2287 N2283 0.985 . S
H2288 N2282 0.984 . S
H2289 N2282 0.984 . S
H2290 N2278 0.984 . S
H2291 N2278 0.985 . S
C2292 C2293 1.363 . S
C2292 C2298 1.379 1_545 S
C2292 N2300 1.356 . S
C2293 C2292 1.363 . S
C2293 C2299 1.363 . S
C2294 C2295 1.363 . S
C2294 C2299 1.379 1_565 S
C2294 N2301 1.356 . S
C2295 C2294 1.363 . S
C2295 C2298 1.363 . S
N2296 C2298 1.356 . S
N2296 H2308 0.984 . S
N2296 H2309 0.985 . S
N2297 C2299 1.356 . S
N2297 H2302 0.984 . S
N2297 H2303 0.985 . S
C2298 C2292 1.379 1_565 S
C2298 C2295 1.363 . S
C2298 N2296 1.356 . S
C2299 C2293 1.363 . S
C2299 C2294 1.379 1_545 S
C2299 N2297 1.356 . S
N2300 C2292 1.356 . S
N2300 H2306 0.984 . S
N2300 H2307 0.984 . S
N2301 C2294 1.356 . S
N2301 H2304 0.984 . S
N2301 H2305 0.985 . S
H2302 N2297 0.984 . S
H2303 N2297 0.985 . S
H2304 N2301 0.984 . S
H2305 N2301 0.985 . S
H2306 N2300 0.984 . S
H2307 N2300 0.984 . S
H2308 N2296 0.984 . S
H2309 N2296 0.985 . S
C2310 C2311 1.363 . S
C2310 C2316 1.379 . S
C2310 N2318 1.356 . S
C2311 C2310 1.363 . S
C2311 C2317 1.363 . S
C2312 C2313 1.363 . S
C2312 C2317 1.379 . S
C2312 N2319 1.356 . S
C2313 C2312 1.363 . S
C2313 C2316 1.363 . S
N2314 C2316 1.356 . S
N2314 H2326 0.984 . S
N2314 H2327 0.985 . S
N2315 C2317 1.356 . S
N2315 H2320 0.984 . S
N2315 H2321 0.985 . S
C2316 C2310 1.379 . S
C2316 C2313 1.363 . S
C2316 N2314 1.356 . S
C2317 C2311 1.363 . S
C2317 C2312 1.379 . S
C2317 N2315 1.356 . S
N2318 C2310 1.356 . S
N2318 H2324 0.984 . S
N2318 H2325 0.984 . S
N2319 C2312 1.356 . S
N2319 H2322 0.984 . S
N2319 H2323 0.985 . S
H2320 N2315 0.984 . S
H2321 N2315 0.985 . S
H2322 N2319 0.984 . S
H2323 N2319 0.985 . S
H2324 N2318 0.984 . S
H2325 N2318 0.984 . S
H2326 N2314 0.984 . S
H2327 N2314 0.985 . S
C2328 C2329 1.363 . S
C2328 C2334 1.379 1_455 S
C2328 N2336 1.356 1_556 S
C2329 C2328 1.363 . S
C2329 C2335 1.363 . S
C2330 C2331 1.363 . S
C2330 C2335 1.379 1_655 S
C2330 N2337 1.356 . S
C2331 C2330 1.363 . S
C2331 C2334 1.363 . S
N2332 C2334 1.356 1_554 S
N2332 H2344 0.984 . S
N2332 H2345 0.986 . S
N2333 C2335 1.356 . S
N2333 H2338 0.984 . S
N2333 H2339 0.985 . S
C2334 C2328 1.379 1_655 S
C2334 C2331 1.363 . S
C2334 N2332 1.356 1_556 S
C2335 C2329 1.363 . S
C2335 C2330 1.379 1_455 S
C2335 N2333 1.356 . S
N2336 C2328 1.356 1_554 S
N2336 H2342 0.984 . S
N2336 H2343 0.986 . S
N2337 C2330 1.356 . S
N2337 H2340 0.984 . S
N2337 H2341 0.985 . S
H2338 N2333 0.984 . S
H2339 N2333 0.985 . S
H2340 N2337 0.984 . S
H2341 N2337 0.985 . S
H2342 N2336 0.984 . S
H2343 N2336 0.986 . S
H2344 N2332 0.984 . S
H2345 N2332 0.986 . S
C2346 C2347 1.363 . S
C2346 C2352 1.379 1_545 S
C2346 N2354 1.356 . S
C2347 C2346 1.363 . S
C2347 C2353 1.363 . S
C2348 C2349 1.363 . S
C2348 C2353 1.379 1_565 S
C2348 N2355 1.356 . S
C2349 C2348 1.363 . S
C2349 C2352 1.363 . S
N2350 C2352 1.356 . S
N2350 H2362 0.984 . S
N2350 H2363 0.985 . S
N2351 C2353 1.356 . S
N2351 H2356 0.984 . S
N2351 H2357 0.985 . S
C2352 C2346 1.379 1_565 S
C2352 C2349 1.363 . S
C2352 N2350 1.356 . S
C2353 C2347 1.363 . S
C2353 C2348 1.379 1_545 S
C2353 N2351 1.356 . S
N2354 C2346 1.356 . S
N2354 H2360 0.984 . S
N2354 H2361 0.984 . S
N2355 C2348 1.356 . S
N2355 H2358 0.984 . S
N2355 H2359 0.985 . S
H2356 N2351 0.984 . S
H2357 N2351 0.985 . S
H2358 N2355 0.984 . S
H2359 N2355 0.985 . S
H2360 N2354 0.984 . S
H2361 N2354 0.984 . S
H2362 N2350 0.984 . S
H2363 N2350 0.985 . S
C2364 C2365 1.363 . S
C2364 C2370 1.379 . S
C2364 N2372 1.356 . S
C2365 C2364 1.363 . S
C2365 C2371 1.363 . S
C2366 C2367 1.363 . S
C2366 C2371 1.379 . S
C2366 N2373 1.356 . S
C2367 C2366 1.363 . S
C2367 C2370 1.363 . S
N2368 C2370 1.356 . S
N2368 H2380 0.984 . S
N2368 H2381 0.985 . S
N2369 C2371 1.356 . S
N2369 H2374 0.984 . S
N2369 H2375 0.985 . S
C2370 C2364 1.379 . S
C2370 C2367 1.363 . S
C2370 N2368 1.356 . S
C2371 C2365 1.363 . S
C2371 C2366 1.379 . S
C2371 N2369 1.356 . S
N2372 C2364 1.356 . S
N2372 H2378 0.984 . S
N2372 H2379 0.984 . S
N2373 C2366 1.356 . S
N2373 H2376 0.984 . S
N2373 H2377 0.985 . S
H2374 N2369 0.984 . S
H2375 N2369 0.985 . S
H2376 N2373 0.984 . S
H2377 N2373 0.985 . S
H2378 N2372 0.984 . S
H2379 N2372 0.984 . S
H2380 N2368 0.984 . S
H2381 N2368 0.985 . S
C2382 C2383 1.363 . S
C2382 C2388 1.379 1_455 S
C2382 N2390 1.356 1_554 S
C2383 C2382 1.363 . S
C2383 C2389 1.363 . S
C2384 C2385 1.363 . S
C2384 C2389 1.379 1_655 S
C2384 N2391 1.356 . S
C2385 C2384 1.363 . S
C2385 C2388 1.363 . S
N2386 C2388 1.356 1_556 S
N2386 H2398 0.984 . S
N2386 H2399 0.986 . S
N2387 C2389 1.356 . S
N2387 H2392 0.984 . S
N2387 H2393 0.985 . S
C2388 C2382 1.379 1_655 S
C2388 C2385 1.363 . S
C2388 N2386 1.356 1_554 S
C2389 C2383 1.363 . S
C2389 C2384 1.379 1_455 S
C2389 N2387 1.356 . S
N2390 C2382 1.356 1_556 S
N2390 H2396 0.984 . S
N2390 H2397 0.986 . S
N2391 C2384 1.356 . S
N2391 H2394 0.984 . S
N2391 H2395 0.985 . S
H2392 N2387 0.984 . S
H2393 N2387 0.985 . S
H2394 N2391 0.984 . S
H2395 N2391 0.985 . S
H2396 N2390 0.984 . S
H2397 N2390 0.986 . S
H2398 N2386 0.984 . S
H2399 N2386 0.986 . S
C673 C22 1.729 . S
C675 C8 1.729 . S
C691 C36 1.729 . S
C693 C50 1.729 . S
C709 C92 1.729 . S
C711 C64 1.729 . S
C727 C106 1.729 . S
C729 C78 1.729 . S
C745 C120 1.729 . S
C747 C484 1.729 . S
C763 C134 1.729 . S
C765 C162 1.729 . S
C781 C456 1.729 . S
C783 C148 1.729 . S
C799 C190 1.729 . S
C801 C176 1.729 . S
C817 C218 1.729 . S
C819 C204 1.729 . S
C835 C260 1.729 . S
C837 C232 1.729 . S
C853 C274 1.729 . S
C855 C246 1.729 . S
C871 C288 1.729 . S
C873 C652 1.729 . S
C889 C302 1.729 . S
C891 C330 1.729 . S
C907 C624 1.729 . S
C909 C316 1.729 . S
C925 C344 1.729 . S
C927 C358 1.729 . S
C943 C386 1.729 . S
C945 C372 1.729 . S
C961 C400 1.729 . S
C963 C428 1.729 . S
C979 C442 1.729 . S
C981 C414 1.729 . S
C997 C498 1.729 . S
C999 C470 1.729 . S
C1015 C526 1.729 . S
C1017 C512 1.729 . S
C1033 C540 1.729 . S
C1035 C554 1.729 . S
C1051 C596 1.729 . S
C1053 C568 1.729 . S
C1069 C582 1.729 . S
C1071 C610 1.729 . S
C1087 C638 1.729 . S
C1089 C666 1.729 . S
C1105 C619 1.429 . S
C1107 C7 1.390 . S
C1123 C325 1.429 . S
C1125 C21 1.390 . S
C1141 C633 1.429 . S
C1143 C35 1.390 . S
C1159 C49 1.390 . S
C1161 C647 1.429 . S
C1177 C63 1.390 . S
C1179 C507 1.429 . S
C1195 C521 1.429 . S
C1197 C77 1.390 . S
C1213 C91 1.390 . S
C1215 C535 1.429 . S
C1231 C549 1.429 . S
C1233 C105 1.390 . S
C1249 C563 1.429 . S
C1251 C119 1.390 . S
C1267 C133 1.390 . S
C1269 C591 1.429 . S
C1285 C605 1.429 . S
C1287 C147 1.390 . S
C1303 C161 1.390 . S
C1305 C241 1.429 . S
C1321 C175 1.390 . S
C1323 C451 1.429 . S
C1339 C189 1.390 . S
C1341 C157 1.429 . S
C1357 C203 1.390 . S
C1359 C465 1.429 . S
C1375 C217 1.390 . S
C1377 C479 1.429 . S
C1393 C339 1.429 . S
C1395 C231 1.390 . S
C1411 C353 1.429 . S
C1413 C245 1.390 . S
C1429 C259 1.390 . S
C1431 C367 1.429 . S
C1447 C273 1.390 . S
C1449 C381 1.429 . S
C1465 C287 1.390 . S
C1467 C395 1.429 . S
C1483 C301 1.390 . S
C1485 C423 1.429 . S
C1501 C437 1.429 . S
C1503 C315 1.390 . S
C1519 C73 1.429 . S
C1521 C329 1.390 . S
C1537 C343 1.390 . S
C1539 C283 1.429 . S
C1555 C357 1.390 . S
C1557 C661 1.429 . S
C1573 C371 1.390 . S
C1575 C297 1.429 . S
C1591 C385 1.390 . S
C1593 C311 1.429 . S
C1609 C171 1.429 . S
C1611 C399 1.390 . S
C1627 C413 1.390 . S
C1629 C185 1.429 . S
C1645 C199 1.429 . S
C1647 C427 1.390 . S
C1663 C213 1.429 . S
C1665 C441 1.390 . S
C1681 C227 1.429 . S
C1683 C455 1.390 . S
C1699 C255 1.429 . S
C1701 C469 1.390 . S
C1717 C483 1.390 . S
C1719 C269 1.429 . S
C1735 C497 1.390 . S
C1737 C577 1.429 . S
C1753 C115 1.429 . S
C1755 C511 1.390 . S
C1771 C525 1.390 . S
C1773 C493 1.429 . S
C1789 C539 1.390 . S
C1791 C129 1.429 . S
C1807 C143 1.429 . S
C1809 C553 1.390 . S
C1825 C567 1.390 . S
C1827 C3 1.429 . S
C1843 C581 1.390 . S
C1845 C17 1.429 . S
C1861 C31 1.429 . S
C1863 C595 1.390 . S
C1879 C609 1.390 . S
C1881 C45 1.429 . S
C1897 C623 1.390 . S
C1899 C59 1.429 . S
C1915 C87 1.429 . S
C1917 C637 1.390 . S
C1933 C651 1.390 . S
C1935 C101 1.429 . S
C1951 C409 1.429 . S
C1953 C665 1.390 . S
C1969 C37 1.118 . S
C1971 C9 1.118 . S
C1987 C51 1.118 . S
C1989 C23 1.118 . S
C2005 C443 1.118 . S
C2007 C65 1.118 . S
C2023 C429 1.118 . S
C2025 C79 1.118 . S
C2041 C415 1.118 . S
C2043 C93 1.118 . S
C2059 C107 1.118 . S
C2061 C401 1.118 . S
C2077 C121 1.118 . S
C2079 C499 1.118 . S
C2095 C149 1.118 . S
C2097 C135 1.118 . S
C2113 C163 1.118 . S
C2115 C457 1.118 . S
C2131 C205 1.118 . S
C2133 C177 1.118 . S
C2149 C219 1.118 . S
C2151 C191 1.118 . S
C2167 C611 1.118 . S
C2169 C233 1.118 . S
C2185 C597 1.118 . S
C2187 C247 1.118 . S
C2203 C261 1.118 . S
C2205 C583 1.118 . S
C2221 C275 1.118 . S
C2223 C569 1.118 . S
C2239 C667 1.118 . S
C2241 C289 1.118 . S
C2257 C317 1.118 . S
C2259 C303 1.118 . S
C2275 C331 1.118 . S
C2277 C625 1.118 . S
C2293 C373 1.118 . S
C2295 C345 1.118 . S
C2311 C359 1.118 . S
C2313 C387 1.118 . S
C2329 C485 1.118 . S
C2331 C471 1.118 . S
C2347 C513 1.118 . S
C2349 C541 1.118 . S
C2365 C527 1.118 . S
C2367 C555 1.118 . S
C2383 C639 1.118 . S
C2385 C653 1.118 . S
