# Generated by pormake.
# Topology wkf, (6)-cn, num edge types: 1
# Building blocks:
#     Node 0, Type 0, BuildingBlock: CUKXOW_clean_sbu_0, # of connection points: 6
#     Node 1, Type 0, BuildingBlock: CUKXOW_clean_sbu_0, # of connection points: 6
#     Node 2, Type 0, BuildingBlock: CUKXOW_clean_sbu_0, # of connection points: 6
#     Node 3, Type 0, BuildingBlock: CUKXOW_clean_sbu_0, # of connection points: 6
#     Node 4, Type 0, BuildingBlock: CUKXOW_clean_sbu_0, # of connection points: 6
#     Node 5, Type 0, BuildingBlock: CUKXOW_clean_sbu_0, # of connection points: 6
#     Node 6, Type 0, BuildingBlock: CUKXOW_clean_sbu_0, # of connection points: 6
#     Node 7, Type 0, BuildingBlock: CUKXOW_clean_sbu_0, # of connection points: 6
#     Node 8, Type 0, BuildingBlock: CUKXOW_clean_sbu_0, # of connection points: 6
#     Node 9, Type 0, BuildingBlock: CUKXOW_clean_sbu_0, # of connection points: 6
#     Node 10, Type 0, BuildingBlock: CUKXOW_clean_sbu_0, # of connection points: 6
#     Node 11, Type 0, BuildingBlock: CUKXOW_clean_sbu_0, # of connection points: 6
#     Edge 12, Type (0, 0), BuildingBlock: EYOCIG_clean_linker_4, # of connection points: 2
#     Edge 13, Type (0, 0), BuildingBlock: EYOCIG_clean_linker_4, # of connection points: 2
#     Edge 14, Type (0, 0), BuildingBlock: EYOCIG_clean_linker_4, # of connection points: 2
#     Edge 15, Type (0, 0), BuildingBlock: EYOCIG_clean_linker_4, # of connection points: 2
#     Edge 16, Type (0, 0), BuildingBlock: EYOCIG_clean_linker_4, # of connection points: 2
#     Edge 17, Type (0, 0), BuildingBlock: EYOCIG_clean_linker_4, # of connection points: 2
#     Edge 18, Type (0, 0), BuildingBlock: EYOCIG_clean_linker_4, # of connection points: 2
#     Edge 19, Type (0, 0), BuildingBlock: EYOCIG_clean_linker_4, # of connection points: 2
#     Edge 20, Type (0, 0), BuildingBlock: EYOCIG_clean_linker_4, # of connection points: 2
#     Edge 21, Type (0, 0), BuildingBlock: EYOCIG_clean_linker_4, # of connection points: 2
#     Edge 22, Type (0, 0), BuildingBlock: EYOCIG_clean_linker_4, # of connection points: 2
#     Edge 23, Type (0, 0), BuildingBlock: EYOCIG_clean_linker_4, # of connection points: 2
#     Edge 24, Type (0, 0), BuildingBlock: EYOCIG_clean_linker_4, # of connection points: 2
#     Edge 25, Type (0, 0), BuildingBlock: EYOCIG_clean_linker_4, # of connection points: 2
#     Edge 26, Type (0, 0), BuildingBlock: EYOCIG_clean_linker_4, # of connection points: 2
#     Edge 27, Type (0, 0), BuildingBlock: EYOCIG_clean_linker_4, # of connection points: 2
#     Edge 28, Type (0, 0), BuildingBlock: EYOCIG_clean_linker_4, # of connection points: 2
#     Edge 29, Type (0, 0), BuildingBlock: EYOCIG_clean_linker_4, # of connection points: 2
#     Edge 30, Type (0, 0), BuildingBlock: EYOCIG_clean_linker_4, # of connection points: 2
#     Edge 31, Type (0, 0), BuildingBlock: EYOCIG_clean_linker_4, # of connection points: 2
#     Edge 32, Type (0, 0), BuildingBlock: EYOCIG_clean_linker_4, # of connection points: 2
#     Edge 33, Type (0, 0), BuildingBlock: EYOCIG_clean_linker_4, # of connection points: 2
#     Edge 34, Type (0, 0), BuildingBlock: EYOCIG_clean_linker_4, # of connection points: 2
#     Edge 35, Type (0, 0), BuildingBlock: EYOCIG_clean_linker_4, # of connection points: 2
#     Edge 36, Type (0, 0), BuildingBlock: EYOCIG_clean_linker_4, # of connection points: 2
#     Edge 37, Type (0, 0), BuildingBlock: EYOCIG_clean_linker_4, # of connection points: 2
#     Edge 38, Type (0, 0), BuildingBlock: EYOCIG_clean_linker_4, # of connection points: 2
#     Edge 39, Type (0, 0), BuildingBlock: EYOCIG_clean_linker_4, # of connection points: 2
#     Edge 40, Type (0, 0), BuildingBlock: EYOCIG_clean_linker_4, # of connection points: 2
#     Edge 41, Type (0, 0), BuildingBlock: EYOCIG_clean_linker_4, # of connection points: 2
#     Edge 42, Type (0, 0), BuildingBlock: EYOCIG_clean_linker_4, # of connection points: 2
#     Edge 43, Type (0, 0), BuildingBlock: EYOCIG_clean_linker_4, # of connection points: 2
#     Edge 44, Type (0, 0), BuildingBlock: EYOCIG_clean_linker_4, # of connection points: 2
#     Edge 45, Type (0, 0), BuildingBlock: EYOCIG_clean_linker_4, # of connection points: 2
#     Edge 46, Type (0, 0), BuildingBlock: EYOCIG_clean_linker_4, # of connection points: 2
#     Edge 47, Type (0, 0), BuildingBlock: EYOCIG_clean_linker_4, # of connection points: 2
# Relax obj value: 0.112
# Max RMSD: 0.282
# Mean RMSD: 0.282
data_MOF--net-wkf--node1-CUKXOW_clean_sbu_0--edge1-EYOCIG_clean_linker_4
_symmetry_space_group_name_H-M    P1
_symmetry_Int_Tables_number       1
_symmetry_cell_setting            triclinic
loop_
_symmetry_equiv_pos_as_xyz
'x, y, z'
_cell_length_a     21.784554
_cell_length_b     21.781306
_cell_length_c     58.679451
_cell_angle_alpha  89.992613
_cell_angle_beta   90.014884
_cell_angle_gamma 119.97921
loop_
_atom_site_label
_atom_site_type_symbol
_atom_site_fract_x
_atom_site_fract_y
_atom_site_fract_z
_atom_type_partial_charge
Tb0 Tb 0.37404 0.13079 0.43616 0.0
C1 C 0.33252 0.97095 0.44504 0.0
Tb2 Tb 0.46555 0.07175 0.41308 0.0
O3 O 0.29979 0.10018 0.40632 0.0
O4 O 0.36438 0.05816 0.41144 0.0
O5 O 0.31772 0.02224 0.44917 0.0
C6 C 0.49485 0.98891 0.38927 0.0
O7 O 0.38713 0.97949 0.43252 0.0
C8 C 0.54009 0.17682 0.4414 0.0
C9 C 0.48215 0.21507 0.39761 0.0
O10 O 0.50327 0.99739 0.41117 0.0
O11 O 0.47352 0.02973 0.38046 0.0
O12 O 0.5675 0.15103 0.42736 0.0
O13 O 0.47314 0.13422 0.44174 0.0
O14 O 0.48426 0.15829 0.39063 0.0
O15 O 0.45146 0.21901 0.41658 0.0
C16 C 0.33747 0.18742 0.47034 0.0
O17 O 0.33322 0.19903 0.44878 0.0
O18 O 0.36042 0.1431 0.47251 0.0
C19 C 0.32383 0.06166 0.39711 0.0
Tb20 Tb 0.24583 0.37241 0.60288 0.0
C21 C 0.36434 0.33104 0.61131 0.0
Tb22 Tb 0.39757 0.4652 0.57969 0.0
O23 O 0.20349 0.29387 0.57395 0.0
O24 O 0.30847 0.36599 0.57768 0.0
O25 O 0.29877 0.31694 0.61591 0.0
C26 C 0.50879 0.49395 0.55551 0.0
O27 O 0.41027 0.38534 0.59866 0.0
C28 C 0.36643 0.53846 0.60834 0.0
C29 C 0.27007 0.48123 0.56434 0.0
O30 O 0.50939 0.50214 0.57745 0.0
O31 O 0.44653 0.47315 0.54689 0.0
O32 O 0.42003 0.56647 0.59445 0.0
O33 O 0.34199 0.47144 0.6084 0.0
O34 O 0.32968 0.48459 0.55748 0.0
O35 O 0.23467 0.44934 0.5831 0.0
C36 C 0.15246 0.33639 0.6369 0.0
O37 O 0.1368 0.33223 0.6153 0.0
O38 O 0.21966 0.35909 0.63917 0.0
C39 C 0.26557 0.32056 0.56416 0.0
Tb40 Tb 0.87648 0.24384 0.76941 0.0
C41 C 0.03594 0.36286 0.7784 0.0
Tb42 Tb 0.93463 0.39481 0.74651 0.0
O43 O 0.90855 0.20125 0.73964 0.0
O44 O 0.94873 0.30755 0.74474 0.0
O45 O 0.98484 0.29674 0.78258 0.0
C46 C 0.01601 0.5071 0.72255 0.0
O47 O 0.02721 0.40876 0.76582 0.0
C48 C 0.82947 0.36324 0.77492 0.0
C49 C 0.79198 0.26744 0.73086 0.0
O50 O 0.00846 0.50695 0.7445 0.0
O51 O 0.9752 0.44489 0.7138 0.0
O52 O 0.85526 0.41695 0.76109 0.0
O53 O 0.87216 0.33899 0.77503 0.0
O54 O 0.84841 0.32676 0.724 0.0
O55 O 0.78821 0.23262 0.74977 0.0
C56 C 0.81946 0.15013 0.80344 0.0
O57 O 0.80832 0.13455 0.78185 0.0
O58 O 0.86364 0.21737 0.80571 0.0
C59 C 0.94636 0.26394 0.73044 0.0
Tb60 Tb 0.63574 0.87524 0.93622 0.0
C61 C 0.67627 0.03477 0.94488 0.0
Tb62 Tb 0.54254 0.93294 0.91325 0.0
O63 O 0.71093 0.90782 0.90654 0.0
O64 O 0.64345 0.9464 0.91136 0.0
O65 O 0.69143 0.98381 0.94913 0.0
C66 C 0.51237 0.01528 0.88951 0.0
O67 O 0.62134 0.02573 0.93242 0.0
C68 C 0.46935 0.82818 0.94179 0.0
C69 C 0.52691 0.78973 0.89794 0.0
O70 O 0.50422 0.00683 0.91142 0.0
O71 O 0.53383 0.97463 0.88065 0.0
O72 O 0.44126 0.85353 0.92783 0.0
O73 O 0.53628 0.87111 0.94195 0.0
O74 O 0.52368 0.84595 0.89096 0.0
O75 O 0.55861 0.78655 0.91677 0.0
C76 C 0.67304 0.81914 0.97032 0.0
O77 O 0.6771 0.80742 0.94875 0.0
O78 O 0.64991 0.8633 0.97253 0.0
C79 C 0.68534 0.94482 0.89716 0.0
Tb80 Tb 0.76233 0.63362 0.10285 0.0
C81 C 0.64294 0.67334 0.11241 0.0
Tb82 Tb 0.6125 0.54241 0.07981 0.0
O83 O 0.80603 0.70597 0.07269 0.0
O84 O 0.69901 0.64475 0.07839 0.0
O85 O 0.70951 0.68912 0.11614 0.0
C86 C 0.5007 0.51305 0.05573 0.0
O87 O 0.59701 0.61863 0.09991 0.0
C88 C 0.64304 0.4671 0.10783 0.0
C89 C 0.7395 0.5264 0.06424 0.0
O90 O 0.50031 0.50385 0.0776 0.0
O91 O 0.56317 0.53527 0.04709 0.0
O92 O 0.58972 0.44003 0.09384 0.0
O93 O 0.66742 0.53404 0.10828 0.0
O94 O 0.68076 0.52455 0.05726 0.0
O95 O 0.77365 0.55646 0.08333 0.0
C96 C 0.85579 0.67097 0.13704 0.0
O97 O 0.87168 0.67608 0.11547 0.0
O98 O 0.78834 0.6468 0.13921 0.0
C99 C 0.74334 0.68353 0.06381 0.0
Tb100 Tb 0.13204 0.7619 0.2695 0.0
C101 C 0.97271 0.64287 0.27873 0.0
Tb102 Tb 0.07343 0.61107 0.24659 0.0
O103 O 0.10076 0.80477 0.23964 0.0
O104 O 0.05886 0.69821 0.24494 0.0
O105 O 0.02387 0.709 0.28283 0.0
C106 C 0.99173 0.49842 0.22281 0.0
O107 O 0.98117 0.597 0.26606 0.0
C108 C 0.17872 0.64205 0.27494 0.0
C109 C 0.21618 0.73815 0.23091 0.0
O110 O 0.99944 0.49894 0.24475 0.0
O111 O 0.03248 0.56049 0.21395 0.0
O112 O 0.15237 0.58818 0.26117 0.0
O113 O 0.13646 0.66681 0.275 0.0
O114 O 0.15954 0.67902 0.22403 0.0
O115 O 0.22019 0.77291 0.24985 0.0
C116 C 0.18871 0.8556 0.30356 0.0
O117 O 0.19939 0.87131 0.28197 0.0
O118 O 0.14528 0.78819 0.30582 0.0
C119 C 0.06214 0.74205 0.23055 0.0
Tb120 Tb 0.87649 0.6337 0.4751 0.0
C121 C 0.0357 0.67386 0.46571 0.0
Tb122 Tb 0.93517 0.5414 0.49791 0.0
O123 O 0.9072 0.70708 0.50513 0.0
O124 O 0.94976 0.64307 0.49961 0.0
O125 O 0.98465 0.68916 0.46178 0.0
C126 C 0.01769 0.51183 0.52185 0.0
O127 O 0.02713 0.61922 0.47823 0.0
C128 C 0.83017 0.46728 0.46948 0.0
C129 C 0.79157 0.52459 0.51333 0.0
O130 O 0.00918 0.50325 0.49996 0.0
O131 O 0.97708 0.53351 0.53059 0.0
O132 O 0.85657 0.43969 0.48322 0.0
O133 O 0.87227 0.53432 0.4695 0.0
O134 O 0.84814 0.522 0.52028 0.0
O135 O 0.78804 0.55608 0.4945 0.0
C136 C 0.81986 0.67119 0.44115 0.0
O137 O 0.80915 0.67594 0.46276 0.0
O138 O 0.86333 0.64727 0.43881 0.0
C139 C 0.94607 0.68309 0.51411 0.0
Tb140 Tb 0.24546 0.87489 0.64173 0.0
C141 C 0.36438 0.03426 0.63265 0.0
Tb142 Tb 0.39589 0.93319 0.66481 0.0
O143 O 0.20222 0.906 0.67154 0.0
O144 O 0.30876 0.94768 0.66642 0.0
O145 O 0.2983 0.98313 0.62847 0.0
C146 C 0.5085 0.0151 0.68856 0.0
O147 O 0.41012 0.02563 0.64535 0.0
C148 C 0.36515 0.82806 0.63645 0.0
C149 C 0.2687 0.79018 0.68024 0.0
O150 O 0.50802 0.00703 0.66664 0.0
O151 O 0.44641 0.97452 0.69743 0.0
O152 O 0.41862 0.85406 0.65037 0.0
O153 O 0.34065 0.87056 0.63624 0.0
O154 O 0.32772 0.84674 0.68724 0.0
O155 O 0.23424 0.78648 0.66126 0.0
C156 C 0.15203 0.81803 0.60763 0.0
O157 O 0.13635 0.80654 0.6292 0.0
O158 O 0.21921 0.86247 0.60541 0.0
C159 C 0.26479 0.9444 0.68075 0.0
Tb160 Tb 0.37321 0.24356 0.80865 0.0
C161 C 0.33273 0.36258 0.79933 0.0
Tb162 Tb 0.46514 0.3941 0.83146 0.0
O163 O 0.30096 0.20042 0.83888 0.0
O164 O 0.36317 0.30725 0.83318 0.0
O165 O 0.3173 0.29615 0.7955 0.0
C166 C 0.49569 0.5061 0.85559 0.0
O167 O 0.38755 0.4087 0.81178 0.0
C168 C 0.53947 0.36312 0.80314 0.0
C169 C 0.48171 0.26738 0.84699 0.0
O170 O 0.50365 0.5063 0.83366 0.0
O171 O 0.47387 0.44368 0.86423 0.0
O172 O 0.56699 0.41681 0.81698 0.0
O173 O 0.47252 0.33857 0.803 0.0
O174 O 0.48383 0.32628 0.85394 0.0
O175 O 0.4509 0.2327 0.82805 0.0
C176 C 0.33569 0.14992 0.7745 0.0
O177 O 0.33098 0.13415 0.79609 0.0
O178 O 0.35954 0.21732 0.77231 0.0
C179 C 0.32416 0.26322 0.84779 0.0
Tb180 Tb 0.1326 0.37173 0.97529 0.0
C181 C 0.97336 0.33128 0.96578 0.0
Tb182 Tb 0.07363 0.46367 0.99802 0.0
O183 O 0.10164 0.29795 1.00522 0.0
O184 O 0.05909 0.362 0.99977 0.0
O185 O 0.02445 0.31598 0.96194 0.0
C186 C 0.99076 0.49344 1.02165 0.0
O187 O 0.98186 0.38599 0.97824 0.0
C188 C 0.1794 0.53806 0.96989 0.0
C189 C 0.21678 0.48033 1.01375 0.0
O190 O 0.99982 0.50213 0.99978 0.0
O191 O 0.03095 0.47147 1.03055 0.0
O192 O 0.15325 0.56556 0.98375 0.0
O193 O 0.13679 0.4711 0.96959 0.0
O194 O 0.16001 0.48263 1.02061 0.0
O195 O 0.22071 0.44915 0.9949 0.0
C196 C 0.18947 0.33464 0.94131 0.0
O197 O 0.20031 0.32996 0.96291 0.0
O198 O 0.14576 0.35827 0.939 0.0
C199 C 0.06271 0.3218 1.01423 0.0
Tb200 Tb 0.76224 0.12964 0.14172 0.0
C201 C 0.64296 0.97022 0.13282 0.0
Tb202 Tb 0.61204 0.07202 0.16473 0.0
O203 O 0.80546 0.09952 0.17176 0.0
O204 O 0.69881 0.05692 0.16644 0.0
O205 O 0.70922 0.02106 0.12871 0.0
C206 C 0.49923 0.99034 0.18845 0.0
O207 O 0.59727 0.97931 0.14536 0.0
C208 C 0.64315 0.17708 0.13634 0.0
C209 C 0.73954 0.21469 0.1802 0.0
O210 O 0.49983 0.99838 0.16652 0.0
O211 O 0.56129 0.03091 0.19734 0.0
O212 O 0.58987 0.15154 0.15032 0.0
O213 O 0.66725 0.13425 0.13609 0.0
O214 O 0.68049 0.15822 0.1872 0.0
O215 O 0.77374 0.21833 0.16117 0.0
C216 C 0.85588 0.18576 0.10761 0.0
O217 O 0.87153 0.19721 0.12918 0.0
O218 O 0.78859 0.1418 0.10539 0.0
C219 C 0.74282 0.06094 0.18089 0.0
Tb220 Tb 0.63474 0.76186 0.3087 0.0
C221 C 0.67622 0.64365 0.29944 0.0
Tb222 Tb 0.54331 0.61096 0.33147 0.0
O223 O 0.70788 0.80515 0.33875 0.0
O224 O 0.64474 0.69843 0.33326 0.0
O225 O 0.69116 0.70989 0.29553 0.0
C226 C 0.51375 0.4985 0.35517 0.0
O227 O 0.62158 0.59734 0.31189 0.0
C228 C 0.46884 0.64164 0.30312 0.0
C229 C 0.52584 0.73702 0.34706 0.0
O230 O 0.50558 0.49887 0.33326 0.0
O231 O 0.53506 0.56055 0.36404 0.0
O232 O 0.44141 0.58804 0.31699 0.0
O233 O 0.53584 0.66635 0.30296 0.0
O234 O 0.52391 0.67817 0.35398 0.0
O235 O 0.55678 0.77202 0.32817 0.0
C236 C 0.6717 0.8557 0.27466 0.0
O237 O 0.67612 0.87124 0.29625 0.0
O238 O 0.6484 0.78841 0.27239 0.0
C239 C 0.68439 0.74243 0.34777 0.0
C240 C 0.24816 0.94101 0.33918 0.0
C241 C 0.22229 0.90398 0.32245 0.0
C242 C 0.27604 0.98318 0.35927 0.0
C243 C 0.29802 0.01876 0.37651 0.0
C244 C 0.29757 0.2744 0.52621 0.0
C245 C 0.28351 0.29576 0.5435 0.0
C246 C 0.3119 0.24676 0.50607 0.0
C247 C 0.32294 0.22097 0.4893 0.0
C248 C 0.02505 0.29599 0.69262 0.0
C249 C 0.98932 0.28166 0.70984 0.0
C250 C 0.06722 0.31061 0.67252 0.0
C251 C 0.10418 0.32175 0.65578 0.0
C252 C 0.7596 0.06495 0.83908 0.0
C253 C 0.78559 0.10184 0.82232 0.0
C254 C 0.7319 0.02298 0.85922 0.0
C255 C 0.71027 0.98765 0.87652 0.0
C256 C 0.69866 0.75971 1.00599 0.0
C257 C 0.68759 0.78555 0.98924 0.0
C258 C 0.71292 0.7318 1.02606 0.0
C259 C 0.72671 0.70979 0.04325 0.0
C260 C 0.98314 0.71082 0.19281 0.0
C261 C 0.01896 0.72468 0.21001 0.0
C262 C 0.94092 0.69656 0.17273 0.0
C263 C 0.90397 0.68555 0.15598 0.0
C264 C 0.06706 0.75819 0.57196 0.0
C265 C 0.10392 0.7842 0.58871 0.0
C266 C 0.02494 0.73037 0.55187 0.0
C267 C 0.98919 0.70861 0.53466 0.0
C268 C 0.29566 0.0228 0.71864 0.0
C269 C 0.28197 0.98725 0.70138 0.0
C270 C 0.30989 0.0648 0.73878 0.0
C271 C 0.32099 0.10167 0.75556 0.0
C272 C 0.24906 0.30875 0.90573 0.0
C273 C 0.22318 0.31989 0.92245 0.0
C274 C 0.27679 0.29433 0.88563 0.0
C275 C 0.29843 0.28031 0.8684 0.0
C276 C 0.94112 0.24556 0.07196 0.0
C277 C 0.9041 0.21952 0.08869 0.0
C278 C 0.98343 0.27375 0.05191 0.0
C279 C 0.01939 0.29582 1.03474 0.0
C280 C 0.69745 0.94095 0.239 0.0
C281 C 0.68637 0.90406 0.25577 0.0
C282 C 0.71179 0.9829 0.21885 0.0
C283 C 0.72565 0.01832 0.20156 0.0
C284 C 0.76003 0.69703 0.40562 0.0
C285 C 0.78604 0.68592 0.42232 0.0
C286 C 0.7321 0.71138 0.38556 0.0
C287 C 0.71028 0.72534 0.36835 0.0
C288 C 0.48078 0.81083 0.36706 0.0
C289 C 0.49592 0.76832 0.36067 0.0
C290 C 0.48084 0.87289 0.37231 0.0
C291 C 0.48612 0.92737 0.37844 0.0
C292 C 0.61024 0.47984 0.53815 0.0
C293 C 0.56116 0.48516 0.5444 0.0
C294 C 0.67224 0.47965 0.53299 0.0
C295 C 0.73 0.49459 0.52678 0.0
C296 C 0.19326 0.67152 0.70017 0.0
C297 C 0.23645 0.72899 0.69386 0.0
C298 C 0.13105 0.60961 0.70534 0.0
C299 C 0.07691 0.56013 0.71153 0.0
C300 C 0.52613 0.19314 0.86714 0.0
C301 C 0.51116 0.23568 0.86064 0.0
C302 C 0.52607 0.13116 0.87252 0.0
C303 C 0.5209 0.07678 0.87872 0.0
C304 C 0.33602 0.52606 1.03359 0.0
C305 C 0.27821 0.51062 1.02728 0.0
C306 C 0.39834 0.5265 1.03876 0.0
C307 C 0.44778 0.52158 0.04488 0.0
C308 C 0.87714 0.3951 0.20563 0.0
C309 C 0.93103 0.4449 0.21184 0.0
C310 C 0.81522 0.33305 0.20034 0.0
C311 C 0.77211 0.27572 0.19388 0.0
C312 C 0.13335 0.52517 0.53893 0.0
C313 C 0.07906 0.52021 0.53272 0.0
C314 C 0.1954 0.5253 0.54428 0.0
C315 C 0.23825 0.51069 0.55075 0.0
C316 C 0.6116 0.13025 0.70552 0.0
C317 C 0.56189 0.07612 0.69943 0.0
C318 C 0.67363 0.19232 0.71072 0.0
C319 C 0.73098 0.23536 0.71716 0.0
C320 C 0.48323 0.67069 0.87817 0.0
C321 C 0.49763 0.72824 0.88445 0.0
C322 C 0.48337 0.6087 0.87292 0.0
C323 C 0.48788 0.55917 0.86665 0.0
C324 C 0.81396 0.4823 0.044 0.0
C325 C 0.77152 0.49736 0.05054 0.0
C326 C 0.87551 0.48152 1.03859 0.0
C327 C 0.92953 0.48582 1.0324 0.0
C328 C 0.3964 0.87497 0.20541 0.0
C329 C 0.44594 0.92918 0.19928 0.0
C330 C 0.33446 0.81293 0.21069 0.0
C331 C 0.2771 0.77008 0.21718 0.0
C332 C 0.52667 0.39584 0.37216 0.0
C333 C 0.52187 0.44529 0.36599 0.0
C334 C 0.52646 0.33375 0.3775 0.0
C335 C 0.51151 0.27622 0.38397 0.0
C336 C 0.16519 0.77713 0.45697 0.0
C337 C 0.10707 0.72846 0.46127 0.0
C338 C 0.22907 0.84125 0.45348 0.0
C339 C 0.27767 0.89957 0.44934 0.0
C340 C 0.39059 0.2277 0.62011 0.0
C341 C 0.38087 0.27624 0.61579 0.0
C342 C 0.39075 0.16382 0.6238 0.0
C343 C 0.38119 0.10566 0.62815 0.0
C344 C 0.22957 0.38909 0.79059 0.0
C345 C 0.27817 0.37948 0.79488 0.0
C346 C 0.16559 0.38915 0.78702 0.0
C347 C 0.10737 0.37959 0.78278 0.0
C348 C 0.77964 0.1645 0.95332 0.0
C349 C 0.73088 0.1063 0.94915 0.0
C350 C 0.84376 0.22834 0.95689 0.0
C351 C 0.902 0.27677 0.96124 0.0
C352 C 0.61605 0.84024 0.12453 0.0
C353 C 0.62592 0.89864 0.12862 0.0
C354 C 0.61599 0.77616 0.12113 0.0
C355 C 0.6258 0.7277 0.11686 0.0
C356 C 0.77949 0.6173 0.29084 0.0
C357 C 0.731 0.62712 0.29504 0.0
C358 C 0.84327 0.61691 0.28736 0.0
C359 C 0.90139 0.6263 0.28311 0.0
C360 C 0.6978 0.37498 0.45722 0.0
C361 C 0.75724 0.42495 0.46114 0.0
C362 C 0.6321 0.30908 0.45386 0.0
C363 C 0.58233 0.24956 0.44992 0.0
C364 C 0.32534 0.69584 0.62407 0.0
C365 C 0.33472 0.75526 0.62798 0.0
C366 C 0.32564 0.63014 0.62073 0.0
C367 C 0.33548 0.58039 0.6168 0.0
C368 C 0.63143 0.32266 0.79078 0.0
C369 C 0.58166 0.33243 0.79473 0.0
C370 C 0.69718 0.3226 0.78737 0.0
C371 C 0.75668 0.33235 0.7834 0.0
C372 C 0.37778 0.69591 0.95431 0.0
C373 C 0.42757 0.75543 0.95036 0.0
C374 C 0.31191 0.63011 0.95764 0.0
C375 C 0.25234 0.58029 0.96152 0.0
C376 C 0.68321 0.30907 0.12367 0.0
C377 C 0.67369 0.24967 0.12769 0.0
C378 C 0.68303 0.37477 0.12024 0.0
C379 C 0.67333 0.42459 0.11629 0.0
C380 C 0.3767 0.68182 0.29069 0.0
C381 C 0.42651 0.67214 0.29466 0.0
C382 C 0.311 0.68201 0.28728 0.0
C383 C 0.25158 0.67256 0.28334 0.0
loop_
_geom_bond_atom_site_label_1
_geom_bond_atom_site_label_2
_geom_bond_distance
_geom_bond_site_symmetry_2
_ccdc_geom_bond_type
Tb0 O3 2.453 . S
Tb0 O4 2.596 . S
Tb0 O5 2.374 . S
Tb0 O13 2.343 . S
Tb0 O15 2.353 . S
Tb0 O17 2.427 . S
Tb0 O18 2.513 . S
C1 O5 1.251 1_565 S
C1 O7 1.263 . S
Tb2 O4 2.343 . S
Tb2 O7 2.353 1_545 S
Tb2 O10 2.427 1_545 S
Tb2 O11 2.513 . S
Tb2 O12 2.453 . S
Tb2 O13 2.596 . S
Tb2 O14 2.374 . S
O3 Tb0 2.453 . S
O3 C19 1.245 . S
O4 Tb0 2.596 . S
O4 Tb2 2.343 . S
O4 C19 1.259 . S
O5 Tb0 2.374 . S
O5 C1 1.251 1_545 S
C6 O10 1.275 . S
C6 O11 1.246 1_565 S
O7 C1 1.263 . S
O7 Tb2 2.353 1_565 S
C8 O12 1.245 . S
C8 O13 1.259 . S
C9 O14 1.250 . S
C9 O15 1.263 . S
O10 Tb2 2.427 1_565 S
O10 C6 1.275 . S
O11 Tb2 2.513 . S
O11 C6 1.246 1_545 S
O12 Tb2 2.453 . S
O12 C8 1.245 . S
O13 Tb0 2.343 . S
O13 Tb2 2.596 . S
O13 C8 1.259 . S
O14 Tb2 2.374 . S
O14 C9 1.250 . S
O15 Tb0 2.353 . S
O15 C9 1.263 . S
C16 O17 1.275 . S
C16 O18 1.246 . S
O17 Tb0 2.427 . S
O17 C16 1.275 . S
O18 Tb0 2.513 . S
O18 C16 1.246 . S
C19 O3 1.245 . S
C19 O4 1.259 . S
Tb20 O23 2.453 . S
Tb20 O24 2.596 . S
Tb20 O25 2.374 . S
Tb20 O33 2.343 . S
Tb20 O35 2.353 . S
Tb20 O37 2.427 . S
Tb20 O38 2.513 . S
C21 O25 1.251 . S
C21 O27 1.263 . S
Tb22 O24 2.343 . S
Tb22 O27 2.353 . S
Tb22 O30 2.427 . S
Tb22 O31 2.513 . S
Tb22 O32 2.453 . S
Tb22 O33 2.596 . S
Tb22 O34 2.374 . S
O23 Tb20 2.453 . S
O23 C39 1.245 . S
O24 Tb20 2.596 . S
O24 Tb22 2.343 . S
O24 C39 1.259 . S
O25 Tb20 2.374 . S
O25 C21 1.251 . S
C26 O30 1.275 . S
C26 O31 1.246 . S
O27 C21 1.263 . S
O27 Tb22 2.353 . S
C28 O32 1.245 . S
C28 O33 1.259 . S
C29 O34 1.250 . S
C29 O35 1.263 . S
O30 Tb22 2.427 . S
O30 C26 1.275 . S
O31 Tb22 2.513 . S
O31 C26 1.246 . S
O32 Tb22 2.453 . S
O32 C28 1.245 . S
O33 Tb20 2.343 . S
O33 Tb22 2.596 . S
O33 C28 1.259 . S
O34 Tb22 2.374 . S
O34 C29 1.250 . S
O35 Tb20 2.353 . S
O35 C29 1.263 . S
C36 O37 1.275 . S
C36 O38 1.246 . S
O37 Tb20 2.427 . S
O37 C36 1.275 . S
O38 Tb20 2.513 . S
O38 C36 1.246 . S
C39 O23 1.245 . S
C39 O24 1.259 . S
Tb40 O43 2.453 . S
Tb40 O44 2.596 . S
Tb40 O45 2.374 . S
Tb40 O53 2.343 . S
Tb40 O55 2.353 . S
Tb40 O57 2.427 . S
Tb40 O58 2.513 . S
C41 O45 1.251 1_455 S
C41 O47 1.263 . S
Tb42 O44 2.343 . S
Tb42 O47 2.353 1_655 S
Tb42 O50 2.427 1_655 S
Tb42 O51 2.513 . S
Tb42 O52 2.453 . S
Tb42 O53 2.596 . S
Tb42 O54 2.374 . S
O43 Tb40 2.453 . S
O43 C59 1.245 . S
O44 Tb40 2.596 . S
O44 Tb42 2.343 . S
O44 C59 1.259 . S
O45 Tb40 2.374 . S
O45 C41 1.251 1_655 S
C46 O50 1.275 . S
C46 O51 1.246 1_455 S
O47 C41 1.263 . S
O47 Tb42 2.353 1_455 S
C48 O52 1.245 . S
C48 O53 1.259 . S
C49 O54 1.250 . S
C49 O55 1.263 . S
O50 Tb42 2.427 1_455 S
O50 C46 1.275 . S
O51 Tb42 2.513 . S
O51 C46 1.246 1_655 S
O52 Tb42 2.453 . S
O52 C48 1.245 . S
O53 Tb40 2.343 . S
O53 Tb42 2.596 . S
O53 C48 1.259 . S
O54 Tb42 2.374 . S
O54 C49 1.250 . S
O55 Tb40 2.353 . S
O55 C49 1.263 . S
C56 O57 1.275 . S
C56 O58 1.246 . S
O57 Tb40 2.427 . S
O57 C56 1.275 . S
O58 Tb40 2.513 . S
O58 C56 1.246 . S
C59 O43 1.245 . S
C59 O44 1.259 . S
Tb60 O63 2.453 . S
Tb60 O64 2.596 . S
Tb60 O65 2.374 . S
Tb60 O73 2.343 . S
Tb60 O75 2.353 . S
Tb60 O77 2.427 . S
Tb60 O78 2.513 . S
C61 O65 1.251 1_545 S
C61 O67 1.263 . S
Tb62 O64 2.343 . S
Tb62 O67 2.353 1_565 S
Tb62 O70 2.427 1_565 S
Tb62 O71 2.513 . S
Tb62 O72 2.453 . S
Tb62 O73 2.596 . S
Tb62 O74 2.374 . S
O63 Tb60 2.453 . S
O63 C79 1.245 . S
O64 Tb60 2.596 . S
O64 Tb62 2.343 . S
O64 C79 1.259 . S
O65 Tb60 2.374 . S
O65 C61 1.251 1_565 S
C66 O70 1.275 . S
C66 O71 1.246 1_545 S
O67 C61 1.263 . S
O67 Tb62 2.353 1_545 S
C68 O72 1.245 . S
C68 O73 1.259 . S
C69 O74 1.250 . S
C69 O75 1.263 . S
O70 Tb62 2.427 1_545 S
O70 C66 1.275 . S
O71 Tb62 2.513 . S
O71 C66 1.246 1_565 S
O72 Tb62 2.453 . S
O72 C68 1.245 . S
O73 Tb60 2.343 . S
O73 Tb62 2.596 . S
O73 C68 1.259 . S
O74 Tb62 2.374 . S
O74 C69 1.250 . S
O75 Tb60 2.353 . S
O75 C69 1.263 . S
C76 O77 1.275 . S
C76 O78 1.246 . S
O77 Tb60 2.427 . S
O77 C76 1.275 . S
O78 Tb60 2.513 . S
O78 C76 1.246 . S
C79 O63 1.245 . S
C79 O64 1.259 . S
Tb80 O83 2.453 . S
Tb80 O84 2.596 . S
Tb80 O85 2.374 . S
Tb80 O93 2.343 . S
Tb80 O95 2.353 . S
Tb80 O97 2.427 . S
Tb80 O98 2.513 . S
C81 O85 1.251 . S
C81 O87 1.263 . S
Tb82 O84 2.343 . S
Tb82 O87 2.353 . S
Tb82 O90 2.427 . S
Tb82 O91 2.513 . S
Tb82 O92 2.453 . S
Tb82 O93 2.596 . S
Tb82 O94 2.374 . S
O83 Tb80 2.453 . S
O83 C99 1.245 . S
O84 Tb80 2.596 . S
O84 Tb82 2.343 . S
O84 C99 1.259 . S
O85 Tb80 2.374 . S
O85 C81 1.251 . S
C86 O90 1.275 . S
C86 O91 1.246 . S
O87 C81 1.263 . S
O87 Tb82 2.353 . S
C88 O92 1.245 . S
C88 O93 1.259 . S
C89 O94 1.250 . S
C89 O95 1.263 . S
O90 Tb82 2.427 . S
O90 C86 1.275 . S
O91 Tb82 2.513 . S
O91 C86 1.246 . S
O92 Tb82 2.453 . S
O92 C88 1.245 . S
O93 Tb80 2.343 . S
O93 Tb82 2.596 . S
O93 C88 1.259 . S
O94 Tb82 2.374 . S
O94 C89 1.250 . S
O95 Tb80 2.353 . S
O95 C89 1.263 . S
C96 O97 1.275 . S
C96 O98 1.246 . S
O97 Tb80 2.427 . S
O97 C96 1.275 . S
O98 Tb80 2.513 . S
O98 C96 1.246 . S
C99 O83 1.245 . S
C99 O84 1.259 . S
Tb100 O103 2.453 . S
Tb100 O104 2.596 . S
Tb100 O105 2.374 . S
Tb100 O113 2.343 . S
Tb100 O115 2.353 . S
Tb100 O117 2.427 . S
Tb100 O118 2.513 . S
C101 O105 1.251 1_655 S
C101 O107 1.263 . S
Tb102 O104 2.343 . S
Tb102 O107 2.353 1_455 S
Tb102 O110 2.427 1_455 S
Tb102 O111 2.513 . S
Tb102 O112 2.453 . S
Tb102 O113 2.596 . S
Tb102 O114 2.374 . S
O103 Tb100 2.453 . S
O103 C119 1.245 . S
O104 Tb100 2.596 . S
O104 Tb102 2.343 . S
O104 C119 1.259 . S
O105 Tb100 2.374 . S
O105 C101 1.251 1_455 S
C106 O110 1.275 . S
C106 O111 1.246 1_655 S
O107 C101 1.263 . S
O107 Tb102 2.353 1_655 S
C108 O112 1.245 . S
C108 O113 1.259 . S
C109 O114 1.250 . S
C109 O115 1.263 . S
O110 Tb102 2.427 1_655 S
O110 C106 1.275 . S
O111 Tb102 2.513 . S
O111 C106 1.246 1_455 S
O112 Tb102 2.453 . S
O112 C108 1.245 . S
O113 Tb100 2.343 . S
O113 Tb102 2.596 . S
O113 C108 1.259 . S
O114 Tb102 2.374 . S
O114 C109 1.250 . S
O115 Tb100 2.353 . S
O115 C109 1.263 . S
C116 O117 1.275 . S
C116 O118 1.246 . S
O117 Tb100 2.427 . S
O117 C116 1.275 . S
O118 Tb100 2.513 . S
O118 C116 1.246 . S
C119 O103 1.245 . S
C119 O104 1.259 . S
Tb120 O123 2.453 . S
Tb120 O124 2.596 . S
Tb120 O125 2.374 . S
Tb120 O133 2.343 . S
Tb120 O135 2.353 . S
Tb120 O137 2.427 . S
Tb120 O138 2.513 . S
C121 O125 1.251 1_455 S
C121 O127 1.263 . S
Tb122 O124 2.343 . S
Tb122 O127 2.353 1_655 S
Tb122 O130 2.427 1_655 S
Tb122 O131 2.513 . S
Tb122 O132 2.453 . S
Tb122 O133 2.596 . S
Tb122 O134 2.374 . S
O123 Tb120 2.453 . S
O123 C139 1.245 . S
O124 Tb120 2.596 . S
O124 Tb122 2.343 . S
O124 C139 1.259 . S
O125 Tb120 2.374 . S
O125 C121 1.251 1_655 S
C126 O130 1.275 . S
C126 O131 1.246 1_455 S
O127 C121 1.263 . S
O127 Tb122 2.353 1_455 S
C128 O132 1.245 . S
C128 O133 1.259 . S
C129 O134 1.250 . S
C129 O135 1.263 . S
O130 Tb122 2.427 1_455 S
O130 C126 1.275 . S
O131 Tb122 2.513 . S
O131 C126 1.246 1_655 S
O132 Tb122 2.453 . S
O132 C128 1.245 . S
O133 Tb120 2.343 . S
O133 Tb122 2.596 . S
O133 C128 1.259 . S
O134 Tb122 2.374 . S
O134 C129 1.250 . S
O135 Tb120 2.353 . S
O135 C129 1.263 . S
C136 O137 1.275 . S
C136 O138 1.246 . S
O137 Tb120 2.427 . S
O137 C136 1.275 . S
O138 Tb120 2.513 . S
O138 C136 1.246 . S
C139 O123 1.245 . S
C139 O124 1.259 . S
Tb140 O143 2.453 . S
Tb140 O144 2.596 . S
Tb140 O145 2.374 . S
Tb140 O153 2.343 . S
Tb140 O155 2.353 . S
Tb140 O157 2.427 . S
Tb140 O158 2.513 . S
C141 O145 1.251 1_545 S
C141 O147 1.263 . S
Tb142 O144 2.343 . S
Tb142 O147 2.353 1_565 S
Tb142 O150 2.427 1_565 S
Tb142 O151 2.513 . S
Tb142 O152 2.453 . S
Tb142 O153 2.596 . S
Tb142 O154 2.374 . S
O143 Tb140 2.453 . S
O143 C159 1.245 . S
O144 Tb140 2.596 . S
O144 Tb142 2.343 . S
O144 C159 1.259 . S
O145 Tb140 2.374 . S
O145 C141 1.251 1_565 S
C146 O150 1.275 . S
C146 O151 1.246 1_545 S
O147 C141 1.263 . S
O147 Tb142 2.353 1_545 S
C148 O152 1.245 . S
C148 O153 1.259 . S
C149 O154 1.250 . S
C149 O155 1.263 . S
O150 Tb142 2.427 1_545 S
O150 C146 1.275 . S
O151 Tb142 2.513 . S
O151 C146 1.246 1_565 S
O152 Tb142 2.453 . S
O152 C148 1.245 . S
O153 Tb140 2.343 . S
O153 Tb142 2.596 . S
O153 C148 1.259 . S
O154 Tb142 2.374 . S
O154 C149 1.250 . S
O155 Tb140 2.353 . S
O155 C149 1.263 . S
C156 O157 1.275 . S
C156 O158 1.246 . S
O157 Tb140 2.427 . S
O157 C156 1.275 . S
O158 Tb140 2.513 . S
O158 C156 1.246 . S
C159 O143 1.245 . S
C159 O144 1.259 . S
Tb160 O163 2.453 . S
Tb160 O164 2.596 . S
Tb160 O165 2.374 . S
Tb160 O173 2.343 . S
Tb160 O175 2.353 . S
Tb160 O177 2.427 . S
Tb160 O178 2.513 . S
C161 O165 1.251 . S
C161 O167 1.263 . S
Tb162 O164 2.343 . S
Tb162 O167 2.353 . S
Tb162 O170 2.427 . S
Tb162 O171 2.513 . S
Tb162 O172 2.453 . S
Tb162 O173 2.596 . S
Tb162 O174 2.374 . S
O163 Tb160 2.453 . S
O163 C179 1.245 . S
O164 Tb160 2.596 . S
O164 Tb162 2.343 . S
O164 C179 1.259 . S
O165 Tb160 2.374 . S
O165 C161 1.251 . S
C166 O170 1.275 . S
C166 O171 1.246 . S
O167 C161 1.263 . S
O167 Tb162 2.353 . S
C168 O172 1.245 . S
C168 O173 1.259 . S
C169 O174 1.250 . S
C169 O175 1.263 . S
O170 Tb162 2.427 . S
O170 C166 1.275 . S
O171 Tb162 2.513 . S
O171 C166 1.246 . S
O172 Tb162 2.453 . S
O172 C168 1.245 . S
O173 Tb160 2.343 . S
O173 Tb162 2.596 . S
O173 C168 1.259 . S
O174 Tb162 2.374 . S
O174 C169 1.250 . S
O175 Tb160 2.353 . S
O175 C169 1.263 . S
C176 O177 1.275 . S
C176 O178 1.246 . S
O177 Tb160 2.427 . S
O177 C176 1.275 . S
O178 Tb160 2.513 . S
O178 C176 1.246 . S
C179 O163 1.245 . S
C179 O164 1.259 . S
Tb180 O183 2.453 . S
Tb180 O184 2.596 . S
Tb180 O185 2.374 . S
Tb180 O193 2.343 . S
Tb180 O195 2.353 . S
Tb180 O197 2.427 . S
Tb180 O198 2.513 . S
C181 O185 1.251 1_655 S
C181 O187 1.263 . S
Tb182 O184 2.343 . S
Tb182 O187 2.353 1_455 S
Tb182 O190 2.427 1_455 S
Tb182 O191 2.513 . S
Tb182 O192 2.453 . S
Tb182 O193 2.596 . S
Tb182 O194 2.374 . S
O183 Tb180 2.453 . S
O183 C199 1.245 . S
O184 Tb180 2.596 . S
O184 Tb182 2.343 . S
O184 C199 1.259 . S
O185 Tb180 2.374 . S
O185 C181 1.251 1_455 S
C186 O190 1.275 . S
C186 O191 1.246 1_655 S
O187 C181 1.263 . S
O187 Tb182 2.353 1_655 S
C188 O192 1.245 . S
C188 O193 1.259 . S
C189 O194 1.250 . S
C189 O195 1.263 . S
O190 Tb182 2.427 1_655 S
O190 C186 1.275 . S
O191 Tb182 2.513 . S
O191 C186 1.246 1_455 S
O192 Tb182 2.453 . S
O192 C188 1.245 . S
O193 Tb180 2.343 . S
O193 Tb182 2.596 . S
O193 C188 1.259 . S
O194 Tb182 2.374 . S
O194 C189 1.250 . S
O195 Tb180 2.353 . S
O195 C189 1.263 . S
C196 O197 1.275 . S
C196 O198 1.246 . S
O197 Tb180 2.427 . S
O197 C196 1.275 . S
O198 Tb180 2.513 . S
O198 C196 1.246 . S
C199 O183 1.245 . S
C199 O184 1.259 . S
Tb200 O203 2.453 . S
Tb200 O204 2.596 . S
Tb200 O205 2.374 . S
Tb200 O213 2.343 . S
Tb200 O215 2.353 . S
Tb200 O217 2.427 . S
Tb200 O218 2.513 . S
C201 O205 1.251 1_565 S
C201 O207 1.263 . S
Tb202 O204 2.343 . S
Tb202 O207 2.353 1_545 S
Tb202 O210 2.427 1_545 S
Tb202 O211 2.513 . S
Tb202 O212 2.453 . S
Tb202 O213 2.596 . S
Tb202 O214 2.374 . S
O203 Tb200 2.453 . S
O203 C219 1.245 . S
O204 Tb200 2.596 . S
O204 Tb202 2.343 . S
O204 C219 1.259 . S
O205 Tb200 2.374 . S
O205 C201 1.251 1_545 S
C206 O210 1.275 . S
C206 O211 1.246 1_565 S
O207 C201 1.263 . S
O207 Tb202 2.353 1_565 S
C208 O212 1.245 . S
C208 O213 1.259 . S
C209 O214 1.250 . S
C209 O215 1.263 . S
O210 Tb202 2.427 1_565 S
O210 C206 1.275 . S
O211 Tb202 2.513 . S
O211 C206 1.246 1_545 S
O212 Tb202 2.453 . S
O212 C208 1.245 . S
O213 Tb200 2.343 . S
O213 Tb202 2.596 . S
O213 C208 1.259 . S
O214 Tb202 2.374 . S
O214 C209 1.250 . S
O215 Tb200 2.353 . S
O215 C209 1.263 . S
C216 O217 1.275 . S
C216 O218 1.246 . S
O217 Tb200 2.427 . S
O217 C216 1.275 . S
O218 Tb200 2.513 . S
O218 C216 1.246 . S
C219 O203 1.245 . S
C219 O204 1.259 . S
Tb220 O223 2.453 . S
Tb220 O224 2.596 . S
Tb220 O225 2.374 . S
Tb220 O233 2.343 . S
Tb220 O235 2.353 . S
Tb220 O237 2.427 . S
Tb220 O238 2.513 . S
C221 O225 1.251 . S
C221 O227 1.263 . S
Tb222 O224 2.343 . S
Tb222 O227 2.353 . S
Tb222 O230 2.427 . S
Tb222 O231 2.513 . S
Tb222 O232 2.453 . S
Tb222 O233 2.596 . S
Tb222 O234 2.374 . S
O223 Tb220 2.453 . S
O223 C239 1.245 . S
O224 Tb220 2.596 . S
O224 Tb222 2.343 . S
O224 C239 1.259 . S
O225 Tb220 2.374 . S
O225 C221 1.251 . S
C226 O230 1.275 . S
C226 O231 1.246 . S
O227 C221 1.263 . S
O227 Tb222 2.353 . S
C228 O232 1.245 . S
C228 O233 1.259 . S
C229 O234 1.250 . S
C229 O235 1.263 . S
O230 Tb222 2.427 . S
O230 C226 1.275 . S
O231 Tb222 2.513 . S
O231 C226 1.246 . S
O232 Tb222 2.453 . S
O232 C228 1.245 . S
O233 Tb220 2.343 . S
O233 Tb222 2.596 . S
O233 C228 1.259 . S
O234 Tb222 2.374 . S
O234 C229 1.250 . S
O235 Tb220 2.353 . S
O235 C229 1.263 . S
C236 O237 1.275 . S
C236 O238 1.246 . S
O237 Tb220 2.427 . S
O237 C236 1.275 . S
O238 Tb220 2.513 . S
O238 C236 1.246 . S
C239 O223 1.245 . S
C239 O224 1.259 . S
C240 C241 1.170 . S
C240 C242 1.380 . S
C241 C240 1.170 . S
C242 C240 1.380 . S
C242 C243 1.170 . S
C243 C242 1.170 . S
C244 C245 1.170 . S
C244 C246 1.380 . S
C245 C244 1.170 . S
C246 C244 1.380 . S
C246 C247 1.170 . S
C247 C246 1.170 . S
C248 C249 1.170 . S
C248 C250 1.380 . S
C249 C248 1.170 . S
C250 C248 1.380 . S
C250 C251 1.170 . S
C251 C250 1.170 . S
C252 C253 1.170 . S
C252 C254 1.380 . S
C253 C252 1.170 . S
C254 C252 1.380 . S
C254 C255 1.170 . S
C255 C254 1.170 . S
C256 C257 1.170 . S
C256 C258 1.380 . S
C257 C256 1.170 . S
C258 C256 1.380 . S
C258 C259 1.170 1_556 S
C259 C258 1.170 1_554 S
C260 C261 1.170 . S
C260 C262 1.380 . S
C261 C260 1.170 . S
C262 C260 1.380 . S
C262 C263 1.170 . S
C263 C262 1.170 . S
C264 C265 1.170 . S
C264 C266 1.380 . S
C265 C264 1.170 . S
C266 C264 1.380 . S
C266 C267 1.170 . S
C267 C266 1.170 . S
C268 C269 1.170 . S
C268 C270 1.380 . S
C269 C268 1.170 . S
C270 C268 1.380 . S
C270 C271 1.170 . S
C271 C270 1.170 . S
C272 C273 1.170 . S
C272 C274 1.380 . S
C273 C272 1.170 . S
C274 C272 1.380 . S
C274 C275 1.170 . S
C275 C274 1.170 . S
C276 C277 1.170 . S
C276 C278 1.380 . S
C277 C276 1.170 . S
C278 C276 1.380 . S
C278 C279 1.170 1_554 S
C279 C278 1.170 1_556 S
C280 C281 1.170 . S
C280 C282 1.380 . S
C281 C280 1.170 . S
C282 C280 1.380 . S
C282 C283 1.170 . S
C283 C282 1.170 . S
C284 C285 1.170 . S
C284 C286 1.380 . S
C285 C284 1.170 . S
C286 C284 1.380 . S
C286 C287 1.170 . S
C287 C286 1.170 . S
C288 C289 1.170 . S
C288 C290 1.380 . S
C289 C288 1.170 . S
C290 C288 1.380 . S
C290 C291 1.170 . S
C291 C290 1.170 . S
C292 C293 1.170 . S
C292 C294 1.380 . S
C293 C292 1.170 . S
C294 C292 1.380 . S
C294 C295 1.170 . S
C295 C294 1.170 . S
C296 C297 1.170 . S
C296 C298 1.380 . S
C297 C296 1.170 . S
C298 C296 1.380 . S
C298 C299 1.170 . S
C299 C298 1.170 . S
C300 C301 1.170 . S
C300 C302 1.380 . S
C301 C300 1.170 . S
C302 C300 1.380 . S
C302 C303 1.170 . S
C303 C302 1.170 . S
C304 C305 1.170 . S
C304 C306 1.380 . S
C305 C304 1.170 . S
C306 C304 1.380 . S
C306 C307 1.170 . S
C307 C306 1.170 . S
C308 C309 1.170 . S
C308 C310 1.380 . S
C309 C308 1.170 . S
C310 C308 1.380 . S
C310 C311 1.170 . S
C311 C310 1.170 . S
C312 C313 1.170 . S
C312 C314 1.380 . S
C313 C312 1.170 . S
C314 C312 1.380 . S
C314 C315 1.170 . S
C315 C314 1.170 . S
C316 C317 1.170 . S
C316 C318 1.380 . S
C317 C316 1.170 . S
C318 C316 1.380 . S
C318 C319 1.170 . S
C319 C318 1.170 . S
C320 C321 1.170 . S
C320 C322 1.380 . S
C321 C320 1.170 . S
C322 C320 1.380 . S
C322 C323 1.170 . S
C323 C322 1.170 . S
C324 C325 1.170 . S
C324 C326 1.380 . S
C325 C324 1.170 . S
C326 C324 1.380 . S
C326 C327 1.170 . S
C327 C326 1.170 . S
C328 C329 1.170 . S
C328 C330 1.380 . S
C329 C328 1.170 . S
C330 C328 1.380 . S
C330 C331 1.170 . S
C331 C330 1.170 . S
C332 C333 1.170 . S
C332 C334 1.380 . S
C333 C332 1.170 . S
C334 C332 1.380 . S
C334 C335 1.170 . S
C335 C334 1.170 . S
C336 C337 1.170 . S
C336 C338 1.380 . S
C337 C336 1.170 . S
C338 C336 1.380 . S
C338 C339 1.170 . S
C339 C338 1.170 . S
C340 C341 1.170 . S
C340 C342 1.380 . S
C341 C340 1.170 . S
C342 C340 1.380 . S
C342 C343 1.170 . S
C343 C342 1.170 . S
C344 C345 1.170 . S
C344 C346 1.380 . S
C345 C344 1.170 . S
C346 C344 1.380 . S
C346 C347 1.170 . S
C347 C346 1.170 . S
C348 C349 1.170 . S
C348 C350 1.380 . S
C349 C348 1.170 . S
C350 C348 1.380 . S
C350 C351 1.170 . S
C351 C350 1.170 . S
C352 C353 1.170 . S
C352 C354 1.380 . S
C353 C352 1.170 . S
C354 C352 1.380 . S
C354 C355 1.170 . S
C355 C354 1.170 . S
C356 C357 1.170 . S
C356 C358 1.380 . S
C357 C356 1.170 . S
C358 C356 1.380 . S
C358 C359 1.170 . S
C359 C358 1.170 . S
C360 C361 1.170 . S
C360 C362 1.380 . S
C361 C360 1.170 . S
C362 C360 1.380 . S
C362 C363 1.170 . S
C363 C362 1.170 . S
C364 C365 1.170 . S
C364 C366 1.380 . S
C365 C364 1.170 . S
C366 C364 1.380 . S
C366 C367 1.170 . S
C367 C366 1.170 . S
C368 C369 1.170 . S
C368 C370 1.380 . S
C369 C368 1.170 . S
C370 C368 1.380 . S
C370 C371 1.170 . S
C371 C370 1.170 . S
C372 C373 1.170 . S
C372 C374 1.380 . S
C373 C372 1.170 . S
C374 C372 1.380 . S
C374 C375 1.170 . S
C375 C374 1.170 . S
C376 C377 1.170 . S
C376 C378 1.380 . S
C377 C376 1.170 . S
C378 C376 1.380 . S
C378 C379 1.170 . S
C379 C378 1.170 . S
C380 C381 1.170 . S
C380 C382 1.380 . S
C381 C380 1.170 . S
C382 C380 1.380 . S
C382 C383 1.170 . S
C383 C382 1.170 . S
C241 C116 1.731 . S
C243 C19 1.680 1_565 S
C245 C39 1.716 . S
C247 C16 1.738 . S
C249 C59 1.709 1_455 S
C251 C36 1.755 . S
C253 C56 1.754 . S
C255 C79 1.699 1_545 S
C257 C76 1.726 . S
C259 C99 1.687 . S
C261 C119 1.695 1_655 S
C263 C96 1.726 . S
C265 C156 1.751 . S
C267 C139 1.717 1_455 S
C269 C159 1.681 1_545 S
C271 C176 1.729 . S
C273 C196 1.740 . S
C275 C179 1.681 . S
C277 C216 1.726 . S
C279 C199 1.691 1_655 S
C281 C236 1.746 . S
C283 C219 1.685 1_565 S
C285 C136 1.739 . S
C287 C239 1.680 . S
C289 C229 1.413 . S
C291 C6 1.398 . S
C293 C26 1.420 . S
C295 C129 1.414 . S
C297 C149 1.388 . S
C299 C46 1.400 . S
C301 C169 1.410 . S
C303 C66 1.395 . S
C305 C189 1.419 . S
C307 C86 1.407 1_556 S
C309 C106 1.380 . S
C311 C209 1.380 . S
C313 C126 1.395 . S
C315 C29 1.410 . S
C317 C146 1.378 . S
C319 C49 1.382 . S
C321 C69 1.395 . S
C323 C166 1.407 . S
C325 C89 1.404 . S
C327 C186 1.389 1_554 S
C329 C206 1.380 . S
C331 C109 1.390 . S
C333 C226 1.392 . S
C335 C9 1.408 . S
C337 C121 1.713 . S
C339 C1 1.711 . S
C341 C21 1.709 . S
C343 C141 1.711 . S
C345 C161 1.707 . S
C347 C41 1.706 . S
C349 C61 1.710 . S
C351 C181 1.712 . S
C353 C201 1.726 . S
C355 C81 1.727 . S
C357 C221 1.705 . S
C359 C101 1.706 . S
C361 C128 1.709 . S
C363 C8 1.704 . S
C365 C148 1.704 . S
C367 C28 1.721 . S
C369 C168 1.750 . S
C371 C48 1.749 . S
C373 C68 1.752 . S
C375 C188 1.738 . S
C377 C208 1.728 . S
C379 C88 1.707 . S
C381 C228 1.710 . S
C383 C108 1.703 . S
