# Generated by pormake.
# Topology cag, (4)-cn, num edge types: 1
# Building blocks:
#     Node 0, Type 0, BuildingBlock: QUQFOY_clean_sbu_3, # of connection points: 4
#     Node 1, Type 0, BuildingBlock: QUQFOY_clean_sbu_3, # of connection points: 4
#     Node 2, Type 0, BuildingBlock: QUQFOY_clean_sbu_3, # of connection points: 4
#     Node 3, Type 0, BuildingBlock: QUQFOY_clean_sbu_3, # of connection points: 4
#     Node 4, Type 0, BuildingBlock: QUQFOY_clean_sbu_3, # of connection points: 4
#     Node 5, Type 0, BuildingBlock: QUQFOY_clean_sbu_3, # of connection points: 4
#     Node 6, Type 0, BuildingBlock: QUQFOY_clean_sbu_3, # of connection points: 4
#     Node 7, Type 0, BuildingBlock: QUQFOY_clean_sbu_3, # of connection points: 4
#     Node 8, Type 0, BuildingBlock: QUQFOY_clean_sbu_3, # of connection points: 4
#     Node 9, Type 0, BuildingBlock: QUQFOY_clean_sbu_3, # of connection points: 4
#     Node 10, Type 0, BuildingBlock: QUQFOY_clean_sbu_3, # of connection points: 4
#     Node 11, Type 0, BuildingBlock: QUQFOY_clean_sbu_3, # of connection points: 4
#     Node 12, Type 0, BuildingBlock: QUQFOY_clean_sbu_3, # of connection points: 4
#     Node 13, Type 0, BuildingBlock: QUQFOY_clean_sbu_3, # of connection points: 4
#     Node 14, Type 0, BuildingBlock: QUQFOY_clean_sbu_3, # of connection points: 4
#     Node 15, Type 0, BuildingBlock: QUQFOY_clean_sbu_3, # of connection points: 4
#     Edge 16, Type (0, 0), BuildingBlock: EZIPEK_clean_linker_0, # of connection points: 2
#     Edge 17, Type (0, 0), BuildingBlock: EZIPEK_clean_linker_0, # of connection points: 2
#     Edge 18, Type (0, 0), BuildingBlock: EZIPEK_clean_linker_0, # of connection points: 2
#     Edge 19, Type (0, 0), BuildingBlock: EZIPEK_clean_linker_0, # of connection points: 2
#     Edge 20, Type (0, 0), BuildingBlock: EZIPEK_clean_linker_0, # of connection points: 2
#     Edge 21, Type (0, 0), BuildingBlock: EZIPEK_clean_linker_0, # of connection points: 2
#     Edge 22, Type (0, 0), BuildingBlock: EZIPEK_clean_linker_0, # of connection points: 2
#     Edge 23, Type (0, 0), BuildingBlock: EZIPEK_clean_linker_0, # of connection points: 2
#     Edge 24, Type (0, 0), BuildingBlock: EZIPEK_clean_linker_0, # of connection points: 2
#     Edge 25, Type (0, 0), BuildingBlock: EZIPEK_clean_linker_0, # of connection points: 2
#     Edge 26, Type (0, 0), BuildingBlock: EZIPEK_clean_linker_0, # of connection points: 2
#     Edge 27, Type (0, 0), BuildingBlock: EZIPEK_clean_linker_0, # of connection points: 2
#     Edge 28, Type (0, 0), BuildingBlock: EZIPEK_clean_linker_0, # of connection points: 2
#     Edge 29, Type (0, 0), BuildingBlock: EZIPEK_clean_linker_0, # of connection points: 2
#     Edge 30, Type (0, 0), BuildingBlock: EZIPEK_clean_linker_0, # of connection points: 2
#     Edge 31, Type (0, 0), BuildingBlock: EZIPEK_clean_linker_0, # of connection points: 2
#     Edge 32, Type (0, 0), BuildingBlock: EZIPEK_clean_linker_0, # of connection points: 2
#     Edge 33, Type (0, 0), BuildingBlock: EZIPEK_clean_linker_0, # of connection points: 2
#     Edge 34, Type (0, 0), BuildingBlock: EZIPEK_clean_linker_0, # of connection points: 2
#     Edge 35, Type (0, 0), BuildingBlock: EZIPEK_clean_linker_0, # of connection points: 2
#     Edge 36, Type (0, 0), BuildingBlock: EZIPEK_clean_linker_0, # of connection points: 2
#     Edge 37, Type (0, 0), BuildingBlock: EZIPEK_clean_linker_0, # of connection points: 2
#     Edge 38, Type (0, 0), BuildingBlock: EZIPEK_clean_linker_0, # of connection points: 2
#     Edge 39, Type (0, 0), BuildingBlock: EZIPEK_clean_linker_0, # of connection points: 2
#     Edge 40, Type (0, 0), BuildingBlock: EZIPEK_clean_linker_0, # of connection points: 2
#     Edge 41, Type (0, 0), BuildingBlock: EZIPEK_clean_linker_0, # of connection points: 2
#     Edge 42, Type (0, 0), BuildingBlock: EZIPEK_clean_linker_0, # of connection points: 2
#     Edge 43, Type (0, 0), BuildingBlock: EZIPEK_clean_linker_0, # of connection points: 2
#     Edge 44, Type (0, 0), BuildingBlock: EZIPEK_clean_linker_0, # of connection points: 2
#     Edge 45, Type (0, 0), BuildingBlock: EZIPEK_clean_linker_0, # of connection points: 2
#     Edge 46, Type (0, 0), BuildingBlock: EZIPEK_clean_linker_0, # of connection points: 2
#     Edge 47, Type (0, 0), BuildingBlock: EZIPEK_clean_linker_0, # of connection points: 2
# Relax obj value: 0.113
# Max RMSD: 0.145
# Mean RMSD: 0.145
data_MOF--net-cag--node1-QUQFOY_clean_sbu_3--edge1-EZIPEK_clean_linker_0
_symmetry_space_group_name_H-M    P1
_symmetry_Int_Tables_number       1
_symmetry_cell_setting            triclinic
loop_
_symmetry_equiv_pos_as_xyz
'x, y, z'
_cell_length_a     33.02384
_cell_length_b     37.493876
_cell_length_c     31.47246
_cell_angle_alpha  89.939229
_cell_angle_beta   89.958507
_cell_angle_gamma 89.937102
loop_
_atom_site_label
_atom_site_type_symbol
_atom_site_fract_x
_atom_site_fract_y
_atom_site_fract_z
_atom_type_partial_charge
C0 C 0.3731 0.14086 0.05598 0.0
O1 O 0.37276 0.14696 0.01631 0.0
Cd2 Cd 0.31021 0.14865 0.9771 0.0
O3 O 0.3404 0.13729 0.07671 0.0
Cd4 Cd 0.26724 0.13854 0.0666 0.0
C5 C 0.27653 0.0658 0.0048 0.0
O6 O 0.26381 0.18626 0.0155 0.0
O7 O 0.20776 0.15758 0.02756 0.0
O8 O 0.26809 0.17112 0.13248 0.0
C9 C 0.22601 0.18315 0.0094 0.0
O10 O 0.29026 0.08594 0.97559 0.0
C11 C 0.24586 0.14899 0.15212 0.0
O12 O 0.2673 0.07791 0.0412 0.0
O13 O 0.2314 0.12298 0.13119 0.0
C14 C 0.10512 0.84413 0.54704 0.0
O15 O 0.10749 0.83478 0.50832 0.0
Cd16 Cd 0.17192 0.83123 0.47347 0.0
O17 O 0.13669 0.84775 0.56968 0.0
Cd18 Cd 0.20992 0.8397 0.56892 0.0
C19 C 0.20996 0.91239 0.50661 0.0
O20 O 0.20884 0.79206 0.51892 0.0
O21 O 0.26861 0.80976 0.53713 0.0
O22 O 0.19821 0.81024 0.63619 0.0
C23 C 0.24681 0.78842 0.51582 0.0
O24 O 0.19399 0.89348 0.47755 0.0
C25 C 0.22276 0.82988 0.65648 0.0
O26 O 0.21883 0.89943 0.5427 0.0
O27 O 0.24262 0.85303 0.63558 0.0
C28 C 0.37275 0.84153 0.93084 0.0
O29 O 0.37363 0.83493 0.97039 0.0
Cd30 Cd 0.31213 0.83082 0.01117 0.0
O31 O 0.33944 0.84421 0.91107 0.0
Cd32 Cd 0.26678 0.84088 0.92297 0.0
C33 C 0.27602 0.91329 0.98544 0.0
O34 O 0.26627 0.7925 0.97325 0.0
O35 O 0.20905 0.82013 0.96348 0.0
O36 O 0.26702 0.80819 0.85723 0.0
C37 C 0.22853 0.79462 0.9804 0.0
O38 O 0.29072 0.89309 0.01407 0.0
C39 C 0.24437 0.83012 0.83776 0.0
O40 O 0.26613 0.90132 0.94917 0.0
O41 O 0.22987 0.85609 0.85881 0.0
C42 C 0.10778 0.14071 0.44417 0.0
O43 O 0.11227 0.15114 0.48224 0.0
Cd44 Cd 0.1782 0.14892 0.51435 0.0
O45 O 0.13824 0.13356 0.42105 0.0
Cd46 Cd 0.21205 0.136 0.42058 0.0
C47 C 0.20804 0.06451 0.48358 0.0
O48 O 0.22114 0.18419 0.46979 0.0
O49 O 0.27541 0.1545 0.4531 0.0
O50 O 0.20367 0.16821 0.35464 0.0
C51 C 0.25919 0.18041 0.47261 0.0
O52 O 0.19603 0.08531 0.51301 0.0
C53 C 0.22513 0.14662 0.33325 0.0
O54 O 0.21523 0.07587 0.44633 0.0
O55 O 0.24183 0.12089 0.35288 0.0
C56 C 0.52817 0.87438 0.85933 0.0
O57 O 0.53582 0.89556 0.82893 0.0
Cd58 Cd 0.60292 0.91943 0.822 0.0
O59 O 0.55643 0.86189 0.88229 0.0
Cd60 Cd 0.6301 0.86267 0.88751 0.0
C61 C 0.61987 0.94501 0.92495 0.0
O62 O 0.65062 0.87126 0.81405 0.0
O63 O 0.69573 0.88228 0.8625 0.0
O64 O 0.63082 0.7979 0.89325 0.0
C65 C 0.68705 0.87839 0.82359 0.0
O66 O 0.61308 0.95483 0.88686 0.0
C67 C 0.65002 0.798 0.9282 0.0
O68 O 0.62556 0.91251 0.93437 0.0
O69 O 0.6593 0.82798 0.94408 0.0
C70 C 0.95427 0.10823 0.3667 0.0
O71 O 0.95402 0.08168 0.34177 0.0
Cd72 Cd 0.89093 0.05597 0.3186 0.0
O73 O 0.92147 0.12286 0.37831 0.0
Cd74 Cd 0.84945 0.11304 0.36765 0.0
C75 C 0.85799 0.03403 0.4162 0.0
O76 O 0.84458 0.10124 0.29167 0.0
O77 O 0.79189 0.08916 0.33041 0.0
O78 O 0.84287 0.17755 0.36941 0.0
C79 C 0.80709 0.09396 0.29388 0.0
O80 O 0.87003 0.02131 0.38094 0.0
C81 C 0.81718 0.17708 0.39943 0.0
O82 O 0.85045 0.06696 0.42035 0.0
O83 O 0.80592 0.14697 0.41353 0.0
C84 C 0.53078 0.11541 0.12682 0.0
O85 O 0.53905 0.09472 0.15756 0.0
Cd86 Cd 0.60673 0.07206 0.16547 0.0
O87 O 0.55863 0.12819 0.10356 0.0
Cd88 Cd 0.63225 0.12831 0.09802 0.0
C89 C 0.62173 0.04538 0.06269 0.0
O90 O 0.65424 0.12047 0.17091 0.0
O91 O 0.69803 0.10778 0.12163 0.0
O92 O 0.63299 0.19297 0.092 0.0
C93 C 0.69029 0.11237 0.16069 0.0
O94 O 0.6163 0.03595 0.10116 0.0
C95 C 0.65139 0.1927 0.05655 0.0
O96 O 0.62655 0.0778 0.05239 0.0
O97 O 0.66029 0.16265 0.04052 0.0
C98 C 0.95279 0.8813 0.62437 0.0
O99 O 0.95026 0.90718 0.65017 0.0
Cd100 Cd 0.88507 0.93067 0.67055 0.0
O101 O 0.92129 0.86642 0.60984 0.0
Cd102 Cd 0.84853 0.87268 0.61505 0.0
C103 C 0.8564 0.9542 0.57174 0.0
O104 O 0.83997 0.88238 0.6908 0.0
O105 O 0.78777 0.89238 0.65044 0.0
O106 O 0.84471 0.80812 0.61007 0.0
C107 C 0.80221 0.88811 0.68739 0.0
O108 O 0.86594 0.96614 0.6082 0.0
C109 C 0.82215 0.80888 0.57744 0.0
O110 O 0.85036 0.92124 0.56569 0.0
O111 O 0.81157 0.8391 0.56305 0.0
C112 C 0.87214 0.64581 0.05171 0.0
O113 O 0.86726 0.65857 0.01468 0.0
Cd114 Cd 0.80162 0.65696 0.98225 0.0
O115 O 0.8419 0.63713 0.07446 0.0
Cd116 Cd 0.76768 0.63988 0.07494 0.0
C117 C 0.77367 0.57087 0.00852 0.0
O118 O 0.75711 0.68952 0.02788 0.0
O119 O 0.70399 0.65751 0.04206 0.0
O120 O 0.77449 0.67082 0.14174 0.0
C121 C 0.71928 0.68468 0.02423 0.0
O122 O 0.78558 0.59304 0.98046 0.0
C123 C 0.75283 0.64883 0.16231 0.0
O124 O 0.76571 0.58054 0.04627 0.0
O125 O 0.73715 0.62305 0.14196 0.0
C126 C 0.61195 0.34147 0.52699 0.0
O127 O 0.61545 0.3424 0.48672 0.0
Cd128 Cd 0.67803 0.34935 0.44727 0.0
O129 O 0.64266 0.34191 0.55126 0.0
Cd130 Cd 0.71624 0.34347 0.55105 0.0
C131 C 0.71362 0.42402 0.4985 0.0
O132 O 0.7262 0.31546 0.48489 0.0
O133 O 0.7651 0.29528 0.53392 0.0
O134 O 0.70368 0.31834 0.61981 0.0
C135 C 0.75301 0.29337 0.49582 0.0
O136 O 0.69642 0.41032 0.46616 0.0
C137 C 0.73019 0.33748 0.63821 0.0
O138 O 0.72414 0.40548 0.53053 0.0
O139 O 0.75144 0.35848 0.61546 0.0
C140 C 0.87048 0.3437 0.92783 0.0
O141 O 0.86617 0.3332 0.96593 0.0
Cd142 Cd 0.80109 0.33524 -0.00033 0.0
O143 O 0.83996 0.35157 0.9051 0.0
Cd144 Cd 0.76575 0.35057 0.90689 0.0
C145 C 0.77265 0.42065 0.97194 0.0
O146 O 0.75615 0.30183 0.95537 0.0
O147 O 0.70243 0.33301 0.94079 0.0
O148 O 0.76984 0.31857 0.84059 0.0
C149 C 0.71828 0.30638 0.9593 0.0
O150 O 0.78507 0.39911 0.0004 0.0
C151 C 0.74996 0.34168 0.81976 0.0
O152 O 0.76432 0.41026 0.93459 0.0
O153 O 0.73596 0.36834 0.83991 0.0
C154 C 0.6054 0.6509 0.44992 0.0
O155 O 0.60897 0.65767 0.48927 0.0
Cd156 Cd 0.67443 0.65969 0.52311 0.0
O157 O 0.63631 0.64665 0.42648 0.0
Cd158 Cd 0.71002 0.64796 0.43 0.0
C159 C 0.70732 0.57669 0.49521 0.0
O160 O 0.71666 0.69658 0.47928 0.0
O161 O 0.77202 0.66795 0.46403 0.0
O162 O 0.70634 0.67748 0.36176 0.0
C163 C 0.75475 0.69369 0.48285 0.0
O164 O 0.69723 0.59741 0.52547 0.0
C165 C 0.7284 0.65462 0.34304 0.0
O166 O 0.71194 0.58824 0.45758 0.0
O167 O 0.74335 0.62954 0.36522 0.0
C168 C 0.02906 0.37081 0.85788 0.0
O169 O 0.0338 0.39573 0.83107 0.0
Cd170 Cd 0.1005 0.41825 0.81469 0.0
O171 O 0.05936 0.35592 0.87519 0.0
Cd172 Cd 0.13271 0.36179 0.87416 0.0
C173 C 0.12301 0.44401 0.91436 0.0
O174 O 0.1491 0.37121 0.79953 0.0
O175 O 0.19585 0.38359 0.84582 0.0
O176 O 0.139 0.29729 0.87888 0.0
C177 C 0.18593 0.37848 0.80743 0.0
O178 O 0.11588 0.45504 0.87686 0.0
C179 C 0.15854 0.29836 0.91359 0.0
O180 O 0.12812 0.41115 0.92222 0.0
O181 O 0.16595 0.32872 0.92953 0.0
C182 C 0.45523 0.6167 0.36687 0.0
O183 O 0.45609 0.5959 0.33518 0.0
Cd184 Cd 0.39488 0.56393 0.32103 0.0
O185 O 0.42205 0.6239 0.38534 0.0
Cd186 Cd 0.34937 0.61286 0.37813 0.0
C187 C 0.37067 0.53432 0.42071 0.0
O188 O 0.33859 0.60319 0.30254 0.0
O189 O 0.29158 0.5849 0.34585 0.0
O190 O 0.33014 0.67566 0.381 0.0
C191 C 0.30285 0.5915 0.30817 0.0
O192 O 0.38905 0.52776 0.38604 0.0
C193 C 0.31449 0.67298 0.41773 0.0
O194 O 0.35172 0.56341 0.42549 0.0
O195 O 0.31463 0.64242 0.43501 0.0
C196 C 0.02886 0.60861 0.11965 0.0
O197 O 0.03096 0.58221 0.14477 0.0
Cd198 Cd 0.09555 0.55598 0.16282 0.0
O199 O 0.06072 0.6227 0.10471 0.0
Cd200 Cd 0.13331 0.61224 0.10759 0.0
C201 C 0.12117 0.5317 0.06356 0.0
O202 O 0.14603 0.60021 0.18248 0.0
O203 O 0.19418 0.58747 0.13781 0.0
O204 O 0.14277 0.67645 0.10582 0.0
C205 C 0.18284 0.59187 0.17591 0.0
O206 O 0.11168 0.52004 0.10019 0.0
C207 C 0.16295 0.6757 0.07149 0.0
O208 O 0.12811 0.56451 0.0572 0.0
O209 O 0.16973 0.64556 0.05462 0.0
C210 C 0.46133 0.36217 0.61542 0.0
O211 O 0.46061 0.38134 0.64855 0.0
Cd212 Cd 0.39694 0.40909 0.66387 0.0
O213 O 0.42876 0.35358 0.59674 0.0
Cd214 Cd 0.35534 0.3574 0.60625 0.0
C215 C 0.37122 0.4365 0.56332 0.0
O216 O 0.34432 0.36633 0.6822 0.0
O217 O 0.29558 0.38126 0.63922 0.0
O218 O 0.35102 0.29272 0.60144 0.0
C219 C 0.30773 0.37594 0.67685 0.0
O220 O 0.38787 0.44427 0.59858 0.0
C221 C 0.32835 0.29356 0.56888 0.0
O222 O 0.35503 0.40623 0.55787 0.0
O223 O 0.31785 0.32385 0.55463 0.0
C224 C 0.17566 0.23256 0.00233 0.0
C225 C 0.20414 0.20927 0.98316 0.0
C226 C 0.20075 0.24297 0.91673 0.0
C227 C 0.17148 0.26569 0.93557 0.0
N228 N 0.1234 0.27704 0.99167 0.0
N229 N 0.23605 0.18635 0.91994 0.0
C230 C 0.15649 0.25886 0.97698 0.0
C231 C 0.21427 0.21262 0.93959 0.0
N232 N 0.16852 0.23088 0.04511 0.0
N233 N 0.21714 0.25135 0.87808 0.0
H234 H 0.24554 0.16333 0.93572 0.0
H235 H 0.24114 0.18561 0.8873 0.0
H236 H 0.20808 0.27342 0.86027 0.0
H237 H 0.2419 0.23802 0.8651 0.0
H238 H 0.15172 0.24992 0.06153 0.0
H239 H 0.18195 0.21201 0.06499 0.0
H240 H 0.10861 0.27071 0.01992 0.0
H241 H 0.10827 0.29622 0.97359 0.0
C242 C 0.25909 0.69916 0.46151 0.0
C243 C 0.29637 0.70379 0.43991 0.0
C244 C 0.29787 0.7661 0.46273 0.0
C245 C 0.26443 0.75944 0.48996 0.0
N246 N 0.22019 0.71595 0.52301 0.0
N247 N 0.35591 0.74017 0.42775 0.0
C248 C 0.24689 0.72493 0.49157 0.0
C249 C 0.31715 0.73688 0.44248 0.0
N250 N 0.23464 0.67077 0.4525 0.0
N251 N 0.31036 0.80019 0.45477 0.0
H252 H 0.37222 0.7191 0.41462 0.0
H253 H 0.37335 0.76293 0.43283 0.0
H254 H 0.29585 0.82257 0.4672 0.0
H255 H 0.33227 0.80629 0.43204 0.0
H256 H 0.20558 0.66814 0.46508 0.0
H257 H 0.24129 0.65232 0.42871 0.0
H258 H 0.2095 0.69002 0.52719 0.0
H259 H 0.21267 0.733 0.54794 0.0
C260 C 0.21863 0.76202 0.04861 0.0
C261 C 0.20791 0.76693 0.0054 0.0
C262 C 0.16111 0.71668 0.00945 0.0
C263 C 0.17634 0.70863 0.05045 0.0
N264 N 0.2222 0.7212 0.1082 0.0
N265 N 0.17265 0.74681 0.94258 0.0
C266 C 0.20556 0.73081 0.07008 0.0
C267 C 0.17984 0.74391 0.98525 0.0
N268 N 0.24044 0.78764 0.06929 0.0
N269 N 0.12812 0.69883 -0.00589 0.0
H270 H 0.18588 0.7663 0.92344 0.0
H271 H 0.15615 0.72808 0.9254 0.0
H272 H 0.11322 0.67896 0.01128 0.0
H273 H 0.11314 0.70606 0.96629 0.0
H274 H 0.2459 0.78722 0.10187 0.0
H275 H 0.24974 0.8112 0.05458 0.0
H276 H 0.2469 0.73419 0.12168 0.0
H277 H 0.21338 0.69849 0.12496 0.0
C278 C 0.291 0.23545 0.56662 0.0
C279 C 0.31635 0.26084 0.54646 0.0
C280 C 0.30855 0.23048 0.47826 0.0
C281 C 0.28317 0.20517 0.49843 0.0
N282 N 0.25905 0.17736 0.5626 0.0
N283 N 0.35838 0.27727 0.48688 0.0
C284 C 0.27723 0.20568 0.54298 0.0
C285 C 0.32805 0.25666 0.50339 0.0
N286 N 0.27834 0.24071 0.6075 0.0
N287 N 0.31242 0.23061 0.43499 0.0
H288 H 0.37383 0.29632 0.50477 0.0
H289 H 0.37093 0.27316 0.45691 0.0
H290 H 0.29918 0.21142 0.41548 0.0
H291 H 0.3265 0.25105 0.41814 0.0
H292 H 0.256 0.2254 0.62209 0.0
H293 H 0.28812 0.26199 0.62607 0.0
H294 H 0.25711 0.1746 0.59546 0.0
H295 H 0.24952 0.1548 0.546 0.0
C296 C 0.70206 0.71036 0.95381 0.0
C297 C 0.69477 0.70895 -0.00191 0.0
C298 C 0.6482 0.75935 0.99247 0.0
C299 C 0.66141 0.76475 0.95007 0.0
N300 N 0.70297 0.74686 0.89046 0.0
N301 N 0.662 0.73211 0.06079 0.0
C302 C 0.68841 0.74035 0.9304 0.0
C303 C 0.66764 0.73311 0.01776 0.0
N304 N 0.72149 0.6827 0.93419 0.0
N305 N 0.61661 0.77894 0.00815 0.0
H306 H 0.67508 0.71275 0.08026 0.0
H307 H 0.64642 0.75173 0.07758 0.0
H308 H 0.60127 0.79794 0.99 0.0
H309 H 0.6031 0.774 0.03747 0.0
H310 H 0.7245 0.68062 0.90134 0.0
H311 H 0.73084 0.65993 0.95058 0.0
H312 H 0.72643 0.73228 0.87674 0.0
H313 H 0.6938 0.76848 0.87202 0.0
C314 C 0.82793 0.23396 0.43931 0.0
C315 C 0.80134 0.21011 0.41829 0.0
C316 C 0.74262 0.24187 0.44648 0.0
C317 C 0.76919 0.26656 0.46621 0.0
N318 N 0.83606 0.29186 0.47215 0.0
N319 N 0.73445 0.19657 0.39239 0.0
C320 C 0.81158 0.26442 0.4597 0.0
C321 C 0.75896 0.21578 0.41881 0.0
N322 N 0.86841 0.22657 0.44198 0.0
N323 N 0.70222 0.24181 0.4561 0.0
H324 H 0.74565 0.17748 0.3713 0.0
H325 H 0.70377 0.20203 0.38831 0.0
H326 H 0.68886 0.25985 0.47702 0.0
H327 H 0.68247 0.22183 0.44625 0.0
H328 H 0.88825 0.24091 0.46117 0.0
H329 H 0.88181 0.20436 0.42787 0.0
H330 H 0.8667 0.2933 0.46443 0.0
H331 H 0.82492 0.31498 0.48643 0.0
C332 C 0.66677 0.25798 0.96688 0.0
C333 C 0.69432 0.28206 0.98595 0.0
C334 C 0.69007 0.25005 0.0534 0.0
C335 C 0.66247 0.22588 0.03442 0.0
N336 N 0.61607 0.21214 0.97766 0.0
N337 N 0.72262 0.30784 0.0493 0.0
C338 C 0.64806 0.23159 -0.00747 0.0
C339 C 0.70283 0.28029 0.02995 0.0
N340 N 0.66011 0.25912 0.92403 0.0
N341 N 0.70602 0.24306 0.09263 0.0
H342 H 0.73123 0.33082 0.03292 0.0
H343 H 0.72656 0.3096 0.08206 0.0
H344 H 0.69786 0.221 0.11089 0.0
H345 H 0.72977 0.25761 0.10572 0.0
H346 H 0.64419 0.23954 0.90761 0.0
H347 H 0.67273 0.27849 0.90425 0.0
H348 H 0.60173 0.21736 0.94886 0.0
H349 H 0.60131 0.19297 -0.00394 0.0
C350 C 0.82257 0.77094 0.51281 0.0
C351 C 0.81 0.77606 0.55545 0.0
C352 C 0.77067 0.72102 0.55278 0.0
C353 C 0.77771 0.7194 0.50842 0.0
N354 N 0.80821 0.74354 0.44488 0.0
N355 N 0.77015 0.75776 0.616 0.0
C356 C 0.80352 0.74427 0.48805 0.0
C357 C 0.78391 0.75135 0.57573 0.0
N358 N 0.85331 0.79113 0.49637 0.0
N359 N 0.75208 0.69318 0.57293 0.0
H360 H 0.77926 0.77968 0.63397 0.0
H361 H 0.74745 0.74281 0.6305 0.0
H362 H 0.7431 0.67015 0.55694 0.0
H363 H 0.74934 0.69129 0.60582 0.0
H364 H 0.86652 0.78628 0.46688 0.0
H365 H 0.86835 0.81062 0.51396 0.0
H366 H 0.82271 0.76362 0.42778 0.0
H367 H 0.79518 0.7241 0.42558 0.0
C368 C 0.23864 0.00859 -0.00405 0.0
C369 C 0.27609 0.02693 -0.00169 0.0
C370 C 0.31329 0.97071 0.99184 0.0
C371 C 0.27585 0.95214 0.99207 0.0
N372 N 0.20329 0.95187 -0.00052 0.0
N373 N 0.34903 0.02609 0.00382 0.0
C374 C 0.23855 0.97066 -0.00454 0.0
C375 C 0.31344 0.00819 -0.00244 0.0
N376 N 0.20336 0.02756 -0.00711 0.0
N377 N 0.34868 0.95265 0.98462 0.0
H378 H 0.35084 0.05376 0.00613 0.0
H379 H 0.37662 0.01352 0.00951 0.0
H380 H 0.35036 0.92497 0.98216 0.0
H381 H 0.37617 0.9651 0.97822 0.0
H382 H 0.17529 0.01607 0.98681 0.0
H383 H 0.20252 0.05538 -0.00677 0.0
H384 H 0.17542 0.96349 0.00633 0.0
H385 H 0.20234 0.92405 -0.00085 0.0
C386 C 0.17397 0.97047 0.50863 0.0
C387 C 0.21043 0.95135 0.50155 0.0
C388 C 0.24668 0.00714 0.48837 0.0
C389 C 0.20935 0.0258 0.49133 0.0
N390 N 0.13632 0.02478 0.49621 0.0
N391 N 0.28061 0.94994 0.48093 0.0
C392 C 0.17265 0.0074 0.49943 0.0
C393 C 0.24665 0.96924 0.4904 0.0
N394 N 0.14085 0.95347 0.52515 0.0
N395 N 0.28211 0.02576 0.48491 0.0
H396 H 0.28161 0.92217 0.48305 0.0
H397 H 0.30684 0.96107 0.46826 0.0
H398 H 0.2831 0.05356 0.48355 0.0
H399 H 0.31062 0.01402 0.48677 0.0
H400 H 0.11495 0.96683 0.53538 0.0
H401 H 0.14043 0.92629 0.53219 0.0
H402 H 0.10847 0.01179 0.49699 0.0
H403 H 0.13382 0.0518 0.4888 0.0
C404 C 0.65698 0.97752 0.98194 0.0
C405 C 0.62042 0.97148 0.95943 0.0
C406 C 0.58485 0.01448 0.00444 0.0
C407 C 0.6207 0.01859 0.02874 0.0
N408 N 0.68921 0.00122 0.04514 0.0
N409 N 0.54811 0.97908 0.95297 0.0
C410 C 0.65628 -0.00084 0.01891 0.0
C411 C 0.58392 0.98866 0.97155 0.0
N412 N 0.69257 0.96369 0.96693 0.0
N413 N 0.55189 0.03556 0.01256 0.0
H414 H 0.54619 0.96016 0.92881 0.0
H415 H 0.51989 0.98765 0.96367 0.0
H416 H 0.55072 0.05361 0.03774 0.0
H417 H 0.52663 0.03684 -0.00715 0.0
H418 H 0.72086 0.97008 0.97929 0.0
H419 H 0.69426 0.94802 0.93961 0.0
H420 H 0.71451 0.9848 0.04234 0.0
H421 H 0.69008 0.01762 0.07188 0.0
C422 C 0.89474 0.00557 0.47632 0.0
C423 C 0.85769 0.01164 0.45463 0.0
C424 C 0.81945 0.98525 0.51345 0.0
C425 C 0.85653 0.97784 0.53435 0.0
N426 N 0.92951 0.97957 0.53681 0.0
N427 N 0.78551 0.00466 0.44889 0.0
C428 C 0.89422 0.9879 0.51625 0.0
C429 C 0.82016 0.00084 0.47226 0.0
N430 N 0.93029 0.01744 0.45895 0.0
N431 N 0.7837 0.97819 0.53375 0.0
H432 H 0.78529 0.01589 0.41854 0.0
H433 H 0.75745 -0.00541 0.45791 0.0
H434 H 0.78244 0.96712 0.56417 0.0
H435 H 0.75539 0.98555 0.52223 0.0
H436 H 0.95788 0.01791 0.47481 0.0
H437 H 0.93223 0.02827 0.42849 0.0
H438 H 0.9582 0.98199 0.52352 0.0
H439 H 0.93035 0.96881 0.56734 0.0
C440 C 0.73558 0.47645 0.99153 0.0
C441 C 0.77236 0.45909 0.98097 0.0
C442 C 0.80999 0.5145 0.99099 0.0
C443 C 0.77288 0.53258 -0.00173 0.0
N444 N 0.69991 0.53263 0.00018 0.0
N445 N 0.84333 0.46204 0.96298 0.0
C446 C 0.73546 0.51407 -0.00284 0.0
C447 C 0.80924 0.47826 0.97843 0.0
N448 N 0.70109 0.45684 -0.00295 0.0
N449 N 0.84599 0.53152 -0.002 0.0
H450 H 0.84403 0.43536 0.95363 0.0
H451 H 0.86995 0.47571 0.95599 0.0
H452 H 0.84782 0.55795 0.00803 0.0
H453 H 0.87392 0.5186 -0.0023 0.0
H454 H 0.67424 0.46728 0.00914 0.0
H455 H 0.70009 0.42931 0.9923 0.0
H456 H 0.67155 0.52128 -0.00472 0.0
H457 H 0.69883 0.56022 0.00439 0.0
C458 C 0.68078 0.48051 0.52076 0.0
C459 C 0.71456 0.46305 0.50232 0.0
C460 C 0.74757 0.52045 0.49014 0.0
C461 C 0.71133 0.53796 0.50265 0.0
N462 N 0.64131 0.53459 0.52511 0.0
N463 N 0.77947 0.46524 0.46759 0.0
C464 C 0.67749 0.51806 0.51728 0.0
C465 C 0.74795 0.48267 0.48664 0.0
N466 N 0.65184 0.46118 0.5417 0.0
N467 N 0.7818 0.53998 0.48272 0.0
H468 H 0.78116 0.43748 0.46588 0.0
H469 H 0.80261 0.47819 0.45125 0.0
H470 H 0.78265 0.56766 0.48608 0.0
H471 H 0.81012 0.52868 0.4772 0.0
H472 H 0.62894 0.47278 0.55981 0.0
H473 H 0.65261 0.43344 0.54416 0.0
H474 H 0.61437 0.52083 0.53032 0.0
H475 H 0.63714 0.56204 0.52311 0.0
C476 C 0.15875 0.49453 0.01114 0.0
C477 C 0.12133 0.50758 0.02676 0.0
C478 C 0.08512 0.4811 0.96669 0.0
C479 C 0.12278 0.46904 0.95033 0.0
N480 N 0.19561 0.46762 0.95249 0.0
N481 N 0.04916 0.5153 0.02025 0.0
C482 C 0.15971 0.47665 0.97137 0.0
C483 C 0.08452 0.50132 0.00481 0.0
N484 N 0.19305 0.49852 0.03502 0.0
N485 N 0.04993 0.47218 0.94638 0.0
H486 H 0.04712 0.52765 0.04984 0.0
H487 H 0.022 0.51585 0.00354 0.0
H488 H 0.04931 0.45941 0.91699 0.0
H489 H 0.02115 0.47611 0.95898 0.0
H490 H 0.22074 0.48681 0.02769 0.0
H491 H 0.19319 0.51161 0.06427 0.0
H492 H 0.22388 0.47511 0.96396 0.0
H493 H 0.19716 0.45474 0.92315 0.0
C494 C 0.37192 0.47164 0.45032 0.0
C495 C 0.37285 0.50905 0.45698 0.0
C496 C 0.36809 0.49899 0.5336 0.0
C497 C 0.37284 0.46181 0.52711 0.0
N498 N 0.39408 0.41518 0.47846 0.0
N499 N 0.38659 0.55688 0.5069 0.0
C500 C 0.37925 0.44873 0.48523 0.0
C501 C 0.37539 0.52242 0.4992 0.0
N502 N 0.36233 0.45763 0.41158 0.0
N503 N 0.35501 0.51216 0.57166 0.0
H504 H 0.3961 0.57428 0.48305 0.0
H505 H 0.39161 0.56654 0.53751 0.0
H506 H 0.34619 0.49596 0.59694 0.0
H507 H 0.34825 0.53908 0.57611 0.0
H508 H 0.35841 0.43032 0.40687 0.0
H509 H 0.35338 0.47313 0.38575 0.0
H510 H 0.40186 0.40596 0.44829 0.0
H511 H 0.40369 0.39851 0.503 0.0
C512 C 0.46337 0.09278 0.1026 0.0
C513 C 0.48835 0.12195 0.11437 0.0
C514 C 0.43752 0.16399 0.08756 0.0
C515 C 0.41185 0.13483 0.07803 0.0
N516 N 0.39594 0.07224 0.08594 0.0
N517 N 0.49634 0.18503 0.12629 0.0
C518 C 0.42327 0.09949 0.08886 0.0
C519 C 0.47454 0.15755 0.10928 0.0
N520 N 0.47869 0.05886 0.10145 0.0
N521 N 0.42668 0.19772 0.07552 0.0
H522 H 0.52314 0.18102 0.14319 0.0
H523 H 0.48614 0.2113 0.12714 0.0
H524 H 0.39888 0.20359 0.0614 0.0
H525 H 0.44611 0.21953 0.07718 0.0
H526 H 0.46322 0.03744 0.08807 0.0
H527 H 0.5083 0.05243 0.10991 0.0
H528 H 0.40146 0.04676 0.09786 0.0
H529 H 0.36639 0.07569 0.07514 0.0
C530 C 0.00074 0.88399 0.56347 0.0
C531 C -0.00801 0.87194 0.60524 0.0
C532 C 0.05464 0.83728 0.60599 0.0
C533 C 0.06547 0.85257 0.5662 0.0
N534 N 0.05286 0.89717 0.51211 0.0
N535 N 0.01234 0.84105 0.66889 0.0
C536 C 0.03961 0.87769 0.54616 0.0
C537 C 0.01961 0.84992 0.62745 0.0
N538 N 0.97182 0.90112 0.53998 0.0
N539 N 0.07669 0.80955 0.62225 0.0
H540 H 0.98621 0.8489 0.68503 0.0
H541 H 0.03354 0.82829 0.68814 0.0
H542 H 0.10147 0.79842 0.60654 0.0
H543 H 0.06811 0.79522 0.64914 0.0
H544 H 0.97525 0.90674 0.50774 0.0
H545 H 0.94304 0.9071 0.55154 0.0
H546 H 0.03678 0.91869 0.49962 0.0
H547 H 0.08166 0.89452 0.49895 0.0
C548 C 0.41938 0.88512 0.89637 0.0
C549 C 0.41062 0.84936 0.90793 0.0
C550 C 0.47456 0.82972 0.87638 0.0
C551 C 0.48597 0.86594 0.87108 0.0
N552 N 0.47155 0.92857 0.88244 0.0
N553 N 0.42976 0.78735 0.91079 0.0
C554 C 0.45887 0.89384 0.88223 0.0
C555 C 0.43819 0.82151 0.89843 0.0
N556 N 0.39017 0.9109 0.89907 0.0
N557 N 0.498 0.80332 0.85923 0.0
H558 H 0.40243 0.7801 0.925 0.0
H559 H 0.45069 0.7666 0.90921 0.0
H560 H 0.52425 0.80862 0.84186 0.0
H561 H 0.48955 0.77659 0.85859 0.0
H562 H 0.39373 0.93643 0.8865 0.0
H563 H 0.36105 0.90614 0.91041 0.0
H564 H 0.45465 0.94928 0.8956 0.0
H565 H 0.50039 0.93662 0.87316 0.0
C566 C 0.05767 0.14965 0.38537 0.0
C567 C 0.06687 0.13549 0.42618 0.0
C568 C -0.0009 0.10961 0.43039 0.0
C569 C -0.00768 0.11917 0.38731 0.0
N570 N 0.01608 0.1456 0.32208 0.0
N571 N 0.04903 0.09553 0.48371 0.0
C572 C 0.02197 0.13832 0.36419 0.0
C573 C 0.03823 0.11397 0.44793 0.0
N574 N 0.08221 0.17499 0.36765 0.0
N575 N 0.96832 0.09628 0.45472 0.0
H576 H 0.07783 0.0965 0.49709 0.0
H577 H 0.03062 0.07625 0.4977 0.0
H578 H 0.93928 0.09156 0.44317 0.0
H579 H 0.9707 0.09276 0.48748 0.0
H580 H 0.07518 0.18856 0.33972 0.0
H581 H 0.10762 0.18518 0.38309 0.0
H582 H 0.03863 0.15582 0.30239 0.0
H583 H 0.98939 0.13918 0.30611 0.0
C584 C 0.98006 0.61116 0.05924 0.0
C585 C 0.98937 0.61968 0.10211 0.0
C586 C 0.92452 0.65081 0.10913 0.0
C587 C 0.91335 0.6386 0.06802 0.0
N588 N 0.92746 0.6006 0.00764 0.0
N589 N 0.96947 0.64439 0.16963 0.0
C590 C 0.94036 0.61722 0.04387 0.0
C591 C 0.9612 0.63843 0.12769 0.0
N592 N 0.00902 0.59717 0.03298 0.0
N593 N 0.90091 0.67537 0.12961 0.0
H594 H -0.0031 0.63723 0.18371 0.0
H595 H 0.94822 0.65424 0.19109 0.0
H596 H 0.87462 0.68604 0.11632 0.0
H597 H 0.90928 0.68778 0.15784 0.0
H598 H 0.00516 0.59474 0.00026 0.0
H599 H 0.0381 0.59048 0.04296 0.0
H600 H 0.94436 0.58118 0.99193 0.0
H601 H 0.89837 0.60329 -0.00466 0.0
C602 C 0.54989 0.37746 0.54143 0.0
C603 C 0.57171 0.34513 0.54681 0.0
C604 C 0.52292 0.32517 0.60059 0.0
C605 C 0.49982 0.35633 0.59291 0.0
N606 N 0.48695 0.40935 0.5513 0.0
N607 N 0.57691 0.28604 0.57647 0.0
C608 C 0.51195 0.38158 0.56181 0.0
C609 C 0.55764 0.31832 0.57506 0.0
N610 N 0.56645 0.40513 0.51898 0.0
N611 N 0.51198 0.30255 0.63269 0.0
H612 H 0.60213 0.28016 0.55775 0.0
H613 H 0.56614 0.26415 0.59338 0.0
H614 H 0.48619 0.3066 0.65127 0.0
H615 H 0.52972 0.28125 0.6429 0.0
H616 H 0.55426 0.43076 0.51868 0.0
H617 H 0.59429 0.40363 0.50349 0.0
H618 H 0.49176 0.42579 0.52508 0.0
H619 H 0.45968 0.41451 0.56683 0.0
C620 C 0.97863 0.37636 0.91643 0.0
C621 C 0.98846 0.3634 0.8753 0.0
C622 C 0.92264 0.33369 0.87092 0.0
C623 C 0.91147 0.34951 0.91027 0.0
N624 N 0.92546 0.39269 0.96537 0.0
N625 N 0.96875 0.33364 0.81078 0.0
C626 C 0.93857 0.37258 0.93179 0.0
C627 C 0.96003 0.34336 0.85161 0.0
N628 N 0.00755 0.39221 0.9411 0.0
N629 N 0.89835 0.30832 0.85299 0.0
H630 H -0.00347 0.33907 0.79636 0.0
H631 H 0.94757 0.32246 0.79024 0.0
H632 H 0.87135 0.29977 0.86683 0.0
H633 H 0.90661 0.29338 0.8265 0.0
H634 H 0.00322 0.39807 0.97314 0.0
H635 H 0.03698 0.39715 0.93077 0.0
H636 H 0.94256 0.41309 0.97882 0.0
H637 H 0.89602 0.39172 0.97723 0.0
C638 C 0.55174 0.66573 0.3967 0.0
C639 C 0.56514 0.64433 0.4312 0.0
C640 C 0.50488 0.60679 0.42502 0.0
C641 C 0.49326 0.62634 0.38832 0.0
N642 N 0.50659 0.67183 0.33616 0.0
N643 N 0.55833 0.59119 0.47409 0.0
C644 C 0.51701 0.6551 0.3732 0.0
C645 C 0.54257 0.61416 0.44459 0.0
N646 N 0.57161 0.69675 0.38736 0.0
N647 N 0.47989 0.58101 0.44119 0.0
H648 H 0.58583 0.59545 0.48938 0.0
H649 H 0.54586 0.56637 0.48107 0.0
H650 H 0.4535 0.57255 0.42613 0.0
H651 H 0.48396 0.5694 0.47096 0.0
H652 H 0.56137 0.71532 0.36523 0.0
H653 H 0.5968 0.70549 0.40441 0.0
H654 H 0.52488 0.69045 0.32089 0.0
H655 H 0.48061 0.6653 0.31902 0.0
C656 C 0.27474 0.15004 0.22536 0.0
C657 C 0.2403 0.15145 0.19841 0.0
C658 C 0.19542 0.14962 0.26013 0.0
C659 C 0.22993 0.15071 0.28703 0.0
N660 N 0.30156 0.16076 0.2957 0.0
N661 N 0.16846 0.16017 0.18962 0.0
C662 C 0.26936 0.15364 0.26977 0.0
C663 C 0.20075 0.15356 0.21564 0.0
N664 N 0.31233 0.14327 0.20893 0.0
N665 N 0.15787 0.14299 0.27673 0.0
H666 H 0.17141 0.16353 0.15685 0.0
H667 H 0.13945 0.16564 0.20091 0.0
H668 H 0.15256 0.1393 0.30909 0.0
H669 H 0.13244 0.13806 0.25809 0.0
H670 H 0.3376 0.1381 0.22776 0.0
H671 H 0.31779 0.13933 0.17665 0.0
H672 H 0.33035 0.16682 0.28425 0.0
H673 H 0.29862 0.16422 0.32845 0.0
C674 C 0.19866 0.82668 0.77454 0.0
C675 C 0.23836 0.82741 0.79151 0.0
C676 C 0.2668 0.82221 0.72005 0.0
C677 C 0.22752 0.82667 0.70287 0.0
N678 N 0.15625 0.83894 0.71365 0.0
N679 N 0.31061 0.83297 0.77998 0.0
C680 C 0.19334 0.83024 0.73001 0.0
C681 C 0.27264 0.82691 0.76422 0.0
N682 N 0.16616 0.82173 0.8008 0.0
N683 N 0.29838 0.81259 0.69437 0.0
H684 H 0.31644 0.83809 0.81194 0.0
H685 H 0.3359 0.83661 0.76065 0.0
H686 H 0.29504 0.808 0.66188 0.0
H687 H 0.3268 0.80553 0.70605 0.0
H688 H 0.13689 0.81735 0.78966 0.0
H689 H 0.16904 0.8185 0.83359 0.0
H690 H 0.13143 0.84556 0.7325 0.0
H691 H 0.15101 0.84286 0.68133 0.0
C692 C 0.74386 0.8523 0.78197 0.0
C693 C 0.71832 0.88179 0.79063 0.0
C694 C 0.75267 0.9172 0.73615 0.0
C695 C 0.77515 0.88651 0.72447 0.0
N696 N 0.78833 0.82337 0.73147 0.0
N697 N 0.69567 0.94156 0.77522 0.0
C698 C 0.77004 0.85368 0.7463 0.0
C699 C 0.72193 0.91409 0.7675 0.0
N700 N 0.74319 0.82304 0.80797 0.0
N701 N 0.76173 0.94948 0.71823 0.0
H702 H 0.67421 0.9409 0.79954 0.0
H703 H 0.69352 0.96418 0.75616 0.0
H704 H 0.78438 0.95268 0.69541 0.0
H705 H 0.74931 0.97355 0.72832 0.0
H706 H 0.76427 0.80243 0.80616 0.0
H707 H 0.72345 0.8206 0.83369 0.0
H708 H 0.78197 0.79796 0.74304 0.0
H709 H 0.80742 0.82301 0.70507 0.0
C710 C 0.77033 0.06981 0.23098 0.0
C711 C 0.7802 0.09916 0.25722 0.0
C712 C 0.73511 0.13799 0.21635 0.0
C713 C 0.72192 0.10782 0.19312 0.0
N714 N 0.72311 0.04437 0.1804 0.0
N715 N 0.7702 0.16045 0.27829 0.0
C716 C 0.7387 0.07353 0.2007 0.0
C717 C 0.76218 0.13311 0.25079 0.0
N718 N 0.79145 0.0386 0.23487 0.0
N719 N 0.72286 0.17142 0.20446 0.0
H720 H 0.79133 0.15849 0.30278 0.0
H721 H 0.75415 0.18436 0.2786 0.0
H722 H 0.70305 0.17607 0.17924 0.0
H723 H 0.73488 0.19477 0.21711 0.0
H724 H 0.78859 0.0173 0.21391 0.0
H725 H 0.81436 0.035 0.25731 0.0
H726 H 0.73103 0.01822 0.18781 0.0
H727 H 0.69978 0.04603 0.15817 0.0
C728 C 0.70069 0.65359 0.26917 0.0
C729 C 0.7346 0.65585 0.29675 0.0
C730 C 0.78067 0.65226 0.23609 0.0
C731 C 0.74674 0.65267 0.20841 0.0
N732 N 0.67515 0.66192 0.19779 0.0
N733 N 0.80625 0.66503 0.30655 0.0
C734 C 0.7069 0.65579 0.2247 0.0
C735 C 0.77447 0.65749 0.28024 0.0
N736 N 0.6628 0.64751 0.28521 0.0
N737 N 0.81854 0.64516 0.2206 0.0
H738 H 0.80271 0.66953 0.33906 0.0
H739 H 0.83543 0.6702 0.29558 0.0
H740 H 0.82445 0.64047 0.18854 0.0
H741 H 0.8436 0.64072 0.23998 0.0
H742 H 0.63785 0.64171 0.26622 0.0
H743 H 0.65679 0.64493 0.31759 0.0
H744 H 0.64608 0.66815 0.20833 0.0
H745 H 0.67862 0.66429 0.16496 0.0
C746 C 0.77358 0.33003 0.7026 0.0
C747 C 0.73491 0.33652 0.68472 0.0
C748 C 0.7053 0.34004 0.75583 0.0
C749 C 0.74471 0.33846 0.77346 0.0
N750 N 0.81737 0.33848 0.76321 0.0
N751 N 0.66503 0.35443 0.69411 0.0
C752 C 0.77922 0.33507 0.74681 0.0
C753 C 0.70093 0.34322 0.71122 0.0
N754 N 0.80461 0.31801 0.67762 0.0
N755 N 0.67203 0.33741 0.78152 0.0
H756 H 0.66069 0.35842 0.66165 0.0
H757 H 0.64075 0.36324 0.71248 0.0
H758 H 0.67404 0.33418 0.81438 0.0
H759 H 0.64268 0.33476 0.76984 0.0
H760 H 0.83225 0.30939 0.68986 0.0
H761 H 0.80138 0.31321 0.64516 0.0
H762 H 0.84326 0.33995 0.74436 0.0
H763 H 0.82309 0.34341 0.79524 0.0
C764 C 0.25545 0.34494 0.72028 0.0
C765 C 0.27849 0.37608 0.7121 0.0
C766 C 0.23861 0.4096 0.76405 0.0
C767 C 0.2171 0.37791 0.77395 0.0
N768 N 0.20979 0.31404 0.76794 0.0
N769 N 0.2969 0.43644 0.7295 0.0
C770 C 0.22672 0.34517 0.75378 0.0
C771 C 0.27159 0.40796 0.73508 0.0
N772 N 0.26053 0.31535 0.69544 0.0
N773 N 0.22642 0.4414 0.78109 0.0
H774 H 0.32092 0.43618 0.70793 0.0
H775 H 0.29615 0.45922 0.74834 0.0
H776 H 0.20218 0.44357 0.80221 0.0
H777 H 0.23809 0.46599 0.77187 0.0
H778 H 0.24125 0.29341 0.69628 0.0
H779 H 0.28265 0.31361 0.67186 0.0
H780 H 0.21908 0.28891 0.7578 0.0
H781 H 0.1887 0.31297 0.79258 0.0
C782 C 0.26502 0.55977 0.25093 0.0
C783 C 0.27298 0.59162 0.27358 0.0
C784 C 0.22317 0.62394 0.23081 0.0
C785 C 0.21277 0.59146 0.21053 0.0
N786 N 0.21945 0.52766 0.20414 0.0
N787 N 0.2563 0.65274 0.29016 0.0
C788 C 0.23259 0.5591 0.22127 0.0
C789 C 0.25108 0.62336 0.265 0.0
N790 N 0.28896 0.53047 0.25732 0.0
N791 N 0.20786 0.65556 0.21611 0.0
H792 H 0.2774 0.6538 0.31476 0.0
H793 H 0.23771 0.67516 0.28873 0.0
H794 H 0.18736 0.65726 0.19099 0.0
H795 H 0.218 0.68039 0.22632 0.0
H796 H 0.28753 0.50755 0.23875 0.0
H797 H 0.31253 0.53001 0.27939 0.0
H798 H 0.22981 0.50272 0.21382 0.0
H799 H 0.19567 0.52627 0.18239 0.0
loop_
_geom_bond_atom_site_label_1
_geom_bond_atom_site_label_2
_geom_bond_distance
_geom_bond_site_symmetry_2
_ccdc_geom_bond_type
C0 O1 1.306 . S
C0 O3 1.160 . S
O1 C0 1.306 . S
O1 Cd2 2.228 1_554 S
Cd2 O1 2.228 1_556 S
Cd2 O6 2.273 1_556 S
Cd2 O10 2.277 1_556 S
O3 C0 1.160 . S
O3 Cd4 2.203 . S
Cd4 O3 2.203 . S
Cd4 O6 2.411 . S
Cd4 O7 2.333 . S
Cd4 O8 2.352 . S
Cd4 O12 2.277 . S
Cd4 O13 2.356 . S
C5 O10 1.209 . S
C5 O12 1.226 . S
O6 Cd2 2.273 1_554 S
O6 Cd4 2.411 . S
O6 C9 1.320 . S
O7 Cd4 2.333 . S
O7 C9 1.214 . S
O8 Cd4 2.352 . S
O8 C11 1.258 . S
C9 O6 1.320 . S
C9 O7 1.214 . S
O10 Cd2 2.277 1_554 S
O10 C5 1.209 . S
C11 O8 1.258 . S
C11 O13 1.282 . S
O12 Cd4 2.277 . S
O12 C5 1.226 . S
O13 Cd4 2.356 . S
O13 C11 1.282 . S
C14 O15 1.306 . S
C14 O17 1.160 . S
O15 C14 1.306 . S
O15 Cd16 2.228 . S
Cd16 O15 2.228 . S
Cd16 O20 2.273 . S
Cd16 O24 2.277 . S
O17 C14 1.160 . S
O17 Cd18 2.203 . S
Cd18 O17 2.203 . S
Cd18 O20 2.411 . S
Cd18 O21 2.333 . S
Cd18 O22 2.352 . S
Cd18 O26 2.277 . S
Cd18 O27 2.356 . S
C19 O24 1.209 . S
C19 O26 1.226 . S
O20 Cd16 2.273 . S
O20 Cd18 2.411 . S
O20 C23 1.320 . S
O21 Cd18 2.333 . S
O21 C23 1.214 . S
O22 Cd18 2.352 . S
O22 C25 1.258 . S
C23 O20 1.320 . S
C23 O21 1.214 . S
O24 Cd16 2.277 . S
O24 C19 1.209 . S
C25 O22 1.258 . S
C25 O27 1.282 . S
O26 Cd18 2.277 . S
O26 C19 1.226 . S
O27 Cd18 2.356 . S
O27 C25 1.282 . S
C28 O29 1.306 . S
C28 O31 1.160 . S
O29 C28 1.306 . S
O29 Cd30 2.228 1_556 S
Cd30 O29 2.228 1_554 S
Cd30 O34 2.273 1_554 S
Cd30 O38 2.277 1_554 S
O31 C28 1.160 . S
O31 Cd32 2.203 . S
Cd32 O31 2.203 . S
Cd32 O34 2.411 . S
Cd32 O35 2.333 . S
Cd32 O36 2.352 . S
Cd32 O40 2.277 . S
Cd32 O41 2.356 . S
C33 O38 1.209 . S
C33 O40 1.226 . S
O34 Cd30 2.273 1_556 S
O34 Cd32 2.411 . S
O34 C37 1.320 . S
O35 Cd32 2.333 . S
O35 C37 1.214 . S
O36 Cd32 2.352 . S
O36 C39 1.258 . S
C37 O34 1.320 . S
C37 O35 1.214 . S
O38 Cd30 2.277 1_556 S
O38 C33 1.209 . S
C39 O36 1.258 . S
C39 O41 1.282 . S
O40 Cd32 2.277 . S
O40 C33 1.226 . S
O41 Cd32 2.356 . S
O41 C39 1.282 . S
C42 O43 1.306 . S
C42 O45 1.160 . S
O43 C42 1.306 . S
O43 Cd44 2.228 . S
Cd44 O43 2.228 . S
Cd44 O48 2.273 . S
Cd44 O52 2.277 . S
O45 C42 1.160 . S
O45 Cd46 2.203 . S
Cd46 O45 2.203 . S
Cd46 O48 2.411 . S
Cd46 O49 2.333 . S
Cd46 O50 2.352 . S
Cd46 O54 2.277 . S
Cd46 O55 2.356 . S
C47 O52 1.209 . S
C47 O54 1.226 . S
O48 Cd44 2.273 . S
O48 Cd46 2.411 . S
O48 C51 1.320 . S
O49 Cd46 2.333 . S
O49 C51 1.214 . S
O50 Cd46 2.352 . S
O50 C53 1.258 . S
C51 O48 1.320 . S
C51 O49 1.214 . S
O52 Cd44 2.277 . S
O52 C47 1.209 . S
C53 O50 1.258 . S
C53 O55 1.282 . S
O54 Cd46 2.277 . S
O54 C47 1.226 . S
O55 Cd46 2.356 . S
O55 C53 1.282 . S
C56 O57 1.306 . S
C56 O59 1.160 . S
O57 C56 1.306 . S
O57 Cd58 2.228 . S
Cd58 O57 2.228 . S
Cd58 O62 2.273 . S
Cd58 O66 2.277 . S
O59 C56 1.160 . S
O59 Cd60 2.203 . S
Cd60 O59 2.203 . S
Cd60 O62 2.411 . S
Cd60 O63 2.333 . S
Cd60 O64 2.352 . S
Cd60 O68 2.277 . S
Cd60 O69 2.356 . S
C61 O66 1.209 . S
C61 O68 1.226 . S
O62 Cd58 2.273 . S
O62 Cd60 2.411 . S
O62 C65 1.320 . S
O63 Cd60 2.333 . S
O63 C65 1.214 . S
O64 Cd60 2.352 . S
O64 C67 1.258 . S
C65 O62 1.320 . S
C65 O63 1.214 . S
O66 Cd58 2.277 . S
O66 C61 1.209 . S
C67 O64 1.258 . S
C67 O69 1.282 . S
O68 Cd60 2.277 . S
O68 C61 1.226 . S
O69 Cd60 2.356 . S
O69 C67 1.282 . S
C70 O71 1.306 . S
C70 O73 1.160 . S
O71 C70 1.306 . S
O71 Cd72 2.228 . S
Cd72 O71 2.228 . S
Cd72 O76 2.273 . S
Cd72 O80 2.277 . S
O73 C70 1.160 . S
O73 Cd74 2.203 . S
Cd74 O73 2.203 . S
Cd74 O76 2.411 . S
Cd74 O77 2.333 . S
Cd74 O78 2.352 . S
Cd74 O82 2.277 . S
Cd74 O83 2.356 . S
C75 O80 1.209 . S
C75 O82 1.226 . S
O76 Cd72 2.273 . S
O76 Cd74 2.411 . S
O76 C79 1.320 . S
O77 Cd74 2.333 . S
O77 C79 1.214 . S
O78 Cd74 2.352 . S
O78 C81 1.258 . S
C79 O76 1.320 . S
C79 O77 1.214 . S
O80 Cd72 2.277 . S
O80 C75 1.209 . S
C81 O78 1.258 . S
C81 O83 1.282 . S
O82 Cd74 2.277 . S
O82 C75 1.226 . S
O83 Cd74 2.356 . S
O83 C81 1.282 . S
C84 O85 1.306 . S
C84 O87 1.160 . S
O85 C84 1.306 . S
O85 Cd86 2.228 . S
Cd86 O85 2.228 . S
Cd86 O90 2.273 . S
Cd86 O94 2.277 . S
O87 C84 1.160 . S
O87 Cd88 2.203 . S
Cd88 O87 2.203 . S
Cd88 O90 2.411 . S
Cd88 O91 2.333 . S
Cd88 O92 2.352 . S
Cd88 O96 2.277 . S
Cd88 O97 2.356 . S
C89 O94 1.209 . S
C89 O96 1.226 . S
O90 Cd86 2.273 . S
O90 Cd88 2.411 . S
O90 C93 1.320 . S
O91 Cd88 2.333 . S
O91 C93 1.214 . S
O92 Cd88 2.352 . S
O92 C95 1.258 . S
C93 O90 1.320 . S
C93 O91 1.214 . S
O94 Cd86 2.277 . S
O94 C89 1.209 . S
C95 O92 1.258 . S
C95 O97 1.282 . S
O96 Cd88 2.277 . S
O96 C89 1.226 . S
O97 Cd88 2.356 . S
O97 C95 1.282 . S
C98 O99 1.306 . S
C98 O101 1.160 . S
O99 C98 1.306 . S
O99 Cd100 2.228 . S
Cd100 O99 2.228 . S
Cd100 O104 2.273 . S
Cd100 O108 2.277 . S
O101 C98 1.160 . S
O101 Cd102 2.203 . S
Cd102 O101 2.203 . S
Cd102 O104 2.411 . S
Cd102 O105 2.333 . S
Cd102 O106 2.352 . S
Cd102 O110 2.277 . S
Cd102 O111 2.356 . S
C103 O108 1.209 . S
C103 O110 1.226 . S
O104 Cd100 2.273 . S
O104 Cd102 2.411 . S
O104 C107 1.320 . S
O105 Cd102 2.333 . S
O105 C107 1.214 . S
O106 Cd102 2.352 . S
O106 C109 1.258 . S
C107 O104 1.320 . S
C107 O105 1.214 . S
O108 Cd100 2.277 . S
O108 C103 1.209 . S
C109 O106 1.258 . S
C109 O111 1.282 . S
O110 Cd102 2.277 . S
O110 C103 1.226 . S
O111 Cd102 2.356 . S
O111 C109 1.282 . S
C112 O113 1.306 . S
C112 O115 1.160 . S
O113 C112 1.306 . S
O113 Cd114 2.228 1_554 S
Cd114 O113 2.228 1_556 S
Cd114 O118 2.273 1_556 S
Cd114 O122 2.277 1_556 S
O115 C112 1.160 . S
O115 Cd116 2.203 . S
Cd116 O115 2.203 . S
Cd116 O118 2.411 . S
Cd116 O119 2.333 . S
Cd116 O120 2.352 . S
Cd116 O124 2.277 . S
Cd116 O125 2.356 . S
C117 O122 1.209 . S
C117 O124 1.226 . S
O118 Cd114 2.273 1_554 S
O118 Cd116 2.411 . S
O118 C121 1.320 . S
O119 Cd116 2.333 . S
O119 C121 1.214 . S
O120 Cd116 2.352 . S
O120 C123 1.258 . S
C121 O118 1.320 . S
C121 O119 1.214 . S
O122 Cd114 2.277 1_554 S
O122 C117 1.209 . S
C123 O120 1.258 . S
C123 O125 1.282 . S
O124 Cd116 2.277 . S
O124 C117 1.226 . S
O125 Cd116 2.356 . S
O125 C123 1.282 . S
C126 O127 1.306 . S
C126 O129 1.160 . S
O127 C126 1.306 . S
O127 Cd128 2.228 . S
Cd128 O127 2.228 . S
Cd128 O132 2.273 . S
Cd128 O136 2.277 . S
O129 C126 1.160 . S
O129 Cd130 2.203 . S
Cd130 O129 2.203 . S
Cd130 O132 2.411 . S
Cd130 O133 2.333 . S
Cd130 O134 2.352 . S
Cd130 O138 2.277 . S
Cd130 O139 2.356 . S
C131 O136 1.209 . S
C131 O138 1.226 . S
O132 Cd128 2.273 . S
O132 Cd130 2.411 . S
O132 C135 1.320 . S
O133 Cd130 2.333 . S
O133 C135 1.214 . S
O134 Cd130 2.352 . S
O134 C137 1.258 . S
C135 O132 1.320 . S
C135 O133 1.214 . S
O136 Cd128 2.277 . S
O136 C131 1.209 . S
C137 O134 1.258 . S
C137 O139 1.282 . S
O138 Cd130 2.277 . S
O138 C131 1.226 . S
O139 Cd130 2.356 . S
O139 C137 1.282 . S
C140 O141 1.306 . S
C140 O143 1.160 . S
O141 C140 1.306 . S
O141 Cd142 2.228 1_556 S
Cd142 O141 2.228 1_554 S
Cd142 O146 2.273 1_554 S
Cd142 O150 2.277 1_554 S
O143 C140 1.160 . S
O143 Cd144 2.203 . S
Cd144 O143 2.203 . S
Cd144 O146 2.411 . S
Cd144 O147 2.333 . S
Cd144 O148 2.352 . S
Cd144 O152 2.277 . S
Cd144 O153 2.356 . S
C145 O150 1.209 . S
C145 O152 1.226 . S
O146 Cd142 2.273 1_556 S
O146 Cd144 2.411 . S
O146 C149 1.320 . S
O147 Cd144 2.333 . S
O147 C149 1.214 . S
O148 Cd144 2.352 . S
O148 C151 1.258 . S
C149 O146 1.320 . S
C149 O147 1.214 . S
O150 Cd142 2.277 1_556 S
O150 C145 1.209 . S
C151 O148 1.258 . S
C151 O153 1.282 . S
O152 Cd144 2.277 . S
O152 C145 1.226 . S
O153 Cd144 2.356 . S
O153 C151 1.282 . S
C154 O155 1.306 . S
C154 O157 1.160 . S
O155 C154 1.306 . S
O155 Cd156 2.228 . S
Cd156 O155 2.228 . S
Cd156 O160 2.273 . S
Cd156 O164 2.277 . S
O157 C154 1.160 . S
O157 Cd158 2.203 . S
Cd158 O157 2.203 . S
Cd158 O160 2.411 . S
Cd158 O161 2.333 . S
Cd158 O162 2.352 . S
Cd158 O166 2.277 . S
Cd158 O167 2.356 . S
C159 O164 1.209 . S
C159 O166 1.226 . S
O160 Cd156 2.273 . S
O160 Cd158 2.411 . S
O160 C163 1.320 . S
O161 Cd158 2.333 . S
O161 C163 1.214 . S
O162 Cd158 2.352 . S
O162 C165 1.258 . S
C163 O160 1.320 . S
C163 O161 1.214 . S
O164 Cd156 2.277 . S
O164 C159 1.209 . S
C165 O162 1.258 . S
C165 O167 1.282 . S
O166 Cd158 2.277 . S
O166 C159 1.226 . S
O167 Cd158 2.356 . S
O167 C165 1.282 . S
C168 O169 1.306 . S
C168 O171 1.160 . S
O169 C168 1.306 . S
O169 Cd170 2.228 . S
Cd170 O169 2.228 . S
Cd170 O174 2.273 . S
Cd170 O178 2.277 . S
O171 C168 1.160 . S
O171 Cd172 2.203 . S
Cd172 O171 2.203 . S
Cd172 O174 2.411 . S
Cd172 O175 2.333 . S
Cd172 O176 2.352 . S
Cd172 O180 2.277 . S
Cd172 O181 2.356 . S
C173 O178 1.209 . S
C173 O180 1.226 . S
O174 Cd170 2.273 . S
O174 Cd172 2.411 . S
O174 C177 1.320 . S
O175 Cd172 2.333 . S
O175 C177 1.214 . S
O176 Cd172 2.352 . S
O176 C179 1.258 . S
C177 O174 1.320 . S
C177 O175 1.214 . S
O178 Cd170 2.277 . S
O178 C173 1.209 . S
C179 O176 1.258 . S
C179 O181 1.282 . S
O180 Cd172 2.277 . S
O180 C173 1.226 . S
O181 Cd172 2.356 . S
O181 C179 1.282 . S
C182 O183 1.306 . S
C182 O185 1.160 . S
O183 C182 1.306 . S
O183 Cd184 2.228 . S
Cd184 O183 2.228 . S
Cd184 O188 2.273 . S
Cd184 O192 2.277 . S
O185 C182 1.160 . S
O185 Cd186 2.203 . S
Cd186 O185 2.203 . S
Cd186 O188 2.411 . S
Cd186 O189 2.333 . S
Cd186 O190 2.352 . S
Cd186 O194 2.277 . S
Cd186 O195 2.356 . S
C187 O192 1.209 . S
C187 O194 1.226 . S
O188 Cd184 2.273 . S
O188 Cd186 2.411 . S
O188 C191 1.320 . S
O189 Cd186 2.333 . S
O189 C191 1.214 . S
O190 Cd186 2.352 . S
O190 C193 1.258 . S
C191 O188 1.320 . S
C191 O189 1.214 . S
O192 Cd184 2.277 . S
O192 C187 1.209 . S
C193 O190 1.258 . S
C193 O195 1.282 . S
O194 Cd186 2.277 . S
O194 C187 1.226 . S
O195 Cd186 2.356 . S
O195 C193 1.282 . S
C196 O197 1.306 . S
C196 O199 1.160 . S
O197 C196 1.306 . S
O197 Cd198 2.228 . S
Cd198 O197 2.228 . S
Cd198 O202 2.273 . S
Cd198 O206 2.277 . S
O199 C196 1.160 . S
O199 Cd200 2.203 . S
Cd200 O199 2.203 . S
Cd200 O202 2.411 . S
Cd200 O203 2.333 . S
Cd200 O204 2.352 . S
Cd200 O208 2.277 . S
Cd200 O209 2.356 . S
C201 O206 1.209 . S
C201 O208 1.226 . S
O202 Cd198 2.273 . S
O202 Cd200 2.411 . S
O202 C205 1.320 . S
O203 Cd200 2.333 . S
O203 C205 1.214 . S
O204 Cd200 2.352 . S
O204 C207 1.258 . S
C205 O202 1.320 . S
C205 O203 1.214 . S
O206 Cd198 2.277 . S
O206 C201 1.209 . S
C207 O204 1.258 . S
C207 O209 1.282 . S
O208 Cd200 2.277 . S
O208 C201 1.226 . S
O209 Cd200 2.356 . S
O209 C207 1.282 . S
C210 O211 1.306 . S
C210 O213 1.160 . S
O211 C210 1.306 . S
O211 Cd212 2.228 . S
Cd212 O211 2.228 . S
Cd212 O216 2.273 . S
Cd212 O220 2.277 . S
O213 C210 1.160 . S
O213 Cd214 2.203 . S
Cd214 O213 2.203 . S
Cd214 O216 2.411 . S
Cd214 O217 2.333 . S
Cd214 O218 2.352 . S
Cd214 O222 2.277 . S
Cd214 O223 2.356 . S
C215 O220 1.209 . S
C215 O222 1.226 . S
O216 Cd212 2.273 . S
O216 Cd214 2.411 . S
O216 C219 1.320 . S
O217 Cd214 2.333 . S
O217 C219 1.214 . S
O218 Cd214 2.352 . S
O218 C221 1.258 . S
C219 O216 1.320 . S
C219 O217 1.214 . S
O220 Cd212 2.277 . S
O220 C215 1.209 . S
C221 O218 1.258 . S
C221 O223 1.282 . S
O222 Cd214 2.277 . S
O222 C215 1.226 . S
O223 Cd214 2.356 . S
O223 C221 1.282 . S
C224 C225 1.363 . S
C224 C230 1.379 . S
C224 N232 1.356 . S
C225 C224 1.363 . S
C225 C231 1.363 1_554 S
C226 C227 1.363 . S
C226 C231 1.379 . S
C226 N233 1.356 . S
C227 C226 1.363 . S
C227 C230 1.363 1_556 S
N228 C230 1.356 . S
N228 H240 0.984 . S
N228 H241 0.985 1_554 S
N229 C231 1.356 . S
N229 H234 0.984 . S
N229 H235 0.985 . S
C230 C224 1.379 . S
C230 C227 1.363 1_554 S
C230 N228 1.356 . S
C231 C225 1.363 1_556 S
C231 C226 1.379 . S
C231 N229 1.356 . S
N232 C224 1.356 . S
N232 H238 0.984 . S
N232 H239 0.984 . S
N233 C226 1.356 . S
N233 H236 0.984 . S
N233 H237 0.985 . S
H234 N229 0.984 . S
H235 N229 0.985 . S
H236 N233 0.984 . S
H237 N233 0.985 . S
H238 N232 0.984 . S
H239 N232 0.984 . S
H240 N228 0.984 . S
H241 N228 0.985 1_556 S
C242 C243 1.363 . S
C242 C248 1.379 . S
C242 N250 1.356 . S
C243 C242 1.363 . S
C243 C249 1.363 . S
C244 C245 1.363 . S
C244 C249 1.379 . S
C244 N251 1.356 . S
C245 C244 1.363 . S
C245 C248 1.363 . S
N246 C248 1.356 . S
N246 H258 0.984 . S
N246 H259 0.985 . S
N247 C249 1.356 . S
N247 H252 0.984 . S
N247 H253 0.985 . S
C248 C242 1.379 . S
C248 C245 1.363 . S
C248 N246 1.356 . S
C249 C243 1.363 . S
C249 C244 1.379 . S
C249 N247 1.356 . S
N250 C242 1.356 . S
N250 H256 0.984 . S
N250 H257 0.984 . S
N251 C244 1.356 . S
N251 H254 0.984 . S
N251 H255 0.985 . S
H252 N247 0.984 . S
H253 N247 0.985 . S
H254 N251 0.984 . S
H255 N251 0.985 . S
H256 N250 0.984 . S
H257 N250 0.984 . S
H258 N246 0.984 . S
H259 N246 0.985 . S
C260 C261 1.363 1_554 S
C260 C266 1.379 . S
C260 N268 1.356 . S
C261 C260 1.363 1_556 S
C261 C267 1.363 . S
C262 C263 1.363 . S
C262 C267 1.379 1_554 S
C262 N269 1.356 . S
C263 C262 1.363 . S
C263 C266 1.363 . S
N264 C266 1.356 . S
N264 H276 0.984 . S
N264 H277 0.985 . S
N265 C267 1.356 . S
N265 H270 0.984 . S
N265 H271 0.985 . S
C266 C260 1.379 . S
C266 C263 1.363 . S
C266 N264 1.356 . S
C267 C261 1.363 . S
C267 C262 1.379 1_556 S
C267 N265 1.356 . S
N268 C260 1.356 . S
N268 H274 0.984 . S
N268 H275 0.984 1_554 S
N269 C262 1.356 . S
N269 H272 0.984 . S
N269 H273 0.985 1_554 S
H270 N265 0.984 . S
H271 N265 0.985 . S
H272 N269 0.984 . S
H273 N269 0.985 1_556 S
H274 N268 0.984 . S
H275 N268 0.984 1_556 S
H276 N264 0.984 . S
H277 N264 0.985 . S
C278 C279 1.363 . S
C278 C284 1.379 . S
C278 N286 1.356 . S
C279 C278 1.363 . S
C279 C285 1.363 . S
C280 C281 1.363 . S
C280 C285 1.379 . S
C280 N287 1.356 . S
C281 C280 1.363 . S
C281 C284 1.363 . S
N282 C284 1.356 . S
N282 H294 0.984 . S
N282 H295 0.985 . S
N283 C285 1.356 . S
N283 H288 0.984 . S
N283 H289 0.985 . S
C284 C278 1.379 . S
C284 C281 1.363 . S
C284 N282 1.356 . S
C285 C279 1.363 . S
C285 C280 1.379 . S
C285 N283 1.356 . S
N286 C278 1.356 . S
N286 H292 0.984 . S
N286 H293 0.984 . S
N287 C280 1.356 . S
N287 H290 0.984 . S
N287 H291 0.985 . S
H288 N283 0.984 . S
H289 N283 0.985 . S
H290 N287 0.984 . S
H291 N287 0.985 . S
H292 N286 0.984 . S
H293 N286 0.984 . S
H294 N282 0.984 . S
H295 N282 0.985 . S
C296 C297 1.363 1_556 S
C296 C302 1.379 . S
C296 N304 1.356 . S
C297 C296 1.363 1_554 S
C297 C303 1.363 . S
C298 C299 1.363 1_554 S
C298 C303 1.379 . S
C298 N305 1.356 . S
C299 C298 1.363 1_556 S
C299 C302 1.363 . S
N300 C302 1.356 . S
N300 H312 0.984 . S
N300 H313 0.985 . S
N301 C303 1.356 . S
N301 H306 0.984 . S
N301 H307 0.985 . S
C302 C296 1.379 . S
C302 C299 1.363 . S
C302 N300 1.356 . S
C303 C297 1.363 . S
C303 C298 1.379 . S
C303 N301 1.356 . S
N304 C296 1.356 . S
N304 H310 0.984 . S
N304 H311 0.984 . S
N305 C298 1.356 . S
N305 H308 0.984 1_554 S
N305 H309 0.985 . S
H306 N301 0.984 . S
H307 N301 0.985 . S
H308 N305 0.984 1_556 S
H309 N305 0.985 . S
H310 N304 0.984 . S
H311 N304 0.984 . S
H312 N300 0.984 . S
H313 N300 0.985 . S
C314 C315 1.363 . S
C314 C320 1.379 . S
C314 N322 1.356 . S
C315 C314 1.363 . S
C315 C321 1.363 . S
C316 C317 1.363 . S
C316 C321 1.379 . S
C316 N323 1.356 . S
C317 C316 1.363 . S
C317 C320 1.363 . S
N318 C320 1.356 . S
N318 H330 0.984 . S
N318 H331 0.985 . S
N319 C321 1.356 . S
N319 H324 0.984 . S
N319 H325 0.985 . S
C320 C314 1.379 . S
C320 C317 1.363 . S
C320 N318 1.356 . S
C321 C315 1.363 . S
C321 C316 1.379 . S
C321 N319 1.356 . S
N322 C314 1.356 . S
N322 H328 0.984 . S
N322 H329 0.984 . S
N323 C316 1.356 . S
N323 H326 0.984 . S
N323 H327 0.985 . S
H324 N319 0.984 . S
H325 N319 0.985 . S
H326 N323 0.984 . S
H327 N323 0.985 . S
H328 N322 0.984 . S
H329 N322 0.984 . S
H330 N318 0.984 . S
H331 N318 0.985 . S
C332 C333 1.363 . S
C332 C338 1.365 1_556 S
C332 N340 1.356 . S
C333 C332 1.363 . S
C333 C339 1.363 1_556 S
C334 C335 1.363 . S
C334 C339 1.379 . S
C334 N341 1.356 . S
C335 C334 1.363 . S
C335 C338 1.383 . S
N336 C338 1.357 . S
N336 H348 0.984 1_554 S
N336 H349 0.985 . S
N337 C339 1.356 . S
N337 H342 0.984 1_554 S
N337 H343 0.985 . S
C338 C332 1.365 1_554 S
C338 C335 1.383 . S
C338 N336 1.357 . S
C339 C333 1.363 1_554 S
C339 C334 1.379 . S
C339 N337 1.356 . S
N340 C332 1.356 . S
N340 H346 0.984 . S
N340 H347 0.984 . S
N341 C334 1.356 . S
N341 H344 0.984 . S
N341 H345 0.985 . S
H342 N337 0.984 1_556 S
H343 N337 0.985 . S
H344 N341 0.984 . S
H345 N341 0.985 . S
H346 N340 0.984 . S
H347 N340 0.984 . S
H348 N336 0.984 1_556 S
H349 N336 0.985 . S
C350 C351 1.363 . S
C350 C356 1.379 . S
C350 N358 1.356 . S
C351 C350 1.363 . S
C351 C357 1.363 . S
C352 C353 1.363 . S
C352 C357 1.379 . S
C352 N359 1.356 . S
C353 C352 1.363 . S
C353 C356 1.363 . S
N354 C356 1.356 . S
N354 H366 0.984 . S
N354 H367 0.985 . S
N355 C357 1.356 . S
N355 H360 0.984 . S
N355 H361 0.985 . S
C356 C350 1.379 . S
C356 C353 1.363 . S
C356 N354 1.356 . S
C357 C351 1.363 . S
C357 C352 1.379 . S
C357 N355 1.356 . S
N358 C350 1.356 . S
N358 H364 0.984 . S
N358 H365 0.984 . S
N359 C352 1.356 . S
N359 H362 0.984 . S
N359 H363 0.985 . S
H360 N355 0.984 . S
H361 N355 0.985 . S
H362 N359 0.984 . S
H363 N359 0.985 . S
H364 N358 0.984 . S
H365 N358 0.984 . S
H366 N354 0.984 . S
H367 N354 0.985 . S
C368 C369 1.363 1_556 S
C368 C374 1.379 1_545 S
C368 N376 1.356 . S
C369 C368 1.363 1_554 S
C369 C375 1.363 . S
C370 C371 1.363 1_554 S
C370 C375 1.379 1_565 S
C370 N377 1.356 . S
C371 C370 1.363 1_556 S
C371 C374 1.363 . S
N372 C374 1.356 . S
N372 H384 0.984 . S
N372 H385 0.985 . S
N373 C375 1.356 . S
N373 H378 0.984 . S
N373 H379 0.985 . S
C374 C368 1.379 1_565 S
C374 C371 1.363 . S
C374 N372 1.356 . S
C375 C369 1.363 . S
C375 C370 1.379 1_545 S
C375 N373 1.356 . S
N376 C368 1.356 . S
N376 H382 0.984 . S
N376 H383 0.984 . S
N377 C370 1.356 . S
N377 H380 0.984 . S
N377 H381 0.985 . S
H378 N373 0.984 . S
H379 N373 0.985 . S
H380 N377 0.984 . S
H381 N377 0.985 . S
H382 N376 0.984 . S
H383 N376 0.984 . S
H384 N372 0.984 . S
H385 N372 0.985 . S
C386 C387 1.363 . S
C386 C392 1.379 1_565 S
C386 N394 1.356 . S
C387 C386 1.363 . S
C387 C393 1.363 . S
C388 C389 1.363 . S
C388 C393 1.379 1_545 S
C388 N395 1.356 . S
C389 C388 1.363 . S
C389 C392 1.363 . S
N390 C392 1.356 . S
N390 H402 0.984 . S
N390 H403 0.985 . S
N391 C393 1.356 . S
N391 H396 0.984 . S
N391 H397 0.985 . S
C392 C386 1.379 1_545 S
C392 C389 1.363 . S
C392 N390 1.356 . S
C393 C387 1.363 . S
C393 C388 1.379 1_565 S
C393 N391 1.356 . S
N394 C386 1.356 . S
N394 H400 0.984 . S
N394 H401 0.984 . S
N395 C388 1.356 . S
N395 H398 0.984 . S
N395 H399 0.985 . S
H396 N391 0.984 . S
H397 N391 0.985 . S
H398 N395 0.984 . S
H399 N395 0.985 . S
H400 N394 0.984 . S
H401 N394 0.984 . S
H402 N390 0.984 . S
H403 N390 0.985 . S
C404 C405 1.363 1_554 S
C404 C410 1.379 . S
C404 N412 1.356 1_554 S
C405 C404 1.363 1_556 S
C405 C411 1.363 1_565 S
C406 C407 1.363 1_556 S
C406 C411 1.379 . S
C406 N413 1.356 1_556 S
C407 C406 1.363 1_554 S
C407 C410 1.363 1_545 S
N408 C410 1.356 1_545 S
N408 H420 0.984 1_545 S
N408 H421 0.985 . S
N409 C411 1.356 1_565 S
N409 H414 0.984 . S
N409 H415 0.985 1_565 S
C410 C404 1.379 . S
C410 C407 1.363 1_565 S
C410 N408 1.356 1_565 S
C411 C405 1.363 1_545 S
C411 C406 1.379 . S
C411 N409 1.356 1_545 S
N412 C404 1.356 1_556 S
N412 H418 0.984 1_556 S
N412 H419 0.984 . S
N413 C406 1.356 1_554 S
N413 H416 0.984 . S
N413 H417 0.985 1_554 S
H414 N409 0.984 . S
H415 N409 0.985 1_545 S
H416 N413 0.984 . S
H417 N413 0.985 1_556 S
H418 N412 0.984 1_554 S
H419 N412 0.984 . S
H420 N408 0.984 1_565 S
H421 N408 0.985 . S
C422 C423 1.363 . S
C422 C428 1.379 . S
C422 N430 1.356 . S
C423 C422 1.363 . S
C423 C429 1.363 1_545 S
C424 C425 1.363 . S
C424 C429 1.379 . S
C424 N431 1.356 . S
C425 C424 1.363 . S
C425 C428 1.363 1_565 S
N426 C428 1.356 1_565 S
N426 H438 0.984 1_565 S
N426 H439 0.985 . S
N427 C429 1.356 1_545 S
N427 H432 0.984 . S
N427 H433 0.985 1_545 S
C428 C422 1.379 . S
C428 C425 1.363 1_545 S
C428 N426 1.356 1_545 S
C429 C423 1.363 1_565 S
C429 C424 1.379 . S
C429 N427 1.356 1_565 S
N430 C422 1.356 . S
N430 H436 0.984 . S
N430 H437 0.984 . S
N431 C424 1.356 . S
N431 H434 0.984 . S
N431 H435 0.985 . S
H432 N427 0.984 . S
H433 N427 0.985 1_565 S
H434 N431 0.984 . S
H435 N431 0.985 . S
H436 N430 0.984 . S
H437 N430 0.984 . S
H438 N426 0.984 1_545 S
H439 N426 0.985 . S
C440 C441 1.363 1_554 S
C440 C446 1.379 . S
C440 N448 1.356 . S
C441 C440 1.363 1_556 S
C441 C447 1.363 . S
C442 C443 1.363 1_556 S
C442 C447 1.379 . S
C442 N449 1.356 . S
C443 C442 1.363 1_554 S
C443 C446 1.363 . S
N444 C446 1.356 . S
N444 H456 0.984 . S
N444 H457 0.985 . S
N445 C447 1.356 . S
N445 H450 0.984 . S
N445 H451 0.985 . S
C446 C440 1.379 . S
C446 C443 1.363 . S
C446 N444 1.356 . S
C447 C441 1.363 . S
C447 C442 1.379 . S
C447 N445 1.356 . S
N448 C440 1.356 . S
N448 H454 0.984 . S
N448 H455 0.984 . S
N449 C442 1.356 . S
N449 H452 0.984 . S
N449 H453 0.985 . S
H450 N445 0.984 . S
H451 N445 0.985 . S
H452 N449 0.984 . S
H453 N449 0.985 . S
H454 N448 0.984 . S
H455 N448 0.984 . S
H456 N444 0.984 . S
H457 N444 0.985 . S
C458 C459 1.363 . S
C458 C464 1.379 . S
C458 N466 1.356 . S
C459 C458 1.363 . S
C459 C465 1.363 . S
C460 C461 1.363 . S
C460 C465 1.379 . S
C460 N467 1.356 . S
C461 C460 1.363 . S
C461 C464 1.363 . S
N462 C464 1.356 . S
N462 H474 0.984 . S
N462 H475 0.985 . S
N463 C465 1.356 . S
N463 H468 0.984 . S
N463 H469 0.985 . S
C464 C458 1.379 . S
C464 C461 1.363 . S
C464 N462 1.356 . S
C465 C459 1.363 . S
C465 C460 1.379 . S
C465 N463 1.356 . S
N466 C458 1.356 . S
N466 H472 0.984 . S
N466 H473 0.984 . S
N467 C460 1.356 . S
N467 H470 0.984 . S
N467 H471 0.985 . S
H468 N463 0.984 . S
H469 N463 0.985 . S
H470 N467 0.984 . S
H471 N467 0.985 . S
H472 N466 0.984 . S
H473 N466 0.984 . S
H474 N462 0.984 . S
H475 N462 0.985 . S
C476 C477 1.363 . S
C476 C482 1.379 . S
C476 N484 1.356 . S
C477 C476 1.363 . S
C477 C483 1.363 1_554 S
C478 C479 1.363 . S
C478 C483 1.379 . S
C478 N485 1.356 . S
C479 C478 1.363 . S
C479 C482 1.363 1_556 S
N480 C482 1.353 1_556 S
N480 H492 0.970 1_556 S
N480 H493 1.002 . S
N481 C483 1.353 1_554 S
N481 H486 1.002 . S
N481 H487 0.970 1_554 S
C482 C476 1.379 . S
C482 C479 1.363 1_554 S
C482 N480 1.353 1_554 S
C483 C477 1.363 1_556 S
C483 C478 1.379 . S
C483 N481 1.353 1_556 S
N484 C476 1.356 . S
N484 H490 0.984 . S
N484 H491 0.984 . S
N485 C478 1.356 . S
N485 H488 0.984 . S
N485 H489 0.985 . S
H486 N481 1.002 . S
H487 N481 0.970 1_556 S
H488 N485 0.984 . S
H489 N485 0.985 . S
H490 N484 0.984 . S
H491 N484 0.984 . S
H492 N480 0.970 1_554 S
H493 N480 1.002 . S
C494 C495 1.363 . S
C494 C500 1.379 . S
C494 N502 1.356 . S
C495 C494 1.363 . S
C495 C501 1.363 . S
C496 C497 1.363 . S
C496 C501 1.379 . S
C496 N503 1.356 . S
C497 C496 1.363 . S
C497 C500 1.363 . S
N498 C500 1.356 . S
N498 H510 0.984 . S
N498 H511 0.985 . S
N499 C501 1.356 . S
N499 H504 0.984 . S
N499 H505 0.985 . S
C500 C494 1.379 . S
C500 C497 1.363 . S
C500 N498 1.356 . S
C501 C495 1.363 . S
C501 C496 1.379 . S
C501 N499 1.356 . S
N502 C494 1.356 . S
N502 H508 0.984 . S
N502 H509 0.984 . S
N503 C496 1.356 . S
N503 H506 0.984 . S
N503 H507 0.985 . S
H504 N499 0.984 . S
H505 N499 0.985 . S
H506 N503 0.984 . S
H507 N503 0.985 . S
H508 N502 0.984 . S
H509 N502 0.984 . S
H510 N498 0.984 . S
H511 N498 0.985 . S
C512 C513 1.363 . S
C512 C518 1.379 . S
C512 N520 1.356 . S
C513 C512 1.363 . S
C513 C519 1.363 . S
C514 C515 1.363 . S
C514 C519 1.379 . S
C514 N521 1.356 . S
C515 C514 1.363 . S
C515 C518 1.363 . S
N516 C518 1.356 . S
N516 H528 0.984 . S
N516 H529 0.985 . S
N517 C519 1.356 . S
N517 H522 0.984 . S
N517 H523 0.985 . S
C518 C512 1.379 . S
C518 C515 1.363 . S
C518 N516 1.356 . S
C519 C513 1.363 . S
C519 C514 1.379 . S
C519 N517 1.356 . S
N520 C512 1.356 . S
N520 H526 0.984 . S
N520 H527 0.984 . S
N521 C514 1.356 . S
N521 H524 0.984 . S
N521 H525 0.985 . S
H522 N517 0.984 . S
H523 N517 0.985 . S
H524 N521 0.984 . S
H525 N521 0.985 . S
H526 N520 0.984 . S
H527 N520 0.984 . S
H528 N516 0.984 . S
H529 N516 0.985 . S
C530 C531 1.363 . S
C530 C536 1.379 1_655 S
C530 N538 1.356 . S
C531 C530 1.363 . S
C531 C537 1.363 . S
C532 C533 1.363 . S
C532 C537 1.379 1_455 S
C532 N539 1.356 . S
C533 C532 1.363 . S
C533 C536 1.363 . S
N534 C536 1.356 . S
N534 H546 0.984 . S
N534 H547 0.985 . S
N535 C537 1.356 . S
N535 H540 0.984 . S
N535 H541 0.985 . S
C536 C530 1.379 1_455 S
C536 C533 1.363 . S
C536 N534 1.356 . S
C537 C531 1.363 . S
C537 C532 1.379 1_655 S
C537 N535 1.356 . S
N538 C530 1.356 . S
N538 H544 0.984 . S
N538 H545 0.984 . S
N539 C532 1.356 . S
N539 H542 0.984 . S
N539 H543 0.985 . S
H540 N535 0.984 . S
H541 N535 0.985 . S
H542 N539 0.984 . S
H543 N539 0.985 . S
H544 N538 0.984 . S
H545 N538 0.984 . S
H546 N534 0.984 . S
H547 N534 0.985 . S
C548 C549 1.363 . S
C548 C554 1.379 . S
C548 N556 1.356 . S
C549 C548 1.363 . S
C549 C555 1.363 . S
C550 C551 1.363 . S
C550 C555 1.379 . S
C550 N557 1.356 . S
C551 C550 1.363 . S
C551 C554 1.363 . S
N552 C554 1.356 . S
N552 H564 0.984 . S
N552 H565 0.985 . S
N553 C555 1.356 . S
N553 H558 0.984 . S
N553 H559 0.985 . S
C554 C548 1.379 . S
C554 C551 1.363 . S
C554 N552 1.356 . S
C555 C549 1.363 . S
C555 C550 1.379 . S
C555 N553 1.356 . S
N556 C548 1.356 . S
N556 H562 0.984 . S
N556 H563 0.984 . S
N557 C550 1.356 . S
N557 H560 0.984 . S
N557 H561 0.985 . S
H558 N553 0.984 . S
H559 N553 0.985 . S
H560 N557 0.984 . S
H561 N557 0.985 . S
H562 N556 0.984 . S
H563 N556 0.984 . S
H564 N552 0.984 . S
H565 N552 0.985 . S
C566 C567 1.363 . S
C566 C572 1.379 1_455 S
C566 N574 1.356 . S
C567 C566 1.363 . S
C567 C573 1.363 . S
C568 C569 1.363 . S
C568 C573 1.379 1_655 S
C568 N575 1.356 . S
C569 C568 1.363 . S
C569 C572 1.363 . S
N570 C572 1.356 . S
N570 H582 0.984 . S
N570 H583 0.985 . S
N571 C573 1.356 . S
N571 H576 0.984 . S
N571 H577 0.985 . S
C572 C566 1.379 1_655 S
C572 C569 1.363 . S
C572 N570 1.356 . S
C573 C567 1.363 . S
C573 C568 1.379 1_455 S
C573 N571 1.356 . S
N574 C566 1.356 . S
N574 H580 0.984 . S
N574 H581 0.984 . S
N575 C568 1.356 . S
N575 H578 0.984 . S
N575 H579 0.985 . S
H576 N571 0.984 . S
H577 N571 0.985 . S
H578 N575 0.984 . S
H579 N575 0.985 . S
H580 N574 0.984 . S
H581 N574 0.984 . S
H582 N570 0.984 . S
H583 N570 0.985 . S
C584 C585 1.363 . S
C584 C590 1.379 1_455 S
C584 N592 1.356 . S
C585 C584 1.363 . S
C585 C591 1.363 . S
C586 C587 1.363 . S
C586 C591 1.379 1_655 S
C586 N593 1.356 . S
C587 C586 1.363 . S
C587 C590 1.363 . S
N588 C590 1.356 . S
N588 H600 0.984 . S
N588 H601 0.985 . S
N589 C591 1.356 . S
N589 H594 0.984 . S
N589 H595 0.985 . S
C590 C584 1.379 1_655 S
C590 C587 1.363 . S
C590 N588 1.356 . S
C591 C585 1.363 . S
C591 C586 1.379 1_455 S
C591 N589 1.356 . S
N592 C584 1.356 . S
N592 H598 0.984 1_554 S
N592 H599 0.984 . S
N593 C586 1.356 . S
N593 H596 0.984 . S
N593 H597 0.985 . S
H594 N589 0.984 . S
H595 N589 0.985 . S
H596 N593 0.984 . S
H597 N593 0.985 . S
H598 N592 0.984 1_556 S
H599 N592 0.984 . S
H600 N588 0.984 . S
H601 N588 0.985 . S
C602 C603 1.363 . S
C602 C608 1.379 . S
C602 N610 1.356 . S
C603 C602 1.363 . S
C603 C609 1.363 . S
C604 C605 1.363 . S
C604 C609 1.379 . S
C604 N611 1.356 . S
C605 C604 1.363 . S
C605 C608 1.363 . S
N606 C608 1.356 . S
N606 H618 0.984 . S
N606 H619 0.985 . S
N607 C609 1.356 . S
N607 H612 0.984 . S
N607 H613 0.985 . S
C608 C602 1.379 . S
C608 C605 1.363 . S
C608 N606 1.356 . S
C609 C603 1.363 . S
C609 C604 1.379 . S
C609 N607 1.356 . S
N610 C602 1.356 . S
N610 H616 0.984 . S
N610 H617 0.984 . S
N611 C604 1.356 . S
N611 H614 0.984 . S
N611 H615 0.985 . S
H612 N607 0.984 . S
H613 N607 0.985 . S
H614 N611 0.984 . S
H615 N611 0.985 . S
H616 N610 0.984 . S
H617 N610 0.984 . S
H618 N606 0.984 . S
H619 N606 0.985 . S
C620 C621 1.363 . S
C620 C626 1.379 1_455 S
C620 N628 1.356 . S
C621 C620 1.363 . S
C621 C627 1.363 . S
C622 C623 1.363 . S
C622 C627 1.379 1_655 S
C622 N629 1.356 . S
C623 C622 1.363 . S
C623 C626 1.363 . S
N624 C626 1.356 . S
N624 H636 0.984 . S
N624 H637 0.985 . S
N625 C627 1.356 . S
N625 H630 0.984 . S
N625 H631 0.985 . S
C626 C620 1.379 1_655 S
C626 C623 1.363 . S
C626 N624 1.356 . S
C627 C621 1.363 . S
C627 C622 1.379 1_455 S
C627 N625 1.356 . S
N628 C620 1.356 . S
N628 H634 0.984 1_556 S
N628 H635 0.984 . S
N629 C622 1.356 . S
N629 H632 0.984 . S
N629 H633 0.985 . S
H630 N625 0.984 . S
H631 N625 0.985 . S
H632 N629 0.984 . S
H633 N629 0.985 . S
H634 N628 0.984 1_554 S
H635 N628 0.984 . S
H636 N624 0.984 . S
H637 N624 0.985 . S
C638 C639 1.363 . S
C638 C644 1.379 . S
C638 N646 1.356 . S
C639 C638 1.363 . S
C639 C645 1.363 . S
C640 C641 1.363 . S
C640 C645 1.379 . S
C640 N647 1.356 . S
C641 C640 1.363 . S
C641 C644 1.363 . S
N642 C644 1.356 . S
N642 H654 0.984 . S
N642 H655 0.985 . S
N643 C645 1.356 . S
N643 H648 0.984 . S
N643 H649 0.985 . S
C644 C638 1.379 . S
C644 C641 1.363 . S
C644 N642 1.356 . S
C645 C639 1.363 . S
C645 C640 1.379 . S
C645 N643 1.356 . S
N646 C638 1.356 . S
N646 H652 0.984 . S
N646 H653 0.984 . S
N647 C640 1.356 . S
N647 H650 0.984 . S
N647 H651 0.985 . S
H648 N643 0.984 . S
H649 N643 0.985 . S
H650 N647 0.984 . S
H651 N647 0.985 . S
H652 N646 0.984 . S
H653 N646 0.984 . S
H654 N642 0.984 . S
H655 N642 0.985 . S
C656 C657 1.363 . S
C656 C662 1.379 . S
C656 N664 1.356 . S
C657 C656 1.363 . S
C657 C663 1.363 . S
C658 C659 1.363 . S
C658 C663 1.379 . S
C658 N665 1.356 . S
C659 C658 1.363 . S
C659 C662 1.363 . S
N660 C662 1.356 . S
N660 H672 0.984 . S
N660 H673 0.985 . S
N661 C663 1.356 . S
N661 H666 0.984 . S
N661 H667 0.985 . S
C662 C656 1.379 . S
C662 C659 1.363 . S
C662 N660 1.356 . S
C663 C657 1.363 . S
C663 C658 1.379 . S
C663 N661 1.356 . S
N664 C656 1.356 . S
N664 H670 0.984 . S
N664 H671 0.984 . S
N665 C658 1.356 . S
N665 H668 0.984 . S
N665 H669 0.985 . S
H666 N661 0.984 . S
H667 N661 0.985 . S
H668 N665 0.984 . S
H669 N665 0.985 . S
H670 N664 0.984 . S
H671 N664 0.984 . S
H672 N660 0.984 . S
H673 N660 0.985 . S
C674 C675 1.363 . S
C674 C680 1.379 . S
C674 N682 1.356 . S
C675 C674 1.363 . S
C675 C681 1.363 . S
C676 C677 1.363 . S
C676 C681 1.379 . S
C676 N683 1.356 . S
C677 C676 1.363 . S
C677 C680 1.363 . S
N678 C680 1.356 . S
N678 H690 0.984 . S
N678 H691 0.985 . S
N679 C681 1.356 . S
N679 H684 0.984 . S
N679 H685 0.985 . S
C680 C674 1.379 . S
C680 C677 1.363 . S
C680 N678 1.356 . S
C681 C675 1.363 . S
C681 C676 1.379 . S
C681 N679 1.356 . S
N682 C674 1.356 . S
N682 H688 0.984 . S
N682 H689 0.984 . S
N683 C676 1.356 . S
N683 H686 0.984 . S
N683 H687 0.985 . S
H684 N679 0.984 . S
H685 N679 0.985 . S
H686 N683 0.984 . S
H687 N683 0.985 . S
H688 N682 0.984 . S
H689 N682 0.984 . S
H690 N678 0.984 . S
H691 N678 0.985 . S
C692 C693 1.363 . S
C692 C698 1.379 . S
C692 N700 1.356 . S
C693 C692 1.363 . S
C693 C699 1.363 . S
C694 C695 1.363 . S
C694 C699 1.379 . S
C694 N701 1.356 . S
C695 C694 1.363 . S
C695 C698 1.363 . S
N696 C698 1.356 . S
N696 H708 0.984 . S
N696 H709 0.985 . S
N697 C699 1.356 . S
N697 H702 0.984 . S
N697 H703 0.985 . S
C698 C692 1.379 . S
C698 C695 1.363 . S
C698 N696 1.356 . S
C699 C693 1.363 . S
C699 C694 1.379 . S
C699 N697 1.356 . S
N700 C692 1.356 . S
N700 H706 0.984 . S
N700 H707 0.984 . S
N701 C694 1.356 . S
N701 H704 0.984 . S
N701 H705 0.985 . S
H702 N697 0.984 . S
H703 N697 0.985 . S
H704 N701 0.984 . S
H705 N701 0.985 . S
H706 N700 0.984 . S
H707 N700 0.984 . S
H708 N696 0.984 . S
H709 N696 0.985 . S
C710 C711 1.363 . S
C710 C716 1.379 . S
C710 N718 1.356 . S
C711 C710 1.363 . S
C711 C717 1.363 . S
C712 C713 1.363 . S
C712 C717 1.379 . S
C712 N719 1.356 . S
C713 C712 1.363 . S
C713 C716 1.363 . S
N714 C716 1.356 . S
N714 H726 0.984 . S
N714 H727 0.985 . S
N715 C717 1.356 . S
N715 H720 0.984 . S
N715 H721 0.985 . S
C716 C710 1.379 . S
C716 C713 1.363 . S
C716 N714 1.356 . S
C717 C711 1.363 . S
C717 C712 1.379 . S
C717 N715 1.356 . S
N718 C710 1.356 . S
N718 H724 0.984 . S
N718 H725 0.984 . S
N719 C712 1.356 . S
N719 H722 0.984 . S
N719 H723 0.985 . S
H720 N715 0.984 . S
H721 N715 0.985 . S
H722 N719 0.984 . S
H723 N719 0.985 . S
H724 N718 0.984 . S
H725 N718 0.984 . S
H726 N714 0.984 . S
H727 N714 0.985 . S
C728 C729 1.363 . S
C728 C734 1.379 . S
C728 N736 1.356 . S
C729 C728 1.363 . S
C729 C735 1.363 . S
C730 C731 1.363 . S
C730 C735 1.379 . S
C730 N737 1.356 . S
C731 C730 1.363 . S
C731 C734 1.363 . S
N732 C734 1.356 . S
N732 H744 0.984 . S
N732 H745 0.985 . S
N733 C735 1.356 . S
N733 H738 0.984 . S
N733 H739 0.985 . S
C734 C728 1.379 . S
C734 C731 1.363 . S
C734 N732 1.356 . S
C735 C729 1.363 . S
C735 C730 1.379 . S
C735 N733 1.356 . S
N736 C728 1.356 . S
N736 H742 0.984 . S
N736 H743 0.984 . S
N737 C730 1.356 . S
N737 H740 0.984 . S
N737 H741 0.985 . S
H738 N733 0.984 . S
H739 N733 0.985 . S
H740 N737 0.984 . S
H741 N737 0.985 . S
H742 N736 0.984 . S
H743 N736 0.984 . S
H744 N732 0.984 . S
H745 N732 0.985 . S
C746 C747 1.363 . S
C746 C752 1.379 . S
C746 N754 1.356 . S
C747 C746 1.363 . S
C747 C753 1.363 . S
C748 C749 1.363 . S
C748 C753 1.379 . S
C748 N755 1.356 . S
C749 C748 1.363 . S
C749 C752 1.363 . S
N750 C752 1.356 . S
N750 H762 0.984 . S
N750 H763 0.985 . S
N751 C753 1.356 . S
N751 H756 0.984 . S
N751 H757 0.985 . S
C752 C746 1.379 . S
C752 C749 1.363 . S
C752 N750 1.356 . S
C753 C747 1.363 . S
C753 C748 1.379 . S
C753 N751 1.356 . S
N754 C746 1.356 . S
N754 H760 0.984 . S
N754 H761 0.984 . S
N755 C748 1.356 . S
N755 H758 0.984 . S
N755 H759 0.985 . S
H756 N751 0.984 . S
H757 N751 0.985 . S
H758 N755 0.984 . S
H759 N755 0.985 . S
H760 N754 0.984 . S
H761 N754 0.984 . S
H762 N750 0.984 . S
H763 N750 0.985 . S
C764 C765 1.363 . S
C764 C770 1.379 . S
C764 N772 1.356 . S
C765 C764 1.363 . S
C765 C771 1.363 . S
C766 C767 1.363 . S
C766 C771 1.379 . S
C766 N773 1.356 . S
C767 C766 1.363 . S
C767 C770 1.363 . S
N768 C770 1.356 . S
N768 H780 0.984 . S
N768 H781 0.985 . S
N769 C771 1.356 . S
N769 H774 0.984 . S
N769 H775 0.985 . S
C770 C764 1.379 . S
C770 C767 1.363 . S
C770 N768 1.356 . S
C771 C765 1.363 . S
C771 C766 1.379 . S
C771 N769 1.356 . S
N772 C764 1.356 . S
N772 H778 0.984 . S
N772 H779 0.984 . S
N773 C766 1.356 . S
N773 H776 0.984 . S
N773 H777 0.985 . S
H774 N769 0.984 . S
H775 N769 0.985 . S
H776 N773 0.984 . S
H777 N773 0.985 . S
H778 N772 0.984 . S
H779 N772 0.984 . S
H780 N768 0.984 . S
H781 N768 0.985 . S
C782 C783 1.363 . S
C782 C788 1.379 . S
C782 N790 1.356 . S
C783 C782 1.363 . S
C783 C789 1.363 . S
C784 C785 1.363 . S
C784 C789 1.379 . S
C784 N791 1.356 . S
C785 C784 1.363 . S
C785 C788 1.363 . S
N786 C788 1.356 . S
N786 H798 0.984 . S
N786 H799 0.985 . S
N787 C789 1.356 . S
N787 H792 0.984 . S
N787 H793 0.985 . S
C788 C782 1.379 . S
C788 C785 1.363 . S
C788 N786 1.356 . S
C789 C783 1.363 . S
C789 C784 1.379 . S
C789 N787 1.356 . S
N790 C782 1.356 . S
N790 H796 0.984 . S
N790 H797 0.984 . S
N791 C784 1.356 . S
N791 H794 0.984 . S
N791 H795 0.985 . S
H792 N787 0.984 . S
H793 N787 0.985 . S
H794 N791 0.984 . S
H795 N791 0.985 . S
H796 N790 0.984 . S
H797 N790 0.984 . S
H798 N786 0.984 . S
H799 N786 0.985 . S
C225 C9 1.520 . S
C227 C179 1.503 . S
C243 C193 1.503 . S
C245 C23 1.520 . S
C261 C37 1.520 . S
C263 C207 1.503 . S
C279 C221 1.503 . S
C281 C51 1.520 . S
C297 C121 1.520 . S
C299 C67 1.503 . S
C315 C81 1.503 . S
C317 C135 1.520 . S
C333 C149 1.520 . S
C335 C95 1.503 . S
C351 C109 1.503 . S
C353 C163 1.520 . S
C369 C5 1.532 . S
C371 C33 1.532 . S
C387 C19 1.532 . S
C389 C47 1.532 . S
C405 C61 1.692 . S
C407 C89 1.692 . S
C423 C75 1.692 . S
C425 C103 1.692 . S
C441 C145 1.532 . S
C443 C117 1.532 . S
C459 C131 1.532 . S
C461 C159 1.532 . S
C477 C201 1.692 . S
C479 C173 1.692 . S
C495 C187 1.692 . S
C497 C215 1.692 . S
C513 C84 1.486 . S
C515 C0 1.493 . S
C531 C98 1.486 . S
C533 C14 1.493 . S
C549 C28 1.493 . S
C551 C56 1.486 . S
C567 C42 1.493 . S
C569 C70 1.486 . S
C585 C196 1.486 . S
C587 C112 1.493 . S
C603 C126 1.493 . S
C605 C210 1.486 . S
C621 C168 1.486 . S
C623 C140 1.493 . S
C639 C154 1.493 . S
C641 C182 1.486 . S
C657 C11 1.281 . S
C659 C53 1.281 . S
C675 C39 1.281 . S
C677 C25 1.281 . S
C693 C65 1.719 . S
C695 C107 1.719 . S
C711 C79 1.719 . S
C713 C93 1.719 . S
C729 C165 1.281 . S
C731 C123 1.281 . S
C747 C137 1.281 . S
C749 C151 1.281 . S
C765 C219 1.719 . S
C767 C177 1.719 . S
C783 C191 1.719 . S
C785 C205 1.719 . S
