# Generated by pormake.
# Topology ilc, (8)-cn, num edge types: 1
# Building blocks:
#     Node 0, Type 0, BuildingBlock: OLANEW_clean_sbu_1, # of connection points: 8
#     Node 1, Type 0, BuildingBlock: OLANEW_clean_sbu_1, # of connection points: 8
#     Node 2, Type 0, BuildingBlock: OLANEW_clean_sbu_1, # of connection points: 8
#     Edge 3, Type (0, 0), BuildingBlock: XUDNAN_clean_linker_2, # of connection points: 2
#     Edge 4, Type (0, 0), BuildingBlock: XUDNAN_clean_linker_2, # of connection points: 2
#     Edge 5, Type (0, 0), BuildingBlock: XUDNAN_clean_linker_2, # of connection points: 2
#     Edge 6, Type (0, 0), BuildingBlock: XUDNAN_clean_linker_2, # of connection points: 2
#     Edge 7, Type (0, 0), BuildingBlock: XUDNAN_clean_linker_2, # of connection points: 2
#     Edge 8, Type (0, 0), BuildingBlock: XUDNAN_clean_linker_2, # of connection points: 2
#     Edge 9, Type (0, 0), BuildingBlock: XUDNAN_clean_linker_2, # of connection points: 2
#     Edge 10, Type (0, 0), BuildingBlock: XUDNAN_clean_linker_2, # of connection points: 2
#     Edge 11, Type (0, 0), BuildingBlock: XUDNAN_clean_linker_2, # of connection points: 2
#     Edge 12, Type (0, 0), BuildingBlock: XUDNAN_clean_linker_2, # of connection points: 2
#     Edge 13, Type (0, 0), BuildingBlock: XUDNAN_clean_linker_2, # of connection points: 2
#     Edge 14, Type (0, 0), BuildingBlock: XUDNAN_clean_linker_2, # of connection points: 2
# Relax obj value: 0.104
# Max RMSD: 0.127
# Mean RMSD: 0.127
data_MOF--net-ilc--node1-OLANEW_clean_sbu_1--edge1-XUDNAN_clean_linker_2
_symmetry_space_group_name_H-M    P1
_symmetry_Int_Tables_number       1
_symmetry_cell_setting            triclinic
loop_
_symmetry_equiv_pos_as_xyz
'x, y, z'
_cell_length_a     19.68324
_cell_length_b     28.533901
_cell_length_c     23.755982
_cell_angle_alpha  114.76152
_cell_angle_beta   86.483362
_cell_angle_gamma 142.92459
loop_
_atom_site_label
_atom_site_type_symbol
_atom_site_fract_x
_atom_site_fract_y
_atom_site_fract_z
_atom_type_partial_charge
Cd0 Cd 0.80799 0.74381 0.14947 0.0
Cd1 Cd 0.81041 0.86908 0.0199 0.0
C2 C 0.0738 0.12692 0.09891 0.0
Cd3 Cd 0.07253 0.19109 0.89163 0.0
Cd4 Cd 0.11348 0.07474 0.96865 0.0
C5 C 0.85198 0.12761 0.84405 0.0
O6 O 0.94597 0.21892 0.90207 0.0
O7 O 0.77161 0.79298 0.11364 0.0
O8 O 0.73884 0.84839 0.10837 0.0
O9 O 0.08989 0.21554 0.80299 0.0
O10 O 0.1536 0.18035 0.08068 0.0
O11 O -0.00729 0.03747 0.05728 0.0
C12 C 0.16655 0.11455 0.84969 0.0
O13 O 0.84806 0.07957 0.84038 0.0
C14 C -0.02409 0.93814 0.30139 0.0
O15 O 0.00214 0.9672 0.26221 0.0
O16 O 0.12698 0.13377 0.87627 0.0
O17 O 0.17818 0.08874 0.87489 0.0
C18 C 0.83023 0.81592 0.88398 0.0
O19 O 0.91212 0.85615 0.27407 0.0
O20 O 0.74555 0.75789 0.89802 0.0
O21 O 0.91792 0.90661 0.93167 0.0
C22 C 0.73994 0.8194 0.13624 0.0
O23 O 0.96769 0.79701 0.11768 0.0
C24 C -0.00976 0.12648 0.74755 0.0
O25 O 0.92361 0.05734 0.75379 0.0
C26 C 0.05769 0.82283 0.13579 0.0
O27 O 0.12107 0.84536 0.1003 0.0
Cd28 Cd 0.64984 0.21524 0.44145 0.0
Cd29 Cd 0.58905 0.26238 0.39003 0.0
C30 C 0.73562 0.47862 0.4383 0.0
Cd31 Cd 0.75864 0.54772 0.16046 0.0
Cd32 Cd 0.80562 0.43583 0.30767 0.0
C33 C 0.45706 0.41276 0.11466 0.0
O34 O 0.36877 0.37897 0.13294 0.0
O35 O 0.48212 0.13631 0.47457 0.0
O36 O 0.48157 0.20896 0.46392 0.0
O37 O 0.72372 0.47915 0.04269 0.0
O38 O 0.78681 0.50329 0.4 0.0
O39 O 0.67968 0.40625 0.43173 0.0
C40 C 0.86272 0.50593 0.19722 0.0
O41 O 0.5535 0.45421 0.15536 0.0
C42 C 0.8625 0.40661 0.59705 0.0
O43 O 0.90769 0.38848 0.58251 0.0
O44 O 0.82315 0.52613 0.21827 0.0
O45 O 0.86791 0.47734 0.22344 0.0
C46 C 0.56861 0.17903 0.22216 0.0
O47 O 0.7924 0.37729 0.54555 0.0
O48 O 0.52645 0.15766 0.26398 0.0
O49 O 0.65183 0.26413 0.24058 0.0
C50 C 0.45208 0.1643 0.48727 0.0
O51 O 0.7204 0.18794 0.48152 0.0
C52 C 0.73471 0.50686 0.00796 0.0
O53 O 0.76853 0.57747 0.03775 0.0
C54 C 0.63055 0.1012 0.46152 0.0
O55 O 0.512 0.03072 0.41264 0.0
Cd56 Cd 0.34008 0.59142 0.78695 0.0
Cd57 Cd 0.21853 0.57442 0.71656 0.0
C58 C 0.41617 0.80053 0.76078 0.0
Cd59 Cd 0.23895 0.69677 0.43201 0.0
Cd60 Cd 0.4459 0.74138 0.62871 0.0
C61 C 0.17921 0.79084 0.50729 0.0
O62 O 0.17566 0.82791 0.5609 0.0
O63 O 0.19963 0.5449 0.83891 0.0
O64 O 0.1144 0.54968 0.7915 0.0
O65 O 0.33926 0.75671 0.36471 0.0
O66 O 0.47836 0.84618 0.73489 0.0
O67 O 0.35462 0.71865 0.72789 0.0
C68 C 0.45585 0.74394 0.49201 0.0
O69 O 0.21033 0.76645 0.51266 0.0
C70 C 0.55389 0.75356 0.94262 0.0
O71 O 0.53855 0.69338 0.91402 0.0
O72 O 0.367 0.71946 0.49508 0.0
O73 O 0.51732 0.76405 0.54013 0.0
C74 C 0.19454 0.48271 0.55761 0.0
O75 O 0.52177 0.75651 0.90116 0.0
O76 O 0.14389 0.45535 0.59533 0.0
O77 O 0.27988 0.57039 0.58146 0.0
C78 C 0.13285 0.54275 0.83579 0.0
O79 O 0.35542 0.51334 0.78624 0.0
C80 C 0.28247 0.69315 0.2987 0.0
O81 O 0.1749 0.59927 0.27048 0.0
C82 C 0.36213 0.4688 0.75835 0.0
O83 O 0.35978 0.44603 0.69694 0.0
H84 H 0.8972 0.97949 0.63642 0.0
H85 H 0.04121 0.22291 0.7034 0.0
H86 H 0.02734 0.18866 0.58587 0.0
H87 H 0.11646 0.07119 0.57815 0.0
H88 H 0.03223 0.95681 0.51411 0.0
H89 H 0.01589 0.98008 0.59274 0.0
H90 H 0.76849 0.82875 0.51926 0.0
H91 H 0.78287 0.79887 0.44169 0.0
H92 H 0.70253 0.80892 0.44765 0.0
H93 H 0.03044 0.14165 0.46831 0.0
H94 H 0.04551 0.08592 0.36345 0.0
H95 H 0.92807 0.89163 0.39042 0.0
C96 C 0.91915 0.02233 0.62502 0.0
C97 C 0.96606 0.10142 0.67689 0.0
C98 C 0.00254 0.16055 0.66258 0.0
C99 C -0.00526 0.14143 0.59635 0.0
C100 C 0.95392 0.06501 0.54716 0.0
C101 C 0.91819 0.00743 0.56174 0.0
C102 C 0.91284 0.94948 0.51206 0.0
C103 C 0.02595 0.99148 0.5517 0.0
C104 C 0.78369 0.83981 0.47777 0.0
C105 C 0.93497 0.9732 0.46129 0.0
C106 C 0.96338 0.04265 0.48329 0.0
C107 C 0.00639 0.08618 0.45001 0.0
C108 C 0.01706 0.0556 0.39156 0.0
C109 C -0.01352 0.98361 0.36849 0.0
C110 C 0.94876 0.94472 0.40536 0.0
H111 H 0.86894 0.51167 0.6861 0.0
H112 H 0.77776 0.2967 0.63535 0.0
H113 H 0.71004 0.2857 0.7264 0.0
H114 H 0.00787 0.64311 0.87435 0.0
H115 H 0.93997 0.6633 0.88633 0.0
H116 H 0.9709 0.64952 0.81294 0.0
H117 H 0.71039 0.48125 0.7108 0.0
H118 H 0.7172 0.53358 0.79225 0.0
H119 H 0.60063 0.40682 0.73717 0.0
H120 H 0.68033 0.31184 0.83059 0.0
H121 H 0.66088 0.3587 0.93465 0.0
H122 H 0.77122 0.55784 0.92096 0.0
C123 C 0.83659 0.46351 0.69509 0.0
C124 C 0.83214 0.40724 0.65534 0.0
C125 C 0.78652 0.34317 0.66712 0.0
C126 C 0.7475 0.33597 0.71828 0.0
C127 C 0.75666 0.39431 0.75799 0.0
C128 C 0.79908 0.45643 0.74708 0.0
C129 C 0.80002 0.51144 0.79822 0.0
C130 C 0.9379 0.62349 0.84576 0.0
C131 C 0.70147 0.4819 0.75741 0.0
C132 C 0.75569 0.47271 0.84065 0.0
C133 C 0.73025 0.40456 0.81594 0.0
C134 C 0.69518 0.36231 0.8487 0.0
C135 C 0.68562 0.39023 0.90833 0.0
C136 C 0.71704 0.46328 0.93662 0.0
C137 C 0.74646 0.50165 0.90035 0.0
H138 H 0.38019 0.61804 0.96359 0.0
H139 H 0.68479 0.92395 0.06086 0.0
H140 H 0.64848 0.94483 0.16506 0.0
H141 H 0.17761 0.57799 0.01276 0.0
H142 H 0.10804 0.49481 0.03033 0.0
H143 H 0.16121 0.49872 0.96522 0.0
H144 H 0.33031 0.55234 0.02815 0.0
H145 H 0.25624 0.52297 0.0824 0.0
H146 H 0.43003 0.6406 0.12334 0.0
H147 H 0.58175 0.92957 0.26138 0.0
H148 H 0.48497 0.8789 0.3346 0.0
H149 H 0.21117 0.5788 0.16435 0.0
C150 C 0.44078 0.68999 0.00732 0.0
C151 C 0.5374 0.77023 0.00557 0.0
C152 C 0.61123 0.86212 0.06211 0.0
C153 C 0.59123 0.8744 0.12117 0.0
C154 C 0.49526 0.79332 0.12134 0.0
C155 C 0.42079 0.70292 0.06538 0.0
C156 C 0.31893 0.62578 0.07567 0.0
C157 C 0.18265 0.54394 0.01741 0.0
C158 C 0.33511 0.58287 0.07812 0.0
C159 C 0.34978 0.68642 0.14701 0.0
C160 C 0.45204 0.78323 0.17326 0.0
C161 C 0.50063 0.85353 0.24048 0.0
C162 C 0.44452 0.82383 0.28176 0.0
C163 C 0.3392 0.72447 0.255 0.0
C164 C 0.29069 0.65511 0.1863 0.0
H165 H 0.03941 0.77834 0.45383 0.0
H166 H 0.27747 0.79777 0.42324 0.0
H167 H 0.2712 0.80902 0.32659 0.0
H168 H 0.83586 0.63486 0.28284 0.0
H169 H 0.8272 0.69219 0.2794 0.0
H170 H 0.85706 0.70512 0.3588 0.0
H171 H 0.07119 0.88803 0.4446 0.0
H172 H 0.04495 0.89044 0.37504 0.0
H173 H 0.19301 0.95421 0.41886 0.0
H174 H 0.28837 0.8619 0.26112 0.0
H175 H 0.23922 0.86856 0.17567 0.0
H176 H 0.95758 0.78833 0.22869 0.0
C177 C 0.09128 0.7861 0.42714 0.0
C178 C 0.16137 0.78831 0.44596 0.0
C179 C 0.22339 0.79485 0.40836 0.0
C180 C 0.22234 0.80346 0.35496 0.0
C181 C 0.15868 0.80603 0.34005 0.0
C182 C 0.0906 0.79457 0.37296 0.0
C183 C 0.02459 0.79447 0.34222 0.0
C184 C 0.87746 0.70109 0.31379 0.0
C185 C 0.08697 0.88724 0.39872 0.0
C186 C 0.05942 0.80035 0.28355 0.0
C187 C 0.14549 0.81518 0.2884 0.0
C188 C 0.21403 0.84321 0.25212 0.0
C189 C 0.18648 0.84828 0.20445 0.0
C190 C 0.08962 0.82428 0.1923 0.0
C191 C 0.02757 0.80258 0.23412 0.0
H192 H 0.26924 0.51093 0.45719 0.0
H193 H 0.03972 0.3001 0.50026 0.0
H194 H -0.01381 0.18964 0.38924 0.0
H195 H 0.05172 0.32642 0.26277 0.0
H196 H 0.18235 0.39646 0.24333 0.0
H197 H 0.20173 0.45903 0.32586 0.0
H198 H 0.40946 0.54782 0.39609 0.0
H199 H 0.38897 0.48374 0.31392 0.0
H200 H 0.40086 0.47597 0.3832 0.0
H201 H 0.96243 0.10427 0.27654 0.0
H202 H 0.95573 0.04073 0.1636 0.0
H203 H 0.2003 0.30432 0.18945 0.0
C204 C 0.20735 0.44138 0.4432 0.0
C205 C 0.15892 0.41476 0.48826 0.0
C206 C 0.07807 0.32271 0.4673 0.0
C207 C 0.04721 0.25929 0.40412 0.0
C208 C 0.09688 0.28791 0.36143 0.0
C209 C 0.17454 0.37639 0.37961 0.0
C210 C 0.21359 0.38807 0.3232 0.0
C211 C 0.15913 0.3928 0.28665 0.0
C212 C 0.36206 0.47935 0.35611 0.0
C213 C 0.14735 0.29301 0.27123 0.0
C214 C 0.08037 0.23662 0.29459 0.0
C215 C 0.0117 0.14615 0.25657 0.0
C216 C 0.00908 0.11102 0.19248 0.0
C217 C 0.07677 0.16671 0.16672 0.0
C218 C 0.14739 0.25955 0.20725 0.0
H219 H 0.41584 0.63395 0.36837 0.0
H220 H 0.62639 0.91307 0.51256 0.0
H221 H 0.704 0.95507 0.43222 0.0
H222 H 0.69309 0.74468 0.33115 0.0
H223 H 0.57068 0.62735 0.24558 0.0
H224 H 0.54186 0.63498 0.32004 0.0
H225 H 0.3292 0.53014 0.22702 0.0
H226 H 0.38548 0.55078 0.16481 0.0
H227 H 0.34308 0.58912 0.20409 0.0
H228 H 0.73901 0.95742 0.33016 0.0
H229 H 0.78302 0.94521 0.23021 0.0
H230 H 0.63724 0.7055 0.18096 0.0
C231 C 0.47586 0.70268 0.38171 0.0
C232 C 0.50395 0.76656 0.44291 0.0
C233 C 0.59124 0.85903 0.4619 0.0
C234 C 0.63883 0.88436 0.41746 0.0
C235 C 0.60647 0.81913 0.35648 0.0
C236 C 0.53326 0.73273 0.34044 0.0
C237 C 0.529 0.6833 0.27662 0.0
C238 C 0.58694 0.67193 0.29473 0.0
C239 C 0.38841 0.58239 0.21428 0.0
C240 C 0.61354 0.75713 0.26107 0.0
C241 C 0.65032 0.83142 0.30543 0.0
C242 C 0.7142 0.90129 0.29631 0.0
C243 C 0.74057 0.89473 0.23999 0.0
C244 C 0.71291 0.82402 0.19668 0.0
C245 C 0.65452 0.75753 0.21028 0.0
H246 H 0.82944 0.23812 0.59582 0.0
H247 H 0.47041 0.92584 0.42648 0.0
H248 H 0.48614 0.89404 0.50283 0.0
H249 H 0.01805 0.29012 0.69775 0.0
H250 H 0.04003 0.34796 0.78347 0.0
H251 H 0.01127 0.35394 0.71794 0.0
H252 H 0.82659 0.28644 0.72347 0.0
H253 H 0.78743 0.23898 0.77267 0.0
H254 H 0.67285 0.15849 0.6835 0.0
H255 H 0.56329 0.90303 0.59909 0.0
H256 H 0.65682 0.94724 0.71057 0.0
H257 H 0.92013 0.24597 0.82321 0.0
C258 C 0.75926 0.16326 0.57255 0.0
C259 C 0.65267 0.08397 0.50279 0.0
C260 C 0.55597 0.987 0.4778 0.0
C261 C 0.56484 0.96854 0.52076 0.0
C262 C 0.67281 0.04836 0.58885 0.0
C263 C 0.76501 0.14341 0.6152 0.0
C264 C 0.83753 0.21008 0.69537 0.0
C265 C -0.01472 0.30624 0.72564 0.0
C266 C 0.77906 0.22537 0.72067 0.0
C267 C 0.79768 0.14589 0.70939 0.0
C268 C 0.69761 0.05084 0.64744 0.0
C269 C 0.64171 0.97723 0.64754 0.0
C270 C 0.69255 0.00234 0.71186 0.0
C271 C 0.79178 0.09879 0.7767 0.0
C272 C 0.84323 0.17096 0.77505 0.0
H273 H 0.58217 0.42657 0.50033 0.0
H274 H 0.93678 0.67497 0.51179 0.0
H275 H -0.00434 0.7882 0.62467 0.0
H276 H 0.52306 0.53083 0.56936 0.0
H277 H 0.45308 0.47918 0.61582 0.0
H278 H 0.43526 0.41631 0.5347 0.0
H279 H 0.53836 0.41739 0.59913 0.0
H280 H 0.55636 0.47919 0.68118 0.0
H281 H 0.69692 0.5346 0.67844 0.0
H282 H 0.02752 0.87476 0.7429 0.0
H283 H 0.02261 0.92818 0.8534 0.0
H284 H 0.6368 0.62361 0.76102 0.0
C285 C 0.6706 0.50464 0.52566 0.0
C286 C 0.75657 0.54257 0.49798 0.0
C287 C 0.87084 0.64493 0.53256 0.0
C288 C 0.90434 0.70957 0.59632 0.0
C289 C 0.8191 0.67027 0.6231 0.0
C290 C 0.70269 0.56993 0.58772 0.0
C291 C 0.62901 0.54697 0.62828 0.0
C292 C 0.5026 0.48992 0.58446 0.0
C293 C 0.60285 0.49055 0.64772 0.0
C294 C 0.72613 0.65028 0.69465 0.0
C295 C 0.83457 0.72024 0.68994 0.0
C296 C 0.94179 0.82064 0.7464 0.0
C297 C 0.93819 0.85044 0.80913 0.0
C298 C 0.82873 0.78073 0.81576 0.0
C299 C 0.7212 0.67901 0.75741 0.0
H300 H 0.37163 0.07123 0.54791 0.0
H301 H 0.42471 0.25047 0.54621 0.0
H302 H 0.36578 0.25989 0.63965 0.0
H303 H 0.08563 0.93304 0.57503 0.0
H304 H 0.12976 0.92496 0.62998 0.0
H305 H 0.17362 0.93036 0.56148 0.0
H306 H 0.40152 0.06914 0.65468 0.0
H307 H 0.37488 0.08249 0.73005 0.0
H308 H 0.49223 0.184 0.7262 0.0
H309 H 0.26608 0.22684 0.71632 0.0
H310 H 0.20025 0.20281 0.80533 0.0
H311 H 0.21649 0.05021 0.76594 0.0
C312 C 0.3698 0.11181 0.5668 0.0
C313 C 0.40232 0.15962 0.53868 0.0
C314 C 0.3992 0.21224 0.5656 0.0
C315 C 0.36697 0.21888 0.61942 0.0
C316 C 0.33633 0.17176 0.64608 0.0
C317 C 0.33512 0.11779 0.62014 0.0
C318 C 0.29223 0.07096 0.65677 0.0
C319 C 0.16246 0.9581 0.6025 0.0
C320 C 0.3963 0.10352 0.69437 0.0
C321 C 0.27504 0.11089 0.70939 0.0
C322 C 0.29543 0.1649 0.69934 0.0
C323 C 0.2624 0.19377 0.73058 0.0
C324 C 0.21991 0.17627 0.77894 0.0
C325 C 0.20644 0.12757 0.7949 0.0
C326 C 0.23173 0.09221 0.75795 0.0
H327 H 0.39695 0.45916 0.08124 0.0
H328 H 0.4867 0.35518 0.00532 0.0
H329 H 0.47448 0.35671 0.90226 0.0
H330 H 0.16855 0.32441 0.92424 0.0
H331 H 0.21328 0.4119 0.93372 0.0
H332 H 0.24891 0.42289 0.01138 0.0
H333 H 0.48448 0.58841 0.07243 0.0
H334 H 0.48452 0.60254 0.00513 0.0
H335 H 0.5823 0.61385 0.03282 0.0
H336 H 0.48549 0.39932 0.81738 0.0
H337 H 0.44322 0.41902 0.73999 0.0
H338 H 0.32563 0.4774 0.87112 0.0
C339 C 0.41406 0.43658 0.04293 0.0
C340 C 0.44914 0.41171 0.05269 0.0
C341 C 0.4679 0.38054 0.00076 0.0
C342 C 0.4597 0.38017 0.94189 0.0
C343 C 0.43061 0.40967 0.93552 0.0
C344 C 0.40415 0.43406 -0.01622 0.0
C345 C 0.37563 0.46334 0.96639 0.0
C346 C 0.24464 0.40284 0.9588 0.0
C347 C 0.48851 0.57396 0.02259 0.0
C348 C 0.37569 0.44195 0.8972 0.0
C349 C 0.41659 0.41773 0.88193 0.0
C350 C 0.44562 0.41221 0.82668 0.0
C351 C 0.42286 0.4247 0.78348 0.0
C352 C 0.3778 0.44734 0.79831 0.0
C353 C 0.35535 0.45656 0.85634 0.0
H354 H 0.58361 -0.00778 0.86322 0.0
H355 H 0.24846 0.70036 0.80701 0.0
H356 H 0.24969 0.76394 0.91714 0.0
H357 H 0.74641 0.12726 0.0534 0.0
H358 H 0.80471 0.22707 0.07777 0.0
H359 H 0.77722 0.15883 -0.00592 0.0
H360 H 0.62381 0.11997 0.92643 0.0
H361 H 0.65067 0.18794 0.00989 0.0
H362 H 0.48753 0.0615 0.93915 0.0
H363 H 0.29432 0.86115 0.03722 0.0
H364 H 0.36968 0.98252 0.15389 0.0
H365 H 0.66926 0.21062 0.13096 0.0
C366 C 0.51021 0.94165 0.87401 0.0
C367 C 0.41651 0.84085 0.82654 0.0
C368 C 0.32251 0.77769 0.843 0.0
C369 C 0.32224 0.81325 0.90544 0.0
C370 C 0.41686 0.91289 0.95166 0.0
C371 C 0.50867 0.97627 0.93656 0.0
C372 C 0.59935 0.08018 -0.00452 0.0
C373 C 0.74025 0.15259 0.03235 0.0
C374 C 0.58968 0.11436 0.96595 0.0
C375 C 0.544 0.06505 0.04576 0.0
C376 C 0.43936 0.96813 0.01965 0.0
C377 C 0.37518 0.93699 0.05781 0.0
C378 C 0.41839 0.00633 0.12405 0.0
C379 C 0.52375 0.10582 0.15165 0.0
C380 C 0.58713 0.13498 0.11141 0.0
H381 H 0.15906 0.65556 0.94461 0.0
H382 H -0.01135 0.39577 0.8387 0.0
H383 H 0.85813 0.33944 0.8979 0.0
H384 H 0.21634 0.68139 0.10974 0.0
H385 H 0.23045 0.75876 0.15374 0.0
H386 H 0.27341 0.75535 0.08485 0.0
H387 H 0.13334 0.73788 0.05225 0.0
H388 H 0.0069 0.67 0.07468 0.0
H389 H 0.97191 0.6163 -0.01654 0.0
H390 H 0.7714 0.32108 0.97672 0.0
H391 H 0.74709 0.34637 0.08315 0.0
H392 H 0.01219 0.6392 0.16654 0.0
C393 C 0.08867 0.58457 0.93167 0.0
C394 C 0.06447 0.51928 0.8773 0.0
C395 C -0.01351 0.43448 0.86897 0.0
C396 C 0.91697 0.40501 0.90509 0.0
C397 C 0.93999 0.46887 0.95727 0.0
C398 C 0.02935 0.55953 0.97384 0.0
C399 C 0.06316 0.62486 0.04564 0.0
C400 C 0.20434 0.71026 0.10165 0.0
C401 C 0.04219 0.66425 0.03888 0.0
C402 C 0.96914 0.55276 0.0627 0.0
C403 C 0.90243 0.46441 0.0112 0.0
C404 C 0.82171 0.38935 0.01732 0.0
C405 C 0.80891 0.40452 0.07813 0.0
C406 C 0.87585 0.49388 0.13246 0.0
C407 C 0.95702 0.5692 0.1247 0.0
loop_
_geom_bond_atom_site_label_1
_geom_bond_atom_site_label_2
_geom_bond_distance
_geom_bond_site_symmetry_2
_ccdc_geom_bond_type
Cd0 O7 2.298 . S
Cd0 O19 2.255 . S
Cd0 O23 2.218 1_655 S
Cd1 O8 2.269 . S
Cd1 O11 2.237 1_665 S
Cd1 O20 2.201 1_554 S
C2 O10 1.266 . S
C2 O11 1.194 . S
Cd3 O9 2.255 . S
Cd3 O13 2.218 1_455 S
Cd3 O16 2.298 . S
Cd4 O10 2.201 1_556 S
Cd4 O17 2.269 . S
Cd4 O21 2.237 1_445 S
C5 O6 1.201 . S
C5 O13 1.235 . S
O6 C5 1.201 . S
O7 Cd0 2.298 . S
O7 C22 1.265 . S
O8 Cd1 2.269 . S
O8 C22 1.233 . S
O9 Cd3 2.255 . S
O9 C24 1.210 1_455 S
O10 C2 1.266 . S
O10 Cd4 2.201 1_554 S
O11 Cd1 2.237 1_445 S
O11 C2 1.194 . S
C12 O16 1.265 . S
C12 O17 1.233 . S
O13 Cd3 2.218 1_655 S
O13 C5 1.235 . S
C14 O15 1.269 . S
C14 O19 1.210 1_455 S
O15 C14 1.269 . S
O16 Cd3 2.298 . S
O16 C12 1.265 . S
O17 Cd4 2.269 . S
O17 C12 1.233 . S
C18 O20 1.266 . S
C18 O21 1.194 . S
O19 Cd0 2.255 . S
O19 C14 1.210 1_655 S
O20 Cd1 2.201 1_556 S
O20 C18 1.266 . S
O21 Cd4 2.237 1_665 S
O21 C18 1.194 . S
C22 O7 1.265 . S
C22 O8 1.233 . S
O23 Cd0 2.218 1_455 S
O23 C26 1.235 . S
C24 O9 1.210 1_655 S
C24 O25 1.269 . S
O25 C24 1.269 . S
C26 O23 1.235 . S
C26 O27 1.201 . S
O27 C26 1.201 . S
Cd28 O35 2.298 . S
Cd28 O47 2.255 . S
Cd28 O51 2.218 . S
Cd29 O36 2.269 . S
Cd29 O39 2.237 . S
Cd29 O48 2.201 . S
C30 O38 1.266 . S
C30 O39 1.194 . S
Cd31 O37 2.255 . S
Cd31 O41 2.218 . S
Cd31 O44 2.298 . S
Cd32 O38 2.201 . S
Cd32 O45 2.269 . S
Cd32 O49 2.237 . S
C33 O34 1.201 . S
C33 O41 1.235 . S
O34 C33 1.201 . S
O35 Cd28 2.298 . S
O35 C50 1.265 . S
O36 Cd29 2.269 . S
O36 C50 1.233 . S
O37 Cd31 2.255 . S
O37 C52 1.210 1_554 S
O38 C30 1.266 . S
O38 Cd32 2.201 . S
O39 Cd29 2.237 . S
O39 C30 1.194 . S
C40 O44 1.265 . S
C40 O45 1.233 . S
O41 Cd31 2.218 . S
O41 C33 1.235 . S
C42 O43 1.269 . S
C42 O47 1.210 . S
O43 C42 1.269 . S
O44 Cd31 2.298 . S
O44 C40 1.265 . S
O45 Cd32 2.269 . S
O45 C40 1.233 . S
C46 O48 1.266 . S
C46 O49 1.194 . S
O47 Cd28 2.255 . S
O47 C42 1.210 . S
O48 Cd29 2.201 . S
O48 C46 1.266 . S
O49 Cd32 2.237 . S
O49 C46 1.194 . S
C50 O35 1.265 . S
C50 O36 1.233 . S
O51 Cd28 2.218 . S
O51 C54 1.235 . S
C52 O37 1.210 1_556 S
C52 O53 1.269 . S
O53 C52 1.269 . S
C54 O51 1.235 . S
C54 O55 1.201 . S
O55 C54 1.201 . S
Cd56 O63 2.298 . S
Cd56 O75 2.255 . S
Cd56 O79 2.218 . S
Cd57 O64 2.269 . S
Cd57 O67 2.237 . S
Cd57 O76 2.201 . S
C58 O66 1.266 . S
C58 O67 1.194 . S
Cd59 O65 2.255 . S
Cd59 O69 2.218 . S
Cd59 O72 2.298 . S
Cd60 O66 2.201 . S
Cd60 O73 2.269 . S
Cd60 O77 2.237 . S
C61 O62 1.201 . S
C61 O69 1.235 . S
O62 C61 1.201 . S
O63 Cd56 2.298 . S
O63 C78 1.265 . S
O64 Cd57 2.269 . S
O64 C78 1.233 . S
O65 Cd59 2.255 . S
O65 C80 1.210 . S
O66 C58 1.266 . S
O66 Cd60 2.201 . S
O67 Cd57 2.237 . S
O67 C58 1.194 . S
C68 O72 1.265 . S
C68 O73 1.233 . S
O69 Cd59 2.218 . S
O69 C61 1.235 . S
C70 O71 1.269 . S
C70 O75 1.210 1_554 S
O71 C70 1.269 . S
O72 Cd59 2.298 . S
O72 C68 1.265 . S
O73 Cd60 2.269 . S
O73 C68 1.233 . S
C74 O76 1.266 . S
C74 O77 1.194 . S
O75 Cd56 2.255 . S
O75 C70 1.210 1_556 S
O76 Cd57 2.201 . S
O76 C74 1.266 . S
O77 Cd60 2.237 . S
O77 C74 1.194 . S
C78 O63 1.265 . S
C78 O64 1.233 . S
O79 Cd56 2.218 . S
O79 C82 1.235 . S
C80 O65 1.210 . S
C80 O81 1.269 . S
O81 C80 1.269 . S
C82 O79 1.235 . S
C82 O83 1.201 . S
O83 C82 1.201 . S
H84 C96 0.930 . S
H85 C98 0.930 . S
H86 C99 0.930 . S
H87 C103 0.959 1_455 S
H88 C103 0.959 . S
H89 C103 0.961 . S
H90 C104 0.960 . S
H91 C104 0.961 . S
H92 C104 0.959 . S
H93 C107 0.929 . S
H94 C108 0.931 . S
H95 C110 0.930 . S
C96 H84 0.930 . S
C96 C97 1.399 1_565 S
C96 C101 1.399 . S
C97 C96 1.399 1_545 S
C97 C98 1.376 1_655 S
C98 H85 0.930 . S
C98 C97 1.376 1_455 S
C98 C99 1.388 . S
C99 H86 0.930 . S
C99 C98 1.388 . S
C99 C100 1.390 . S
C100 C99 1.390 . S
C100 C101 1.394 1_445 S
C100 C106 1.465 . S
C101 C96 1.399 . S
C101 C100 1.394 1_665 S
C101 C102 1.516 . S
C102 C101 1.516 . S
C102 C103 1.502 . S
C102 C104 1.561 . S
C102 C105 1.526 . S
C103 H87 0.959 1_655 S
C103 H88 0.959 . S
C103 H89 0.961 . S
C103 C102 1.502 . S
C104 H90 0.960 . S
C104 H91 0.961 . S
C104 H92 0.959 . S
C104 C102 1.561 . S
C105 C102 1.526 . S
C105 C106 1.396 1_665 S
C105 C110 1.390 . S
C106 C100 1.465 . S
C106 C105 1.396 1_445 S
C106 C107 1.399 . S
C107 H93 0.929 . S
C107 C106 1.399 . S
C107 C108 1.385 . S
C108 H94 0.931 . S
C108 C107 1.385 . S
C108 C109 1.389 1_545 S
C109 C108 1.389 1_565 S
C109 C110 1.387 1_455 S
C110 H95 0.930 . S
C110 C105 1.390 . S
C110 C109 1.387 1_655 S
H111 C123 0.930 . S
H112 C125 0.930 . S
H113 C126 0.930 . S
H114 C130 0.959 . S
H115 C130 0.959 1_455 S
H116 C130 0.961 1_455 S
H117 C131 0.960 . S
H118 C131 0.961 . S
H119 C131 0.959 . S
H120 C134 0.929 . S
H121 C135 0.931 . S
H122 C137 0.930 1_554 S
C123 H111 0.930 . S
C123 C124 1.399 . S
C123 C128 1.399 . S
C124 C123 1.399 . S
C124 C125 1.376 . S
C125 H112 0.930 . S
C125 C124 1.376 . S
C125 C126 1.388 . S
C126 H113 0.930 . S
C126 C125 1.388 . S
C126 C127 1.390 . S
C127 C126 1.390 . S
C127 C128 1.394 . S
C127 C133 1.465 . S
C128 C123 1.399 . S
C128 C127 1.394 . S
C128 C129 1.516 . S
C129 C128 1.516 . S
C129 C130 1.502 . S
C129 C131 1.561 . S
C129 C132 1.526 . S
C130 H114 0.959 . S
C130 H115 0.959 1_655 S
C130 H116 0.961 1_655 S
C130 C129 1.502 . S
C131 H117 0.960 . S
C131 H118 0.961 . S
C131 H119 0.959 . S
C131 C129 1.561 . S
C132 C129 1.526 . S
C132 C133 1.396 . S
C132 C137 1.390 . S
C133 C127 1.465 . S
C133 C132 1.396 . S
C133 C134 1.399 . S
C134 H120 0.929 . S
C134 C133 1.399 . S
C134 C135 1.385 . S
C135 H121 0.931 . S
C135 C134 1.385 . S
C135 C136 1.389 . S
C136 C135 1.389 . S
C136 C137 1.387 . S
C137 H122 0.930 1_556 S
C137 C132 1.390 . S
C137 C136 1.387 . S
H138 C150 0.930 . S
H139 C152 0.930 . S
H140 C153 0.930 . S
H141 C157 0.959 . S
H142 C157 0.959 . S
H143 C157 0.961 . S
H144 C158 0.960 . S
H145 C158 0.961 . S
H146 C158 0.959 . S
H147 C161 0.929 . S
H148 C162 0.931 . S
H149 C164 0.930 . S
C150 H138 0.930 . S
C150 C151 1.399 . S
C150 C155 1.399 . S
C151 C150 1.399 . S
C151 C152 1.376 . S
C152 H139 0.930 . S
C152 C151 1.376 . S
C152 C153 1.388 . S
C153 H140 0.930 . S
C153 C152 1.388 . S
C153 C154 1.390 . S
C154 C153 1.390 . S
C154 C155 1.394 . S
C154 C160 1.465 . S
C155 C150 1.399 . S
C155 C154 1.394 . S
C155 C156 1.516 . S
C156 C155 1.516 . S
C156 C157 1.502 . S
C156 C158 1.561 . S
C156 C159 1.526 . S
C157 H141 0.959 . S
C157 H142 0.959 . S
C157 H143 0.961 . S
C157 C156 1.502 . S
C158 H144 0.960 . S
C158 H145 0.961 . S
C158 H146 0.959 . S
C158 C156 1.561 . S
C159 C156 1.526 . S
C159 C160 1.396 . S
C159 C164 1.390 . S
C160 C154 1.465 . S
C160 C159 1.396 . S
C160 C161 1.399 . S
C161 H147 0.929 . S
C161 C160 1.399 . S
C161 C162 1.385 . S
C162 H148 0.931 . S
C162 C161 1.385 . S
C162 C163 1.389 . S
C163 C162 1.389 . S
C163 C164 1.387 . S
C164 H149 0.930 . S
C164 C159 1.390 . S
C164 C163 1.387 . S
H165 C177 0.930 . S
H166 C179 0.930 . S
H167 C180 0.930 . S
H168 C184 0.959 . S
H169 C184 0.959 . S
H170 C184 0.961 . S
H171 C185 0.960 . S
H172 C185 0.961 . S
H173 C185 0.959 1_545 S
H174 C188 0.929 . S
H175 C189 0.931 . S
H176 C191 0.930 . S
C177 H165 0.930 . S
C177 C178 1.399 . S
C177 C182 1.399 . S
C178 C177 1.399 . S
C178 C179 1.376 . S
C179 H166 0.930 . S
C179 C178 1.376 . S
C179 C180 1.388 . S
C180 H167 0.930 . S
C180 C179 1.388 . S
C180 C181 1.390 . S
C181 C180 1.390 . S
C181 C182 1.394 . S
C181 C187 1.465 . S
C182 C177 1.399 . S
C182 C181 1.394 . S
C182 C183 1.516 . S
C183 C182 1.516 . S
C183 C184 1.502 1_455 S
C183 C185 1.561 . S
C183 C186 1.526 . S
C184 H168 0.959 . S
C184 H169 0.959 . S
C184 H170 0.961 . S
C184 C183 1.502 1_655 S
C185 H171 0.960 . S
C185 H172 0.961 . S
C185 H173 0.959 1_565 S
C185 C183 1.561 . S
C186 C183 1.526 . S
C186 C187 1.396 . S
C186 C191 1.390 . S
C187 C181 1.465 . S
C187 C186 1.396 . S
C187 C188 1.399 . S
C188 H174 0.929 . S
C188 C187 1.399 . S
C188 C189 1.385 . S
C189 H175 0.931 . S
C189 C188 1.385 . S
C189 C190 1.389 . S
C190 C189 1.389 . S
C190 C191 1.387 . S
C191 H176 0.930 . S
C191 C186 1.390 . S
C191 C190 1.387 . S
H192 C204 0.930 . S
H193 C206 0.930 . S
H194 C207 0.930 . S
H195 C211 0.959 . S
H196 C211 0.959 . S
H197 C211 0.961 . S
H198 C212 0.960 . S
H199 C212 0.961 . S
H200 C212 0.959 . S
H201 C215 0.929 . S
H202 C216 0.931 1_655 S
H203 C218 0.930 . S
C204 H192 0.930 . S
C204 C205 1.399 . S
C204 C209 1.399 . S
C205 C204 1.399 . S
C205 C206 1.376 . S
C206 H193 0.930 . S
C206 C205 1.376 . S
C206 C207 1.388 . S
C207 H194 0.930 . S
C207 C206 1.388 . S
C207 C208 1.390 . S
C208 C207 1.390 . S
C208 C209 1.394 . S
C208 C214 1.465 . S
C209 C204 1.399 . S
C209 C208 1.394 . S
C209 C210 1.516 . S
C210 C209 1.516 . S
C210 C211 1.502 . S
C210 C212 1.561 . S
C210 C213 1.526 . S
C211 H195 0.959 . S
C211 H196 0.959 . S
C211 H197 0.961 . S
C211 C210 1.502 . S
C212 H198 0.960 . S
C212 H199 0.961 . S
C212 H200 0.959 . S
C212 C210 1.561 . S
C213 C210 1.526 . S
C213 C214 1.396 . S
C213 C218 1.390 . S
C214 C208 1.465 . S
C214 C213 1.396 . S
C214 C215 1.399 . S
C215 H201 0.929 . S
C215 C214 1.399 . S
C215 C216 1.385 . S
C216 H202 0.931 1_455 S
C216 C215 1.385 . S
C216 C217 1.389 . S
C217 C216 1.389 . S
C217 C218 1.387 . S
C218 H203 0.930 . S
C218 C213 1.390 . S
C218 C217 1.387 . S
H219 C231 0.930 . S
H220 C233 0.930 . S
H221 C234 0.930 . S
H222 C238 0.959 . S
H223 C238 0.959 . S
H224 C238 0.961 . S
H225 C239 0.960 . S
H226 C239 0.961 . S
H227 C239 0.959 . S
H228 C242 0.929 . S
H229 C243 0.931 . S
H230 C245 0.930 . S
C231 H219 0.930 . S
C231 C232 1.399 . S
C231 C236 1.399 . S
C232 C231 1.399 . S
C232 C233 1.376 . S
C233 H220 0.930 . S
C233 C232 1.376 . S
C233 C234 1.388 . S
C234 H221 0.930 . S
C234 C233 1.388 . S
C234 C235 1.390 . S
C235 C234 1.390 . S
C235 C236 1.394 . S
C235 C241 1.465 . S
C236 C231 1.399 . S
C236 C235 1.394 . S
C236 C237 1.516 . S
C237 C236 1.516 . S
C237 C238 1.502 . S
C237 C239 1.561 . S
C237 C240 1.526 . S
C238 H222 0.959 . S
C238 H223 0.959 . S
C238 H224 0.961 . S
C238 C237 1.502 . S
C239 H225 0.960 . S
C239 H226 0.961 . S
C239 H227 0.959 . S
C239 C237 1.561 . S
C240 C237 1.526 . S
C240 C241 1.396 . S
C240 C245 1.390 . S
C241 C235 1.465 . S
C241 C240 1.396 . S
C241 C242 1.399 . S
C242 H228 0.929 . S
C242 C241 1.399 . S
C242 C243 1.385 . S
C243 H229 0.931 . S
C243 C242 1.385 . S
C243 C244 1.389 . S
C244 C243 1.389 . S
C244 C245 1.387 . S
C245 H230 0.930 . S
C245 C240 1.390 . S
C245 C244 1.387 . S
H246 C258 0.930 . S
H247 C260 0.930 . S
H248 C261 0.930 1_565 S
H249 C265 0.959 . S
H250 C265 0.959 . S
H251 C265 0.961 . S
H252 C266 0.960 . S
H253 C266 0.961 1_455 S
H254 C266 0.959 . S
H255 C269 0.929 1_565 S
H256 C270 0.931 1_565 S
H257 C272 0.930 1_455 S
C258 H246 0.930 . S
C258 C259 1.399 . S
C258 C263 1.399 . S
C259 C258 1.399 . S
C259 C260 1.376 . S
C260 H247 0.930 . S
C260 C259 1.376 . S
C260 C261 1.388 . S
C261 H248 0.930 1_545 S
C261 C260 1.388 . S
C261 C262 1.390 . S
C262 C261 1.390 . S
C262 C263 1.394 . S
C262 C268 1.465 . S
C263 C258 1.399 . S
C263 C262 1.394 . S
C263 C264 1.516 . S
C264 C263 1.516 . S
C264 C265 1.502 1_655 S
C264 C266 1.561 . S
C264 C267 1.526 . S
C265 H249 0.959 . S
C265 H250 0.959 . S
C265 H251 0.961 . S
C265 C264 1.502 1_455 S
C266 H252 0.960 . S
C266 H253 0.961 1_655 S
C266 H254 0.959 . S
C266 C264 1.561 . S
C267 C264 1.526 . S
C267 C268 1.396 . S
C267 C272 1.390 . S
C268 C262 1.465 . S
C268 C267 1.396 . S
C268 C269 1.399 . S
C269 H255 0.929 1_545 S
C269 C268 1.399 . S
C269 C270 1.385 . S
C270 H256 0.931 1_545 S
C270 C269 1.385 . S
C270 C271 1.389 . S
C271 C270 1.389 . S
C271 C272 1.387 . S
C272 H257 0.930 1_655 S
C272 C267 1.390 . S
C272 C271 1.387 . S
H273 C285 0.930 . S
H274 C287 0.930 . S
H275 C288 0.930 1_455 S
H276 C292 0.959 . S
H277 C292 0.959 . S
H278 C292 0.961 . S
H279 C293 0.960 . S
H280 C293 0.961 . S
H281 C293 0.959 . S
H282 C296 0.929 . S
H283 C297 0.931 . S
H284 C299 0.930 . S
C285 H273 0.930 . S
C285 C286 1.399 . S
C285 C290 1.399 . S
C286 C285 1.399 . S
C286 C287 1.376 . S
C287 H274 0.930 . S
C287 C286 1.376 . S
C287 C288 1.388 . S
C288 H275 0.930 1_655 S
C288 C287 1.388 . S
C288 C289 1.390 . S
C289 C288 1.390 . S
C289 C290 1.394 . S
C289 C295 1.465 . S
C290 C285 1.399 . S
C290 C289 1.394 . S
C290 C291 1.516 . S
C291 C290 1.516 . S
C291 C292 1.502 . S
C291 C293 1.561 . S
C291 C294 1.526 . S
C292 H276 0.959 . S
C292 H277 0.959 . S
C292 H278 0.961 . S
C292 C291 1.502 . S
C293 H279 0.960 . S
C293 H280 0.961 . S
C293 H281 0.959 . S
C293 C291 1.561 . S
C294 C291 1.526 . S
C294 C295 1.396 . S
C294 C299 1.390 . S
C295 C289 1.465 . S
C295 C294 1.396 . S
C295 C296 1.399 1_655 S
C296 H282 0.929 . S
C296 C295 1.399 1_455 S
C296 C297 1.385 . S
C297 H283 0.931 . S
C297 C296 1.385 . S
C297 C298 1.389 1_455 S
C298 C297 1.389 1_655 S
C298 C299 1.387 . S
C299 H284 0.930 . S
C299 C294 1.390 . S
C299 C298 1.387 . S
H300 C312 0.930 . S
H301 C314 0.930 . S
H302 C315 0.930 . S
H303 C319 0.959 . S
H304 C319 0.959 . S
H305 C319 0.961 . S
H306 C320 0.960 . S
H307 C320 0.961 . S
H308 C320 0.959 . S
H309 C323 0.929 . S
H310 C324 0.931 . S
H311 C326 0.930 . S
C312 H300 0.930 . S
C312 C313 1.399 . S
C312 C317 1.399 . S
C313 C312 1.399 . S
C313 C314 1.376 . S
C314 H301 0.930 . S
C314 C313 1.376 . S
C314 C315 1.388 . S
C315 H302 0.930 . S
C315 C314 1.388 . S
C315 C316 1.390 . S
C316 C315 1.390 . S
C316 C317 1.394 . S
C316 C322 1.465 . S
C317 C312 1.399 . S
C317 C316 1.394 . S
C317 C318 1.516 . S
C318 C317 1.516 . S
C318 C319 1.502 1_545 S
C318 C320 1.561 . S
C318 C321 1.526 . S
C319 H303 0.959 . S
C319 H304 0.959 . S
C319 H305 0.961 . S
C319 C318 1.502 1_565 S
C320 H306 0.960 . S
C320 H307 0.961 . S
C320 H308 0.959 . S
C320 C318 1.561 . S
C321 C318 1.526 . S
C321 C322 1.396 . S
C321 C326 1.390 . S
C322 C316 1.465 . S
C322 C321 1.396 . S
C322 C323 1.399 . S
C323 H309 0.929 . S
C323 C322 1.399 . S
C323 C324 1.385 . S
C324 H310 0.931 . S
C324 C323 1.385 . S
C324 C325 1.389 . S
C325 C324 1.389 . S
C325 C326 1.387 . S
C326 H311 0.930 . S
C326 C321 1.390 . S
C326 C325 1.387 . S
H327 C339 0.930 . S
H328 C341 0.930 . S
H329 C342 0.930 . S
H330 C346 0.959 . S
H331 C346 0.959 . S
H332 C346 0.961 . S
H333 C347 0.960 . S
H334 C347 0.961 . S
H335 C347 0.959 . S
H336 C350 0.929 . S
H337 C351 0.931 . S
H338 C353 0.930 . S
C339 H327 0.930 . S
C339 C340 1.399 . S
C339 C344 1.399 . S
C340 C339 1.399 . S
C340 C341 1.376 . S
C341 H328 0.930 . S
C341 C340 1.376 . S
C341 C342 1.388 1_554 S
C342 H329 0.930 . S
C342 C341 1.388 1_556 S
C342 C343 1.390 . S
C343 C342 1.390 . S
C343 C344 1.394 1_556 S
C343 C349 1.465 . S
C344 C339 1.399 . S
C344 C343 1.394 1_554 S
C344 C345 1.516 . S
C345 C344 1.516 . S
C345 C346 1.502 . S
C345 C347 1.561 . S
C345 C348 1.526 1_554 S
C346 H330 0.959 . S
C346 H331 0.959 . S
C346 H332 0.961 . S
C346 C345 1.502 . S
C347 H333 0.960 . S
C347 H334 0.961 . S
C347 H335 0.959 . S
C347 C345 1.561 . S
C348 C345 1.526 1_556 S
C348 C349 1.396 . S
C348 C353 1.390 . S
C349 C343 1.465 . S
C349 C348 1.396 . S
C349 C350 1.399 . S
C350 H336 0.929 . S
C350 C349 1.399 . S
C350 C351 1.385 . S
C351 H337 0.931 . S
C351 C350 1.385 . S
C351 C352 1.389 . S
C352 C351 1.389 . S
C352 C353 1.387 . S
C353 H338 0.930 . S
C353 C348 1.390 . S
C353 C352 1.387 . S
H354 C366 0.930 1_545 S
H355 C368 0.930 . S
H356 C369 0.930 . S
H357 C373 0.959 . S
H358 C373 0.959 . S
H359 C373 0.961 . S
H360 C374 0.964 . S
H361 C374 0.960 1_554 S
H362 C374 0.960 . S
H363 C377 0.929 . S
H364 C378 0.931 . S
H365 C380 0.930 . S
C366 H354 0.930 1_565 S
C366 C367 1.399 . S
C366 C371 1.399 . S
C367 C366 1.399 . S
C367 C368 1.376 . S
C368 H355 0.930 . S
C368 C367 1.376 . S
C368 C369 1.388 . S
C369 H356 0.930 . S
C369 C368 1.388 . S
C369 C370 1.390 . S
C370 C369 1.390 . S
C370 C371 1.394 . S
C370 C376 1.465 1_556 S
C371 C366 1.399 . S
C371 C370 1.394 . S
C371 C372 1.516 1_566 S
C372 C371 1.516 1_544 S
C372 C373 1.502 . S
C372 C374 1.558 1_554 S
C372 C375 1.526 . S
C373 H357 0.959 . S
C373 H358 0.959 . S
C373 H359 0.961 . S
C373 C372 1.502 . S
C374 H360 0.964 . S
C374 H361 0.960 1_556 S
C374 H362 0.960 . S
C374 C372 1.558 1_556 S
C375 C372 1.526 . S
C375 C376 1.396 1_545 S
C375 C380 1.390 . S
C376 C370 1.465 1_554 S
C376 C375 1.396 1_565 S
C376 C377 1.399 . S
C377 H363 0.929 . S
C377 C376 1.399 . S
C377 C378 1.385 1_565 S
C378 H364 0.931 . S
C378 C377 1.385 1_545 S
C378 C379 1.389 . S
C379 C378 1.389 . S
C379 C380 1.387 . S
C380 H365 0.930 . S
C380 C375 1.390 . S
C380 C379 1.387 . S
H381 C393 0.930 1_655 S
H382 C395 0.930 . S
H383 C396 0.930 . S
H384 C400 0.959 1_455 S
H385 C400 0.959 . S
H386 C400 0.961 1_556 S
H387 C401 0.960 . S
H388 C401 0.961 . S
H389 C401 0.959 . S
H390 C404 0.929 . S
H391 C405 0.931 . S
H392 C407 0.930 . S
C393 H381 0.930 1_455 S
C393 C394 1.399 . S
C393 C398 1.399 1_455 S
C394 C393 1.399 . S
C394 C395 1.376 . S
C395 H382 0.930 . S
C395 C394 1.376 . S
C395 C396 1.388 . S
C396 H383 0.930 . S
C396 C395 1.388 . S
C396 C397 1.390 . S
C397 C396 1.390 . S
C397 C398 1.394 1_455 S
C397 C403 1.465 1_556 S
C398 C393 1.399 1_655 S
C398 C397 1.394 1_655 S
C398 C399 1.516 . S
C399 C398 1.516 . S
C399 C400 1.502 1_556 S
C399 C401 1.561 . S
C399 C402 1.526 1_556 S
C400 H384 0.959 1_655 S
C400 H385 0.959 . S
C400 H386 0.961 1_554 S
C400 C399 1.502 1_554 S
C401 H387 0.960 . S
C401 H388 0.961 . S
C401 H389 0.959 . S
C401 C399 1.561 . S
C402 C399 1.526 1_554 S
C402 C403 1.396 1_655 S
C402 C407 1.390 . S
C403 C397 1.465 1_554 S
C403 C402 1.396 1_455 S
C403 C404 1.399 . S
C404 H390 0.929 . S
C404 C403 1.399 . S
C404 C405 1.385 . S
C405 H391 0.931 . S
C405 C404 1.385 . S
C405 C406 1.389 1_455 S
C406 C405 1.389 1_655 S
C406 C407 1.387 . S
C407 H392 0.930 . S
C407 C402 1.390 . S
C407 C406 1.387 . S
C97 C24 0.573 . S
C109 C14 0.454 . S
C124 C42 0.492 . S
C136 C52 0.508 . S
C151 C70 0.472 . S
C163 C80 0.561 . S
C178 C61 1.815 . S
C190 C26 1.929 . S
C205 C74 1.781 . S
C217 C2 1.763 . S
C232 C68 2.159 . S
C244 C22 2.230 . S
C259 C54 1.842 . S
C271 C5 1.887 . S
C286 C30 1.774 . S
C298 C18 1.771 . S
C313 C50 2.223 . S
C325 C12 2.164 . S
C340 C33 1.819 . S
C352 C82 1.915 . S
C367 C58 1.773 . S
C379 C46 1.775 . S
C394 C78 2.159 . S
C406 C40 2.231 . S
