# Generated by pormake.
# Topology wlu, (5)-cn, num edge types: 1
# Building blocks:
#     Node 0, Type 0, BuildingBlock: XOMCOT_clean_sbu_1, # of connection points: 5
#     Node 1, Type 0, BuildingBlock: XOMCOT_clean_sbu_1, # of connection points: 5
#     Node 2, Type 0, BuildingBlock: XOMCOT_clean_sbu_1, # of connection points: 5
#     Node 3, Type 0, BuildingBlock: XOMCOT_clean_sbu_1, # of connection points: 5
#     Node 4, Type 0, BuildingBlock: XOMCOT_clean_sbu_1, # of connection points: 5
#     Node 5, Type 0, BuildingBlock: XOMCOT_clean_sbu_1, # of connection points: 5
#     Node 6, Type 0, BuildingBlock: XOMCOT_clean_sbu_1, # of connection points: 5
#     Node 7, Type 0, BuildingBlock: XOMCOT_clean_sbu_1, # of connection points: 5
#     Node 8, Type 0, BuildingBlock: XOMCOT_clean_sbu_1, # of connection points: 5
#     Node 9, Type 0, BuildingBlock: XOMCOT_clean_sbu_1, # of connection points: 5
#     Node 10, Type 0, BuildingBlock: XOMCOT_clean_sbu_1, # of connection points: 5
#     Node 11, Type 0, BuildingBlock: XOMCOT_clean_sbu_1, # of connection points: 5
#     Node 12, Type 0, BuildingBlock: XOMCOT_clean_sbu_1, # of connection points: 5
#     Node 13, Type 0, BuildingBlock: XOMCOT_clean_sbu_1, # of connection points: 5
#     Node 14, Type 0, BuildingBlock: XOMCOT_clean_sbu_1, # of connection points: 5
#     Node 15, Type 0, BuildingBlock: XOMCOT_clean_sbu_1, # of connection points: 5
#     Node 16, Type 0, BuildingBlock: XOMCOT_clean_sbu_1, # of connection points: 5
#     Node 17, Type 0, BuildingBlock: XOMCOT_clean_sbu_1, # of connection points: 5
#     Node 18, Type 0, BuildingBlock: XOMCOT_clean_sbu_1, # of connection points: 5
#     Node 19, Type 0, BuildingBlock: XOMCOT_clean_sbu_1, # of connection points: 5
#     Node 20, Type 0, BuildingBlock: XOMCOT_clean_sbu_1, # of connection points: 5
#     Node 21, Type 0, BuildingBlock: XOMCOT_clean_sbu_1, # of connection points: 5
#     Node 22, Type 0, BuildingBlock: XOMCOT_clean_sbu_1, # of connection points: 5
#     Node 23, Type 0, BuildingBlock: XOMCOT_clean_sbu_1, # of connection points: 5
#     Node 24, Type 0, BuildingBlock: XOMCOT_clean_sbu_1, # of connection points: 5
#     Node 25, Type 0, BuildingBlock: XOMCOT_clean_sbu_1, # of connection points: 5
#     Node 26, Type 0, BuildingBlock: XOMCOT_clean_sbu_1, # of connection points: 5
#     Node 27, Type 0, BuildingBlock: XOMCOT_clean_sbu_1, # of connection points: 5
#     Node 28, Type 0, BuildingBlock: XOMCOT_clean_sbu_1, # of connection points: 5
#     Node 29, Type 0, BuildingBlock: XOMCOT_clean_sbu_1, # of connection points: 5
#     Node 30, Type 0, BuildingBlock: XOMCOT_clean_sbu_1, # of connection points: 5
#     Node 31, Type 0, BuildingBlock: XOMCOT_clean_sbu_1, # of connection points: 5
#     Node 32, Type 0, BuildingBlock: XOMCOT_clean_sbu_1, # of connection points: 5
#     Node 33, Type 0, BuildingBlock: XOMCOT_clean_sbu_1, # of connection points: 5
#     Node 34, Type 0, BuildingBlock: XOMCOT_clean_sbu_1, # of connection points: 5
#     Node 35, Type 0, BuildingBlock: XOMCOT_clean_sbu_1, # of connection points: 5
#     Edge 36, Type (0, 0), BuildingBlock: XUDNAN_clean_linker_2, # of connection points: 2
#     Edge 37, Type (0, 0), BuildingBlock: XUDNAN_clean_linker_2, # of connection points: 2
#     Edge 38, Type (0, 0), BuildingBlock: XUDNAN_clean_linker_2, # of connection points: 2
#     Edge 39, Type (0, 0), BuildingBlock: XUDNAN_clean_linker_2, # of connection points: 2
#     Edge 40, Type (0, 0), BuildingBlock: XUDNAN_clean_linker_2, # of connection points: 2
#     Edge 41, Type (0, 0), BuildingBlock: XUDNAN_clean_linker_2, # of connection points: 2
#     Edge 42, Type (0, 0), BuildingBlock: XUDNAN_clean_linker_2, # of connection points: 2
#     Edge 43, Type (0, 0), BuildingBlock: XUDNAN_clean_linker_2, # of connection points: 2
#     Edge 44, Type (0, 0), BuildingBlock: XUDNAN_clean_linker_2, # of connection points: 2
#     Edge 45, Type (0, 0), BuildingBlock: XUDNAN_clean_linker_2, # of connection points: 2
#     Edge 46, Type (0, 0), BuildingBlock: XUDNAN_clean_linker_2, # of connection points: 2
#     Edge 47, Type (0, 0), BuildingBlock: XUDNAN_clean_linker_2, # of connection points: 2
#     Edge 48, Type (0, 0), BuildingBlock: XUDNAN_clean_linker_2, # of connection points: 2
#     Edge 49, Type (0, 0), BuildingBlock: XUDNAN_clean_linker_2, # of connection points: 2
#     Edge 50, Type (0, 0), BuildingBlock: XUDNAN_clean_linker_2, # of connection points: 2
#     Edge 51, Type (0, 0), BuildingBlock: XUDNAN_clean_linker_2, # of connection points: 2
#     Edge 52, Type (0, 0), BuildingBlock: XUDNAN_clean_linker_2, # of connection points: 2
#     Edge 53, Type (0, 0), BuildingBlock: XUDNAN_clean_linker_2, # of connection points: 2
#     Edge 54, Type (0, 0), BuildingBlock: XUDNAN_clean_linker_2, # of connection points: 2
#     Edge 55, Type (0, 0), BuildingBlock: XUDNAN_clean_linker_2, # of connection points: 2
#     Edge 56, Type (0, 0), BuildingBlock: XUDNAN_clean_linker_2, # of connection points: 2
#     Edge 57, Type (0, 0), BuildingBlock: XUDNAN_clean_linker_2, # of connection points: 2
#     Edge 58, Type (0, 0), BuildingBlock: XUDNAN_clean_linker_2, # of connection points: 2
#     Edge 59, Type (0, 0), BuildingBlock: XUDNAN_clean_linker_2, # of connection points: 2
#     Edge 60, Type (0, 0), BuildingBlock: XUDNAN_clean_linker_2, # of connection points: 2
#     Edge 61, Type (0, 0), BuildingBlock: XUDNAN_clean_linker_2, # of connection points: 2
#     Edge 62, Type (0, 0), BuildingBlock: XUDNAN_clean_linker_2, # of connection points: 2
#     Edge 63, Type (0, 0), BuildingBlock: XUDNAN_clean_linker_2, # of connection points: 2
#     Edge 64, Type (0, 0), BuildingBlock: XUDNAN_clean_linker_2, # of connection points: 2
#     Edge 65, Type (0, 0), BuildingBlock: XUDNAN_clean_linker_2, # of connection points: 2
#     Edge 66, Type (0, 0), BuildingBlock: XUDNAN_clean_linker_2, # of connection points: 2
#     Edge 67, Type (0, 0), BuildingBlock: XUDNAN_clean_linker_2, # of connection points: 2
#     Edge 68, Type (0, 0), BuildingBlock: XUDNAN_clean_linker_2, # of connection points: 2
#     Edge 69, Type (0, 0), BuildingBlock: XUDNAN_clean_linker_2, # of connection points: 2
#     Edge 70, Type (0, 0), BuildingBlock: XUDNAN_clean_linker_2, # of connection points: 2
#     Edge 71, Type (0, 0), BuildingBlock: XUDNAN_clean_linker_2, # of connection points: 2
#     Edge 72, Type (0, 0), BuildingBlock: XUDNAN_clean_linker_2, # of connection points: 2
#     Edge 73, Type (0, 0), BuildingBlock: XUDNAN_clean_linker_2, # of connection points: 2
#     Edge 74, Type (0, 0), BuildingBlock: XUDNAN_clean_linker_2, # of connection points: 2
#     Edge 75, Type (0, 0), BuildingBlock: XUDNAN_clean_linker_2, # of connection points: 2
#     Edge 76, Type (0, 0), BuildingBlock: XUDNAN_clean_linker_2, # of connection points: 2
#     Edge 77, Type (0, 0), BuildingBlock: XUDNAN_clean_linker_2, # of connection points: 2
#     Edge 78, Type (0, 0), BuildingBlock: XUDNAN_clean_linker_2, # of connection points: 2
#     Edge 79, Type (0, 0), BuildingBlock: XUDNAN_clean_linker_2, # of connection points: 2
#     Edge 80, Type (0, 0), BuildingBlock: XUDNAN_clean_linker_2, # of connection points: 2
#     Edge 81, Type (0, 0), BuildingBlock: XUDNAN_clean_linker_2, # of connection points: 2
#     Edge 82, Type (0, 0), BuildingBlock: XUDNAN_clean_linker_2, # of connection points: 2
#     Edge 83, Type (0, 0), BuildingBlock: XUDNAN_clean_linker_2, # of connection points: 2
#     Edge 84, Type (0, 0), BuildingBlock: XUDNAN_clean_linker_2, # of connection points: 2
#     Edge 85, Type (0, 0), BuildingBlock: XUDNAN_clean_linker_2, # of connection points: 2
#     Edge 86, Type (0, 0), BuildingBlock: XUDNAN_clean_linker_2, # of connection points: 2
#     Edge 87, Type (0, 0), BuildingBlock: XUDNAN_clean_linker_2, # of connection points: 2
#     Edge 88, Type (0, 0), BuildingBlock: XUDNAN_clean_linker_2, # of connection points: 2
#     Edge 89, Type (0, 0), BuildingBlock: XUDNAN_clean_linker_2, # of connection points: 2
#     Edge 90, Type (0, 0), BuildingBlock: XUDNAN_clean_linker_2, # of connection points: 2
#     Edge 91, Type (0, 0), BuildingBlock: XUDNAN_clean_linker_2, # of connection points: 2
#     Edge 92, Type (0, 0), BuildingBlock: XUDNAN_clean_linker_2, # of connection points: 2
#     Edge 93, Type (0, 0), BuildingBlock: XUDNAN_clean_linker_2, # of connection points: 2
#     Edge 94, Type (0, 0), BuildingBlock: XUDNAN_clean_linker_2, # of connection points: 2
#     Edge 95, Type (0, 0), BuildingBlock: XUDNAN_clean_linker_2, # of connection points: 2
#     Edge 96, Type (0, 0), BuildingBlock: XUDNAN_clean_linker_2, # of connection points: 2
#     Edge 97, Type (0, 0), BuildingBlock: XUDNAN_clean_linker_2, # of connection points: 2
#     Edge 98, Type (0, 0), BuildingBlock: XUDNAN_clean_linker_2, # of connection points: 2
#     Edge 99, Type (0, 0), BuildingBlock: XUDNAN_clean_linker_2, # of connection points: 2
#     Edge 100, Type (0, 0), BuildingBlock: XUDNAN_clean_linker_2, # of connection points: 2
#     Edge 101, Type (0, 0), BuildingBlock: XUDNAN_clean_linker_2, # of connection points: 2
#     Edge 102, Type (0, 0), BuildingBlock: XUDNAN_clean_linker_2, # of connection points: 2
#     Edge 103, Type (0, 0), BuildingBlock: XUDNAN_clean_linker_2, # of connection points: 2
#     Edge 104, Type (0, 0), BuildingBlock: XUDNAN_clean_linker_2, # of connection points: 2
#     Edge 105, Type (0, 0), BuildingBlock: XUDNAN_clean_linker_2, # of connection points: 2
#     Edge 106, Type (0, 0), BuildingBlock: XUDNAN_clean_linker_2, # of connection points: 2
#     Edge 107, Type (0, 0), BuildingBlock: XUDNAN_clean_linker_2, # of connection points: 2
#     Edge 108, Type (0, 0), BuildingBlock: XUDNAN_clean_linker_2, # of connection points: 2
#     Edge 109, Type (0, 0), BuildingBlock: XUDNAN_clean_linker_2, # of connection points: 2
#     Edge 110, Type (0, 0), BuildingBlock: XUDNAN_clean_linker_2, # of connection points: 2
#     Edge 111, Type (0, 0), BuildingBlock: XUDNAN_clean_linker_2, # of connection points: 2
#     Edge 112, Type (0, 0), BuildingBlock: XUDNAN_clean_linker_2, # of connection points: 2
#     Edge 113, Type (0, 0), BuildingBlock: XUDNAN_clean_linker_2, # of connection points: 2
#     Edge 114, Type (0, 0), BuildingBlock: XUDNAN_clean_linker_2, # of connection points: 2
#     Edge 115, Type (0, 0), BuildingBlock: XUDNAN_clean_linker_2, # of connection points: 2
#     Edge 116, Type (0, 0), BuildingBlock: XUDNAN_clean_linker_2, # of connection points: 2
#     Edge 117, Type (0, 0), BuildingBlock: XUDNAN_clean_linker_2, # of connection points: 2
#     Edge 118, Type (0, 0), BuildingBlock: XUDNAN_clean_linker_2, # of connection points: 2
#     Edge 119, Type (0, 0), BuildingBlock: XUDNAN_clean_linker_2, # of connection points: 2
#     Edge 120, Type (0, 0), BuildingBlock: XUDNAN_clean_linker_2, # of connection points: 2
#     Edge 121, Type (0, 0), BuildingBlock: XUDNAN_clean_linker_2, # of connection points: 2
#     Edge 122, Type (0, 0), BuildingBlock: XUDNAN_clean_linker_2, # of connection points: 2
#     Edge 123, Type (0, 0), BuildingBlock: XUDNAN_clean_linker_2, # of connection points: 2
#     Edge 124, Type (0, 0), BuildingBlock: XUDNAN_clean_linker_2, # of connection points: 2
#     Edge 125, Type (0, 0), BuildingBlock: XUDNAN_clean_linker_2, # of connection points: 2
# Relax obj value: 0.195
# Max RMSD: 0.162
# Mean RMSD: 0.162
data_MOF--net-wlu--node1-XOMCOT_clean_sbu_1--edge1-XUDNAN_clean_linker_2
_symmetry_space_group_name_H-M    P1
_symmetry_Int_Tables_number       1
_symmetry_cell_setting            triclinic
loop_
_symmetry_equiv_pos_as_xyz
'x, y, z'
_cell_length_a     67.63125
_cell_length_b     67.655545
_cell_length_c     53.714175
_cell_angle_alpha  90.03021
_cell_angle_beta   89.925399
_cell_angle_gamma 119.96274
loop_
_atom_site_label
_atom_site_type_symbol
_atom_site_fract_x
_atom_site_fract_y
_atom_site_fract_z
_atom_type_partial_charge
C0 C 0.23893 0.1522 0.07079 0.0
C1 C 0.22537 0.1291 0.068 0.0
N2 N 0.23868 0.12026 0.06177 0.0
N3 N 0.26078 0.15822 0.06593 0.0
C4 C 0.26016 0.13837 0.06049 0.0
H5 H 0.23324 0.16379 0.07677 0.0
Co6 Co 0.28506 0.18777 0.0708 0.0
C7 C 0.31413 0.2007 0.02636 0.0
O8 O 0.31549 0.22065 0.0289 0.0
N9 N 0.30982 0.21753 0.07717 0.0
C10 C 0.34567 0.24447 0.08524 0.0
C11 C 0.33143 0.22174 0.08034 0.0
C12 C 0.31148 0.23815 0.08067 0.0
N13 N 0.3331 0.25481 0.0854 0.0
O14 O 0.29826 0.1762 0.09437 0.0
H15 H 0.33665 0.20906 0.07877 0.0
H16 H 0.29732 0.24118 0.08011 0.0
O17 O 0.30214 0.18463 0.04193 0.0
C18 C 0.28979 0.17624 0.11562 0.0
O19 O 0.27411 0.18229 0.11659 0.0
N20 N 0.27009 0.19865 0.04973 0.0
C21 C 0.23797 0.20596 0.02499 0.0
C22 C 0.24856 0.19537 1.01285 0.0
C23 C 0.26428 0.19154 0.02563 0.0
C24 C 0.25967 0.20874 0.06182 0.0
C25 C 0.24405 0.21316 0.04961 0.0
H26 H 0.27018 0.18116 0.01668 0.0
H27 H 0.26205 0.21171 0.08164 0.0
H28 H 0.27524 0.13711 0.0569 0.0
H29 H 0.20708 0.11953 0.07077 0.0
H30 H 0.36395 0.25276 0.08794 0.0
H31 H 0.24369 0.18887 0.99408 0.0
H32 H 0.23543 0.22041 0.05995 0.0
C33 C 0.85349 0.11489 0.10556 0.0
C34 C 0.87561 0.11957 0.10172 0.0
N35 N 0.88091 0.12529 0.07763 0.0
N36 N 0.84502 0.11772 0.08398 0.0
C37 C 0.862 0.12358 0.0673 0.0
H38 H 0.84446 0.11045 0.12313 0.0
Co39 Co 0.81711 0.11632 0.07837 0.0
C40 C 0.83757 0.1567 0.04284 0.0
O41 O 0.83602 0.17082 0.05843 0.0
N42 N 0.7889 0.11481 0.07253 0.0
C43 C 0.76041 0.11699 0.05469 0.0
C44 C 0.78309 0.1238 0.05334 0.0
C45 C 0.76909 0.10226 0.08512 0.0
N46 N 0.75144 0.10343 0.07471 0.0
O47 O 0.82638 0.14181 0.10102 0.0
H48 H 0.79396 0.13361 0.03817 0.0
H49 H 0.76757 0.092 0.10121 0.0
O50 O 0.83055 0.13613 0.04938 0.0
C51 C 0.81947 0.13593 0.12345 0.0
O52 O 0.80534 0.11426 0.1281 0.0
N53 N 0.8078 0.09048 0.05846 0.0
C54 C 0.79399 0.04946 0.03349 0.0
C55 C 0.7965 0.06865 0.02064 0.0
C56 C 0.80348 0.0891 0.03349 0.0
C57 C 0.80484 0.07185 0.07132 0.0
C58 C 0.79818 0.05124 0.05918 0.0
H59 H 0.80527 0.10367 0.02332 0.0
H60 H 0.80781 0.07309 0.09119 0.0
H61 H 0.86075 0.12686 0.04787 0.0
H62 H 0.88721 0.11982 0.11576 0.0
H63 H 0.75106 0.12082 0.04102 0.0
H64 H 0.79337 0.06794 1.0008 0.0
H65 H 0.79602 0.03672 0.06989 0.0
C66 C 0.91018 0.75216 0.07043 0.0
C67 C 0.90347 0.76821 0.06834 0.0
N68 N 0.88362 0.75886 0.0557 0.0
N69 N 0.89478 0.73286 0.05892 0.0
C70 C 0.87862 0.73733 0.05035 0.0
H71 H 0.92548 0.75446 0.07944 0.0
Co72 Co 0.89729 0.70685 0.05615 0.0
C73 C 0.86126 0.68274 0.0176 0.0
O74 O 0.8474 0.66786 0.03401 0.0
N75 N 0.90006 0.68076 0.0535 0.0
C76 C 0.90848 0.65528 0.03822 0.0
C77 C 0.90226 0.67121 0.03235 0.0
C78 C 0.9049 0.67029 0.07196 0.0
N79 N 0.91022 0.65481 0.06314 0.0
O80 O 0.86996 0.6904 0.07585 0.0
H81 H 0.90101 0.67654 1.01372 0.0
H82 H 0.9063 0.67521 0.09132 0.0
O83 O 0.88066 0.69898 0.02459 0.0
C84 C 0.87393 0.69327 0.09923 0.0
O85 O 0.89517 0.70602 0.10661 0.0
N86 N 0.92507 0.72367 0.03918 0.0
C87 C 0.96868 0.74883 0.01879 0.0
C88 C 0.94984 0.74807 1.00689 0.0
C89 C 0.92804 0.73529 0.01741 0.0
C90 C 0.94333 0.72498 0.05137 0.0
C91 C 0.9652 0.73714 0.04133 0.0
H92 H 0.91368 0.73508 1.00836 0.0
H93 H 0.9409 0.71656 0.06914 0.0
H94 H 0.86382 0.72529 0.03984 0.0
H95 H 0.91253 0.78546 0.0755 0.0
H96 H 0.91232 0.64549 0.02514 0.0
H97 H 0.95194 0.75713 0.98959 0.0
H98 H 0.97938 0.73778 0.0514 0.0
C99 C 0.14552 0.23864 0.42858 0.0
C100 C 0.12271 0.22285 0.43033 0.0
N101 N 0.11359 0.22949 0.44852 0.0
N102 N 0.15122 0.25482 0.44621 0.0
C103 C 0.13108 0.24927 0.45721 0.0
H104 H 0.15705 0.23872 0.41457 0.0
Co105 Co 0.18027 0.28104 0.44866 0.0
C106 C 0.16368 0.28105 0.5005 0.0
O107 O 0.15743 0.25932 0.50243 0.0
N108 N 0.20872 0.30705 0.44961 0.0
C109 C 0.23758 0.34197 0.45589 0.0
C110 C 0.21448 0.32777 0.45873 0.0
C111 C 0.22835 0.30907 0.44094 0.0
N112 N 0.24638 0.33019 0.44468 0.0
O113 O 0.16948 0.29673 0.42744 0.0
H114 H 0.20269 0.33229 0.46698 0.0
H115 H 0.22918 0.29517 0.43204 0.0
O116 O 0.17169 0.29139 0.47969 0.0
C117 C 0.17405 0.2963 0.40438 0.0
O118 O 0.18546 0.28604 0.39804 0.0
N119 N 0.19203 0.26536 0.46784 0.0
C120 C 0.21135 0.24287 0.49319 0.0
C121 C 0.21387 0.26344 0.50225 0.0
C122 C 0.20442 0.27458 0.48912 0.0
C123 C 0.19071 0.2461 0.45809 0.0
C124 C 0.19976 0.23435 0.47067 0.0
H125 H 0.20733 0.29083 0.49601 0.0
H126 H 0.18344 0.24005 0.44001 0.0
H127 H 0.1289 0.2601 0.47034 0.0
H128 H 0.11361 0.20782 0.41883 0.0
H129 H 0.24707 0.35952 0.46202 0.0
H130 H 0.22311 0.27094 0.51933 0.0
H131 H 0.19837 0.21913 0.46232 0.0
C132 C 0.75341 0.9019 0.44659 0.0
C133 C 0.76431 0.88931 0.44531 0.0
N134 N 0.7494 0.86787 0.45246 0.0
N135 N 0.73195 0.88846 0.45512 0.0
C136 C 0.72994 0.86772 0.45817 0.0
H137 H 0.76096 0.9199 0.44262 0.0
Co138 Co 0.71072 0.89702 0.46423 0.0
C139 C 0.68433 0.86311 0.50316 0.0
O140 O 0.66576 0.85605 0.48976 0.0
N141 N 0.68939 0.90567 0.47419 0.0
C142 C 0.67192 0.91834 0.49911 0.0
C143 C 0.68764 0.91131 0.49787 0.0
C144 C 0.67448 0.90956 0.46129 0.0
N145 N 0.6635 0.91726 0.47611 0.0
O146 O 0.68827 0.87268 0.44375 0.0
H147 H 0.69773 0.91101 0.51331 0.0
H148 H 0.67202 0.90716 0.44142 0.0
O149 O 0.70346 0.87836 0.49431 0.0
C150 C 0.69173 0.88225 0.4224 0.0
O151 O 0.70718 0.904 0.42075 0.0
N152 N 0.73345 0.92231 0.48078 0.0
C153 C 0.76934 0.96389 0.49666 0.0
C154 C 0.76383 0.94372 0.50959 0.0
C155 C 0.74583 0.92286 0.50109 0.0
C156 C 0.73842 0.94178 0.46837 0.0
C157 C 0.75623 0.96273 0.47601 0.0
H158 H 0.74231 0.90726 0.51028 0.0
H159 H 0.72865 0.94091 0.45208 0.0
H160 H 0.71487 0.85307 0.46564 0.0
H161 H 0.78191 0.8955 0.44013 0.0
H162 H 0.66783 0.92467 0.51568 0.0
H163 H 0.77376 0.94402 0.52553 0.0
H164 H 0.75978 0.97794 0.46573 0.0
C165 C 0.11893 0.85472 0.45782 0.0
C166 C 0.13055 0.8778 0.46256 0.0
N167 N 0.14236 0.88119 0.4837 0.0
N168 N 0.12297 0.84348 0.47615 0.0
C169 C 0.13806 0.86041 0.49115 0.0
H170 H 0.10846 0.84669 0.44165 0.0
Co171 Co 0.11254 0.81178 0.47528 0.0
C172 C 0.12511 0.8201 0.5293 0.0
O173 O 0.11203 0.82929 0.53129 0.0
N174 N 0.10268 0.78086 0.47285 0.0
C175 C 0.0977 0.74596 0.47613 0.0
C176 C 0.11053 0.76826 0.48396 0.0
C177 C 0.08542 0.76611 0.45819 0.0
N178 N 0.08196 0.74471 0.45986 0.0
O179 O 0.13936 0.81832 0.45633 0.0
H180 H 0.12476 0.77481 0.49674 0.0
H181 H 0.07551 0.77103 0.44661 0.0
O182 O 0.12775 0.81322 0.50786 0.0
C183 C 0.13508 0.81735 0.43302 0.0
O184 O 0.11446 0.81242 0.42619 0.0
N185 N 0.08461 0.80432 0.49147 0.0
C186 C 0.0397 0.78742 0.50814 0.0
C187 C 0.05384 0.78025 0.51913 0.0
C188 C 0.07601 0.78855 0.51027 0.0
C189 C 0.07097 0.81133 0.48049 0.0
C190 C 0.04865 0.80339 0.48874 0.0
H191 H 0.08601 0.78163 0.51803 0.0
H192 H 0.07671 0.82206 0.46426 0.0
H193 H 0.14681 0.85808 0.50663 0.0
H194 H 0.13015 0.89101 0.45157 0.0
H195 H 0.10016 0.73191 0.48145 0.0
H196 H 0.04768 0.76786 0.5341 0.0
H197 H 0.03814 0.80881 0.47905 0.0
C198 C 0.77376 0.87342 0.96947 0.0
C199 C 0.7824 0.89649 0.97246 0.0
N200 N 0.76478 0.90031 0.97456 0.0
N201 N 0.75067 0.86254 0.97008 0.0
C202 C 0.74586 0.8796 0.97282 0.0
H203 H 0.78408 0.86551 0.9673 0.0
Co204 Co 0.72802 0.83126 0.96853 0.0
C205 C 0.72269 0.84566 0.01993 0.0
O206 O 0.74495 0.85838 0.02221 0.0
N207 N 0.70519 0.80089 0.9669 0.0
C208 C 0.67097 0.77023 0.97062 0.0
C209 C 0.68366 0.79317 0.97486 0.0
C210 C 0.70511 0.78233 0.95742 0.0
N211 N 0.68434 0.76329 0.95946 0.0
O212 O 0.70942 0.839 0.94827 0.0
H213 H 0.67736 0.80361 0.98291 0.0
H214 H 0.71985 0.78293 0.94877 0.0
O215 O 0.71426 0.83455 0.99971 0.0
C216 C 0.71532 0.84092 0.92538 0.0
O217 O 0.7333 0.83924 0.91956 0.0
N218 N 0.74671 0.82241 0.98553 0.0
C219 C 0.77796 0.81017 1.00284 0.0
C220 C 0.76026 0.80801 0.01832 0.0
C221 C 0.74449 0.81396 1.00914 0.0
C222 C 0.7623 0.82215 0.96966 0.0
C223 C 0.77849 0.81675 0.97807 0.0
H224 H 0.73053 0.81151 0.02095 0.0
H225 H 0.76265 0.82704 0.95042 0.0
H226 H 0.72868 0.87677 0.97456 0.0
H227 H 0.80026 0.90946 0.97306 0.0
H228 H 0.65319 0.75958 0.97554 0.0
H229 H 0.75893 0.80225 0.03738 0.0
H230 H 0.79148 0.8179 0.96534 0.0
C231 C 0.1511 0.89845 0.96044 0.0
C232 C 0.1279 0.88366 0.96141 0.0
N233 N 0.12416 0.86403 0.97204 0.0
N234 N 0.16194 0.88826 0.97057 0.0
C235 C 0.14513 0.86732 0.97734 0.0
H236 H 0.15957 0.91547 0.95266 0.0
Co237 Co 0.19329 0.90035 0.97328 0.0
C238 C 0.19743 0.87152 1.01248 0.0
O239 O 0.21153 0.86841 0.99836 0.0
N240 N 0.22491 0.9127 0.97598 0.0
C241 C 0.25989 0.92946 0.99177 0.0
C242 C 0.23725 0.92116 0.99697 0.0
C243 C 0.24051 0.91629 0.95815 0.0
N244 N 0.26203 0.92638 0.96732 0.0
O245 O 0.19091 0.87568 0.95299 0.0
H246 H 0.23025 0.92153 0.01496 0.0
H247 H 0.23616 0.91167 0.93884 0.0
O248 O 0.1887 0.88315 1.00424 0.0
C249 C 0.18889 0.87853 0.92978 0.0
O250 O 0.18912 0.89726 0.92277 0.0
N251 N 0.19564 0.92534 0.99099 0.0
C252 C 0.20165 0.96555 1.01278 0.0
C253 C 0.19122 0.94481 0.02602 0.0
C254 C 0.1881 0.92483 0.0147 0.0
C255 C 0.20561 0.94516 0.97775 0.0
C256 C 0.20877 0.96543 0.98824 0.0
H257 H 0.17963 0.90906 0.02507 0.0
H258 H 0.21111 0.94515 0.95883 0.0
H259 H 0.1483 0.85478 0.98611 0.0
H260 H 0.11486 0.887 0.95438 0.0
H261 H 0.27374 0.93777 1.00495 0.0
H262 H 0.18558 0.94395 0.04506 0.0
H263 H 0.21637 0.98074 0.97697 0.0
C264 C 0.09291 0.23112 0.92889 0.0
C265 C 0.10409 0.21955 0.93442 0.0
N266 N 0.11895 0.23058 0.95301 0.0
N267 N 0.1006 0.24952 0.94371 0.0
C268 C 0.11674 0.249 0.95815 0.0
H269 H 0.07969 0.22632 0.91504 0.0
Co270 Co 0.08748 0.26769 0.94008 0.0
C271 C 0.09171 0.28789 0.99012 0.0
O272 O 0.06989 0.2812 0.98795 0.0
N273 N 0.0738 0.28568 0.93359 0.0
C274 C 0.05466 0.29739 0.90969 0.0
C275 C 0.06138 0.28151 0.91255 0.0
C276 C 0.07503 0.30499 0.94278 0.0
N277 N 0.06311 0.31203 0.92879 0.0
O278 O 0.1134 0.28872 0.92011 0.0
H279 H 0.05747 0.26769 0.89979 0.0
H280 H 0.08507 0.31438 0.9587 0.0
O281 O 0.10212 0.28479 0.97176 0.0
C282 C 0.11154 0.28377 0.8969 0.0
O283 O 0.09293 0.26563 0.88911 0.0
N284 N 0.06141 0.24539 0.95828 0.0
C285 C 0.02359 0.21187 0.98456 0.0
C286 C 0.04573 0.22087 0.99403 0.0
C287 C 0.06433 0.23713 0.98043 0.0
C288 C 0.0401 0.23582 0.94812 0.0
C289 C 0.02097 0.21931 0.96104 0.0
H290 H 0.08116 0.24351 0.98817 0.0
H291 H 0.03764 0.24047 0.92973 0.0
H292 H 0.12607 0.26137 0.97257 0.0
H293 H 0.10145 0.20415 0.9253 0.0
H294 H 0.04406 0.29797 0.89494 0.0
H295 H 0.04877 0.21574 1.01206 0.0
H296 H 0.00432 0.2122 0.95245 0.0
C297 C 0.85502 0.75409 0.55753 0.0
C298 C 0.87811 0.76309 0.55399 0.0
N299 N 0.88171 0.7464 0.54544 0.0
N300 N 0.84411 0.7319 0.55099 0.0
C301 C 0.86076 0.72768 0.5438 0.0
H302 H 0.84676 0.76296 0.56505 0.0
Co303 Co 0.81328 0.71118 0.55449 0.0
C304 C 0.79888 0.68621 0.50654 0.0
O305 O 0.78006 0.68727 0.50854 0.0
N306 N 0.78202 0.68959 0.55898 0.0
C307 C 0.75134 0.65523 0.56382 0.0
C308 C 0.77424 0.6669 0.55866 0.0
C309 C 0.76337 0.69117 0.56492 0.0
N310 N 0.74443 0.6705 0.56771 0.0
O311 O 0.82058 0.69268 0.57573 0.0
H312 H 0.78467 0.65924 0.55505 0.0
H313 H 0.76343 0.70699 0.56739 0.0
O314 O 0.81401 0.69472 0.5238 0.0
C315 C 0.82277 0.69839 0.59868 0.0
O316 O 0.82114 0.71629 0.60495 0.0
N317 N 0.80673 0.73091 0.53558 0.0
C318 C 0.79537 0.76031 0.51139 0.0
C319 C 0.80607 0.7503 0.49839 0.0
C320 C 0.81252 0.7364 0.51111 0.0
C321 C 0.79865 0.74253 0.54895 0.0
C322 C 0.79248 0.75707 0.53716 0.0
H323 H 0.8222 0.7302 0.50119 0.0
H324 H 0.79681 0.74034 0.56892 0.0
H325 H 0.85753 0.71104 0.53789 0.0
H326 H 0.89124 0.78035 0.55833 0.0
H327 H 0.7408 0.63689 0.56526 0.0
H328 H 0.80965 0.75342 0.47867 0.0
H329 H 0.78506 0.76526 0.54798 0.0
C330 C 0.25116 0.10415 0.57605 0.0
C331 C 0.24074 0.11674 0.57072 0.0
N332 N 0.25661 0.137 0.5613 0.0
N333 N 0.27338 0.11633 0.56962 0.0
C334 C 0.27617 0.13626 0.56085 0.0
H335 H 0.24311 0.08733 0.58434 0.0
Co336 Co 0.29649 0.10927 0.57325 0.0
C337 C 0.31529 0.11385 0.52285 0.0
O338 O 0.31496 0.0946 0.52747 0.0
N339 N 0.32096 0.10326 0.57735 0.0
C340 C 0.35703 0.11057 0.57634 0.0
C341 C 0.34269 0.11888 0.57109 0.0
C342 C 0.32288 0.08595 0.58753 0.0
N343 N 0.34449 0.08996 0.58676 0.0
O344 O 0.31444 0.13772 0.59012 0.0
H345 H 0.34783 0.13543 0.56309 0.0
H346 H 0.30905 0.07067 0.59552 0.0
O347 O 0.30867 0.12269 0.53974 0.0
C348 C 0.31171 0.13326 0.6134 0.0
O349 O 0.29917 0.11185 0.62031 0.0
N350 N 0.27695 0.0801 0.55971 0.0
C351 C 0.24352 0.03532 0.54787 0.0
C352 C 0.25014 0.05305 0.53045 0.0
C353 C 0.26658 0.07542 0.53691 0.0
C354 C 0.26952 0.06341 0.57726 0.0
C355 C 0.25362 0.0409 0.57155 0.0
H356 H 0.27022 0.08901 0.52393 0.0
H357 H 0.27536 0.06776 0.59623 0.0
H358 H 0.29237 0.15004 0.55432 0.0
H359 H 0.22305 0.11165 0.57415 0.0
H360 H 0.37527 0.11909 0.57319 0.0
H361 H 0.2421 0.04991 0.51235 0.0
H362 H 0.2491 0.02811 0.58588 0.0
C363 C 0.88958 0.13686 0.59967 0.0
C364 C 0.87594 0.11434 0.59332 0.0
N365 N 0.87091 0.11329 0.56893 0.0
N366 N 0.893 0.14996 0.57945 0.0
C367 C 0.88138 0.13516 0.56098 0.0
H368 H 0.89716 0.14329 0.61771 0.0
Co369 Co 0.91228 0.18109 0.57963 0.0
C370 C 0.90227 0.19932 0.53329 0.0
O371 O 0.92404 0.21472 0.5319 0.0
N372 N 0.93236 0.21286 0.58131 0.0
C373 C 0.96337 0.24693 0.58598 0.0
C374 C 0.95532 0.22403 0.5836 0.0
C375 C 0.92688 0.22954 0.58303 0.0
N376 N 0.94549 0.25047 0.58569 0.0
O377 O 0.89221 0.18364 0.60333 0.0
H378 H 0.96596 0.21641 0.58423 0.0
H379 H 0.9095 0.22626 0.58271 0.0
O380 O 0.89515 0.1849 0.55135 0.0
C381 C 0.89765 0.18678 0.62637 0.0
O382 O 0.91828 0.19153 0.6329 0.0
N383 N 0.93218 0.17714 0.55793 0.0
C384 C 0.96621 0.17476 0.53088 0.0
C385 C 0.94704 0.17307 0.51884 0.0
C386 C 0.92993 0.17367 0.53277 0.0
C387 C 0.94906 0.17566 0.57013 0.0
C388 C 0.96661 0.17508 0.55699 0.0
H389 H 0.91504 0.17127 0.52299 0.0
H390 H 0.94956 0.17622 0.59027 0.0
H391 H 0.88093 0.14027 0.54201 0.0
H392 H 0.87098 0.09984 0.60546 0.0
H393 H 0.98113 0.25994 0.58776 0.0
H394 H 0.9455 0.17199 0.49876 0.0
H395 H 0.98054 0.17532 0.56716 0.0
C396 C 0.91879 0.48946 0.41842 0.0
C397 C 0.90579 0.46601 0.41893 0.0
N398 N 0.90641 0.45827 0.3961 0.0
N399 N 0.9275 0.49653 0.39534 0.0
C400 C 0.91986 0.47691 0.38234 0.0
H401 H 0.92211 0.50072 0.4341 0.0
Co402 Co 0.94933 0.52726 0.38841 0.0
C403 C 0.94719 0.51078 0.33568 0.0
O404 O 0.92524 0.50367 0.33414 0.0
N405 N 0.97164 0.55764 0.38279 0.0
C406 C 1.00173 0.58905 0.36828 0.0
C407 C 0.98951 0.56567 0.36688 0.0
C408 C 0.97369 0.57643 0.39411 0.0
N409 N 0.99178 0.59568 0.38543 0.0
O410 O 0.97101 0.52239 0.40611 0.0
H411 H 0.99368 0.55533 0.35508 0.0
H412 H 0.96215 0.57599 0.40836 0.0
O413 O 0.95775 0.51883 0.35629 0.0
C414 C 0.97379 0.52931 0.42864 0.0
O415 O 0.96449 0.54139 0.43586 0.0
N416 N 0.92718 0.53261 0.37293 0.0
C417 C 0.89283 0.53899 0.35253 0.0
C418 C 0.91427 0.54854 0.34106 0.0
C419 C 0.93133 0.54531 0.3517 0.0
C420 C 0.90701 0.52497 0.38529 0.0
C421 C 0.88945 0.5275 0.37515 0.0
H422 H 0.94764 0.55242 0.34238 0.0
H423 H 0.90431 0.51688 0.40321 0.0
H424 H 0.92499 0.47573 0.36369 0.0
H425 H 0.8967 0.45548 0.43478 0.0
H426 H 0.0171 0.60032 0.35801 0.0
H427 H 0.9176 0.55786 0.32373 0.0
H428 H 0.87338 0.52064 0.38504 0.0
C429 C 0.51517 0.42909 0.41618 0.0
C430 C 0.53806 0.43757 0.41248 0.0
N431 N 0.54586 0.45557 0.39689 0.0
N432 N 0.50838 0.44158 0.40305 0.0
C433 C 0.52744 0.4577 0.39153 0.0
H434 H 0.5041 0.41477 0.42789 0.0
Co435 Co 0.47851 0.4356 0.40398 0.0
C436 C 0.46873 0.44973 0.35599 0.0
O437 O 0.44925 0.43041 0.35719 0.0
N438 N 0.44812 0.42977 0.40624 0.0
C439 C 0.41969 0.43737 0.40832 0.0
C440 C 0.4428 0.44654 0.40555 0.0
C441 C 0.42784 0.41057 0.41019 0.0
N442 N 0.41022 0.41466 0.41126 0.0
O443 O 0.48752 0.46083 0.42684 0.0
H444 H 0.45503 0.46444 0.40292 0.0
H445 H 0.42587 0.39394 0.41285 0.0
O446 O 0.48342 0.45494 0.3736 0.0
C447 C 0.4844 0.45176 0.44842 0.0
O448 O 0.47638 0.42963 0.44956 0.0
N449 N 0.47024 0.40935 0.38437 0.0
C450 C 0.46439 0.36908 0.36293 0.0
C451 C 0.47571 0.38981 0.34995 0.0
C452 C 0.47884 0.40983 0.36117 0.0
C453 C 0.46005 0.38945 0.39754 0.0
C454 C 0.45631 0.36901 0.38694 0.0
H455 H 0.48944 0.42578 0.35171 0.0
H456 H 0.45605 0.38965 0.41699 0.0
H457 H 0.52775 0.47061 0.3794 0.0
H458 H 0.54822 0.43119 0.42111 0.0
H459 H 0.41068 0.44681 0.40792 0.0
H460 H 0.48289 0.39071 0.33167 0.0
H461 H 0.44852 0.35359 0.39806 0.0
C462 C 0.57321 0.07834 0.40959 0.0
C463 C 0.5656 0.09368 0.40805 0.0
N464 N 0.54828 0.08578 0.39152 0.0
N465 N 0.56083 0.06076 0.39417 0.0
C466 C 0.54563 0.06559 0.38353 0.0
H467 H 0.58689 0.07981 0.42129 0.0
Co468 Co 0.56538 0.03594 0.39123 0.0
C469 C 0.55689 0.0248 0.33761 0.0
O470 O 0.57693 0.02609 0.33692 0.0
N471 N 0.56949 0.01026 0.3899 0.0
C472 C 0.56626 0.97621 0.38292 0.0
C473 C 0.55951 0.99135 0.37538 0.0
C474 C 0.58072 0.0052 0.4073 0.0
N475 N 0.57956 0.98503 0.40301 0.0
O476 O 0.53778 0.01779 0.41005 0.0
H477 H 0.54698 0.98782 0.3611 0.0
H478 H 0.58923 0.0159 0.42322 0.0
O479 O 0.54892 0.02729 0.35843 0.0
C480 C 0.54207 0.02061 0.4334 0.0
O481 O 0.56325 0.03432 0.44037 0.0
N482 N 0.59391 0.05527 0.37493 0.0
C483 C 0.63618 0.08471 0.35258 0.0
C484 C 0.61633 0.08484 0.34527 0.0
C485 C 0.59553 0.07024 0.35678 0.0
C486 C 0.61332 0.05602 0.38332 0.0
C487 C 0.63444 0.07013 0.37207 0.0
H488 H 0.58057 0.07077 0.35076 0.0
H489 H 0.61287 0.04608 0.39909 0.0
H490 H 0.53311 0.05465 0.36998 0.0
H491 H 0.57221 0.10929 0.41868 0.0
H492 H 0.5608 0.95949 0.37516 0.0
H493 H 0.61682 0.09637 0.331 0.0
H494 H 0.64923 0.06953 0.37871 0.0
C495 C 0.82649 0.58061 0.79411 0.0
C496 C 0.80378 0.56607 0.79884 0.0
N497 N 0.79452 0.57842 0.80729 0.0
N498 N 0.83174 0.60207 0.79984 0.0
C499 C 0.81191 0.60025 0.80772 0.0
H500 H 0.83828 0.57581 0.78647 0.0
Co501 Co 0.86007 0.62798 0.79509 0.0
C502 C 0.86816 0.65756 0.83961 0.0
O503 O 0.89016 0.66568 0.83679 0.0
N504 N 0.88877 0.65437 0.78939 0.0
C505 C 0.91454 0.6903 0.7798 0.0
C506 C 0.89167 0.67486 0.78229 0.0
C507 C 0.91031 0.65797 0.79106 0.0
N508 N 0.9262 0.67963 0.78549 0.0
O509 O 0.84645 0.63925 0.7713 0.0
H510 H 0.87804 0.67861 0.7796 0.0
H511 H 0.91458 0.64519 0.79633 0.0
O512 O 0.85417 0.64288 0.82395 0.0
C513 C 0.84661 0.63046 0.75027 0.0
O514 O 0.85451 0.61622 0.74956 0.0
N515 N 0.87307 0.61489 0.81572 0.0
C516 C 0.88824 0.58792 0.8388 0.0
C517 C 0.87876 0.59856 0.85291 0.0
C518 C 0.87065 0.61151 0.84091 0.0
C519 C 0.88204 0.60435 0.80185 0.0
C520 C 0.88979 0.59088 0.81297 0.0
H521 H 0.86152 0.61769 0.85187 0.0
H522 H 0.88273 0.60611 0.7818 0.0
H523 H 0.81015 0.61477 0.81282 0.0
H524 H 0.79484 0.54779 0.79611 0.0
H525 H 0.92203 0.7081 0.77475 0.0
H526 H 0.87667 0.59601 0.87286 0.0
H527 H 0.89677 0.58267 0.80146 0.0
C528 C 0.4236 0.24514 0.79358 0.0
C529 C 0.4324 0.23066 0.79454 0.0
N530 N 0.41672 0.21095 0.80521 0.0
N531 N 0.40261 0.23466 0.80387 0.0
C532 C 0.39887 0.2139 0.81067 0.0
H533 H 0.43174 0.26202 0.78544 0.0
Co534 Co 0.38193 0.24506 0.80545 0.0
C535 C 0.3681 0.23725 0.85843 0.0
O536 O 0.3725 0.2585 0.85898 0.0
N537 N 0.36007 0.25491 0.80606 0.0
C538 C 0.32685 0.25432 0.80966 0.0
C539 C 0.33978 0.24525 0.81818 0.0
C540 C 0.35828 0.26888 0.7893 0.0
N541 N 0.33851 0.2691 0.79133 0.0
O542 O 0.3608 0.21936 0.78579 0.0
H543 H 0.33363 0.231 0.83085 0.0
H544 H 0.37034 0.27739 0.77447 0.0
O545 O 0.37019 0.22875 0.83788 0.0
C546 C 0.36654 0.22746 0.76375 0.0
O547 O 0.38406 0.24818 0.76117 0.0
N548 N 0.40453 0.272 0.82118 0.0
C549 C 0.44273 0.31363 0.83422 0.0
C550 C 0.43616 0.29407 0.84877 0.0
C551 C 0.41727 0.2732 0.84155 0.0
C552 C 0.4114 0.29077 0.80661 0.0
C553 C 0.42984 0.31173 0.8131 0.0
H554 H 0.41348 0.25793 0.85172 0.0
H555 H 0.40368 0.28935 0.78881 0.0
H556 H 0.38317 0.20111 0.81925 0.0
H557 H 0.44876 0.23416 0.78725 0.0
H558 H 0.30947 0.24899 0.81507 0.0
H559 H 0.44611 0.29464 0.86482 0.0
H560 H 0.43438 0.32622 0.80106 0.0
C561 C 0.77749 0.17987 0.79427 0.0
C562 C 0.78641 0.2032 0.79538 0.0
N563 N 0.80291 0.21154 0.81273 0.0
N564 N 0.78822 0.17368 0.8111 0.0
C565 C 0.80371 0.19346 0.82193 0.0
H566 H 0.7636 0.16809 0.78251 0.0
Co567 Co 0.78262 0.14413 0.81802 0.0
C568 C 0.79589 0.15634 0.87258 0.0
O569 O 0.77458 0.14831 0.87913 0.0
N570 N 0.77792 0.11445 0.82505 0.0
C571 C 0.77018 0.08279 0.84554 0.0
C572 C 0.77476 0.10482 0.84781 0.0
C573 C 0.77513 0.09762 0.80918 0.0
N574 N 0.77032 0.07812 0.82122 0.0
O575 O 0.80923 0.15078 0.79806 0.0
H576 H 0.77437 0.11256 0.86513 0.0
H577 H 0.77583 0.09933 0.78916 0.0
O578 O 0.80102 0.15517 0.84975 0.0
C579 C 0.80014 0.14548 0.77638 0.0
O580 O 0.77795 0.13714 0.77493 0.0
N581 N 0.7539 0.13659 0.83315 0.0
C582 C 0.70898 0.12283 0.84769 0.0
C583 C 0.72664 0.14516 0.85218 0.0
C584 C 0.74891 0.15184 0.84432 0.0
C585 C 0.73629 0.11552 0.82679 0.0
C586 C 0.71403 0.10812 0.83447 0.0
H587 H 0.76221 0.16919 0.84784 0.0
H588 H 0.73902 0.10432 0.81483 0.0
H589 H 0.81504 0.19474 0.83681 0.0
H590 H 0.78061 0.2131 0.7851 0.0
H591 H 0.76574 0.07077 0.8607 0.0
H592 H 0.72332 0.15729 0.86177 0.0
H593 H 0.70069 0.09116 0.82928 0.0
C594 C 0.42835 0.18747 0.28724 0.0
C595 C 0.44219 0.21045 0.29073 0.0
N596 N 0.43239 0.21759 0.3077 0.0
N597 N 0.40983 0.17993 0.30189 0.0
C598 C 0.41261 0.19864 0.31411 0.0
H599 H 0.43132 0.17687 0.27445 0.0
Co600 Co 0.38666 0.14984 0.3007 0.0
C601 C 0.36543 0.13718 0.35004 0.0
O602 O 0.36637 0.1184 0.34683 0.0
N603 N 0.36264 0.11918 0.29802 0.0
C604 C 0.32673 0.09043 0.29625 0.0
C605 C 0.34045 0.11339 0.30016 0.0
C606 C 0.3618 0.09924 0.29244 0.0
N607 N 0.3402 0.08154 0.29141 0.0
O608 O 0.36824 0.1589 0.2822 0.0
H609 H 0.33453 0.12519 0.30449 0.0
H610 H 0.37646 0.09746 0.2886 0.0
O611 O 0.37359 0.1527 0.33312 0.0
C612 C 0.37085 0.15859 0.25869 0.0
O613 O 0.38603 0.15352 0.25026 0.0
N614 N 0.40641 0.14163 0.31696 0.0
C615 C 0.44059 0.13397 0.33567 0.0
C616 C 0.4322 0.14556 0.34989 0.0
C617 C 0.41547 0.14964 0.34002 0.0
C618 C 0.41549 0.13167 0.30234 0.0
C619 C 0.43205 0.12699 0.31157 0.0
H620 H 0.41059 0.16008 0.35062 0.0
H621 H 0.41053 0.12814 0.28301 0.0
H622 H 0.40034 0.19835 0.32726 0.0
H623 H 0.45794 0.22113 0.28083 0.0
H624 H 0.30828 0.08098 0.2972 0.0
H625 H 0.43887 0.15191 0.3683 0.0
H626 H 0.4389 0.119 0.29954 0.0
C627 C 0.81967 0.23651 0.30705 0.0
C628 C 0.79693 0.2224 0.30185 0.0
N629 N 0.79124 0.20115 0.30889 0.0
N630 N 0.82822 0.22423 0.31757 0.0
C631 C 0.81051 0.20259 0.31792 0.0
H632 H 0.8294 0.25455 0.30299 0.0
Co633 Co 0.85894 0.23535 0.32497 0.0
C634 C 0.83615 0.20692 0.3724 0.0
O635 O 0.81656 0.20627 0.36944 0.0
N636 N 0.88981 0.24682 0.33194 0.0
C637 C 0.92252 0.26343 0.35282 0.0
C638 C 0.89923 0.25274 0.35482 0.0
C639 C 0.90778 0.25424 0.31627 0.0
N640 N 0.92789 0.26449 0.32854 0.0
O641 O 0.85815 0.21131 0.30438 0.0
H642 H 0.88988 0.25083 0.37181 0.0
H643 H 0.90628 0.25352 0.29621 0.0
O644 O 0.85203 0.21706 0.35618 0.0
C645 C 0.86141 0.21916 0.28212 0.0
O646 O 0.86496 0.23992 0.27879 0.0
N647 N 0.86052 0.26059 0.34144 0.0
C648 C 0.86387 0.30215 0.35403 0.0
C649 C 0.85383 0.28362 0.37059 0.0
C650 C 0.8522 0.26277 0.36386 0.0
C651 C 0.87129 0.27883 0.32589 0.0
C652 C 0.87312 0.29966 0.33174 0.0
H653 H 0.84395 0.24861 0.37648 0.0
H654 H 0.87789 0.27691 0.30827 0.0
H655 H 0.81173 0.18811 0.32449 0.0
H656 H 0.78536 0.22739 0.29395 0.0
H657 H 0.93458 0.27061 0.36799 0.0
H658 H 0.84661 0.28499 0.38808 0.0
H659 H 0.88139 0.31365 0.31865 0.0
C660 C 0.75329 0.58239 0.27382 0.0
C661 C 0.76207 0.56796 0.27465 0.0
N662 N 0.7813 0.57793 0.28838 0.0
N663 N 0.76687 0.60135 0.28701 0.0
C664 C 0.78391 0.59825 0.29551 0.0
H665 H 0.73764 0.57905 0.26478 0.0
Co666 Co 0.76042 0.62456 0.29285 0.0
C667 C 0.79553 0.65551 0.32862 0.0
O668 O 0.7998 0.67309 0.31455 0.0
N669 N 0.75341 0.64777 0.29879 0.0
C670 C 0.74246 0.67004 0.31767 0.0
C671 C 0.74749 0.65288 0.32092 0.0
C672 C 0.75185 0.66207 0.28242 0.0
N673 N 0.74528 0.6758 0.29344 0.0
O674 O 0.78389 0.64349 0.26894 0.0
H675 H 0.74671 0.64451 0.33835 0.0
H676 H 0.75477 0.66206 0.26265 0.0
O677 O 0.78133 0.6354 0.32122 0.0
C678 C 0.77432 0.63792 0.24755 0.0
O679 O 0.75238 0.6229 0.24684 0.0
N680 N 0.73632 0.60491 0.31356 0.0
C681 C 0.69736 0.57127 0.33745 0.0
C682 C 0.7192 0.57807 0.34693 0.0
C683 C 0.73854 0.59491 0.33462 0.0
C684 C 0.71529 0.59879 0.30431 0.0
C685 C 0.69556 0.58215 0.31608 0.0
H686 H 0.75522 0.59919 0.3415 0.0
H687 H 0.71387 0.60642 0.2872 0.0
H688 H 0.79744 0.61018 0.30756 0.0
H689 H 0.75467 0.55127 0.2661 0.0
H690 H 0.73717 0.6777 0.33199 0.0
H691 H 0.72135 0.57011 0.3634 0.0
H692 H 0.67911 0.57714 0.30784 0.0
C693 C 0.5255 0.0969 0.88413 0.0
C694 C 0.54809 0.10519 0.87829 0.0
N695 N 0.55118 0.08736 0.87351 0.0
N696 N 0.51426 0.07393 0.88267 0.0
C697 C 0.53032 0.06862 0.87608 0.0
H698 H 0.51805 0.10687 0.89064 0.0
Co699 Co 0.48493 0.05425 0.89477 0.0
C700 C 0.46301 0.02804 0.84849 0.0
O701 O 0.44667 0.03285 0.85233 0.0
N702 N 0.45593 0.03458 0.909 0.0
C703 C 0.43118 0.02279 0.94055 0.0
C704 C 0.45269 0.03853 0.93291 0.0
C705 C 0.4361 0.01546 0.90291 0.0
N706 N 0.42064 0.00834 0.92162 0.0
O707 O 0.49682 0.03844 0.91467 0.0
H708 H 0.4651 0.05262 0.94397 0.0
H709 H 0.43295 0.00628 0.88563 0.0
O710 O 0.47894 0.03413 0.86481 0.0
C711 C 0.50683 0.05083 0.93371 0.0
O712 O 0.50884 0.07116 0.93486 0.0
N713 N 0.47386 0.07155 0.87769 0.0
C714 C 0.45696 0.09724 0.85514 0.0
C715 C 0.4717 0.09206 0.84207 0.0
C716 C 0.48008 0.07924 0.85375 0.0
C717 C 0.4609 0.07811 0.89103 0.0
C718 C 0.45181 0.09041 0.87994 0.0
H719 H 0.49132 0.07517 0.84341 0.0
H720 H 0.45764 0.07413 0.9105 0.0
H721 H 0.52694 0.05125 0.87473 0.0
H722 H 0.56148 0.12286 0.87941 0.0
H723 H 0.42355 0.02256 0.95837 0.0
H724 H 0.47636 0.09752 0.82296 0.0
H725 H 0.4411 0.09487 0.89081 0.0
C726 C 0.91562 0.4341 0.89492 0.0
C727 C 0.9059 0.44753 0.89081 0.0
N728 N 0.9228 0.46899 0.88651 0.0
N729 N 0.93853 0.44705 0.89276 0.0
C730 C 0.94231 0.46822 0.88772 0.0
H731 H 0.90652 0.41618 0.89964 0.0
Co732 Co 0.96129 0.43946 0.89741 0.0
C733 C 0.98328 0.44624 0.84815 0.0
O734 O 0.98384 0.42743 0.85264 0.0
N735 N 0.9852 0.43285 0.90273 0.0
C736 C 0.02104 0.43959 0.90429 0.0
C737 C 0.00736 0.44858 0.89858 0.0
C738 C 0.98609 0.41468 0.91208 0.0
N739 N 0.00762 0.41835 0.91288 0.0
O740 O 0.97903 0.46761 0.91516 0.0
H741 H 0.01324 0.46561 0.89158 0.0
H742 H 0.97151 0.39896 0.91818 0.0
O743 O 0.97473 0.45364 0.86455 0.0
C744 C 0.97529 0.46354 0.93843 0.0
O745 O 0.96171 0.44235 0.94551 0.0
N746 N 0.94214 0.41062 0.88281 0.0
C747 C 0.90748 0.36675 0.86987 0.0
C748 C 0.91667 0.3843 0.85208 0.0
C749 C 0.93365 0.4063 0.85907 0.0
C750 C 0.93285 0.39389 0.90035 0.0
C751 C 0.91599 0.37181 0.89423 0.0
H752 H 0.93891 0.41995 0.84574 0.0
H753 H 0.93784 0.39799 0.91961 0.0
H754 H 0.95913 0.48294 0.88524 0.0
H755 H 0.88791 0.44215 0.89181 0.0
H756 H 0.03944 0.44806 0.9026 0.0
H757 H 0.90998 0.38138 0.83331 0.0
H758 H 0.90929 0.35895 0.9087 0.0
C759 C 0.57194 0.49216 0.92192 0.0
C760 C 0.56197 0.46929 0.91651 0.0
N761 N 0.55149 0.4657 0.89435 0.0
N762 N 0.56751 0.50281 0.90339 0.0
C763 C 0.55508 0.48624 0.88674 0.0
H764 H 0.58164 0.5005 0.93845 0.0
Co765 Co 0.57635 0.53346 0.90434 0.0
C766 C 0.56622 0.54595 0.85525 0.0
O767 O 0.58638 0.56441 0.85714 0.0
N768 N 0.58487 0.56458 0.90671 0.0
C769 C 0.57962 0.59449 0.90781 0.0
C770 C 0.56937 0.57147 0.90415 0.0
C771 C 0.60444 0.58391 0.91276 0.0
N772 N 0.60173 0.60243 0.91341 0.0
O773 O 0.54999 0.52617 0.92432 0.0
H774 H 0.55155 0.56036 0.89971 0.0
H775 H 0.6202 0.58445 0.91739 0.0
O776 O 0.55928 0.53095 0.87273 0.0
C777 C 0.55384 0.52775 0.94772 0.0
O778 O 0.57459 0.53408 0.95543 0.0
N779 N 0.60306 0.53981 0.88663 0.0
C780 C 0.64312 0.54442 0.86576 0.0
C781 C 0.62273 0.53472 0.85213 0.0
C782 C 0.60282 0.53194 0.86311 0.0
C783 C 0.62249 0.54843 0.90051 0.0
C784 C 0.64283 0.55135 0.89032 0.0
H785 H 0.58712 0.52257 0.85285 0.0
H786 H 0.62198 0.55216 0.92 0.0
H787 H 0.54836 0.48898 0.86963 0.0
H788 H 0.5625 0.45633 0.92784 0.0
H789 H 0.57124 0.6045 0.90632 0.0
H790 H 0.62194 0.52875 0.83325 0.0
H791 H 0.65789 0.55799 0.90195 0.0
C792 C 0.59193 0.83556 0.73357 0.0
C793 C 0.57723 0.81243 0.7339 0.0
N794 N 0.58922 0.80189 0.72907 0.0
N795 N 0.61325 0.83984 0.7282 0.0
C796 C 0.61103 0.81885 0.7261 0.0
H797 H 0.58707 0.84818 0.73742 0.0
Co798 Co 0.64065 0.86843 0.72659 0.0
C799 C 0.63926 0.84624 0.67797 0.0
O800 O 0.61698 0.83739 0.67768 0.0
N801 N 0.66757 0.89648 0.7256 0.0
C802 C 0.69727 0.92905 0.71269 0.0
C803 C 0.68039 0.90766 0.70555 0.0
C804 C 0.67711 0.91124 0.74468 0.0
N805 N 0.69517 0.93116 0.7373 0.0
O806 O 0.65463 0.85682 0.74948 0.0
H807 H 0.67732 0.90106 0.68677 0.0
H808 H 0.6704 0.90785 0.76346 0.0
O809 O 0.65073 0.85847 0.69663 0.0
C810 C 0.64693 0.85795 0.77091 0.0
O811 O 0.63284 0.866 0.77212 0.0
N812 N 0.62652 0.88131 0.70751 0.0
C813 C 0.60215 0.90118 0.68867 0.0
C814 C 0.61506 0.8956 0.67271 0.0
C815 C 0.62749 0.88594 0.68259 0.0
C816 C 0.61604 0.88897 0.7233 0.0
C817 C 0.60331 0.8984 0.71431 0.0
H818 H 0.63793 0.8826 0.6701 0.0
H819 H 0.61697 0.88699 0.74316 0.0
H820 H 0.6252 0.81608 0.7224 0.0
H821 H 0.55901 0.80406 0.7371 0.0
H822 H 0.70999 0.9421 0.70074 0.0
H823 H 0.61516 0.89824 0.65281 0.0
H824 H 0.59426 0.90329 0.72733 0.0
C825 C 0.18913 0.75197 0.7461 0.0
C826 C 0.21264 0.76319 0.7454 0.0
N827 N 0.22015 0.78546 0.74146 0.0
N828 N 0.18204 0.76715 0.74198 0.0
C829 C 0.20138 0.78743 0.7395 0.0
H830 H 0.17795 0.73388 0.74897 0.0
Co831 Co 0.15239 0.76198 0.73931 0.0
C832 C 0.15876 0.79672 0.70122 0.0
O833 O 0.15081 0.80614 0.71669 0.0
N834 N 0.12265 0.75682 0.73632 0.0
C835 C 0.08913 0.7483 0.72009 0.0
C836 C 0.1112 0.75402 0.71483 0.0
C837 C 0.10704 0.75225 0.7544 0.0
N838 N 0.08649 0.74708 0.74498 0.0
O839 O 0.16053 0.78783 0.76121 0.0
H840 H 0.11808 0.75492 0.69642 0.0
H841 H 0.11044 0.75191 0.77402 0.0
O842 O 0.16102 0.78003 0.70864 0.0
C843 C 0.15954 0.77961 0.78296 0.0
O844 O 0.15267 0.75772 0.78461 0.0
N845 N 0.14397 0.73539 0.72117 0.0
C846 C 0.13317 0.69226 0.70402 0.0
C847 C 0.14792 0.71191 0.69031 0.0
C848 C 0.15322 0.73348 0.69931 0.0
C849 C 0.12906 0.71648 0.73416 0.0
C850 C 0.12321 0.69481 0.72579 0.0
H851 H 0.16565 0.74856 0.68953 0.0
H852 H 0.12232 0.7183 0.75173 0.0
H853 H 0.20169 0.8033 0.7357 0.0
H854 H 0.22339 0.75566 0.7476 0.0
H855 H 0.0757 0.74398 0.7066 0.0
H856 H 0.15613 0.7107 0.67351 0.0
H857 H 0.11141 0.68017 0.73672 0.0
C858 C 0.21222 0.39918 0.73521 0.0
C859 C 0.20154 0.41173 0.73152 0.0
N860 N 0.19678 0.41105 0.70712 0.0
N861 N 0.21384 0.3903 0.71329 0.0
C862 C 0.20457 0.39817 0.6965 0.0
H863 H 0.21824 0.39672 0.7529 0.0
Co864 Co 0.22553 0.3708 0.7072 0.0
C865 C 0.18936 0.33897 0.67168 0.0
O866 O 0.18214 0.3219 0.68744 0.0
N867 N 0.23751 0.3514 0.70065 0.0
C868 C 0.2498 0.33083 0.68041 0.0
C869 C 0.23734 0.34164 0.67859 0.0
C870 C 0.25058 0.3464 0.71551 0.0
N871 N 0.25822 0.3339 0.70361 0.0
O872 O 0.20299 0.34855 0.72999 0.0
H873 H 0.22965 0.34303 0.6616 0.0
H874 H 0.25546 0.35271 0.73427 0.0
O875 O 0.2056 0.35861 0.67802 0.0
C876 C 0.21258 0.35313 0.7514 0.0
O877 O 0.23395 0.36963 0.75264 0.0
N878 N 0.24897 0.39347 0.68817 0.0
C879 C 0.29052 0.42638 0.66795 0.0
C880 C 0.27307 0.41036 0.65253 0.0
C881 C 0.25222 0.39404 0.66302 0.0
C882 C 0.26539 0.40938 0.70321 0.0
C883 C 0.2862 0.42607 0.69351 0.0
H884 H 0.23926 0.3814 0.65105 0.0
H885 H 0.26261 0.40846 0.72311 0.0
H886 H 0.20309 0.39417 0.67685 0.0
H887 H 0.19766 0.42072 0.74563 0.0
H888 H 0.25279 0.32177 0.66561 0.0
H889 H 0.27571 0.41012 0.63266 0.0
H890 H 0.29924 0.43785 0.70615 0.0
C891 C 0.4837 0.91569 0.10877 0.0
C892 C 0.46054 0.90754 0.10943 0.0
N893 N 0.45688 0.92314 0.12098 0.0
N894 N 0.49455 0.93624 0.11997 0.0
C895 C 0.47783 0.94039 0.12706 0.0
H896 H 0.49213 0.90714 0.10083 0.0
Co897 Co 0.52575 0.95445 0.12472 0.0
C898 C 0.52912 0.98749 0.16286 0.0
O899 O 0.54363 0.00432 0.14863 0.0
N900 N 0.55727 0.97275 0.12976 0.0
C901 C 0.59137 0.98914 0.1479 0.0
C902 C 0.56852 0.97409 0.15106 0.0
C903 C 0.57366 0.98732 0.11399 0.0
N904 N 0.59456 0.99749 0.12462 0.0
O905 O 0.52556 0.97779 0.104 0.0
H906 H 0.56055 0.96492 0.16801 0.0
H907 H 0.57038 0.99044 0.0951 0.0
O908 O 0.52032 0.96697 0.15512 0.0
C909 C 0.52278 0.97271 0.08083 0.0
O910 O 0.52054 0.95309 0.0738 0.0
N911 N 0.52593 0.93088 0.14277 0.0
C912 C 0.53 0.89632 0.16623 0.0
C913 C 0.51703 0.90507 0.17708 0.0
C914 C 0.51513 0.92236 0.16497 0.0
C915 C 0.53775 0.92193 0.13149 0.0
C916 C 0.54019 0.90481 0.14298 0.0
H917 H 0.50505 0.92889 0.17346 0.0
H918 H 0.54565 0.92847 0.11357 0.0
H919 H 0.48098 0.95558 0.13702 0.0
H920 H 0.44746 0.89142 0.10195 0.0
H921 H 0.60454 0.99411 0.16187 0.0
H922 H 0.50877 0.89889 0.19493 0.0
H923 H 0.54986 0.89817 0.13364 0.0
C924 C 0.08513 0.56909 0.11822 0.0
C925 C 0.09308 0.5539 0.11692 0.0
N926 N 0.07644 0.53339 0.12495 0.0
N927 N 0.06367 0.55826 0.12728 0.0
C928 C 0.0588 0.53653 0.13099 0.0
H929 H 0.09442 0.58691 0.11299 0.0
Co930 Co 0.04482 0.57049 0.13336 0.0
C931 C 0.00996 0.53659 0.16699 0.0
O932 O 0.99405 0.53399 0.15114 0.0
N933 N 0.02561 0.58275 0.14008 0.0
C934 C 0.00677 0.59576 0.16239 0.0
C935 C 0.02263 0.58887 0.16313 0.0
C936 C 0.01131 0.58632 0.12552 0.0
N937 N 0.99949 0.59405 0.13878 0.0
O938 O 0.02343 0.54937 0.10952 0.0
H939 H 0.03101 0.58781 0.17977 0.0
H940 H 0.00902 0.58269 0.1058 0.0
O941 O 0.03091 0.54972 0.16139 0.0
C942 C 0.02996 0.55937 0.08846 0.0
O943 O 0.04721 0.58041 0.08816 0.0
N944 N 0.06716 0.59262 0.15391 0.0
C945 C 0.10022 0.63059 0.17935 0.0
C946 C 0.08923 0.6091 0.19087 0.0
C947 C 0.07294 0.59009 0.17758 0.0
C948 C 0.0781 0.61327 0.14235 0.0
C949 C 0.09479 0.63247 0.15467 0.0
H950 H 0.06475 0.5736 0.18649 0.0
H951 H 0.07348 0.61484 0.12348 0.0
H952 H 0.04268 0.52334 0.13839 0.0
H953 H 0.10974 0.55764 0.11036 0.0
H954 H 1.00102 0.60156 0.17813 0.0
H955 H 0.0932 0.60707 0.2099 0.0
H956 H 0.10286 0.64882 0.14523 0.0
C957 C 0.42571 0.52112 0.13006 0.0
C958 C 0.4367 0.54453 0.13095 0.0
N959 N 0.4575 0.55205 0.14087 0.0
N960 N 0.43957 0.51394 0.13931 0.0
C961 C 0.45885 0.53321 0.14585 0.0
H962 H 0.4093 0.51018 0.12157 0.0
Co963 Co 0.4347 0.48453 0.13588 0.0
C964 C 0.44859 0.47319 0.18349 0.0
O965 O 0.43089 0.45263 0.18071 0.0
N966 N 0.43017 0.45483 0.13116 0.0
C967 C 0.4387 0.42731 0.12546 0.0
C968 C 0.44728 0.44997 0.13104 0.0
C969 C 0.41143 0.43484 0.12503 0.0
N970 N 0.41611 0.41782 0.12163 0.0
O971 O 0.46093 0.49607 0.1141 0.0
H972 H 0.46501 0.46225 0.13459 0.0
H973 H 0.39459 0.43254 0.12286 0.0
O974 O 0.45298 0.48839 0.16672 0.0
C975 C 0.45236 0.4951 0.0926 0.0
O976 O 0.43028 0.48733 0.09131 0.0
N977 N 0.4073 0.47355 0.15415 0.0
C978 C 0.36366 0.45806 0.17338 0.0
C979 C 0.38278 0.46831 0.18902 0.0
C980 C 0.40463 0.47679 0.17881 0.0
C981 C 0.38891 0.46499 0.13866 0.0
C982 C 0.36696 0.45687 0.14786 0.0
H983 H 0.41921 0.48644 0.19065 0.0
H984 H 0.39138 0.46464 0.11881 0.0
H985 H 0.47422 0.53354 0.15213 0.0
H986 H 0.43039 0.55528 0.12371 0.0
H987 H 0.44847 0.41868 0.12368 0.0
H988 H 0.38089 0.47044 0.2087 0.0
H989 H 0.35264 0.44964 0.1351 0.0
C990 C 0.07482 0.51646 0.60257 0.0
C991 C 0.08912 0.53887 0.60926 0.0
N992 N 0.08309 0.54194 0.63219 0.0
N993 N 0.05972 0.50562 0.62109 0.0
C994 C 0.06531 0.52161 0.63895 0.0
H995 H 0.07517 0.50868 0.58512 0.0
Co996 Co 0.03552 0.47576 0.61974 0.0
C997 C 0.01676 0.46414 0.67029 0.0
O998 O 0.01573 0.4445 0.66609 0.0
N999 N 0.01018 0.44561 0.61761 0.0
C1000 C 0.97328 0.41914 0.61645 0.0
C1001 C 0.98865 0.44166 0.6208 0.0
C1002 C 0.0073 0.42496 0.61115 0.0
N1003 N 0.98502 0.40865 0.61036 0.0
O1004 O 0.01823 0.48612 0.60058 0.0
H1005 H 0.98433 0.45452 0.62587 0.0
H1006 H 0.02096 0.4218 0.6064 0.0
O1007 O 0.02382 0.47923 0.6529 0.0
C1008 C 0.0215 0.48121 0.57848 0.0
O1009 O 0.03473 0.47228 0.57566 0.0
N1010 N 0.05448 0.46612 0.63467 0.0
C1011 C 0.08947 0.45726 0.64702 0.0
C1012 C 0.0823 0.46817 0.66404 0.0
C1013 C 0.06514 0.47296 0.65726 0.0
C1014 C 0.06181 0.45615 0.6178 0.0
C1015 C 0.07877 0.45104 0.62375 0.0
H1016 H 0.0614 0.4832 0.6697 0.0
H1017 H 0.05515 0.45303 0.59907 0.0
H1018 H 0.0562 0.51871 0.65635 0.0
H1019 H 0.10285 0.55187 0.59821 0.0
H1020 H 0.9549 0.41108 0.6178 0.0
H1021 H 0.0907 0.47404 0.68186 0.0
H1022 H 0.08387 0.44283 0.60988 0.0
C1023 C 0.4782 0.58012 0.63963 0.0
C1024 C 0.45488 0.56665 0.64187 0.0
N1025 N 0.44987 0.54485 0.64456 0.0
N1026 N 0.4879 0.56692 0.64137 0.0
C1027 C 0.47016 0.5455 0.6443 0.0
H1028 H 0.48734 0.59826 0.63598 0.0
Co1029 Co 0.51847 0.57545 0.63627 0.0
C1030 C 0.53485 0.56686 0.68356 0.0
O1031 O 0.55375 0.5861 0.67895 0.0
N1032 N 0.54908 0.58316 0.62994 0.0
C1033 C 0.57764 0.5763 0.62332 0.0
C1034 C 0.55532 0.56702 0.63045 0.0
C1035 C 0.56815 0.60222 0.6221 0.0
N1036 N 0.58571 0.59843 0.61804 0.0
O1037 O 0.50892 0.54843 0.61642 0.0
H1038 H 0.5442 0.54939 0.63563 0.0
H1039 H 0.56927 0.61842 0.61854 0.0
O1040 O 0.51844 0.5593 0.66768 0.0
C1041 C 0.50782 0.55136 0.59308 0.0
O1042 O 0.51203 0.57149 0.58524 0.0
N1043 N 0.5274 0.60305 0.65403 0.0
C1044 C 0.53786 0.64466 0.67639 0.0
C1045 C 0.5274 0.62422 0.69002 0.0
C1046 C 0.52165 0.60361 0.67835 0.0
C1047 C 0.53631 0.6225 0.64013 0.0
C1048 C 0.54211 0.64353 0.65099 0.0
H1049 H 0.51189 0.58807 0.68882 0.0
H1050 H 0.53811 0.62158 0.62023 0.0
H1051 H 0.47205 0.53055 0.64543 0.0
H1052 H 0.4425 0.57228 0.64027 0.0
H1053 H 0.58724 0.56744 0.62222 0.0
H1054 H 0.52328 0.62399 0.70955 0.0
H1055 H 0.54903 0.65859 0.63933 0.0
C1056 C 0.43878 0.90998 0.63773 0.0
C1057 C 0.45555 0.905 0.64356 0.0
N1058 N 0.47514 0.92479 0.6471 0.0
N1059 N 0.44763 0.9328 0.63809 0.0
C1060 C 0.46995 0.94144 0.64354 0.0
H1061 H 0.42131 0.89776 0.63299 0.0
Co1062 Co 0.43166 0.94745 0.62924 0.0
C1063 C 0.4363 0.97471 0.67463 0.0
O1064 O 0.41426 0.96702 0.67257 0.0
N1065 N 0.41549 0.962 0.61828 0.0
C1066 C 0.39364 0.96872 0.59248 0.0
C1067 C 0.4017 0.95425 0.59812 0.0
C1068 C 0.41645 0.98207 0.62362 0.0
N1069 N 0.40278 0.98607 0.60873 0.0
O1070 O 0.45538 0.96612 0.6055 0.0
H1071 H 0.39802 0.93914 0.58768 0.0
H1072 H 0.42757 0.99419 0.63733 0.0
O1073 O 0.44646 0.96959 0.65765 0.0
C1074 C 0.4504 0.95437 0.58544 0.0
O1075 O 0.43354 0.93315 0.58624 0.0
N1076 N 0.40723 0.92718 0.65049 0.0
C1077 C 0.37023 0.8966 0.67948 0.0
C1078 C 0.39205 0.90886 0.6899 0.0
C1079 C 0.41049 0.92348 0.67485 0.0
C1080 C 0.38636 0.91398 0.63981 0.0
C1081 C 0.36759 0.89878 0.65399 0.0
H1082 H 0.42738 0.93208 0.68291 0.0
H1083 H 0.3841 0.91475 0.6201 0.0
H1084 H 0.48217 0.95952 0.64448 0.0
H1085 H 0.45372 0.88817 0.64422 0.0
H1086 H 0.38176 0.96652 0.5778 0.0
H1087 H 0.39484 0.90696 0.70939 0.0
H1088 H 0.35106 0.88906 0.64515 0.0
C1089 C 0.17328 0.41327 0.20357 0.0
C1090 C 0.19658 0.42386 0.20093 0.0
N1091 N 0.20253 0.40765 0.1998 0.0
N1092 N 0.16451 0.39044 0.20359 0.0
C1093 C 0.18282 0.38755 0.20145 0.0
H1094 H 0.16351 0.42179 0.2061 0.0
Co1095 Co 0.13428 0.36802 0.20914 0.0
C1096 C 0.11906 0.34133 0.16251 0.0
O1097 O 0.09993 0.34158 0.16589 0.0
N1098 N 0.10396 0.34497 0.21609 0.0
C1099 C 0.07484 0.31025 0.22464 0.0
C1100 C 0.09593 0.32229 0.21361 0.0
C1101 C 0.0878 0.3461 0.22985 0.0
N1102 N 0.06987 0.32533 0.23499 0.0
O1103 O 0.14421 0.35221 0.23174 0.0
H1104 H 0.10539 0.31487 0.20555 0.0
H1105 H 0.08957 0.36159 0.23755 0.0
O1106 O 0.13516 0.35105 0.17869 0.0
C1107 C 0.14363 0.36028 0.25313 0.0
O1108 O 0.13941 0.37726 0.25378 0.0
N1109 N 0.1245 0.38524 0.18988 0.0
C1110 C 0.11041 0.41338 0.16749 0.0
C1111 C 0.12182 0.40465 0.15353 0.0
C1112 C 0.12919 0.39093 0.16524 0.0
C1113 C 0.1154 0.39554 0.20392 0.0
C1114 C 0.10762 0.40909 0.19304 0.0
H1115 H 0.13909 0.38541 0.15456 0.0
H1116 H 0.11512 0.39414 0.22391 0.0
H1117 H 0.18176 0.37105 0.20165 0.0
H1118 H 0.20835 0.44207 0.20101 0.0
H1119 H 0.06473 0.29189 0.2265 0.0
H1120 H 0.12513 0.40852 0.13388 0.0
H1121 H 0.09994 0.41659 0.20458 0.0
C1122 C 0.58614 0.76544 0.24479 0.0
C1123 C 0.5708 0.77318 0.24491 0.0
N1124 N 0.57828 0.79094 0.229 0.0
N1125 N 0.60322 0.7782 0.2289 0.0
C1126 C 0.59806 0.79363 0.21966 0.0
H1127 H 0.58496 0.75139 0.25557 0.0
Co1128 Co 0.62798 0.77419 0.22254 0.0
C1129 C 0.65526 0.81129 0.18698 0.0
O1130 O 0.672 0.82 0.20322 0.0
N1131 N 0.65289 0.76998 0.21612 0.0
C1132 C 0.67742 0.76319 0.19558 0.0
C1133 C 0.65999 0.76784 0.19327 0.0
C1134 C 0.66602 0.76608 0.23205 0.0
N1135 N 0.68119 0.76201 0.21998 0.0
O1136 O 0.64601 0.79941 0.24438 0.0
H1137 H 0.65232 0.76864 0.17592 0.0
H1138 H 0.66412 0.7656 0.25206 0.0
O1139 O 0.63628 0.7938 0.193 0.0
C1140 C 0.64417 0.79353 0.26725 0.0
O1141 O 0.63242 0.77171 0.2728 0.0
N1142 N 0.60931 0.74846 0.20336 0.0
C1143 C 0.57855 0.70722 0.18058 0.0
C1144 C 0.58095 0.72802 0.17218 0.0
C1145 C 0.5965 0.74848 0.18377 0.0
C1146 C 0.6072 0.72853 0.21186 0.0
C1147 C 0.5923 0.70783 0.20048 0.0
H1148 H 0.59759 0.7642 0.17765 0.0
H1149 H 0.61699 0.72868 0.22784 0.0
H1150 H 0.60845 0.80636 0.20601 0.0
H1151 H 0.55546 0.76631 0.25609 0.0
H1152 H 0.68581 0.75968 0.18044 0.0
H1153 H 0.5704 0.72854 0.15736 0.0
H1154 H 0.5915 0.69244 0.20746 0.0
C1155 C 0.24982 0.81514 0.22891 0.0
C1156 C 0.23798 0.79183 0.22571 0.0
N1157 N 0.21556 0.78492 0.22553 0.0
N1158 N 0.23488 0.82285 0.23019 0.0
C1159 C 0.21412 0.80397 0.22828 0.0
H1160 H 0.26814 0.8257 0.23054 0.0
Co1161 Co 0.24081 0.85257 0.23541 0.0
C1162 C 0.22466 0.86458 0.18988 0.0
O1163 O 0.24302 0.88479 0.1918 0.0
N1164 N 0.24602 0.88241 0.24162 0.0
C1165 C 0.23711 0.90937 0.24964 0.0
C1166 C 0.2287 0.88689 0.24346 0.0
C1167 C 0.26481 0.90256 0.24732 0.0
N1168 N 0.25989 0.91924 0.25207 0.0
O1169 O 0.21643 0.84135 0.25987 0.0
H1170 H 0.21089 0.87442 0.2407 0.0
H1171 H 0.28185 0.90525 0.24823 0.0
O1172 O 0.22051 0.84935 0.2066 0.0
C1173 C 0.2261 0.84144 0.28037 0.0
O1174 O 0.24786 0.84759 0.27956 0.0
N1175 N 0.26646 0.86333 0.21412 0.0
C1176 C 0.3071 0.88027 0.1876 0.0
C1177 C 0.28622 0.86625 0.17582 0.0
C1178 C 0.266 0.85751 0.18963 0.0
C1179 C 0.28682 0.8744 0.22628 0.0
C1180 C 0.30736 0.88384 0.21325 0.0
H1181 H 0.25009 0.84574 0.18075 0.0
H1182 H 0.2871 0.87581 0.24633 0.0
H1183 H 0.19822 0.80416 0.22906 0.0
H1184 H 0.24518 0.78073 0.22439 0.0
H1185 H 0.22709 0.91757 0.25274 0.0
H1186 H 0.28554 0.86219 0.15622 0.0
H1187 H 0.32333 0.8935 0.22319 0.0
H1188 H 0.3825 0.25404 0.9045 0.0
H1189 H 0.33763 0.19122 0.86571 0.0
H1190 H 0.3224 0.17192 0.90641 0.0
H1191 H 0.39367 0.22738 0.95973 0.0
H1192 H 0.39413 0.24872 0.98021 0.0
H1193 H 0.40356 0.2559 0.94841 0.0
H1194 H 0.37457 0.26989 0.94165 0.0
H1195 H 0.36516 0.26285 0.97331 0.0
H1196 H 0.34479 0.25081 0.94829 0.0
H1197 H 0.308 0.1618 0.95219 0.0
H1198 H 0.29658 0.16246 0.99609 0.0
H1199 H 0.35246 0.23177 1.00343 0.0
C1200 C 0.36984 0.23605 0.90455 0.0
C1201 C 0.36121 0.2241 0.88202 0.0
C1202 C 0.34462 0.20062 0.88282 0.0
C1203 C 0.33589 0.18957 0.90587 0.0
C1204 C 0.34435 0.20215 0.92786 0.0
C1205 C 0.36129 0.22485 0.92721 0.0
C1206 C 0.36647 0.23541 0.95286 0.0
C1207 C 0.39091 0.24225 0.96077 0.0
C1208 C 0.36249 0.25593 0.95408 0.0
C1209 C 0.34906 0.21555 0.96811 0.0
C1210 C 0.33659 0.19629 0.95366 0.0
C1211 C 0.31807 0.17663 0.96369 0.0
C1212 C 0.31177 0.17705 0.98871 0.0
C1213 C 0.32384 0.19707 1.00321 0.0
C1214 C 0.34316 0.2161 0.9929 0.0
H1215 H 0.82161 0.17958 0.01519 0.0
H1216 H 0.85986 0.14412 1.0094 0.0
H1217 H 0.85969 0.1469 0.96351 0.0
H1218 H 0.78448 0.14982 0.96854 0.0
H1219 H 0.78128 0.17302 0.95679 0.0
H1220 H 0.78905 0.17302 0.98874 0.0
H1221 H 0.8251 0.21269 0.98261 0.0
H1222 H 0.81741 0.21281 0.9505 0.0
H1223 H 0.84507 0.2167 0.95819 0.0
H1224 H 0.85055 0.14881 0.91787 0.0
H1225 H 0.8307 0.14672 0.87827 0.0
H1226 H 0.79705 0.17924 0.91425 0.0
C1227 C 0.83082 0.17333 1.00427 0.0
C1228 C 0.84125 0.16215 0.01588 0.0
C1229 C 0.8521 0.15308 1.00092 0.0
C1230 C 0.85212 0.15465 0.9748 0.0
C1231 C 0.84104 0.16515 0.96382 0.0
C1232 C 0.83054 0.17431 0.97817 0.0
C1233 C 0.81686 0.18154 0.96211 0.0
C1234 C 0.79143 0.16857 0.96948 0.0
C1235 C 0.82671 0.20748 0.96344 0.0
C1236 C 0.82064 0.17438 0.93662 0.0
C1237 C 0.83508 0.16547 0.93777 0.0
C1238 C 0.83957 0.15615 0.91671 0.0
C1239 C 0.82839 0.15518 0.8942 0.0
C1240 C 0.81262 0.16311 0.89314 0.0
C1241 C 0.80936 0.17344 0.91445 0.0
H1242 H 0.89365 0.68956 0.87446 0.0
H1243 H 0.825 0.63403 0.86043 0.0
H1244 H 0.81436 0.63693 0.90389 0.0
H1245 H 0.89935 0.67213 0.93296 0.0
H1246 H 0.91561 0.70034 0.94602 0.0
H1247 H 0.91672 0.69615 0.91311 0.0
H1248 H 0.90403 0.72581 0.90412 0.0
H1249 H 0.90306 0.73022 0.93709 0.0
H1250 H 0.87823 0.7223 0.91813 0.0
H1251 H 0.81299 0.6429 0.95085 0.0
H1252 H 0.82053 0.65211 0.99566 0.0
H1253 H 0.89016 0.7037 0.97816 0.0
C1254 C 0.87618 0.67835 0.88025 0.0
C1255 C 0.86013 0.66163 0.86389 0.0
C1256 C 0.83754 0.64716 0.87244 0.0
C1257 C 0.83137 0.64865 0.89717 0.0
C1258 C 0.84792 0.66483 0.91304 0.0
C1259 C 0.8698 0.67961 0.90474 0.0
C1260 C 0.88498 0.69436 0.92572 0.0
C1261 C 0.90535 0.6905 0.92968 0.0
C1262 C 0.89305 0.71968 0.92098 0.0
C1263 C 0.86846 0.68521 0.94737 0.0
C1264 C 0.84711 0.66831 0.93975 0.0
C1265 C 0.82955 0.65637 0.95688 0.0
C1266 C 0.83402 0.6617 0.98234 0.0
C1267 C 0.85588 0.67881 0.99054 0.0
C1268 C 0.87313 0.69086 0.97262 0.0
H1269 H 0.15184 0.26416 0.54791 0.0
H1270 H 0.17891 0.32709 0.50571 0.0
H1271 H 0.18499 0.34853 0.54501 0.0
H1272 H 0.12347 0.27908 0.59714 0.0
H1273 H 0.13094 0.2652 0.62094 0.0
H1274 H 0.12643 0.25476 0.58939 0.0
H1275 H 0.16663 0.25886 0.58904 0.0
H1276 H 0.17129 0.26936 0.62049 0.0
H1277 H 0.19119 0.28608 0.59635 0.0
H1278 H 0.19157 0.36345 0.58963 0.0
H1279 H 0.19797 0.37042 0.63485 0.0
H1280 H 0.16649 0.29755 0.64759 0.0
C1281 C 0.15861 0.2824 0.54677 0.0
C1282 C 0.16479 0.29388 0.52355 0.0
C1283 C 0.1739 0.31783 0.52315 0.0
C1284 C 0.17741 0.33017 0.54543 0.0
C1285 C 0.17161 0.31832 0.56801 0.0
C1286 C 0.16226 0.29492 0.56877 0.0
C1287 C 0.15887 0.28632 0.59539 0.0
C1288 C 0.13341 0.2704 0.60104 0.0
C1289 C 0.17283 0.27446 0.60061 0.0
C1290 C 0.16822 0.30856 0.60961 0.0
C1291 C 0.17533 0.32684 0.59352 0.0
C1292 C 0.18577 0.34921 0.60234 0.0
C1293 C 0.18935 0.35301 0.62812 0.0
C1294 C 0.18259 0.33455 0.64494 0.0
C1295 C 0.17151 0.31204 0.63541 0.0
H1296 H 0.61939 0.82897 0.63287 0.0
H1297 H 0.68543 0.86463 0.6692 0.0
H1298 H 0.70431 0.8687 0.62844 0.0
H1299 H 0.63411 0.79959 0.58445 0.0
H1300 H 0.61712 0.80359 0.56134 0.0
H1301 H 0.60901 0.80064 0.59369 0.0
H1302 H 0.6093 0.83906 0.59177 0.0
H1303 H 0.61744 0.84216 0.55951 0.0
H1304 H 0.6347 0.86434 0.58139 0.0
H1305 H 0.71587 0.87194 0.58274 0.0
H1306 H 0.71911 0.87554 0.53698 0.0
H1307 H 0.64528 0.83887 0.53096 0.0
C1308 C 0.63783 0.83715 0.63249 0.0
C1309 C 0.6509 0.84628 0.65441 0.0
C1310 C 0.67501 0.85728 0.65278 0.0
C1311 C 0.68588 0.85966 0.62967 0.0
C1312 C 0.67242 0.85093 0.60835 0.0
C1313 C 0.64888 0.83986 0.60965 0.0
C1314 C 0.63825 0.83387 0.58394 0.0
C1315 C 0.62377 0.80788 0.58067 0.0
C1316 C 0.6241 0.84556 0.57887 0.0
C1317 C 0.65945 0.84377 0.56782 0.0
C1318 C 0.67901 0.85324 0.58221 0.0
C1319 C 0.70064 0.8644 0.57137 0.0
C1320 C 0.70231 0.8664 0.54528 0.0
C1321 C 0.68247 0.85755 0.53021 0.0
C1322 C 0.66081 0.84563 0.54179 0.0
H1323 H 0.12208 0.83348 0.57654 0.0
H1324 H 0.15134 0.79942 0.53464 0.0
H1325 H 0.1661 0.79244 0.57395 0.0
H1326 H 0.16727 0.86033 0.62303 0.0
H1327 H 0.14745 0.85603 0.64773 0.0
H1328 H 0.1409 0.85975 0.61617 0.0
H1329 H 0.1027 0.82147 0.61878 0.0
H1330 H 0.10911 0.81765 0.6503 0.0
H1331 H 0.10298 0.79586 0.62739 0.0
H1332 H 0.17541 0.78707 0.61887 0.0
H1333 H 0.17776 0.78323 0.66438 0.0
H1334 H 0.14217 0.8209 0.67625 0.0
C1335 C 0.13185 0.8248 0.57544 0.0
C1336 C 0.1356 0.81707 0.55234 0.0
C1337 C 0.14832 0.80561 0.552 0.0
C1338 C 0.15678 0.8016 0.57428 0.0
C1339 C 0.15248 0.80923 0.59674 0.0
C1340 C 0.14035 0.82066 0.59739 0.0
C1341 C 0.13697 0.82618 0.62388 0.0
C1342 C 0.14886 0.85212 0.62793 0.0
C1343 C 0.11143 0.8146 0.63046 0.0
C1344 C 0.14878 0.81575 0.63824 0.0
C1345 C 0.15777 0.80618 0.6223 0.0
C1346 C 0.16856 0.79468 0.63142 0.0
C1347 C 0.1698 0.79256 0.65737 0.0
C1348 C 0.16023 0.80181 0.67404 0.0
C1349 C 0.14997 0.81391 0.66416 0.0
H1350 H 0.73603 0.85935 0.06813 0.0
H1351 H 0.67574 0.82192 0.02221 0.0
H1352 H 0.65145 0.81214 0.05976 0.0
H1353 H 0.71747 0.82043 0.11747 0.0
H1354 H 0.73004 0.84167 0.1416 0.0
H1355 H 0.74235 0.84765 0.11091 0.0
H1356 H 0.73841 0.8838 0.10862 0.0
H1357 H 0.72604 0.87789 0.13936 0.0
H1358 H 0.71089 0.88131 0.11366 0.0
H1359 H 0.63392 0.80377 0.10308 0.0
H1360 H 0.62493 0.797 0.14796 0.0
H1361 H 0.69676 0.84006 0.16535 0.0
C1362 C 0.71769 0.84947 0.06583 0.0
C1363 C 0.70784 0.84149 0.04208 0.0
C1364 C 0.68375 0.82827 0.04011 0.0
C1365 C 0.66979 0.82268 0.06137 0.0
C1366 C 0.68011 0.8305 0.08454 0.0
C1367 C 0.70354 0.84368 0.08684 0.0
C1368 C 0.71054 0.84872 0.11395 0.0
C1369 C 0.726 0.83903 0.12141 0.0
C1370 C 0.72216 0.87446 0.1192 0.0
C1371 C 0.68745 0.83594 0.12661 0.0
C1372 C 0.67007 0.8257 0.10935 0.0
C1373 C 0.6474 0.81194 0.11672 0.0
C1374 C 0.64244 0.8082 0.1423 0.0
C1375 C 0.66007 0.8181 0.16032 0.0
C1376 C 0.68279 0.83251 0.15219 0.0
H1377 H 0.22881 0.86925 0.04249 0.0
H1378 H 0.16099 0.86091 0.04332 0.0
H1379 H 0.15837 0.85343 0.08878 0.0
H1380 H 0.22059 0.82763 0.0912 0.0
H1381 H 0.24858 0.84567 0.10412 0.0
H1382 H 0.24367 0.84711 0.07136 0.0
H1383 H 0.25905 0.89059 0.07519 0.0
H1384 H 0.26413 0.88927 0.10784 0.0
H1385 H 0.24653 0.90082 0.09778 0.0
H1386 H 0.16436 0.84856 0.13546 0.0
H1387 H 0.18001 0.85125 0.17807 0.0
H1388 H 0.24472 0.8661 0.1459 0.0
C1389 C 0.21315 0.86524 0.05211 0.0
C1390 C 0.19489 0.86515 0.03927 0.0
C1391 C 0.17507 0.86075 0.05274 0.0
C1392 C 0.17342 0.85643 0.07855 0.0
C1393 C 0.19188 0.85687 0.09075 0.0
C1394 C 0.21147 0.86144 0.07789 0.0
C1395 C 0.22991 0.86351 0.09545 0.0
C1396 C 0.23604 0.84487 0.09021 0.0
C1397 C 0.25115 0.88747 0.09398 0.0
C1398 C 0.21781 0.85963 0.12023 0.0
C1399 C 0.19571 0.85533 0.11727 0.0
C1400 C 0.1816 0.85175 0.13788 0.0
C1401 C 0.19051 0.85315 0.16201 0.0
C1402 C 0.21339 0.85846 0.16522 0.0
C1403 C 0.22699 0.86149 0.144 0.0
H1404 H 0.06952 0.28125 0.03394 0.0
H1405 H 0.13786 0.31318 1.00306 0.0
H1406 H 0.15372 0.32804 0.04525 0.0
H1407 H 0.07779 0.32496 0.07432 0.0
H1408 H 0.05955 0.30596 0.09831 0.0
H1409 H 0.05464 0.29704 0.0663 0.0
H1410 H 0.05753 0.2613 0.07762 0.0
H1411 H 0.06257 0.27019 0.10972 0.0
H1412 H 0.08263 0.26478 0.09327 0.0
H1413 H 0.16112 0.3419 0.09225 0.0
H1414 H 0.15883 0.35281 0.13603 0.0
H1415 H 0.08528 0.31 0.13365 0.0
C1416 C 0.08789 0.29129 0.03584 0.0
C1417 C 0.10243 0.29623 0.01503 0.0
C1418 C 0.12635 0.30919 0.01869 0.0
C1419 C 0.13547 0.31767 0.04263 0.0
C1420 C 0.12044 0.31268 0.06272 0.0
C1421 C 0.09712 0.29957 0.05933 0.0
C1422 C 0.08414 0.29692 0.08315 0.0
C1423 C 0.0681 0.30682 0.08034 0.0
C1424 C 0.07094 0.27181 0.09142 0.0
C1425 C 0.10363 0.31109 0.10063 0.0
C1426 C 0.12456 0.32001 0.08885 0.0
C1427 C 0.14477 0.33468 0.10155 0.0
C1428 C 0.14336 0.34069 0.1265 0.0
C1429 C 0.12189 0.33217 0.13836 0.0
C1430 C 0.10199 0.31676 0.12525 0.0
H1431 H 0.7973 0.70498 0.4628 0.0
H1432 H 0.81208 0.65488 0.49427 0.0
H1433 H 0.81589 0.64291 0.4515 0.0
H1434 H 0.76401 0.67295 0.41305 0.0
H1435 H 0.77473 0.69633 0.3913 0.0
H1436 H 0.77494 0.70172 0.42411 0.0
H1437 H 0.81845 0.73014 0.42231 0.0
H1438 H 0.81837 0.72496 0.38939 0.0
H1439 H 0.83726 0.72094 0.40973 0.0
H1440 H 0.81229 0.6331 0.40459 0.0
H1441 H 0.80604 0.62931 0.35886 0.0
H1442 H 0.7975 0.68863 0.35897 0.0
C1443 C 0.8018 0.69178 0.46067 0.0
C1444 C 0.80445 0.68082 0.48171 0.0
C1445 C 0.81021 0.66358 0.47831 0.0
C1446 C 0.8123 0.65667 0.45411 0.0
C1447 C 0.80911 0.66759 0.43365 0.0
C1448 C 0.80447 0.68514 0.43682 0.0
C1449 C 0.80137 0.69398 0.41209 0.0
C1450 C 0.77734 0.69106 0.41003 0.0
C1451 C 0.81997 0.71899 0.40815 0.0
C1452 C 0.80433 0.67828 0.39433 0.0
C1453 C 0.80861 0.66301 0.40701 0.0
C1454 C 0.8096 0.6454 0.39451 0.0
C1455 C 0.80604 0.64336 0.36855 0.0
C1456 C 0.802 0.65909 0.35531 0.0
C1457 C 0.80144 0.67689 0.36845 0.0
H1458 H 0.30941 0.0898 0.4808 0.0
H1459 H 0.33452 0.15885 0.50702 0.0
H1460 H 0.34748 0.17334 0.46397 0.0
H1461 H 0.3539 0.10099 0.44101 0.0
H1462 H 0.33623 0.08056 0.41777 0.0
H1463 H 0.32727 0.07628 0.44977 0.0
H1464 H 0.28915 0.07395 0.43716 0.0
H1465 H 0.298 0.07821 0.40503 0.0
H1466 H 0.28971 0.09696 0.41966 0.0
H1467 H 0.36129 0.17973 0.41728 0.0
H1468 H 0.37325 0.17696 0.37411 0.0
H1469 H 0.33721 0.10327 0.3808 0.0
C1470 C 0.31742 0.108 0.47754 0.0
C1471 C 0.32113 0.12324 0.49725 0.0
C1472 C 0.33146 0.14688 0.49211 0.0
C1473 C 0.33887 0.15521 0.46772 0.0
C1474 C 0.33539 0.13959 0.44874 0.0
C1475 C 0.32457 0.11643 0.45355 0.0
C1476 C 0.32348 0.10291 0.43074 0.0
C1477 C 0.33597 0.08941 0.43509 0.0
C1478 C 0.29861 0.08708 0.42267 0.0
C1479 C 0.33603 0.12201 0.41231 0.0
C1480 C 0.34272 0.14314 0.42267 0.0
C1481 C 0.3558 0.1632 0.40901 0.0
C1482 C 0.36247 0.16151 0.38448 0.0
C1483 C 0.35618 0.13991 0.37408 0.0
C1484 C 0.34236 0.12008 0.38814 0.0
H1485 H 0.91602 0.21488 0.48585 0.0
H1486 H 0.85516 0.17666 0.53082 0.0
H1487 H 0.83125 0.17241 0.49392 0.0
H1488 H 0.89664 0.24531 0.44893 0.0
H1489 H 0.91018 0.24348 0.42078 0.0
H1490 H 0.92212 0.24314 0.4506 0.0
H1491 H 0.92 0.20491 0.43919 0.0
H1492 H 0.908 0.20514 0.40934 0.0
H1493 H 0.8931 0.18095 0.42977 0.0
H1494 H 0.81426 0.17475 0.452 0.0
H1495 H 0.80577 0.18224 0.40945 0.0
H1496 H 0.87792 0.21609 0.39148 0.0
C1497 C 0.89765 0.20564 0.48806 0.0
C1498 C 0.88746 0.19631 0.51141 0.0
C1499 C 0.86335 0.18403 0.51322 0.0
C1500 C 0.84966 0.18153 0.49233 0.0
C1501 C 0.86032 0.19104 0.46961 0.0
C1502 C 0.8838 0.20264 0.46737 0.0
C1503 C 0.8912 0.21113 0.44096 0.0
C1504 C 0.9059 0.23732 0.44029 0.0
C1505 C 0.90382 0.19985 0.42912 0.0
C1506 C 0.86824 0.20299 0.42869 0.0
C1507 C 0.85061 0.19148 0.4455 0.0
C1508 C 0.82797 0.18354 0.43871 0.0
C1509 C 0.82331 0.18787 0.4144 0.0
C1510 C 0.84114 0.19991 0.39693 0.0
C1511 C 0.86383 0.20697 0.40419 0.0
H1512 H 0.93178 0.50448 0.28767 0.0
H1513 H 0.99147 0.51947 0.33162 0.0
H1514 H 0.01311 0.52375 0.29284 0.0
H1515 H 0.94104 0.47339 0.23698 0.0
H1516 H 0.93123 0.48556 0.21356 0.0
H1517 H 0.9199 0.4812 0.24472 0.0
H1518 H 0.93171 0.52396 0.2475 0.0
H1519 H 0.94303 0.52843 0.2164 0.0
H1520 H 0.96099 0.54538 0.2417 0.0
H1521 H 0.02893 0.52909 0.24883 0.0
H1522 H 0.03798 0.53669 0.20407 0.0
H1523 H 0.96797 0.51901 0.18935 0.0
C1524 C 0.94926 0.50817 0.28925 0.0
C1525 C 0.95985 0.51142 0.31277 0.0
C1526 C 0.98293 0.51677 0.31386 0.0
C1527 C 0.99534 0.51917 0.29191 0.0
C1528 C 0.98443 0.51618 0.26901 0.0
C1529 C 0.96189 0.5108 0.26759 0.0
C1530 C 0.95456 0.51022 0.24082 0.0
C1531 C 0.93556 0.48616 0.2336 0.0
C1532 C 0.94715 0.52806 0.23636 0.0
C1533 C 0.97661 0.51651 0.22732 0.0
C1534 C 0.99358 0.51962 0.24385 0.0
C1535 C 0.0157 0.52654 0.23576 0.0
C1536 C 0.0207 0.53088 0.21026 0.0
C1537 C 0.00373 0.52851 0.1931 0.0
C1538 C 0.98129 0.52073 0.20183 0.0
H1539 H 0.4255 0.46474 0.22645 0.0
H1540 H 0.49414 0.49399 0.19737 0.0
H1541 H 0.50881 0.49678 0.24056 0.0
H1542 H 0.44057 0.49802 0.28577 0.0
H1543 H 0.41858 0.47387 0.3024 0.0
H1544 H 0.41481 0.47785 0.26993 0.0
H1545 H 0.40767 0.43725 0.26032 0.0
H1546 H 0.4115 0.43318 0.29259 0.0
H1547 H 0.42879 0.42977 0.26931 0.0
H1548 H 0.51432 0.49026 0.2876 0.0
H1549 H 0.50986 0.47586 0.3311 0.0
H1550 H 0.43753 0.4525 0.32754 0.0
C1551 C 0.44373 0.4724 0.22922 0.0
C1552 C 0.45874 0.47934 0.2087 0.0
C1553 C 0.48243 0.48893 0.21296 0.0
C1554 C 0.49083 0.49048 0.23742 0.0
C1555 C 0.47533 0.48278 0.25732 0.0
C1556 C 0.45228 0.4743 0.25329 0.0
C1557 C 0.4386 0.46541 0.27699 0.0
C1558 C 0.42749 0.47964 0.2842 0.0
C1559 C 0.4206 0.4399 0.27465 0.0
C1560 C 0.45728 0.46919 0.29502 0.0
C1561 C 0.47848 0.47947 0.28369 0.0
C1562 C 0.49783 0.48266 0.29667 0.0
C1563 C 0.49522 0.47458 0.32143 0.0
C1564 C 0.47338 0.46325 0.33275 0.0
C1565 C 0.45449 0.4613 0.31949 0.0
H1566 H 0.55777 0.02421 0.19136 0.0
H1567 H 0.49376 0.96023 0.19428 0.0
H1568 H 0.4906 0.96605 0.23934 0.0
H1569 H 0.57898 0.01595 0.24637 0.0
H1570 H 0.59372 0.04551 0.25562 0.0
H1571 H 0.58869 0.03815 0.2232 0.0
H1572 H 0.56821 0.06173 0.219 0.0
H1573 H 0.57308 0.06905 0.25156 0.0
H1574 H 0.54451 0.05563 0.23919 0.0
H1575 H 0.49648 0.9775 0.28542 0.0
H1576 H 0.51284 0.99119 0.32756 0.0
H1577 H 0.57364 0.04626 0.29399 0.0
C1578 C 0.54273 0.01175 0.20129 0.0
C1579 C 0.52581 0.99195 0.18919 0.0
C1580 C 0.50682 0.97564 0.20311 0.0
C1581 C 0.50484 0.97887 0.2287 0.0
C1582 C 0.52206 0.99844 0.24019 0.0
C1583 C 0.54071 0.01452 0.22685 0.0
C1584 C 0.55829 0.0326 0.24385 0.0
C1585 C 0.58126 0.03306 0.24216 0.0
C1586 C 0.56118 0.05614 0.23805 0.0
C1587 C 0.54698 0.02391 0.26891 0.0
C1588 C 0.52583 0.00451 0.26651 0.0
C1589 C 0.51288 0.99286 0.28744 0.0
C1590 C 0.52216 1.00082 0.3113 0.0
C1591 C 0.54429 0.01993 0.31389 0.0
C1592 C 0.55648 0.03184 0.29244 0.0
H1593 H 0.41874 0.98962 0.71062 0.0
H1594 H 0.47803 0.98315 0.69419 0.0
H1595 H 0.49227 0.99603 0.73726 0.0
H1596 H 0.44612 0.03908 0.75058 0.0
H1597 H 0.4216 0.02851 0.77076 0.0
H1598 H 0.41791 0.02074 0.73834 0.0
H1599 H 0.39606 0.97798 0.75076 0.0
H1600 H 0.39999 0.9856 0.7832 0.0
H1601 H 0.40958 0.96699 0.77098 0.0
H1602 H 0.49869 0.00885 0.78465 0.0
H1603 H 0.49682 0.02064 0.82814 0.0
H1604 H 0.43172 0.01557 0.8114 0.0
C1605 C 0.43493 0.99116 0.71578 0.0
C1606 C 0.44731 0.98547 0.69881 0.0
C1607 C 0.46834 0.98768 0.70667 0.0
C1608 C 0.47645 0.99484 0.7312 0.0
C1609 C 0.46331 0.99964 0.74767 0.0
C1610 C 0.44301 0.99793 0.73999 0.0
C1611 C 0.43128 0.00304 0.76091 0.0
C1612 C 0.42911 0.02409 0.75478 0.0
C1613 C 0.40785 0.98216 0.7668 0.0
C1614 C 0.44801 0.0079 0.78181 0.0
C1615 C 0.46652 0.00605 0.7741 0.0
C1616 C 0.48417 0.01025 0.7907 0.0
C1617 C 0.48293 0.01681 0.81546 0.0
C1618 C 0.46407 0.01894 0.82344 0.0
C1619 C 0.4464 0.01408 0.80622 0.0
H1620 H 0.02642 0.4479 0.7114 0.0
H1621 H 0.99983 0.49146 0.6883 0.0
H1622 H 0.99105 0.49507 0.73265 0.0
H1623 H 0.98551 0.41674 0.75561 0.0
H1624 H 0.00497 0.4145 0.77677 0.0
H1625 H 0.01103 0.41778 0.74397 0.0
H1626 H 0.05037 0.45361 0.75255 0.0
H1627 H 0.04446 0.45039 0.78548 0.0
H1628 H 0.05178 0.47692 0.77025 0.0
H1629 H 0.98164 0.4898 0.78061 0.0
H1630 H 0.97373 0.47721 0.82481 0.0
H1631 H 0.00779 0.43797 0.81401 0.0
C1632 C 0.01896 0.45845 0.71558 0.0
C1633 C 0.01361 0.46926 0.6964 0.0
C1634 C 0.00412 0.48309 0.70275 0.0
C1635 C 0.99906 0.48516 0.72788 0.0
C1636 C 0.00403 0.47363 0.74632 0.0
C1637 C 0.01409 0.46081 0.74025 0.0
C1638 C 0.017 0.44913 0.76274 0.0
C1639 C 0.00384 0.42301 0.75957 0.0
C1640 C 0.04241 0.45805 0.76807 0.0
C1641 C 0.00637 0.45669 0.78256 0.0
C1642 C 0.99909 0.47097 0.77306 0.0
C1643 C 0.98761 0.47889 0.78815 0.0
C1644 C 0.98323 0.47171 0.81327 0.0
C1645 C 0.99017 0.45663 0.82295 0.0
C1646 C 0.00227 0.44954 0.80734 0.0
H1647 H 0.56987 0.57925 0.82483 0.0
H1648 H 0.53431 0.50566 0.83213 0.0
H1649 H 0.51847 0.50207 0.78944 0.0
H1650 H 0.52671 0.58362 0.7871 0.0
H1651 H 0.54844 0.60695 0.76927 0.0
H1652 H 0.55374 0.60304 0.80125 0.0
H1653 H 0.59009 0.60209 0.78774 0.0
H1654 H 0.58484 0.60581 0.75579 0.0
H1655 H 0.5878 0.58172 0.76462 0.0
H1656 H 0.5099 0.5077 0.74282 0.0
H1657 H 0.51034 0.5217 0.69973 0.0
H1658 H 0.55275 0.5912 0.72537 0.0
C1659 C 0.55836 0.56231 0.81774 0.0
C1660 C 0.55328 0.54274 0.83183 0.0
C1661 C 0.53821 0.52092 0.82177 0.0
C1662 C 0.52923 0.51876 0.79749 0.0
C1663 C 0.53532 0.53859 0.78374 0.0
C1664 C 0.54941 0.55993 0.79384 0.0
C1665 C 0.55506 0.57875 0.77526 0.0
C1666 C 0.5454 0.59398 0.78373 0.0
C1667 C 0.58097 0.5929 0.77058 0.0
C1668 C 0.54257 0.56483 0.75271 0.0
C1669 C 0.53091 0.5417 0.75773 0.0
C1670 C 0.51887 0.52581 0.73892 0.0
C1671 C 0.51914 0.53386 0.71451 0.0
C1672 C 0.53174 0.5575 0.70917 0.0
C1673 C 0.54313 0.57298 0.72874 0.0
H1674 H 0.41975 0.38041 0.13187 0.0
H1675 H 0.37677 0.40233 0.09527 0.0
H1676 H 0.35001 0.36255 0.08312 0.0
H1677 H 0.41301 0.33893 0.08637 0.0
H1678 H 0.41271 0.31902 0.10887 0.0
H1679 H 0.42805 0.34914 0.11544 0.0
H1680 H 0.40503 0.34199 0.15633 0.0
H1681 H 0.38962 0.31184 0.14988 0.0
H1682 H 0.37428 0.32689 0.15521 0.0
H1683 H 0.32846 0.32042 0.07389 0.0
H1684 H 0.31392 0.27923 0.0682 0.0
H1685 H 0.37095 0.28498 0.11105 0.0
C1686 C 0.40479 0.37691 0.1212 0.0
C1687 C 0.40037 0.39456 0.11462 0.0
C1688 C 0.38039 0.38912 0.10089 0.0
C1689 C 0.36513 0.36657 0.09377 0.0
C1690 C 0.37005 0.34962 0.10055 0.0
C1691 C 0.38938 0.35452 0.11397 0.0
C1692 C 0.39087 0.33324 0.11865 0.0
C1693 C 0.41244 0.33521 0.10661 0.0
C1694 C 0.38988 0.3282 0.14668 0.0
C1695 C 0.36947 0.31564 0.10552 0.0
C1696 C 0.35765 0.3254 0.09528 0.0
C1697 C 0.33751 0.31255 0.08197 0.0
C1698 C 0.3293 0.28912 0.07897 0.0
C1699 C 0.34122 0.27876 0.08922 0.0
C1700 C 0.36152 0.29233 0.10276 0.0
H1701 H 0.7289 0.06501 0.10358 0.0
H1702 H 0.71936 0.11452 0.06163 0.0
H1703 H 0.6781 0.09213 0.06905 0.0
H1704 H 0.6788 0.01544 0.08393 0.0
H1705 H 0.67231 0.00152 0.11385 0.0
H1706 H 0.70145 0.02153 0.10566 0.0
H1707 H 0.70569 0.04528 0.14521 0.0
H1708 H 0.67663 0.02519 0.15369 0.0
H1709 H 0.68569 0.05507 0.15076 0.0
H1710 H 0.63753 0.06322 0.07848 0.0
H1711 H 0.60067 0.03182 0.09399 0.0
H1712 H 0.63641 0.00244 0.13205 0.0
C1713 C 0.71827 0.07138 0.09625 0.0
C1714 C 0.72756 0.09139 0.08153 0.0
C1715 C 0.71279 0.09896 0.07232 0.0
C1716 C 0.68924 0.08641 0.07656 0.0
C1717 C 0.68061 0.06648 0.09045 0.0
C1718 C 0.69466 0.0592 0.10058 0.0
C1719 C 0.68093 0.03731 0.11518 0.0
C1720 C 0.68353 0.0178 0.10398 0.0
C1721 C 0.68763 0.04094 0.14285 0.0
C1722 C 0.65701 0.03335 0.11134 0.0
C1723 C 0.65721 0.05028 0.09683 0.0
C1724 C 0.63714 0.04995 0.09006 0.0
C1725 C 0.61631 0.032 0.09875 0.0
C1726 C 0.61578 0.01485 0.11424 0.0
C1727 C 0.63641 0.01552 0.12045 0.0
H1728 H 0.94324 0.64549 0.04867 0.0
H1729 H 0.89771 0.63756 0.10956 0.0
H1730 H 0.91398 0.61835 0.13448 0.0
H1731 H 0.94288 0.5915 0.05735 0.0
H1732 H 0.97275 0.60388 0.04995 0.0
H1733 H 0.95628 0.6153 0.03617 0.0
H1734 H 0.98504 0.65541 0.05318 0.0
H1735 H 1.00159 0.64414 0.06698 0.0
H1736 H 0.99128 0.65904 0.08603 0.0
H1737 H 0.93597 0.60145 0.15312 0.0
H1738 H 0.96358 0.58969 0.16553 0.0
H1739 H 0.99601 0.60962 0.09301 0.0
C1740 C 0.93638 0.63928 0.06705 0.0
C1741 C 0.91902 0.64276 0.07716 0.0
C1742 C 0.91098 0.63503 0.10155 0.0
C1743 C 0.92003 0.62402 0.11573 0.0
C1744 C 0.93721 0.62098 0.10527 0.0
C1745 C 0.9454 0.62846 0.08154 0.0
C1746 C 0.96501 0.62443 0.07535 0.0
C1747 C 0.95886 0.60778 0.0534 0.0
C1748 C 0.98703 0.64711 0.07008 0.0
C1749 C 0.96674 0.61374 0.09944 0.0
C1750 C 0.95036 0.61172 0.1163 0.0
C1751 C 0.94886 0.60296 0.14008 0.0
C1752 C 0.96476 0.59647 0.14701 0.0
C1753 C 0.98213 0.59893 0.13034 0.0
C1754 C 0.98282 0.60732 0.10606 0.0
H1755 H 0.28113 0.37449 0.44331 0.0
H1756 H 0.266 0.30464 0.43204 0.0
H1757 H 0.30624 0.31875 0.4215 0.0
H1758 H 0.32225 0.40026 0.39476 0.0
H1759 H 0.34041 0.42558 0.41248 0.0
H1760 H 0.31016 0.41001 0.4184 0.0
H1761 H 0.31776 0.40608 0.46493 0.0
H1762 H 0.34804 0.4217 0.45917 0.0
H1763 H 0.33514 0.39374 0.47307 0.0
H1764 H 0.34839 0.34065 0.4118 0.0
H1765 H 0.38902 0.3684 0.40504 0.0
H1766 H 0.3766 0.42339 0.42575 0.0
C1767 C 0.28608 0.36199 0.43883 0.0
C1768 C 0.27003 0.33835 0.43845 0.0
C1769 C 0.27762 0.32284 0.43214 0.0
C1770 C 0.30057 0.33068 0.42623 0.0
C1771 C 0.31582 0.35406 0.42688 0.0
C1772 C 0.3089 0.36946 0.43316 0.0
C1773 C 0.32873 0.39368 0.43303 0.0
C1774 C 0.32516 0.40823 0.4135 0.0
C1775 C 0.33265 0.40442 0.4591 0.0
C1776 C 0.34791 0.3895 0.42563 0.0
C1777 C 0.34013 0.36657 0.42204 0.0
C1778 C 0.35471 0.35865 0.41477 0.0
C1779 C 0.37788 0.37462 0.41114 0.0
C1780 C 0.38633 0.39827 0.41498 0.0
C1781 C 0.37094 0.4056 0.42237 0.0
H1782 H 0.65486 0.92746 0.42932 0.0
H1783 H 0.63521 0.92368 0.50706 0.0
H1784 H 0.61139 0.94028 0.49644 0.0
H1785 H 0.65787 0.97945 0.41476 0.0
H1786 H 0.64539 0.97101 0.38423 0.0
H1787 H 0.66063 0.95808 0.39752 0.0
H1788 H 0.62523 0.91796 0.39168 0.0
H1789 H 0.60991 0.93074 0.37813 0.0
H1790 H 0.59816 0.91198 0.40456 0.0
H1791 H 0.5927 0.9608 0.47847 0.0
H1792 H 0.57638 0.97959 0.45278 0.0
H1793 H 0.60468 0.96681 0.38644 0.0
C1794 C 0.64532 0.92971 0.44412 0.0
C1795 C 0.64753 0.92464 0.46919 0.0
C1796 C 0.63457 0.92799 0.48782 0.0
C1797 C 0.62075 0.93728 0.48198 0.0
C1798 C 0.61954 0.94271 0.45731 0.0
C1799 C 0.63106 0.93863 0.43856 0.0
C1800 C 0.62665 0.94599 0.41351 0.0
C1801 C 0.64896 0.96475 0.40183 0.0
C1802 C 0.61424 0.92544 0.39593 0.0
C1803 C 0.61124 0.95523 0.42127 0.0
C1804 C 0.60754 0.95334 0.44667 0.0
C1805 C 0.59512 0.96202 0.4585 0.0
C1806 C 0.58605 0.97275 0.44389 0.0
C1807 C 0.58917 0.97432 0.41781 0.0
C1808 C 0.60182 0.96538 0.40636 0.0
H1809 H 0.00555 0.61213 0.43175 0.0
H1810 H 0.9983 0.6309 0.35681 0.0
H1811 H 0.01762 0.67165 0.36913 0.0
H1812 H 1.0003 0.6576 0.46544 0.0
H1813 H 0.02204 0.66183 0.48763 0.0
H1814 H 0.00435 0.63409 0.47398 0.0
H1815 H 0.04056 0.63364 0.45905 0.0
H1816 H 0.05834 0.66142 0.47241 0.0
H1817 H 0.06109 0.65666 0.43988 0.0
H1818 H 0.04036 0.71017 0.38861 0.0
H1819 H 0.06653 0.74411 0.41321 0.0
H1820 H 0.06095 0.70053 0.47516 0.0
C1821 C 0.00742 0.62488 0.41832 0.0
C1822 C 1.00009 0.61865 0.39355 0.0
C1823 C 0.00356 0.6356 0.37595 0.0
C1824 C 0.01445 0.65866 0.38281 0.0
C1825 C 0.02199 0.66441 0.40729 0.0
C1826 C 0.01869 0.64803 0.42479 0.0
C1827 C 0.03065 0.65892 0.44902 0.0
C1828 C 0.01329 0.65274 0.47027 0.0
C1829 C 0.04873 0.65226 0.45545 0.0
C1830 C 0.04158 0.68394 0.44222 0.0
C1831 C 0.03603 0.68672 0.41823 0.0
C1832 C 0.04463 0.70823 0.40752 0.0
C1833 C 0.05943 0.72741 0.42164 0.0
C1834 C 0.06573 0.72495 0.44609 0.0
C1835 C 0.05651 0.7029 0.45649 0.0
H1836 H 0.59321 0.63599 0.92784 0.0
H1837 H 0.64837 0.62224 0.9132 0.0
H1838 H 0.67635 0.66237 0.92337 0.0
H1839 H 0.61994 0.69123 0.89969 0.0
H1840 H 0.60816 0.70238 0.9221 0.0
H1841 H 0.59295 0.67249 0.91443 0.0
H1842 H 0.59206 0.66232 0.96114 0.0
H1843 H 0.60732 0.69217 0.96895 0.0
H1844 H 0.61845 0.67403 0.97826 0.0
H1845 H 0.6983 0.70502 0.9358 0.0
H1846 H 0.71138 0.74483 0.94867 0.0
H1847 H 0.64085 0.72927 0.95115 0.0
C1848 C 0.61109 0.64121 0.92638 0.0
C1849 C 0.61841 0.62572 0.91957 0.0
C1850 C 0.64218 0.63358 0.9186 0.0
C1851 C 0.65824 0.65643 0.92421 0.0
C1852 C 0.65027 0.67122 0.93059 0.0
C1853 C 0.62719 0.6638 0.93156 0.0
C1854 C 0.62267 0.68279 0.93852 0.0
C1855 C 0.6102 0.6875 0.91742 0.0
C1856 C 0.60935 0.6775 0.96318 0.0
C1857 C 0.64682 0.70216 0.94147 0.0
C1858 C 0.66262 0.69532 0.93697 0.0
C1859 C 0.68601 0.71052 0.93921 0.0
C1860 C 0.6933 0.73316 0.94641 0.0
C1861 C 0.67722 0.74038 0.95116 0.0
C1862 C 0.65374 0.72453 0.94824 0.0
H1863 H 0.30224 0.93394 0.9869 0.0
H1864 H 0.27026 0.93592 0.91769 0.0
H1865 H 0.30757 0.95215 0.89639 0.0
H1866 H 0.3502 0.98684 0.98036 0.0
H1867 H 0.36957 0.97911 0.99445 0.0
H1868 H 0.3399 0.96409 1.00292 0.0
H1869 H 0.33724 0.92574 0.99076 0.0
H1870 H 0.36699 0.9407 0.98217 0.0
H1871 H 0.34576 0.92228 0.96 0.0
H1872 H 0.34956 0.97262 0.88394 0.0
H1873 H 0.39169 0.99666 0.88233 0.0
H1874 H 0.3956 0.98192 0.96004 0.0
C1875 C 0.30291 0.93754 0.96721 0.0
C1876 C 0.28318 0.93365 0.95407 0.0
C1877 C 0.28497 0.93844 0.9282 0.0
C1878 C 0.30615 0.94771 0.91592 0.0
C1879 C 0.32536 0.95193 0.9297 0.0
C1880 C 0.32382 0.94689 0.9548 0.0
C1881 C 0.3471 0.95498 0.96611 0.0
C1882 C 0.35197 0.97228 0.98719 0.0
C1883 C 0.3494 0.93471 0.9753 0.0
C1884 C 0.36213 0.96621 0.94371 0.0
C1885 C 0.34934 0.96389 0.92271 0.0
C1886 C 0.35969 0.9742 0.90019 0.0
C1887 C 0.38363 0.98773 0.89939 0.0
C1888 C 0.39686 0.99108 0.92105 0.0
C1889 C 0.38589 0.9796 0.9432 0.0
H1890 H 0.06832 0.3449 0.89685 0.0
H1891 H 0.04559 0.31855 0.97109 0.0
H1892 H 0.02965 0.34439 0.9762 0.0
H1893 H 0.08383 0.40495 0.91147 0.0
H1894 H 0.07462 0.40878 0.88127 0.0
H1895 H 0.08593 0.38982 0.88489 0.0
H1896 H 0.04907 0.3571 0.86528 0.0
H1897 H 0.03747 0.37579 0.86203 0.0
H1898 H 0.02179 0.34938 0.87895 0.0
H1899 H 0.01109 0.36884 0.97007 0.0
H1900 H 0.99698 0.3946 0.95601 0.0
H1901 H 0.0347 0.40702 0.8872 0.0
C1902 C 0.06057 0.34516 0.91441 0.0
C1903 C 0.05824 0.33001 0.93369 0.0
C1904 C 0.04779 0.3304 0.95635 0.0
C1905 C 0.03857 0.34484 0.95927 0.0
C1906 C 0.04047 0.35909 0.93951 0.0
C1907 C 0.0518 0.3598 0.91778 0.0
C1908 C 0.05115 0.37623 0.89912 0.0
C1909 C 0.07532 0.39613 0.89389 0.0
C1910 C 0.03915 0.36388 0.87493 0.0
C1911 C 0.03707 0.38413 0.91338 0.0
C1912 C 0.03087 0.37395 0.93657 0.0
C1913 C 0.01629 0.3773 0.9522 0.0
C1914 C 0.00822 0.39174 0.94406 0.0
C1915 C 0.01504 0.40283 0.92074 0.0
C1916 C 0.02964 0.39898 0.9053 0.0
H1917 H 0.61215 0.58896 0.58835 0.0
H1918 H 0.61073 0.64362 0.62886 0.0
H1919 H 0.65125 0.66971 0.6176 0.0
H1920 H 0.66624 0.60096 0.6069 0.0
H1921 H 0.67396 0.59382 0.5775 0.0
H1922 H 0.64444 0.5805 0.58653 0.0
H1923 H 0.63493 0.59449 0.54573 0.0
H1924 H 0.66445 0.60775 0.53647 0.0
H1925 H 0.65043 0.62443 0.53805 0.0
H1926 H 0.69326 0.68836 0.60529 0.0
H1927 H 0.73211 0.69822 0.59206 0.0
H1928 H 0.70482 0.63114 0.55872 0.0
C1929 C 0.6203 0.60648 0.59466 0.0
C1930 C 0.60841 0.6143 0.60955 0.0
C1931 C 0.61954 0.6374 0.61725 0.0
C1932 C 0.64253 0.65226 0.611 0.0
C1933 C 0.65393 0.64377 0.59677 0.0
C1934 C 0.64304 0.62146 0.58847 0.0
C1935 C 0.65914 0.61608 0.57439 0.0
C1936 C 0.66105 0.5967 0.5871 0.0
C1937 C 0.6518 0.61036 0.54704 0.0
C1938 C 0.68104 0.63863 0.5767 0.0
C1939 C 0.67776 0.6545 0.58948 0.0
C1940 C 0.69592 0.67616 0.59492 0.0
C1941 C 0.71796 0.68164 0.58723 0.0
C1942 C 0.72167 0.66548 0.57431 0.0
C1943 C 0.70277 0.64386 0.56876 0.0
H1944 H 0.39864 0.01041 0.57132 0.0
H1945 H 0.39329 1.00094 0.65125 0.0
H1946 H 0.37807 0.02744 0.65473 0.0
H1947 H 0.41633 0.07163 0.57289 0.0
H1948 H 0.40073 0.0697 0.54496 0.0
H1949 H 0.4122 0.05096 0.54928 0.0
H1950 H 0.3719 0.01602 0.54248 0.0
H1951 H 0.36024 0.03461 0.53848 0.0
H1952 H 0.34856 0.01254 0.56184 0.0
H1953 H 0.3591 0.05128 0.64849 0.0
H1954 H 0.34324 0.07537 0.6337 0.0
H1955 H 0.36405 0.07166 0.5585 0.0
C1956 C 0.39458 0.01428 0.58954 0.0
C1957 C 0.39706 0.00376 0.61104 0.0
C1958 C 0.39168 0.00911 0.63465 0.0
C1959 C 0.38291 0.02396 0.63675 0.0
C1960 C 0.38012 0.03364 0.61507 0.0
C1961 C 0.38632 0.02944 0.59198 0.0
C1962 C 0.38172 0.04202 0.57157 0.0
C1963 C 0.40408 0.05963 0.55894 0.0
C1964 C 0.36458 0.02529 0.55248 0.0
C1965 C 0.37143 0.05353 0.58667 0.0
C1966 C 0.37041 0.04832 0.6117 0.0
C1967 C 0.3602 0.05582 0.62902 0.0
C1968 C 0.35114 0.06929 0.62054 0.0
C1969 C 0.35273 0.07532 0.59514 0.0
C1970 C 0.363 0.06738 0.57806 0.0
H1971 H 0.00352 0.38191 0.61972 0.0
H1972 H 0.94483 0.38169 0.58702 0.0
H1973 H 0.92766 0.3406 0.57766 0.0
H1974 H 0.00655 0.34295 0.57619 0.0
H1975 H 0.01463 0.32918 0.59952 0.0
H1976 H 0.02224 0.35859 0.60333 0.0
H1977 H 0.00207 0.34901 0.64631 0.0
H1978 H 0.9943 0.31955 0.64258 0.0
H1979 H 0.97255 0.32694 0.64852 0.0
H1980 H 0.91706 0.29941 0.5717 0.0
H1981 H 0.91416 0.26156 0.56927 0.0
H1982 H 0.9793 0.28894 0.60719 0.0
C1983 C 0.98719 0.37326 0.61035 0.0
C1984 C 0.97549 0.38494 0.6041 0.0
C1985 C 0.95395 0.37297 0.59221 0.0
C1986 C 0.94411 0.34967 0.58674 0.0
C1987 C 0.956 0.3386 0.59338 0.0
C1988 C 0.97706 0.34999 0.60494 0.0
C1989 C 0.98616 0.33411 0.61044 0.0
C1990 C 0.00873 0.34166 0.59653 0.0
C1991 C 0.98892 0.3323 0.63864 0.0
C1992 C 0.96703 0.31205 0.60001 0.0
C1993 C 0.94977 0.31493 0.59026 0.0
C1994 C 0.93044 0.29692 0.57937 0.0
C1995 C 0.92887 0.27544 0.57823 0.0
C1996 C 0.94651 0.27219 0.58794 0.0
C1997 C 0.96565 0.2908 0.59919 0.0
H1998 H 0.9566 0.71223 0.75454 0.0
H1999 H 0.95086 0.66864 0.8165 0.0
H2000 H 0.99264 0.68427 0.8156 0.0
H2001 H 0.99735 0.70547 0.72134 0.0
H2002 H 0.01268 0.73437 0.70991 0.0
H2003 H 0.9828 0.72145 0.7172 0.0
H2004 H 0.99144 0.75476 0.74733 0.0
H2005 H 0.02141 0.76778 0.74014 0.0
H2006 H 0.01189 0.76157 0.77201 0.0
H2007 H 0.0348 0.70319 0.80626 0.0
H2008 H 0.07331 0.72178 0.78738 0.0
H2009 H 0.05115 0.75275 0.73152 0.0
C2010 C 0.96422 0.70634 0.76823 0.0
C2011 C 0.95057 0.68933 0.78565 0.0
C2012 C 0.96104 0.68157 0.80288 0.0
C2013 C 0.98474 0.69049 0.80266 0.0
C2014 C 0.9977 0.70713 0.78507 0.0
C2015 C 0.98778 0.71492 0.76812 0.0
C2016 C 0.00518 0.73158 0.74989 0.0
C2017 C 0.99914 0.72267 0.72301 0.0
C2018 C 0.00762 0.75533 0.75251 0.0
C2019 C 0.02636 0.73159 0.75888 0.0
C2020 C 0.02182 0.71769 0.77943 0.0
C2021 C 0.03861 0.71431 0.79033 0.0
C2022 C 0.06046 0.72504 0.77959 0.0
C2023 C 0.06518 0.73871 0.75801 0.0
C2024 C 0.04798 0.74233 0.74795 0.0
H2025 H 0.30832 0.28318 0.80269 0.0
H2026 H 0.34923 0.27944 0.74248 0.0
H2027 H 0.3344 0.29757 0.71422 0.0
H2028 H 0.25923 0.26944 0.76586 0.0
H2029 H 0.25236 0.28861 0.78201 0.0
H2030 H 0.26714 0.27645 0.79806 0.0
H2031 H 0.29962 0.31701 0.80955 0.0
H2032 H 0.28496 0.32929 0.79347 0.0
H2033 H 0.31395 0.3377 0.78522 0.0
H2034 H 0.31425 0.31453 0.69203 0.0
H2035 H 0.28968 0.32928 0.67705 0.0
H2036 H 0.26108 0.32164 0.75112 0.0
C2037 C 0.31417 0.28623 0.78357 0.0
C2038 C 0.33015 0.28012 0.77492 0.0
C2039 C 0.33744 0.28443 0.74977 0.0
C2040 C 0.329 0.29459 0.73348 0.0
C2041 C 0.3133 0.30039 0.74262 0.0
C2042 C 0.30593 0.2964 0.76705 0.0
C2043 C 0.28844 0.30374 0.77187 0.0
C2044 C 0.26543 0.28334 0.77992 0.0
C2045 C 0.29728 0.32309 0.79117 0.0
C2046 C 0.28695 0.3122 0.74622 0.0
C2047 C 0.30151 0.31016 0.7297 0.0
C2048 C 0.3028 0.31625 0.70477 0.0
C2049 C 0.28867 0.32447 0.69641 0.0
C2050 C 0.2734 0.3265 0.7129 0.0
C2051 C 0.27277 0.32051 0.7382 0.0
H2052 H 0.75274 0.06186 0.77492 0.0
H2053 H 0.77287 0.04369 0.8441 0.0
H2054 H 0.7569 0.00425 0.82931 0.0
H2055 H 0.70076 0.01169 0.76722 0.0
H2056 H 0.70291 0.00976 0.73395 0.0
H2057 H 0.71734 0.03717 0.74903 0.0
H2058 H 0.75584 0.04504 0.73004 0.0
H2059 H 0.74147 0.01773 0.71464 0.0
H2060 H 0.76538 0.02476 0.73481 0.0
H2061 H 0.73477 0.96588 0.80939 0.0
H2062 H 0.71171 0.93185 0.7831 0.0
H2063 H 0.70855 0.97501 0.72559 0.0
C2064 C 0.75433 0.04979 0.78674 0.0
C2065 C 0.76382 0.05596 0.8109 0.0
C2066 C 0.76524 0.03939 0.82578 0.0
C2067 C 0.75634 0.01691 0.81749 0.0
C2068 C 0.74642 0.01124 0.794 0.0
C2069 C 0.74576 0.02726 0.7786 0.0
C2070 C 0.73367 0.01647 0.75438 0.0
C2071 C 0.71241 0.01892 0.75096 0.0
C2072 C 0.75007 0.0266 0.73215 0.0
C2073 C 0.72717 0.99182 0.75891 0.0
C2074 C 0.73461 0.98918 0.78195 0.0
C2075 C 0.72924 0.96778 0.7911 0.0
C2076 C 0.71607 0.94857 0.7762 0.0
C2077 C 0.70871 0.95097 0.75235 0.0
C2078 C 0.71444 0.97288 0.74358 0.0
H2079 H 0.30061 0.05057 0.26941 0.0
H2080 H 0.36307 0.05904 0.30187 0.0
H2081 H 0.34972 0.01822 0.29433 0.0
H2082 H 0.26326 0.9958 0.29499 0.0
H2083 H 0.24539 0.98546 0.26776 0.0
H2084 H 0.26034 0.01548 0.27482 0.0
H2085 H 0.27922 0.0243 0.23114 0.0
H2086 H 0.26426 0.9943 0.22391 0.0
H2087 H 0.29492 0.01056 0.22142 0.0
H2088 H 0.32855 0.97599 0.2849 0.0
H2089 H 0.30188 0.93605 0.2734 0.0
H2090 H 0.25369 0.95576 0.24637 0.0
C2091 C 0.31147 0.04386 0.275 0.0
C2092 C 0.33288 0.05798 0.28626 0.0
C2093 C 0.34673 0.04859 0.29296 0.0
C2094 C 0.33924 0.02541 0.28887 0.0
C2095 C 0.31792 0.01193 0.27793 0.0
C2096 C 0.30431 0.02086 0.27097 0.0
C2097 C 0.28205 0.00277 0.25975 0.0
C2098 C 0.26155 0.9997 0.27526 0.0
C2099 C 0.28001 0.00832 0.23244 0.0
C2100 C 0.28511 0.98217 0.26178 0.0
C2101 C 0.3059 0.98778 0.27227 0.0
C2102 C 0.3123 0.97144 0.27644 0.0
C2103 C 0.29704 0.94877 0.26969 0.0
C2104 C 0.27562 0.94262 0.25882 0.0
C2105 C 0.26976 0.95971 0.25483 0.0
H2106 H 0.0265 0.2901 0.23089 0.0
H2107 H 0.07087 0.34874 0.27631 0.0
H2108 H 0.0389 0.33955 0.30497 0.0
H2109 H 0.97584 0.29507 0.23789 0.0
H2110 H 0.95664 0.26469 0.23917 0.0
H2111 H 0.98296 0.27598 0.22195 0.0
H2112 H 0.99428 0.25074 0.24764 0.0
H2113 H 0.968 0.23939 0.26493 0.0
H2114 H 0.99492 0.25259 0.28114 0.0
H2115 H 0.00283 0.32358 0.32923 0.0
H2116 H 0.96413 0.30253 0.34706 0.0
H2117 H 0.9426 0.25422 0.28594 0.0
C2118 C 0.0294 0.30096 0.24688 0.0
C2119 C 0.05107 0.32021 0.25132 0.0
C2120 C 0.0543 0.33415 0.27234 0.0
C2121 C 0.0363 0.32898 0.2888 0.0
C2122 C 0.01516 0.30989 0.28389 0.0
C2123 C 0.01154 0.29614 0.2634 0.0
C2124 C 0.98707 0.27668 0.26245 0.0
C2125 C 0.97491 0.27821 0.23897 0.0
C2126 C 0.98602 0.25348 0.26415 0.0
C2127 C 0.97759 0.28158 0.28573 0.0
C2128 C 0.99414 0.30077 0.29782 0.0
C2129 C 0.9897 0.30853 0.31995 0.0
C2130 C 0.96771 0.29636 0.33002 0.0
C2131 C 0.95041 0.27669 0.31793 0.0
C2132 C 0.95545 0.2693 0.29543 0.0
H2133 H 0.7125 0.68614 0.30518 0.0
H2134 H 0.76849 0.70264 0.25437 0.0
H2135 H 0.76038 0.72997 0.23251 0.0
H2136 H 0.67494 0.68607 0.26031 0.0
H2137 H 0.66229 0.69818 0.28026 0.0
H2138 H 0.67409 0.68192 0.29353 0.0
H2139 H 0.7002 0.71609 0.32195 0.0
H2140 H 0.68849 0.7325 0.30868 0.0
H2141 H 0.71889 0.74356 0.3082 0.0
H2142 H 0.74477 0.75344 0.21472 0.0
H2143 H 0.72138 0.7699 0.20053 0.0
H2144 H 0.67488 0.73746 0.26232 0.0
C2145 C 0.72334 0.6959 0.2898 0.0
C2146 C 0.74122 0.69246 0.28152 0.0
C2147 C 0.75467 0.70502 0.26089 0.0
C2148 C 0.7503 0.72068 0.24853 0.0
C2149 C 0.7324 0.72352 0.25702 0.0
C2150 C 0.71906 0.71143 0.27713 0.0
C2151 C 0.69969 0.71624 0.28119 0.0
C2152 C 0.67638 0.6943 0.27866 0.0
C2153 C 0.70197 0.72779 0.30651 0.0
C2154 C 0.70394 0.73258 0.25992 0.0
C2155 C 0.72309 0.73678 0.24644 0.0
C2156 C 0.72984 0.75041 0.22522 0.0
C2157 C 0.7164 0.75958 0.21724 0.0
C2158 C 0.69632 0.75495 0.2303 0.0
C2159 C 0.69034 0.74166 0.25222 0.0
H2160 H 0.32776 0.17139 0.12376 0.0
H2161 H 0.27074 0.17113 0.16139 0.0
H2162 H 0.28537 0.16705 0.20173 0.0
H2163 H 0.33042 0.12952 0.16476 0.0
H2164 H 0.36115 0.1437 0.16409 0.0
H2165 H 0.34582 0.14588 0.13782 0.0
H2166 H 0.36934 0.18997 0.1408 0.0
H2167 H 0.38458 0.18791 0.16723 0.0
H2168 H 0.36974 0.20376 0.16968 0.0
H2169 H 0.30681 0.16472 0.23849 0.0
H2170 H 0.33262 0.1616 0.26882 0.0
H2171 H 0.37549 0.16278 0.20793 0.0
C2172 C 0.31822 0.17016 0.14046 0.0
C2173 C 0.29809 0.17161 0.13929 0.0
C2174 C 0.28623 0.17014 0.16167 0.0
C2175 C 0.29441 0.16784 0.18479 0.0
C2176 C 0.31448 0.16693 0.1854 0.0
C2177 C 0.32615 0.16781 0.16386 0.0
C2178 C 0.34742 0.16659 0.16994 0.0
C2179 C 0.34611 0.14514 0.15847 0.0
C2180 C 0.36905 0.18836 0.16141 0.0
C2181 C 0.34585 0.16503 0.19816 0.0
C2182 C 0.32676 0.16533 0.20669 0.0
C2183 C 0.32179 0.16436 0.23205 0.0
C2184 C 0.33659 0.1627 0.24916 0.0
C2185 C 0.35606 0.16194 0.24082 0.0
C2186 C 0.36072 0.16327 0.21495 0.0
H2187 H 0.80248 0.13032 0.17096 0.0
H2188 H 0.85927 0.1774 0.12473 0.0
H2189 H 0.87775 0.20148 0.16173 0.0
H2190 H 0.80103 0.17338 0.20977 0.0
H2191 H 0.79337 0.15611 0.23751 0.0
H2192 H 0.78498 0.1427 0.20744 0.0
H2193 H 0.80486 0.11935 0.2173 0.0
H2194 H 0.8137 0.13305 0.24722 0.0
H2195 H 0.83465 0.13405 0.22568 0.0
H2196 H 0.89026 0.22009 0.20381 0.0
H2197 H 0.89362 0.23494 0.24648 0.0
H2198 H 0.8285 0.17626 0.26588 0.0
C2199 C 0.81876 0.14578 0.16855 0.0
C2200 C 0.82944 0.15196 0.14483 0.0
C2201 C 0.85067 0.17239 0.14256 0.0
C2202 C 0.86138 0.18604 0.16356 0.0
C2203 C 0.85061 0.17915 0.18672 0.0
C2204 C 0.82957 0.15971 0.18926 0.0
C2205 C 0.82121 0.15662 0.21608 0.0
C2206 C 0.79883 0.15725 0.21779 0.0
C2207 C 0.81845 0.13445 0.22722 0.0
C2208 C 0.84083 0.17742 0.2283 0.0
C2209 C 0.85772 0.18999 0.211 0.0
C2210 C 0.87719 0.21032 0.21746 0.0
C2211 C 0.87904 0.21852 0.24183 0.0
C2212 C 0.8616 0.20651 0.25965 0.0
C2213 C 0.84246 0.18538 0.25293 0.0
H2214 H 0.82113 0.66087 0.23731 0.0
H2215 H 0.75469 0.63574 0.20299 0.0
H2216 H 0.77271 0.64698 0.16186 0.0
H2217 H 0.852 0.71008 0.1954 0.0
H2218 H 0.87722 0.70743 0.19434 0.0
H2219 H 0.85926 0.69829 0.2216 0.0
H2220 H 0.85513 0.65822 0.21783 0.0
H2221 H 0.87289 0.66718 0.19044 0.0
H2222 H 0.84472 0.64247 0.18919 0.0
H2223 H 0.79727 0.65878 0.12376 0.0
H2224 H 0.82764 0.67317 0.0917 0.0
H2225 H 0.8784 0.69146 0.14983 0.0
C2226 C 0.81047 0.65809 0.22118 0.0
C2227 C 0.78644 0.64733 0.22353 0.0
C2228 C 0.7731 0.6438 0.20183 0.0
C2229 C 0.78316 0.65014 0.17825 0.0
C2230 C 0.80672 0.66015 0.17641 0.0
C2231 C 0.8203 0.66437 0.19724 0.0
C2232 C 0.84523 0.67513 0.18974 0.0
C2233 C 0.85926 0.69916 0.20094 0.0
C2234 C 0.85506 0.65983 0.19725 0.0
C2235 C 0.84338 0.6761 0.1616 0.0
C2236 C 0.82099 0.66729 0.1543 0.0
C2237 C 0.81493 0.66589 0.12924 0.0
C2238 C 0.83226 0.674 0.11112 0.0
C2239 C 0.8554 0.68351 0.11815 0.0
C2240 C 0.86089 0.68441 0.14378 0.0
H2241 H 0.18336 0.29915 0.3542 0.0
H2242 H 0.14799 0.31689 0.40957 0.0
H2243 H 0.13553 0.33361 0.37641 0.0
H2244 H 0.20344 0.3497 0.31688 0.0
H2245 H 0.19968 0.33512 0.28766 0.0
H2246 H 0.20546 0.32414 0.31557 0.0
H2247 H 0.16891 0.28517 0.30836 0.0
H2248 H 0.16296 0.29605 0.28046 0.0
H2249 H 0.14186 0.28404 0.30484 0.0
H2250 H 0.12739 0.34875 0.33777 0.0
H2251 H 0.12458 0.36248 0.29642 0.0
H2252 H 0.16508 0.33508 0.26489 0.0
C2253 C 0.17295 0.30651 0.35942 0.0
C2254 C 0.16663 0.30666 0.38463 0.0
C2255 C 0.15307 0.31656 0.39051 0.0
C2256 C 0.14587 0.32605 0.37176 0.0
C2257 C 0.15236 0.32553 0.34717 0.0
C2258 C 0.16563 0.31608 0.34092 0.0
C2259 C 0.17054 0.31812 0.31306 0.0
C2260 C 0.19631 0.33264 0.308 0.0
C2261 C 0.16046 0.29443 0.30097 0.0
C2262 C 0.15799 0.33032 0.30456 0.0
C2263 C 0.14763 0.33432 0.32466 0.0
C2264 C 0.13543 0.3457 0.32195 0.0
C2265 C 0.13402 0.3535 0.29826 0.0
C2266 C 0.14469 0.34999 0.27727 0.0
C2267 C 0.1566 0.3379 0.28046 0.0
H2268 H 0.67646 0.83727 0.40836 0.0
H2269 H 0.68223 0.90089 0.38326 0.0
H2270 H 0.67099 0.88527 0.34101 0.0
H2271 H 0.69931 0.8266 0.35472 0.0
H2272 H 0.68023 0.79619 0.35391 0.0
H2273 H 0.68661 0.81123 0.38311 0.0
H2274 H 0.64355 0.79557 0.39119 0.0
H2275 H 0.637 0.78011 0.36222 0.0
H2276 H 0.62664 0.79961 0.36799 0.0
H2277 H 0.66344 0.86478 0.30046 0.0
H2278 H 0.65428 0.8381 0.26516 0.0
H2279 H 0.65187 0.78702 0.31587 0.0
C2280 C 0.6746 0.84756 0.39414 0.0
C2281 C 0.68016 0.87029 0.39914 0.0
C2282 C 0.67808 0.88345 0.37986 0.0
C2283 C 0.67177 0.87477 0.35573 0.0
C2284 C 0.66739 0.85274 0.35104 0.0
C2285 C 0.66821 0.83907 0.36972 0.0
C2286 C 0.66315 0.81616 0.35924 0.0
C2287 C 0.68354 0.81233 0.36297 0.0
C2288 C 0.64128 0.79671 0.37085 0.0
C2289 C 0.65976 0.81935 0.33185 0.0
C2290 C 0.66246 0.84065 0.32753 0.0
C2291 C 0.66099 0.84791 0.30362 0.0
C2292 C 0.65599 0.83274 0.28364 0.0
C2293 C 0.65232 0.8105 0.28772 0.0
C2294 C 0.65448 0.80389 0.31216 0.0
H2295 H 0.13121 0.82165 0.38283 0.0
H2296 H 0.17754 0.82155 0.43863 0.0
H2297 H 0.20497 0.82645 0.40527 0.0
H2298 H 0.14209 0.79065 0.33559 0.0
H2299 H 0.14046 0.80717 0.31017 0.0
H2300 H 0.12446 0.80358 0.3383 0.0
H2301 H 0.14354 0.84744 0.34296 0.0
H2302 H 0.1595 0.85117 0.31478 0.0
H2303 H 0.17425 0.86454 0.34323 0.0
H2304 H 0.22688 0.83077 0.36596 0.0
H2305 H 0.24327 0.83652 0.32405 0.0
H2306 H 0.18302 0.83459 0.29308 0.0
C2307 C 0.14713 0.82265 0.38813 0.0
C2308 C 0.1522 0.82113 0.41345 0.0
C2309 C 0.17328 0.82269 0.41946 0.0
C2310 C 0.18891 0.82539 0.4006 0.0
C2311 C 0.18323 0.82661 0.37585 0.0
C2312 C 0.16292 0.82546 0.36959 0.0
C2313 C 0.16113 0.82765 0.3416 0.0
C2314 C 0.14083 0.80597 0.33078 0.0
C2315 C 0.15952 0.84897 0.33528 0.0
C2316 C 0.18367 0.83022 0.333 0.0
C2317 C 0.19604 0.82944 0.35312 0.0
C2318 C 0.21738 0.83147 0.35013 0.0
C2319 C 0.22652 0.83474 0.32609 0.0
C2320 C 0.21451 0.83609 0.30508 0.0
C2321 C 0.19262 0.83355 0.30865 0.0
H2322 H 0.68738 0.85933 0.78469 0.0
H2323 H 0.61971 0.84116 0.81111 0.0
H2324 H 0.62976 0.83497 0.85319 0.0
H2325 H 0.69401 0.81822 0.82472 0.0
H2326 H 0.7239 0.83771 0.83013 0.0
H2327 H 0.71088 0.83908 0.80142 0.0
H2328 H 0.72492 0.88181 0.80963 0.0
H2329 H 0.73765 0.88047 0.83854 0.0
H2330 H 0.71715 0.8901 0.83827 0.0
H2331 H 0.64772 0.83383 0.89334 0.0
H2332 H 0.67168 0.83386 0.92815 0.0
H2333 H 0.72758 0.85199 0.87647 0.0
C2334 C 0.67455 0.85345 0.79921 0.0
C2335 C 0.65273 0.85068 0.79455 0.0
C2336 C 0.63656 0.84346 0.81421 0.0
C2337 C 0.64209 0.83992 0.83825 0.0
C2338 C 0.66391 0.84357 0.84255 0.0
C2339 C 0.67983 0.84983 0.82359 0.0
C2340 C 0.70226 0.85314 0.83367 0.0
C2341 C 0.7081 0.83601 0.82178 0.0
C2342 C 0.72163 0.87785 0.82979 0.0
C2343 C 0.69641 0.84799 0.86113 0.0
C2344 C 0.67423 0.84261 0.86584 0.0
C2345 C 0.66509 0.83781 0.88987 0.0
C2346 C 0.67886 0.83802 0.90958 0.0
C2347 C 0.70146 0.84287 0.90511 0.0
C2348 C 0.71032 0.8481 0.88053 0.0
H2349 H 0.18035 0.879 0.87984 0.0
H2350 H 0.19118 0.8394 0.9362 0.0
H2351 H 0.18659 0.8112 0.90406 0.0
H2352 H 0.13711 0.83151 0.84595 0.0
H2353 H 0.1466 0.84464 0.81582 0.0
H2354 H 0.15155 0.86214 0.84297 0.0
H2355 H 0.19481 0.88432 0.8331 0.0
H2356 H 0.19001 0.86685 0.80594 0.0
H2357 H 0.20999 0.86891 0.8294 0.0
H2358 H 0.18022 0.78721 0.86642 0.0
H2359 H 0.17116 0.76766 0.82613 0.0
H2360 H 0.16398 0.82233 0.79307 0.0
C2361 C 0.18189 0.86446 0.88547 0.0
C2362 C 0.18622 0.86146 0.91065 0.0
C2363 C 0.1879 0.84209 0.91713 0.0
C2364 C 0.18537 0.82603 0.89896 0.0
C2365 C 0.18114 0.82955 0.87438 0.0
C2366 C 0.17933 0.84823 0.86758 0.0
C2367 C 0.17404 0.84759 0.83994 0.0
C2368 C 0.15095 0.84639 0.83594 0.0
C2369 C 0.19337 0.86814 0.82629 0.0
C2370 C 0.17299 0.82548 0.83223 0.0
C2371 C 0.17727 0.81552 0.85248 0.0
C2372 C 0.17686 0.79486 0.85048 0.0
C2373 C 0.17161 0.78386 0.82738 0.0
C2374 C 0.16674 0.79336 0.80628 0.0
C2375 C 0.16777 0.81469 0.80872 0.0
H2376 H 0.16604 0.32313 0.76026 0.0
H2377 H 0.23187 0.36021 0.79708 0.0
H2378 H 0.2133 0.34755 0.83769 0.0
H2379 H 0.1341 0.33422 0.80594 0.0
H2380 H 0.10915 0.30623 0.8045 0.0
H2381 H 0.12738 0.31777 0.77764 0.0
H2382 H 0.13257 0.28236 0.77595 0.0
H2383 H 0.11415 0.27061 0.80264 0.0
H2384 H 0.14249 0.27439 0.80322 0.0
H2385 H 0.18788 0.33295 0.87499 0.0
H2386 H 0.15701 0.31336 0.90609 0.0
H2387 H 0.10767 0.28413 0.84616 0.0
C2388 C 0.17652 0.32834 0.77685 0.0
C2389 C 0.20047 0.34285 0.77525 0.0
C2390 C 0.2135 0.34926 0.79755 0.0
C2391 C 0.20313 0.34219 0.82089 0.0
C2392 C 0.17957 0.32841 0.82193 0.0
C2393 C 0.16639 0.3212 0.80057 0.0
C2394 C 0.14137 0.30608 0.80724 0.0
C2395 C 0.12717 0.31672 0.7983 0.0
C2396 C 0.1321 0.28192 0.79663 0.0
C2397 C 0.14271 0.30612 0.83553 0.0
C2398 C 0.1649 0.31931 0.8436 0.0
C2399 C 0.1704 0.3224 0.86891 0.0
C2400 C 0.15278 0.31133 0.88647 0.0
C2401 C 0.12997 0.29715 0.87863 0.0
C2402 C 0.12497 0.29474 0.85278 0.0
H2403 H 0.84385 0.66907 0.73789 0.0
H2404 H 0.83374 0.60494 0.70832 0.0
H2405 H 0.82637 0.61511 0.66683 0.0
H2406 H 0.8 0.67141 0.69897 0.0
H2407 H 0.81673 0.70186 0.69472 0.0
H2408 H 0.81984 0.689 0.72271 0.0
H2409 H 0.86328 0.70783 0.71445 0.0
H2410 H 0.86026 0.72055 0.68631 0.0
H2411 H 0.87315 0.70281 0.68521 0.0
H2412 H 0.8225 0.63292 0.62767 0.0
H2413 H 0.81977 0.65649 0.59413 0.0
H2414 H 0.83191 0.70902 0.6483 0.0
C2415 C 0.8396 0.65701 0.72278 0.0
C2416 C 0.83935 0.63617 0.72647 0.0
C2417 C 0.83412 0.62104 0.70605 0.0
C2418 C 0.82989 0.62664 0.68231 0.0
C2419 C 0.83088 0.64749 0.67906 0.0
C2420 C 0.83536 0.66239 0.69872 0.0
C2421 C 0.83594 0.68397 0.68976 0.0
C2422 C 0.817 0.68671 0.70228 0.0
C2423 C 0.85956 0.70503 0.6942 0.0
C2424 C 0.83131 0.67888 0.66212 0.0
C2425 C 0.82848 0.65775 0.65635 0.0
C2426 C 0.82452 0.64946 0.63197 0.0
C2427 C 0.82311 0.66301 0.61299 0.0
C2428 C 0.82558 0.68459 0.61847 0.0
C2429 C 0.82985 0.69257 0.64342 0.0
H2430 H 0.34687 0.18144 0.75214 0.0
H2431 H 0.35993 0.24677 0.7233 0.0
H2432 H 0.3471 0.2299 0.68175 0.0
H2433 H 0.3668 0.16551 0.70006 0.0
H2434 H 0.34541 0.13569 0.70056 0.0
H2435 H 0.35324 0.15196 0.72898 0.0
H2436 H 0.31109 0.14074 0.73667 0.0
H2437 H 0.30304 0.12405 0.7085 0.0
H2438 H 0.29559 0.14597 0.71273 0.0
H2439 H 0.33702 0.20736 0.64225 0.0
H2440 H 0.32543 0.17877 0.6084 0.0
H2441 H 0.3181 0.12789 0.66248 0.0
C2442 C 0.34628 0.19191 0.73723 0.0
C2443 C 0.35432 0.21537 0.74092 0.0
C2444 C 0.35387 0.22874 0.72083 0.0
C2445 C 0.34666 0.21935 0.69712 0.0
C2446 C 0.33979 0.19646 0.6937 0.0
C2447 C 0.3391 0.18275 0.71323 0.0
C2448 C 0.3317 0.15884 0.70409 0.0
C2449 C 0.35041 0.15265 0.7087 0.0
C2450 C 0.309 0.14137 0.71622 0.0
C2451 C 0.32878 0.16149 0.67649 0.0
C2452 C 0.33361 0.18334 0.67085 0.0
C2453 C 0.3329 0.19007 0.64643 0.0
C2454 C 0.32652 0.17383 0.6273 0.0
C2455 C 0.32082 0.15116 0.6328 0.0
C2456 C 0.32221 0.14508 0.65771 0.0
H2457 H 0.90372 0.19709 0.67662 0.0
H2458 H 0.85146 0.16193 0.62048 0.0
H2459 H 0.82204 0.14708 0.65326 0.0
H2460 H 0.87963 0.15463 0.72385 0.0
H2461 H 0.88658 0.17419 0.7495 0.0
H2462 H 0.90399 0.183 0.72183 0.0
H2463 H 0.89767 0.2175 0.71689 0.0
H2464 H 0.88052 0.209 0.74477 0.0
H2465 H 0.86898 0.21281 0.7161 0.0
H2466 H 0.79886 0.13348 0.69129 0.0
H2467 H 0.78126 0.1261 0.73245 0.0
H2468 H 0.84725 0.17161 0.76587 0.0
C2469 C 0.88603 0.18652 0.67123 0.0
C2470 C 0.87991 0.18068 0.64587 0.0
C2471 C 0.8566 0.16681 0.63962 0.0
C2472 C 0.83976 0.15814 0.65817 0.0
C2473 C 0.84641 0.16372 0.68292 0.0
C2474 C 0.86886 0.17797 0.68956 0.0
C2475 C 0.87104 0.1815 0.7177 0.0
C2476 C 0.88621 0.17281 0.72887 0.0
C2477 C 0.88009 0.2067 0.72425 0.0
C2478 C 0.84629 0.16669 0.72581 0.0
C2479 C 0.8326 0.15651 0.70526 0.0
C2480 C 0.80932 0.14163 0.70747 0.0
C2481 C 0.79951 0.13756 0.73112 0.0
C2482 C 0.81274 0.14847 0.7526 0.0
C2483 C 0.83664 0.16299 0.74992 0.0
H2484 H 0.01093 0.51498 0.56635 0.0
H2485 H 0.00805 0.4532 0.53902 0.0
H2486 H 0.99678 0.45951 0.49769 0.0
H2487 H 0.96159 0.50835 0.529 0.0
H2488 H 0.97452 0.53857 0.52339 0.0
H2489 H 0.98088 0.52843 0.55158 0.0
H2490 H 0.024 0.55222 0.54127 0.0
H2491 H 0.01774 0.56203 0.51279 0.0
H2492 H 0.03431 0.54787 0.51196 0.0
H2493 H 0.98934 0.47377 0.45841 0.0
H2494 H 0.98024 0.49258 0.42454 0.0
H2495 H 0.98662 0.54471 0.47642 0.0
C2496 C 0.00728 0.50252 0.55182 0.0
C2497 C 0.01041 0.48362 0.55589 0.0
C2498 C 0.00588 0.46787 0.53629 0.0
C2499 C 0.99953 0.47131 0.51267 0.0
C2500 C 0.99756 0.49054 0.50884 0.0
C2501 C 1.00079 0.50567 0.52787 0.0
C2502 C 0.99769 0.52506 0.51828 0.0
C2503 C 0.97746 0.52509 0.53133 0.0
C2504 C 0.01975 0.54816 0.52126 0.0
C2505 C 0.99254 0.51848 0.491 0.0
C2506 C 0.99274 0.4986 0.48598 0.0
C2507 C 0.98892 0.48928 0.4621 0.0
C2508 C 0.98399 0.5002 0.44291 0.0
C2509 C 0.98275 0.5201 0.44778 0.0
C2510 C 0.98746 0.5295 0.4721 0.0
H2511 H 0.50493 0.55319 0.54212 0.0
H2512 H 0.50128 0.50861 0.60228 0.0
H2513 H 0.49584 0.47917 0.57148 0.0
H2514 H 0.46212 0.50912 0.50295 0.0
H2515 H 0.47684 0.52207 0.47432 0.0
H2516 H 0.48035 0.53964 0.50103 0.0
H2517 H 0.52415 0.55682 0.49855 0.0
H2518 H 0.52079 0.5392 0.47192 0.0
H2519 H 0.53592 0.53807 0.49899 0.0
H2520 H 0.49133 0.45498 0.53468 0.0
H2521 H 0.48637 0.43628 0.49427 0.0
H2522 H 0.49269 0.49609 0.45681 0.0
C2523 C 0.5029 0.5372 0.54887 0.0
C2524 C 0.50353 0.53322 0.57472 0.0
C2525 C 0.50082 0.51206 0.58267 0.0
C2526 C 0.49778 0.49527 0.56528 0.0
C2527 C 0.49747 0.49985 0.54 0.0
C2528 C 0.49984 0.52023 0.53175 0.0
C2529 C 0.49874 0.52069 0.50347 0.0
C2530 C 0.47829 0.52301 0.49494 0.0
C2531 C 0.52124 0.53983 0.4926 0.0
C2532 C 0.49536 0.49734 0.49708 0.0
C2533 C 0.49476 0.48574 0.51854 0.0
C2534 C 0.49172 0.46387 0.51778 0.0
C2535 C 0.48889 0.4534 0.49459 0.0
C2536 C 0.48906 0.46464 0.4722 0.0
C2537 C 0.49259 0.48708 0.47351 0.0
H2538 H 0.54746 0.02594 0.48397 0.0
H2539 H 0.49633 0.98944 0.42717 0.0
H2540 H 0.46727 0.97026 0.46019 0.0
H2541 H 0.52786 0.98035 0.52753 0.0
H2542 H 0.53397 0.99826 0.55457 0.0
H2543 H 0.55046 0.0097 0.52654 0.0
H2544 H 0.54028 0.04186 0.52609 0.0
H2545 H 0.52371 0.03051 0.55411 0.0
H2546 H 0.51073 0.03454 0.52674 0.0
H2547 H 0.4444 0.95397 0.49922 0.0
H2548 H 0.42879 0.94134 0.54125 0.0
H2549 H 0.49452 0.98893 0.57345 0.0
C2550 C 0.53013 0.01399 0.47836 0.0
C2551 C 0.52418 0.00919 0.45285 0.0
C2552 C 0.5013 0.99342 0.44649 0.0
C2553 C 0.4847 0.98248 0.46515 0.0
C2554 C 0.49122 0.9876 0.49007 0.0
C2555 C 0.51337 0.00302 0.49672 0.0
C2556 C 0.51603 0.00513 0.52488 0.0
C2557 C 0.53309 0.99793 0.5339 0.0
C2558 C 0.52311 0.02946 0.53345 0.0
C2559 C 0.4919 0.98823 0.53316 0.0
C2560 C 0.47793 0.97839 0.51268 0.0
C2561 C 0.45516 0.96166 0.51532 0.0
C2562 C 0.44649 0.95456 0.53936 0.0
C2563 C 0.46041 0.96414 0.56072 0.0
C2564 C 0.48339 0.9815 0.55754 0.0
H2565 H 0.50359 0.96146 0.03445 0.0
H2566 H 0.54175 0.01926 0.08351 0.0
H2567 H 0.54366 0.0453 0.04996 0.0
H2568 H 0.53255 0.98792 0.97744 0.0
H2569 H 0.50714 0.9746 0.95858 0.0
H2570 H 0.509 0.96046 0.98616 0.0
H2571 H 0.47187 0.9577 1.00325 0.0
H2572 H 0.46974 0.97157 0.9756 0.0
H2573 H 0.46988 0.98322 1.00582 0.0
H2574 H 0.54245 0.0649 1.01089 0.0
H2575 H 0.53442 0.07705 0.97096 0.0
H2576 H 0.49523 0.0064 0.94711 0.0
C2577 C 0.51235 0.97961 0.03815 0.0
C2578 C 0.52265 0.98839 0.0616 0.0
C2579 C 0.53369 0.01219 0.06579 0.0
C2580 C 0.53498 0.02707 0.04677 0.0
C2581 C 0.52491 0.01786 0.02378 0.0
C2582 C 0.51349 0.99466 0.01952 0.0
C2583 C 0.50333 0.98912 0.99346 0.0
C2584 C 0.51363 0.97732 0.978 0.0
C2585 C 0.47715 0.97454 0.99461 0.0
C2586 C 0.51089 0.01288 0.98362 0.0
C2587 C 0.52355 0.02915 1.00141 0.0
C2588 C 0.53245 0.05229 0.99693 0.0
C2589 C 0.52777 0.059 0.97406 0.0
C2590 C 0.51408 0.04271 0.95578 0.0
C2591 C 0.50589 0.0193 0.96052 0.0
H2592 H 0.97625 0.45816 0.98873 0.0
H2593 H 0.99574 0.50999 0.93158 0.0
H2594 H 0.00959 0.53977 0.96431 0.0
H2595 H 0.95671 0.48356 0.03422 0.0
H2596 H 0.96786 0.47554 0.06038 0.0
H2597 H 0.95929 0.45832 0.0326 0.0
H2598 H 0.99941 0.46247 0.02919 0.0
H2599 H 0.00803 0.4795 0.05709 0.0
H2600 H 0.0243 0.49057 0.02884 0.0
H2601 H 0.02107 0.56362 1.00317 0.0
H2602 H 0.03236 0.58059 0.0449 0.0
H2603 H 0.0057 0.51318 0.07717 0.0
C2604 C 0.98343 0.47578 0.98303 0.0
C2605 C 0.98489 0.48178 0.95754 0.0
C2606 C 0.99456 0.50503 0.95093 0.0
C2607 C 0.00232 0.52201 0.96941 0.0
C2608 C 1.00035 0.51542 0.99436 0.0
C2609 C 0.99135 0.49289 1.00118 0.0
C2610 C 0.99176 0.49037 0.02924 0.0
C2611 C 0.96746 0.4761 0.03972 0.0
C2612 C 0.00677 0.48013 0.03651 0.0
C2613 C 0.0025 0.51509 0.03726 0.0
C2614 C 0.00714 0.52919 0.0168 0.0
C2615 C 0.0175 0.55274 0.01927 0.0
C2616 C 0.02383 0.56219 0.04312 0.0
C2617 C 0.01988 0.54821 0.06435 0.0
C2618 C 0.00865 0.52428 0.06138 0.0
H2619 H 0.49711 0.50487 0.08385 0.0
H2620 H 0.4375 0.50017 0.04762 0.0
H2621 H 0.4569 0.50816 1.00728 0.0
H2622 H 0.53928 0.5513 0.04457 0.0
H2623 H 0.55844 0.54003 0.04358 0.0
H2624 H 0.54023 0.53464 0.07024 0.0
H2625 H 0.52379 0.49116 0.0646 0.0
H2626 H 0.54184 0.49643 0.03785 0.0
H2627 H 0.5114 0.47807 0.03515 0.0
H2628 H 0.48144 0.51469 0.97025 0.0
H2629 H 0.51118 0.52167 0.93909 0.0
H2630 H 0.55554 0.52315 0.99832 0.0
C2631 C 0.4883 0.5058 0.06746 0.0
C2632 C 0.4657 0.50177 0.06905 0.0
C2633 C 0.45473 0.50301 0.04705 0.0
C2634 C 0.46561 0.50758 0.02391 0.0
C2635 C 0.48762 0.51104 0.02284 0.0
C2636 C 0.499 0.51042 0.04396 0.0
C2637 C 0.52258 0.51455 0.03723 0.0
C2638 C 0.54123 0.53643 0.04964 0.0
C2639 C 0.52504 0.49382 0.04412 0.0
C2640 C 0.52243 0.51736 1.00916 0.0
C2641 C 0.50205 0.5152 1.00128 0.0
C2642 C 0.49759 0.51658 0.97617 0.0
C2643 C 0.51453 0.52047 0.95858 0.0
C2644 C 0.5357 0.52304 0.96621 0.0
C2645 C 0.53959 0.52141 0.99187 0.0
H2646 H 0.25833 0.10081 0.03374 0.0
H2647 H 0.20195 0.08502 0.08392 0.0
H2648 H 0.18716 0.04409 0.07747 0.0
H2649 H 0.22717 0.05623 0.99043 0.0
H2650 H 0.24959 0.04971 0.98494 0.0
H2651 H 0.25661 0.0781 0.99407 0.0
H2652 H 0.27969 0.07626 0.03157 0.0
H2653 H 0.27286 0.04791 0.02245 0.0
H2654 H 0.26611 0.05301 0.05341 0.0
H2655 H 0.17688 0.00505 0.06391 0.0
H2656 H 0.17268 0.96994 0.04533 0.0
H2657 H 0.2368 0.01002 1.00577 0.0
C2658 C 0.24307 0.08873 0.04361 0.0
C2659 C 0.23118 0.09627 0.05908 0.0
C2660 C 0.21113 0.07983 0.07152 0.0
C2661 C 0.20264 0.05645 0.06814 0.0
C2662 C 0.21445 0.0496 0.05244 0.0
C2663 C 0.23433 0.06517 0.04053 0.0
C2664 C 0.24338 0.05302 0.02434 0.0
C2665 C 0.24423 0.05966 0.99681 0.0
C2666 C 0.26691 0.05784 0.0335 0.0
C2667 C 0.22526 0.02831 0.02878 0.0
C2668 C 0.20878 0.0268 0.04508 0.0
C2669 C 0.18988 0.00594 0.05142 0.0
C2670 C 0.18774 0.98602 0.04086 0.0
C2671 C 0.20449 0.98696 0.02421 0.0
C2672 C 0.22355 0.00854 0.01826 0.0
H2673 H 0.89842 0.1579 0.04199 0.0
H2674 H 0.91336 0.11379 0.08698 0.0
H2675 H 0.95131 0.13002 0.06671 0.0
H2676 H 0.92627 0.1556 0.9855 0.0
H2677 H 0.93675 0.18517 0.97802 0.0
H2678 H 0.91064 0.16936 0.99541 0.0
H2679 H 0.92702 0.19957 0.03057 0.0
H2680 H 0.95316 0.2155 1.01332 0.0
H2681 H 0.95389 0.20651 0.04472 0.0
H2682 H 0.98761 0.15136 0.04125 0.0
H2683 H 0.0201 0.17731 0.01472 0.0
H2684 H 0.98137 0.20841 0.98796 0.0
C2685 C 0.9095 0.15136 0.04731 0.0
C2686 C 0.90288 0.13437 0.06583 0.0
C2687 C 0.91816 0.12679 0.07282 0.0
C2688 C 0.93964 0.13582 0.06133 0.0
C2689 C 0.94557 0.15253 0.04305 0.0
C2690 C 0.93096 0.16031 0.03624 0.0
C2691 C 0.94167 0.17908 0.01697 0.0
C2692 C 0.92802 0.17186 0.99253 0.0
C2693 C 0.94408 0.20149 0.02701 0.0
C2694 C 0.96469 0.18073 0.01395 0.0
C2695 C 0.96656 0.16518 0.029 0.0
C2696 C 0.98636 0.16367 0.0295 0.0
C2697 C 0.0048 0.17863 0.01446 0.0
C2698 C 0.00345 0.19509 0.99928 0.0
C2699 C 0.98296 0.19589 0.999 0.0
H2700 H 0.77497 0.77135 0.02328 0.0
H2701 H 0.82297 0.84129 1.00278 0.0
H2702 H 0.85507 0.83587 0.01535 0.0
H2703 H 0.80696 0.76806 0.07691 0.0
H2704 H 0.79988 0.73912 0.07034 0.0
H2705 H 0.78049 0.7489 0.06156 0.0
H2706 H 0.78122 0.73676 0.01598 0.0
H2707 H 0.80072 0.72709 0.02458 0.0
H2708 H 0.80819 0.74782 1.00006 0.0
H2709 H 0.88185 0.82298 0.02897 0.0
H2710 H 0.90219 0.80294 0.04194 0.0
H2711 H 0.83749 0.74056 0.05213 0.0
C2712 C 0.79226 0.78554 0.02189 0.0
C2713 C 0.79662 0.80681 1.01231 0.0
C2714 C 0.81939 0.82493 1.01019 0.0
C2715 C 0.83768 0.82202 0.01729 0.0
C2716 C 0.83293 0.80079 0.0263 0.0
C2717 C 0.81083 0.78281 0.02859 0.0
C2718 C 0.81069 0.76148 0.03769 0.0
C2719 C 0.7988 0.75395 0.06314 0.0
C2720 C 0.79955 0.74215 0.01842 0.0
C2721 C 0.83613 0.77028 0.03987 0.0
C2722 C 0.84857 0.79308 0.03347 0.0
C2723 C 0.87232 0.80515 0.03411 0.0
C2724 C 0.88372 0.79365 0.04159 0.0
C2725 C 0.87143 0.77025 0.04808 0.0
C2726 C 0.8473 0.75841 0.04708 0.0
H2727 H 0.01157 0.20299 0.541 0.0
H2728 H 0.96583 0.15317 0.48728 0.0
H2729 H 0.99883 0.16126 0.46066 0.0
H2730 H 0.04901 0.24331 0.49832 0.0
H2731 H 0.07456 0.2514 0.51603 0.0
H2732 H 0.04761 0.24066 0.53176 0.0
H2733 H 0.05281 0.20901 0.5526 0.0
H2734 H 0.07997 0.21989 0.53719 0.0
H2735 H 0.05832 0.19038 0.53346 0.0
H2736 H 0.03649 0.1769 0.43853 0.0
H2737 H 0.07618 0.1972 0.42355 0.0
H2738 H 0.09742 0.2354 0.49283 0.0
C2739 C 0.00849 0.19332 0.52396 0.0
C2740 C 0.98606 0.17745 0.51623 0.0
C2741 C 0.98281 0.1656 0.49347 0.0
C2742 C 1.00145 0.17 0.47828 0.0
C2743 C 0.02325 0.18614 0.4862 0.0
C2744 C 0.02688 0.19742 0.50865 0.0
C2745 C 0.05194 0.21447 0.51251 0.0
C2746 C 0.056 0.2389 0.51478 0.0
C2747 C 0.06131 0.20804 0.53529 0.0
C2748 C 0.06178 0.21129 0.48852 0.0
C2749 C 0.04497 0.19488 0.47362 0.0
C2750 C 0.04985 0.18956 0.4502 0.0
C2751 C 0.07254 0.20119 0.44188 0.0
C2752 C 0.09017 0.21796 0.45696 0.0
C2753 C 0.08451 0.22293 0.48062 0.0
H2754 H 0.80724 0.8049 0.51915 0.0
H2755 H 0.76436 0.74569 0.47388 0.0
H2756 H 0.74823 0.76711 0.45295 0.0
H2757 H 0.76778 0.8245 0.52781 0.0
H2758 H 0.78878 0.85435 0.52523 0.0
H2759 H 0.79703 0.83442 0.53638 0.0
H2760 H 0.82791 0.84756 0.5019 0.0
H2761 H 0.81977 0.86758 0.49067 0.0
H2762 H 0.81979 0.84672 0.46979 0.0
H2763 H 0.73452 0.79405 0.43968 0.0
H2764 H 0.72722 0.82605 0.43187 0.0
H2765 H 0.78141 0.86863 0.48287 0.0
C2766 C 0.79454 0.79658 0.50473 0.0
C2767 C 0.78689 0.7737 0.49808 0.0
C2768 C 0.7704 0.76327 0.47906 0.0
C2769 C 0.76114 0.77526 0.46717 0.0
C2770 C 0.7689 0.79779 0.47424 0.0
C2771 C 0.7855 0.80847 0.49228 0.0
C2772 C 0.79115 0.83293 0.49612 0.0
C2773 C 0.78586 0.83676 0.52298 0.0
C2774 C 0.81614 0.84968 0.4892 0.0
C2775 C 0.77486 0.83422 0.47775 0.0
C2776 C 0.762 0.8137 0.46549 0.0
C2777 C 0.74478 0.81032 0.44882 0.0
C2778 C 0.74069 0.82844 0.44452 0.0
C2779 C 0.75407 0.84966 0.45646 0.0
C2780 C 0.77139 0.85261 0.47316 0.0
H2781 H 0.23414 0.01249 0.50269 0.0
H2782 H 0.21145 0.00368 0.57975 0.0
H2783 H 0.18397 0.96344 0.5715 0.0
H2784 H 0.1768 0.97631 0.47726 0.0
H2785 H 0.18667 0.96516 0.45274 0.0
H2786 H 0.20513 0.99345 0.46467 0.0
H2787 H 0.23603 0.98259 0.47426 0.0
H2788 H 0.21762 0.95422 0.46256 0.0
H2789 H 0.22892 0.95819 0.49368 0.0
H2790 H 0.16085 0.92361 0.55609 0.0
H2791 H 0.13983 0.88742 0.53271 0.0
H2792 H 0.17387 0.92227 0.46472 0.0
C2793 C 0.22322 0.00226 0.51779 0.0
C2794 C 0.22557 0.01137 0.54208 0.0
C2795 C 0.2108 0.99714 0.56121 0.0
C2796 C 0.19489 0.97421 0.55668 0.0
C2797 C 0.19344 0.96573 0.53277 0.0
C2798 C 0.20682 0.97936 0.51349 0.0
C2799 C 0.20127 0.96596 0.48935 0.0
C2800 C 0.19191 0.97581 0.46985 0.0
C2801 C 0.22221 0.9652 0.47938 0.0
C2802 C 0.1829 0.94265 0.49823 0.0
C2803 C 0.17889 0.9429 0.52344 0.0
C2804 C 0.16359 0.92324 0.53628 0.0
C2805 C 0.15186 0.90279 0.52295 0.0
C2806 C 0.1552 0.90225 0.49703 0.0
C2807 C 0.17087 0.92243 0.4845 0.0
H2808 H 0.81257 0.02178 0.03787 0.0
H2809 H 0.75927 0.0277 0.99975 0.0
H2810 H 0.74633 0.99029 0.97958 0.0
H2811 H 0.82575 0.99492 0.98705 0.0
H2812 H 0.83089 0.97677 1.00736 0.0
H2813 H 0.83613 0.00417 0.01822 0.0
H2814 H 0.80914 0.9847 0.05574 0.0
H2815 H 0.80379 0.95725 0.04498 0.0
H2816 H 0.78028 0.96219 0.0502 0.0
H2817 H 0.73782 0.95097 0.96568 0.0
H2818 H 0.73614 0.91417 0.95701 0.0
H2819 H 0.79576 0.93485 1.00325 0.0
C2820 C 0.79818 0.0152 0.02526 0.0
C2821 C 0.78686 0.02758 0.02041 0.0
C2822 C 0.76828 0.01856 1.00356 0.0
C2823 C 0.76076 0.9973 0.99213 0.0
C2824 C 0.77216 0.98542 0.99754 0.0
C2825 C 0.79062 0.99417 1.01353 0.0
C2826 C 0.79995 0.97808 0.01626 0.0
C2827 C 0.82464 0.98915 1.00664 0.0
C2828 C 0.79817 0.97008 0.0434 0.0
C2829 C 0.78372 0.95876 0.99952 0.0
C2830 C 0.76772 0.96322 0.98899 0.0
C2831 C 0.7504 0.9474 0.97364 0.0
C2832 C 0.7495 0.92654 0.96891 0.0
C2833 C 0.76592 0.9218 0.97928 0.0
C2834 C 0.78325 0.93821 0.9947 0.0
H2835 H 0.99122 0.7935 1.00328 0.0
H2836 H 0.99907 0.73405 1.01172 0.0
H2837 H 0.03933 0.75672 0.99833 0.0
H2838 H 0.02924 0.81824 0.9489 0.0
H2839 H 0.04062 0.84708 0.95989 0.0
H2840 H 0.01185 0.82565 0.9678 0.0
H2841 H 0.02125 0.83457 0.01462 0.0
H2842 H 0.05005 0.85591 1.00688 0.0
H2843 H 0.04494 0.83301 0.0278 0.0
H2844 H 0.07916 0.78622 0.98655 0.0
H2845 H 0.11595 0.82054 0.97711 0.0
H2846 H 0.08274 0.86133 0.97764 0.0
C2847 C 1.00131 0.78519 1.00173 0.0
C2848 C 0.99206 0.76201 1.00834 0.0
C2849 C 0.0059 0.7518 1.00672 0.0
C2850 C 0.02873 0.76451 0.99907 0.0
C2851 C 0.03751 0.78745 0.99318 0.0
C2852 C 0.02425 0.79771 0.99435 0.0
C2853 C 0.03829 0.82297 0.98851 0.0
C2854 C 0.02947 0.82882 0.96487 0.0
C2855 C 0.03865 0.83746 1.01078 0.0
C2856 C 0.06154 0.82533 0.98421 0.0
C2857 C 0.06065 0.8046 0.98681 0.0
C2858 C 0.08006 0.80255 0.98438 0.0
C2859 C 0.10096 0.82223 0.97922 0.0
C2860 C 0.10241 0.84378 0.97668 0.0
C2861 C 0.08228 0.84517 0.9791 0.0
H2862 H 0.23042 0.24219 0.01875 0.0
H2863 H 0.20055 0.16948 1.00593 0.0
H2864 H 0.16623 0.16804 0.98829 0.0
H2865 H 0.178 0.24157 0.03506 0.0
H2866 H 0.18533 0.26768 0.01887 0.0
H2867 H 0.20752 0.26324 0.03139 0.0
H2868 H 0.22638 0.27037 0.98784 0.0
H2869 H 0.20435 0.27499 0.97524 0.0
H2870 H 0.20968 0.25372 0.96168 0.0
H2871 H 0.13524 0.17382 0.97315 0.0
H2872 H 0.11 0.18702 0.95693 0.0
H2873 H 0.15994 0.25676 0.9766 0.0
C2874 C 0.21659 0.22604 1.01219 0.0
C2875 C 0.21808 0.20594 1.01353 0.0
C2876 C 0.19979 0.18508 1.00474 0.0
C2877 C 0.18019 0.18406 0.9949 0.0
C2878 C 0.17919 0.20409 0.99381 0.0
C2879 C 0.19692 0.22477 1.00189 0.0
C2880 C 0.19161 0.24382 0.99745 0.0
C2881 C 0.19055 0.25472 0.02217 0.0
C2882 C 0.20904 0.26178 0.97948 0.0
C2883 C 0.16817 0.23055 0.98556 0.0
C2884 C 0.16135 0.20764 0.98403 0.0
C2885 C 0.14046 0.19175 0.97396 0.0
C2886 C 0.1263 0.19951 0.96461 0.0
C2887 C 0.13312 0.22303 0.96496 0.0
C2888 C 0.15422 0.2387 0.97606 0.0
H2889 H 0.92166 0.78447 0.53305 0.0
H2890 H 0.89132 0.71187 0.54723 0.0
H2891 H 0.92854 0.71458 0.5396 0.0
H2892 H 0.9593 0.7879 0.48409 0.0
H2893 H 0.98231 0.81536 0.49362 0.0
H2894 H 0.9532 0.80769 0.50007 0.0
H2895 H 0.96279 0.81569 0.54698 0.0
H2896 H 0.99193 0.82337 0.54068 0.0
H2897 H 0.97544 0.80136 0.56308 0.0
H2898 H 0.96905 0.72515 0.53048 0.0
H2899 H 0.00982 0.74266 0.51965 0.0
H2900 H 0.01415 0.80868 0.51279 0.0
C2901 C 0.92283 0.76915 0.53473 0.0
C2902 C 0.90344 0.74793 0.54068 0.0
C2903 C 0.90575 0.72826 0.54233 0.0
C2904 C 0.92689 0.72965 0.53821 0.0
C2905 C 0.94561 0.75084 0.53248 0.0
C2906 C 0.9438 0.77024 0.5307 0.0
C2907 C 0.96654 0.79091 0.52414 0.0
C2908 C 0.96525 0.80105 0.49898 0.0
C2909 C 0.97465 0.80889 0.54497 0.0
C2910 C 0.98142 0.78008 0.52248 0.0
C2911 C 0.96902 0.75697 0.5274 0.0
C2912 C 0.97898 0.74327 0.52675 0.0
C2913 C 0.00222 0.75343 0.52077 0.0
C2914 C 0.01531 0.77711 0.51554 0.0
C2915 C 0.00465 0.79053 0.51653 0.0
H2916 H 0.21878 0.13477 0.54089 0.0
H2917 H 0.28781 0.18198 0.56505 0.0
H2918 H 0.28329 0.2144 0.55162 0.0
H2919 H 0.22035 0.16534 0.48625 0.0
H2920 H 0.19117 0.15895 0.48883 0.0
H2921 H 0.19944 0.1395 0.50144 0.0
H2922 H 0.18371 0.14195 0.54465 0.0
H2923 H 0.17534 0.1614 0.53215 0.0
H2924 H 0.19378 0.16946 0.55895 0.0
H2925 H 0.27146 0.24168 0.53494 0.0
H2926 H 0.25371 0.26176 0.51469 0.0
H2927 H 0.1924 0.1968 0.50112 0.0
C2928 C 0.23281 0.15194 0.54361 0.0
C2929 C 0.25365 0.15586 0.55401 0.0
C2930 C 0.2718 0.17858 0.55688 0.0
C2931 C 0.26933 0.1971 0.54947 0.0
C2932 C 0.24863 0.19265 0.53912 0.0
C2933 C 0.2307 0.17063 0.53611 0.0
C2934 C 0.21056 0.1705 0.5236 0.0
C2935 C 0.20507 0.15782 0.49855 0.0
C2936 C 0.18961 0.16022 0.54088 0.0
C2937 C 0.22002 0.19586 0.51991 0.0
C2938 C 0.24193 0.20835 0.52918 0.0
C2939 C 0.25426 0.23209 0.52772 0.0
C2940 C 0.24399 0.24335 0.51631 0.0
C2941 C 0.22165 0.23087 0.50636 0.0
C2942 C 0.20956 0.20681 0.50838 0.0
H2943 H 0.77909 0.98341 0.54307 0.0
H2944 H 0.80283 0.99491 0.46656 0.0
H2945 H 0.83235 0.03428 0.47714 0.0
H2946 H 0.78472 0.0372 0.55264 0.0
H2947 H 0.7944 0.04035 0.5844 0.0
H2948 H 0.77656 0.01232 0.57162 0.0
H2949 H 0.80683 1.00102 0.58299 0.0
H2950 H 0.82467 0.02896 0.59611 0.0
H2951 H 0.83579 0.01843 0.57223 0.0
H2952 H 0.85705 0.07307 0.49501 0.0
H2953 H 0.87713 0.10837 0.51986 0.0
H2954 H 0.83718 0.07192 0.58469 0.0
C2955 C 0.79091 0.99408 0.52876 0.0
C2956 C 0.78878 0.98622 0.50403 0.0
C2957 C 0.80419 1.00074 0.4856 0.0
C2958 C 0.821 0.02307 0.49143 0.0
C2959 C 0.82222 0.03057 0.51579 0.0
C2960 C 0.80777 0.0165 0.53425 0.0
C2961 C 0.81205 0.0292 0.55866 0.0
C2962 C 0.79066 0.0298 0.56733 0.0
C2963 C 0.82033 0.01878 0.57868 0.0
C2964 C 0.83087 0.05265 0.55089 0.0
C2965 C 0.83652 0.05305 0.52612 0.0
C2966 C 0.85292 0.07296 0.5145 0.0
C2967 C 0.86406 0.09297 0.52869 0.0
C2968 C 0.85873 0.09291 0.55421 0.0
C2969 C 0.84185 0.07243 0.56533 0.0
H2970 H 0.87858 0.3293 0.39603 0.0
H2971 H 0.85019 0.32413 0.32236 0.0
H2972 H 0.85521 0.36261 0.32688 0.0
H2973 H 0.85429 0.3633 0.4244 0.0
H2974 H 0.87951 0.38026 0.44278 0.0
H2975 H 0.87119 0.35117 0.43515 0.0
H2976 H 0.91109 0.36488 0.41585 0.0
H2977 H 0.91946 0.39398 0.42322 0.0
H2978 H 0.92133 0.38614 0.39159 0.0
H2979 H 0.86777 0.40286 0.33656 0.0
H2980 H 0.88488 0.44231 0.35246 0.0
H2981 H 0.90402 0.42198 0.42062 0.0
C2982 C 0.87285 0.33608 0.38122 0.0
C2983 C 0.86404 0.32382 0.35882 0.0
C2984 C 0.85712 0.33336 0.33959 0.0
C2985 C 0.85982 0.35514 0.34202 0.0
C2986 C 0.86926 0.36715 0.36392 0.0
C2987 C 0.87542 0.35795 0.38336 0.0
C2988 C 0.88649 0.37521 0.40421 0.0
C2989 C 0.872 0.36699 0.42805 0.0
C2990 C 0.91104 0.38035 0.40898 0.0
C2991 C 0.88618 0.39567 0.39306 0.0
C2992 C 0.87608 0.39054 0.36983 0.0
C2993 C 0.87531 0.407 0.35493 0.0
C2994 C 0.88517 0.42933 0.364 0.0
C2995 C 0.89548 0.43499 0.38777 0.0
C2996 C 0.89575 0.41788 0.4026 0.0
H2997 H 0.56635 0.49947 0.37949 0.0
H2998 H 0.57843 0.4433 0.39461 0.0
H2999 H 0.61859 0.46732 0.38252 0.0
H3000 H 0.60264 0.51994 0.32482 0.0
H3001 H 0.61268 0.54957 0.3315 0.0
H3002 H 0.58473 0.52803 0.34172 0.0
H3003 H 0.59524 0.5427 0.38704 0.0
H3004 H 0.62328 0.56418 0.37699 0.0
H3005 H 0.6202 0.54441 0.40122 0.0
H3006 H 0.65753 0.49726 0.3695 0.0
H3007 H 0.69239 0.53073 0.35358 0.0
H3008 H 0.65537 0.56748 0.34578 0.0
C3009 C 0.57733 0.49212 0.38006 0.0
C3010 C 0.56911 0.46948 0.38839 0.0
C3011 C 0.58426 0.46068 0.38891 0.0
C3012 C 0.60716 0.47417 0.38192 0.0
C3013 C 0.61474 0.49644 0.37423 0.0
C3014 C 0.60029 0.50534 0.373 0.0
C3015 C 0.61285 0.52975 0.36365 0.0
C3016 C 0.60261 0.53194 0.33895 0.0
C3017 C 0.61289 0.54623 0.38341 0.0
C3018 C 0.63657 0.53311 0.35988 0.0
C3019 C 0.63727 0.5137 0.36625 0.0
C3020 C 0.65724 0.5126 0.36446 0.0
C3021 C 0.677 0.53177 0.3556 0.0
C3022 C 0.67667 0.55177 0.34855 0.0
C3023 C 0.65614 0.5524 0.35089 0.0
H3024 H 0.44384 0.09499 0.33503 0.0
H3025 H 0.47995 0.16604 0.3577 0.0
H3026 H 0.51162 0.1614 0.3736 0.0
H3027 H 0.45994 0.07365 0.38809 0.0
H3028 H 0.46285 0.05248 0.37063 0.0
H3029 H 0.44321 0.06145 0.36036 0.0
H3030 H 0.46309 0.07214 0.31726 0.0
H3031 H 0.48282 0.06325 0.32742 0.0
H3032 H 0.49339 0.09169 0.31551 0.0
H3033 H 0.53946 0.14945 0.38637 0.0
H3034 H 0.56123 0.13065 0.39732 0.0
H3035 H 0.50656 0.06652 0.36834 0.0
C3036 C 0.45849 0.10956 0.34324 0.0
C3037 C 0.45946 0.13088 0.34521 0.0
C3038 C 0.47877 0.14951 0.35627 0.0
C3039 C 0.49689 0.14707 0.36521 0.0
C3040 C 0.49539 0.12585 0.36308 0.0
C3041 C 0.47667 0.10736 0.35253 0.0
C3042 C 0.47918 0.08628 0.35325 0.0
C3043 C 0.46016 0.06735 0.36903 0.0
C3044 C 0.47965 0.07785 0.32678 0.0
C3045 C 0.50225 0.09588 0.36581 0.0
C3046 C 0.5113 0.11876 0.37114 0.0
C3047 C 0.53246 0.13148 0.3825 0.0
C3048 C 0.54466 0.1205 0.38884 0.0
C3049 C 0.53565 0.09689 0.38408 0.0
C3050 C 0.51413 0.08454 0.37221 0.0
H3051 H 0.68797 0.57882 0.87098 0.0
H3052 H 0.64563 0.51269 0.83636 0.0
H3053 H 0.67973 0.51484 0.81733 0.0
H3054 H 0.72787 0.60439 0.82072 0.0
H3055 H 0.75244 0.61944 0.84059 0.0
H3056 H 0.72467 0.61308 0.8515 0.0
H3057 H 0.72893 0.5924 0.88995 0.0
H3058 H 0.75676 0.59879 0.8792 0.0
H3059 H 0.7352 0.56968 0.88547 0.0
H3060 H 0.71778 0.52403 0.80149 0.0
H3061 H 0.75807 0.53914 0.79076 0.0
H3062 H 0.77675 0.59854 0.83716 0.0
C3063 C 0.68589 0.56473 0.85954 0.0
C3064 C 0.664 0.54573 0.8549 0.0
C3065 C 0.66207 0.5277 0.83971 0.0
C3066 C 0.68138 0.52866 0.82895 0.0
C3067 C 0.70259 0.54767 0.83367 0.0
C3068 C 0.70506 0.56533 0.8487 0.0
C3069 C 0.72998 0.58367 0.85087 0.0
C3070 C 0.73397 0.60649 0.84029 0.0
C3071 C 0.7382 0.58628 0.87799 0.0
C3072 C 0.74102 0.57351 0.83464 0.0
C3073 C 0.72484 0.55277 0.8249 0.0
C3074 C 0.73067 0.54016 0.80917 0.0
C3075 C 0.75372 0.54887 0.80332 0.0
C3076 C 0.7708 0.56998 0.81328 0.0
C3077 C 0.76421 0.58245 0.82909 0.0
H3078 H 0.45551 0.2085 0.8107 0.0
H3079 H 0.38158 0.16734 0.8093 0.0
H3080 H 0.38416 0.13312 0.81877 0.0
H3081 H 0.46651 0.16526 0.78232 0.0
H3082 H 0.49116 0.17307 0.80154 0.0
H3083 H 0.48362 0.19424 0.79306 0.0
H3084 H 0.48249 0.20351 0.83968 0.0
H3085 H 0.49002 0.18242 0.84829 0.0
H3086 H 0.46453 0.18085 0.8608 0.0
H3087 H 0.39443 0.10407 0.83194 0.0
H3088 H 0.41205 0.08193 0.84726 0.0
H3089 H 0.47927 0.14116 0.83805 0.0
C3090 C 0.43987 0.19225 0.81189 0.0
C3091 C 0.41833 0.19073 0.80939 0.0
C3092 C 0.39827 0.16911 0.81156 0.0
C3093 C 0.39956 0.14949 0.8167 0.0
C3094 C 0.42103 0.15167 0.81937 0.0
C3095 C 0.44084 0.17245 0.81689 0.0
C3096 C 0.46173 0.17024 0.82175 0.0
C3097 C 0.47664 0.17604 0.79826 0.0
C3098 C 0.47549 0.18514 0.84395 0.0
C3099 C 0.45052 0.14508 0.82791 0.0
C3100 C 0.42701 0.13467 0.82631 0.0
C3101 C 0.41282 0.11189 0.83283 0.0
C3102 C 0.42291 0.09948 0.84151 0.0
C3103 C 0.44691 0.10985 0.84337 0.0
C3104 C 0.46089 0.1328 0.83616 0.0
H3105 H 0.83899 0.24942 0.79359 0.0
H3106 H 0.79224 0.2236 0.85588 0.0
H3107 H 0.81262 0.26161 0.87608 0.0
H3108 H 0.88868 0.28319 0.82957 0.0
H3109 H 0.90193 0.30627 0.80749 0.0
H3110 H 0.88245 0.27779 0.79684 0.0
H3111 H 0.85785 0.29227 0.77522 0.0
H3112 H 0.8773 0.32084 0.78579 0.0
H3113 H 0.84734 0.30766 0.79312 0.0
H3114 H 0.83868 0.30139 0.89009 0.0
H3115 H 0.86972 0.3405 0.89831 0.0
H3116 H 0.90121 0.34078 0.82769 0.0
C3117 C 0.83295 0.2521 0.81125 0.0
C3118 C 0.81398 0.23399 0.82322 0.0
C3119 C 0.80665 0.23757 0.84654 0.0
C3120 C 0.81808 0.259 0.85804 0.0
C3121 C 0.8369 0.27658 0.84594 0.0
C3122 C 0.84438 0.27342 0.8231 0.0
C3123 C 0.86594 0.29483 0.81497 0.0
C3124 C 0.88593 0.29024 0.81206 0.0
C3125 C 0.86185 0.30447 0.79084 0.0
C3126 C 0.86955 0.31039 0.83694 0.0
C3127 C 0.85244 0.29952 0.85443 0.0
C3128 C 0.85219 0.31008 0.87656 0.0
C3129 C 0.87004 0.33226 0.88114 0.0
C3130 C 0.8881 0.34367 0.8638 0.0
C3131 C 0.8876 0.33261 0.84124 0.0
H3132 H 0.40865 0.23637 0.32909 0.0
H3133 H 0.47648 0.25199 0.30566 0.0
H3134 H 0.49138 0.29218 0.31639 0.0
H3135 H 0.41165 0.28756 0.30758 0.0
H3136 H 0.39688 0.29069 0.3339 0.0
H3137 H 0.39109 0.26273 0.32455 0.0
H3138 H 0.40099 0.2553 0.36887 0.0
H3139 H 0.40661 0.28317 0.37843 0.0
H3140 H 0.42819 0.27521 0.38236 0.0
H3141 H 0.49897 0.33093 0.32761 0.0
H3142 H 0.49941 0.36565 0.3425 0.0
H3143 H 0.42747 0.32544 0.36105 0.0
C3144 C 0.42667 0.24813 0.32648 0.0
C3145 C 0.44122 0.24085 0.31603 0.0
C3146 C 0.46474 0.25702 0.31294 0.0
C3147 C 0.47347 0.27997 0.31915 0.0
C3148 C 0.45862 0.28662 0.32881 0.0
C3149 C 0.4358 0.2712 0.33285 0.0
C3150 C 0.4237 0.28299 0.34384 0.0
C3151 C 0.40471 0.28086 0.32642 0.0
C3152 C 0.41432 0.27361 0.36993 0.0
C3153 C 0.44329 0.30742 0.3451 0.0
C3154 C 0.46322 0.30909 0.33614 0.0
C3155 C 0.48352 0.32987 0.33479 0.0
C3156 C 0.48356 0.34951 0.3431 0.0
C3157 C 0.46347 0.34823 0.3528 0.0
C3158 C 0.44308 0.32687 0.35379 0.0
H3159 H 0.77036 0.17288 0.34755 0.0
H3160 H 0.76105 0.18662 0.2711 0.0
H3161 H 0.72062 0.15567 0.27279 0.0
H3162 H 0.73093 0.11042 0.34711 0.0
H3163 H 0.72055 0.1105 0.37801 0.0
H3164 H 0.74937 0.13136 0.36953 0.0
H3165 H 0.74169 0.16381 0.38252 0.0
H3166 H 0.71287 0.14311 0.39091 0.0
H3167 H 0.71812 0.16521 0.36875 0.0
H3168 H 0.68089 0.12485 0.28375 0.0
H3169 H 0.64425 0.09774 0.30337 0.0
H3170 H 0.679 0.10671 0.37403 0.0
C3171 C 0.75989 0.16882 0.33102 0.0
C3172 C 0.76869 0.18167 0.30904 0.0
C3173 C 0.75447 0.17667 0.28796 0.0
C3174 C 0.7316 0.15915 0.28878 0.0
C3175 C 0.72323 0.14705 0.31094 0.0
C3176 C 0.73692 0.15172 0.33173 0.0
C3177 C 0.72323 0.13784 0.35395 0.0
C3178 C 0.73152 0.12156 0.36266 0.0
C3179 C 0.72403 0.15342 0.37528 0.0
C3180 C 0.69966 0.12486 0.34252 0.0
C3181 C 0.70009 0.13014 0.31762 0.0
C3182 C 0.68033 0.1206 0.30325 0.0
C3183 C 0.65954 0.10537 0.31468 0.0
C3184 C 0.65854 0.10008 0.34037 0.0
C3185 C 0.67903 0.10996 0.35431 0.0
H3186 H 0.82676 0.60021 0.29892 0.0
H3187 H 0.76641 0.53301 0.29538 0.0
H3188 H 0.78902 0.51576 0.30955 0.0
H3189 H 0.86709 0.58281 0.27782 0.0
H3190 H 0.88944 0.60206 0.29848 0.0
H3191 H 0.86874 0.60921 0.28708 0.0
H3192 H 0.85858 0.61394 0.3324 0.0
H3193 H 0.87925 0.60684 0.34393 0.0
H3194 H 0.84998 0.59075 0.35413 0.0
H3195 H 0.81724 0.50591 0.32644 0.0
H3196 H 0.85002 0.50395 0.34382 0.0
H3197 H 0.8926 0.57725 0.3357 0.0
C3198 C 0.81835 0.58187 0.3011 0.0
C3199 C 0.79482 0.56795 0.29592 0.0
C3200 C 0.78445 0.54399 0.29883 0.0
C3201 C 0.79713 0.53403 0.307 0.0
C3202 C 0.82022 0.54823 0.31201 0.0
C3203 C 0.83082 0.57161 0.30905 0.0
C3204 C 0.85584 0.58295 0.31611 0.0
C3205 C 0.87118 0.59496 0.29352 0.0
C3206 C 0.86122 0.5996 0.33794 0.0
C3207 C 0.85752 0.5623 0.32387 0.0
C3208 C 0.83674 0.54246 0.32135 0.0
C3209 C 0.83366 0.52129 0.32829 0.0
C3210 C 0.8523 0.52034 0.33821 0.0
C3211 C 0.87375 0.54042 0.34096 0.0
C3212 C 0.87643 0.56163 0.33345 0.0
H3213 H 0.59068 0.12241 0.85496 0.0
H3214 H 0.56115 0.05446 0.88669 0.0
H3215 H 0.59865 0.05687 0.88466 0.0
H3216 H 0.6295 0.11743 0.81284 0.0
H3217 H 0.65201 0.14649 0.81723 0.0
H3218 H 0.62266 0.13923 0.82077 0.0
H3219 H 0.6315 0.15655 0.86514 0.0
H3220 H 0.66084 0.16367 0.86184 0.0
H3221 H 0.64409 0.14638 0.88766 0.0
H3222 H 0.63928 0.06671 0.87991 0.0
H3223 H 0.68017 0.08254 0.87047 0.0
H3224 H 0.68382 0.14442 0.84241 0.0
C3225 C 0.59209 0.10805 0.86152 0.0
C3226 C 0.57284 0.0882 0.87089 0.0
C3227 C 0.57543 0.06969 0.87902 0.0
C3228 C 0.59676 0.07098 0.87819 0.0
C3229 C 0.61538 0.0909 0.86919 0.0
C3230 C 0.61327 0.10906 0.86084 0.0
C3231 C 0.63601 0.12843 0.85186 0.0
C3232 C 0.63497 0.13316 0.82402 0.0
C3233 C 0.64355 0.15003 0.86757 0.0
C3234 C 0.65122 0.11828 0.85644 0.0
C3235 C 0.63895 0.09665 0.86653 0.0
C3236 C 0.64908 0.08362 0.872 0.0
C3237 C 0.67228 0.09274 0.86655 0.0
C3238 C 0.68514 0.11468 0.85572 0.0
C3239 C 0.6745 0.12774 0.85099 0.0
H3240 H 0.87274 0.54303 0.82879 0.0
H3241 H 0.92031 0.59914 0.87515 0.0
H3242 H 0.93435 0.57455 0.89288 0.0
H3243 H 0.85852 0.49865 0.87531 0.0
H3244 H 0.85599 0.47786 0.85264 0.0
H3245 H 0.84978 0.49989 0.84393 0.0
H3246 H 0.87929 0.51227 0.80808 0.0
H3247 H 0.88568 0.49036 0.81674 0.0
H3248 H 0.90827 0.51967 0.81498 0.0
H3249 H 0.945 0.5445 0.90299 0.0
H3250 H 0.94873 0.5101 0.90811 0.0
H3251 H 0.89226 0.47288 0.85743 0.0
C3252 C 0.88603 0.55003 0.84278 0.0
C3253 C 0.89561 0.57292 0.85061 0.0
C3254 C 0.9128 0.58158 0.86905 0.0
C3255 C 0.92089 0.56778 0.87911 0.0
C3256 C 0.91127 0.5453 0.87078 0.0
C3257 C 0.89396 0.53638 0.85333 0.0
C3258 C 0.88623 0.5116 0.84783 0.0
C3259 C 0.86114 0.49609 0.85539 0.0
C3260 C 0.89011 0.5083 0.82028 0.0
C3261 C 0.90214 0.50803 0.86462 0.0
C3262 C 0.91661 0.52773 0.87752 0.0
C3263 C 0.93357 0.52891 0.89322 0.0
C3264 C 0.93566 0.5094 0.89592 0.0
C3265 C 0.92068 0.48894 0.88328 0.0
C3266 C 0.90367 0.48827 0.86754 0.0
H3267 H 0.45743 0.33505 0.8797 0.0
H3268 H 0.4748 0.3425 0.80111 0.0
H3269 H 0.50574 0.3818 0.80851 0.0
H3270 H 0.46609 0.38951 0.88956 0.0
H3271 H 0.479 0.39375 0.91987 0.0
H3272 H 0.45942 0.36534 0.90916 0.0
H3273 H 0.48996 0.3535 0.91627 0.0
H3274 H 0.50959 0.38184 0.92731 0.0
H3275 H 0.51767 0.36984 0.90198 0.0
H3276 H 0.5311 0.42154 0.82302 0.0
H3277 H 0.55285 0.45837 0.84522 0.0
H3278 H 0.52145 0.42498 0.91477 0.0
C3279 C 0.46814 0.34476 0.8642 0.0
C3280 C 0.46344 0.33583 0.83977 0.0
C3281 C 0.47773 0.34916 0.81991 0.0
C3282 C 0.49546 0.37146 0.82393 0.0
C3283 C 0.49906 0.3801 0.848 0.0
C3284 C 0.48618 0.36708 0.86793 0.0
C3285 C 0.49328 0.38088 0.8918 0.0
C3286 C 0.47325 0.38246 0.90326 0.0
C3287 C 0.50322 0.37092 0.91044 0.0
C3288 C 0.51159 0.4038 0.88195 0.0
C3289 C 0.5146 0.40296 0.85662 0.0
C3290 C 0.52928 0.42235 0.84296 0.0
C3291 C 0.5414 0.44316 0.8556 0.0
C3292 C 0.53893 0.4443 0.88161 0.0
C3293 C 0.52392 0.42435 0.89493 0.0
H3294 H 0.57448 0.68793 0.6678 0.0
H3295 H 0.51233 0.65147 0.71152 0.0
H3296 H 0.52045 0.68743 0.73153 0.0
H3297 H 0.6089 0.72923 0.71496 0.0
H3298 H 0.62282 0.75253 0.69325 0.0
H3299 H 0.61301 0.72371 0.68308 0.0
H3300 H 0.58913 0.7283 0.64826 0.0
H3301 H 0.59898 0.75716 0.65822 0.0
H3302 H 0.56881 0.73712 0.65632 0.0
H3303 H 0.53434 0.72711 0.7461 0.0
H3304 H 0.55245 0.76856 0.75305 0.0
H3305 H 0.60491 0.78013 0.699 0.0
C3306 C 0.56253 0.68748 0.68154 0.0
C3307 C 0.5429 0.66665 0.68828 0.0
C3308 C 0.5278 0.66696 0.70643 0.0
C3309 C 0.53217 0.68737 0.71784 0.0
C3310 C 0.55167 0.70748 0.71087 0.0
C3311 C 0.56656 0.70778 0.69306 0.0
C3312 C 0.58581 0.73196 0.68836 0.0
C3313 C 0.60901 0.7345 0.69533 0.0
C3314 C 0.58566 0.73905 0.66118 0.0
C3315 C 0.57924 0.74516 0.70616 0.0
C3316 C 0.55956 0.73062 0.71905 0.0
C3317 C 0.54976 0.73868 0.73613 0.0
C3318 C 0.56012 0.76227 0.73986 0.0
C3319 C 0.58006 0.77763 0.72654 0.0
C3320 C 0.58988 0.76884 0.70972 0.0
H3321 H 0.3389 0.85166 0.67199 0.0
H3322 H 0.35618 0.90867 0.72141 0.0
H3323 H 0.32023 0.88535 0.74477 0.0
H3324 H 0.2805 0.83188 0.66761 0.0
H3325 H 0.27176 0.80198 0.66772 0.0
H3326 H 0.29956 0.82252 0.65621 0.0
H3327 H 0.3184 0.80778 0.6875 0.0
H3328 H 0.2906 0.78706 0.69904 0.0
H3329 H 0.31203 0.80681 0.72023 0.0
H3330 H 0.28025 0.85753 0.75891 0.0
H3331 H 0.24078 0.8256 0.76574 0.0
H3332 H 0.25099 0.78583 0.70941 0.0
C3333 C 0.33522 0.85904 0.68799 0.0
C3334 C 0.35015 0.88187 0.69502 0.0
C3335 C 0.34493 0.8911 0.71598 0.0
C3336 C 0.32457 0.87803 0.72925 0.0
C3337 C 0.30994 0.85566 0.72156 0.0
C3338 C 0.31522 0.8461 0.70171 0.0
C3339 C 0.29638 0.82187 0.69689 0.0
C3340 C 0.28647 0.81944 0.67055 0.0
C3341 C 0.30486 0.80488 0.70118 0.0
C3342 C 0.27937 0.81951 0.71665 0.0
C3343 C 0.28745 0.83923 0.73062 0.0
C3344 C 0.27395 0.84182 0.74851 0.0
C3345 C 0.25164 0.82375 0.75222 0.0
C3346 C 0.2433 0.80335 0.7384 0.0
C3347 C 0.25738 0.80113 0.7206 0.0
H3348 H 0.09885 0.44242 0.69088 0.0
H3349 H 0.1243 0.46411 0.61578 0.0
H3350 H 0.15545 0.45608 0.62376 0.0
H3351 H 0.15511 0.46597 0.72045 0.0
H3352 H 0.14566 0.44248 0.74192 0.0
H3353 H 0.12582 0.45088 0.73075 0.0
H3354 H 0.09896 0.40967 0.71517 0.0
H3355 H 0.11871 0.40116 0.72623 0.0
H3356 H 0.10986 0.39663 0.69411 0.0
H3357 H 0.18229 0.44347 0.63868 0.0
H3358 H 0.20402 0.42821 0.66042 0.0
H3359 H 0.1622 0.41582 0.72621 0.0
C3360 C 0.11118 0.4458 0.67626 0.0
C3361 C 0.10896 0.45365 0.65262 0.0
C3362 C 0.12534 0.45765 0.63388 0.0
C3363 C 0.14322 0.45332 0.63828 0.0
C3364 C 0.14468 0.44521 0.6616 0.0
C3365 C 0.12924 0.44164 0.68036 0.0
C3366 C 0.13439 0.43221 0.70351 0.0
C3367 C 0.14062 0.44888 0.72545 0.0
C3368 C 0.11428 0.40851 0.71013 0.0
C3369 C 0.1549 0.43074 0.69464 0.0
C3370 C 0.16056 0.43836 0.67042 0.0
C3371 C 0.17819 0.43767 0.65775 0.0
C3372 C 0.19034 0.42887 0.67015 0.0
C3373 C 0.18486 0.42098 0.69499 0.0
C3374 C 0.16703 0.42215 0.70739 0.0
H3375 H 0.32722 0.8589 0.16434 0.0
H3376 H 0.33603 0.92548 0.18096 0.0
H3377 H 0.37435 0.94389 0.16154 0.0
H3378 H 0.38267 0.87274 0.18022 0.0
H3379 H 0.38582 0.85575 0.15637 0.0
H3380 H 0.3579 0.84784 0.1681 0.0
H3381 H 0.34417 0.84878 0.12332 0.0
H3382 H 0.37208 0.85664 0.11142 0.0
H3383 H 0.35963 0.87421 0.10476 0.0
H3384 H 0.41253 0.95491 0.14355 0.0
H3385 H 0.44866 0.95801 0.12953 0.0
H3386 H 0.41587 0.88413 0.12658 0.0
C3387 C 0.33706 0.87733 0.16319 0.0
C3388 C 0.32876 0.8909 0.17366 0.0
C3389 C 0.34219 0.91495 0.17271 0.0
C3390 C 0.36388 0.92549 0.1617 0.0
C3391 C 0.37185 0.91169 0.15191 0.0
C3392 C 0.3589 0.88813 0.15257 0.0
C3393 C 0.37235 0.8773 0.14292 0.0
C3394 C 0.37483 0.86255 0.16311 0.0
C3395 C 0.3614 0.86341 0.11919 0.0
C3396 C 0.39501 0.89843 0.13727 0.0
C3397 C 0.39423 0.91807 0.14225 0.0
C3398 C 0.41332 0.93965 0.13947 0.0
C3399 C 0.43385 0.94123 0.13169 0.0
C3400 C 0.43525 0.92133 0.12704 0.0
C3401 C 0.41538 0.89969 0.12957 0.0
H3402 H 0.11421 0.52963 0.13305 0.0
H3403 H 0.04087 0.48994 0.12273 0.0
H3404 H 0.04214 0.4545 0.12928 0.0
H3405 H 0.12782 0.48914 0.10244 0.0
H3406 H 0.15022 0.49455 0.12424 0.0
H3407 H 0.14378 0.51675 0.11698 0.0
H3408 H 0.13773 0.52111 0.16387 0.0
H3409 H 0.14415 0.49898 0.17125 0.0
H3410 H 0.11757 0.49647 0.18138 0.0
H3411 H 0.05093 0.42356 0.13988 0.0
H3412 H 0.06678 0.39946 0.15419 0.0
H3413 H 0.13441 0.45892 0.15671 0.0
C3414 C 0.09848 0.51349 0.13167 0.0
C3415 C 0.07742 0.51263 0.12738 0.0
C3416 C 0.05716 0.4911 0.12628 0.0
C3417 C 0.05774 0.47084 0.12977 0.0
C3418 C 0.07873 0.47233 0.13425 0.0
C3419 C 0.09875 0.49309 0.13514 0.0
C3420 C 0.1189 0.49003 0.14154 0.0
C3421 C 0.1362 0.4981 0.12001 0.0
C3422 C 0.13025 0.50238 0.16596 0.0
C3423 C 0.10702 0.46434 0.14459 0.0
C3424 C 0.08385 0.45444 0.1401 0.0
C3425 C 0.06908 0.43107 0.14306 0.0
C3426 C 0.07817 0.41752 0.15112 0.0
C3427 C 0.10176 0.42738 0.15599 0.0
C3428 C 0.11639 0.45101 0.15247 0.0
H3429 H 0.55379 0.66536 0.20381 0.0
H3430 H 0.56392 0.69839 0.13177 0.0
H3431 H 0.53419 0.66211 0.11387 0.0
H3432 H 0.5463 0.61186 0.17901 0.0
H3433 H 0.5254 0.59483 0.20222 0.0
H3434 H 0.54734 0.62353 0.20947 0.0
H3435 H 0.51639 0.63353 0.22214 0.0
H3436 H 0.49436 0.60493 0.21482 0.0
H3437 H 0.49429 0.62888 0.20024 0.0
H3438 H 0.50182 0.62277 0.10435 0.0
H3439 H 0.47101 0.58234 0.10328 0.0
H3440 H 0.48464 0.57409 0.18015 0.0
C3441 C 0.55022 0.66503 0.18414 0.0
C3442 C 0.56131 0.68502 0.16933 0.0
C3443 C 0.55547 0.68361 0.14377 0.0
C3444 C 0.5387 0.66298 0.13332 0.0
C3445 C 0.52814 0.64376 0.14853 0.0
C3446 C 0.53388 0.64452 0.1733 0.0
C3447 C 0.5201 0.62136 0.18556 0.0
C3448 C 0.53572 0.61237 0.19459 0.0
C3449 C 0.50541 0.62224 0.20695 0.0
C3450 C 0.50549 0.60748 0.16386 0.0
C3451 C 0.51027 0.62079 0.14272 0.0
C3452 C 0.49813 0.61213 0.12068 0.0
C3453 C 0.48065 0.58926 0.12025 0.0
C3454 C 0.47572 0.57529 0.14158 0.0
C3455 C 0.48842 0.58446 0.16356 0.0
H3456 H 0.12546 0.67298 0.65706 0.0
H3457 H 0.13148 0.65944 0.73488 0.0
H3458 H 0.1211 0.62005 0.72439 0.0
H3459 H 0.07775 0.61974 0.64307 0.0
H3460 H 0.08717 0.61724 0.61243 0.0
H3461 H 0.09654 0.64501 0.62555 0.0
H3462 H 0.13871 0.65573 0.61911 0.0
H3463 H 0.12946 0.62799 0.60582 0.0
H3464 H 0.14871 0.63769 0.63197 0.0
H3465 H 0.10657 0.58136 0.70659 0.0
H3466 H 0.09122 0.54605 0.68153 0.0
H3467 H 0.09657 0.58448 0.61489 0.0
C3468 C 0.12501 0.66184 0.67179 0.0
C3469 C 0.12895 0.66924 0.69685 0.0
C3470 C 0.12801 0.65405 0.71563 0.0
C3471 C 0.12231 0.63166 0.70985 0.0
C3472 C 0.11793 0.62473 0.68514 0.0
C3473 C 0.11949 0.63937 0.66632 0.0
C3474 C 0.11325 0.62723 0.64138 0.0
C3475 C 0.09244 0.62731 0.62995 0.0
C3476 C 0.13376 0.63779 0.62352 0.0
C3477 C 0.10746 0.60341 0.6493 0.0
C3478 C 0.11028 0.60239 0.67465 0.0
C3479 C 0.10463 0.58198 0.68666 0.0
C3480 C 0.09583 0.56204 0.67237 0.0
C3481 C 0.09297 0.5627 0.64637 0.0
C3482 C 0.09907 0.58369 0.63468 0.0
H3483 H 0.31804 0.47191 0.67843 0.0
H3484 H 0.31586 0.41614 0.63631 0.0
H3485 H 0.35642 0.44079 0.62478 0.0
H3486 H 0.35672 0.51784 0.63609 0.0
H3487 H 0.37121 0.53739 0.66129 0.0
H3488 H 0.34162 0.51581 0.66452 0.0
H3489 H 0.35135 0.50122 0.70468 0.0
H3490 H 0.38098 0.52255 0.70143 0.0
H3491 H 0.3728 0.49284 0.70358 0.0
H3492 H 0.39826 0.47041 0.62143 0.0
H3493 H 0.43714 0.50406 0.62279 0.0
H3494 H 0.41176 0.54071 0.66628 0.0
C3495 C 0.32602 0.465 0.66648 0.0
C3496 C 0.31378 0.44212 0.65819 0.0
C3497 C 0.32481 0.4337 0.64256 0.0
C3498 C 0.34788 0.44752 0.63609 0.0
C3499 C 0.35962 0.4698 0.64516 0.0
C3500 C 0.34896 0.47861 0.65968 0.0
C3501 C 0.3655 0.50293 0.66746 0.0
C3502 C 0.35833 0.51947 0.65669 0.0
C3503 C 0.36779 0.50499 0.69598 0.0
C3504 C 0.38724 0.50632 0.65543 0.0
C3505 C 0.38353 0.48698 0.64275 0.0
C3506 C 0.40129 0.48572 0.63108 0.0
C3507 C 0.42334 0.50482 0.63213 0.0
C3508 C 0.42741 0.52496 0.6446 0.0
C3509 C 0.40906 0.52562 0.65637 0.0
H3510 H 0.55746 0.88369 0.70011 0.0
H3511 H 0.61192 0.93587 0.65546 0.0
H3512 H 0.58568 0.94931 0.6412 0.0
H3513 H 0.51281 0.86996 0.65618 0.0
H3514 H 0.49179 0.86481 0.67976 0.0
H3515 H 0.5152 0.86017 0.68664 0.0
H3516 H 0.52627 0.88769 0.72429 0.0
H3517 H 0.50298 0.89256 0.71741 0.0
H3518 H 0.53167 0.91635 0.71952 0.0
H3519 H 0.55294 0.95725 0.63284 0.0
H3520 H 0.51599 0.95631 0.62769 0.0
H3521 H 0.48361 0.898 0.67703 0.0
C3522 C 0.56389 0.89804 0.68742 0.0
C3523 C 0.58669 0.90894 0.67902 0.0
C3524 C 0.59445 0.92734 0.66205 0.0
C3525 C 0.57973 0.93513 0.65402 0.0
C3526 C 0.55734 0.92413 0.66298 0.0
C3527 C 0.54945 0.90579 0.67908 0.0
C3528 C 0.52452 0.89619 0.68529 0.0
C3529 C 0.51025 0.87132 0.67643 0.0
C3530 C 0.52118 0.89834 0.71329 0.0
C3531 C 0.51948 0.91196 0.67017 0.0
C3532 C 0.53861 0.92818 0.65763 0.0
C3533 C 0.53788 0.94459 0.64255 0.0
C3534 C 0.51693 0.94406 0.63986 0.0
C3535 C 0.49707 0.92704 0.65194 0.0
C3536 C 0.49854 0.91106 0.66748 0.0
H3537 H 0.23799 0.43989 0.17342 0.0
H3538 H 0.21871 0.38403 0.22507 0.0
H3539 H 0.25874 0.39212 0.22592 0.0
H3540 H 0.27722 0.42992 0.13788 0.0
H3541 H 0.2968 0.45981 0.13258 0.0
H3542 H 0.26687 0.44984 0.13688 0.0
H3543 H 0.27658 0.47861 0.17309 0.0
H3544 H 0.30654 0.48851 0.16904 0.0
H3545 H 0.29329 0.47814 0.19897 0.0
H3546 H 0.30145 0.40746 0.22189 0.0
H3547 H 0.34217 0.42562 0.20932 0.0
H3548 H 0.33252 0.47 0.1588 0.0
C3549 C 0.24227 0.42943 0.18493 0.0
C3550 C 0.22541 0.41141 0.19926 0.0
C3551 C 0.23144 0.3978 0.21384 0.0
C3552 C 0.25412 0.40241 0.21458 0.0
C3553 C 0.27043 0.42051 0.2004 0.0
C3554 C 0.26468 0.43357 0.18556 0.0
C3555 C 0.28509 0.45135 0.1712 0.0
C3556 C 0.28126 0.44749 0.14297 0.0
C3557 C 0.2907 0.47558 0.17852 0.0
C3558 C 0.30327 0.4463 0.18024 0.0
C3559 C 0.29462 0.42869 0.19737 0.0
C3560 C 0.30838 0.4212 0.20843 0.0
C3561 C 0.33144 0.43165 0.20134 0.0
C3562 C 0.34029 0.44909 0.18313 0.0
C3563 C 0.32607 0.45663 0.17273 0.0
H3564 H 0.59755 0.83305 0.20713 0.0
H3565 H 0.53356 0.77837 0.2364 0.0
H3566 H 0.51462 0.80014 0.22531 0.0
H3567 H 0.58989 0.8799 0.22618 0.0
H3568 H 0.60255 0.89616 0.19827 0.0
H3569 H 0.61141 0.87676 0.20971 0.0
H3570 H 0.60157 0.85606 0.16708 0.0
H3571 H 0.59271 0.87539 0.1555 0.0
H3572 H 0.57331 0.84505 0.15441 0.0
H3573 H 0.50227 0.82761 0.20998 0.0
H3574 H 0.49748 0.85807 0.19048 0.0
H3575 H 0.56924 0.8941 0.17041 0.0
C3576 C 0.57955 0.82548 0.21118 0.0
C3577 C 0.5672 0.80388 0.22281 0.0
C3578 C 0.54364 0.79496 0.22791 0.0
C3579 C 0.53263 0.80718 0.22156 0.0
C3580 C 0.54533 0.82831 0.21002 0.0
C3581 C 0.56826 0.83736 0.20483 0.0
C3582 C 0.5779 0.8601 0.19163 0.0
C3583 C 0.59654 0.87937 0.2074 0.0
C3584 C 0.5869 0.85908 0.16561 0.0
C3585 C 0.55675 0.86233 0.18999 0.0
C3586 C 0.53817 0.84391 0.20088 0.0
C3587 C 0.51672 0.84214 0.20147 0.0
C3588 C 0.51419 0.85957 0.19046 0.0
C3589 C 0.53295 0.87843 0.17887 0.0
C3590 C 0.5545 0.87978 0.17887 0.0
H3591 H 0.14389 0.66173 0.16611 0.0
H3592 H 0.09253 0.64661 0.22269 0.0
H3593 H 0.11741 0.68433 0.2421 0.0
H3594 H 0.19384 0.69334 0.20776 0.0
H3595 H 0.21048 0.71327 0.18361 0.0
H3596 H 0.18933 0.68444 0.17563 0.0
H3597 H 0.17011 0.69993 0.14584 0.0
H3598 H 0.19098 0.72876 0.15395 0.0
H3599 H 0.16101 0.71904 0.15775 0.0
H3600 H 0.14572 0.72555 0.2517 0.0
H3601 H 0.17767 0.76548 0.25414 0.0
H3602 H 0.21161 0.75262 0.19313 0.0
C3603 C 0.13817 0.66623 0.18291 0.0
C3604 C 0.11643 0.65138 0.19306 0.0
C3605 C 0.1093 0.65775 0.21491 0.0
C3606 C 0.12324 0.67913 0.22592 0.0
C3607 C 0.14438 0.69368 0.21507 0.0
C3608 C 0.15203 0.6873 0.19437 0.0
C3609 C 0.17522 0.70623 0.18602 0.0
C3610 C 0.19329 0.69888 0.18841 0.0
C3611 C 0.17425 0.71394 0.15931 0.0
C3612 C 0.17916 0.7245 0.20481 0.0
C3613 C 0.16112 0.717 0.22133 0.0
C3614 C 0.16014 0.73146 0.23919 0.0
C3615 C 0.1782 0.75407 0.24035 0.0
C3616 C 0.19703 0.76185 0.22398 0.0
C3617 C 0.19753 0.74684 0.20611 0.0
loop_
_geom_bond_atom_site_label_1
_geom_bond_atom_site_label_2
_geom_bond_distance
_geom_bond_site_symmetry_2
_ccdc_geom_bond_type
C0 C1 1.351 . S
C0 N3 1.368 . S
C0 H5 0.931 . S
C1 C0 1.351 . S
C1 N2 1.373 . S
C1 H29 0.930 . S
N2 C1 1.373 . S
N2 C4 1.340 . S
N3 C0 1.368 . S
N3 C4 1.321 . S
N3 Co6 2.135 . S
C4 N2 1.340 . S
C4 N3 1.321 . S
C4 H28 0.930 . S
H5 C0 0.931 . S
Co6 N3 2.135 . S
Co6 N9 2.121 . S
Co6 O14 2.055 . S
Co6 O17 2.039 . S
Co6 N20 2.140 . S
C7 O8 1.227 . S
C7 O17 1.265 1_556 S
O8 C7 1.227 . S
N9 Co6 2.121 . S
N9 C11 1.375 . S
N9 C12 1.313 . S
C10 C11 1.338 . S
C10 N13 1.377 . S
C10 H30 0.930 . S
C11 N9 1.375 . S
C11 C10 1.338 . S
C11 H15 0.931 . S
C12 N9 1.313 . S
C12 N13 1.344 . S
C12 H16 0.930 . S
N13 C10 1.377 . S
N13 C12 1.344 . S
O14 Co6 2.055 . S
O14 C18 1.253 . S
H15 C11 0.931 . S
H16 C12 0.930 . S
O17 Co6 2.039 . S
O17 C7 1.265 1_554 S
C18 O14 1.253 . S
C18 O19 1.227 . S
O19 C18 1.227 . S
N20 Co6 2.140 . S
N20 C23 1.346 . S
N20 C24 1.345 . S
C21 C22 1.387 . S
C21 C25 1.391 . S
C22 C21 1.387 . S
C22 C23 1.369 . S
C22 H31 0.929 . S
C23 N20 1.346 . S
C23 C22 1.369 . S
C23 H26 0.928 . S
C24 N20 1.345 . S
C24 C25 1.371 . S
C24 H27 0.931 . S
C25 C21 1.391 . S
C25 C24 1.371 . S
C25 H32 0.930 . S
H26 C23 0.928 . S
H27 C24 0.931 . S
H28 C4 0.930 . S
H29 C1 0.930 . S
H30 C10 0.930 . S
H31 C22 0.929 . S
H32 C25 0.930 . S
C33 C34 1.351 . S
C33 N36 1.368 . S
C33 H38 0.931 . S
C34 C33 1.351 . S
C34 N35 1.373 . S
C34 H62 0.930 . S
N35 C34 1.373 . S
N35 C37 1.340 . S
N36 C33 1.368 . S
N36 C37 1.321 . S
N36 Co39 2.135 . S
C37 N35 1.340 . S
C37 N36 1.321 . S
C37 H61 0.930 . S
H38 C33 0.931 . S
Co39 N36 2.135 . S
Co39 N42 2.121 . S
Co39 O47 2.055 . S
Co39 O50 2.039 . S
Co39 N53 2.140 . S
C40 O41 1.227 . S
C40 O50 1.265 1_556 S
O41 C40 1.227 . S
N42 Co39 2.121 . S
N42 C44 1.375 . S
N42 C45 1.313 . S
C43 C44 1.338 . S
C43 N46 1.377 . S
C43 H63 0.930 . S
C44 N42 1.375 . S
C44 C43 1.338 . S
C44 H48 0.931 . S
C45 N42 1.313 . S
C45 N46 1.344 . S
C45 H49 0.930 . S
N46 C43 1.377 . S
N46 C45 1.344 . S
O47 Co39 2.055 . S
O47 C51 1.253 . S
H48 C44 0.931 . S
H49 C45 0.930 . S
O50 Co39 2.039 . S
O50 C40 1.265 1_554 S
C51 O47 1.253 . S
C51 O52 1.227 . S
O52 C51 1.227 . S
N53 Co39 2.140 . S
N53 C56 1.346 . S
N53 C57 1.345 . S
C54 C55 1.387 . S
C54 C58 1.391 . S
C55 C54 1.387 . S
C55 C56 1.369 . S
C55 H64 0.929 . S
C56 N53 1.346 . S
C56 C55 1.369 . S
C56 H59 0.928 . S
C57 N53 1.345 . S
C57 C58 1.371 . S
C57 H60 0.931 . S
C58 C54 1.391 . S
C58 C57 1.371 . S
C58 H65 0.930 . S
H59 C56 0.928 . S
H60 C57 0.931 . S
H61 C37 0.930 . S
H62 C34 0.930 . S
H63 C43 0.930 . S
H64 C55 0.929 . S
H65 C58 0.930 . S
C66 C67 1.351 . S
C66 N69 1.368 . S
C66 H71 0.931 . S
C67 C66 1.351 . S
C67 N68 1.373 . S
C67 H95 0.930 . S
N68 C67 1.373 . S
N68 C70 1.340 . S
N69 C66 1.368 . S
N69 C70 1.321 . S
N69 Co72 2.135 . S
C70 N68 1.340 . S
C70 N69 1.321 . S
C70 H94 0.930 . S
H71 C66 0.931 . S
Co72 N69 2.135 . S
Co72 N75 2.121 . S
Co72 O80 2.055 . S
Co72 O83 2.039 . S
Co72 N86 2.140 . S
C73 O74 1.227 . S
C73 O83 1.265 1_556 S
O74 C73 1.227 . S
N75 Co72 2.121 . S
N75 C77 1.375 . S
N75 C78 1.313 . S
C76 C77 1.338 . S
C76 N79 1.377 . S
C76 H96 0.930 . S
C77 N75 1.375 . S
C77 C76 1.338 . S
C77 H81 0.931 . S
C78 N75 1.313 . S
C78 N79 1.344 . S
C78 H82 0.930 . S
N79 C76 1.377 . S
N79 C78 1.344 . S
O80 Co72 2.055 . S
O80 C84 1.253 . S
H81 C77 0.931 . S
H82 C78 0.930 . S
O83 Co72 2.039 . S
O83 C73 1.265 1_554 S
C84 O80 1.253 . S
C84 O85 1.227 . S
O85 C84 1.227 . S
N86 Co72 2.140 . S
N86 C89 1.346 . S
N86 C90 1.345 . S
C87 C88 1.387 . S
C87 C91 1.391 . S
C88 C87 1.387 . S
C88 C89 1.369 . S
C88 H97 0.929 . S
C89 N86 1.346 . S
C89 C88 1.369 . S
C89 H92 0.928 . S
C90 N86 1.345 . S
C90 C91 1.371 . S
C90 H93 0.931 . S
C91 C87 1.391 . S
C91 C90 1.371 . S
C91 H98 0.930 . S
H92 C89 0.928 . S
H93 C90 0.931 . S
H94 C70 0.930 . S
H95 C67 0.930 . S
H96 C76 0.930 . S
H97 C88 0.929 . S
H98 C91 0.930 . S
C99 C100 1.351 . S
C99 N102 1.368 . S
C99 H104 0.931 . S
C100 C99 1.351 . S
C100 N101 1.373 . S
C100 H128 0.930 . S
N101 C100 1.373 . S
N101 C103 1.340 . S
N102 C99 1.368 . S
N102 C103 1.321 . S
N102 Co105 2.135 . S
C103 N101 1.340 . S
C103 N102 1.321 . S
C103 H127 0.930 . S
H104 C99 0.931 . S
Co105 N102 2.135 . S
Co105 N108 2.121 . S
Co105 O113 2.055 . S
Co105 O116 2.039 . S
Co105 N119 2.140 . S
C106 O107 1.227 . S
C106 O116 1.265 . S
O107 C106 1.227 . S
N108 Co105 2.121 . S
N108 C110 1.375 . S
N108 C111 1.313 . S
C109 C110 1.338 . S
C109 N112 1.377 . S
C109 H129 0.930 . S
C110 N108 1.375 . S
C110 C109 1.338 . S
C110 H114 0.931 . S
C111 N108 1.313 . S
C111 N112 1.344 . S
C111 H115 0.930 . S
N112 C109 1.377 . S
N112 C111 1.344 . S
O113 Co105 2.055 . S
O113 C117 1.253 . S
H114 C110 0.931 . S
H115 C111 0.930 . S
O116 Co105 2.039 . S
O116 C106 1.265 . S
C117 O113 1.253 . S
C117 O118 1.227 . S
O118 C117 1.227 . S
N119 Co105 2.140 . S
N119 C122 1.346 . S
N119 C123 1.345 . S
C120 C121 1.387 . S
C120 C124 1.391 . S
C121 C120 1.387 . S
C121 C122 1.369 . S
C121 H130 0.929 . S
C122 N119 1.346 . S
C122 C121 1.369 . S
C122 H125 0.928 . S
C123 N119 1.345 . S
C123 C124 1.371 . S
C123 H126 0.931 . S
C124 C120 1.391 . S
C124 C123 1.371 . S
C124 H131 0.930 . S
H125 C122 0.928 . S
H126 C123 0.931 . S
H127 C103 0.930 . S
H128 C100 0.930 . S
H129 C109 0.930 . S
H130 C121 0.929 . S
H131 C124 0.930 . S
C132 C133 1.351 . S
C132 N135 1.368 . S
C132 H137 0.931 . S
C133 C132 1.351 . S
C133 N134 1.373 . S
C133 H161 0.930 . S
N134 C133 1.373 . S
N134 C136 1.340 . S
N135 C132 1.368 . S
N135 C136 1.321 . S
N135 Co138 2.135 . S
C136 N134 1.340 . S
C136 N135 1.321 . S
C136 H160 0.930 . S
H137 C132 0.931 . S
Co138 N135 2.135 . S
Co138 N141 2.121 . S
Co138 O146 2.055 . S
Co138 O149 2.039 . S
Co138 N152 2.140 . S
C139 O140 1.227 . S
C139 O149 1.265 . S
O140 C139 1.227 . S
N141 Co138 2.121 . S
N141 C143 1.375 . S
N141 C144 1.313 . S
C142 C143 1.338 . S
C142 N145 1.377 . S
C142 H162 0.930 . S
C143 N141 1.375 . S
C143 C142 1.338 . S
C143 H147 0.931 . S
C144 N141 1.313 . S
C144 N145 1.344 . S
C144 H148 0.930 . S
N145 C142 1.377 . S
N145 C144 1.344 . S
O146 Co138 2.055 . S
O146 C150 1.253 . S
H147 C143 0.931 . S
H148 C144 0.930 . S
O149 Co138 2.039 . S
O149 C139 1.265 . S
C150 O146 1.253 . S
C150 O151 1.227 . S
O151 C150 1.227 . S
N152 Co138 2.140 . S
N152 C155 1.346 . S
N152 C156 1.345 . S
C153 C154 1.387 . S
C153 C157 1.391 . S
C154 C153 1.387 . S
C154 C155 1.369 . S
C154 H163 0.929 . S
C155 N152 1.346 . S
C155 C154 1.369 . S
C155 H158 0.928 . S
C156 N152 1.345 . S
C156 C157 1.371 . S
C156 H159 0.931 . S
C157 C153 1.391 . S
C157 C156 1.371 . S
C157 H164 0.930 . S
H158 C155 0.928 . S
H159 C156 0.931 . S
H160 C136 0.930 . S
H161 C133 0.930 . S
H162 C142 0.930 . S
H163 C154 0.929 . S
H164 C157 0.930 . S
C165 C166 1.351 . S
C165 N168 1.368 . S
C165 H170 0.931 . S
C166 C165 1.351 . S
C166 N167 1.373 . S
C166 H194 0.930 . S
N167 C166 1.373 . S
N167 C169 1.340 . S
N168 C165 1.368 . S
N168 C169 1.321 . S
N168 Co171 2.135 . S
C169 N167 1.340 . S
C169 N168 1.321 . S
C169 H193 0.930 . S
H170 C165 0.931 . S
Co171 N168 2.135 . S
Co171 N174 2.121 . S
Co171 O179 2.055 . S
Co171 O182 2.039 . S
Co171 N185 2.140 . S
C172 O173 1.227 . S
C172 O182 1.265 . S
O173 C172 1.227 . S
N174 Co171 2.121 . S
N174 C176 1.375 . S
N174 C177 1.313 . S
C175 C176 1.338 . S
C175 N178 1.377 . S
C175 H195 0.930 . S
C176 N174 1.375 . S
C176 C175 1.338 . S
C176 H180 0.931 . S
C177 N174 1.313 . S
C177 N178 1.344 . S
C177 H181 0.930 . S
N178 C175 1.377 . S
N178 C177 1.344 . S
O179 Co171 2.055 . S
O179 C183 1.253 . S
H180 C176 0.931 . S
H181 C177 0.930 . S
O182 Co171 2.039 . S
O182 C172 1.265 . S
C183 O179 1.253 . S
C183 O184 1.227 . S
O184 C183 1.227 . S
N185 Co171 2.140 . S
N185 C188 1.346 . S
N185 C189 1.345 . S
C186 C187 1.387 . S
C186 C190 1.391 . S
C187 C186 1.387 . S
C187 C188 1.369 . S
C187 H196 0.929 . S
C188 N185 1.346 . S
C188 C187 1.369 . S
C188 H191 0.928 . S
C189 N185 1.345 . S
C189 C190 1.371 . S
C189 H192 0.931 . S
C190 C186 1.391 . S
C190 C189 1.371 . S
C190 H197 0.930 . S
H191 C188 0.928 . S
H192 C189 0.931 . S
H193 C169 0.930 . S
H194 C166 0.930 . S
H195 C175 0.930 . S
H196 C187 0.929 . S
H197 C190 0.930 . S
C198 C199 1.351 . S
C198 N201 1.368 . S
C198 H203 0.931 . S
C199 C198 1.351 . S
C199 N200 1.373 . S
C199 H227 0.930 . S
N200 C199 1.373 . S
N200 C202 1.340 . S
N201 C198 1.368 . S
N201 C202 1.321 . S
N201 Co204 2.135 . S
C202 N200 1.340 . S
C202 N201 1.321 . S
C202 H226 0.930 . S
H203 C198 0.931 . S
Co204 N201 2.135 . S
Co204 N207 2.121 . S
Co204 O212 2.055 . S
Co204 O215 2.039 . S
Co204 N218 2.140 . S
C205 O206 1.227 . S
C205 O215 1.265 1_554 S
O206 C205 1.227 . S
N207 Co204 2.121 . S
N207 C209 1.375 . S
N207 C210 1.313 . S
C208 C209 1.338 . S
C208 N211 1.377 . S
C208 H228 0.930 . S
C209 N207 1.375 . S
C209 C208 1.338 . S
C209 H213 0.931 . S
C210 N207 1.313 . S
C210 N211 1.344 . S
C210 H214 0.930 . S
N211 C208 1.377 . S
N211 C210 1.344 . S
O212 Co204 2.055 . S
O212 C216 1.253 . S
H213 C209 0.931 . S
H214 C210 0.930 . S
O215 Co204 2.039 . S
O215 C205 1.265 1_556 S
C216 O212 1.253 . S
C216 O217 1.227 . S
O217 C216 1.227 . S
N218 Co204 2.140 . S
N218 C221 1.346 . S
N218 C222 1.345 . S
C219 C220 1.387 . S
C219 C223 1.391 . S
C220 C219 1.387 . S
C220 C221 1.369 . S
C220 H229 0.929 . S
C221 N218 1.346 . S
C221 C220 1.369 . S
C221 H224 0.928 . S
C222 N218 1.345 . S
C222 C223 1.371 . S
C222 H225 0.931 . S
C223 C219 1.391 . S
C223 C222 1.371 . S
C223 H230 0.930 . S
H224 C221 0.928 . S
H225 C222 0.931 . S
H226 C202 0.930 . S
H227 C199 0.930 . S
H228 C208 0.930 . S
H229 C220 0.929 . S
H230 C223 0.930 . S
C231 C232 1.351 . S
C231 N234 1.368 . S
C231 H236 0.931 . S
C232 C231 1.351 . S
C232 N233 1.373 . S
C232 H260 0.930 . S
N233 C232 1.373 . S
N233 C235 1.340 . S
N234 C231 1.368 . S
N234 C235 1.321 . S
N234 Co237 2.135 . S
C235 N233 1.340 . S
C235 N234 1.321 . S
C235 H259 0.930 . S
H236 C231 0.931 . S
Co237 N234 2.135 . S
Co237 N240 2.121 . S
Co237 O245 2.055 . S
Co237 O248 2.039 . S
Co237 N251 2.140 . S
C238 O239 1.227 . S
C238 O248 1.265 1_554 S
O239 C238 1.227 . S
N240 Co237 2.121 . S
N240 C242 1.375 . S
N240 C243 1.313 . S
C241 C242 1.338 . S
C241 N244 1.377 . S
C241 H261 0.930 . S
C242 N240 1.375 . S
C242 C241 1.338 . S
C242 H246 0.931 . S
C243 N240 1.313 . S
C243 N244 1.344 . S
C243 H247 0.930 . S
N244 C241 1.377 . S
N244 C243 1.344 . S
O245 Co237 2.055 . S
O245 C249 1.253 . S
H246 C242 0.931 . S
H247 C243 0.930 . S
O248 Co237 2.039 . S
O248 C238 1.265 1_556 S
C249 O245 1.253 . S
C249 O250 1.227 . S
O250 C249 1.227 . S
N251 Co237 2.140 . S
N251 C254 1.346 . S
N251 C255 1.345 . S
C252 C253 1.387 . S
C252 C256 1.391 . S
C253 C252 1.387 . S
C253 C254 1.369 . S
C253 H262 0.929 . S
C254 N251 1.346 . S
C254 C253 1.369 . S
C254 H257 0.928 . S
C255 N251 1.345 . S
C255 C256 1.371 . S
C255 H258 0.931 . S
C256 C252 1.391 . S
C256 C255 1.371 . S
C256 H263 0.930 . S
H257 C254 0.928 . S
H258 C255 0.931 . S
H259 C235 0.930 . S
H260 C232 0.930 . S
H261 C241 0.930 . S
H262 C253 0.929 . S
H263 C256 0.930 . S
C264 C265 1.351 . S
C264 N267 1.368 . S
C264 H269 0.931 . S
C265 C264 1.351 . S
C265 N266 1.373 . S
C265 H293 0.930 . S
N266 C265 1.373 . S
N266 C268 1.340 . S
N267 C264 1.368 . S
N267 C268 1.321 . S
N267 Co270 2.135 . S
C268 N266 1.340 . S
C268 N267 1.321 . S
C268 H292 0.930 . S
H269 C264 0.931 . S
Co270 N267 2.135 . S
Co270 N273 2.121 . S
Co270 O278 2.055 . S
Co270 O281 2.039 . S
Co270 N284 2.140 . S
C271 O272 1.227 . S
C271 O281 1.265 1_554 S
O272 C271 1.227 . S
N273 Co270 2.121 . S
N273 C275 1.375 . S
N273 C276 1.313 . S
C274 C275 1.338 . S
C274 N277 1.377 . S
C274 H294 0.930 . S
C275 N273 1.375 . S
C275 C274 1.338 . S
C275 H279 0.931 . S
C276 N273 1.313 . S
C276 N277 1.344 . S
C276 H280 0.930 . S
N277 C274 1.377 . S
N277 C276 1.344 . S
O278 Co270 2.055 . S
O278 C282 1.253 . S
H279 C275 0.931 . S
H280 C276 0.930 . S
O281 Co270 2.039 . S
O281 C271 1.265 1_556 S
C282 O278 1.253 . S
C282 O283 1.227 . S
O283 C282 1.227 . S
N284 Co270 2.140 . S
N284 C287 1.346 . S
N284 C288 1.345 . S
C285 C286 1.387 . S
C285 C289 1.391 . S
C286 C285 1.387 . S
C286 C287 1.369 . S
C286 H295 0.929 . S
C287 N284 1.346 . S
C287 C286 1.369 . S
C287 H290 0.928 . S
C288 N284 1.345 . S
C288 C289 1.371 . S
C288 H291 0.931 . S
C289 C285 1.391 . S
C289 C288 1.371 . S
C289 H296 0.930 . S
H290 C287 0.928 . S
H291 C288 0.931 . S
H292 C268 0.930 . S
H293 C265 0.930 . S
H294 C274 0.930 . S
H295 C286 0.929 . S
H296 C289 0.930 . S
C297 C298 1.351 . S
C297 N300 1.368 . S
C297 H302 0.931 . S
C298 C297 1.351 . S
C298 N299 1.373 . S
C298 H326 0.930 . S
N299 C298 1.373 . S
N299 C301 1.340 . S
N300 C297 1.368 . S
N300 C301 1.321 . S
N300 Co303 2.135 . S
C301 N299 1.340 . S
C301 N300 1.321 . S
C301 H325 0.930 . S
H302 C297 0.931 . S
Co303 N300 2.135 . S
Co303 N306 2.121 . S
Co303 O311 2.055 . S
Co303 O314 2.039 . S
Co303 N317 2.140 . S
C304 O305 1.227 . S
C304 O314 1.265 . S
O305 C304 1.227 . S
N306 Co303 2.121 . S
N306 C308 1.375 . S
N306 C309 1.313 . S
C307 C308 1.338 . S
C307 N310 1.377 . S
C307 H327 0.930 . S
C308 N306 1.375 . S
C308 C307 1.338 . S
C308 H312 0.931 . S
C309 N306 1.313 . S
C309 N310 1.344 . S
C309 H313 0.930 . S
N310 C307 1.377 . S
N310 C309 1.344 . S
O311 Co303 2.055 . S
O311 C315 1.253 . S
H312 C308 0.931 . S
H313 C309 0.930 . S
O314 Co303 2.039 . S
O314 C304 1.265 . S
C315 O311 1.253 . S
C315 O316 1.227 . S
O316 C315 1.227 . S
N317 Co303 2.140 . S
N317 C320 1.346 . S
N317 C321 1.345 . S
C318 C319 1.387 . S
C318 C322 1.391 . S
C319 C318 1.387 . S
C319 C320 1.369 . S
C319 H328 0.929 . S
C320 N317 1.346 . S
C320 C319 1.369 . S
C320 H323 0.928 . S
C321 N317 1.345 . S
C321 C322 1.371 . S
C321 H324 0.931 . S
C322 C318 1.391 . S
C322 C321 1.371 . S
C322 H329 0.930 . S
H323 C320 0.928 . S
H324 C321 0.931 . S
H325 C301 0.930 . S
H326 C298 0.930 . S
H327 C307 0.930 . S
H328 C319 0.929 . S
H329 C322 0.930 . S
C330 C331 1.351 . S
C330 N333 1.368 . S
C330 H335 0.931 . S
C331 C330 1.351 . S
C331 N332 1.373 . S
C331 H359 0.930 . S
N332 C331 1.373 . S
N332 C334 1.340 . S
N333 C330 1.368 . S
N333 C334 1.321 . S
N333 Co336 2.135 . S
C334 N332 1.340 . S
C334 N333 1.321 . S
C334 H358 0.930 . S
H335 C330 0.931 . S
Co336 N333 2.135 . S
Co336 N339 2.121 . S
Co336 O344 2.055 . S
Co336 O347 2.039 . S
Co336 N350 2.140 . S
C337 O338 1.227 . S
C337 O347 1.265 . S
O338 C337 1.227 . S
N339 Co336 2.121 . S
N339 C341 1.375 . S
N339 C342 1.313 . S
C340 C341 1.338 . S
C340 N343 1.377 . S
C340 H360 0.930 . S
C341 N339 1.375 . S
C341 C340 1.338 . S
C341 H345 0.931 . S
C342 N339 1.313 . S
C342 N343 1.344 . S
C342 H346 0.930 . S
N343 C340 1.377 . S
N343 C342 1.344 . S
O344 Co336 2.055 . S
O344 C348 1.253 . S
H345 C341 0.931 . S
H346 C342 0.930 . S
O347 Co336 2.039 . S
O347 C337 1.265 . S
C348 O344 1.253 . S
C348 O349 1.227 . S
O349 C348 1.227 . S
N350 Co336 2.140 . S
N350 C353 1.346 . S
N350 C354 1.345 . S
C351 C352 1.387 . S
C351 C355 1.391 . S
C352 C351 1.387 . S
C352 C353 1.369 . S
C352 H361 0.929 . S
C353 N350 1.346 . S
C353 C352 1.369 . S
C353 H356 0.928 . S
C354 N350 1.345 . S
C354 C355 1.371 . S
C354 H357 0.931 . S
C355 C351 1.391 . S
C355 C354 1.371 . S
C355 H362 0.930 . S
H356 C353 0.928 . S
H357 C354 0.931 . S
H358 C334 0.930 . S
H359 C331 0.930 . S
H360 C340 0.930 . S
H361 C352 0.929 . S
H362 C355 0.930 . S
C363 C364 1.351 . S
C363 N366 1.368 . S
C363 H368 0.931 . S
C364 C363 1.351 . S
C364 N365 1.373 . S
C364 H392 0.930 . S
N365 C364 1.373 . S
N365 C367 1.340 . S
N366 C363 1.368 . S
N366 C367 1.321 . S
N366 Co369 2.135 . S
C367 N365 1.340 . S
C367 N366 1.321 . S
C367 H391 0.930 . S
H368 C363 0.931 . S
Co369 N366 2.135 . S
Co369 N372 2.121 . S
Co369 O377 2.055 . S
Co369 O380 2.039 . S
Co369 N383 2.140 . S
C370 O371 1.227 . S
C370 O380 1.265 . S
O371 C370 1.227 . S
N372 Co369 2.121 . S
N372 C374 1.375 . S
N372 C375 1.313 . S
C373 C374 1.338 . S
C373 N376 1.377 . S
C373 H393 0.930 . S
C374 N372 1.375 . S
C374 C373 1.338 . S
C374 H378 0.931 . S
C375 N372 1.313 . S
C375 N376 1.344 . S
C375 H379 0.930 . S
N376 C373 1.377 . S
N376 C375 1.344 . S
O377 Co369 2.055 . S
O377 C381 1.253 . S
H378 C374 0.931 . S
H379 C375 0.930 . S
O380 Co369 2.039 . S
O380 C370 1.265 . S
C381 O377 1.253 . S
C381 O382 1.227 . S
O382 C381 1.227 . S
N383 Co369 2.140 . S
N383 C386 1.346 . S
N383 C387 1.345 . S
C384 C385 1.387 . S
C384 C388 1.391 . S
C385 C384 1.387 . S
C385 C386 1.369 . S
C385 H394 0.929 . S
C386 N383 1.346 . S
C386 C385 1.369 . S
C386 H389 0.928 . S
C387 N383 1.345 . S
C387 C388 1.371 . S
C387 H390 0.931 . S
C388 C384 1.391 . S
C388 C387 1.371 . S
C388 H395 0.930 . S
H389 C386 0.928 . S
H390 C387 0.931 . S
H391 C367 0.930 . S
H392 C364 0.930 . S
H393 C373 0.930 . S
H394 C385 0.929 . S
H395 C388 0.930 . S
C396 C397 1.351 . S
C396 N399 1.368 . S
C396 H401 0.931 . S
C397 C396 1.351 . S
C397 N398 1.373 . S
C397 H425 0.930 . S
N398 C397 1.373 . S
N398 C400 1.340 . S
N399 C396 1.368 . S
N399 C400 1.321 . S
N399 Co402 2.135 . S
C400 N398 1.340 . S
C400 N399 1.321 . S
C400 H424 0.930 . S
H401 C396 0.931 . S
Co402 N399 2.135 . S
Co402 N405 2.121 . S
Co402 O410 2.055 . S
Co402 O413 2.039 . S
Co402 N416 2.140 . S
C403 O404 1.227 . S
C403 O413 1.265 . S
O404 C403 1.227 . S
N405 Co402 2.121 . S
N405 C407 1.375 . S
N405 C408 1.313 . S
C406 C407 1.338 . S
C406 N409 1.377 . S
C406 H426 0.930 . S
C407 N405 1.375 . S
C407 C406 1.338 . S
C407 H411 0.931 . S
C408 N405 1.313 . S
C408 N409 1.344 . S
C408 H412 0.930 . S
N409 C406 1.377 . S
N409 C408 1.344 . S
O410 Co402 2.055 . S
O410 C414 1.253 . S
H411 C407 0.931 . S
H412 C408 0.930 . S
O413 Co402 2.039 . S
O413 C403 1.265 . S
C414 O410 1.253 . S
C414 O415 1.227 . S
O415 C414 1.227 . S
N416 Co402 2.140 . S
N416 C419 1.346 . S
N416 C420 1.345 . S
C417 C418 1.387 . S
C417 C421 1.391 . S
C418 C417 1.387 . S
C418 C419 1.369 . S
C418 H427 0.929 . S
C419 N416 1.346 . S
C419 C418 1.369 . S
C419 H422 0.928 . S
C420 N416 1.345 . S
C420 C421 1.371 . S
C420 H423 0.931 . S
C421 C417 1.391 . S
C421 C420 1.371 . S
C421 H428 0.930 . S
H422 C419 0.928 . S
H423 C420 0.931 . S
H424 C400 0.930 . S
H425 C397 0.930 . S
H426 C406 0.930 . S
H427 C418 0.929 . S
H428 C421 0.930 . S
C429 C430 1.351 . S
C429 N432 1.368 . S
C429 H434 0.931 . S
C430 C429 1.351 . S
C430 N431 1.373 . S
C430 H458 0.930 . S
N431 C430 1.373 . S
N431 C433 1.340 . S
N432 C429 1.368 . S
N432 C433 1.321 . S
N432 Co435 2.135 . S
C433 N431 1.340 . S
C433 N432 1.321 . S
C433 H457 0.930 . S
H434 C429 0.931 . S
Co435 N432 2.135 . S
Co435 N438 2.121 . S
Co435 O443 2.055 . S
Co435 O446 2.039 . S
Co435 N449 2.140 . S
C436 O437 1.227 . S
C436 O446 1.265 . S
O437 C436 1.227 . S
N438 Co435 2.121 . S
N438 C440 1.375 . S
N438 C441 1.313 . S
C439 C440 1.338 . S
C439 N442 1.377 . S
C439 H459 0.930 . S
C440 N438 1.375 . S
C440 C439 1.338 . S
C440 H444 0.931 . S
C441 N438 1.313 . S
C441 N442 1.344 . S
C441 H445 0.930 . S
N442 C439 1.377 . S
N442 C441 1.344 . S
O443 Co435 2.055 . S
O443 C447 1.253 . S
H444 C440 0.931 . S
H445 C441 0.930 . S
O446 Co435 2.039 . S
O446 C436 1.265 . S
C447 O443 1.253 . S
C447 O448 1.227 . S
O448 C447 1.227 . S
N449 Co435 2.140 . S
N449 C452 1.346 . S
N449 C453 1.345 . S
C450 C451 1.387 . S
C450 C454 1.391 . S
C451 C450 1.387 . S
C451 C452 1.369 . S
C451 H460 0.929 . S
C452 N449 1.346 . S
C452 C451 1.369 . S
C452 H455 0.928 . S
C453 N449 1.345 . S
C453 C454 1.371 . S
C453 H456 0.931 . S
C454 C450 1.391 . S
C454 C453 1.371 . S
C454 H461 0.930 . S
H455 C452 0.928 . S
H456 C453 0.931 . S
H457 C433 0.930 . S
H458 C430 0.930 . S
H459 C439 0.930 . S
H460 C451 0.929 . S
H461 C454 0.930 . S
C462 C463 1.351 . S
C462 N465 1.368 . S
C462 H467 0.931 . S
C463 C462 1.351 . S
C463 N464 1.373 . S
C463 H491 0.930 . S
N464 C463 1.373 . S
N464 C466 1.340 . S
N465 C462 1.368 . S
N465 C466 1.321 . S
N465 Co468 2.135 . S
C466 N464 1.340 . S
C466 N465 1.321 . S
C466 H490 0.930 . S
H467 C462 0.931 . S
Co468 N465 2.135 . S
Co468 N471 2.121 . S
Co468 O476 2.055 . S
Co468 O479 2.039 . S
Co468 N482 2.140 . S
C469 O470 1.227 . S
C469 O479 1.265 . S
O470 C469 1.227 . S
N471 Co468 2.121 . S
N471 C473 1.375 . S
N471 C474 1.313 . S
C472 C473 1.338 . S
C472 N475 1.377 . S
C472 H492 0.930 . S
C473 N471 1.375 . S
C473 C472 1.338 . S
C473 H477 0.931 . S
C474 N471 1.313 . S
C474 N475 1.344 . S
C474 H478 0.930 . S
N475 C472 1.377 . S
N475 C474 1.344 . S
O476 Co468 2.055 . S
O476 C480 1.253 . S
H477 C473 0.931 . S
H478 C474 0.930 . S
O479 Co468 2.039 . S
O479 C469 1.265 . S
C480 O476 1.253 . S
C480 O481 1.227 . S
O481 C480 1.227 . S
N482 Co468 2.140 . S
N482 C485 1.346 . S
N482 C486 1.345 . S
C483 C484 1.387 . S
C483 C487 1.391 . S
C484 C483 1.387 . S
C484 C485 1.369 . S
C484 H493 0.929 . S
C485 N482 1.346 . S
C485 C484 1.369 . S
C485 H488 0.928 . S
C486 N482 1.345 . S
C486 C487 1.371 . S
C486 H489 0.931 . S
C487 C483 1.391 . S
C487 C486 1.371 . S
C487 H494 0.930 . S
H488 C485 0.928 . S
H489 C486 0.931 . S
H490 C466 0.930 . S
H491 C463 0.930 . S
H492 C472 0.930 . S
H493 C484 0.929 . S
H494 C487 0.930 . S
C495 C496 1.351 . S
C495 N498 1.368 . S
C495 H500 0.931 . S
C496 C495 1.351 . S
C496 N497 1.373 . S
C496 H524 0.930 . S
N497 C496 1.373 . S
N497 C499 1.340 . S
N498 C495 1.368 . S
N498 C499 1.321 . S
N498 Co501 2.135 . S
C499 N497 1.340 . S
C499 N498 1.321 . S
C499 H523 0.930 . S
H500 C495 0.931 . S
Co501 N498 2.135 . S
Co501 N504 2.121 . S
Co501 O509 2.055 . S
Co501 O512 2.039 . S
Co501 N515 2.140 . S
C502 O503 1.227 . S
C502 O512 1.265 . S
O503 C502 1.227 . S
N504 Co501 2.121 . S
N504 C506 1.375 . S
N504 C507 1.313 . S
C505 C506 1.338 . S
C505 N508 1.377 . S
C505 H525 0.930 . S
C506 N504 1.375 . S
C506 C505 1.338 . S
C506 H510 0.931 . S
C507 N504 1.313 . S
C507 N508 1.344 . S
C507 H511 0.930 . S
N508 C505 1.377 . S
N508 C507 1.344 . S
O509 Co501 2.055 . S
O509 C513 1.253 . S
H510 C506 0.931 . S
H511 C507 0.930 . S
O512 Co501 2.039 . S
O512 C502 1.265 . S
C513 O509 1.253 . S
C513 O514 1.227 . S
O514 C513 1.227 . S
N515 Co501 2.140 . S
N515 C518 1.346 . S
N515 C519 1.345 . S
C516 C517 1.387 . S
C516 C520 1.391 . S
C517 C516 1.387 . S
C517 C518 1.369 . S
C517 H526 0.929 . S
C518 N515 1.346 . S
C518 C517 1.369 . S
C518 H521 0.928 . S
C519 N515 1.345 . S
C519 C520 1.371 . S
C519 H522 0.931 . S
C520 C516 1.391 . S
C520 C519 1.371 . S
C520 H527 0.930 . S
H521 C518 0.928 . S
H522 C519 0.931 . S
H523 C499 0.930 . S
H524 C496 0.930 . S
H525 C505 0.930 . S
H526 C517 0.929 . S
H527 C520 0.930 . S
C528 C529 1.351 . S
C528 N531 1.368 . S
C528 H533 0.931 . S
C529 C528 1.351 . S
C529 N530 1.373 . S
C529 H557 0.930 . S
N530 C529 1.373 . S
N530 C532 1.340 . S
N531 C528 1.368 . S
N531 C532 1.321 . S
N531 Co534 2.135 . S
C532 N530 1.340 . S
C532 N531 1.321 . S
C532 H556 0.930 . S
H533 C528 0.931 . S
Co534 N531 2.135 . S
Co534 N537 2.121 . S
Co534 O542 2.055 . S
Co534 O545 2.039 . S
Co534 N548 2.140 . S
C535 O536 1.227 . S
C535 O545 1.265 . S
O536 C535 1.227 . S
N537 Co534 2.121 . S
N537 C539 1.375 . S
N537 C540 1.313 . S
C538 C539 1.338 . S
C538 N541 1.377 . S
C538 H558 0.930 . S
C539 N537 1.375 . S
C539 C538 1.338 . S
C539 H543 0.931 . S
C540 N537 1.313 . S
C540 N541 1.344 . S
C540 H544 0.930 . S
N541 C538 1.377 . S
N541 C540 1.344 . S
O542 Co534 2.055 . S
O542 C546 1.253 . S
H543 C539 0.931 . S
H544 C540 0.930 . S
O545 Co534 2.039 . S
O545 C535 1.265 . S
C546 O542 1.253 . S
C546 O547 1.227 . S
O547 C546 1.227 . S
N548 Co534 2.140 . S
N548 C551 1.346 . S
N548 C552 1.345 . S
C549 C550 1.387 . S
C549 C553 1.391 . S
C550 C549 1.387 . S
C550 C551 1.369 . S
C550 H559 0.929 . S
C551 N548 1.346 . S
C551 C550 1.369 . S
C551 H554 0.928 . S
C552 N548 1.345 . S
C552 C553 1.371 . S
C552 H555 0.931 . S
C553 C549 1.391 . S
C553 C552 1.371 . S
C553 H560 0.930 . S
H554 C551 0.928 . S
H555 C552 0.931 . S
H556 C532 0.930 . S
H557 C529 0.930 . S
H558 C538 0.930 . S
H559 C550 0.929 . S
H560 C553 0.930 . S
C561 C562 1.351 . S
C561 N564 1.368 . S
C561 H566 0.931 . S
C562 C561 1.351 . S
C562 N563 1.373 . S
C562 H590 0.930 . S
N563 C562 1.373 . S
N563 C565 1.340 . S
N564 C561 1.368 . S
N564 C565 1.321 . S
N564 Co567 2.135 . S
C565 N563 1.340 . S
C565 N564 1.321 . S
C565 H589 0.930 . S
H566 C561 0.931 . S
Co567 N564 2.135 . S
Co567 N570 2.121 . S
Co567 O575 2.055 . S
Co567 O578 2.039 . S
Co567 N581 2.140 . S
C568 O569 1.227 . S
C568 O578 1.265 . S
O569 C568 1.227 . S
N570 Co567 2.121 . S
N570 C572 1.375 . S
N570 C573 1.313 . S
C571 C572 1.338 . S
C571 N574 1.377 . S
C571 H591 0.930 . S
C572 N570 1.375 . S
C572 C571 1.338 . S
C572 H576 0.931 . S
C573 N570 1.313 . S
C573 N574 1.344 . S
C573 H577 0.930 . S
N574 C571 1.377 . S
N574 C573 1.344 . S
O575 Co567 2.055 . S
O575 C579 1.253 . S
H576 C572 0.931 . S
H577 C573 0.930 . S
O578 Co567 2.039 . S
O578 C568 1.265 . S
C579 O575 1.253 . S
C579 O580 1.227 . S
O580 C579 1.227 . S
N581 Co567 2.140 . S
N581 C584 1.346 . S
N581 C585 1.345 . S
C582 C583 1.387 . S
C582 C586 1.391 . S
C583 C582 1.387 . S
C583 C584 1.369 . S
C583 H592 0.929 . S
C584 N581 1.346 . S
C584 C583 1.369 . S
C584 H587 0.928 . S
C585 N581 1.345 . S
C585 C586 1.371 . S
C585 H588 0.931 . S
C586 C582 1.391 . S
C586 C585 1.371 . S
C586 H593 0.930 . S
H587 C584 0.928 . S
H588 C585 0.931 . S
H589 C565 0.930 . S
H590 C562 0.930 . S
H591 C571 0.930 . S
H592 C583 0.929 . S
H593 C586 0.930 . S
C594 C595 1.351 . S
C594 N597 1.368 . S
C594 H599 0.931 . S
C595 C594 1.351 . S
C595 N596 1.373 . S
C595 H623 0.930 . S
N596 C595 1.373 . S
N596 C598 1.340 . S
N597 C594 1.368 . S
N597 C598 1.321 . S
N597 Co600 2.135 . S
C598 N596 1.340 . S
C598 N597 1.321 . S
C598 H622 0.930 . S
H599 C594 0.931 . S
Co600 N597 2.135 . S
Co600 N603 2.121 . S
Co600 O608 2.055 . S
Co600 O611 2.039 . S
Co600 N614 2.140 . S
C601 O602 1.227 . S
C601 O611 1.265 . S
O602 C601 1.227 . S
N603 Co600 2.121 . S
N603 C605 1.375 . S
N603 C606 1.313 . S
C604 C605 1.338 . S
C604 N607 1.377 . S
C604 H624 0.930 . S
C605 N603 1.375 . S
C605 C604 1.338 . S
C605 H609 0.931 . S
C606 N603 1.313 . S
C606 N607 1.344 . S
C606 H610 0.930 . S
N607 C604 1.377 . S
N607 C606 1.344 . S
O608 Co600 2.055 . S
O608 C612 1.253 . S
H609 C605 0.931 . S
H610 C606 0.930 . S
O611 Co600 2.039 . S
O611 C601 1.265 . S
C612 O608 1.253 . S
C612 O613 1.227 . S
O613 C612 1.227 . S
N614 Co600 2.140 . S
N614 C617 1.346 . S
N614 C618 1.345 . S
C615 C616 1.387 . S
C615 C619 1.391 . S
C616 C615 1.387 . S
C616 C617 1.369 . S
C616 H625 0.929 . S
C617 N614 1.346 . S
C617 C616 1.369 . S
C617 H620 0.928 . S
C618 N614 1.345 . S
C618 C619 1.371 . S
C618 H621 0.931 . S
C619 C615 1.391 . S
C619 C618 1.371 . S
C619 H626 0.930 . S
H620 C617 0.928 . S
H621 C618 0.931 . S
H622 C598 0.930 . S
H623 C595 0.930 . S
H624 C604 0.930 . S
H625 C616 0.929 . S
H626 C619 0.930 . S
C627 C628 1.351 . S
C627 N630 1.368 . S
C627 H632 0.931 . S
C628 C627 1.351 . S
C628 N629 1.373 . S
C628 H656 0.930 . S
N629 C628 1.373 . S
N629 C631 1.340 . S
N630 C627 1.368 . S
N630 C631 1.321 . S
N630 Co633 2.135 . S
C631 N629 1.340 . S
C631 N630 1.321 . S
C631 H655 0.930 . S
H632 C627 0.931 . S
Co633 N630 2.135 . S
Co633 N636 2.121 . S
Co633 O641 2.055 . S
Co633 O644 2.039 . S
Co633 N647 2.140 . S
C634 O635 1.227 . S
C634 O644 1.265 . S
O635 C634 1.227 . S
N636 Co633 2.121 . S
N636 C638 1.375 . S
N636 C639 1.313 . S
C637 C638 1.338 . S
C637 N640 1.377 . S
C637 H657 0.930 . S
C638 N636 1.375 . S
C638 C637 1.338 . S
C638 H642 0.931 . S
C639 N636 1.313 . S
C639 N640 1.344 . S
C639 H643 0.930 . S
N640 C637 1.377 . S
N640 C639 1.344 . S
O641 Co633 2.055 . S
O641 C645 1.253 . S
H642 C638 0.931 . S
H643 C639 0.930 . S
O644 Co633 2.039 . S
O644 C634 1.265 . S
C645 O641 1.253 . S
C645 O646 1.227 . S
O646 C645 1.227 . S
N647 Co633 2.140 . S
N647 C650 1.346 . S
N647 C651 1.345 . S
C648 C649 1.387 . S
C648 C652 1.391 . S
C649 C648 1.387 . S
C649 C650 1.369 . S
C649 H658 0.929 . S
C650 N647 1.346 . S
C650 C649 1.369 . S
C650 H653 0.928 . S
C651 N647 1.345 . S
C651 C652 1.371 . S
C651 H654 0.931 . S
C652 C648 1.391 . S
C652 C651 1.371 . S
C652 H659 0.930 . S
H653 C650 0.928 . S
H654 C651 0.931 . S
H655 C631 0.930 . S
H656 C628 0.930 . S
H657 C637 0.930 . S
H658 C649 0.929 . S
H659 C652 0.930 . S
C660 C661 1.351 . S
C660 N663 1.368 . S
C660 H665 0.931 . S
C661 C660 1.351 . S
C661 N662 1.373 . S
C661 H689 0.930 . S
N662 C661 1.373 . S
N662 C664 1.340 . S
N663 C660 1.368 . S
N663 C664 1.321 . S
N663 Co666 2.135 . S
C664 N662 1.340 . S
C664 N663 1.321 . S
C664 H688 0.930 . S
H665 C660 0.931 . S
Co666 N663 2.135 . S
Co666 N669 2.121 . S
Co666 O674 2.055 . S
Co666 O677 2.039 . S
Co666 N680 2.140 . S
C667 O668 1.227 . S
C667 O677 1.265 . S
O668 C667 1.227 . S
N669 Co666 2.121 . S
N669 C671 1.375 . S
N669 C672 1.313 . S
C670 C671 1.338 . S
C670 N673 1.377 . S
C670 H690 0.930 . S
C671 N669 1.375 . S
C671 C670 1.338 . S
C671 H675 0.931 . S
C672 N669 1.313 . S
C672 N673 1.344 . S
C672 H676 0.930 . S
N673 C670 1.377 . S
N673 C672 1.344 . S
O674 Co666 2.055 . S
O674 C678 1.253 . S
H675 C671 0.931 . S
H676 C672 0.930 . S
O677 Co666 2.039 . S
O677 C667 1.265 . S
C678 O674 1.253 . S
C678 O679 1.227 . S
O679 C678 1.227 . S
N680 Co666 2.140 . S
N680 C683 1.346 . S
N680 C684 1.345 . S
C681 C682 1.387 . S
C681 C685 1.391 . S
C682 C681 1.387 . S
C682 C683 1.369 . S
C682 H691 0.929 . S
C683 N680 1.346 . S
C683 C682 1.369 . S
C683 H686 0.928 . S
C684 N680 1.345 . S
C684 C685 1.371 . S
C684 H687 0.931 . S
C685 C681 1.391 . S
C685 C684 1.371 . S
C685 H692 0.930 . S
H686 C683 0.928 . S
H687 C684 0.931 . S
H688 C664 0.930 . S
H689 C661 0.930 . S
H690 C670 0.930 . S
H691 C682 0.929 . S
H692 C685 0.930 . S
C693 C694 1.351 . S
C693 N696 1.368 . S
C693 H698 0.931 . S
C694 C693 1.351 . S
C694 N695 1.373 . S
C694 H722 0.930 . S
N695 C694 1.373 . S
N695 C697 1.340 . S
N696 C693 1.368 . S
N696 C697 1.321 . S
N696 Co699 2.135 . S
C697 N695 1.340 . S
C697 N696 1.321 . S
C697 H721 0.930 . S
H698 C693 0.931 . S
Co699 N696 2.135 . S
Co699 N702 2.121 . S
Co699 O707 2.055 . S
Co699 O710 2.039 . S
Co699 N713 2.140 . S
C700 O701 1.227 . S
C700 O710 1.265 . S
O701 C700 1.227 . S
N702 Co699 2.121 . S
N702 C704 1.375 . S
N702 C705 1.313 . S
C703 C704 1.338 . S
C703 N706 1.377 . S
C703 H723 0.930 . S
C704 N702 1.375 . S
C704 C703 1.338 . S
C704 H708 0.931 . S
C705 N702 1.313 . S
C705 N706 1.344 . S
C705 H709 0.930 . S
N706 C703 1.377 . S
N706 C705 1.344 . S
O707 Co699 2.055 . S
O707 C711 1.253 . S
H708 C704 0.931 . S
H709 C705 0.930 . S
O710 Co699 2.039 . S
O710 C700 1.265 . S
C711 O707 1.253 . S
C711 O712 1.227 . S
O712 C711 1.227 . S
N713 Co699 2.140 . S
N713 C716 1.346 . S
N713 C717 1.345 . S
C714 C715 1.387 . S
C714 C718 1.391 . S
C715 C714 1.387 . S
C715 C716 1.369 . S
C715 H724 0.929 . S
C716 N713 1.346 . S
C716 C715 1.369 . S
C716 H719 0.928 . S
C717 N713 1.345 . S
C717 C718 1.371 . S
C717 H720 0.931 . S
C718 C714 1.391 . S
C718 C717 1.371 . S
C718 H725 0.930 . S
H719 C716 0.928 . S
H720 C717 0.931 . S
H721 C697 0.930 . S
H722 C694 0.930 . S
H723 C703 0.930 . S
H724 C715 0.929 . S
H725 C718 0.930 . S
C726 C727 1.351 . S
C726 N729 1.368 . S
C726 H731 0.931 . S
C727 C726 1.351 . S
C727 N728 1.373 . S
C727 H755 0.930 . S
N728 C727 1.373 . S
N728 C730 1.340 . S
N729 C726 1.368 . S
N729 C730 1.321 . S
N729 Co732 2.135 . S
C730 N728 1.340 . S
C730 N729 1.321 . S
C730 H754 0.930 . S
H731 C726 0.931 . S
Co732 N729 2.135 . S
Co732 N735 2.121 . S
Co732 O740 2.055 . S
Co732 O743 2.039 . S
Co732 N746 2.140 . S
C733 O734 1.227 . S
C733 O743 1.265 . S
O734 C733 1.227 . S
N735 Co732 2.121 . S
N735 C737 1.375 . S
N735 C738 1.313 . S
C736 C737 1.338 . S
C736 N739 1.377 . S
C736 H756 0.930 . S
C737 N735 1.375 . S
C737 C736 1.338 . S
C737 H741 0.931 . S
C738 N735 1.313 . S
C738 N739 1.344 . S
C738 H742 0.930 . S
N739 C736 1.377 . S
N739 C738 1.344 . S
O740 Co732 2.055 . S
O740 C744 1.253 . S
H741 C737 0.931 . S
H742 C738 0.930 . S
O743 Co732 2.039 . S
O743 C733 1.265 . S
C744 O740 1.253 . S
C744 O745 1.227 . S
O745 C744 1.227 . S
N746 Co732 2.140 . S
N746 C749 1.346 . S
N746 C750 1.345 . S
C747 C748 1.387 . S
C747 C751 1.391 . S
C748 C747 1.387 . S
C748 C749 1.369 . S
C748 H757 0.929 . S
C749 N746 1.346 . S
C749 C748 1.369 . S
C749 H752 0.928 . S
C750 N746 1.345 . S
C750 C751 1.371 . S
C750 H753 0.931 . S
C751 C747 1.391 . S
C751 C750 1.371 . S
C751 H758 0.930 . S
H752 C749 0.928 . S
H753 C750 0.931 . S
H754 C730 0.930 . S
H755 C727 0.930 . S
H756 C736 0.930 . S
H757 C748 0.929 . S
H758 C751 0.930 . S
C759 C760 1.351 . S
C759 N762 1.368 . S
C759 H764 0.931 . S
C760 C759 1.351 . S
C760 N761 1.373 . S
C760 H788 0.930 . S
N761 C760 1.373 . S
N761 C763 1.340 . S
N762 C759 1.368 . S
N762 C763 1.321 . S
N762 Co765 2.135 . S
C763 N761 1.340 . S
C763 N762 1.321 . S
C763 H787 0.930 . S
H764 C759 0.931 . S
Co765 N762 2.135 . S
Co765 N768 2.121 . S
Co765 O773 2.055 . S
Co765 O776 2.039 . S
Co765 N779 2.140 . S
C766 O767 1.227 . S
C766 O776 1.265 . S
O767 C766 1.227 . S
N768 Co765 2.121 . S
N768 C770 1.375 . S
N768 C771 1.313 . S
C769 C770 1.338 . S
C769 N772 1.377 . S
C769 H789 0.930 . S
C770 N768 1.375 . S
C770 C769 1.338 . S
C770 H774 0.931 . S
C771 N768 1.313 . S
C771 N772 1.344 . S
C771 H775 0.930 . S
N772 C769 1.377 . S
N772 C771 1.344 . S
O773 Co765 2.055 . S
O773 C777 1.253 . S
H774 C770 0.931 . S
H775 C771 0.930 . S
O776 Co765 2.039 . S
O776 C766 1.265 . S
C777 O773 1.253 . S
C777 O778 1.227 . S
O778 C777 1.227 . S
N779 Co765 2.140 . S
N779 C782 1.346 . S
N779 C783 1.345 . S
C780 C781 1.387 . S
C780 C784 1.391 . S
C781 C780 1.387 . S
C781 C782 1.369 . S
C781 H790 0.929 . S
C782 N779 1.346 . S
C782 C781 1.369 . S
C782 H785 0.928 . S
C783 N779 1.345 . S
C783 C784 1.371 . S
C783 H786 0.931 . S
C784 C780 1.391 . S
C784 C783 1.371 . S
C784 H791 0.930 . S
H785 C782 0.928 . S
H786 C783 0.931 . S
H787 C763 0.930 . S
H788 C760 0.930 . S
H789 C769 0.930 . S
H790 C781 0.929 . S
H791 C784 0.930 . S
C792 C793 1.351 . S
C792 N795 1.368 . S
C792 H797 0.931 . S
C793 C792 1.351 . S
C793 N794 1.373 . S
C793 H821 0.930 . S
N794 C793 1.373 . S
N794 C796 1.340 . S
N795 C792 1.368 . S
N795 C796 1.321 . S
N795 Co798 2.135 . S
C796 N794 1.340 . S
C796 N795 1.321 . S
C796 H820 0.930 . S
H797 C792 0.931 . S
Co798 N795 2.135 . S
Co798 N801 2.121 . S
Co798 O806 2.055 . S
Co798 O809 2.039 . S
Co798 N812 2.140 . S
C799 O800 1.227 . S
C799 O809 1.265 . S
O800 C799 1.227 . S
N801 Co798 2.121 . S
N801 C803 1.375 . S
N801 C804 1.313 . S
C802 C803 1.338 . S
C802 N805 1.377 . S
C802 H822 0.930 . S
C803 N801 1.375 . S
C803 C802 1.338 . S
C803 H807 0.931 . S
C804 N801 1.313 . S
C804 N805 1.344 . S
C804 H808 0.930 . S
N805 C802 1.377 . S
N805 C804 1.344 . S
O806 Co798 2.055 . S
O806 C810 1.253 . S
H807 C803 0.931 . S
H808 C804 0.930 . S
O809 Co798 2.039 . S
O809 C799 1.265 . S
C810 O806 1.253 . S
C810 O811 1.227 . S
O811 C810 1.227 . S
N812 Co798 2.140 . S
N812 C815 1.346 . S
N812 C816 1.345 . S
C813 C814 1.387 . S
C813 C817 1.391 . S
C814 C813 1.387 . S
C814 C815 1.369 . S
C814 H823 0.929 . S
C815 N812 1.346 . S
C815 C814 1.369 . S
C815 H818 0.928 . S
C816 N812 1.345 . S
C816 C817 1.371 . S
C816 H819 0.931 . S
C817 C813 1.391 . S
C817 C816 1.371 . S
C817 H824 0.930 . S
H818 C815 0.928 . S
H819 C816 0.931 . S
H820 C796 0.930 . S
H821 C793 0.930 . S
H822 C802 0.930 . S
H823 C814 0.929 . S
H824 C817 0.930 . S
C825 C826 1.351 . S
C825 N828 1.368 . S
C825 H830 0.931 . S
C826 C825 1.351 . S
C826 N827 1.373 . S
C826 H854 0.930 . S
N827 C826 1.373 . S
N827 C829 1.340 . S
N828 C825 1.368 . S
N828 C829 1.321 . S
N828 Co831 2.135 . S
C829 N827 1.340 . S
C829 N828 1.321 . S
C829 H853 0.930 . S
H830 C825 0.931 . S
Co831 N828 2.135 . S
Co831 N834 2.121 . S
Co831 O839 2.055 . S
Co831 O842 2.039 . S
Co831 N845 2.140 . S
C832 O833 1.227 . S
C832 O842 1.265 . S
O833 C832 1.227 . S
N834 Co831 2.121 . S
N834 C836 1.375 . S
N834 C837 1.313 . S
C835 C836 1.338 . S
C835 N838 1.377 . S
C835 H855 0.930 . S
C836 N834 1.375 . S
C836 C835 1.338 . S
C836 H840 0.931 . S
C837 N834 1.313 . S
C837 N838 1.344 . S
C837 H841 0.930 . S
N838 C835 1.377 . S
N838 C837 1.344 . S
O839 Co831 2.055 . S
O839 C843 1.253 . S
H840 C836 0.931 . S
H841 C837 0.930 . S
O842 Co831 2.039 . S
O842 C832 1.265 . S
C843 O839 1.253 . S
C843 O844 1.227 . S
O844 C843 1.227 . S
N845 Co831 2.140 . S
N845 C848 1.346 . S
N845 C849 1.345 . S
C846 C847 1.387 . S
C846 C850 1.391 . S
C847 C846 1.387 . S
C847 C848 1.369 . S
C847 H856 0.929 . S
C848 N845 1.346 . S
C848 C847 1.369 . S
C848 H851 0.928 . S
C849 N845 1.345 . S
C849 C850 1.371 . S
C849 H852 0.931 . S
C850 C846 1.391 . S
C850 C849 1.371 . S
C850 H857 0.930 . S
H851 C848 0.928 . S
H852 C849 0.931 . S
H853 C829 0.930 . S
H854 C826 0.930 . S
H855 C835 0.930 . S
H856 C847 0.929 . S
H857 C850 0.930 . S
C858 C859 1.351 . S
C858 N861 1.368 . S
C858 H863 0.931 . S
C859 C858 1.351 . S
C859 N860 1.373 . S
C859 H887 0.930 . S
N860 C859 1.373 . S
N860 C862 1.340 . S
N861 C858 1.368 . S
N861 C862 1.321 . S
N861 Co864 2.135 . S
C862 N860 1.340 . S
C862 N861 1.321 . S
C862 H886 0.930 . S
H863 C858 0.931 . S
Co864 N861 2.135 . S
Co864 N867 2.121 . S
Co864 O872 2.055 . S
Co864 O875 2.039 . S
Co864 N878 2.140 . S
C865 O866 1.227 . S
C865 O875 1.265 . S
O866 C865 1.227 . S
N867 Co864 2.121 . S
N867 C869 1.375 . S
N867 C870 1.313 . S
C868 C869 1.338 . S
C868 N871 1.377 . S
C868 H888 0.930 . S
C869 N867 1.375 . S
C869 C868 1.338 . S
C869 H873 0.931 . S
C870 N867 1.313 . S
C870 N871 1.344 . S
C870 H874 0.930 . S
N871 C868 1.377 . S
N871 C870 1.344 . S
O872 Co864 2.055 . S
O872 C876 1.253 . S
H873 C869 0.931 . S
H874 C870 0.930 . S
O875 Co864 2.039 . S
O875 C865 1.265 . S
C876 O872 1.253 . S
C876 O877 1.227 . S
O877 C876 1.227 . S
N878 Co864 2.140 . S
N878 C881 1.346 . S
N878 C882 1.345 . S
C879 C880 1.387 . S
C879 C883 1.391 . S
C880 C879 1.387 . S
C880 C881 1.369 . S
C880 H889 0.929 . S
C881 N878 1.346 . S
C881 C880 1.369 . S
C881 H884 0.928 . S
C882 N878 1.345 . S
C882 C883 1.371 . S
C882 H885 0.931 . S
C883 C879 1.391 . S
C883 C882 1.371 . S
C883 H890 0.930 . S
H884 C881 0.928 . S
H885 C882 0.931 . S
H886 C862 0.930 . S
H887 C859 0.930 . S
H888 C868 0.930 . S
H889 C880 0.929 . S
H890 C883 0.930 . S
C891 C892 1.351 . S
C891 N894 1.368 . S
C891 H896 0.931 . S
C892 C891 1.351 . S
C892 N893 1.373 . S
C892 H920 0.930 . S
N893 C892 1.373 . S
N893 C895 1.340 . S
N894 C891 1.368 . S
N894 C895 1.321 . S
N894 Co897 2.135 . S
C895 N893 1.340 . S
C895 N894 1.321 . S
C895 H919 0.930 . S
H896 C891 0.931 . S
Co897 N894 2.135 . S
Co897 N900 2.121 . S
Co897 O905 2.055 . S
Co897 O908 2.039 . S
Co897 N911 2.140 . S
C898 O899 1.227 . S
C898 O908 1.265 . S
O899 C898 1.227 . S
N900 Co897 2.121 . S
N900 C902 1.375 . S
N900 C903 1.313 . S
C901 C902 1.338 . S
C901 N904 1.377 . S
C901 H921 0.930 . S
C902 N900 1.375 . S
C902 C901 1.338 . S
C902 H906 0.931 . S
C903 N900 1.313 . S
C903 N904 1.344 . S
C903 H907 0.930 . S
N904 C901 1.377 . S
N904 C903 1.344 . S
O905 Co897 2.055 . S
O905 C909 1.253 . S
H906 C902 0.931 . S
H907 C903 0.930 . S
O908 Co897 2.039 . S
O908 C898 1.265 . S
C909 O905 1.253 . S
C909 O910 1.227 . S
O910 C909 1.227 . S
N911 Co897 2.140 . S
N911 C914 1.346 . S
N911 C915 1.345 . S
C912 C913 1.387 . S
C912 C916 1.391 . S
C913 C912 1.387 . S
C913 C914 1.369 . S
C913 H922 0.929 . S
C914 N911 1.346 . S
C914 C913 1.369 . S
C914 H917 0.928 . S
C915 N911 1.345 . S
C915 C916 1.371 . S
C915 H918 0.931 . S
C916 C912 1.391 . S
C916 C915 1.371 . S
C916 H923 0.930 . S
H917 C914 0.928 . S
H918 C915 0.931 . S
H919 C895 0.930 . S
H920 C892 0.930 . S
H921 C901 0.930 . S
H922 C913 0.929 . S
H923 C916 0.930 . S
C924 C925 1.351 . S
C924 N927 1.368 . S
C924 H929 0.931 . S
C925 C924 1.351 . S
C925 N926 1.373 . S
C925 H953 0.930 . S
N926 C925 1.373 . S
N926 C928 1.340 . S
N927 C924 1.368 . S
N927 C928 1.321 . S
N927 Co930 2.135 . S
C928 N926 1.340 . S
C928 N927 1.321 . S
C928 H952 0.930 . S
H929 C924 0.931 . S
Co930 N927 2.135 . S
Co930 N933 2.121 . S
Co930 O938 2.055 . S
Co930 O941 2.039 . S
Co930 N944 2.140 . S
C931 O932 1.227 . S
C931 O941 1.265 . S
O932 C931 1.227 . S
N933 Co930 2.121 . S
N933 C935 1.375 . S
N933 C936 1.313 . S
C934 C935 1.338 . S
C934 N937 1.377 . S
C934 H954 0.930 . S
C935 N933 1.375 . S
C935 C934 1.338 . S
C935 H939 0.931 . S
C936 N933 1.313 . S
C936 N937 1.344 . S
C936 H940 0.930 . S
N937 C934 1.377 . S
N937 C936 1.344 . S
O938 Co930 2.055 . S
O938 C942 1.253 . S
H939 C935 0.931 . S
H940 C936 0.930 . S
O941 Co930 2.039 . S
O941 C931 1.265 . S
C942 O938 1.253 . S
C942 O943 1.227 . S
O943 C942 1.227 . S
N944 Co930 2.140 . S
N944 C947 1.346 . S
N944 C948 1.345 . S
C945 C946 1.387 . S
C945 C949 1.391 . S
C946 C945 1.387 . S
C946 C947 1.369 . S
C946 H955 0.929 . S
C947 N944 1.346 . S
C947 C946 1.369 . S
C947 H950 0.928 . S
C948 N944 1.345 . S
C948 C949 1.371 . S
C948 H951 0.931 . S
C949 C945 1.391 . S
C949 C948 1.371 . S
C949 H956 0.930 . S
H950 C947 0.928 . S
H951 C948 0.931 . S
H952 C928 0.930 . S
H953 C925 0.930 . S
H954 C934 0.930 . S
H955 C946 0.929 . S
H956 C949 0.930 . S
C957 C958 1.351 . S
C957 N960 1.368 . S
C957 H962 0.931 . S
C958 C957 1.351 . S
C958 N959 1.373 . S
C958 H986 0.930 . S
N959 C958 1.373 . S
N959 C961 1.340 . S
N960 C957 1.368 . S
N960 C961 1.321 . S
N960 Co963 2.135 . S
C961 N959 1.340 . S
C961 N960 1.321 . S
C961 H985 0.930 . S
H962 C957 0.931 . S
Co963 N960 2.135 . S
Co963 N966 2.121 . S
Co963 O971 2.055 . S
Co963 O974 2.039 . S
Co963 N977 2.140 . S
C964 O965 1.227 . S
C964 O974 1.265 . S
O965 C964 1.227 . S
N966 Co963 2.121 . S
N966 C968 1.375 . S
N966 C969 1.313 . S
C967 C968 1.338 . S
C967 N970 1.377 . S
C967 H987 0.930 . S
C968 N966 1.375 . S
C968 C967 1.338 . S
C968 H972 0.931 . S
C969 N966 1.313 . S
C969 N970 1.344 . S
C969 H973 0.930 . S
N970 C967 1.377 . S
N970 C969 1.344 . S
O971 Co963 2.055 . S
O971 C975 1.253 . S
H972 C968 0.931 . S
H973 C969 0.930 . S
O974 Co963 2.039 . S
O974 C964 1.265 . S
C975 O971 1.253 . S
C975 O976 1.227 . S
O976 C975 1.227 . S
N977 Co963 2.140 . S
N977 C980 1.346 . S
N977 C981 1.345 . S
C978 C979 1.387 . S
C978 C982 1.391 . S
C979 C978 1.387 . S
C979 C980 1.369 . S
C979 H988 0.929 . S
C980 N977 1.346 . S
C980 C979 1.369 . S
C980 H983 0.928 . S
C981 N977 1.345 . S
C981 C982 1.371 . S
C981 H984 0.931 . S
C982 C978 1.391 . S
C982 C981 1.371 . S
C982 H989 0.930 . S
H983 C980 0.928 . S
H984 C981 0.931 . S
H985 C961 0.930 . S
H986 C958 0.930 . S
H987 C967 0.930 . S
H988 C979 0.929 . S
H989 C982 0.930 . S
C990 C991 1.351 . S
C990 N993 1.368 . S
C990 H995 0.931 . S
C991 C990 1.351 . S
C991 N992 1.373 . S
C991 H1019 0.930 . S
N992 C991 1.373 . S
N992 C994 1.340 . S
N993 C990 1.368 . S
N993 C994 1.321 . S
N993 Co996 2.135 . S
C994 N992 1.340 . S
C994 N993 1.321 . S
C994 H1018 0.930 . S
H995 C990 0.931 . S
Co996 N993 2.135 . S
Co996 N999 2.121 . S
Co996 O1004 2.055 . S
Co996 O1007 2.039 . S
Co996 N1010 2.140 . S
C997 O998 1.227 . S
C997 O1007 1.265 . S
O998 C997 1.227 . S
N999 Co996 2.121 . S
N999 C1001 1.375 . S
N999 C1002 1.313 . S
C1000 C1001 1.338 . S
C1000 N1003 1.377 . S
C1000 H1020 0.930 . S
C1001 N999 1.375 . S
C1001 C1000 1.338 . S
C1001 H1005 0.931 . S
C1002 N999 1.313 . S
C1002 N1003 1.344 . S
C1002 H1006 0.930 . S
N1003 C1000 1.377 . S
N1003 C1002 1.344 . S
O1004 Co996 2.055 . S
O1004 C1008 1.253 . S
H1005 C1001 0.931 . S
H1006 C1002 0.930 . S
O1007 Co996 2.039 . S
O1007 C997 1.265 . S
C1008 O1004 1.253 . S
C1008 O1009 1.227 . S
O1009 C1008 1.227 . S
N1010 Co996 2.140 . S
N1010 C1013 1.346 . S
N1010 C1014 1.345 . S
C1011 C1012 1.387 . S
C1011 C1015 1.391 . S
C1012 C1011 1.387 . S
C1012 C1013 1.369 . S
C1012 H1021 0.929 . S
C1013 N1010 1.346 . S
C1013 C1012 1.369 . S
C1013 H1016 0.928 . S
C1014 N1010 1.345 . S
C1014 C1015 1.371 . S
C1014 H1017 0.931 . S
C1015 C1011 1.391 . S
C1015 C1014 1.371 . S
C1015 H1022 0.930 . S
H1016 C1013 0.928 . S
H1017 C1014 0.931 . S
H1018 C994 0.930 . S
H1019 C991 0.930 . S
H1020 C1000 0.930 . S
H1021 C1012 0.929 . S
H1022 C1015 0.930 . S
C1023 C1024 1.351 . S
C1023 N1026 1.368 . S
C1023 H1028 0.931 . S
C1024 C1023 1.351 . S
C1024 N1025 1.373 . S
C1024 H1052 0.930 . S
N1025 C1024 1.373 . S
N1025 C1027 1.340 . S
N1026 C1023 1.368 . S
N1026 C1027 1.321 . S
N1026 Co1029 2.135 . S
C1027 N1025 1.340 . S
C1027 N1026 1.321 . S
C1027 H1051 0.930 . S
H1028 C1023 0.931 . S
Co1029 N1026 2.135 . S
Co1029 N1032 2.121 . S
Co1029 O1037 2.055 . S
Co1029 O1040 2.039 . S
Co1029 N1043 2.140 . S
C1030 O1031 1.227 . S
C1030 O1040 1.265 . S
O1031 C1030 1.227 . S
N1032 Co1029 2.121 . S
N1032 C1034 1.375 . S
N1032 C1035 1.313 . S
C1033 C1034 1.338 . S
C1033 N1036 1.377 . S
C1033 H1053 0.930 . S
C1034 N1032 1.375 . S
C1034 C1033 1.338 . S
C1034 H1038 0.931 . S
C1035 N1032 1.313 . S
C1035 N1036 1.344 . S
C1035 H1039 0.930 . S
N1036 C1033 1.377 . S
N1036 C1035 1.344 . S
O1037 Co1029 2.055 . S
O1037 C1041 1.253 . S
H1038 C1034 0.931 . S
H1039 C1035 0.930 . S
O1040 Co1029 2.039 . S
O1040 C1030 1.265 . S
C1041 O1037 1.253 . S
C1041 O1042 1.227 . S
O1042 C1041 1.227 . S
N1043 Co1029 2.140 . S
N1043 C1046 1.346 . S
N1043 C1047 1.345 . S
C1044 C1045 1.387 . S
C1044 C1048 1.391 . S
C1045 C1044 1.387 . S
C1045 C1046 1.369 . S
C1045 H1054 0.929 . S
C1046 N1043 1.346 . S
C1046 C1045 1.369 . S
C1046 H1049 0.928 . S
C1047 N1043 1.345 . S
C1047 C1048 1.371 . S
C1047 H1050 0.931 . S
C1048 C1044 1.391 . S
C1048 C1047 1.371 . S
C1048 H1055 0.930 . S
H1049 C1046 0.928 . S
H1050 C1047 0.931 . S
H1051 C1027 0.930 . S
H1052 C1024 0.930 . S
H1053 C1033 0.930 . S
H1054 C1045 0.929 . S
H1055 C1048 0.930 . S
C1056 C1057 1.351 . S
C1056 N1059 1.368 . S
C1056 H1061 0.931 . S
C1057 C1056 1.351 . S
C1057 N1058 1.373 . S
C1057 H1085 0.930 . S
N1058 C1057 1.373 . S
N1058 C1060 1.340 . S
N1059 C1056 1.368 . S
N1059 C1060 1.321 . S
N1059 Co1062 2.135 . S
C1060 N1058 1.340 . S
C1060 N1059 1.321 . S
C1060 H1084 0.930 . S
H1061 C1056 0.931 . S
Co1062 N1059 2.135 . S
Co1062 N1065 2.121 . S
Co1062 O1070 2.055 . S
Co1062 O1073 2.039 . S
Co1062 N1076 2.140 . S
C1063 O1064 1.227 . S
C1063 O1073 1.265 . S
O1064 C1063 1.227 . S
N1065 Co1062 2.121 . S
N1065 C1067 1.375 . S
N1065 C1068 1.313 . S
C1066 C1067 1.338 . S
C1066 N1069 1.377 . S
C1066 H1086 0.930 . S
C1067 N1065 1.375 . S
C1067 C1066 1.338 . S
C1067 H1071 0.931 . S
C1068 N1065 1.313 . S
C1068 N1069 1.344 . S
C1068 H1072 0.930 . S
N1069 C1066 1.377 . S
N1069 C1068 1.344 . S
O1070 Co1062 2.055 . S
O1070 C1074 1.253 . S
H1071 C1067 0.931 . S
H1072 C1068 0.930 . S
O1073 Co1062 2.039 . S
O1073 C1063 1.265 . S
C1074 O1070 1.253 . S
C1074 O1075 1.227 . S
O1075 C1074 1.227 . S
N1076 Co1062 2.140 . S
N1076 C1079 1.346 . S
N1076 C1080 1.345 . S
C1077 C1078 1.387 . S
C1077 C1081 1.391 . S
C1078 C1077 1.387 . S
C1078 C1079 1.369 . S
C1078 H1087 0.929 . S
C1079 N1076 1.346 . S
C1079 C1078 1.369 . S
C1079 H1082 0.928 . S
C1080 N1076 1.345 . S
C1080 C1081 1.371 . S
C1080 H1083 0.931 . S
C1081 C1077 1.391 . S
C1081 C1080 1.371 . S
C1081 H1088 0.930 . S
H1082 C1079 0.928 . S
H1083 C1080 0.931 . S
H1084 C1060 0.930 . S
H1085 C1057 0.930 . S
H1086 C1066 0.930 . S
H1087 C1078 0.929 . S
H1088 C1081 0.930 . S
C1089 C1090 1.351 . S
C1089 N1092 1.368 . S
C1089 H1094 0.931 . S
C1090 C1089 1.351 . S
C1090 N1091 1.373 . S
C1090 H1118 0.930 . S
N1091 C1090 1.373 . S
N1091 C1093 1.340 . S
N1092 C1089 1.368 . S
N1092 C1093 1.321 . S
N1092 Co1095 2.135 . S
C1093 N1091 1.340 . S
C1093 N1092 1.321 . S
C1093 H1117 0.930 . S
H1094 C1089 0.931 . S
Co1095 N1092 2.135 . S
Co1095 N1098 2.121 . S
Co1095 O1103 2.055 . S
Co1095 O1106 2.039 . S
Co1095 N1109 2.140 . S
C1096 O1097 1.227 . S
C1096 O1106 1.265 . S
O1097 C1096 1.227 . S
N1098 Co1095 2.121 . S
N1098 C1100 1.375 . S
N1098 C1101 1.313 . S
C1099 C1100 1.338 . S
C1099 N1102 1.377 . S
C1099 H1119 0.930 . S
C1100 N1098 1.375 . S
C1100 C1099 1.338 . S
C1100 H1104 0.931 . S
C1101 N1098 1.313 . S
C1101 N1102 1.344 . S
C1101 H1105 0.930 . S
N1102 C1099 1.377 . S
N1102 C1101 1.344 . S
O1103 Co1095 2.055 . S
O1103 C1107 1.253 . S
H1104 C1100 0.931 . S
H1105 C1101 0.930 . S
O1106 Co1095 2.039 . S
O1106 C1096 1.265 . S
C1107 O1103 1.253 . S
C1107 O1108 1.227 . S
O1108 C1107 1.227 . S
N1109 Co1095 2.140 . S
N1109 C1112 1.346 . S
N1109 C1113 1.345 . S
C1110 C1111 1.387 . S
C1110 C1114 1.391 . S
C1111 C1110 1.387 . S
C1111 C1112 1.369 . S
C1111 H1120 0.929 . S
C1112 N1109 1.346 . S
C1112 C1111 1.369 . S
C1112 H1115 0.928 . S
C1113 N1109 1.345 . S
C1113 C1114 1.371 . S
C1113 H1116 0.931 . S
C1114 C1110 1.391 . S
C1114 C1113 1.371 . S
C1114 H1121 0.930 . S
H1115 C1112 0.928 . S
H1116 C1113 0.931 . S
H1117 C1093 0.930 . S
H1118 C1090 0.930 . S
H1119 C1099 0.930 . S
H1120 C1111 0.929 . S
H1121 C1114 0.930 . S
C1122 C1123 1.351 . S
C1122 N1125 1.368 . S
C1122 H1127 0.931 . S
C1123 C1122 1.351 . S
C1123 N1124 1.373 . S
C1123 H1151 0.930 . S
N1124 C1123 1.373 . S
N1124 C1126 1.340 . S
N1125 C1122 1.368 . S
N1125 C1126 1.321 . S
N1125 Co1128 2.135 . S
C1126 N1124 1.340 . S
C1126 N1125 1.321 . S
C1126 H1150 0.930 . S
H1127 C1122 0.931 . S
Co1128 N1125 2.135 . S
Co1128 N1131 2.121 . S
Co1128 O1136 2.055 . S
Co1128 O1139 2.039 . S
Co1128 N1142 2.140 . S
C1129 O1130 1.227 . S
C1129 O1139 1.265 . S
O1130 C1129 1.227 . S
N1131 Co1128 2.121 . S
N1131 C1133 1.375 . S
N1131 C1134 1.313 . S
C1132 C1133 1.338 . S
C1132 N1135 1.377 . S
C1132 H1152 0.930 . S
C1133 N1131 1.375 . S
C1133 C1132 1.338 . S
C1133 H1137 0.931 . S
C1134 N1131 1.313 . S
C1134 N1135 1.344 . S
C1134 H1138 0.930 . S
N1135 C1132 1.377 . S
N1135 C1134 1.344 . S
O1136 Co1128 2.055 . S
O1136 C1140 1.253 . S
H1137 C1133 0.931 . S
H1138 C1134 0.930 . S
O1139 Co1128 2.039 . S
O1139 C1129 1.265 . S
C1140 O1136 1.253 . S
C1140 O1141 1.227 . S
O1141 C1140 1.227 . S
N1142 Co1128 2.140 . S
N1142 C1145 1.346 . S
N1142 C1146 1.345 . S
C1143 C1144 1.387 . S
C1143 C1147 1.391 . S
C1144 C1143 1.387 . S
C1144 C1145 1.369 . S
C1144 H1153 0.929 . S
C1145 N1142 1.346 . S
C1145 C1144 1.369 . S
C1145 H1148 0.928 . S
C1146 N1142 1.345 . S
C1146 C1147 1.371 . S
C1146 H1149 0.931 . S
C1147 C1143 1.391 . S
C1147 C1146 1.371 . S
C1147 H1154 0.930 . S
H1148 C1145 0.928 . S
H1149 C1146 0.931 . S
H1150 C1126 0.930 . S
H1151 C1123 0.930 . S
H1152 C1132 0.930 . S
H1153 C1144 0.929 . S
H1154 C1147 0.930 . S
C1155 C1156 1.351 . S
C1155 N1158 1.368 . S
C1155 H1160 0.931 . S
C1156 C1155 1.351 . S
C1156 N1157 1.373 . S
C1156 H1184 0.930 . S
N1157 C1156 1.373 . S
N1157 C1159 1.340 . S
N1158 C1155 1.368 . S
N1158 C1159 1.321 . S
N1158 Co1161 2.135 . S
C1159 N1157 1.340 . S
C1159 N1158 1.321 . S
C1159 H1183 0.930 . S
H1160 C1155 0.931 . S
Co1161 N1158 2.135 . S
Co1161 N1164 2.121 . S
Co1161 O1169 2.055 . S
Co1161 O1172 2.039 . S
Co1161 N1175 2.140 . S
C1162 O1163 1.227 . S
C1162 O1172 1.265 . S
O1163 C1162 1.227 . S
N1164 Co1161 2.121 . S
N1164 C1166 1.375 . S
N1164 C1167 1.313 . S
C1165 C1166 1.338 . S
C1165 N1168 1.377 . S
C1165 H1185 0.930 . S
C1166 N1164 1.375 . S
C1166 C1165 1.338 . S
C1166 H1170 0.931 . S
C1167 N1164 1.313 . S
C1167 N1168 1.344 . S
C1167 H1171 0.930 . S
N1168 C1165 1.377 . S
N1168 C1167 1.344 . S
O1169 Co1161 2.055 . S
O1169 C1173 1.253 . S
H1170 C1166 0.931 . S
H1171 C1167 0.930 . S
O1172 Co1161 2.039 . S
O1172 C1162 1.265 . S
C1173 O1169 1.253 . S
C1173 O1174 1.227 . S
O1174 C1173 1.227 . S
N1175 Co1161 2.140 . S
N1175 C1178 1.346 . S
N1175 C1179 1.345 . S
C1176 C1177 1.387 . S
C1176 C1180 1.391 . S
C1177 C1176 1.387 . S
C1177 C1178 1.369 . S
C1177 H1186 0.929 . S
C1178 N1175 1.346 . S
C1178 C1177 1.369 . S
C1178 H1181 0.928 . S
C1179 N1175 1.345 . S
C1179 C1180 1.371 . S
C1179 H1182 0.931 . S
C1180 C1176 1.391 . S
C1180 C1179 1.371 . S
C1180 H1187 0.930 . S
H1181 C1178 0.928 . S
H1182 C1179 0.931 . S
H1183 C1159 0.930 . S
H1184 C1156 0.930 . S
H1185 C1165 0.930 . S
H1186 C1177 0.929 . S
H1187 C1180 0.930 . S
H1188 C1200 0.930 . S
H1189 C1202 0.930 . S
H1190 C1203 0.930 . S
H1191 C1207 0.959 . S
H1192 C1207 0.959 . S
H1193 C1207 0.961 . S
H1194 C1208 0.960 . S
H1195 C1208 0.961 . S
H1196 C1208 0.959 . S
H1197 C1211 0.929 . S
H1198 C1212 0.931 . S
H1199 C1214 0.930 . S
C1200 H1188 0.930 . S
C1200 C1201 1.399 . S
C1200 C1205 1.399 . S
C1201 C1200 1.399 . S
C1201 C1202 1.376 . S
C1202 H1189 0.930 . S
C1202 C1201 1.376 . S
C1202 C1203 1.388 . S
C1203 H1190 0.930 . S
C1203 C1202 1.388 . S
C1203 C1204 1.390 . S
C1204 C1203 1.390 . S
C1204 C1205 1.394 . S
C1204 C1210 1.465 . S
C1205 C1200 1.399 . S
C1205 C1204 1.394 . S
C1205 C1206 1.516 . S
C1206 C1205 1.516 . S
C1206 C1207 1.502 . S
C1206 C1208 1.561 . S
C1206 C1209 1.526 . S
C1207 H1191 0.959 . S
C1207 H1192 0.959 . S
C1207 H1193 0.961 . S
C1207 C1206 1.502 . S
C1208 H1194 0.960 . S
C1208 H1195 0.961 . S
C1208 H1196 0.959 . S
C1208 C1206 1.561 . S
C1209 C1206 1.526 . S
C1209 C1210 1.396 . S
C1209 C1214 1.390 . S
C1210 C1204 1.465 . S
C1210 C1209 1.396 . S
C1210 C1211 1.399 . S
C1211 H1197 0.929 . S
C1211 C1210 1.399 . S
C1211 C1212 1.385 . S
C1212 H1198 0.931 . S
C1212 C1211 1.385 . S
C1212 C1213 1.389 . S
C1213 C1212 1.389 . S
C1213 C1214 1.387 . S
C1214 H1199 0.930 . S
C1214 C1209 1.390 . S
C1214 C1213 1.387 . S
H1215 C1227 0.930 . S
H1216 C1229 0.930 . S
H1217 C1230 0.930 . S
H1218 C1234 0.959 . S
H1219 C1234 0.959 . S
H1220 C1234 0.961 . S
H1221 C1235 0.960 . S
H1222 C1235 0.961 . S
H1223 C1235 0.959 . S
H1224 C1238 0.929 . S
H1225 C1239 0.931 . S
H1226 C1241 0.930 . S
C1227 H1215 0.930 . S
C1227 C1228 1.399 . S
C1227 C1232 1.399 . S
C1228 C1227 1.399 . S
C1228 C1229 1.376 . S
C1229 H1216 0.930 . S
C1229 C1228 1.376 . S
C1229 C1230 1.388 . S
C1230 H1217 0.930 . S
C1230 C1229 1.388 . S
C1230 C1231 1.390 . S
C1231 C1230 1.390 . S
C1231 C1232 1.394 . S
C1231 C1237 1.465 . S
C1232 C1227 1.399 . S
C1232 C1231 1.394 . S
C1232 C1233 1.516 . S
C1233 C1232 1.516 . S
C1233 C1234 1.502 . S
C1233 C1235 1.561 . S
C1233 C1236 1.526 . S
C1234 H1218 0.959 . S
C1234 H1219 0.959 . S
C1234 H1220 0.961 . S
C1234 C1233 1.502 . S
C1235 H1221 0.960 . S
C1235 H1222 0.961 . S
C1235 H1223 0.959 . S
C1235 C1233 1.561 . S
C1236 C1233 1.526 . S
C1236 C1237 1.396 . S
C1236 C1241 1.390 . S
C1237 C1231 1.465 . S
C1237 C1236 1.396 . S
C1237 C1238 1.399 . S
C1238 H1224 0.929 . S
C1238 C1237 1.399 . S
C1238 C1239 1.385 . S
C1239 H1225 0.931 . S
C1239 C1238 1.385 . S
C1239 C1240 1.389 . S
C1240 C1239 1.389 . S
C1240 C1241 1.387 . S
C1241 H1226 0.930 . S
C1241 C1236 1.390 . S
C1241 C1240 1.387 . S
H1242 C1254 0.930 . S
H1243 C1256 0.930 . S
H1244 C1257 0.930 . S
H1245 C1261 0.959 . S
H1246 C1261 0.959 . S
H1247 C1261 0.961 . S
H1248 C1262 0.960 . S
H1249 C1262 0.961 . S
H1250 C1262 0.959 . S
H1251 C1265 0.929 . S
H1252 C1266 0.931 . S
H1253 C1268 0.930 . S
C1254 H1242 0.930 . S
C1254 C1255 1.399 . S
C1254 C1259 1.399 . S
C1255 C1254 1.399 . S
C1255 C1256 1.376 . S
C1256 H1243 0.930 . S
C1256 C1255 1.376 . S
C1256 C1257 1.388 . S
C1257 H1244 0.930 . S
C1257 C1256 1.388 . S
C1257 C1258 1.390 . S
C1258 C1257 1.390 . S
C1258 C1259 1.394 . S
C1258 C1264 1.465 . S
C1259 C1254 1.399 . S
C1259 C1258 1.394 . S
C1259 C1260 1.516 . S
C1260 C1259 1.516 . S
C1260 C1261 1.502 . S
C1260 C1262 1.561 . S
C1260 C1263 1.526 . S
C1261 H1245 0.959 . S
C1261 H1246 0.959 . S
C1261 H1247 0.961 . S
C1261 C1260 1.502 . S
C1262 H1248 0.960 . S
C1262 H1249 0.961 . S
C1262 H1250 0.959 . S
C1262 C1260 1.561 . S
C1263 C1260 1.526 . S
C1263 C1264 1.396 . S
C1263 C1268 1.390 . S
C1264 C1258 1.465 . S
C1264 C1263 1.396 . S
C1264 C1265 1.399 . S
C1265 H1251 0.929 . S
C1265 C1264 1.399 . S
C1265 C1266 1.385 . S
C1266 H1252 0.931 . S
C1266 C1265 1.385 . S
C1266 C1267 1.389 . S
C1267 C1266 1.389 . S
C1267 C1268 1.387 . S
C1268 H1253 0.930 . S
C1268 C1263 1.390 . S
C1268 C1267 1.387 . S
H1269 C1281 0.930 . S
H1270 C1283 0.930 . S
H1271 C1284 0.930 . S
H1272 C1288 0.959 . S
H1273 C1288 0.959 . S
H1274 C1288 0.961 . S
H1275 C1289 0.960 . S
H1276 C1289 0.961 . S
H1277 C1289 0.959 . S
H1278 C1292 0.929 . S
H1279 C1293 0.931 . S
H1280 C1295 0.930 . S
C1281 H1269 0.930 . S
C1281 C1282 1.399 . S
C1281 C1286 1.399 . S
C1282 C1281 1.399 . S
C1282 C1283 1.376 . S
C1283 H1270 0.930 . S
C1283 C1282 1.376 . S
C1283 C1284 1.388 . S
C1284 H1271 0.930 . S
C1284 C1283 1.388 . S
C1284 C1285 1.390 . S
C1285 C1284 1.390 . S
C1285 C1286 1.394 . S
C1285 C1291 1.465 . S
C1286 C1281 1.399 . S
C1286 C1285 1.394 . S
C1286 C1287 1.516 . S
C1287 C1286 1.516 . S
C1287 C1288 1.502 . S
C1287 C1289 1.561 . S
C1287 C1290 1.526 . S
C1288 H1272 0.959 . S
C1288 H1273 0.959 . S
C1288 H1274 0.961 . S
C1288 C1287 1.502 . S
C1289 H1275 0.960 . S
C1289 H1276 0.961 . S
C1289 H1277 0.959 . S
C1289 C1287 1.561 . S
C1290 C1287 1.526 . S
C1290 C1291 1.396 . S
C1290 C1295 1.390 . S
C1291 C1285 1.465 . S
C1291 C1290 1.396 . S
C1291 C1292 1.399 . S
C1292 H1278 0.929 . S
C1292 C1291 1.399 . S
C1292 C1293 1.385 . S
C1293 H1279 0.931 . S
C1293 C1292 1.385 . S
C1293 C1294 1.389 . S
C1294 C1293 1.389 . S
C1294 C1295 1.387 . S
C1295 H1280 0.930 . S
C1295 C1290 1.390 . S
C1295 C1294 1.387 . S
H1296 C1308 0.930 . S
H1297 C1310 0.930 . S
H1298 C1311 0.930 . S
H1299 C1315 0.959 . S
H1300 C1315 0.959 . S
H1301 C1315 0.961 . S
H1302 C1316 0.960 . S
H1303 C1316 0.961 . S
H1304 C1316 0.959 . S
H1305 C1319 0.929 . S
H1306 C1320 0.931 . S
H1307 C1322 0.930 . S
C1308 H1296 0.930 . S
C1308 C1309 1.399 . S
C1308 C1313 1.399 . S
C1309 C1308 1.399 . S
C1309 C1310 1.376 . S
C1310 H1297 0.930 . S
C1310 C1309 1.376 . S
C1310 C1311 1.388 . S
C1311 H1298 0.930 . S
C1311 C1310 1.388 . S
C1311 C1312 1.390 . S
C1312 C1311 1.390 . S
C1312 C1313 1.394 . S
C1312 C1318 1.465 . S
C1313 C1308 1.399 . S
C1313 C1312 1.394 . S
C1313 C1314 1.516 . S
C1314 C1313 1.516 . S
C1314 C1315 1.502 . S
C1314 C1316 1.561 . S
C1314 C1317 1.526 . S
C1315 H1299 0.959 . S
C1315 H1300 0.959 . S
C1315 H1301 0.961 . S
C1315 C1314 1.502 . S
C1316 H1302 0.960 . S
C1316 H1303 0.961 . S
C1316 H1304 0.959 . S
C1316 C1314 1.561 . S
C1317 C1314 1.526 . S
C1317 C1318 1.396 . S
C1317 C1322 1.390 . S
C1318 C1312 1.465 . S
C1318 C1317 1.396 . S
C1318 C1319 1.399 . S
C1319 H1305 0.929 . S
C1319 C1318 1.399 . S
C1319 C1320 1.385 . S
C1320 H1306 0.931 . S
C1320 C1319 1.385 . S
C1320 C1321 1.389 . S
C1321 C1320 1.389 . S
C1321 C1322 1.387 . S
C1322 H1307 0.930 . S
C1322 C1317 1.390 . S
C1322 C1321 1.387 . S
H1323 C1335 0.930 . S
H1324 C1337 0.930 . S
H1325 C1338 0.930 . S
H1326 C1342 0.959 . S
H1327 C1342 0.959 . S
H1328 C1342 0.961 . S
H1329 C1343 0.960 . S
H1330 C1343 0.961 . S
H1331 C1343 0.959 . S
H1332 C1346 0.929 . S
H1333 C1347 0.931 . S
H1334 C1349 0.930 . S
C1335 H1323 0.930 . S
C1335 C1336 1.399 . S
C1335 C1340 1.399 . S
C1336 C1335 1.399 . S
C1336 C1337 1.376 . S
C1337 H1324 0.930 . S
C1337 C1336 1.376 . S
C1337 C1338 1.388 . S
C1338 H1325 0.930 . S
C1338 C1337 1.388 . S
C1338 C1339 1.390 . S
C1339 C1338 1.390 . S
C1339 C1340 1.394 . S
C1339 C1345 1.465 . S
C1340 C1335 1.399 . S
C1340 C1339 1.394 . S
C1340 C1341 1.516 . S
C1341 C1340 1.516 . S
C1341 C1342 1.502 . S
C1341 C1343 1.561 . S
C1341 C1344 1.526 . S
C1342 H1326 0.959 . S
C1342 H1327 0.959 . S
C1342 H1328 0.961 . S
C1342 C1341 1.502 . S
C1343 H1329 0.960 . S
C1343 H1330 0.961 . S
C1343 H1331 0.959 . S
C1343 C1341 1.561 . S
C1344 C1341 1.526 . S
C1344 C1345 1.396 . S
C1344 C1349 1.390 . S
C1345 C1339 1.465 . S
C1345 C1344 1.396 . S
C1345 C1346 1.399 . S
C1346 H1332 0.929 . S
C1346 C1345 1.399 . S
C1346 C1347 1.385 . S
C1347 H1333 0.931 . S
C1347 C1346 1.385 . S
C1347 C1348 1.389 . S
C1348 C1347 1.389 . S
C1348 C1349 1.387 . S
C1349 H1334 0.930 . S
C1349 C1344 1.390 . S
C1349 C1348 1.387 . S
H1350 C1362 0.930 . S
H1351 C1364 0.930 . S
H1352 C1365 0.930 . S
H1353 C1369 0.959 . S
H1354 C1369 0.959 . S
H1355 C1369 0.961 . S
H1356 C1370 0.960 . S
H1357 C1370 0.961 . S
H1358 C1370 0.959 . S
H1359 C1373 0.929 . S
H1360 C1374 0.931 . S
H1361 C1376 0.930 . S
C1362 H1350 0.930 . S
C1362 C1363 1.399 . S
C1362 C1367 1.399 . S
C1363 C1362 1.399 . S
C1363 C1364 1.376 . S
C1364 H1351 0.930 . S
C1364 C1363 1.376 . S
C1364 C1365 1.388 . S
C1365 H1352 0.930 . S
C1365 C1364 1.388 . S
C1365 C1366 1.390 . S
C1366 C1365 1.390 . S
C1366 C1367 1.394 . S
C1366 C1372 1.465 . S
C1367 C1362 1.399 . S
C1367 C1366 1.394 . S
C1367 C1368 1.516 . S
C1368 C1367 1.516 . S
C1368 C1369 1.502 . S
C1368 C1370 1.561 . S
C1368 C1371 1.526 . S
C1369 H1353 0.959 . S
C1369 H1354 0.959 . S
C1369 H1355 0.961 . S
C1369 C1368 1.502 . S
C1370 H1356 0.960 . S
C1370 H1357 0.961 . S
C1370 H1358 0.959 . S
C1370 C1368 1.561 . S
C1371 C1368 1.526 . S
C1371 C1372 1.396 . S
C1371 C1376 1.390 . S
C1372 C1366 1.465 . S
C1372 C1371 1.396 . S
C1372 C1373 1.399 . S
C1373 H1359 0.929 . S
C1373 C1372 1.399 . S
C1373 C1374 1.385 . S
C1374 H1360 0.931 . S
C1374 C1373 1.385 . S
C1374 C1375 1.389 . S
C1375 C1374 1.389 . S
C1375 C1376 1.387 . S
C1376 H1361 0.930 . S
C1376 C1371 1.390 . S
C1376 C1375 1.387 . S
H1377 C1389 0.930 . S
H1378 C1391 0.930 . S
H1379 C1392 0.930 . S
H1380 C1396 0.959 . S
H1381 C1396 0.959 . S
H1382 C1396 0.961 . S
H1383 C1397 0.960 . S
H1384 C1397 0.961 . S
H1385 C1397 0.959 . S
H1386 C1400 0.929 . S
H1387 C1401 0.931 . S
H1388 C1403 0.930 . S
C1389 H1377 0.930 . S
C1389 C1390 1.399 . S
C1389 C1394 1.399 . S
C1390 C1389 1.399 . S
C1390 C1391 1.376 . S
C1391 H1378 0.930 . S
C1391 C1390 1.376 . S
C1391 C1392 1.388 . S
C1392 H1379 0.930 . S
C1392 C1391 1.388 . S
C1392 C1393 1.390 . S
C1393 C1392 1.390 . S
C1393 C1394 1.394 . S
C1393 C1399 1.465 . S
C1394 C1389 1.399 . S
C1394 C1393 1.394 . S
C1394 C1395 1.516 . S
C1395 C1394 1.516 . S
C1395 C1396 1.502 . S
C1395 C1397 1.561 . S
C1395 C1398 1.526 . S
C1396 H1380 0.959 . S
C1396 H1381 0.959 . S
C1396 H1382 0.961 . S
C1396 C1395 1.502 . S
C1397 H1383 0.960 . S
C1397 H1384 0.961 . S
C1397 H1385 0.959 . S
C1397 C1395 1.561 . S
C1398 C1395 1.526 . S
C1398 C1399 1.396 . S
C1398 C1403 1.390 . S
C1399 C1393 1.465 . S
C1399 C1398 1.396 . S
C1399 C1400 1.399 . S
C1400 H1386 0.929 . S
C1400 C1399 1.399 . S
C1400 C1401 1.385 . S
C1401 H1387 0.931 . S
C1401 C1400 1.385 . S
C1401 C1402 1.389 . S
C1402 C1401 1.389 . S
C1402 C1403 1.387 . S
C1403 H1388 0.930 . S
C1403 C1398 1.390 . S
C1403 C1402 1.387 . S
H1404 C1416 0.930 . S
H1405 C1418 0.930 . S
H1406 C1419 0.930 . S
H1407 C1423 0.959 . S
H1408 C1423 0.959 . S
H1409 C1423 0.961 . S
H1410 C1424 0.960 . S
H1411 C1424 0.961 . S
H1412 C1424 0.959 . S
H1413 C1427 0.929 . S
H1414 C1428 0.931 . S
H1415 C1430 0.930 . S
C1416 H1404 0.930 . S
C1416 C1417 1.399 . S
C1416 C1421 1.399 . S
C1417 C1416 1.399 . S
C1417 C1418 1.376 . S
C1418 H1405 0.930 . S
C1418 C1417 1.376 . S
C1418 C1419 1.388 . S
C1419 H1406 0.930 . S
C1419 C1418 1.388 . S
C1419 C1420 1.390 . S
C1420 C1419 1.390 . S
C1420 C1421 1.394 . S
C1420 C1426 1.465 . S
C1421 C1416 1.399 . S
C1421 C1420 1.394 . S
C1421 C1422 1.516 . S
C1422 C1421 1.516 . S
C1422 C1423 1.502 . S
C1422 C1424 1.561 . S
C1422 C1425 1.526 . S
C1423 H1407 0.959 . S
C1423 H1408 0.959 . S
C1423 H1409 0.961 . S
C1423 C1422 1.502 . S
C1424 H1410 0.960 . S
C1424 H1411 0.961 . S
C1424 H1412 0.959 . S
C1424 C1422 1.561 . S
C1425 C1422 1.526 . S
C1425 C1426 1.396 . S
C1425 C1430 1.390 . S
C1426 C1420 1.465 . S
C1426 C1425 1.396 . S
C1426 C1427 1.399 . S
C1427 H1413 0.929 . S
C1427 C1426 1.399 . S
C1427 C1428 1.385 . S
C1428 H1414 0.931 . S
C1428 C1427 1.385 . S
C1428 C1429 1.389 . S
C1429 C1428 1.389 . S
C1429 C1430 1.387 . S
C1430 H1415 0.930 . S
C1430 C1425 1.390 . S
C1430 C1429 1.387 . S
H1431 C1443 0.930 . S
H1432 C1445 0.930 . S
H1433 C1446 0.930 . S
H1434 C1450 0.959 . S
H1435 C1450 0.959 . S
H1436 C1450 0.961 . S
H1437 C1451 0.960 . S
H1438 C1451 0.961 . S
H1439 C1451 0.959 . S
H1440 C1454 0.929 . S
H1441 C1455 0.931 . S
H1442 C1457 0.930 . S
C1443 H1431 0.930 . S
C1443 C1444 1.399 . S
C1443 C1448 1.399 . S
C1444 C1443 1.399 . S
C1444 C1445 1.376 . S
C1445 H1432 0.930 . S
C1445 C1444 1.376 . S
C1445 C1446 1.388 . S
C1446 H1433 0.930 . S
C1446 C1445 1.388 . S
C1446 C1447 1.390 . S
C1447 C1446 1.390 . S
C1447 C1448 1.394 . S
C1447 C1453 1.465 . S
C1448 C1443 1.399 . S
C1448 C1447 1.394 . S
C1448 C1449 1.516 . S
C1449 C1448 1.516 . S
C1449 C1450 1.502 . S
C1449 C1451 1.561 . S
C1449 C1452 1.526 . S
C1450 H1434 0.959 . S
C1450 H1435 0.959 . S
C1450 H1436 0.961 . S
C1450 C1449 1.502 . S
C1451 H1437 0.960 . S
C1451 H1438 0.961 . S
C1451 H1439 0.959 . S
C1451 C1449 1.561 . S
C1452 C1449 1.526 . S
C1452 C1453 1.396 . S
C1452 C1457 1.390 . S
C1453 C1447 1.465 . S
C1453 C1452 1.396 . S
C1453 C1454 1.399 . S
C1454 H1440 0.929 . S
C1454 C1453 1.399 . S
C1454 C1455 1.385 . S
C1455 H1441 0.931 . S
C1455 C1454 1.385 . S
C1455 C1456 1.389 . S
C1456 C1455 1.389 . S
C1456 C1457 1.387 . S
C1457 H1442 0.930 . S
C1457 C1452 1.390 . S
C1457 C1456 1.387 . S
H1458 C1470 0.930 . S
H1459 C1472 0.930 . S
H1460 C1473 0.930 . S
H1461 C1477 0.959 . S
H1462 C1477 0.959 . S
H1463 C1477 0.961 . S
H1464 C1478 0.960 . S
H1465 C1478 0.961 . S
H1466 C1478 0.959 . S
H1467 C1481 0.929 . S
H1468 C1482 0.931 . S
H1469 C1484 0.930 . S
C1470 H1458 0.930 . S
C1470 C1471 1.399 . S
C1470 C1475 1.399 . S
C1471 C1470 1.399 . S
C1471 C1472 1.376 . S
C1472 H1459 0.930 . S
C1472 C1471 1.376 . S
C1472 C1473 1.388 . S
C1473 H1460 0.930 . S
C1473 C1472 1.388 . S
C1473 C1474 1.390 . S
C1474 C1473 1.390 . S
C1474 C1475 1.394 . S
C1474 C1480 1.465 . S
C1475 C1470 1.399 . S
C1475 C1474 1.394 . S
C1475 C1476 1.516 . S
C1476 C1475 1.516 . S
C1476 C1477 1.502 . S
C1476 C1478 1.561 . S
C1476 C1479 1.526 . S
C1477 H1461 0.959 . S
C1477 H1462 0.959 . S
C1477 H1463 0.961 . S
C1477 C1476 1.502 . S
C1478 H1464 0.960 . S
C1478 H1465 0.961 . S
C1478 H1466 0.959 . S
C1478 C1476 1.561 . S
C1479 C1476 1.526 . S
C1479 C1480 1.396 . S
C1479 C1484 1.390 . S
C1480 C1474 1.465 . S
C1480 C1479 1.396 . S
C1480 C1481 1.399 . S
C1481 H1467 0.929 . S
C1481 C1480 1.399 . S
C1481 C1482 1.385 . S
C1482 H1468 0.931 . S
C1482 C1481 1.385 . S
C1482 C1483 1.389 . S
C1483 C1482 1.389 . S
C1483 C1484 1.387 . S
C1484 H1469 0.930 . S
C1484 C1479 1.390 . S
C1484 C1483 1.387 . S
H1485 C1497 0.930 . S
H1486 C1499 0.930 . S
H1487 C1500 0.930 . S
H1488 C1504 0.959 . S
H1489 C1504 0.959 . S
H1490 C1504 0.961 . S
H1491 C1505 0.960 . S
H1492 C1505 0.961 . S
H1493 C1505 0.959 . S
H1494 C1508 0.929 . S
H1495 C1509 0.931 . S
H1496 C1511 0.930 . S
C1497 H1485 0.930 . S
C1497 C1498 1.399 . S
C1497 C1502 1.399 . S
C1498 C1497 1.399 . S
C1498 C1499 1.376 . S
C1499 H1486 0.930 . S
C1499 C1498 1.376 . S
C1499 C1500 1.388 . S
C1500 H1487 0.930 . S
C1500 C1499 1.388 . S
C1500 C1501 1.390 . S
C1501 C1500 1.390 . S
C1501 C1502 1.394 . S
C1501 C1507 1.465 . S
C1502 C1497 1.399 . S
C1502 C1501 1.394 . S
C1502 C1503 1.516 . S
C1503 C1502 1.516 . S
C1503 C1504 1.502 . S
C1503 C1505 1.561 . S
C1503 C1506 1.526 . S
C1504 H1488 0.959 . S
C1504 H1489 0.959 . S
C1504 H1490 0.961 . S
C1504 C1503 1.502 . S
C1505 H1491 0.960 . S
C1505 H1492 0.961 . S
C1505 H1493 0.959 . S
C1505 C1503 1.561 . S
C1506 C1503 1.526 . S
C1506 C1507 1.396 . S
C1506 C1511 1.390 . S
C1507 C1501 1.465 . S
C1507 C1506 1.396 . S
C1507 C1508 1.399 . S
C1508 H1494 0.929 . S
C1508 C1507 1.399 . S
C1508 C1509 1.385 . S
C1509 H1495 0.931 . S
C1509 C1508 1.385 . S
C1509 C1510 1.389 . S
C1510 C1509 1.389 . S
C1510 C1511 1.387 . S
C1511 H1496 0.930 . S
C1511 C1506 1.390 . S
C1511 C1510 1.387 . S
H1512 C1524 0.930 . S
H1513 C1526 0.930 . S
H1514 C1527 0.930 . S
H1515 C1531 0.959 . S
H1516 C1531 0.959 . S
H1517 C1531 0.961 . S
H1518 C1532 0.960 . S
H1519 C1532 0.961 . S
H1520 C1532 0.959 . S
H1521 C1535 0.929 . S
H1522 C1536 0.931 . S
H1523 C1538 0.930 . S
C1524 H1512 0.930 . S
C1524 C1525 1.399 . S
C1524 C1529 1.399 . S
C1525 C1524 1.399 . S
C1525 C1526 1.376 . S
C1526 H1513 0.930 . S
C1526 C1525 1.376 . S
C1526 C1527 1.388 . S
C1527 H1514 0.930 . S
C1527 C1526 1.388 . S
C1527 C1528 1.390 . S
C1528 C1527 1.390 . S
C1528 C1529 1.394 . S
C1528 C1534 1.465 1_655 S
C1529 C1524 1.399 . S
C1529 C1528 1.394 . S
C1529 C1530 1.516 . S
C1530 C1529 1.516 . S
C1530 C1531 1.502 1_655 S
C1530 C1532 1.561 . S
C1530 C1533 1.526 1_655 S
C1531 H1515 0.959 . S
C1531 H1516 0.959 . S
C1531 H1517 0.961 . S
C1531 C1530 1.502 1_455 S
C1532 H1518 0.960 . S
C1532 H1519 0.961 . S
C1532 H1520 0.959 . S
C1532 C1530 1.561 . S
C1533 C1530 1.526 1_455 S
C1533 C1534 1.396 . S
C1533 C1538 1.390 . S
C1534 C1528 1.465 1_455 S
C1534 C1533 1.396 . S
C1534 C1535 1.399 . S
C1535 H1521 0.929 . S
C1535 C1534 1.399 . S
C1535 C1536 1.385 . S
C1536 H1522 0.931 . S
C1536 C1535 1.385 . S
C1536 C1537 1.389 . S
C1537 C1536 1.389 . S
C1537 C1538 1.387 . S
C1538 H1523 0.930 . S
C1538 C1533 1.390 . S
C1538 C1537 1.387 . S
H1539 C1551 0.930 . S
H1540 C1553 0.930 . S
H1541 C1554 0.930 . S
H1542 C1558 0.959 . S
H1543 C1558 0.959 . S
H1544 C1558 0.961 . S
H1545 C1559 0.960 . S
H1546 C1559 0.961 . S
H1547 C1559 0.959 . S
H1548 C1562 0.929 . S
H1549 C1563 0.931 . S
H1550 C1565 0.930 . S
C1551 H1539 0.930 . S
C1551 C1552 1.399 . S
C1551 C1556 1.399 . S
C1552 C1551 1.399 . S
C1552 C1553 1.376 . S
C1553 H1540 0.930 . S
C1553 C1552 1.376 . S
C1553 C1554 1.388 . S
C1554 H1541 0.930 . S
C1554 C1553 1.388 . S
C1554 C1555 1.390 . S
C1555 C1554 1.390 . S
C1555 C1556 1.394 . S
C1555 C1561 1.465 . S
C1556 C1551 1.399 . S
C1556 C1555 1.394 . S
C1556 C1557 1.516 . S
C1557 C1556 1.516 . S
C1557 C1558 1.502 . S
C1557 C1559 1.561 . S
C1557 C1560 1.526 . S
C1558 H1542 0.959 . S
C1558 H1543 0.959 . S
C1558 H1544 0.961 . S
C1558 C1557 1.502 . S
C1559 H1545 0.960 . S
C1559 H1546 0.961 . S
C1559 H1547 0.959 . S
C1559 C1557 1.561 . S
C1560 C1557 1.526 . S
C1560 C1561 1.396 . S
C1560 C1565 1.390 . S
C1561 C1555 1.465 . S
C1561 C1560 1.396 . S
C1561 C1562 1.399 . S
C1562 H1548 0.929 . S
C1562 C1561 1.399 . S
C1562 C1563 1.385 . S
C1563 H1549 0.931 . S
C1563 C1562 1.385 . S
C1563 C1564 1.389 . S
C1564 C1563 1.389 . S
C1564 C1565 1.387 . S
C1565 H1550 0.930 . S
C1565 C1560 1.390 . S
C1565 C1564 1.387 . S
H1566 C1578 0.930 . S
H1567 C1580 0.930 . S
H1568 C1581 0.930 . S
H1569 C1585 0.946 1_565 S
H1570 C1585 0.959 . S
H1571 C1585 0.961 . S
H1572 C1586 0.960 . S
H1573 C1586 0.961 . S
H1574 C1586 0.959 . S
H1575 C1589 0.929 . S
H1576 C1590 0.931 . S
H1577 C1592 0.930 . S
C1578 H1566 0.930 . S
C1578 C1579 1.399 . S
C1578 C1583 1.408 . S
C1579 C1578 1.399 . S
C1579 C1580 1.376 . S
C1580 H1567 0.930 . S
C1580 C1579 1.376 . S
C1580 C1581 1.388 . S
C1581 H1568 0.930 . S
C1581 C1580 1.388 . S
C1581 C1582 1.390 . S
C1582 C1581 1.390 . S
C1582 C1583 1.392 . S
C1582 C1588 1.466 1_565 S
C1583 C1578 1.408 . S
C1583 C1582 1.392 . S
C1583 C1584 1.507 1_565 S
C1584 C1583 1.507 1_545 S
C1584 C1585 1.502 . S
C1584 C1586 1.561 . S
C1584 C1587 1.526 . S
C1585 H1569 0.946 1_545 S
C1585 H1570 0.959 . S
C1585 H1571 0.961 . S
C1585 C1584 1.502 . S
C1586 H1572 0.960 . S
C1586 H1573 0.961 . S
C1586 H1574 0.959 . S
C1586 C1584 1.561 . S
C1587 C1584 1.526 . S
C1587 C1588 1.396 . S
C1587 C1592 1.390 . S
C1588 C1582 1.466 1_545 S
C1588 C1587 1.396 . S
C1588 C1589 1.398 1_545 S
C1589 H1575 0.929 . S
C1589 C1588 1.398 1_565 S
C1589 C1590 1.385 1_565 S
C1590 H1576 0.931 . S
C1590 C1589 1.385 1_545 S
C1590 C1591 1.389 . S
C1591 C1590 1.389 . S
C1591 C1592 1.387 . S
C1592 H1577 0.930 . S
C1592 C1587 1.390 . S
C1592 C1591 1.387 . S
H1593 C1605 0.930 . S
H1594 C1607 0.930 . S
H1595 C1608 0.930 . S
H1596 C1612 0.959 . S
H1597 C1612 0.959 . S
H1598 C1612 0.961 . S
H1599 C1613 0.960 . S
H1600 C1613 0.961 . S
H1601 C1613 0.959 . S
H1602 C1616 0.929 . S
H1603 C1617 0.931 . S
H1604 C1619 0.930 . S
C1605 H1593 0.930 . S
C1605 C1606 1.399 . S
C1605 C1610 1.399 . S
C1606 C1605 1.399 . S
C1606 C1607 1.376 . S
C1607 H1594 0.930 . S
C1607 C1606 1.376 . S
C1607 C1608 1.388 . S
C1608 H1595 0.930 . S
C1608 C1607 1.388 . S
C1608 C1609 1.390 . S
C1609 C1608 1.390 . S
C1609 C1610 1.394 . S
C1609 C1615 1.465 1_565 S
C1610 C1605 1.399 . S
C1610 C1609 1.394 . S
C1610 C1611 1.516 . S
C1611 C1610 1.516 . S
C1611 C1612 1.502 1_565 S
C1611 C1613 1.561 . S
C1611 C1614 1.526 1_565 S
C1612 H1596 0.959 . S
C1612 H1597 0.959 . S
C1612 H1598 0.961 . S
C1612 C1611 1.502 1_545 S
C1613 H1599 0.960 . S
C1613 H1600 0.961 . S
C1613 H1601 0.959 . S
C1613 C1611 1.561 . S
C1614 C1611 1.526 1_545 S
C1614 C1615 1.396 . S
C1614 C1619 1.390 . S
C1615 C1609 1.465 1_545 S
C1615 C1614 1.396 . S
C1615 C1616 1.399 . S
C1616 H1602 0.929 . S
C1616 C1615 1.399 . S
C1616 C1617 1.385 . S
C1617 H1603 0.931 . S
C1617 C1616 1.385 . S
C1617 C1618 1.389 . S
C1618 C1617 1.389 . S
C1618 C1619 1.387 . S
C1619 H1604 0.930 . S
C1619 C1614 1.390 . S
C1619 C1618 1.387 . S
H1620 C1632 0.930 . S
H1621 C1634 0.930 1_655 S
H1622 C1635 0.930 . S
H1623 C1639 0.959 . S
H1624 C1639 0.959 . S
H1625 C1639 0.961 . S
H1626 C1640 0.960 . S
H1627 C1640 0.961 . S
H1628 C1640 0.959 . S
H1629 C1643 0.929 . S
H1630 C1644 0.931 . S
H1631 C1646 0.930 1_455 S
C1632 H1620 0.930 . S
C1632 C1633 1.399 . S
C1632 C1637 1.399 . S
C1633 C1632 1.399 . S
C1633 C1634 1.376 . S
C1634 H1621 0.930 1_455 S
C1634 C1633 1.376 . S
C1634 C1635 1.388 1_455 S
C1635 H1622 0.930 . S
C1635 C1634 1.388 1_655 S
C1635 C1636 1.390 . S
C1636 C1635 1.390 . S
C1636 C1637 1.394 1_655 S
C1636 C1642 1.465 . S
C1637 C1632 1.399 . S
C1637 C1636 1.394 1_455 S
C1637 C1638 1.516 . S
C1638 C1637 1.516 . S
C1638 C1639 1.502 . S
C1638 C1640 1.561 . S
C1638 C1641 1.526 . S
C1639 H1623 0.959 . S
C1639 H1624 0.959 . S
C1639 H1625 0.961 . S
C1639 C1638 1.502 . S
C1640 H1626 0.960 . S
C1640 H1627 0.961 . S
C1640 H1628 0.959 . S
C1640 C1638 1.561 . S
C1641 C1638 1.526 . S
C1641 C1642 1.396 1_455 S
C1641 C1646 1.390 1_455 S
C1642 C1636 1.465 . S
C1642 C1641 1.396 1_655 S
C1642 C1643 1.399 . S
C1643 H1629 0.929 . S
C1643 C1642 1.399 . S
C1643 C1644 1.385 . S
C1644 H1630 0.931 . S
C1644 C1643 1.385 . S
C1644 C1645 1.389 . S
C1645 C1644 1.389 . S
C1645 C1646 1.387 . S
C1646 H1631 0.930 1_655 S
C1646 C1641 1.390 1_655 S
C1646 C1645 1.387 . S
H1647 C1659 0.930 . S
H1648 C1661 0.930 . S
H1649 C1662 0.930 . S
H1650 C1666 0.959 . S
H1651 C1666 0.959 . S
H1652 C1666 0.961 . S
H1653 C1667 0.960 . S
H1654 C1667 0.961 . S
H1655 C1667 0.959 . S
H1656 C1670 0.929 . S
H1657 C1671 0.931 . S
H1658 C1673 0.930 . S
C1659 H1647 0.930 . S
C1659 C1660 1.399 . S
C1659 C1664 1.399 . S
C1660 C1659 1.399 . S
C1660 C1661 1.376 . S
C1661 H1648 0.930 . S
C1661 C1660 1.376 . S
C1661 C1662 1.388 . S
C1662 H1649 0.930 . S
C1662 C1661 1.388 . S
C1662 C1663 1.390 . S
C1663 C1662 1.390 . S
C1663 C1664 1.394 . S
C1663 C1669 1.465 . S
C1664 C1659 1.399 . S
C1664 C1663 1.394 . S
C1664 C1665 1.516 . S
C1665 C1664 1.516 . S
C1665 C1666 1.502 . S
C1665 C1667 1.561 . S
C1665 C1668 1.526 . S
C1666 H1650 0.959 . S
C1666 H1651 0.959 . S
C1666 H1652 0.961 . S
C1666 C1665 1.502 . S
C1667 H1653 0.960 . S
C1667 H1654 0.961 . S
C1667 H1655 0.959 . S
C1667 C1665 1.561 . S
C1668 C1665 1.526 . S
C1668 C1669 1.396 . S
C1668 C1673 1.390 . S
C1669 C1663 1.465 . S
C1669 C1668 1.396 . S
C1669 C1670 1.399 . S
C1670 H1656 0.929 . S
C1670 C1669 1.399 . S
C1670 C1671 1.385 . S
C1671 H1657 0.931 . S
C1671 C1670 1.385 . S
C1671 C1672 1.389 . S
C1672 C1671 1.389 . S
C1672 C1673 1.387 . S
C1673 H1658 0.930 . S
C1673 C1668 1.390 . S
C1673 C1672 1.387 . S
H1674 C1686 0.930 . S
H1675 C1688 0.930 . S
H1676 C1689 0.930 . S
H1677 C1693 0.959 . S
H1678 C1693 0.959 . S
H1679 C1693 0.961 . S
H1680 C1694 0.960 . S
H1681 C1694 0.961 . S
H1682 C1694 0.959 . S
H1683 C1697 0.929 . S
H1684 C1698 0.931 . S
H1685 C1700 0.930 . S
C1686 H1674 0.930 . S
C1686 C1687 1.399 . S
C1686 C1691 1.399 . S
C1687 C1686 1.399 . S
C1687 C1688 1.376 . S
C1688 H1675 0.930 . S
C1688 C1687 1.376 . S
C1688 C1689 1.388 . S
C1689 H1676 0.930 . S
C1689 C1688 1.388 . S
C1689 C1690 1.390 . S
C1690 C1689 1.390 . S
C1690 C1691 1.394 . S
C1690 C1696 1.465 . S
C1691 C1686 1.399 . S
C1691 C1690 1.394 . S
C1691 C1692 1.516 . S
C1692 C1691 1.516 . S
C1692 C1693 1.502 . S
C1692 C1694 1.561 . S
C1692 C1695 1.526 . S
C1693 H1677 0.959 . S
C1693 H1678 0.959 . S
C1693 H1679 0.961 . S
C1693 C1692 1.502 . S
C1694 H1680 0.960 . S
C1694 H1681 0.961 . S
C1694 H1682 0.959 . S
C1694 C1692 1.561 . S
C1695 C1692 1.526 . S
C1695 C1696 1.396 . S
C1695 C1700 1.390 . S
C1696 C1690 1.465 . S
C1696 C1695 1.396 . S
C1696 C1697 1.399 . S
C1697 H1683 0.929 . S
C1697 C1696 1.399 . S
C1697 C1698 1.385 . S
C1698 H1684 0.931 . S
C1698 C1697 1.385 . S
C1698 C1699 1.389 . S
C1699 C1698 1.389 . S
C1699 C1700 1.387 . S
C1700 H1685 0.930 . S
C1700 C1695 1.390 . S
C1700 C1699 1.387 . S
H1701 C1713 0.930 . S
H1702 C1715 0.930 . S
H1703 C1716 0.930 . S
H1704 C1720 0.959 1_565 S
H1705 C1720 0.962 . S
H1706 C1720 0.961 . S
H1707 C1721 0.960 . S
H1708 C1721 0.961 . S
H1709 C1721 0.959 . S
H1710 C1724 0.929 . S
H1711 C1725 0.931 . S
H1712 C1727 0.926 1_565 S
C1713 H1701 0.930 . S
C1713 C1714 1.399 . S
C1713 C1718 1.399 . S
C1714 C1713 1.399 . S
C1714 C1715 1.376 . S
C1715 H1702 0.930 . S
C1715 C1714 1.376 . S
C1715 C1716 1.388 . S
C1716 H1703 0.930 . S
C1716 C1715 1.388 . S
C1716 C1717 1.390 . S
C1717 C1716 1.390 . S
C1717 C1718 1.394 . S
C1717 C1723 1.465 . S
C1718 C1713 1.399 . S
C1718 C1717 1.394 . S
C1718 C1719 1.516 . S
C1719 C1718 1.516 . S
C1719 C1720 1.502 . S
C1719 C1721 1.561 . S
C1719 C1722 1.526 . S
C1720 H1704 0.959 1_545 S
C1720 H1705 0.962 . S
C1720 H1706 0.961 . S
C1720 C1719 1.502 . S
C1721 H1707 0.960 . S
C1721 H1708 0.961 . S
C1721 H1709 0.959 . S
C1721 C1719 1.561 . S
C1722 C1719 1.526 . S
C1722 C1723 1.396 . S
C1722 C1727 1.390 . S
C1723 C1717 1.465 . S
C1723 C1722 1.396 . S
C1723 C1724 1.399 . S
C1724 H1710 0.929 . S
C1724 C1723 1.399 . S
C1724 C1725 1.385 . S
C1725 H1711 0.931 . S
C1725 C1724 1.385 . S
C1725 C1726 1.387 1_545 S
C1726 C1725 1.387 1_565 S
C1726 C1727 1.388 1_565 S
C1727 H1712 0.926 1_545 S
C1727 C1722 1.390 . S
C1727 C1726 1.388 1_545 S
H1728 C1740 0.930 . S
H1729 C1742 0.930 . S
H1730 C1743 0.930 . S
H1731 C1747 0.959 . S
H1732 C1747 0.959 . S
H1733 C1747 0.961 . S
H1734 C1748 0.960 . S
H1735 C1748 0.961 1_455 S
H1736 C1748 0.959 1_455 S
H1737 C1751 0.929 . S
H1738 C1752 0.931 1_455 S
H1739 C1754 0.930 . S
C1740 H1728 0.930 . S
C1740 C1741 1.399 . S
C1740 C1745 1.399 . S
C1741 C1740 1.399 . S
C1741 C1742 1.376 . S
C1742 H1729 0.930 . S
C1742 C1741 1.376 . S
C1742 C1743 1.388 . S
C1743 H1730 0.930 . S
C1743 C1742 1.388 . S
C1743 C1744 1.390 . S
C1744 C1743 1.390 . S
C1744 C1745 1.394 . S
C1744 C1750 1.465 . S
C1745 C1740 1.399 . S
C1745 C1744 1.394 . S
C1745 C1746 1.516 . S
C1746 C1745 1.516 . S
C1746 C1747 1.502 . S
C1746 C1748 1.561 . S
C1746 C1749 1.526 . S
C1747 H1731 0.959 . S
C1747 H1732 0.959 . S
C1747 H1733 0.961 . S
C1747 C1746 1.502 . S
C1748 H1734 0.960 . S
C1748 H1735 0.961 1_655 S
C1748 H1736 0.959 1_655 S
C1748 C1746 1.561 . S
C1749 C1746 1.526 . S
C1749 C1750 1.396 . S
C1749 C1754 1.390 . S
C1750 C1744 1.465 . S
C1750 C1749 1.396 . S
C1750 C1751 1.399 . S
C1751 H1737 0.929 . S
C1751 C1750 1.399 . S
C1751 C1752 1.385 . S
C1752 H1738 0.931 1_655 S
C1752 C1751 1.385 . S
C1752 C1753 1.389 1_655 S
C1753 C1752 1.389 1_455 S
C1753 C1754 1.387 1_455 S
C1754 H1739 0.930 . S
C1754 C1749 1.390 . S
C1754 C1753 1.387 1_655 S
H1755 C1767 0.930 . S
H1756 C1769 0.930 . S
H1757 C1770 0.930 . S
H1758 C1774 0.959 . S
H1759 C1774 0.959 . S
H1760 C1774 0.961 . S
H1761 C1775 0.960 . S
H1762 C1775 0.961 . S
H1763 C1775 0.959 . S
H1764 C1778 0.929 . S
H1765 C1779 0.931 . S
H1766 C1781 0.930 . S
C1767 H1755 0.930 . S
C1767 C1768 1.399 . S
C1767 C1772 1.399 . S
C1768 C1767 1.399 . S
C1768 C1769 1.376 . S
C1769 H1756 0.930 . S
C1769 C1768 1.376 . S
C1769 C1770 1.388 . S
C1770 H1757 0.930 . S
C1770 C1769 1.388 . S
C1770 C1771 1.390 . S
C1771 C1770 1.390 . S
C1771 C1772 1.394 . S
C1771 C1777 1.465 . S
C1772 C1767 1.399 . S
C1772 C1771 1.394 . S
C1772 C1773 1.516 . S
C1773 C1772 1.516 . S
C1773 C1774 1.502 . S
C1773 C1775 1.561 . S
C1773 C1776 1.526 . S
C1774 H1758 0.959 . S
C1774 H1759 0.959 . S
C1774 H1760 0.961 . S
C1774 C1773 1.502 . S
C1775 H1761 0.960 . S
C1775 H1762 0.961 . S
C1775 H1763 0.959 . S
C1775 C1773 1.561 . S
C1776 C1773 1.526 . S
C1776 C1777 1.396 . S
C1776 C1781 1.390 . S
C1777 C1771 1.465 . S
C1777 C1776 1.396 . S
C1777 C1778 1.399 . S
C1778 H1764 0.929 . S
C1778 C1777 1.399 . S
C1778 C1779 1.385 . S
C1779 H1765 0.931 . S
C1779 C1778 1.385 . S
C1779 C1780 1.389 . S
C1780 C1779 1.389 . S
C1780 C1781 1.387 . S
C1781 H1766 0.930 . S
C1781 C1776 1.390 . S
C1781 C1780 1.387 . S
H1782 C1794 0.930 . S
H1783 C1796 0.930 . S
H1784 C1797 0.930 . S
H1785 C1801 0.959 1_545 S
H1786 C1801 0.964 . S
H1787 C1801 0.961 . S
H1788 C1802 0.960 . S
H1789 C1802 0.961 . S
H1790 C1802 0.959 . S
H1791 C1805 0.929 . S
H1792 C1806 0.931 . S
H1793 C1808 0.923 1_545 S
C1794 H1782 0.930 . S
C1794 C1795 1.399 . S
C1794 C1799 1.399 . S
C1795 C1794 1.399 . S
C1795 C1796 1.376 . S
C1796 H1783 0.930 . S
C1796 C1795 1.376 . S
C1796 C1797 1.388 . S
C1797 H1784 0.930 . S
C1797 C1796 1.388 . S
C1797 C1798 1.390 . S
C1798 C1797 1.390 . S
C1798 C1799 1.394 . S
C1798 C1804 1.465 . S
C1799 C1794 1.399 . S
C1799 C1798 1.394 . S
C1799 C1800 1.516 . S
C1800 C1799 1.516 . S
C1800 C1801 1.502 . S
C1800 C1802 1.561 . S
C1800 C1803 1.526 . S
C1801 H1785 0.959 1_565 S
C1801 H1786 0.964 . S
C1801 H1787 0.961 . S
C1801 C1800 1.502 . S
C1802 H1788 0.960 . S
C1802 H1789 0.961 . S
C1802 H1790 0.959 . S
C1802 C1800 1.561 . S
C1803 C1800 1.526 . S
C1803 C1804 1.396 . S
C1803 C1808 1.390 . S
C1804 C1798 1.465 . S
C1804 C1803 1.396 . S
C1804 C1805 1.399 . S
C1805 H1791 0.929 . S
C1805 C1804 1.399 . S
C1805 C1806 1.385 . S
C1806 H1792 0.931 . S
C1806 C1805 1.385 . S
C1806 C1807 1.388 1_565 S
C1807 C1806 1.388 1_545 S
C1807 C1808 1.383 1_545 S
C1808 H1793 0.923 1_565 S
C1808 C1803 1.390 . S
C1808 C1807 1.383 1_565 S
H1809 C1821 0.911 1_655 S
H1810 C1823 0.930 . S
H1811 C1824 0.930 . S
H1812 C1828 0.959 . S
H1813 C1828 0.959 1_455 S
H1814 C1828 0.961 . S
H1815 C1829 0.960 . S
H1816 C1829 0.961 . S
H1817 C1829 0.959 . S
H1818 C1832 0.929 . S
H1819 C1833 0.931 . S
H1820 C1835 0.930 . S
C1821 H1809 0.911 1_455 S
C1821 C1822 1.398 . S
C1821 C1826 1.406 . S
C1822 C1821 1.398 . S
C1822 C1823 1.399 . S
C1823 H1810 0.930 . S
C1823 C1822 1.399 . S
C1823 C1824 1.388 . S
C1824 H1811 0.930 . S
C1824 C1823 1.388 . S
C1824 C1825 1.390 . S
C1825 C1824 1.390 . S
C1825 C1826 1.394 . S
C1825 C1831 1.465 . S
C1826 C1821 1.406 . S
C1826 C1825 1.394 . S
C1826 C1827 1.516 . S
C1827 C1826 1.516 . S
C1827 C1828 1.502 1_455 S
C1827 C1829 1.561 . S
C1827 C1830 1.526 . S
C1828 H1812 0.959 . S
C1828 H1813 0.959 1_655 S
C1828 H1814 0.961 . S
C1828 C1827 1.502 1_655 S
C1829 H1815 0.960 . S
C1829 H1816 0.961 . S
C1829 H1817 0.959 . S
C1829 C1827 1.561 . S
C1830 C1827 1.526 . S
C1830 C1831 1.396 . S
C1830 C1835 1.390 . S
C1831 C1825 1.465 . S
C1831 C1830 1.396 . S
C1831 C1832 1.399 . S
C1832 H1818 0.929 . S
C1832 C1831 1.399 . S
C1832 C1833 1.385 . S
C1833 H1819 0.931 . S
C1833 C1832 1.385 . S
C1833 C1834 1.389 . S
C1834 C1833 1.389 . S
C1834 C1835 1.387 . S
C1835 H1820 0.930 . S
C1835 C1830 1.390 . S
C1835 C1834 1.387 . S
H1836 C1848 0.930 . S
H1837 C1850 0.930 . S
H1838 C1851 0.930 . S
H1839 C1855 0.959 . S
H1840 C1855 0.959 . S
H1841 C1855 0.961 . S
H1842 C1856 0.960 . S
H1843 C1856 0.961 . S
H1844 C1856 0.959 . S
H1845 C1859 0.929 . S
H1846 C1860 0.931 . S
H1847 C1862 0.930 . S
C1848 H1836 0.930 . S
C1848 C1849 1.399 . S
C1848 C1853 1.399 . S
C1849 C1848 1.399 . S
C1849 C1850 1.376 . S
C1850 H1837 0.930 . S
C1850 C1849 1.376 . S
C1850 C1851 1.388 . S
C1851 H1838 0.930 . S
C1851 C1850 1.388 . S
C1851 C1852 1.390 . S
C1852 C1851 1.390 . S
C1852 C1853 1.394 . S
C1852 C1858 1.465 . S
C1853 C1848 1.399 . S
C1853 C1852 1.394 . S
C1853 C1854 1.516 . S
C1854 C1853 1.516 . S
C1854 C1855 1.502 . S
C1854 C1856 1.561 . S
C1854 C1857 1.526 . S
C1855 H1839 0.959 . S
C1855 H1840 0.959 . S
C1855 H1841 0.961 . S
C1855 C1854 1.502 . S
C1856 H1842 0.960 . S
C1856 H1843 0.961 . S
C1856 H1844 0.959 . S
C1856 C1854 1.561 . S
C1857 C1854 1.526 . S
C1857 C1858 1.396 . S
C1857 C1862 1.390 . S
C1858 C1852 1.465 . S
C1858 C1857 1.396 . S
C1858 C1859 1.399 . S
C1859 H1845 0.929 . S
C1859 C1858 1.399 . S
C1859 C1860 1.385 . S
C1860 H1846 0.931 . S
C1860 C1859 1.385 . S
C1860 C1861 1.389 . S
C1861 C1860 1.389 . S
C1861 C1862 1.387 . S
C1862 H1847 0.930 . S
C1862 C1857 1.390 . S
C1862 C1861 1.387 . S
H1863 C1875 0.930 . S
H1864 C1877 0.930 . S
H1865 C1878 0.930 . S
H1866 C1882 0.959 1_545 S
H1867 C1882 0.959 . S
H1868 C1882 0.961 . S
H1869 C1883 0.960 . S
H1870 C1883 0.961 . S
H1871 C1883 0.959 . S
H1872 C1886 0.929 . S
H1873 C1887 0.931 . S
H1874 C1889 0.933 . S
C1875 H1863 0.930 . S
C1875 C1876 1.399 . S
C1875 C1880 1.399 . S
C1876 C1875 1.399 . S
C1876 C1877 1.376 . S
C1877 H1864 0.930 . S
C1877 C1876 1.376 . S
C1877 C1878 1.388 . S
C1878 H1865 0.930 . S
C1878 C1877 1.388 . S
C1878 C1879 1.390 . S
C1879 C1878 1.390 . S
C1879 C1880 1.394 . S
C1879 C1885 1.465 . S
C1880 C1875 1.399 . S
C1880 C1879 1.394 . S
C1880 C1881 1.516 . S
C1881 C1880 1.516 . S
C1881 C1882 1.502 . S
C1881 C1883 1.561 . S
C1881 C1884 1.526 . S
C1882 H1866 0.959 1_565 S
C1882 H1867 0.959 . S
C1882 H1868 0.961 . S
C1882 C1881 1.502 . S
C1883 H1869 0.960 . S
C1883 H1870 0.961 . S
C1883 H1871 0.959 . S
C1883 C1881 1.561 . S
C1884 C1881 1.526 . S
C1884 C1885 1.396 . S
C1884 C1889 1.390 . S
C1885 C1879 1.465 . S
C1885 C1884 1.396 . S
C1885 C1886 1.399 . S
C1886 H1872 0.929 . S
C1886 C1885 1.399 . S
C1886 C1887 1.385 . S
C1887 H1873 0.931 . S
C1887 C1886 1.385 . S
C1887 C1888 1.388 1_565 S
C1888 C1887 1.388 1_545 S
C1888 C1889 1.387 1_545 S
C1889 H1874 0.933 . S
C1889 C1884 1.390 . S
C1889 C1888 1.387 1_565 S
H1890 C1902 0.930 . S
H1891 C1904 0.930 . S
H1892 C1905 0.930 . S
H1893 C1909 0.959 . S
H1894 C1909 0.959 . S
H1895 C1909 0.961 . S
H1896 C1910 0.960 . S
H1897 C1910 0.961 . S
H1898 C1910 0.959 . S
H1899 C1913 0.929 . S
H1900 C1914 0.931 . S
H1901 C1916 0.912 1_655 S
C1902 H1890 0.930 . S
C1902 C1903 1.399 . S
C1902 C1907 1.399 . S
C1903 C1902 1.399 . S
C1903 C1904 1.376 . S
C1904 H1891 0.930 . S
C1904 C1903 1.376 . S
C1904 C1905 1.388 . S
C1905 H1892 0.930 . S
C1905 C1904 1.388 . S
C1905 C1906 1.390 . S
C1906 C1905 1.390 . S
C1906 C1907 1.394 . S
C1906 C1912 1.465 . S
C1907 C1902 1.399 . S
C1907 C1906 1.394 . S
C1907 C1908 1.516 . S
C1908 C1907 1.516 . S
C1908 C1909 1.502 . S
C1908 C1910 1.561 1_455 S
C1908 C1911 1.526 . S
C1909 H1893 0.959 . S
C1909 H1894 0.959 . S
C1909 H1895 0.961 . S
C1909 C1908 1.502 . S
C1910 H1896 0.960 . S
C1910 H1897 0.961 . S
C1910 H1898 0.959 . S
C1910 C1908 1.561 1_655 S
C1911 C1908 1.526 . S
C1911 C1912 1.396 . S
C1911 C1916 1.432 . S
C1912 C1906 1.465 . S
C1912 C1911 1.396 . S
C1912 C1913 1.399 . S
C1913 H1899 0.929 . S
C1913 C1912 1.399 . S
C1913 C1914 1.385 . S
C1914 H1900 0.931 . S
C1914 C1913 1.385 . S
C1914 C1915 1.383 1_455 S
C1915 C1914 1.383 1_655 S
C1915 C1916 1.357 1_655 S
C1916 H1901 0.912 1_455 S
C1916 C1911 1.432 . S
C1916 C1915 1.357 1_455 S
H1917 C1929 0.930 . S
H1918 C1931 0.930 . S
H1919 C1932 0.930 . S
H1920 C1936 0.959 . S
H1921 C1936 0.959 . S
H1922 C1936 0.961 . S
H1923 C1937 0.960 . S
H1924 C1937 0.961 . S
H1925 C1937 0.959 . S
H1926 C1940 0.929 . S
H1927 C1941 0.931 . S
H1928 C1943 0.930 . S
C1929 H1917 0.930 . S
C1929 C1930 1.399 . S
C1929 C1934 1.399 . S
C1930 C1929 1.399 . S
C1930 C1931 1.376 . S
C1931 H1918 0.930 . S
C1931 C1930 1.376 . S
C1931 C1932 1.388 . S
C1932 H1919 0.930 . S
C1932 C1931 1.388 . S
C1932 C1933 1.390 . S
C1933 C1932 1.390 . S
C1933 C1934 1.394 . S
C1933 C1939 1.465 . S
C1934 C1929 1.399 . S
C1934 C1933 1.394 . S
C1934 C1935 1.516 . S
C1935 C1934 1.516 . S
C1935 C1936 1.502 . S
C1935 C1937 1.561 . S
C1935 C1938 1.526 . S
C1936 H1920 0.959 . S
C1936 H1921 0.959 . S
C1936 H1922 0.961 . S
C1936 C1935 1.502 . S
C1937 H1923 0.960 . S
C1937 H1924 0.961 . S
C1937 H1925 0.959 . S
C1937 C1935 1.561 . S
C1938 C1935 1.526 . S
C1938 C1939 1.396 . S
C1938 C1943 1.390 . S
C1939 C1933 1.465 . S
C1939 C1938 1.396 . S
C1939 C1940 1.399 . S
C1940 H1926 0.929 . S
C1940 C1939 1.399 . S
C1940 C1941 1.385 . S
C1941 H1927 0.931 . S
C1941 C1940 1.385 . S
C1941 C1942 1.389 . S
C1942 C1941 1.389 . S
C1942 C1943 1.387 . S
C1943 H1928 0.930 . S
C1943 C1938 1.390 . S
C1943 C1942 1.387 . S
H1944 C1956 0.930 . S
H1945 C1958 0.948 . S
H1946 C1959 0.930 . S
H1947 C1963 0.959 . S
H1948 C1963 0.959 . S
H1949 C1963 0.961 . S
H1950 C1964 0.929 1_565 S
H1951 C1964 0.961 . S
H1952 C1964 0.959 1_565 S
H1953 C1967 0.929 . S
H1954 C1968 0.931 . S
H1955 C1970 0.930 . S
C1956 H1944 0.930 . S
C1956 C1957 1.399 1_545 S
C1956 C1961 1.399 . S
C1957 C1956 1.399 1_565 S
C1957 C1958 1.387 . S
C1958 H1945 0.948 . S
C1958 C1957 1.387 . S
C1958 C1959 1.362 1_565 S
C1959 H1946 0.930 . S
C1959 C1958 1.362 1_545 S
C1959 C1960 1.390 . S
C1960 C1959 1.390 . S
C1960 C1961 1.394 . S
C1960 C1966 1.465 . S
C1961 C1956 1.399 . S
C1961 C1960 1.394 . S
C1961 C1962 1.516 . S
C1962 C1961 1.516 . S
C1962 C1963 1.502 . S
C1962 C1964 1.561 . S
C1962 C1965 1.526 . S
C1963 H1947 0.959 . S
C1963 H1948 0.959 . S
C1963 H1949 0.961 . S
C1963 C1962 1.502 . S
C1964 H1950 0.929 1_545 S
C1964 H1951 0.961 . S
C1964 H1952 0.959 1_545 S
C1964 C1962 1.561 . S
C1965 C1962 1.526 . S
C1965 C1966 1.396 . S
C1965 C1970 1.390 . S
C1966 C1960 1.465 . S
C1966 C1965 1.396 . S
C1966 C1967 1.399 . S
C1967 H1953 0.929 . S
C1967 C1966 1.399 . S
C1967 C1968 1.385 . S
C1968 H1954 0.931 . S
C1968 C1967 1.385 . S
C1968 C1969 1.389 . S
C1969 C1968 1.389 . S
C1969 C1970 1.387 . S
C1970 H1955 0.930 . S
C1970 C1965 1.390 . S
C1970 C1969 1.387 . S
H1971 C1983 0.930 1_455 S
H1972 C1985 0.930 . S
H1973 C1986 0.930 . S
H1974 C1990 0.959 1_455 S
H1975 C1990 0.959 . S
H1976 C1990 0.961 1_455 S
H1977 C1991 0.960 . S
H1978 C1991 0.961 . S
H1979 C1991 0.959 . S
H1980 C1994 0.929 . S
H1981 C1995 0.931 . S
H1982 C1997 0.930 . S
C1983 H1971 0.930 1_655 S
C1983 C1984 1.390 . S
C1983 C1988 1.399 . S
C1984 C1983 1.390 . S
C1984 C1985 1.390 . S
C1985 H1972 0.930 . S
C1985 C1984 1.390 . S
C1985 C1986 1.388 . S
C1986 H1973 0.930 . S
C1986 C1985 1.388 . S
C1986 C1987 1.390 . S
C1987 C1986 1.390 . S
C1987 C1988 1.394 . S
C1987 C1993 1.465 . S
C1988 C1983 1.399 . S
C1988 C1987 1.394 . S
C1988 C1989 1.516 . S
C1989 C1988 1.516 . S
C1989 C1990 1.502 . S
C1989 C1991 1.561 . S
C1989 C1992 1.526 . S
C1990 H1974 0.959 1_655 S
C1990 H1975 0.959 . S
C1990 H1976 0.961 1_655 S
C1990 C1989 1.502 . S
C1991 H1977 0.960 . S
C1991 H1978 0.961 . S
C1991 H1979 0.959 . S
C1991 C1989 1.561 . S
C1992 C1989 1.526 . S
C1992 C1993 1.396 . S
C1992 C1997 1.390 . S
C1993 C1987 1.465 . S
C1993 C1992 1.396 . S
C1993 C1994 1.399 . S
C1994 H1980 0.929 . S
C1994 C1993 1.399 . S
C1994 C1995 1.385 . S
C1995 H1981 0.931 . S
C1995 C1994 1.385 . S
C1995 C1996 1.389 . S
C1996 C1995 1.389 . S
C1996 C1997 1.387 . S
C1997 H1982 0.930 . S
C1997 C1992 1.390 . S
C1997 C1996 1.387 . S
H1998 C2010 0.930 . S
H1999 C2012 0.930 . S
H2000 C2013 0.930 . S
H2001 C2017 0.959 . S
H2002 C2017 0.959 . S
H2003 C2017 0.961 1_655 S
H2004 C2018 0.960 1_655 S
H2005 C2018 0.961 . S
H2006 C2018 0.959 . S
H2007 C2021 0.929 . S
H2008 C2022 0.931 . S
H2009 C2024 0.930 . S
C2010 H1998 0.930 . S
C2010 C2011 1.399 . S
C2010 C2015 1.399 . S
C2011 C2010 1.399 . S
C2011 C2012 1.376 . S
C2012 H1999 0.930 . S
C2012 C2011 1.376 . S
C2012 C2013 1.388 . S
C2013 H2000 0.930 . S
C2013 C2012 1.388 . S
C2013 C2014 1.390 . S
C2014 C2013 1.390 . S
C2014 C2015 1.394 . S
C2014 C2020 1.465 1_655 S
C2015 C2010 1.399 . S
C2015 C2014 1.394 . S
C2015 C2016 1.516 1_655 S
C2016 C2015 1.516 1_455 S
C2016 C2017 1.502 . S
C2016 C2018 1.561 . S
C2016 C2019 1.526 . S
C2017 H2001 0.959 . S
C2017 H2002 0.959 . S
C2017 H2003 0.961 1_455 S
C2017 C2016 1.502 . S
C2018 H2004 0.960 1_455 S
C2018 H2005 0.961 . S
C2018 H2006 0.959 . S
C2018 C2016 1.561 . S
C2019 C2016 1.526 . S
C2019 C2020 1.396 . S
C2019 C2024 1.390 . S
C2020 C2014 1.465 1_455 S
C2020 C2019 1.396 . S
C2020 C2021 1.399 . S
C2021 H2007 0.929 . S
C2021 C2020 1.399 . S
C2021 C2022 1.385 . S
C2022 H2008 0.931 . S
C2022 C2021 1.385 . S
C2022 C2023 1.389 . S
C2023 C2022 1.389 . S
C2023 C2024 1.387 . S
C2024 H2009 0.930 . S
C2024 C2019 1.390 . S
C2024 C2023 1.387 . S
H2025 C2037 0.930 . S
H2026 C2039 0.930 . S
H2027 C2040 0.930 . S
H2028 C2044 0.959 . S
H2029 C2044 0.959 . S
H2030 C2044 0.961 . S
H2031 C2045 0.960 . S
H2032 C2045 0.961 . S
H2033 C2045 0.959 . S
H2034 C2048 0.929 . S
H2035 C2049 0.931 . S
H2036 C2051 0.930 . S
C2037 H2025 0.930 . S
C2037 C2038 1.399 . S
C2037 C2042 1.399 . S
C2038 C2037 1.399 . S
C2038 C2039 1.376 . S
C2039 H2026 0.930 . S
C2039 C2038 1.376 . S
C2039 C2040 1.388 . S
C2040 H2027 0.930 . S
C2040 C2039 1.388 . S
C2040 C2041 1.390 . S
C2041 C2040 1.390 . S
C2041 C2042 1.394 . S
C2041 C2047 1.465 . S
C2042 C2037 1.399 . S
C2042 C2041 1.394 . S
C2042 C2043 1.516 . S
C2043 C2042 1.516 . S
C2043 C2044 1.502 . S
C2043 C2045 1.561 . S
C2043 C2046 1.526 . S
C2044 H2028 0.959 . S
C2044 H2029 0.959 . S
C2044 H2030 0.961 . S
C2044 C2043 1.502 . S
C2045 H2031 0.960 . S
C2045 H2032 0.961 . S
C2045 H2033 0.959 . S
C2045 C2043 1.561 . S
C2046 C2043 1.526 . S
C2046 C2047 1.396 . S
C2046 C2051 1.390 . S
C2047 C2041 1.465 . S
C2047 C2046 1.396 . S
C2047 C2048 1.399 . S
C2048 H2034 0.929 . S
C2048 C2047 1.399 . S
C2048 C2049 1.385 . S
C2049 H2035 0.931 . S
C2049 C2048 1.385 . S
C2049 C2050 1.389 . S
C2050 C2049 1.389 . S
C2050 C2051 1.387 . S
C2051 H2036 0.930 . S
C2051 C2046 1.390 . S
C2051 C2050 1.387 . S
H2052 C2064 0.930 . S
H2053 C2066 0.930 . S
H2054 C2067 0.930 . S
H2055 C2071 0.959 . S
H2056 C2071 0.959 1_565 S
H2057 C2071 0.961 . S
H2058 C2072 0.960 . S
H2059 C2072 0.961 1_565 S
H2060 C2072 0.959 . S
H2061 C2075 0.929 . S
H2062 C2076 0.931 . S
H2063 C2078 0.930 . S
C2064 H2052 0.930 . S
C2064 C2065 1.399 . S
C2064 C2069 1.399 . S
C2065 C2064 1.399 . S
C2065 C2066 1.376 . S
C2066 H2053 0.930 . S
C2066 C2065 1.376 . S
C2066 C2067 1.388 . S
C2067 H2054 0.930 . S
C2067 C2066 1.388 . S
C2067 C2068 1.390 . S
C2068 C2067 1.390 . S
C2068 C2069 1.394 . S
C2068 C2074 1.465 1_545 S
C2069 C2064 1.399 . S
C2069 C2068 1.394 . S
C2069 C2070 1.516 . S
C2070 C2069 1.516 . S
C2070 C2071 1.502 . S
C2070 C2072 1.561 . S
C2070 C2073 1.526 1_545 S
C2071 H2055 0.959 . S
C2071 H2056 0.959 1_545 S
C2071 H2057 0.961 . S
C2071 C2070 1.502 . S
C2072 H2058 0.960 . S
C2072 H2059 0.961 1_545 S
C2072 H2060 0.959 . S
C2072 C2070 1.561 . S
C2073 C2070 1.526 1_565 S
C2073 C2074 1.396 . S
C2073 C2078 1.390 . S
C2074 C2068 1.465 1_565 S
C2074 C2073 1.396 . S
C2074 C2075 1.399 . S
C2075 H2061 0.929 . S
C2075 C2074 1.399 . S
C2075 C2076 1.385 . S
C2076 H2062 0.931 . S
C2076 C2075 1.385 . S
C2076 C2077 1.389 . S
C2077 C2076 1.389 . S
C2077 C2078 1.387 . S
C2078 H2063 0.930 . S
C2078 C2073 1.390 . S
C2078 C2077 1.387 . S
H2079 C2091 0.930 . S
H2080 C2093 0.930 . S
H2081 C2094 0.930 . S
H2082 C2098 0.959 1_565 S
H2083 C2098 0.959 1_565 S
H2084 C2098 0.961 . S
H2085 C2099 0.960 . S
H2086 C2099 0.961 1_565 S
H2087 C2099 0.959 . S
H2088 C2102 0.929 . S
H2089 C2103 0.931 . S
H2090 C2105 0.930 . S
C2091 H2079 0.930 . S
C2091 C2092 1.399 . S
C2091 C2096 1.399 . S
C2092 C2091 1.399 . S
C2092 C2093 1.376 . S
C2093 H2080 0.930 . S
C2093 C2092 1.376 . S
C2093 C2094 1.388 . S
C2094 H2081 0.930 . S
C2094 C2093 1.388 . S
C2094 C2095 1.390 . S
C2095 C2094 1.390 . S
C2095 C2096 1.394 . S
C2095 C2101 1.465 1_545 S
C2096 C2091 1.399 . S
C2096 C2095 1.394 . S
C2096 C2097 1.516 . S
C2097 C2096 1.516 . S
C2097 C2098 1.502 . S
C2097 C2099 1.561 . S
C2097 C2100 1.526 1_545 S
C2098 H2082 0.959 1_545 S
C2098 H2083 0.959 1_545 S
C2098 H2084 0.961 . S
C2098 C2097 1.502 . S
C2099 H2085 0.960 . S
C2099 H2086 0.961 1_545 S
C2099 H2087 0.959 . S
C2099 C2097 1.561 . S
C2100 C2097 1.526 1_565 S
C2100 C2101 1.396 . S
C2100 C2105 1.390 . S
C2101 C2095 1.465 1_565 S
C2101 C2100 1.396 . S
C2101 C2102 1.399 . S
C2102 H2088 0.929 . S
C2102 C2101 1.399 . S
C2102 C2103 1.385 . S
C2103 H2089 0.931 . S
C2103 C2102 1.385 . S
C2103 C2104 1.389 . S
C2104 C2103 1.389 . S
C2104 C2105 1.387 . S
C2105 H2090 0.930 . S
C2105 C2100 1.390 . S
C2105 C2104 1.387 . S
H2106 C2118 0.930 . S
H2107 C2120 0.930 . S
H2108 C2121 0.930 . S
H2109 C2125 0.959 . S
H2110 C2125 0.959 . S
H2111 C2125 0.961 1_455 S
H2112 C2126 0.960 1_455 S
H2113 C2126 0.961 . S
H2114 C2126 0.959 . S
H2115 C2129 0.929 . S
H2116 C2130 0.931 . S
H2117 C2132 0.930 . S
C2118 H2106 0.930 . S
C2118 C2119 1.399 . S
C2118 C2123 1.399 . S
C2119 C2118 1.399 . S
C2119 C2120 1.376 . S
C2120 H2107 0.930 . S
C2120 C2119 1.376 . S
C2120 C2121 1.388 . S
C2121 H2108 0.930 . S
C2121 C2120 1.388 . S
C2121 C2122 1.390 . S
C2122 C2121 1.390 . S
C2122 C2123 1.394 . S
C2122 C2128 1.465 1_455 S
C2123 C2118 1.399 . S
C2123 C2122 1.394 . S
C2123 C2124 1.516 1_455 S
C2124 C2123 1.516 1_655 S
C2124 C2125 1.502 . S
C2124 C2126 1.561 . S
C2124 C2127 1.526 . S
C2125 H2109 0.959 . S
C2125 H2110 0.959 . S
C2125 H2111 0.961 1_655 S
C2125 C2124 1.502 . S
C2126 H2112 0.960 1_655 S
C2126 H2113 0.961 . S
C2126 H2114 0.959 . S
C2126 C2124 1.561 . S
C2127 C2124 1.526 . S
C2127 C2128 1.396 . S
C2127 C2132 1.390 . S
C2128 C2122 1.465 1_655 S
C2128 C2127 1.396 . S
C2128 C2129 1.399 . S
C2129 H2115 0.929 . S
C2129 C2128 1.399 . S
C2129 C2130 1.385 . S
C2130 H2116 0.931 . S
C2130 C2129 1.385 . S
C2130 C2131 1.389 . S
C2131 C2130 1.389 . S
C2131 C2132 1.387 . S
C2132 H2117 0.930 . S
C2132 C2127 1.390 . S
C2132 C2131 1.387 . S
H2133 C2145 0.930 . S
H2134 C2147 0.930 . S
H2135 C2148 0.930 . S
H2136 C2152 0.959 . S
H2137 C2152 0.959 . S
H2138 C2152 0.961 . S
H2139 C2153 0.960 . S
H2140 C2153 0.961 . S
H2141 C2153 0.959 . S
H2142 C2156 0.929 . S
H2143 C2157 0.931 . S
H2144 C2159 0.930 . S
C2145 H2133 0.930 . S
C2145 C2146 1.399 . S
C2145 C2150 1.399 . S
C2146 C2145 1.399 . S
C2146 C2147 1.376 . S
C2147 H2134 0.930 . S
C2147 C2146 1.376 . S
C2147 C2148 1.388 . S
C2148 H2135 0.930 . S
C2148 C2147 1.388 . S
C2148 C2149 1.390 . S
C2149 C2148 1.390 . S
C2149 C2150 1.394 . S
C2149 C2155 1.465 . S
C2150 C2145 1.399 . S
C2150 C2149 1.394 . S
C2150 C2151 1.516 . S
C2151 C2150 1.516 . S
C2151 C2152 1.502 . S
C2151 C2153 1.561 . S
C2151 C2154 1.526 . S
C2152 H2136 0.959 . S
C2152 H2137 0.959 . S
C2152 H2138 0.961 . S
C2152 C2151 1.502 . S
C2153 H2139 0.960 . S
C2153 H2140 0.961 . S
C2153 H2141 0.959 . S
C2153 C2151 1.561 . S
C2154 C2151 1.526 . S
C2154 C2155 1.396 . S
C2154 C2159 1.390 . S
C2155 C2149 1.465 . S
C2155 C2154 1.396 . S
C2155 C2156 1.399 . S
C2156 H2142 0.929 . S
C2156 C2155 1.399 . S
C2156 C2157 1.385 . S
C2157 H2143 0.931 . S
C2157 C2156 1.385 . S
C2157 C2158 1.389 . S
C2158 C2157 1.389 . S
C2158 C2159 1.387 . S
C2159 H2144 0.930 . S
C2159 C2154 1.390 . S
C2159 C2158 1.387 . S
H2160 C2172 0.930 . S
H2161 C2174 0.930 . S
H2162 C2175 0.930 . S
H2163 C2179 0.959 . S
H2164 C2179 0.959 . S
H2165 C2179 0.961 . S
H2166 C2180 0.960 . S
H2167 C2180 0.961 . S
H2168 C2180 0.959 . S
H2169 C2183 0.929 . S
H2170 C2184 0.931 . S
H2171 C2186 0.930 . S
C2172 H2160 0.930 . S
C2172 C2173 1.399 . S
C2172 C2177 1.399 . S
C2173 C2172 1.399 . S
C2173 C2174 1.376 . S
C2174 H2161 0.930 . S
C2174 C2173 1.376 . S
C2174 C2175 1.388 . S
C2175 H2162 0.930 . S
C2175 C2174 1.388 . S
C2175 C2176 1.390 . S
C2176 C2175 1.390 . S
C2176 C2177 1.394 . S
C2176 C2182 1.465 . S
C2177 C2172 1.399 . S
C2177 C2176 1.394 . S
C2177 C2178 1.516 . S
C2178 C2177 1.516 . S
C2178 C2179 1.502 . S
C2178 C2180 1.561 . S
C2178 C2181 1.526 . S
C2179 H2163 0.959 . S
C2179 H2164 0.959 . S
C2179 H2165 0.961 . S
C2179 C2178 1.502 . S
C2180 H2166 0.960 . S
C2180 H2167 0.961 . S
C2180 H2168 0.959 . S
C2180 C2178 1.561 . S
C2181 C2178 1.526 . S
C2181 C2182 1.396 . S
C2181 C2186 1.390 . S
C2182 C2176 1.465 . S
C2182 C2181 1.396 . S
C2182 C2183 1.399 . S
C2183 H2169 0.929 . S
C2183 C2182 1.399 . S
C2183 C2184 1.385 . S
C2184 H2170 0.931 . S
C2184 C2183 1.385 . S
C2184 C2185 1.389 . S
C2185 C2184 1.389 . S
C2185 C2186 1.387 . S
C2186 H2171 0.930 . S
C2186 C2181 1.390 . S
C2186 C2185 1.387 . S
H2187 C2199 0.930 . S
H2188 C2201 0.930 . S
H2189 C2202 0.930 . S
H2190 C2206 0.959 . S
H2191 C2206 0.959 . S
H2192 C2206 0.961 . S
H2193 C2207 0.960 . S
H2194 C2207 0.961 . S
H2195 C2207 0.959 . S
H2196 C2210 0.929 . S
H2197 C2211 0.931 . S
H2198 C2213 0.930 . S
C2199 H2187 0.930 . S
C2199 C2200 1.399 . S
C2199 C2204 1.399 . S
C2200 C2199 1.399 . S
C2200 C2201 1.376 . S
C2201 H2188 0.930 . S
C2201 C2200 1.376 . S
C2201 C2202 1.388 . S
C2202 H2189 0.930 . S
C2202 C2201 1.388 . S
C2202 C2203 1.390 . S
C2203 C2202 1.390 . S
C2203 C2204 1.394 . S
C2203 C2209 1.465 . S
C2204 C2199 1.399 . S
C2204 C2203 1.394 . S
C2204 C2205 1.516 . S
C2205 C2204 1.516 . S
C2205 C2206 1.502 . S
C2205 C2207 1.561 . S
C2205 C2208 1.526 . S
C2206 H2190 0.959 . S
C2206 H2191 0.959 . S
C2206 H2192 0.961 . S
C2206 C2205 1.502 . S
C2207 H2193 0.960 . S
C2207 H2194 0.961 . S
C2207 H2195 0.959 . S
C2207 C2205 1.561 . S
C2208 C2205 1.526 . S
C2208 C2209 1.396 . S
C2208 C2213 1.390 . S
C2209 C2203 1.465 . S
C2209 C2208 1.396 . S
C2209 C2210 1.399 . S
C2210 H2196 0.929 . S
C2210 C2209 1.399 . S
C2210 C2211 1.385 . S
C2211 H2197 0.931 . S
C2211 C2210 1.385 . S
C2211 C2212 1.389 . S
C2212 C2211 1.389 . S
C2212 C2213 1.387 . S
C2213 H2198 0.930 . S
C2213 C2208 1.390 . S
C2213 C2212 1.387 . S
H2214 C2226 0.930 . S
H2215 C2228 0.930 . S
H2216 C2229 0.930 . S
H2217 C2233 0.959 . S
H2218 C2233 0.959 . S
H2219 C2233 0.961 . S
H2220 C2234 0.960 . S
H2221 C2234 0.961 . S
H2222 C2234 0.959 . S
H2223 C2237 0.929 . S
H2224 C2238 0.931 . S
H2225 C2240 0.930 . S
C2226 H2214 0.930 . S
C2226 C2227 1.399 . S
C2226 C2231 1.399 . S
C2227 C2226 1.399 . S
C2227 C2228 1.376 . S
C2228 H2215 0.930 . S
C2228 C2227 1.376 . S
C2228 C2229 1.388 . S
C2229 H2216 0.930 . S
C2229 C2228 1.388 . S
C2229 C2230 1.390 . S
C2230 C2229 1.390 . S
C2230 C2231 1.394 . S
C2230 C2236 1.465 . S
C2231 C2226 1.399 . S
C2231 C2230 1.394 . S
C2231 C2232 1.516 . S
C2232 C2231 1.516 . S
C2232 C2233 1.502 . S
C2232 C2234 1.561 . S
C2232 C2235 1.526 . S
C2233 H2217 0.959 . S
C2233 H2218 0.959 . S
C2233 H2219 0.961 . S
C2233 C2232 1.502 . S
C2234 H2220 0.960 . S
C2234 H2221 0.961 . S
C2234 H2222 0.959 . S
C2234 C2232 1.561 . S
C2235 C2232 1.526 . S
C2235 C2236 1.396 . S
C2235 C2240 1.390 . S
C2236 C2230 1.465 . S
C2236 C2235 1.396 . S
C2236 C2237 1.399 . S
C2237 H2223 0.929 . S
C2237 C2236 1.399 . S
C2237 C2238 1.385 . S
C2238 H2224 0.931 . S
C2238 C2237 1.385 . S
C2238 C2239 1.389 . S
C2239 C2238 1.389 . S
C2239 C2240 1.387 . S
C2240 H2225 0.930 . S
C2240 C2235 1.390 . S
C2240 C2239 1.387 . S
H2241 C2253 0.930 . S
H2242 C2255 0.930 . S
H2243 C2256 0.930 . S
H2244 C2260 0.959 . S
H2245 C2260 0.959 . S
H2246 C2260 0.961 . S
H2247 C2261 0.960 . S
H2248 C2261 0.961 . S
H2249 C2261 0.959 . S
H2250 C2264 0.929 . S
H2251 C2265 0.931 . S
H2252 C2267 0.930 . S
C2253 H2241 0.930 . S
C2253 C2254 1.399 . S
C2253 C2258 1.399 . S
C2254 C2253 1.399 . S
C2254 C2255 1.376 . S
C2255 H2242 0.930 . S
C2255 C2254 1.376 . S
C2255 C2256 1.388 . S
C2256 H2243 0.930 . S
C2256 C2255 1.388 . S
C2256 C2257 1.390 . S
C2257 C2256 1.390 . S
C2257 C2258 1.394 . S
C2257 C2263 1.465 . S
C2258 C2253 1.399 . S
C2258 C2257 1.394 . S
C2258 C2259 1.516 . S
C2259 C2258 1.516 . S
C2259 C2260 1.502 . S
C2259 C2261 1.561 . S
C2259 C2262 1.526 . S
C2260 H2244 0.959 . S
C2260 H2245 0.959 . S
C2260 H2246 0.961 . S
C2260 C2259 1.502 . S
C2261 H2247 0.960 . S
C2261 H2248 0.961 . S
C2261 H2249 0.959 . S
C2261 C2259 1.561 . S
C2262 C2259 1.526 . S
C2262 C2263 1.396 . S
C2262 C2267 1.390 . S
C2263 C2257 1.465 . S
C2263 C2262 1.396 . S
C2263 C2264 1.399 . S
C2264 H2250 0.929 . S
C2264 C2263 1.399 . S
C2264 C2265 1.385 . S
C2265 H2251 0.931 . S
C2265 C2264 1.385 . S
C2265 C2266 1.389 . S
C2266 C2265 1.389 . S
C2266 C2267 1.387 . S
C2267 H2252 0.930 . S
C2267 C2262 1.390 . S
C2267 C2266 1.387 . S
H2268 C2280 0.930 . S
H2269 C2282 0.930 . S
H2270 C2283 0.930 . S
H2271 C2287 0.959 . S
H2272 C2287 0.959 . S
H2273 C2287 0.961 . S
H2274 C2288 0.960 . S
H2275 C2288 0.961 . S
H2276 C2288 0.959 . S
H2277 C2291 0.929 . S
H2278 C2292 0.931 . S
H2279 C2294 0.930 . S
C2280 H2268 0.930 . S
C2280 C2281 1.399 . S
C2280 C2285 1.399 . S
C2281 C2280 1.399 . S
C2281 C2282 1.376 . S
C2282 H2269 0.930 . S
C2282 C2281 1.376 . S
C2282 C2283 1.388 . S
C2283 H2270 0.930 . S
C2283 C2282 1.388 . S
C2283 C2284 1.390 . S
C2284 C2283 1.390 . S
C2284 C2285 1.394 . S
C2284 C2290 1.465 . S
C2285 C2280 1.399 . S
C2285 C2284 1.394 . S
C2285 C2286 1.516 . S
C2286 C2285 1.516 . S
C2286 C2287 1.502 . S
C2286 C2288 1.561 . S
C2286 C2289 1.526 . S
C2287 H2271 0.959 . S
C2287 H2272 0.959 . S
C2287 H2273 0.961 . S
C2287 C2286 1.502 . S
C2288 H2274 0.960 . S
C2288 H2275 0.961 . S
C2288 H2276 0.959 . S
C2288 C2286 1.561 . S
C2289 C2286 1.526 . S
C2289 C2290 1.396 . S
C2289 C2294 1.390 . S
C2290 C2284 1.465 . S
C2290 C2289 1.396 . S
C2290 C2291 1.399 . S
C2291 H2277 0.929 . S
C2291 C2290 1.399 . S
C2291 C2292 1.385 . S
C2292 H2278 0.931 . S
C2292 C2291 1.385 . S
C2292 C2293 1.389 . S
C2293 C2292 1.389 . S
C2293 C2294 1.387 . S
C2294 H2279 0.930 . S
C2294 C2289 1.390 . S
C2294 C2293 1.387 . S
H2295 C2307 0.930 . S
H2296 C2309 0.930 . S
H2297 C2310 0.930 . S
H2298 C2314 0.959 . S
H2299 C2314 0.959 . S
H2300 C2314 0.961 . S
H2301 C2315 0.960 . S
H2302 C2315 0.961 . S
H2303 C2315 0.959 . S
H2304 C2318 0.929 . S
H2305 C2319 0.931 . S
H2306 C2321 0.930 . S
C2307 H2295 0.930 . S
C2307 C2308 1.399 . S
C2307 C2312 1.399 . S
C2308 C2307 1.399 . S
C2308 C2309 1.376 . S
C2309 H2296 0.930 . S
C2309 C2308 1.376 . S
C2309 C2310 1.388 . S
C2310 H2297 0.930 . S
C2310 C2309 1.388 . S
C2310 C2311 1.390 . S
C2311 C2310 1.390 . S
C2311 C2312 1.394 . S
C2311 C2317 1.465 . S
C2312 C2307 1.399 . S
C2312 C2311 1.394 . S
C2312 C2313 1.516 . S
C2313 C2312 1.516 . S
C2313 C2314 1.502 . S
C2313 C2315 1.561 . S
C2313 C2316 1.526 . S
C2314 H2298 0.959 . S
C2314 H2299 0.959 . S
C2314 H2300 0.961 . S
C2314 C2313 1.502 . S
C2315 H2301 0.960 . S
C2315 H2302 0.961 . S
C2315 H2303 0.959 . S
C2315 C2313 1.561 . S
C2316 C2313 1.526 . S
C2316 C2317 1.396 . S
C2316 C2321 1.390 . S
C2317 C2311 1.465 . S
C2317 C2316 1.396 . S
C2317 C2318 1.399 . S
C2318 H2304 0.929 . S
C2318 C2317 1.399 . S
C2318 C2319 1.385 . S
C2319 H2305 0.931 . S
C2319 C2318 1.385 . S
C2319 C2320 1.389 . S
C2320 C2319 1.389 . S
C2320 C2321 1.387 . S
C2321 H2306 0.930 . S
C2321 C2316 1.390 . S
C2321 C2320 1.387 . S
H2322 C2334 0.930 . S
H2323 C2336 0.930 . S
H2324 C2337 0.930 . S
H2325 C2341 0.959 . S
H2326 C2341 0.959 . S
H2327 C2341 0.961 . S
H2328 C2342 0.960 . S
H2329 C2342 0.961 . S
H2330 C2342 0.959 . S
H2331 C2345 0.929 . S
H2332 C2346 0.931 . S
H2333 C2348 0.930 . S
C2334 H2322 0.930 . S
C2334 C2335 1.399 . S
C2334 C2339 1.399 . S
C2335 C2334 1.399 . S
C2335 C2336 1.376 . S
C2336 H2323 0.930 . S
C2336 C2335 1.376 . S
C2336 C2337 1.388 . S
C2337 H2324 0.930 . S
C2337 C2336 1.388 . S
C2337 C2338 1.390 . S
C2338 C2337 1.390 . S
C2338 C2339 1.394 . S
C2338 C2344 1.465 . S
C2339 C2334 1.399 . S
C2339 C2338 1.394 . S
C2339 C2340 1.516 . S
C2340 C2339 1.516 . S
C2340 C2341 1.502 . S
C2340 C2342 1.561 . S
C2340 C2343 1.526 . S
C2341 H2325 0.959 . S
C2341 H2326 0.959 . S
C2341 H2327 0.961 . S
C2341 C2340 1.502 . S
C2342 H2328 0.960 . S
C2342 H2329 0.961 . S
C2342 H2330 0.959 . S
C2342 C2340 1.561 . S
C2343 C2340 1.526 . S
C2343 C2344 1.396 . S
C2343 C2348 1.390 . S
C2344 C2338 1.465 . S
C2344 C2343 1.396 . S
C2344 C2345 1.399 . S
C2345 H2331 0.929 . S
C2345 C2344 1.399 . S
C2345 C2346 1.385 . S
C2346 H2332 0.931 . S
C2346 C2345 1.385 . S
C2346 C2347 1.389 . S
C2347 C2346 1.389 . S
C2347 C2348 1.387 . S
C2348 H2333 0.930 . S
C2348 C2343 1.390 . S
C2348 C2347 1.387 . S
H2349 C2361 0.930 . S
H2350 C2363 0.930 . S
H2351 C2364 0.930 . S
H2352 C2368 0.959 . S
H2353 C2368 0.959 . S
H2354 C2368 0.961 . S
H2355 C2369 0.960 . S
H2356 C2369 0.961 . S
H2357 C2369 0.959 . S
H2358 C2372 0.929 . S
H2359 C2373 0.931 . S
H2360 C2375 0.930 . S
C2361 H2349 0.930 . S
C2361 C2362 1.399 . S
C2361 C2366 1.399 . S
C2362 C2361 1.399 . S
C2362 C2363 1.376 . S
C2363 H2350 0.930 . S
C2363 C2362 1.376 . S
C2363 C2364 1.388 . S
C2364 H2351 0.930 . S
C2364 C2363 1.388 . S
C2364 C2365 1.390 . S
C2365 C2364 1.390 . S
C2365 C2366 1.394 . S
C2365 C2371 1.465 . S
C2366 C2361 1.399 . S
C2366 C2365 1.394 . S
C2366 C2367 1.516 . S
C2367 C2366 1.516 . S
C2367 C2368 1.502 . S
C2367 C2369 1.561 . S
C2367 C2370 1.526 . S
C2368 H2352 0.959 . S
C2368 H2353 0.959 . S
C2368 H2354 0.961 . S
C2368 C2367 1.502 . S
C2369 H2355 0.960 . S
C2369 H2356 0.961 . S
C2369 H2357 0.959 . S
C2369 C2367 1.561 . S
C2370 C2367 1.526 . S
C2370 C2371 1.396 . S
C2370 C2375 1.390 . S
C2371 C2365 1.465 . S
C2371 C2370 1.396 . S
C2371 C2372 1.399 . S
C2372 H2358 0.929 . S
C2372 C2371 1.399 . S
C2372 C2373 1.385 . S
C2373 H2359 0.931 . S
C2373 C2372 1.385 . S
C2373 C2374 1.389 . S
C2374 C2373 1.389 . S
C2374 C2375 1.387 . S
C2375 H2360 0.930 . S
C2375 C2370 1.390 . S
C2375 C2374 1.387 . S
H2376 C2388 0.930 . S
H2377 C2390 0.930 . S
H2378 C2391 0.930 . S
H2379 C2395 0.959 . S
H2380 C2395 0.959 . S
H2381 C2395 0.961 . S
H2382 C2396 0.960 . S
H2383 C2396 0.961 . S
H2384 C2396 0.959 . S
H2385 C2399 0.929 . S
H2386 C2400 0.931 . S
H2387 C2402 0.930 . S
C2388 H2376 0.930 . S
C2388 C2389 1.399 . S
C2388 C2393 1.399 . S
C2389 C2388 1.399 . S
C2389 C2390 1.376 . S
C2390 H2377 0.930 . S
C2390 C2389 1.376 . S
C2390 C2391 1.388 . S
C2391 H2378 0.930 . S
C2391 C2390 1.388 . S
C2391 C2392 1.390 . S
C2392 C2391 1.390 . S
C2392 C2393 1.394 . S
C2392 C2398 1.465 . S
C2393 C2388 1.399 . S
C2393 C2392 1.394 . S
C2393 C2394 1.516 . S
C2394 C2393 1.516 . S
C2394 C2395 1.502 . S
C2394 C2396 1.561 . S
C2394 C2397 1.526 . S
C2395 H2379 0.959 . S
C2395 H2380 0.959 . S
C2395 H2381 0.961 . S
C2395 C2394 1.502 . S
C2396 H2382 0.960 . S
C2396 H2383 0.961 . S
C2396 H2384 0.959 . S
C2396 C2394 1.561 . S
C2397 C2394 1.526 . S
C2397 C2398 1.396 . S
C2397 C2402 1.390 . S
C2398 C2392 1.465 . S
C2398 C2397 1.396 . S
C2398 C2399 1.399 . S
C2399 H2385 0.929 . S
C2399 C2398 1.399 . S
C2399 C2400 1.385 . S
C2400 H2386 0.931 . S
C2400 C2399 1.385 . S
C2400 C2401 1.389 . S
C2401 C2400 1.389 . S
C2401 C2402 1.387 . S
C2402 H2387 0.930 . S
C2402 C2397 1.390 . S
C2402 C2401 1.387 . S
H2403 C2415 0.930 . S
H2404 C2417 0.930 . S
H2405 C2418 0.930 . S
H2406 C2422 0.959 . S
H2407 C2422 0.959 . S
H2408 C2422 0.961 . S
H2409 C2423 0.960 . S
H2410 C2423 0.961 . S
H2411 C2423 0.959 . S
H2412 C2426 0.929 . S
H2413 C2427 0.931 . S
H2414 C2429 0.930 . S
C2415 H2403 0.930 . S
C2415 C2416 1.399 . S
C2415 C2420 1.399 . S
C2416 C2415 1.399 . S
C2416 C2417 1.376 . S
C2417 H2404 0.930 . S
C2417 C2416 1.376 . S
C2417 C2418 1.388 . S
C2418 H2405 0.930 . S
C2418 C2417 1.388 . S
C2418 C2419 1.390 . S
C2419 C2418 1.390 . S
C2419 C2420 1.394 . S
C2419 C2425 1.465 . S
C2420 C2415 1.399 . S
C2420 C2419 1.394 . S
C2420 C2421 1.516 . S
C2421 C2420 1.516 . S
C2421 C2422 1.502 . S
C2421 C2423 1.561 . S
C2421 C2424 1.526 . S
C2422 H2406 0.959 . S
C2422 H2407 0.959 . S
C2422 H2408 0.961 . S
C2422 C2421 1.502 . S
C2423 H2409 0.960 . S
C2423 H2410 0.961 . S
C2423 H2411 0.959 . S
C2423 C2421 1.561 . S
C2424 C2421 1.526 . S
C2424 C2425 1.396 . S
C2424 C2429 1.390 . S
C2425 C2419 1.465 . S
C2425 C2424 1.396 . S
C2425 C2426 1.399 . S
C2426 H2412 0.929 . S
C2426 C2425 1.399 . S
C2426 C2427 1.385 . S
C2427 H2413 0.931 . S
C2427 C2426 1.385 . S
C2427 C2428 1.389 . S
C2428 C2427 1.389 . S
C2428 C2429 1.387 . S
C2429 H2414 0.930 . S
C2429 C2424 1.390 . S
C2429 C2428 1.387 . S
H2430 C2442 0.930 . S
H2431 C2444 0.930 . S
H2432 C2445 0.930 . S
H2433 C2449 0.959 . S
H2434 C2449 0.959 . S
H2435 C2449 0.961 . S
H2436 C2450 0.960 . S
H2437 C2450 0.961 . S
H2438 C2450 0.959 . S
H2439 C2453 0.929 . S
H2440 C2454 0.931 . S
H2441 C2456 0.930 . S
C2442 H2430 0.930 . S
C2442 C2443 1.399 . S
C2442 C2447 1.399 . S
C2443 C2442 1.399 . S
C2443 C2444 1.376 . S
C2444 H2431 0.930 . S
C2444 C2443 1.376 . S
C2444 C2445 1.388 . S
C2445 H2432 0.930 . S
C2445 C2444 1.388 . S
C2445 C2446 1.390 . S
C2446 C2445 1.390 . S
C2446 C2447 1.394 . S
C2446 C2452 1.465 . S
C2447 C2442 1.399 . S
C2447 C2446 1.394 . S
C2447 C2448 1.516 . S
C2448 C2447 1.516 . S
C2448 C2449 1.502 . S
C2448 C2450 1.561 . S
C2448 C2451 1.526 . S
C2449 H2433 0.959 . S
C2449 H2434 0.959 . S
C2449 H2435 0.961 . S
C2449 C2448 1.502 . S
C2450 H2436 0.960 . S
C2450 H2437 0.961 . S
C2450 H2438 0.959 . S
C2450 C2448 1.561 . S
C2451 C2448 1.526 . S
C2451 C2452 1.396 . S
C2451 C2456 1.390 . S
C2452 C2446 1.465 . S
C2452 C2451 1.396 . S
C2452 C2453 1.399 . S
C2453 H2439 0.929 . S
C2453 C2452 1.399 . S
C2453 C2454 1.385 . S
C2454 H2440 0.931 . S
C2454 C2453 1.385 . S
C2454 C2455 1.389 . S
C2455 C2454 1.389 . S
C2455 C2456 1.387 . S
C2456 H2441 0.930 . S
C2456 C2451 1.390 . S
C2456 C2455 1.387 . S
H2457 C2469 0.930 . S
H2458 C2471 0.930 . S
H2459 C2472 0.930 . S
H2460 C2476 0.959 . S
H2461 C2476 0.959 . S
H2462 C2476 0.961 . S
H2463 C2477 0.960 . S
H2464 C2477 0.961 . S
H2465 C2477 0.959 . S
H2466 C2480 0.929 . S
H2467 C2481 0.931 . S
H2468 C2483 0.930 . S
C2469 H2457 0.930 . S
C2469 C2470 1.399 . S
C2469 C2474 1.399 . S
C2470 C2469 1.399 . S
C2470 C2471 1.376 . S
C2471 H2458 0.930 . S
C2471 C2470 1.376 . S
C2471 C2472 1.388 . S
C2472 H2459 0.930 . S
C2472 C2471 1.388 . S
C2472 C2473 1.390 . S
C2473 C2472 1.390 . S
C2473 C2474 1.394 . S
C2473 C2479 1.465 . S
C2474 C2469 1.399 . S
C2474 C2473 1.394 . S
C2474 C2475 1.516 . S
C2475 C2474 1.516 . S
C2475 C2476 1.502 . S
C2475 C2477 1.561 . S
C2475 C2478 1.526 . S
C2476 H2460 0.959 . S
C2476 H2461 0.959 . S
C2476 H2462 0.961 . S
C2476 C2475 1.502 . S
C2477 H2463 0.960 . S
C2477 H2464 0.961 . S
C2477 H2465 0.959 . S
C2477 C2475 1.561 . S
C2478 C2475 1.526 . S
C2478 C2479 1.396 . S
C2478 C2483 1.390 . S
C2479 C2473 1.465 . S
C2479 C2478 1.396 . S
C2479 C2480 1.399 . S
C2480 H2466 0.929 . S
C2480 C2479 1.399 . S
C2480 C2481 1.385 . S
C2481 H2467 0.931 . S
C2481 C2480 1.385 . S
C2481 C2482 1.389 . S
C2482 C2481 1.389 . S
C2482 C2483 1.387 . S
C2483 H2468 0.930 . S
C2483 C2478 1.390 . S
C2483 C2482 1.387 . S
H2484 C2496 0.930 . S
H2485 C2498 0.930 . S
H2486 C2499 0.930 . S
H2487 C2503 0.959 . S
H2488 C2503 0.959 . S
H2489 C2503 0.961 . S
H2490 C2504 0.960 . S
H2491 C2504 0.961 . S
H2492 C2504 0.959 . S
H2493 C2507 0.929 . S
H2494 C2508 0.931 . S
H2495 C2510 0.930 . S
C2496 H2484 0.930 . S
C2496 C2497 1.399 . S
C2496 C2501 1.399 . S
C2497 C2496 1.399 . S
C2497 C2498 1.376 . S
C2498 H2485 0.930 . S
C2498 C2497 1.376 . S
C2498 C2499 1.388 1_455 S
C2499 H2486 0.930 . S
C2499 C2498 1.388 1_655 S
C2499 C2500 1.407 1_655 S
C2500 C2499 1.407 1_455 S
C2500 C2501 1.409 . S
C2500 C2506 1.434 1_455 S
C2501 C2496 1.399 . S
C2501 C2500 1.409 . S
C2501 C2502 1.516 . S
C2502 C2501 1.516 . S
C2502 C2503 1.502 . S
C2502 C2504 1.561 . S
C2502 C2505 1.526 1_455 S
C2503 H2487 0.959 . S
C2503 H2488 0.959 . S
C2503 H2489 0.961 . S
C2503 C2502 1.502 . S
C2504 H2490 0.960 . S
C2504 H2491 0.961 . S
C2504 H2492 0.959 . S
C2504 C2502 1.561 . S
C2505 C2502 1.526 1_655 S
C2505 C2506 1.396 . S
C2505 C2510 1.390 . S
C2506 C2500 1.434 1_655 S
C2506 C2505 1.396 . S
C2506 C2507 1.399 . S
C2507 H2493 0.929 . S
C2507 C2506 1.399 . S
C2507 C2508 1.385 . S
C2508 H2494 0.931 . S
C2508 C2507 1.385 . S
C2508 C2509 1.389 . S
C2509 C2508 1.389 . S
C2509 C2510 1.387 . S
C2510 H2495 0.930 . S
C2510 C2505 1.390 . S
C2510 C2509 1.387 . S
H2511 C2523 0.930 . S
H2512 C2525 0.930 . S
H2513 C2526 0.930 . S
H2514 C2530 0.959 . S
H2515 C2530 0.959 . S
H2516 C2530 0.961 . S
H2517 C2531 0.960 . S
H2518 C2531 0.961 . S
H2519 C2531 0.959 . S
H2520 C2534 0.929 . S
H2521 C2535 0.931 . S
H2522 C2537 0.930 . S
C2523 H2511 0.930 . S
C2523 C2524 1.399 . S
C2523 C2528 1.399 . S
C2524 C2523 1.399 . S
C2524 C2525 1.376 . S
C2525 H2512 0.930 . S
C2525 C2524 1.376 . S
C2525 C2526 1.388 . S
C2526 H2513 0.930 . S
C2526 C2525 1.388 . S
C2526 C2527 1.390 . S
C2527 C2526 1.390 . S
C2527 C2528 1.394 . S
C2527 C2533 1.465 . S
C2528 C2523 1.399 . S
C2528 C2527 1.394 . S
C2528 C2529 1.516 . S
C2529 C2528 1.516 . S
C2529 C2530 1.502 . S
C2529 C2531 1.561 . S
C2529 C2532 1.526 . S
C2530 H2514 0.959 . S
C2530 H2515 0.959 . S
C2530 H2516 0.961 . S
C2530 C2529 1.502 . S
C2531 H2517 0.960 . S
C2531 H2518 0.961 . S
C2531 H2519 0.959 . S
C2531 C2529 1.561 . S
C2532 C2529 1.526 . S
C2532 C2533 1.396 . S
C2532 C2537 1.390 . S
C2533 C2527 1.465 . S
C2533 C2532 1.396 . S
C2533 C2534 1.399 . S
C2534 H2520 0.929 . S
C2534 C2533 1.399 . S
C2534 C2535 1.385 . S
C2535 H2521 0.931 . S
C2535 C2534 1.385 . S
C2535 C2536 1.389 . S
C2536 C2535 1.389 . S
C2536 C2537 1.387 . S
C2537 H2522 0.930 . S
C2537 C2532 1.390 . S
C2537 C2536 1.387 . S
H2538 C2550 0.930 . S
H2539 C2552 0.929 . S
H2540 C2553 0.930 . S
H2541 C2557 0.959 . S
H2542 C2557 0.959 . S
H2543 C2557 0.961 . S
H2544 C2558 0.960 . S
H2545 C2558 0.961 . S
H2546 C2558 0.959 . S
H2547 C2561 0.929 . S
H2548 C2562 0.931 . S
H2549 C2564 0.930 1_545 S
C2550 H2538 0.930 . S
C2550 C2551 1.399 . S
C2550 C2555 1.399 . S
C2551 C2550 1.399 . S
C2551 C2552 1.376 . S
C2552 H2539 0.929 . S
C2552 C2551 1.376 . S
C2552 C2553 1.388 1_545 S
C2553 H2540 0.930 . S
C2553 C2552 1.388 1_565 S
C2553 C2554 1.390 . S
C2554 C2553 1.390 . S
C2554 C2555 1.394 1_565 S
C2554 C2560 1.465 . S
C2555 C2550 1.399 . S
C2555 C2554 1.394 1_545 S
C2555 C2556 1.516 . S
C2556 C2555 1.516 . S
C2556 C2557 1.502 . S
C2556 C2558 1.561 . S
C2556 C2559 1.516 1_545 S
C2557 H2541 0.959 . S
C2557 H2542 0.959 . S
C2557 H2543 0.961 . S
C2557 C2556 1.502 . S
C2558 H2544 0.960 . S
C2558 H2545 0.961 . S
C2558 H2546 0.959 . S
C2558 C2556 1.561 . S
C2559 C2556 1.516 1_565 S
C2559 C2560 1.405 . S
C2559 C2564 1.391 . S
C2560 C2554 1.465 . S
C2560 C2559 1.405 . S
C2560 C2561 1.399 . S
C2561 H2547 0.929 . S
C2561 C2560 1.399 . S
C2561 C2562 1.385 . S
C2562 H2548 0.931 . S
C2562 C2561 1.385 . S
C2562 C2563 1.389 . S
C2563 C2562 1.389 . S
C2563 C2564 1.387 . S
C2564 H2549 0.930 1_565 S
C2564 C2559 1.391 . S
C2564 C2563 1.387 . S
H2565 C2577 0.930 . S
H2566 C2579 0.928 1_545 S
H2567 C2580 0.930 . S
H2568 C2584 0.959 . S
H2569 C2584 0.959 . S
H2570 C2584 0.961 . S
H2571 C2585 0.960 . S
H2572 C2585 0.961 . S
H2573 C2585 0.959 . S
H2574 C2588 0.929 1_554 S
H2575 C2589 0.931 . S
H2576 C2591 0.930 1_565 S
C2577 H2565 0.930 . S
C2577 C2578 1.399 . S
C2577 C2582 1.399 . S
C2578 C2577 1.399 . S
C2578 C2579 1.376 . S
C2579 H2566 0.928 1_565 S
C2579 C2578 1.376 . S
C2579 C2580 1.388 1_565 S
C2580 H2567 0.930 . S
C2580 C2579 1.388 1_545 S
C2580 C2581 1.390 . S
C2581 C2580 1.390 . S
C2581 C2582 1.394 1_545 S
C2581 C2587 1.465 1_554 S
C2582 C2577 1.399 . S
C2582 C2581 1.394 1_565 S
C2582 C2583 1.516 1_554 S
C2583 C2582 1.516 1_556 S
C2583 C2584 1.502 . S
C2583 C2585 1.561 . S
C2583 C2586 1.513 1_565 S
C2584 H2568 0.959 . S
C2584 H2569 0.959 . S
C2584 H2570 0.961 . S
C2584 C2583 1.502 . S
C2585 H2571 0.960 . S
C2585 H2572 0.961 . S
C2585 H2573 0.959 . S
C2585 C2583 1.561 . S
C2586 C2583 1.513 1_545 S
C2586 C2587 1.403 . S
C2586 C2591 1.396 . S
C2587 C2581 1.465 1_556 S
C2587 C2586 1.403 . S
C2587 C2588 1.399 . S
C2588 H2574 0.929 1_556 S
C2588 C2587 1.399 . S
C2588 C2589 1.385 . S
C2589 H2575 0.931 . S
C2589 C2588 1.385 . S
C2589 C2590 1.389 . S
C2590 C2589 1.389 . S
C2590 C2591 1.387 . S
C2591 H2576 0.930 1_545 S
C2591 C2586 1.396 . S
C2591 C2590 1.387 . S
H2592 C2604 0.930 . S
H2593 C2606 0.930 . S
H2594 C2607 0.930 . S
H2595 C2611 0.959 . S
H2596 C2611 0.959 . S
H2597 C2611 0.961 . S
H2598 C2612 0.960 . S
H2599 C2612 0.961 . S
H2600 C2612 0.959 . S
H2601 C2615 0.929 1_556 S
H2602 C2616 0.931 . S
H2603 C2618 0.956 . S
C2604 H2592 0.930 . S
C2604 C2605 1.399 . S
C2604 C2609 1.399 . S
C2605 C2604 1.399 . S
C2605 C2606 1.376 . S
C2606 H2593 0.930 . S
C2606 C2605 1.376 . S
C2606 C2607 1.388 1_655 S
C2607 H2594 0.930 . S
C2607 C2606 1.388 1_455 S
C2607 C2608 1.390 . S
C2608 C2607 1.390 . S
C2608 C2609 1.394 1_455 S
C2608 C2614 1.465 1_556 S
C2609 C2604 1.399 . S
C2609 C2608 1.394 1_655 S
C2609 C2610 1.516 1_556 S
C2610 C2609 1.516 1_554 S
C2610 C2611 1.502 . S
C2610 C2612 1.561 . S
C2610 C2613 1.526 1_655 S
C2611 H2595 0.959 . S
C2611 H2596 0.959 . S
C2611 H2597 0.961 . S
C2611 C2610 1.502 . S
C2612 H2598 0.960 . S
C2612 H2599 0.961 . S
C2612 H2600 0.959 . S
C2612 C2610 1.561 . S
C2613 C2610 1.526 1_455 S
C2613 C2614 1.396 . S
C2613 C2618 1.390 . S
C2614 C2608 1.465 1_554 S
C2614 C2613 1.396 . S
C2614 C2615 1.399 . S
C2615 H2601 0.929 1_554 S
C2615 C2614 1.399 . S
C2615 C2616 1.385 . S
C2616 H2602 0.931 . S
C2616 C2615 1.385 . S
C2616 C2617 1.389 . S
C2617 C2616 1.389 . S
C2617 C2618 1.387 . S
C2618 H2603 0.956 . S
C2618 C2613 1.390 . S
C2618 C2617 1.387 . S
H2619 C2631 0.930 . S
H2620 C2633 0.930 . S
H2621 C2634 0.930 . S
H2622 C2638 0.959 . S
H2623 C2638 0.959 . S
H2624 C2638 0.961 1_554 S
H2625 C2639 0.960 . S
H2626 C2639 0.961 . S
H2627 C2639 0.959 . S
H2628 C2642 0.929 . S
H2629 C2643 0.931 . S
H2630 C2645 0.930 . S
C2631 H2619 0.930 . S
C2631 C2632 1.399 . S
C2631 C2636 1.399 . S
C2632 C2631 1.399 . S
C2632 C2633 1.376 . S
C2633 H2620 0.930 . S
C2633 C2632 1.376 . S
C2633 C2634 1.388 . S
C2634 H2621 0.930 . S
C2634 C2633 1.388 . S
C2634 C2635 1.390 . S
C2635 C2634 1.390 . S
C2635 C2636 1.394 . S
C2635 C2641 1.465 1_554 S
C2636 C2631 1.399 . S
C2636 C2635 1.394 . S
C2636 C2637 1.516 . S
C2637 C2636 1.516 . S
C2637 C2638 1.502 1_554 S
C2637 C2639 1.561 . S
C2637 C2640 1.526 1_554 S
C2638 H2622 0.959 . S
C2638 H2623 0.959 . S
C2638 H2624 0.961 1_556 S
C2638 C2637 1.502 1_556 S
C2639 H2625 0.960 . S
C2639 H2626 0.961 . S
C2639 H2627 0.959 . S
C2639 C2637 1.561 . S
C2640 C2637 1.526 1_556 S
C2640 C2641 1.396 . S
C2640 C2645 1.390 . S
C2641 C2635 1.465 1_556 S
C2641 C2640 1.396 . S
C2641 C2642 1.399 . S
C2642 H2628 0.929 . S
C2642 C2641 1.399 . S
C2642 C2643 1.385 . S
C2643 H2629 0.931 . S
C2643 C2642 1.385 . S
C2643 C2644 1.389 . S
C2644 C2643 1.389 . S
C2644 C2645 1.387 . S
C2645 H2630 0.930 . S
C2645 C2640 1.390 . S
C2645 C2644 1.387 . S
H2646 C2658 0.930 . S
H2647 C2660 0.930 . S
H2648 C2661 0.930 . S
H2649 C2665 0.959 . S
H2650 C2665 0.959 . S
H2651 C2665 0.961 . S
H2652 C2666 0.960 . S
H2653 C2666 0.961 . S
H2654 C2666 0.959 1_554 S
H2655 C2669 0.923 1_554 S
H2656 C2670 0.931 . S
H2657 C2672 0.930 . S
C2658 H2646 0.930 . S
C2658 C2659 1.399 1_556 S
C2658 C2663 1.399 . S
C2659 C2658 1.399 1_554 S
C2659 C2660 1.376 . S
C2660 H2647 0.930 . S
C2660 C2659 1.376 . S
C2660 C2661 1.388 . S
C2661 H2648 0.930 . S
C2661 C2660 1.388 . S
C2661 C2662 1.390 . S
C2662 C2661 1.390 . S
C2662 C2663 1.394 1_554 S
C2662 C2668 1.465 1_554 S
C2663 C2658 1.399 . S
C2663 C2662 1.394 1_556 S
C2663 C2664 1.516 . S
C2664 C2663 1.516 . S
C2664 C2665 1.502 . S
C2664 C2666 1.561 . S
C2664 C2667 1.526 . S
C2665 H2649 0.959 . S
C2665 H2650 0.959 . S
C2665 H2651 0.961 . S
C2665 C2664 1.502 . S
C2666 H2652 0.960 . S
C2666 H2653 0.961 . S
C2666 H2654 0.959 1_556 S
C2666 C2664 1.561 . S
C2667 C2664 1.526 . S
C2667 C2668 1.396 . S
C2667 C2672 1.390 . S
C2668 C2662 1.465 1_556 S
C2668 C2667 1.396 . S
C2668 C2669 1.400 . S
C2669 H2655 0.923 1_556 S
C2669 C2668 1.400 . S
C2669 C2670 1.390 1_545 S
C2670 H2656 0.931 . S
C2670 C2669 1.390 1_565 S
C2670 C2671 1.389 . S
C2671 C2670 1.389 . S
C2671 C2672 1.387 1_565 S
C2672 H2657 0.930 . S
C2672 C2667 1.390 . S
C2672 C2671 1.387 1_545 S
H2673 C2685 0.930 . S
H2674 C2687 0.930 . S
H2675 C2688 0.930 . S
H2676 C2692 0.959 . S
H2677 C2692 0.959 . S
H2678 C2692 0.961 . S
H2679 C2693 0.960 . S
H2680 C2693 0.961 . S
H2681 C2693 0.959 . S
H2682 C2696 0.929 . S
H2683 C2697 0.931 . S
H2684 C2699 0.930 . S
C2685 H2673 0.930 . S
C2685 C2686 1.399 . S
C2685 C2690 1.399 . S
C2686 C2685 1.399 . S
C2686 C2687 1.376 . S
C2687 H2674 0.930 . S
C2687 C2686 1.376 . S
C2687 C2688 1.388 1_554 S
C2688 H2675 0.930 . S
C2688 C2687 1.388 1_556 S
C2688 C2689 1.390 . S
C2689 C2688 1.390 . S
C2689 C2690 1.394 1_556 S
C2689 C2695 1.465 . S
C2690 C2685 1.399 . S
C2690 C2689 1.394 1_554 S
C2690 C2691 1.516 . S
C2691 C2690 1.516 . S
C2691 C2692 1.502 1_554 S
C2691 C2693 1.561 . S
C2691 C2694 1.526 1_554 S
C2692 H2676 0.959 . S
C2692 H2677 0.959 . S
C2692 H2678 0.961 . S
C2692 C2691 1.502 1_556 S
C2693 H2679 0.960 . S
C2693 H2680 0.961 . S
C2693 H2681 0.959 . S
C2693 C2691 1.561 . S
C2694 C2691 1.526 1_556 S
C2694 C2695 1.396 . S
C2694 C2699 1.390 1_655 S
C2695 C2689 1.465 . S
C2695 C2694 1.396 . S
C2695 C2696 1.399 . S
C2696 H2682 0.929 . S
C2696 C2695 1.399 . S
C2696 C2697 1.385 1_655 S
C2697 H2683 0.931 . S
C2697 C2696 1.385 1_455 S
C2697 C2698 1.389 . S
C2698 C2697 1.389 . S
C2698 C2699 1.387 . S
C2699 H2684 0.930 . S
C2699 C2694 1.390 1_455 S
C2699 C2698 1.387 . S
H2700 C2712 0.930 1_554 S
H2701 C2714 0.930 . S
H2702 C2715 0.930 . S
H2703 C2719 0.959 . S
H2704 C2719 0.959 . S
H2705 C2719 0.961 . S
H2706 C2720 0.960 . S
H2707 C2720 0.961 . S
H2708 C2720 0.959 . S
H2709 C2723 0.929 . S
H2710 C2724 0.931 . S
H2711 C2726 0.930 . S
C2712 H2700 0.930 1_556 S
C2712 C2713 1.399 . S
C2712 C2717 1.399 . S
C2713 C2712 1.399 . S
C2713 C2714 1.376 . S
C2714 H2701 0.930 . S
C2714 C2713 1.376 . S
C2714 C2715 1.388 . S
C2715 H2702 0.930 . S
C2715 C2714 1.388 . S
C2715 C2716 1.390 . S
C2716 C2715 1.390 . S
C2716 C2717 1.394 . S
C2716 C2722 1.465 . S
C2717 C2712 1.399 . S
C2717 C2716 1.394 . S
C2717 C2718 1.516 1_556 S
C2718 C2717 1.516 1_554 S
C2718 C2719 1.502 . S
C2718 C2720 1.561 . S
C2718 C2721 1.526 . S
C2719 H2703 0.959 . S
C2719 H2704 0.959 . S
C2719 H2705 0.961 . S
C2719 C2718 1.502 . S
C2720 H2706 0.960 . S
C2720 H2707 0.961 . S
C2720 H2708 0.959 . S
C2720 C2718 1.561 . S
C2721 C2718 1.526 . S
C2721 C2722 1.396 1_554 S
C2721 C2726 1.390 . S
C2722 C2716 1.465 . S
C2722 C2721 1.396 1_556 S
C2722 C2723 1.399 . S
C2723 H2709 0.929 . S
C2723 C2722 1.399 . S
C2723 C2724 1.385 . S
C2724 H2710 0.931 . S
C2724 C2723 1.385 . S
C2724 C2725 1.389 1_556 S
C2725 C2724 1.389 1_554 S
C2725 C2726 1.387 . S
C2726 H2711 0.930 . S
C2726 C2721 1.390 . S
C2726 C2725 1.387 . S
H2727 C2739 0.959 . S
H2728 C2741 0.930 . S
H2729 C2742 0.930 . S
H2730 C2746 0.959 . S
H2731 C2746 0.959 . S
H2732 C2746 0.961 . S
H2733 C2747 0.960 . S
H2734 C2747 0.961 . S
H2735 C2747 0.959 . S
H2736 C2750 0.929 . S
H2737 C2751 0.931 . S
H2738 C2753 0.930 . S
C2739 H2727 0.959 . S
C2739 C2740 1.399 1_455 S
C2739 C2744 1.399 . S
C2740 C2739 1.399 1_655 S
C2740 C2741 1.376 . S
C2741 H2728 0.930 . S
C2741 C2740 1.376 . S
C2741 C2742 1.388 1_655 S
C2742 H2729 0.930 . S
C2742 C2741 1.388 1_455 S
C2742 C2743 1.390 . S
C2743 C2742 1.390 . S
C2743 C2744 1.394 . S
C2743 C2749 1.465 . S
C2744 C2739 1.399 . S
C2744 C2743 1.394 . S
C2744 C2745 1.516 . S
C2745 C2744 1.516 . S
C2745 C2746 1.502 . S
C2745 C2747 1.561 . S
C2745 C2748 1.526 . S
C2746 H2730 0.959 . S
C2746 H2731 0.959 . S
C2746 H2732 0.961 . S
C2746 C2745 1.502 . S
C2747 H2733 0.960 . S
C2747 H2734 0.961 . S
C2747 H2735 0.959 . S
C2747 C2745 1.561 . S
C2748 C2745 1.526 . S
C2748 C2749 1.396 . S
C2748 C2753 1.390 . S
C2749 C2743 1.465 . S
C2749 C2748 1.396 . S
C2749 C2750 1.399 . S
C2750 H2736 0.929 . S
C2750 C2749 1.399 . S
C2750 C2751 1.385 . S
C2751 H2737 0.931 . S
C2751 C2750 1.385 . S
C2751 C2752 1.389 . S
C2752 C2751 1.389 . S
C2752 C2753 1.387 . S
C2753 H2738 0.930 . S
C2753 C2748 1.390 . S
C2753 C2752 1.387 . S
H2754 C2766 0.930 . S
H2755 C2768 0.930 . S
H2756 C2769 0.930 . S
H2757 C2773 0.959 . S
H2758 C2773 0.959 . S
H2759 C2773 0.961 . S
H2760 C2774 0.960 . S
H2761 C2774 0.961 . S
H2762 C2774 0.959 . S
H2763 C2777 0.929 . S
H2764 C2778 0.931 . S
H2765 C2780 0.930 . S
C2766 H2754 0.930 . S
C2766 C2767 1.399 . S
C2766 C2771 1.399 . S
C2767 C2766 1.399 . S
C2767 C2768 1.376 . S
C2768 H2755 0.930 . S
C2768 C2767 1.376 . S
C2768 C2769 1.388 . S
C2769 H2756 0.930 . S
C2769 C2768 1.388 . S
C2769 C2770 1.390 . S
C2770 C2769 1.390 . S
C2770 C2771 1.394 . S
C2770 C2776 1.465 . S
C2771 C2766 1.399 . S
C2771 C2770 1.394 . S
C2771 C2772 1.516 . S
C2772 C2771 1.516 . S
C2772 C2773 1.502 . S
C2772 C2774 1.561 . S
C2772 C2775 1.526 . S
C2773 H2757 0.959 . S
C2773 H2758 0.959 . S
C2773 H2759 0.961 . S
C2773 C2772 1.502 . S
C2774 H2760 0.960 . S
C2774 H2761 0.961 . S
C2774 H2762 0.959 . S
C2774 C2772 1.561 . S
C2775 C2772 1.526 . S
C2775 C2776 1.396 . S
C2775 C2780 1.390 . S
C2776 C2770 1.465 . S
C2776 C2775 1.396 . S
C2776 C2777 1.399 . S
C2777 H2763 0.929 . S
C2777 C2776 1.399 . S
C2777 C2778 1.385 . S
C2778 H2764 0.931 . S
C2778 C2777 1.385 . S
C2778 C2779 1.389 . S
C2779 C2778 1.389 . S
C2779 C2780 1.387 . S
C2780 H2765 0.930 . S
C2780 C2775 1.390 . S
C2780 C2779 1.387 . S
H2781 C2793 0.930 . S
H2782 C2795 0.923 1_545 S
H2783 C2796 0.930 . S
H2784 C2800 0.959 . S
H2785 C2800 0.959 . S
H2786 C2800 0.961 . S
H2787 C2801 0.960 . S
H2788 C2801 0.961 . S
H2789 C2801 0.959 . S
H2790 C2804 0.929 . S
H2791 C2805 0.931 . S
H2792 C2807 0.930 . S
C2793 H2781 0.930 . S
C2793 C2794 1.399 . S
C2793 C2798 1.399 1_545 S
C2794 C2793 1.399 . S
C2794 C2795 1.345 1_545 S
C2795 H2782 0.923 1_565 S
C2795 C2794 1.345 1_565 S
C2795 C2796 1.429 . S
C2796 H2783 0.930 . S
C2796 C2795 1.429 . S
C2796 C2797 1.390 . S
C2797 C2796 1.390 . S
C2797 C2798 1.394 . S
C2797 C2803 1.465 . S
C2798 C2793 1.399 1_565 S
C2798 C2797 1.394 . S
C2798 C2799 1.516 . S
C2799 C2798 1.516 . S
C2799 C2800 1.502 . S
C2799 C2801 1.561 . S
C2799 C2802 1.526 . S
C2800 H2784 0.959 . S
C2800 H2785 0.959 . S
C2800 H2786 0.961 . S
C2800 C2799 1.502 . S
C2801 H2787 0.960 . S
C2801 H2788 0.961 . S
C2801 H2789 0.959 . S
C2801 C2799 1.561 . S
C2802 C2799 1.526 . S
C2802 C2803 1.396 . S
C2802 C2807 1.390 . S
C2803 C2797 1.465 . S
C2803 C2802 1.396 . S
C2803 C2804 1.399 . S
C2804 H2790 0.929 . S
C2804 C2803 1.399 . S
C2804 C2805 1.385 . S
C2805 H2791 0.931 . S
C2805 C2804 1.385 . S
C2805 C2806 1.389 . S
C2806 C2805 1.389 . S
C2806 C2807 1.387 . S
C2807 H2792 0.930 . S
C2807 C2802 1.390 . S
C2807 C2806 1.387 . S
H2808 C2820 0.930 . S
H2809 C2822 0.925 1_556 S
H2810 C2823 0.930 . S
H2811 C2827 0.959 . S
H2812 C2827 0.959 . S
H2813 C2827 0.961 . S
H2814 C2828 0.960 . S
H2815 C2828 0.961 . S
H2816 C2828 0.959 . S
H2817 C2831 0.929 . S
H2818 C2832 0.931 . S
H2819 C2834 0.930 . S
C2820 H2808 0.930 . S
C2820 C2821 1.399 1_565 S
C2820 C2825 1.399 . S
C2821 C2820 1.399 1_545 S
C2821 C2822 1.376 . S
C2822 H2809 0.925 1_554 S
C2822 C2821 1.376 . S
C2822 C2823 1.388 1_544 S
C2823 H2810 0.930 . S
C2823 C2822 1.388 1_566 S
C2823 C2824 1.390 1_556 S
C2824 C2823 1.390 1_554 S
C2824 C2825 1.394 . S
C2824 C2830 1.465 1_554 S
C2825 C2820 1.399 . S
C2825 C2824 1.394 . S
C2825 C2826 1.516 . S
C2826 C2825 1.516 . S
C2826 C2827 1.502 . S
C2826 C2828 1.561 . S
C2826 C2829 1.526 . S
C2827 H2811 0.959 . S
C2827 H2812 0.959 . S
C2827 H2813 0.961 . S
C2827 C2826 1.502 . S
C2828 H2814 0.960 . S
C2828 H2815 0.961 . S
C2828 H2816 0.959 . S
C2828 C2826 1.561 . S
C2829 C2826 1.526 . S
C2829 C2830 1.396 1_554 S
C2829 C2834 1.390 . S
C2830 C2824 1.465 1_556 S
C2830 C2829 1.396 1_556 S
C2830 C2831 1.399 . S
C2831 H2817 0.929 . S
C2831 C2830 1.399 . S
C2831 C2832 1.385 . S
C2832 H2818 0.931 . S
C2832 C2831 1.385 . S
C2832 C2833 1.389 . S
C2833 C2832 1.389 . S
C2833 C2834 1.387 1_556 S
C2834 H2819 0.930 . S
C2834 C2829 1.390 . S
C2834 C2833 1.387 1_554 S
H2835 C2847 0.930 . S
H2836 C2849 0.930 . S
H2837 C2850 0.930 1_556 S
H2838 C2854 0.959 . S
H2839 C2854 0.959 . S
H2840 C2854 0.961 . S
H2841 C2855 0.960 . S
H2842 C2855 0.961 . S
H2843 C2855 0.959 . S
H2844 C2858 0.929 . S
H2845 C2859 0.931 . S
H2846 C2861 0.930 . S
C2847 H2835 0.930 . S
C2847 C2848 1.399 1_455 S
C2847 C2852 1.399 . S
C2848 C2847 1.399 1_655 S
C2848 C2849 1.376 . S
C2849 H2836 0.930 . S
C2849 C2848 1.376 . S
C2849 C2850 1.388 1_655 S
C2850 H2837 0.930 1_554 S
C2850 C2849 1.388 1_455 S
C2850 C2851 1.390 . S
C2851 C2850 1.390 . S
C2851 C2852 1.394 . S
C2851 C2857 1.465 1_554 S
C2852 C2847 1.399 . S
C2852 C2851 1.394 . S
C2852 C2853 1.516 . S
C2853 C2852 1.516 . S
C2853 C2854 1.502 . S
C2853 C2855 1.561 . S
C2853 C2856 1.526 . S
C2854 H2838 0.959 . S
C2854 H2839 0.959 . S
C2854 H2840 0.961 . S
C2854 C2853 1.502 . S
C2855 H2841 0.960 . S
C2855 H2842 0.961 . S
C2855 H2843 0.959 . S
C2855 C2853 1.561 . S
C2856 C2853 1.526 . S
C2856 C2857 1.396 1_554 S
C2856 C2861 1.390 . S
C2857 C2851 1.465 1_556 S
C2857 C2856 1.396 1_556 S
C2857 C2858 1.399 . S
C2858 H2844 0.929 . S
C2858 C2857 1.399 . S
C2858 C2859 1.385 . S
C2859 H2845 0.931 . S
C2859 C2858 1.385 . S
C2859 C2860 1.389 . S
C2860 C2859 1.389 . S
C2860 C2861 1.387 1_556 S
C2861 H2846 0.930 . S
C2861 C2856 1.390 . S
C2861 C2860 1.387 1_554 S
H2862 C2874 0.930 . S
H2863 C2876 0.930 1_556 S
H2864 C2877 0.930 . S
H2865 C2881 0.959 . S
H2866 C2881 0.959 . S
H2867 C2881 0.961 . S
H2868 C2882 0.960 . S
H2869 C2882 0.961 . S
H2870 C2882 0.959 . S
H2871 C2885 0.929 . S
H2872 C2886 0.931 . S
H2873 C2888 0.930 . S
C2874 H2862 0.930 . S
C2874 C2875 1.399 . S
C2874 C2879 1.399 . S
C2875 C2874 1.399 . S
C2875 C2876 1.376 . S
C2876 H2863 0.930 1_554 S
C2876 C2875 1.376 . S
C2876 C2877 1.388 1_554 S
C2877 H2864 0.930 . S
C2877 C2876 1.388 1_556 S
C2877 C2878 1.390 1_556 S
C2878 C2877 1.390 1_554 S
C2878 C2879 1.394 . S
C2878 C2884 1.465 1_554 S
C2879 C2874 1.399 . S
C2879 C2878 1.394 . S
C2879 C2880 1.516 . S
C2880 C2879 1.516 . S
C2880 C2881 1.502 . S
C2880 C2882 1.561 . S
C2880 C2883 1.526 . S
C2881 H2865 0.959 . S
C2881 H2866 0.959 . S
C2881 H2867 0.961 . S
C2881 C2880 1.502 . S
C2882 H2868 0.960 . S
C2882 H2869 0.961 . S
C2882 H2870 0.959 . S
C2882 C2880 1.561 . S
C2883 C2880 1.526 . S
C2883 C2884 1.396 1_554 S
C2883 C2888 1.390 . S
C2884 C2878 1.465 1_556 S
C2884 C2883 1.396 1_556 S
C2884 C2885 1.399 . S
C2885 H2871 0.929 . S
C2885 C2884 1.399 . S
C2885 C2886 1.385 . S
C2886 H2872 0.931 . S
C2886 C2885 1.385 . S
C2886 C2887 1.389 . S
C2887 C2886 1.389 . S
C2887 C2888 1.387 1_556 S
C2888 H2873 0.930 . S
C2888 C2883 1.390 . S
C2888 C2887 1.387 1_554 S
H2889 C2901 0.930 . S
H2890 C2903 0.930 . S
H2891 C2904 0.930 . S
H2892 C2908 0.959 . S
H2893 C2908 0.959 . S
H2894 C2908 0.961 . S
H2895 C2909 0.960 . S
H2896 C2909 0.961 . S
H2897 C2909 0.959 . S
H2898 C2912 0.929 . S
H2899 C2913 0.931 . S
H2900 C2915 0.930 . S
C2901 H2889 0.930 . S
C2901 C2902 1.399 . S
C2901 C2906 1.399 . S
C2902 C2901 1.399 . S
C2902 C2903 1.376 . S
C2903 H2890 0.930 . S
C2903 C2902 1.376 . S
C2903 C2904 1.388 . S
C2904 H2891 0.930 . S
C2904 C2903 1.388 . S
C2904 C2905 1.390 . S
C2905 C2904 1.390 . S
C2905 C2906 1.394 . S
C2905 C2911 1.465 . S
C2906 C2901 1.399 . S
C2906 C2905 1.394 . S
C2906 C2907 1.516 . S
C2907 C2906 1.516 . S
C2907 C2908 1.502 . S
C2907 C2909 1.561 . S
C2907 C2910 1.526 . S
C2908 H2892 0.959 . S
C2908 H2893 0.959 . S
C2908 H2894 0.961 . S
C2908 C2907 1.502 . S
C2909 H2895 0.960 . S
C2909 H2896 0.961 . S
C2909 H2897 0.959 . S
C2909 C2907 1.561 . S
C2910 C2907 1.526 . S
C2910 C2911 1.396 . S
C2910 C2915 1.390 1_655 S
C2911 C2905 1.465 . S
C2911 C2910 1.396 . S
C2911 C2912 1.399 . S
C2912 H2898 0.929 . S
C2912 C2911 1.399 . S
C2912 C2913 1.385 1_655 S
C2913 H2899 0.931 . S
C2913 C2912 1.385 1_455 S
C2913 C2914 1.389 . S
C2914 C2913 1.389 . S
C2914 C2915 1.387 . S
C2915 H2900 0.930 . S
C2915 C2910 1.390 1_455 S
C2915 C2914 1.387 . S
H2916 C2928 0.930 . S
H2917 C2930 0.930 . S
H2918 C2931 0.930 . S
H2919 C2935 0.959 . S
H2920 C2935 0.959 . S
H2921 C2935 0.961 . S
H2922 C2936 0.960 . S
H2923 C2936 0.961 . S
H2924 C2936 0.959 . S
H2925 C2939 0.929 . S
H2926 C2940 0.931 . S
H2927 C2942 0.930 . S
C2928 H2916 0.930 . S
C2928 C2929 1.399 . S
C2928 C2933 1.399 . S
C2929 C2928 1.399 . S
C2929 C2930 1.376 . S
C2930 H2917 0.930 . S
C2930 C2929 1.376 . S
C2930 C2931 1.388 . S
C2931 H2918 0.930 . S
C2931 C2930 1.388 . S
C2931 C2932 1.390 . S
C2932 C2931 1.390 . S
C2932 C2933 1.394 . S
C2932 C2938 1.465 . S
C2933 C2928 1.399 . S
C2933 C2932 1.394 . S
C2933 C2934 1.516 . S
C2934 C2933 1.516 . S
C2934 C2935 1.502 . S
C2934 C2936 1.561 . S
C2934 C2937 1.526 . S
C2935 H2919 0.959 . S
C2935 H2920 0.959 . S
C2935 H2921 0.961 . S
C2935 C2934 1.502 . S
C2936 H2922 0.960 . S
C2936 H2923 0.961 . S
C2936 H2924 0.959 . S
C2936 C2934 1.561 . S
C2937 C2934 1.526 . S
C2937 C2938 1.396 . S
C2937 C2942 1.390 . S
C2938 C2932 1.465 . S
C2938 C2937 1.396 . S
C2938 C2939 1.399 . S
C2939 H2925 0.929 . S
C2939 C2938 1.399 . S
C2939 C2940 1.385 . S
C2940 H2926 0.931 . S
C2940 C2939 1.385 . S
C2940 C2941 1.389 . S
C2941 C2940 1.389 . S
C2941 C2942 1.387 . S
C2942 H2927 0.930 . S
C2942 C2937 1.390 . S
C2942 C2941 1.387 . S
H2943 C2955 0.930 . S
H2944 C2957 0.937 . S
H2945 C2958 0.930 . S
H2946 C2962 0.959 . S
H2947 C2962 0.959 . S
H2948 C2962 0.961 . S
H2949 C2963 0.960 . S
H2950 C2963 0.961 . S
H2951 C2963 0.959 . S
H2952 C2966 0.929 . S
H2953 C2967 0.931 . S
H2954 C2969 0.930 . S
C2955 H2943 0.930 . S
C2955 C2956 1.399 . S
C2955 C2960 1.399 1_565 S
C2956 C2955 1.399 . S
C2956 C2957 1.380 . S
C2957 H2944 0.937 . S
C2957 C2956 1.380 . S
C2957 C2958 1.379 1_565 S
C2958 H2945 0.930 . S
C2958 C2957 1.379 1_545 S
C2958 C2959 1.390 . S
C2959 C2958 1.390 . S
C2959 C2960 1.394 . S
C2959 C2965 1.465 . S
C2960 C2955 1.399 1_545 S
C2960 C2959 1.394 . S
C2960 C2961 1.516 . S
C2961 C2960 1.516 . S
C2961 C2962 1.502 . S
C2961 C2963 1.561 . S
C2961 C2964 1.526 . S
C2962 H2946 0.959 . S
C2962 H2947 0.959 . S
C2962 H2948 0.961 . S
C2962 C2961 1.502 . S
C2963 H2949 0.960 . S
C2963 H2950 0.961 . S
C2963 H2951 0.959 . S
C2963 C2961 1.561 . S
C2964 C2961 1.526 . S
C2964 C2965 1.396 . S
C2964 C2969 1.390 . S
C2965 C2959 1.465 . S
C2965 C2964 1.396 . S
C2965 C2966 1.399 . S
C2966 H2952 0.929 . S
C2966 C2965 1.399 . S
C2966 C2967 1.385 . S
C2967 H2953 0.931 . S
C2967 C2966 1.385 . S
C2967 C2968 1.389 . S
C2968 C2967 1.389 . S
C2968 C2969 1.387 . S
C2969 H2954 0.930 . S
C2969 C2964 1.390 . S
C2969 C2968 1.387 . S
H2970 C2982 0.930 . S
H2971 C2984 0.930 . S
H2972 C2985 0.930 . S
H2973 C2989 0.959 . S
H2974 C2989 0.959 . S
H2975 C2989 0.961 . S
H2976 C2990 0.960 . S
H2977 C2990 0.961 . S
H2978 C2990 0.959 . S
H2979 C2993 0.929 . S
H2980 C2994 0.931 . S
H2981 C2996 0.930 . S
C2982 H2970 0.930 . S
C2982 C2983 1.399 . S
C2982 C2987 1.399 . S
C2983 C2982 1.399 . S
C2983 C2984 1.376 . S
C2984 H2971 0.930 . S
C2984 C2983 1.376 . S
C2984 C2985 1.388 . S
C2985 H2972 0.930 . S
C2985 C2984 1.388 . S
C2985 C2986 1.390 . S
C2986 C2985 1.390 . S
C2986 C2987 1.394 . S
C2986 C2992 1.465 . S
C2987 C2982 1.399 . S
C2987 C2986 1.394 . S
C2987 C2988 1.516 . S
C2988 C2987 1.516 . S
C2988 C2989 1.502 . S
C2988 C2990 1.561 . S
C2988 C2991 1.526 . S
C2989 H2973 0.959 . S
C2989 H2974 0.959 . S
C2989 H2975 0.961 . S
C2989 C2988 1.502 . S
C2990 H2976 0.960 . S
C2990 H2977 0.961 . S
C2990 H2978 0.959 . S
C2990 C2988 1.561 . S
C2991 C2988 1.526 . S
C2991 C2992 1.396 . S
C2991 C2996 1.390 . S
C2992 C2986 1.465 . S
C2992 C2991 1.396 . S
C2992 C2993 1.399 . S
C2993 H2979 0.929 . S
C2993 C2992 1.399 . S
C2993 C2994 1.385 . S
C2994 H2980 0.931 . S
C2994 C2993 1.385 . S
C2994 C2995 1.389 . S
C2995 C2994 1.389 . S
C2995 C2996 1.387 . S
C2996 H2981 0.930 . S
C2996 C2991 1.390 . S
C2996 C2995 1.387 . S
H2997 C3009 0.930 . S
H2998 C3011 0.930 . S
H2999 C3012 0.930 . S
H3000 C3016 0.959 . S
H3001 C3016 0.959 . S
H3002 C3016 0.961 . S
H3003 C3017 0.960 . S
H3004 C3017 0.961 . S
H3005 C3017 0.959 . S
H3006 C3020 0.929 . S
H3007 C3021 0.931 . S
H3008 C3023 0.930 . S
C3009 H2997 0.930 . S
C3009 C3010 1.399 . S
C3009 C3014 1.399 . S
C3010 C3009 1.399 . S
C3010 C3011 1.376 . S
C3011 H2998 0.930 . S
C3011 C3010 1.376 . S
C3011 C3012 1.388 . S
C3012 H2999 0.930 . S
C3012 C3011 1.388 . S
C3012 C3013 1.390 . S
C3013 C3012 1.390 . S
C3013 C3014 1.394 . S
C3013 C3019 1.465 . S
C3014 C3009 1.399 . S
C3014 C3013 1.394 . S
C3014 C3015 1.516 . S
C3015 C3014 1.516 . S
C3015 C3016 1.502 . S
C3015 C3017 1.561 . S
C3015 C3018 1.526 . S
C3016 H3000 0.959 . S
C3016 H3001 0.959 . S
C3016 H3002 0.961 . S
C3016 C3015 1.502 . S
C3017 H3003 0.960 . S
C3017 H3004 0.961 . S
C3017 H3005 0.959 . S
C3017 C3015 1.561 . S
C3018 C3015 1.526 . S
C3018 C3019 1.396 . S
C3018 C3023 1.390 . S
C3019 C3013 1.465 . S
C3019 C3018 1.396 . S
C3019 C3020 1.399 . S
C3020 H3006 0.929 . S
C3020 C3019 1.399 . S
C3020 C3021 1.385 . S
C3021 H3007 0.931 . S
C3021 C3020 1.385 . S
C3021 C3022 1.389 . S
C3022 C3021 1.389 . S
C3022 C3023 1.387 . S
C3023 H3008 0.930 . S
C3023 C3018 1.390 . S
C3023 C3022 1.387 . S
H3024 C3036 0.930 . S
H3025 C3038 0.930 . S
H3026 C3039 0.930 . S
H3027 C3043 0.959 . S
H3028 C3043 0.959 . S
H3029 C3043 0.961 . S
H3030 C3044 0.960 . S
H3031 C3044 0.961 . S
H3032 C3044 0.959 . S
H3033 C3047 0.929 . S
H3034 C3048 0.931 . S
H3035 C3050 0.930 . S
C3036 H3024 0.930 . S
C3036 C3037 1.399 . S
C3036 C3041 1.399 . S
C3037 C3036 1.399 . S
C3037 C3038 1.376 . S
C3038 H3025 0.930 . S
C3038 C3037 1.376 . S
C3038 C3039 1.388 . S
C3039 H3026 0.930 . S
C3039 C3038 1.388 . S
C3039 C3040 1.390 . S
C3040 C3039 1.390 . S
C3040 C3041 1.394 . S
C3040 C3046 1.465 . S
C3041 C3036 1.399 . S
C3041 C3040 1.394 . S
C3041 C3042 1.516 . S
C3042 C3041 1.516 . S
C3042 C3043 1.502 . S
C3042 C3044 1.561 . S
C3042 C3045 1.526 . S
C3043 H3027 0.959 . S
C3043 H3028 0.959 . S
C3043 H3029 0.961 . S
C3043 C3042 1.502 . S
C3044 H3030 0.960 . S
C3044 H3031 0.961 . S
C3044 H3032 0.959 . S
C3044 C3042 1.561 . S
C3045 C3042 1.526 . S
C3045 C3046 1.396 . S
C3045 C3050 1.390 . S
C3046 C3040 1.465 . S
C3046 C3045 1.396 . S
C3046 C3047 1.399 . S
C3047 H3033 0.929 . S
C3047 C3046 1.399 . S
C3047 C3048 1.385 . S
C3048 H3034 0.931 . S
C3048 C3047 1.385 . S
C3048 C3049 1.389 . S
C3049 C3048 1.389 . S
C3049 C3050 1.387 . S
C3050 H3035 0.930 . S
C3050 C3045 1.390 . S
C3050 C3049 1.387 . S
H3051 C3063 0.930 . S
H3052 C3065 0.930 . S
H3053 C3066 0.930 . S
H3054 C3070 0.959 . S
H3055 C3070 0.959 . S
H3056 C3070 0.961 . S
H3057 C3071 0.960 . S
H3058 C3071 0.961 . S
H3059 C3071 0.959 . S
H3060 C3074 0.929 . S
H3061 C3075 0.931 . S
H3062 C3077 0.930 . S
C3063 H3051 0.930 . S
C3063 C3064 1.399 . S
C3063 C3068 1.399 . S
C3064 C3063 1.399 . S
C3064 C3065 1.376 . S
C3065 H3052 0.930 . S
C3065 C3064 1.376 . S
C3065 C3066 1.388 . S
C3066 H3053 0.930 . S
C3066 C3065 1.388 . S
C3066 C3067 1.390 . S
C3067 C3066 1.390 . S
C3067 C3068 1.394 . S
C3067 C3073 1.465 . S
C3068 C3063 1.399 . S
C3068 C3067 1.394 . S
C3068 C3069 1.516 . S
C3069 C3068 1.516 . S
C3069 C3070 1.502 . S
C3069 C3071 1.561 . S
C3069 C3072 1.526 . S
C3070 H3054 0.959 . S
C3070 H3055 0.959 . S
C3070 H3056 0.961 . S
C3070 C3069 1.502 . S
C3071 H3057 0.960 . S
C3071 H3058 0.961 . S
C3071 H3059 0.959 . S
C3071 C3069 1.561 . S
C3072 C3069 1.526 . S
C3072 C3073 1.396 . S
C3072 C3077 1.390 . S
C3073 C3067 1.465 . S
C3073 C3072 1.396 . S
C3073 C3074 1.399 . S
C3074 H3060 0.929 . S
C3074 C3073 1.399 . S
C3074 C3075 1.385 . S
C3075 H3061 0.931 . S
C3075 C3074 1.385 . S
C3075 C3076 1.389 . S
C3076 C3075 1.389 . S
C3076 C3077 1.387 . S
C3077 H3062 0.930 . S
C3077 C3072 1.390 . S
C3077 C3076 1.387 . S
H3078 C3090 0.930 . S
H3079 C3092 0.930 . S
H3080 C3093 0.930 . S
H3081 C3097 0.959 . S
H3082 C3097 0.959 . S
H3083 C3097 0.961 . S
H3084 C3098 0.960 . S
H3085 C3098 0.961 . S
H3086 C3098 0.959 . S
H3087 C3101 0.929 . S
H3088 C3102 0.931 . S
H3089 C3104 0.930 . S
C3090 H3078 0.930 . S
C3090 C3091 1.399 . S
C3090 C3095 1.399 . S
C3091 C3090 1.399 . S
C3091 C3092 1.376 . S
C3092 H3079 0.930 . S
C3092 C3091 1.376 . S
C3092 C3093 1.388 . S
C3093 H3080 0.930 . S
C3093 C3092 1.388 . S
C3093 C3094 1.390 . S
C3094 C3093 1.390 . S
C3094 C3095 1.394 . S
C3094 C3100 1.465 . S
C3095 C3090 1.399 . S
C3095 C3094 1.394 . S
C3095 C3096 1.516 . S
C3096 C3095 1.516 . S
C3096 C3097 1.502 . S
C3096 C3098 1.561 . S
C3096 C3099 1.526 . S
C3097 H3081 0.959 . S
C3097 H3082 0.959 . S
C3097 H3083 0.961 . S
C3097 C3096 1.502 . S
C3098 H3084 0.960 . S
C3098 H3085 0.961 . S
C3098 H3086 0.959 . S
C3098 C3096 1.561 . S
C3099 C3096 1.526 . S
C3099 C3100 1.396 . S
C3099 C3104 1.390 . S
C3100 C3094 1.465 . S
C3100 C3099 1.396 . S
C3100 C3101 1.399 . S
C3101 H3087 0.929 . S
C3101 C3100 1.399 . S
C3101 C3102 1.385 . S
C3102 H3088 0.931 . S
C3102 C3101 1.385 . S
C3102 C3103 1.389 . S
C3103 C3102 1.389 . S
C3103 C3104 1.387 . S
C3104 H3089 0.930 . S
C3104 C3099 1.390 . S
C3104 C3103 1.387 . S
H3105 C3117 0.930 . S
H3106 C3119 0.930 . S
H3107 C3120 0.930 . S
H3108 C3124 0.959 . S
H3109 C3124 0.959 . S
H3110 C3124 0.961 . S
H3111 C3125 0.960 . S
H3112 C3125 0.961 . S
H3113 C3125 0.959 . S
H3114 C3128 0.929 . S
H3115 C3129 0.931 . S
H3116 C3131 0.930 . S
C3117 H3105 0.930 . S
C3117 C3118 1.399 . S
C3117 C3122 1.399 . S
C3118 C3117 1.399 . S
C3118 C3119 1.376 . S
C3119 H3106 0.930 . S
C3119 C3118 1.376 . S
C3119 C3120 1.388 . S
C3120 H3107 0.930 . S
C3120 C3119 1.388 . S
C3120 C3121 1.390 . S
C3121 C3120 1.390 . S
C3121 C3122 1.394 . S
C3121 C3127 1.465 . S
C3122 C3117 1.399 . S
C3122 C3121 1.394 . S
C3122 C3123 1.516 . S
C3123 C3122 1.516 . S
C3123 C3124 1.502 . S
C3123 C3125 1.561 . S
C3123 C3126 1.526 . S
C3124 H3108 0.959 . S
C3124 H3109 0.959 . S
C3124 H3110 0.961 . S
C3124 C3123 1.502 . S
C3125 H3111 0.960 . S
C3125 H3112 0.961 . S
C3125 H3113 0.959 . S
C3125 C3123 1.561 . S
C3126 C3123 1.526 . S
C3126 C3127 1.396 . S
C3126 C3131 1.390 . S
C3127 C3121 1.465 . S
C3127 C3126 1.396 . S
C3127 C3128 1.399 . S
C3128 H3114 0.929 . S
C3128 C3127 1.399 . S
C3128 C3129 1.385 . S
C3129 H3115 0.931 . S
C3129 C3128 1.385 . S
C3129 C3130 1.389 . S
C3130 C3129 1.389 . S
C3130 C3131 1.387 . S
C3131 H3116 0.930 . S
C3131 C3126 1.390 . S
C3131 C3130 1.387 . S
H3132 C3144 0.930 . S
H3133 C3146 0.930 . S
H3134 C3147 0.930 . S
H3135 C3151 0.959 . S
H3136 C3151 0.959 . S
H3137 C3151 0.961 . S
H3138 C3152 0.960 . S
H3139 C3152 0.961 . S
H3140 C3152 0.959 . S
H3141 C3155 0.929 . S
H3142 C3156 0.931 . S
H3143 C3158 0.930 . S
C3144 H3132 0.930 . S
C3144 C3145 1.399 . S
C3144 C3149 1.399 . S
C3145 C3144 1.399 . S
C3145 C3146 1.376 . S
C3146 H3133 0.930 . S
C3146 C3145 1.376 . S
C3146 C3147 1.388 . S
C3147 H3134 0.930 . S
C3147 C3146 1.388 . S
C3147 C3148 1.390 . S
C3148 C3147 1.390 . S
C3148 C3149 1.394 . S
C3148 C3154 1.465 . S
C3149 C3144 1.399 . S
C3149 C3148 1.394 . S
C3149 C3150 1.516 . S
C3150 C3149 1.516 . S
C3150 C3151 1.502 . S
C3150 C3152 1.561 . S
C3150 C3153 1.526 . S
C3151 H3135 0.959 . S
C3151 H3136 0.959 . S
C3151 H3137 0.961 . S
C3151 C3150 1.502 . S
C3152 H3138 0.960 . S
C3152 H3139 0.961 . S
C3152 H3140 0.959 . S
C3152 C3150 1.561 . S
C3153 C3150 1.526 . S
C3153 C3154 1.396 . S
C3153 C3158 1.390 . S
C3154 C3148 1.465 . S
C3154 C3153 1.396 . S
C3154 C3155 1.399 . S
C3155 H3141 0.929 . S
C3155 C3154 1.399 . S
C3155 C3156 1.385 . S
C3156 H3142 0.931 . S
C3156 C3155 1.385 . S
C3156 C3157 1.389 . S
C3157 C3156 1.389 . S
C3157 C3158 1.387 . S
C3158 H3143 0.930 . S
C3158 C3153 1.390 . S
C3158 C3157 1.387 . S
H3159 C3171 0.930 . S
H3160 C3173 0.930 . S
H3161 C3174 0.930 . S
H3162 C3178 0.959 . S
H3163 C3178 0.959 . S
H3164 C3178 0.961 . S
H3165 C3179 0.960 . S
H3166 C3179 0.961 . S
H3167 C3179 0.959 . S
H3168 C3182 0.929 . S
H3169 C3183 0.931 . S
H3170 C3185 0.930 . S
C3171 H3159 0.930 . S
C3171 C3172 1.399 . S
C3171 C3176 1.399 . S
C3172 C3171 1.399 . S
C3172 C3173 1.376 . S
C3173 H3160 0.930 . S
C3173 C3172 1.376 . S
C3173 C3174 1.388 . S
C3174 H3161 0.930 . S
C3174 C3173 1.388 . S
C3174 C3175 1.390 . S
C3175 C3174 1.390 . S
C3175 C3176 1.394 . S
C3175 C3181 1.465 . S
C3176 C3171 1.399 . S
C3176 C3175 1.394 . S
C3176 C3177 1.516 . S
C3177 C3176 1.516 . S
C3177 C3178 1.502 . S
C3177 C3179 1.561 . S
C3177 C3180 1.526 . S
C3178 H3162 0.959 . S
C3178 H3163 0.959 . S
C3178 H3164 0.961 . S
C3178 C3177 1.502 . S
C3179 H3165 0.960 . S
C3179 H3166 0.961 . S
C3179 H3167 0.959 . S
C3179 C3177 1.561 . S
C3180 C3177 1.526 . S
C3180 C3181 1.396 . S
C3180 C3185 1.390 . S
C3181 C3175 1.465 . S
C3181 C3180 1.396 . S
C3181 C3182 1.399 . S
C3182 H3168 0.929 . S
C3182 C3181 1.399 . S
C3182 C3183 1.385 . S
C3183 H3169 0.931 . S
C3183 C3182 1.385 . S
C3183 C3184 1.389 . S
C3184 C3183 1.389 . S
C3184 C3185 1.387 . S
C3185 H3170 0.930 . S
C3185 C3180 1.390 . S
C3185 C3184 1.387 . S
H3186 C3198 0.930 . S
H3187 C3200 0.930 . S
H3188 C3201 0.930 . S
H3189 C3205 0.959 . S
H3190 C3205 0.959 . S
H3191 C3205 0.961 . S
H3192 C3206 0.960 . S
H3193 C3206 0.961 . S
H3194 C3206 0.959 . S
H3195 C3209 0.929 . S
H3196 C3210 0.931 . S
H3197 C3212 0.930 . S
C3198 H3186 0.930 . S
C3198 C3199 1.399 . S
C3198 C3203 1.399 . S
C3199 C3198 1.399 . S
C3199 C3200 1.376 . S
C3200 H3187 0.930 . S
C3200 C3199 1.376 . S
C3200 C3201 1.388 . S
C3201 H3188 0.930 . S
C3201 C3200 1.388 . S
C3201 C3202 1.390 . S
C3202 C3201 1.390 . S
C3202 C3203 1.394 . S
C3202 C3208 1.465 . S
C3203 C3198 1.399 . S
C3203 C3202 1.394 . S
C3203 C3204 1.516 . S
C3204 C3203 1.516 . S
C3204 C3205 1.502 . S
C3204 C3206 1.561 . S
C3204 C3207 1.526 . S
C3205 H3189 0.959 . S
C3205 H3190 0.959 . S
C3205 H3191 0.961 . S
C3205 C3204 1.502 . S
C3206 H3192 0.960 . S
C3206 H3193 0.961 . S
C3206 H3194 0.959 . S
C3206 C3204 1.561 . S
C3207 C3204 1.526 . S
C3207 C3208 1.396 . S
C3207 C3212 1.390 . S
C3208 C3202 1.465 . S
C3208 C3207 1.396 . S
C3208 C3209 1.399 . S
C3209 H3195 0.929 . S
C3209 C3208 1.399 . S
C3209 C3210 1.385 . S
C3210 H3196 0.931 . S
C3210 C3209 1.385 . S
C3210 C3211 1.389 . S
C3211 C3210 1.389 . S
C3211 C3212 1.387 . S
C3212 H3197 0.930 . S
C3212 C3207 1.390 . S
C3212 C3211 1.387 . S
H3213 C3225 0.930 . S
H3214 C3227 0.930 . S
H3215 C3228 0.930 . S
H3216 C3232 0.959 . S
H3217 C3232 0.959 . S
H3218 C3232 0.961 . S
H3219 C3233 0.960 . S
H3220 C3233 0.961 . S
H3221 C3233 0.959 . S
H3222 C3236 0.929 . S
H3223 C3237 0.931 . S
H3224 C3239 0.930 . S
C3225 H3213 0.930 . S
C3225 C3226 1.399 . S
C3225 C3230 1.399 . S
C3226 C3225 1.399 . S
C3226 C3227 1.376 . S
C3227 H3214 0.930 . S
C3227 C3226 1.376 . S
C3227 C3228 1.388 . S
C3228 H3215 0.930 . S
C3228 C3227 1.388 . S
C3228 C3229 1.390 . S
C3229 C3228 1.390 . S
C3229 C3230 1.394 . S
C3229 C3235 1.465 . S
C3230 C3225 1.399 . S
C3230 C3229 1.394 . S
C3230 C3231 1.516 . S
C3231 C3230 1.516 . S
C3231 C3232 1.502 . S
C3231 C3233 1.561 . S
C3231 C3234 1.526 . S
C3232 H3216 0.959 . S
C3232 H3217 0.959 . S
C3232 H3218 0.961 . S
C3232 C3231 1.502 . S
C3233 H3219 0.960 . S
C3233 H3220 0.961 . S
C3233 H3221 0.959 . S
C3233 C3231 1.561 . S
C3234 C3231 1.526 . S
C3234 C3235 1.396 . S
C3234 C3239 1.390 . S
C3235 C3229 1.465 . S
C3235 C3234 1.396 . S
C3235 C3236 1.399 . S
C3236 H3222 0.929 . S
C3236 C3235 1.399 . S
C3236 C3237 1.385 . S
C3237 H3223 0.931 . S
C3237 C3236 1.385 . S
C3237 C3238 1.389 . S
C3238 C3237 1.389 . S
C3238 C3239 1.387 . S
C3239 H3224 0.930 . S
C3239 C3234 1.390 . S
C3239 C3238 1.387 . S
H3240 C3252 0.930 . S
H3241 C3254 0.930 . S
H3242 C3255 0.930 . S
H3243 C3259 0.959 . S
H3244 C3259 0.959 . S
H3245 C3259 0.961 . S
H3246 C3260 0.960 . S
H3247 C3260 0.961 . S
H3248 C3260 0.959 . S
H3249 C3263 0.929 . S
H3250 C3264 0.931 . S
H3251 C3266 0.930 . S
C3252 H3240 0.930 . S
C3252 C3253 1.399 . S
C3252 C3257 1.399 . S
C3253 C3252 1.399 . S
C3253 C3254 1.376 . S
C3254 H3241 0.930 . S
C3254 C3253 1.376 . S
C3254 C3255 1.388 . S
C3255 H3242 0.930 . S
C3255 C3254 1.388 . S
C3255 C3256 1.390 . S
C3256 C3255 1.390 . S
C3256 C3257 1.394 . S
C3256 C3262 1.465 . S
C3257 C3252 1.399 . S
C3257 C3256 1.394 . S
C3257 C3258 1.516 . S
C3258 C3257 1.516 . S
C3258 C3259 1.502 . S
C3258 C3260 1.561 . S
C3258 C3261 1.526 . S
C3259 H3243 0.959 . S
C3259 H3244 0.959 . S
C3259 H3245 0.961 . S
C3259 C3258 1.502 . S
C3260 H3246 0.960 . S
C3260 H3247 0.961 . S
C3260 H3248 0.959 . S
C3260 C3258 1.561 . S
C3261 C3258 1.526 . S
C3261 C3262 1.396 . S
C3261 C3266 1.390 . S
C3262 C3256 1.465 . S
C3262 C3261 1.396 . S
C3262 C3263 1.399 . S
C3263 H3249 0.929 . S
C3263 C3262 1.399 . S
C3263 C3264 1.385 . S
C3264 H3250 0.931 . S
C3264 C3263 1.385 . S
C3264 C3265 1.389 . S
C3265 C3264 1.389 . S
C3265 C3266 1.387 . S
C3266 H3251 0.930 . S
C3266 C3261 1.390 . S
C3266 C3265 1.387 . S
H3267 C3279 0.930 . S
H3268 C3281 0.930 . S
H3269 C3282 0.930 . S
H3270 C3286 0.959 . S
H3271 C3286 0.959 . S
H3272 C3286 0.961 . S
H3273 C3287 0.960 . S
H3274 C3287 0.961 . S
H3275 C3287 0.959 . S
H3276 C3290 0.929 . S
H3277 C3291 0.931 . S
H3278 C3293 0.930 . S
C3279 H3267 0.930 . S
C3279 C3280 1.399 . S
C3279 C3284 1.399 . S
C3280 C3279 1.399 . S
C3280 C3281 1.376 . S
C3281 H3268 0.930 . S
C3281 C3280 1.376 . S
C3281 C3282 1.388 . S
C3282 H3269 0.930 . S
C3282 C3281 1.388 . S
C3282 C3283 1.390 . S
C3283 C3282 1.390 . S
C3283 C3284 1.394 . S
C3283 C3289 1.465 . S
C3284 C3279 1.399 . S
C3284 C3283 1.394 . S
C3284 C3285 1.516 . S
C3285 C3284 1.516 . S
C3285 C3286 1.502 . S
C3285 C3287 1.561 . S
C3285 C3288 1.526 . S
C3286 H3270 0.959 . S
C3286 H3271 0.959 . S
C3286 H3272 0.961 . S
C3286 C3285 1.502 . S
C3287 H3273 0.960 . S
C3287 H3274 0.961 . S
C3287 H3275 0.959 . S
C3287 C3285 1.561 . S
C3288 C3285 1.526 . S
C3288 C3289 1.396 . S
C3288 C3293 1.390 . S
C3289 C3283 1.465 . S
C3289 C3288 1.396 . S
C3289 C3290 1.399 . S
C3290 H3276 0.929 . S
C3290 C3289 1.399 . S
C3290 C3291 1.385 . S
C3291 H3277 0.931 . S
C3291 C3290 1.385 . S
C3291 C3292 1.389 . S
C3292 C3291 1.389 . S
C3292 C3293 1.387 . S
C3293 H3278 0.930 . S
C3293 C3288 1.390 . S
C3293 C3292 1.387 . S
H3294 C3306 0.930 . S
H3295 C3308 0.930 . S
H3296 C3309 0.930 . S
H3297 C3313 0.959 . S
H3298 C3313 0.959 . S
H3299 C3313 0.961 . S
H3300 C3314 0.960 . S
H3301 C3314 0.961 . S
H3302 C3314 0.959 . S
H3303 C3317 0.929 . S
H3304 C3318 0.931 . S
H3305 C3320 0.930 . S
C3306 H3294 0.930 . S
C3306 C3307 1.399 . S
C3306 C3311 1.399 . S
C3307 C3306 1.399 . S
C3307 C3308 1.376 . S
C3308 H3295 0.930 . S
C3308 C3307 1.376 . S
C3308 C3309 1.388 . S
C3309 H3296 0.930 . S
C3309 C3308 1.388 . S
C3309 C3310 1.390 . S
C3310 C3309 1.390 . S
C3310 C3311 1.394 . S
C3310 C3316 1.465 . S
C3311 C3306 1.399 . S
C3311 C3310 1.394 . S
C3311 C3312 1.516 . S
C3312 C3311 1.516 . S
C3312 C3313 1.502 . S
C3312 C3314 1.561 . S
C3312 C3315 1.526 . S
C3313 H3297 0.959 . S
C3313 H3298 0.959 . S
C3313 H3299 0.961 . S
C3313 C3312 1.502 . S
C3314 H3300 0.960 . S
C3314 H3301 0.961 . S
C3314 H3302 0.959 . S
C3314 C3312 1.561 . S
C3315 C3312 1.526 . S
C3315 C3316 1.396 . S
C3315 C3320 1.390 . S
C3316 C3310 1.465 . S
C3316 C3315 1.396 . S
C3316 C3317 1.399 . S
C3317 H3303 0.929 . S
C3317 C3316 1.399 . S
C3317 C3318 1.385 . S
C3318 H3304 0.931 . S
C3318 C3317 1.385 . S
C3318 C3319 1.389 . S
C3319 C3318 1.389 . S
C3319 C3320 1.387 . S
C3320 H3305 0.930 . S
C3320 C3315 1.390 . S
C3320 C3319 1.387 . S
H3321 C3333 0.930 . S
H3322 C3335 0.930 . S
H3323 C3336 0.930 . S
H3324 C3340 0.959 . S
H3325 C3340 0.959 . S
H3326 C3340 0.961 . S
H3327 C3341 0.960 . S
H3328 C3341 0.961 . S
H3329 C3341 0.959 . S
H3330 C3344 0.929 . S
H3331 C3345 0.931 . S
H3332 C3347 0.930 . S
C3333 H3321 0.930 . S
C3333 C3334 1.399 . S
C3333 C3338 1.399 . S
C3334 C3333 1.399 . S
C3334 C3335 1.376 . S
C3335 H3322 0.930 . S
C3335 C3334 1.376 . S
C3335 C3336 1.388 . S
C3336 H3323 0.930 . S
C3336 C3335 1.388 . S
C3336 C3337 1.390 . S
C3337 C3336 1.390 . S
C3337 C3338 1.394 . S
C3337 C3343 1.465 . S
C3338 C3333 1.399 . S
C3338 C3337 1.394 . S
C3338 C3339 1.516 . S
C3339 C3338 1.516 . S
C3339 C3340 1.502 . S
C3339 C3341 1.561 . S
C3339 C3342 1.526 . S
C3340 H3324 0.959 . S
C3340 H3325 0.959 . S
C3340 H3326 0.961 . S
C3340 C3339 1.502 . S
C3341 H3327 0.960 . S
C3341 H3328 0.961 . S
C3341 H3329 0.959 . S
C3341 C3339 1.561 . S
C3342 C3339 1.526 . S
C3342 C3343 1.396 . S
C3342 C3347 1.390 . S
C3343 C3337 1.465 . S
C3343 C3342 1.396 . S
C3343 C3344 1.399 . S
C3344 H3330 0.929 . S
C3344 C3343 1.399 . S
C3344 C3345 1.385 . S
C3345 H3331 0.931 . S
C3345 C3344 1.385 . S
C3345 C3346 1.389 . S
C3346 C3345 1.389 . S
C3346 C3347 1.387 . S
C3347 H3332 0.930 . S
C3347 C3342 1.390 . S
C3347 C3346 1.387 . S
H3348 C3360 0.930 . S
H3349 C3362 0.930 . S
H3350 C3363 0.930 . S
H3351 C3367 0.959 . S
H3352 C3367 0.959 . S
H3353 C3367 0.961 . S
H3354 C3368 0.960 . S
H3355 C3368 0.961 . S
H3356 C3368 0.959 . S
H3357 C3371 0.929 . S
H3358 C3372 0.931 . S
H3359 C3374 0.930 . S
C3360 H3348 0.930 . S
C3360 C3361 1.399 . S
C3360 C3365 1.399 . S
C3361 C3360 1.399 . S
C3361 C3362 1.376 . S
C3362 H3349 0.930 . S
C3362 C3361 1.376 . S
C3362 C3363 1.388 . S
C3363 H3350 0.930 . S
C3363 C3362 1.388 . S
C3363 C3364 1.390 . S
C3364 C3363 1.390 . S
C3364 C3365 1.394 . S
C3364 C3370 1.465 . S
C3365 C3360 1.399 . S
C3365 C3364 1.394 . S
C3365 C3366 1.516 . S
C3366 C3365 1.516 . S
C3366 C3367 1.502 . S
C3366 C3368 1.561 . S
C3366 C3369 1.526 . S
C3367 H3351 0.959 . S
C3367 H3352 0.959 . S
C3367 H3353 0.961 . S
C3367 C3366 1.502 . S
C3368 H3354 0.960 . S
C3368 H3355 0.961 . S
C3368 H3356 0.959 . S
C3368 C3366 1.561 . S
C3369 C3366 1.526 . S
C3369 C3370 1.396 . S
C3369 C3374 1.390 . S
C3370 C3364 1.465 . S
C3370 C3369 1.396 . S
C3370 C3371 1.399 . S
C3371 H3357 0.929 . S
C3371 C3370 1.399 . S
C3371 C3372 1.385 . S
C3372 H3358 0.931 . S
C3372 C3371 1.385 . S
C3372 C3373 1.389 . S
C3373 C3372 1.389 . S
C3373 C3374 1.387 . S
C3374 H3359 0.930 . S
C3374 C3369 1.390 . S
C3374 C3373 1.387 . S
H3375 C3387 0.930 . S
H3376 C3389 0.930 . S
H3377 C3390 0.930 . S
H3378 C3394 0.959 . S
H3379 C3394 0.959 . S
H3380 C3394 0.961 . S
H3381 C3395 0.960 . S
H3382 C3395 0.961 . S
H3383 C3395 0.959 . S
H3384 C3398 0.929 . S
H3385 C3399 0.931 . S
H3386 C3401 0.930 . S
C3387 H3375 0.930 . S
C3387 C3388 1.399 . S
C3387 C3392 1.399 . S
C3388 C3387 1.399 . S
C3388 C3389 1.376 . S
C3389 H3376 0.930 . S
C3389 C3388 1.376 . S
C3389 C3390 1.388 . S
C3390 H3377 0.930 . S
C3390 C3389 1.388 . S
C3390 C3391 1.390 . S
C3391 C3390 1.390 . S
C3391 C3392 1.394 . S
C3391 C3397 1.465 . S
C3392 C3387 1.399 . S
C3392 C3391 1.394 . S
C3392 C3393 1.516 . S
C3393 C3392 1.516 . S
C3393 C3394 1.502 . S
C3393 C3395 1.561 . S
C3393 C3396 1.526 . S
C3394 H3378 0.959 . S
C3394 H3379 0.959 . S
C3394 H3380 0.961 . S
C3394 C3393 1.502 . S
C3395 H3381 0.960 . S
C3395 H3382 0.961 . S
C3395 H3383 0.959 . S
C3395 C3393 1.561 . S
C3396 C3393 1.526 . S
C3396 C3397 1.396 . S
C3396 C3401 1.390 . S
C3397 C3391 1.465 . S
C3397 C3396 1.396 . S
C3397 C3398 1.399 . S
C3398 H3384 0.929 . S
C3398 C3397 1.399 . S
C3398 C3399 1.385 . S
C3399 H3385 0.931 . S
C3399 C3398 1.385 . S
C3399 C3400 1.389 . S
C3400 C3399 1.389 . S
C3400 C3401 1.387 . S
C3401 H3386 0.930 . S
C3401 C3396 1.390 . S
C3401 C3400 1.387 . S
H3402 C3414 0.930 . S
H3403 C3416 0.930 . S
H3404 C3417 0.930 . S
H3405 C3421 0.959 . S
H3406 C3421 0.959 . S
H3407 C3421 0.961 . S
H3408 C3422 0.960 . S
H3409 C3422 0.961 . S
H3410 C3422 0.959 . S
H3411 C3425 0.929 . S
H3412 C3426 0.931 . S
H3413 C3428 0.930 . S
C3414 H3402 0.930 . S
C3414 C3415 1.399 . S
C3414 C3419 1.399 . S
C3415 C3414 1.399 . S
C3415 C3416 1.376 . S
C3416 H3403 0.930 . S
C3416 C3415 1.376 . S
C3416 C3417 1.388 . S
C3417 H3404 0.930 . S
C3417 C3416 1.388 . S
C3417 C3418 1.390 . S
C3418 C3417 1.390 . S
C3418 C3419 1.394 . S
C3418 C3424 1.465 . S
C3419 C3414 1.399 . S
C3419 C3418 1.394 . S
C3419 C3420 1.516 . S
C3420 C3419 1.516 . S
C3420 C3421 1.502 . S
C3420 C3422 1.561 . S
C3420 C3423 1.526 . S
C3421 H3405 0.959 . S
C3421 H3406 0.959 . S
C3421 H3407 0.961 . S
C3421 C3420 1.502 . S
C3422 H3408 0.960 . S
C3422 H3409 0.961 . S
C3422 H3410 0.959 . S
C3422 C3420 1.561 . S
C3423 C3420 1.526 . S
C3423 C3424 1.396 . S
C3423 C3428 1.390 . S
C3424 C3418 1.465 . S
C3424 C3423 1.396 . S
C3424 C3425 1.399 . S
C3425 H3411 0.929 . S
C3425 C3424 1.399 . S
C3425 C3426 1.385 . S
C3426 H3412 0.931 . S
C3426 C3425 1.385 . S
C3426 C3427 1.389 . S
C3427 C3426 1.389 . S
C3427 C3428 1.387 . S
C3428 H3413 0.930 . S
C3428 C3423 1.390 . S
C3428 C3427 1.387 . S
H3429 C3441 0.930 . S
H3430 C3443 0.930 . S
H3431 C3444 0.930 . S
H3432 C3448 0.959 . S
H3433 C3448 0.959 . S
H3434 C3448 0.961 . S
H3435 C3449 0.960 . S
H3436 C3449 0.961 . S
H3437 C3449 0.959 . S
H3438 C3452 0.929 . S
H3439 C3453 0.931 . S
H3440 C3455 0.930 . S
C3441 H3429 0.930 . S
C3441 C3442 1.399 . S
C3441 C3446 1.399 . S
C3442 C3441 1.399 . S
C3442 C3443 1.376 . S
C3443 H3430 0.930 . S
C3443 C3442 1.376 . S
C3443 C3444 1.388 . S
C3444 H3431 0.930 . S
C3444 C3443 1.388 . S
C3444 C3445 1.390 . S
C3445 C3444 1.390 . S
C3445 C3446 1.394 . S
C3445 C3451 1.465 . S
C3446 C3441 1.399 . S
C3446 C3445 1.394 . S
C3446 C3447 1.516 . S
C3447 C3446 1.516 . S
C3447 C3448 1.502 . S
C3447 C3449 1.561 . S
C3447 C3450 1.526 . S
C3448 H3432 0.959 . S
C3448 H3433 0.959 . S
C3448 H3434 0.961 . S
C3448 C3447 1.502 . S
C3449 H3435 0.960 . S
C3449 H3436 0.961 . S
C3449 H3437 0.959 . S
C3449 C3447 1.561 . S
C3450 C3447 1.526 . S
C3450 C3451 1.396 . S
C3450 C3455 1.390 . S
C3451 C3445 1.465 . S
C3451 C3450 1.396 . S
C3451 C3452 1.399 . S
C3452 H3438 0.929 . S
C3452 C3451 1.399 . S
C3452 C3453 1.385 . S
C3453 H3439 0.931 . S
C3453 C3452 1.385 . S
C3453 C3454 1.389 . S
C3454 C3453 1.389 . S
C3454 C3455 1.387 . S
C3455 H3440 0.930 . S
C3455 C3450 1.390 . S
C3455 C3454 1.387 . S
H3456 C3468 0.930 . S
H3457 C3470 0.930 . S
H3458 C3471 0.930 . S
H3459 C3475 0.959 . S
H3460 C3475 0.959 . S
H3461 C3475 0.961 . S
H3462 C3476 0.960 . S
H3463 C3476 0.961 . S
H3464 C3476 0.959 . S
H3465 C3479 0.929 . S
H3466 C3480 0.931 . S
H3467 C3482 0.930 . S
C3468 H3456 0.930 . S
C3468 C3469 1.399 . S
C3468 C3473 1.399 . S
C3469 C3468 1.399 . S
C3469 C3470 1.376 . S
C3470 H3457 0.930 . S
C3470 C3469 1.376 . S
C3470 C3471 1.388 . S
C3471 H3458 0.930 . S
C3471 C3470 1.388 . S
C3471 C3472 1.390 . S
C3472 C3471 1.390 . S
C3472 C3473 1.394 . S
C3472 C3478 1.465 . S
C3473 C3468 1.399 . S
C3473 C3472 1.394 . S
C3473 C3474 1.516 . S
C3474 C3473 1.516 . S
C3474 C3475 1.502 . S
C3474 C3476 1.561 . S
C3474 C3477 1.526 . S
C3475 H3459 0.959 . S
C3475 H3460 0.959 . S
C3475 H3461 0.961 . S
C3475 C3474 1.502 . S
C3476 H3462 0.960 . S
C3476 H3463 0.961 . S
C3476 H3464 0.959 . S
C3476 C3474 1.561 . S
C3477 C3474 1.526 . S
C3477 C3478 1.396 . S
C3477 C3482 1.390 . S
C3478 C3472 1.465 . S
C3478 C3477 1.396 . S
C3478 C3479 1.399 . S
C3479 H3465 0.929 . S
C3479 C3478 1.399 . S
C3479 C3480 1.385 . S
C3480 H3466 0.931 . S
C3480 C3479 1.385 . S
C3480 C3481 1.389 . S
C3481 C3480 1.389 . S
C3481 C3482 1.387 . S
C3482 H3467 0.930 . S
C3482 C3477 1.390 . S
C3482 C3481 1.387 . S
H3483 C3495 0.930 . S
H3484 C3497 0.930 . S
H3485 C3498 0.930 . S
H3486 C3502 0.959 . S
H3487 C3502 0.959 . S
H3488 C3502 0.961 . S
H3489 C3503 0.960 . S
H3490 C3503 0.961 . S
H3491 C3503 0.959 . S
H3492 C3506 0.929 . S
H3493 C3507 0.931 . S
H3494 C3509 0.930 . S
C3495 H3483 0.930 . S
C3495 C3496 1.399 . S
C3495 C3500 1.399 . S
C3496 C3495 1.399 . S
C3496 C3497 1.376 . S
C3497 H3484 0.930 . S
C3497 C3496 1.376 . S
C3497 C3498 1.388 . S
C3498 H3485 0.930 . S
C3498 C3497 1.388 . S
C3498 C3499 1.390 . S
C3499 C3498 1.390 . S
C3499 C3500 1.394 . S
C3499 C3505 1.465 . S
C3500 C3495 1.399 . S
C3500 C3499 1.394 . S
C3500 C3501 1.516 . S
C3501 C3500 1.516 . S
C3501 C3502 1.502 . S
C3501 C3503 1.561 . S
C3501 C3504 1.526 . S
C3502 H3486 0.959 . S
C3502 H3487 0.959 . S
C3502 H3488 0.961 . S
C3502 C3501 1.502 . S
C3503 H3489 0.960 . S
C3503 H3490 0.961 . S
C3503 H3491 0.959 . S
C3503 C3501 1.561 . S
C3504 C3501 1.526 . S
C3504 C3505 1.396 . S
C3504 C3509 1.390 . S
C3505 C3499 1.465 . S
C3505 C3504 1.396 . S
C3505 C3506 1.399 . S
C3506 H3492 0.929 . S
C3506 C3505 1.399 . S
C3506 C3507 1.385 . S
C3507 H3493 0.931 . S
C3507 C3506 1.385 . S
C3507 C3508 1.389 . S
C3508 C3507 1.389 . S
C3508 C3509 1.387 . S
C3509 H3494 0.930 . S
C3509 C3504 1.390 . S
C3509 C3508 1.387 . S
H3510 C3522 0.930 . S
H3511 C3524 0.930 . S
H3512 C3525 0.930 . S
H3513 C3529 0.959 . S
H3514 C3529 0.959 . S
H3515 C3529 0.961 . S
H3516 C3530 0.960 . S
H3517 C3530 0.961 . S
H3518 C3530 0.959 . S
H3519 C3533 0.929 . S
H3520 C3534 0.931 . S
H3521 C3536 0.930 . S
C3522 H3510 0.930 . S
C3522 C3523 1.399 . S
C3522 C3527 1.399 . S
C3523 C3522 1.399 . S
C3523 C3524 1.376 . S
C3524 H3511 0.930 . S
C3524 C3523 1.376 . S
C3524 C3525 1.388 . S
C3525 H3512 0.930 . S
C3525 C3524 1.388 . S
C3525 C3526 1.390 . S
C3526 C3525 1.390 . S
C3526 C3527 1.394 . S
C3526 C3532 1.465 . S
C3527 C3522 1.399 . S
C3527 C3526 1.394 . S
C3527 C3528 1.516 . S
C3528 C3527 1.516 . S
C3528 C3529 1.502 . S
C3528 C3530 1.561 . S
C3528 C3531 1.526 . S
C3529 H3513 0.959 . S
C3529 H3514 0.959 . S
C3529 H3515 0.961 . S
C3529 C3528 1.502 . S
C3530 H3516 0.960 . S
C3530 H3517 0.961 . S
C3530 H3518 0.959 . S
C3530 C3528 1.561 . S
C3531 C3528 1.526 . S
C3531 C3532 1.396 . S
C3531 C3536 1.390 . S
C3532 C3526 1.465 . S
C3532 C3531 1.396 . S
C3532 C3533 1.399 . S
C3533 H3519 0.929 . S
C3533 C3532 1.399 . S
C3533 C3534 1.385 . S
C3534 H3520 0.931 . S
C3534 C3533 1.385 . S
C3534 C3535 1.389 . S
C3535 C3534 1.389 . S
C3535 C3536 1.387 . S
C3536 H3521 0.930 . S
C3536 C3531 1.390 . S
C3536 C3535 1.387 . S
H3537 C3549 0.930 . S
H3538 C3551 0.930 . S
H3539 C3552 0.930 . S
H3540 C3556 0.959 . S
H3541 C3556 0.959 . S
H3542 C3556 0.961 . S
H3543 C3557 0.960 . S
H3544 C3557 0.961 . S
H3545 C3557 0.959 . S
H3546 C3560 0.929 . S
H3547 C3561 0.931 . S
H3548 C3563 0.930 . S
C3549 H3537 0.930 . S
C3549 C3550 1.399 . S
C3549 C3554 1.399 . S
C3550 C3549 1.399 . S
C3550 C3551 1.376 . S
C3551 H3538 0.930 . S
C3551 C3550 1.376 . S
C3551 C3552 1.388 . S
C3552 H3539 0.930 . S
C3552 C3551 1.388 . S
C3552 C3553 1.390 . S
C3553 C3552 1.390 . S
C3553 C3554 1.394 . S
C3553 C3559 1.465 . S
C3554 C3549 1.399 . S
C3554 C3553 1.394 . S
C3554 C3555 1.516 . S
C3555 C3554 1.516 . S
C3555 C3556 1.502 . S
C3555 C3557 1.561 . S
C3555 C3558 1.526 . S
C3556 H3540 0.959 . S
C3556 H3541 0.959 . S
C3556 H3542 0.961 . S
C3556 C3555 1.502 . S
C3557 H3543 0.960 . S
C3557 H3544 0.961 . S
C3557 H3545 0.959 . S
C3557 C3555 1.561 . S
C3558 C3555 1.526 . S
C3558 C3559 1.396 . S
C3558 C3563 1.390 . S
C3559 C3553 1.465 . S
C3559 C3558 1.396 . S
C3559 C3560 1.399 . S
C3560 H3546 0.929 . S
C3560 C3559 1.399 . S
C3560 C3561 1.385 . S
C3561 H3547 0.931 . S
C3561 C3560 1.385 . S
C3561 C3562 1.389 . S
C3562 C3561 1.389 . S
C3562 C3563 1.387 . S
C3563 H3548 0.930 . S
C3563 C3558 1.390 . S
C3563 C3562 1.387 . S
H3564 C3576 0.930 . S
H3565 C3578 0.930 . S
H3566 C3579 0.930 . S
H3567 C3583 0.959 . S
H3568 C3583 0.959 . S
H3569 C3583 0.961 . S
H3570 C3584 0.960 . S
H3571 C3584 0.961 . S
H3572 C3584 0.959 . S
H3573 C3587 0.929 . S
H3574 C3588 0.931 . S
H3575 C3590 0.930 . S
C3576 H3564 0.930 . S
C3576 C3577 1.399 . S
C3576 C3581 1.399 . S
C3577 C3576 1.399 . S
C3577 C3578 1.376 . S
C3578 H3565 0.930 . S
C3578 C3577 1.376 . S
C3578 C3579 1.388 . S
C3579 H3566 0.930 . S
C3579 C3578 1.388 . S
C3579 C3580 1.390 . S
C3580 C3579 1.390 . S
C3580 C3581 1.394 . S
C3580 C3586 1.465 . S
C3581 C3576 1.399 . S
C3581 C3580 1.394 . S
C3581 C3582 1.516 . S
C3582 C3581 1.516 . S
C3582 C3583 1.502 . S
C3582 C3584 1.561 . S
C3582 C3585 1.526 . S
C3583 H3567 0.959 . S
C3583 H3568 0.959 . S
C3583 H3569 0.961 . S
C3583 C3582 1.502 . S
C3584 H3570 0.960 . S
C3584 H3571 0.961 . S
C3584 H3572 0.959 . S
C3584 C3582 1.561 . S
C3585 C3582 1.526 . S
C3585 C3586 1.396 . S
C3585 C3590 1.390 . S
C3586 C3580 1.465 . S
C3586 C3585 1.396 . S
C3586 C3587 1.399 . S
C3587 H3573 0.929 . S
C3587 C3586 1.399 . S
C3587 C3588 1.385 . S
C3588 H3574 0.931 . S
C3588 C3587 1.385 . S
C3588 C3589 1.389 . S
C3589 C3588 1.389 . S
C3589 C3590 1.387 . S
C3590 H3575 0.930 . S
C3590 C3585 1.390 . S
C3590 C3589 1.387 . S
H3591 C3603 0.930 . S
H3592 C3605 0.930 . S
H3593 C3606 0.930 . S
H3594 C3610 0.959 . S
H3595 C3610 0.959 . S
H3596 C3610 0.961 . S
H3597 C3611 0.960 . S
H3598 C3611 0.961 . S
H3599 C3611 0.959 . S
H3600 C3614 0.929 . S
H3601 C3615 0.931 . S
H3602 C3617 0.930 . S
C3603 H3591 0.930 . S
C3603 C3604 1.399 . S
C3603 C3608 1.399 . S
C3604 C3603 1.399 . S
C3604 C3605 1.376 . S
C3605 H3592 0.930 . S
C3605 C3604 1.376 . S
C3605 C3606 1.388 . S
C3606 H3593 0.930 . S
C3606 C3605 1.388 . S
C3606 C3607 1.390 . S
C3607 C3606 1.390 . S
C3607 C3608 1.394 . S
C3607 C3613 1.465 . S
C3608 C3603 1.399 . S
C3608 C3607 1.394 . S
C3608 C3609 1.516 . S
C3609 C3608 1.516 . S
C3609 C3610 1.502 . S
C3609 C3611 1.561 . S
C3609 C3612 1.526 . S
C3610 H3594 0.959 . S
C3610 H3595 0.959 . S
C3610 H3596 0.961 . S
C3610 C3609 1.502 . S
C3611 H3597 0.960 . S
C3611 H3598 0.961 . S
C3611 H3599 0.959 . S
C3611 C3609 1.561 . S
C3612 C3609 1.526 . S
C3612 C3613 1.396 . S
C3612 C3617 1.390 . S
C3613 C3607 1.465 . S
C3613 C3612 1.396 . S
C3613 C3614 1.399 . S
C3614 H3600 0.929 . S
C3614 C3613 1.399 . S
C3614 C3615 1.385 . S
C3615 H3601 0.931 . S
C3615 C3614 1.385 . S
C3615 C3616 1.389 . S
C3616 C3615 1.389 . S
C3616 C3617 1.387 . S
C3617 H3602 0.930 . S
C3617 C3612 1.390 . S
C3617 C3616 1.387 . S
C1201 C535 1.327 . S
C1213 C7 1.289 . S
C1228 C40 1.279 . S
C1240 C568 1.319 . S
C1255 C502 1.284 . S
C1267 C73 1.327 . S
C1282 C106 1.299 . S
C1294 C865 1.290 . S
C1309 C799 1.293 . S
C1321 C139 1.296 . S
C1336 C172 1.290 . S
C1348 C832 1.299 . S
C1363 C205 1.322 . S
C1375 C1129 1.283 . S
C1390 C238 1.294 . S
C1402 C1162 1.317 . S
C1417 C271 1.326 . S
C1429 C1096 1.282 . S
C1444 C304 1.325 . S
C1456 C667 1.285 . S
C1471 C337 1.311 . S
C1483 C601 1.301 . S
C1498 C370 1.294 . S
C1510 C634 1.317 . S
C1525 C403 1.288 . S
C1537 C931 1.301 . S
C1552 C964 1.322 . S
C1564 C436 1.302 . S
C1579 C898 1.304 . S
C1591 C469 1.320 . S
C1606 C1063 1.302 . S
C1618 C700 1.309 . S
C1633 C997 1.322 . S
C1645 C733 1.289 . S
C1660 C766 1.282 . S
C1672 C1030 1.326 . S
C1687 N970 1.555 . S
C1699 N13 1.501 . S
C1714 N46 1.509 . S
C1726 N904 1.570 . S
C1741 N79 1.565 . S
C1753 N937 1.497 . S
C1768 N112 1.516 . S
C1780 N442 1.534 . S
C1795 N145 1.509 . S
C1807 N475 1.574 . S
C1822 N409 1.508 1_455 S
C1834 N178 1.568 . S
C1849 N772 1.508 . S
C1861 N211 1.563 . S
C1876 N244 1.569 . S
C1888 N706 1.499 . S
C1903 N277 1.496 . S
C1915 N739 1.583 . S
C1930 N1036 1.522 . S
C1942 N310 1.550 . S
C1957 N1069 1.500 . S
C1969 N343 1.569 . S
C1984 N1003 1.560 1_655 S
C1996 N376 1.504 . S
C2011 N508 1.540 . S
C2023 N838 1.511 . S
C2038 N541 1.572 . S
C2050 N871 1.505 . S
C2065 N574 1.509 . S
C2077 N805 1.570 . S
C2092 N607 1.527 . S
C2104 N1168 1.545 . S
C2119 N1102 1.559 . S
C2131 N640 1.508 . S
C2146 N673 1.569 . S
C2158 N1135 1.499 . S
C2173 C18 1.906 . S
C2185 C612 1.925 . S
C2200 C51 1.907 . S
C2212 C645 1.929 . S
C2227 C678 1.923 . S
C2239 C84 1.915 . S
C2254 C117 1.912 . S
C2266 C1107 1.925 . S
C2281 C150 1.917 . S
C2293 C1140 1.914 . S
C2308 C183 1.908 . S
C2320 C1173 1.928 . S
C2335 C810 1.929 . S
C2347 C216 1.907 . S
C2362 C249 1.905 . S
C2374 C843 1.928 . S
C2389 C876 1.926 . S
C2401 C282 1.906 . S
C2416 C513 1.926 . S
C2428 C315 1.906 . S
C2443 C546 1.905 . S
C2455 C348 1.928 . S
C2470 C381 1.911 . S
C2482 C579 1.919 . S
C2497 C1008 1.917 . S
C2509 C414 1.921 . S
C2524 C1041 1.905 . S
C2536 C447 1.929 . S
C2551 C480 1.905 . S
C2563 C1074 1.929 . S
C2578 C909 1.905 . S
C2590 C711 1.929 . S
C2605 C744 1.905 . S
C2617 C942 1.929 . S
C2632 C975 1.910 . S
C2644 C777 1.921 . S
C2659 N2 0.996 . S
C2671 C252 1.037 . S
C2686 N35 1.031 . S
C2698 C285 1.067 . S
C2713 C219 1.005 . S
C2725 N68 1.063 . S
C2740 C384 1.064 . S
C2752 N101 1.024 . S
C2767 C318 0.972 . S
C2779 N134 0.993 . S
C2794 C351 0.999 . S
C2806 N167 1.060 . S
C2821 C54 0.962 . S
C2833 N200 0.989 . S
C2848 C87 0.963 . S
C2860 N233 1.001 . S
C2875 C21 0.991 . S
C2887 N266 0.991 . S
C2902 N299 1.007 . S
C2914 C186 0.967 . S
C2929 N332 0.985 . S
C2941 C120 0.969 . S
C2956 C153 1.069 . S
C2968 N365 1.066 . S
C2983 C648 0.990 . S
C2995 N398 1.055 . S
C3010 N431 1.027 . S
C3022 C681 1.065 . S
C3037 C615 1.062 . S
C3049 N464 1.019 . S
C3064 C780 1.047 . S
C3076 N497 1.004 . S
C3091 N530 1.024 . S
C3103 C714 0.964 . S
C3118 N563 1.069 . S
C3130 C747 1.028 . S
C3145 N596 1.009 . S
C3157 C450 1.025 . S
C3172 N629 0.998 . S
C3184 C483 1.009 . S
C3199 N662 1.059 . S
C3211 C417 1.028 . S
C3226 N695 1.018 . S
C3238 C582 0.976 . S
C3253 C516 0.965 . S
C3265 N728 1.005 . S
C3280 C549 1.057 . S
C3292 N761 1.069 . S
C3307 C1044 1.048 . S
C3319 N794 1.004 . S
C3334 C1077 0.974 . S
C3346 N827 0.992 . S
C3361 C1011 1.029 . S
C3373 N860 1.069 . S
C3388 C1176 0.972 . S
C3400 N893 1.040 . S
C3415 N926 1.042 . S
C3427 C1110 0.975 . S
C3442 C1143 1.038 . S
C3454 N959 0.998 . S
C3469 C846 1.069 . S
C3481 N992 1.064 . S
C3496 C879 0.962 . S
C3508 N1025 0.990 . S
C3523 C813 0.971 . S
C3535 N1058 0.986 . S
C3550 N1091 0.985 . S
C3562 C978 0.967 . S
C3577 N1124 1.057 . S
C3589 C912 1.068 . S
C3604 C945 0.961 . S
C3616 N1157 0.993 . S
