# Generated by pormake.
# Topology crb, (4)-cn, num edge types: 1
# Building blocks:
#     Node 0, Type 0, BuildingBlock: CEKHIL_clean_sbu_0, # of connection points: 4
#     Node 1, Type 0, BuildingBlock: CEKHIL_clean_sbu_0, # of connection points: 4
#     Node 2, Type 0, BuildingBlock: CEKHIL_clean_sbu_0, # of connection points: 4
#     Node 3, Type 0, BuildingBlock: CEKHIL_clean_sbu_0, # of connection points: 4
#     Node 4, Type 0, BuildingBlock: CEKHIL_clean_sbu_0, # of connection points: 4
#     Node 5, Type 0, BuildingBlock: CEKHIL_clean_sbu_0, # of connection points: 4
#     Node 6, Type 0, BuildingBlock: CEKHIL_clean_sbu_0, # of connection points: 4
#     Node 7, Type 0, BuildingBlock: CEKHIL_clean_sbu_0, # of connection points: 4
#     Edge 8, Type (0, 0), BuildingBlock: XUDNAN_clean_linker_2, # of connection points: 2
#     Edge 9, Type (0, 0), BuildingBlock: XUDNAN_clean_linker_2, # of connection points: 2
#     Edge 10, Type (0, 0), BuildingBlock: XUDNAN_clean_linker_2, # of connection points: 2
#     Edge 11, Type (0, 0), BuildingBlock: XUDNAN_clean_linker_2, # of connection points: 2
#     Edge 12, Type (0, 0), BuildingBlock: XUDNAN_clean_linker_2, # of connection points: 2
#     Edge 13, Type (0, 0), BuildingBlock: XUDNAN_clean_linker_2, # of connection points: 2
#     Edge 14, Type (0, 0), BuildingBlock: XUDNAN_clean_linker_2, # of connection points: 2
#     Edge 15, Type (0, 0), BuildingBlock: XUDNAN_clean_linker_2, # of connection points: 2
#     Edge 16, Type (0, 0), BuildingBlock: XUDNAN_clean_linker_2, # of connection points: 2
#     Edge 17, Type (0, 0), BuildingBlock: XUDNAN_clean_linker_2, # of connection points: 2
#     Edge 18, Type (0, 0), BuildingBlock: XUDNAN_clean_linker_2, # of connection points: 2
#     Edge 19, Type (0, 0), BuildingBlock: XUDNAN_clean_linker_2, # of connection points: 2
#     Edge 20, Type (0, 0), BuildingBlock: XUDNAN_clean_linker_2, # of connection points: 2
#     Edge 21, Type (0, 0), BuildingBlock: XUDNAN_clean_linker_2, # of connection points: 2
#     Edge 22, Type (0, 0), BuildingBlock: XUDNAN_clean_linker_2, # of connection points: 2
#     Edge 23, Type (0, 0), BuildingBlock: XUDNAN_clean_linker_2, # of connection points: 2
# Relax obj value: 0.118
# Max RMSD: 0.159
# Mean RMSD: 0.159
data_MOF--net-crb--node1-CEKHIL_clean_sbu_0--edge1-XUDNAN_clean_linker_2
_symmetry_space_group_name_H-M    P1
_symmetry_Int_Tables_number       1
_symmetry_cell_setting            triclinic
loop_
_symmetry_equiv_pos_as_xyz
'x, y, z'
_cell_length_a     43.806675
_cell_length_b     42.652098
_cell_length_c     22.904124
_cell_angle_alpha  90.166213
_cell_angle_beta   90.12397
_cell_angle_gamma 90.056472
loop_
_atom_site_label
_atom_site_type_symbol
_atom_site_fract_x
_atom_site_fract_y
_atom_site_fract_z
_atom_type_partial_charge
Co0 Co 0.33434 0.33321 0.04976 0.0
O1 O 0.29694 0.32774 0.09437 0.0
O2 O 0.33932 0.30037 0.10663 0.0
C3 C 0.33657 0.38598 0.05598 0.0
O4 O 0.37797 0.33225 0.01842 0.0
Co5 Co 0.33941 0.3697 0.93358 0.0
O6 O 0.38412 0.36542 0.94335 0.0
C7 C 0.31262 0.30605 0.93314 0.0
C8 C 0.31167 0.30639 0.12347 0.0
C9 C 0.39487 0.3466 0.98114 0.0
O10 O 0.31891 0.3026 0.98791 0.0
O11 O 0.31769 0.33137 0.90496 0.0
O12 O 0.34622 0.3687 0.09883 0.0
O13 O 0.32389 0.37124 0.01297 0.0
Co14 Co 0.68256 0.33914 0.02072 0.0
O15 O 0.72394 0.33941 0.99018 0.0
O16 O 0.68793 0.30561 0.96487 0.0
C17 C 0.67448 0.39129 0.0121 0.0
O18 O 0.63706 0.33201 0.03452 0.0
Co19 Co 0.66063 0.37255 0.13182 0.0
O20 O 0.61881 0.36577 0.10097 0.0
C21 C 0.69658 0.31451 0.14329 0.0
C22 C 0.71555 0.31583 0.9577 0.0
C23 C 0.61471 0.34555 0.06077 0.0
O24 O 0.6954 0.31071 0.0874 0.0
O25 O 0.68534 0.33845 0.16926 0.0
O26 O 0.67181 0.37268 0.9673 0.0
O27 O 0.68386 0.37832 0.05993 0.0
Co28 Co 0.67667 0.67463 0.04043 0.0
O29 O 0.71654 0.67754 0.07852 0.0
O30 O 0.6752 0.70359 0.10498 0.0
C31 C 0.67488 0.6214 0.03449 0.0
O32 O 0.63152 0.67799 0.01899 0.0
Co33 Co 0.66228 0.64494 0.91991 0.0
O34 O 0.61924 0.64422 0.94751 0.0
C35 C 0.69472 0.7059 0.92689 0.0
C36 C 0.70346 0.69657 0.11532 0.0
C37 C 0.6117 0.66299 0.98824 0.0
O38 O 0.68845 0.70868 0.98191 0.0
O39 O 0.68862 0.68129 0.89693 0.0
O40 O 0.66827 0.63549 0.08326 0.0
O41 O 0.68395 0.63945 0.99296 0.0
Co42 Co 0.32696 0.66667 0.02664 0.0
O43 O 0.28709 0.66636 0.98971 0.0
O44 O 0.32412 0.6998 0.96945 0.0
C45 C 0.33469 0.61446 0.01921 0.0
O46 O 0.37152 0.67375 0.04968 0.0
Co47 Co 0.34303 0.63155 0.14047 0.0
O48 O 0.3859 0.63681 0.1136 0.0
C49 C 0.30668 0.69006 0.14645 0.0
C50 C 0.2969 0.68941 0.9578 0.0
C51 C 0.39226 0.65834 0.07722 0.0
O52 O 0.31174 0.69533 0.0917 0.0
O53 O 0.31522 0.66492 0.1722 0.0
O54 O 0.33999 0.63255 0.97486 0.0
O55 O 0.32338 0.62786 0.06483 0.0
Co56 Co 0.82795 0.83797 0.54088 0.0
O57 O 0.78614 0.83881 0.57048 0.0
O58 O 0.82357 0.80998 0.60621 0.0
C59 C 0.83371 0.89056 0.53165 0.0
O60 O 0.87389 0.83141 0.53082 0.0
Co61 Co 0.85146 0.86213 0.42223 0.0
O62 O 0.8931 0.85816 0.45531 0.0
C63 C 0.8158 0.80326 0.42627 0.0
C64 C 0.79539 0.81891 0.6098 0.0
C65 C 0.89668 0.84191 0.50129 0.0
O66 O 0.8167 0.80341 0.48279 0.0
O67 O 0.82687 0.82534 0.39507 0.0
O68 O 0.83645 0.87741 0.5826 0.0
O69 O 0.82597 0.87213 0.48936 0.0
Co70 Co 0.17854 0.83595 0.52799 0.0
O71 O 0.21789 0.83469 0.4893 0.0
O72 O 0.17822 0.80504 0.46584 0.0
C73 C 0.174 0.88886 0.53141 0.0
O74 O 0.1338 0.83182 0.55256 0.0
Co75 Co 0.16918 0.8662 0.65055 0.0
O76 O 0.12518 0.85806 0.63634 0.0
C77 C 0.20255 0.80692 0.64 0.0
C78 C 0.20617 0.81338 0.45531 0.0
C79 C 0.1158 0.84214 0.59268 0.0
O80 O 0.19245 0.80321 0.58733 0.0
O81 O 0.19891 0.83219 0.66929 0.0
O82 O 0.16771 0.87386 0.48331 0.0
O83 O 0.18528 0.87203 0.57273 0.0
Co84 Co 0.17977 0.1703 0.54915 0.0
O85 O 0.21834 0.17153 0.59136 0.0
O86 O 0.17946 0.20371 0.60591 0.0
C87 C 0.17263 0.11804 0.55739 0.0
O88 O 0.13597 0.17636 0.52048 0.0
Co89 Co 0.16626 0.13463 0.43543 0.0
O90 O 0.12348 0.13544 0.4641 0.0
C91 C 0.20064 0.19447 0.43051 0.0
C92 C 0.20643 0.19434 0.62142 0.0
C93 C 0.11594 0.1582 0.49695 0.0
O94 O 0.19716 0.19838 0.48601 0.0
O95 O 0.19071 0.17044 0.40267 0.0
O96 O 0.16571 0.1369 0.59997 0.0
O97 O 0.1851 0.13093 0.51221 0.0
Co98 Co 0.83076 0.1731 0.52147 0.0
O99 O 0.79119 0.17873 0.48406 0.0
O100 O 0.83213 0.20783 0.46795 0.0
C101 C 0.83359 0.12053 0.50767 0.0
O102 O 0.87551 0.17477 0.54554 0.0
Co103 Co 0.84346 0.13249 0.63034 0.0
O104 O 0.88682 0.13451 0.60438 0.0
C105 C 0.81288 0.19423 0.64351 0.0
C106 C 0.80408 0.20115 0.45462 0.0
C107 C 0.89494 0.15697 0.57135 0.0
O108 O 0.81843 0.20095 0.58959 0.0
O109 O 0.81885 0.16745 0.66604 0.0
O110 O 0.84041 0.1398 0.46587 0.0
O111 O 0.82335 0.13336 0.5549 0.0
H112 H 0.29812 0.43147 0.01701 0.0
H113 H 0.38858 0.41663 0.08861 0.0
H114 H 0.39947 0.47349 0.07963 0.0
H115 H 0.31621 0.49304 0.91536 0.0
H116 H 0.28194 0.51507 0.92986 0.0
H117 H 0.28201 0.47309 0.93839 0.0
H118 H 0.26354 0.47911 0.04526 0.0
H119 H 0.26312 0.52106 0.03685 0.0
H120 H 0.2849 0.50354 0.09507 0.0
H121 H 0.40071 0.5319 0.05983 0.0
H122 H 0.38973 0.58824 0.04477 0.0
H123 H 0.29679 0.56552 0.99574 0.0
C124 C 0.32024 0.44029 0.03053 0.0
C125 C 0.34266 0.4199 0.05309 0.0
C126 C 0.37115 0.43208 0.07139 0.0
C127 C 0.37757 0.46422 0.06603 0.0
C128 C 0.35499 0.48381 0.04338 0.0
C129 C 0.32667 0.47239 0.02706 0.0
C130 C 0.30556 0.49865 0.00833 0.0
C131 C 0.29587 0.49472 0.94417 0.0
C132 C 0.27764 0.50071 0.0488 0.0
C133 C 0.32647 0.52665 0.01624 0.0
C134 C 0.35506 0.51754 0.03549 0.0
C135 C 0.37833 0.53928 0.04528 0.0
C136 C 0.37194 0.57119 0.03667 0.0
C137 C 0.34246 0.58096 0.01952 0.0
C138 C 0.31957 0.55844 0.00859 0.0
H139 H 0.43223 0.34551 0.07689 0.0
H140 H 0.43251 0.33743 0.88822 0.0
H141 H 0.48868 0.33114 0.8896 0.0
H142 H 0.49798 0.39333 0.08479 0.0
H143 H 0.51222 0.3767 0.15179 0.0
H144 H 0.47189 0.37641 0.13671 0.0
H145 H 0.47072 0.31613 0.15028 0.0
H146 H 0.51113 0.31623 0.16532 0.0
H147 H 0.49599 0.29184 0.10772 0.0
H148 H 0.54468 0.32653 0.9114 0.0
H149 H 0.59717 0.33079 0.95007 0.0
H150 H 0.56118 0.34719 0.12383 0.0
C151 C 0.44416 0.34177 0.03608 0.0
C152 C 0.42816 0.34135 0.98247 0.0
C153 C 0.44446 0.3375 0.92969 0.0
C154 C 0.47628 0.33378 0.93013 0.0
C155 C 0.49149 0.33452 0.98367 0.0
C156 C 0.47604 0.33887 0.03564 0.0
C157 C 0.49811 0.34191 0.0865 0.0
C158 C 0.49485 0.374 0.1167 0.0
C159 C 0.49372 0.31492 0.13003 0.0
C160 C 0.52838 0.33909 0.05489 0.0
C161 C 0.52397 0.33402 0.99583 0.0
C162 C 0.54841 0.33049 0.95756 0.0
C163 C 0.57815 0.3328 0.98 0.0
C164 C 0.58324 0.33931 0.03992 0.0
C165 C 0.55796 0.34223 0.07783 0.0
H166 H 0.6787 0.43649 0.09858 0.0
H167 H 0.65818 0.42348 0.91451 0.0
H168 H 0.65264 0.48057 0.9031 0.0
H169 H 0.6258 0.50318 0.12168 0.0
H170 H 0.65141 0.52304 0.17117 0.0
H171 H 0.65168 0.48084 0.1665 0.0
H172 H 0.70957 0.48195 0.14399 0.0
H173 H 0.70947 0.5241 0.14839 0.0
H174 H 0.72328 0.50487 0.08343 0.0
H175 H 0.65462 0.53824 0.90831 0.0
H176 H 0.66098 0.59406 0.9306 0.0
H177 H 0.67744 0.57199 0.11282 0.0
C178 C 0.67261 0.44567 0.0561 0.0
C179 C 0.66888 0.42547 0.00735 0.0
C180 C 0.6611 0.4384 0.95246 0.0
C181 C 0.65788 0.47084 0.94553 0.0
C182 C 0.66217 0.49012 0.99404 0.0
C183 C 0.66905 0.47815 0.04845 0.0
C184 C 0.67346 0.50446 0.09272 0.0
C185 C 0.64913 0.50277 0.14087 0.0
C186 C 0.70587 0.50379 0.11864 0.0
C187 C 0.66875 0.53302 0.0542 0.0
C188 C 0.66225 0.52398 0.9975 0.0
C189 C 0.65911 0.54566 0.95273 0.0
C190 C 0.66285 0.57745 0.96594 0.0
C191 C 0.66925 0.58758 0.02365 0.0
C192 C 0.67188 0.565 0.06857 0.0
H193 H 0.43935 0.6169 0.06406 0.0
H194 H 0.41792 0.7161 0.0617 0.0
H195 H 0.47201 0.72823 0.0396 0.0
H196 H 0.51491 0.62197 0.1259 0.0
H197 H 0.53046 0.59169 0.0797 0.0
H198 H 0.49059 0.59107 0.09871 0.0
H199 H 0.47609 0.58979 0.98903 0.0
H200 H 0.51592 0.59047 0.96966 0.0
H201 H 0.49043 0.61988 0.9412 0.0
H202 H 0.52904 0.7294 0.02251 0.0
H203 H 0.58362 0.71942 1.00122 0.0
H204 H 0.56656 0.61933 1.00322 0.0
C205 C 0.44617 0.64118 0.05946 0.0
C206 C 0.42467 0.66566 0.06548 0.0
C207 C 0.43417 0.69708 0.05767 0.0
C208 C 0.4648 0.70416 0.0452 0.0
C209 C 0.48544 0.67947 0.03929 0.0
C210 C 0.47643 0.64858 0.04526 0.0
C211 C 0.50271 0.62635 0.03335 0.0
C212 C 0.5101 0.60661 0.08766 0.0
C213 C 0.49587 0.60539 0.98014 0.0
C214 C 0.52803 0.64954 0.02039 0.0
C215 C 0.51769 0.68008 0.02494 0.0
C216 C 0.53727 0.7056 0.01802 0.0
C217 C 0.56817 0.69975 1.00605 0.0
C218 C 0.57901 0.66869 0.99971 0.0
C219 C 0.55863 0.64331 1.00668 0.0
H220 H 0.82796 0.94048 0.60803 0.0
H221 H 0.85204 0.91669 0.4297 0.0
H222 H 0.85792 0.97267 0.40661 0.0
H223 H 0.78228 0.0057 0.57138 0.0
H224 H 0.79327 0.02946 0.63316 0.0
H225 H 0.79435 0.98737 0.6384 0.0
H226 H 0.85133 0.98981 0.66852 0.0
H227 H 0.85038 0.03197 0.66366 0.0
H228 H 0.87818 0.01005 0.62246 0.0
H229 H 0.85839 0.03091 0.40041 0.0
H230 H 0.85212 0.08812 0.41117 0.0
H231 H 0.82574 0.07536 0.59214 0.0
C232 C 0.83514 0.94713 0.56457 0.0
C233 C 0.83986 0.92419 0.5208 0.0
C234 C 0.84842 0.93379 0.46399 0.0
C235 C 0.8519 0.96558 0.45043 0.0
C236 C 0.8465 0.98767 0.49401 0.0
C237 C 0.83826 0.97899 0.54995 0.0
C238 C 0.83165 0.00769 0.58722 0.0
C239 C 0.79841 0.00753 0.60879 0.0
C240 C 0.85424 0.01001 0.6385 0.0
C241 C 0.83701 0.03368 0.5432 0.0
C242 C 0.84592 0.02155 0.48994 0.0
C243 C 0.85159 0.04074 0.44201 0.0
C244 C 0.84794 0.07322 0.44852 0.0
C245 C 0.83843 0.08625 0.5024 0.0
C246 C 0.83308 0.06612 0.55039 0.0
H247 H 0.07976 0.84389 0.4944 0.0
H248 H 0.07692 0.82809 0.68121 0.0
H249 H 0.02087 0.82195 0.67618 0.0
H250 H 0.01406 0.89158 0.49012 0.0
H251 H 1.00053 0.87753 0.42041 0.0
H252 H 0.0407 0.87665 0.43699 0.0
H253 H 0.04204 0.81704 0.41514 0.0
H254 H 1.00183 0.81775 0.39832 0.0
H255 H 0.01621 0.79124 0.45298 0.0
H256 H 0.96523 0.8195 0.65192 0.0
H257 H 0.91326 0.82503 0.61185 0.0
H258 H 0.95129 0.84626 0.44152 0.0
C259 C 0.06733 0.8384 0.53389 0.0
C260 C 0.08264 0.83592 0.5881 0.0
C261 C 0.0656 0.82979 0.63925 0.0
C262 C 0.03379 0.82618 0.63677 0.0
C263 C 0.01927 0.82921 0.58288 0.0
C264 C 0.0354 0.83542 0.53238 0.0
C265 C 0.0139 0.84036 0.48114 0.0
C266 C 0.01752 0.8735 0.45569 0.0
C267 C 0.01879 0.81509 0.43411 0.0
C268 C 0.98322 0.8364 0.51093 0.0
C269 C 0.98692 0.82938 0.56937 0.0
C270 C 0.96203 0.82489 0.60617 0.0
C271 C 0.93256 0.82801 0.5829 0.0
C272 C 0.92808 0.83608 0.52349 0.0
C273 C 0.95388 0.84009 0.48709 0.0
H274 H 0.18114 0.07329 0.47181 0.0
H275 H 0.15097 0.08567 0.65085 0.0
H276 H 0.14397 0.02857 0.65988 0.0
H277 H 0.12877 0.00752 0.43665 0.0
H278 H 0.15664 0.98766 0.39215 0.0
H279 H 0.15715 0.02983 0.39779 0.0
H280 H 0.21353 0.02801 0.43188 0.0
H281 H 0.2132 0.98591 0.42643 0.0
H282 H 0.22369 0.00454 0.49431 0.0
H283 H 0.14546 0.97076 0.65372 0.0
H284 H 0.15313 0.91496 0.63158 0.0
H285 H 0.17975 0.9383 0.45469 0.0
C286 C 0.17267 0.06398 0.51262 0.0
C287 C 0.1666 0.08394 0.5607 0.0
C288 C 0.15569 0.07088 0.61343 0.0
C289 C 0.1516 0.03846 0.61896 0.0
C290 C 0.15815 0.0194 0.57114 0.0
C291 C 0.16817 0.03156 0.51876 0.0
C292 C 0.17463 0.00555 0.47503 0.0
C293 C 0.153 0.00778 0.42227 0.0
C294 C 0.20826 0.00604 0.45581 0.0
C295 C 0.16757 0.97685 0.51172 0.0
C296 C 0.15801 0.98557 0.56694 0.0
C297 C 0.15235 0.96361 0.61035 0.0
C298 C 0.15688 0.9319 0.59735 0.0
C299 C 0.16663 0.92225 0.54124 0.0
C300 C 0.17156 0.94502 0.49751 0.0
H301 H 0.94173 0.11447 0.56243 0.0
H302 H 0.92201 0.21407 0.55892 0.0
H303 H 0.97655 0.22536 0.54094 0.0
H304 H 0.01644 0.11907 0.63066 0.0
H305 H 0.03252 0.0884 0.58604 0.0
H306 H 0.99231 0.08828 0.60234 0.0
H307 H 0.9799 0.08658 0.49172 0.0
H308 H 0.02006 0.08682 0.47509 0.0
H309 H 0.99538 0.11632 0.44444 0.0
H310 H 0.03354 0.22584 0.52622 0.0
H311 H 0.08822 0.21525 0.50746 0.0
H312 H 0.07012 0.11531 0.5111 0.0
C313 C 0.94904 0.13865 0.55862 0.0
C314 C 0.9278 0.16346 0.56284 0.0
C315 C 0.93799 0.19476 0.55611 0.0
C316 C 0.9689 0.20139 0.546 0.0
C317 C 0.98926 0.17642 0.54163 0.0
C318 C 0.97973 0.14565 0.54706 0.0
C319 C 0.00599 0.12311 0.53727 0.0
C320 C 0.01217 0.10357 0.59236 0.0
C321 C 0.99996 0.10197 0.48395 0.0
C322 C 0.03176 0.146 0.52574 0.0
C323 C 0.02172 0.17665 0.52931 0.0
C324 C 0.04161 0.20194 0.52273 0.0
C325 C 0.07258 0.19574 0.51217 0.0
C326 C 0.08321 0.16453 0.50704 0.0
C327 C 0.06245 0.13941 0.5137 0.0
H328 H 0.18689 0.22337 0.32685 0.0
H329 H 0.25764 0.21458 0.45827 0.0
H330 H 0.2934 0.24375 0.39481 0.0
H331 H 0.23115 0.21435 0.2029 0.0
H332 H 0.21273 0.24405 0.15949 0.0
H333 H 0.19188 0.22461 0.21653 0.0
H334 H 0.17932 0.27811 0.26447 0.0
H335 H 0.19974 0.29781 0.20698 0.0
H336 H 0.2099 0.30482 0.28219 0.0
H337 H 0.32319 0.26634 0.31125 0.0
H338 H 0.34315 0.28959 0.22038 0.0
H339 H 0.25191 0.28972 0.14655 0.0
C340 C 0.2097 0.22836 0.34269 0.0
C341 C 0.2196 0.21692 0.39746 0.0
C342 C 0.24959 0.22357 0.41682 0.0
C343 C 0.27006 0.23992 0.38089 0.0
C344 C 0.25988 0.25022 0.32646 0.0
C345 C 0.23013 0.2456 0.30816 0.0
C346 C 0.22502 0.25939 0.24781 0.0
C347 C 0.21459 0.23408 0.20412 0.0
C348 C 0.20214 0.28665 0.25054 0.0
C349 C 0.25691 0.27109 0.23385 0.0
C350 C 0.27667 0.26534 0.27977 0.0
C351 C 0.30779 0.27166 0.27563 0.0
C352 C 0.31895 0.28463 0.22366 0.0
C353 C 0.29903 0.29171 0.17675 0.0
C354 C 0.26755 0.28499 0.18212 0.0
H355 H 0.68733 0.30026 0.25894 0.0
H356 H 0.74421 0.2771 0.11007 0.0
H357 H 0.77648 0.24393 0.1734 0.0
H358 H 0.74502 0.3059 0.36409 0.0
H359 H 0.72391 0.28767 0.42232 0.0
H360 H 0.70391 0.30787 0.36495 0.0
H361 H 0.67239 0.25786 0.3425 0.0
H362 H 0.69206 0.23755 0.4003 0.0
H363 H 0.69188 0.22154 0.32738 0.0
H364 H 0.80627 0.21931 0.25487 0.0
H365 H 0.82788 0.19855 0.3467 0.0
H366 H 0.74951 0.23318 0.44218 0.0
C367 C 0.7063 0.28779 0.23949 0.0
C368 C 0.71332 0.29134 0.17949 0.0
C369 C 0.73827 0.27458 0.1557 0.0
C370 C 0.75681 0.2558 0.19143 0.0
C371 C 0.74971 0.25345 0.25062 0.0
C372 C 0.72464 0.26838 0.27429 0.0
C373 C 0.72219 0.26202 0.33937 0.0
C374 C 0.72386 0.2927 0.37475 0.0
C375 C 0.69289 0.24365 0.35319 0.0
C376 C 0.75037 0.24201 0.34904 0.0
C377 C 0.76599 0.23759 0.29719 0.0
C378 C 0.79391 0.22205 0.29542 0.0
C379 C 0.80608 0.21052 0.34777 0.0
C380 C 0.79018 0.21405 0.40107 0.0
C381 C 0.76182 0.22978 0.40171 0.0
H382 H 0.82828 0.78013 0.31745 0.0
H383 H 0.76445 0.77157 0.46096 0.0
H384 H 0.73042 0.73949 0.39822 0.0
H385 H 0.77626 0.79002 0.2074 0.0
H386 H 0.79576 0.7671 0.15279 0.0
H387 H 0.81714 0.78541 0.21073 0.0
H388 H 0.8399 0.73176 0.24033 0.0
H389 H 0.81899 0.71325 0.18174 0.0
H390 H 0.8147 0.69937 0.25553 0.0
H391 H 0.69957 0.71711 0.31494 0.0
H392 H 0.67714 0.69902 0.22174 0.0
H393 H 0.76244 0.71819 0.13319 0.0
C394 C 0.80758 0.77065 0.33625 0.0
C395 C 0.79905 0.77823 0.39428 0.0
C396 C 0.77166 0.76569 0.41707 0.0
C397 C 0.75211 0.74763 0.38153 0.0
C398 C 0.76063 0.74173 0.32376 0.0
C399 C 0.78813 0.75215 0.30174 0.0
C400 C 0.79134 0.74376 0.23749 0.0
C401 C 0.79535 0.77334 0.19992 0.0
C402 C 0.81781 0.72065 0.22824 0.0
C403 C 0.76078 0.72816 0.22597 0.0
C404 C 0.7434 0.72733 0.27639 0.0
C405 C 0.71327 0.71689 0.27568 0.0
C406 C 0.70066 0.70688 0.22243 0.0
C407 C 0.71818 0.70687 0.17051 0.0
C408 C 0.74877 0.71733 0.1725 0.0
H409 H 0.21556 0.75177 0.42668 0.0
H410 H 0.23466 0.84653 0.36998 0.0
H411 H 0.26024 0.82576 0.28141 0.0
H412 H 0.28921 0.7211 0.38059 0.0
H413 H 0.27392 0.68333 0.36053 0.0
H414 H 0.25604 0.70595 0.41746 0.0
H415 H 0.20449 0.70278 0.362 0.0
H416 H 0.22229 0.6804 0.30467 0.0
H417 H 0.20234 0.71616 0.28749 0.0
H418 H 0.28185 0.79384 0.19608 0.0
H419 H 0.30389 0.754 0.12927 0.0
H420 H 0.27448 0.6805 0.24706 0.0
C421 C 0.22516 0.76805 0.39549 0.0
C422 C 0.22303 0.80071 0.40462 0.0
C423 C 0.23621 0.82141 0.36359 0.0
C424 C 0.25059 0.80982 0.31309 0.0
C425 C 0.25223 0.77741 0.30502 0.0
C426 C 0.24045 0.75684 0.34583 0.0
C427 C 0.247 0.72314 0.32898 0.0
C428 C 0.26778 0.70746 0.37459 0.0
C429 C 0.21725 0.70454 0.32025 0.0
C430 C 0.26362 0.72787 0.27167 0.0
C431 C 0.26617 0.75929 0.25812 0.0
C432 C 0.28021 0.76918 0.20661 0.0
C433 C 0.29251 0.7464 0.16871 0.0
C434 C 0.29113 0.71413 0.18295 0.0
C435 C 0.27617 0.70497 0.23498 0.0
H436 H 0.25432 0.80969 0.70459 0.0
H437 H 0.18198 0.7465 0.65122 0.0
H438 H 0.19917 0.70805 0.72556 0.0
H439 H 0.31205 0.74716 0.73745 0.0
H440 H 0.32729 0.7694 0.79789 0.0
H441 H 0.3114 0.78941 0.73567 0.0
H442 H 0.27495 0.81965 0.80463 0.0
H443 H 0.29009 0.79921 0.86685 0.0
H444 H 0.2497 0.79804 0.85183 0.0
H445 H 0.21991 0.68053 0.81647 0.0
H446 H 0.24698 0.66252 0.90521 0.0
H447 H 0.30706 0.7432 0.89543 0.0
C448 C 0.24282 0.78724 0.7072 0.0
C449 C 0.21709 0.78078 0.67186 0.0
C450 C 0.20215 0.75152 0.67707 0.0
C451 C 0.21159 0.72975 0.71958 0.0
C452 C 0.23632 0.73746 0.75556 0.0
C453 C 0.25224 0.76519 0.74855 0.0
C454 C 0.27735 0.76858 0.79376 0.0
C455 C 0.30889 0.76863 0.76444 0.0
C456 C 0.27272 0.79812 0.83148 0.0
C457 C 0.27243 0.73903 0.8289 0.0
C458 C 0.24866 0.72135 0.80637 0.0
C459 C 0.2389 0.69393 0.8337 0.0
C460 C 0.25424 0.68403 0.88443 0.0
C461 C 0.2792 0.70139 0.90721 0.0
C462 C 0.28822 0.72929 0.87894 0.0
H463 H 0.32545 0.28621 0.82281 0.0
H464 H 0.26413 0.27035 0.96797 0.0
H465 H 0.23174 0.23673 0.90465 0.0
H466 H 0.27202 0.29301 0.71429 0.0
H467 H 0.29277 0.27221 0.65845 0.0
H468 H 0.31315 0.29162 0.71646 0.0
H469 H 0.3401 0.23966 0.7437 0.0
H470 H 0.32021 0.2201 0.68499 0.0
H471 H 0.31751 0.20523 0.75839 0.0
H472 H 0.20174 0.21333 0.82116 0.0
H473 H 0.18017 0.19424 0.72768 0.0
H474 H 0.26327 0.22075 0.63827 0.0
C475 C 0.3057 0.27481 0.84166 0.0
C476 C 0.29728 0.28064 0.90029 0.0
C477 C 0.27116 0.26572 0.92346 0.0
C478 C 0.25258 0.2468 0.88767 0.0
C479 C 0.26094 0.24244 0.82936 0.0
C480 C 0.28738 0.25527 0.80696 0.0
C481 C 0.29076 0.24781 0.74243 0.0
C482 C 0.29225 0.27796 0.70578 0.0
C483 C 0.31881 0.22695 0.73176 0.0
C484 C 0.26139 0.22995 0.73124 0.0
C485 C 0.24446 0.22727 0.78198 0.0
C486 C 0.21517 0.21451 0.78163 0.0
C487 C 0.20304 0.20395 0.72836 0.0
C488 C 0.22029 0.2057 0.67631 0.0
C489 C 0.24995 0.21859 0.67783 0.0
H490 H 0.71831 0.25515 0.91923 0.0
H491 H 0.75625 0.34758 0.88948 0.0
H492 H 0.78406 0.32732 0.80306 0.0
H493 H 0.78804 0.21289 0.87986 0.0
H494 H 0.76732 0.18059 0.84781 0.0
H495 H 0.75066 0.20276 0.90669 0.0
H496 H 0.70314 0.21374 0.84234 0.0
H497 H 0.71986 0.192 0.78298 0.0
H498 H 0.70798 0.23202 0.77207 0.0
H499 H 0.80442 0.2971 0.71437 0.0
H500 H 0.82224 0.25803 0.64153 0.0
H501 H 0.7743 0.18488 0.73527 0.0
C502 C 0.73274 0.27102 0.89482 0.0
C503 C 0.73514 0.30292 0.91083 0.0
C504 C 0.75434 0.32298 0.87814 0.0
C505 C 0.77 0.31173 0.82876 0.0
C506 C 0.76672 0.2802 0.81343 0.0
C507 C 0.74915 0.25998 0.84646 0.0
C508 C 0.75036 0.2269 0.82236 0.0
C509 C 0.76497 0.20446 0.86682 0.0
C510 C 0.71844 0.21551 0.80384 0.0
C511 C 0.77083 0.2317 0.76992 0.0
C512 C 0.77976 0.26265 0.76488 0.0
C513 C 0.79787 0.27274 0.71842 0.0
C514 C 0.8077 0.25047 0.677 0.0
C515 C 0.79984 0.21842 0.68294 0.0
C516 C 0.78094 0.20917 0.72984 0.0
H517 H 0.74653 0.70194 0.86373 0.0
H518 H 0.67454 0.7664 0.91168 0.0
H519 H 0.6926 0.80369 0.83589 0.0
H520 H 0.80528 0.76242 0.83069 0.0
H521 H 0.82052 0.73936 0.77148 0.0
H522 H 0.80352 0.72022 0.83344 0.0
H523 H 0.76694 0.69041 0.76366 0.0
H524 H 0.78324 0.71 0.70163 0.0
H525 H 0.74275 0.71229 0.71478 0.0
H526 H 0.71517 0.83036 0.74403 0.0
H527 H 0.74442 0.84726 0.65677 0.0
H528 H 0.80258 0.76564 0.67388 0.0
C529 C 0.73526 0.72443 0.85965 0.0
C530 C 0.70949 0.73162 0.89411 0.0
C531 C 0.69479 0.76086 0.88666 0.0
C532 C 0.70472 0.78195 0.84325 0.0
C533 C 0.7296 0.77355 0.80834 0.0
C534 C 0.74512 0.74576 0.81732 0.0
C535 C 0.77057 0.74147 0.77339 0.0
C536 C 0.80182 0.74085 0.80408 0.0
C537 C 0.76555 0.71179 0.73619 0.0
C538 C 0.76672 0.77084 0.73724 0.0
C539 C 0.74286 0.78905 0.75751 0.0
C540 C 0.73418 0.81646 0.72857 0.0
C541 C 0.75073 0.82575 0.67872 0.0
C542 C 0.77586 0.80787 0.65865 0.0
C543 C 0.78367 0.78001 0.68839 0.0
loop_
_geom_bond_atom_site_label_1
_geom_bond_atom_site_label_2
_geom_bond_distance
_geom_bond_site_symmetry_2
_ccdc_geom_bond_type
Co0 O1 2.216 . S
Co0 O2 2.091 . S
Co0 O4 2.004 . S
Co0 O10 2.021 1_554 S
Co0 O12 2.137 . S
Co0 O13 2.244 . S
O1 Co0 2.216 . S
O1 C8 1.247 . S
O2 Co0 2.091 . S
O2 C8 1.261 . S
C3 O12 1.247 . S
C3 O13 1.272 . S
O4 Co0 2.004 . S
O4 C9 1.259 . S
Co5 O6 2.061 . S
Co5 O11 2.052 . S
Co5 O13 2.135 1_556 S
O6 Co5 2.061 . S
O6 C9 1.235 1_556 S
C7 O10 1.238 . S
C7 O11 1.241 . S
C8 O1 1.247 . S
C8 O2 1.261 . S
C9 O4 1.259 . S
C9 O6 1.235 1_554 S
O10 Co0 2.021 1_556 S
O10 C7 1.238 . S
O11 Co5 2.052 . S
O11 C7 1.241 . S
O12 Co0 2.137 . S
O12 C3 1.247 . S
O13 Co0 2.244 . S
O13 C3 1.272 . S
O13 Co5 2.135 1_554 S
Co14 O15 2.216 . S
Co14 O16 2.091 . S
Co14 O18 2.004 1_556 S
Co14 O24 2.021 1_556 S
Co14 O26 2.137 . S
Co14 O27 2.244 1_556 S
O15 Co14 2.216 . S
O15 C22 1.247 . S
O16 Co14 2.091 . S
O16 C22 1.261 . S
C17 O26 1.264 . S
C17 O27 1.255 1_556 S
O18 Co14 2.004 1_554 S
O18 C23 1.259 . S
Co19 O20 2.061 . S
Co19 O25 2.052 . S
Co19 O27 2.135 . S
O20 Co19 2.061 . S
O20 C23 1.235 . S
C21 O24 1.238 . S
C21 O25 1.241 . S
C22 O15 1.247 . S
C22 O16 1.261 . S
C23 O18 1.259 . S
C23 O20 1.235 . S
O24 Co14 2.021 1_554 S
O24 C21 1.238 . S
O25 Co19 2.052 . S
O25 C21 1.241 . S
O26 Co14 2.137 . S
O26 C17 1.264 . S
O27 Co14 2.244 1_554 S
O27 C17 1.255 1_554 S
O27 Co19 2.135 . S
Co28 O29 2.216 . S
Co28 O30 2.091 . S
Co28 O32 2.004 . S
Co28 O38 2.021 1_554 S
Co28 O40 2.137 . S
Co28 O41 2.244 . S
O29 Co28 2.216 . S
O29 C36 1.247 . S
O30 Co28 2.091 . S
O30 C36 1.261 . S
C31 O40 1.247 . S
C31 O41 1.272 . S
O32 Co28 2.004 . S
O32 C37 1.259 . S
Co33 O34 2.061 . S
Co33 O39 2.052 . S
Co33 O41 2.135 1_556 S
O34 Co33 2.061 . S
O34 C37 1.235 1_556 S
C35 O38 1.238 . S
C35 O39 1.241 . S
C36 O29 1.247 . S
C36 O30 1.261 . S
C37 O32 1.259 . S
C37 O34 1.235 1_554 S
O38 Co28 2.021 1_556 S
O38 C35 1.238 . S
O39 Co33 2.052 . S
O39 C35 1.241 . S
O40 Co28 2.137 . S
O40 C31 1.247 . S
O41 Co28 2.244 . S
O41 C31 1.272 . S
O41 Co33 2.135 1_554 S
Co42 O43 2.216 . S
Co42 O44 2.091 . S
Co42 O46 2.004 1_556 S
Co42 O52 2.021 1_556 S
Co42 O54 2.137 . S
Co42 O55 2.244 1_556 S
O43 Co42 2.216 . S
O43 C50 1.247 . S
O44 Co42 2.091 . S
O44 C50 1.261 . S
C45 O54 1.264 . S
C45 O55 1.255 1_556 S
O46 Co42 2.004 1_554 S
O46 C51 1.259 . S
Co47 O48 2.061 . S
Co47 O53 2.052 . S
Co47 O55 2.135 . S
O48 Co47 2.061 . S
O48 C51 1.235 . S
C49 O52 1.238 . S
C49 O53 1.241 . S
C50 O43 1.247 . S
C50 O44 1.261 . S
C51 O46 1.259 . S
C51 O48 1.235 . S
O52 Co42 2.021 1_554 S
O52 C49 1.238 . S
O53 Co47 2.052 . S
O53 C49 1.241 . S
O54 Co42 2.137 . S
O54 C45 1.264 . S
O55 Co42 2.244 1_554 S
O55 C45 1.255 1_554 S
O55 Co47 2.135 . S
Co56 O57 2.216 . S
Co56 O58 2.091 . S
Co56 O60 2.004 . S
Co56 O66 2.021 . S
Co56 O68 2.137 . S
Co56 O69 2.244 . S
O57 Co56 2.216 . S
O57 C64 1.247 . S
O58 Co56 2.091 . S
O58 C64 1.261 . S
C59 O68 1.247 . S
C59 O69 1.272 . S
O60 Co56 2.004 . S
O60 C65 1.259 . S
Co61 O62 2.061 . S
Co61 O67 2.052 . S
Co61 O69 2.135 . S
O62 Co61 2.061 . S
O62 C65 1.235 . S
C63 O66 1.238 . S
C63 O67 1.241 . S
C64 O57 1.247 . S
C64 O58 1.261 . S
C65 O60 1.259 . S
C65 O62 1.235 . S
O66 Co56 2.021 . S
O66 C63 1.238 . S
O67 Co61 2.052 . S
O67 C63 1.241 . S
O68 Co56 2.137 . S
O68 C59 1.247 . S
O69 Co56 2.244 . S
O69 C59 1.272 . S
O69 Co61 2.135 . S
Co70 O71 2.216 . S
Co70 O72 2.091 . S
Co70 O74 2.004 . S
Co70 O80 2.021 . S
Co70 O82 2.137 . S
Co70 O83 2.244 . S
O71 Co70 2.216 . S
O71 C78 1.247 . S
O72 Co70 2.091 . S
O72 C78 1.261 . S
C73 O82 1.247 . S
C73 O83 1.272 . S
O74 Co70 2.004 . S
O74 C79 1.259 . S
Co75 O76 2.061 . S
Co75 O81 2.052 . S
Co75 O83 2.135 . S
O76 Co75 2.061 . S
O76 C79 1.235 . S
C77 O80 1.238 . S
C77 O81 1.241 . S
C78 O71 1.247 . S
C78 O72 1.261 . S
C79 O74 1.259 . S
C79 O76 1.235 . S
O80 Co70 2.021 . S
O80 C77 1.238 . S
O81 Co75 2.052 . S
O81 C77 1.241 . S
O82 Co70 2.137 . S
O82 C73 1.247 . S
O83 Co70 2.244 . S
O83 C73 1.272 . S
O83 Co75 2.135 . S
Co84 O85 2.216 . S
Co84 O86 2.091 . S
Co84 O88 2.004 . S
Co84 O94 2.021 . S
Co84 O96 2.137 . S
Co84 O97 2.244 . S
O85 Co84 2.216 . S
O85 C92 1.247 . S
O86 Co84 2.091 . S
O86 C92 1.261 . S
C87 O96 1.247 . S
C87 O97 1.272 . S
O88 Co84 2.004 . S
O88 C93 1.259 . S
Co89 O90 2.061 . S
Co89 O95 2.052 . S
Co89 O97 2.135 . S
O90 Co89 2.061 . S
O90 C93 1.235 . S
C91 O94 1.238 . S
C91 O95 1.241 . S
C92 O85 1.247 . S
C92 O86 1.261 . S
C93 O88 1.259 . S
C93 O90 1.235 . S
O94 Co84 2.021 . S
O94 C91 1.238 . S
O95 Co89 2.052 . S
O95 C91 1.241 . S
O96 Co84 2.137 . S
O96 C87 1.247 . S
O97 Co84 2.244 . S
O97 C87 1.272 . S
O97 Co89 2.135 . S
Co98 O99 2.216 . S
Co98 O100 2.091 . S
Co98 O102 2.004 . S
Co98 O108 2.021 . S
Co98 O110 2.137 . S
Co98 O111 2.244 . S
O99 Co98 2.216 . S
O99 C106 1.247 . S
O100 Co98 2.091 . S
O100 C106 1.261 . S
C101 O110 1.247 . S
C101 O111 1.272 . S
O102 Co98 2.004 . S
O102 C107 1.259 . S
Co103 O104 2.061 . S
Co103 O109 2.052 . S
Co103 O111 2.135 . S
O104 Co103 2.061 . S
O104 C107 1.235 . S
C105 O108 1.238 . S
C105 O109 1.241 . S
C106 O99 1.247 . S
C106 O100 1.261 . S
C107 O102 1.259 . S
C107 O104 1.235 . S
O108 Co98 2.021 . S
O108 C105 1.238 . S
O109 Co103 2.052 . S
O109 C105 1.241 . S
O110 Co98 2.137 . S
O110 C101 1.247 . S
O111 Co98 2.244 . S
O111 C101 1.272 . S
O111 Co103 2.135 . S
H112 C124 0.930 . S
H113 C126 0.930 . S
H114 C127 0.930 . S
H115 C131 0.959 . S
H116 C131 0.959 . S
H117 C131 0.961 . S
H118 C132 0.960 . S
H119 C132 0.961 . S
H120 C132 0.959 . S
H121 C135 0.929 . S
H122 C136 0.931 . S
H123 C138 0.930 1_556 S
C124 H112 0.930 . S
C124 C125 1.399 . S
C124 C129 1.399 . S
C125 C124 1.399 . S
C125 C126 1.376 . S
C126 H113 0.930 . S
C126 C125 1.376 . S
C126 C127 1.388 . S
C127 H114 0.930 . S
C127 C126 1.388 . S
C127 C128 1.390 . S
C128 C127 1.390 . S
C128 C129 1.394 . S
C128 C134 1.465 . S
C129 C124 1.399 . S
C129 C128 1.394 . S
C129 C130 1.516 . S
C130 C129 1.516 . S
C130 C131 1.502 1_554 S
C130 C132 1.561 . S
C130 C133 1.526 . S
C131 H115 0.959 . S
C131 H116 0.959 . S
C131 H117 0.961 . S
C131 C130 1.502 1_556 S
C132 H118 0.960 . S
C132 H119 0.961 . S
C132 H120 0.959 . S
C132 C130 1.561 . S
C133 C130 1.526 . S
C133 C134 1.396 . S
C133 C138 1.390 . S
C134 C128 1.465 . S
C134 C133 1.396 . S
C134 C135 1.399 . S
C135 H121 0.929 . S
C135 C134 1.399 . S
C135 C136 1.385 . S
C136 H122 0.931 . S
C136 C135 1.385 . S
C136 C137 1.389 . S
C137 C136 1.389 . S
C137 C138 1.387 . S
C138 H123 0.930 1_554 S
C138 C133 1.390 . S
C138 C137 1.387 . S
H139 C151 0.930 . S
H140 C153 0.930 . S
H141 C154 0.930 . S
H142 C158 0.959 . S
H143 C158 0.959 . S
H144 C158 0.961 . S
H145 C159 0.960 . S
H146 C159 0.961 . S
H147 C159 0.959 1_556 S
H148 C162 0.929 . S
H149 C163 0.931 . S
H150 C165 0.930 . S
C151 H139 0.930 . S
C151 C152 1.399 . S
C151 C156 1.399 . S
C152 C151 1.399 . S
C152 C153 1.376 1_554 S
C153 H140 0.930 . S
C153 C152 1.376 1_556 S
C153 C154 1.388 . S
C154 H141 0.930 . S
C154 C153 1.388 . S
C154 C155 1.390 1_556 S
C155 C154 1.390 1_554 S
C155 C156 1.394 . S
C155 C161 1.465 . S
C156 C151 1.399 . S
C156 C155 1.394 . S
C156 C157 1.516 . S
C157 C156 1.516 . S
C157 C158 1.502 . S
C157 C159 1.561 . S
C157 C160 1.526 . S
C158 H142 0.959 . S
C158 H143 0.959 . S
C158 H144 0.961 . S
C158 C157 1.502 . S
C159 H145 0.960 . S
C159 H146 0.961 . S
C159 H147 0.959 1_554 S
C159 C157 1.561 . S
C160 C157 1.526 . S
C160 C161 1.396 . S
C160 C165 1.390 . S
C161 C155 1.465 . S
C161 C160 1.396 . S
C161 C162 1.399 1_554 S
C162 H148 0.929 . S
C162 C161 1.399 1_556 S
C162 C163 1.385 1_556 S
C163 H149 0.931 . S
C163 C162 1.385 1_554 S
C163 C164 1.389 . S
C164 C163 1.389 . S
C164 C165 1.387 . S
C165 H150 0.930 . S
C165 C160 1.390 . S
C165 C164 1.387 . S
H166 C178 0.930 . S
H167 C180 0.930 . S
H168 C181 0.930 . S
H169 C185 0.959 . S
H170 C185 0.959 . S
H171 C185 0.961 . S
H172 C186 0.960 . S
H173 C186 0.961 . S
H174 C186 0.959 . S
H175 C189 0.929 . S
H176 C190 0.931 . S
H177 C192 0.930 . S
C178 H166 0.930 . S
C178 C179 1.385 1_554 S
C178 C183 1.399 . S
C179 C178 1.385 1_556 S
C179 C180 1.391 . S
C180 H167 0.930 . S
C180 C179 1.391 . S
C180 C181 1.388 . S
C181 H168 0.930 . S
C181 C180 1.388 . S
C181 C182 1.390 . S
C182 C181 1.390 . S
C182 C183 1.394 1_556 S
C182 C188 1.465 1_556 S
C183 C178 1.399 . S
C183 C182 1.394 1_554 S
C183 C184 1.516 . S
C184 C183 1.516 . S
C184 C185 1.502 . S
C184 C186 1.561 . S
C184 C187 1.526 . S
C185 H169 0.959 . S
C185 H170 0.959 . S
C185 H171 0.961 . S
C185 C184 1.502 . S
C186 H172 0.960 . S
C186 H173 0.961 . S
C186 H174 0.959 . S
C186 C184 1.561 . S
C187 C184 1.526 . S
C187 C188 1.396 . S
C187 C192 1.390 . S
C188 C182 1.465 1_554 S
C188 C187 1.396 . S
C188 C189 1.399 1_554 S
C189 H175 0.929 . S
C189 C188 1.399 1_556 S
C189 C190 1.385 . S
C190 H176 0.931 . S
C190 C189 1.385 . S
C190 C191 1.389 1_556 S
C191 C190 1.389 1_554 S
C191 C192 1.387 . S
C192 H177 0.930 . S
C192 C187 1.390 . S
C192 C191 1.387 . S
H193 C205 0.930 . S
H194 C207 0.930 . S
H195 C208 0.930 . S
H196 C212 0.959 . S
H197 C212 0.959 . S
H198 C212 0.961 . S
H199 C213 0.960 . S
H200 C213 0.961 . S
H201 C213 0.959 . S
H202 C216 0.929 1_556 S
H203 C217 0.931 1_556 S
H204 C219 0.930 . S
C205 H193 0.930 . S
C205 C206 1.399 . S
C205 C210 1.399 . S
C206 C205 1.399 . S
C206 C207 1.376 . S
C207 H194 0.930 . S
C207 C206 1.376 . S
C207 C208 1.388 . S
C208 H195 0.930 . S
C208 C207 1.388 . S
C208 C209 1.390 . S
C209 C208 1.390 . S
C209 C210 1.394 . S
C209 C215 1.465 . S
C210 C205 1.399 . S
C210 C209 1.394 . S
C210 C211 1.516 . S
C211 C210 1.516 . S
C211 C212 1.502 . S
C211 C213 1.561 1_554 S
C211 C214 1.526 . S
C212 H196 0.959 . S
C212 H197 0.959 . S
C212 H198 0.961 . S
C212 C211 1.502 . S
C213 H199 0.960 . S
C213 H200 0.961 . S
C213 H201 0.959 . S
C213 C211 1.561 1_556 S
C214 C211 1.526 . S
C214 C215 1.396 . S
C214 C219 1.390 . S
C215 C209 1.465 . S
C215 C214 1.396 . S
C215 C216 1.399 . S
C216 H202 0.929 1_554 S
C216 C215 1.399 . S
C216 C217 1.385 . S
C217 H203 0.931 1_554 S
C217 C216 1.385 . S
C217 C218 1.389 . S
C218 C217 1.389 . S
C218 C219 1.387 . S
C219 H204 0.930 . S
C219 C214 1.390 . S
C219 C218 1.387 . S
H220 C232 0.930 . S
H221 C234 0.930 . S
H222 C235 0.930 . S
H223 C239 0.959 . S
H224 C239 0.959 . S
H225 C239 0.961 1_565 S
H226 C240 0.960 1_565 S
H227 C240 0.961 . S
H228 C240 0.959 . S
H229 C243 0.929 . S
H230 C244 0.931 . S
H231 C246 0.930 . S
C232 H220 0.930 . S
C232 C233 1.399 . S
C232 C237 1.399 . S
C233 C232 1.399 . S
C233 C234 1.376 . S
C234 H221 0.930 . S
C234 C233 1.376 . S
C234 C235 1.388 . S
C235 H222 0.930 . S
C235 C234 1.388 . S
C235 C236 1.390 . S
C236 C235 1.390 . S
C236 C237 1.394 . S
C236 C242 1.465 1_565 S
C237 C232 1.399 . S
C237 C236 1.394 . S
C237 C238 1.516 1_565 S
C238 C237 1.516 1_545 S
C238 C239 1.502 . S
C238 C240 1.561 . S
C238 C241 1.526 . S
C239 H223 0.959 . S
C239 H224 0.959 . S
C239 H225 0.961 1_545 S
C239 C238 1.502 . S
C240 H226 0.960 1_545 S
C240 H227 0.961 . S
C240 H228 0.959 . S
C240 C238 1.561 . S
C241 C238 1.526 . S
C241 C242 1.396 . S
C241 C246 1.390 . S
C242 C236 1.465 1_545 S
C242 C241 1.396 . S
C242 C243 1.399 . S
C243 H229 0.929 . S
C243 C242 1.399 . S
C243 C244 1.385 . S
C244 H230 0.931 . S
C244 C243 1.385 . S
C244 C245 1.389 . S
C245 C244 1.389 . S
C245 C246 1.387 . S
C246 H231 0.930 . S
C246 C241 1.390 . S
C246 C245 1.387 . S
H247 C259 0.930 . S
H248 C261 0.930 . S
H249 C262 0.930 . S
H250 C266 0.959 . S
H251 C266 0.959 1_655 S
H252 C266 0.961 . S
H253 C267 0.960 1_455 S
H254 C267 0.961 . S
H255 C267 0.959 . S
H256 C270 0.929 . S
H257 C271 0.931 . S
H258 C273 0.930 . S
C259 H247 0.930 . S
C259 C260 1.399 . S
C259 C264 1.399 . S
C260 C259 1.399 . S
C260 C261 1.376 . S
C261 H248 0.930 . S
C261 C260 1.376 . S
C261 C262 1.388 . S
C262 H249 0.930 . S
C262 C261 1.388 . S
C262 C263 1.390 . S
C263 C262 1.390 . S
C263 C264 1.394 . S
C263 C269 1.465 1_455 S
C264 C259 1.399 . S
C264 C263 1.394 . S
C264 C265 1.538 . S
C265 C264 1.538 . S
C265 C266 1.504 . S
C265 C267 1.559 1_455 S
C265 C268 1.503 1_455 S
C266 H250 0.959 . S
C266 H251 0.959 1_455 S
C266 H252 0.961 . S
C266 C265 1.504 . S
C267 H253 0.960 1_655 S
C267 H254 0.961 . S
C267 H255 0.959 . S
C267 C265 1.559 1_655 S
C268 C265 1.503 1_655 S
C268 C269 1.396 . S
C268 C273 1.390 . S
C269 C263 1.465 1_655 S
C269 C268 1.396 . S
C269 C270 1.399 . S
C270 H256 0.929 . S
C270 C269 1.399 . S
C270 C271 1.385 . S
C271 H257 0.931 . S
C271 C270 1.385 . S
C271 C272 1.389 . S
C272 C271 1.389 . S
C272 C273 1.387 . S
C273 H258 0.930 . S
C273 C268 1.390 . S
C273 C272 1.387 . S
H274 C286 0.930 . S
H275 C288 0.930 . S
H276 C289 0.930 . S
H277 C293 0.959 . S
H278 C293 0.959 1_565 S
H279 C293 0.961 . S
H280 C294 0.960 . S
H281 C294 0.961 1_565 S
H282 C294 0.959 . S
H283 C297 0.929 . S
H284 C298 0.931 . S
H285 C300 0.930 . S
C286 H274 0.930 . S
C286 C287 1.399 . S
C286 C291 1.399 . S
C287 C286 1.399 . S
C287 C288 1.376 . S
C288 H275 0.930 . S
C288 C287 1.376 . S
C288 C289 1.388 . S
C289 H276 0.930 . S
C289 C288 1.388 . S
C289 C290 1.390 . S
C290 C289 1.390 . S
C290 C291 1.394 . S
C290 C296 1.465 1_545 S
C291 C286 1.399 . S
C291 C290 1.394 . S
C291 C292 1.516 . S
C292 C291 1.516 . S
C292 C293 1.502 . S
C292 C294 1.561 . S
C292 C295 1.526 1_545 S
C293 H277 0.959 . S
C293 H278 0.959 1_545 S
C293 H279 0.961 . S
C293 C292 1.502 . S
C294 H280 0.960 . S
C294 H281 0.961 1_545 S
C294 H282 0.959 . S
C294 C292 1.561 . S
C295 C292 1.526 1_565 S
C295 C296 1.396 . S
C295 C300 1.390 . S
C296 C290 1.465 1_565 S
C296 C295 1.396 . S
C296 C297 1.399 . S
C297 H283 0.929 . S
C297 C296 1.399 . S
C297 C298 1.385 . S
C298 H284 0.931 . S
C298 C297 1.385 . S
C298 C299 1.389 . S
C299 C298 1.389 . S
C299 C300 1.387 . S
C300 H285 0.930 . S
C300 C295 1.390 . S
C300 C299 1.387 . S
H301 C313 0.930 . S
H302 C315 0.930 . S
H303 C316 0.930 . S
H304 C320 0.959 . S
H305 C320 0.959 . S
H306 C320 0.961 1_655 S
H307 C321 0.966 . S
H308 C321 0.955 1_455 S
H309 C321 0.959 . S
H310 C324 0.929 . S
H311 C325 0.931 . S
H312 C327 0.930 . S
C313 H301 0.930 . S
C313 C314 1.399 . S
C313 C318 1.399 . S
C314 C313 1.399 . S
C314 C315 1.376 . S
C315 H302 0.930 . S
C315 C314 1.376 . S
C315 C316 1.388 . S
C316 H303 0.930 . S
C316 C315 1.388 . S
C316 C317 1.390 . S
C317 C316 1.390 . S
C317 C318 1.394 . S
C317 C323 1.465 1_655 S
C318 C313 1.399 . S
C318 C317 1.394 . S
C318 C319 1.516 1_655 S
C319 C318 1.516 1_455 S
C319 C320 1.502 . S
C319 C321 1.561 1_455 S
C319 C322 1.526 . S
C320 H304 0.959 . S
C320 H305 0.959 . S
C320 H306 0.961 1_455 S
C320 C319 1.502 . S
C321 H307 0.966 . S
C321 H308 0.955 1_655 S
C321 H309 0.959 . S
C321 C319 1.561 1_655 S
C322 C319 1.526 . S
C322 C323 1.396 . S
C322 C327 1.390 . S
C323 C317 1.465 1_455 S
C323 C322 1.396 . S
C323 C324 1.399 . S
C324 H310 0.929 . S
C324 C323 1.399 . S
C324 C325 1.385 . S
C325 H311 0.931 . S
C325 C324 1.385 . S
C325 C326 1.389 . S
C326 C325 1.389 . S
C326 C327 1.387 . S
C327 H312 0.930 . S
C327 C322 1.390 . S
C327 C326 1.387 . S
H328 C340 0.930 . S
H329 C342 0.930 . S
H330 C343 0.930 . S
H331 C347 0.959 . S
H332 C347 0.959 . S
H333 C347 0.961 . S
H334 C348 0.960 . S
H335 C348 0.961 . S
H336 C348 0.959 . S
H337 C351 0.929 . S
H338 C352 0.931 . S
H339 C354 0.930 . S
C340 H328 0.930 . S
C340 C341 1.399 . S
C340 C345 1.399 . S
C341 C340 1.399 . S
C341 C342 1.376 . S
C342 H329 0.930 . S
C342 C341 1.376 . S
C342 C343 1.388 . S
C343 H330 0.930 . S
C343 C342 1.388 . S
C343 C344 1.390 . S
C344 C343 1.390 . S
C344 C345 1.394 . S
C344 C350 1.465 . S
C345 C340 1.399 . S
C345 C344 1.394 . S
C345 C346 1.516 . S
C346 C345 1.516 . S
C346 C347 1.502 . S
C346 C348 1.561 . S
C346 C349 1.526 . S
C347 H331 0.959 . S
C347 H332 0.959 . S
C347 H333 0.961 . S
C347 C346 1.502 . S
C348 H334 0.960 . S
C348 H335 0.961 . S
C348 H336 0.959 . S
C348 C346 1.561 . S
C349 C346 1.526 . S
C349 C350 1.396 . S
C349 C354 1.390 . S
C350 C344 1.465 . S
C350 C349 1.396 . S
C350 C351 1.399 . S
C351 H337 0.929 . S
C351 C350 1.399 . S
C351 C352 1.385 . S
C352 H338 0.931 . S
C352 C351 1.385 . S
C352 C353 1.389 . S
C353 C352 1.389 . S
C353 C354 1.387 . S
C354 H339 0.930 . S
C354 C349 1.390 . S
C354 C353 1.387 . S
H355 C367 0.930 . S
H356 C369 0.930 . S
H357 C370 0.930 . S
H358 C374 0.959 . S
H359 C374 0.959 . S
H360 C374 0.961 . S
H361 C375 0.960 . S
H362 C375 0.961 . S
H363 C375 0.959 . S
H364 C378 0.929 . S
H365 C379 0.931 . S
H366 C381 0.930 . S
C367 H355 0.930 . S
C367 C368 1.399 . S
C367 C372 1.399 . S
C368 C367 1.399 . S
C368 C369 1.376 . S
C369 H356 0.930 . S
C369 C368 1.376 . S
C369 C370 1.388 . S
C370 H357 0.930 . S
C370 C369 1.388 . S
C370 C371 1.390 . S
C371 C370 1.390 . S
C371 C372 1.394 . S
C371 C377 1.465 . S
C372 C367 1.399 . S
C372 C371 1.394 . S
C372 C373 1.516 . S
C373 C372 1.516 . S
C373 C374 1.502 . S
C373 C375 1.561 . S
C373 C376 1.526 . S
C374 H358 0.959 . S
C374 H359 0.959 . S
C374 H360 0.961 . S
C374 C373 1.502 . S
C375 H361 0.960 . S
C375 H362 0.961 . S
C375 H363 0.959 . S
C375 C373 1.561 . S
C376 C373 1.526 . S
C376 C377 1.396 . S
C376 C381 1.390 . S
C377 C371 1.465 . S
C377 C376 1.396 . S
C377 C378 1.399 . S
C378 H364 0.929 . S
C378 C377 1.399 . S
C378 C379 1.385 . S
C379 H365 0.931 . S
C379 C378 1.385 . S
C379 C380 1.389 . S
C380 C379 1.389 . S
C380 C381 1.387 . S
C381 H366 0.930 . S
C381 C376 1.390 . S
C381 C380 1.387 . S
H382 C394 0.930 . S
H383 C396 0.930 . S
H384 C397 0.930 . S
H385 C401 0.959 . S
H386 C401 0.959 . S
H387 C401 0.961 . S
H388 C402 0.960 . S
H389 C402 0.961 . S
H390 C402 0.959 . S
H391 C405 0.929 . S
H392 C406 0.931 . S
H393 C408 0.930 . S
C394 H382 0.930 . S
C394 C395 1.399 . S
C394 C399 1.399 . S
C395 C394 1.399 . S
C395 C396 1.376 . S
C396 H383 0.930 . S
C396 C395 1.376 . S
C396 C397 1.388 . S
C397 H384 0.930 . S
C397 C396 1.388 . S
C397 C398 1.390 . S
C398 C397 1.390 . S
C398 C399 1.394 . S
C398 C404 1.465 . S
C399 C394 1.399 . S
C399 C398 1.394 . S
C399 C400 1.516 . S
C400 C399 1.516 . S
C400 C401 1.502 . S
C400 C402 1.561 . S
C400 C403 1.526 . S
C401 H385 0.959 . S
C401 H386 0.959 . S
C401 H387 0.961 . S
C401 C400 1.502 . S
C402 H388 0.960 . S
C402 H389 0.961 . S
C402 H390 0.959 . S
C402 C400 1.561 . S
C403 C400 1.526 . S
C403 C404 1.396 . S
C403 C408 1.390 . S
C404 C398 1.465 . S
C404 C403 1.396 . S
C404 C405 1.399 . S
C405 H391 0.929 . S
C405 C404 1.399 . S
C405 C406 1.385 . S
C406 H392 0.931 . S
C406 C405 1.385 . S
C406 C407 1.389 . S
C407 C406 1.389 . S
C407 C408 1.387 . S
C408 H393 0.930 . S
C408 C403 1.390 . S
C408 C407 1.387 . S
H409 C421 0.930 . S
H410 C423 0.930 . S
H411 C424 0.930 . S
H412 C428 0.959 . S
H413 C428 0.959 . S
H414 C428 0.961 . S
H415 C429 0.960 . S
H416 C429 0.961 . S
H417 C429 0.959 . S
H418 C432 0.929 . S
H419 C433 0.931 . S
H420 C435 0.930 . S
C421 H409 0.930 . S
C421 C422 1.399 . S
C421 C426 1.399 . S
C422 C421 1.399 . S
C422 C423 1.376 . S
C423 H410 0.930 . S
C423 C422 1.376 . S
C423 C424 1.388 . S
C424 H411 0.930 . S
C424 C423 1.388 . S
C424 C425 1.390 . S
C425 C424 1.390 . S
C425 C426 1.394 . S
C425 C431 1.465 . S
C426 C421 1.399 . S
C426 C425 1.394 . S
C426 C427 1.516 . S
C427 C426 1.516 . S
C427 C428 1.502 . S
C427 C429 1.561 . S
C427 C430 1.526 . S
C428 H412 0.959 . S
C428 H413 0.959 . S
C428 H414 0.961 . S
C428 C427 1.502 . S
C429 H415 0.960 . S
C429 H416 0.961 . S
C429 H417 0.959 . S
C429 C427 1.561 . S
C430 C427 1.526 . S
C430 C431 1.396 . S
C430 C435 1.390 . S
C431 C425 1.465 . S
C431 C430 1.396 . S
C431 C432 1.399 . S
C432 H418 0.929 . S
C432 C431 1.399 . S
C432 C433 1.385 . S
C433 H419 0.931 . S
C433 C432 1.385 . S
C433 C434 1.389 . S
C434 C433 1.389 . S
C434 C435 1.387 . S
C435 H420 0.930 . S
C435 C430 1.390 . S
C435 C434 1.387 . S
H436 C448 0.930 . S
H437 C450 0.930 . S
H438 C451 0.930 . S
H439 C455 0.959 . S
H440 C455 0.959 . S
H441 C455 0.961 . S
H442 C456 0.960 . S
H443 C456 0.961 . S
H444 C456 0.959 . S
H445 C459 0.929 . S
H446 C460 0.931 . S
H447 C462 0.930 . S
C448 H436 0.930 . S
C448 C449 1.399 . S
C448 C453 1.399 . S
C449 C448 1.399 . S
C449 C450 1.376 . S
C450 H437 0.930 . S
C450 C449 1.376 . S
C450 C451 1.388 . S
C451 H438 0.930 . S
C451 C450 1.388 . S
C451 C452 1.390 . S
C452 C451 1.390 . S
C452 C453 1.394 . S
C452 C458 1.465 . S
C453 C448 1.399 . S
C453 C452 1.394 . S
C453 C454 1.516 . S
C454 C453 1.516 . S
C454 C455 1.502 . S
C454 C456 1.561 . S
C454 C457 1.526 . S
C455 H439 0.959 . S
C455 H440 0.959 . S
C455 H441 0.961 . S
C455 C454 1.502 . S
C456 H442 0.960 . S
C456 H443 0.961 . S
C456 H444 0.959 . S
C456 C454 1.561 . S
C457 C454 1.526 . S
C457 C458 1.396 . S
C457 C462 1.390 . S
C458 C452 1.465 . S
C458 C457 1.396 . S
C458 C459 1.399 . S
C459 H445 0.929 . S
C459 C458 1.399 . S
C459 C460 1.385 . S
C460 H446 0.931 . S
C460 C459 1.385 . S
C460 C461 1.389 . S
C461 C460 1.389 . S
C461 C462 1.387 . S
C462 H447 0.930 . S
C462 C457 1.390 . S
C462 C461 1.387 . S
H463 C475 0.930 . S
H464 C477 0.930 . S
H465 C478 0.930 . S
H466 C482 0.959 . S
H467 C482 0.959 . S
H468 C482 0.961 . S
H469 C483 0.960 . S
H470 C483 0.961 . S
H471 C483 0.959 . S
H472 C486 0.929 . S
H473 C487 0.931 . S
H474 C489 0.930 . S
C475 H463 0.930 . S
C475 C476 1.399 . S
C475 C480 1.399 . S
C476 C475 1.399 . S
C476 C477 1.376 . S
C477 H464 0.930 . S
C477 C476 1.376 . S
C477 C478 1.388 . S
C478 H465 0.930 . S
C478 C477 1.388 . S
C478 C479 1.390 . S
C479 C478 1.390 . S
C479 C480 1.394 . S
C479 C485 1.465 . S
C480 C475 1.399 . S
C480 C479 1.394 . S
C480 C481 1.516 . S
C481 C480 1.516 . S
C481 C482 1.502 . S
C481 C483 1.561 . S
C481 C484 1.526 . S
C482 H466 0.959 . S
C482 H467 0.959 . S
C482 H468 0.961 . S
C482 C481 1.502 . S
C483 H469 0.960 . S
C483 H470 0.961 . S
C483 H471 0.959 . S
C483 C481 1.561 . S
C484 C481 1.526 . S
C484 C485 1.396 . S
C484 C489 1.390 . S
C485 C479 1.465 . S
C485 C484 1.396 . S
C485 C486 1.399 . S
C486 H472 0.929 . S
C486 C485 1.399 . S
C486 C487 1.385 . S
C487 H473 0.931 . S
C487 C486 1.385 . S
C487 C488 1.389 . S
C488 C487 1.389 . S
C488 C489 1.387 . S
C489 H474 0.930 . S
C489 C484 1.390 . S
C489 C488 1.387 . S
H490 C502 0.930 . S
H491 C504 0.930 . S
H492 C505 0.930 . S
H493 C509 0.959 . S
H494 C509 0.959 . S
H495 C509 0.961 . S
H496 C510 0.960 . S
H497 C510 0.961 . S
H498 C510 0.959 . S
H499 C513 0.929 . S
H500 C514 0.931 . S
H501 C516 0.930 . S
C502 H490 0.930 . S
C502 C503 1.399 . S
C502 C507 1.399 . S
C503 C502 1.399 . S
C503 C504 1.376 . S
C504 H491 0.930 . S
C504 C503 1.376 . S
C504 C505 1.388 . S
C505 H492 0.930 . S
C505 C504 1.388 . S
C505 C506 1.390 . S
C506 C505 1.390 . S
C506 C507 1.394 . S
C506 C512 1.465 . S
C507 C502 1.399 . S
C507 C506 1.394 . S
C507 C508 1.516 . S
C508 C507 1.516 . S
C508 C509 1.502 . S
C508 C510 1.561 . S
C508 C511 1.526 . S
C509 H493 0.959 . S
C509 H494 0.959 . S
C509 H495 0.961 . S
C509 C508 1.502 . S
C510 H496 0.960 . S
C510 H497 0.961 . S
C510 H498 0.959 . S
C510 C508 1.561 . S
C511 C508 1.526 . S
C511 C512 1.396 . S
C511 C516 1.390 . S
C512 C506 1.465 . S
C512 C511 1.396 . S
C512 C513 1.399 . S
C513 H499 0.929 . S
C513 C512 1.399 . S
C513 C514 1.385 . S
C514 H500 0.931 . S
C514 C513 1.385 . S
C514 C515 1.389 . S
C515 C514 1.389 . S
C515 C516 1.387 . S
C516 H501 0.930 . S
C516 C511 1.390 . S
C516 C515 1.387 . S
H517 C529 0.930 . S
H518 C531 0.930 . S
H519 C532 0.930 . S
H520 C536 0.959 . S
H521 C536 0.959 . S
H522 C536 0.961 . S
H523 C537 0.960 . S
H524 C537 0.961 . S
H525 C537 0.959 . S
H526 C540 0.929 . S
H527 C541 0.931 . S
H528 C543 0.930 . S
C529 H517 0.930 . S
C529 C530 1.399 . S
C529 C534 1.399 . S
C530 C529 1.399 . S
C530 C531 1.376 . S
C531 H518 0.930 . S
C531 C530 1.376 . S
C531 C532 1.388 . S
C532 H519 0.930 . S
C532 C531 1.388 . S
C532 C533 1.390 . S
C533 C532 1.390 . S
C533 C534 1.394 . S
C533 C539 1.465 . S
C534 C529 1.399 . S
C534 C533 1.394 . S
C534 C535 1.516 . S
C535 C534 1.516 . S
C535 C536 1.502 . S
C535 C537 1.561 . S
C535 C538 1.526 . S
C536 H520 0.959 . S
C536 H521 0.959 . S
C536 H522 0.961 . S
C536 C535 1.502 . S
C537 H523 0.960 . S
C537 H524 0.961 . S
C537 H525 0.959 . S
C537 C535 1.561 . S
C538 C535 1.526 . S
C538 C539 1.396 . S
C538 C543 1.390 . S
C539 C533 1.465 . S
C539 C538 1.396 . S
C539 C540 1.399 . S
C540 H526 0.929 . S
C540 C539 1.399 . S
C540 C541 1.385 . S
C541 H527 0.931 . S
C541 C540 1.385 . S
C541 C542 1.389 . S
C542 C541 1.389 . S
C542 C543 1.387 . S
C543 H528 0.930 . S
C543 C538 1.390 . S
C543 C542 1.387 . S
C125 C3 1.529 . S
C137 C45 1.516 1_554 S
C152 C9 1.525 . S
C164 C23 1.515 . S
C179 C17 1.540 . S
C191 C31 1.519 . S
C206 C51 1.543 . S
C218 C37 1.549 . S
C233 C59 1.515 . S
C245 C101 1.532 . S
C260 C79 1.523 . S
C272 C65 1.515 . S
C287 C87 1.541 . S
C299 C73 1.517 . S
C314 C107 1.537 . S
C326 C93 1.548 . S
C341 C91 1.441 . S
C353 C8 1.472 . S
C368 C21 1.482 . S
C380 C106 1.470 . S
C395 C63 1.447 . S
C407 C36 1.470 . S
C422 C78 1.473 . S
C434 C49 1.485 . S
C449 C77 1.418 . S
C461 C50 1.490 . S
C476 C7 1.463 . S
C488 C92 1.467 . S
C503 C22 1.471 . S
C515 C105 1.483 . S
C530 C35 1.470 . S
C542 C64 1.490 . S
