# Generated by pormake.
# Topology wjd, (6)-cn, num edge types: 1
# Building blocks:
#     Node 0, Type 0, BuildingBlock: BETGAK_clean_sbu_0, # of connection points: 6
#     Node 1, Type 0, BuildingBlock: BETGAK_clean_sbu_0, # of connection points: 6
#     Node 2, Type 0, BuildingBlock: BETGAK_clean_sbu_0, # of connection points: 6
#     Node 3, Type 0, BuildingBlock: BETGAK_clean_sbu_0, # of connection points: 6
#     Node 4, Type 0, BuildingBlock: BETGAK_clean_sbu_0, # of connection points: 6
#     Node 5, Type 0, BuildingBlock: BETGAK_clean_sbu_0, # of connection points: 6
#     Node 6, Type 0, BuildingBlock: BETGAK_clean_sbu_0, # of connection points: 6
#     Node 7, Type 0, BuildingBlock: BETGAK_clean_sbu_0, # of connection points: 6
#     Node 8, Type 0, BuildingBlock: BETGAK_clean_sbu_0, # of connection points: 6
#     Node 9, Type 0, BuildingBlock: BETGAK_clean_sbu_0, # of connection points: 6
#     Node 10, Type 0, BuildingBlock: BETGAK_clean_sbu_0, # of connection points: 6
#     Node 11, Type 0, BuildingBlock: BETGAK_clean_sbu_0, # of connection points: 6
#     Edge 12, Type (0, 0), BuildingBlock: XIVTED_clean_linker_0, # of connection points: 2
#     Edge 13, Type (0, 0), BuildingBlock: XIVTED_clean_linker_0, # of connection points: 2
#     Edge 14, Type (0, 0), BuildingBlock: XIVTED_clean_linker_0, # of connection points: 2
#     Edge 15, Type (0, 0), BuildingBlock: XIVTED_clean_linker_0, # of connection points: 2
#     Edge 16, Type (0, 0), BuildingBlock: XIVTED_clean_linker_0, # of connection points: 2
#     Edge 17, Type (0, 0), BuildingBlock: XIVTED_clean_linker_0, # of connection points: 2
#     Edge 18, Type (0, 0), BuildingBlock: XIVTED_clean_linker_0, # of connection points: 2
#     Edge 19, Type (0, 0), BuildingBlock: XIVTED_clean_linker_0, # of connection points: 2
#     Edge 20, Type (0, 0), BuildingBlock: XIVTED_clean_linker_0, # of connection points: 2
#     Edge 21, Type (0, 0), BuildingBlock: XIVTED_clean_linker_0, # of connection points: 2
#     Edge 22, Type (0, 0), BuildingBlock: XIVTED_clean_linker_0, # of connection points: 2
#     Edge 23, Type (0, 0), BuildingBlock: XIVTED_clean_linker_0, # of connection points: 2
#     Edge 24, Type (0, 0), BuildingBlock: XIVTED_clean_linker_0, # of connection points: 2
#     Edge 25, Type (0, 0), BuildingBlock: XIVTED_clean_linker_0, # of connection points: 2
#     Edge 26, Type (0, 0), BuildingBlock: XIVTED_clean_linker_0, # of connection points: 2
#     Edge 27, Type (0, 0), BuildingBlock: XIVTED_clean_linker_0, # of connection points: 2
#     Edge 28, Type (0, 0), BuildingBlock: XIVTED_clean_linker_0, # of connection points: 2
#     Edge 29, Type (0, 0), BuildingBlock: XIVTED_clean_linker_0, # of connection points: 2
#     Edge 30, Type (0, 0), BuildingBlock: XIVTED_clean_linker_0, # of connection points: 2
#     Edge 31, Type (0, 0), BuildingBlock: XIVTED_clean_linker_0, # of connection points: 2
#     Edge 32, Type (0, 0), BuildingBlock: XIVTED_clean_linker_0, # of connection points: 2
#     Edge 33, Type (0, 0), BuildingBlock: XIVTED_clean_linker_0, # of connection points: 2
#     Edge 34, Type (0, 0), BuildingBlock: XIVTED_clean_linker_0, # of connection points: 2
#     Edge 35, Type (0, 0), BuildingBlock: XIVTED_clean_linker_0, # of connection points: 2
#     Edge 36, Type (0, 0), BuildingBlock: XIVTED_clean_linker_0, # of connection points: 2
#     Edge 37, Type (0, 0), BuildingBlock: XIVTED_clean_linker_0, # of connection points: 2
#     Edge 38, Type (0, 0), BuildingBlock: XIVTED_clean_linker_0, # of connection points: 2
#     Edge 39, Type (0, 0), BuildingBlock: XIVTED_clean_linker_0, # of connection points: 2
#     Edge 40, Type (0, 0), BuildingBlock: XIVTED_clean_linker_0, # of connection points: 2
#     Edge 41, Type (0, 0), BuildingBlock: XIVTED_clean_linker_0, # of connection points: 2
#     Edge 42, Type (0, 0), BuildingBlock: XIVTED_clean_linker_0, # of connection points: 2
#     Edge 43, Type (0, 0), BuildingBlock: XIVTED_clean_linker_0, # of connection points: 2
#     Edge 44, Type (0, 0), BuildingBlock: XIVTED_clean_linker_0, # of connection points: 2
#     Edge 45, Type (0, 0), BuildingBlock: XIVTED_clean_linker_0, # of connection points: 2
#     Edge 46, Type (0, 0), BuildingBlock: XIVTED_clean_linker_0, # of connection points: 2
#     Edge 47, Type (0, 0), BuildingBlock: XIVTED_clean_linker_0, # of connection points: 2
# Relax obj value: 0.104
# Max RMSD: 0.218
# Mean RMSD: 0.218
data_MOF--net-wjd--node1-BETGAK_clean_sbu_0--edge1-XIVTED_clean_linker_0
_symmetry_space_group_name_H-M    P1
_symmetry_Int_Tables_number       1
_symmetry_cell_setting            triclinic
loop_
_symmetry_equiv_pos_as_xyz
'x, y, z'
_cell_length_a     40.228278
_cell_length_b     40.373444
_cell_length_c     51.271122
_cell_angle_alpha  89.983667
_cell_angle_beta   90.182774
_cell_angle_gamma 119.93822
loop_
_atom_site_label
_atom_site_type_symbol
_atom_site_fract_x
_atom_site_fract_y
_atom_site_fract_z
_atom_type_partial_charge
La0 La 0.3988 0.18596 0.14391 0.0
La1 La 0.34503 0.10301 0.16397 0.0
C2 C 0.4479 0.25493 0.13541 0.0
C3 C 0.47954 0.29014 0.14724 0.0
C4 C 0.51796 0.30014 0.14316 0.0
C5 C 0.54781 0.3363 0.15041 0.0
C6 C 0.5399 0.3634 0.16169 0.0
C7 C 0.50154 0.35281 0.16669 0.0
C8 C 0.47173 0.31668 0.1595 0.0
C9 C 0.36828 0.13044 0.10825 0.0
C10 C 0.43437 0.13992 0.1698 0.0
C11 C 0.2977 0.03271 0.16134 0.0
C12 C 0.25699 1.00736 0.16752 0.0
C13 C 0.24261 0.96792 0.16894 0.0
C14 C 0.20307 0.94278 0.16989 0.0
C15 C 0.17718 0.95668 0.16915 0.0
C16 C 0.19185 0.99643 0.16947 0.0
C17 C 0.23147 1.02157 0.16869 0.0
C18 C 0.3622 0.15205 0.20286 0.0
C19 C 0.31166 0.15822 0.15059 0.0
O20 O 0.45364 0.22636 0.13016 0.0
O21 O 0.41321 0.24334 0.14407 0.0
O22 O 0.376 0.16515 0.1042 0.0
O23 O 0.37981 0.12898 0.1307 0.0
O24 O 0.43693 0.17375 0.16694 0.0
O25 O 0.40158 0.10735 0.16613 0.0
O26 O 0.32165 0.04835 0.18097 0.0
O27 O 0.30402 0.05696 0.14239 0.0
O28 O 0.34036 0.11534 0.20508 0.0
O29 O 0.37276 0.15919 0.17944 0.0
O30 O 0.30448 0.12253 0.1533 0.0
O31 O 0.34677 0.18777 0.14962 0.0
H32 H 0.52495 0.28063 0.13338 0.0
H33 H 0.57701 0.34364 0.14601 0.0
H34 H 0.49446 0.37279 0.17565 0.0
H35 H 0.44247 0.31016 0.16268 0.0
H36 H 0.26187 0.95645 0.16814 0.0
H37 H 0.19273 0.91235 0.17025 0.0
H38 H 0.17278 1.0081 0.1688 0.0
H39 H 0.24207 0.05201 0.16761 0.0
La40 La 0.80724 0.72039 0.42023 0.0
La41 La 0.85062 0.67744 0.43715 0.0
C42 C 0.77841 0.7624 0.42688 0.0
C43 C 0.79192 0.80332 0.42329 0.0
C44 C 0.81907 0.82507 0.40416 0.0
C45 C 0.83478 0.86484 0.40329 0.0
C46 C 0.8239 0.88352 0.42171 0.0
C47 C 0.79671 0.86132 0.44081 0.0
C48 C 0.78083 0.82174 0.44148 0.0
C49 C 0.83455 0.70303 0.37885 0.0
C50 C 0.89887 0.76371 0.42267 0.0
C51 C 0.879 0.63496 0.44513 0.0
C52 C 0.87872 0.59966 0.43678 0.0
C53 C 0.84973 0.5633 0.44478 0.0
C54 C 0.85316 0.53093 0.44015 0.0
C55 C 0.88573 0.5342 0.42755 0.0
C56 C 0.91396 0.57042 0.41874 0.0
C57 C 0.91055 0.60272 0.42338 0.0
C58 C 0.82889 0.70904 0.47392 0.0
C59 C 0.76309 0.63081 0.41912 0.0
O60 O 0.77211 0.74129 0.40592 0.0
O61 O 0.79693 0.75528 0.44502 0.0
O62 O 0.81561 0.72128 0.37778 0.0
O63 O 0.83726 0.69607 0.40243 0.0
O64 O 0.86744 0.76659 0.42447 0.0
O65 O 0.89828 0.73078 0.4243 0.0
O66 O 0.84914 0.6317 0.4577 0.0
O67 O 0.89355 0.66394 0.42895 0.0
O68 O 0.861 0.70889 0.47463 0.0
O69 O 0.811 0.69168 0.45383 0.0
O70 O 0.79668 0.63208 0.42086 0.0
O71 O 0.75951 0.6617 0.42147 0.0
H72 H 0.82864 0.81143 0.39026 0.0
H73 H 0.85543 0.8809 0.38824 0.0
H74 H 0.78831 0.87457 0.45579 0.0
H75 H 0.76068 0.80557 0.4568 0.0
H76 H 0.82503 0.55994 0.45543 0.0
H77 H 0.83102 0.50359 0.44745 0.0
H78 H 0.93911 0.57397 0.40859 0.0
H79 H 0.93357 0.63038 0.41722 0.0
La80 La 0.8749 0.21051 0.14103 0.0
La81 La 0.96094 0.25066 0.15805 0.0
C82 C 0.804 0.18387 0.13343 0.0
C83 C 0.76875 0.18114 0.14463 0.0
C84 C 0.76097 0.21135 0.14262 0.0
C85 C 0.7252 0.20617 0.15012 0.0
C86 C 0.69634 0.17063 0.15965 0.0
C87 C 0.70471 0.1409 0.16239 0.0
C88 C 0.74037 0.14606 0.15489 0.0
C89 C 0.92802 0.23218 0.10402 0.0
C90 C 0.91696 0.29663 0.1605 0.0
C91 C 1.03201 0.27829 0.15254 0.0
C92 C 0.059 0.26434 0.15749 0.0
C93 C 0.09832 0.29039 0.15966 0.0
C94 C 0.12462 0.27735 0.16116 0.0
C95 C 0.11205 0.23792 0.16029 0.0
C96 C 0.07239 0.21188 0.15921 0.0
C97 C 0.04616 0.22497 0.15789 0.0
C98 C 0.91624 0.22256 0.1994 0.0
C99 C 0.91064 0.15982 0.15442 0.0
O100 O 0.83061 0.21684 0.12419 0.0
O101 O 0.81854 0.16547 0.14561 0.0
O102 O 0.89508 0.20111 0.10289 0.0
O103 O 0.92925 0.24947 0.12453 0.0
O104 O 0.88435 0.26352 0.15898 0.0
O105 O 0.9511 0.29934 0.15759 0.0
O106 O 1.01683 0.28527 0.17296 0.0
O107 O 1.00668 0.25992 0.13415 0.0
O108 O 0.95343 0.24018 0.2003 0.0
O109 O 0.90645 0.2212 0.17593 0.0
O110 O 0.9453 0.19039 0.15207 0.0
O111 O 0.87897 0.16196 0.15405 0.0
H112 H 0.78201 0.23862 0.13452 0.0
H113 H 0.71968 0.2296 0.14746 0.0
H114 H 0.68347 0.11336 0.17001 0.0
H115 H 0.74532 0.12209 0.15643 0.0
H116 H 0.10879 0.32087 0.15947 0.0
H117 H 0.15487 0.29822 0.16255 0.0
H118 H 0.06161 0.1814 0.15825 0.0
H119 H 1.01592 0.20427 0.15623 0.0
La120 La 0.3424 0.10544 0.4218 0.0
La121 La 0.39481 0.18911 0.44195 0.0
C122 C 0.29441 0.03549 0.42595 0.0
C123 C 0.25297 1.01034 0.42094 0.0
C124 C 0.23688 1.00475 0.39583 0.0
C125 C 0.1971 0.98212 0.39231 0.0
C126 C 0.17282 0.96521 0.41386 0.0
C127 C 0.18911 0.97069 0.43885 0.0
C128 C 0.2287 0.99277 0.44231 0.0
C129 C 0.35975 0.15412 0.38281 0.0
C130 C 0.30713 0.15955 0.43512 0.0
C131 C 0.4421 0.25801 0.45201 0.0
C132 C 0.47718 0.29352 0.44497 0.0
C133 C 0.49426 0.32186 0.46416 0.0
C134 C 0.52448 0.35801 0.45789 0.0
C135 C 0.53843 0.3666 0.43226 0.0
C136 C 0.52236 0.33765 0.41316 0.0
C137 C 0.49166 0.30133 0.41944 0.0
C138 C 0.36434 0.13329 0.47722 0.0
C139 C 0.4321 0.14341 0.41748 0.0
O140 O 0.31777 0.04992 0.40594 0.0
O141 O 0.30222 0.06065 0.44451 0.0
O142 O 0.33896 0.11726 0.38038 0.0
O143 O 0.36928 0.16142 0.40644 0.0
O144 O 0.30091 0.12435 0.43124 0.0
O145 O 0.34184 0.18953 0.43739 0.0
O146 O 0.44533 0.22943 0.46122 0.0
O147 O 0.41211 0.24687 0.4368 0.0
O148 O 0.37016 0.16744 0.48111 0.0
O149 O 0.37687 0.1325 0.45506 0.0
O150 O 0.43446 0.17715 0.42067 0.0
O151 O 0.39932 0.11053 0.42034 0.0
H152 H 0.25485 1.01806 0.37899 0.0
H153 H 0.18527 0.9783 0.37281 0.0
H154 H 0.17125 0.95743 0.45575 0.0
H155 H 0.24041 0.99649 0.46186 0.0
H156 H 0.4834 0.31637 0.48394 0.0
H157 H 0.53671 0.37948 0.4731 0.0
H158 H 0.5326 0.34352 0.39325 0.0
H159 H 0.47863 0.2798 0.40433 0.0
La160 La 0.84839 0.67006 0.14005 0.0
La161 La 0.81022 0.71834 0.15613 0.0
C162 C 0.87373 0.62461 0.13437 0.0
C163 C 0.87328 0.58995 0.1445 0.0
C164 C 0.84481 0.55311 0.13678 0.0
C165 C 0.84839 0.52117 0.14284 0.0
C166 C 0.88066 0.52536 0.15657 0.0
C167 C 0.90829 0.56205 0.16514 0.0
C168 C 0.9047 0.5939 0.15911 0.0
C169 C 0.82423 0.69828 0.10246 0.0
C170 C 0.76316 0.62927 0.16202 0.0
C171 C 0.7845 0.76285 0.14881 0.0
C172 C 0.80003 0.80431 0.1526 0.0
C173 C 0.81173 0.82172 0.17724 0.0
C174 C 0.82874 0.86145 0.17978 0.0
C175 C 0.83478 0.8845 0.15772 0.0
C176 C 0.82282 0.86696 0.13318 0.0
C177 C 0.80546 0.82732 0.13068 0.0
C178 C 0.8413 0.70492 0.19735 0.0
C179 C 0.90116 0.75804 0.14698 0.0
O180 O 0.84323 0.6208 0.12219 0.0
O181 O 0.89041 0.65554 0.14884 0.0
O182 O 0.85491 0.69561 0.1008 0.0
O183 O 0.80844 0.68454 0.12384 0.0
O184 O 0.79583 0.62888 0.15973 0.0
O185 O 0.76073 0.66058 0.15818 0.0
O186 O 0.77646 0.74115 0.16965 0.0
O187 O 0.80206 0.75424 0.13085 0.0
O188 O 0.82317 0.724 0.19812 0.0
O189 O 0.84108 0.69488 0.17409 0.0
O190 O 0.87051 0.76223 0.14882 0.0
O191 O 0.89915 0.72444 0.14594 0.0
H192 H 0.8205 0.54904 0.12518 0.0
H193 H 0.82672 0.49342 0.1357 0.0
H194 H 0.93319 0.5663 0.1761 0.0
H195 H 0.92738 0.62191 0.1651 0.0
H196 H 0.80825 0.80479 0.19448 0.0
H197 H 0.83779 0.8742 0.19894 0.0
H198 H 0.82649 0.88388 0.11589 0.0
H199 H 0.79674 0.8146 0.11147 0.0
La200 La 0.95363 0.25173 0.41979 0.0
La201 La 0.87332 0.21179 0.43896 0.0
C202 C 1.02465 0.27632 0.41603 0.0
C203 C 0.05003 0.2597 0.41936 0.0
C204 C 0.05249 0.23616 0.40012 0.0
C205 C 0.07738 0.22158 0.40332 0.0
C206 C 0.10048 0.23029 0.42578 0.0
C207 C 0.09749 0.25334 0.44516 0.0
C208 C 0.07272 0.26797 0.44194 0.0
C209 C 0.90256 0.23399 0.38238 0.0
C210 C 0.90945 0.16113 0.4309 0.0
C211 C 0.80242 0.182 0.44819 0.0
C212 C 0.76692 0.18315 0.44291 0.0
C213 C 0.73825 0.16896 0.462 0.0
C214 C 0.70204 0.16416 0.45663 0.0
C215 C 0.69361 0.17347 0.43197 0.0
C216 C 0.72294 0.18921 0.41314 0.0
C217 C 0.75929 0.19387 0.41853 0.0
C218 C 0.92809 0.23316 0.47499 0.0
C219 C 0.91274 0.29951 0.42434 0.0
O220 O 1.00108 0.26458 0.39609 0.0
O221 O 1.00825 0.27944 0.43718 0.0
O222 O 0.936 0.2647 0.38308 0.0
O223 O 0.8992 0.21312 0.40185 0.0
O224 O 0.94276 0.19289 0.42726 0.0
O225 O 0.87719 0.16152 0.4332 0.0
O226 O 0.82907 0.20904 0.46259 0.0
O227 O 0.81672 0.17196 0.42889 0.0
O228 O 0.89576 0.20141 0.47587 0.0
O229 O 0.92769 0.25144 0.45543 0.0
O230 O 0.88049 0.26624 0.42534 0.0
O231 O 0.94671 0.30164 0.4253 0.0
H232 H 1.03554 0.22928 0.38243 0.0
H233 H 0.07926 0.20433 0.38786 0.0
H234 H 0.11436 0.26019 0.46289 0.0
H235 H 0.07148 0.28598 0.45713 0.0
H236 H 0.7435 0.1604 0.4809 0.0
H237 H 0.68044 0.15274 0.47176 0.0
H238 H 0.7174 0.19661 0.39394 0.0
H239 H 0.78095 0.2047 0.40343 0.0
La240 La 0.11542 0.33114 0.65852 0.0
La241 La 0.20096 0.37343 0.64015 0.0
C242 C 0.04445 0.28692 0.6539 0.0
C243 C 1.01956 0.24529 0.65777 0.0
C244 C 0.9854 0.23128 0.67187 0.0
C245 C 0.96067 0.19186 0.6744 0.0
C246 C 0.96942 0.16556 0.66264 0.0
C247 C 1.00429 0.17978 0.64917 0.0
C248 C 1.02912 0.21914 0.64684 0.0
C249 C 0.16193 0.35049 0.69926 0.0
C250 C 0.1639 0.28813 0.65642 0.0
C251 C 0.27122 0.41514 0.62982 0.0
C252 C 0.30724 0.45062 0.63582 0.0
C253 C 0.33603 0.4651 0.61683 0.0
C254 C 0.37216 0.49629 0.62233 0.0
C255 C 0.38036 0.51385 0.64701 0.0
C256 C 0.351 0.50006 0.66584 0.0
C257 C 0.31471 0.46852 0.66033 0.0
C258 C 0.14604 0.33968 0.6044 0.0
C259 C 0.16062 0.42052 0.65852 0.0
O260 O 0.06011 0.30784 0.67481 0.0
O261 O 0.06865 0.29689 0.6345 0.0
O262 O 0.12479 0.33272 0.70089 0.0
O263 O 0.17064 0.3562 0.67549 0.0
O264 O 0.12954 0.28511 0.65467 0.0
O265 O 0.19619 0.321 0.65417 0.0
O266 O 0.24392 0.418 0.61785 0.0
O267 O 0.25795 0.38816 0.64753 0.0
O268 O 0.17826 0.33981 0.60365 0.0
O269 O 0.14626 0.35815 0.62405 0.0
O270 O 0.19283 0.41921 0.65589 0.0
O271 O 0.12594 0.3896 0.6571 0.0
H272 H 0.97758 0.25083 0.68066 0.0
H273 H 0.93449 0.18203 0.68541 0.0
H274 H 1.01192 0.16058 0.63964 0.0
H275 H 0.05543 0.22902 0.63596 0.0
H276 H 0.33083 0.45167 0.59781 0.0
H277 H 0.39378 0.50662 0.60721 0.0
H278 H 0.35642 0.51292 0.68505 0.0
H279 H 0.29285 0.45766 0.6753 0.0
La280 La 0.2322 0.8606 0.9412 0.0
La281 La 0.26375 0.94403 0.92077 0.0
C282 C 0.21044 0.79171 0.95143 0.0
C283 C 0.20924 0.75584 0.94424 0.0
C284 C 0.1972 0.72724 0.96324 0.0
C285 C 0.19118 0.69105 0.95691 0.0
C286 C 0.19722 0.68263 0.93137 0.0
C287 C 0.21064 0.71179 0.91244 0.0
C288 C 0.21637 0.74815 0.91879 0.0
C289 C 0.25813 0.91665 0.97644 0.0
C290 C 0.31438 0.90528 0.91564 0.0
C291 C 0.28757 1.01451 0.92347 0.0
C292 C 0.27273 0.03994 0.9162 0.0
C293 C 0.29682 0.07954 0.918 0.0
C294 C 0.28212 0.10407 0.91418 0.0
C295 C 0.24291 0.08938 0.90862 0.0
C296 C 0.219 0.04959 0.90622 0.0
C297 C 0.23383 0.02507 0.90989 0.0
C298 C 0.23133 0.89495 0.882 0.0
C299 C 0.17459 0.89065 0.9344 0.0
O300 O 0.24288 0.82034 0.95995 0.0
O301 O 0.19105 0.8028 0.93676 0.0
O302 O 0.2299 0.88246 0.98038 0.0
O303 O 0.27137 0.91747 0.95422 0.0
O304 O 0.28287 0.87178 0.91913 0.0
O305 O 0.31512 0.93834 0.91892 0.0
O306 O 0.29666 0.99881 0.90438 0.0
O307 O 0.26835 0.99013 0.94207 0.0
O308 O 0.24742 0.93175 0.87953 0.0
O309 O 0.23407 0.88783 0.90558 0.0
O310 O 0.20367 0.92574 0.93043 0.0
O311 O 0.17898 0.86052 0.9368 0.0
H312 H 0.19147 0.73262 0.98297 0.0
H313 H 0.18155 0.66951 0.97204 0.0
H314 H 0.21554 0.70611 0.89259 0.0
H315 H 0.22548 0.76986 0.9038 0.0
H316 H 0.32681 0.09148 0.92313 0.0
H317 H 0.30123 0.13453 0.91652 0.0
H318 H 0.1888 0.03741 0.90171 0.0
H319 H 0.21475 0.99448 0.90847 0.0
La320 La 0.73049 0.79724 0.65695 0.0
La321 La 0.68098 0.83252 0.63893 0.0
C322 C 0.7756 0.77164 0.65113 0.0
C323 C 0.81599 0.78418 0.65688 0.0
C324 C 0.84093 0.82096 0.66662 0.0
C325 C 0.88026 0.83398 0.66903 0.0
C326 C 0.89522 0.81039 0.66174 0.0
C327 C 0.86979 0.7733 0.65244 0.0
C328 C 0.83061 0.76039 0.65003 0.0
C329 C 0.71097 0.82302 0.69805 0.0
C330 C 0.76672 0.8879 0.65298 0.0
C331 C 0.63496 0.85608 0.62862 0.0
C332 C 0.60089 0.85783 0.63696 0.0
C333 C 0.58256 0.86889 0.61853 0.0
C334 C 0.55326 0.87583 0.62602 0.0
C335 C 0.54154 0.87177 0.65219 0.0
C336 C 0.55901 0.85927 0.67057 0.0
C337 C 0.58869 0.85256 0.66304 0.0
C338 C 0.71554 0.81316 0.60266 0.0
C339 C 0.64046 0.74728 0.65902 0.0
O340 O 0.75213 0.76267 0.67102 0.0
O341 O 0.77038 0.79239 0.63373 0.0
O342 O 0.73224 0.80722 0.69911 0.0
O343 O 0.70238 0.82405 0.67451 0.0
O344 O 0.77323 0.85867 0.65203 0.0
O345 O 0.73187 0.88315 0.65148 0.0
O346 O 0.63032 0.82338 0.62017 0.0
O347 O 0.66604 0.875 0.64278 0.0
O348 O 0.71215 0.8433 0.60131 0.0
O349 O 0.69945 0.79567 0.62305 0.0
O350 O 0.63899 0.7793 0.65732 0.0
O351 O 0.67298 0.74659 0.65606 0.0
H352 H 0.83011 0.83986 0.67178 0.0
H353 H 0.89894 0.86252 0.67649 0.0
H354 H 0.8803 0.75457 0.64621 0.0
H355 H 0.81185 0.73215 0.6421 0.0
H356 H 0.59166 0.87323 0.59834 0.0
H357 H 0.53992 0.88466 0.6113 0.0
H358 H 0.55061 0.8559 0.69088 0.0
H359 H 0.60271 0.84426 0.6776 0.0
La360 La 0.1997 0.37391 0.9392 0.0
La361 La 0.11472 0.32848 0.92023 0.0
C362 C 0.26995 0.41861 0.94847 0.0
C363 C 0.30515 0.45178 0.93796 0.0
C364 C 0.31321 0.48947 0.94223 0.0
C365 C 0.3489 0.52048 0.93533 0.0
C366 C 0.37744 0.51451 0.92417 0.0
C367 C 0.36884 0.47681 0.91918 0.0
C368 C 0.33323 0.44587 0.92608 0.0
C369 C 0.14516 0.33967 0.97497 0.0
C370 C 0.15698 0.41791 0.91993 0.0
C371 C 0.044 0.28288 0.92429 0.0
C372 C 1.01916 0.2416 0.91923 0.0
C373 C 0.98271 0.228 0.90826 0.0
C374 C 0.95758 0.18868 0.90564 0.0
C375 C 0.96832 0.16213 0.9142 0.0
C376 C 1.00554 0.17597 0.92417 0.0
C377 C 1.03071 0.21526 0.9266 0.0
C378 C 0.16134 0.34898 0.87973 0.0
C379 C 0.16643 0.28894 0.92281 0.0
O380 O 0.24245 0.42404 0.95729 0.0
O381 O 0.25659 0.38619 0.93587 0.0
O382 O 0.17841 0.34211 0.97643 0.0
O383 O 0.14441 0.35682 0.95487 0.0
O384 O 0.18988 0.41783 0.92194 0.0
O385 O 0.123 0.38623 0.92197 0.0
O386 O 0.05924 0.30517 0.90397 0.0
O387 O 0.06851 0.29155 0.94352 0.0
O388 O 0.1242 0.32995 0.87793 0.0
O389 O 0.17005 0.35533 0.90351 0.0
O390 O 0.13132 0.28414 0.92441 0.0
O391 O 0.19757 0.32282 0.92485 0.0
H392 H 0.29245 0.49507 0.95166 0.0
H393 H 0.35465 0.5491 0.93974 0.0
H394 H 0.38986 0.47112 0.91028 0.0
H395 H 0.32813 0.4172 0.92278 0.0
H396 H 0.97332 0.24777 0.90226 0.0
H397 H 0.92943 0.17908 0.89734 0.0
H398 H 1.01475 0.15651 0.93115 0.0
H399 H 0.05878 0.22493 0.93505 0.0
La400 La 0.26431 0.94656 0.66218 0.0
La401 La 0.23448 0.86304 0.64319 0.0
C402 C 0.28527 1.01604 0.65679 0.0
C403 C 0.26874 0.04091 0.66142 0.0
C404 C 0.25657 0.04531 0.6862 0.0
C405 C 0.23879 0.06736 0.68923 0.0
C406 C 0.23239 0.08474 0.66749 0.0
C407 C 0.24485 0.08044 0.64284 0.0
C408 C 0.26303 0.05899 0.63989 0.0
C409 C 0.2345 0.8992 0.70195 0.0
C410 C 0.17473 0.88974 0.65227 0.0
C411 C 0.21587 0.79443 0.63447 0.0
C412 C 0.21421 0.75985 0.64578 0.0
C413 C 0.24182 0.74984 0.63888 0.0
C414 C 0.23683 0.71405 0.64557 0.0
C415 C 0.20393 0.6873 0.65913 0.0
C416 C 0.17711 0.69794 0.66697 0.0
C417 C 0.18214 0.73375 0.66033 0.0
C418 C 0.2583 0.91775 0.60708 0.0
C419 C 0.31697 0.91021 0.66822 0.0
O420 O 0.29514 1.00269 0.67701 0.0
O421 O 0.26739 0.99007 0.63875 0.0
O422 O 0.24931 0.93601 0.70366 0.0
O423 O 0.23685 0.89106 0.67855 0.0
O424 O 0.20329 0.92571 0.65323 0.0
O425 O 0.1807 0.86046 0.65112 0.0
O426 O 0.24951 0.82357 0.62855 0.0
O427 O 0.19255 0.80517 0.64404 0.0
O428 O 0.23037 0.88325 0.60361 0.0
O429 O 0.27202 0.91936 0.62925 0.0
O430 O 0.28565 0.87624 0.66574 0.0
O431 O 0.31672 0.94268 0.66427 0.0
H432 H 0.26037 0.03146 0.70312 0.0
H433 H 0.2295 0.07034 0.70846 0.0
H434 H 0.24097 0.09411 0.62583 0.0
H435 H 0.27222 0.05604 0.62059 0.0
H436 H 0.2665 0.76901 0.62729 0.0
H437 H 0.25785 0.70666 0.63894 0.0
H438 H 0.15172 0.67822 0.67772 0.0
H439 H 0.16005 0.74031 0.66576 0.0
La440 La 0.6801 0.82842 0.93893 0.0
La441 La 0.7299 0.79446 0.91959 0.0
C442 C 0.63302 0.85085 0.94863 0.0
C443 C 0.60199 0.85584 0.93699 0.0
C444 C 0.61059 0.89132 0.92628 0.0
C445 C 0.58128 0.89841 0.91876 0.0
C446 C 0.5426 0.8703 0.92192 0.0
C447 C 0.53398 0.83435 0.93184 0.0
C448 C 0.56334 0.82725 0.93938 0.0
C449 C 0.71326 0.8064 0.97466 0.0
C450 C 0.64016 0.74458 0.91624 0.0
C451 C 0.77551 0.76921 0.92397 0.0
C452 C 0.81652 0.78381 0.91915 0.0
C453 C 0.83061 0.75836 0.91912 0.0
C454 C 0.87012 0.77218 0.91861 0.0
C455 C 0.89631 0.81178 0.91838 0.0
C456 C 0.88192 0.83714 0.91708 0.0
C457 C 0.84235 0.82325 0.91744 0.0
C458 C 0.71071 0.82234 0.87935 0.0
C459 C 0.76561 0.88464 0.92616 0.0
O460 O 0.62623 0.81613 0.95355 0.0
O461 O 0.66778 0.87296 0.93983 0.0
O462 O 0.70909 0.83593 0.97724 0.0
O463 O 0.69814 0.79048 0.95357 0.0
O464 O 0.63881 0.77658 0.91869 0.0
O465 O 0.67257 0.74366 0.91913 0.0
O466 O 0.75323 0.76247 0.90354 0.0
O467 O 0.76824 0.78673 0.9427 0.0
O468 O 0.73163 0.80624 0.87771 0.0
O469 O 0.70202 0.82231 0.90296 0.0
O470 O 0.77229 0.85552 0.92657 0.0
O471 O 0.73059 0.87947 0.92671 0.0
H472 H 0.64003 0.91418 0.92445 0.0
H473 H 0.58898 0.92622 0.91089 0.0
H474 H 0.50451 0.81217 0.93485 0.0
H475 H 0.55568 0.79983 0.94793 0.0
H476 H 0.81111 0.72783 0.9204 0.0
H477 H 0.88017 0.75179 0.91902 0.0
H478 H 0.90117 0.86777 0.91704 0.0
H479 H 0.832 0.84338 0.91749 0.0
H480 H 0.10793 0.17384 0.18295 0.0
H481 H 0.31391 0.22149 0.13056 0.0
H482 H 0.18014 0.27012 0.13388 0.0
H483 H 0.23731 0.11478 0.16854 0.0
H484 H 0.26456 0.23923 0.13236 0.0
H485 H 0.15418 0.1514 0.17885 0.0
C486 C 0.1334 0.19025 0.17128 0.0
C487 C 0.14018 0.22417 0.1589 0.0
C488 C 0.25826 0.21179 0.14019 0.0
C489 C 0.19328 0.19869 0.1543 0.0
C490 C 0.28653 0.2016 0.13919 0.0
C491 C 0.27983 0.16663 0.14954 0.0
C492 C 0.22286 0.18707 0.15184 0.0
C493 C 0.24363 0.14196 0.16026 0.0
C494 C 0.1598 0.17741 0.169 0.0
C495 C 0.17392 0.24434 0.14427 0.0
N496 N 0.21652 0.15281 0.16136 0.0
N497 N 0.19911 0.23134 0.14245 0.0
H498 H 0.1343 0.90844 0.37797 0.0
H499 H 0.92603 0.83813 0.43867 0.0
H500 H 0.11562 0.96594 0.44234 0.0
H501 H 0.95696 0.76665 0.39451 0.0
H502 H 0.99181 0.89206 0.43286 0.0
H503 H 0.06527 0.86331 0.37619 0.0
C504 C 0.11558 0.91194 0.39144 0.0
C505 C 0.13071 0.94067 0.41051 0.0
C506 C 0.98392 0.86458 0.42428 0.0
C507 C 0.05179 0.88906 0.40872 0.0
C508 C 0.94648 0.83398 0.42751 0.0
C509 C 0.93639 0.79787 0.41742 0.0
C510 C 1.01088 0.85896 0.41046 0.0
C511 C 0.96382 0.79388 0.40304 0.0
C512 C 0.07624 0.88606 0.39054 0.0
C513 C 0.10513 0.94375 0.42761 0.0
N514 N 0.99975 0.82396 0.40005 0.0
N515 N 0.06691 0.9181 0.42643 0.0
H516 H 0.85703 0.10344 0.18423 0.0
H517 H 0.89055 0.94025 0.12714 0.0
H518 H 0.95345 0.12941 0.13468 0.0
H519 H 0.81913 0.92462 0.19387 0.0
H520 H 0.91498 1.0093 0.12935 0.0
H521 H 0.84379 0.03791 0.18812 0.0
C522 C 0.87559 0.0953 0.17426 0.0
C523 C 0.9061 0.12168 0.15886 0.0
C524 C 0.89433 0.99079 0.14369 0.0
C525 C 0.89083 0.04633 0.163 0.0
C526 C 0.88018 0.9514 0.14234 0.0
C527 C 0.8525 0.92663 0.16022 0.0
C528 C 0.88026 1.00544 0.16282 0.0
C529 C 0.8405 0.94263 0.17974 0.0
C530 C 0.86811 0.05788 0.17659 0.0
C531 C 0.92958 0.10981 0.14669 0.0
N532 N 0.8541 0.98092 0.18032 0.0
N533 N 0.92107 0.07269 0.14867 0.0
H534 H 0.3083 0.22344 0.45321 0.0
H535 H 0.09256 0.16047 0.41207 0.0
H536 H 0.23162 0.11282 0.41964 0.0
H537 H 0.17346 0.26976 0.4455 0.0
H538 H 0.14099 0.14064 0.41581 0.0
H539 H 0.25707 0.23848 0.45226 0.0
C540 C 0.28057 0.20214 0.44566 0.0
C541 C 0.27446 0.16685 0.43628 0.0
C542 C 0.14797 0.16886 0.42243 0.0
C543 C 0.2151 0.1842 0.43505 0.0
C544 C 0.12044 0.18031 0.42018 0.0
C545 C 0.12882 0.21689 0.42853 0.0
C546 C 0.1842 0.1942 0.43303 0.0
C547 C 0.1653 0.24112 0.43917 0.0
C548 C 0.25118 0.21082 0.44515 0.0
C549 C 0.23764 0.14038 0.42705 0.0
N550 N 0.19151 0.22938 0.44103 0.0
N551 N 0.20936 0.1497 0.42648 0.0
H552 H 0.11572 0.95887 0.19143 0.0
H553 H 0.96277 0.7644 0.12172 0.0
H554 H 0.14336 0.89389 0.13773 0.0
H555 H 0.92827 0.82758 0.17186 0.0
H556 H 1.02903 0.8149 0.12583 0.0
H557 H 0.04719 0.91411 0.18367 0.0
C558 C 0.10744 0.93527 0.17803 0.0
C559 C 0.13542 0.92984 0.16551 0.0
C560 C 1.00715 0.81813 0.13585 0.0
C561 C 0.05731 0.87883 0.15649 0.0
C562 C 0.96921 0.78924 0.13345 0.0
C563 C 0.94008 0.79172 0.14663 0.0
C564 C 1.01644 0.84981 0.15184 0.0
C565 C 0.94999 0.8247 0.16135 0.0
C566 C 0.06836 0.90978 0.17363 0.0
C567 C 0.123 0.89877 0.14837 0.0
N568 N 0.98756 0.8524 0.16385 0.0
N569 N 0.08504 0.87455 0.14445 0.0
H570 H 0.89822 0.93989 0.40985 0.0
H571 H 0.86249 0.1042 0.46267 0.0
H572 H 0.78813 0.92426 0.43303 0.0
H573 H 0.94836 0.13155 0.40353 0.0
H574 H 0.84559 0.03753 0.46039 0.0
H575 H 0.92527 1.00956 0.41309 0.0
C576 C 0.87963 0.95092 0.41542 0.0
C577 C 0.84082 0.92589 0.42157 0.0
C578 C 0.86836 0.05804 0.44801 0.0
C579 C 0.87195 1.00518 0.42597 0.0
C580 C 0.8782 0.09616 0.4494 0.0
C581 C 0.90642 0.12326 0.43295 0.0
C582 C 0.88673 0.04656 0.43 0.0
C583 C 0.92633 0.11138 0.41647 0.0
C584 C 0.89523 0.99063 0.41739 0.0
C585 C 0.81837 0.94204 0.42885 0.0
N586 N 0.91576 0.07354 0.41513 0.0
N587 N 0.83432 0.98044 0.43108 0.0
H588 H 0.17487 0.08303 0.63779 0.0
H589 H 0.21871 0.28625 0.68585 0.0
H590 H 0.24891 0.14111 0.70324 0.0
H591 H 0.11705 0.2134 0.64099 0.0
H592 H 0.229 0.23241 0.69285 0.0
H593 H 0.15159 0.12873 0.63892 0.0
C594 C 0.18588 0.10518 0.65258 0.0
C595 C 0.21415 0.10863 0.67028 0.0
C596 C 0.20418 0.22793 0.6817 0.0
C597 C 0.18792 0.16098 0.67156 0.0
C598 C 0.19842 0.25873 0.67755 0.0
C599 C 0.16729 0.25428 0.6625 0.0
C600 C 0.17908 0.19246 0.67028 0.0
C601 C 0.14151 0.21793 0.65259 0.0
C602 C 0.17245 0.13108 0.65329 0.0
C603 C 0.22711 0.13745 0.68925 0.0
N604 N 0.14835 0.18842 0.65627 0.0
N605 N 0.21433 0.16288 0.68913 0.0
H606 H 0.11349 0.83182 0.95809 0.0
H607 H 0.95682 0.87391 0.89446 0.0
H608 H 0.14491 0.93266 0.91206 0.0
H609 H 0.93156 0.78353 0.94956 0.0
H610 H 1.02552 0.89707 0.90048 0.0
H611 H 0.04666 0.81512 0.95534 0.0
C612 C 0.10632 0.85066 0.94752 0.0
C613 C 0.13483 0.88358 0.93515 0.0
C614 C 1.00486 0.87222 0.91125 0.0
C615 C 0.05779 0.8643 0.93164 0.0
C616 C 0.96564 0.85899 0.90785 0.0
C617 C 0.93822 0.82639 0.92128 0.0
C618 C 1.0167 0.8527 0.92818 0.0
C619 C 0.95143 0.80816 0.93828 0.0
C620 C 0.06803 0.84109 0.94595 0.0
C621 C 0.1238 0.90707 0.92193 0.0
N622 N 0.98956 0.82147 0.94114 0.0
N623 N 0.086 0.89675 0.92027 0.0
H624 H 0.75988 0.95018 0.66297 0.0
H625 H 0.98315 0.10488 0.6662 0.0
H626 H 0.84584 0.91727 0.65137 0.0
H627 H 0.89119 0.13036 0.65942 0.0
H628 H 0.93552 0.03637 0.66486 0.0
H629 H 0.80969 1.01597 0.66676 0.0
C630 C 0.78934 0.95667 0.66113 0.0
C631 C 0.79847 0.92784 0.65645 0.0
C632 C 0.92595 0.05709 0.66377 0.0
C633 C 0.85647 1.00445 0.66089 0.0
C634 C 0.95307 0.09622 0.66444 0.0
C635 C 0.94129 0.12371 0.66308 0.0
C636 C 0.8868 0.0454 0.66187 0.0
C637 C 0.90184 0.11058 0.66113 0.0
C638 C 0.81795 0.99459 0.66333 0.0
C639 C 0.83745 0.93854 0.65479 0.0
N640 N 0.87623 0.07258 0.66061 0.0
N641 N 0.86515 0.97615 0.65689 0.0
H642 H 0.11813 0.21204 0.933 0.0
H643 H 0.27442 0.15823 0.88356 0.0
H644 H 0.22809 0.29144 0.89983 0.0
H645 H 0.17552 0.08049 0.92867 0.0
H646 H 0.25178 0.20405 0.88379 0.0
H647 H 0.13276 0.16018 0.92624 0.0
C648 C 0.14509 0.21848 0.92412 0.0
C649 C 0.17217 0.25617 0.91734 0.0
C650 C 0.23483 0.1769 0.89355 0.0
C651 C 0.1889 0.19738 0.90941 0.0
C652 C 0.24785 0.15075 0.89347 0.0
C653 C 0.22713 0.11566 0.90639 0.0
C654 C 0.20082 0.16813 0.90673 0.0
C655 C 0.19238 0.1072 0.91841 0.0
C656 C 0.15348 0.18898 0.92034 0.0
C657 C 0.20662 0.26297 0.90583 0.0
N658 N 0.18046 0.13341 0.91851 0.0
N659 N 0.21398 0.23399 0.90233 0.0
H660 H 0.14563 0.93911 0.65001 0.0
H661 H 0.93077 0.77082 0.67714 0.0
H662 H 0.11136 0.81992 0.6592 0.0
H663 H 0.9555 0.88177 0.6494 0.0
H664 H 0.99891 0.79186 0.6757 0.0
H665 H 0.07787 0.9219 0.65409 0.0
C666 C 0.12401 0.90944 0.65284 0.0
C667 C 0.13432 0.88095 0.65412 0.0
C668 C 0.98954 0.81171 0.66995 0.0
C669 C 0.05716 0.86125 0.6591 0.0
C670 C 0.95052 0.79964 0.6707 0.0
C671 C 0.93718 0.82434 0.66306 0.0
C672 C 1.01578 0.84891 0.66158 0.0
C673 C 0.96444 0.86176 0.65557 0.0
C674 C 0.08541 0.89966 0.65517 0.0
C675 C 0.10504 0.84297 0.6579 0.0
N676 N 1.00247 0.87288 0.65488 0.0
N677 N 0.06804 0.83435 0.6603 0.0
H678 H 0.9796 0.10103 0.90406 0.0
H679 H 0.75957 0.94832 0.93053 0.0
H680 H 0.89213 0.12784 0.92602 0.0
H681 H 0.84378 0.91332 0.91801 0.0
H682 H 0.80904 1.01413 0.92679 0.0
H683 H 0.93191 0.03266 0.90717 0.0
C684 C 0.95046 0.09265 0.90949 0.0
C685 C 0.93989 0.12043 0.91458 0.0
C686 C 0.81705 0.99231 0.92489 0.0
C687 C 0.88535 0.04238 0.91804 0.0
C688 C 0.7886 0.95435 0.92699 0.0
C689 C 0.79731 0.92486 0.92454 0.0
C690 C 0.85502 1.00156 0.92025 0.0
C691 C 0.83573 0.93507 0.92007 0.0
C692 C 0.9233 0.05363 0.9112 0.0
C693 C 0.90164 0.10776 0.92132 0.0
N694 N 0.86329 0.97271 0.91801 0.0
N695 N 0.87597 0.06987 0.92284 0.0
H696 H 0.3206 0.18188 0.35658 0.0
H697 H 0.4311 0.18523 0.22807 0.0
H698 H 0.42667 0.18014 0.35636 0.0
H699 H 0.31867 0.17319 0.23022 0.0
H700 H 0.44035 0.20477 0.27413 0.0
H701 H 0.33036 0.20075 0.31065 0.0
C702 C 0.34689 0.18728 0.34711 0.0
C703 C 0.37315 0.18004 0.36026 0.0
C704 C 0.41419 0.19922 0.26431 0.0
C705 C 0.38359 0.1995 0.30729 0.0
C706 C 0.40917 0.18861 0.23791 0.0
C707 C 0.37426 0.17811 0.22538 0.0
C708 C 0.38388 0.19891 0.27817 0.0
C709 C 0.34618 0.18157 0.23919 0.0
C710 C 0.35224 0.19752 0.32076 0.0
C711 C 0.40612 0.18615 0.34693 0.0
N712 N 0.35134 0.19113 0.2649 0.0
N713 N 0.41006 0.19477 0.32101 0.0
H714 H 0.80327 0.63546 0.35267 0.0
H715 H 0.90536 0.75097 0.22482 0.0
H716 H 0.89775 0.75101 0.35148 0.0
H717 H 0.80643 0.63806 0.22429 0.0
H718 H 0.91511 0.74353 0.27109 0.0
H719 H 0.81565 0.62819 0.30673 0.0
C720 C 0.82771 0.65869 0.343 0.0
C721 C 0.84985 0.69372 0.35577 0.0
C722 C 0.89193 0.71981 0.26078 0.0
C723 C 0.86334 0.68631 0.30314 0.0
C724 C 0.8867 0.72392 0.23428 0.0
C725 C 0.85541 0.69489 0.2208 0.0
C726 C 0.86493 0.6868 0.27407 0.0
C727 C 0.83129 0.66082 0.23402 0.0
C728 C 0.83452 0.65474 0.31671 0.0
C729 C 0.88038 0.72341 0.34228 0.0
N730 N 0.83607 0.65797 0.26009 0.0
N731 N 0.8859 0.71923 0.31661 0.0
H732 H 0.87086 0.24844 0.21969 0.0
H733 H 0.8778 0.16403 0.35954 0.0
H734 H 0.91014 0.16828 0.23298 0.0
H735 H 0.88579 0.27331 0.34713 0.0
H736 H 0.86415 0.14988 0.31277 0.0
H737 H 0.85062 0.24149 0.26556 0.0
C738 C 0.87353 0.22804 0.23198 0.0
C739 C 0.89187 0.20866 0.2227 0.0
C740 C 0.86773 0.17645 0.32047 0.0
C741 C 0.86968 0.20114 0.27499 0.0
C742 C 0.87515 0.18436 0.34715 0.0
C743 C 0.88304 0.21994 0.35703 0.0
C744 C 0.86782 0.20419 0.30379 0.0
C745 C 0.87995 0.2456 0.34014 0.0
C746 C 0.86244 0.22441 0.25818 0.0
C747 C 0.89581 0.18346 0.23951 0.0
N748 N 0.873 0.23743 0.31429 0.0
N749 N 0.88521 0.18069 0.26493 0.0
H750 H 0.19491 0.41854 0.72467 0.0
H751 H 0.18789 0.30826 0.8542 0.0
H752 H 0.1818 0.30611 0.72709 0.0
H753 H 0.18776 0.41474 0.85227 0.0
H754 H 0.20721 0.31701 0.80829 0.0
H755 H 0.21376 0.42738 0.77083 0.0
C756 C 0.19783 0.39647 0.73466 0.0
C757 C 0.18733 0.36177 0.72214 0.0
C758 C 0.20424 0.33917 0.81806 0.0
C759 C 0.20713 0.37081 0.77509 0.0
C760 C 0.19369 0.33437 0.84435 0.0
C761 C 0.18678 0.36109 0.85696 0.0
C762 C 0.20703 0.37053 0.80418 0.0
C763 C 0.19343 0.39383 0.84322 0.0
C764 C 0.20808 0.40126 0.76109 0.0
C765 C 0.19025 0.33348 0.73607 0.0
N766 N 0.20253 0.39734 0.81743 0.0
N767 N 0.19928 0.33835 0.76191 0.0
H768 H 0.1641 0.86832 0.85632 0.0
H769 H 0.26866 0.86404 0.7266 0.0
H770 H 0.27065 0.86759 0.85509 0.0
H771 H 0.17131 0.88097 0.73026 0.0
H772 H 0.25817 0.84371 0.7725 0.0
H773 H 0.15433 0.8503 0.8102 0.0
C774 C 0.18452 0.8625 0.84658 0.0
C775 C 0.21791 0.86887 0.85951 0.0
C776 C 0.23827 0.85056 0.76303 0.0
C777 C 0.20822 0.85044 0.80634 0.0
C778 C 0.24398 0.86167 0.73675 0.0
C779 C 0.22051 0.87373 0.72471 0.0
C780 C 0.20904 0.85185 0.77725 0.0
C781 C 0.18973 0.87146 0.73886 0.0
C782 C 0.17928 0.85277 0.82013 0.0
C783 C 0.24418 0.86225 0.84584 0.0
N784 N 0.18517 0.86128 0.76444 0.0
N785 N 0.23922 0.85418 0.81982 0.0
H786 H 0.6421 0.7891 0.72296 0.0
H787 H 0.75259 0.88914 0.85388 0.0
H788 H 0.75688 0.88507 0.72714 0.0
H789 H 0.64464 0.78388 0.85143 0.0
H790 H 0.74467 0.89986 0.80784 0.0
H791 H 0.63314 0.79843 0.76926 0.0
C792 C 0.66473 0.81325 0.73336 0.0
C793 C 0.7001 0.83668 0.72131 0.0
C794 C 0.72202 0.87499 0.81749 0.0
C795 C 0.69073 0.84675 0.77429 0.0
C796 C 0.72634 0.86918 0.84387 0.0
C797 C 0.69895 0.83591 0.85643 0.0
C798 C 0.6905 0.84678 0.8034 0.0
C799 C 0.66605 0.81023 0.84245 0.0
C800 C 0.65983 0.81829 0.75985 0.0
C801 C 0.72902 0.86674 0.73575 0.0
N802 N 0.66303 0.81582 0.81653 0.0
N803 N 0.72391 0.87062 0.76154 0.0
H804 H 0.32066 0.98821 0.97058 0.0
H805 H 0.35734 0.05812 0.11397 0.0
H806 H 0.23544 0.91685 1.0269 0.0
H807 H 0.34564 0.13113 0.05774 0.0
H808 H 0.32873 1.0053 0.08234 0.0
H809 H 0.34664 0.04109 1.00218 0.0
C810 C 0.30714 0.98374 0.98948 0.0
C811 C 0.275 0.94837 0.9958 0.0
C812 C 0.33234 0.03289 0.07707 0.0
C813 C 0.3061 1.00805 1.03244 0.0
C814 C 0.3484 0.06297 0.09509 0.0
C815 C 0.35271 0.09879 0.08881 0.0
C816 C 0.3222 0.03914 0.05214 0.0
C817 C 0.34226 0.10384 0.06357 0.0
C818 C 0.32215 1.01385 1.00748 0.0
C819 C 0.25981 0.94379 1.02105 0.0
N820 N 0.32781 0.07445 0.04604 0.0
N821 N 0.27572 0.97317 1.03856 0.0
H822 H 0.75456 0.68098 0.48737 0.0
H823 H 0.77536 0.85584 0.56903 0.0
H824 H 0.86825 0.77314 0.505 0.0
H825 H 0.69724 0.73998 0.59266 0.0
H826 H 0.80553 0.83149 0.53831 0.0
H827 H 0.72813 0.7074 0.51882 0.0
C828 C 0.77397 0.70676 0.49796 0.0
C829 C 0.81368 0.72469 0.49382 0.0
C830 C 0.78179 0.81157 0.55029 0.0
C831 C 0.78345 0.75572 0.52921 0.0
C832 C 0.76443 0.82535 0.5676 0.0
C833 C 0.73371 0.79983 0.5833 0.0
C834 C 0.76746 0.772 0.54817 0.0
C835 C 0.72082 0.76062 0.58089 0.0
C836 C 0.75887 0.72179 0.51585 0.0
C837 C 0.83752 0.75823 0.50791 0.0
N838 N 0.73739 0.74789 0.56347 0.0
N839 N 0.822 0.773 0.5248 0.0
H840 H 0.1247 0.27759 1.00704 0.0
H841 H 0.97818 0.30622 0.09247 0.0
H842 H 0.09376 0.3623 0.98674 0.0
H843 H 0.94931 0.19158 0.07137 0.0
H844 H 1.03097 0.33131 0.06099 0.0
H845 H 0.07033 0.24902 1.03792 0.0
C846 C 0.10669 0.29031 1.00925 0.0
C847 C 0.11374 0.3224 0.99442 0.0
C848 C 1.01305 0.30067 0.06322 0.0
C849 C 0.05236 0.29047 1.02977 0.0
C850 C 0.98296 0.28633 0.08115 0.0
C851 C 0.95912 0.24677 0.0843 0.0
C852 C 1.02026 0.27537 0.04884 0.0
C853 C 0.96678 0.22227 0.06925 0.0
C854 C 0.07562 0.27387 1.02665 0.0
C855 C 0.08934 0.33759 0.99781 0.0
N856 N 0.99702 0.23696 0.05234 0.0
N857 N 0.06012 0.32184 1.01532 0.0
H858 H 0.3585 0.0631 0.47184 0.0
H859 H 0.32204 0.98844 0.61199 0.0
H860 H 0.33682 0.13111 0.52662 0.0
H861 H 0.23225 0.91854 0.55744 0.0
H862 H 0.3465 0.04162 0.58082 0.0
H863 H 0.33041 1.00947 0.50272 0.0
C864 C 0.34756 0.06669 0.49026 0.0
C865 C 0.34895 0.10132 0.49633 0.0
C866 C 0.32138 1.01463 0.57582 0.0
C867 C 0.31878 0.04076 0.53212 0.0
C868 C 0.30728 0.98431 0.59353 0.0
C869 C 0.27428 0.9493 0.58764 0.0
C870 C 0.30349 1.00941 0.5515 0.0
C871 C 0.25734 0.94521 0.56296 0.0
C872 C 0.3317 0.03613 0.50782 0.0
C873 C 0.33575 0.10476 0.52096 0.0
N874 N 0.27235 0.97483 0.54565 0.0
N875 N 0.32154 0.07496 0.53811 0.0
H876 H 0.86542 0.75965 0.06997 0.0
H877 H 0.69237 0.73219 0.98313 0.0
H878 H 0.74993 0.67558 0.09109 0.0
H879 H 0.77269 0.84623 1.00936 0.0
H880 H 0.72029 0.70664 1.01434 0.0
H881 H 0.83925 0.78828 1.0393 0.0
C882 C 0.83464 0.74703 0.06792 0.0
C883 C 0.80973 0.71512 0.08292 0.0
C884 C 0.73177 0.73725 1.01323 0.0
C885 C 0.7799 0.74709 0.04783 0.0
C886 C 0.71593 0.75184 0.99547 0.0
C887 C 0.73003 0.79134 0.99389 0.0
C888 C 0.76282 0.76234 1.02893 0.0
C889 C 0.76076 0.81557 1.01023 0.0
C890 C 0.81982 0.76352 0.05067 0.0
C891 C 0.77007 0.7001 0.07982 0.0
N892 N 0.77651 0.80072 1.02692 0.0
N893 N 0.75638 0.71585 0.06239 0.0
H894 H 0.09876 0.36669 0.59086 0.0
H895 H 0.94853 0.19118 0.50683 0.0
H896 H 0.12197 0.27581 0.57333 0.0
H897 H 0.98092 0.30689 0.48618 0.0
H898 H 1.0032 0.21627 0.53763 0.0
H899 H 0.0462 0.33996 0.55897 0.0
C900 C 0.09277 0.34109 0.58024 0.0
C901 C 0.11492 0.32359 0.58455 0.0
C902 C 0.99822 0.23602 0.52628 0.0
C903 C 0.0541 0.29229 0.54854 0.0
C904 C 0.96698 0.22179 0.50891 0.0
C905 C 0.96016 0.24704 0.49406 0.0
C906 C 1.02196 0.27572 0.52933 0.0
C907 C 0.98513 0.28644 0.49728 0.0
C908 C 0.06284 0.32591 0.56206 0.0
C909 C 0.10579 0.29034 0.57035 0.0
N910 N 1.01455 0.29955 0.51476 0.0
N911 N 0.07573 0.27544 0.55315 0.0
H912 H 0.67626 0.2195 0.18299 0.0
H913 H 0.4501 0.08177 0.16116 0.0
H914 H 0.62674 0.10658 0.14941 0.0
H915 H 0.50186 0.19824 0.18852 0.0
H916 H 0.51349 0.08686 0.16223 0.0
H917 H 0.61171 0.20924 0.18983 0.0
C918 C 0.65186 0.19253 0.17706 0.0
C919 C 0.65714 0.16399 0.16546 0.0
C920 C 0.51084 0.11114 0.16828 0.0
C921 C 0.58283 0.15185 0.17347 0.0
C922 C 0.4746 0.10813 0.16786 0.0
C923 C 0.47066 0.13971 0.17453 0.0
C924 C 0.5433 0.14592 0.17551 0.0
C925 C 0.50352 0.17325 0.18291 0.0
C926 C 0.61493 0.18658 0.18112 0.0
C927 C 0.62423 0.12932 0.15866 0.0
N928 N 0.53837 0.17554 0.18296 0.0
N929 N 0.58858 0.12433 0.1626 0.0
H930 H 0.75921 0.56439 0.40295 0.0
H931 H 0.54162 0.43356 0.44555 0.0
H932 H 0.68786 0.61021 0.42801 0.0
H933 H 0.60464 0.38948 0.40434 0.0
H934 H 0.59439 0.49851 0.43836 0.0
H935 H 0.70283 0.50051 0.40214 0.0
C936 C 0.73162 0.5611 0.40808 0.0
C937 C 0.72835 0.59276 0.41577 0.0
C938 C 0.59662 0.47472 0.43066 0.0
C939 C 0.66361 0.51941 0.41508 0.0
C940 C 0.56659 0.43762 0.43488 0.0
C941 C 0.56896 0.40607 0.42577 0.0
C942 C 0.62962 0.48047 0.41749 0.0
C943 C 0.60167 0.413 0.41169 0.0
C944 C 0.69939 0.52455 0.40755 0.0
C945 C 0.69177 0.58669 0.42198 0.0
N946 N 0.63094 0.44945 0.40825 0.0
N947 N 0.66092 0.55068 0.4218 0.0
H948 H 0.97409 0.37211 0.15687 0.0
H949 H 0.82725 0.45136 0.16941 0.0
H950 H 0.85296 0.30107 0.17202 0.0
H951 H 0.94768 0.52325 0.1526 0.0
H952 H 0.83727 0.39662 0.17334 0.0
H953 H 0.96636 0.42859 0.15865 0.0
C954 C 0.94599 0.36836 0.16085 0.0
C955 C 0.91413 0.33166 0.16412 0.0
C956 C 0.86158 0.42442 0.16893 0.0
C957 C 0.905 0.39619 0.16599 0.0
C958 C 0.85581 0.45568 0.16656 0.0
C959 C 0.8866 0.49206 0.16059 0.0
C960 C 0.89841 0.42935 0.1652 0.0
C961 C 0.92312 0.49591 0.15753 0.0
C962 C 0.94156 0.40063 0.16176 0.0
C963 C 0.87838 0.32867 0.16916 0.0
N964 N 0.92795 0.46498 0.15972 0.0
N965 N 0.87479 0.36038 0.16979 0.0
H966 H 0.49856 0.20104 0.39732 0.0
H967 H 0.62502 0.11047 0.44487 0.0
H968 H 0.4495 0.08704 0.42868 0.0
H969 H 0.67189 0.21888 0.40529 0.0
H970 H 0.56043 0.09982 0.43713 0.0
H971 H 0.56152 0.20603 0.3973 0.0
C972 C 0.50094 0.17679 0.40389 0.0
C973 C 0.46866 0.14363 0.4132 0.0
C974 C 0.58479 0.12583 0.42997 0.0
C975 C 0.54113 0.14944 0.4136 0.0
C976 C 0.62176 0.1321 0.43456 0.0
C977 C 0.65409 0.16588 0.426 0.0
C978 C 0.5799 0.15362 0.41683 0.0
C979 C 0.64792 0.19241 0.41222 0.0
C980 C 0.537 0.17971 0.40391 0.0
C981 C 0.47353 0.11309 0.42129 0.0
N982 N 0.61163 0.18588 0.40828 0.0
N983 N 0.50918 0.11693 0.42164 0.0
H984 H 0.61181 0.38747 0.18175 0.0
H985 H 0.68744 0.60959 0.15546 0.0
H986 H 0.53973 0.43029 0.15245 0.0
H987 H 0.75922 0.56417 0.18073 0.0
H988 H 0.63122 0.54541 0.1593 0.0
H989 H 0.66454 0.45318 0.18611 0.0
C990 C 0.60702 0.41069 0.17631 0.0
C991 C 0.57131 0.40325 0.16657 0.0
C992 C 0.65928 0.54964 0.16424 0.0
C993 C 0.63164 0.47877 0.17157 0.0
C994 C 0.69134 0.58632 0.16217 0.0
C995 C 0.72817 0.59224 0.16749 0.0
C996 C 0.66413 0.51879 0.17175 0.0
C997 C 0.73149 0.56095 0.17607 0.0
C998 C 0.63711 0.44825 0.1789 0.0
C999 C 0.56664 0.4346 0.16025 0.0
N1000 N 0.7 0.52565 0.17774 0.0
N1001 N 0.59651 0.47093 0.16266 0.0
H1002 H 0.95216 0.53121 0.43336 0.0
H1003 H 0.84835 0.30433 0.41536 0.0
H1004 H 0.83173 0.45988 0.41568 0.0
H1005 H 0.97019 0.37485 0.42863 0.0
H1006 H 0.84256 0.36146 0.41424 0.0
H1007 H 0.96006 0.47513 0.43035 0.0
C1008 C 0.92741 0.50387 0.42855 0.0
C1009 C 0.89116 0.50041 0.42476 0.0
C1010 C 0.87063 0.36458 0.41731 0.0
C1011 C 0.90001 0.43578 0.4217 0.0
C1012 C 0.87402 0.33187 0.41798 0.0
C1013 C 0.90986 0.33467 0.42224 0.0
C1014 C 0.90326 0.40063 0.42104 0.0
C1015 C 0.942 0.37128 0.42531 0.0
C1016 C 0.93195 0.47177 0.42701 0.0
C1017 C 0.8601 0.46397 0.4191 0.0
N1018 N 0.93791 0.40281 0.4248 0.0
N1019 N 0.86523 0.43316 0.41781 0.0
H1020 H 0.255 0.6642 0.67364 0.0
H1021 H 0.10454 0.4407 0.65599 0.0
H1022 H 0.13576 0.61993 0.654 0.0
H1023 H 0.22569 0.4875 0.67034 0.0
H1024 H 0.11359 0.50527 0.65956 0.0
H1025 H 0.24305 0.59879 0.67672 0.0
C1026 C 0.22627 0.64073 0.67005 0.0
C1027 C 0.19642 0.64767 0.66341 0.0
C1028 C 0.13811 0.50129 0.66208 0.0
C1029 C 0.18243 0.57248 0.66697 0.0
C1030 C 0.13293 0.46441 0.66011 0.0
C1031 C 0.16442 0.45862 0.66262 0.0
C1032 C 0.175 0.53253 0.66668 0.0
C1033 C 0.20057 0.4905 0.66796 0.0
C1034 C 0.21941 0.60333 0.6719 0.0
C1035 C 0.1596 0.61601 0.65942 0.0
N1036 N 0.20485 0.52597 0.66968 0.0
N1037 N 0.15371 0.57985 0.66107 0.0
H1038 H 0.32071 0.84709 0.89409 0.0
H1039 H 0.54155 0.93652 0.9324 0.0
H1040 H 0.38921 0.96119 0.92491 0.0
H1041 H 0.47235 0.82415 0.89902 0.0
H1042 H 0.48848 0.94884 0.92589 0.0
H1043 H 0.37799 0.84126 0.89149 0.0
C1044 C 0.34796 0.87116 0.90004 0.0
C1045 C 0.35009 0.90457 0.91 0.0
C1046 C 0.48502 0.92162 0.91977 0.0
C1047 C 0.41602 0.89785 0.90737 0.0
C1048 C 0.51541 0.9146 0.92335 0.0
C1049 C 0.51144 0.87911 0.91636 0.0
C1050 C 0.45025 0.89295 0.90917 0.0
C1051 C 0.47658 0.85166 0.90511 0.0
C1052 C 0.38071 0.86778 0.89857 0.0
C1053 C 0.38626 0.93493 0.91713 0.0
N1054 N 0.44735 0.85909 0.90201 0.0
N1055 N 0.41776 0.93066 0.91601 0.0
H1056 H 0.5729 0.73875 0.67724 0.0
H1057 H 0.44937 0.51994 0.63445 0.0
H1058 H 0.62358 0.67355 0.64857 0.0
H1059 H 0.401 0.58124 0.6728 0.0
H1060 H 0.5135 0.57482 0.64109 0.0
H1061 H 0.51038 0.68059 0.67786 0.0
C1062 C 0.57098 0.7121 0.67128 0.0
C1063 C 0.60361 0.71115 0.66263 0.0
C1064 C 0.48893 0.57622 0.64824 0.0
C1065 C 0.53165 0.64422 0.66306 0.0
C1066 C 0.45223 0.54496 0.64431 0.0
C1067 C 0.41962 0.54609 0.65281 0.0
C1068 C 0.49326 0.60916 0.66063 0.0
C1069 C 0.42524 0.57902 0.66595 0.0
C1070 C 0.53517 0.67883 0.67166 0.0
C1071 C 0.59927 0.67567 0.65539 0.0
N1072 N 0.46127 0.60934 0.66922 0.0
N1073 N 0.56389 0.64371 0.65547 0.0
H1074 H 0.24105 0.66072 0.90311 0.0
H1075 H 0.10079 0.43656 0.92851 0.0
H1076 H 0.13418 0.61484 0.94485 0.0
H1077 H 0.21853 0.48516 0.90392 0.0
H1078 H 0.10813 0.5006 0.92744 0.0
H1079 H 0.22871 0.59538 0.89611 0.0
C1080 C 0.21481 0.6369 0.91053 0.0
C1081 C 0.18884 0.64326 0.92485 0.0
C1082 C 0.13223 0.49714 0.92207 0.0
C1083 C 0.17451 0.5685 0.91696 0.0
C1084 C 0.12799 0.46055 0.92255 0.0
C1085 C 0.15916 0.45546 0.91653 0.0
C1086 C 0.16779 0.52882 0.9153 0.0
C1087 C 0.1938 0.48771 0.909 0.0
C1088 C 0.20786 0.59964 0.90666 0.0
C1089 C 0.15532 0.61129 0.9341 0.0
N1090 N 0.19721 0.52295 0.9087 0.0
N1091 N 0.14919 0.57538 0.93009 0.0
H1092 H 0.39028 0.96677 0.65648 0.0
H1093 H 0.4798 0.83155 0.68459 0.0
H1094 H 0.32679 0.85393 0.68987 0.0
H1095 H 0.53503 0.93352 0.63752 0.0
H1096 H 0.4281 0.8452 0.69397 0.0
H1097 H 0.44821 0.96105 0.65703 0.0
C1098 C 0.38869 0.94116 0.66444 0.0
C1099 C 0.35357 0.91065 0.67289 0.0
C1100 C 0.45169 0.86473 0.68174 0.0
C1101 C 0.41954 0.90373 0.67336 0.0
C1102 C 0.48128 0.85703 0.67649 0.0
C1103 C 0.51153 0.88113 0.65996 0.0
C1104 C 0.45246 0.89694 0.67056 0.0
C1105 C 0.51188 0.91372 0.64993 0.0
C1106 C 0.42168 0.93777 0.66455 0.0
C1107 C 0.35316 0.87801 0.68286 0.0
N1108 N 0.48274 0.92055 0.65526 0.0
N1109 N 0.3855 0.8753 0.68263 0.0
H1110 H 0.62376 0.67016 0.92287 0.0
H1111 H 0.39737 0.58541 0.90452 0.0
H1112 H 0.57194 0.73735 0.90059 0.0
H1113 H 0.44697 0.51855 0.93216 0.0
H1114 H 0.46189 0.63987 0.89874 0.0
H1115 H 0.56013 0.61257 0.92151 0.0
C1116 C 0.59917 0.67276 0.91732 0.0
C1117 C 0.60323 0.70872 0.91207 0.0
C1118 C 0.4587 0.61321 0.90592 0.0
C1119 C 0.53034 0.64308 0.91069 0.0
C1120 C 0.4218 0.58213 0.90936 0.0
C1121 C 0.41658 0.54729 0.91897 0.0
C1122 C 0.49082 0.60965 0.91221 0.0
C1123 C 0.44948 0.54465 0.92445 0.0
C1124 C 0.56281 0.63991 0.91668 0.0
C1125 C 0.57025 0.71034 0.90507 0.0
N1126 N 0.48512 0.57543 0.92115 0.0
N1127 N 0.5353 0.67812 0.90476 0.0
loop_
_geom_bond_atom_site_label_1
_geom_bond_atom_site_label_2
_geom_bond_distance
_geom_bond_site_symmetry_2
_ccdc_geom_bond_type
La0 C2 2.928 . S
La0 O20 2.521 . S
La0 O21 2.628 . S
La0 O22 2.554 . S
La0 O23 2.757 . S
La0 O24 2.470 . S
La0 O29 2.482 . S
La0 O31 2.503 . S
La1 C11 2.928 . S
La1 O23 2.482 . S
La1 O25 2.503 . S
La1 O26 2.521 . S
La1 O27 2.628 . S
La1 O28 2.554 . S
La1 O29 2.757 . S
La1 O30 2.470 . S
C2 La0 2.928 . S
C2 C3 1.503 . S
C2 O20 1.261 . S
C2 O21 1.243 . S
C3 C2 1.503 . S
C3 C4 1.394 . S
C3 C8 1.373 . S
C4 C3 1.394 . S
C4 C5 1.380 . S
C4 H32 0.930 . S
C5 C4 1.380 . S
C5 C6 1.376 . S
C5 H33 0.930 . S
C6 C5 1.376 . S
C6 C7 1.370 . S
C7 C6 1.370 . S
C7 C8 1.396 . S
C7 H34 0.929 . S
C8 C3 1.373 . S
C8 C7 1.396 . S
C8 H35 0.929 . S
C9 O22 1.240 . S
C9 O23 1.289 . S
C10 O24 1.258 . S
C10 O25 1.256 . S
C11 La1 2.928 . S
C11 C12 1.503 1_545 S
C11 O26 1.261 . S
C11 O27 1.243 . S
C12 C11 1.503 1_565 S
C12 C13 1.394 . S
C12 C17 1.373 . S
C13 C12 1.394 . S
C13 C14 1.380 . S
C13 H36 0.930 . S
C14 C13 1.380 . S
C14 C15 1.376 . S
C14 H37 0.930 . S
C15 C14 1.376 . S
C15 C16 1.370 . S
C16 C15 1.370 . S
C16 C17 1.396 . S
C16 H38 0.929 . S
C17 C12 1.373 . S
C17 C16 1.396 . S
C17 H39 0.929 . S
C18 O28 1.240 . S
C18 O29 1.289 . S
C19 O30 1.258 . S
C19 O31 1.256 . S
O20 La0 2.521 . S
O20 C2 1.261 . S
O21 La0 2.628 . S
O21 C2 1.243 . S
O22 La0 2.554 . S
O22 C9 1.240 . S
O23 La0 2.757 . S
O23 La1 2.482 . S
O23 C9 1.289 . S
O24 La0 2.470 . S
O24 C10 1.258 . S
O25 La1 2.503 . S
O25 C10 1.256 . S
O26 La1 2.521 . S
O26 C11 1.261 . S
O27 La1 2.628 . S
O27 C11 1.243 . S
O28 La1 2.554 . S
O28 C18 1.240 . S
O29 La0 2.482 . S
O29 La1 2.757 . S
O29 C18 1.289 . S
O30 La1 2.470 . S
O30 C19 1.258 . S
O31 La0 2.503 . S
O31 C19 1.256 . S
H32 C4 0.930 . S
H33 C5 0.930 . S
H34 C7 0.929 . S
H35 C8 0.929 . S
H36 C13 0.930 . S
H37 C14 0.930 . S
H38 C16 0.929 . S
H39 C17 0.929 . S
La40 C42 2.928 . S
La40 O60 2.521 . S
La40 O61 2.628 . S
La40 O62 2.554 . S
La40 O63 2.757 . S
La40 O64 2.470 . S
La40 O69 2.482 . S
La40 O71 2.503 . S
La41 C51 2.928 . S
La41 O63 2.482 . S
La41 O65 2.503 . S
La41 O66 2.521 . S
La41 O67 2.628 . S
La41 O68 2.554 . S
La41 O69 2.757 . S
La41 O70 2.470 . S
C42 La40 2.928 . S
C42 C43 1.503 . S
C42 O60 1.261 . S
C42 O61 1.243 . S
C43 C42 1.503 . S
C43 C44 1.394 . S
C43 C48 1.373 . S
C44 C43 1.394 . S
C44 C45 1.380 . S
C44 H72 0.930 . S
C45 C44 1.380 . S
C45 C46 1.376 . S
C45 H73 0.930 . S
C46 C45 1.376 . S
C46 C47 1.370 . S
C47 C46 1.370 . S
C47 C48 1.396 . S
C47 H74 0.929 . S
C48 C43 1.373 . S
C48 C47 1.396 . S
C48 H75 0.929 . S
C49 O62 1.240 . S
C49 O63 1.289 . S
C50 O64 1.258 . S
C50 O65 1.256 . S
C51 La41 2.928 . S
C51 C52 1.503 . S
C51 O66 1.261 . S
C51 O67 1.243 . S
C52 C51 1.503 . S
C52 C53 1.394 . S
C52 C57 1.373 . S
C53 C52 1.394 . S
C53 C54 1.380 . S
C53 H76 0.930 . S
C54 C53 1.380 . S
C54 C55 1.376 . S
C54 H77 0.930 . S
C55 C54 1.376 . S
C55 C56 1.370 . S
C56 C55 1.370 . S
C56 C57 1.396 . S
C56 H78 0.929 . S
C57 C52 1.373 . S
C57 C56 1.396 . S
C57 H79 0.929 . S
C58 O68 1.240 . S
C58 O69 1.289 . S
C59 O70 1.258 . S
C59 O71 1.256 . S
O60 La40 2.521 . S
O60 C42 1.261 . S
O61 La40 2.628 . S
O61 C42 1.243 . S
O62 La40 2.554 . S
O62 C49 1.240 . S
O63 La40 2.757 . S
O63 La41 2.482 . S
O63 C49 1.289 . S
O64 La40 2.470 . S
O64 C50 1.258 . S
O65 La41 2.503 . S
O65 C50 1.256 . S
O66 La41 2.521 . S
O66 C51 1.261 . S
O67 La41 2.628 . S
O67 C51 1.243 . S
O68 La41 2.554 . S
O68 C58 1.240 . S
O69 La40 2.482 . S
O69 La41 2.757 . S
O69 C58 1.289 . S
O70 La41 2.470 . S
O70 C59 1.258 . S
O71 La40 2.503 . S
O71 C59 1.256 . S
H72 C44 0.930 . S
H73 C45 0.930 . S
H74 C47 0.929 . S
H75 C48 0.929 . S
H76 C53 0.930 . S
H77 C54 0.930 . S
H78 C56 0.929 . S
H79 C57 0.929 . S
La80 C82 2.928 . S
La80 O100 2.521 . S
La80 O101 2.628 . S
La80 O102 2.554 . S
La80 O103 2.757 . S
La80 O104 2.470 . S
La80 O109 2.482 . S
La80 O111 2.503 . S
La81 C91 2.928 . S
La81 O103 2.482 . S
La81 O105 2.503 . S
La81 O106 2.521 . S
La81 O107 2.628 . S
La81 O108 2.554 . S
La81 O109 2.757 . S
La81 O110 2.470 . S
C82 La80 2.928 . S
C82 C83 1.503 . S
C82 O100 1.261 . S
C82 O101 1.243 . S
C83 C82 1.503 . S
C83 C84 1.394 . S
C83 C88 1.373 . S
C84 C83 1.394 . S
C84 C85 1.380 . S
C84 H112 0.930 . S
C85 C84 1.380 . S
C85 C86 1.376 . S
C85 H113 0.930 . S
C86 C85 1.376 . S
C86 C87 1.370 . S
C87 C86 1.370 . S
C87 C88 1.396 . S
C87 H114 0.929 . S
C88 C83 1.373 . S
C88 C87 1.396 . S
C88 H115 0.929 . S
C89 O102 1.240 . S
C89 O103 1.289 . S
C90 O104 1.258 . S
C90 O105 1.256 . S
C91 La81 2.928 . S
C91 C92 1.503 1_655 S
C91 O106 1.261 . S
C91 O107 1.243 . S
C92 C91 1.503 1_455 S
C92 C93 1.394 . S
C92 C97 1.373 . S
C93 C92 1.394 . S
C93 C94 1.380 . S
C93 H116 0.930 . S
C94 C93 1.380 . S
C94 C95 1.376 . S
C94 H117 0.930 . S
C95 C94 1.376 . S
C95 C96 1.370 . S
C96 C95 1.370 . S
C96 C97 1.396 . S
C96 H118 0.929 . S
C97 C92 1.373 . S
C97 C96 1.396 . S
C97 H119 0.929 . S
C98 O108 1.240 . S
C98 O109 1.289 . S
C99 O110 1.258 . S
C99 O111 1.256 . S
O100 La80 2.521 . S
O100 C82 1.261 . S
O101 La80 2.628 . S
O101 C82 1.243 . S
O102 La80 2.554 . S
O102 C89 1.240 . S
O103 La80 2.757 . S
O103 La81 2.482 . S
O103 C89 1.289 . S
O104 La80 2.470 . S
O104 C90 1.258 . S
O105 La81 2.503 . S
O105 C90 1.256 . S
O106 La81 2.521 . S
O106 C91 1.261 . S
O107 La81 2.628 . S
O107 C91 1.243 . S
O108 La81 2.554 . S
O108 C98 1.240 . S
O109 La80 2.482 . S
O109 La81 2.757 . S
O109 C98 1.289 . S
O110 La81 2.470 . S
O110 C99 1.258 . S
O111 La80 2.503 . S
O111 C99 1.256 . S
H112 C84 0.930 . S
H113 C85 0.930 . S
H114 C87 0.929 . S
H115 C88 0.929 . S
H116 C93 0.930 . S
H117 C94 0.930 . S
H118 C96 0.929 . S
H119 C97 0.929 . S
La120 C122 2.928 . S
La120 O140 2.521 . S
La120 O141 2.628 . S
La120 O142 2.554 . S
La120 O143 2.757 . S
La120 O144 2.470 . S
La120 O149 2.482 . S
La120 O151 2.503 . S
La121 C131 2.928 . S
La121 O143 2.482 . S
La121 O145 2.503 . S
La121 O146 2.521 . S
La121 O147 2.628 . S
La121 O148 2.554 . S
La121 O149 2.757 . S
La121 O150 2.470 . S
C122 La120 2.928 . S
C122 C123 1.503 1_545 S
C122 O140 1.261 . S
C122 O141 1.243 . S
C123 C122 1.503 1_565 S
C123 C124 1.394 . S
C123 C128 1.373 . S
C124 C123 1.394 . S
C124 C125 1.380 . S
C124 H152 0.930 . S
C125 C124 1.380 . S
C125 C126 1.376 . S
C125 H153 0.930 . S
C126 C125 1.376 . S
C126 C127 1.370 . S
C127 C126 1.370 . S
C127 C128 1.396 . S
C127 H154 0.929 . S
C128 C123 1.373 . S
C128 C127 1.396 . S
C128 H155 0.929 . S
C129 O142 1.240 . S
C129 O143 1.289 . S
C130 O144 1.258 . S
C130 O145 1.256 . S
C131 La121 2.928 . S
C131 C132 1.503 . S
C131 O146 1.261 . S
C131 O147 1.243 . S
C132 C131 1.503 . S
C132 C133 1.394 . S
C132 C137 1.373 . S
C133 C132 1.394 . S
C133 C134 1.380 . S
C133 H156 0.930 . S
C134 C133 1.380 . S
C134 C135 1.376 . S
C134 H157 0.930 . S
C135 C134 1.376 . S
C135 C136 1.370 . S
C136 C135 1.370 . S
C136 C137 1.396 . S
C136 H158 0.929 . S
C137 C132 1.373 . S
C137 C136 1.396 . S
C137 H159 0.929 . S
C138 O148 1.240 . S
C138 O149 1.289 . S
C139 O150 1.258 . S
C139 O151 1.256 . S
O140 La120 2.521 . S
O140 C122 1.261 . S
O141 La120 2.628 . S
O141 C122 1.243 . S
O142 La120 2.554 . S
O142 C129 1.240 . S
O143 La120 2.757 . S
O143 La121 2.482 . S
O143 C129 1.289 . S
O144 La120 2.470 . S
O144 C130 1.258 . S
O145 La121 2.503 . S
O145 C130 1.256 . S
O146 La121 2.521 . S
O146 C131 1.261 . S
O147 La121 2.628 . S
O147 C131 1.243 . S
O148 La121 2.554 . S
O148 C138 1.240 . S
O149 La120 2.482 . S
O149 La121 2.757 . S
O149 C138 1.289 . S
O150 La121 2.470 . S
O150 C139 1.258 . S
O151 La120 2.503 . S
O151 C139 1.256 . S
H152 C124 0.930 . S
H153 C125 0.930 . S
H154 C127 0.929 . S
H155 C128 0.929 . S
H156 C133 0.930 . S
H157 C134 0.930 . S
H158 C136 0.929 . S
H159 C137 0.929 . S
La160 C162 2.928 . S
La160 O180 2.521 . S
La160 O181 2.628 . S
La160 O182 2.554 . S
La160 O183 2.757 . S
La160 O184 2.470 . S
La160 O189 2.482 . S
La160 O191 2.503 . S
La161 C171 2.928 . S
La161 O183 2.482 . S
La161 O185 2.503 . S
La161 O186 2.521 . S
La161 O187 2.628 . S
La161 O188 2.554 . S
La161 O189 2.757 . S
La161 O190 2.470 . S
C162 La160 2.928 . S
C162 C163 1.503 . S
C162 O180 1.261 . S
C162 O181 1.243 . S
C163 C162 1.503 . S
C163 C164 1.394 . S
C163 C168 1.373 . S
C164 C163 1.394 . S
C164 C165 1.380 . S
C164 H192 0.930 . S
C165 C164 1.380 . S
C165 C166 1.376 . S
C165 H193 0.930 . S
C166 C165 1.376 . S
C166 C167 1.370 . S
C167 C166 1.370 . S
C167 C168 1.396 . S
C167 H194 0.929 . S
C168 C163 1.373 . S
C168 C167 1.396 . S
C168 H195 0.929 . S
C169 O182 1.240 . S
C169 O183 1.289 . S
C170 O184 1.258 . S
C170 O185 1.256 . S
C171 La161 2.928 . S
C171 C172 1.503 . S
C171 O186 1.261 . S
C171 O187 1.243 . S
C172 C171 1.503 . S
C172 C173 1.394 . S
C172 C177 1.373 . S
C173 C172 1.394 . S
C173 C174 1.380 . S
C173 H196 0.930 . S
C174 C173 1.380 . S
C174 C175 1.376 . S
C174 H197 0.930 . S
C175 C174 1.376 . S
C175 C176 1.370 . S
C176 C175 1.370 . S
C176 C177 1.396 . S
C176 H198 0.929 . S
C177 C172 1.373 . S
C177 C176 1.396 . S
C177 H199 0.929 . S
C178 O188 1.240 . S
C178 O189 1.289 . S
C179 O190 1.258 . S
C179 O191 1.256 . S
O180 La160 2.521 . S
O180 C162 1.261 . S
O181 La160 2.628 . S
O181 C162 1.243 . S
O182 La160 2.554 . S
O182 C169 1.240 . S
O183 La160 2.757 . S
O183 La161 2.482 . S
O183 C169 1.289 . S
O184 La160 2.470 . S
O184 C170 1.258 . S
O185 La161 2.503 . S
O185 C170 1.256 . S
O186 La161 2.521 . S
O186 C171 1.261 . S
O187 La161 2.628 . S
O187 C171 1.243 . S
O188 La161 2.554 . S
O188 C178 1.240 . S
O189 La160 2.482 . S
O189 La161 2.757 . S
O189 C178 1.289 . S
O190 La161 2.470 . S
O190 C179 1.258 . S
O191 La160 2.503 . S
O191 C179 1.256 . S
H192 C164 0.930 . S
H193 C165 0.930 . S
H194 C167 0.929 . S
H195 C168 0.929 . S
H196 C173 0.930 . S
H197 C174 0.930 . S
H198 C176 0.929 . S
H199 C177 0.929 . S
La200 C202 2.928 . S
La200 O220 2.521 . S
La200 O221 2.628 . S
La200 O222 2.554 . S
La200 O223 2.757 . S
La200 O224 2.470 . S
La200 O229 2.482 . S
La200 O231 2.503 . S
La201 C211 2.928 . S
La201 O223 2.482 . S
La201 O225 2.503 . S
La201 O226 2.521 . S
La201 O227 2.628 . S
La201 O228 2.554 . S
La201 O229 2.757 . S
La201 O230 2.470 . S
C202 La200 2.928 . S
C202 C203 1.503 1_655 S
C202 O220 1.261 . S
C202 O221 1.243 . S
C203 C202 1.503 1_455 S
C203 C204 1.394 . S
C203 C208 1.373 . S
C204 C203 1.394 . S
C204 C205 1.380 . S
C204 H232 0.930 . S
C205 C204 1.380 . S
C205 C206 1.376 . S
C205 H233 0.930 . S
C206 C205 1.376 . S
C206 C207 1.370 . S
C207 C206 1.370 . S
C207 C208 1.396 . S
C207 H234 0.929 . S
C208 C203 1.373 . S
C208 C207 1.396 . S
C208 H235 0.929 . S
C209 O222 1.240 . S
C209 O223 1.289 . S
C210 O224 1.258 . S
C210 O225 1.256 . S
C211 La201 2.928 . S
C211 C212 1.503 . S
C211 O226 1.261 . S
C211 O227 1.243 . S
C212 C211 1.503 . S
C212 C213 1.394 . S
C212 C217 1.373 . S
C213 C212 1.394 . S
C213 C214 1.380 . S
C213 H236 0.930 . S
C214 C213 1.380 . S
C214 C215 1.376 . S
C214 H237 0.930 . S
C215 C214 1.376 . S
C215 C216 1.370 . S
C216 C215 1.370 . S
C216 C217 1.396 . S
C216 H238 0.929 . S
C217 C212 1.373 . S
C217 C216 1.396 . S
C217 H239 0.929 . S
C218 O228 1.240 . S
C218 O229 1.289 . S
C219 O230 1.258 . S
C219 O231 1.256 . S
O220 La200 2.521 . S
O220 C202 1.261 . S
O221 La200 2.628 . S
O221 C202 1.243 . S
O222 La200 2.554 . S
O222 C209 1.240 . S
O223 La200 2.757 . S
O223 La201 2.482 . S
O223 C209 1.289 . S
O224 La200 2.470 . S
O224 C210 1.258 . S
O225 La201 2.503 . S
O225 C210 1.256 . S
O226 La201 2.521 . S
O226 C211 1.261 . S
O227 La201 2.628 . S
O227 C211 1.243 . S
O228 La201 2.554 . S
O228 C218 1.240 . S
O229 La200 2.482 . S
O229 La201 2.757 . S
O229 C218 1.289 . S
O230 La201 2.470 . S
O230 C219 1.258 . S
O231 La200 2.503 . S
O231 C219 1.256 . S
H232 C204 0.930 . S
H233 C205 0.930 . S
H234 C207 0.929 . S
H235 C208 0.929 . S
H236 C213 0.930 . S
H237 C214 0.930 . S
H238 C216 0.929 . S
H239 C217 0.929 . S
La240 C242 2.928 . S
La240 O260 2.521 . S
La240 O261 2.628 . S
La240 O262 2.554 . S
La240 O263 2.757 . S
La240 O264 2.470 . S
La240 O269 2.482 . S
La240 O271 2.503 . S
La241 C251 2.928 . S
La241 O263 2.482 . S
La241 O265 2.503 . S
La241 O266 2.521 . S
La241 O267 2.628 . S
La241 O268 2.554 . S
La241 O269 2.757 . S
La241 O270 2.470 . S
C242 La240 2.928 . S
C242 C243 1.503 1_455 S
C242 O260 1.261 . S
C242 O261 1.243 . S
C243 C242 1.503 1_655 S
C243 C244 1.394 . S
C243 C248 1.373 . S
C244 C243 1.394 . S
C244 C245 1.380 . S
C244 H272 0.930 . S
C245 C244 1.380 . S
C245 C246 1.376 . S
C245 H273 0.930 . S
C246 C245 1.376 . S
C246 C247 1.370 . S
C247 C246 1.370 . S
C247 C248 1.396 . S
C247 H274 0.929 . S
C248 C243 1.373 . S
C248 C247 1.396 . S
C248 H275 0.929 . S
C249 O262 1.240 . S
C249 O263 1.289 . S
C250 O264 1.258 . S
C250 O265 1.256 . S
C251 La241 2.928 . S
C251 C252 1.503 . S
C251 O266 1.261 . S
C251 O267 1.243 . S
C252 C251 1.503 . S
C252 C253 1.394 . S
C252 C257 1.373 . S
C253 C252 1.394 . S
C253 C254 1.380 . S
C253 H276 0.930 . S
C254 C253 1.380 . S
C254 C255 1.376 . S
C254 H277 0.930 . S
C255 C254 1.376 . S
C255 C256 1.370 . S
C256 C255 1.370 . S
C256 C257 1.396 . S
C256 H278 0.929 . S
C257 C252 1.373 . S
C257 C256 1.396 . S
C257 H279 0.929 . S
C258 O268 1.240 . S
C258 O269 1.289 . S
C259 O270 1.258 . S
C259 O271 1.256 . S
O260 La240 2.521 . S
O260 C242 1.261 . S
O261 La240 2.628 . S
O261 C242 1.243 . S
O262 La240 2.554 . S
O262 C249 1.240 . S
O263 La240 2.757 . S
O263 La241 2.482 . S
O263 C249 1.289 . S
O264 La240 2.470 . S
O264 C250 1.258 . S
O265 La241 2.503 . S
O265 C250 1.256 . S
O266 La241 2.521 . S
O266 C251 1.261 . S
O267 La241 2.628 . S
O267 C251 1.243 . S
O268 La241 2.554 . S
O268 C258 1.240 . S
O269 La240 2.482 . S
O269 La241 2.757 . S
O269 C258 1.289 . S
O270 La241 2.470 . S
O270 C259 1.258 . S
O271 La240 2.503 . S
O271 C259 1.256 . S
H272 C244 0.930 . S
H273 C245 0.930 . S
H274 C247 0.929 . S
H275 C248 0.929 . S
H276 C253 0.930 . S
H277 C254 0.930 . S
H278 C256 0.929 . S
H279 C257 0.929 . S
La280 C282 2.928 . S
La280 O300 2.521 . S
La280 O301 2.628 . S
La280 O302 2.554 . S
La280 O303 2.757 . S
La280 O304 2.470 . S
La280 O309 2.482 . S
La280 O311 2.503 . S
La281 C291 2.928 . S
La281 O303 2.482 . S
La281 O305 2.503 . S
La281 O306 2.521 . S
La281 O307 2.628 . S
La281 O308 2.554 . S
La281 O309 2.757 . S
La281 O310 2.470 . S
C282 La280 2.928 . S
C282 C283 1.503 . S
C282 O300 1.261 . S
C282 O301 1.243 . S
C283 C282 1.503 . S
C283 C284 1.394 . S
C283 C288 1.373 . S
C284 C283 1.394 . S
C284 C285 1.380 . S
C284 H312 0.930 . S
C285 C284 1.380 . S
C285 C286 1.376 . S
C285 H313 0.930 . S
C286 C285 1.376 . S
C286 C287 1.370 . S
C287 C286 1.370 . S
C287 C288 1.396 . S
C287 H314 0.929 . S
C288 C283 1.373 . S
C288 C287 1.396 . S
C288 H315 0.929 . S
C289 O302 1.240 . S
C289 O303 1.289 . S
C290 O304 1.258 . S
C290 O305 1.256 . S
C291 La281 2.928 . S
C291 C292 1.503 1_565 S
C291 O306 1.261 . S
C291 O307 1.243 . S
C292 C291 1.503 1_545 S
C292 C293 1.394 . S
C292 C297 1.373 . S
C293 C292 1.394 . S
C293 C294 1.380 . S
C293 H316 0.930 . S
C294 C293 1.380 . S
C294 C295 1.376 . S
C294 H317 0.930 . S
C295 C294 1.376 . S
C295 C296 1.370 . S
C296 C295 1.370 . S
C296 C297 1.396 . S
C296 H318 0.929 . S
C297 C292 1.373 . S
C297 C296 1.396 . S
C297 H319 0.929 . S
C298 O308 1.240 . S
C298 O309 1.289 . S
C299 O310 1.258 . S
C299 O311 1.256 . S
O300 La280 2.521 . S
O300 C282 1.261 . S
O301 La280 2.628 . S
O301 C282 1.243 . S
O302 La280 2.554 . S
O302 C289 1.240 . S
O303 La280 2.757 . S
O303 La281 2.482 . S
O303 C289 1.289 . S
O304 La280 2.470 . S
O304 C290 1.258 . S
O305 La281 2.503 . S
O305 C290 1.256 . S
O306 La281 2.521 . S
O306 C291 1.261 . S
O307 La281 2.628 . S
O307 C291 1.243 . S
O308 La281 2.554 . S
O308 C298 1.240 . S
O309 La280 2.482 . S
O309 La281 2.757 . S
O309 C298 1.289 . S
O310 La281 2.470 . S
O310 C299 1.258 . S
O311 La280 2.503 . S
O311 C299 1.256 . S
H312 C284 0.930 . S
H313 C285 0.930 . S
H314 C287 0.929 . S
H315 C288 0.929 . S
H316 C293 0.930 . S
H317 C294 0.930 . S
H318 C296 0.929 . S
H319 C297 0.929 . S
La320 C322 2.928 . S
La320 O340 2.521 . S
La320 O341 2.628 . S
La320 O342 2.554 . S
La320 O343 2.757 . S
La320 O344 2.470 . S
La320 O349 2.482 . S
La320 O351 2.503 . S
La321 C331 2.928 . S
La321 O343 2.482 . S
La321 O345 2.503 . S
La321 O346 2.521 . S
La321 O347 2.628 . S
La321 O348 2.554 . S
La321 O349 2.757 . S
La321 O350 2.470 . S
C322 La320 2.928 . S
C322 C323 1.503 . S
C322 O340 1.261 . S
C322 O341 1.243 . S
C323 C322 1.503 . S
C323 C324 1.394 . S
C323 C328 1.373 . S
C324 C323 1.394 . S
C324 C325 1.380 . S
C324 H352 0.930 . S
C325 C324 1.380 . S
C325 C326 1.376 . S
C325 H353 0.930 . S
C326 C325 1.376 . S
C326 C327 1.370 . S
C327 C326 1.370 . S
C327 C328 1.396 . S
C327 H354 0.929 . S
C328 C323 1.373 . S
C328 C327 1.396 . S
C328 H355 0.929 . S
C329 O342 1.240 . S
C329 O343 1.289 . S
C330 O344 1.258 . S
C330 O345 1.256 . S
C331 La321 2.928 . S
C331 C332 1.503 . S
C331 O346 1.261 . S
C331 O347 1.243 . S
C332 C331 1.503 . S
C332 C333 1.394 . S
C332 C337 1.373 . S
C333 C332 1.394 . S
C333 C334 1.380 . S
C333 H356 0.930 . S
C334 C333 1.380 . S
C334 C335 1.376 . S
C334 H357 0.930 . S
C335 C334 1.376 . S
C335 C336 1.370 . S
C336 C335 1.370 . S
C336 C337 1.396 . S
C336 H358 0.929 . S
C337 C332 1.373 . S
C337 C336 1.396 . S
C337 H359 0.929 . S
C338 O348 1.240 . S
C338 O349 1.289 . S
C339 O350 1.258 . S
C339 O351 1.256 . S
O340 La320 2.521 . S
O340 C322 1.261 . S
O341 La320 2.628 . S
O341 C322 1.243 . S
O342 La320 2.554 . S
O342 C329 1.240 . S
O343 La320 2.757 . S
O343 La321 2.482 . S
O343 C329 1.289 . S
O344 La320 2.470 . S
O344 C330 1.258 . S
O345 La321 2.503 . S
O345 C330 1.256 . S
O346 La321 2.521 . S
O346 C331 1.261 . S
O347 La321 2.628 . S
O347 C331 1.243 . S
O348 La321 2.554 . S
O348 C338 1.240 . S
O349 La320 2.482 . S
O349 La321 2.757 . S
O349 C338 1.289 . S
O350 La321 2.470 . S
O350 C339 1.258 . S
O351 La320 2.503 . S
O351 C339 1.256 . S
H352 C324 0.930 . S
H353 C325 0.930 . S
H354 C327 0.929 . S
H355 C328 0.929 . S
H356 C333 0.930 . S
H357 C334 0.930 . S
H358 C336 0.929 . S
H359 C337 0.929 . S
La360 C362 2.928 . S
La360 O380 2.521 . S
La360 O381 2.628 . S
La360 O382 2.554 . S
La360 O383 2.757 . S
La360 O384 2.470 . S
La360 O389 2.482 . S
La360 O391 2.503 . S
La361 C371 2.928 . S
La361 O383 2.482 . S
La361 O385 2.503 . S
La361 O386 2.521 . S
La361 O387 2.628 . S
La361 O388 2.554 . S
La361 O389 2.757 . S
La361 O390 2.470 . S
C362 La360 2.928 . S
C362 C363 1.503 . S
C362 O380 1.261 . S
C362 O381 1.243 . S
C363 C362 1.503 . S
C363 C364 1.394 . S
C363 C368 1.373 . S
C364 C363 1.394 . S
C364 C365 1.380 . S
C364 H392 0.930 . S
C365 C364 1.380 . S
C365 C366 1.376 . S
C365 H393 0.930 . S
C366 C365 1.376 . S
C366 C367 1.370 . S
C367 C366 1.370 . S
C367 C368 1.396 . S
C367 H394 0.929 . S
C368 C363 1.373 . S
C368 C367 1.396 . S
C368 H395 0.929 . S
C369 O382 1.240 . S
C369 O383 1.289 . S
C370 O384 1.258 . S
C370 O385 1.256 . S
C371 La361 2.928 . S
C371 C372 1.503 1_455 S
C371 O386 1.261 . S
C371 O387 1.243 . S
C372 C371 1.503 1_655 S
C372 C373 1.394 . S
C372 C377 1.373 . S
C373 C372 1.394 . S
C373 C374 1.380 . S
C373 H396 0.930 . S
C374 C373 1.380 . S
C374 C375 1.376 . S
C374 H397 0.930 . S
C375 C374 1.376 . S
C375 C376 1.370 . S
C376 C375 1.370 . S
C376 C377 1.396 . S
C376 H398 0.929 . S
C377 C372 1.373 . S
C377 C376 1.396 . S
C377 H399 0.929 . S
C378 O388 1.240 . S
C378 O389 1.289 . S
C379 O390 1.258 . S
C379 O391 1.256 . S
O380 La360 2.521 . S
O380 C362 1.261 . S
O381 La360 2.628 . S
O381 C362 1.243 . S
O382 La360 2.554 . S
O382 C369 1.240 . S
O383 La360 2.757 . S
O383 La361 2.482 . S
O383 C369 1.289 . S
O384 La360 2.470 . S
O384 C370 1.258 . S
O385 La361 2.503 . S
O385 C370 1.256 . S
O386 La361 2.521 . S
O386 C371 1.261 . S
O387 La361 2.628 . S
O387 C371 1.243 . S
O388 La361 2.554 . S
O388 C378 1.240 . S
O389 La360 2.482 . S
O389 La361 2.757 . S
O389 C378 1.289 . S
O390 La361 2.470 . S
O390 C379 1.258 . S
O391 La360 2.503 . S
O391 C379 1.256 . S
H392 C364 0.930 . S
H393 C365 0.930 . S
H394 C367 0.929 . S
H395 C368 0.929 . S
H396 C373 0.930 . S
H397 C374 0.930 . S
H398 C376 0.929 . S
H399 C377 0.929 . S
La400 C402 2.928 . S
La400 O420 2.521 . S
La400 O421 2.628 . S
La400 O422 2.554 . S
La400 O423 2.757 . S
La400 O424 2.470 . S
La400 O429 2.482 . S
La400 O431 2.503 . S
La401 C411 2.928 . S
La401 O423 2.482 . S
La401 O425 2.503 . S
La401 O426 2.521 . S
La401 O427 2.628 . S
La401 O428 2.554 . S
La401 O429 2.757 . S
La401 O430 2.470 . S
C402 La400 2.928 . S
C402 C403 1.503 1_565 S
C402 O420 1.261 . S
C402 O421 1.243 . S
C403 C402 1.503 1_545 S
C403 C404 1.394 . S
C403 C408 1.373 . S
C404 C403 1.394 . S
C404 C405 1.380 . S
C404 H432 0.930 . S
C405 C404 1.380 . S
C405 C406 1.376 . S
C405 H433 0.930 . S
C406 C405 1.376 . S
C406 C407 1.370 . S
C407 C406 1.370 . S
C407 C408 1.396 . S
C407 H434 0.929 . S
C408 C403 1.373 . S
C408 C407 1.396 . S
C408 H435 0.929 . S
C409 O422 1.240 . S
C409 O423 1.289 . S
C410 O424 1.258 . S
C410 O425 1.256 . S
C411 La401 2.928 . S
C411 C412 1.503 . S
C411 O426 1.261 . S
C411 O427 1.243 . S
C412 C411 1.503 . S
C412 C413 1.394 . S
C412 C417 1.373 . S
C413 C412 1.394 . S
C413 C414 1.380 . S
C413 H436 0.930 . S
C414 C413 1.380 . S
C414 C415 1.376 . S
C414 H437 0.930 . S
C415 C414 1.376 . S
C415 C416 1.370 . S
C416 C415 1.370 . S
C416 C417 1.396 . S
C416 H438 0.929 . S
C417 C412 1.373 . S
C417 C416 1.396 . S
C417 H439 0.929 . S
C418 O428 1.240 . S
C418 O429 1.289 . S
C419 O430 1.258 . S
C419 O431 1.256 . S
O420 La400 2.521 . S
O420 C402 1.261 . S
O421 La400 2.628 . S
O421 C402 1.243 . S
O422 La400 2.554 . S
O422 C409 1.240 . S
O423 La400 2.757 . S
O423 La401 2.482 . S
O423 C409 1.289 . S
O424 La400 2.470 . S
O424 C410 1.258 . S
O425 La401 2.503 . S
O425 C410 1.256 . S
O426 La401 2.521 . S
O426 C411 1.261 . S
O427 La401 2.628 . S
O427 C411 1.243 . S
O428 La401 2.554 . S
O428 C418 1.240 . S
O429 La400 2.482 . S
O429 La401 2.757 . S
O429 C418 1.289 . S
O430 La401 2.470 . S
O430 C419 1.258 . S
O431 La400 2.503 . S
O431 C419 1.256 . S
H432 C404 0.930 . S
H433 C405 0.930 . S
H434 C407 0.929 . S
H435 C408 0.929 . S
H436 C413 0.930 . S
H437 C414 0.930 . S
H438 C416 0.929 . S
H439 C417 0.929 . S
La440 C442 2.928 . S
La440 O460 2.521 . S
La440 O461 2.628 . S
La440 O462 2.554 . S
La440 O463 2.757 . S
La440 O464 2.470 . S
La440 O469 2.482 . S
La440 O471 2.503 . S
La441 C451 2.928 . S
La441 O463 2.482 . S
La441 O465 2.503 . S
La441 O466 2.521 . S
La441 O467 2.628 . S
La441 O468 2.554 . S
La441 O469 2.757 . S
La441 O470 2.470 . S
C442 La440 2.928 . S
C442 C443 1.503 . S
C442 O460 1.261 . S
C442 O461 1.243 . S
C443 C442 1.503 . S
C443 C444 1.394 . S
C443 C448 1.373 . S
C444 C443 1.394 . S
C444 C445 1.380 . S
C444 H472 0.930 . S
C445 C444 1.380 . S
C445 C446 1.376 . S
C445 H473 0.930 . S
C446 C445 1.376 . S
C446 C447 1.370 . S
C447 C446 1.370 . S
C447 C448 1.396 . S
C447 H474 0.929 . S
C448 C443 1.373 . S
C448 C447 1.396 . S
C448 H475 0.929 . S
C449 O462 1.240 . S
C449 O463 1.289 . S
C450 O464 1.258 . S
C450 O465 1.256 . S
C451 La441 2.928 . S
C451 C452 1.503 . S
C451 O466 1.261 . S
C451 O467 1.243 . S
C452 C451 1.503 . S
C452 C453 1.394 . S
C452 C457 1.373 . S
C453 C452 1.394 . S
C453 C454 1.380 . S
C453 H476 0.930 . S
C454 C453 1.380 . S
C454 C455 1.376 . S
C454 H477 0.930 . S
C455 C454 1.376 . S
C455 C456 1.370 . S
C456 C455 1.370 . S
C456 C457 1.396 . S
C456 H478 0.929 . S
C457 C452 1.373 . S
C457 C456 1.396 . S
C457 H479 0.929 . S
C458 O468 1.240 . S
C458 O469 1.289 . S
C459 O470 1.258 . S
C459 O471 1.256 . S
O460 La440 2.521 . S
O460 C442 1.261 . S
O461 La440 2.628 . S
O461 C442 1.243 . S
O462 La440 2.554 . S
O462 C449 1.240 . S
O463 La440 2.757 . S
O463 La441 2.482 . S
O463 C449 1.289 . S
O464 La440 2.470 . S
O464 C450 1.258 . S
O465 La441 2.503 . S
O465 C450 1.256 . S
O466 La441 2.521 . S
O466 C451 1.261 . S
O467 La441 2.628 . S
O467 C451 1.243 . S
O468 La441 2.554 . S
O468 C458 1.240 . S
O469 La440 2.482 . S
O469 La441 2.757 . S
O469 C458 1.289 . S
O470 La441 2.470 . S
O470 C459 1.258 . S
O471 La440 2.503 . S
O471 C459 1.256 . S
H472 C444 0.930 . S
H473 C445 0.930 . S
H474 C447 0.929 . S
H475 C448 0.929 . S
H476 C453 0.930 . S
H477 C454 0.930 . S
H478 C456 0.929 . S
H479 C457 0.929 . S
H480 C486 0.930 . S
H481 C490 0.930 . S
H482 C495 0.929 . S
H483 C493 0.929 . S
H484 C488 0.929 . S
H485 C494 0.929 . S
C486 H480 0.930 . S
C486 C487 1.367 . S
C486 C494 1.378 . S
C487 C486 1.367 . S
C487 C495 1.433 . S
C488 H484 0.929 . S
C488 C490 1.378 . S
C488 C492 1.350 . S
C489 C492 1.463 . S
C489 C494 1.350 . S
C489 N497 1.427 . S
C490 H481 0.930 . S
C490 C488 1.378 . S
C490 C491 1.367 . S
C491 C490 1.367 . S
C491 C493 1.433 . S
C492 C488 1.350 . S
C492 C489 1.463 . S
C492 N496 1.427 . S
C493 H483 0.929 . S
C493 C491 1.433 . S
C493 N496 1.384 . S
C494 H485 0.929 . S
C494 C486 1.378 . S
C494 C489 1.350 . S
C495 H482 0.929 . S
C495 C487 1.433 . S
C495 N497 1.384 . S
N496 C492 1.427 . S
N496 C493 1.384 . S
N497 C489 1.427 . S
N497 C495 1.384 . S
H498 C504 0.930 . S
H499 C508 0.930 . S
H500 C513 0.929 . S
H501 C511 0.929 . S
H502 C506 0.929 . S
H503 C512 0.929 . S
C504 H498 0.930 . S
C504 C505 1.367 . S
C504 C512 1.378 . S
C505 C504 1.367 . S
C505 C513 1.433 . S
C506 H502 0.929 . S
C506 C508 1.378 . S
C506 C510 1.350 . S
C507 C510 1.463 1_455 S
C507 C512 1.350 . S
C507 N515 1.427 . S
C508 H499 0.930 . S
C508 C506 1.378 . S
C508 C509 1.367 . S
C509 C508 1.367 . S
C509 C511 1.433 . S
C510 C506 1.350 . S
C510 C507 1.463 1_655 S
C510 N514 1.427 . S
C511 H501 0.929 . S
C511 C509 1.433 . S
C511 N514 1.384 . S
C512 H503 0.929 . S
C512 C504 1.378 . S
C512 C507 1.350 . S
C513 H500 0.929 . S
C513 C505 1.433 . S
C513 N515 1.384 . S
N514 C510 1.427 . S
N514 C511 1.384 . S
N515 C507 1.427 . S
N515 C513 1.384 . S
H516 C522 0.930 . S
H517 C526 0.930 . S
H518 C531 0.929 . S
H519 C529 0.929 . S
H520 C524 0.929 . S
H521 C530 0.929 . S
C522 H516 0.930 . S
C522 C523 1.367 . S
C522 C530 1.378 . S
C523 C522 1.367 . S
C523 C531 1.433 . S
C524 H520 0.929 . S
C524 C526 1.378 . S
C524 C528 1.350 . S
C525 C528 1.463 1_545 S
C525 C530 1.350 . S
C525 N533 1.427 . S
C526 H517 0.930 . S
C526 C524 1.378 . S
C526 C527 1.367 . S
C527 C526 1.367 . S
C527 C529 1.433 . S
C528 C524 1.350 . S
C528 C525 1.463 1_565 S
C528 N532 1.427 . S
C529 H519 0.929 . S
C529 C527 1.433 . S
C529 N532 1.384 . S
C530 H521 0.929 . S
C530 C522 1.378 . S
C530 C525 1.350 . S
C531 H518 0.929 . S
C531 C523 1.433 . S
C531 N533 1.384 . S
N532 C528 1.427 . S
N532 C529 1.384 . S
N533 C525 1.427 . S
N533 C531 1.384 . S
H534 C540 0.930 . S
H535 C544 0.930 . S
H536 C549 0.929 . S
H537 C547 0.929 . S
H538 C542 0.929 . S
H539 C548 0.929 . S
C540 H534 0.930 . S
C540 C541 1.367 . S
C540 C548 1.378 . S
C541 C540 1.367 . S
C541 C549 1.433 . S
C542 H538 0.929 . S
C542 C544 1.378 . S
C542 C546 1.350 . S
C543 C546 1.463 . S
C543 C548 1.350 . S
C543 N551 1.427 . S
C544 H535 0.930 . S
C544 C542 1.378 . S
C544 C545 1.367 . S
C545 C544 1.367 . S
C545 C547 1.433 . S
C546 C542 1.350 . S
C546 C543 1.463 . S
C546 N550 1.427 . S
C547 H537 0.929 . S
C547 C545 1.433 . S
C547 N550 1.384 . S
C548 H539 0.929 . S
C548 C540 1.378 . S
C548 C543 1.350 . S
C549 H536 0.929 . S
C549 C541 1.433 . S
C549 N551 1.384 . S
N550 C546 1.427 . S
N550 C547 1.384 . S
N551 C543 1.427 . S
N551 C549 1.384 . S
H552 C558 0.930 . S
H553 C562 0.930 . S
H554 C567 0.929 . S
H555 C565 0.929 . S
H556 C560 0.929 . S
H557 C566 0.893 1_655 S
C558 H552 0.930 . S
C558 C559 1.367 . S
C558 C566 1.378 . S
C559 C558 1.367 . S
C559 C567 1.433 . S
C560 H556 0.929 . S
C560 C562 1.378 . S
C560 C564 1.350 . S
C561 C564 1.463 1_455 S
C561 C566 1.350 . S
C561 N569 1.427 . S
C562 H553 0.930 . S
C562 C560 1.378 . S
C562 C563 1.367 . S
C563 C562 1.367 . S
C563 C565 1.433 . S
C564 C560 1.350 . S
C564 C561 1.463 1_655 S
C564 N568 1.427 . S
C565 H555 0.929 . S
C565 C563 1.433 . S
C565 N568 1.384 . S
C566 H557 0.893 1_455 S
C566 C558 1.378 . S
C566 C561 1.350 . S
C567 H554 0.929 . S
C567 C559 1.433 . S
C567 N569 1.384 . S
N568 C564 1.427 . S
N568 C565 1.384 . S
N569 C561 1.427 . S
N569 C567 1.384 . S
H570 C576 0.930 . S
H571 C580 0.930 . S
H572 C585 0.929 . S
H573 C583 0.929 . S
H574 C578 0.929 . S
H575 C584 0.929 1_545 S
C576 H570 0.930 . S
C576 C577 1.367 . S
C576 C584 1.378 . S
C577 C576 1.367 . S
C577 C585 1.433 . S
C578 H574 0.929 . S
C578 C580 1.378 . S
C578 C582 1.350 . S
C579 C582 1.463 1_565 S
C579 C584 1.350 . S
C579 N587 1.427 . S
C580 H571 0.930 . S
C580 C578 1.378 . S
C580 C581 1.367 . S
C581 C580 1.367 . S
C581 C583 1.433 . S
C582 C578 1.350 . S
C582 C579 1.463 1_545 S
C582 N586 1.427 . S
C583 H573 0.929 . S
C583 C581 1.433 . S
C583 N586 1.384 . S
C584 H575 0.929 1_565 S
C584 C576 1.378 . S
C584 C579 1.350 . S
C585 H572 0.929 . S
C585 C577 1.433 . S
C585 N587 1.384 . S
N586 C582 1.427 . S
N586 C583 1.384 . S
N587 C579 1.427 . S
N587 C585 1.384 . S
H588 C594 0.930 . S
H589 C598 0.930 . S
H590 C603 0.929 . S
H591 C601 0.929 . S
H592 C596 0.929 . S
H593 C602 0.929 . S
C594 H588 0.930 . S
C594 C595 1.367 . S
C594 C602 1.378 . S
C595 C594 1.367 . S
C595 C603 1.433 . S
C596 H592 0.929 . S
C596 C598 1.378 . S
C596 C600 1.350 . S
C597 C600 1.463 . S
C597 C602 1.350 . S
C597 N605 1.427 . S
C598 H589 0.930 . S
C598 C596 1.378 . S
C598 C599 1.367 . S
C599 C598 1.367 . S
C599 C601 1.433 . S
C600 C596 1.350 . S
C600 C597 1.463 . S
C600 N604 1.427 . S
C601 H591 0.929 . S
C601 C599 1.433 . S
C601 N604 1.384 . S
C602 H593 0.929 . S
C602 C594 1.378 . S
C602 C597 1.350 . S
C603 H590 0.929 . S
C603 C595 1.433 . S
C603 N605 1.384 . S
N604 C600 1.427 . S
N604 C601 1.384 . S
N605 C597 1.427 . S
N605 C603 1.384 . S
H606 C612 0.930 . S
H607 C616 0.930 . S
H608 C621 0.929 . S
H609 C619 0.929 . S
H610 C614 0.933 . S
H611 C620 0.929 . S
C612 H606 0.930 . S
C612 C613 1.367 . S
C612 C620 1.378 . S
C613 C612 1.367 . S
C613 C621 1.433 . S
C614 H610 0.933 . S
C614 C616 1.378 . S
C614 C618 1.350 . S
C615 C618 1.463 1_455 S
C615 C620 1.350 . S
C615 N623 1.427 . S
C616 H607 0.930 . S
C616 C614 1.378 . S
C616 C617 1.367 . S
C617 C616 1.367 . S
C617 C619 1.433 . S
C618 C614 1.350 . S
C618 C615 1.463 1_655 S
C618 N622 1.427 . S
C619 H609 0.929 . S
C619 C617 1.433 . S
C619 N622 1.384 . S
C620 H611 0.929 . S
C620 C612 1.378 . S
C620 C615 1.350 . S
C621 H608 0.929 . S
C621 C613 1.433 . S
C621 N623 1.384 . S
N622 C618 1.427 . S
N622 C619 1.384 . S
N623 C615 1.427 . S
N623 C621 1.384 . S
H624 C630 0.930 . S
H625 C634 0.930 . S
H626 C639 0.929 . S
H627 C637 0.929 . S
H628 C632 0.929 . S
H629 C638 0.929 . S
C630 H624 0.930 . S
C630 C631 1.367 . S
C630 C638 1.378 . S
C631 C630 1.367 . S
C631 C639 1.433 . S
C632 H628 0.929 . S
C632 C634 1.378 . S
C632 C636 1.350 . S
C633 C636 1.463 1_565 S
C633 C638 1.350 . S
C633 N641 1.427 . S
C634 H625 0.930 . S
C634 C632 1.378 . S
C634 C635 1.367 . S
C635 C634 1.367 . S
C635 C637 1.433 . S
C636 C632 1.350 . S
C636 C633 1.463 1_545 S
C636 N640 1.427 . S
C637 H627 0.929 . S
C637 C635 1.433 . S
C637 N640 1.384 . S
C638 H629 0.929 . S
C638 C630 1.378 . S
C638 C633 1.350 . S
C639 H626 0.929 . S
C639 C631 1.433 . S
C639 N641 1.384 . S
N640 C636 1.427 . S
N640 C637 1.384 . S
N641 C633 1.427 . S
N641 C639 1.384 . S
H642 C648 0.930 . S
H643 C652 0.930 . S
H644 C657 0.929 . S
H645 C655 0.929 . S
H646 C650 0.929 . S
H647 C656 0.929 . S
C648 H642 0.930 . S
C648 C649 1.367 . S
C648 C656 1.378 . S
C649 C648 1.367 . S
C649 C657 1.433 . S
C650 H646 0.929 . S
C650 C652 1.378 . S
C650 C654 1.350 . S
C651 C654 1.463 . S
C651 C656 1.350 . S
C651 N659 1.427 . S
C652 H643 0.930 . S
C652 C650 1.378 . S
C652 C653 1.367 . S
C653 C652 1.367 . S
C653 C655 1.433 . S
C654 C650 1.350 . S
C654 C651 1.463 . S
C654 N658 1.427 . S
C655 H645 0.929 . S
C655 C653 1.433 . S
C655 N658 1.384 . S
C656 H647 0.929 . S
C656 C648 1.378 . S
C656 C651 1.350 . S
C657 H644 0.929 . S
C657 C649 1.433 . S
C657 N659 1.384 . S
N658 C654 1.427 . S
N658 C655 1.384 . S
N659 C651 1.427 . S
N659 C657 1.384 . S
H660 C666 0.930 . S
H661 C670 0.930 . S
H662 C675 0.929 . S
H663 C673 0.929 . S
H664 C668 0.929 . S
H665 C674 0.929 . S
C666 H660 0.930 . S
C666 C667 1.367 . S
C666 C674 1.378 . S
C667 C666 1.367 . S
C667 C675 1.433 . S
C668 H664 0.929 . S
C668 C670 1.378 . S
C668 C672 1.350 . S
C669 C672 1.463 1_455 S
C669 C674 1.350 . S
C669 N677 1.427 . S
C670 H661 0.930 . S
C670 C668 1.378 . S
C670 C671 1.367 . S
C671 C670 1.367 . S
C671 C673 1.433 . S
C672 C668 1.350 . S
C672 C669 1.463 1_655 S
C672 N676 1.427 . S
C673 H663 0.929 . S
C673 C671 1.433 . S
C673 N676 1.384 . S
C674 H665 0.929 . S
C674 C666 1.378 . S
C674 C669 1.350 . S
C675 H662 0.929 . S
C675 C667 1.433 . S
C675 N677 1.384 . S
N676 C672 1.427 . S
N676 C673 1.384 . S
N677 C669 1.427 . S
N677 C675 1.384 . S
H678 C684 0.930 . S
H679 C688 0.930 . S
H680 C693 0.929 . S
H681 C691 0.929 . S
H682 C686 0.929 . S
H683 C692 0.929 1_565 S
C684 H678 0.930 . S
C684 C685 1.367 . S
C684 C692 1.378 . S
C685 C684 1.367 . S
C685 C693 1.433 . S
C686 H682 0.929 . S
C686 C688 1.378 . S
C686 C690 1.350 . S
C687 C690 1.463 1_545 S
C687 C692 1.350 . S
C687 N695 1.427 . S
C688 H679 0.930 . S
C688 C686 1.378 . S
C688 C689 1.367 . S
C689 C688 1.367 . S
C689 C691 1.433 . S
C690 C686 1.350 . S
C690 C687 1.463 1_565 S
C690 N694 1.427 . S
C691 H681 0.929 . S
C691 C689 1.433 . S
C691 N694 1.384 . S
C692 H683 0.929 1_545 S
C692 C684 1.378 . S
C692 C687 1.350 . S
C693 H680 0.929 . S
C693 C685 1.433 . S
C693 N695 1.384 . S
N694 C690 1.427 . S
N694 C691 1.384 . S
N695 C687 1.427 . S
N695 C693 1.384 . S
H696 C702 0.930 . S
H697 C706 0.930 . S
H698 C711 0.929 . S
H699 C709 0.929 . S
H700 C704 0.929 . S
H701 C710 0.929 . S
C702 H696 0.930 . S
C702 C703 1.367 . S
C702 C710 1.378 . S
C703 C702 1.367 . S
C703 C711 1.433 . S
C704 H700 0.929 . S
C704 C706 1.378 . S
C704 C708 1.350 . S
C705 C708 1.463 . S
C705 C710 1.350 . S
C705 N713 1.427 . S
C706 H697 0.930 . S
C706 C704 1.378 . S
C706 C707 1.367 . S
C707 C706 1.367 . S
C707 C709 1.433 . S
C708 C704 1.350 . S
C708 C705 1.463 . S
C708 N712 1.427 . S
C709 H699 0.929 . S
C709 C707 1.433 . S
C709 N712 1.384 . S
C710 H701 0.929 . S
C710 C702 1.378 . S
C710 C705 1.350 . S
C711 H698 0.929 . S
C711 C703 1.433 . S
C711 N713 1.384 . S
N712 C708 1.427 . S
N712 C709 1.384 . S
N713 C705 1.427 . S
N713 C711 1.384 . S
H714 C720 0.930 . S
H715 C724 0.930 . S
H716 C729 0.929 . S
H717 C727 0.929 . S
H718 C722 0.929 . S
H719 C728 0.929 . S
C720 H714 0.930 . S
C720 C721 1.367 . S
C720 C728 1.378 . S
C721 C720 1.367 . S
C721 C729 1.433 . S
C722 H718 0.929 . S
C722 C724 1.378 . S
C722 C726 1.350 . S
C723 C726 1.463 . S
C723 C728 1.350 . S
C723 N731 1.427 . S
C724 H715 0.930 . S
C724 C722 1.378 . S
C724 C725 1.367 . S
C725 C724 1.367 . S
C725 C727 1.433 . S
C726 C722 1.350 . S
C726 C723 1.463 . S
C726 N730 1.427 . S
C727 H717 0.929 . S
C727 C725 1.433 . S
C727 N730 1.384 . S
C728 H719 0.929 . S
C728 C720 1.378 . S
C728 C723 1.350 . S
C729 H716 0.929 . S
C729 C721 1.433 . S
C729 N731 1.384 . S
N730 C726 1.427 . S
N730 C727 1.384 . S
N731 C723 1.427 . S
N731 C729 1.384 . S
H732 C738 0.930 . S
H733 C742 0.930 . S
H734 C747 0.929 . S
H735 C745 0.929 . S
H736 C740 0.929 . S
H737 C746 0.929 . S
C738 H732 0.930 . S
C738 C739 1.367 . S
C738 C746 1.378 . S
C739 C738 1.367 . S
C739 C747 1.433 . S
C740 H736 0.929 . S
C740 C742 1.378 . S
C740 C744 1.350 . S
C741 C744 1.463 . S
C741 C746 1.350 . S
C741 N749 1.427 . S
C742 H733 0.930 . S
C742 C740 1.378 . S
C742 C743 1.367 . S
C743 C742 1.367 . S
C743 C745 1.433 . S
C744 C740 1.350 . S
C744 C741 1.463 . S
C744 N748 1.427 . S
C745 H735 0.929 . S
C745 C743 1.433 . S
C745 N748 1.384 . S
C746 H737 0.929 . S
C746 C738 1.378 . S
C746 C741 1.350 . S
C747 H734 0.929 . S
C747 C739 1.433 . S
C747 N749 1.384 . S
N748 C744 1.427 . S
N748 C745 1.384 . S
N749 C741 1.427 . S
N749 C747 1.384 . S
H750 C756 0.930 . S
H751 C760 0.930 . S
H752 C765 0.929 . S
H753 C763 0.929 . S
H754 C758 0.929 . S
H755 C764 0.929 . S
C756 H750 0.930 . S
C756 C757 1.367 . S
C756 C764 1.378 . S
C757 C756 1.367 . S
C757 C765 1.433 . S
C758 H754 0.929 . S
C758 C760 1.378 . S
C758 C762 1.350 . S
C759 C762 1.463 . S
C759 C764 1.350 . S
C759 N767 1.427 . S
C760 H751 0.930 . S
C760 C758 1.378 . S
C760 C761 1.367 . S
C761 C760 1.367 . S
C761 C763 1.433 . S
C762 C758 1.350 . S
C762 C759 1.463 . S
C762 N766 1.427 . S
C763 H753 0.929 . S
C763 C761 1.433 . S
C763 N766 1.384 . S
C764 H755 0.929 . S
C764 C756 1.378 . S
C764 C759 1.350 . S
C765 H752 0.929 . S
C765 C757 1.433 . S
C765 N767 1.384 . S
N766 C762 1.427 . S
N766 C763 1.384 . S
N767 C759 1.427 . S
N767 C765 1.384 . S
H768 C774 0.930 . S
H769 C778 0.930 . S
H770 C783 0.929 . S
H771 C781 0.929 . S
H772 C776 0.929 . S
H773 C782 0.929 . S
C774 H768 0.930 . S
C774 C775 1.367 . S
C774 C782 1.378 . S
C775 C774 1.367 . S
C775 C783 1.433 . S
C776 H772 0.929 . S
C776 C778 1.378 . S
C776 C780 1.350 . S
C777 C780 1.463 . S
C777 C782 1.350 . S
C777 N785 1.427 . S
C778 H769 0.930 . S
C778 C776 1.378 . S
C778 C779 1.367 . S
C779 C778 1.367 . S
C779 C781 1.433 . S
C780 C776 1.350 . S
C780 C777 1.463 . S
C780 N784 1.427 . S
C781 H771 0.929 . S
C781 C779 1.433 . S
C781 N784 1.384 . S
C782 H773 0.929 . S
C782 C774 1.378 . S
C782 C777 1.350 . S
C783 H770 0.929 . S
C783 C775 1.433 . S
C783 N785 1.384 . S
N784 C780 1.427 . S
N784 C781 1.384 . S
N785 C777 1.427 . S
N785 C783 1.384 . S
H786 C792 0.930 . S
H787 C796 0.930 . S
H788 C801 0.929 . S
H789 C799 0.929 . S
H790 C794 0.929 . S
H791 C800 0.929 . S
C792 H786 0.930 . S
C792 C793 1.367 . S
C792 C800 1.378 . S
C793 C792 1.367 . S
C793 C801 1.433 . S
C794 H790 0.929 . S
C794 C796 1.378 . S
C794 C798 1.350 . S
C795 C798 1.463 . S
C795 C800 1.350 . S
C795 N803 1.427 . S
C796 H787 0.930 . S
C796 C794 1.378 . S
C796 C797 1.367 . S
C797 C796 1.367 . S
C797 C799 1.433 . S
C798 C794 1.350 . S
C798 C795 1.463 . S
C798 N802 1.427 . S
C799 H789 0.929 . S
C799 C797 1.433 . S
C799 N802 1.384 . S
C800 H791 0.929 . S
C800 C792 1.378 . S
C800 C795 1.350 . S
C801 H788 0.929 . S
C801 C793 1.433 . S
C801 N803 1.384 . S
N802 C798 1.427 . S
N802 C799 1.384 . S
N803 C795 1.427 . S
N803 C801 1.384 . S
H804 C810 0.930 . S
H805 C814 0.930 . S
H806 C819 0.929 . S
H807 C817 0.929 . S
H808 C812 0.929 1_565 S
H809 C818 0.929 1_545 S
C810 H804 0.930 . S
C810 C811 1.367 . S
C810 C818 1.378 . S
C811 C810 1.367 . S
C811 C819 1.433 . S
C812 H808 0.929 1_545 S
C812 C814 1.378 . S
C812 C816 1.350 . S
C813 C816 1.463 1_566 S
C813 C818 1.350 . S
C813 N821 1.427 1_556 S
C814 H805 0.930 . S
C814 C812 1.378 . S
C814 C815 1.367 . S
C815 C814 1.367 . S
C815 C817 1.433 . S
C816 C812 1.350 . S
C816 C813 1.463 1_544 S
C816 N820 1.427 1_554 S
C817 H807 0.929 . S
C817 C815 1.433 . S
C817 N820 1.384 1_554 S
C818 H809 0.929 1_565 S
C818 C810 1.378 . S
C818 C813 1.350 . S
C819 H806 0.929 . S
C819 C811 1.433 . S
C819 N821 1.384 1_556 S
N820 C816 1.427 1_556 S
N820 C817 1.384 1_556 S
N821 C813 1.427 1_554 S
N821 C819 1.384 1_554 S
H822 C828 0.930 . S
H823 C832 0.930 . S
H824 C837 0.929 . S
H825 C835 0.929 . S
H826 C830 0.929 . S
H827 C836 0.929 . S
C828 H822 0.930 . S
C828 C829 1.367 . S
C828 C836 1.378 . S
C829 C828 1.367 . S
C829 C837 1.433 . S
C830 H826 0.929 . S
C830 C832 1.378 . S
C830 C834 1.350 . S
C831 C834 1.463 . S
C831 C836 1.350 . S
C831 N839 1.427 . S
C832 H823 0.930 . S
C832 C830 1.378 . S
C832 C833 1.367 . S
C833 C832 1.367 . S
C833 C835 1.433 . S
C834 C830 1.350 . S
C834 C831 1.463 . S
C834 N838 1.427 . S
C835 H825 0.929 . S
C835 C833 1.433 . S
C835 N838 1.384 . S
C836 H827 0.929 . S
C836 C828 1.378 . S
C836 C831 1.350 . S
C837 H824 0.929 . S
C837 C829 1.433 . S
C837 N839 1.384 . S
N838 C834 1.427 . S
N838 C835 1.384 . S
N839 C831 1.427 . S
N839 C837 1.384 . S
H840 C846 0.930 . S
H841 C850 0.930 . S
H842 C855 0.929 . S
H843 C853 0.929 . S
H844 C848 0.929 . S
H845 C854 0.929 . S
C846 H840 0.930 . S
C846 C847 1.367 . S
C846 C854 1.378 . S
C847 C846 1.367 . S
C847 C855 1.433 . S
C848 H844 0.929 . S
C848 C850 1.378 . S
C848 C852 1.350 . S
C849 C852 1.463 1_456 S
C849 C854 1.350 . S
C849 N857 1.427 . S
C850 H841 0.930 . S
C850 C848 1.378 . S
C850 C851 1.367 . S
C851 C850 1.367 . S
C851 C853 1.433 . S
C852 C848 1.350 . S
C852 C849 1.463 1_654 S
C852 N856 1.427 . S
C853 H843 0.929 . S
C853 C851 1.433 . S
C853 N856 1.384 . S
C854 H845 0.929 . S
C854 C846 1.378 . S
C854 C849 1.350 . S
C855 H842 0.929 . S
C855 C847 1.433 . S
C855 N857 1.384 . S
N856 C852 1.427 . S
N856 C853 1.384 . S
N857 C849 1.427 . S
N857 C855 1.384 . S
H858 C864 0.930 . S
H859 C868 0.930 . S
H860 C873 0.929 . S
H861 C871 0.929 . S
H862 C866 0.929 1_545 S
H863 C872 0.929 1_565 S
C864 H858 0.930 . S
C864 C865 1.367 . S
C864 C872 1.378 . S
C865 C864 1.367 . S
C865 C873 1.433 . S
C866 H862 0.929 1_565 S
C866 C868 1.378 . S
C866 C870 1.350 . S
C867 C870 1.463 1_545 S
C867 C872 1.350 . S
C867 N875 1.427 . S
C868 H859 0.930 . S
C868 C866 1.378 . S
C868 C869 1.367 . S
C869 C868 1.367 . S
C869 C871 1.433 . S
C870 C866 1.350 . S
C870 C867 1.463 1_565 S
C870 N874 1.427 . S
C871 H861 0.929 . S
C871 C869 1.433 . S
C871 N874 1.384 . S
C872 H863 0.929 1_545 S
C872 C864 1.378 . S
C872 C867 1.350 . S
C873 H860 0.929 . S
C873 C865 1.433 . S
C873 N875 1.384 . S
N874 C870 1.427 . S
N874 C871 1.384 . S
N875 C867 1.427 . S
N875 C873 1.384 . S
H876 C882 0.930 . S
H877 C886 0.930 . S
H878 C891 0.929 . S
H879 C889 0.929 . S
H880 C884 0.929 . S
H881 C890 0.929 . S
C882 H876 0.930 . S
C882 C883 1.367 . S
C882 C890 1.378 . S
C883 C882 1.367 . S
C883 C891 1.433 . S
C884 H880 0.929 . S
C884 C886 1.378 . S
C884 C888 1.350 . S
C885 C888 1.463 1_554 S
C885 C890 1.350 . S
C885 N893 1.427 . S
C886 H877 0.930 . S
C886 C884 1.378 . S
C886 C887 1.367 . S
C887 C886 1.367 . S
C887 C889 1.433 . S
C888 C884 1.350 . S
C888 C885 1.463 1_556 S
C888 N892 1.427 . S
C889 H879 0.929 . S
C889 C887 1.433 . S
C889 N892 1.384 . S
C890 H881 0.929 . S
C890 C882 1.378 . S
C890 C885 1.350 . S
C891 H878 0.929 . S
C891 C883 1.433 . S
C891 N893 1.384 . S
N892 C888 1.427 . S
N892 C889 1.384 . S
N893 C885 1.427 . S
N893 C891 1.384 . S
H894 C900 0.930 . S
H895 C904 0.930 . S
H896 C909 0.929 . S
H897 C907 0.929 . S
H898 C902 0.929 . S
H899 C908 0.929 . S
C900 H894 0.930 . S
C900 C901 1.367 . S
C900 C908 1.378 . S
C901 C900 1.367 . S
C901 C909 1.433 . S
C902 H898 0.929 . S
C902 C904 1.378 . S
C902 C906 1.350 . S
C903 C906 1.463 1_455 S
C903 C908 1.350 . S
C903 N911 1.427 . S
C904 H895 0.930 . S
C904 C902 1.378 . S
C904 C905 1.367 . S
C905 C904 1.367 . S
C905 C907 1.433 . S
C906 C902 1.350 . S
C906 C903 1.463 1_655 S
C906 N910 1.427 . S
C907 H897 0.929 . S
C907 C905 1.433 . S
C907 N910 1.384 . S
C908 H899 0.929 . S
C908 C900 1.378 . S
C908 C903 1.350 . S
C909 H896 0.929 . S
C909 C901 1.433 . S
C909 N911 1.384 . S
N910 C906 1.427 . S
N910 C907 1.384 . S
N911 C903 1.427 . S
N911 C909 1.384 . S
H912 C918 0.930 . S
H913 C922 0.930 . S
H914 C927 0.929 . S
H915 C925 0.929 . S
H916 C920 0.929 . S
H917 C926 0.929 . S
C918 H912 0.930 . S
C918 C919 1.367 . S
C918 C926 1.378 . S
C919 C918 1.367 . S
C919 C927 1.433 . S
C920 H916 0.929 . S
C920 C922 1.378 . S
C920 C924 1.350 . S
C921 C924 1.463 . S
C921 C926 1.350 . S
C921 N929 1.427 . S
C922 H913 0.930 . S
C922 C920 1.378 . S
C922 C923 1.367 . S
C923 C922 1.367 . S
C923 C925 1.433 . S
C924 C920 1.350 . S
C924 C921 1.463 . S
C924 N928 1.427 . S
C925 H915 0.929 . S
C925 C923 1.433 . S
C925 N928 1.384 . S
C926 H917 0.929 . S
C926 C918 1.378 . S
C926 C921 1.350 . S
C927 H914 0.929 . S
C927 C919 1.433 . S
C927 N929 1.384 . S
N928 C924 1.427 . S
N928 C925 1.384 . S
N929 C921 1.427 . S
N929 C927 1.384 . S
H930 C936 0.930 . S
H931 C940 0.930 . S
H932 C945 0.929 . S
H933 C943 0.929 . S
H934 C938 0.929 . S
H935 C944 0.929 . S
C936 H930 0.930 . S
C936 C937 1.367 . S
C936 C944 1.378 . S
C937 C936 1.367 . S
C937 C945 1.433 . S
C938 H934 0.929 . S
C938 C940 1.378 . S
C938 C942 1.350 . S
C939 C942 1.463 . S
C939 C944 1.350 . S
C939 N947 1.427 . S
C940 H931 0.930 . S
C940 C938 1.378 . S
C940 C941 1.367 . S
C941 C940 1.367 . S
C941 C943 1.433 . S
C942 C938 1.350 . S
C942 C939 1.463 . S
C942 N946 1.427 . S
C943 H933 0.929 . S
C943 C941 1.433 . S
C943 N946 1.384 . S
C944 H935 0.929 . S
C944 C936 1.378 . S
C944 C939 1.350 . S
C945 H932 0.929 . S
C945 C937 1.433 . S
C945 N947 1.384 . S
N946 C942 1.427 . S
N946 C943 1.384 . S
N947 C939 1.427 . S
N947 C945 1.384 . S
H948 C954 0.930 . S
H949 C958 0.930 . S
H950 C963 0.929 . S
H951 C961 0.929 . S
H952 C956 0.929 . S
H953 C962 0.929 . S
C954 H948 0.930 . S
C954 C955 1.367 . S
C954 C962 1.378 . S
C955 C954 1.367 . S
C955 C963 1.433 . S
C956 H952 0.929 . S
C956 C958 1.378 . S
C956 C960 1.350 . S
C957 C960 1.463 . S
C957 C962 1.350 . S
C957 N965 1.427 . S
C958 H949 0.930 . S
C958 C956 1.378 . S
C958 C959 1.367 . S
C959 C958 1.367 . S
C959 C961 1.433 . S
C960 C956 1.350 . S
C960 C957 1.463 . S
C960 N964 1.427 . S
C961 H951 0.929 . S
C961 C959 1.433 . S
C961 N964 1.384 . S
C962 H953 0.929 . S
C962 C954 1.378 . S
C962 C957 1.350 . S
C963 H950 0.929 . S
C963 C955 1.433 . S
C963 N965 1.384 . S
N964 C960 1.427 . S
N964 C961 1.384 . S
N965 C957 1.427 . S
N965 C963 1.384 . S
H966 C972 0.930 . S
H967 C976 0.930 . S
H968 C981 0.929 . S
H969 C979 0.929 . S
H970 C974 0.929 . S
H971 C980 0.929 . S
C972 H966 0.930 . S
C972 C973 1.367 . S
C972 C980 1.378 . S
C973 C972 1.367 . S
C973 C981 1.433 . S
C974 H970 0.929 . S
C974 C976 1.378 . S
C974 C978 1.350 . S
C975 C978 1.463 . S
C975 C980 1.350 . S
C975 N983 1.427 . S
C976 H967 0.930 . S
C976 C974 1.378 . S
C976 C977 1.367 . S
C977 C976 1.367 . S
C977 C979 1.433 . S
C978 C974 1.350 . S
C978 C975 1.463 . S
C978 N982 1.427 . S
C979 H969 0.929 . S
C979 C977 1.433 . S
C979 N982 1.384 . S
C980 H971 0.929 . S
C980 C972 1.378 . S
C980 C975 1.350 . S
C981 H968 0.929 . S
C981 C973 1.433 . S
C981 N983 1.384 . S
N982 C978 1.427 . S
N982 C979 1.384 . S
N983 C975 1.427 . S
N983 C981 1.384 . S
H984 C990 0.930 . S
H985 C994 0.930 . S
H986 C999 0.929 . S
H987 C997 0.929 . S
H988 C992 0.929 . S
H989 C998 0.929 . S
C990 H984 0.930 . S
C990 C991 1.367 . S
C990 C998 1.378 . S
C991 C990 1.367 . S
C991 C999 1.433 . S
C992 H988 0.929 . S
C992 C994 1.378 . S
C992 C996 1.350 . S
C993 C996 1.463 . S
C993 C998 1.350 . S
C993 N1001 1.427 . S
C994 H985 0.930 . S
C994 C992 1.378 . S
C994 C995 1.367 . S
C995 C994 1.367 . S
C995 C997 1.433 . S
C996 C992 1.350 . S
C996 C993 1.463 . S
C996 N1000 1.427 . S
C997 H987 0.929 . S
C997 C995 1.433 . S
C997 N1000 1.384 . S
C998 H989 0.929 . S
C998 C990 1.378 . S
C998 C993 1.350 . S
C999 H986 0.929 . S
C999 C991 1.433 . S
C999 N1001 1.384 . S
N1000 C996 1.427 . S
N1000 C997 1.384 . S
N1001 C993 1.427 . S
N1001 C999 1.384 . S
H1002 C1008 0.930 . S
H1003 C1012 0.930 . S
H1004 C1017 0.929 . S
H1005 C1015 0.929 . S
H1006 C1010 0.929 . S
H1007 C1016 0.929 . S
C1008 H1002 0.930 . S
C1008 C1009 1.367 . S
C1008 C1016 1.378 . S
C1009 C1008 1.367 . S
C1009 C1017 1.433 . S
C1010 H1006 0.929 . S
C1010 C1012 1.378 . S
C1010 C1014 1.350 . S
C1011 C1014 1.463 . S
C1011 C1016 1.350 . S
C1011 N1019 1.427 . S
C1012 H1003 0.930 . S
C1012 C1010 1.378 . S
C1012 C1013 1.367 . S
C1013 C1012 1.367 . S
C1013 C1015 1.433 . S
C1014 C1010 1.350 . S
C1014 C1011 1.463 . S
C1014 N1018 1.427 . S
C1015 H1005 0.929 . S
C1015 C1013 1.433 . S
C1015 N1018 1.384 . S
C1016 H1007 0.929 . S
C1016 C1008 1.378 . S
C1016 C1011 1.350 . S
C1017 H1004 0.929 . S
C1017 C1009 1.433 . S
C1017 N1019 1.384 . S
N1018 C1014 1.427 . S
N1018 C1015 1.384 . S
N1019 C1011 1.427 . S
N1019 C1017 1.384 . S
H1020 C1026 0.930 . S
H1021 C1030 0.930 . S
H1022 C1035 0.929 . S
H1023 C1033 0.929 . S
H1024 C1028 0.929 . S
H1025 C1034 0.929 . S
C1026 H1020 0.930 . S
C1026 C1027 1.367 . S
C1026 C1034 1.378 . S
C1027 C1026 1.367 . S
C1027 C1035 1.433 . S
C1028 H1024 0.929 . S
C1028 C1030 1.378 . S
C1028 C1032 1.350 . S
C1029 C1032 1.463 . S
C1029 C1034 1.350 . S
C1029 N1037 1.427 . S
C1030 H1021 0.930 . S
C1030 C1028 1.378 . S
C1030 C1031 1.367 . S
C1031 C1030 1.367 . S
C1031 C1033 1.433 . S
C1032 C1028 1.350 . S
C1032 C1029 1.463 . S
C1032 N1036 1.427 . S
C1033 H1023 0.929 . S
C1033 C1031 1.433 . S
C1033 N1036 1.384 . S
C1034 H1025 0.929 . S
C1034 C1026 1.378 . S
C1034 C1029 1.350 . S
C1035 H1022 0.929 . S
C1035 C1027 1.433 . S
C1035 N1037 1.384 . S
N1036 C1032 1.427 . S
N1036 C1033 1.384 . S
N1037 C1029 1.427 . S
N1037 C1035 1.384 . S
H1038 C1044 0.930 . S
H1039 C1048 0.930 . S
H1040 C1053 0.929 . S
H1041 C1051 0.929 . S
H1042 C1046 0.929 . S
H1043 C1052 0.929 . S
C1044 H1038 0.930 . S
C1044 C1045 1.367 . S
C1044 C1052 1.378 . S
C1045 C1044 1.367 . S
C1045 C1053 1.433 . S
C1046 H1042 0.929 . S
C1046 C1048 1.378 . S
C1046 C1050 1.350 . S
C1047 C1050 1.463 . S
C1047 C1052 1.350 . S
C1047 N1055 1.427 . S
C1048 H1039 0.930 . S
C1048 C1046 1.378 . S
C1048 C1049 1.367 . S
C1049 C1048 1.367 . S
C1049 C1051 1.433 . S
C1050 C1046 1.350 . S
C1050 C1047 1.463 . S
C1050 N1054 1.427 . S
C1051 H1041 0.929 . S
C1051 C1049 1.433 . S
C1051 N1054 1.384 . S
C1052 H1043 0.929 . S
C1052 C1044 1.378 . S
C1052 C1047 1.350 . S
C1053 H1040 0.929 . S
C1053 C1045 1.433 . S
C1053 N1055 1.384 . S
N1054 C1050 1.427 . S
N1054 C1051 1.384 . S
N1055 C1047 1.427 . S
N1055 C1053 1.384 . S
H1056 C1062 0.930 . S
H1057 C1066 0.930 . S
H1058 C1071 0.929 . S
H1059 C1069 0.929 . S
H1060 C1064 0.929 . S
H1061 C1070 0.929 . S
C1062 H1056 0.930 . S
C1062 C1063 1.367 . S
C1062 C1070 1.378 . S
C1063 C1062 1.367 . S
C1063 C1071 1.433 . S
C1064 H1060 0.929 . S
C1064 C1066 1.378 . S
C1064 C1068 1.350 . S
C1065 C1068 1.463 . S
C1065 C1070 1.350 . S
C1065 N1073 1.427 . S
C1066 H1057 0.930 . S
C1066 C1064 1.378 . S
C1066 C1067 1.367 . S
C1067 C1066 1.367 . S
C1067 C1069 1.433 . S
C1068 C1064 1.350 . S
C1068 C1065 1.463 . S
C1068 N1072 1.427 . S
C1069 H1059 0.929 . S
C1069 C1067 1.433 . S
C1069 N1072 1.384 . S
C1070 H1061 0.929 . S
C1070 C1062 1.378 . S
C1070 C1065 1.350 . S
C1071 H1058 0.929 . S
C1071 C1063 1.433 . S
C1071 N1073 1.384 . S
N1072 C1068 1.427 . S
N1072 C1069 1.384 . S
N1073 C1065 1.427 . S
N1073 C1071 1.384 . S
H1074 C1080 0.930 . S
H1075 C1084 0.930 . S
H1076 C1089 0.929 . S
H1077 C1087 0.929 . S
H1078 C1082 0.929 . S
H1079 C1088 0.929 . S
C1080 H1074 0.930 . S
C1080 C1081 1.367 . S
C1080 C1088 1.378 . S
C1081 C1080 1.367 . S
C1081 C1089 1.433 . S
C1082 H1078 0.929 . S
C1082 C1084 1.378 . S
C1082 C1086 1.350 . S
C1083 C1086 1.463 . S
C1083 C1088 1.350 . S
C1083 N1091 1.427 . S
C1084 H1075 0.930 . S
C1084 C1082 1.378 . S
C1084 C1085 1.367 . S
C1085 C1084 1.367 . S
C1085 C1087 1.433 . S
C1086 C1082 1.350 . S
C1086 C1083 1.463 . S
C1086 N1090 1.427 . S
C1087 H1077 0.929 . S
C1087 C1085 1.433 . S
C1087 N1090 1.384 . S
C1088 H1079 0.929 . S
C1088 C1080 1.378 . S
C1088 C1083 1.350 . S
C1089 H1076 0.929 . S
C1089 C1081 1.433 . S
C1089 N1091 1.384 . S
N1090 C1086 1.427 . S
N1090 C1087 1.384 . S
N1091 C1083 1.427 . S
N1091 C1089 1.384 . S
H1092 C1098 0.930 . S
H1093 C1102 0.930 . S
H1094 C1107 0.929 . S
H1095 C1105 0.929 . S
H1096 C1100 0.929 . S
H1097 C1106 0.929 . S
C1098 H1092 0.930 . S
C1098 C1099 1.367 . S
C1098 C1106 1.378 . S
C1099 C1098 1.367 . S
C1099 C1107 1.433 . S
C1100 H1096 0.929 . S
C1100 C1102 1.378 . S
C1100 C1104 1.350 . S
C1101 C1104 1.463 . S
C1101 C1106 1.350 . S
C1101 N1109 1.427 . S
C1102 H1093 0.930 . S
C1102 C1100 1.378 . S
C1102 C1103 1.367 . S
C1103 C1102 1.367 . S
C1103 C1105 1.433 . S
C1104 C1100 1.350 . S
C1104 C1101 1.463 . S
C1104 N1108 1.427 . S
C1105 H1095 0.929 . S
C1105 C1103 1.433 . S
C1105 N1108 1.384 . S
C1106 H1097 0.929 . S
C1106 C1098 1.378 . S
C1106 C1101 1.350 . S
C1107 H1094 0.929 . S
C1107 C1099 1.433 . S
C1107 N1109 1.384 . S
N1108 C1104 1.427 . S
N1108 C1105 1.384 . S
N1109 C1101 1.427 . S
N1109 C1107 1.384 . S
H1110 C1116 0.930 . S
H1111 C1120 0.930 . S
H1112 C1125 0.929 . S
H1113 C1123 0.929 . S
H1114 C1118 0.929 . S
H1115 C1124 0.929 . S
C1116 H1110 0.930 . S
C1116 C1117 1.367 . S
C1116 C1124 1.378 . S
C1117 C1116 1.367 . S
C1117 C1125 1.433 . S
C1118 H1114 0.929 . S
C1118 C1120 1.378 . S
C1118 C1122 1.350 . S
C1119 C1122 1.463 . S
C1119 C1124 1.350 . S
C1119 N1127 1.427 . S
C1120 H1111 0.930 . S
C1120 C1118 1.378 . S
C1120 C1121 1.367 . S
C1121 C1120 1.367 . S
C1121 C1123 1.433 . S
C1122 C1118 1.350 . S
C1122 C1119 1.463 . S
C1122 N1126 1.427 . S
C1123 H1113 0.929 . S
C1123 C1121 1.433 . S
C1123 N1126 1.384 . S
C1124 H1115 0.929 . S
C1124 C1116 1.378 . S
C1124 C1119 1.350 . S
C1125 H1112 0.929 . S
C1125 C1117 1.433 . S
C1125 N1127 1.384 . S
N1126 C1122 1.427 . S
N1126 C1123 1.384 . S
N1127 C1119 1.427 . S
N1127 C1125 1.384 . S
C487 C95 1.298 . S
C491 C19 1.243 . S
C505 C126 1.304 . S
C509 C50 1.258 . S
C523 C99 1.241 . S
C527 C175 1.296 . S
C541 C130 1.249 . S
C545 C206 1.301 . S
C559 C15 1.298 . S
C563 C179 1.243 . S
C577 C46 1.301 . S
C581 C210 1.248 . S
C595 C406 1.296 . S
C599 C250 1.240 . S
C613 C299 1.242 . S
C617 C455 1.297 . S
C631 C330 1.240 . S
C635 C246 1.297 . S
C649 C379 1.258 . S
C653 C295 1.304 . S
C667 C410 1.243 . S
C671 C326 1.296 . S
C685 C375 1.299 . S
C689 C459 1.245 . S
C703 C129 1.700 . S
C707 C18 1.702 . S
C721 C49 1.699 . S
C725 C178 1.703 . S
C739 C98 1.706 . S
C743 C209 1.697 . S
C757 C249 1.700 . S
C761 C378 1.702 . S
C775 C298 1.708 . S
C779 C409 1.694 . S
C793 C329 1.695 . S
C797 C458 1.707 . S
C811 C289 2.376 . S
C815 C9 2.376 . S
C829 C58 2.380 . S
C833 C338 2.379 . S
C847 C369 2.378 . S
C851 C89 2.378 . S
C865 C138 2.376 . S
C869 C418 2.376 . S
C883 C169 2.378 . S
C887 C449 2.378 . S
C901 C258 2.380 . S
C905 C218 2.379 . S
C919 C86 1.756 . S
C923 C10 1.758 . S
C937 C59 1.756 . S
C941 C135 1.748 . S
C955 C90 1.759 . S
C959 C166 1.755 . S
C973 C139 1.758 . S
C977 C215 1.750 . S
C991 C6 1.756 . S
C995 C170 1.756 . S
C1009 C55 1.746 . S
C1013 C219 1.751 . S
C1027 C415 1.754 . S
C1031 C259 1.759 . S
C1045 C290 1.759 . S
C1049 C446 1.752 . S
C1063 C339 1.759 . S
C1067 C255 1.751 . S
C1081 C286 1.755 . S
C1085 C370 1.754 . S
C1099 C419 1.753 . S
C1103 C335 1.754 . S
C1117 C450 1.757 . S
C1121 C366 1.756 . S
