# Generated by pormake.
# Topology sxc, (6)-cn, num edge types: 1
# Building blocks:
#     Node 0, Type 0, BuildingBlock: BETFEN_clean_sbu_0, # of connection points: 6
#     Node 1, Type 0, BuildingBlock: BETFEN_clean_sbu_0, # of connection points: 6
#     Node 2, Type 0, BuildingBlock: BETFEN_clean_sbu_0, # of connection points: 6
#     Edge 3, Type (0, 0), BuildingBlock: EZIPEK_clean_linker_0, # of connection points: 2
#     Edge 4, Type (0, 0), BuildingBlock: EZIPEK_clean_linker_0, # of connection points: 2
#     Edge 5, Type (0, 0), BuildingBlock: EZIPEK_clean_linker_0, # of connection points: 2
#     Edge 6, Type (0, 0), BuildingBlock: EZIPEK_clean_linker_0, # of connection points: 2
#     Edge 7, Type (0, 0), BuildingBlock: EZIPEK_clean_linker_0, # of connection points: 2
#     Edge 8, Type (0, 0), BuildingBlock: EZIPEK_clean_linker_0, # of connection points: 2
#     Edge 9, Type (0, 0), BuildingBlock: EZIPEK_clean_linker_0, # of connection points: 2
#     Edge 10, Type (0, 0), BuildingBlock: EZIPEK_clean_linker_0, # of connection points: 2
#     Edge 11, Type (0, 0), BuildingBlock: EZIPEK_clean_linker_0, # of connection points: 2
# Relax obj value: 0.514
# Max RMSD: 0.190
# Mean RMSD: 0.103
data_MOF--net-sxc--node1-BETFEN_clean_sbu_0--edge1-EZIPEK_clean_linker_0
_symmetry_space_group_name_H-M    P1
_symmetry_Int_Tables_number       1
_symmetry_cell_setting            triclinic
loop_
_symmetry_equiv_pos_as_xyz
'x, y, z'
_cell_length_a     12.481905
_cell_length_b     14.716724
_cell_length_c     34.576152
_cell_angle_alpha  94.590108
_cell_angle_beta   91.57321
_cell_angle_gamma 91.676548
loop_
_atom_site_label
_atom_site_type_symbol
_atom_site_fract_x
_atom_site_fract_y
_atom_site_fract_z
_atom_type_partial_charge
Pr0 Pr 0.09106 0.12116 0.96143 0.0
Pr1 Pr 1.00977 0.11825 0.95539 0.0
C2 C 0.29864 0.17847 0.95541 0.0
C3 C 0.35716 0.26794 0.95936 0.0
C4 C 0.39788 0.30553 -0.00454 0.0
C5 C 0.4533 0.38995 -0.00119 0.0
C6 C 0.47533 0.43776 0.96575 0.0
C7 C 0.42346 0.40305 0.93048 0.0
C8 C 0.36887 0.31863 0.92704 0.0
C9 C 1.06577 0.11859 0.04335 0.0
C10 C 0.08636 0.38103 0.96273 0.0
C11 C 0.79747 1.07017 0.96004 0.0
C12 C 0.73842 0.98384 0.96492 0.0
C13 C 0.63589 0.96587 0.94775 0.0
C14 C 0.58477 0.88017 0.94965 0.0
C15 C 0.63735 0.81102 0.96777 0.0
C16 C 0.73753 0.83091 -0.0136 0.0
C17 C 0.78695 0.91665 -0.0147 0.0
C18 C 1.04088 0.1172 0.87379 0.0
C19 C 1.02081 0.85753 0.95278 0.0
O20 O 0.23147 0.16444 0.92619 0.0
O21 O 0.26124 0.14694 -0.01353 0.0
O22 O 1.02796 0.17442 0.02092 0.0
O23 O 0.11298 1.05552 0.02229 0.0
O24 O 1.02253 0.30068 0.95636 0.0
O25 O 1.02848 0.29695 0.95693 0.0
O26 O 0.85775 1.10274 -0.01074 0.0
O27 O 0.84584 1.07535 0.92764 0.0
O28 O 1.06962 1.05881 0.89669 0.0
O29 O 1.00296 0.1862 0.89439 0.0
O30 O 0.0813 0.93901 0.96128 0.0
O31 O 1.07517 0.9429 0.9605 0.0
H32 H 0.38557 0.27043 0.02143 0.0
H33 H 0.47403 0.41647 0.02794 0.0
H34 H 0.42375 0.44093 0.90496 0.0
H35 H 0.33492 0.29365 0.89891 0.0
H36 H 0.59657 1.01727 0.93222 0.0
H37 H 0.50669 0.86647 0.9356 0.0
H38 H 0.77904 0.77899 0.00093 0.0
H39 H 0.86471 0.92962 -0.00051 0.0
Pr40 Pr 0.07992 0.21769 0.30138 0.0
Pr41 Pr 1.07734 1.05053 0.29022 0.0
C42 C 0.1218 0.39647 0.31509 0.0
C43 C 0.18696 0.43785 0.34867 0.0
C44 C 0.29829 0.42641 0.35105 0.0
C45 C 0.35836 0.46007 0.38402 0.0
C46 C 0.30954 0.50867 0.41535 0.0
C47 C 0.19612 0.51259 0.41388 0.0
C48 C 0.13638 0.47894 0.38089 0.0
C49 C 1.06101 0.14767 0.37556 0.0
C50 C 0.82956 0.13579 0.29238 0.0
C51 C 0.1052 0.87429 0.29984 0.0
C52 C 0.17974 0.84027 0.32839 0.0
C53 C 0.19409 0.74693 0.32985 0.0
C54 C 0.25961 0.71615 0.3591 0.0
C55 C 0.31035 0.77819 0.38745 0.0
C56 C 0.29947 0.87179 0.38506 0.0
C57 C 0.23461 0.90261 0.35559 0.0
C58 C 1.0386 0.11 0.21478 0.0
C59 C 0.33222 0.13583 0.29551 0.0
O60 O 1.03023 0.35918 0.32328 0.0
O61 O 0.17217 0.3467 0.28905 0.0
O62 O 0.12857 0.1245 0.35026 0.0
O63 O 0.99402 0.20161 0.36106 0.0
O64 O 0.88541 1.06538 0.30256 0.0
O65 O 0.88974 0.20581 0.28251 0.0
O66 O 1.02577 0.91926 0.31497 0.0
O67 O 0.15007 0.91506 0.27198 0.0
O68 O 0.1072 0.1461 0.2396 0.0
O69 O 0.98306 1.04685 0.22996 0.0
O70 O 0.2764 0.21004 0.30388 0.0
O71 O 0.27258 1.06028 0.28764 0.0
H72 H 0.33984 0.39198 0.32729 0.0
H73 H 0.44403 0.45164 0.38374 0.0
H74 H 0.15223 0.54652 0.43704 0.0
H75 H 1.05018 0.48587 0.38052 0.0
H76 H 0.15316 0.69804 0.309 0.0
H77 H 0.26843 0.64356 0.36024 0.0
H78 H 0.33843 0.9205 0.40647 0.0
H79 H 0.22521 0.97513 0.35462 0.0
Pr80 Pr 0.08044 1.02989 0.61715 0.0
Pr81 Pr 1.06997 0.20372 0.63125 0.0
C82 C 1.06916 0.8462 0.61394 0.0
C83 C 0.98381 0.77712 0.61493 0.0
C84 C 0.98717 0.69642 0.59054 0.0
C85 C 0.8971 0.63775 0.58603 0.0
C86 C 0.80429 0.65993 0.60614 0.0
C87 C 0.80329 0.73786 0.63212 0.0
C88 C 0.89247 0.79652 0.63638 0.0
C89 C 0.09691 0.10815 0.54502 0.0
C90 C 0.82327 0.11368 0.62421 0.0
C91 C 0.09015 0.38619 0.63173 0.0
C92 C 0.17696 0.44375 0.61864 0.0
C93 C 0.22279 0.51333 0.64443 0.0
C94 C 0.32297 0.55128 0.63709 0.0
C95 C 0.37697 0.51997 0.60387 0.0
C96 C 0.32765 0.45599 0.57652 0.0
C97 C 0.22778 0.41802 0.58383 0.0
C98 C 1.04826 0.12566 0.70318 0.0
C99 C 0.32719 0.12066 0.62474 0.0
O100 O 0.08848 0.89776 0.64598 0.0
O101 O 1.0671 0.89203 0.58327 0.0
O102 O 1.02799 0.1281 0.5705 0.0
O103 O 0.16573 1.05337 0.55833 0.0
O104 O 0.87798 0.1921 0.62607 0.0
O105 O 0.88245 1.0389 0.62251 0.0
O106 O 1.03632 0.33576 0.60471 0.0
O107 O 0.11538 0.34175 0.66164 0.0
O108 O 0.1185 0.10497 0.67822 0.0
O109 O 0.98418 0.18441 0.69004 0.0
O110 O 0.27242 1.04265 0.62503 0.0
O111 O 0.2672 0.19457 0.62415 0.0
H112 H 1.05726 0.68126 0.57364 0.0
H113 H 0.89798 0.57768 0.56578 0.0
H114 H 0.7315 0.7555 0.64763 0.0
H115 H 0.88808 0.85903 0.65498 0.0
H116 H 0.18483 0.53345 0.67146 0.0
H117 H 0.36096 0.60115 0.65826 0.0
H118 H 0.36917 0.43164 0.55077 0.0
H119 H 0.19398 0.36428 0.56355 0.0
C120 C 0.96928 0.5549 0.94787 0.0
C121 C 1.06348 0.50319 0.95973 0.0
C122 C 0.13915 0.68451 0.96913 0.0
C123 C 1.04472 0.73586 0.95676 0.0
N124 N 0.8751 0.68969 0.92536 0.0
N125 N 0.23754 0.54702 -0.01215 0.0
C126 C 0.96312 0.6605 0.94432 0.0
C127 C 0.1465 0.57818 -0.02852 0.0
N128 N 0.87816 0.50245 0.94114 0.0
N129 N 0.22873 0.73841 -0.02257 0.0
H130 H 0.249 0.47767 -0.0101 0.0
H131 H 0.29726 0.58847 0.00225 0.0
H132 H 0.22648 0.80927 -0.02274 0.0
H133 H 0.30542 0.71414 -0.01887 0.0
H134 H 0.80244 0.5295 0.93919 0.0
H135 H 0.8784 0.43164 0.94182 0.0
H136 H 0.82103 0.64566 0.90926 0.0
H137 H 0.86306 0.75851 0.92206 0.0
C138 C 0.52837 0.19268 0.32202 0.0
C139 C 0.46065 0.13689 0.29457 0.0
C140 C 0.63466 1.0747 0.26801 0.0
C141 C 0.70176 0.13664 0.29292 0.0
N142 N 0.70374 0.26481 0.34069 0.0
N143 N 0.46071 1.03909 0.23518 0.0
C144 C 0.64537 0.19883 0.31868 0.0
C145 C 0.51756 1.08145 0.26615 0.0
N146 N 0.48211 0.23621 0.35336 0.0
N147 N 0.68266 1.00831 0.24541 0.0
H148 H 0.37855 1.04609 0.23091 0.0
H149 H 0.49643 1.00598 0.21134 0.0
H150 H 0.76567 1.00392 0.24397 0.0
H151 H 0.64032 0.9538 0.23042 0.0
H152 H 0.52563 0.26962 0.37668 0.0
H153 H 0.40045 0.2306 0.35827 0.0
H154 H 0.66927 0.3195 0.35621 0.0
H155 H 0.78728 0.2687 0.34113 0.0
C156 C 0.67817 0.53166 0.61808 0.0
C157 C 0.70285 0.60858 0.59758 0.0
C158 C 0.51503 0.62396 0.57906 0.0
C159 C 0.48962 0.54742 0.59969 0.0
N160 N 0.54505 0.41715 0.63269 0.0
N161 N 0.65371 0.71188 0.54993 0.0
C162 C 0.57089 0.49711 0.61702 0.0
C163 C 0.62392 0.64898 0.57494 0.0
N164 N 0.75616 0.49498 0.64002 0.0
N165 N 0.43516 0.67555 0.56541 0.0
H166 H 0.7337 0.73152 0.54649 0.0
H167 H 0.60086 0.73772 0.53003 0.0
H168 H 0.35413 0.66035 0.56903 0.0
H169 H 0.44893 0.73739 0.55343 0.0
H170 H 0.74118 0.44579 0.65937 0.0
H171 H 0.83643 0.51691 0.64011 0.0
H172 H 0.6017 0.37259 0.64205 0.0
H173 H 0.46643 0.39176 0.63394 0.0
C174 C 0.63271 1.06171 0.64937 0.0
C175 C 0.69549 0.11259 0.62381 0.0
C176 C 0.51901 0.17437 0.60026 0.0
C177 C 0.4555 0.12232 0.62534 0.0
N178 N 0.46211 1.03176 0.68025 0.0
N179 N 0.68916 0.20279 0.56889 0.0
C180 C 0.51579 1.06917 0.65113 0.0
C181 C 0.63549 0.1656 0.59806 0.0
N182 N 0.68486 1.00483 0.67233 0.0
N183 N 0.46876 0.23503 0.57866 0.0
H184 H 0.77099 0.19524 0.56493 0.0
H185 H 0.65184 0.23256 0.54601 0.0
H186 H 0.38645 0.24255 0.5782 0.0
H187 H 0.5088 0.28408 0.56392 0.0
H188 H 0.64647 0.95509 0.68718 0.0
H189 H 0.76804 1.00342 0.67486 0.0
H190 H 0.49907 1.00068 0.70282 0.0
H191 H 0.38058 1.04015 0.68451 0.0
C192 C 0.59461 0.65826 0.93139 0.0
C193 C 0.59281 0.71579 0.96641 0.0
C194 C 0.56405 0.58149 0.00243 0.0
C195 C 0.54127 0.52711 0.96731 0.0
N196 N 0.60991 0.5036 0.90309 0.0
N197 N 0.56156 0.73196 0.0352 0.0
C198 C 0.57699 0.56253 0.93263 0.0
C199 C 0.57194 0.67733 0.00181 0.0
N200 N 0.61388 0.69429 0.89694 0.0
N201 N 0.60268 0.54273 0.03423 0.0
H202 H 0.56523 0.80303 0.03591 0.0
H203 H 0.53922 0.70587 0.0611 0.0
H204 H 0.62976 0.47612 0.03199 0.0
H205 H 0.62744 0.58083 0.05982 0.0
H206 H 0.60227 0.65715 0.87014 0.0
H207 H 0.63587 0.76243 0.89477 0.0
H208 H 0.64689 0.52428 0.87848 0.0
H209 H 0.61405 0.4337 0.90599 0.0
C210 C 0.31816 0.6338 0.46735 0.0
C211 C 0.37634 0.57012 0.44447 0.0
C212 C 0.46061 0.69217 0.41295 0.0
C213 C 0.36695 0.74161 0.42063 0.0
N214 N 0.22936 0.77891 0.46632 0.0
N215 N 0.56212 0.56064 0.4293 0.0
C216 C 0.30531 0.72078 0.45289 0.0
C217 C 0.47019 0.60782 0.4296 0.0
N218 N 0.26422 0.60561 0.49806 0.0
N219 N 0.53254 0.72147 0.38745 0.0
H220 H 0.56466 0.49745 0.44107 0.0
H221 H 0.63435 0.58682 0.41975 0.0
H222 H 0.5242 0.78391 0.37544 0.0
H223 H 0.59724 0.68316 0.37809 0.0
H224 H 0.21847 0.6483 0.51601 0.0
H225 H 0.27022 0.53861 0.50566 0.0
H226 H 0.17597 0.76399 0.48771 0.0
H227 H 0.22114 0.84275 0.45563 0.0
C228 C 1.05129 0.19925 0.15367 0.0
C229 C 1.04715 0.11439 0.17093 0.0
C230 C 1.03733 1.03586 0.10475 0.0
C231 C 1.05427 0.11958 0.08736 0.0
N232 N 0.09731 0.28094 0.09761 0.0
N233 N 1.06987 0.95174 0.16098 0.0
C234 C 1.06627 0.20144 0.11249 0.0
C235 C 1.04948 1.03273 0.14591 0.0
N236 N 1.03806 0.27818 0.17637 0.0
N237 N 1.00489 0.95888 0.08229 0.0
H238 H 0.08854 0.94651 0.19025 0.0
H239 H 0.08238 0.89189 0.14368 0.0
H240 H 0.98862 0.9582 0.05258 0.0
H241 H 0.98139 0.8985 0.09395 0.0
H242 H 1.02845 0.3411 0.1651 0.0
H243 H 1.0273 0.27957 0.20621 0.0
H244 H 0.11845 0.34037 0.11486 0.0
H245 H 0.11219 0.28552 0.06833 0.0
C246 C 0.16168 0.17437 0.44149 0.0
C247 C 1.07134 0.13641 0.41894 0.0
C248 C 0.99692 1.07999 0.47898 0.0
C249 C 0.08473 0.12139 0.50181 0.0
N250 N 0.24437 0.21707 0.50534 0.0
N251 N 0.89523 1.06447 0.41754 0.0
C252 C 0.16573 0.1704 0.48301 0.0
C253 C 0.98667 1.093 0.43822 0.0
N254 N 0.2432 0.21606 0.42328 0.0
N255 N 0.92591 1.02373 0.49575 0.0
H256 H 0.88677 1.06718 0.38757 0.0
H257 H 0.8251 1.04348 0.43031 0.0
H258 H 0.9304 1.01187 0.52506 0.0
H259 H 0.86768 0.98272 0.48018 0.0
H260 H 0.31736 0.23492 0.43641 0.0
H261 H 0.23842 0.22941 0.39417 0.0
H262 H 0.30039 0.26211 0.49497 0.0
H263 H 0.24845 0.21604 0.5354 0.0
C264 C 0.11811 0.18214 0.77111 0.0
C265 C 1.05996 0.11481 0.74647 0.0
C266 C 1.00504 1.03948 0.80505 0.0
C267 C 1.05371 0.11237 0.82986 0.0
N268 N 0.15392 0.25585 0.83585 0.0
N269 N 0.94412 0.98103 0.73975 0.0
C270 C 0.10957 0.18427 0.81258 0.0
C271 C 1.00322 1.04348 0.76348 0.0
N272 N 0.18403 0.24327 0.75474 0.0
N273 N 0.95935 0.9665 0.82119 0.0
H274 H 0.94542 0.97953 0.70955 0.0
H275 H 0.88997 0.93367 0.74961 0.0
H276 H 0.95278 0.96329 0.85103 0.0
H277 H 0.93322 0.90655 0.80531 0.0
H278 H 0.23804 0.28805 0.77051 0.0
H279 H 0.19168 0.24412 0.72481 0.0
H280 H 0.18233 0.31627 0.82554 0.0
H281 H 0.1582 0.25711 0.866 0.0
loop_
_geom_bond_atom_site_label_1
_geom_bond_atom_site_label_2
_geom_bond_distance
_geom_bond_site_symmetry_2
_ccdc_geom_bond_type
Pr0 C2 2.880 . S
Pr0 O20 2.562 1_554 S
Pr0 O21 2.490 . S
Pr0 O22 2.695 1_455 S
Pr0 O23 2.512 . S
Pr0 O25 2.437 . S
Pr0 O28 2.436 1_554 S
Pr0 O30 2.438 1_545 S
Pr1 C11 2.879 1_556 S
Pr1 O22 2.436 1_566 S
Pr1 O24 2.438 1_566 S
Pr1 O26 2.562 1_556 S
Pr1 O27 2.490 . S
Pr1 O28 2.695 1_665 S
Pr1 O29 2.512 . S
Pr1 O31 2.437 . S
C2 Pr0 2.880 . S
C2 C3 1.491 . S
C2 O20 1.254 1_554 S
C2 O21 1.225 . S
C3 C2 1.491 . S
C3 C4 1.392 . S
C3 C8 1.356 1_554 S
C4 C3 1.392 . S
C4 C5 1.368 . S
C4 H32 0.929 . S
C5 C4 1.368 . S
C5 C6 1.391 . S
C5 H33 0.929 . S
C6 C5 1.391 . S
C6 C7 1.369 1_554 S
C7 C6 1.369 1_556 S
C7 C8 1.409 . S
C7 H34 0.931 . S
C8 C3 1.356 1_556 S
C8 C7 1.409 . S
C8 H35 0.930 . S
C9 O22 1.270 1_455 S
C9 O23 1.248 . S
C10 O24 1.268 . S
C10 O25 1.278 1_655 S
C11 Pr1 2.879 1_554 S
C11 C12 1.491 . S
C11 O26 1.256 . S
C11 O27 1.222 1_554 S
C12 C11 1.491 . S
C12 C13 1.392 1_554 S
C12 C17 1.356 . S
C13 C12 1.392 1_556 S
C13 C14 1.368 . S
C13 H36 0.929 . S
C14 C13 1.368 . S
C14 C15 1.386 1_556 S
C14 H37 0.929 . S
C15 C14 1.386 1_554 S
C15 C16 1.373 . S
C16 C15 1.373 . S
C16 C17 1.409 . S
C16 H38 0.931 . S
C17 C12 1.356 . S
C17 C16 1.409 . S
C17 H39 0.930 . S
C18 O28 1.270 1_655 S
C18 O29 1.248 1_545 S
C19 O30 1.267 1_556 S
C19 O31 1.278 1_455 S
O20 Pr0 2.562 1_556 S
O20 C2 1.254 1_556 S
O21 Pr0 2.490 . S
O21 C2 1.225 . S
O22 Pr0 2.695 1_655 S
O22 Pr1 2.436 1_544 S
O22 C9 1.270 1_655 S
O23 Pr0 2.512 . S
O23 C9 1.248 . S
O24 Pr1 2.438 1_544 S
O24 C10 1.268 . S
O25 Pr0 2.437 . S
O25 C10 1.278 1_455 S
O26 Pr1 2.562 1_554 S
O26 C11 1.256 . S
O27 Pr1 2.490 . S
O27 C11 1.222 1_556 S
O28 Pr0 2.436 1_556 S
O28 Pr1 2.695 1_445 S
O28 C18 1.270 1_455 S
O29 Pr1 2.512 . S
O29 C18 1.248 1_565 S
O30 Pr0 2.438 1_565 S
O30 C19 1.267 1_554 S
O31 Pr1 2.437 . S
O31 C19 1.278 1_655 S
H32 C4 0.929 . S
H33 C5 0.929 . S
H34 C7 0.931 . S
H35 C8 0.930 . S
H36 C13 0.929 . S
H37 C14 0.929 . S
H38 C16 0.931 . S
H39 C17 0.930 . S
Pr40 C42 2.880 . S
Pr40 O60 2.562 1_455 S
Pr40 O61 2.490 . S
Pr40 O62 2.695 . S
Pr40 O63 2.512 . S
Pr40 O65 2.437 1_455 S
Pr40 O68 2.436 . S
Pr40 O70 2.438 . S
Pr41 C51 2.880 1_655 S
Pr41 O62 2.436 1_665 S
Pr41 O64 2.438 . S
Pr41 O66 2.562 1_655 S
Pr41 O67 2.490 1_655 S
Pr41 O68 2.695 1_665 S
Pr41 O69 2.512 . S
Pr41 O71 2.437 1_655 S
C42 Pr40 2.880 . S
C42 C43 1.491 1_455 S
C42 O60 1.254 1_455 S
C42 O61 1.224 . S
C43 C42 1.491 1_655 S
C43 C44 1.392 . S
C43 C48 1.356 . S
C44 C43 1.392 . S
C44 C45 1.368 . S
C44 H72 0.932 . S
C45 C44 1.368 . S
C45 C46 1.386 . S
C45 H73 0.929 . S
C46 C45 1.386 . S
C46 C47 1.373 . S
C47 C46 1.373 . S
C47 C48 1.409 . S
C47 H74 0.931 . S
C48 C43 1.356 . S
C48 C47 1.409 . S
C48 H75 0.930 . S
C49 O62 1.270 . S
C49 O63 1.248 . S
C50 O64 1.267 1_545 S
C50 O65 1.278 . S
C51 Pr41 2.880 1_455 S
C51 C52 1.491 . S
C51 O66 1.254 . S
C51 O67 1.225 . S
C52 C51 1.491 . S
C52 C53 1.392 . S
C52 C57 1.356 . S
C53 C52 1.392 . S
C53 C54 1.368 . S
C53 H76 0.929 . S
C54 C53 1.368 . S
C54 C55 1.386 . S
C54 H77 0.929 . S
C55 C54 1.386 . S
C55 C56 1.373 . S
C56 C55 1.373 . S
C56 C57 1.409 . S
C56 H78 0.931 . S
C57 C52 1.356 . S
C57 C56 1.409 . S
C57 H79 0.930 . S
C58 O68 1.270 . S
C58 O69 1.248 1_445 S
C59 O70 1.267 1_565 S
C59 O71 1.278 . S
O60 Pr40 2.562 1_655 S
O60 C42 1.254 1_655 S
O61 Pr40 2.490 . S
O61 C42 1.224 . S
O62 Pr40 2.695 . S
O62 Pr41 2.436 1_445 S
O62 C49 1.270 . S
O63 Pr40 2.512 . S
O63 C49 1.248 . S
O64 Pr41 2.438 . S
O64 C50 1.267 1_565 S
O65 Pr40 2.437 1_655 S
O65 C50 1.278 . S
O66 Pr41 2.562 1_455 S
O66 C51 1.254 . S
O67 Pr41 2.490 1_455 S
O67 C51 1.225 . S
O68 Pr40 2.436 . S
O68 Pr41 2.695 1_445 S
O68 C58 1.270 . S
O69 Pr41 2.512 . S
O69 C58 1.248 1_665 S
O70 Pr40 2.438 . S
O70 C59 1.267 1_545 S
O71 Pr41 2.437 1_455 S
O71 C59 1.278 . S
H72 C44 0.932 . S
H73 C45 0.929 . S
H74 C47 0.931 . S
H75 C48 0.930 . S
H76 C53 0.929 . S
H77 C54 0.929 . S
H78 C56 0.931 . S
H79 C57 0.930 . S
Pr80 C82 2.880 1_455 S
Pr80 O100 2.562 1_455 S
Pr80 O101 2.490 1_455 S
Pr80 O102 2.695 1_565 S
Pr80 O103 2.512 . S
Pr80 O105 2.437 1_455 S
Pr80 O108 2.436 . S
Pr80 O110 2.438 . S
Pr81 C91 2.880 . S
Pr81 O102 2.436 . S
Pr81 O104 2.438 1_455 S
Pr81 O106 2.562 . S
Pr81 O107 2.490 . S
Pr81 O108 2.695 1_545 S
Pr81 O109 2.512 . S
Pr81 O111 2.437 . S
C82 Pr80 2.880 1_655 S
C82 C83 1.491 . S
C82 O100 1.254 . S
C82 O101 1.225 . S
C83 C82 1.491 . S
C83 C84 1.392 . S
C83 C88 1.356 . S
C84 C83 1.392 . S
C84 C85 1.368 . S
C84 H112 0.929 . S
C85 C84 1.368 . S
C85 C86 1.386 . S
C85 H113 0.929 . S
C86 C85 1.386 . S
C86 C87 1.373 . S
C87 C86 1.373 . S
C87 C88 1.409 . S
C87 H114 0.931 . S
C88 C83 1.356 . S
C88 C87 1.409 . S
C88 H115 0.930 . S
C89 O102 1.270 1_565 S
C89 O103 1.248 . S
C90 O104 1.267 . S
C90 O105 1.278 1_545 S
C91 Pr81 2.880 . S
C91 C92 1.491 . S
C91 O106 1.254 . S
C91 O107 1.225 . S
C92 C91 1.491 . S
C92 C93 1.392 . S
C92 C97 1.356 . S
C93 C92 1.392 . S
C93 C94 1.368 . S
C93 H116 0.929 . S
C94 C93 1.368 . S
C94 C95 1.386 . S
C94 H117 0.929 . S
C95 C94 1.386 . S
C95 C96 1.373 . S
C96 C95 1.373 . S
C96 C97 1.409 . S
C96 H118 0.931 . S
C97 C92 1.356 . S
C97 C96 1.409 . S
C97 H119 0.930 . S
C98 O108 1.270 1_545 S
C98 O109 1.248 . S
C99 O110 1.267 1_545 S
C99 O111 1.278 . S
O100 Pr80 2.562 1_655 S
O100 C82 1.254 . S
O101 Pr80 2.490 1_655 S
O101 C82 1.225 . S
O102 Pr80 2.695 1_545 S
O102 Pr81 2.436 . S
O102 C89 1.270 1_545 S
O103 Pr80 2.512 . S
O103 C89 1.248 . S
O104 Pr81 2.438 1_655 S
O104 C90 1.267 . S
O105 Pr80 2.437 1_655 S
O105 C90 1.278 1_565 S
O106 Pr81 2.562 . S
O106 C91 1.254 . S
O107 Pr81 2.490 . S
O107 C91 1.225 . S
O108 Pr80 2.436 . S
O108 Pr81 2.695 1_565 S
O108 C98 1.270 1_565 S
O109 Pr81 2.512 . S
O109 C98 1.248 . S
O110 Pr80 2.438 . S
O110 C99 1.267 1_565 S
O111 Pr81 2.437 . S
O111 C99 1.278 . S
H112 C84 0.929 . S
H113 C85 0.929 . S
H114 C87 0.931 . S
H115 C88 0.930 . S
H116 C93 0.929 . S
H117 C94 0.929 . S
H118 C96 0.931 . S
H119 C97 0.930 . S
C120 C121 1.363 . S
C120 C126 1.379 . S
C120 N128 1.356 . S
C121 C120 1.363 . S
C121 C127 1.363 1_654 S
C122 C123 1.363 1_556 S
C122 C127 1.379 . S
C122 N129 1.356 . S
C123 C122 1.363 1_554 S
C123 C126 1.363 1_455 S
N124 C126 1.356 . S
N124 H136 0.984 . S
N124 H137 0.985 . S
N125 C127 1.356 . S
N125 H130 0.984 . S
N125 H131 0.985 . S
C126 C120 1.379 . S
C126 C123 1.363 1_655 S
C126 N124 1.356 . S
C127 C121 1.363 1_456 S
C127 C122 1.379 . S
C127 N125 1.356 . S
N128 C120 1.356 . S
N128 H134 0.984 . S
N128 H135 0.984 . S
N129 C122 1.356 . S
N129 H132 0.984 . S
N129 H133 0.985 . S
H130 N125 0.984 . S
H131 N125 0.985 . S
H132 N129 0.984 . S
H133 N129 0.985 . S
H134 N128 0.984 . S
H135 N128 0.984 . S
H136 N124 0.984 . S
H137 N124 0.985 . S
C138 C139 1.363 . S
C138 C144 1.379 . S
C138 N146 1.356 . S
C139 C138 1.363 . S
C139 C145 1.363 1_545 S
C140 C141 1.363 1_565 S
C140 C145 1.379 . S
C140 N147 1.356 . S
C141 C140 1.363 1_545 S
C141 C144 1.363 . S
N142 C144 1.356 . S
N142 H154 0.984 . S
N142 H155 0.985 . S
N143 C145 1.356 . S
N143 H148 0.984 . S
N143 H149 0.985 . S
C144 C138 1.379 . S
C144 C141 1.363 . S
C144 N142 1.356 . S
C145 C139 1.363 1_565 S
C145 C140 1.379 . S
C145 N143 1.356 . S
N146 C138 1.356 . S
N146 H152 0.984 . S
N146 H153 0.984 . S
N147 C140 1.356 . S
N147 H150 0.984 . S
N147 H151 0.985 . S
H148 N143 0.984 . S
H149 N143 0.985 . S
H150 N147 0.984 . S
H151 N147 0.985 . S
H152 N146 0.984 . S
H153 N146 0.984 . S
H154 N142 0.984 . S
H155 N142 0.985 . S
C156 C157 1.363 . S
C156 C162 1.379 . S
C156 N164 1.356 . S
C157 C156 1.363 . S
C157 C163 1.363 . S
C158 C159 1.363 . S
C158 C163 1.379 . S
C158 N165 1.356 . S
C159 C158 1.363 . S
C159 C162 1.363 . S
N160 C162 1.356 . S
N160 H172 0.984 . S
N160 H173 0.985 . S
N161 C163 1.356 . S
N161 H166 0.984 . S
N161 H167 0.985 . S
C162 C156 1.379 . S
C162 C159 1.363 . S
C162 N160 1.356 . S
C163 C157 1.363 . S
C163 C158 1.379 . S
C163 N161 1.356 . S
N164 C156 1.356 . S
N164 H170 0.984 . S
N164 H171 0.984 . S
N165 C158 1.356 . S
N165 H168 0.984 . S
N165 H169 0.985 . S
H166 N161 0.984 . S
H167 N161 0.985 . S
H168 N165 0.984 . S
H169 N165 0.985 . S
H170 N164 0.984 . S
H171 N164 0.984 . S
H172 N160 0.984 . S
H173 N160 0.985 . S
C174 C175 1.363 1_565 S
C174 C180 1.379 . S
C174 N182 1.356 . S
C175 C174 1.363 1_545 S
C175 C181 1.363 . S
C176 C177 1.363 . S
C176 C181 1.379 . S
C176 N183 1.356 . S
C177 C176 1.363 . S
C177 C180 1.363 1_545 S
N178 C180 1.356 . S
N178 H190 0.984 . S
N178 H191 0.985 . S
N179 C181 1.356 . S
N179 H184 0.984 . S
N179 H185 0.985 . S
C180 C174 1.379 . S
C180 C177 1.363 1_565 S
C180 N178 1.356 . S
C181 C175 1.363 . S
C181 C176 1.379 . S
C181 N179 1.356 . S
N182 C174 1.356 . S
N182 H188 0.984 . S
N182 H189 0.984 . S
N183 C176 1.356 . S
N183 H186 0.984 . S
N183 H187 0.985 . S
H184 N179 0.984 . S
H185 N179 0.985 . S
H186 N183 0.984 . S
H187 N183 0.985 . S
H188 N182 0.984 . S
H189 N182 0.984 . S
H190 N178 0.984 . S
H191 N178 0.985 . S
C192 C193 1.363 1_556 S
C192 C198 1.379 . S
C192 N200 1.356 . S
C193 C192 1.363 1_554 S
C193 C199 1.363 . S
C194 C195 1.362 1_554 S
C194 C199 1.379 . S
C194 N201 1.356 . S
C195 C194 1.362 1_556 S
C195 C198 1.364 . S
N196 C198 1.356 . S
N196 H208 0.984 . S
N196 H209 0.985 . S
N197 C199 1.356 . S
N197 H202 0.984 . S
N197 H203 0.985 . S
C198 C192 1.379 . S
C198 C195 1.364 . S
C198 N196 1.356 . S
C199 C193 1.363 . S
C199 C194 1.379 . S
C199 N197 1.356 . S
N200 C192 1.356 . S
N200 H206 0.984 . S
N200 H207 0.984 . S
N201 C194 1.356 . S
N201 H204 0.984 . S
N201 H205 0.985 . S
H202 N197 0.984 . S
H203 N197 0.985 . S
H204 N201 0.984 . S
H205 N201 0.985 . S
H206 N200 0.984 . S
H207 N200 0.984 . S
H208 N196 0.984 . S
H209 N196 0.985 . S
C210 C211 1.363 . S
C210 C216 1.379 1_655 S
C210 N218 1.356 . S
C211 C210 1.363 . S
C211 C217 1.363 . S
C212 C213 1.363 . S
C212 C217 1.379 1_455 S
C212 N219 1.356 . S
C213 C212 1.363 . S
C213 C216 1.363 . S
N214 C216 1.356 . S
N214 H226 0.984 . S
N214 H227 0.985 . S
N215 C217 1.356 . S
N215 H220 0.984 . S
N215 H221 0.985 . S
C216 C210 1.379 1_455 S
C216 C213 1.363 . S
C216 N214 1.356 . S
C217 C211 1.363 . S
C217 C212 1.379 1_655 S
C217 N215 1.356 . S
N218 C210 1.356 . S
N218 H224 0.984 . S
N218 H225 0.984 . S
N219 C212 1.356 . S
N219 H222 0.984 . S
N219 H223 0.985 . S
H220 N215 0.984 . S
H221 N215 0.985 . S
H222 N219 0.984 . S
H223 N219 0.985 . S
H224 N218 0.984 . S
H225 N218 0.984 . S
H226 N214 0.984 . S
H227 N214 0.985 . S
C228 C229 1.363 1_655 S
C228 C234 1.379 . S
C228 N236 1.356 . S
C229 C228 1.363 1_455 S
C229 C235 1.363 1_545 S
C230 C231 1.363 1_565 S
C230 C235 1.379 . S
C230 N237 1.356 . S
C231 C230 1.363 1_545 S
C231 C234 1.363 1_455 S
N232 C234 1.356 . S
N232 H244 0.984 . S
N232 H245 0.985 . S
N233 C235 1.356 . S
N233 H238 0.984 . S
N233 H239 0.985 . S
C234 C228 1.379 . S
C234 C231 1.363 1_655 S
C234 N232 1.356 . S
C235 C229 1.363 1_565 S
C235 C230 1.379 . S
C235 N233 1.356 . S
N236 C228 1.356 . S
N236 H242 0.984 . S
N236 H243 0.984 . S
N237 C230 1.356 . S
N237 H240 0.984 . S
N237 H241 0.985 . S
H238 N233 0.984 . S
H239 N233 0.985 . S
H240 N237 0.984 . S
H241 N237 0.985 . S
H242 N236 0.984 . S
H243 N236 0.984 . S
H244 N232 0.984 . S
H245 N232 0.985 . S
C246 C247 1.363 . S
C246 C252 1.379 . S
C246 N254 1.356 . S
C247 C246 1.363 . S
C247 C253 1.363 1_445 S
C248 C249 1.363 1_665 S
C248 C253 1.379 . S
C248 N255 1.356 . S
C249 C248 1.363 1_445 S
C249 C252 1.363 . S
N250 C252 1.356 . S
N250 H262 0.984 . S
N250 H263 0.985 . S
N251 C253 1.356 . S
N251 H256 0.984 . S
N251 H257 0.985 . S
C252 C246 1.379 . S
C252 C249 1.363 . S
C252 N250 1.356 . S
C253 C247 1.363 1_665 S
C253 C248 1.379 . S
C253 N251 1.356 . S
N254 C246 1.356 . S
N254 H260 0.984 . S
N254 H261 0.984 . S
N255 C248 1.356 . S
N255 H258 0.984 . S
N255 H259 0.985 . S
H256 N251 0.984 . S
H257 N251 0.985 . S
H258 N255 0.984 . S
H259 N255 0.985 . S
H260 N254 0.984 . S
H261 N254 0.984 . S
H262 N250 0.984 . S
H263 N250 0.985 . S
C264 C265 1.363 . S
C264 C270 1.379 . S
C264 N272 1.356 . S
C265 C264 1.363 . S
C265 C271 1.363 1_445 S
C266 C267 1.363 1_665 S
C266 C271 1.379 . S
C266 N273 1.356 . S
C267 C266 1.363 1_445 S
C267 C270 1.363 . S
N268 C270 1.356 . S
N268 H280 0.984 . S
N268 H281 0.985 . S
N269 C271 1.356 . S
N269 H274 0.984 . S
N269 H275 0.985 . S
C270 C264 1.379 . S
C270 C267 1.363 . S
C270 N268 1.356 . S
C271 C265 1.363 1_665 S
C271 C266 1.379 . S
C271 N269 1.356 . S
N272 C264 1.356 . S
N272 H278 0.984 . S
N272 H279 0.984 . S
N273 C266 1.356 . S
N273 H276 0.984 . S
N273 H277 0.985 . S
H274 N269 0.984 . S
H275 N269 0.985 . S
H276 N273 0.984 . S
H277 N273 0.985 . S
H278 N272 0.984 . S
H279 N272 0.984 . S
H280 N268 0.984 . S
H281 N268 0.985 . S
C121 C10 4.934 . S
C123 C19 4.934 1_554 S
C139 C59 3.102 1_545 S
C141 C50 3.102 . S
C157 C86 0.581 . S
C159 C95 0.581 . S
C175 C90 3.005 . S
C177 C99 3.005 . S
C193 C15 0.910 . S
C195 C6 0.909 1_556 S
C211 C46 0.874 . S
C213 C55 0.874 . S
C229 C58 1.454 . S
C231 C9 1.443 . S
C247 C49 1.468 . S
C249 C89 1.469 1_545 S
C265 C98 1.448 . S
C267 C18 1.469 1_455 S
