# Generated by pormake.
# Topology fnv, (5)-cn, num edge types: 1
# Building blocks:
#     Node 0, Type 0, BuildingBlock: BEQFEK_clean_sbu_0, # of connection points: 5
#     Node 1, Type 0, BuildingBlock: BEQFEK_clean_sbu_0, # of connection points: 5
#     Node 2, Type 0, BuildingBlock: BEQFEK_clean_sbu_0, # of connection points: 5
#     Node 3, Type 0, BuildingBlock: BEQFEK_clean_sbu_0, # of connection points: 5
#     Node 4, Type 0, BuildingBlock: BEQFEK_clean_sbu_0, # of connection points: 5
#     Node 5, Type 0, BuildingBlock: BEQFEK_clean_sbu_0, # of connection points: 5
#     Edge 6, Type (0, 0), BuildingBlock: FUNLAD_clean_linker_1, # of connection points: 2
#     Edge 7, Type (0, 0), BuildingBlock: FUNLAD_clean_linker_1, # of connection points: 2
#     Edge 8, Type (0, 0), BuildingBlock: FUNLAD_clean_linker_1, # of connection points: 2
#     Edge 9, Type (0, 0), BuildingBlock: FUNLAD_clean_linker_1, # of connection points: 2
#     Edge 10, Type (0, 0), BuildingBlock: FUNLAD_clean_linker_1, # of connection points: 2
#     Edge 11, Type (0, 0), BuildingBlock: FUNLAD_clean_linker_1, # of connection points: 2
#     Edge 12, Type (0, 0), BuildingBlock: FUNLAD_clean_linker_1, # of connection points: 2
#     Edge 13, Type (0, 0), BuildingBlock: FUNLAD_clean_linker_1, # of connection points: 2
#     Edge 14, Type (0, 0), BuildingBlock: FUNLAD_clean_linker_1, # of connection points: 2
#     Edge 15, Type (0, 0), BuildingBlock: FUNLAD_clean_linker_1, # of connection points: 2
#     Edge 16, Type (0, 0), BuildingBlock: FUNLAD_clean_linker_1, # of connection points: 2
#     Edge 17, Type (0, 0), BuildingBlock: FUNLAD_clean_linker_1, # of connection points: 2
#     Edge 18, Type (0, 0), BuildingBlock: FUNLAD_clean_linker_1, # of connection points: 2
#     Edge 19, Type (0, 0), BuildingBlock: FUNLAD_clean_linker_1, # of connection points: 2
#     Edge 20, Type (0, 0), BuildingBlock: FUNLAD_clean_linker_1, # of connection points: 2
# Relax obj value: 0.498
# Max RMSD: 0.269
# Mean RMSD: 0.269
data_MOF--net-fnv--node1-BEQFEK_clean_sbu_0--edge1-FUNLAD_clean_linker_1
_symmetry_space_group_name_H-M    P1
_symmetry_Int_Tables_number       1
_symmetry_cell_setting            triclinic
loop_
_symmetry_equiv_pos_as_xyz
'x, y, z'
_cell_length_a     36.233997
_cell_length_b     36.113526
_cell_length_c     30.297032
_cell_angle_alpha  90.274488
_cell_angle_beta   89.766303
_cell_angle_gamma 120.1047
loop_
_atom_site_label
_atom_site_type_symbol
_atom_site_fract_x
_atom_site_fract_y
_atom_site_fract_z
_atom_type_partial_charge
Co0 Co 0.2592 0.37087 0.97767 0.0
Co1 Co 0.26479 0.43969 0.04445 0.0
C2 C 0.26084 0.45093 0.94806 0.0
O3 O 0.2598 0.41584 0.93968 0.0
O4 O 0.26165 0.4635 0.98742 0.0
C5 C 0.2151 0.30708 0.91158 0.0
O6 O 0.1901 0.3236 0.90981 0.0
C7 C 0.24216 0.49676 0.09011 0.0
C8 C 0.28765 0.52012 0.14569 0.0
C9 C 0.25618 0.52501 0.12531 0.0
N10 N 0.26457 0.47637 0.08926 0.0
N11 N 0.29153 0.49023 0.12275 0.0
C12 C 0.20967 0.49094 0.05634 0.0
H13 H 0.19986 0.4615 0.03659 0.0
H14 H 0.18129 0.489 0.0727 0.0
H15 H 0.22351 0.51906 0.03405 0.0
C16 C 0.18526 0.31495 0.03531 0.0
N17 N 0.21831 0.35342 0.02383 0.0
N18 N 0.22064 0.38253 0.05178 0.0
C19 C 0.18921 0.36363 0.08184 0.0
C20 C 0.16545 0.32032 0.07206 0.0
C21 C 0.17452 0.27351 0.01342 0.0
H22 H 0.20412 0.27379 0.00342 0.0
H23 H 0.15515 0.26917 0.98355 0.0
H24 H 0.15589 0.24605 0.03586 0.0
O25 O 0.31763 0.39369 0.00191 0.0
O26 O 0.32065 0.44353 0.04748 0.0
H27 H 0.15598 0.36525 0.14112 0.0
H28 H 0.1708 0.40856 0.10298 0.0
C29 C 0.18104 0.38719 0.11786 0.0
H30 H 0.21093 0.40731 0.13644 0.0
H31 H 0.31344 0.4802 0.12918 0.0
O32 O 0.24616 0.32224 0.93853 0.0
C33 C 0.33783 0.42403 0.02941 0.0
Co34 Co 0.85306 0.2422 0.26683 0.0
Co35 Co 0.79973 0.26075 0.33545 0.0
C36 C 0.78468 0.2592 0.23822 0.0
O37 O 0.8137 0.25062 0.22831 0.0
O38 O 0.7763 0.26314 0.27816 0.0
C39 C 0.87174 0.20441 0.19262 0.0
O40 O 0.8335 0.19429 0.17888 0.0
C41 C 0.72203 0.24589 0.37915 0.0
C42 C 0.74654 0.28937 0.43662 0.0
C43 C 0.70929 0.26033 0.41517 0.0
N44 N 0.76477 0.26548 0.37904 0.0
N45 N 0.77933 0.29153 0.41343 0.0
C46 C 0.69412 0.21411 0.34509 0.0
H47 H 0.68172 0.22956 0.32266 0.0
H48 H 0.7123 0.20254 0.3255 0.0
H49 H 0.66642 0.18656 0.36112 0.0
C50 C 0.82047 0.16379 0.32156 0.0
N51 N 0.82382 0.20179 0.31211 0.0
N52 N 0.8024 0.21028 0.3417 0.0
C53 C 0.78521 0.17833 0.3713 0.0
C54 C 0.79612 0.14792 0.35967 0.0
C55 C 0.8371 0.14191 0.29228 0.0
H56 H 0.87241 0.15884 0.29454 0.0
H57 H 0.82847 0.14358 0.25762 0.0
H58 H 0.82378 0.10779 0.30102 0.0
O59 O 0.8954 0.29922 0.29201 0.0
O60 O 0.85633 0.31162 0.34006 0.0
H61 H 0.77466 0.20962 0.4262 0.0
H62 H 0.7574 0.15395 0.4356 0.0
C63 C 0.75972 0.17747 0.41071 0.0
H64 H 0.72707 0.16859 0.4 0.0
H65 H 0.81164 0.31105 0.42082 0.0
O66 O 0.88533 0.22365 0.22934 0.0
C67 C 0.89153 0.32313 0.32049 0.0
Co68 Co 0.61177 0.86648 0.62132 0.0
Co69 Co 0.54892 0.79871 0.68894 0.0
C70 C 0.52777 0.79272 0.59358 0.0
O71 O 0.56303 0.82592 0.58424 0.0
O72 O 0.51871 0.77867 0.6328 0.0
C73 C 0.6676 0.88793 0.54868 0.0
O74 O 0.65029 0.84619 0.5459 0.0
C75 C 0.48922 0.71534 0.72657 0.0
C76 C 0.48222 0.73235 0.79495 0.0
C77 C 0.46693 0.69841 0.76537 0.0
N78 N 0.51605 0.75744 0.73258 0.0
N79 N 0.51197 0.76737 0.77365 0.0
C80 C 0.48414 0.69217 0.68394 0.0
H81 H 0.45681 0.69021 0.66552 0.0
H82 H 0.51341 0.70943 0.66353 0.0
H83 H 0.47747 0.65911 0.69009 0.0
C84 C 0.67105 0.84249 0.66288 0.0
N85 N 0.63223 0.83849 0.65817 0.0
N86 N 0.60529 0.8087 0.68524 0.0
C87 C 0.62574 0.792 0.70718 0.0
C88 C 0.66829 0.81332 0.69399 0.0
C89 C 0.71084 0.87551 0.64038 0.0
H90 H 0.70979 0.90538 0.63562 0.0
H91 H 0.71354 0.86309 0.60771 0.0
H92 H 0.73957 0.88278 0.65991 0.0
O93 O 0.59257 0.90024 0.65652 0.0
O94 O 0.54823 0.85155 0.7044 0.0
H95 H 0.59772 0.76546 0.76977 0.0
H96 H 0.62326 0.73902 0.7434 0.0
C97 C 0.60398 0.75457 0.73775 0.0
H98 H 0.57299 0.73044 0.72352 0.0
H99 H 0.52856 0.79829 0.78671 0.0
O100 O 0.6563 0.90418 0.5795 0.0
C101 C 0.56632 0.88921 0.68864 0.0
Co102 Co 0.74068 0.65265 -0.00074 0.0
Co103 Co 0.73236 0.58491 0.06821 0.0
C104 C 0.72763 0.56695 0.97216 0.0
O105 O 0.73107 0.6028 0.96245 0.0
O106 O 0.72928 0.55669 0.01177 0.0
C107 C 0.77671 0.70526 0.92415 0.0
O108 O 0.79269 0.6802 0.91683 0.0
C109 C 0.74376 0.51929 0.1101 0.0
C110 C 0.71552 0.51412 0.17619 0.0
C111 C 0.7331 0.49611 0.14897 0.0
N112 N 0.732 0.54897 0.11375 0.0
N113 N 0.71527 0.54589 0.15334 0.0
C114 C 0.76678 0.51517 0.07092 0.0
H115 H 0.78584 0.54665 0.05452 0.0
H116 H 0.78824 0.50304 0.08081 0.0
H117 H 0.74312 0.49243 0.04691 0.0
C118 C 0.82345 0.70419 0.04626 0.0
N119 N 0.78503 0.66854 0.04118 0.0
N120 N 0.78097 0.63996 0.07047 0.0
C121 C 0.81653 0.65625 0.09505 0.0
C122 C 0.84461 0.69744 0.08073 0.0
C123 C 0.84118 0.74108 0.01485 0.0
H124 H 0.81814 0.75254 0.01099 0.0
H125 H 0.84573 0.73003 0.98217 0.0
H126 H 0.87234 0.76795 0.02552 0.0
O127 O 0.68546 0.63681 0.02796 0.0
O128 O 0.67922 0.58642 0.07415 0.0
H129 H 0.7967 0.61863 0.15391 0.0
H130 H 0.85371 0.6527 0.1492 0.0
C131 C 0.82398 0.63206 0.13057 0.0
H132 H 0.82591 0.60501 0.11556 0.0
H133 H 0.70292 0.56493 0.16443 0.0
O134 O 0.75429 0.69988 0.95838 0.0
C135 C 0.66433 0.60805 0.05651 0.0
Co136 Co 0.11422 0.73825 0.30483 0.0
Co137 Co 0.15816 0.71933 0.38298 0.0
C138 C 0.19162 0.73007 0.29139 0.0
O139 O 0.16196 0.73535 0.27597 0.0
O140 O 0.19464 0.72501 0.33237 0.0
C141 C 0.11062 0.78903 0.23377 0.0
O142 O 0.15246 0.80906 0.23465 0.0
C143 C 0.22655 0.72993 0.44021 0.0
C144 C 0.19227 0.6877 0.49652 0.0
C145 C 0.23262 0.71419 0.47946 0.0
N146 N 0.1845 0.71279 0.43389 0.0
N147 N 0.16407 0.68763 0.46763 0.0
C148 C 0.25973 0.76254 0.41017 0.0
H149 H 0.24683 0.78056 0.39272 0.0
H150 H 0.28862 0.78523 0.42897 0.0
H151 H 0.26881 0.74602 0.38511 0.0
C152 C 0.13085 0.81125 0.36407 0.0
N153 N 0.13194 0.77524 0.35476 0.0
N154 N 0.15026 0.76701 0.38769 0.0
C155 C 0.16175 0.79758 0.41876 0.0
C156 C 0.15061 0.82715 0.40435 0.0
C157 C 0.1131 0.83124 0.33403 0.0
H158 H 0.0825 0.80617 0.31977 0.0
H159 H 0.13601 0.84769 0.30676 0.0
H160 H 0.10768 0.85507 0.35168 0.0
O161 O 0.0706 0.67883 0.32114 0.0
O162 O 0.10396 0.66554 0.37481 0.0
H163 H 0.17883 0.81909 0.48642 0.0
H164 H 0.21516 0.80695 0.4572 0.0
C165 C 0.18113 0.7972 0.4622 0.0
H166 H 0.16442 0.76441 0.476 0.0
H167 H 0.13089 0.67001 0.47065 0.0
O168 O 0.08913 0.75853 0.26049 0.0
C169 C 0.07221 0.65354 0.34919 0.0
Co170 Co 0.39789 0.12054 0.66127 0.0
Co171 Co 0.46672 0.18959 0.72397 0.0
C172 C 0.47169 0.19988 0.62574 0.0
O173 O 0.4376 0.16432 0.61947 0.0
O174 O 0.4859 0.21337 0.66429 0.0
C175 C 0.33581 0.08501 0.59211 0.0
O176 O 0.35418 0.12452 0.57749 0.0
C177 C 0.51726 0.27472 0.76251 0.0
C178 C 0.54667 0.26234 0.82004 0.0
C179 C 0.54525 0.29472 0.79704 0.0
N180 N 0.5029 0.23251 0.76471 0.0
N181 N 0.52053 0.22526 0.79923 0.0
C182 C 0.50502 0.29544 0.72732 0.0
H183 H 0.47615 0.27125 0.70952 0.0
H184 H 0.49894 0.32009 0.74201 0.0
H185 H 0.53178 0.31159 0.70352 0.0
C186 C 0.3417 0.14137 0.71458 0.0
N187 N 0.37988 0.14499 0.70575 0.0
N188 N 0.40857 0.1727 0.73324 0.0
C189 C 0.38937 0.18688 0.76116 0.0
C190 C 0.34654 0.16775 0.75029 0.0
C191 C 0.30363 0.11804 0.68519 0.0
H192 H 0.2924 0.08327 0.68608 0.0
H193 H 0.31311 0.12919 0.65084 0.0
H194 H 0.27716 0.12351 0.69439 0.0
O195 O 0.42732 0.09164 0.68672 0.0
O196 O 0.47683 0.14115 0.73029 0.0
H197 H 0.43559 0.21307 0.81324 0.0
H198 H 0.38879 0.21762 0.8224 0.0
C199 C 0.4117 0.21904 0.79709 0.0
H200 H 0.42827 0.25161 0.78268 0.0
H201 H 0.5151 0.19506 0.80826 0.0
O202 O 0.34889 0.07668 0.62744 0.0
C203 C 0.45862 0.10398 0.71316 0.0
H204 H 0.60712 0.61453 0.05041 0.0
C205 C 0.61906 0.59447 0.06327 0.0
H206 H 0.60279 0.53371 0.08896 0.0
H207 H 0.41299 0.47196 0.14213 0.0
H208 H 0.44547 0.48252 0.21438 0.0
H209 H 0.52364 0.51772 0.22228 0.0
H210 H 0.56981 0.54241 0.15792 0.0
C211 C 0.59139 0.55441 0.07667 0.0
C212 C 0.54457 0.53522 0.07176 0.0
C213 C 0.51815 0.52147 0.10972 0.0
C214 C 0.47317 0.50172 0.1052 0.0
C215 C 0.44742 0.48767 0.14366 0.0
C216 C 0.46563 0.49344 0.18536 0.0
C217 C 0.50964 0.51321 0.1898 0.0
C218 C 0.53576 0.52715 0.15256 0.0
H219 H 0.39773 0.4221 0.02334 0.0
C220 C 0.38334 0.43956 0.03763 0.0
H221 H 0.39384 0.49453 0.07333 0.0
H222 H 0.58522 0.55053 0.99122 0.0
H223 H 0.55323 0.54287 0.91949 0.0
H224 H 0.4762 0.51613 0.91228 0.0
H225 H 0.43055 0.49585 0.97671 0.0
C226 C 0.40791 0.47695 0.05862 0.0
C227 C 0.45479 0.4961 0.06274 0.0
C228 C 0.48127 0.51036 0.0247 0.0
C229 C 0.5261 0.52854 0.0291 0.0
C230 C 0.55138 0.53912 0.99029 0.0
C231 C 0.53335 0.53446 0.9487 0.0
C232 C 0.48994 0.51916 0.94462 0.0
C233 C 0.46405 0.50726 0.98199 0.0
H234 H 0.00912 0.59897 0.33118 0.0
C235 C 0.03866 0.60813 0.34862 0.0
H236 H 0.07574 0.58655 0.3815 0.0
H237 H 0.92736 0.40243 0.42985 0.0
H238 H 0.94748 0.43552 0.50222 0.0
H239 H -0.00163 0.51284 0.51004 0.0
H240 H 0.0296 0.55749 0.44557 0.0
C241 C 0.04611 0.57773 0.36441 0.0
C242 C 0.01497 0.53134 0.35919 0.0
C243 C -0.00317 0.50579 0.39723 0.0
C244 C 0.96699 0.46138 0.39269 0.0
C245 C 0.94968 0.43649 0.43131 0.0
C246 C 0.96106 0.45504 0.4731 0.0
C247 C 0.98975 0.49855 0.4775 0.0
C248 C 0.00751 0.52379 0.44017 0.0
H249 H 0.9588 0.37526 0.31516 0.0
C250 C 0.92748 0.36681 0.32795 0.0
H251 H 0.88964 0.38886 0.35884 0.0
H252 H 0.04926 0.56955 0.27954 0.0
H253 H 0.02805 0.53704 0.20728 0.0
H254 H 0.97144 0.46162 0.19907 0.0
H255 H 0.93662 0.41813 0.26313 0.0
C256 C 0.92092 0.39714 0.34605 0.0
C257 C 0.95509 0.44266 0.35013 0.0
C258 C 0.97349 0.46818 0.31197 0.0
C259 C 0.00438 0.51232 0.31658 0.0
C260 C 0.02423 0.53642 0.27808 0.0
C261 C 0.01257 0.51807 0.23628 0.0
C262 C 0.98086 0.47558 0.23168 0.0
C263 C 0.96134 0.45084 0.2689 0.0
H264 H 0.5245 0.90496 0.72718 0.0
C265 C 0.5512 0.91802 0.70418 0.0
H266 H 0.5902 0.96936 0.66212 0.0
H267 H 0.45554 0.02443 0.62139 0.0
H268 H 0.46591 0.00066 0.55012 0.0
H269 H 0.50873 0.96526 0.54258 0.0
H270 H 0.54205 0.95418 0.60619 0.0
C271 C 0.56459 0.95668 0.68635 0.0
C272 C 0.53895 0.97823 0.69173 0.0
C273 C 0.51883 0.98359 0.65416 0.0
C274 C 0.49285 0.00259 0.65876 0.0
C275 C 0.47458 0.00907 0.62032 0.0
C276 C 0.48038 0.9957 0.579 0.0
C277 C 0.50459 0.97591 0.57473 0.0
C278 C 0.52368 0.96987 0.61167 0.0
H279 H 0.51003 0.09251 0.73411 0.0
C280 C 0.47822 0.07725 0.71988 0.0
H281 H 0.42895 0.02176 0.68994 0.0
H282 H 0.57652 0.97718 0.76966 0.0
H283 H 0.56126 0.99514 0.84217 0.0
H284 H 0.50924 0.01972 0.85132 0.0
H285 H 0.47318 0.02766 0.7879 0.0
C286 C 0.46041 0.03685 0.70491 0.0
C287 C 0.48586 0.01492 0.70114 0.0
C288 C 0.50464 0.00798 0.73892 0.0
C289 C 0.53249 0.99114 0.73399 0.0
C290 C 0.55344 0.98776 0.77181 0.0
C291 C 0.5452 -0.00175 0.81358 0.0
C292 C 0.51608 0.01228 0.81871 0.0
C293 C 0.4959 0.01709 0.78196 0.0
H294 H 0.24597 0.72148 0.27559 0.0
C295 C 0.21816 0.72103 0.26151 0.0
H296 H 0.17248 0.69632 0.21047 0.0
H297 H 0.31596 0.65395 0.12563 0.0
H298 H 0.35092 0.72753 0.09994 0.0
H299 H 0.32469 0.77598 0.12271 0.0
H300 H 0.26317 0.75107 0.17131 0.0
C301 C 0.20236 0.70049 0.22316 0.0
C302 C 0.21659 0.67107 0.20643 0.0
C303 C 0.25238 0.68612 0.17816 0.0
C304 C 0.26748 0.65819 0.16513 0.0
C305 C 0.30328 0.67391 0.13669 0.0
C306 C 0.32359 0.71602 0.12169 0.0
C307 C 0.30882 0.74331 0.13452 0.0
C308 C 0.27361 0.7287 0.16244 0.0
H309 H 0.21301 0.55166 0.12239 0.0
C310 C 0.24164 0.55511 0.13774 0.0
H311 H 0.29237 0.59175 0.18184 0.0
H312 H 0.14629 0.6319 0.26052 0.0
H313 H 0.11314 0.55935 0.2884 0.0
H314 H 0.14013 0.51135 0.26687 0.0
H315 H 0.20107 0.53585 0.21807 0.0
C316 C 0.26272 0.58646 0.16735 0.0
C317 C 0.24662 0.61539 0.18047 0.0
C318 C 0.21076 0.60032 0.20883 0.0
C319 C 0.19542 0.62809 0.22146 0.0
C320 C 0.15958 0.61232 0.25 0.0
C321 C 0.14004 0.57065 0.26612 0.0
C322 C 0.1553 0.54365 0.25408 0.0
C323 C 0.19024 0.55811 0.22584 0.0
H324 H 0.5304 0.25065 0.59583 0.0
C325 C 0.49972 0.22261 0.58824 0.0
H326 H 0.46359 0.17565 0.54042 0.0
H327 H 0.64793 0.32604 0.44791 0.0
H328 H 0.61677 0.37196 0.44926 0.0
H329 H 0.54567 0.34689 0.48206 0.0
H330 H 0.50526 0.27561 0.51372 0.0
C331 C 0.49331 0.20473 0.548 0.0
C332 C 0.5309 0.21651 0.51937 0.0
C333 C 0.55366 0.25776 0.50039 0.0
C334 C 0.59449 0.27205 0.48138 0.0
C335 C 0.61684 0.31365 0.46303 0.0
C336 C 0.59928 0.34027 0.46348 0.0
C337 C 0.55925 0.32617 0.48197 0.0
C338 C 0.53652 0.28537 0.50022 0.0
H339 H 0.63899 0.22225 0.40933 0.0
C340 C 0.66517 0.24657 0.42875 0.0
H341 H 0.6822 0.28682 0.48483 0.0
H342 H 0.49321 0.13351 0.54876 0.0
H343 H 0.52404 0.08764 0.54756 0.0
H344 H 0.59595 0.11317 0.51693 0.0
H345 H 0.63728 0.18461 0.48723 0.0
C346 C 0.65662 0.26163 0.46557 0.0
C347 C 0.61223 0.24489 0.48123 0.0
C348 C 0.58854 0.20277 0.49841 0.0
C349 C 0.54746 0.18833 0.51685 0.0
C350 C 0.52462 0.14633 0.53439 0.0
C351 C 0.54195 0.11956 0.53397 0.0
C352 C 0.58239 0.13392 0.51668 0.0
C353 C 0.60566 0.17503 0.49934 0.0
H354 H 0.42545 0.63006 0.74755 0.0
C355 C 0.43265 0.65392 0.77311 0.0
H356 H 0.41568 0.66583 0.83618 0.0
H357 H 0.23198 0.50509 0.84361 0.0
H358 H 0.21419 0.55962 0.82417 0.0
H359 H 0.27044 0.63188 0.80183 0.0
H360 H 0.3447 0.65007 0.7986 0.0
C361 C 0.4103 0.64223 0.81088 0.0
C362 C 0.37615 0.59738 0.81883 0.0
C363 C 0.33303 0.58736 0.82036 0.0
C364 C 0.30067 0.54594 0.83366 0.0
C365 C 0.25778 0.5365 0.83462 0.0
C366 C 0.24717 0.56736 0.82328 0.0
C367 C 0.27885 0.60804 0.81067 0.0
C368 C 0.32133 0.61811 0.80909 0.0
H369 H 0.27688 0.51385 0.9228 0.0
C370 C 0.2702 0.48214 0.91263 0.0
H371 H 0.27565 0.44534 0.86161 0.0
H372 H 0.45567 0.60538 0.81712 0.0
H373 H 0.47254 0.54996 0.83301 0.0
H374 H 0.41609 0.47757 0.8545 0.0
H375 H 0.34271 0.46043 0.86062 0.0
C376 C 0.28107 0.47656 0.87173 0.0
C377 C 0.31164 0.51495 0.8461 0.0
C378 C 0.35427 0.52378 0.84089 0.0
C379 C 0.38672 0.56529 0.82778 0.0
C380 C 0.42948 0.57415 0.82571 0.0
C381 C 0.43972 0.54265 0.83503 0.0
C382 C 0.40798 0.50195 0.84721 0.0
C383 C 0.36582 0.49254 0.85055 0.0
H384 H 0.77931 0.27663 0.1698 0.0
C385 C 0.76694 0.27375 0.20313 0.0
H386 H 0.73237 0.29087 0.24701 0.0
H387 H 0.81497 0.46603 0.13579 0.0
H388 H 0.88242 0.47907 0.16605 0.0
H389 H 0.88681 0.42255 0.20692 0.0
H390 H 0.82464 0.35291 0.21708 0.0
C391 C 0.74476 0.29319 0.21378 0.0
C392 C 0.74369 0.3255 0.18475 0.0
C393 C 0.78065 0.36662 0.18053 0.0
C394 C 0.77777 0.39986 0.15895 0.0
C395 C 0.81521 0.44019 0.15346 0.0
C396 C 0.85414 0.44804 0.17041 0.0
C397 C 0.85665 0.41619 0.19331 0.0
C398 C 0.82051 0.37604 0.1986 0.0
H399 H 0.74325 0.45503 0.1948 0.0
C400 C 0.73775 0.45913 0.16037 0.0
H401 H 0.72353 0.43062 0.09685 0.0
H402 H 0.66859 0.24942 0.1834 0.0
H403 H 0.60119 0.23685 0.15306 0.0
H404 H 0.59569 0.2955 0.11812 0.0
H405 H 0.65748 0.36699 0.11315 0.0
C406 C 0.73296 0.42942 0.13053 0.0
C407 C 0.73769 0.39263 0.14404 0.0
C408 C 0.70146 0.35103 0.14583 0.0
C409 C 0.70451 0.31735 0.16626 0.0
C410 C 0.66776 0.27618 0.1685 0.0
C411 C 0.62899 0.26855 0.15115 0.0
C412 C 0.62591 0.30157 0.13145 0.0
C413 C 0.66159 0.34244 0.12882 0.0
H414 H 0.27421 0.72122 0.53554 0.0
C415 C 0.27274 0.72203 0.49975 0.0
H416 H 0.30396 0.72421 0.43984 0.0
H417 H 0.45851 0.82092 0.58959 0.0
H418 H 0.44147 0.87767 0.58771 0.0
H419 H 0.38151 0.87045 0.54289 0.0
H420 H 0.33772 0.8059 0.50041 0.0
C421 C 0.30616 0.72742 0.4755 0.0
C422 C 0.34578 0.73437 0.49702 0.0
C423 C 0.37202 0.77303 0.52014 0.0
C424 C 0.40757 0.77786 0.54444 0.0
C425 C 0.43191 0.8159 0.56931 0.0
C426 C 0.42238 0.84878 0.5687 0.0
C427 C 0.38854 0.84465 0.5436 0.0
C428 C 0.36352 0.8073 0.51957 0.0
H429 H 0.50129 0.78985 0.52745 0.0
C430 C 0.49399 0.77522 0.55997 0.0
H431 H 0.44499 0.73459 0.60417 0.0
H432 H 0.30341 0.65743 0.45361 0.0
H433 H 0.32239 0.60179 0.45278 0.0
H434 H 0.38539 0.61107 0.49342 0.0
H435 H 0.4298 0.67613 0.53525 0.0
C436 C 0.45319 0.74875 0.57149 0.0
C437 C 0.41773 0.74466 0.54391 0.0
C438 C 0.39261 0.70684 0.51929 0.0
C439 C 0.35651 0.70165 0.4957 0.0
C440 C 0.33139 0.66318 0.47192 0.0
C441 C 0.3419 0.63097 0.4712 0.0
C442 C 0.37736 0.63619 0.4941 0.0
C443 C 0.40254 0.67361 0.51798 0.0
H444 H 0.56173 0.36226 0.78873 0.0
C445 C 0.56873 0.3409 0.80739 0.0
H446 H 0.60623 0.33641 0.8581 0.0
H447 H 0.74448 0.53452 0.84486 0.0
H448 H 0.77672 0.50801 0.79214 0.0
H449 H 0.7373 0.43317 0.76591 0.0
H450 H 0.66546 0.38433 0.79217 0.0
C451 C 0.59799 0.35691 0.83955 0.0
C452 C 0.61983 0.40293 0.85137 0.0
C453 C 0.66158 0.43092 0.83551 0.0
C454 C 0.68435 0.47396 0.8507 0.0
C455 C 0.72607 0.50137 0.83458 0.0
C456 C 0.74481 0.48661 0.80427 0.0
C457 C 0.7226 0.44446 0.78948 0.0
C458 C 0.68146 0.41676 0.80483 0.0
H459 H 0.71964 0.50657 0.94621 0.0
C460 C 0.71548 0.53362 0.93832 0.0
H461 H 0.68332 0.55565 0.89762 0.0
H462 H 0.53937 0.35785 0.88648 0.0
H463 H 0.50695 0.38465 0.9382 0.0
H464 H 0.54634 0.45928 0.9645 0.0
H465 H 0.6183 0.50804 0.93871 0.0
C466 C 0.69108 0.53072 0.90381 0.0
C467 C 0.6653 0.48865 0.88177 0.0
C468 C 0.62267 0.46129 0.89586 0.0
C469 C 0.59996 0.41822 0.8808 0.0
C470 C 0.558 0.39099 0.89663 0.0
C471 C 0.53902 0.40593 0.92638 0.0
C472 C 0.5612 0.44803 0.94113 0.0
C473 C 0.60251 0.47558 0.92615 0.0
H474 H 0.33016 0.21351 0.77873 0.0
C475 C 0.3166 0.18036 0.76823 0.0
H476 H 0.26109 0.11906 0.76888 0.0
H477 H 0.20579 0.19254 0.93311 0.0
H478 H 0.20119 0.12815 0.96375 0.0
H479 H 0.21829 0.08196 0.91801 0.0
H480 H 0.23977 0.09967 0.84127 0.0
C481 C 0.27493 0.15309 0.77518 0.0
C482 C 0.24921 0.16962 0.79689 0.0
C483 C 0.23553 0.15796 0.84095 0.0
C484 C 0.2262 0.18481 0.86736 0.0
C485 C 0.21379 0.17339 0.91185 0.0
C486 C 0.21089 0.13653 0.92971 0.0
C487 C 0.2205 0.1105 0.90394 0.0
C488 C 0.23289 0.12105 0.86006 0.0
H489 H 0.1802 0.25831 0.85995 0.0
C490 C 0.20757 0.27157 0.88191 0.0
H491 H 0.2618 0.26947 0.90315 0.0
H492 H 0.25948 0.19095 0.70995 0.0
H493 H 0.26093 0.25332 0.67749 0.0
H494 H 0.25004 0.30338 0.72396 0.0
H495 H 0.23678 0.29116 0.80233 0.0
C496 C 0.23513 0.25707 0.88031 0.0
C497 C 0.23077 0.22309 0.84951 0.0
C498 C 0.23873 0.23147 0.80369 0.0
C499 C 0.24679 0.20378 0.77716 0.0
C500 C 0.25434 0.212 0.73145 0.0
C501 C 0.25509 0.24743 0.71253 0.0
C502 C 0.24884 0.27554 0.73868 0.0
C503 C 0.24103 0.26799 0.78378 0.0
H504 H 0.89205 0.19208 0.12812 0.0
C505 C 0.9012 0.19994 0.16251 0.0
H506 H 0.95053 0.21931 0.20953 0.0
H507 H 0.07226 0.18524 0.08665 0.0
H508 H 0.03759 0.11652 0.12445 0.0
H509 H 0.97365 0.09496 0.17053 0.0
H510 H 0.94401 0.14196 0.17927 0.0
C511 C 0.94097 0.21154 0.17523 0.0
C512 C 0.97505 0.22113 0.14259 0.0
C513 C 0.99138 0.19302 0.13744 0.0
C514 C 0.02809 0.20534 0.11086 0.0
C515 C 0.04445 0.17723 0.1067 0.0
C516 C 0.02481 0.13779 0.12808 0.0
C517 C 0.98879 0.12565 0.15404 0.0
C518 C 0.97215 0.15287 0.15885 0.0
H519 H 0.12112 0.29308 0.12818 0.0
C520 C 0.12508 0.28911 0.09322 0.0
H521 H 0.09265 0.26058 0.0337 0.0
H522 H 0.95181 0.283 0.14534 0.0
H523 H 0.98502 0.34989 0.10538 0.0
H524 H 0.04666 0.3694 0.05645 0.0
H525 H 0.07559 0.32205 0.04768 0.0
C526 C 0.09068 0.26264 0.06932 0.0
C527 C 0.04804 0.24555 0.08964 0.0
C528 C 0.03006 0.27241 0.09235 0.0
C529 C 0.99395 0.26062 0.11957 0.0
C530 C 0.97847 0.28956 0.12417 0.0
C531 C -0.00261 0.3283 0.10154 0.0
C532 C 0.03212 0.33932 0.07407 0.0
C533 C 0.04845 0.31188 0.06945 0.0
H534 H 0.74967 0.09174 0.39691 0.0
C535 C 0.78126 0.10675 0.38201 0.0
H536 H 0.83885 0.1054 0.37726 0.0
H537 H 0.78112 -0.00025 0.55775 0.0
H538 H 0.84924 0.06145 0.57784 0.0
H539 H 0.89056 0.11855 0.52378 0.0
H540 H 0.86422 0.1141 0.44918 0.0
C541 C 0.80588 0.08925 0.3883 0.0
C542 C 0.78902 0.05008 0.41567 0.0
C543 C 0.80542 0.05284 0.45858 0.0
C544 C 0.78134 0.02027 0.48983 0.0
C545 C 0.79792 0.024 0.5329 0.0
C546 C 0.837 0.05913 0.54479 0.0
C547 C 0.86028 0.09127 0.51434 0.0
C548 C 0.84477 0.0884 0.4717 0.0
H549 H 0.70929 0.90069 0.4906 0.0
C550 C 0.69886 0.91538 0.51534 0.0
H551 H 0.70259 0.97233 0.53847 0.0
H552 H 0.75634 0.02994 0.33255 0.0
H553 H 0.68876 0.96796 0.31115 0.0
H554 H 0.64328 0.91424 0.36648 0.0
H555 H 0.66526 0.92142 0.44273 0.0
C556 C 0.71218 0.9573 0.51327 0.0
C557 C 0.74095 0.98535 0.47798 0.0
C558 C 0.72654 0.98061 0.43367 0.0
C559 C 0.7515 0.01253 0.4022 0.0
C560 C 0.73754 0.00704 0.35786 0.0
C561 C 0.69905 0.97165 0.34519 0.0
C562 C 0.67354 0.94134 0.37631 0.0
C563 C 0.6868 0.94573 0.4201 0.0
H564 H 0.72655 0.8088 0.6846 0.0
C565 C 0.70322 0.80662 0.70867 0.0
H566 H 0.68584 0.79994 0.77577 0.0
H567 H 0.77013 0.67971 0.79052 0.0
H568 H 0.71793 0.63295 0.73664 0.0
H569 H 0.67445 0.65633 0.69582 0.0
H570 H 0.68306 0.72643 0.70834 0.0
C571 C 0.70671 0.79835 0.75092 0.0
C572 C 0.73916 0.78788 0.76613 0.0
C573 C 0.73398 0.74689 0.75744 0.0
C574 C 0.75845 0.73307 0.78146 0.0
C575 C 0.75208 0.69161 0.77341 0.0
C576 C 0.72229 0.66449 0.74251 0.0
C577 C 0.69786 0.67768 0.71949 0.0
C578 C 0.70328 0.71822 0.72692 0.0
H579 H 0.76108 0.7516 0.8968 0.0
C580 C 0.77924 0.73556 0.89062 0.0
H581 H 0.81478 0.72269 0.84381 0.0
H582 H 0.76305 0.87138 0.78291 0.0
H583 H 0.81849 0.91937 0.8339 0.0
H584 H 0.86059 0.89484 0.87573 0.0
H585 H 0.84734 0.82197 0.86682 0.0
C586 C 0.79782 0.7397 0.85112 0.0
C587 C 0.78668 0.75972 0.8148 0.0
C588 C 0.79585 0.80253 0.81906 0.0
C589 C 0.7718 0.8166 0.79487 0.0
C590 C 0.78038 0.85908 0.80086 0.0
C591 C 0.81215 0.8869 0.82982 0.0
C592 C 0.83586 0.87309 0.85339 0.0
C593 C 0.82789 0.83133 0.84822 0.0
H594 H 0.90607 0.70627 0.10236 0.0
C595 C 0.88942 0.72344 0.09448 0.0
H596 H 0.89186 0.78309 0.09845 0.0
H597 H 0.02191 0.81961 0.25634 0.0
H598 H 0.96938 0.83398 0.29047 0.0
H599 H 0.90864 0.82739 0.24741 0.0
H600 H 0.90024 0.80674 0.16994 0.0
C601 C 0.90897 0.76577 0.10198 0.0
C602 C 0.95221 0.78703 0.12194 0.0
C603 C 0.95725 0.80067 0.16641 0.0
C604 C 0.99189 0.80397 0.19126 0.0
C605 C -0.0043 0.81612 0.23623 0.0
C606 C 0.96593 0.82458 0.25608 0.0
C607 C 0.93174 0.82089 0.23182 0.0
C608 C 0.92719 0.8089 0.18749 0.0
H609 H 0.10713 0.83068 0.18238 0.0
C610 C 0.08849 0.80288 0.20311 0.0
H611 H 0.02724 0.75433 0.22244 0.0
H612 H 0.95892 0.77609 0.03407 0.0
H613 H 0.01343 0.76559 -0.0018 0.0
H614 H 0.07138 0.76665 0.04177 0.0
H615 H 0.07583 0.77897 0.12074 0.0
C616 C 0.04579 0.78126 0.2006 0.0
C617 C 0.02098 0.79351 0.17145 0.0
C618 C 0.01951 0.78635 0.12526 0.0
C619 C 0.98541 0.78419 0.10032 0.0
C620 C 0.98393 0.77697 0.0543 0.0
C621 C 0.01495 0.77107 0.03347 0.0
C622 C 0.04762 0.77175 0.05801 0.0
C623 C 0.04988 0.77901 0.10343 0.0
H624 H 0.13995 0.88098 0.42144 0.0
C625 C 0.16202 0.86903 0.42407 0.0
H626 H 0.22426 0.88371 0.4408 0.0
H627 H 0.32127 0.07964 0.45364 0.0
H628 H 0.34411 0.07053 0.38104 0.0
H629 H 0.3073 0.00052 0.34317 0.0
H630 H 0.24758 0.93907 0.37797 0.0
C631 C 0.20054 0.8937 0.44211 0.0
C632 C 0.21464 0.93708 0.45983 0.0
C633 C 0.24846 0.97292 0.43846 0.0
C634 C 0.26921 0.01335 0.45998 0.0
C635 C 0.30413 0.04822 0.43869 0.0
C636 C 0.31754 0.04345 0.39696 0.0
C637 C 0.29685 0.00403 0.37565 0.0
C638 C 0.26275 0.96902 0.39604 0.0
H639 H 0.29245 0.0172 0.5775 0.0
C640 C 0.30206 0.04951 0.56679 0.0
H641 H 0.29446 0.08734 0.51872 0.0
H642 H 0.1476 0.87574 0.50832 0.0
H643 H 0.12032 0.88691 0.5772 0.0
H644 H 0.15329 0.95853 0.61167 0.0
H645 H 0.21457 0.0193 0.57761 0.0
C646 C 0.28457 0.05528 0.53037 0.0
C647 C 0.25579 0.01764 0.50272 0.0
C648 C 0.21842 0.98323 0.52137 0.0
C649 C 0.19835 0.94247 0.50048 0.0
C650 C 0.1633 0.90778 0.52183 0.0
C651 C 0.14738 0.91371 0.56154 0.0
C652 C 0.16601 0.954 0.58102 0.0
C653 C 0.20121 0.98847 0.56135 0.0
loop_
_geom_bond_atom_site_label_1
_geom_bond_atom_site_label_2
_geom_bond_distance
_geom_bond_site_symmetry_2
_ccdc_geom_bond_type
Co0 O3 1.970 . S
Co0 N17 1.989 1_556 S
Co0 O25 1.967 1_556 S
Co0 O32 1.920 . S
Co1 O4 1.966 1_554 S
Co1 N10 2.022 . S
Co1 N18 1.993 . S
Co1 O26 1.941 . S
C2 O3 1.258 . S
C2 O4 1.263 . S
O3 Co0 1.970 . S
O3 C2 1.258 . S
O4 Co1 1.966 1_556 S
O4 C2 1.263 . S
C5 O6 1.235 . S
C5 O32 1.289 . S
O6 C5 1.235 . S
C7 C9 1.400 . S
C7 N10 1.351 . S
C7 C12 1.501 . S
C8 C9 1.387 . S
C8 N11 1.341 . S
C9 C7 1.400 . S
C9 C8 1.387 . S
N10 Co1 2.022 . S
N10 C7 1.351 . S
N10 N11 1.365 . S
N11 C8 1.341 . S
N11 N10 1.365 . S
N11 H31 0.862 . S
C12 C7 1.501 . S
C12 H13 0.961 . S
C12 H14 0.961 . S
C12 H15 0.960 . S
H13 C12 0.961 . S
H14 C12 0.961 . S
H15 C12 0.960 . S
C16 N17 1.342 . S
C16 C20 1.401 . S
C16 C21 1.499 . S
N17 Co0 1.989 1_554 S
N17 C16 1.342 . S
N17 N18 1.388 . S
N18 Co1 1.993 . S
N18 N17 1.388 . S
N18 C19 1.346 . S
C19 N18 1.346 . S
C19 C20 1.396 . S
C19 C29 1.510 . S
C20 C16 1.401 . S
C20 C19 1.396 . S
C21 C16 1.499 . S
C21 H22 0.959 1_554 S
C21 H23 0.960 1_554 S
C21 H24 0.961 . S
H22 C21 0.959 1_556 S
H23 C21 0.960 1_556 S
H24 C21 0.961 . S
O25 Co0 1.967 1_554 S
O25 C33 1.258 . S
O26 Co1 1.941 . S
O26 C33 1.266 . S
H27 C29 0.959 . S
H28 C29 0.961 . S
C29 C19 1.510 . S
C29 H27 0.959 . S
C29 H28 0.961 . S
C29 H30 0.960 . S
H30 C29 0.960 . S
H31 N11 0.862 . S
O32 Co0 1.920 . S
O32 C5 1.289 . S
C33 O25 1.258 . S
C33 O26 1.266 . S
Co34 O37 1.970 . S
Co34 N51 1.989 . S
Co34 O59 1.967 . S
Co34 O66 1.920 . S
Co35 O38 1.966 . S
Co35 N44 2.022 . S
Co35 N52 1.993 . S
Co35 O60 1.941 . S
C36 O37 1.258 . S
C36 O38 1.263 . S
O37 Co34 1.970 . S
O37 C36 1.258 . S
O38 Co35 1.966 . S
O38 C36 1.263 . S
C39 O40 1.235 . S
C39 O66 1.289 . S
O40 C39 1.235 . S
C41 C43 1.400 . S
C41 N44 1.351 . S
C41 C46 1.501 . S
C42 C43 1.387 . S
C42 N45 1.341 . S
C43 C41 1.400 . S
C43 C42 1.387 . S
N44 Co35 2.022 . S
N44 C41 1.351 . S
N44 N45 1.365 . S
N45 C42 1.341 . S
N45 N44 1.365 . S
N45 H65 0.862 . S
C46 C41 1.501 . S
C46 H47 0.961 . S
C46 H48 0.961 . S
C46 H49 0.960 . S
H47 C46 0.961 . S
H48 C46 0.961 . S
H49 C46 0.960 . S
C50 N51 1.342 . S
C50 C54 1.401 . S
C50 C55 1.499 . S
N51 Co34 1.989 . S
N51 C50 1.342 . S
N51 N52 1.388 . S
N52 Co35 1.993 . S
N52 N51 1.388 . S
N52 C53 1.346 . S
C53 N52 1.346 . S
C53 C54 1.396 . S
C53 C63 1.510 . S
C54 C50 1.401 . S
C54 C53 1.396 . S
C55 C50 1.499 . S
C55 H56 0.959 . S
C55 H57 0.960 . S
C55 H58 0.961 . S
H56 C55 0.959 . S
H57 C55 0.960 . S
H58 C55 0.961 . S
O59 Co34 1.967 . S
O59 C67 1.258 . S
O60 Co35 1.941 . S
O60 C67 1.266 . S
H61 C63 0.959 . S
H62 C63 0.961 . S
C63 C53 1.510 . S
C63 H61 0.959 . S
C63 H62 0.961 . S
C63 H64 0.960 . S
H64 C63 0.960 . S
H65 N45 0.862 . S
O66 Co34 1.920 . S
O66 C39 1.289 . S
C67 O59 1.258 . S
C67 O60 1.266 . S
Co68 O71 1.970 . S
Co68 N85 1.989 . S
Co68 O93 1.967 . S
Co68 O100 1.920 . S
Co69 O72 1.966 . S
Co69 N78 2.022 . S
Co69 N86 1.993 . S
Co69 O94 1.941 . S
C70 O71 1.258 . S
C70 O72 1.263 . S
O71 Co68 1.970 . S
O71 C70 1.258 . S
O72 Co69 1.966 . S
O72 C70 1.263 . S
C73 O74 1.235 . S
C73 O100 1.289 . S
O74 C73 1.235 . S
C75 C77 1.400 . S
C75 N78 1.351 . S
C75 C80 1.501 . S
C76 C77 1.387 . S
C76 N79 1.341 . S
C77 C75 1.400 . S
C77 C76 1.387 . S
N78 Co69 2.022 . S
N78 C75 1.351 . S
N78 N79 1.365 . S
N79 C76 1.341 . S
N79 N78 1.365 . S
N79 H99 0.862 . S
C80 C75 1.501 . S
C80 H81 0.961 . S
C80 H82 0.961 . S
C80 H83 0.960 . S
H81 C80 0.961 . S
H82 C80 0.961 . S
H83 C80 0.960 . S
C84 N85 1.342 . S
C84 C88 1.401 . S
C84 C89 1.499 . S
N85 Co68 1.989 . S
N85 C84 1.342 . S
N85 N86 1.388 . S
N86 Co69 1.993 . S
N86 N85 1.388 . S
N86 C87 1.346 . S
C87 N86 1.346 . S
C87 C88 1.396 . S
C87 C97 1.510 . S
C88 C84 1.401 . S
C88 C87 1.396 . S
C89 C84 1.499 . S
C89 H90 0.959 . S
C89 H91 0.960 . S
C89 H92 0.961 . S
H90 C89 0.959 . S
H91 C89 0.960 . S
H92 C89 0.961 . S
O93 Co68 1.967 . S
O93 C101 1.258 . S
O94 Co69 1.941 . S
O94 C101 1.266 . S
H95 C97 0.959 . S
H96 C97 0.961 . S
C97 C87 1.510 . S
C97 H95 0.959 . S
C97 H96 0.961 . S
C97 H98 0.960 . S
H98 C97 0.960 . S
H99 N79 0.862 . S
O100 Co68 1.920 . S
O100 C73 1.289 . S
C101 O93 1.258 . S
C101 O94 1.266 . S
Co102 O105 1.970 . S
Co102 N119 1.989 1_556 S
Co102 O127 1.967 1_556 S
Co102 O134 1.920 . S
Co103 O106 1.966 1_554 S
Co103 N112 2.022 . S
Co103 N120 1.993 . S
Co103 O128 1.941 . S
C104 O105 1.258 . S
C104 O106 1.263 . S
O105 Co102 1.970 . S
O105 C104 1.258 . S
O106 Co103 1.966 1_556 S
O106 C104 1.263 . S
C107 O108 1.235 . S
C107 O134 1.289 . S
O108 C107 1.235 . S
C109 C111 1.400 . S
C109 N112 1.351 . S
C109 C114 1.501 . S
C110 C111 1.387 . S
C110 N113 1.341 . S
C111 C109 1.400 . S
C111 C110 1.387 . S
N112 Co103 2.022 . S
N112 C109 1.351 . S
N112 N113 1.365 . S
N113 C110 1.341 . S
N113 N112 1.365 . S
N113 H133 0.862 . S
C114 C109 1.501 . S
C114 H115 0.961 . S
C114 H116 0.961 . S
C114 H117 0.960 . S
H115 C114 0.961 . S
H116 C114 0.961 . S
H117 C114 0.960 . S
C118 N119 1.342 . S
C118 C122 1.401 . S
C118 C123 1.499 . S
N119 Co102 1.989 1_554 S
N119 C118 1.342 . S
N119 N120 1.388 . S
N120 Co103 1.993 . S
N120 N119 1.388 . S
N120 C121 1.346 . S
C121 N120 1.346 . S
C121 C122 1.396 . S
C121 C131 1.510 . S
C122 C118 1.401 . S
C122 C121 1.396 . S
C123 C118 1.499 . S
C123 H124 0.959 1_554 S
C123 H125 0.960 1_554 S
C123 H126 0.961 . S
H124 C123 0.959 1_556 S
H125 C123 0.960 1_556 S
H126 C123 0.961 . S
O127 Co102 1.967 1_554 S
O127 C135 1.258 . S
O128 Co103 1.941 . S
O128 C135 1.266 . S
H129 C131 0.959 . S
H130 C131 0.961 . S
C131 C121 1.510 . S
C131 H129 0.959 . S
C131 H130 0.961 . S
C131 H132 0.960 . S
H132 C131 0.960 . S
H133 N113 0.862 . S
O134 Co102 1.920 . S
O134 C107 1.289 . S
C135 O127 1.258 . S
C135 O128 1.266 . S
Co136 O139 1.970 . S
Co136 N153 1.989 . S
Co136 O161 1.967 . S
Co136 O168 1.920 . S
Co137 O140 1.966 . S
Co137 N146 2.022 . S
Co137 N154 1.993 . S
Co137 O162 1.941 . S
C138 O139 1.258 . S
C138 O140 1.263 . S
O139 Co136 1.970 . S
O139 C138 1.258 . S
O140 Co137 1.966 . S
O140 C138 1.263 . S
C141 O142 1.235 . S
C141 O168 1.289 . S
O142 C141 1.235 . S
C143 C145 1.400 . S
C143 N146 1.351 . S
C143 C148 1.501 . S
C144 C145 1.387 . S
C144 N147 1.341 . S
C145 C143 1.400 . S
C145 C144 1.387 . S
N146 Co137 2.022 . S
N146 C143 1.351 . S
N146 N147 1.365 . S
N147 C144 1.341 . S
N147 N146 1.365 . S
N147 H167 0.862 . S
C148 C143 1.501 . S
C148 H149 0.961 . S
C148 H150 0.961 . S
C148 H151 0.960 . S
H149 C148 0.961 . S
H150 C148 0.961 . S
H151 C148 0.960 . S
C152 N153 1.342 . S
C152 C156 1.401 . S
C152 C157 1.499 . S
N153 Co136 1.989 . S
N153 C152 1.342 . S
N153 N154 1.388 . S
N154 Co137 1.993 . S
N154 N153 1.388 . S
N154 C155 1.346 . S
C155 N154 1.346 . S
C155 C156 1.396 . S
C155 C165 1.510 . S
C156 C152 1.401 . S
C156 C155 1.396 . S
C157 C152 1.499 . S
C157 H158 0.959 . S
C157 H159 0.960 . S
C157 H160 0.961 . S
H158 C157 0.959 . S
H159 C157 0.960 . S
H160 C157 0.961 . S
O161 Co136 1.967 . S
O161 C169 1.258 . S
O162 Co137 1.941 . S
O162 C169 1.266 . S
H163 C165 0.959 . S
H164 C165 0.961 . S
C165 C155 1.510 . S
C165 H163 0.959 . S
C165 H164 0.961 . S
C165 H166 0.960 . S
H166 C165 0.960 . S
H167 N147 0.862 . S
O168 Co136 1.920 . S
O168 C141 1.289 . S
C169 O161 1.258 . S
C169 O162 1.266 . S
Co170 O173 1.970 . S
Co170 N187 1.989 . S
Co170 O195 1.967 . S
Co170 O202 1.920 . S
Co171 O174 1.966 . S
Co171 N180 2.022 . S
Co171 N188 1.993 . S
Co171 O196 1.941 . S
C172 O173 1.258 . S
C172 O174 1.263 . S
O173 Co170 1.970 . S
O173 C172 1.258 . S
O174 Co171 1.966 . S
O174 C172 1.263 . S
C175 O176 1.235 . S
C175 O202 1.289 . S
O176 C175 1.235 . S
C177 C179 1.400 . S
C177 N180 1.351 . S
C177 C182 1.501 . S
C178 C179 1.387 . S
C178 N181 1.341 . S
C179 C177 1.400 . S
C179 C178 1.387 . S
N180 Co171 2.022 . S
N180 C177 1.351 . S
N180 N181 1.365 . S
N181 C178 1.341 . S
N181 N180 1.365 . S
N181 H201 0.862 . S
C182 C177 1.501 . S
C182 H183 0.961 . S
C182 H184 0.961 . S
C182 H185 0.960 . S
H183 C182 0.961 . S
H184 C182 0.961 . S
H185 C182 0.960 . S
C186 N187 1.342 . S
C186 C190 1.401 . S
C186 C191 1.499 . S
N187 Co170 1.989 . S
N187 C186 1.342 . S
N187 N188 1.388 . S
N188 Co171 1.993 . S
N188 N187 1.388 . S
N188 C189 1.346 . S
C189 N188 1.346 . S
C189 C190 1.396 . S
C189 C199 1.510 . S
C190 C186 1.401 . S
C190 C189 1.396 . S
C191 C186 1.499 . S
C191 H192 0.959 . S
C191 H193 0.960 . S
C191 H194 0.961 . S
H192 C191 0.959 . S
H193 C191 0.960 . S
H194 C191 0.961 . S
O195 Co170 1.967 . S
O195 C203 1.258 . S
O196 Co171 1.941 . S
O196 C203 1.266 . S
H197 C199 0.959 . S
H198 C199 0.961 . S
C199 C189 1.510 . S
C199 H197 0.959 . S
C199 H198 0.961 . S
C199 H200 0.960 . S
H200 C199 0.960 . S
H201 N181 0.862 . S
O202 Co170 1.920 . S
O202 C175 1.289 . S
C203 O195 1.258 . S
C203 O196 1.266 . S
H204 C205 0.951 . S
C205 H204 0.951 . S
C205 C211 1.265 . S
H206 C211 0.950 . S
H207 C215 0.949 . S
H208 C216 0.950 . S
H209 C217 0.951 . S
H210 C218 0.951 . S
C211 C205 1.265 . S
C211 H206 0.950 . S
C211 C212 1.478 . S
C212 C211 1.478 . S
C212 C213 1.397 . S
C212 C229 1.394 . S
C213 C212 1.397 . S
C213 C214 1.438 . S
C213 C218 1.429 . S
C214 C213 1.438 . S
C214 C215 1.428 . S
C214 C227 1.394 . S
C215 H207 0.949 . S
C215 C214 1.428 . S
C215 C216 1.345 . S
C216 H208 0.950 . S
C216 C215 1.345 . S
C216 C217 1.424 . S
C217 H209 0.951 . S
C217 C216 1.424 . S
C217 C218 1.347 . S
C218 H210 0.951 . S
C218 C213 1.429 . S
C218 C217 1.347 . S
H219 C220 0.951 . S
C220 H219 0.951 . S
C220 C226 1.265 . S
H221 C226 0.950 . S
H222 C230 0.949 . S
H223 C231 0.950 . S
H224 C232 0.951 . S
H225 C233 0.951 . S
C226 C220 1.265 . S
C226 H221 0.950 . S
C226 C227 1.478 . S
C227 C214 1.394 . S
C227 C226 1.478 . S
C227 C228 1.397 . S
C228 C227 1.397 . S
C228 C229 1.438 . S
C228 C233 1.429 1_554 S
C229 C212 1.394 . S
C229 C228 1.438 . S
C229 C230 1.428 1_554 S
C230 H222 0.949 . S
C230 C229 1.428 1_556 S
C230 C231 1.345 . S
C231 H223 0.950 . S
C231 C230 1.345 . S
C231 C232 1.424 . S
C232 H224 0.951 . S
C232 C231 1.424 . S
C232 C233 1.347 . S
C233 H225 0.951 . S
C233 C228 1.429 1_556 S
C233 C232 1.347 . S
H234 C235 0.951 . S
C235 H234 0.951 . S
C235 C241 1.265 . S
H236 C241 0.950 . S
H237 C245 0.949 . S
H238 C246 0.950 . S
H239 C247 0.951 . S
H240 C248 0.951 . S
C241 C235 1.265 . S
C241 H236 0.950 . S
C241 C242 1.478 . S
C242 C241 1.478 . S
C242 C243 1.397 . S
C242 C259 1.394 . S
C243 C242 1.397 . S
C243 C244 1.438 1_455 S
C243 C248 1.429 . S
C244 C243 1.438 1_655 S
C244 C245 1.428 . S
C244 C257 1.394 . S
C245 H237 0.949 . S
C245 C244 1.428 . S
C245 C246 1.345 1_655 S
C246 H238 0.950 . S
C246 C245 1.345 1_455 S
C246 C247 1.424 . S
C247 H239 0.951 . S
C247 C246 1.424 . S
C247 C248 1.347 . S
C248 H240 0.951 . S
C248 C243 1.429 . S
C248 C247 1.347 . S
H249 C250 0.951 . S
C250 H249 0.951 . S
C250 C256 1.265 . S
H251 C256 0.950 . S
H252 C260 0.949 . S
H253 C261 0.950 . S
H254 C262 0.951 . S
H255 C263 0.951 . S
C256 C250 1.265 . S
C256 H251 0.950 . S
C256 C257 1.478 . S
C257 C244 1.394 . S
C257 C256 1.478 . S
C257 C258 1.397 . S
C258 C257 1.397 . S
C258 C259 1.438 1_655 S
C258 C263 1.429 . S
C259 C242 1.394 . S
C259 C258 1.438 1_455 S
C259 C260 1.428 . S
C260 H252 0.949 . S
C260 C259 1.428 . S
C260 C261 1.345 1_455 S
C261 H253 0.950 . S
C261 C260 1.345 1_655 S
C261 C262 1.424 . S
C262 H254 0.951 . S
C262 C261 1.424 . S
C262 C263 1.347 . S
C263 H255 0.951 . S
C263 C258 1.429 . S
C263 C262 1.347 . S
H264 C265 0.951 . S
C265 H264 0.951 . S
C265 C271 1.265 . S
H266 C271 0.950 . S
H267 C275 0.949 . S
H268 C276 0.950 . S
H269 C277 0.951 . S
H270 C278 0.951 1_565 S
C271 C265 1.265 . S
C271 H266 0.950 . S
C271 C272 1.478 . S
C272 C271 1.478 . S
C272 C273 1.397 1_565 S
C272 C289 1.394 . S
C273 C272 1.397 1_545 S
C273 C274 1.438 . S
C273 C278 1.429 . S
C274 C273 1.438 . S
C274 C275 1.428 . S
C274 C287 1.394 . S
C275 H267 0.949 . S
C275 C274 1.428 . S
C275 C276 1.345 . S
C276 H268 0.950 . S
C276 C275 1.345 . S
C276 C277 1.424 . S
C277 H269 0.951 . S
C277 C276 1.424 . S
C277 C278 1.347 . S
C278 H270 0.951 1_545 S
C278 C273 1.429 . S
C278 C277 1.347 . S
H279 C280 0.951 . S
C280 H279 0.951 . S
C280 C286 1.265 . S
H281 C286 0.950 . S
H282 C290 0.949 . S
H283 C291 0.950 . S
H284 C292 0.951 . S
H285 C293 0.951 1_545 S
C286 C280 1.265 . S
C286 H281 0.950 . S
C286 C287 1.478 . S
C287 C274 1.394 . S
C287 C286 1.478 . S
C287 C288 1.397 1_545 S
C288 C287 1.397 1_565 S
C288 C289 1.438 . S
C288 C293 1.429 . S
C289 C272 1.394 . S
C289 C288 1.438 . S
C289 C290 1.428 . S
C290 H282 0.949 . S
C290 C289 1.428 . S
C290 C291 1.345 . S
C291 H283 0.950 . S
C291 C290 1.345 . S
C291 C292 1.424 . S
C292 H284 0.951 . S
C292 C291 1.424 . S
C292 C293 1.347 . S
C293 H285 0.951 1_565 S
C293 C288 1.429 . S
C293 C292 1.347 . S
H294 C295 0.951 . S
C295 H294 0.951 . S
C295 C301 1.265 . S
H296 C301 0.950 . S
H297 C305 0.949 . S
H298 C306 0.950 . S
H299 C307 0.951 . S
H300 C308 0.951 . S
C301 C295 1.265 . S
C301 H296 0.950 . S
C301 C302 1.478 . S
C302 C301 1.478 . S
C302 C303 1.397 . S
C302 C319 1.394 . S
C303 C302 1.397 . S
C303 C304 1.438 . S
C303 C308 1.429 . S
C304 C303 1.438 . S
C304 C305 1.428 . S
C304 C317 1.394 . S
C305 H297 0.949 . S
C305 C304 1.428 . S
C305 C306 1.345 . S
C306 H298 0.950 . S
C306 C305 1.345 . S
C306 C307 1.424 . S
C307 H299 0.951 . S
C307 C306 1.424 . S
C307 C308 1.347 . S
C308 H300 0.951 . S
C308 C303 1.429 . S
C308 C307 1.347 . S
H309 C310 0.951 . S
C310 H309 0.951 . S
C310 C316 1.265 . S
H311 C316 0.950 . S
H312 C320 0.949 . S
H313 C321 0.950 . S
H314 C322 0.951 . S
H315 C323 0.951 . S
C316 C310 1.265 . S
C316 H311 0.950 . S
C316 C317 1.478 . S
C317 C304 1.394 . S
C317 C316 1.478 . S
C317 C318 1.397 . S
C318 C317 1.397 . S
C318 C319 1.438 . S
C318 C323 1.429 . S
C319 C302 1.394 . S
C319 C318 1.438 . S
C319 C320 1.428 . S
C320 H312 0.949 . S
C320 C319 1.428 . S
C320 C321 1.345 . S
C321 H313 0.950 . S
C321 C320 1.345 . S
C321 C322 1.424 . S
C322 H314 0.951 . S
C322 C321 1.424 . S
C322 C323 1.347 . S
C323 H315 0.951 . S
C323 C318 1.429 . S
C323 C322 1.347 . S
H324 C325 0.951 . S
C325 H324 0.951 . S
C325 C331 1.265 . S
H326 C331 0.950 . S
H327 C335 0.949 . S
H328 C336 0.950 . S
H329 C337 0.951 . S
H330 C338 0.951 . S
C331 C325 1.265 . S
C331 H326 0.950 . S
C331 C332 1.478 . S
C332 C331 1.478 . S
C332 C333 1.397 . S
C332 C349 1.394 . S
C333 C332 1.397 . S
C333 C334 1.438 . S
C333 C338 1.429 . S
C334 C333 1.438 . S
C334 C335 1.428 . S
C334 C347 1.394 . S
C335 H327 0.949 . S
C335 C334 1.428 . S
C335 C336 1.345 . S
C336 H328 0.950 . S
C336 C335 1.345 . S
C336 C337 1.424 . S
C337 H329 0.951 . S
C337 C336 1.424 . S
C337 C338 1.347 . S
C338 H330 0.951 . S
C338 C333 1.429 . S
C338 C337 1.347 . S
H339 C340 0.951 . S
C340 H339 0.951 . S
C340 C346 1.265 . S
H341 C346 0.950 . S
H342 C350 0.949 . S
H343 C351 0.950 . S
H344 C352 0.951 . S
H345 C353 0.951 . S
C346 C340 1.265 . S
C346 H341 0.950 . S
C346 C347 1.478 . S
C347 C334 1.394 . S
C347 C346 1.478 . S
C347 C348 1.397 . S
C348 C347 1.397 . S
C348 C349 1.438 . S
C348 C353 1.429 . S
C349 C332 1.394 . S
C349 C348 1.438 . S
C349 C350 1.428 . S
C350 H342 0.949 . S
C350 C349 1.428 . S
C350 C351 1.345 . S
C351 H343 0.950 . S
C351 C350 1.345 . S
C351 C352 1.424 . S
C352 H344 0.951 . S
C352 C351 1.424 . S
C352 C353 1.347 . S
C353 H345 0.951 . S
C353 C348 1.429 . S
C353 C352 1.347 . S
H354 C355 0.951 . S
C355 H354 0.951 . S
C355 C361 1.265 . S
H356 C361 0.950 . S
H357 C365 0.949 . S
H358 C366 0.950 . S
H359 C367 0.951 . S
H360 C368 0.951 . S
C361 C355 1.265 . S
C361 H356 0.950 . S
C361 C362 1.478 . S
C362 C361 1.478 . S
C362 C363 1.397 . S
C362 C379 1.394 . S
C363 C362 1.397 . S
C363 C364 1.438 . S
C363 C368 1.429 . S
C364 C363 1.438 . S
C364 C365 1.428 . S
C364 C377 1.394 . S
C365 H357 0.949 . S
C365 C364 1.428 . S
C365 C366 1.345 . S
C366 H358 0.950 . S
C366 C365 1.345 . S
C366 C367 1.424 . S
C367 H359 0.951 . S
C367 C366 1.424 . S
C367 C368 1.347 . S
C368 H360 0.951 . S
C368 C363 1.429 . S
C368 C367 1.347 . S
H369 C370 0.951 . S
C370 H369 0.951 . S
C370 C376 1.265 . S
H371 C376 0.950 . S
H372 C380 0.949 . S
H373 C381 0.950 . S
H374 C382 0.951 . S
H375 C383 0.951 . S
C376 C370 1.265 . S
C376 H371 0.950 . S
C376 C377 1.478 . S
C377 C364 1.394 . S
C377 C376 1.478 . S
C377 C378 1.397 . S
C378 C377 1.397 . S
C378 C379 1.438 . S
C378 C383 1.429 . S
C379 C362 1.394 . S
C379 C378 1.438 . S
C379 C380 1.428 . S
C380 H372 0.949 . S
C380 C379 1.428 . S
C380 C381 1.345 . S
C381 H373 0.950 . S
C381 C380 1.345 . S
C381 C382 1.424 . S
C382 H374 0.951 . S
C382 C381 1.424 . S
C382 C383 1.347 . S
C383 H375 0.951 . S
C383 C378 1.429 . S
C383 C382 1.347 . S
H384 C385 0.951 . S
C385 H384 0.951 . S
C385 C391 1.265 . S
H386 C391 0.950 . S
H387 C395 0.949 . S
H388 C396 0.950 . S
H389 C397 0.951 . S
H390 C398 0.951 . S
C391 C385 1.265 . S
C391 H386 0.950 . S
C391 C392 1.478 . S
C392 C391 1.478 . S
C392 C393 1.397 . S
C392 C409 1.394 . S
C393 C392 1.397 . S
C393 C394 1.438 . S
C393 C398 1.429 . S
C394 C393 1.438 . S
C394 C395 1.428 . S
C394 C407 1.394 . S
C395 H387 0.949 . S
C395 C394 1.428 . S
C395 C396 1.345 . S
C396 H388 0.950 . S
C396 C395 1.345 . S
C396 C397 1.424 . S
C397 H389 0.951 . S
C397 C396 1.424 . S
C397 C398 1.347 . S
C398 H390 0.951 . S
C398 C393 1.429 . S
C398 C397 1.347 . S
H399 C400 0.951 . S
C400 H399 0.951 . S
C400 C406 1.265 . S
H401 C406 0.950 . S
H402 C410 0.949 . S
H403 C411 0.950 . S
H404 C412 0.951 . S
H405 C413 0.951 . S
C406 C400 1.265 . S
C406 H401 0.950 . S
C406 C407 1.478 . S
C407 C394 1.394 . S
C407 C406 1.478 . S
C407 C408 1.397 . S
C408 C407 1.397 . S
C408 C409 1.438 . S
C408 C413 1.429 . S
C409 C392 1.394 . S
C409 C408 1.438 . S
C409 C410 1.428 . S
C410 H402 0.949 . S
C410 C409 1.428 . S
C410 C411 1.345 . S
C411 H403 0.950 . S
C411 C410 1.345 . S
C411 C412 1.424 . S
C412 H404 0.951 . S
C412 C411 1.424 . S
C412 C413 1.347 . S
C413 H405 0.951 . S
C413 C408 1.429 . S
C413 C412 1.347 . S
H414 C415 0.951 . S
C415 H414 0.951 . S
C415 C421 1.265 . S
H416 C421 0.950 . S
H417 C425 0.949 . S
H418 C426 0.950 . S
H419 C427 0.951 . S
H420 C428 0.951 . S
C421 C415 1.265 . S
C421 H416 0.950 . S
C421 C422 1.478 . S
C422 C421 1.478 . S
C422 C423 1.397 . S
C422 C439 1.394 . S
C423 C422 1.397 . S
C423 C424 1.438 . S
C423 C428 1.429 . S
C424 C423 1.438 . S
C424 C425 1.428 . S
C424 C437 1.394 . S
C425 H417 0.949 . S
C425 C424 1.428 . S
C425 C426 1.345 . S
C426 H418 0.950 . S
C426 C425 1.345 . S
C426 C427 1.424 . S
C427 H419 0.951 . S
C427 C426 1.424 . S
C427 C428 1.347 . S
C428 H420 0.951 . S
C428 C423 1.429 . S
C428 C427 1.347 . S
H429 C430 0.951 . S
C430 H429 0.951 . S
C430 C436 1.265 . S
H431 C436 0.950 . S
H432 C440 0.949 . S
H433 C441 0.950 . S
H434 C442 0.951 . S
H435 C443 0.951 . S
C436 C430 1.265 . S
C436 H431 0.950 . S
C436 C437 1.478 . S
C437 C424 1.394 . S
C437 C436 1.478 . S
C437 C438 1.397 . S
C438 C437 1.397 . S
C438 C439 1.438 . S
C438 C443 1.429 . S
C439 C422 1.394 . S
C439 C438 1.438 . S
C439 C440 1.428 . S
C440 H432 0.949 . S
C440 C439 1.428 . S
C440 C441 1.345 . S
C441 H433 0.950 . S
C441 C440 1.345 . S
C441 C442 1.424 . S
C442 H434 0.951 . S
C442 C441 1.424 . S
C442 C443 1.347 . S
C443 H435 0.951 . S
C443 C438 1.429 . S
C443 C442 1.347 . S
H444 C445 0.951 . S
C445 H444 0.951 . S
C445 C451 1.265 . S
H446 C451 0.950 . S
H447 C455 0.949 . S
H448 C456 0.950 . S
H449 C457 0.951 . S
H450 C458 0.951 . S
C451 C445 1.265 . S
C451 H446 0.950 . S
C451 C452 1.478 . S
C452 C451 1.478 . S
C452 C453 1.397 . S
C452 C469 1.394 . S
C453 C452 1.397 . S
C453 C454 1.438 . S
C453 C458 1.429 . S
C454 C453 1.438 . S
C454 C455 1.428 . S
C454 C467 1.394 . S
C455 H447 0.949 . S
C455 C454 1.428 . S
C455 C456 1.345 . S
C456 H448 0.950 . S
C456 C455 1.345 . S
C456 C457 1.424 . S
C457 H449 0.951 . S
C457 C456 1.424 . S
C457 C458 1.347 . S
C458 H450 0.951 . S
C458 C453 1.429 . S
C458 C457 1.347 . S
H459 C460 0.951 . S
C460 H459 0.951 . S
C460 C466 1.265 . S
H461 C466 0.950 . S
H462 C470 0.949 . S
H463 C471 0.950 . S
H464 C472 0.951 . S
H465 C473 0.951 . S
C466 C460 1.265 . S
C466 H461 0.950 . S
C466 C467 1.478 . S
C467 C454 1.394 . S
C467 C466 1.478 . S
C467 C468 1.397 . S
C468 C467 1.397 . S
C468 C469 1.438 . S
C468 C473 1.429 . S
C469 C452 1.394 . S
C469 C468 1.438 . S
C469 C470 1.428 . S
C470 H462 0.949 . S
C470 C469 1.428 . S
C470 C471 1.345 . S
C471 H463 0.950 . S
C471 C470 1.345 . S
C471 C472 1.424 . S
C472 H464 0.951 . S
C472 C471 1.424 . S
C472 C473 1.347 . S
C473 H465 0.951 . S
C473 C468 1.429 . S
C473 C472 1.347 . S
H474 C475 0.951 . S
C475 H474 0.951 . S
C475 C481 1.265 . S
H476 C481 0.950 . S
H477 C485 0.949 . S
H478 C486 0.950 . S
H479 C487 0.951 . S
H480 C488 0.951 . S
C481 C475 1.265 . S
C481 H476 0.950 . S
C481 C482 1.478 . S
C482 C481 1.478 . S
C482 C483 1.397 . S
C482 C499 1.394 . S
C483 C482 1.397 . S
C483 C484 1.438 . S
C483 C488 1.429 . S
C484 C483 1.438 . S
C484 C485 1.428 . S
C484 C497 1.394 . S
C485 H477 0.949 . S
C485 C484 1.428 . S
C485 C486 1.345 . S
C486 H478 0.950 . S
C486 C485 1.345 . S
C486 C487 1.424 . S
C487 H479 0.951 . S
C487 C486 1.424 . S
C487 C488 1.347 . S
C488 H480 0.951 . S
C488 C483 1.429 . S
C488 C487 1.347 . S
H489 C490 0.951 . S
C490 H489 0.951 . S
C490 C496 1.265 . S
H491 C496 0.950 . S
H492 C500 0.949 . S
H493 C501 0.950 . S
H494 C502 0.951 . S
H495 C503 0.951 . S
C496 C490 1.265 . S
C496 H491 0.950 . S
C496 C497 1.478 . S
C497 C484 1.394 . S
C497 C496 1.478 . S
C497 C498 1.397 . S
C498 C497 1.397 . S
C498 C499 1.438 . S
C498 C503 1.429 . S
C499 C482 1.394 . S
C499 C498 1.438 . S
C499 C500 1.428 . S
C500 H492 0.949 . S
C500 C499 1.428 . S
C500 C501 1.345 . S
C501 H493 0.950 . S
C501 C500 1.345 . S
C501 C502 1.424 . S
C502 H494 0.951 . S
C502 C501 1.424 . S
C502 C503 1.347 . S
C503 H495 0.951 . S
C503 C498 1.429 . S
C503 C502 1.347 . S
H504 C505 0.951 . S
C505 H504 0.951 . S
C505 C511 1.265 . S
H506 C511 0.950 . S
H507 C515 0.949 . S
H508 C516 0.950 . S
H509 C517 0.951 . S
H510 C518 0.951 . S
C511 C505 1.265 . S
C511 H506 0.950 . S
C511 C512 1.478 1_655 S
C512 C511 1.478 1_455 S
C512 C513 1.397 . S
C512 C529 1.394 . S
C513 C512 1.397 . S
C513 C514 1.438 . S
C513 C518 1.429 1_455 S
C514 C513 1.438 . S
C514 C515 1.428 . S
C514 C527 1.394 . S
C515 H507 0.949 . S
C515 C514 1.428 . S
C515 C516 1.345 . S
C516 H508 0.950 . S
C516 C515 1.345 . S
C516 C517 1.424 1_455 S
C517 H509 0.951 . S
C517 C516 1.424 1_655 S
C517 C518 1.347 . S
C518 H510 0.951 . S
C518 C513 1.429 1_655 S
C518 C517 1.347 . S
H519 C520 0.951 . S
C520 H519 0.951 . S
C520 C526 1.265 . S
H521 C526 0.950 . S
H522 C530 0.949 . S
H523 C531 0.950 . S
H524 C532 0.951 . S
H525 C533 0.951 . S
C526 C520 1.265 . S
C526 H521 0.950 . S
C526 C527 1.478 . S
C527 C514 1.394 . S
C527 C526 1.478 . S
C527 C528 1.397 . S
C528 C527 1.397 . S
C528 C529 1.438 . S
C528 C533 1.429 . S
C529 C512 1.394 . S
C529 C528 1.438 . S
C529 C530 1.428 . S
C530 H522 0.949 . S
C530 C529 1.428 . S
C530 C531 1.345 . S
C531 H523 0.950 . S
C531 C530 1.345 . S
C531 C532 1.424 . S
C532 H524 0.951 . S
C532 C531 1.424 . S
C532 C533 1.347 . S
C533 H525 0.951 . S
C533 C528 1.429 . S
C533 C532 1.347 . S
H534 C535 0.951 . S
C535 H534 0.951 . S
C535 C541 1.265 . S
H536 C541 0.950 . S
H537 C545 0.949 . S
H538 C546 0.950 . S
H539 C547 0.951 . S
H540 C548 0.951 . S
C541 C535 1.265 . S
C541 H536 0.950 . S
C541 C542 1.478 . S
C542 C541 1.478 . S
C542 C543 1.397 . S
C542 C559 1.394 . S
C543 C542 1.397 . S
C543 C544 1.438 . S
C543 C548 1.429 . S
C544 C543 1.438 . S
C544 C545 1.428 . S
C544 C557 1.394 . S
C545 H537 0.949 . S
C545 C544 1.428 . S
C545 C546 1.345 . S
C546 H538 0.950 . S
C546 C545 1.345 . S
C546 C547 1.424 . S
C547 H539 0.951 . S
C547 C546 1.424 . S
C547 C548 1.347 . S
C548 H540 0.951 . S
C548 C543 1.429 . S
C548 C547 1.347 . S
H549 C550 0.951 . S
C550 H549 0.951 . S
C550 C556 1.265 . S
H551 C556 0.950 . S
H552 C560 0.949 . S
H553 C561 0.950 . S
H554 C562 0.951 . S
H555 C563 0.951 . S
C556 C550 1.265 . S
C556 H551 0.950 . S
C556 C557 1.478 1_565 S
C557 C544 1.394 . S
C557 C556 1.478 1_545 S
C557 C558 1.397 . S
C558 C557 1.397 . S
C558 C559 1.438 . S
C558 C563 1.429 1_545 S
C559 C542 1.394 . S
C559 C558 1.438 . S
C559 C560 1.428 . S
C560 H552 0.949 . S
C560 C559 1.428 . S
C560 C561 1.345 . S
C561 H553 0.950 . S
C561 C560 1.345 . S
C561 C562 1.424 1_545 S
C562 H554 0.951 . S
C562 C561 1.424 1_565 S
C562 C563 1.347 . S
C563 H555 0.951 . S
C563 C558 1.429 1_565 S
C563 C562 1.347 . S
H564 C565 0.951 . S
C565 H564 0.951 . S
C565 C571 1.265 . S
H566 C571 0.950 . S
H567 C575 0.949 . S
H568 C576 0.950 . S
H569 C577 0.951 . S
H570 C578 0.951 . S
C571 C565 1.265 . S
C571 H566 0.950 . S
C571 C572 1.478 . S
C572 C571 1.478 . S
C572 C573 1.397 . S
C572 C589 1.394 . S
C573 C572 1.397 . S
C573 C574 1.438 . S
C573 C578 1.429 . S
C574 C573 1.438 . S
C574 C575 1.428 . S
C574 C587 1.394 . S
C575 H567 0.949 . S
C575 C574 1.428 . S
C575 C576 1.345 . S
C576 H568 0.950 . S
C576 C575 1.345 . S
C576 C577 1.424 . S
C577 H569 0.951 . S
C577 C576 1.424 . S
C577 C578 1.347 . S
C578 H570 0.951 . S
C578 C573 1.429 . S
C578 C577 1.347 . S
H579 C580 0.951 . S
C580 H579 0.951 . S
C580 C586 1.265 . S
H581 C586 0.950 . S
H582 C590 0.949 . S
H583 C591 0.950 . S
H584 C592 0.951 . S
H585 C593 0.951 . S
C586 C580 1.265 . S
C586 H581 0.950 . S
C586 C587 1.478 . S
C587 C574 1.394 . S
C587 C586 1.478 . S
C587 C588 1.397 . S
C588 C587 1.397 . S
C588 C589 1.438 . S
C588 C593 1.429 . S
C589 C572 1.394 . S
C589 C588 1.438 . S
C589 C590 1.428 . S
C590 H582 0.949 . S
C590 C589 1.428 . S
C590 C591 1.345 . S
C591 H583 0.950 . S
C591 C590 1.345 . S
C591 C592 1.424 . S
C592 H584 0.951 . S
C592 C591 1.424 . S
C592 C593 1.347 . S
C593 H585 0.951 . S
C593 C588 1.429 . S
C593 C592 1.347 . S
H594 C595 0.951 . S
C595 H594 0.951 . S
C595 C601 1.265 . S
H596 C601 0.950 . S
H597 C605 0.949 . S
H598 C606 0.950 . S
H599 C607 0.951 . S
H600 C608 0.951 . S
C601 C595 1.265 . S
C601 H596 0.950 . S
C601 C602 1.478 . S
C602 C601 1.478 . S
C602 C603 1.397 . S
C602 C619 1.394 . S
C603 C602 1.397 . S
C603 C604 1.438 . S
C603 C608 1.429 . S
C604 C603 1.438 . S
C604 C605 1.428 . S
C604 C617 1.394 . S
C605 H597 0.949 . S
C605 C604 1.428 . S
C605 C606 1.345 . S
C606 H598 0.950 . S
C606 C605 1.345 . S
C606 C607 1.424 . S
C607 H599 0.951 . S
C607 C606 1.424 . S
C607 C608 1.347 . S
C608 H600 0.951 . S
C608 C603 1.429 . S
C608 C607 1.347 . S
H609 C610 0.951 . S
C610 H609 0.951 . S
C610 C616 1.265 . S
H611 C616 0.950 . S
H612 C620 0.949 . S
H613 C621 0.950 . S
H614 C622 0.951 . S
H615 C623 0.951 . S
C616 C610 1.265 . S
C616 H611 0.950 . S
C616 C617 1.478 1_455 S
C617 C604 1.394 . S
C617 C616 1.478 1_655 S
C617 C618 1.397 . S
C618 C617 1.397 . S
C618 C619 1.438 . S
C618 C623 1.429 1_655 S
C619 C602 1.394 . S
C619 C618 1.438 . S
C619 C620 1.428 . S
C620 H612 0.949 . S
C620 C619 1.428 . S
C620 C621 1.345 . S
C621 H613 0.950 . S
C621 C620 1.345 . S
C621 C622 1.424 1_655 S
C622 H614 0.951 . S
C622 C621 1.424 1_455 S
C622 C623 1.347 . S
C623 H615 0.951 . S
C623 C618 1.429 1_455 S
C623 C622 1.347 . S
H624 C625 0.951 . S
C625 H624 0.951 . S
C625 C631 1.265 . S
H626 C631 0.950 . S
H627 C635 0.949 . S
H628 C636 0.950 . S
H629 C637 0.951 1_545 S
H630 C638 0.951 . S
C631 C625 1.265 . S
C631 H626 0.950 . S
C631 C632 1.478 . S
C632 C631 1.478 . S
C632 C633 1.397 . S
C632 C649 1.394 . S
C633 C632 1.397 . S
C633 C634 1.438 . S
C633 C638 1.429 . S
C634 C633 1.438 . S
C634 C635 1.428 1_565 S
C634 C647 1.394 . S
C635 H627 0.949 . S
C635 C634 1.428 1_545 S
C635 C636 1.345 . S
C636 H628 0.950 . S
C636 C635 1.345 . S
C636 C637 1.421 1_545 S
C637 H629 0.951 1_565 S
C637 C636 1.421 1_565 S
C637 C638 1.350 . S
C638 H630 0.951 . S
C638 C633 1.429 . S
C638 C637 1.350 . S
H639 C640 0.951 . S
C640 H639 0.951 . S
C640 C646 1.265 . S
H641 C646 0.950 . S
H642 C650 0.949 . S
H643 C651 0.950 . S
H644 C652 0.951 . S
H645 C653 0.951 . S
C646 C640 1.265 . S
C646 H641 0.950 . S
C646 C647 1.478 1_545 S
C647 C634 1.394 . S
C647 C646 1.478 1_565 S
C647 C648 1.397 . S
C648 C647 1.397 . S
C648 C649 1.438 . S
C648 C653 1.429 . S
C649 C632 1.394 . S
C649 C648 1.438 . S
C649 C650 1.428 . S
C650 H642 0.949 . S
C650 C649 1.428 . S
C650 C651 1.345 . S
C651 H643 0.950 . S
C651 C650 1.345 . S
C651 C652 1.424 . S
C652 H644 0.951 . S
C652 C651 1.424 . S
C652 C653 1.347 . S
C653 H645 0.951 . S
C653 C648 1.429 . S
C653 C652 1.347 . S
C205 C135 1.222 . S
C220 C33 1.222 . S
C235 C169 1.218 . S
C250 C67 1.225 . S
C265 C101 1.135 . S
C280 C203 1.123 . S
C295 C138 1.019 . S
C310 C9 1.033 . S
C325 C172 0.962 . S
C340 C43 1.033 . S
C355 C77 1.050 . S
C370 C2 0.971 . S
C385 C36 1.044 . S
C400 C111 0.934 . S
C415 C145 0.927 . S
C430 C70 1.041 . S
C445 C179 1.020 . S
C460 C104 1.029 . S
C475 C190 0.789 . S
C490 C5 0.901 . S
C505 C39 0.840 . S
C520 C20 0.917 . S
C535 C54 0.790 . S
C550 C73 0.903 . S
C565 C88 0.919 . S
C580 C107 0.868 . S
C595 C122 0.843 . S
C610 C141 0.903 . S
C625 C156 0.935 . S
C640 C175 0.845 . S
