# Generated by pormake.
# Topology ske, (6)-cn, num edge types: 1
# Building blocks:
#     Node 0, Type 0, BuildingBlock: GEDQOX_clean_sbu_0, # of connection points: 6
#     Node 1, Type 0, BuildingBlock: GEDQOX_clean_sbu_0, # of connection points: 6
#     Node 2, Type 0, BuildingBlock: GEDQOX_clean_sbu_0, # of connection points: 6
#     Node 3, Type 0, BuildingBlock: GEDQOX_clean_sbu_0, # of connection points: 6
#     Node 4, Type 0, BuildingBlock: GEDQOX_clean_sbu_0, # of connection points: 6
#     Node 5, Type 0, BuildingBlock: GEDQOX_clean_sbu_0, # of connection points: 6
#     Node 6, Type 0, BuildingBlock: GEDQOX_clean_sbu_0, # of connection points: 6
#     Node 7, Type 0, BuildingBlock: GEDQOX_clean_sbu_0, # of connection points: 6
#     Edge 8, Type (0, 0), BuildingBlock: XIVTED_clean_linker_0, # of connection points: 2
#     Edge 9, Type (0, 0), BuildingBlock: XIVTED_clean_linker_0, # of connection points: 2
#     Edge 10, Type (0, 0), BuildingBlock: XIVTED_clean_linker_0, # of connection points: 2
#     Edge 11, Type (0, 0), BuildingBlock: XIVTED_clean_linker_0, # of connection points: 2
#     Edge 12, Type (0, 0), BuildingBlock: XIVTED_clean_linker_0, # of connection points: 2
#     Edge 13, Type (0, 0), BuildingBlock: XIVTED_clean_linker_0, # of connection points: 2
#     Edge 14, Type (0, 0), BuildingBlock: XIVTED_clean_linker_0, # of connection points: 2
#     Edge 15, Type (0, 0), BuildingBlock: XIVTED_clean_linker_0, # of connection points: 2
#     Edge 16, Type (0, 0), BuildingBlock: XIVTED_clean_linker_0, # of connection points: 2
#     Edge 17, Type (0, 0), BuildingBlock: XIVTED_clean_linker_0, # of connection points: 2
#     Edge 18, Type (0, 0), BuildingBlock: XIVTED_clean_linker_0, # of connection points: 2
#     Edge 19, Type (0, 0), BuildingBlock: XIVTED_clean_linker_0, # of connection points: 2
#     Edge 20, Type (0, 0), BuildingBlock: XIVTED_clean_linker_0, # of connection points: 2
#     Edge 21, Type (0, 0), BuildingBlock: XIVTED_clean_linker_0, # of connection points: 2
#     Edge 22, Type (0, 0), BuildingBlock: XIVTED_clean_linker_0, # of connection points: 2
#     Edge 23, Type (0, 0), BuildingBlock: XIVTED_clean_linker_0, # of connection points: 2
#     Edge 24, Type (0, 0), BuildingBlock: XIVTED_clean_linker_0, # of connection points: 2
#     Edge 25, Type (0, 0), BuildingBlock: XIVTED_clean_linker_0, # of connection points: 2
#     Edge 26, Type (0, 0), BuildingBlock: XIVTED_clean_linker_0, # of connection points: 2
#     Edge 27, Type (0, 0), BuildingBlock: XIVTED_clean_linker_0, # of connection points: 2
#     Edge 28, Type (0, 0), BuildingBlock: XIVTED_clean_linker_0, # of connection points: 2
#     Edge 29, Type (0, 0), BuildingBlock: XIVTED_clean_linker_0, # of connection points: 2
#     Edge 30, Type (0, 0), BuildingBlock: XIVTED_clean_linker_0, # of connection points: 2
#     Edge 31, Type (0, 0), BuildingBlock: XIVTED_clean_linker_0, # of connection points: 2
# Relax obj value: 0.205
# Max RMSD: 0.234
# Mean RMSD: 0.234
data_MOF--net-ske--node1-GEDQOX_clean_sbu_0--edge1-XIVTED_clean_linker_0
_symmetry_space_group_name_H-M    P1
_symmetry_Int_Tables_number       1
_symmetry_cell_setting            triclinic
loop_
_symmetry_equiv_pos_as_xyz
'x, y, z'
_cell_length_a     53.473649
_cell_length_b     29.809322
_cell_length_c     25.76945
_cell_angle_alpha  89.946045
_cell_angle_beta   89.747962
_cell_angle_gamma 96.787546
loop_
_atom_site_label
_atom_site_type_symbol
_atom_site_fract_x
_atom_site_fract_y
_atom_site_fract_z
_atom_type_partial_charge
Nd0 Nd 0.16913 0.25524 0.5099 0.0
Nd1 Nd 0.14559 0.25139 0.61229 0.0
C2 C 0.18155 0.28487 0.41515 0.0
C3 C 0.17236 0.27548 0.36121 0.0
C4 C 0.1619 0.30945 0.33375 0.0
C5 C 0.15541 0.30372 0.28145 0.0
C6 C 0.15936 0.26394 0.25495 0.0
C7 C 0.16803 0.22849 0.28331 0.0
C8 C 0.17454 0.23422 0.3359 0.0
C9 C 0.16039 0.16449 0.52766 0.0
C10 C 0.1064 0.23643 0.52461 0.0
C11 C 0.13718 0.2313 0.71068 0.0
C12 C 0.14977 0.23991 0.76125 0.0
C13 C 0.16048 0.20468 0.78583 0.0
C14 C 0.1681 0.20876 0.83748 0.0
C15 C 0.16508 0.24811 0.86556 0.0
C16 C 0.15699 0.28516 0.83931 0.0
C17 C 0.14931 0.28106 0.78754 0.0
C18 C 0.14877 0.3349 0.56561 0.0
C19 C 0.20565 0.26738 0.6155 0.0
O20 O 0.16657 0.30424 0.44593 0.0
O21 O 0.19318 0.25456 0.43904 0.0
O22 O 0.16962 0.18289 0.4854 0.0
O23 O 0.1547 0.1938 0.56027 0.0
O24 O 0.12517 0.2555 0.49506 0.0
O25 O 0.11139 0.22113 0.57042 0.0
O26 O 0.14804 0.20562 0.67855 0.0
O27 O 0.1275 0.26448 0.68762 0.0
O28 O 0.12854 0.31608 0.58901 0.0
O29 O 0.1663 0.30991 0.56768 0.0
O30 O 0.18471 0.27431 0.63822 0.0
O31 O 0.20569 0.25802 0.5646 0.0
H32 H 0.15953 0.34127 0.35231 0.0
H33 H 0.14817 0.33127 0.26114 0.0
H34 H 0.1712 0.19731 0.26418 0.0
H35 H 0.18206 0.20694 0.35609 0.0
H36 H 0.16161 0.17289 0.76612 0.0
H37 H 0.17493 0.18012 0.85637 0.0
H38 H 0.15467 0.3161 0.85984 0.0
H39 H 0.1417 0.30919 0.76925 0.0
Nd40 Nd 0.85771 0.2439 0.50725 0.0
Nd41 Nd 0.88166 0.2486 0.6107 0.0
C42 C 0.84504 0.21409 0.41309 0.0
C43 C 0.85444 0.22348 0.35922 0.0
C44 C 0.86503 0.18953 0.33188 0.0
C45 C 0.87205 0.19554 0.27979 0.0
C46 C 0.86848 0.23559 0.25347 0.0
C47 C 0.85962 0.27094 0.28173 0.0
C48 C 0.85261 0.26494 0.33409 0.0
C49 C 0.86704 0.33456 0.52611 0.0
C50 C 0.92038 0.26259 0.52081 0.0
C51 C 0.88816 0.2722 0.70847 0.0
C52 C 0.87689 0.26236 0.76015 0.0
C53 C 0.86606 0.29663 0.7863 0.0
C54 C 0.85872 0.29112 0.83811 0.0
C55 C 0.86223 0.2513 0.86483 0.0
C56 C 0.87083 0.21536 0.83726 0.0
C57 C 0.87818 0.22087 0.78528 0.0
C58 C 0.87993 0.16486 0.56598 0.0
C59 C 0.82251 0.23026 0.6136 0.0
O60 O 0.86 0.19475 0.44363 0.0
O61 O 0.83347 0.24452 0.43706 0.0
O62 O 0.85747 0.31729 0.4837 0.0
O63 O 0.87241 0.30413 0.55719 0.0
O64 O 0.90145 0.24363 0.49202 0.0
O65 O 0.91588 0.27822 0.56688 0.0
O66 O 0.87469 0.29304 0.67605 0.0
O67 O 0.90052 0.2418 0.68627 0.0
O68 O 0.89914 0.18422 0.59207 0.0
O69 O 0.86195 0.18925 0.56536 0.0
O70 O 0.843 0.21622 0.63089 0.0
O71 O 0.82194 0.24343 0.56405 0.0
H72 H 0.86718 0.15758 0.35042 0.0
H73 H 0.8794 0.16806 0.25951 0.0
H74 H 0.85671 0.3023 0.26266 0.0
H75 H 0.84502 0.29221 0.35427 0.0
H76 H 0.86438 0.32862 0.7674 0.0
H77 H 0.85154 0.31895 0.85805 0.0
H78 H 0.87361 0.18414 0.85677 0.0
H79 H 0.88595 0.19348 0.7657 0.0
Nd80 Nd 0.14428 0.75098 0.4213 0.0
Nd81 Nd 0.16916 0.75346 0.52596 0.0
C82 C 0.13289 0.74165 0.32228 0.0
C83 C 0.14681 0.74493 0.27239 0.0
C84 C 0.15573 0.70666 0.25028 0.0
C85 C 0.16451 0.70791 0.19905 0.0
C86 C 0.16475 0.74753 0.16952 0.0
C87 C 0.15836 0.78695 0.19326 0.0
C88 C 0.14929 0.7856 0.24415 0.0
C89 C 0.15076 0.83399 0.46999 0.0
C90 C 0.20575 0.75529 0.42116 0.0
C91 C 0.18036 0.78251 0.62121 0.0
C92 C 0.17099 0.77358 0.67525 0.0
C93 C 0.1617 0.80859 0.70331 0.0
C94 C 0.15549 0.80325 0.75596 0.0
C95 C 0.15818 0.76259 0.78165 0.0
C96 C 0.16572 0.72638 0.75303 0.0
C97 C 0.17219 0.73184 0.7003 0.0
C98 C 0.15882 0.6633 0.5037 0.0
C99 C 0.10574 0.73733 0.51248 0.0
O100 O 0.13587 0.70743 0.35253 0.0
O101 O 0.1317 0.77921 0.34782 0.0
O102 O 0.12987 0.8173 0.44834 0.0
O103 O 0.16721 0.80705 0.46606 0.0
O104 O 0.18462 0.74898 0.39531 0.0
O105 O 0.20588 0.76145 0.47266 0.0
O106 O 0.16557 0.80184 0.59013 0.0
O107 O 0.19213 0.752 0.59777 0.0
O108 O 0.16999 0.67921 0.54525 0.0
O109 O 0.15359 0.6949 0.47406 0.0
O110 O 0.12538 0.75394 0.54104 0.0
O111 O 0.10892 0.72484 0.46445 0.0
H112 H 0.15457 0.67503 0.27137 0.0
H113 H 0.16965 0.67726 0.1815 0.0
H114 H 0.15838 0.81786 0.1711 0.0
H115 H 0.14286 0.81581 0.26022 0.0
H116 H 0.16022 0.84089 0.68499 0.0
H117 H 0.1496 0.83157 0.77722 0.0
H118 H 0.16806 0.69477 0.77218 0.0
H119 H 0.17896 0.70394 0.67978 0.0
Nd120 Nd 0.88352 0.74643 0.41984 0.0
Nd121 Nd 0.85762 0.7429 0.52372 0.0
C122 C 0.89413 0.76322 0.32186 0.0
C123 C 0.87999 0.75577 0.27296 0.0
C124 C 0.87132 0.79245 0.24753 0.0
C125 C 0.86191 0.78775 0.19721 0.0
C126 C 0.86102 0.74608 0.17073 0.0
C127 C 0.86599 0.70798 0.20006 0.0
C128 C 0.87581 0.71292 0.25013 0.0
C129 C 0.87789 0.66321 0.4677 0.0
C130 C 0.82208 0.73425 0.41695 0.0
C131 C 0.84516 0.71397 0.61852 0.0
C132 C 0.85431 0.72418 0.67223 0.0
C133 C 0.86554 0.69146 0.69993 0.0
C134 C 0.87274 0.69853 0.75166 0.0
C135 C 0.86819 0.73819 0.77854 0.0
C136 C 0.85849 0.77233 0.749 0.0
C137 C 0.85175 0.76545 0.69677 0.0
C138 C 0.86841 0.83317 0.50249 0.0
C139 C 0.92098 0.7614 0.51174 0.0
O140 O 0.88646 0.79324 0.3533 0.0
O141 O 0.9008 0.72776 0.34592 0.0
O142 O 0.89862 0.6803 0.44494 0.0
O143 O 0.86111 0.68958 0.4643 0.0
O144 O 0.84346 0.73572 0.39193 0.0
O145 O 0.82142 0.73589 0.46894 0.0
O146 O 0.86028 0.69444 0.58813 0.0
O147 O 0.83343 0.74396 0.59418 0.0
O148 O 0.85735 0.81728 0.54435 0.0
O149 O 0.87378 0.80171 0.47295 0.0
O150 O 0.9015 0.74264 0.5399 0.0
O151 O 0.91756 0.77494 0.46426 0.0
H152 H 0.87315 0.82559 0.26533 0.0
H153 H 0.85717 0.8181 0.17885 0.0
H154 H 0.86359 0.67425 0.18427 0.0
H155 H 0.88105 0.68338 0.26995 0.0
H156 H 0.86839 0.65968 0.68176 0.0
H157 H 0.88132 0.67169 0.76992 0.0
H158 H 0.85501 0.80413 0.76575 0.0
H159 H 0.84385 0.7921 0.67613 0.0
Nd160 Nd 0.66945 0.75583 1.00962 0.0
Nd161 Nd 0.64467 0.74718 0.11326 0.0
C162 C 0.68018 0.78667 0.91469 0.0
C163 C 0.67184 0.77553 0.86061 0.0
C164 C 0.65786 0.80524 0.83396 0.0
C165 C 0.65133 0.79794 0.7819 0.0
C166 C 0.65913 0.76121 0.75435 0.0
C167 C 0.67171 0.72977 0.78204 0.0
C168 C 0.67793 0.73678 0.83457 0.0
C169 C 0.65878 0.66476 0.02325 0.0
C170 C 0.60648 0.73767 0.02269 0.0
C171 C 0.63384 0.7279 0.21098 0.0
C172 C 0.64656 0.738 0.26123 0.0
C173 C 0.66105 0.70684 0.28386 0.0
C174 C 0.66986 0.71304 0.33463 0.0
C175 C 0.66392 0.75005 0.36421 0.0
C176 C 0.65162 0.78342 0.33952 0.0
C177 C 0.64306 0.77747 0.28862 0.0
C178 C 0.64969 0.83348 0.07205 0.0
C179 C 0.70585 0.76195 0.11538 0.0
O180 O 0.66336 0.80171 0.9449 0.0
O181 O 0.69405 0.75989 0.93902 0.0
O182 O 0.67029 0.68385 0.98358 0.0
O183 O 0.65339 0.69347 0.05652 0.0
O184 O 0.62585 0.7582 0.99597 0.0
O185 O 0.61011 0.72064 0.06846 0.0
O186 O 0.64404 0.70046 0.17992 0.0
O187 O 0.62524 0.76136 0.18646 0.0
O188 O 0.62994 0.81513 0.097 0.0
O189 O 0.66659 0.80722 0.07142 0.0
O190 O 0.68466 0.75547 0.14106 0.0
O191 O 0.7061 0.76473 0.0634 0.0
H192 H 0.65243 0.83497 0.85313 0.0
H193 H 0.64076 0.82204 0.76295 0.0
H194 H 0.678 0.70089 0.76269 0.0
H195 H 0.68822 0.71261 0.85418 0.0
H196 H 0.66466 0.67658 0.26326 0.0
H197 H 0.68019 0.68755 0.35151 0.0
H198 H 0.64678 0.81265 0.36047 0.0
H199 H 0.6325 0.8027 0.27187 0.0
Nd200 Nd 0.35903 0.7432 1.01038 0.0
Nd201 Nd 0.37923 0.74788 0.11254 0.0
C202 C 0.3423 0.72355 0.91524 0.0
C203 C 0.35256 0.72998 0.86135 0.0
C204 C 0.36315 0.69479 0.836 0.0
C205 C 0.37047 0.6988 0.78373 0.0
C206 C 0.36724 0.738 0.75525 0.0
C207 C 0.35817 0.77424 0.78148 0.0
C208 C 0.35087 0.77025 0.83376 0.0
C209 C 0.37509 0.83174 0.03506 0.0
C210 C 0.42029 0.75773 0.02616 0.0
C211 C 0.39072 0.76432 0.21065 0.0
C212 C 0.37828 0.75732 0.26179 0.0
C213 C 0.36755 0.79274 0.28602 0.0
C214 C 0.3596 0.78876 0.33771 0.0
C215 C 0.3624 0.7494 0.36616 0.0
C216 C 0.37101 0.71257 0.34041 0.0
C217 C 0.37893 0.71653 0.28881 0.0
C218 C 0.37738 0.66256 0.06883 0.0
C219 C 0.31962 0.73782 0.11323 0.0
O220 O 0.35255 0.69528 0.94478 0.0
O221 O 0.33688 0.75907 0.94087 0.0
O222 O 0.38021 0.81227 0.99205 0.0
O223 O 0.3631 0.80318 0.06542 0.0
O224 O 0.40217 0.73489 0.9985 0.0
O225 O 0.41416 0.77679 0.06934 0.0
O226 O 0.38267 0.79431 0.17986 0.0
O227 O 0.39622 0.72848 0.18601 0.0
O228 O 0.39643 0.68197 0.09459 0.0
O229 O 0.35991 0.68746 0.0675 0.0
O230 O 0.33944 0.73219 0.1405 0.0
O231 O 0.32155 0.74437 0.06178 0.0
H232 H 0.36508 0.66346 0.85609 0.0
H233 H 0.37792 0.67058 0.76516 0.0
H234 H 0.35533 0.80491 0.76091 0.0
H235 H 0.34307 0.79824 0.85199 0.0
H236 H 0.36642 0.82436 0.2659 0.0
H237 H 0.35245 0.81732 0.35615 0.0
H238 H 0.37342 0.68175 0.36108 0.0
H239 H 0.38681 0.68837 0.2711 0.0
Nd240 Nd 0.64567 0.2515 0.92371 0.0
Nd241 Nd 0.66974 0.25286 0.02749 0.0
C242 C 0.63802 0.22998 0.82585 0.0
C243 C 0.64925 0.23934 0.77427 0.0
C244 C 0.65464 0.20267 0.74404 0.0
C245 C 0.66219 0.209 0.69254 0.0
C246 C 0.6646 0.25237 0.67015 0.0
C247 C 0.66167 0.2897 0.70224 0.0
C248 C 0.65384 0.28323 0.75387 0.0
C249 C 0.6486 0.33286 0.97365 0.0
C250 C 0.70493 0.26694 0.92049 0.0
C251 C 0.68334 0.28192 0.12134 0.0
C252 C 0.67408 0.27269 0.17517 0.0
C253 C 0.66899 0.30898 0.20652 0.0
C254 C 0.66196 0.30215 0.25851 0.0
C255 C 0.65967 0.25861 0.28067 0.0
C256 C 0.66294 0.22177 0.24799 0.0
C257 C 0.67019 0.22873 0.1959 0.0
C258 C 0.65841 0.16322 1.0071 0.0
C259 C 0.60698 0.23508 1.0133 0.0
O260 O 0.65105 0.20735 0.85732 0.0
O261 O 0.62683 0.26154 0.84888 0.0
O262 O 0.62903 0.31633 0.94669 0.0
O263 O 0.66608 0.30786 0.97079 0.0
O264 O 0.68463 0.28173 0.90327 0.0
O265 O 0.70529 0.25283 0.9698 0.0
O266 O 0.66861 0.30233 0.09132 0.0
O267 O 0.69413 0.25064 0.09706 0.0
O268 O 0.66814 0.1791 0.05002 0.0
O269 O 0.65365 0.19443 0.97648 0.0
O270 O 0.62568 0.25375 0.04314 0.0
O271 O 0.61214 0.22024 0.9673 0.0
H272 H 0.65176 0.16862 0.75954 0.0
H273 H 0.66429 0.17931 0.66956 0.0
H274 H 0.6643 0.32376 0.68687 0.0
H275 H 0.65065 0.31227 0.77714 0.0
H276 H 0.67126 0.34308 0.19117 0.0
H277 H 0.6597 0.3316 0.28178 0.0
H278 H 0.66051 0.18754 0.26282 0.0
H279 H 0.6732 0.19982 0.17226 0.0
Nd280 Nd 0.38245 0.24904 0.92589 0.0
Nd281 Nd 0.35704 0.24487 0.02335 0.0
C282 C 0.39309 0.26856 0.82816 0.0
C283 C 0.38051 0.25923 0.77762 0.0
C284 C 0.37265 0.29507 0.74886 0.0
C285 C 0.36469 0.28851 0.69753 0.0
C286 C 0.36458 0.24594 0.67398 0.0
C287 C 0.36959 0.20908 0.70483 0.0
C288 C 0.37752 0.21565 0.75617 0.0
C289 C 0.37647 0.16311 0.96915 0.0
C290 C 0.32135 0.2344 0.91908 0.0
C291 C 0.34479 0.2312 0.12294 0.0
C292 C 0.35612 0.23644 0.1758 0.0
C293 C 0.36152 0.1983 0.20401 0.0
C294 C 0.36764 0.20171 0.25692 0.0
C295 C 0.36828 0.24332 0.28296 0.0
C296 C 0.36508 0.28207 0.25363 0.0
C297 C 0.359 0.27869 0.20085 0.0
C298 C 0.36318 0.33154 0.98458 0.0
C299 C 0.42061 0.25989 1.01488 0.0
O300 O 0.38255 0.29555 0.85921 0.0
O301 O 0.40186 0.23505 0.85247 0.0
O302 O 0.3969 0.18089 0.94597 0.0
O303 O 0.35957 0.18924 0.96665 0.0
O304 O 0.34283 0.24507 0.89566 0.0
O305 O 0.32063 0.22864 0.97054 0.0
O306 O 0.35158 0.19962 0.09265 0.0
O307 O 0.34143 0.2678 0.09739 0.0
O308 O 0.34232 0.3116 1.00358 0.0
O309 O 0.37992 0.30476 0.98532 0.0
O310 O 0.40064 0.24146 0.0418 0.0
O311 O 0.41725 0.27603 0.96863 0.0
H312 H 0.37403 0.32881 0.76506 0.0
H313 H 0.36059 0.31757 0.67526 0.0
H314 H 0.36875 0.17552 0.68837 0.0
H315 H 0.38249 0.18697 0.77803 0.0
H316 H 0.35972 0.16532 0.18589 0.0
H317 H 0.37015 0.17117 0.27808 0.0
H318 H 0.36619 0.31489 0.27205 0.0
H319 H 0.35539 0.309 0.18041 0.0
H320 H 0.24812 0.21869 0.61527 0.0
H321 H 0.27719 0.27602 0.91922 0.0
H322 H 0.21112 0.31283 0.70656 0.0
H323 H 0.31747 0.18513 0.83071 0.0
H324 H 0.25082 0.28548 0.84256 0.0
H325 H 0.27433 0.20599 0.69188 0.0
C326 C 0.24582 0.23748 0.65055 0.0
C327 C 0.22722 0.26711 0.65348 0.0
C328 C 0.26518 0.26282 0.84008 0.0
C329 C 0.25624 0.25072 0.74286 0.0
C330 C 0.27988 0.25665 0.88454 0.0
C331 C 0.29934 0.22888 0.88236 0.0
C332 C 0.27006 0.24163 0.7925 0.0
C333 C 0.30242 0.20622 0.83488 0.0
C334 C 0.26047 0.22955 0.69485 0.0
C335 C 0.22505 0.28961 0.7015 0.0
N336 N 0.2883 0.21335 0.7922 0.0
N337 N 0.23889 0.28057 0.7437 0.0
H338 H 0.756 0.24726 0.92442 0.0
H339 H 0.77155 0.25042 0.60943 0.0
H340 H 0.69786 0.27498 0.81705 0.0
H341 H 0.82978 0.22369 0.71712 0.0
H342 H 0.74378 0.25963 0.68516 0.0
H343 H 0.78389 0.2392 0.84861 0.0
C344 C 0.749 0.25173 0.88562 0.0
C345 C 0.72432 0.26229 0.87828 0.0
C346 C 0.76277 0.25176 0.69175 0.0
C347 C 0.75596 0.25227 0.79086 0.0
C348 C 0.77858 0.24637 0.64829 0.0
C349 C 0.80322 0.23561 0.65577 0.0
C350 C 0.77175 0.247 0.74304 0.0
C351 C 0.81105 0.23134 0.708 0.0
C352 C 0.76489 0.24705 0.84211 0.0
C353 C 0.71659 0.26734 0.82608 0.0
N354 N 0.79563 0.23707 0.74882 0.0
N355 N 0.73207 0.26222 0.78517 0.0
H356 H 0.28331 0.67146 0.14833 0.0
H357 H 0.24159 0.82409 0.38649 0.0
H358 H 0.30745 0.81376 0.16076 0.0
H359 H 0.21891 0.68138 0.37215 0.0
H360 H 0.26704 0.82141 0.30657 0.0
H361 H 0.25831 0.67547 0.22818 0.0
C362 C 0.28243 0.70404 0.16638 0.0
C363 C 0.29676 0.74269 0.14587 0.0
C364 C 0.2569 0.79044 0.32143 0.0
C365 C 0.26942 0.74713 0.24074 0.0
C366 C 0.24281 0.79181 0.36799 0.0
C367 C 0.22863 0.75258 0.38765 0.0
C368 C 0.25651 0.7497 0.29326 0.0
C369 C 0.23009 0.71224 0.35978 0.0
C370 C 0.2686 0.70617 0.21298 0.0
C371 C 0.2959 0.78341 0.17346 0.0
N372 N 0.2434 0.71193 0.31435 0.0
N373 N 0.28279 0.78449 0.21921 0.0
H374 H 0.71399 0.81981 0.19581 0.0
H375 H 0.81305 0.67713 0.33607 0.0
H376 H 0.74653 0.71128 0.12114 0.0
H377 H 0.78255 0.78796 0.41062 0.0
H378 H 0.78804 0.68801 0.2591 0.0
H379 H 0.73928 0.81021 0.27296 0.0
C380 C 0.72735 0.79518 0.19461 0.0
C381 C 0.72843 0.7672 0.1506 0.0
C382 C 0.78624 0.70943 0.29249 0.0
C383 C 0.75716 0.75459 0.24131 0.0
C384 C 0.80025 0.70273 0.33721 0.0
C385 C 0.79972 0.73097 0.3811 0.0
C386 C 0.77113 0.74481 0.29058 0.0
C387 C 0.78327 0.76449 0.37878 0.0
C388 C 0.74149 0.78915 0.23943 0.0
C389 C 0.74544 0.73465 0.15296 0.0
N390 N 0.76983 0.77058 0.33441 0.0
N391 N 0.7589 0.72913 0.19739 0.0
H392 H 0.19074 0.89772 0.45206 0.0
H393 H 0.12619 0.1016 0.57992 0.0
H394 H 0.12064 0.8757 0.5363 0.0
H395 H 0.19618 0.11558 0.4946 0.0
H396 H 0.12599 0.01846 0.57709 0.0
H397 H 0.19522 0.97705 0.47847 0.0
C398 C 0.17654 0.90951 0.47705 0.0
C399 C 0.15518 0.8804 0.49152 0.0
C400 C 0.14154 0.03991 0.55969 0.0
C401 C 0.16007 0.97145 0.5224 0.0
C402 C 0.1417 0.08728 0.56164 0.0
C403 C 0.16104 0.11543 0.53678 0.0
C404 C 0.16089 0.02104 0.53289 0.0
C405 C 0.18066 0.09516 0.51351 0.0
C406 C 0.179 0.9549 0.4921 0.0
C407 C 0.13718 0.89749 0.52356 0.0
N408 N 0.17997 0.04957 0.51179 0.0
N409 N 0.13994 0.94193 0.53779 0.0
H410 H 0.90449 0.39564 0.56904 0.0
H411 H 0.83496 0.60339 0.46809 0.0
H412 H 0.82922 0.38398 0.50759 0.0
H413 H 0.91189 0.61877 0.52036 0.0
H414 H 0.83037 0.52464 0.49747 0.0
H415 H 0.90539 0.47874 0.56809 0.0
C416 C 0.88798 0.41055 0.55665 0.0
C417 C 0.86688 0.38316 0.53767 0.0
C418 C 0.8482 0.5453 0.50332 0.0
C419 C 0.86778 0.47754 0.53584 0.0
C420 C 0.85077 0.59032 0.48656 0.0
C421 C 0.87399 0.61726 0.49087 0.0
C422 C 0.86893 0.52708 0.52514 0.0
C423 C 0.89386 0.59865 0.51516 0.0
C424 C 0.88852 0.45789 0.5557 0.0
C425 C 0.84601 0.40403 0.52177 0.0
N426 N 0.89095 0.55467 0.5311 0.0
N427 N 0.84706 0.44974 0.52077 0.0
H428 H 0.84207 0.88907 0.44487 0.0
H429 H 0.90541 0.10086 0.60759 0.0
H430 H 0.90584 0.88852 0.546 0.0
H431 H 0.84908 0.11725 0.49218 0.0
H432 H 0.90427 0.02208 0.58364 0.0
H433 H 0.84442 0.9719 0.45527 0.0
C434 C 0.85714 0.90669 0.46764 0.0
C435 C 0.87415 0.88225 0.49385 0.0
C436 C 0.89235 0.04275 0.56272 0.0
C437 C 0.87624 0.97612 0.50793 0.0
C438 C 0.89296 0.08798 0.5766 0.0
C439 C 0.87772 0.11617 0.55132 0.0
C440 C 0.87655 0.02484 0.52253 0.0
C441 C 0.86143 0.09693 0.51232 0.0
C442 C 0.85825 0.95378 0.47418 0.0
C443 C 0.89271 0.90622 0.52435 0.0
N444 N 0.86136 0.05244 0.49884 0.0
N445 N 0.89311 0.95151 0.53082 0.0
H446 H 0.11774 0.60313 0.47668 0.0
H447 H 0.19203 0.39246 0.54778 0.0
H448 H 0.1975 0.6132 0.50491 0.0
H449 H 0.11145 0.38234 0.5305 0.0
H450 H 0.19527 0.47098 0.51732 0.0
H451 H 0.11591 0.52011 0.47944 0.0
C452 C 0.13495 0.5878 0.48173 0.0
C453 C 0.15778 0.61482 0.49065 0.0
C454 C 0.17687 0.4515 0.51957 0.0
C455 C 0.15586 0.52033 0.49522 0.0
C456 C 0.17504 0.40662 0.53701 0.0
C457 C 0.15137 0.38112 0.54271 0.0
C458 C 0.15489 0.47099 0.50717 0.0
C459 C 0.13001 0.40115 0.52784 0.0
C460 C 0.13391 0.54048 0.48393 0.0
C461 C 0.1795 0.59339 0.49806 0.0
N462 N 0.13225 0.44486 0.51108 0.0
N463 N 0.17799 0.54759 0.50067 0.0
H464 H 0.65878 0.6068 0.10852 0.0
H465 H 0.66836 0.40196 0.91352 0.0
H466 H 0.64777 0.61002 0.94295 0.0
H467 H 0.63926 0.37204 0.06738 0.0
H468 H 0.67133 0.48256 0.93321 0.0
H469 H 0.65859 0.52349 0.10319 0.0
C470 C 0.65575 0.58993 0.07149 0.0
C471 C 0.65342 0.61511 0.02598 0.0
C472 C 0.66437 0.45846 0.9629 0.0
C473 C 0.654 0.52151 0.01946 0.0
C474 C 0.66278 0.41258 0.95163 0.0
C475 C 0.65306 0.3808 0.98845 0.0
C476 C 0.65608 0.4728 1.01135 0.0
C477 C 0.64644 0.39599 0.03775 0.0
C478 C 0.6559 0.54271 0.06839 0.0
C479 C 0.6499 0.59196 0.97886 0.0
N480 N 0.64786 0.44121 0.04783 0.0
N481 N 0.65056 0.54683 0.97682 0.0
H482 H 0.3867 0.89788 0.10964 0.0
H483 H 0.35006 0.09354 0.91782 0.0
H484 H 0.35455 0.87605 0.95744 0.0
H485 H 0.39264 0.12358 0.05743 0.0
H486 H 0.34585 0.01314 0.94026 0.0
H487 H 0.38362 0.9797 0.09989 0.0
C488 C 0.37875 0.91024 0.07456 0.0
C489 C 0.37125 0.88033 0.03396 0.0
C490 C 0.35597 0.03716 0.96641 0.0
C491 C 0.36747 0.9733 0.02257 0.0
C492 C 0.35829 0.08309 0.95354 0.0
C493 C 0.37196 0.11501 0.9854 0.0
C494 C 0.36734 0.02274 1.01174 0.0
C495 C 0.38226 0.09976 0.03142 0.0
C496 C 0.37706 0.95685 0.06889 0.0
C497 C 0.36099 0.89798 0.98936 0.0
N498 N 0.37985 0.05468 0.04317 0.0
N499 N 0.35949 0.943 0.9849 0.0
H500 H 0.37952 0.37285 0.07327 0.0
H501 H 0.36861 0.62462 0.9724 0.0
H502 H 0.35813 0.40099 0.91681 0.0
H503 H 0.38015 0.59026 0.13204 0.0
H504 H 0.36608 0.54439 0.94931 0.0
H505 H 0.38233 0.4535 0.09328 0.0
C506 C 0.376 0.39636 0.04281 0.0
C507 C 0.36904 0.38059 0.99316 0.0
C508 C 0.36894 0.55431 0.98946 0.0
C509 C 0.37164 0.47305 1.01588 0.0
C510 C 0.37016 0.60015 1.00273 0.0
C511 C 0.37443 0.61409 0.05429 0.0
C512 C 0.37204 0.52215 0.02814 0.0
C513 C 0.37702 0.58094 0.09179 0.0
C514 C 0.37732 0.44235 0.05432 0.0
C515 C 0.36393 0.41212 0.95536 0.0
N516 N 0.37576 0.53664 0.07803 0.0
N517 N 0.36536 0.45694 0.96745 0.0
H518 H 0.67718 0.10631 0.93612 0.0
H519 H 0.63795 0.90194 0.13171 0.0
H520 H 0.62663 0.10916 0.06625 0.0
H521 H 0.67033 0.87672 0.98283 0.0
H522 H 0.63842 0.98104 0.10827 0.0
H523 H 0.67623 0.02365 0.94773 0.0
C524 C 0.66515 0.08924 0.96576 0.0
C525 C 0.65177 0.11425 1.00014 0.0
C526 C 0.64508 0.95823 0.08011 0.0
C527 C 0.65151 0.02105 1.01514 0.0
C528 C 0.64499 0.91304 0.09377 0.0
C529 C 0.65345 0.88231 0.05879 0.0
C530 C 0.65321 0.97319 0.03042 0.0
C531 C 0.66308 0.89893 1.0106 0.0
C532 C 0.66492 0.04232 0.97289 0.0
C533 C 0.63705 0.091 0.03876 0.0
N534 N 0.66244 0.94326 0.99743 0.0
N535 N 0.63755 0.04604 0.04551 0.0
H536 H 0.17591 0.33046 0.18617 0.0
H537 H 0.14535 0.18145 0.9314 0.0
H538 H 0.13977 0.19319 0.19162 0.0
H539 H 0.1866 0.31489 0.93055 0.0
H540 H 0.14236 0.18482 0.02587 0.0
H541 H 0.17759 0.32605 0.09208 0.0
C542 C 0.16794 0.29951 0.16757 0.0
C543 C 0.15775 0.2621 0.19716 0.0
C544 C 0.15226 0.21321 1.00515 0.0
C545 C 0.16013 0.25652 0.08858 0.0
C546 C 0.15423 0.21115 0.95121 0.0
C547 C 0.16633 0.24794 0.92305 0.0
C548 C 0.16249 0.25236 0.0313 0.0
C549 C 0.17696 0.28592 0.95069 0.0
C550 C 0.16916 0.29688 0.11366 0.0
C551 C 0.14811 0.22268 0.17053 0.0
N552 N 0.17473 0.28716 1.00324 0.0
N553 N 0.14958 0.22089 0.11773 0.0
H554 H 0.88895 0.30666 0.19148 0.0
H555 H 0.84162 0.18178 0.92761 0.0
H556 H 0.85233 0.16982 0.18391 0.0
H557 H 0.88035 0.31717 0.93262 0.0
H558 H 0.84489 0.17744 0.02218 0.0
H559 H 0.88702 0.31112 0.09647 0.0
C560 C 0.88062 0.27754 0.1699 0.0
C561 C 0.87063 0.2379 0.19584 0.0
C562 C 0.85259 0.20818 1.0026 0.0
C563 C 0.86803 0.24294 0.08739 0.0
C564 C 0.85064 0.21066 0.94868 0.0
C565 C 0.86074 0.24983 0.92226 0.0
C566 C 0.86486 0.24504 0.03026 0.0
C567 C 0.87203 0.28649 0.95148 0.0
C568 C 0.87949 0.28009 0.11571 0.0
C569 C 0.86043 0.20096 0.16575 0.0
N570 N 0.87392 0.28311 1.00383 0.0
N571 N 0.85921 0.20452 0.11335 0.0
H572 H 0.19737 0.7996 0.1053 0.0
H573 H 0.12647 0.70684 0.84531 0.0
H574 H 0.13517 0.69359 0.10477 0.0
H575 H 0.18818 0.81374 0.84811 0.0
H576 H 0.12853 0.70187 0.9406 0.0
H577 H 0.19501 0.80364 1.01034 0.0
C578 C 0.18346 0.77683 0.08493 0.0
C579 C 0.1666 0.74595 0.11243 0.0
C580 C 0.14166 0.72634 0.9203 0.0
C581 C 0.16315 0.7512 1.00447 0.0
C582 C 0.14041 0.72921 0.86609 0.0
C583 C 0.15726 0.76065 0.83911 0.0
C584 C 0.16021 0.75453 0.9473 0.0
C585 C 0.17481 0.7892 0.86766 0.0
C586 C 0.18194 0.7793 0.03091 0.0
C587 C 0.14876 0.71732 0.08461 0.0
N588 N 0.17597 0.78523 0.92005 0.0
N589 N 0.14735 0.72086 0.03218 0.0
H590 H 0.87946 0.67253 0.85086 0.0
H591 H 0.84675 0.81068 0.10018 0.0
H592 H 0.86467 0.81261 0.84496 0.0
H593 H 0.87051 0.67636 0.10346 0.0
H594 H 0.85245 0.81176 1.00739 0.0
H595 H 0.87754 0.67547 0.94324 0.0
C596 C 0.8758 0.70423 0.86753 0.0
C597 C 0.87118 0.74186 0.83706 0.0
C598 C 0.8563 0.78209 0.02881 0.0
C599 C 0.86841 0.74438 0.94644 0.0
C600 C 0.85319 0.78126 0.08267 0.0
C601 C 0.85889 0.74388 0.11236 0.0
C602 C 0.86449 0.74489 1.00352 0.0
C603 C 0.86589 0.70649 0.08449 0.0
C604 C 0.87456 0.70548 0.9215 0.0
C605 C 0.86717 0.78154 0.86455 0.0
N606 N 0.86853 0.70815 0.03213 0.0
N607 N 0.86551 0.78145 0.91729 0.0
H608 H 0.66007 0.67763 0.43119 0.0
H609 H 0.66027 0.8315 0.68452 0.0
H610 H 0.67378 0.82347 0.42969 0.0
H611 H 0.65274 0.68555 0.69037 0.0
H612 H 0.66177 0.82812 0.59073 0.0
H613 H 0.65749 0.6793 0.52538 0.0
C614 C 0.66299 0.71008 0.4504 0.0
C615 C 0.66685 0.75057 0.42178 0.0
C616 C 0.65983 0.79679 0.61248 0.0
C617 C 0.66288 0.75252 0.53034 0.0
C618 C 0.65857 0.79855 0.66647 0.0
C619 C 0.65674 0.75872 0.69638 0.0
C620 C 0.65952 0.75496 0.58754 0.0
C621 C 0.65493 0.71731 0.66956 0.0
C622 C 0.6611 0.71092 0.50443 0.0
C623 C 0.6701 0.79137 0.44959 0.0
N624 N 0.65659 0.71654 0.61679 0.0
N625 N 0.66778 0.79128 0.50214 0.0
H626 H 0.38652 0.80919 0.69234 0.0
H627 H 0.34239 0.67985 0.42963 0.0
H628 H 0.35432 0.6695 0.68602 0.0
H629 H 0.37824 0.81736 0.43371 0.0
H630 H 0.34586 0.67617 0.52406 0.0
H631 H 0.38454 0.81276 0.59753 0.0
C632 C 0.37917 0.7792 0.67113 0.0
C633 C 0.37023 0.73916 0.69756 0.0
C634 C 0.35285 0.70724 0.50432 0.0
C635 C 0.36774 0.74313 0.5889 0.0
C636 C 0.35078 0.70939 0.45042 0.0
C637 C 0.36016 0.74887 0.42361 0.0
C638 C 0.36436 0.74484 0.53175 0.0
C639 C 0.37052 0.78635 0.45268 0.0
C640 C 0.37803 0.78127 0.61695 0.0
C641 C 0.36148 0.70111 0.66767 0.0
N642 N 0.37249 0.78331 0.50508 0.0
N643 N 0.36023 0.70418 0.61515 0.0
H644 H 0.67843 0.19555 0.3435 0.0
H645 H 0.6428 0.31186 0.60852 0.0
H646 H 0.63453 0.30827 0.35078 0.0
H647 H 0.68955 0.20329 0.59983 0.0
H648 H 0.63967 0.31124 0.51448 0.0
H649 H 0.67959 0.19417 0.43764 0.0
C650 C 0.6687 0.21973 0.3645 0.0
C651 C 0.65682 0.25277 0.33827 0.0
C652 C 0.65063 0.28757 0.53313 0.0
C653 C 0.65902 0.25226 0.44713 0.0
C654 C 0.65281 0.28835 0.58703 0.0
C655 C 0.66631 0.25729 0.61268 0.0
C656 C 0.66187 0.25532 0.50437 0.0
C657 C 0.67844 0.22722 0.58215 0.0
C658 C 0.66974 0.21926 0.4186 0.0
C659 C 0.64473 0.28313 0.36866 0.0
N660 N 0.67574 0.22674 0.52973 0.0
N661 N 0.64641 0.28247 0.42131 0.0
H662 H 0.34071 0.29172 0.34702 0.0
H663 H 0.39312 0.19836 0.61135 0.0
H664 H 0.39683 0.19894 0.35161 0.0
H665 H 0.33412 0.28532 0.60512 0.0
H666 H 0.39478 0.19798 0.5169 0.0
H667 H 0.33921 0.2914 0.4414 0.0
C668 C 0.35306 0.27176 0.36781 0.0
C669 C 0.36904 0.24552 0.34092 0.0
C670 C 0.38131 0.21686 0.53606 0.0
C671 C 0.36694 0.24426 0.44993 0.0
C672 C 0.38011 0.21668 0.59015 0.0
C673 C 0.36329 0.24163 0.61647 0.0
C674 C 0.36561 0.24223 0.50766 0.0
C675 C 0.34748 0.26578 0.58664 0.0
C676 C 0.35196 0.27125 0.42191 0.0
C677 C 0.38408 0.21948 0.37044 0.0
N678 N 0.34907 0.26554 0.53389 0.0
N679 N 0.38266 0.21953 0.42329 0.0
H680 H 0.08143 0.25947 0.43287 0.0
H681 H 0.95063 0.23222 0.59089 0.0
H682 H 0.06818 0.21992 0.59296 0.0
H683 H 0.95092 0.27381 0.43055 0.0
H684 H 0.99461 0.22492 0.58527 0.0
H685 H 0.03535 0.26369 0.42397 0.0
C686 C 0.06908 0.25139 0.46581 0.0
C687 C 0.07902 0.23851 0.51351 0.0
C688 C 0.9855 0.23568 0.55075 0.0
C689 C 0.02672 0.2439 0.50382 0.0
C690 C 0.96007 0.23991 0.55407 0.0
C691 C 0.94698 0.25445 0.51146 0.0
C692 C 0.99879 0.24618 0.5043 0.0
C693 C 0.96037 0.26281 0.4645 0.0
C694 C 0.04282 0.25389 0.46071 0.0
C695 C 0.06199 0.22911 0.5549 0.0
N696 N 0.98576 0.25902 0.46221 0.0
N697 N 0.03719 0.2321 0.54894 0.0
H698 H 0.95936 0.82345 0.48295 0.0
H699 H 0.07293 0.69272 0.58557 0.0
H700 H 0.94437 0.70292 0.57595 0.0
H701 H 0.0785 0.79736 0.46942 0.0
H702 H 0.02745 0.70068 0.59564 0.0
H703 H 1.00415 0.81994 0.49178 0.0
C704 C 0.9655 0.79658 0.5063 0.0
C705 C 0.94784 0.76352 0.52873 0.0
C706 C 0.03877 0.72223 0.5685 0.0
C707 C 1.00007 0.75869 0.53847 0.0
C708 C 0.06473 0.71796 0.5631 0.0
C709 C 0.07957 0.74486 0.52703 0.0
C710 C 0.02778 0.75376 0.53774 0.0
C711 C 0.0679 0.7763 0.49808 0.0
C712 C 0.99128 0.7944 0.51106 0.0
C713 C 0.95724 0.72947 0.5584 0.0
N714 N 0.04294 0.77976 0.50401 0.0
N715 N 0.98273 0.72763 0.56199 0.0
H716 H 0.57568 0.70951 0.93804 0.0
H717 H 0.45845 0.8058 0.07753 0.0
H718 H 0.57691 0.78235 0.08245 0.0
H719 H 0.44572 0.7128 0.9494 0.0
H720 H 0.50301 0.80391 0.06889 0.0
H721 H 0.52991 0.71633 0.93078 0.0
C722 C 0.56646 0.72752 0.96762 0.0
C723 C 0.5801 0.74546 1.01098 0.0
C724 C 0.49075 0.78397 0.0421 0.0
C725 C 0.52813 0.75312 1.00318 0.0
C726 C 0.46495 0.78509 0.04693 0.0
C727 C 0.44788 0.75917 1.01439 0.0
C728 C 0.50032 0.75676 1.00422 0.0
C729 C 0.45806 0.73331 0.9755 0.0
C730 C 0.54036 0.73108 0.9637 0.0
C731 C 0.56721 0.76797 0.04843 0.0
N732 N 0.48367 0.73251 0.97163 0.0
N733 N 0.54223 0.77102 0.04367 0.0
H734 H 0.4493 0.27323 0.10733 0.0
H735 H 0.56917 0.21147 0.9465 0.0
H736 H 0.45269 0.22933 0.94834 0.0
H737 H 0.58084 0.26277 0.10252 0.0
H738 H 0.52562 0.21618 0.95442 0.0
H739 H 0.49531 0.26702 0.11502 0.0
C740 C 0.45952 0.26183 0.07445 0.0
C741 C 0.44706 0.25207 0.0269 0.0
C742 C 0.53721 0.22619 0.98774 0.0
C743 C 0.49924 0.24534 0.03523 0.0
C744 C 0.56269 0.22332 0.98334 0.0
C745 C 0.57939 0.23625 0.02412 0.0
C746 C 0.52713 0.24194 0.03361 0.0
C747 C 0.56884 0.25203 0.07006 0.0
C748 C 0.48576 0.25867 0.07873 0.0
C749 C 0.46127 0.23776 0.98562 0.0
N750 N 0.54327 0.2544 0.07369 0.0
N751 N 0.48617 0.2351 0.99082 0.0
loop_
_geom_bond_atom_site_label_1
_geom_bond_atom_site_label_2
_geom_bond_distance
_geom_bond_site_symmetry_2
_ccdc_geom_bond_type
Nd0 C2 2.836 . S
Nd0 O20 2.500 . S
Nd0 O21 2.492 . S
Nd0 O22 2.487 . S
Nd0 O23 2.682 . S
Nd0 O24 2.410 . S
Nd0 O29 2.414 . S
Nd0 O31 2.424 . S
Nd1 C11 2.836 . S
Nd1 O23 2.414 . S
Nd1 O25 2.424 . S
Nd1 O26 2.500 . S
Nd1 O27 2.492 . S
Nd1 O28 2.487 . S
Nd1 O29 2.682 . S
Nd1 O30 2.410 . S
C2 Nd0 2.836 . S
C2 C3 1.498 . S
C2 O20 1.258 . S
C2 O21 1.239 . S
C3 C2 1.498 . S
C3 C4 1.366 . S
C3 C8 1.407 . S
C4 C3 1.366 . S
C4 C5 1.392 . S
C4 H32 0.930 . S
C5 C4 1.392 . S
C5 C6 1.398 . S
C5 H33 0.929 . S
C6 C5 1.398 . S
C6 C7 1.352 . S
C7 C6 1.352 . S
C7 C8 1.384 . S
C7 H34 0.930 . S
C8 C3 1.407 . S
C8 C7 1.384 . S
C8 H35 0.929 . S
C9 O22 1.241 . S
C9 O23 1.273 . S
C10 O24 1.251 . S
C10 O25 1.268 . S
C11 Nd1 2.836 . S
C11 C12 1.498 . S
C11 O26 1.258 . S
C11 O27 1.239 . S
C12 C11 1.498 . S
C12 C13 1.366 . S
C12 C17 1.407 . S
C13 C12 1.366 . S
C13 C14 1.392 . S
C13 H36 0.930 . S
C14 C13 1.392 . S
C14 C15 1.398 . S
C14 H37 0.929 . S
C15 C14 1.398 . S
C15 C16 1.352 . S
C16 C15 1.352 . S
C16 C17 1.384 . S
C16 H38 0.930 . S
C17 C12 1.407 . S
C17 C16 1.384 . S
C17 H39 0.929 . S
C18 O28 1.241 . S
C18 O29 1.273 . S
C19 O30 1.251 . S
C19 O31 1.268 . S
O20 Nd0 2.500 . S
O20 C2 1.258 . S
O21 Nd0 2.492 . S
O21 C2 1.239 . S
O22 Nd0 2.487 . S
O22 C9 1.241 . S
O23 Nd0 2.682 . S
O23 Nd1 2.414 . S
O23 C9 1.273 . S
O24 Nd0 2.410 . S
O24 C10 1.251 . S
O25 Nd1 2.424 . S
O25 C10 1.268 . S
O26 Nd1 2.500 . S
O26 C11 1.258 . S
O27 Nd1 2.492 . S
O27 C11 1.239 . S
O28 Nd1 2.487 . S
O28 C18 1.241 . S
O29 Nd0 2.414 . S
O29 Nd1 2.682 . S
O29 C18 1.273 . S
O30 Nd1 2.410 . S
O30 C19 1.251 . S
O31 Nd0 2.424 . S
O31 C19 1.268 . S
H32 C4 0.930 . S
H33 C5 0.929 . S
H34 C7 0.930 . S
H35 C8 0.929 . S
H36 C13 0.930 . S
H37 C14 0.929 . S
H38 C16 0.930 . S
H39 C17 0.929 . S
Nd40 C42 2.836 . S
Nd40 O60 2.500 . S
Nd40 O61 2.492 . S
Nd40 O62 2.487 . S
Nd40 O63 2.682 . S
Nd40 O64 2.410 . S
Nd40 O69 2.414 . S
Nd40 O71 2.424 . S
Nd41 C51 2.836 . S
Nd41 O63 2.414 . S
Nd41 O65 2.424 . S
Nd41 O66 2.500 . S
Nd41 O67 2.492 . S
Nd41 O68 2.487 . S
Nd41 O69 2.682 . S
Nd41 O70 2.410 . S
C42 Nd40 2.836 . S
C42 C43 1.498 . S
C42 O60 1.258 . S
C42 O61 1.239 . S
C43 C42 1.498 . S
C43 C44 1.366 . S
C43 C48 1.407 . S
C44 C43 1.366 . S
C44 C45 1.392 . S
C44 H72 0.930 . S
C45 C44 1.392 . S
C45 C46 1.398 . S
C45 H73 0.929 . S
C46 C45 1.398 . S
C46 C47 1.352 . S
C47 C46 1.352 . S
C47 C48 1.384 . S
C47 H74 0.930 . S
C48 C43 1.407 . S
C48 C47 1.384 . S
C48 H75 0.929 . S
C49 O62 1.241 . S
C49 O63 1.273 . S
C50 O64 1.251 . S
C50 O65 1.268 . S
C51 Nd41 2.836 . S
C51 C52 1.498 . S
C51 O66 1.258 . S
C51 O67 1.239 . S
C52 C51 1.498 . S
C52 C53 1.366 . S
C52 C57 1.407 . S
C53 C52 1.366 . S
C53 C54 1.392 . S
C53 H76 0.930 . S
C54 C53 1.392 . S
C54 C55 1.398 . S
C54 H77 0.929 . S
C55 C54 1.398 . S
C55 C56 1.352 . S
C56 C55 1.352 . S
C56 C57 1.384 . S
C56 H78 0.930 . S
C57 C52 1.407 . S
C57 C56 1.384 . S
C57 H79 0.929 . S
C58 O68 1.241 . S
C58 O69 1.273 . S
C59 O70 1.251 . S
C59 O71 1.268 . S
O60 Nd40 2.500 . S
O60 C42 1.258 . S
O61 Nd40 2.492 . S
O61 C42 1.239 . S
O62 Nd40 2.487 . S
O62 C49 1.241 . S
O63 Nd40 2.682 . S
O63 Nd41 2.414 . S
O63 C49 1.273 . S
O64 Nd40 2.410 . S
O64 C50 1.251 . S
O65 Nd41 2.424 . S
O65 C50 1.268 . S
O66 Nd41 2.500 . S
O66 C51 1.258 . S
O67 Nd41 2.492 . S
O67 C51 1.239 . S
O68 Nd41 2.487 . S
O68 C58 1.241 . S
O69 Nd40 2.414 . S
O69 Nd41 2.682 . S
O69 C58 1.273 . S
O70 Nd41 2.410 . S
O70 C59 1.251 . S
O71 Nd40 2.424 . S
O71 C59 1.268 . S
H72 C44 0.930 . S
H73 C45 0.929 . S
H74 C47 0.930 . S
H75 C48 0.929 . S
H76 C53 0.930 . S
H77 C54 0.929 . S
H78 C56 0.930 . S
H79 C57 0.929 . S
Nd80 C82 2.836 . S
Nd80 O100 2.500 . S
Nd80 O101 2.492 . S
Nd80 O102 2.487 . S
Nd80 O103 2.682 . S
Nd80 O104 2.410 . S
Nd80 O109 2.414 . S
Nd80 O111 2.424 . S
Nd81 C91 2.836 . S
Nd81 O103 2.414 . S
Nd81 O105 2.424 . S
Nd81 O106 2.500 . S
Nd81 O107 2.492 . S
Nd81 O108 2.487 . S
Nd81 O109 2.682 . S
Nd81 O110 2.410 . S
C82 Nd80 2.836 . S
C82 C83 1.498 . S
C82 O100 1.258 . S
C82 O101 1.239 . S
C83 C82 1.498 . S
C83 C84 1.366 . S
C83 C88 1.407 . S
C84 C83 1.366 . S
C84 C85 1.392 . S
C84 H112 0.930 . S
C85 C84 1.392 . S
C85 C86 1.398 . S
C85 H113 0.929 . S
C86 C85 1.398 . S
C86 C87 1.352 . S
C87 C86 1.352 . S
C87 C88 1.384 . S
C87 H114 0.930 . S
C88 C83 1.407 . S
C88 C87 1.384 . S
C88 H115 0.929 . S
C89 O102 1.241 . S
C89 O103 1.273 . S
C90 O104 1.251 . S
C90 O105 1.268 . S
C91 Nd81 2.836 . S
C91 C92 1.498 . S
C91 O106 1.258 . S
C91 O107 1.239 . S
C92 C91 1.498 . S
C92 C93 1.366 . S
C92 C97 1.407 . S
C93 C92 1.366 . S
C93 C94 1.392 . S
C93 H116 0.930 . S
C94 C93 1.392 . S
C94 C95 1.398 . S
C94 H117 0.929 . S
C95 C94 1.398 . S
C95 C96 1.352 . S
C96 C95 1.352 . S
C96 C97 1.384 . S
C96 H118 0.930 . S
C97 C92 1.407 . S
C97 C96 1.384 . S
C97 H119 0.929 . S
C98 O108 1.241 . S
C98 O109 1.273 . S
C99 O110 1.251 . S
C99 O111 1.268 . S
O100 Nd80 2.500 . S
O100 C82 1.258 . S
O101 Nd80 2.492 . S
O101 C82 1.239 . S
O102 Nd80 2.487 . S
O102 C89 1.241 . S
O103 Nd80 2.682 . S
O103 Nd81 2.414 . S
O103 C89 1.273 . S
O104 Nd80 2.410 . S
O104 C90 1.251 . S
O105 Nd81 2.424 . S
O105 C90 1.268 . S
O106 Nd81 2.500 . S
O106 C91 1.258 . S
O107 Nd81 2.492 . S
O107 C91 1.239 . S
O108 Nd81 2.487 . S
O108 C98 1.241 . S
O109 Nd80 2.414 . S
O109 Nd81 2.682 . S
O109 C98 1.273 . S
O110 Nd81 2.410 . S
O110 C99 1.251 . S
O111 Nd80 2.424 . S
O111 C99 1.268 . S
H112 C84 0.930 . S
H113 C85 0.929 . S
H114 C87 0.930 . S
H115 C88 0.929 . S
H116 C93 0.930 . S
H117 C94 0.929 . S
H118 C96 0.930 . S
H119 C97 0.929 . S
Nd120 C122 2.836 . S
Nd120 O140 2.500 . S
Nd120 O141 2.492 . S
Nd120 O142 2.487 . S
Nd120 O143 2.682 . S
Nd120 O144 2.410 . S
Nd120 O149 2.414 . S
Nd120 O151 2.424 . S
Nd121 C131 2.836 . S
Nd121 O143 2.414 . S
Nd121 O145 2.424 . S
Nd121 O146 2.500 . S
Nd121 O147 2.492 . S
Nd121 O148 2.487 . S
Nd121 O149 2.682 . S
Nd121 O150 2.410 . S
C122 Nd120 2.836 . S
C122 C123 1.498 . S
C122 O140 1.258 . S
C122 O141 1.239 . S
C123 C122 1.498 . S
C123 C124 1.366 . S
C123 C128 1.407 . S
C124 C123 1.366 . S
C124 C125 1.392 . S
C124 H152 0.930 . S
C125 C124 1.392 . S
C125 C126 1.398 . S
C125 H153 0.929 . S
C126 C125 1.398 . S
C126 C127 1.352 . S
C127 C126 1.352 . S
C127 C128 1.384 . S
C127 H154 0.930 . S
C128 C123 1.407 . S
C128 C127 1.384 . S
C128 H155 0.929 . S
C129 O142 1.241 . S
C129 O143 1.273 . S
C130 O144 1.251 . S
C130 O145 1.268 . S
C131 Nd121 2.836 . S
C131 C132 1.498 . S
C131 O146 1.258 . S
C131 O147 1.239 . S
C132 C131 1.498 . S
C132 C133 1.366 . S
C132 C137 1.407 . S
C133 C132 1.366 . S
C133 C134 1.392 . S
C133 H156 0.930 . S
C134 C133 1.392 . S
C134 C135 1.398 . S
C134 H157 0.929 . S
C135 C134 1.398 . S
C135 C136 1.352 . S
C136 C135 1.352 . S
C136 C137 1.384 . S
C136 H158 0.930 . S
C137 C132 1.407 . S
C137 C136 1.384 . S
C137 H159 0.929 . S
C138 O148 1.241 . S
C138 O149 1.273 . S
C139 O150 1.251 . S
C139 O151 1.268 . S
O140 Nd120 2.500 . S
O140 C122 1.258 . S
O141 Nd120 2.492 . S
O141 C122 1.239 . S
O142 Nd120 2.487 . S
O142 C129 1.241 . S
O143 Nd120 2.682 . S
O143 Nd121 2.414 . S
O143 C129 1.273 . S
O144 Nd120 2.410 . S
O144 C130 1.251 . S
O145 Nd121 2.424 . S
O145 C130 1.268 . S
O146 Nd121 2.500 . S
O146 C131 1.258 . S
O147 Nd121 2.492 . S
O147 C131 1.239 . S
O148 Nd121 2.487 . S
O148 C138 1.241 . S
O149 Nd120 2.414 . S
O149 Nd121 2.682 . S
O149 C138 1.273 . S
O150 Nd121 2.410 . S
O150 C139 1.251 . S
O151 Nd120 2.424 . S
O151 C139 1.268 . S
H152 C124 0.930 . S
H153 C125 0.929 . S
H154 C127 0.930 . S
H155 C128 0.929 . S
H156 C133 0.930 . S
H157 C134 0.929 . S
H158 C136 0.930 . S
H159 C137 0.929 . S
Nd160 C162 2.836 . S
Nd160 O180 2.500 . S
Nd160 O181 2.492 . S
Nd160 O182 2.487 . S
Nd160 O183 2.682 1_556 S
Nd160 O184 2.410 . S
Nd160 O189 2.414 1_556 S
Nd160 O191 2.424 1_556 S
Nd161 C171 2.836 . S
Nd161 O183 2.414 . S
Nd161 O185 2.424 . S
Nd161 O186 2.500 . S
Nd161 O187 2.492 . S
Nd161 O188 2.487 . S
Nd161 O189 2.682 . S
Nd161 O190 2.410 . S
C162 Nd160 2.836 . S
C162 C163 1.498 . S
C162 O180 1.258 . S
C162 O181 1.239 . S
C163 C162 1.498 . S
C163 C164 1.366 . S
C163 C168 1.407 . S
C164 C163 1.366 . S
C164 C165 1.392 . S
C164 H192 0.930 . S
C165 C164 1.392 . S
C165 C166 1.398 . S
C165 H193 0.929 . S
C166 C165 1.398 . S
C166 C167 1.352 . S
C167 C166 1.352 . S
C167 C168 1.384 . S
C167 H194 0.930 . S
C168 C163 1.407 . S
C168 C167 1.384 . S
C168 H195 0.929 . S
C169 O182 1.241 1_554 S
C169 O183 1.273 . S
C170 O184 1.251 . S
C170 O185 1.268 1_556 S
C171 Nd161 2.836 . S
C171 C172 1.498 . S
C171 O186 1.258 . S
C171 O187 1.239 . S
C172 C171 1.498 . S
C172 C173 1.366 . S
C172 C177 1.407 . S
C173 C172 1.366 . S
C173 C174 1.392 . S
C173 H196 0.930 . S
C174 C173 1.392 . S
C174 C175 1.398 . S
C174 H197 0.929 . S
C175 C174 1.398 . S
C175 C176 1.352 . S
C176 C175 1.352 . S
C176 C177 1.384 . S
C176 H198 0.930 . S
C177 C172 1.407 . S
C177 C176 1.384 . S
C177 H199 0.929 . S
C178 O188 1.241 . S
C178 O189 1.273 . S
C179 O190 1.251 . S
C179 O191 1.268 . S
O180 Nd160 2.500 . S
O180 C162 1.258 . S
O181 Nd160 2.492 . S
O181 C162 1.239 . S
O182 Nd160 2.487 . S
O182 C169 1.241 1_556 S
O183 Nd160 2.682 1_554 S
O183 Nd161 2.414 . S
O183 C169 1.273 . S
O184 Nd160 2.410 . S
O184 C170 1.251 . S
O185 Nd161 2.424 . S
O185 C170 1.268 1_554 S
O186 Nd161 2.500 . S
O186 C171 1.258 . S
O187 Nd161 2.492 . S
O187 C171 1.239 . S
O188 Nd161 2.487 . S
O188 C178 1.241 . S
O189 Nd160 2.414 1_554 S
O189 Nd161 2.682 . S
O189 C178 1.273 . S
O190 Nd161 2.410 . S
O190 C179 1.251 . S
O191 Nd160 2.424 1_554 S
O191 C179 1.268 . S
H192 C164 0.930 . S
H193 C165 0.929 . S
H194 C167 0.930 . S
H195 C168 0.929 . S
H196 C173 0.930 . S
H197 C174 0.929 . S
H198 C176 0.930 . S
H199 C177 0.929 . S
Nd200 C202 2.836 . S
Nd200 O220 2.500 . S
Nd200 O221 2.492 . S
Nd200 O222 2.487 . S
Nd200 O223 2.682 1_556 S
Nd200 O224 2.410 . S
Nd200 O229 2.414 1_556 S
Nd200 O231 2.424 1_556 S
Nd201 C211 2.836 . S
Nd201 O223 2.414 . S
Nd201 O225 2.424 . S
Nd201 O226 2.500 . S
Nd201 O227 2.492 . S
Nd201 O228 2.487 . S
Nd201 O229 2.682 . S
Nd201 O230 2.410 . S
C202 Nd200 2.836 . S
C202 C203 1.498 . S
C202 O220 1.258 . S
C202 O221 1.239 . S
C203 C202 1.498 . S
C203 C204 1.366 . S
C203 C208 1.407 . S
C204 C203 1.366 . S
C204 C205 1.392 . S
C204 H232 0.930 . S
C205 C204 1.392 . S
C205 C206 1.398 . S
C205 H233 0.929 . S
C206 C205 1.398 . S
C206 C207 1.352 . S
C207 C206 1.352 . S
C207 C208 1.384 . S
C207 H234 0.930 . S
C208 C203 1.407 . S
C208 C207 1.384 . S
C208 H235 0.929 . S
C209 O222 1.241 1_554 S
C209 O223 1.273 . S
C210 O224 1.251 . S
C210 O225 1.268 1_556 S
C211 Nd201 2.836 . S
C211 C212 1.498 . S
C211 O226 1.258 . S
C211 O227 1.239 . S
C212 C211 1.498 . S
C212 C213 1.366 . S
C212 C217 1.407 . S
C213 C212 1.366 . S
C213 C214 1.392 . S
C213 H236 0.930 . S
C214 C213 1.392 . S
C214 C215 1.398 . S
C214 H237 0.929 . S
C215 C214 1.398 . S
C215 C216 1.352 . S
C216 C215 1.352 . S
C216 C217 1.384 . S
C216 H238 0.930 . S
C217 C212 1.407 . S
C217 C216 1.384 . S
C217 H239 0.929 . S
C218 O228 1.241 . S
C218 O229 1.273 . S
C219 O230 1.251 . S
C219 O231 1.268 . S
O220 Nd200 2.500 . S
O220 C202 1.258 . S
O221 Nd200 2.492 . S
O221 C202 1.239 . S
O222 Nd200 2.487 . S
O222 C209 1.241 1_556 S
O223 Nd200 2.682 1_554 S
O223 Nd201 2.414 . S
O223 C209 1.273 . S
O224 Nd200 2.410 . S
O224 C210 1.251 . S
O225 Nd201 2.424 . S
O225 C210 1.268 1_554 S
O226 Nd201 2.500 . S
O226 C211 1.258 . S
O227 Nd201 2.492 . S
O227 C211 1.239 . S
O228 Nd201 2.487 . S
O228 C218 1.241 . S
O229 Nd200 2.414 1_554 S
O229 Nd201 2.682 . S
O229 C218 1.273 . S
O230 Nd201 2.410 . S
O230 C219 1.251 . S
O231 Nd200 2.424 1_554 S
O231 C219 1.268 . S
H232 C204 0.930 . S
H233 C205 0.929 . S
H234 C207 0.930 . S
H235 C208 0.929 . S
H236 C213 0.930 . S
H237 C214 0.929 . S
H238 C216 0.930 . S
H239 C217 0.929 . S
Nd240 C242 2.836 . S
Nd240 O260 2.500 . S
Nd240 O261 2.492 . S
Nd240 O262 2.487 . S
Nd240 O263 2.682 . S
Nd240 O264 2.410 . S
Nd240 O269 2.414 . S
Nd240 O271 2.424 . S
Nd241 C251 2.836 . S
Nd241 O263 2.414 1_554 S
Nd241 O265 2.424 1_554 S
Nd241 O266 2.500 . S
Nd241 O267 2.492 . S
Nd241 O268 2.487 . S
Nd241 O269 2.682 1_554 S
Nd241 O270 2.410 . S
C242 Nd240 2.836 . S
C242 C243 1.498 . S
C242 O260 1.258 . S
C242 O261 1.239 . S
C243 C242 1.498 . S
C243 C244 1.366 . S
C243 C248 1.407 . S
C244 C243 1.366 . S
C244 C245 1.392 . S
C244 H272 0.930 . S
C245 C244 1.392 . S
C245 C246 1.398 . S
C245 H273 0.929 . S
C246 C245 1.398 . S
C246 C247 1.352 . S
C247 C246 1.352 . S
C247 C248 1.384 . S
C247 H274 0.930 . S
C248 C243 1.407 . S
C248 C247 1.384 . S
C248 H275 0.929 . S
C249 O262 1.241 . S
C249 O263 1.273 . S
C250 O264 1.251 . S
C250 O265 1.268 . S
C251 Nd241 2.836 . S
C251 C252 1.498 . S
C251 O266 1.258 . S
C251 O267 1.239 . S
C252 C251 1.498 . S
C252 C253 1.366 . S
C252 C257 1.407 . S
C253 C252 1.366 . S
C253 C254 1.392 . S
C253 H276 0.930 . S
C254 C253 1.392 . S
C254 C255 1.398 . S
C254 H277 0.929 . S
C255 C254 1.398 . S
C255 C256 1.352 . S
C256 C255 1.352 . S
C256 C257 1.384 . S
C256 H278 0.930 . S
C257 C252 1.407 . S
C257 C256 1.384 . S
C257 H279 0.929 . S
C258 O268 1.241 1_556 S
C258 O269 1.273 . S
C259 O270 1.251 . S
C259 O271 1.268 1_554 S
O260 Nd240 2.500 . S
O260 C242 1.258 . S
O261 Nd240 2.492 . S
O261 C242 1.239 . S
O262 Nd240 2.487 . S
O262 C249 1.241 . S
O263 Nd240 2.682 . S
O263 Nd241 2.414 1_556 S
O263 C249 1.273 . S
O264 Nd240 2.410 . S
O264 C250 1.251 . S
O265 Nd241 2.424 1_556 S
O265 C250 1.268 . S
O266 Nd241 2.500 . S
O266 C251 1.258 . S
O267 Nd241 2.492 . S
O267 C251 1.239 . S
O268 Nd241 2.487 . S
O268 C258 1.241 1_554 S
O269 Nd240 2.414 . S
O269 Nd241 2.682 1_556 S
O269 C258 1.273 . S
O270 Nd241 2.410 . S
O270 C259 1.251 . S
O271 Nd240 2.424 . S
O271 C259 1.268 1_556 S
H272 C244 0.930 . S
H273 C245 0.929 . S
H274 C247 0.930 . S
H275 C248 0.929 . S
H276 C253 0.930 . S
H277 C254 0.929 . S
H278 C256 0.930 . S
H279 C257 0.929 . S
Nd280 C282 2.836 . S
Nd280 O300 2.500 . S
Nd280 O301 2.492 . S
Nd280 O302 2.487 . S
Nd280 O303 2.682 . S
Nd280 O304 2.410 . S
Nd280 O309 2.414 . S
Nd280 O311 2.424 . S
Nd281 C291 2.836 . S
Nd281 O303 2.414 1_554 S
Nd281 O305 2.424 1_554 S
Nd281 O306 2.500 . S
Nd281 O307 2.492 . S
Nd281 O308 2.487 . S
Nd281 O309 2.682 1_554 S
Nd281 O310 2.410 . S
C282 Nd280 2.836 . S
C282 C283 1.498 . S
C282 O300 1.258 . S
C282 O301 1.239 . S
C283 C282 1.498 . S
C283 C284 1.366 . S
C283 C288 1.407 . S
C284 C283 1.366 . S
C284 C285 1.392 . S
C284 H312 0.930 . S
C285 C284 1.392 . S
C285 C286 1.398 . S
C285 H313 0.929 . S
C286 C285 1.398 . S
C286 C287 1.352 . S
C287 C286 1.352 . S
C287 C288 1.384 . S
C287 H314 0.930 . S
C288 C283 1.407 . S
C288 C287 1.384 . S
C288 H315 0.929 . S
C289 O302 1.241 . S
C289 O303 1.273 . S
C290 O304 1.251 . S
C290 O305 1.268 . S
C291 Nd281 2.836 . S
C291 C292 1.498 . S
C291 O306 1.258 . S
C291 O307 1.239 . S
C292 C291 1.498 . S
C292 C293 1.366 . S
C292 C297 1.407 . S
C293 C292 1.366 . S
C293 C294 1.392 . S
C293 H316 0.930 . S
C294 C293 1.392 . S
C294 C295 1.398 . S
C294 H317 0.929 . S
C295 C294 1.398 . S
C295 C296 1.352 . S
C296 C295 1.352 . S
C296 C297 1.384 . S
C296 H318 0.930 . S
C297 C292 1.407 . S
C297 C296 1.384 . S
C297 H319 0.929 . S
C298 O308 1.241 1_556 S
C298 O309 1.273 . S
C299 O310 1.251 . S
C299 O311 1.268 1_554 S
O300 Nd280 2.500 . S
O300 C282 1.258 . S
O301 Nd280 2.492 . S
O301 C282 1.239 . S
O302 Nd280 2.487 . S
O302 C289 1.241 . S
O303 Nd280 2.682 . S
O303 Nd281 2.414 1_556 S
O303 C289 1.273 . S
O304 Nd280 2.410 . S
O304 C290 1.251 . S
O305 Nd281 2.424 1_556 S
O305 C290 1.268 . S
O306 Nd281 2.500 . S
O306 C291 1.258 . S
O307 Nd281 2.492 . S
O307 C291 1.239 . S
O308 Nd281 2.487 . S
O308 C298 1.241 1_554 S
O309 Nd280 2.414 . S
O309 Nd281 2.682 1_556 S
O309 C298 1.273 . S
O310 Nd281 2.410 . S
O310 C299 1.251 . S
O311 Nd280 2.424 . S
O311 C299 1.268 1_556 S
H312 C284 0.930 . S
H313 C285 0.929 . S
H314 C287 0.930 . S
H315 C288 0.929 . S
H316 C293 0.930 . S
H317 C294 0.929 . S
H318 C296 0.930 . S
H319 C297 0.929 . S
H320 C326 0.930 . S
H321 C330 0.930 . S
H322 C335 0.929 . S
H323 C333 0.929 . S
H324 C328 0.929 . S
H325 C334 0.929 . S
C326 H320 0.930 . S
C326 C327 1.367 . S
C326 C334 1.378 . S
C327 C326 1.367 . S
C327 C335 1.433 . S
C328 H324 0.929 . S
C328 C330 1.378 . S
C328 C332 1.350 . S
C329 C332 1.463 . S
C329 C334 1.350 . S
C329 N337 1.427 . S
C330 H321 0.930 . S
C330 C328 1.378 . S
C330 C331 1.367 . S
C331 C330 1.367 . S
C331 C333 1.433 . S
C332 C328 1.350 . S
C332 C329 1.463 . S
C332 N336 1.427 . S
C333 H323 0.929 . S
C333 C331 1.433 . S
C333 N336 1.384 . S
C334 H325 0.929 . S
C334 C326 1.378 . S
C334 C329 1.350 . S
C335 H322 0.929 . S
C335 C327 1.433 . S
C335 N337 1.384 . S
N336 C332 1.427 . S
N336 C333 1.384 . S
N337 C329 1.427 . S
N337 C335 1.384 . S
H338 C344 0.930 . S
H339 C348 0.930 . S
H340 C353 0.929 . S
H341 C351 0.929 . S
H342 C346 0.929 . S
H343 C352 0.929 . S
C344 H338 0.930 . S
C344 C345 1.367 . S
C344 C352 1.378 . S
C345 C344 1.367 . S
C345 C353 1.433 . S
C346 H342 0.929 . S
C346 C348 1.378 . S
C346 C350 1.350 . S
C347 C350 1.463 . S
C347 C352 1.350 . S
C347 N355 1.427 . S
C348 H339 0.930 . S
C348 C346 1.378 . S
C348 C349 1.367 . S
C349 C348 1.367 . S
C349 C351 1.433 . S
C350 C346 1.350 . S
C350 C347 1.463 . S
C350 N354 1.427 . S
C351 H341 0.929 . S
C351 C349 1.433 . S
C351 N354 1.384 . S
C352 H343 0.929 . S
C352 C344 1.378 . S
C352 C347 1.350 . S
C353 H340 0.929 . S
C353 C345 1.433 . S
C353 N355 1.384 . S
N354 C350 1.427 . S
N354 C351 1.384 . S
N355 C347 1.427 . S
N355 C353 1.384 . S
H356 C362 0.930 . S
H357 C366 0.930 . S
H358 C371 0.929 . S
H359 C369 0.929 . S
H360 C364 0.929 . S
H361 C370 0.929 . S
C362 H356 0.930 . S
C362 C363 1.367 . S
C362 C370 1.378 . S
C363 C362 1.367 . S
C363 C371 1.433 . S
C364 H360 0.929 . S
C364 C366 1.378 . S
C364 C368 1.350 . S
C365 C368 1.463 . S
C365 C370 1.350 . S
C365 N373 1.427 . S
C366 H357 0.930 . S
C366 C364 1.378 . S
C366 C367 1.367 . S
C367 C366 1.367 . S
C367 C369 1.433 . S
C368 C364 1.350 . S
C368 C365 1.463 . S
C368 N372 1.427 . S
C369 H359 0.929 . S
C369 C367 1.433 . S
C369 N372 1.384 . S
C370 H361 0.929 . S
C370 C362 1.378 . S
C370 C365 1.350 . S
C371 H358 0.929 . S
C371 C363 1.433 . S
C371 N373 1.384 . S
N372 C368 1.427 . S
N372 C369 1.384 . S
N373 C365 1.427 . S
N373 C371 1.384 . S
H374 C380 0.930 . S
H375 C384 0.930 . S
H376 C389 0.929 . S
H377 C387 0.929 . S
H378 C382 0.929 . S
H379 C388 0.929 . S
C380 H374 0.930 . S
C380 C381 1.367 . S
C380 C388 1.378 . S
C381 C380 1.367 . S
C381 C389 1.433 . S
C382 H378 0.929 . S
C382 C384 1.378 . S
C382 C386 1.350 . S
C383 C386 1.463 . S
C383 C388 1.350 . S
C383 N391 1.427 . S
C384 H375 0.930 . S
C384 C382 1.378 . S
C384 C385 1.367 . S
C385 C384 1.367 . S
C385 C387 1.433 . S
C386 C382 1.350 . S
C386 C383 1.463 . S
C386 N390 1.427 . S
C387 H377 0.929 . S
C387 C385 1.433 . S
C387 N390 1.384 . S
C388 H379 0.929 . S
C388 C380 1.378 . S
C388 C383 1.350 . S
C389 H376 0.929 . S
C389 C381 1.433 . S
C389 N391 1.384 . S
N390 C386 1.427 . S
N390 C387 1.384 . S
N391 C383 1.427 . S
N391 C389 1.384 . S
H392 C398 0.930 . S
H393 C402 0.930 . S
H394 C407 0.929 . S
H395 C405 0.929 . S
H396 C400 0.929 . S
H397 C406 0.929 . S
C398 H392 0.930 . S
C398 C399 1.367 . S
C398 C406 1.378 . S
C399 C398 1.367 . S
C399 C407 1.433 . S
C400 H396 0.929 . S
C400 C402 1.378 . S
C400 C404 1.350 . S
C401 C404 1.463 1_565 S
C401 C406 1.350 . S
C401 N409 1.427 . S
C402 H393 0.930 . S
C402 C400 1.378 . S
C402 C403 1.367 . S
C403 C402 1.367 . S
C403 C405 1.433 . S
C404 C400 1.350 . S
C404 C401 1.463 1_545 S
C404 N408 1.427 . S
C405 H395 0.929 . S
C405 C403 1.433 . S
C405 N408 1.384 . S
C406 H397 0.929 . S
C406 C398 1.378 . S
C406 C401 1.350 . S
C407 H394 0.929 . S
C407 C399 1.433 . S
C407 N409 1.384 . S
N408 C404 1.427 . S
N408 C405 1.384 . S
N409 C401 1.427 . S
N409 C407 1.384 . S
H410 C416 0.930 . S
H411 C420 0.930 . S
H412 C425 0.929 . S
H413 C423 0.929 . S
H414 C418 0.929 . S
H415 C424 0.929 . S
C416 H410 0.930 . S
C416 C417 1.367 . S
C416 C424 1.378 . S
C417 C416 1.367 . S
C417 C425 1.433 . S
C418 H414 0.929 . S
C418 C420 1.378 . S
C418 C422 1.350 . S
C419 C422 1.463 . S
C419 C424 1.350 . S
C419 N427 1.427 . S
C420 H411 0.930 . S
C420 C418 1.378 . S
C420 C421 1.367 . S
C421 C420 1.367 . S
C421 C423 1.433 . S
C422 C418 1.350 . S
C422 C419 1.463 . S
C422 N426 1.427 . S
C423 H413 0.929 . S
C423 C421 1.433 . S
C423 N426 1.384 . S
C424 H415 0.929 . S
C424 C416 1.378 . S
C424 C419 1.350 . S
C425 H412 0.929 . S
C425 C417 1.433 . S
C425 N427 1.384 . S
N426 C422 1.427 . S
N426 C423 1.384 . S
N427 C419 1.427 . S
N427 C425 1.384 . S
H428 C434 0.930 . S
H429 C438 0.930 . S
H430 C443 0.929 . S
H431 C441 0.929 . S
H432 C436 0.929 . S
H433 C442 0.929 . S
C434 H428 0.930 . S
C434 C435 1.367 . S
C434 C442 1.378 . S
C435 C434 1.367 . S
C435 C443 1.433 . S
C436 H432 0.929 . S
C436 C438 1.378 . S
C436 C440 1.350 . S
C437 C440 1.463 1_565 S
C437 C442 1.350 . S
C437 N445 1.427 . S
C438 H429 0.930 . S
C438 C436 1.378 . S
C438 C439 1.367 . S
C439 C438 1.367 . S
C439 C441 1.433 . S
C440 C436 1.350 . S
C440 C437 1.463 1_545 S
C440 N444 1.427 . S
C441 H431 0.929 . S
C441 C439 1.433 . S
C441 N444 1.384 . S
C442 H433 0.929 . S
C442 C434 1.378 . S
C442 C437 1.350 . S
C443 H430 0.929 . S
C443 C435 1.433 . S
C443 N445 1.384 . S
N444 C440 1.427 . S
N444 C441 1.384 . S
N445 C437 1.427 . S
N445 C443 1.384 . S
H446 C452 0.930 . S
H447 C456 0.930 . S
H448 C461 0.929 . S
H449 C459 0.929 . S
H450 C454 0.929 . S
H451 C460 0.929 . S
C452 H446 0.930 . S
C452 C453 1.367 . S
C452 C460 1.378 . S
C453 C452 1.367 . S
C453 C461 1.433 . S
C454 H450 0.929 . S
C454 C456 1.378 . S
C454 C458 1.350 . S
C455 C458 1.463 . S
C455 C460 1.350 . S
C455 N463 1.427 . S
C456 H447 0.930 . S
C456 C454 1.378 . S
C456 C457 1.367 . S
C457 C456 1.367 . S
C457 C459 1.433 . S
C458 C454 1.350 . S
C458 C455 1.463 . S
C458 N462 1.427 . S
C459 H449 0.929 . S
C459 C457 1.433 . S
C459 N462 1.384 . S
C460 H451 0.929 . S
C460 C452 1.378 . S
C460 C455 1.350 . S
C461 H448 0.929 . S
C461 C453 1.433 . S
C461 N463 1.384 . S
N462 C458 1.427 . S
N462 C459 1.384 . S
N463 C455 1.427 . S
N463 C461 1.384 . S
H464 C470 0.930 . S
H465 C474 0.930 . S
H466 C479 0.929 . S
H467 C477 0.929 . S
H468 C472 0.929 . S
H469 C478 0.929 . S
C470 H464 0.930 . S
C470 C471 1.367 . S
C470 C478 1.378 . S
C471 C470 1.367 . S
C471 C479 1.433 1_554 S
C472 H468 0.929 . S
C472 C474 1.378 . S
C472 C476 1.350 . S
C473 C476 1.463 1_554 S
C473 C478 1.350 . S
C473 N481 1.427 1_554 S
C474 H465 0.930 . S
C474 C472 1.378 . S
C474 C475 1.367 . S
C475 C474 1.367 . S
C475 C477 1.433 1_556 S
C476 C472 1.350 . S
C476 C473 1.463 1_556 S
C476 N480 1.427 1_556 S
C477 H467 0.929 . S
C477 C475 1.433 1_554 S
C477 N480 1.384 . S
C478 H469 0.929 . S
C478 C470 1.378 . S
C478 C473 1.350 . S
C479 H466 0.929 . S
C479 C471 1.433 1_556 S
C479 N481 1.384 . S
N480 C476 1.427 1_554 S
N480 C477 1.384 . S
N481 C473 1.427 1_556 S
N481 C479 1.384 . S
H482 C488 0.930 . S
H483 C492 0.930 . S
H484 C497 0.929 . S
H485 C495 0.929 . S
H486 C490 0.929 . S
H487 C496 0.929 . S
C488 H482 0.930 . S
C488 C489 1.367 . S
C488 C496 1.378 . S
C489 C488 1.367 . S
C489 C497 1.433 1_554 S
C490 H486 0.929 . S
C490 C492 1.378 . S
C490 C494 1.350 . S
C491 C494 1.463 1_564 S
C491 C496 1.350 . S
C491 N499 1.427 1_554 S
C492 H483 0.930 . S
C492 C490 1.378 . S
C492 C493 1.367 . S
C493 C492 1.367 . S
C493 C495 1.433 1_556 S
C494 C490 1.350 . S
C494 C491 1.463 1_546 S
C494 N498 1.427 1_556 S
C495 H485 0.929 . S
C495 C493 1.433 1_554 S
C495 N498 1.384 . S
C496 H487 0.929 . S
C496 C488 1.378 . S
C496 C491 1.350 . S
C497 H484 0.929 . S
C497 C489 1.433 1_556 S
C497 N499 1.384 . S
N498 C494 1.427 1_554 S
N498 C495 1.384 . S
N499 C491 1.427 1_556 S
N499 C497 1.384 . S
H500 C506 0.930 . S
H501 C510 0.930 . S
H502 C515 0.929 . S
H503 C513 0.929 . S
H504 C508 0.929 . S
H505 C514 0.929 . S
C506 H500 0.930 . S
C506 C507 1.367 1_554 S
C506 C514 1.378 . S
C507 C506 1.367 1_556 S
C507 C515 1.433 . S
C508 H504 0.929 . S
C508 C510 1.378 . S
C508 C512 1.350 . S
C509 C512 1.463 . S
C509 C514 1.350 1_556 S
C509 N517 1.427 . S
C510 H501 0.930 . S
C510 C508 1.378 . S
C510 C511 1.367 1_556 S
C511 C510 1.367 1_554 S
C511 C513 1.433 . S
C512 C508 1.350 . S
C512 C509 1.463 . S
C512 N516 1.427 1_556 S
C513 H503 0.929 . S
C513 C511 1.433 . S
C513 N516 1.384 . S
C514 H505 0.929 . S
C514 C506 1.378 . S
C514 C509 1.350 1_554 S
C515 H502 0.929 . S
C515 C507 1.433 . S
C515 N517 1.384 . S
N516 C512 1.427 1_554 S
N516 C513 1.384 . S
N517 C509 1.427 . S
N517 C515 1.384 . S
H518 C524 0.930 . S
H519 C528 0.930 . S
H520 C533 0.929 . S
H521 C531 0.929 . S
H522 C526 0.929 . S
H523 C532 0.929 . S
C524 H518 0.930 . S
C524 C525 1.367 . S
C524 C532 1.378 . S
C525 C524 1.367 . S
C525 C533 1.433 1_556 S
C526 H522 0.929 . S
C526 C528 1.378 . S
C526 C530 1.350 . S
C527 C530 1.463 1_546 S
C527 C532 1.350 . S
C527 N535 1.427 1_556 S
C528 H519 0.930 . S
C528 C526 1.378 . S
C528 C529 1.367 . S
C529 C528 1.367 . S
C529 C531 1.433 1_554 S
C530 C526 1.350 . S
C530 C527 1.463 1_564 S
C530 N534 1.427 1_554 S
C531 H521 0.929 . S
C531 C529 1.433 1_556 S
C531 N534 1.384 . S
C532 H523 0.929 . S
C532 C524 1.378 . S
C532 C527 1.350 . S
C533 H520 0.929 . S
C533 C525 1.433 1_554 S
C533 N535 1.384 . S
N534 C530 1.427 1_556 S
N534 C531 1.384 . S
N535 C527 1.427 1_554 S
N535 C533 1.384 . S
H536 C542 0.930 . S
H537 C546 0.930 . S
H538 C551 0.929 . S
H539 C549 0.929 . S
H540 C544 0.929 . S
H541 C550 0.929 . S
C542 H536 0.930 . S
C542 C543 1.367 . S
C542 C550 1.378 . S
C543 C542 1.367 . S
C543 C551 1.433 . S
C544 H540 0.929 . S
C544 C546 1.378 . S
C544 C548 1.339 1_556 S
C545 C548 1.483 . S
C545 C550 1.350 . S
C545 N553 1.427 . S
C546 H537 0.930 . S
C546 C544 1.378 . S
C546 C547 1.367 . S
C547 C546 1.367 . S
C547 C549 1.433 . S
C548 C544 1.339 1_554 S
C548 C545 1.483 . S
C548 N552 1.419 1_554 S
C549 H539 0.929 . S
C549 C547 1.433 . S
C549 N552 1.384 . S
C550 H541 0.929 . S
C550 C542 1.378 . S
C550 C545 1.350 . S
C551 H538 0.929 . S
C551 C543 1.433 . S
C551 N553 1.384 . S
N552 C548 1.419 1_556 S
N552 C549 1.384 . S
N553 C545 1.427 . S
N553 C551 1.384 . S
H554 C560 0.930 . S
H555 C564 0.930 . S
H556 C569 0.929 . S
H557 C567 0.929 . S
H558 C562 0.929 . S
H559 C568 0.929 . S
C560 H554 0.930 . S
C560 C561 1.367 . S
C560 C568 1.378 . S
C561 C560 1.367 . S
C561 C569 1.433 . S
C562 H558 0.929 . S
C562 C564 1.378 . S
C562 C566 1.350 1_556 S
C563 C566 1.463 . S
C563 C568 1.350 . S
C563 N571 1.427 . S
C564 H555 0.930 . S
C564 C562 1.378 . S
C564 C565 1.367 . S
C565 C564 1.367 . S
C565 C567 1.433 . S
C566 C562 1.350 1_554 S
C566 C563 1.463 . S
C566 N570 1.427 1_554 S
C567 H557 0.929 . S
C567 C565 1.433 . S
C567 N570 1.384 . S
C568 H559 0.929 . S
C568 C560 1.378 . S
C568 C563 1.350 . S
C569 H556 0.929 . S
C569 C561 1.433 . S
C569 N571 1.384 . S
N570 C566 1.427 1_556 S
N570 C567 1.384 . S
N571 C563 1.427 . S
N571 C569 1.384 . S
H572 C578 0.930 . S
H573 C582 0.930 . S
H574 C587 0.929 . S
H575 C585 0.929 . S
H576 C580 0.929 . S
H577 C586 0.929 1_556 S
C578 H572 0.930 . S
C578 C579 1.367 . S
C578 C586 1.378 . S
C579 C578 1.367 . S
C579 C587 1.433 . S
C580 H576 0.929 . S
C580 C582 1.378 . S
C580 C584 1.350 . S
C581 C584 1.463 . S
C581 C586 1.350 1_556 S
C581 N589 1.427 1_556 S
C582 H573 0.930 . S
C582 C580 1.378 . S
C582 C583 1.367 . S
C583 C582 1.367 . S
C583 C585 1.433 . S
C584 C580 1.350 . S
C584 C581 1.463 . S
C584 N588 1.427 . S
C585 H575 0.929 . S
C585 C583 1.433 . S
C585 N588 1.384 . S
C586 H577 0.929 1_554 S
C586 C578 1.378 . S
C586 C581 1.350 1_554 S
C587 H574 0.929 . S
C587 C579 1.433 . S
C587 N589 1.384 . S
N588 C584 1.427 . S
N588 C585 1.384 . S
N589 C581 1.427 1_554 S
N589 C587 1.384 . S
H590 C596 0.930 . S
H591 C600 0.930 . S
H592 C605 0.929 . S
H593 C603 0.929 . S
H594 C598 0.929 1_556 S
H595 C604 0.929 . S
C596 H590 0.930 . S
C596 C597 1.367 . S
C596 C604 1.378 . S
C597 C596 1.367 . S
C597 C605 1.433 . S
C598 H594 0.929 1_554 S
C598 C600 1.378 . S
C598 C602 1.350 1_554 S
C599 C602 1.463 . S
C599 C604 1.350 . S
C599 N607 1.427 . S
C600 H591 0.930 . S
C600 C598 1.378 . S
C600 C601 1.367 . S
C601 C600 1.367 . S
C601 C603 1.433 . S
C602 C598 1.350 1_556 S
C602 C599 1.463 . S
C602 N606 1.427 1_556 S
C603 H593 0.929 . S
C603 C601 1.433 . S
C603 N606 1.384 . S
C604 H595 0.929 . S
C604 C596 1.378 . S
C604 C599 1.350 . S
C605 H592 0.929 . S
C605 C597 1.433 . S
C605 N607 1.384 . S
N606 C602 1.427 1_554 S
N606 C603 1.384 . S
N607 C599 1.427 . S
N607 C605 1.384 . S
H608 C614 0.930 . S
H609 C618 0.930 . S
H610 C623 0.929 . S
H611 C621 0.929 . S
H612 C616 0.929 . S
H613 C622 0.929 . S
C614 H608 0.930 . S
C614 C615 1.367 . S
C614 C622 1.378 . S
C615 C614 1.367 . S
C615 C623 1.433 . S
C616 H612 0.929 . S
C616 C618 1.378 . S
C616 C620 1.350 . S
C617 C620 1.463 . S
C617 C622 1.350 . S
C617 N625 1.427 . S
C618 H609 0.930 . S
C618 C616 1.378 . S
C618 C619 1.367 . S
C619 C618 1.367 . S
C619 C621 1.433 . S
C620 C616 1.350 . S
C620 C617 1.463 . S
C620 N624 1.427 . S
C621 H611 0.929 . S
C621 C619 1.433 . S
C621 N624 1.384 . S
C622 H613 0.929 . S
C622 C614 1.378 . S
C622 C617 1.350 . S
C623 H610 0.929 . S
C623 C615 1.433 . S
C623 N625 1.384 . S
N624 C620 1.427 . S
N624 C621 1.384 . S
N625 C617 1.427 . S
N625 C623 1.384 . S
H626 C632 0.930 . S
H627 C636 0.930 . S
H628 C641 0.929 . S
H629 C639 0.929 . S
H630 C634 0.929 . S
H631 C640 0.929 . S
C632 H626 0.930 . S
C632 C633 1.367 . S
C632 C640 1.378 . S
C633 C632 1.367 . S
C633 C641 1.433 . S
C634 H630 0.929 . S
C634 C636 1.378 . S
C634 C638 1.350 . S
C635 C638 1.463 . S
C635 C640 1.350 . S
C635 N643 1.427 . S
C636 H627 0.930 . S
C636 C634 1.378 . S
C636 C637 1.367 . S
C637 C636 1.367 . S
C637 C639 1.433 . S
C638 C634 1.350 . S
C638 C635 1.463 . S
C638 N642 1.427 . S
C639 H629 0.929 . S
C639 C637 1.433 . S
C639 N642 1.384 . S
C640 H631 0.929 . S
C640 C632 1.378 . S
C640 C635 1.350 . S
C641 H628 0.929 . S
C641 C633 1.433 . S
C641 N643 1.384 . S
N642 C638 1.427 . S
N642 C639 1.384 . S
N643 C635 1.427 . S
N643 C641 1.384 . S
H644 C650 0.930 . S
H645 C654 0.930 . S
H646 C659 0.929 . S
H647 C657 0.929 . S
H648 C652 0.929 . S
H649 C658 0.929 . S
C650 H644 0.930 . S
C650 C651 1.367 . S
C650 C658 1.378 . S
C651 C650 1.367 . S
C651 C659 1.433 . S
C652 H648 0.929 . S
C652 C654 1.378 . S
C652 C656 1.350 . S
C653 C656 1.463 . S
C653 C658 1.350 . S
C653 N661 1.427 . S
C654 H645 0.930 . S
C654 C652 1.378 . S
C654 C655 1.367 . S
C655 C654 1.367 . S
C655 C657 1.433 . S
C656 C652 1.350 . S
C656 C653 1.463 . S
C656 N660 1.427 . S
C657 H647 0.929 . S
C657 C655 1.433 . S
C657 N660 1.384 . S
C658 H649 0.929 . S
C658 C650 1.378 . S
C658 C653 1.350 . S
C659 H646 0.929 . S
C659 C651 1.433 . S
C659 N661 1.384 . S
N660 C656 1.427 . S
N660 C657 1.384 . S
N661 C653 1.427 . S
N661 C659 1.384 . S
H662 C668 0.930 . S
H663 C672 0.930 . S
H664 C677 0.929 . S
H665 C675 0.929 . S
H666 C670 0.929 . S
H667 C676 0.929 . S
C668 H662 0.930 . S
C668 C669 1.367 . S
C668 C676 1.378 . S
C669 C668 1.367 . S
C669 C677 1.433 . S
C670 H666 0.929 . S
C670 C672 1.378 . S
C670 C674 1.350 . S
C671 C674 1.463 . S
C671 C676 1.350 . S
C671 N679 1.427 . S
C672 H663 0.930 . S
C672 C670 1.378 . S
C672 C673 1.367 . S
C673 C672 1.367 . S
C673 C675 1.433 . S
C674 C670 1.350 . S
C674 C671 1.463 . S
C674 N678 1.427 . S
C675 H665 0.929 . S
C675 C673 1.433 . S
C675 N678 1.384 . S
C676 H667 0.929 . S
C676 C668 1.378 . S
C676 C671 1.350 . S
C677 H664 0.929 . S
C677 C669 1.433 . S
C677 N679 1.384 . S
N678 C674 1.427 . S
N678 C675 1.384 . S
N679 C671 1.427 . S
N679 C677 1.384 . S
H680 C686 0.930 . S
H681 C690 0.930 . S
H682 C695 0.929 . S
H683 C693 0.929 . S
H684 C688 0.929 . S
H685 C694 0.929 . S
C686 H680 0.930 . S
C686 C687 1.367 . S
C686 C694 1.378 . S
C687 C686 1.367 . S
C687 C695 1.433 . S
C688 H684 0.929 . S
C688 C690 1.378 . S
C688 C692 1.350 . S
C689 C692 1.463 1_455 S
C689 C694 1.350 . S
C689 N697 1.427 . S
C690 H681 0.930 . S
C690 C688 1.378 . S
C690 C691 1.367 . S
C691 C690 1.367 . S
C691 C693 1.433 . S
C692 C688 1.350 . S
C692 C689 1.463 1_655 S
C692 N696 1.427 . S
C693 H683 0.929 . S
C693 C691 1.433 . S
C693 N696 1.384 . S
C694 H685 0.929 . S
C694 C686 1.378 . S
C694 C689 1.350 . S
C695 H682 0.929 . S
C695 C687 1.433 . S
C695 N697 1.384 . S
N696 C692 1.427 . S
N696 C693 1.384 . S
N697 C689 1.427 . S
N697 C695 1.384 . S
H698 C704 0.930 . S
H699 C708 0.930 . S
H700 C713 0.929 . S
H701 C711 0.929 . S
H702 C706 0.929 . S
H703 C712 0.929 . S
C704 H698 0.930 . S
C704 C705 1.367 . S
C704 C712 1.378 . S
C705 C704 1.367 . S
C705 C713 1.433 . S
C706 H702 0.929 . S
C706 C708 1.378 . S
C706 C710 1.350 . S
C707 C710 1.463 1_655 S
C707 C712 1.350 . S
C707 N715 1.427 . S
C708 H699 0.930 . S
C708 C706 1.378 . S
C708 C709 1.367 . S
C709 C708 1.367 . S
C709 C711 1.433 . S
C710 C706 1.350 . S
C710 C707 1.463 1_455 S
C710 N714 1.427 . S
C711 H701 0.929 . S
C711 C709 1.433 . S
C711 N714 1.384 . S
C712 H703 0.929 . S
C712 C704 1.378 . S
C712 C707 1.350 . S
C713 H700 0.929 . S
C713 C705 1.433 . S
C713 N715 1.384 . S
N714 C710 1.427 . S
N714 C711 1.384 . S
N715 C707 1.427 . S
N715 C713 1.384 . S
H716 C722 0.930 . S
H717 C726 0.930 . S
H718 C731 0.929 . S
H719 C729 0.929 . S
H720 C724 0.929 . S
H721 C730 0.929 . S
C722 H716 0.930 . S
C722 C723 1.367 . S
C722 C730 1.378 . S
C723 C722 1.367 . S
C723 C731 1.433 1_556 S
C724 H720 0.929 . S
C724 C726 1.378 . S
C724 C728 1.350 1_554 S
C725 C728 1.463 . S
C725 C730 1.350 . S
C725 N733 1.427 1_556 S
C726 H717 0.930 . S
C726 C724 1.378 . S
C726 C727 1.367 1_554 S
C727 C726 1.367 1_556 S
C727 C729 1.433 . S
C728 C724 1.350 1_556 S
C728 C725 1.463 . S
C728 N732 1.427 . S
C729 H719 0.929 . S
C729 C727 1.433 . S
C729 N732 1.384 . S
C730 H721 0.929 . S
C730 C722 1.378 . S
C730 C725 1.350 . S
C731 H718 0.929 . S
C731 C723 1.433 1_554 S
C731 N733 1.384 . S
N732 C728 1.427 . S
N732 C729 1.384 . S
N733 C725 1.427 1_554 S
N733 C731 1.384 . S
H734 C740 0.930 . S
H735 C744 0.930 . S
H736 C749 0.929 . S
H737 C747 0.929 . S
H738 C742 0.929 . S
H739 C748 0.929 . S
C740 H734 0.930 . S
C740 C741 1.367 . S
C740 C748 1.378 . S
C741 C740 1.367 . S
C741 C749 1.433 1_554 S
C742 H738 0.929 . S
C742 C744 1.378 . S
C742 C746 1.350 1_556 S
C743 C746 1.463 . S
C743 C748 1.350 . S
C743 N751 1.427 1_554 S
C744 H735 0.930 . S
C744 C742 1.378 . S
C744 C745 1.367 1_556 S
C745 C744 1.367 1_554 S
C745 C747 1.433 . S
C746 C742 1.350 1_554 S
C746 C743 1.463 . S
C746 N750 1.427 . S
C747 H737 0.929 . S
C747 C745 1.433 . S
C747 N750 1.384 . S
C748 H739 0.929 . S
C748 C740 1.378 . S
C748 C743 1.350 . S
C749 H736 0.929 . S
C749 C741 1.433 1_556 S
C749 N751 1.384 . S
N750 C746 1.427 . S
N750 C747 1.384 . S
N751 C743 1.427 1_556 S
N751 C749 1.384 . S
C327 C19 2.278 . S
C331 C290 2.278 . S
C345 C250 2.278 . S
C349 C59 2.278 . S
C363 C219 2.274 . S
C367 C90 2.274 . S
C381 C179 2.271 . S
C385 C130 2.271 . S
C399 C89 1.522 . S
C403 C9 1.465 . S
C417 C49 1.464 . S
C421 C129 1.523 . S
C435 C138 1.462 . S
C439 C58 1.518 . S
C453 C98 1.461 . S
C457 C18 1.525 . S
C471 C169 1.466 . S
C475 C249 1.519 . S
C489 C209 1.466 . S
C493 C289 1.520 . S
C507 C298 1.448 . S
C511 C218 1.528 . S
C525 C258 1.464 . S
C529 C178 1.518 . S
C543 C6 1.461 . S
C547 C15 1.461 . S
C561 C46 1.463 . S
C565 C55 1.463 . S
C579 C86 1.466 . S
C583 C95 1.466 . S
C597 C135 1.467 . S
C601 C126 1.467 . S
C615 C175 1.467 . S
C619 C166 1.467 . S
C633 C206 1.462 . S
C637 C215 1.462 . S
C651 C255 1.457 . S
C655 C246 1.457 . S
C669 C295 1.456 . S
C673 C286 1.456 . S
C687 C10 2.167 . S
C691 C50 2.156 . S
C705 C139 2.156 . S
C709 C99 2.164 . S
C723 C170 2.166 . S
C727 C210 2.156 . S
C741 C299 2.166 . S
C745 C259 2.155 . S
