# Generated by pormake.
# Topology umy, (4)-cn, num edge types: 1
# Building blocks:
#     Node 0, Type 0, BuildingBlock: CEKHIL_clean_sbu_0, # of connection points: 4
#     Node 1, Type 0, BuildingBlock: CEKHIL_clean_sbu_0, # of connection points: 4
#     Node 2, Type 0, BuildingBlock: CEKHIL_clean_sbu_0, # of connection points: 4
#     Node 3, Type 0, BuildingBlock: CEKHIL_clean_sbu_0, # of connection points: 4
#     Node 4, Type 0, BuildingBlock: CEKHIL_clean_sbu_0, # of connection points: 4
#     Node 5, Type 0, BuildingBlock: CEKHIL_clean_sbu_0, # of connection points: 4
#     Node 6, Type 0, BuildingBlock: CEKHIL_clean_sbu_0, # of connection points: 4
#     Node 7, Type 0, BuildingBlock: CEKHIL_clean_sbu_0, # of connection points: 4
#     Node 8, Type 0, BuildingBlock: CEKHIL_clean_sbu_0, # of connection points: 4
#     Node 9, Type 0, BuildingBlock: CEKHIL_clean_sbu_0, # of connection points: 4
#     Node 10, Type 0, BuildingBlock: CEKHIL_clean_sbu_0, # of connection points: 4
#     Node 11, Type 0, BuildingBlock: CEKHIL_clean_sbu_0, # of connection points: 4
#     Edge 12, Type (0, 0), BuildingBlock: MIFKUJ_clean_linker_0, # of connection points: 2
#     Edge 13, Type (0, 0), BuildingBlock: MIFKUJ_clean_linker_0, # of connection points: 2
#     Edge 14, Type (0, 0), BuildingBlock: MIFKUJ_clean_linker_0, # of connection points: 2
#     Edge 15, Type (0, 0), BuildingBlock: MIFKUJ_clean_linker_0, # of connection points: 2
#     Edge 16, Type (0, 0), BuildingBlock: MIFKUJ_clean_linker_0, # of connection points: 2
#     Edge 17, Type (0, 0), BuildingBlock: MIFKUJ_clean_linker_0, # of connection points: 2
#     Edge 18, Type (0, 0), BuildingBlock: MIFKUJ_clean_linker_0, # of connection points: 2
#     Edge 19, Type (0, 0), BuildingBlock: MIFKUJ_clean_linker_0, # of connection points: 2
#     Edge 20, Type (0, 0), BuildingBlock: MIFKUJ_clean_linker_0, # of connection points: 2
#     Edge 21, Type (0, 0), BuildingBlock: MIFKUJ_clean_linker_0, # of connection points: 2
#     Edge 22, Type (0, 0), BuildingBlock: MIFKUJ_clean_linker_0, # of connection points: 2
#     Edge 23, Type (0, 0), BuildingBlock: MIFKUJ_clean_linker_0, # of connection points: 2
#     Edge 24, Type (0, 0), BuildingBlock: MIFKUJ_clean_linker_0, # of connection points: 2
#     Edge 25, Type (0, 0), BuildingBlock: MIFKUJ_clean_linker_0, # of connection points: 2
#     Edge 26, Type (0, 0), BuildingBlock: MIFKUJ_clean_linker_0, # of connection points: 2
#     Edge 27, Type (0, 0), BuildingBlock: MIFKUJ_clean_linker_0, # of connection points: 2
#     Edge 28, Type (0, 0), BuildingBlock: MIFKUJ_clean_linker_0, # of connection points: 2
#     Edge 29, Type (0, 0), BuildingBlock: MIFKUJ_clean_linker_0, # of connection points: 2
#     Edge 30, Type (0, 0), BuildingBlock: MIFKUJ_clean_linker_0, # of connection points: 2
#     Edge 31, Type (0, 0), BuildingBlock: MIFKUJ_clean_linker_0, # of connection points: 2
#     Edge 32, Type (0, 0), BuildingBlock: MIFKUJ_clean_linker_0, # of connection points: 2
#     Edge 33, Type (0, 0), BuildingBlock: MIFKUJ_clean_linker_0, # of connection points: 2
#     Edge 34, Type (0, 0), BuildingBlock: MIFKUJ_clean_linker_0, # of connection points: 2
#     Edge 35, Type (0, 0), BuildingBlock: MIFKUJ_clean_linker_0, # of connection points: 2
# Relax obj value: 0.116
# Max RMSD: 0.081
# Mean RMSD: 0.081
data_MOF--net-umy--node1-CEKHIL_clean_sbu_0--edge1-MIFKUJ_clean_linker_0
_symmetry_space_group_name_H-M    P1
_symmetry_Int_Tables_number       1
_symmetry_cell_setting            triclinic
loop_
_symmetry_equiv_pos_as_xyz
'x, y, z'
_cell_length_a     49.005226
_cell_length_b     48.989759
_cell_length_c     67.080971
_cell_angle_alpha  90.00833
_cell_angle_beta   89.991019
_cell_angle_gamma 119.98344
loop_
_atom_site_label
_atom_site_type_symbol
_atom_site_fract_x
_atom_site_fract_y
_atom_site_fract_z
_atom_type_partial_charge
Co0 Co 0.05011 0.34466 0.13356 0.0
O1 O 0.03579 0.36251 0.11321 0.0
O2 O 0.07735 0.38994 0.13251 0.0
C3 C 0.00231 0.31281 0.14746 0.0
O4 O 0.07121 0.33548 0.15682 0.0
Co5 Co 0.02764 0.27304 0.13521 0.0
O6 O 0.04841 0.28318 0.16166 0.0
C7 C 0.07757 0.3138 0.10662 0.0
C8 C 0.0589 0.38984 0.11856 0.0
C9 C 0.06754 0.31146 0.16689 0.0
O10 O 0.07786 0.33849 0.11364 0.0
O11 O 0.05792 0.28577 0.11238 0.0
O12 O 0.01803 0.34258 0.15194 0.0
O13 O 0.01441 0.3041 0.13348 0.0
Co14 Co 0.70538 0.04956 0.30002 0.0
O15 O 0.67294 0.03581 0.27997 0.0
O16 O 0.68777 0.07726 0.29949 0.0
C17 C 0.68896 0.00171 0.31396 0.0
O18 O 0.73656 0.07012 0.32288 0.0
Co19 Co 0.75331 0.02564 0.29994 0.0
O20 O 0.76388 0.04485 0.32692 0.0
C21 C 0.76158 0.07518 0.27147 0.0
C22 C 0.66912 0.05907 0.28553 0.0
C23 C 0.75608 0.06483 0.33266 0.0
O24 O 0.73885 0.07695 0.27989 0.0
O25 O 0.76913 0.05449 0.27622 0.0
O26 O 0.6757 0.01807 0.3187 0.0
O27 O 0.70913 0.01315 0.29956 0.0
Co28 Co 0.65756 0.70747 0.46748 0.0
O29 O 0.63876 0.67427 0.4478 0.0
O30 O 0.61227 0.68914 0.46742 0.0
C31 C 0.69011 0.69232 0.48131 0.0
O32 O 0.66778 0.73914 0.49004 0.0
Co33 Co 0.7291 0.75671 0.46729 0.0
O34 O 0.72022 0.76989 0.4933 0.0
C35 C 0.68699 0.76289 0.43834 0.0
C36 C 0.61169 0.67017 0.45365 0.0
C37 C 0.69221 0.76073 0.49916 0.0
O38 O 0.66267 0.7401 0.44689 0.0
O39 O 0.7153 0.77109 0.4433 0.0
O40 O 0.66058 0.67858 0.48634 0.0
O41 O 0.69815 0.7123 0.46686 0.0
Co42 Co 0.9545 0.65817 0.63241 0.0
O43 O 0.96966 0.64111 0.61208 0.0
O44 O 0.92828 0.61278 0.6314 0.0
C45 C 1.00194 0.6913 0.64628 0.0
O46 O 0.93285 0.66653 0.65562 0.0
Co47 Co 0.97424 0.7291 0.63329 0.0
O48 O 0.95514 0.71879 0.66032 0.0
C49 C 0.92678 0.68707 0.60414 0.0
C50 C 0.94695 0.61353 0.61738 0.0
C51 C 0.93665 0.69047 0.66581 0.0
O52 O 0.92593 0.663 0.61257 0.0
O53 O 0.94645 0.71554 0.60907 0.0
O54 O 0.98724 0.66149 0.65071 0.0
O55 O 0.98923 0.69932 0.63228 0.0
Co56 Co 0.2975 0.9535 0.79986 0.0
O57 O 0.33077 0.96812 0.78028 0.0
O58 O 0.316 0.9266 0.79971 0.0
C59 C 0.31225 1.00106 0.81377 0.0
O60 O 0.26578 0.93213 0.82241 0.0
Co61 Co 0.24809 0.97564 0.79896 0.0
O62 O 0.23486 0.95382 0.82504 0.0
C63 C 0.24257 0.92741 0.77027 0.0
C64 C 0.33493 0.94513 0.78598 0.0
C65 C 0.24411 0.93519 0.83125 0.0
O66 O 0.26509 0.92585 0.77919 0.0
O67 O 0.23431 0.94761 0.77491 0.0
O68 O 0.32615 0.9854 0.81881 0.0
O69 O 0.29252 0.98915 0.79919 0.0
Co70 Co 0.34745 0.2969 0.96748 0.0
O71 O 0.3663 0.33184 0.94916 0.0
O72 O 0.3929 0.31525 0.96729 0.0
C73 C 0.31465 0.31079 0.98231 0.0
O74 O 0.33664 0.2632 0.98868 0.0
Co75 Co 0.27613 0.24792 0.96552 0.0
O76 O 0.28404 0.23332 0.99137 0.0
C77 C 0.31914 0.24418 0.93633 0.0
C78 C 0.39336 0.33539 0.95446 0.0
C79 C 0.31178 0.2415 0.99736 0.0
O80 O 0.34298 0.26619 0.94569 0.0
O81 O 0.29056 0.23552 0.94086 0.0
O82 O 0.34395 0.32373 0.98776 0.0
O83 O 0.30697 0.29235 0.96703 0.0
Co84 Co 0.65941 0.95512 0.70223 0.0
O85 O 0.64118 0.96917 0.7225 0.0
O86 O 0.61415 0.92787 0.70295 0.0
C87 C 0.69135 0.00304 0.68845 0.0
O88 O 0.66905 0.93417 0.67911 0.0
Co89 Co 0.73098 0.9777 0.70109 0.0
O90 O 0.72135 0.95857 0.6741 0.0
C91 C 0.69003 0.9286 0.73005 0.0
C92 C 0.61396 0.94609 0.71698 0.0
C93 C 0.69324 0.93888 0.66884 0.0
O94 O 0.66538 0.92741 0.72224 0.0
O95 O 0.71814 0.94866 0.72465 0.0
O96 O 0.66166 0.98723 0.6838 0.0
O97 O 0.6999 0.99094 0.70253 0.0
Co98 Co 0.70742 0.65658 0.86729 0.0
O99 O 0.67404 0.63904 0.88684 0.0
O100 O 0.68797 0.61114 0.86778 0.0
C101 C 0.69432 0.69038 0.85303 0.0
O102 O 0.739 0.66564 0.84495 0.0
Co103 Co 0.75875 0.72758 0.86827 0.0
O104 O 0.7721 0.71788 0.84253 0.0
C105 C 0.76149 0.68415 0.8974 0.0
C106 C 0.66933 0.61155 0.88143 0.0
C107 C 0.76169 0.6898 0.8363 0.0
O108 O 0.73947 0.66049 0.88792 0.0
O109 O 0.77019 0.71283 0.89316 0.0
O110 O 0.67931 0.66072 0.84825 0.0
O111 O 0.71401 0.6978 0.8676 0.0
Co112 Co 0.05196 0.70595 0.03488 0.0
O113 O 0.03627 0.67209 0.05406 0.0
O114 O 0.07902 0.68762 0.03567 0.0
C115 C 0.00497 0.69131 0.02014 0.0
O116 O 0.0744 0.73827 0.0128 0.0
Co117 Co 0.02968 0.75521 0.035 0.0
O118 O 0.04886 0.76516 0.008 0.0
C119 C 0.07702 0.76082 0.06452 0.0
C120 C 0.05962 0.66818 0.04888 0.0
C121 C 0.06917 0.75756 0.0027 0.0
O122 O 0.07851 0.73797 0.05602 0.0
O123 O 0.05736 0.76949 0.05927 0.0
O124 O 0.02099 0.67771 0.01529 0.0
O125 O 0.01627 0.7108 0.03489 0.0
Co126 Co 0.34525 0.04969 0.20155 0.0
O127 O 0.36417 0.03736 0.2224 0.0
O128 O 0.39054 0.0764 0.20112 0.0
C129 C 0.3122 1.00079 0.18947 0.0
O130 O 0.3349 0.06869 0.17765 0.0
Co131 Co 0.27389 0.02818 0.20147 0.0
O132 O 0.2824 0.04556 0.17402 0.0
C133 C 0.31666 0.07878 0.22891 0.0
C134 C 0.3912 0.05959 0.2159 0.0
C135 C 0.31031 0.06395 0.16782 0.0
O136 O 0.34072 0.07954 0.22051 0.0
O137 O 0.28821 0.05828 0.22451 0.0
O138 O 0.34174 0.01569 0.18441 0.0
O139 O 0.30449 0.01433 0.2031 0.0
Co140 Co 0.29909 0.34726 0.36758 0.0
O141 O 0.3298 0.36511 0.38887 0.0
O142 O 0.31699 0.39241 0.36842 0.0
C143 C 0.31625 0.31593 0.35427 0.0
O144 O 0.2702 0.33843 0.34361 0.0
Co145 Co 0.25049 0.27568 0.36439 0.0
O146 O 0.24347 0.2865 0.33712 0.0
C147 C 0.23891 0.31541 0.39262 0.0
C148 C 0.33437 0.39238 0.38302 0.0
C149 C 0.25186 0.31485 0.33251 0.0
O150 O 0.26385 0.34044 0.38652 0.0
O151 O 0.23095 0.28766 0.38645 0.0
O152 O 0.33041 0.34581 0.35013 0.0
O153 O 0.2945 0.30671 0.36769 0.0
Co154 Co 0.95222 0.29718 0.53343 0.0
O155 O 0.96727 0.33154 0.55212 0.0
O156 O 0.92469 0.31501 0.53341 0.0
C157 C 0.9993 0.31195 0.51894 0.0
O158 O 0.93052 0.26404 0.51175 0.0
Co159 Co 0.97556 0.24891 0.53554 0.0
O160 O 0.95395 0.23471 0.50939 0.0
C161 C 0.92775 0.24398 0.56423 0.0
C162 C 0.94381 0.33498 0.54653 0.0
C163 C 0.93444 0.24277 0.50309 0.0
O164 O 0.92559 0.26574 0.55478 0.0
O165 O 0.94824 0.23595 0.55998 0.0
O166 O 0.98284 0.32485 0.51362 0.0
O167 O 0.98847 0.2932 0.53409 0.0
H168 H 0.1127 0.66295 0.05121 0.0
H169 H 0.1167 0.61808 0.06371 0.0
H170 H 0.01668 0.56773 0.07553 0.0
H171 H 0.01316 0.61321 0.06433 0.0
H172 H 0.04152 0.55545 0.1036 0.0
H173 H 0.05512 0.55433 0.03284 0.0
H174 H 0.07907 0.57556 3e-05 0.0
H175 H 0.168 0.5898 0.0211 0.0
H176 H 0.14465 0.56898 0.05412 0.0
H177 H 0.01489 0.3978 0.09866 0.0
H178 H 0.01924 0.44729 0.0872 0.0
H179 H 0.11541 0.49833 0.10766 0.0
H180 H 0.11099 0.44891 0.11974 0.0
H181 H 0.09632 0.51124 0.06443 0.0
H182 H 0.077 0.50832 0.13599 0.0
H183 H 0.0477 0.48208 0.16659 0.0
H184 H 0.96236 0.4699 0.14041 0.0
H185 H 0.9911 0.49564 0.10953 0.0
C186 C 0.09166 0.64233 0.0566 0.0
C187 C 0.06263 0.64158 0.0568 0.0
C188 C 0.09388 0.61652 0.06359 0.0
C189 C 0.06688 0.589 0.07025 0.0
C190 C 0.03794 0.58852 0.07056 0.0
C191 C 0.03591 0.61458 0.0641 0.0
C192 C 0.06845 0.56069 0.07696 0.0
C193 C 0.05335 0.54582 0.09485 0.0
C194 C 0.08414 0.54794 0.06584 0.0
C195 C 0.09823 0.56044 0.04601 0.0
C196 C 0.07984 0.5622 0.03051 0.0
C197 C 0.09329 0.57412 0.01187 0.0
C198 C 0.12506 0.58411 0.0085 0.0
C199 C 0.14341 0.58211 0.02374 0.0
C200 C 0.13008 0.57023 0.04242 0.0
C201 C 0.03708 0.4195 0.10056 0.0
C202 C 0.0626 0.41947 0.11013 0.0
C203 C 0.03949 0.44773 0.09403 0.0
C204 C 0.06761 0.47639 0.09662 0.0
C205 C 0.09353 0.4764 0.10552 0.0
C206 C 0.09093 0.4482 0.11244 0.0
C207 C 0.06926 0.50637 0.09076 0.0
C208 C 0.08483 0.52133 0.0731 0.0
C209 C 0.05334 0.51876 0.10176 0.0
C210 C 0.03614 0.5036 0.12039 0.0
C211 C 0.05194 0.49977 0.13669 0.0
C212 C 0.03544 0.48505 0.1541 0.0
C213 C 0.00317 0.47425 0.15543 0.0
C214 C 0.98735 0.47824 0.13936 0.0
C215 C 0.00373 0.49292 0.12191 0.0
H216 H 0.99044 0.46286 0.16892 0.0
H217 H 0.13543 0.59334 0.99406 0.0
H218 H 0.62983 0.02675 0.25472 0.0
H219 H 0.58501 0.03056 0.24234 0.0
H220 H 0.60441 0.10353 0.28537 0.0
H221 H 0.64982 0.10029 0.29755 0.0
H222 H 0.53298 0.018 0.25976 0.0
H223 H 0.57861 0.15214 0.26767 0.0
H224 H 0.62876 0.20248 0.26522 0.0
H225 H 0.66627 0.15927 0.22664 0.0
H226 H 0.61623 0.10883 0.22864 0.0
H227 H 0.40077 0.03767 0.25117 0.0
H228 H 0.44969 0.04165 0.26331 0.0
H229 H 0.49816 0.09414 0.21065 0.0
H230 H 0.44964 0.09149 0.19896 0.0
H231 H 0.53642 0.11721 0.23994 0.0
H232 H 0.46953 0.01202 0.21623 0.0
H233 H 0.42086 0.96035 0.21399 0.0
H234 H 0.4288 0.94334 0.27593 0.0
H235 H 0.47731 0.99511 0.27861 0.0
C236 C 0.6248 0.04387 0.26142 0.0
C237 C 0.64343 0.06323 0.27712 0.0
C238 C 0.59904 0.04593 0.25437 0.0
C239 C 0.59125 0.06737 0.26285 0.0
C240 C 0.61012 0.08709 0.27836 0.0
C241 C 0.63606 0.08517 0.28536 0.0
C242 C 0.5627 0.06811 0.25592 0.0
C243 C 0.53379 0.03974 0.25546 0.0
C244 C 0.56368 0.0963 0.24992 0.0
C245 C 0.59378 0.12662 0.24851 0.0
C246 C 0.59753 0.15341 0.25862 0.0
C247 C 0.62594 0.18196 0.25731 0.0
C248 C 0.65072 0.18404 0.24584 0.0
C249 C 0.64711 0.1576 0.23559 0.0
C250 C 0.61874 0.12902 0.23684 0.0
C251 C 0.42195 0.05034 0.24229 0.0
C252 C 0.4213 0.06408 0.22404 0.0
C253 C 0.4499 0.05245 0.24918 0.0
C254 C 0.47761 0.06757 0.23771 0.0
C255 C 0.47719 0.08226 0.2198 0.0
C256 C 0.44938 0.08068 0.21309 0.0
C257 C 0.50663 0.06711 0.24395 0.0
C258 C 0.53561 0.09551 0.24432 0.0
C259 C 0.50595 0.03875 0.24924 0.0
C260 C 0.47687 0.00755 0.24766 0.0
C261 C 0.46078 0.99734 0.2294 0.0
C262 C 0.43324 0.96803 0.22805 0.0
C263 C 0.4217 0.94861 0.24482 0.0
C264 C 0.43774 0.95842 0.26296 0.0
C265 C 0.46527 0.98773 0.2644 0.0
H266 H 0.40038 0.92592 0.24374 0.0
H267 H 0.67269 0.20615 0.24486 0.0
H268 H 0.60303 0.63308 0.42109 0.0
H269 H 0.55378 0.5874 0.40968 0.0
H270 H 0.50359 0.60109 0.4578 0.0
H271 H 0.55252 0.64727 0.46903 0.0
H272 H 0.50764 0.53175 0.44234 0.0
H273 H 0.47146 0.61157 0.43296 0.0
H274 H 0.48235 0.6627 0.41904 0.0
H275 H 0.49953 0.63575 0.36152 0.0
H276 H 0.4892 0.58467 0.37524 0.0
H277 H 0.35466 0.40532 0.42165 0.0
H278 H 0.39899 0.45406 0.4347 0.0
H279 H 0.41828 0.49375 0.37539 0.0
H280 H 0.37231 0.44625 0.36285 0.0
H281 H 0.43065 0.53798 0.39732 0.0
H282 H 0.461 0.45893 0.40156 0.0
H283 H 0.45663 0.4084 0.41148 0.0
H284 H 0.45856 0.43252 0.47321 0.0
H285 H 0.4626 0.48305 0.46365 0.0
C286 C 0.58144 0.62661 0.42911 0.0
C287 C 0.58165 0.64388 0.44592 0.0
C288 C 0.55337 0.6005 0.42258 0.0
C289 C 0.52509 0.59107 0.43283 0.0
C290 C 0.52514 0.60828 0.44955 0.0
C291 C 0.55311 0.63465 0.45593 0.0
C292 C 0.49577 0.56248 0.42647 0.0
C293 C 0.49045 0.53294 0.43274 0.0
C294 C 0.47416 0.56414 0.41336 0.0
C295 C 0.47994 0.59459 0.40516 0.0
C296 C 0.47786 0.61672 0.4174 0.0
C297 C 0.48386 0.64564 0.40954 0.0
C298 C 0.49173 0.65252 0.38942 0.0
C299 C 0.49351 0.63044 0.37711 0.0
C300 C 0.48758 0.60152 0.38492 0.0
C301 C 0.36825 0.42468 0.41152 0.0
C302 C 0.36014 0.4221 0.39128 0.0
C303 C 0.39386 0.45245 0.41892 0.0
C304 C 0.41285 0.47759 0.40601 0.0
C305 C 0.40425 0.47498 0.38578 0.0
C306 C 0.37796 0.44774 0.37857 0.0
C307 C 0.44173 0.50646 0.41336 0.0
C308 C 0.44733 0.53629 0.40714 0.0
C309 C 0.4641 0.50492 0.42611 0.0
C310 C 0.46177 0.47461 0.43188 0.0
C311 C 0.46031 0.45336 0.41724 0.0
C312 C 0.45791 0.42474 0.4228 0.0
C313 C 0.45723 0.41722 0.44296 0.0
C314 C 0.45904 0.43836 0.4576 0.0
C315 C 0.46141 0.467 0.45212 0.0
H316 H 0.45536 0.39505 0.44723 0.0
H317 H 0.49636 0.67491 0.38336 0.0
H318 H 0.99361 0.60437 0.60316 0.0
H319 H 0.98921 0.55569 0.59048 0.0
H320 H 0.88824 0.50836 0.5982 0.0
H321 H 0.89308 0.55671 0.61242 0.0
H322 H 0.90452 0.4699 0.60829 0.0
H323 H 0.92918 0.53322 0.55007 0.0
H324 H 0.95795 0.58026 0.52882 0.0
H325 H 0.04172 0.57347 0.53374 0.0
H326 H 0.01358 0.52664 0.55523 0.0
H327 H 0.89192 0.34248 0.54467 0.0
H328 H 0.8881 0.38828 0.55592 0.0
H329 H 0.9848 0.43387 0.57542 0.0
H330 H 0.98858 0.38816 0.56478 0.0
H331 H 0.96517 0.47061 0.54889 0.0
H332 H 0.93652 0.40679 0.60945 0.0
H333 H 0.90372 0.35775 0.62823 0.0
H334 H 0.82113 0.36363 0.61483 0.0
H335 H 0.85342 0.41248 0.59569 0.0
C336 C 0.97046 0.58361 0.60203 0.0
C337 C 0.94365 0.58434 0.60861 0.0
C338 C 0.96788 0.55575 0.59461 0.0
C339 C 0.93826 0.52828 0.59278 0.0
C340 C 0.91139 0.52911 0.59934 0.0
C341 C 0.91411 0.55677 0.60738 0.0
C342 C 0.9356 0.49859 0.58467 0.0
C343 C 0.91737 0.47014 0.59507 0.0
C344 C 0.9523 0.49844 0.5674 0.0
C345 C 0.96931 0.52653 0.55438 0.0
C346 C 0.95379 0.54187 0.54671 0.0
C347 C 0.96998 0.56848 0.53461 0.0
C348 C 1.00166 0.57988 0.52996 0.0
C349 C 0.01719 0.56463 0.53736 0.0
C350 C 1.00112 0.53802 0.54948 0.0
C351 C 0.91225 0.3622 0.55149 0.0
C352 C 0.94051 0.3617 0.55389 0.0
C353 C 0.91004 0.38828 0.55789 0.0
C354 C 0.93621 0.41442 0.56644 0.0
C355 C 0.96438 0.41393 0.56882 0.0
C356 C 0.96642 0.38772 0.56281 0.0
C357 C 0.93469 0.44265 0.57272 0.0
C358 C 0.9521 0.47065 0.56194 0.0
C359 C 0.91661 0.44219 0.58925 0.0
C360 C 0.89733 0.41307 0.60095 0.0
C361 C 0.91133 0.39746 0.61035 0.0
C362 C 0.89285 0.36974 0.62109 0.0
C363 C 0.86035 0.35753 0.62268 0.0
C364 C 0.8463 0.37309 0.61357 0.0
C365 C 0.86468 0.40079 0.60278 0.0
H366 H 0.84609 0.33608 0.63101 0.0
H367 H 0.01416 0.6005 0.5206 0.0
H368 H 0.55348 0.90067 0.70788 0.0
H369 H 0.50449 0.89669 0.72 0.0
H370 H 0.55799 0.97884 0.75678 0.0
H371 H 0.60695 0.9826 0.74501 0.0
H372 H 0.50795 0.93671 0.77658 0.0
H373 H 0.52766 0.98368 0.71155 0.0
H374 H 0.53805 0.98716 0.67539 0.0
H375 H 0.45026 0.90166 0.66601 0.0
H376 H 0.43954 0.89745 0.70216 0.0
H377 H 0.37928 0.98235 0.75863 0.0
H378 H 0.42482 0.97895 0.74724 0.0
H379 H 0.39554 0.89615 0.78349 0.0
H380 H 0.35014 0.8998 0.79527 0.0
H381 H 0.43294 0.93746 0.72722 0.0
H382 H 0.46095 0.89596 0.80115 0.0
H383 H 0.45389 0.89909 0.83735 0.0
H384 H 0.45181 0.98493 0.82901 0.0
H385 H 0.45925 0.98253 0.79282 0.0
C386 C 0.55481 0.91771 0.71869 0.0
C387 C 0.58415 0.94205 0.7254 0.0
C388 C 0.52676 0.9155 0.72554 0.0
C389 C 0.52749 0.93773 0.73911 0.0
C390 C 0.55675 0.96141 0.74631 0.0
C391 C 0.58477 0.96358 0.73952 0.0
C392 C 0.49796 0.93705 0.74535 0.0
C393 C 0.49147 0.93667 0.76577 0.0
C394 C 0.47662 0.93757 0.7313 0.0
C395 C 0.48297 0.94007 0.70957 0.0
C396 C 0.51069 0.96549 0.70179 0.0
C397 C 0.51662 0.96762 0.6813 0.0
C398 C 0.49487 0.9446 0.66842 0.0
C399 C 0.46711 0.91944 0.676 0.0
C400 C 0.46108 0.91718 0.69649 0.0
C401 C 0.38239 0.96329 0.76411 0.0
C402 C 0.36115 0.94145 0.77796 0.0
C403 C 0.40844 0.96132 0.75753 0.0
C404 C 0.41391 0.93753 0.76466 0.0
C405 C 0.39216 0.91505 0.77801 0.0
C406 C 0.36611 0.91707 0.78466 0.0
C407 C 0.44281 0.9369 0.75846 0.0
C408 C 0.44921 0.93708 0.73803 0.0
C409 C 0.46445 0.93698 0.7725 0.0
C410 C 0.46028 0.93883 0.79426 0.0
C411 C 0.45906 0.91554 0.80706 0.0
C412 C 0.45499 0.91719 0.82757 0.0
C413 C 0.45229 0.94213 0.83546 0.0
C414 C 0.45377 0.96555 0.82287 0.0
C415 C 0.45788 0.96404 0.80235 0.0
H416 H 0.44911 0.94335 0.85134 0.0
H417 H 0.4995 0.94629 0.65256 0.0
H418 H 0.40234 0.39109 0.94022 0.0
H419 H 0.45097 0.43588 0.92812 0.0
H420 H 0.5002 0.38468 0.93844 0.0
H421 H 0.45158 0.34028 0.95183 0.0
H422 H 0.53735 0.44133 0.94813 0.0
H423 H 0.47669 0.39655 0.88978 0.0
H424 H 0.43027 0.37463 0.8677 0.0
H425 H 0.43204 0.46314 0.86836 0.0
H426 H 0.47822 0.48549 0.89067 0.0
H427 H 0.66211 0.55236 0.88106 0.0
H428 H 0.61721 0.50345 0.89382 0.0
H429 H 0.5719 0.55525 0.91252 0.0
H430 H 0.61694 0.60425 0.90039 0.0
H431 H 0.53556 0.4956 0.88611 0.0
H432 H 0.59743 0.53719 0.94716 0.0
H433 H 0.64664 0.55683 0.96636 0.0
H434 H 0.6453 0.46957 0.95641 0.0
H435 H 0.59629 0.44961 0.93688 0.0
C436 C 0.4235 0.3893 0.93985 0.0
C437 C 0.42309 0.36206 0.94679 0.0
C438 C 0.45134 0.41492 0.93279 0.0
C439 C 0.47929 0.41355 0.93177 0.0
C440 C 0.47901 0.38639 0.93892 0.0
C441 C 0.45121 0.36096 0.94651 0.0
C442 C 0.50867 0.4407 0.92351 0.0
C443 C 0.53692 0.45277 0.9344 0.0
C444 C 0.50853 0.45591 0.90552 0.0
C445 C 0.48079 0.44262 0.89203 0.0
C446 C 0.46706 0.41129 0.88532 0.0
C447 C 0.4408 0.39879 0.87275 0.0
C448 C 0.42818 0.41746 0.86667 0.0
C449 C 0.44183 0.4487 0.8731 0.0
C450 C 0.46808 0.46131 0.88569 0.0
C451 C 0.64267 0.55333 0.88803 0.0
C452 C 0.64304 0.58213 0.88976 0.0
C453 C 0.61711 0.52542 0.89531 0.0
C454 C 0.59131 0.52583 0.90407 0.0
C455 C 0.59163 0.55452 0.9058 0.0
C456 C 0.61742 0.58247 0.89893 0.0
C457 C 0.5635 0.49628 0.91099 0.0
C458 C 0.53573 0.48381 0.89976 0.0
C459 C 0.56434 0.48028 0.92829 0.0
C460 C 0.59342 0.49206 0.94037 0.0
C461 C 0.60778 0.5223 0.94892 0.0
C462 C 0.6356 0.53347 0.95989 0.0
C463 C 0.64916 0.51451 0.96255 0.0
C464 C 0.63481 0.48426 0.95431 0.0
C465 C 0.607 0.473 0.94331 0.0
H466 H 0.67074 0.52322 0.97101 0.0
H467 H 0.40784 0.40774 0.85694 0.0
H468 H 0.11666 0.36549 0.08345 0.0
H469 H 0.15663 0.36992 0.05946 0.0
H470 H 0.13466 0.27525 0.07386 0.0
H471 H 0.09443 0.27029 0.097 0.0
H472 H 0.20896 0.36853 0.06193 0.0
H473 H 0.14186 0.23715 0.03591 0.0
H474 H 0.08709 0.19517 0.0298 0.0
H475 H 0.05935 0.2647 0.02093 0.0
H476 H 0.11401 0.30711 0.0267 0.0
H477 H 0.31696 0.32785 0.02131 0.0
H478 H 0.27696 0.33305 0.04001 0.0
H479 H 0.22021 0.311 0.98677 0.0
H480 H 0.25927 0.30377 0.96846 0.0
H481 H 0.18354 0.28203 0.01392 0.0
H482 H 0.26381 0.38915 0.00925 0.0
H483 H 0.3172 0.43538 0.01181 0.0
H484 H 0.31643 0.42222 0.07514 0.0
H485 H 0.26319 0.37566 0.07293 0.0
C486 C 0.12024 0.34558 0.08135 0.0
C487 C 0.10193 0.31738 0.09196 0.0
C488 C 0.14316 0.34816 0.06769 0.0
C489 C 0.14829 0.32268 0.06449 0.0
C490 C 0.1306 0.29494 0.07552 0.0
C491 C 0.10755 0.29219 0.08887 0.0
C492 C 0.17225 0.3247 0.04992 0.0
C493 C 0.20339 0.34974 0.05133 0.0
C494 C 0.16493 0.30073 0.03561 0.0
C495 C 0.13203 0.27531 0.03188 0.0
C496 C 0.12411 0.24349 0.03254 0.0
C497 C 0.09307 0.21962 0.02917 0.0
C498 C 0.06975 0.22726 0.02503 0.0
C499 C 0.07742 0.25881 0.0242 0.0
C500 C 0.10842 0.28277 0.02755 0.0
C501 C 0.29598 0.32427 0.01361 0.0
C502 C 0.29121 0.31543 0.99344 0.0
C503 C 0.27319 0.32752 0.02427 0.0
C504 C 0.2456 0.32304 0.01481 0.0
C505 C 0.24113 0.31458 0.99453 0.0
C506 C 0.26352 0.31051 0.98402 0.0
C507 C 0.22066 0.32545 0.02624 0.0
C508 C 0.18923 0.30112 0.0243 0.0
C509 C 0.22758 0.35072 0.03947 0.0
C510 C 0.25958 0.37877 0.04089 0.0
C511 C 0.27511 0.396 0.02371 0.0
C512 C 0.30533 0.42228 0.0251 0.0
C513 C 0.32022 0.43169 0.04362 0.0
C514 C 0.30488 0.41489 0.0608 0.0
C515 C 0.27465 0.38858 0.05949 0.0
H516 H 0.34363 0.45204 0.04466 0.0
H517 H 0.04573 0.20874 0.02244 0.0
H518 H 0.77005 0.13456 0.26647 0.0
H519 H 0.80852 0.17651 0.24495 0.0
H520 H 0.83698 0.11262 0.22127 0.0
H521 H 0.7995 0.07109 0.24322 0.0
H522 H 0.88672 0.16474 0.23003 0.0
H523 H 0.79168 0.1389 0.19427 0.0
H524 H 0.73788 0.13022 0.19028 0.0
H525 H 0.77006 0.226 0.20747 0.0
H526 H 0.82401 0.23515 0.2118 0.0
H527 H 0.9725 0.24869 0.14528 0.0
H528 H 0.92904 0.21042 0.16585 0.0
H529 H 0.92543 0.28597 0.19641 0.0
H530 H 0.96947 0.32467 0.17599 0.0
H531 H 0.86389 0.2315 0.18528 0.0
H532 H 0.95993 0.25698 0.21944 0.0
H533 H 0.01378 0.26518 0.22127 0.0
H534 H 0.97889 0.16834 0.20554 0.0
H535 H 0.92488 0.15973 0.20319 0.0
C536 C 0.78417 0.12932 0.25645 0.0
C537 C 0.78171 0.09945 0.25661 0.0
C538 C 0.80618 0.15336 0.24411 0.0
C539 C 0.82569 0.14782 0.23134 0.0
C540 C 0.82244 0.11766 0.23104 0.0
C541 C 0.80084 0.09383 0.24356 0.0
C542 C 0.85052 0.17359 0.21895 0.0
C543 C 0.8815 0.179 0.2201 0.0
C544 C 0.84416 0.19297 0.20632 0.0
C545 C 0.81181 0.18761 0.20356 0.0
C546 C 0.78724 0.15805 0.19733 0.0
C547 C 0.75672 0.15306 0.19499 0.0
C548 C 0.75053 0.17752 0.19869 0.0
C549 C 0.77488 0.20706 0.20465 0.0
C550 C 0.80543 0.21218 0.20703 0.0
C551 C 0.96242 0.25725 0.15628 0.0
C552 C 0.97462 0.28975 0.15911 0.0
C553 C 0.93753 0.23532 0.16801 0.0
C554 C 0.92412 0.24538 0.1827 0.0
C555 C 0.93544 0.27775 0.18512 0.0
C556 C 0.96067 0.2998 0.17352 0.0
C557 C 0.89957 0.22196 0.1962 0.0
C558 C 0.86887 0.21716 0.1953 0.0
C559 C 0.90605 0.20293 0.20896 0.0
C560 C 0.93837 0.20778 0.21096 0.0
C561 C 0.96376 0.23748 0.21624 0.0
C562 C 0.99431 0.24221 0.21737 0.0
C563 C 0.99976 0.21732 0.21348 0.0
C564 C 0.97463 0.18761 0.20853 0.0
C565 C 0.94404 0.18279 0.2073 0.0
H566 H 0.02344 0.22105 0.21433 0.0
H567 H 0.72688 0.17359 0.19689 0.0
H568 H 0.73285 0.81313 0.41785 0.0
H569 H 0.72689 0.8492 0.39582 0.0
H570 H 0.62594 0.79403 0.40171 0.0
H571 H 0.63155 0.75745 0.42411 0.0
H572 H 0.64921 0.81735 0.36135 0.0
H573 H 0.65955 0.8548 0.42898 0.0
H574 H 0.68506 0.86885 0.46199 0.0
H575 H 0.77087 0.9402 0.43522 0.0
H576 H 0.74606 0.92616 0.40199 0.0
H577 H 0.65649 0.97988 0.34888 0.0
H578 H 0.64996 0.93526 0.36896 0.0
H579 H 0.70329 0.91603 0.3257 0.0
H580 H 0.71011 0.9608 0.30559 0.0
H581 H 0.69666 0.92728 0.38611 0.0
H582 H 0.6723 0.83492 0.3248 0.0
H583 H 0.64758 0.81992 0.29158 0.0
H584 H 0.58813 0.8583 0.30604 0.0
H585 H 0.61217 0.87312 0.33944 0.0
C586 C 0.70925 0.80826 0.41439 0.0
C587 C 0.68266 0.78241 0.42302 0.0
C588 C 0.70595 0.82901 0.40174 0.0
C589 C 0.67603 0.82451 0.39732 0.0
C590 C 0.64926 0.79793 0.40499 0.0
C591 C 0.65254 0.7771 0.41782 0.0
C592 C 0.67326 0.84885 0.38575 0.0
C593 C 0.65941 0.84135 0.36677 0.0
C594 C 0.68637 0.8801 0.39292 0.0
C595 C 0.701 0.88926 0.41298 0.0
C596 C 0.68391 0.87338 0.43012 0.0
C597 C 0.69824 0.88134 0.44888 0.0
C598 C 0.72959 0.90535 0.4507 0.0
C599 C 0.7466 0.92158 0.43378 0.0
C600 C 0.73241 0.91365 0.41499 0.0
C601 C 0.66665 0.96603 0.34356 0.0
C602 C 0.68382 0.97386 0.32564 0.0
C603 C 0.66295 0.94058 0.35508 0.0
C604 C 0.67593 0.92217 0.34877 0.0
C605 C 0.69275 0.92968 0.33075 0.0
C606 C 0.69673 0.95534 0.31931 0.0
C607 C 0.67313 0.89602 0.36149 0.0
C608 C 0.68611 0.90324 0.38072 0.0
C609 C 0.6592 0.86457 0.35451 0.0
C610 C 0.64426 0.85537 0.33456 0.0
C611 C 0.65386 0.84003 0.32092 0.0
C612 C 0.63998 0.83158 0.30205 0.0
C613 C 0.61637 0.83823 0.29668 0.0
C614 C 0.60651 0.85326 0.31019 0.0
C615 C 0.62029 0.86174 0.32909 0.0
H616 H 0.60567 0.8317 0.28206 0.0
H617 H 0.74074 0.91138 0.4652 0.0
H618 H 0.75423 0.72561 0.47794 0.0
H619 H 0.79281 0.71907 0.49722 0.0
H620 H 0.71755 0.64103 0.52884 0.0
H621 H 0.67881 0.64827 0.51003 0.0
H622 H 0.75995 0.67667 0.55411 0.0
H623 H 0.764 0.63127 0.49221 0.0
H624 H 0.76874 0.62805 0.45581 0.0
H625 H 0.86197 0.70857 0.45754 0.0
H626 H 0.85764 0.71256 0.49394 0.0
H627 H 0.86721 0.63633 0.60008 0.0
H628 H 0.82544 0.6317 0.57772 0.0
H629 H 0.88998 0.72186 0.55175 0.0
H630 H 0.93157 0.72694 0.57423 0.0
H631 H 0.85081 0.67427 0.52337 0.0
H632 H 0.84337 0.72119 0.58516 0.0
H633 H 0.83704 0.72427 0.62142 0.0
H634 H 0.74827 0.63796 0.6194 0.0
H635 H 0.7543 0.63413 0.58314 0.0
C636 C 0.74586 0.70695 0.48893 0.0
C637 C 0.71344 0.68745 0.49245 0.0
C638 C 0.76799 0.70306 0.49986 0.0
C639 C 0.7582 0.67919 0.51431 0.0
C640 C 0.72577 0.65957 0.51776 0.0
C641 C 0.70362 0.66369 0.50698 0.0
C642 C 0.78182 0.67572 0.52644 0.0
C643 C 0.77941 0.67545 0.54731 0.0
C644 C 0.80763 0.67467 0.51769 0.0
C645 C 0.81038 0.67236 0.4958 0.0
C646 C 0.78542 0.64844 0.48482 0.0
C647 C 0.78805 0.64645 0.46418 0.0
C648 C 0.81561 0.66813 0.45436 0.0
C649 C 0.84063 0.69181 0.46517 0.0
C650 C 0.83811 0.69392 0.4858 0.0
C651 C 0.87263 0.65492 0.58939 0.0
C652 C 0.90267 0.68207 0.58898 0.0
C653 C 0.84871 0.65231 0.5767 0.0
C654 C 0.85459 0.67655 0.56317 0.0
C655 C 0.88495 0.70291 0.56208 0.0
C656 C 0.90866 0.7058 0.57497 0.0
C657 C 0.82884 0.67542 0.55087 0.0
C658 C 0.83098 0.67495 0.53003 0.0
C659 C 0.80259 0.67545 0.55961 0.0
C660 C 0.79948 0.67718 0.58149 0.0
C661 C 0.82272 0.70264 0.59249 0.0
C662 C 0.81913 0.70458 0.61302 0.0
C663 C 0.79228 0.68132 0.62269 0.0
C664 C 0.76906 0.65594 0.61188 0.0
C665 C 0.77255 0.65388 0.59135 0.0
H666 H 0.78932 0.68308 0.63852 0.0
H667 H 0.8176 0.66655 0.43839 0.0
H668 H 0.0211 0.75336 0.65214 0.0
H669 H 0.06585 0.79178 0.67157 0.0
H670 H 0.09196 0.72146 0.68437 0.0
H671 H 0.04542 0.68219 0.66615 0.0
H672 H 0.10146 0.75277 0.71554 0.0
H673 H 0.13235 0.7863 0.64835 0.0
H674 H 0.12696 0.80151 0.61415 0.0
H675 H 0.11954 0.87941 0.63704 0.0
H676 H 0.1245 0.86446 0.67138 0.0
H677 H 0.24516 0.87462 0.7587 0.0
H678 H 0.21 0.83352 0.73528 0.0
H679 H 0.16158 0.88508 0.72376 0.0
H680 H 0.19663 0.9262 0.74661 0.0
H681 H 0.16973 0.86121 0.68998 0.0
H682 H 0.13344 0.82235 0.7575 0.0
H683 H 0.1406 0.80703 0.7913 0.0
H684 H 0.16143 0.73873 0.7664 0.0
H685 H 0.15475 0.75392 0.73245 0.0
C686 C 0.03637 0.74607 0.65908 0.0
C687 C 0.02982 0.71479 0.65755 0.0
C688 C 0.06227 0.76821 0.67006 0.0
C689 C 0.08312 0.76001 0.67906 0.0
C690 C 0.07649 0.72862 0.67755 0.0
C691 C 0.04993 0.70617 0.66708 0.0
C692 C 0.11113 0.78394 0.69049 0.0
C693 C 0.1167 0.77626 0.7097 0.0
C694 C 0.13122 0.81484 0.68313 0.0
C695 C 0.12864 0.82414 0.66245 0.0
C696 C 0.12944 0.8066 0.64609 0.0
C697 C 0.12647 0.81518 0.62668 0.0
C698 C 0.12287 0.84138 0.62343 0.0
C699 C 0.12234 0.85912 0.63958 0.0
C700 C 0.12529 0.85064 0.65902 0.0
C701 C 0.22728 0.87739 0.75099 0.0
C702 C 0.22367 0.90371 0.75472 0.0
C703 C 0.20707 0.85377 0.73769 0.0
C704 C 0.1828 0.85596 0.72795 0.0
C705 C 0.18003 0.88277 0.73108 0.0
C706 C 0.20013 0.90629 0.74428 0.0
C707 C 0.15934 0.83013 0.71503 0.0
C708 C 0.1547 0.8375 0.69556 0.0
C709 C 0.14042 0.7989 0.72204 0.0
C710 C 0.1439 0.78947 0.74246 0.0
C711 C 0.1397 0.80418 0.75924 0.0
C712 C 0.14365 0.79551 0.77842 0.0
C713 C 0.15155 0.77199 0.781 0.0
C714 C 0.15537 0.75698 0.76439 0.0
C715 C 0.15148 0.76559 0.74518 0.0
H716 H 0.15464 0.76534 0.79585 0.0
H717 H 0.12052 0.84796 0.60839 0.0
H718 H 0.35512 0.03305 0.84321 0.0
H719 H 0.36141 0.07833 0.86239 0.0
H720 H 0.28508 0.07692 0.82945 0.0
H721 H 0.27939 0.03231 0.80983 0.0
H722 H 0.32947 0.13527 0.83431 0.0
H723 H 0.27566 0.04618 0.87745 0.0
H724 H 0.26704 0.99885 0.89574 0.0
H725 H 0.3528 0.05437 0.92842 0.0
H726 H 0.36218 0.10197 0.91009 0.0
H727 H 0.28038 0.21123 0.90538 0.0
H728 H 0.28526 0.17469 0.88281 0.0
H729 H 0.37367 0.1972 0.91017 0.0
H730 H 0.36926 0.23435 0.93264 0.0
H731 H 0.32738 0.1308 0.90822 0.0
H732 H 0.37722 0.22138 0.86552 0.0
H733 H 0.38166 0.26732 0.84755 0.0
H734 H 0.29768 0.20682 0.81452 0.0
H735 H 0.29247 0.16053 0.83252 0.0
C736 C 0.33975 0.04247 0.84001 0.0
C737 C 0.31664 0.02898 0.82507 0.0
C738 C 0.34327 0.0683 0.85105 0.0
C739 C 0.3234 0.08084 0.84762 0.0
C740 C 0.3007 0.06773 0.83243 0.0
C741 C 0.29739 0.04211 0.82125 0.0
C742 C 0.32586 0.10726 0.86002 0.0
C743 C 0.32873 0.13411 0.85047 0.0
C744 C 0.32541 0.10613 0.88115 0.0
C745 C 0.31981 0.07757 0.89223 0.0
C746 C 0.29281 0.04825 0.88842 0.0
C747 C 0.28777 0.02138 0.89881 0.0
C748 C 0.30941 0.02358 0.91319 0.0
C749 C 0.33609 0.05269 0.91725 0.0
C750 C 0.34128 0.07962 0.90687 0.0
C751 C 0.30116 0.20886 0.90637 0.0
C752 C 0.32444 0.22573 0.92081 0.0
C753 C 0.30392 0.18798 0.89345 0.0
C754 C 0.3298 0.1832 0.89484 0.0
C755 C 0.35352 0.20058 0.90886 0.0
C756 C 0.35107 0.22195 0.92158 0.0
C757 C 0.33087 0.15858 0.88248 0.0
C758 C 0.32849 0.13202 0.89206 0.0
C759 C 0.33117 0.15973 0.86141 0.0
C760 C 0.33431 0.18751 0.8505 0.0
C761 C 0.35955 0.21789 0.85455 0.0
C762 C 0.36223 0.24399 0.84433 0.0
C763 C 0.33993 0.24 0.82993 0.0
C764 C 0.31493 0.20988 0.82569 0.0
C765 C 0.31212 0.1837 0.83588 0.0
H766 H 0.34205 0.26024 0.82204 0.0
H767 H 0.30546 0.00276 0.92122 0.0
H768 H 0.7394 0.75107 0.84541 0.0
H769 H 0.73436 0.79016 0.8258 0.0
H770 H 0.63566 0.72364 0.81644 0.0
H771 H 0.64156 0.68351 0.83467 0.0
H772 H 0.65559 0.75287 0.78463 0.0
H773 H 0.66785 0.79129 0.85167 0.0
H774 H 0.69289 0.80761 0.88475 0.0
H775 H 0.7775 0.88037 0.85762 0.0
H776 H 0.75312 0.86427 0.82438 0.0
H777 H 0.63524 0.87706 0.74361 0.0
H778 H 0.63056 0.83595 0.76659 0.0
H779 H 0.7316 0.88462 0.77324 0.0
H780 H 0.73649 0.92576 0.75082 0.0
H781 H 0.70362 0.86325 0.80834 0.0
H782 H 0.69122 0.82047 0.74112 0.0
H783 H 0.66489 0.80432 0.70839 0.0
H784 H 0.57776 0.73988 0.73713 0.0
H785 H 0.60351 0.75592 0.77004 0.0
C786 C 0.71664 0.74479 0.83918 0.0
C787 C 0.69083 0.71432 0.84165 0.0
C788 C 0.71363 0.76732 0.8281 0.0
C789 C 0.68434 0.76044 0.82006 0.0
C790 C 0.65851 0.72981 0.82251 0.0
C791 C 0.66183 0.70688 0.83299 0.0
C792 C 0.68096 0.78488 0.80868 0.0
C793 C 0.6656 0.77682 0.79008 0.0
C794 C 0.69416 0.81642 0.8155 0.0
C795 C 0.70869 0.82644 0.83552 0.0
C796 C 0.69183 0.81069 0.85276 0.0
C797 C 0.70591 0.81991 0.87154 0.0
C798 C 0.73677 0.84498 0.87328 0.0
C799 C 0.75359 0.86097 0.85625 0.0
C800 C 0.73964 0.85184 0.83745 0.0
C801 C 0.65643 0.87918 0.75013 0.0
C802 C 0.68625 0.90474 0.74521 0.0
C803 C 0.65373 0.85554 0.76318 0.0
C804 C 0.68078 0.85694 0.77146 0.0
C805 C 0.71037 0.88294 0.76706 0.0
C806 C 0.7131 0.90647 0.75412 0.0
C807 C 0.67889 0.83124 0.78431 0.0
C808 C 0.69323 0.83911 0.80315 0.0
C809 C 0.66448 0.79954 0.77783 0.0
C810 C 0.6492 0.7896 0.75802 0.0
C811 C 0.66641 0.80297 0.74045 0.0
C812 C 0.6516 0.79382 0.72187 0.0
C813 C 0.61965 0.77115 0.72069 0.0
C814 C 0.60249 0.75747 0.73807 0.0
C815 C 0.61718 0.76656 0.75668 0.0
H816 H 0.6082 0.76413 0.7063 0.0
H817 H 0.74765 0.85205 0.88783 0.0
H818 H 0.77818 0.63863 0.89777 0.0
H819 H 0.8164 0.63574 0.91985 0.0
H820 H 0.8242 0.71412 0.95393 0.0
H821 H 0.78746 0.71813 0.93117 0.0
H822 H 0.87911 0.72518 0.9465 0.0
H823 H 0.78716 0.63275 0.97122 0.0
H824 H 0.7387 0.58095 0.96855 0.0
H825 H 0.79187 0.54104 0.94388 0.0
H826 H 0.84057 0.59269 0.94616 0.0
H827 H 0.97031 0.72015 0.02617 0.0
H828 H 0.92596 0.71476 0.00647 0.0
H829 H 0.93275 0.64783 0.96803 0.0
H830 H 0.9772 0.65298 0.98783 0.0
H831 H 0.87072 0.62939 0.97752 0.0
H832 H 0.96099 0.72205 0.95075 0.0
H833 H 0.00933 0.77403 0.95236 0.0
H834 H 0.95834 0.81277 0.98164 0.0
H835 H 0.90954 0.76103 0.97994 0.0
C836 C 0.78758 0.65478 0.91024 0.0
C837 C 0.77987 0.6786 0.91276 0.0
C838 C 0.80941 0.65308 0.92293 0.0
C839 C 0.82321 0.67458 0.93875 0.0
C840 C 0.81417 0.69736 0.94181 0.0
C841 C 0.79301 0.69955 0.92886 0.0
C842 C 0.84887 0.67523 0.95114 0.0
C843 C 0.87685 0.70422 0.95355 0.0
C844 C 0.8467 0.64783 0.95986 0.0
C845 C 0.81748 0.61667 0.95871 0.0
C846 C 0.78849 0.61297 0.96512 0.0
C847 C 0.76098 0.58363 0.96369 0.0
C848 C 0.7622 0.55775 0.95601 0.0
C849 C 0.79095 0.56112 0.94981 0.0
C850 C 0.81852 0.59041 0.95119 0.0
C851 C 0.96235 0.7042 0.01356 0.0
C852 C 0.9774 0.68711 0.0085 0.0
C853 C 0.93702 0.7012 0.00228 0.0
C854 C 0.9262 0.68113 0.98563 0.0
C855 C 0.94069 0.66346 0.9808 0.0
C856 C 0.96615 0.66652 0.99208 0.0
C857 C 0.90032 0.67934 0.97307 0.0
C858 C 0.87258 0.65023 0.97054 0.0
C859 C 0.9025 0.70659 0.96427 0.0
C860 C 0.93175 0.73767 0.96538 0.0
C861 C 0.96016 0.74163 0.95763 0.0
C862 C 0.98762 0.77105 0.95854 0.0
C863 C 0.987 0.79664 0.96726 0.0
C864 C 0.95881 0.79292 0.97493 0.0
C865 C 0.93122 0.76359 0.97391 0.0
H866 H 0.00832 0.81938 0.96799 0.0
H867 H 0.74087 0.53507 0.9549 0.0
H868 H 0.32209 0.95997 0.16703 0.0
H869 H 0.28306 0.91408 0.14832 0.0
H870 H 0.21008 0.93288 0.16781 0.0
H871 H 0.24864 0.97737 0.18751 0.0
H872 H 0.18668 0.87401 0.1679 0.0
H873 H 0.24795 0.95345 0.11908 0.0
H874 H 0.29652 0.99194 0.10175 0.0
H875 H 0.31547 0.91809 0.08588 0.0
H876 H 0.26718 0.87921 0.10333 0.0
H877 H 0.07496 0.803 0.09027 0.0
H878 H 0.11548 0.83826 0.11352 0.0
H879 H 0.17285 0.79761 0.09773 0.0
H880 H 0.13225 0.76207 0.07419 0.0
H881 H 0.20572 0.86286 0.09652 0.0
H882 H 0.13818 0.78272 0.14293 0.0
H883 H 0.08747 0.74643 0.15899 0.0
H884 H 0.07788 0.82495 0.17793 0.0
H885 H 0.12833 0.8617 0.16175 0.0
C886 C 0.29766 0.95415 0.16739 0.0
C887 C 0.28849 0.97242 0.17863 0.0
C888 C 0.27535 0.92801 0.15656 0.0
C889 C 0.24355 0.92024 0.15619 0.0
C890 C 0.23437 0.93823 0.16776 0.0
C891 C 0.25651 0.96384 0.17898 0.0
C892 C 0.21982 0.89375 0.14365 0.0
C893 C 0.19084 0.87184 0.15225 0.0
C894 C 0.22524 0.8902 0.12327 0.0
C895 C 0.25415 0.9135 0.11268 0.0
C896 C 0.26259 0.94547 0.11199 0.0
C897 C 0.29005 0.96734 0.10214 0.0
C898 C 0.30912 0.95748 0.09277 0.0
C899 C 0.3007 0.9257 0.09318 0.0
C900 C 0.27329 0.90374 0.10303 0.0
C901 C 0.09599 0.80119 0.09184 0.0
C902 C 0.10028 0.77964 0.08027 0.0
C903 C 0.11913 0.82136 0.10525 0.0
C904 C 0.14716 0.8205 0.10748 0.0
C905 C 0.15137 0.79864 0.09628 0.0
C906 C 0.12805 0.77822 0.08291 0.0
C907 C 0.17258 0.84369 0.12072 0.0
C908 C 0.20181 0.86494 0.11224 0.0
C909 C 0.16716 0.84703 0.14107 0.0
C910 C 0.13697 0.82496 0.15102 0.0
C911 C 0.12518 0.79225 0.15042 0.0
C912 C 0.09648 0.77159 0.15956 0.0
C913 C 0.07944 0.78337 0.16945 0.0
C914 C 0.0911 0.81585 0.17027 0.0
C915 C 0.11977 0.83661 0.16114 0.0
H916 H 0.05722 0.76735 0.1765 0.0
H917 H 0.33037 0.97445 0.08516 0.0
H918 H 0.37152 0.13374 0.23819 0.0
H919 H 0.3771 0.17654 0.25993 0.0
H920 H 0.27825 0.12274 0.27445 0.0
H921 H 0.27238 0.08035 0.25281 0.0
H922 H 0.29363 0.18073 0.26398 0.0
H923 H 0.33566 0.13321 0.30793 0.0
H924 H 0.37146 0.11391 0.31793 0.0
H925 H 0.45102 0.20689 0.31066 0.0
H926 H 0.41569 0.22667 0.30035 0.0
H927 H 0.2784 0.25202 0.35227 0.0
H928 H 0.28439 0.21518 0.33065 0.0
H929 H 0.37164 0.29129 0.30795 0.0
H930 H 0.36527 0.32873 0.3291 0.0
H931 H 0.36765 0.22746 0.32077 0.0
H932 H 0.32369 0.27479 0.27817 0.0
H933 H 0.28663 0.29253 0.2682 0.0
H934 H 0.20927 0.19787 0.27348 0.0
H935 H 0.24581 0.17966 0.28391 0.0
C936 C 0.35106 0.13088 0.2462 0.0
C937 C 0.32145 0.10361 0.24358 0.0
C938 C 0.3543 0.15538 0.25865 0.0
C939 C 0.32805 0.15293 0.26881 0.0
C940 C 0.29879 0.12534 0.26666 0.0
C941 C 0.29552 0.10101 0.25427 0.0
C942 C 0.33027 0.17942 0.28097 0.0
C943 C 0.3097 0.19074 0.27647 0.0
C944 C 0.3518 0.19316 0.29697 0.0
C945 C 0.37307 0.18133 0.30312 0.0
C946 C 0.36081 0.14948 0.30828 0.0
C947 C 0.38101 0.13846 0.31404 0.0
C948 C 0.4135 0.15914 0.31486 0.0
C949 C 0.42585 0.19089 0.30997 0.0
C950 C 0.40575 0.20202 0.30418 0.0
C951 C 0.29894 0.261 0.34275 0.0
C952 C 0.32125 0.29336 0.3423 0.0
C953 C 0.30232 0.23988 0.33043 0.0
C954 C 0.3284 0.25055 0.31771 0.0
C955 C 0.35137 0.28264 0.3177 0.0
C956 C 0.34763 0.30396 0.32973 0.0
C957 C 0.33063 0.22811 0.3039 0.0
C958 C 0.35191 0.2176 0.30811 0.0
C959 C 0.30963 0.21488 0.28768 0.0
C960 C 0.28747 0.22593 0.28204 0.0
C961 C 0.29873 0.25784 0.27751 0.0
C962 C 0.27783 0.26796 0.27169 0.0
C963 C 0.24564 0.24632 0.27017 0.0
C964 C 0.23423 0.21459 0.27464 0.0
C965 C 0.25502 0.20436 0.28052 0.0
H966 H 0.22954 0.25413 0.26546 0.0
H967 H 0.4291 0.15057 0.31934 0.0
H968 H 0.17668 0.27363 0.39774 0.0
H969 H 0.13963 0.27712 0.42009 0.0
H970 H 0.21382 0.36624 0.44232 0.0
H971 H 0.25112 0.36344 0.41908 0.0
H972 H 0.1338 0.27579 0.45717 0.0
H973 H 0.18253 0.41044 0.4596 0.0
H974 H 0.21208 0.45716 0.43815 0.0
H975 H 0.17841 0.39872 0.38598 0.0
H976 H 0.1484 0.35176 0.4071 0.0
H977 H 0.04516 0.29934 0.53077 0.0
H978 H 0.0897 0.30468 0.51119 0.0
H979 H 0.05925 0.338 0.46106 0.0
H980 H 0.01568 0.33422 0.48097 0.0
H981 H 0.11938 0.36885 0.46147 0.0
H982 H 0.04285 0.25925 0.46589 0.0
H983 H 0.00686 0.20918 0.48274 0.0
H984 H 0.08526 0.21125 0.51276 0.0
H985 H 0.12168 0.26162 0.49631 0.0
C986 C 0.18528 0.29404 0.40737 0.0
C987 C 0.21698 0.31823 0.40665 0.0
C988 C 0.16396 0.29597 0.42023 0.0
C989 C 0.17371 0.32194 0.43296 0.0
C990 C 0.20548 0.34614 0.43245 0.0
C991 C 0.22685 0.34448 0.41923 0.0
C992 C 0.15028 0.32309 0.44666 0.0
C993 C 0.13083 0.29625 0.45814 0.0
C994 C 0.14579 0.34947 0.44778 0.0
C995 C 0.16357 0.37757 0.43495 0.0
C996 C 0.18141 0.4076 0.44355 0.0
C997 C 0.19823 0.43411 0.43145 0.0
C998 C 0.19723 0.43089 0.41072 0.0
C999 C 0.17929 0.40117 0.40204 0.0
C1000 C 0.1624 0.37459 0.41407 0.0
C1001 C 0.04813 0.30801 0.51562 0.0
C1002 C 0.02684 0.31617 0.50735 0.0
C1003 C 0.07354 0.31095 0.50439 0.0
C1004 C 0.07763 0.3212 0.48446 0.0
C1005 C 0.05674 0.33007 0.47638 0.0
C1006 C 0.03172 0.32776 0.48774 0.0
C1007 C 0.10277 0.32143 0.47177 0.0
C1008 C 0.12259 0.34852 0.4606 0.0
C1009 C 0.10673 0.29476 0.47022 0.0
C1010 C 0.08494 0.26437 0.48003 0.0
C1011 C 0.05238 0.24913 0.47619 0.0
C1012 C 0.03191 0.22069 0.48566 0.0
C1013 C 0.04376 0.20708 0.49885 0.0
C1014 C 0.07612 0.22185 0.50256 0.0
C1015 C 0.09669 0.25034 0.49317 0.0
H1016 H 0.02788 0.18506 0.50617 0.0
H1017 H 0.21028 0.45144 0.40138 0.0
H1018 H 0.86692 0.23193 0.56704 0.0
H1019 H 0.82555 0.19408 0.58913 0.0
H1020 H 0.89331 0.17585 0.61834 0.0
H1021 H 0.9343 0.21253 0.59573 0.0
H1022 H 0.84479 0.12308 0.60992 0.0
H1023 H 0.85823 0.2183 0.64032 0.0
H1024 H 0.86068 0.26984 0.64074 0.0
H1025 H 0.76515 0.22636 0.61994 0.0
H1026 H 0.76226 0.17463 0.61913 0.0
H1027 H 0.75533 0.0351 0.69236 0.0
H1028 H 0.79386 0.07909 0.67222 0.0
H1029 H 0.71871 0.07833 0.63835 0.0
H1030 H 0.67982 0.034 0.65846 0.0
H1031 H 0.76813 0.14016 0.64838 0.0
H1032 H 0.7549 0.04594 0.6176 0.0
H1033 H 0.7517 0.99411 0.61698 0.0
H1034 H 0.84671 0.03612 0.63861 0.0
H1035 H 0.85037 0.08823 0.63951 0.0
C1036 C 0.8731 0.22029 0.57843 0.0
C1037 C 0.90389 0.2252 0.57961 0.0
C1038 C 0.8494 0.19864 0.59111 0.0
C1039 C 0.85619 0.18207 0.60557 0.0
C1040 C 0.8873 0.18809 0.60728 0.0
C1041 C 0.9108 0.20921 0.59439 0.0
C1042 C 0.83077 0.15693 0.61801 0.0
C1043 C 0.82843 0.12714 0.61855 0.0
C1044 C 0.80852 0.16159 0.62879 0.0
C1045 C 0.81013 0.19264 0.62949 0.0
C1046 C 0.83781 0.21977 0.63572 0.0
C1047 C 0.83927 0.24901 0.63604 0.0
C1048 C 0.81312 0.25138 0.63033 0.0
C1049 C 0.78541 0.2245 0.62434 0.0
C1050 C 0.78384 0.19521 0.62397 0.0
C1051 C 0.74692 0.04435 0.68071 0.0
C1052 C 0.7145 0.03089 0.67692 0.0
C1053 C 0.769 0.06951 0.6692 0.0
C1054 C 0.75918 0.08185 0.65369 0.0
C1055 C 0.7268 0.06919 0.65026 0.0
C1056 C 0.70464 0.04378 0.6617 0.0
C1057 C 0.7829 0.10692 0.64053 0.0
C1058 C 0.78472 0.13642 0.63977 0.0
C1059 C 0.80475 0.10212 0.62952 0.0
C1060 C 0.80281 0.07092 0.62878 0.0
C1061 C 0.77504 0.04409 0.62235 0.0
C1062 C 0.77315 0.01466 0.62193 0.0
C1063 C 0.79894 0.01179 0.62783 0.0
C1064 C 0.82673 0.03838 0.63407 0.0
C1065 C 0.82875 0.06788 0.6345 0.0
H1066 H 0.79742 0.98898 0.62752 0.0
H1067 H 0.81429 0.27404 0.63057 0.0
H1068 H 0.24685 0.3667 0.3233 0.0
H1069 H 0.21912 0.37311 0.29486 0.0
H1070 H 0.19779 0.28206 0.27247 0.0
H1071 H 0.22489 0.27518 0.30096 0.0
H1072 H 0.21848 0.3303 0.24267 0.0
H1073 H 0.14362 0.2847 0.29655 0.0
H1074 H 0.12442 0.28256 0.33081 0.0
H1075 H 0.12799 0.37109 0.32188 0.0
H1076 H 0.14771 0.37397 0.28762 0.0
H1077 H 0.08019 0.26899 0.1847 0.0
H1078 H 0.11562 0.27781 0.21258 0.0
H1079 H 0.13542 0.37371 0.2176 0.0
H1080 H 0.10042 0.36542 0.18917 0.0
H1081 H 0.11955 0.33184 0.25587 0.0
H1082 H 0.18978 0.37452 0.20032 0.0
H1083 H 0.20801 0.37512 0.166 0.0
H1084 H 0.21278 0.29152 0.17803 0.0
H1085 H 0.19402 0.2901 0.21237 0.0
C1086 C 0.23662 0.34822 0.31218 0.0
C1087 C 0.23803 0.32038 0.31439 0.0
C1088 C 0.22072 0.3519 0.296 0.0
C1089 C 0.20637 0.32801 0.28164 0.0
C1090 C 0.20883 0.3008 0.28338 0.0
C1091 C 0.22424 0.29688 0.29968 0.0
C1092 C 0.18738 0.33044 0.26529 0.0
C1093 C 0.19687 0.33064 0.24554 0.0
C1094 C 0.15951 0.3315 0.2691 0.0
C1095 C 0.14756 0.32978 0.28964 0.0
C1096 C 0.14062 0.30387 0.30196 0.0
C1097 C 0.12958 0.30249 0.32136 0.0
C1098 C 0.12511 0.32674 0.32854 0.0
C1099 C 0.13156 0.35237 0.31631 0.0
C1100 C 0.14266 0.35389 0.2969 0.0
C1101 C 0.09189 0.29197 0.19174 0.0
C1102 C 0.08759 0.31658 0.18462 0.0
C1103 C 0.11218 0.29694 0.20765 0.0
C1104 C 0.12818 0.32642 0.21701 0.0
C1105 C 0.12326 0.35082 0.21047 0.0
C1106 C 0.10337 0.34605 0.19423 0.0
C1107 C 0.15057 0.33144 0.23329 0.0
C1108 C 0.14157 0.33231 0.25301 0.0
C1109 C 0.1789 0.33136 0.22948 0.0
C1110 C 0.19014 0.33201 0.20885 0.0
C1111 C 0.19435 0.35604 0.19558 0.0
C1112 C 0.20487 0.35658 0.17614 0.0
C1113 C 0.21146 0.33331 0.16982 0.0
C1114 C 0.20761 0.30949 0.18295 0.0
C1115 C 0.19705 0.30883 0.20241 0.0
H1116 H 0.21963 0.33379 0.15476 0.0
H1117 H 0.11655 0.32562 0.34357 0.0
H1118 H 0.89631 0.2578 0.48123 0.0
H1119 H 0.86486 0.23046 0.45184 0.0
H1120 H 0.89688 0.16304 0.45564 0.0
H1121 H 0.92893 0.19058 0.48453 0.0
H1122 H 0.89922 0.18064 0.41867 0.0
H1123 H 0.82157 0.14678 0.47141 0.0
H1124 H 0.79269 0.15479 0.49878 0.0
H1125 H 0.76174 0.20215 0.45868 0.0
H1126 H 0.79079 0.19476 0.43111 0.0
H1127 H 0.7917 0.055 0.35992 0.0
H1128 H 0.82008 0.08772 0.38841 0.0
H1129 H 0.7844 0.15027 0.37515 0.0
H1130 H 0.7553 0.11724 0.34662 0.0
H1131 H 0.78412 0.14012 0.41509 0.0
H1132 H 0.85873 0.17049 0.36186 0.0
H1133 H 0.8872 0.16193 0.33448 0.0
H1134 H 0.92394 0.12113 0.37558 0.0
H1135 H 0.89533 0.12904 0.40317 0.0
C1136 C 0.89663 0.23713 0.47582 0.0
C1137 C 0.91514 0.22639 0.4853 0.0
C1138 C 0.87851 0.22143 0.45906 0.0
C1139 C 0.87818 0.19444 0.45164 0.0
C1140 C 0.89675 0.18382 0.46105 0.0
C1141 C 0.91505 0.19961 0.47763 0.0
C1142 C 0.85896 0.17727 0.43394 0.0
C1143 C 0.874 0.17154 0.418 0.0
C1144 C 0.82621 0.16623 0.43272 0.0
C1145 C 0.80862 0.17052 0.44926 0.0
C1146 C 0.80879 0.1591 0.46846 0.0
C1147 C 0.79236 0.16349 0.48401 0.0
C1148 C 0.77546 0.17905 0.48048 0.0
C1149 C 0.77488 0.19015 0.46139 0.0
C1150 C 0.7913 0.18585 0.4458 0.0
C1151 C 0.7897 0.07563 0.36304 0.0
C1152 C 0.77144 0.08364 0.3508 0.0
C1153 C 0.80606 0.09438 0.37934 0.0
C1154 C 0.80489 0.1218 0.38368 0.0
C1155 C 0.78578 0.12931 0.372 0.0
C1156 C 0.7692 0.11041 0.35568 0.0
C1157 C 0.8243 0.14283 0.40015 0.0
C1158 C 0.80937 0.14942 0.41574 0.0
C1159 C 0.85719 0.15467 0.4011 0.0
C1160 C 0.87469 0.15016 0.38456 0.0
C1161 C 0.87272 0.15951 0.36504 0.0
C1162 C 0.88891 0.1548 0.34948 0.0
C1163 C 0.90732 0.14095 0.35328 0.0
C1164 C 0.90966 0.13185 0.37266 0.0
C1165 C 0.89349 0.13648 0.38827 0.0
H1166 H 0.91983 0.13731 0.34121 0.0
H1167 H 0.76277 0.18243 0.49254 0.0
H1168 H 0.63864 0.88774 0.6553 0.0
H1169 H 0.63211 0.85534 0.62588 0.0
H1170 H 0.73052 0.91462 0.61171 0.0
H1171 H 0.73735 0.94687 0.641 0.0
H1172 H 0.69168 0.90074 0.57872 0.0
H1173 H 0.70586 0.8457 0.63436 0.0
H1174 H 0.69217 0.81948 0.66717 0.0
H1175 H 0.60029 0.75214 0.64546 0.0
H1176 H 0.61327 0.77828 0.61258 0.0
H1177 H 0.73656 0.81475 0.51729 0.0
H1178 H 0.72953 0.84246 0.54518 0.0
H1179 H 0.63133 0.77145 0.5488 0.0
H1180 H 0.63806 0.74336 0.52063 0.0
H1181 H 0.66115 0.78822 0.58615 0.0
H1182 H 0.64747 0.83867 0.53 0.0
H1183 H 0.65848 0.86513 0.49734 0.0
H1184 H 0.746 0.94053 0.51959 0.0
H1185 H 0.73574 0.91431 0.55234 0.0
C1186 C 0.65886 0.894 0.64586 0.0
C1187 C 0.68856 0.91993 0.65056 0.0
C1188 C 0.65509 0.87538 0.6291 0.0
C1189 C 0.68088 0.88246 0.6167 0.0
C1190 C 0.7103 0.90874 0.62107 0.0
C1191 C 0.71416 0.92714 0.63788 0.0
C1192 C 0.67769 0.86233 0.59932 0.0
C1193 C 0.68521 0.8762 0.58034 0.0
C1194 C 0.6681 0.83 0.60138 0.0
C1195 C 0.6604 0.81416 0.62108 0.0
C1196 C 0.68264 0.82546 0.63663 0.0
C1197 C 0.67503 0.8106 0.65523 0.0
C1198 C 0.64535 0.78422 0.65841 0.0
C1199 C 0.62325 0.77261 0.64298 0.0
C1200 C 0.63072 0.78743 0.62436 0.0
C1201 C 0.71342 0.80483 0.52399 0.0
C1202 C 0.68784 0.77679 0.51664 0.0
C1203 C 0.70943 0.82085 0.5399 0.0
C1204 C 0.67984 0.80921 0.54892 0.0
C1205 C 0.65434 0.78089 0.54198 0.0
C1206 C 0.65823 0.76492 0.52586 0.0
C1207 C 0.67604 0.82692 0.56562 0.0
C1208 C 0.66721 0.81263 0.58446 0.0
C1209 C 0.68417 0.85884 0.56343 0.0
C1210 C 0.69092 0.87437 0.54361 0.0
C1211 C 0.66924 0.86071 0.52788 0.0
C1212 C 0.67531 0.87571 0.50936 0.0
C1213 C 0.70293 0.90449 0.5064 0.0
C1214 C 0.72461 0.91824 0.52192 0.0
C1215 C 0.71866 0.90334 0.54047 0.0
H1216 H 0.70743 0.91621 0.49211 0.0
H1217 H 0.63953 0.77271 0.6728 0.0
H1218 H 0.88598 0.63537 0.67912 0.0
H1219 H 0.85432 0.62781 0.70907 0.0
H1220 H 0.91388 0.72577 0.72434 0.0
H1221 H 0.94561 0.73357 0.69462 0.0
H1222 H 0.90007 0.68658 0.75685 0.0
H1223 H 0.8452 0.70188 0.70176 0.0
H1224 H 0.8195 0.68897 0.66887 0.0
H1225 H 0.75169 0.5966 0.68975 0.0
H1226 H 0.77751 0.60882 0.72273 0.0
H1227 H 0.81562 0.73351 0.81777 0.0
H1228 H 0.84272 0.72557 0.7899 0.0
H1229 H 0.77101 0.62751 0.7871 0.0
H1230 H 0.74346 0.63516 0.8152 0.0
H1231 H 0.78772 0.65672 0.74958 0.0
H1232 H 0.83842 0.64385 0.80612 0.0
H1233 H 0.86441 0.65669 0.83898 0.0
H1234 H 0.93963 0.74343 0.81566 0.0
H1235 H 0.91384 0.73135 0.78271 0.0
C1236 C 0.89248 0.65526 0.68893 0.0
C1237 C 0.91822 0.68514 0.68438 0.0
C1238 C 0.87431 0.65089 0.706 0.0
C1239 C 0.88165 0.67629 0.71884 0.0
C1240 C 0.90783 0.70586 0.71464 0.0
C1241 C 0.92584 0.71029 0.69755 0.0
C1242 C 0.86159 0.67271 0.73632 0.0
C1243 C 0.87554 0.68015 0.75527 0.0
C1244 C 0.82932 0.66333 0.73431 0.0
C1245 C 0.81352 0.65611 0.71461 0.0
C1246 C 0.82497 0.67872 0.69929 0.0
C1247 C 0.81035 0.67153 0.68063 0.0
C1248 C 0.78398 0.64193 0.67718 0.0
C1249 C 0.77215 0.61949 0.69243 0.0
C1250 C 0.78679 0.62653 0.7111 0.0
C1251 C 0.80542 0.71021 0.81126 0.0
C1252 C 0.77736 0.68494 0.81883 0.0
C1253 C 0.82108 0.7057 0.79536 0.0
C1254 C 0.80909 0.67587 0.78662 0.0
C1255 C 0.78071 0.65068 0.79374 0.0
C1256 C 0.76507 0.65511 0.80981 0.0
C1257 C 0.82649 0.67148 0.77002 0.0
C1258 C 0.81207 0.66255 0.75124 0.0
C1259 C 0.85834 0.6794 0.77218 0.0
C1260 C 0.87406 0.68678 0.79196 0.0
C1261 C 0.86038 0.66579 0.80803 0.0
C1262 C 0.8751 0.67291 0.82667 0.0
C1263 C 0.90362 0.70089 0.82941 0.0
C1264 C 0.91752 0.72177 0.81351 0.0
C1265 C 0.90288 0.71478 0.79484 0.0
H1266 H 0.91499 0.70636 0.84385 0.0
H1267 H 0.77268 0.63637 0.66272 0.0
H1268 H 0.26552 0.90566 0.85644 0.0
H1269 H 0.23919 0.87455 0.88623 0.0
H1270 H 0.16035 0.88881 0.87553 0.0
H1271 H 0.18689 0.92069 0.84641 0.0
H1272 H 0.17436 0.89752 0.91272 0.0
H1273 H 0.16022 0.81704 0.86507 0.0
H1274 H 0.17853 0.79109 0.84137 0.0
H1275 H 0.23187 0.77914 0.88788 0.0
H1276 H 0.21414 0.80534 0.9118 0.0
H1277 H 0.05482 0.7851 0.9724 0.0
H1278 H 0.08681 0.81277 0.94349 0.0
H1279 H 0.15917 0.7934 0.96337 0.0
H1280 H 0.12636 0.76422 0.99201 0.0
H1281 H 0.15395 0.78877 0.92379 0.0
H1282 H 0.16452 0.86629 0.97187 0.0
H1283 H 0.14484 0.89128 0.99533 0.0
H1284 H 0.09728 0.90849 0.94741 0.0
H1285 H 0.11638 0.88328 0.92371 0.0
C1286 C 0.24254 0.90207 0.86045 0.0
C1287 C 0.22835 0.91573 0.84908 0.0
C1288 C 0.22744 0.88415 0.87743 0.0
C1289 C 0.19757 0.87901 0.88307 0.0
C1290 C 0.18341 0.8925 0.8716 0.0
C1291 C 0.19864 0.91075 0.8549 0.0
C1292 C 0.18102 0.86025 0.90109 0.0
C1293 C 0.16968 0.87362 0.91499 0.0
C1294 C 0.17571 0.82941 0.9045 0.0
C1295 C 0.18611 0.81342 0.89016 0.0
C1296 C 0.176 0.80904 0.8702 0.0
C1297 C 0.18625 0.79427 0.85674 0.0
C1298 C 0.20642 0.78355 0.8631 0.0
C1299 C 0.21628 0.78749 0.88296 0.0
C1300 C 0.20612 0.80227 0.89648 0.0
C1301 C 0.0774 0.78645 0.97055 0.0
C1302 C 0.08813 0.77267 0.9846 0.0
C1303 C 0.09579 0.80246 0.95406 0.0
C1304 C 0.12581 0.80593 0.9515 0.0
C1305 C 0.13619 0.79123 0.9651 0.0
C1306 C 0.11744 0.77462 0.98147 0.0
C1307 C 0.14652 0.82576 0.93499 0.0
C1308 C 0.15882 0.81272 0.92152 0.0
C1309 C 0.15267 0.85693 0.93187 0.0
C1310 C 0.14177 0.87276 0.94604 0.0
C1311 C 0.1498 0.87533 0.96635 0.0
C1312 C 0.13873 0.88953 0.97969 0.0
C1313 C 0.11979 0.90143 0.97287 0.0
C1314 C 0.11197 0.89927 0.95268 0.0
C1315 C 0.12295 0.88509 0.93928 0.0
H1316 H 0.1112 0.91236 0.98322 0.0
H1317 H 0.21435 0.77214 0.85265 0.0
H1318 H 0.3654 0.10914 0.15043 0.0
H1319 H 0.37112 0.13968 0.12025 0.0
H1320 H 0.27023 0.08941 0.11258 0.0
H1321 H 0.26427 0.05856 0.14238 0.0
H1322 H 0.29929 0.09595 0.07772 0.0
H1323 H 0.3095 0.16355 0.13334 0.0
H1324 H 0.3333 0.19255 0.16447 0.0
H1325 H 0.42274 0.24525 0.13512 0.0
H1326 H 0.39952 0.21624 0.10386 0.0
H1327 H 0.26508 0.19265 0.01842 0.0
H1328 H 0.27065 0.16349 0.046 0.0
H1329 H 0.37172 0.22194 0.04314 0.0
H1330 H 0.36645 0.25164 0.01547 0.0
H1331 H 0.34991 0.21241 0.08162 0.0
H1332 H 0.33799 0.1488 0.02491 0.0
H1333 H 0.31386 0.1201 0.99376 0.0
H1334 H 0.22779 0.05989 0.02497 0.0
H1335 H 0.25125 0.08853 0.05626 0.0
C1336 C 0.34443 0.10442 0.14226 0.0
C1337 C 0.31435 0.08149 0.14897 0.0
C1338 C 0.34775 0.12201 0.12505 0.0
C1339 C 0.32107 0.1171 0.11428 0.0
C1340 C 0.29116 0.09365 0.12064 0.0
C1341 C 0.2878 0.07609 0.13778 0.0
C1342 C 0.32388 0.13666 0.09663 0.0
C1343 C 0.31019 0.12139 0.07861 0.0
C1344 C 0.33896 0.16996 0.0976 0.0
C1345 C 0.35287 0.18748 0.11634 0.0
C1346 C 0.33429 0.18115 0.13357 0.0
C1347 C 0.34767 0.19762 0.15123 0.0
C1348 C 0.37954 0.22066 0.15179 0.0
C1349 C 0.39807 0.22735 0.13467 0.0
C1350 C 0.38482 0.21092 0.11698 0.0
C1351 C 0.28856 0.19946 0.0236 0.0
C1352 C 0.31534 0.22447 0.01459 0.0
C1353 C 0.29169 0.1826 0.03935 0.0
C1354 C 0.32161 0.19021 0.04643 0.0
C1355 C 0.34841 0.21557 0.03783 0.0
C1356 C 0.34532 0.23247 0.02199 0.0
C1357 C 0.32457 0.17158 0.06288 0.0
C1358 C 0.33939 0.18701 0.08065 0.0
C1359 C 0.31052 0.1384 0.06169 0.0
C1360 C 0.29633 0.12098 0.04291 0.0
C1361 C 0.31384 0.12959 0.02511 0.0
C1362 C 0.30029 0.11331 0.00743 0.0
C1363 C 0.26929 0.08823 0.00738 0.0
C1364 C 0.25179 0.07933 0.02502 0.0
C1365 C 0.26522 0.09556 0.04274 0.0
H1366 H 0.25884 0.07565 0.99367 0.0
H1367 H 0.38985 0.23339 0.16547 0.0
loop_
_geom_bond_atom_site_label_1
_geom_bond_atom_site_label_2
_geom_bond_distance
_geom_bond_site_symmetry_2
_ccdc_geom_bond_type
Co0 O1 2.216 . S
Co0 O2 2.091 . S
Co0 O4 2.004 . S
Co0 O10 2.021 . S
Co0 O12 2.137 . S
Co0 O13 2.244 . S
O1 Co0 2.216 . S
O1 C8 1.247 . S
O2 Co0 2.091 . S
O2 C8 1.261 . S
C3 O12 1.247 . S
C3 O13 1.272 . S
O4 Co0 2.004 . S
O4 C9 1.259 . S
Co5 O6 2.061 . S
Co5 O11 2.052 . S
Co5 O13 2.135 . S
O6 Co5 2.061 . S
O6 C9 1.235 . S
C7 O10 1.238 . S
C7 O11 1.241 . S
C8 O1 1.247 . S
C8 O2 1.261 . S
C9 O4 1.259 . S
C9 O6 1.235 . S
O10 Co0 2.021 . S
O10 C7 1.238 . S
O11 Co5 2.052 . S
O11 C7 1.241 . S
O12 Co0 2.137 . S
O12 C3 1.247 . S
O13 Co0 2.244 . S
O13 C3 1.272 . S
O13 Co5 2.135 . S
Co14 O15 2.216 . S
Co14 O16 2.091 . S
Co14 O18 2.004 . S
Co14 O24 2.021 . S
Co14 O26 2.137 . S
Co14 O27 2.244 . S
O15 Co14 2.216 . S
O15 C22 1.247 . S
O16 Co14 2.091 . S
O16 C22 1.261 . S
C17 O26 1.247 . S
C17 O27 1.272 . S
O18 Co14 2.004 . S
O18 C23 1.259 . S
Co19 O20 2.061 . S
Co19 O25 2.052 . S
Co19 O27 2.135 . S
O20 Co19 2.061 . S
O20 C23 1.235 . S
C21 O24 1.238 . S
C21 O25 1.241 . S
C22 O15 1.247 . S
C22 O16 1.261 . S
C23 O18 1.259 . S
C23 O20 1.235 . S
O24 Co14 2.021 . S
O24 C21 1.238 . S
O25 Co19 2.052 . S
O25 C21 1.241 . S
O26 Co14 2.137 . S
O26 C17 1.247 . S
O27 Co14 2.244 . S
O27 C17 1.272 . S
O27 Co19 2.135 . S
Co28 O29 2.216 . S
Co28 O30 2.091 . S
Co28 O32 2.004 . S
Co28 O38 2.021 . S
Co28 O40 2.137 . S
Co28 O41 2.244 . S
O29 Co28 2.216 . S
O29 C36 1.247 . S
O30 Co28 2.091 . S
O30 C36 1.261 . S
C31 O40 1.247 . S
C31 O41 1.272 . S
O32 Co28 2.004 . S
O32 C37 1.259 . S
Co33 O34 2.061 . S
Co33 O39 2.052 . S
Co33 O41 2.135 . S
O34 Co33 2.061 . S
O34 C37 1.235 . S
C35 O38 1.238 . S
C35 O39 1.241 . S
C36 O29 1.247 . S
C36 O30 1.261 . S
C37 O32 1.259 . S
C37 O34 1.235 . S
O38 Co28 2.021 . S
O38 C35 1.238 . S
O39 Co33 2.052 . S
O39 C35 1.241 . S
O40 Co28 2.137 . S
O40 C31 1.247 . S
O41 Co28 2.244 . S
O41 C31 1.272 . S
O41 Co33 2.135 . S
Co42 O43 2.216 . S
Co42 O44 2.091 . S
Co42 O46 2.004 . S
Co42 O52 2.021 . S
Co42 O54 2.137 . S
Co42 O55 2.244 . S
O43 Co42 2.216 . S
O43 C50 1.247 . S
O44 Co42 2.091 . S
O44 C50 1.261 . S
C45 O54 1.247 . S
C45 O55 1.272 . S
O46 Co42 2.004 . S
O46 C51 1.259 . S
Co47 O48 2.061 . S
Co47 O53 2.052 . S
Co47 O55 2.135 . S
O48 Co47 2.061 . S
O48 C51 1.235 . S
C49 O52 1.238 . S
C49 O53 1.241 . S
C50 O43 1.247 . S
C50 O44 1.261 . S
C51 O46 1.259 . S
C51 O48 1.235 . S
O52 Co42 2.021 . S
O52 C49 1.238 . S
O53 Co47 2.052 . S
O53 C49 1.241 . S
O54 Co42 2.137 . S
O54 C45 1.247 . S
O55 Co42 2.244 . S
O55 C45 1.272 . S
O55 Co47 2.135 . S
Co56 O57 2.216 . S
Co56 O58 2.091 . S
Co56 O60 2.004 . S
Co56 O66 2.021 . S
Co56 O68 2.137 . S
Co56 O69 2.244 . S
O57 Co56 2.216 . S
O57 C64 1.247 . S
O58 Co56 2.091 . S
O58 C64 1.261 . S
C59 O68 1.247 . S
C59 O69 1.272 . S
O60 Co56 2.004 . S
O60 C65 1.259 . S
Co61 O62 2.061 . S
Co61 O67 2.052 . S
Co61 O69 2.135 . S
O62 Co61 2.061 . S
O62 C65 1.235 . S
C63 O66 1.238 . S
C63 O67 1.241 . S
C64 O57 1.247 . S
C64 O58 1.261 . S
C65 O60 1.259 . S
C65 O62 1.235 . S
O66 Co56 2.021 . S
O66 C63 1.238 . S
O67 Co61 2.052 . S
O67 C63 1.241 . S
O68 Co56 2.137 . S
O68 C59 1.247 . S
O69 Co56 2.244 . S
O69 C59 1.272 . S
O69 Co61 2.135 . S
Co70 O71 2.216 . S
Co70 O72 2.091 . S
Co70 O74 2.004 . S
Co70 O80 2.021 . S
Co70 O82 2.137 . S
Co70 O83 2.244 . S
O71 Co70 2.216 . S
O71 C78 1.247 . S
O72 Co70 2.091 . S
O72 C78 1.261 . S
C73 O82 1.247 . S
C73 O83 1.272 . S
O74 Co70 2.004 . S
O74 C79 1.266 . S
Co75 O76 2.061 . S
Co75 O81 2.052 . S
Co75 O83 2.135 . S
O76 Co75 2.061 . S
O76 C79 1.242 . S
C77 O80 1.238 . S
C77 O81 1.241 . S
C78 O71 1.247 . S
C78 O72 1.261 . S
C79 O74 1.266 . S
C79 O76 1.242 . S
O80 Co70 2.021 . S
O80 C77 1.238 . S
O81 Co75 2.052 . S
O81 C77 1.241 . S
O82 Co70 2.137 . S
O82 C73 1.247 . S
O83 Co70 2.244 . S
O83 C73 1.272 . S
O83 Co75 2.135 . S
Co84 O85 2.216 . S
Co84 O86 2.091 . S
Co84 O88 2.004 . S
Co84 O94 2.021 . S
Co84 O96 2.137 . S
Co84 O97 2.244 . S
O85 Co84 2.216 . S
O85 C92 1.247 . S
O86 Co84 2.091 . S
O86 C92 1.261 . S
C87 O96 1.247 . S
C87 O97 1.272 . S
O88 Co84 2.004 . S
O88 C93 1.259 . S
Co89 O90 2.061 . S
Co89 O95 2.052 . S
Co89 O97 2.135 . S
O90 Co89 2.061 . S
O90 C93 1.235 . S
C91 O94 1.238 . S
C91 O95 1.241 . S
C92 O85 1.247 . S
C92 O86 1.261 . S
C93 O88 1.259 . S
C93 O90 1.235 . S
O94 Co84 2.021 . S
O94 C91 1.238 . S
O95 Co89 2.052 . S
O95 C91 1.241 . S
O96 Co84 2.137 . S
O96 C87 1.247 . S
O97 Co84 2.244 . S
O97 C87 1.272 . S
O97 Co89 2.135 . S
Co98 O99 2.216 . S
Co98 O100 2.091 . S
Co98 O102 2.004 . S
Co98 O108 2.021 . S
Co98 O110 2.137 . S
Co98 O111 2.244 . S
O99 Co98 2.216 . S
O99 C106 1.247 . S
O100 Co98 2.091 . S
O100 C106 1.261 . S
C101 O110 1.247 . S
C101 O111 1.272 . S
O102 Co98 2.004 . S
O102 C107 1.259 . S
Co103 O104 2.061 . S
Co103 O109 2.052 . S
Co103 O111 2.135 . S
O104 Co103 2.061 . S
O104 C107 1.235 . S
C105 O108 1.238 . S
C105 O109 1.241 . S
C106 O99 1.247 . S
C106 O100 1.261 . S
C107 O102 1.259 . S
C107 O104 1.235 . S
O108 Co98 2.021 . S
O108 C105 1.238 . S
O109 Co103 2.052 . S
O109 C105 1.241 . S
O110 Co98 2.137 . S
O110 C101 1.247 . S
O111 Co98 2.244 . S
O111 C101 1.272 . S
O111 Co103 2.135 . S
Co112 O113 2.216 . S
Co112 O114 2.091 . S
Co112 O116 2.004 . S
Co112 O122 2.021 . S
Co112 O124 2.137 . S
Co112 O125 2.244 . S
O113 Co112 2.216 . S
O113 C120 1.247 . S
O114 Co112 2.091 . S
O114 C120 1.261 . S
C115 O124 1.247 . S
C115 O125 1.272 . S
O116 Co112 2.004 . S
O116 C121 1.266 . S
Co117 O118 2.061 . S
Co117 O123 2.052 . S
Co117 O125 2.135 . S
O118 Co117 2.061 . S
O118 C121 1.242 . S
C119 O122 1.238 . S
C119 O123 1.241 . S
C120 O113 1.247 . S
C120 O114 1.261 . S
C121 O116 1.266 . S
C121 O118 1.242 . S
O122 Co112 2.021 . S
O122 C119 1.238 . S
O123 Co117 2.052 . S
O123 C119 1.241 . S
O124 Co112 2.137 . S
O124 C115 1.247 . S
O125 Co112 2.244 . S
O125 C115 1.272 . S
O125 Co117 2.135 . S
Co126 O127 2.216 . S
Co126 O128 2.091 . S
Co126 O130 2.004 . S
Co126 O136 2.021 . S
Co126 O138 2.137 . S
Co126 O139 2.244 . S
O127 Co126 2.216 . S
O127 C134 1.247 . S
O128 Co126 2.091 . S
O128 C134 1.261 . S
C129 O138 1.247 . S
C129 O139 1.272 . S
O130 Co126 2.004 . S
O130 C135 1.259 . S
Co131 O132 2.061 . S
Co131 O137 2.052 . S
Co131 O139 2.135 . S
O132 Co131 2.061 . S
O132 C135 1.235 . S
C133 O136 1.238 . S
C133 O137 1.241 . S
C134 O127 1.247 . S
C134 O128 1.261 . S
C135 O130 1.259 . S
C135 O132 1.235 . S
O136 Co126 2.021 . S
O136 C133 1.238 . S
O137 Co131 2.052 . S
O137 C133 1.241 . S
O138 Co126 2.137 . S
O138 C129 1.247 . S
O139 Co126 2.244 . S
O139 C129 1.272 . S
O139 Co131 2.135 . S
Co140 O141 2.216 . S
Co140 O142 2.091 . S
Co140 O144 2.004 . S
Co140 O150 2.021 . S
Co140 O152 2.137 . S
Co140 O153 2.244 . S
O141 Co140 2.216 . S
O141 C148 1.247 . S
O142 Co140 2.091 . S
O142 C148 1.261 . S
C143 O152 1.247 . S
C143 O153 1.272 . S
O144 Co140 2.004 . S
O144 C149 1.259 . S
Co145 O146 2.061 . S
Co145 O151 2.052 . S
Co145 O153 2.135 . S
O146 Co145 2.061 . S
O146 C149 1.235 . S
C147 O150 1.238 . S
C147 O151 1.241 . S
C148 O141 1.247 . S
C148 O142 1.261 . S
C149 O144 1.259 . S
C149 O146 1.235 . S
O150 Co140 2.021 . S
O150 C147 1.238 . S
O151 Co145 2.052 . S
O151 C147 1.241 . S
O152 Co140 2.137 . S
O152 C143 1.247 . S
O153 Co140 2.244 . S
O153 C143 1.272 . S
O153 Co145 2.135 . S
Co154 O155 2.216 . S
Co154 O156 2.091 . S
Co154 O158 2.004 . S
Co154 O164 2.021 . S
Co154 O166 2.137 . S
Co154 O167 2.244 . S
O155 Co154 2.216 . S
O155 C162 1.247 . S
O156 Co154 2.091 . S
O156 C162 1.261 . S
C157 O166 1.247 . S
C157 O167 1.272 . S
O158 Co154 2.004 . S
O158 C163 1.259 . S
Co159 O160 2.061 . S
Co159 O165 2.052 . S
Co159 O167 2.135 . S
O160 Co159 2.061 . S
O160 C163 1.235 . S
C161 O164 1.238 . S
C161 O165 1.241 . S
C162 O155 1.247 . S
C162 O156 1.261 . S
C163 O158 1.259 . S
C163 O160 1.235 . S
O164 Co154 2.021 . S
O164 C161 1.238 . S
O165 Co159 2.052 . S
O165 C161 1.241 . S
O166 Co154 2.137 . S
O166 C157 1.247 . S
O167 Co154 2.244 . S
O167 C157 1.272 . S
O167 Co159 2.135 . S
H168 C186 0.951 . S
H169 C188 0.951 . S
H170 C190 0.950 1_655 S
H171 C191 0.950 1_655 S
H172 C193 0.950 . S
H173 C196 0.950 . S
H174 C197 0.950 . S
H175 C199 0.950 . S
H176 C200 0.950 . S
H177 C201 0.951 1_655 S
H178 C203 0.951 1_655 S
H179 C205 0.950 . S
H180 C206 0.950 . S
H181 C208 0.950 . S
H182 C211 0.950 . S
H183 C212 0.950 . S
H184 C214 0.950 . S
H185 C215 0.950 . S
C186 H168 0.951 . S
C186 C187 1.366 . S
C186 C188 1.388 . S
C187 C186 1.366 . S
C187 C191 1.385 . S
C188 H169 0.951 . S
C188 C186 1.388 . S
C188 C189 1.366 . S
C189 C188 1.366 . S
C189 C190 1.414 . S
C189 C192 1.499 . S
C190 H170 0.950 1_455 S
C190 C189 1.414 . S
C190 C191 1.374 . S
C191 H171 0.950 1_455 S
C191 C187 1.385 . S
C191 C190 1.374 . S
C192 C189 1.499 . S
C192 C193 1.373 . S
C192 C194 1.389 . S
C193 H172 0.950 . S
C193 C192 1.373 . S
C193 C209 1.377 . S
C194 C192 1.389 . S
C194 C195 1.524 . S
C194 C208 1.377 . S
C195 C194 1.524 . S
C195 C196 1.397 . S
C195 C200 1.363 . S
C196 H173 0.950 . S
C196 C195 1.397 . S
C196 C197 1.334 . S
C197 H174 0.950 . S
C197 C196 1.334 . S
C197 C198 1.287 . S
C198 C197 1.287 . S
C198 C199 1.524 . S
C198 H217 0.913 . S
C199 H175 0.950 . S
C199 C198 1.524 . S
C199 C200 1.415 . S
C200 H176 0.950 . S
C200 C195 1.363 . S
C200 C199 1.415 . S
C201 H177 0.951 1_455 S
C201 C202 1.366 . S
C201 C203 1.388 . S
C202 C201 1.366 . S
C202 C206 1.385 . S
C203 H178 0.951 1_455 S
C203 C201 1.388 . S
C203 C204 1.366 . S
C204 C203 1.366 . S
C204 C205 1.414 . S
C204 C207 1.499 . S
C205 H179 0.950 . S
C205 C204 1.414 . S
C205 C206 1.374 . S
C206 H180 0.950 . S
C206 C202 1.385 . S
C206 C205 1.374 . S
C207 C204 1.499 . S
C207 C208 1.373 . S
C207 C209 1.389 . S
C208 H181 0.950 . S
C208 C194 1.377 . S
C208 C207 1.373 . S
C209 C193 1.377 . S
C209 C207 1.389 . S
C209 C210 1.524 . S
C210 C209 1.524 . S
C210 C211 1.397 . S
C210 C215 1.363 1_455 S
C211 H182 0.950 . S
C211 C210 1.397 . S
C211 C212 1.334 . S
C212 H183 0.950 . S
C212 C211 1.334 . S
C212 C213 1.287 1_455 S
C213 C212 1.287 1_655 S
C213 C214 1.524 . S
C213 H216 0.999 . S
C214 H184 0.950 . S
C214 C213 1.524 . S
C214 C215 1.415 . S
C215 H185 0.950 . S
C215 C210 1.363 1_655 S
C215 C214 1.415 . S
H216 C213 0.999 . S
H217 C198 0.913 . S
H218 C236 0.951 . S
H219 C238 0.951 . S
H220 C240 0.950 . S
H221 C241 0.950 . S
H222 C243 0.950 . S
H223 C246 0.950 . S
H224 C247 0.950 . S
H225 C249 0.950 . S
H226 C250 0.950 . S
H227 C251 0.951 . S
H228 C253 0.951 . S
H229 C255 0.950 . S
H230 C256 0.950 . S
H231 C258 0.950 . S
H232 C261 0.950 . S
H233 C262 0.950 . S
H234 C264 0.950 . S
H235 C265 0.950 . S
C236 H218 0.951 . S
C236 C237 1.366 . S
C236 C238 1.388 . S
C237 C236 1.366 . S
C237 C241 1.385 . S
C238 H219 0.951 . S
C238 C236 1.388 . S
C238 C239 1.366 . S
C239 C238 1.366 . S
C239 C240 1.414 . S
C239 C242 1.499 . S
C240 H220 0.950 . S
C240 C239 1.414 . S
C240 C241 1.374 . S
C241 H221 0.950 . S
C241 C237 1.385 . S
C241 C240 1.374 . S
C242 C239 1.499 . S
C242 C243 1.373 . S
C242 C244 1.389 . S
C243 H222 0.950 . S
C243 C242 1.373 . S
C243 C259 1.377 . S
C244 C242 1.389 . S
C244 C245 1.524 . S
C244 C258 1.377 . S
C245 C244 1.524 . S
C245 C246 1.397 . S
C245 C250 1.363 . S
C246 H223 0.950 . S
C246 C245 1.397 . S
C246 C247 1.334 . S
C247 H224 0.950 . S
C247 C246 1.334 . S
C247 C248 1.287 . S
C248 C247 1.287 . S
C248 C249 1.524 . S
C248 H267 0.913 . S
C249 H225 0.950 . S
C249 C248 1.524 . S
C249 C250 1.415 . S
C250 H226 0.950 . S
C250 C245 1.363 . S
C250 C249 1.415 . S
C251 H227 0.951 . S
C251 C252 1.366 . S
C251 C253 1.388 . S
C252 C251 1.366 . S
C252 C256 1.385 . S
C253 H228 0.951 . S
C253 C251 1.388 . S
C253 C254 1.366 . S
C254 C253 1.366 . S
C254 C255 1.414 . S
C254 C257 1.499 . S
C255 H229 0.950 . S
C255 C254 1.414 . S
C255 C256 1.374 . S
C256 H230 0.950 . S
C256 C252 1.385 . S
C256 C255 1.374 . S
C257 C254 1.499 . S
C257 C258 1.373 . S
C257 C259 1.389 . S
C258 H231 0.950 . S
C258 C244 1.377 . S
C258 C257 1.373 . S
C259 C243 1.377 . S
C259 C257 1.389 . S
C259 C260 1.524 1_545 S
C260 C259 1.524 1_565 S
C260 C261 1.397 . S
C260 C265 1.363 . S
C261 H232 0.950 . S
C261 C260 1.397 . S
C261 C262 1.334 . S
C262 H233 0.950 . S
C262 C261 1.334 . S
C262 C263 1.287 . S
C263 C262 1.287 . S
C263 C264 1.524 . S
C263 H266 0.999 . S
C264 H234 0.950 . S
C264 C263 1.524 . S
C264 C265 1.415 . S
C265 H235 0.950 . S
C265 C260 1.363 . S
C265 C264 1.415 . S
H266 C263 0.999 . S
H267 C248 0.913 . S
H268 C286 0.951 . S
H269 C288 0.951 . S
H270 C290 0.950 . S
H271 C291 0.950 . S
H272 C293 0.950 . S
H273 C296 0.950 . S
H274 C297 0.950 . S
H275 C299 0.950 . S
H276 C300 0.950 . S
H277 C301 0.951 . S
H278 C303 0.951 . S
H279 C305 0.950 . S
H280 C306 0.950 . S
H281 C308 0.950 . S
H282 C311 0.950 . S
H283 C312 0.950 . S
H284 C314 0.950 . S
H285 C315 0.950 . S
C286 H268 0.951 . S
C286 C287 1.366 . S
C286 C288 1.388 . S
C287 C286 1.366 . S
C287 C291 1.385 . S
C288 H269 0.951 . S
C288 C286 1.388 . S
C288 C289 1.366 . S
C289 C288 1.366 . S
C289 C290 1.414 . S
C289 C292 1.499 . S
C290 H270 0.950 . S
C290 C289 1.414 . S
C290 C291 1.374 . S
C291 H271 0.950 . S
C291 C287 1.385 . S
C291 C290 1.374 . S
C292 C289 1.499 . S
C292 C293 1.373 . S
C292 C294 1.389 . S
C293 H272 0.950 . S
C293 C292 1.373 . S
C293 C309 1.377 . S
C294 C292 1.389 . S
C294 C295 1.524 . S
C294 C308 1.377 . S
C295 C294 1.524 . S
C295 C296 1.397 . S
C295 C300 1.363 . S
C296 H273 0.950 . S
C296 C295 1.397 . S
C296 C297 1.334 . S
C297 H274 0.950 . S
C297 C296 1.334 . S
C297 C298 1.287 . S
C298 C297 1.287 . S
C298 C299 1.524 . S
C298 H317 0.913 . S
C299 H275 0.950 . S
C299 C298 1.524 . S
C299 C300 1.415 . S
C300 H276 0.950 . S
C300 C295 1.363 . S
C300 C299 1.415 . S
C301 H277 0.951 . S
C301 C302 1.366 . S
C301 C303 1.388 . S
C302 C301 1.366 . S
C302 C306 1.385 . S
C303 H278 0.951 . S
C303 C301 1.388 . S
C303 C304 1.366 . S
C304 C303 1.366 . S
C304 C305 1.414 . S
C304 C307 1.499 . S
C305 H279 0.950 . S
C305 C304 1.414 . S
C305 C306 1.374 . S
C306 H280 0.950 . S
C306 C302 1.385 . S
C306 C305 1.374 . S
C307 C304 1.499 . S
C307 C308 1.373 . S
C307 C309 1.389 . S
C308 H281 0.950 . S
C308 C294 1.377 . S
C308 C307 1.373 . S
C309 C293 1.377 . S
C309 C307 1.389 . S
C309 C310 1.524 . S
C310 C309 1.524 . S
C310 C311 1.397 . S
C310 C315 1.363 . S
C311 H282 0.950 . S
C311 C310 1.397 . S
C311 C312 1.334 . S
C312 H283 0.950 . S
C312 C311 1.334 . S
C312 C313 1.287 . S
C313 C312 1.287 . S
C313 C314 1.524 . S
C313 H316 0.999 . S
C314 H284 0.950 . S
C314 C313 1.524 . S
C314 C315 1.415 . S
C315 H285 0.950 . S
C315 C310 1.363 . S
C315 C314 1.415 . S
H316 C313 0.999 . S
H317 C298 0.913 . S
H318 C336 0.952 . S
H319 C338 0.948 1_455 S
H320 C340 0.950 . S
H321 C341 0.950 . S
H322 C343 0.950 . S
H323 C346 0.950 . S
H324 C347 0.950 . S
H325 C349 0.950 . S
H326 C350 0.950 . S
H327 C351 0.951 . S
H328 C353 0.951 . S
H329 C355 0.934 1_455 S
H330 C356 0.942 1_455 S
H331 C358 0.950 . S
H332 C361 0.950 . S
H333 C362 0.950 . S
H334 C364 0.950 . S
H335 C365 0.950 . S
C336 H318 0.952 . S
C336 C337 1.366 . S
C336 C338 1.388 . S
C337 C336 1.366 . S
C337 C341 1.385 . S
C338 H319 0.948 1_655 S
C338 C336 1.388 . S
C338 C339 1.366 . S
C339 C338 1.366 . S
C339 C340 1.414 . S
C339 C342 1.499 . S
C340 H320 0.950 . S
C340 C339 1.414 . S
C340 C341 1.374 . S
C341 H321 0.950 . S
C341 C337 1.385 . S
C341 C340 1.374 . S
C342 C339 1.499 . S
C342 C343 1.373 . S
C342 C344 1.389 . S
C343 H322 0.950 . S
C343 C342 1.373 . S
C343 C359 1.377 . S
C344 C342 1.389 . S
C344 C345 1.524 1_655 S
C344 C358 1.377 . S
C345 C344 1.524 1_455 S
C345 C346 1.397 1_455 S
C345 C350 1.363 . S
C346 H323 0.950 . S
C346 C345 1.397 1_655 S
C346 C347 1.334 1_655 S
C347 H324 0.950 . S
C347 C346 1.334 1_455 S
C347 C348 1.287 . S
C348 C347 1.287 . S
C348 C349 1.524 . S
C348 H367 0.913 . S
C349 H325 0.950 . S
C349 C348 1.524 . S
C349 C350 1.415 . S
C350 H326 0.950 . S
C350 C345 1.363 . S
C350 C349 1.415 . S
C351 H327 0.951 . S
C351 C352 1.366 . S
C351 C353 1.388 . S
C352 C351 1.366 . S
C352 C356 1.385 . S
C353 H328 0.951 . S
C353 C351 1.388 . S
C353 C354 1.366 . S
C354 C353 1.366 . S
C354 C355 1.414 . S
C354 C357 1.499 . S
C355 H329 0.934 1_655 S
C355 C354 1.414 . S
C355 C356 1.374 . S
C356 H330 0.942 1_655 S
C356 C352 1.385 . S
C356 C355 1.374 . S
C357 C354 1.499 . S
C357 C358 1.373 . S
C357 C359 1.389 . S
C358 H331 0.950 . S
C358 C344 1.377 . S
C358 C357 1.373 . S
C359 C343 1.377 . S
C359 C357 1.389 . S
C359 C360 1.524 . S
C360 C359 1.524 . S
C360 C361 1.397 . S
C360 C365 1.363 . S
C361 H332 0.950 . S
C361 C360 1.397 . S
C361 C362 1.334 . S
C362 H333 0.950 . S
C362 C361 1.334 . S
C362 C363 1.287 . S
C363 C362 1.287 . S
C363 C364 1.524 . S
C363 H366 0.999 . S
C364 H334 0.950 . S
C364 C363 1.524 . S
C364 C365 1.415 . S
C365 H335 0.950 . S
C365 C360 1.363 . S
C365 C364 1.415 . S
H366 C363 0.999 . S
H367 C348 0.913 . S
H368 C386 0.951 . S
H369 C388 0.951 . S
H370 C390 0.950 . S
H371 C391 0.950 . S
H372 C393 0.950 . S
H373 C396 0.950 . S
H374 C397 0.950 1_545 S
H375 C399 0.950 . S
H376 C400 0.950 . S
H377 C401 0.951 . S
H378 C403 0.951 . S
H379 C405 0.950 . S
H380 C406 0.950 . S
H381 C408 0.950 . S
H382 C411 0.950 . S
H383 C412 0.950 . S
H384 C414 0.950 . S
H385 C415 0.950 . S
C386 H368 0.951 . S
C386 C387 1.366 . S
C386 C388 1.388 . S
C387 C386 1.366 . S
C387 C391 1.385 . S
C388 H369 0.951 . S
C388 C386 1.388 . S
C388 C389 1.366 . S
C389 C388 1.366 . S
C389 C390 1.414 . S
C389 C392 1.499 . S
C390 H370 0.950 . S
C390 C389 1.414 . S
C390 C391 1.374 . S
C391 H371 0.950 . S
C391 C387 1.385 . S
C391 C390 1.374 . S
C392 C389 1.499 . S
C392 C393 1.373 . S
C392 C394 1.389 . S
C393 H372 0.950 . S
C393 C392 1.373 . S
C393 C409 1.377 . S
C394 C392 1.389 . S
C394 C395 1.524 . S
C394 C408 1.377 . S
C395 C394 1.524 . S
C395 C396 1.397 . S
C395 C400 1.363 . S
C396 H373 0.950 . S
C396 C395 1.397 . S
C396 C397 1.334 . S
C397 H374 0.950 1_565 S
C397 C396 1.334 . S
C397 C398 1.287 . S
C398 C397 1.287 . S
C398 C399 1.524 . S
C398 H417 0.913 . S
C399 H375 0.950 . S
C399 C398 1.524 . S
C399 C400 1.415 . S
C400 H376 0.950 . S
C400 C395 1.363 . S
C400 C399 1.415 . S
C401 H377 0.951 . S
C401 C402 1.366 . S
C401 C403 1.388 . S
C402 C401 1.366 . S
C402 C406 1.385 . S
C403 H378 0.951 . S
C403 C401 1.388 . S
C403 C404 1.366 . S
C404 C403 1.366 . S
C404 C405 1.414 . S
C404 C407 1.499 . S
C405 H379 0.950 . S
C405 C404 1.414 . S
C405 C406 1.374 . S
C406 H380 0.950 . S
C406 C402 1.385 . S
C406 C405 1.374 . S
C407 C404 1.499 . S
C407 C408 1.373 . S
C407 C409 1.389 . S
C408 H381 0.950 . S
C408 C394 1.377 . S
C408 C407 1.373 . S
C409 C393 1.377 . S
C409 C407 1.389 . S
C409 C410 1.524 . S
C410 C409 1.524 . S
C410 C411 1.397 . S
C410 C415 1.363 . S
C411 H382 0.950 . S
C411 C410 1.397 . S
C411 C412 1.334 . S
C412 H383 0.950 . S
C412 C411 1.334 . S
C412 C413 1.287 . S
C413 C412 1.287 . S
C413 C414 1.524 . S
C413 H416 0.999 . S
C414 H384 0.950 . S
C414 C413 1.524 . S
C414 C415 1.415 . S
C415 H385 0.950 . S
C415 C410 1.363 . S
C415 C414 1.415 . S
H416 C413 0.999 . S
H417 C398 0.913 . S
H418 C436 0.951 . S
H419 C438 0.951 . S
H420 C440 0.950 . S
H421 C441 0.950 . S
H422 C443 0.950 . S
H423 C446 0.950 . S
H424 C447 0.950 . S
H425 C449 0.950 . S
H426 C450 0.950 . S
H427 C451 0.951 . S
H428 C453 0.951 . S
H429 C455 0.950 . S
H430 C456 0.950 . S
H431 C458 0.950 . S
H432 C461 0.950 . S
H433 C462 0.950 . S
H434 C464 0.950 . S
H435 C465 0.950 . S
C436 H418 0.951 . S
C436 C437 1.366 . S
C436 C438 1.388 . S
C437 C436 1.366 . S
C437 C441 1.385 . S
C438 H419 0.951 . S
C438 C436 1.388 . S
C438 C439 1.366 . S
C439 C438 1.366 . S
C439 C440 1.414 . S
C439 C442 1.499 . S
C440 H420 0.950 . S
C440 C439 1.414 . S
C440 C441 1.374 . S
C441 H421 0.950 . S
C441 C437 1.385 . S
C441 C440 1.374 . S
C442 C439 1.499 . S
C442 C443 1.373 . S
C442 C444 1.389 . S
C443 H422 0.950 . S
C443 C442 1.373 . S
C443 C459 1.377 . S
C444 C442 1.389 . S
C444 C445 1.524 . S
C444 C458 1.377 . S
C445 C444 1.524 . S
C445 C446 1.397 . S
C445 C450 1.363 . S
C446 H423 0.950 . S
C446 C445 1.397 . S
C446 C447 1.334 . S
C447 H424 0.950 . S
C447 C446 1.334 . S
C447 C448 1.287 . S
C448 C447 1.287 . S
C448 C449 1.524 . S
C448 H467 0.913 . S
C449 H425 0.950 . S
C449 C448 1.524 . S
C449 C450 1.415 . S
C450 H426 0.950 . S
C450 C445 1.363 . S
C450 C449 1.415 . S
C451 H427 0.951 . S
C451 C452 1.366 . S
C451 C453 1.388 . S
C452 C451 1.366 . S
C452 C456 1.385 . S
C453 H428 0.951 . S
C453 C451 1.388 . S
C453 C454 1.366 . S
C454 C453 1.366 . S
C454 C455 1.414 . S
C454 C457 1.499 . S
C455 H429 0.950 . S
C455 C454 1.414 . S
C455 C456 1.374 . S
C456 H430 0.950 . S
C456 C452 1.385 . S
C456 C455 1.374 . S
C457 C454 1.499 . S
C457 C458 1.373 . S
C457 C459 1.389 . S
C458 H431 0.950 . S
C458 C444 1.377 . S
C458 C457 1.373 . S
C459 C443 1.377 . S
C459 C457 1.389 . S
C459 C460 1.524 . S
C460 C459 1.524 . S
C460 C461 1.397 . S
C460 C465 1.363 . S
C461 H432 0.950 . S
C461 C460 1.397 . S
C461 C462 1.334 . S
C462 H433 0.950 . S
C462 C461 1.334 . S
C462 C463 1.287 . S
C463 C462 1.287 . S
C463 C464 1.524 . S
C463 H466 0.999 . S
C464 H434 0.950 . S
C464 C463 1.524 . S
C464 C465 1.415 . S
C465 H435 0.950 . S
C465 C460 1.363 . S
C465 C464 1.415 . S
H466 C463 0.999 . S
H467 C448 0.913 . S
H468 C486 0.951 . S
H469 C488 0.951 . S
H470 C490 0.950 . S
H471 C491 0.950 . S
H472 C493 0.950 . S
H473 C496 0.950 . S
H474 C497 0.950 . S
H475 C499 0.950 1_556 S
H476 C500 0.950 . S
H477 C501 0.951 . S
H478 C503 0.951 . S
H479 C505 0.950 . S
H480 C506 0.950 . S
H481 C508 0.950 . S
H482 C511 0.950 . S
H483 C512 0.950 . S
H484 C514 0.950 . S
H485 C515 0.950 . S
C486 H468 0.951 . S
C486 C487 1.366 . S
C486 C488 1.388 . S
C487 C486 1.366 . S
C487 C491 1.385 . S
C488 H469 0.951 . S
C488 C486 1.388 . S
C488 C489 1.366 . S
C489 C488 1.366 . S
C489 C490 1.414 . S
C489 C492 1.499 . S
C490 H470 0.950 . S
C490 C489 1.414 . S
C490 C491 1.374 . S
C491 H471 0.950 . S
C491 C487 1.385 . S
C491 C490 1.374 . S
C492 C489 1.499 . S
C492 C493 1.373 . S
C492 C494 1.389 . S
C493 H472 0.950 . S
C493 C492 1.373 . S
C493 C509 1.377 . S
C494 C492 1.389 . S
C494 C495 1.524 . S
C494 C508 1.377 . S
C495 C494 1.524 . S
C495 C496 1.397 . S
C495 C500 1.363 . S
C496 H473 0.950 . S
C496 C495 1.397 . S
C496 C497 1.334 . S
C497 H474 0.950 . S
C497 C496 1.334 . S
C497 C498 1.287 . S
C498 C497 1.287 . S
C498 C499 1.524 . S
C498 H517 0.913 . S
C499 H475 0.950 1_554 S
C499 C498 1.524 . S
C499 C500 1.415 . S
C500 H476 0.950 . S
C500 C495 1.363 . S
C500 C499 1.415 . S
C501 H477 0.951 . S
C501 C502 1.366 1_554 S
C501 C503 1.388 . S
C502 C501 1.366 1_556 S
C502 C506 1.385 . S
C503 H478 0.951 . S
C503 C501 1.388 . S
C503 C504 1.366 . S
C504 C503 1.366 . S
C504 C505 1.414 1_554 S
C504 C507 1.499 . S
C505 H479 0.950 . S
C505 C504 1.414 1_556 S
C505 C506 1.374 . S
C506 H480 0.950 . S
C506 C502 1.385 . S
C506 C505 1.374 . S
C507 C504 1.499 . S
C507 C508 1.373 . S
C507 C509 1.389 . S
C508 H481 0.950 . S
C508 C494 1.377 . S
C508 C507 1.373 . S
C509 C493 1.377 . S
C509 C507 1.389 . S
C509 C510 1.524 . S
C510 C509 1.524 . S
C510 C511 1.397 . S
C510 C515 1.363 . S
C511 H482 0.950 . S
C511 C510 1.397 . S
C511 C512 1.334 . S
C512 H483 0.950 . S
C512 C511 1.334 . S
C512 C513 1.287 . S
C513 C512 1.287 . S
C513 C514 1.524 . S
C513 H516 0.999 . S
C514 H484 0.950 . S
C514 C513 1.524 . S
C514 C515 1.415 . S
C515 H485 0.950 . S
C515 C510 1.363 . S
C515 C514 1.415 . S
H516 C513 0.999 . S
H517 C498 0.913 . S
H518 C536 0.951 . S
H519 C538 0.951 . S
H520 C540 0.950 . S
H521 C541 0.950 . S
H522 C543 0.950 . S
H523 C546 0.950 . S
H524 C547 0.950 . S
H525 C549 0.950 . S
H526 C550 0.950 . S
H527 C551 0.951 . S
H528 C553 0.951 . S
H529 C555 0.950 . S
H530 C556 0.950 . S
H531 C558 0.950 . S
H532 C561 0.950 . S
H533 C562 0.950 1_455 S
H534 C564 0.950 . S
H535 C565 0.950 . S
C536 H518 0.951 . S
C536 C537 1.366 . S
C536 C538 1.388 . S
C537 C536 1.366 . S
C537 C541 1.385 . S
C538 H519 0.951 . S
C538 C536 1.388 . S
C538 C539 1.366 . S
C539 C538 1.366 . S
C539 C540 1.414 . S
C539 C542 1.499 . S
C540 H520 0.950 . S
C540 C539 1.414 . S
C540 C541 1.374 . S
C541 H521 0.950 . S
C541 C537 1.385 . S
C541 C540 1.374 . S
C542 C539 1.499 . S
C542 C543 1.373 . S
C542 C544 1.389 . S
C543 H522 0.950 . S
C543 C542 1.373 . S
C543 C559 1.377 . S
C544 C542 1.389 . S
C544 C545 1.524 . S
C544 C558 1.377 . S
C545 C544 1.524 . S
C545 C546 1.397 . S
C545 C550 1.363 . S
C546 H523 0.950 . S
C546 C545 1.397 . S
C546 C547 1.334 . S
C547 H524 0.950 . S
C547 C546 1.334 . S
C547 C548 1.287 . S
C548 C547 1.287 . S
C548 C549 1.524 . S
C548 H567 0.913 . S
C549 H525 0.950 . S
C549 C548 1.524 . S
C549 C550 1.415 . S
C550 H526 0.950 . S
C550 C545 1.363 . S
C550 C549 1.415 . S
C551 H527 0.951 . S
C551 C552 1.366 . S
C551 C553 1.388 . S
C552 C551 1.366 . S
C552 C556 1.385 . S
C553 H528 0.951 . S
C553 C551 1.388 . S
C553 C554 1.366 . S
C554 C553 1.366 . S
C554 C555 1.414 . S
C554 C557 1.499 . S
C555 H529 0.950 . S
C555 C554 1.414 . S
C555 C556 1.374 . S
C556 H530 0.950 . S
C556 C552 1.385 . S
C556 C555 1.374 . S
C557 C554 1.499 . S
C557 C558 1.373 . S
C557 C559 1.389 . S
C558 H531 0.950 . S
C558 C544 1.377 . S
C558 C557 1.373 . S
C559 C543 1.377 . S
C559 C557 1.389 . S
C559 C560 1.524 . S
C560 C559 1.524 . S
C560 C561 1.397 . S
C560 C565 1.363 . S
C561 H532 0.950 . S
C561 C560 1.397 . S
C561 C562 1.334 . S
C562 H533 0.950 1_655 S
C562 C561 1.334 . S
C562 C563 1.287 . S
C563 C562 1.287 . S
C563 C564 1.524 . S
C563 H566 0.999 1_655 S
C564 H534 0.950 . S
C564 C563 1.524 . S
C564 C565 1.415 . S
C565 H535 0.950 . S
C565 C560 1.363 . S
C565 C564 1.415 . S
H566 C563 0.999 1_455 S
H567 C548 0.913 . S
H568 C586 0.951 . S
H569 C588 0.951 . S
H570 C590 0.950 . S
H571 C591 0.950 . S
H572 C593 0.950 . S
H573 C596 0.950 . S
H574 C597 0.950 . S
H575 C599 0.950 . S
H576 C600 0.950 . S
H577 C601 0.951 . S
H578 C603 0.951 . S
H579 C605 0.950 . S
H580 C606 0.972 . S
H581 C608 0.950 . S
H582 C611 0.950 . S
H583 C612 0.950 . S
H584 C614 0.950 . S
H585 C615 0.950 . S
C586 H568 0.951 . S
C586 C587 1.366 . S
C586 C588 1.388 . S
C587 C586 1.366 . S
C587 C591 1.385 . S
C588 H569 0.951 . S
C588 C586 1.388 . S
C588 C589 1.366 . S
C589 C588 1.366 . S
C589 C590 1.414 . S
C589 C592 1.499 . S
C590 H570 0.950 . S
C590 C589 1.414 . S
C590 C591 1.374 . S
C591 H571 0.950 . S
C591 C587 1.385 . S
C591 C590 1.374 . S
C592 C589 1.499 . S
C592 C593 1.373 . S
C592 C594 1.389 . S
C593 H572 0.950 . S
C593 C592 1.373 . S
C593 C609 1.377 . S
C594 C592 1.389 . S
C594 C595 1.524 . S
C594 C608 1.377 . S
C595 C594 1.524 . S
C595 C596 1.397 . S
C595 C600 1.363 . S
C596 H573 0.950 . S
C596 C595 1.397 . S
C596 C597 1.334 . S
C597 H574 0.950 . S
C597 C596 1.334 . S
C597 C598 1.287 . S
C598 C597 1.287 . S
C598 C599 1.524 . S
C598 H617 0.913 . S
C599 H575 0.950 . S
C599 C598 1.524 . S
C599 C600 1.415 . S
C600 H576 0.950 . S
C600 C595 1.363 . S
C600 C599 1.415 . S
C601 H577 0.951 . S
C601 C602 1.366 . S
C601 C603 1.388 . S
C602 C601 1.366 . S
C602 C606 1.385 . S
C603 H578 0.951 . S
C603 C601 1.388 . S
C603 C604 1.366 . S
C604 C603 1.366 . S
C604 C605 1.414 . S
C604 C607 1.499 . S
C605 H579 0.950 . S
C605 C604 1.414 . S
C605 C606 1.374 . S
C606 H580 0.972 . S
C606 C602 1.385 . S
C606 C605 1.374 . S
C607 C604 1.499 . S
C607 C608 1.373 . S
C607 C609 1.389 . S
C608 H581 0.950 . S
C608 C594 1.377 . S
C608 C607 1.373 . S
C609 C593 1.377 . S
C609 C607 1.389 . S
C609 C610 1.524 . S
C610 C609 1.524 . S
C610 C611 1.397 . S
C610 C615 1.363 . S
C611 H582 0.950 . S
C611 C610 1.397 . S
C611 C612 1.334 . S
C612 H583 0.950 . S
C612 C611 1.334 . S
C612 C613 1.287 . S
C613 C612 1.287 . S
C613 C614 1.524 . S
C613 H616 0.999 . S
C614 H584 0.950 . S
C614 C613 1.524 . S
C614 C615 1.415 . S
C615 H585 0.950 . S
C615 C610 1.363 . S
C615 C614 1.415 . S
H616 C613 0.999 . S
H617 C598 0.913 . S
H618 C636 0.951 . S
H619 C638 0.951 . S
H620 C640 0.950 . S
H621 C641 0.950 . S
H622 C643 0.950 . S
H623 C646 0.950 . S
H624 C647 0.950 . S
H625 C649 0.950 . S
H626 C650 0.950 . S
H627 C651 0.951 . S
H628 C653 0.951 . S
H629 C655 0.950 . S
H630 C656 0.950 . S
H631 C658 0.950 . S
H632 C661 0.950 . S
H633 C662 0.950 . S
H634 C664 0.950 . S
H635 C665 0.950 . S
C636 H618 0.951 . S
C636 C637 1.366 . S
C636 C638 1.388 . S
C637 C636 1.366 . S
C637 C641 1.385 . S
C638 H619 0.951 . S
C638 C636 1.388 . S
C638 C639 1.366 . S
C639 C638 1.366 . S
C639 C640 1.414 . S
C639 C642 1.499 . S
C640 H620 0.950 . S
C640 C639 1.414 . S
C640 C641 1.374 . S
C641 H621 0.950 . S
C641 C637 1.385 . S
C641 C640 1.374 . S
C642 C639 1.499 . S
C642 C643 1.373 . S
C642 C644 1.389 . S
C643 H622 0.950 . S
C643 C642 1.373 . S
C643 C659 1.377 . S
C644 C642 1.389 . S
C644 C645 1.524 . S
C644 C658 1.377 . S
C645 C644 1.524 . S
C645 C646 1.397 . S
C645 C650 1.363 . S
C646 H623 0.950 . S
C646 C645 1.397 . S
C646 C647 1.334 . S
C647 H624 0.950 . S
C647 C646 1.334 . S
C647 C648 1.287 . S
C648 C647 1.287 . S
C648 C649 1.524 . S
C648 H667 0.913 . S
C649 H625 0.950 . S
C649 C648 1.524 . S
C649 C650 1.415 . S
C650 H626 0.950 . S
C650 C645 1.363 . S
C650 C649 1.415 . S
C651 H627 0.951 . S
C651 C652 1.366 . S
C651 C653 1.388 . S
C652 C651 1.366 . S
C652 C656 1.385 . S
C653 H628 0.951 . S
C653 C651 1.388 . S
C653 C654 1.366 . S
C654 C653 1.366 . S
C654 C655 1.414 . S
C654 C657 1.499 . S
C655 H629 0.950 . S
C655 C654 1.414 . S
C655 C656 1.374 . S
C656 H630 0.950 . S
C656 C652 1.385 . S
C656 C655 1.374 . S
C657 C654 1.499 . S
C657 C658 1.373 . S
C657 C659 1.389 . S
C658 H631 0.950 . S
C658 C644 1.377 . S
C658 C657 1.373 . S
C659 C643 1.377 . S
C659 C657 1.389 . S
C659 C660 1.524 . S
C660 C659 1.524 . S
C660 C661 1.397 . S
C660 C665 1.363 . S
C661 H632 0.950 . S
C661 C660 1.397 . S
C661 C662 1.334 . S
C662 H633 0.950 . S
C662 C661 1.334 . S
C662 C663 1.287 . S
C663 C662 1.287 . S
C663 C664 1.524 . S
C663 H666 0.999 . S
C664 H634 0.950 . S
C664 C663 1.524 . S
C664 C665 1.415 . S
C665 H635 0.950 . S
C665 C660 1.363 . S
C665 C664 1.415 . S
H666 C663 0.999 . S
H667 C648 0.913 . S
H668 C686 0.936 1_655 S
H669 C688 0.951 . S
H670 C690 0.950 . S
H671 C691 0.950 . S
H672 C693 0.950 . S
H673 C696 0.950 . S
H674 C697 0.950 . S
H675 C699 0.950 . S
H676 C700 0.950 . S
H677 C701 0.951 . S
H678 C703 0.951 . S
H679 C705 0.950 . S
H680 C706 0.950 . S
H681 C708 0.950 . S
H682 C711 0.950 . S
H683 C712 0.950 . S
H684 C714 0.950 . S
H685 C715 0.950 . S
C686 H668 0.936 1_455 S
C686 C687 1.366 . S
C686 C688 1.388 . S
C687 C686 1.366 . S
C687 C691 1.385 . S
C688 H669 0.951 . S
C688 C686 1.388 . S
C688 C689 1.366 . S
C689 C688 1.366 . S
C689 C690 1.414 . S
C689 C692 1.499 . S
C690 H670 0.950 . S
C690 C689 1.414 . S
C690 C691 1.374 . S
C691 H671 0.950 . S
C691 C687 1.385 . S
C691 C690 1.374 . S
C692 C689 1.499 . S
C692 C693 1.373 . S
C692 C694 1.389 . S
C693 H672 0.950 . S
C693 C692 1.373 . S
C693 C709 1.377 . S
C694 C692 1.389 . S
C694 C695 1.524 . S
C694 C708 1.377 . S
C695 C694 1.524 . S
C695 C696 1.397 . S
C695 C700 1.363 . S
C696 H673 0.950 . S
C696 C695 1.397 . S
C696 C697 1.334 . S
C697 H674 0.950 . S
C697 C696 1.334 . S
C697 C698 1.287 . S
C698 C697 1.287 . S
C698 C699 1.524 . S
C698 H717 0.913 . S
C699 H675 0.950 . S
C699 C698 1.524 . S
C699 C700 1.415 . S
C700 H676 0.950 . S
C700 C695 1.363 . S
C700 C699 1.415 . S
C701 H677 0.951 . S
C701 C702 1.366 . S
C701 C703 1.388 . S
C702 C701 1.366 . S
C702 C706 1.385 . S
C703 H678 0.951 . S
C703 C701 1.388 . S
C703 C704 1.366 . S
C704 C703 1.366 . S
C704 C705 1.414 . S
C704 C707 1.499 . S
C705 H679 0.950 . S
C705 C704 1.414 . S
C705 C706 1.374 . S
C706 H680 0.950 . S
C706 C702 1.385 . S
C706 C705 1.374 . S
C707 C704 1.499 . S
C707 C708 1.373 . S
C707 C709 1.389 . S
C708 H681 0.950 . S
C708 C694 1.377 . S
C708 C707 1.373 . S
C709 C693 1.377 . S
C709 C707 1.389 . S
C709 C710 1.524 . S
C710 C709 1.524 . S
C710 C711 1.397 . S
C710 C715 1.363 . S
C711 H682 0.950 . S
C711 C710 1.397 . S
C711 C712 1.334 . S
C712 H683 0.950 . S
C712 C711 1.334 . S
C712 C713 1.287 . S
C713 C712 1.287 . S
C713 C714 1.524 . S
C713 H716 0.999 . S
C714 H684 0.950 . S
C714 C713 1.524 . S
C714 C715 1.415 . S
C715 H685 0.950 . S
C715 C710 1.363 . S
C715 C714 1.415 . S
H716 C713 0.999 . S
H717 C698 0.913 . S
H718 C736 0.951 . S
H719 C738 0.951 . S
H720 C740 0.950 . S
H721 C741 0.950 . S
H722 C743 0.950 . S
H723 C746 0.950 . S
H724 C747 0.950 1_565 S
H725 C749 0.950 . S
H726 C750 0.950 . S
H727 C751 0.951 . S
H728 C753 0.951 . S
H729 C755 0.950 . S
H730 C756 0.950 . S
H731 C758 0.950 . S
H732 C761 0.950 . S
H733 C762 0.950 . S
H734 C764 0.950 . S
H735 C765 0.950 . S
C736 H718 0.951 . S
C736 C737 1.366 . S
C736 C738 1.388 . S
C737 C736 1.366 . S
C737 C741 1.385 . S
C738 H719 0.951 . S
C738 C736 1.388 . S
C738 C739 1.366 . S
C739 C738 1.366 . S
C739 C740 1.414 . S
C739 C742 1.499 . S
C740 H720 0.950 . S
C740 C739 1.414 . S
C740 C741 1.374 . S
C741 H721 0.950 . S
C741 C737 1.385 . S
C741 C740 1.374 . S
C742 C739 1.499 . S
C742 C743 1.373 . S
C742 C744 1.389 . S
C743 H722 0.950 . S
C743 C742 1.373 . S
C743 C759 1.377 . S
C744 C742 1.389 . S
C744 C745 1.524 . S
C744 C758 1.377 . S
C745 C744 1.524 . S
C745 C746 1.397 . S
C745 C750 1.363 . S
C746 H723 0.950 . S
C746 C745 1.397 . S
C746 C747 1.334 . S
C747 H724 0.950 1_545 S
C747 C746 1.334 . S
C747 C748 1.287 . S
C748 C747 1.287 . S
C748 C749 1.524 . S
C748 H767 0.913 1_545 S
C749 H725 0.950 . S
C749 C748 1.524 . S
C749 C750 1.415 . S
C750 H726 0.950 . S
C750 C745 1.363 . S
C750 C749 1.415 . S
C751 H727 0.951 . S
C751 C752 1.366 . S
C751 C753 1.388 . S
C752 C751 1.366 . S
C752 C756 1.385 . S
C753 H728 0.951 . S
C753 C751 1.388 . S
C753 C754 1.366 . S
C754 C753 1.366 . S
C754 C755 1.414 . S
C754 C757 1.499 . S
C755 H729 0.950 . S
C755 C754 1.414 . S
C755 C756 1.374 . S
C756 H730 0.950 . S
C756 C752 1.385 . S
C756 C755 1.374 . S
C757 C754 1.499 . S
C757 C758 1.373 . S
C757 C759 1.389 . S
C758 H731 0.950 . S
C758 C744 1.377 . S
C758 C757 1.373 . S
C759 C743 1.377 . S
C759 C757 1.389 . S
C759 C760 1.524 . S
C760 C759 1.524 . S
C760 C761 1.397 . S
C760 C765 1.363 . S
C761 H732 0.950 . S
C761 C760 1.397 . S
C761 C762 1.334 . S
C762 H733 0.950 . S
C762 C761 1.334 . S
C762 C763 1.287 . S
C763 C762 1.287 . S
C763 C764 1.524 . S
C763 H766 0.999 . S
C764 H734 0.950 . S
C764 C763 1.524 . S
C764 C765 1.415 . S
C765 H735 0.950 . S
C765 C760 1.363 . S
C765 C764 1.415 . S
H766 C763 0.999 . S
H767 C748 0.913 1_565 S
H768 C786 0.951 . S
H769 C788 0.951 . S
H770 C790 0.950 . S
H771 C791 0.950 . S
H772 C793 0.950 . S
H773 C796 0.950 . S
H774 C797 0.950 . S
H775 C799 0.950 . S
H776 C800 0.950 . S
H777 C801 0.951 . S
H778 C803 0.951 . S
H779 C805 0.950 . S
H780 C806 0.950 . S
H781 C808 0.950 . S
H782 C811 0.950 . S
H783 C812 0.950 . S
H784 C814 0.950 . S
H785 C815 0.950 . S
C786 H768 0.951 . S
C786 C787 1.366 . S
C786 C788 1.388 . S
C787 C786 1.366 . S
C787 C791 1.385 . S
C788 H769 0.951 . S
C788 C786 1.388 . S
C788 C789 1.366 . S
C789 C788 1.366 . S
C789 C790 1.414 . S
C789 C792 1.499 . S
C790 H770 0.950 . S
C790 C789 1.414 . S
C790 C791 1.374 . S
C791 H771 0.950 . S
C791 C787 1.385 . S
C791 C790 1.374 . S
C792 C789 1.499 . S
C792 C793 1.373 . S
C792 C794 1.389 . S
C793 H772 0.950 . S
C793 C792 1.373 . S
C793 C809 1.377 . S
C794 C792 1.389 . S
C794 C795 1.524 . S
C794 C808 1.377 . S
C795 C794 1.524 . S
C795 C796 1.397 . S
C795 C800 1.363 . S
C796 H773 0.950 . S
C796 C795 1.397 . S
C796 C797 1.334 . S
C797 H774 0.950 . S
C797 C796 1.334 . S
C797 C798 1.287 . S
C798 C797 1.287 . S
C798 C799 1.524 . S
C798 H817 0.913 . S
C799 H775 0.950 . S
C799 C798 1.524 . S
C799 C800 1.415 . S
C800 H776 0.950 . S
C800 C795 1.363 . S
C800 C799 1.415 . S
C801 H777 0.951 . S
C801 C802 1.366 . S
C801 C803 1.388 . S
C802 C801 1.366 . S
C802 C806 1.385 . S
C803 H778 0.951 . S
C803 C801 1.388 . S
C803 C804 1.366 . S
C804 C803 1.366 . S
C804 C805 1.414 . S
C804 C807 1.499 . S
C805 H779 0.950 . S
C805 C804 1.414 . S
C805 C806 1.374 . S
C806 H780 0.950 . S
C806 C802 1.385 . S
C806 C805 1.374 . S
C807 C804 1.499 . S
C807 C808 1.373 . S
C807 C809 1.389 . S
C808 H781 0.950 . S
C808 C794 1.377 . S
C808 C807 1.373 . S
C809 C793 1.377 . S
C809 C807 1.389 . S
C809 C810 1.524 . S
C810 C809 1.524 . S
C810 C811 1.397 . S
C810 C815 1.363 . S
C811 H782 0.950 . S
C811 C810 1.397 . S
C811 C812 1.334 . S
C812 H783 0.950 . S
C812 C811 1.334 . S
C812 C813 1.287 . S
C813 C812 1.287 . S
C813 C814 1.524 . S
C813 H816 0.999 . S
C814 H784 0.950 . S
C814 C813 1.524 . S
C814 C815 1.415 . S
C815 H785 0.950 . S
C815 C810 1.363 . S
C815 C814 1.415 . S
H816 C813 0.999 . S
H817 C798 0.913 . S
H818 C836 0.951 . S
H819 C838 0.951 . S
H820 C840 0.950 . S
H821 C841 0.950 . S
H822 C843 0.950 . S
H823 C846 0.950 . S
H824 C847 0.950 . S
H825 C849 0.950 . S
H826 C850 0.950 . S
H827 C851 0.951 . S
H828 C853 0.951 . S
H829 C855 0.950 . S
H830 C856 0.950 . S
H831 C858 0.950 . S
H832 C861 0.950 . S
H833 C862 0.950 . S
H834 C864 0.950 . S
H835 C865 0.950 . S
C836 H818 0.951 . S
C836 C837 1.366 . S
C836 C838 1.388 . S
C837 C836 1.366 . S
C837 C841 1.385 . S
C838 H819 0.951 . S
C838 C836 1.388 . S
C838 C839 1.366 . S
C839 C838 1.366 . S
C839 C840 1.414 . S
C839 C842 1.499 . S
C840 H820 0.950 . S
C840 C839 1.414 . S
C840 C841 1.374 . S
C841 H821 0.950 . S
C841 C837 1.385 . S
C841 C840 1.374 . S
C842 C839 1.499 . S
C842 C843 1.373 . S
C842 C844 1.389 . S
C843 H822 0.950 . S
C843 C842 1.373 . S
C843 C859 1.377 . S
C844 C842 1.389 . S
C844 C845 1.524 . S
C844 C858 1.377 . S
C845 C844 1.524 . S
C845 C846 1.397 . S
C845 C850 1.363 . S
C846 H823 0.950 . S
C846 C845 1.397 . S
C846 C847 1.334 . S
C847 H824 0.950 . S
C847 C846 1.334 . S
C847 C848 1.287 . S
C848 C847 1.287 . S
C848 C849 1.524 . S
C848 H867 0.913 . S
C849 H825 0.950 . S
C849 C848 1.524 . S
C849 C850 1.415 . S
C850 H826 0.950 . S
C850 C845 1.363 . S
C850 C849 1.415 . S
C851 H827 0.951 . S
C851 C852 1.366 . S
C851 C853 1.388 . S
C852 C851 1.366 . S
C852 C856 1.385 1_554 S
C853 H828 0.951 . S
C853 C851 1.388 . S
C853 C854 1.366 1_554 S
C854 C853 1.366 1_556 S
C854 C855 1.414 . S
C854 C857 1.499 . S
C855 H829 0.950 . S
C855 C854 1.414 . S
C855 C856 1.374 . S
C856 H830 0.950 . S
C856 C852 1.385 1_556 S
C856 C855 1.374 . S
C857 C854 1.499 . S
C857 C858 1.373 . S
C857 C859 1.389 . S
C858 H831 0.950 . S
C858 C844 1.377 . S
C858 C857 1.373 . S
C859 C843 1.377 . S
C859 C857 1.389 . S
C859 C860 1.524 . S
C860 C859 1.524 . S
C860 C861 1.397 . S
C860 C865 1.363 . S
C861 H832 0.950 . S
C861 C860 1.397 . S
C861 C862 1.334 . S
C862 H833 0.950 . S
C862 C861 1.334 . S
C862 C863 1.287 1_556 S
C863 C862 1.287 1_554 S
C863 C864 1.524 . S
C863 H866 0.999 . S
C864 H834 0.950 . S
C864 C863 1.524 . S
C864 C865 1.415 1_554 S
C865 H835 0.950 . S
C865 C860 1.363 . S
C865 C864 1.415 1_556 S
H866 C863 0.999 . S
H867 C848 0.913 . S
H868 C886 0.951 . S
H869 C888 0.951 . S
H870 C890 0.950 . S
H871 C891 0.950 . S
H872 C893 0.950 . S
H873 C896 0.950 . S
H874 C897 0.950 . S
H875 C899 0.950 . S
H876 C900 0.950 . S
H877 C901 0.951 . S
H878 C903 0.951 . S
H879 C905 0.950 . S
H880 C906 0.950 . S
H881 C908 0.950 . S
H882 C911 0.950 . S
H883 C912 0.950 . S
H884 C914 0.950 . S
H885 C915 0.950 . S
C886 H868 0.951 . S
C886 C887 1.366 . S
C886 C888 1.388 . S
C887 C886 1.366 . S
C887 C891 1.385 . S
C888 H869 0.951 . S
C888 C886 1.388 . S
C888 C889 1.366 . S
C889 C888 1.366 . S
C889 C890 1.414 . S
C889 C892 1.499 . S
C890 H870 0.950 . S
C890 C889 1.414 . S
C890 C891 1.374 . S
C891 H871 0.950 . S
C891 C887 1.385 . S
C891 C890 1.374 . S
C892 C889 1.499 . S
C892 C893 1.373 . S
C892 C894 1.389 . S
C893 H872 0.950 . S
C893 C892 1.373 . S
C893 C909 1.377 . S
C894 C892 1.389 . S
C894 C895 1.524 . S
C894 C908 1.377 . S
C895 C894 1.524 . S
C895 C896 1.397 . S
C895 C900 1.363 . S
C896 H873 0.950 . S
C896 C895 1.397 . S
C896 C897 1.334 . S
C897 H874 0.950 . S
C897 C896 1.334 . S
C897 C898 1.287 . S
C898 C897 1.287 . S
C898 C899 1.524 . S
C898 H917 0.913 . S
C899 H875 0.950 . S
C899 C898 1.524 . S
C899 C900 1.415 . S
C900 H876 0.950 . S
C900 C895 1.363 . S
C900 C899 1.415 . S
C901 H877 0.951 . S
C901 C902 1.366 . S
C901 C903 1.388 . S
C902 C901 1.366 . S
C902 C906 1.385 . S
C903 H878 0.951 . S
C903 C901 1.388 . S
C903 C904 1.366 . S
C904 C903 1.366 . S
C904 C905 1.414 . S
C904 C907 1.499 . S
C905 H879 0.950 . S
C905 C904 1.414 . S
C905 C906 1.374 . S
C906 H880 0.950 . S
C906 C902 1.385 . S
C906 C905 1.374 . S
C907 C904 1.499 . S
C907 C908 1.373 . S
C907 C909 1.389 . S
C908 H881 0.950 . S
C908 C894 1.377 . S
C908 C907 1.373 . S
C909 C893 1.377 . S
C909 C907 1.389 . S
C909 C910 1.524 . S
C910 C909 1.524 . S
C910 C911 1.397 . S
C910 C915 1.363 . S
C911 H882 0.950 . S
C911 C910 1.397 . S
C911 C912 1.334 . S
C912 H883 0.950 . S
C912 C911 1.334 . S
C912 C913 1.287 . S
C913 C912 1.287 . S
C913 C914 1.524 . S
C913 H916 0.999 . S
C914 H884 0.950 . S
C914 C913 1.524 . S
C914 C915 1.415 . S
C915 H885 0.950 . S
C915 C910 1.363 . S
C915 C914 1.415 . S
H916 C913 0.999 . S
H917 C898 0.913 . S
H918 C936 0.951 . S
H919 C938 0.951 . S
H920 C940 0.950 . S
H921 C941 0.950 . S
H922 C943 0.950 . S
H923 C946 0.950 . S
H924 C947 0.950 . S
H925 C949 0.950 . S
H926 C950 0.950 . S
H927 C951 0.951 . S
H928 C953 0.951 . S
H929 C955 0.950 . S
H930 C956 0.950 . S
H931 C958 0.950 . S
H932 C961 0.950 . S
H933 C962 0.950 . S
H934 C964 0.950 . S
H935 C965 0.950 . S
C936 H918 0.951 . S
C936 C937 1.366 . S
C936 C938 1.388 . S
C937 C936 1.366 . S
C937 C941 1.385 . S
C938 H919 0.951 . S
C938 C936 1.388 . S
C938 C939 1.366 . S
C939 C938 1.366 . S
C939 C940 1.414 . S
C939 C942 1.499 . S
C940 H920 0.950 . S
C940 C939 1.414 . S
C940 C941 1.374 . S
C941 H921 0.950 . S
C941 C937 1.385 . S
C941 C940 1.374 . S
C942 C939 1.499 . S
C942 C943 1.373 . S
C942 C944 1.389 . S
C943 H922 0.950 . S
C943 C942 1.373 . S
C943 C959 1.377 . S
C944 C942 1.389 . S
C944 C945 1.524 . S
C944 C958 1.377 . S
C945 C944 1.524 . S
C945 C946 1.397 . S
C945 C950 1.363 . S
C946 H923 0.950 . S
C946 C945 1.397 . S
C946 C947 1.334 . S
C947 H924 0.950 . S
C947 C946 1.334 . S
C947 C948 1.287 . S
C948 C947 1.287 . S
C948 C949 1.524 . S
C948 H967 0.913 . S
C949 H925 0.950 . S
C949 C948 1.524 . S
C949 C950 1.415 . S
C950 H926 0.950 . S
C950 C945 1.363 . S
C950 C949 1.415 . S
C951 H927 0.951 . S
C951 C952 1.366 . S
C951 C953 1.388 . S
C952 C951 1.366 . S
C952 C956 1.385 . S
C953 H928 0.951 . S
C953 C951 1.388 . S
C953 C954 1.366 . S
C954 C953 1.366 . S
C954 C955 1.414 . S
C954 C957 1.499 . S
C955 H929 0.950 . S
C955 C954 1.414 . S
C955 C956 1.374 . S
C956 H930 0.950 . S
C956 C952 1.385 . S
C956 C955 1.374 . S
C957 C954 1.499 . S
C957 C958 1.373 . S
C957 C959 1.389 . S
C958 H931 0.950 . S
C958 C944 1.377 . S
C958 C957 1.373 . S
C959 C943 1.377 . S
C959 C957 1.389 . S
C959 C960 1.524 . S
C960 C959 1.524 . S
C960 C961 1.397 . S
C960 C965 1.363 . S
C961 H932 0.950 . S
C961 C960 1.397 . S
C961 C962 1.334 . S
C962 H933 0.950 . S
C962 C961 1.334 . S
C962 C963 1.287 . S
C963 C962 1.287 . S
C963 C964 1.524 . S
C963 H966 0.999 . S
C964 H934 0.950 . S
C964 C963 1.524 . S
C964 C965 1.415 . S
C965 H935 0.950 . S
C965 C960 1.363 . S
C965 C964 1.415 . S
H966 C963 0.999 . S
H967 C948 0.913 . S
H968 C986 0.951 . S
H969 C988 0.951 . S
H970 C990 0.950 . S
H971 C991 0.950 . S
H972 C993 0.950 . S
H973 C996 0.950 . S
H974 C997 0.950 . S
H975 C999 0.950 . S
H976 C1000 0.950 . S
H977 C1001 0.951 . S
H978 C1003 0.951 . S
H979 C1005 0.950 . S
H980 C1006 0.950 . S
H981 C1008 0.950 . S
H982 C1011 0.950 . S
H983 C1012 0.950 . S
H984 C1014 0.950 . S
H985 C1015 0.950 . S
C986 H968 0.951 . S
C986 C987 1.366 . S
C986 C988 1.388 . S
C987 C986 1.366 . S
C987 C991 1.385 . S
C988 H969 0.951 . S
C988 C986 1.388 . S
C988 C989 1.366 . S
C989 C988 1.366 . S
C989 C990 1.414 . S
C989 C992 1.499 . S
C990 H970 0.950 . S
C990 C989 1.414 . S
C990 C991 1.374 . S
C991 H971 0.950 . S
C991 C987 1.385 . S
C991 C990 1.374 . S
C992 C989 1.499 . S
C992 C993 1.373 . S
C992 C994 1.389 . S
C993 H972 0.950 . S
C993 C992 1.373 . S
C993 C1009 1.377 . S
C994 C992 1.389 . S
C994 C995 1.524 . S
C994 C1008 1.377 . S
C995 C994 1.524 . S
C995 C996 1.397 . S
C995 C1000 1.363 . S
C996 H973 0.950 . S
C996 C995 1.397 . S
C996 C997 1.334 . S
C997 H974 0.950 . S
C997 C996 1.334 . S
C997 C998 1.287 . S
C998 C997 1.287 . S
C998 C999 1.524 . S
C998 H1017 0.913 . S
C999 H975 0.950 . S
C999 C998 1.524 . S
C999 C1000 1.415 . S
C1000 H976 0.950 . S
C1000 C995 1.363 . S
C1000 C999 1.415 . S
C1001 H977 0.951 . S
C1001 C1002 1.366 . S
C1001 C1003 1.388 . S
C1002 C1001 1.366 . S
C1002 C1006 1.385 . S
C1003 H978 0.951 . S
C1003 C1001 1.388 . S
C1003 C1004 1.366 . S
C1004 C1003 1.366 . S
C1004 C1005 1.414 . S
C1004 C1007 1.499 . S
C1005 H979 0.950 . S
C1005 C1004 1.414 . S
C1005 C1006 1.374 . S
C1006 H980 0.950 . S
C1006 C1002 1.385 . S
C1006 C1005 1.374 . S
C1007 C1004 1.499 . S
C1007 C1008 1.373 . S
C1007 C1009 1.389 . S
C1008 H981 0.950 . S
C1008 C994 1.377 . S
C1008 C1007 1.373 . S
C1009 C993 1.377 . S
C1009 C1007 1.389 . S
C1009 C1010 1.524 . S
C1010 C1009 1.524 . S
C1010 C1011 1.397 . S
C1010 C1015 1.363 . S
C1011 H982 0.950 . S
C1011 C1010 1.397 . S
C1011 C1012 1.334 . S
C1012 H983 0.950 . S
C1012 C1011 1.334 . S
C1012 C1013 1.287 . S
C1013 C1012 1.287 . S
C1013 C1014 1.524 . S
C1013 H1016 0.999 . S
C1014 H984 0.950 . S
C1014 C1013 1.524 . S
C1014 C1015 1.415 . S
C1015 H985 0.950 . S
C1015 C1010 1.363 . S
C1015 C1014 1.415 . S
H1016 C1013 0.999 . S
H1017 C998 0.913 . S
H1018 C1036 0.951 . S
H1019 C1038 0.951 . S
H1020 C1040 0.950 . S
H1021 C1041 0.950 . S
H1022 C1043 0.950 . S
H1023 C1046 0.950 . S
H1024 C1047 0.950 . S
H1025 C1049 0.950 . S
H1026 C1050 0.950 . S
H1027 C1051 0.951 . S
H1028 C1053 0.951 . S
H1029 C1055 0.950 . S
H1030 C1056 0.950 . S
H1031 C1058 0.950 . S
H1032 C1061 0.950 . S
H1033 C1062 0.950 . S
H1034 C1064 0.950 . S
H1035 C1065 0.950 . S
C1036 H1018 0.951 . S
C1036 C1037 1.366 . S
C1036 C1038 1.388 . S
C1037 C1036 1.366 . S
C1037 C1041 1.385 . S
C1038 H1019 0.951 . S
C1038 C1036 1.388 . S
C1038 C1039 1.366 . S
C1039 C1038 1.366 . S
C1039 C1040 1.414 . S
C1039 C1042 1.499 . S
C1040 H1020 0.950 . S
C1040 C1039 1.414 . S
C1040 C1041 1.374 . S
C1041 H1021 0.950 . S
C1041 C1037 1.385 . S
C1041 C1040 1.374 . S
C1042 C1039 1.499 . S
C1042 C1043 1.373 . S
C1042 C1044 1.389 . S
C1043 H1022 0.950 . S
C1043 C1042 1.373 . S
C1043 C1059 1.377 . S
C1044 C1042 1.389 . S
C1044 C1045 1.524 . S
C1044 C1058 1.377 . S
C1045 C1044 1.524 . S
C1045 C1046 1.397 . S
C1045 C1050 1.363 . S
C1046 H1023 0.950 . S
C1046 C1045 1.397 . S
C1046 C1047 1.334 . S
C1047 H1024 0.950 . S
C1047 C1046 1.334 . S
C1047 C1048 1.287 . S
C1048 C1047 1.287 . S
C1048 C1049 1.524 . S
C1048 H1067 0.913 . S
C1049 H1025 0.950 . S
C1049 C1048 1.524 . S
C1049 C1050 1.415 . S
C1050 H1026 0.950 . S
C1050 C1045 1.363 . S
C1050 C1049 1.415 . S
C1051 H1027 0.951 . S
C1051 C1052 1.366 . S
C1051 C1053 1.388 . S
C1052 C1051 1.366 . S
C1052 C1056 1.385 . S
C1053 H1028 0.951 . S
C1053 C1051 1.388 . S
C1053 C1054 1.366 . S
C1054 C1053 1.366 . S
C1054 C1055 1.414 . S
C1054 C1057 1.499 . S
C1055 H1029 0.950 . S
C1055 C1054 1.414 . S
C1055 C1056 1.374 . S
C1056 H1030 0.950 . S
C1056 C1052 1.385 . S
C1056 C1055 1.374 . S
C1057 C1054 1.499 . S
C1057 C1058 1.373 . S
C1057 C1059 1.389 . S
C1058 H1031 0.950 . S
C1058 C1044 1.377 . S
C1058 C1057 1.373 . S
C1059 C1043 1.377 . S
C1059 C1057 1.389 . S
C1059 C1060 1.524 . S
C1060 C1059 1.524 . S
C1060 C1061 1.397 . S
C1060 C1065 1.363 . S
C1061 H1032 0.950 . S
C1061 C1060 1.397 . S
C1061 C1062 1.334 . S
C1062 H1033 0.950 . S
C1062 C1061 1.334 . S
C1062 C1063 1.287 . S
C1063 C1062 1.287 . S
C1063 C1064 1.524 . S
C1063 H1066 0.999 . S
C1064 H1034 0.950 . S
C1064 C1063 1.524 . S
C1064 C1065 1.415 . S
C1065 H1035 0.950 . S
C1065 C1060 1.363 . S
C1065 C1064 1.415 . S
H1066 C1063 0.999 . S
H1067 C1048 0.913 . S
H1068 C1086 0.951 . S
H1069 C1088 0.951 . S
H1070 C1090 0.950 . S
H1071 C1091 0.950 . S
H1072 C1093 0.950 . S
H1073 C1096 0.950 . S
H1074 C1097 0.950 . S
H1075 C1099 0.950 . S
H1076 C1100 0.950 . S
H1077 C1101 0.951 . S
H1078 C1103 0.951 . S
H1079 C1105 0.950 . S
H1080 C1106 0.950 . S
H1081 C1108 0.950 . S
H1082 C1111 0.950 . S
H1083 C1112 0.950 . S
H1084 C1114 0.950 . S
H1085 C1115 0.950 . S
C1086 H1068 0.951 . S
C1086 C1087 1.366 . S
C1086 C1088 1.388 . S
C1087 C1086 1.366 . S
C1087 C1091 1.385 . S
C1088 H1069 0.951 . S
C1088 C1086 1.388 . S
C1088 C1089 1.366 . S
C1089 C1088 1.366 . S
C1089 C1090 1.414 . S
C1089 C1092 1.499 . S
C1090 H1070 0.950 . S
C1090 C1089 1.414 . S
C1090 C1091 1.374 . S
C1091 H1071 0.950 . S
C1091 C1087 1.385 . S
C1091 C1090 1.374 . S
C1092 C1089 1.499 . S
C1092 C1093 1.373 . S
C1092 C1094 1.389 . S
C1093 H1072 0.950 . S
C1093 C1092 1.373 . S
C1093 C1109 1.377 . S
C1094 C1092 1.389 . S
C1094 C1095 1.524 . S
C1094 C1108 1.377 . S
C1095 C1094 1.524 . S
C1095 C1096 1.397 . S
C1095 C1100 1.363 . S
C1096 H1073 0.950 . S
C1096 C1095 1.397 . S
C1096 C1097 1.334 . S
C1097 H1074 0.950 . S
C1097 C1096 1.334 . S
C1097 C1098 1.287 . S
C1098 C1097 1.287 . S
C1098 C1099 1.524 . S
C1098 H1117 0.913 . S
C1099 H1075 0.950 . S
C1099 C1098 1.524 . S
C1099 C1100 1.415 . S
C1100 H1076 0.950 . S
C1100 C1095 1.363 . S
C1100 C1099 1.415 . S
C1101 H1077 0.951 . S
C1101 C1102 1.366 . S
C1101 C1103 1.388 . S
C1102 C1101 1.366 . S
C1102 C1106 1.385 . S
C1103 H1078 0.951 . S
C1103 C1101 1.388 . S
C1103 C1104 1.366 . S
C1104 C1103 1.366 . S
C1104 C1105 1.414 . S
C1104 C1107 1.499 . S
C1105 H1079 0.950 . S
C1105 C1104 1.414 . S
C1105 C1106 1.374 . S
C1106 H1080 0.950 . S
C1106 C1102 1.385 . S
C1106 C1105 1.374 . S
C1107 C1104 1.499 . S
C1107 C1108 1.373 . S
C1107 C1109 1.389 . S
C1108 H1081 0.950 . S
C1108 C1094 1.377 . S
C1108 C1107 1.373 . S
C1109 C1093 1.377 . S
C1109 C1107 1.389 . S
C1109 C1110 1.524 . S
C1110 C1109 1.524 . S
C1110 C1111 1.397 . S
C1110 C1115 1.363 . S
C1111 H1082 0.950 . S
C1111 C1110 1.397 . S
C1111 C1112 1.334 . S
C1112 H1083 0.950 . S
C1112 C1111 1.334 . S
C1112 C1113 1.287 . S
C1113 C1112 1.287 . S
C1113 C1114 1.524 . S
C1113 H1116 0.999 . S
C1114 H1084 0.950 . S
C1114 C1113 1.524 . S
C1114 C1115 1.415 . S
C1115 H1085 0.950 . S
C1115 C1110 1.363 . S
C1115 C1114 1.415 . S
H1116 C1113 0.999 . S
H1117 C1098 0.913 . S
H1118 C1136 0.951 . S
H1119 C1138 0.951 . S
H1120 C1140 0.950 . S
H1121 C1141 0.950 . S
H1122 C1143 0.950 . S
H1123 C1146 0.950 . S
H1124 C1147 0.950 . S
H1125 C1149 0.950 . S
H1126 C1150 0.950 . S
H1127 C1151 0.951 . S
H1128 C1153 0.951 . S
H1129 C1155 0.950 . S
H1130 C1156 0.950 . S
H1131 C1158 0.950 . S
H1132 C1161 0.950 . S
H1133 C1162 0.950 . S
H1134 C1164 0.950 . S
H1135 C1165 0.950 . S
C1136 H1118 0.951 . S
C1136 C1137 1.366 . S
C1136 C1138 1.388 . S
C1137 C1136 1.366 . S
C1137 C1141 1.385 . S
C1138 H1119 0.951 . S
C1138 C1136 1.388 . S
C1138 C1139 1.366 . S
C1139 C1138 1.366 . S
C1139 C1140 1.414 . S
C1139 C1142 1.499 . S
C1140 H1120 0.950 . S
C1140 C1139 1.414 . S
C1140 C1141 1.374 . S
C1141 H1121 0.950 . S
C1141 C1137 1.385 . S
C1141 C1140 1.374 . S
C1142 C1139 1.499 . S
C1142 C1143 1.373 . S
C1142 C1144 1.389 . S
C1143 H1122 0.950 . S
C1143 C1142 1.373 . S
C1143 C1159 1.377 . S
C1144 C1142 1.389 . S
C1144 C1145 1.524 . S
C1144 C1158 1.377 . S
C1145 C1144 1.524 . S
C1145 C1146 1.397 . S
C1145 C1150 1.363 . S
C1146 H1123 0.950 . S
C1146 C1145 1.397 . S
C1146 C1147 1.334 . S
C1147 H1124 0.950 . S
C1147 C1146 1.334 . S
C1147 C1148 1.287 . S
C1148 C1147 1.287 . S
C1148 C1149 1.524 . S
C1148 H1167 0.913 . S
C1149 H1125 0.950 . S
C1149 C1148 1.524 . S
C1149 C1150 1.415 . S
C1150 H1126 0.950 . S
C1150 C1145 1.363 . S
C1150 C1149 1.415 . S
C1151 H1127 0.951 . S
C1151 C1152 1.366 . S
C1151 C1153 1.388 . S
C1152 C1151 1.366 . S
C1152 C1156 1.385 . S
C1153 H1128 0.951 . S
C1153 C1151 1.388 . S
C1153 C1154 1.366 . S
C1154 C1153 1.366 . S
C1154 C1155 1.414 . S
C1154 C1157 1.499 . S
C1155 H1129 0.950 . S
C1155 C1154 1.414 . S
C1155 C1156 1.374 . S
C1156 H1130 0.950 . S
C1156 C1152 1.385 . S
C1156 C1155 1.374 . S
C1157 C1154 1.499 . S
C1157 C1158 1.373 . S
C1157 C1159 1.389 . S
C1158 H1131 0.950 . S
C1158 C1144 1.377 . S
C1158 C1157 1.373 . S
C1159 C1143 1.377 . S
C1159 C1157 1.389 . S
C1159 C1160 1.524 . S
C1160 C1159 1.524 . S
C1160 C1161 1.397 . S
C1160 C1165 1.363 . S
C1161 H1132 0.950 . S
C1161 C1160 1.397 . S
C1161 C1162 1.334 . S
C1162 H1133 0.950 . S
C1162 C1161 1.334 . S
C1162 C1163 1.287 . S
C1163 C1162 1.287 . S
C1163 C1164 1.524 . S
C1163 H1166 0.999 . S
C1164 H1134 0.950 . S
C1164 C1163 1.524 . S
C1164 C1165 1.415 . S
C1165 H1135 0.950 . S
C1165 C1160 1.363 . S
C1165 C1164 1.415 . S
H1166 C1163 0.999 . S
H1167 C1148 0.913 . S
H1168 C1186 0.951 . S
H1169 C1188 0.951 . S
H1170 C1190 0.950 . S
H1171 C1191 0.950 . S
H1172 C1193 0.950 . S
H1173 C1196 0.950 . S
H1174 C1197 0.950 . S
H1175 C1199 0.950 . S
H1176 C1200 0.950 . S
H1177 C1201 0.951 . S
H1178 C1203 0.951 . S
H1179 C1205 0.950 . S
H1180 C1206 0.950 . S
H1181 C1208 0.950 . S
H1182 C1211 0.950 . S
H1183 C1212 0.950 . S
H1184 C1214 0.950 . S
H1185 C1215 0.950 . S
C1186 H1168 0.951 . S
C1186 C1187 1.366 . S
C1186 C1188 1.388 . S
C1187 C1186 1.366 . S
C1187 C1191 1.385 . S
C1188 H1169 0.951 . S
C1188 C1186 1.388 . S
C1188 C1189 1.366 . S
C1189 C1188 1.366 . S
C1189 C1190 1.414 . S
C1189 C1192 1.499 . S
C1190 H1170 0.950 . S
C1190 C1189 1.414 . S
C1190 C1191 1.374 . S
C1191 H1171 0.950 . S
C1191 C1187 1.385 . S
C1191 C1190 1.374 . S
C1192 C1189 1.499 . S
C1192 C1193 1.373 . S
C1192 C1194 1.389 . S
C1193 H1172 0.950 . S
C1193 C1192 1.373 . S
C1193 C1209 1.377 . S
C1194 C1192 1.389 . S
C1194 C1195 1.524 . S
C1194 C1208 1.377 . S
C1195 C1194 1.524 . S
C1195 C1196 1.397 . S
C1195 C1200 1.363 . S
C1196 H1173 0.950 . S
C1196 C1195 1.397 . S
C1196 C1197 1.334 . S
C1197 H1174 0.950 . S
C1197 C1196 1.334 . S
C1197 C1198 1.287 . S
C1198 C1197 1.287 . S
C1198 C1199 1.524 . S
C1198 H1217 0.913 . S
C1199 H1175 0.950 . S
C1199 C1198 1.524 . S
C1199 C1200 1.415 . S
C1200 H1176 0.950 . S
C1200 C1195 1.363 . S
C1200 C1199 1.415 . S
C1201 H1177 0.951 . S
C1201 C1202 1.366 . S
C1201 C1203 1.388 . S
C1202 C1201 1.366 . S
C1202 C1206 1.385 . S
C1203 H1178 0.951 . S
C1203 C1201 1.388 . S
C1203 C1204 1.366 . S
C1204 C1203 1.366 . S
C1204 C1205 1.414 . S
C1204 C1207 1.499 . S
C1205 H1179 0.950 . S
C1205 C1204 1.414 . S
C1205 C1206 1.374 . S
C1206 H1180 0.950 . S
C1206 C1202 1.385 . S
C1206 C1205 1.374 . S
C1207 C1204 1.499 . S
C1207 C1208 1.373 . S
C1207 C1209 1.389 . S
C1208 H1181 0.950 . S
C1208 C1194 1.377 . S
C1208 C1207 1.373 . S
C1209 C1193 1.377 . S
C1209 C1207 1.389 . S
C1209 C1210 1.524 . S
C1210 C1209 1.524 . S
C1210 C1211 1.397 . S
C1210 C1215 1.363 . S
C1211 H1182 0.950 . S
C1211 C1210 1.397 . S
C1211 C1212 1.334 . S
C1212 H1183 0.950 . S
C1212 C1211 1.334 . S
C1212 C1213 1.287 . S
C1213 C1212 1.287 . S
C1213 C1214 1.524 . S
C1213 H1216 0.999 . S
C1214 H1184 0.950 . S
C1214 C1213 1.524 . S
C1214 C1215 1.415 . S
C1215 H1185 0.950 . S
C1215 C1210 1.363 . S
C1215 C1214 1.415 . S
H1216 C1213 0.999 . S
H1217 C1198 0.913 . S
H1218 C1236 0.951 . S
H1219 C1238 0.951 . S
H1220 C1240 0.950 . S
H1221 C1241 0.950 . S
H1222 C1243 0.950 . S
H1223 C1246 0.950 . S
H1224 C1247 0.950 . S
H1225 C1249 0.950 . S
H1226 C1250 0.950 . S
H1227 C1251 0.951 . S
H1228 C1253 0.951 . S
H1229 C1255 0.950 . S
H1230 C1256 0.950 . S
H1231 C1258 0.950 . S
H1232 C1261 0.950 . S
H1233 C1262 0.950 . S
H1234 C1264 0.950 . S
H1235 C1265 0.950 . S
C1236 H1218 0.951 . S
C1236 C1237 1.366 . S
C1236 C1238 1.388 . S
C1237 C1236 1.366 . S
C1237 C1241 1.385 . S
C1238 H1219 0.951 . S
C1238 C1236 1.388 . S
C1238 C1239 1.366 . S
C1239 C1238 1.366 . S
C1239 C1240 1.414 . S
C1239 C1242 1.499 . S
C1240 H1220 0.950 . S
C1240 C1239 1.414 . S
C1240 C1241 1.374 . S
C1241 H1221 0.950 . S
C1241 C1237 1.385 . S
C1241 C1240 1.374 . S
C1242 C1239 1.499 . S
C1242 C1243 1.373 . S
C1242 C1244 1.389 . S
C1243 H1222 0.950 . S
C1243 C1242 1.373 . S
C1243 C1259 1.377 . S
C1244 C1242 1.389 . S
C1244 C1245 1.524 . S
C1244 C1258 1.377 . S
C1245 C1244 1.524 . S
C1245 C1246 1.397 . S
C1245 C1250 1.363 . S
C1246 H1223 0.950 . S
C1246 C1245 1.397 . S
C1246 C1247 1.334 . S
C1247 H1224 0.950 . S
C1247 C1246 1.334 . S
C1247 C1248 1.287 . S
C1248 C1247 1.287 . S
C1248 C1249 1.524 . S
C1248 H1267 0.913 . S
C1249 H1225 0.950 . S
C1249 C1248 1.524 . S
C1249 C1250 1.415 . S
C1250 H1226 0.950 . S
C1250 C1245 1.363 . S
C1250 C1249 1.415 . S
C1251 H1227 0.951 . S
C1251 C1252 1.366 . S
C1251 C1253 1.388 . S
C1252 C1251 1.366 . S
C1252 C1256 1.385 . S
C1253 H1228 0.951 . S
C1253 C1251 1.388 . S
C1253 C1254 1.366 . S
C1254 C1253 1.366 . S
C1254 C1255 1.414 . S
C1254 C1257 1.499 . S
C1255 H1229 0.950 . S
C1255 C1254 1.414 . S
C1255 C1256 1.374 . S
C1256 H1230 0.950 . S
C1256 C1252 1.385 . S
C1256 C1255 1.374 . S
C1257 C1254 1.499 . S
C1257 C1258 1.373 . S
C1257 C1259 1.389 . S
C1258 H1231 0.950 . S
C1258 C1244 1.377 . S
C1258 C1257 1.373 . S
C1259 C1243 1.377 . S
C1259 C1257 1.389 . S
C1259 C1260 1.524 . S
C1260 C1259 1.524 . S
C1260 C1261 1.397 . S
C1260 C1265 1.363 . S
C1261 H1232 0.950 . S
C1261 C1260 1.397 . S
C1261 C1262 1.334 . S
C1262 H1233 0.950 . S
C1262 C1261 1.334 . S
C1262 C1263 1.287 . S
C1263 C1262 1.287 . S
C1263 C1264 1.524 . S
C1263 H1266 0.999 . S
C1264 H1234 0.950 . S
C1264 C1263 1.524 . S
C1264 C1265 1.415 . S
C1265 H1235 0.950 . S
C1265 C1260 1.363 . S
C1265 C1264 1.415 . S
H1266 C1263 0.999 . S
H1267 C1248 0.913 . S
H1268 C1286 0.951 . S
H1269 C1288 0.951 . S
H1270 C1290 0.950 . S
H1271 C1291 0.950 . S
H1272 C1293 0.950 . S
H1273 C1296 0.950 . S
H1274 C1297 0.950 . S
H1275 C1299 0.950 . S
H1276 C1300 0.950 . S
H1277 C1301 0.951 . S
H1278 C1303 0.951 . S
H1279 C1305 0.950 . S
H1280 C1306 0.950 . S
H1281 C1308 0.950 . S
H1282 C1311 0.950 . S
H1283 C1312 0.950 . S
H1284 C1314 0.950 . S
H1285 C1315 0.950 . S
C1286 H1268 0.951 . S
C1286 C1287 1.366 . S
C1286 C1288 1.388 . S
C1287 C1286 1.366 . S
C1287 C1291 1.385 . S
C1288 H1269 0.951 . S
C1288 C1286 1.388 . S
C1288 C1289 1.366 . S
C1289 C1288 1.366 . S
C1289 C1290 1.414 . S
C1289 C1292 1.499 . S
C1290 H1270 0.950 . S
C1290 C1289 1.414 . S
C1290 C1291 1.374 . S
C1291 H1271 0.950 . S
C1291 C1287 1.385 . S
C1291 C1290 1.374 . S
C1292 C1289 1.499 . S
C1292 C1293 1.373 . S
C1292 C1294 1.389 . S
C1293 H1272 0.950 . S
C1293 C1292 1.373 . S
C1293 C1309 1.377 . S
C1294 C1292 1.389 . S
C1294 C1295 1.524 . S
C1294 C1308 1.377 . S
C1295 C1294 1.524 . S
C1295 C1296 1.397 . S
C1295 C1300 1.363 . S
C1296 H1273 0.950 . S
C1296 C1295 1.397 . S
C1296 C1297 1.334 . S
C1297 H1274 0.950 . S
C1297 C1296 1.334 . S
C1297 C1298 1.287 . S
C1298 C1297 1.287 . S
C1298 C1299 1.524 . S
C1298 H1317 0.913 . S
C1299 H1275 0.950 . S
C1299 C1298 1.524 . S
C1299 C1300 1.415 . S
C1300 H1276 0.950 . S
C1300 C1295 1.363 . S
C1300 C1299 1.415 . S
C1301 H1277 0.951 . S
C1301 C1302 1.366 . S
C1301 C1303 1.388 . S
C1302 C1301 1.366 . S
C1302 C1306 1.385 . S
C1303 H1278 0.951 . S
C1303 C1301 1.388 . S
C1303 C1304 1.366 . S
C1304 C1303 1.366 . S
C1304 C1305 1.414 . S
C1304 C1307 1.499 . S
C1305 H1279 0.950 . S
C1305 C1304 1.414 . S
C1305 C1306 1.374 . S
C1306 H1280 0.950 . S
C1306 C1302 1.385 . S
C1306 C1305 1.374 . S
C1307 C1304 1.499 . S
C1307 C1308 1.373 . S
C1307 C1309 1.389 . S
C1308 H1281 0.950 . S
C1308 C1294 1.377 . S
C1308 C1307 1.373 . S
C1309 C1293 1.377 . S
C1309 C1307 1.389 . S
C1309 C1310 1.524 . S
C1310 C1309 1.524 . S
C1310 C1311 1.397 . S
C1310 C1315 1.363 . S
C1311 H1282 0.950 . S
C1311 C1310 1.397 . S
C1311 C1312 1.334 . S
C1312 H1283 0.950 . S
C1312 C1311 1.334 . S
C1312 C1313 1.287 . S
C1313 C1312 1.287 . S
C1313 C1314 1.524 . S
C1313 H1316 0.999 . S
C1314 H1284 0.950 . S
C1314 C1313 1.524 . S
C1314 C1315 1.415 . S
C1315 H1285 0.950 . S
C1315 C1310 1.363 . S
C1315 C1314 1.415 . S
H1316 C1313 0.999 . S
H1317 C1298 0.913 . S
H1318 C1336 0.951 . S
H1319 C1338 0.951 . S
H1320 C1340 0.950 . S
H1321 C1341 0.950 . S
H1322 C1343 0.950 . S
H1323 C1346 0.950 . S
H1324 C1347 0.950 . S
H1325 C1349 0.950 . S
H1326 C1350 0.950 . S
H1327 C1351 0.951 . S
H1328 C1353 0.951 . S
H1329 C1355 0.950 . S
H1330 C1356 0.950 . S
H1331 C1358 0.950 . S
H1332 C1361 0.950 . S
H1333 C1362 0.950 . S
H1334 C1364 0.950 . S
H1335 C1365 0.950 . S
C1336 H1318 0.951 . S
C1336 C1337 1.366 . S
C1336 C1338 1.388 . S
C1337 C1336 1.366 . S
C1337 C1341 1.385 . S
C1338 H1319 0.951 . S
C1338 C1336 1.388 . S
C1338 C1339 1.366 . S
C1339 C1338 1.366 . S
C1339 C1340 1.414 . S
C1339 C1342 1.499 . S
C1340 H1320 0.950 . S
C1340 C1339 1.414 . S
C1340 C1341 1.374 . S
C1341 H1321 0.950 . S
C1341 C1337 1.385 . S
C1341 C1340 1.374 . S
C1342 C1339 1.499 . S
C1342 C1343 1.373 . S
C1342 C1344 1.389 . S
C1343 H1322 0.950 . S
C1343 C1342 1.373 . S
C1343 C1359 1.377 . S
C1344 C1342 1.389 . S
C1344 C1345 1.524 . S
C1344 C1358 1.377 . S
C1345 C1344 1.524 . S
C1345 C1346 1.397 . S
C1345 C1350 1.363 . S
C1346 H1323 0.950 . S
C1346 C1345 1.397 . S
C1346 C1347 1.334 . S
C1347 H1324 0.950 . S
C1347 C1346 1.334 . S
C1347 C1348 1.287 . S
C1348 C1347 1.287 . S
C1348 C1349 1.524 . S
C1348 H1367 0.913 . S
C1349 H1325 0.950 . S
C1349 C1348 1.524 . S
C1349 C1350 1.415 . S
C1350 H1326 0.950 . S
C1350 C1345 1.363 . S
C1350 C1349 1.415 . S
C1351 H1327 0.951 . S
C1351 C1352 1.366 . S
C1351 C1353 1.388 . S
C1352 C1351 1.366 . S
C1352 C1356 1.385 . S
C1353 H1328 0.951 . S
C1353 C1351 1.388 . S
C1353 C1354 1.366 . S
C1354 C1353 1.366 . S
C1354 C1355 1.414 . S
C1354 C1357 1.499 . S
C1355 H1329 0.950 . S
C1355 C1354 1.414 . S
C1355 C1356 1.374 . S
C1356 H1330 0.950 . S
C1356 C1352 1.385 . S
C1356 C1355 1.374 . S
C1357 C1354 1.499 . S
C1357 C1358 1.373 . S
C1357 C1359 1.389 . S
C1358 H1331 0.950 . S
C1358 C1344 1.377 . S
C1358 C1357 1.373 . S
C1359 C1343 1.377 . S
C1359 C1357 1.389 . S
C1359 C1360 1.524 . S
C1360 C1359 1.524 . S
C1360 C1361 1.397 . S
C1360 C1365 1.363 . S
C1361 H1332 0.950 . S
C1361 C1360 1.397 . S
C1361 C1362 1.334 . S
C1362 H1333 0.950 . S
C1362 C1361 1.334 . S
C1362 C1363 1.287 . S
C1363 C1362 1.287 . S
C1363 C1364 1.524 . S
C1363 H1366 0.999 . S
C1364 H1334 0.950 . S
C1364 C1363 1.524 . S
C1364 C1365 1.415 . S
C1365 H1335 0.950 . S
C1365 C1360 1.363 . S
C1365 C1364 1.415 . S
H1366 C1363 0.999 . S
H1367 C1348 0.913 . S
C187 C120 1.348 . S
C202 C8 1.348 . S
C237 C22 1.348 . S
C252 C134 1.348 . S
C287 C36 1.348 . S
C302 C148 1.347 . S
C337 C50 1.347 . S
C352 C162 1.348 . S
C387 C92 1.348 . S
C402 C64 1.348 . S
C437 C78 1.347 . S
C452 C106 1.347 . S
C487 C7 1.484 . S
C502 C73 1.504 . S
C537 C21 1.484 . S
C552 C3 1.505 1_655 S
C587 C35 1.484 . S
C602 C17 1.504 1_565 S
C637 C31 1.504 . S
C652 C49 1.485 . S
C687 C45 1.504 1_455 S
C702 C63 1.484 . S
C737 C59 1.505 1_545 S
C752 C77 1.484 . S
C787 C101 1.504 . S
C802 C91 1.484 . S
C837 C105 1.484 . S
C852 C115 1.504 1_655 S
C887 C129 1.504 1_565 S
C902 C119 1.484 . S
C937 C133 1.484 . S
C952 C143 1.505 . S
C987 C147 1.484 . S
C1002 C157 1.504 1_455 S
C1037 C161 1.484 . S
C1052 C87 1.504 1_545 S
C1087 C149 1.202 . S
C1102 C9 1.201 . S
C1137 C163 1.201 . S
C1152 C23 1.202 . S
C1187 C93 1.201 . S
C1202 C37 1.201 . S
C1237 C51 1.201 . S
C1252 C107 1.201 . S
C1287 C65 1.201 . S
C1302 C121 1.187 1_556 S
C1337 C135 1.201 . S
C1352 C79 1.186 1_554 S
