# Generated by pormake.
# Topology gis, (4)-cn, num edge types: 1
# Building blocks:
#     Node 0, Type 0, BuildingBlock: ICAMEG_clean_sbu_1, # of connection points: 4
#     Node 1, Type 0, BuildingBlock: ICAMEG_clean_sbu_1, # of connection points: 4
#     Node 2, Type 0, BuildingBlock: ICAMEG_clean_sbu_1, # of connection points: 4
#     Node 3, Type 0, BuildingBlock: ICAMEG_clean_sbu_1, # of connection points: 4
#     Node 4, Type 0, BuildingBlock: ICAMEG_clean_sbu_1, # of connection points: 4
#     Node 5, Type 0, BuildingBlock: ICAMEG_clean_sbu_1, # of connection points: 4
#     Node 6, Type 0, BuildingBlock: ICAMEG_clean_sbu_1, # of connection points: 4
#     Node 7, Type 0, BuildingBlock: ICAMEG_clean_sbu_1, # of connection points: 4
#     Node 8, Type 0, BuildingBlock: ICAMEG_clean_sbu_1, # of connection points: 4
#     Node 9, Type 0, BuildingBlock: ICAMEG_clean_sbu_1, # of connection points: 4
#     Node 10, Type 0, BuildingBlock: ICAMEG_clean_sbu_1, # of connection points: 4
#     Node 11, Type 0, BuildingBlock: ICAMEG_clean_sbu_1, # of connection points: 4
#     Node 12, Type 0, BuildingBlock: ICAMEG_clean_sbu_1, # of connection points: 4
#     Node 13, Type 0, BuildingBlock: ICAMEG_clean_sbu_1, # of connection points: 4
#     Node 14, Type 0, BuildingBlock: ICAMEG_clean_sbu_1, # of connection points: 4
#     Node 15, Type 0, BuildingBlock: ICAMEG_clean_sbu_1, # of connection points: 4
#     Edge 16, Type (0, 0), BuildingBlock: OJICUG_clean_linker_0, # of connection points: 2
#     Edge 17, Type (0, 0), BuildingBlock: OJICUG_clean_linker_0, # of connection points: 2
#     Edge 18, Type (0, 0), BuildingBlock: OJICUG_clean_linker_0, # of connection points: 2
#     Edge 19, Type (0, 0), BuildingBlock: OJICUG_clean_linker_0, # of connection points: 2
#     Edge 20, Type (0, 0), BuildingBlock: OJICUG_clean_linker_0, # of connection points: 2
#     Edge 21, Type (0, 0), BuildingBlock: OJICUG_clean_linker_0, # of connection points: 2
#     Edge 22, Type (0, 0), BuildingBlock: OJICUG_clean_linker_0, # of connection points: 2
#     Edge 23, Type (0, 0), BuildingBlock: OJICUG_clean_linker_0, # of connection points: 2
#     Edge 24, Type (0, 0), BuildingBlock: OJICUG_clean_linker_0, # of connection points: 2
#     Edge 25, Type (0, 0), BuildingBlock: OJICUG_clean_linker_0, # of connection points: 2
#     Edge 26, Type (0, 0), BuildingBlock: OJICUG_clean_linker_0, # of connection points: 2
#     Edge 27, Type (0, 0), BuildingBlock: OJICUG_clean_linker_0, # of connection points: 2
#     Edge 28, Type (0, 0), BuildingBlock: OJICUG_clean_linker_0, # of connection points: 2
#     Edge 29, Type (0, 0), BuildingBlock: OJICUG_clean_linker_0, # of connection points: 2
#     Edge 30, Type (0, 0), BuildingBlock: OJICUG_clean_linker_0, # of connection points: 2
#     Edge 31, Type (0, 0), BuildingBlock: OJICUG_clean_linker_0, # of connection points: 2
#     Edge 32, Type (0, 0), BuildingBlock: OJICUG_clean_linker_0, # of connection points: 2
#     Edge 33, Type (0, 0), BuildingBlock: OJICUG_clean_linker_0, # of connection points: 2
#     Edge 34, Type (0, 0), BuildingBlock: OJICUG_clean_linker_0, # of connection points: 2
#     Edge 35, Type (0, 0), BuildingBlock: OJICUG_clean_linker_0, # of connection points: 2
#     Edge 36, Type (0, 0), BuildingBlock: OJICUG_clean_linker_0, # of connection points: 2
#     Edge 37, Type (0, 0), BuildingBlock: OJICUG_clean_linker_0, # of connection points: 2
#     Edge 38, Type (0, 0), BuildingBlock: OJICUG_clean_linker_0, # of connection points: 2
#     Edge 39, Type (0, 0), BuildingBlock: OJICUG_clean_linker_0, # of connection points: 2
#     Edge 40, Type (0, 0), BuildingBlock: OJICUG_clean_linker_0, # of connection points: 2
#     Edge 41, Type (0, 0), BuildingBlock: OJICUG_clean_linker_0, # of connection points: 2
#     Edge 42, Type (0, 0), BuildingBlock: OJICUG_clean_linker_0, # of connection points: 2
#     Edge 43, Type (0, 0), BuildingBlock: OJICUG_clean_linker_0, # of connection points: 2
#     Edge 44, Type (0, 0), BuildingBlock: OJICUG_clean_linker_0, # of connection points: 2
#     Edge 45, Type (0, 0), BuildingBlock: OJICUG_clean_linker_0, # of connection points: 2
#     Edge 46, Type (0, 0), BuildingBlock: OJICUG_clean_linker_0, # of connection points: 2
#     Edge 47, Type (0, 0), BuildingBlock: OJICUG_clean_linker_0, # of connection points: 2
# Relax obj value: 0.027
# Max RMSD: 0.087
# Mean RMSD: 0.087
data_MOF--net-gis--node1-ICAMEG_clean_sbu_1--edge1-OJICUG_clean_linker_0
_symmetry_space_group_name_H-M    P1
_symmetry_Int_Tables_number       1
_symmetry_cell_setting            triclinic
loop_
_symmetry_equiv_pos_as_xyz
'x, y, z'
_cell_length_a     43.152081
_cell_length_b     43.12715
_cell_length_c     26.888155
_cell_angle_alpha  90.078162
_cell_angle_beta   90.046271
_cell_angle_gamma 89.999398
loop_
_atom_site_label
_atom_site_type_symbol
_atom_site_fract_x
_atom_site_fract_y
_atom_site_fract_z
_atom_type_partial_charge
Co0 Co 0.12774 0.62738 0.06142 0.0
Co1 Co 0.12645 0.62542 0.19027 0.0
O2 O 0.14216 0.61141 0.12564 0.0
C3 C 0.11788 0.55966 0.05421 0.0
O4 O 0.10739 0.56071 0.09999 0.0
C5 C 0.19414 0.6355 0.19681 0.0
O6 O 0.19291 0.64615 0.15115 0.0
O7 O 0.13131 0.66974 0.17116 0.0
O8 O 0.12761 0.67071 0.08784 0.0
H9 H 0.06026 0.68999 0.30393 0.0
H10 H 0.18326 0.58702 0.06505 0.0
O11 O 0.12741 0.58429 0.03308 0.0
H12 H 0.21941 0.68585 0.99362 0.0
H13 H 0.12538 0.63282 0.8744 0.0
H14 H 0.08114 0.67394 0.03016 0.0
H15 H 0.16452 0.67876 0.01637 0.0
H16 H 0.14371 0.61371 0.9557 0.0
O17 O 0.16963 0.62578 0.21806 0.0
H18 H 0.07991 0.67172 0.22289 0.0
H19 H 0.14066 0.60887 0.29554 0.0
H20 H 0.06231 0.69389 0.94968 0.0
H21 H 0.23834 0.59301 0.04244 0.0
H22 H 0.08446 0.67329 0.87106 0.0
H23 H 0.25674 0.64276 0.00659 0.0
O24 O 0.08358 0.62226 0.0811 0.0
H25 H 0.16131 0.51479 0.207 0.0
H26 H 0.07545 0.58815 0.23541 0.0
H27 H 0.06868 0.53306 0.25731 0.0
H28 H 0.11183 0.49596 0.24315 0.0
H29 H 0.16699 0.57007 0.18526 0.0
H30 H 0.12185 0.62664 0.37738 0.0
H31 H 0.08128 0.6674 0.38191 0.0
O32 O 0.08301 0.62555 0.16447 0.0
C33 C 0.12998 0.68424 0.1299 0.0
C34 C 0.07787 0.67214 0.30244 0.0
C35 C 0.11247 0.63661 0.34367 0.0
N36 N 0.11121 0.63909 0.2545 0.0
C37 C 0.08902 0.66164 0.25667 0.0
C38 C 0.12307 0.62668 0.29723 0.0
C39 C 0.08969 0.65948 0.34618 0.0
C40 C 0.19105 0.60862 0.04901 0.0
N41 N 0.17069 0.63246 0.04185 0.0
C42 C 0.22228 0.61193 0.03648 0.0
C43 C 0.2326 0.63986 0.01644 0.0
C44 C 0.21167 0.66406 0.00919 0.0
C45 C 0.18063 0.65994 0.02225 0.0
C46 C 0.11559 0.64203 0.9084 0.0
C47 C 0.09104 0.66502 0.9961 0.0
C48 C 0.12584 0.63126 0.95453 0.0
N49 N 0.11367 0.64288 0.99761 0.0
C50 C 0.08022 0.67634 0.95065 0.0
C51 C 0.09264 0.66474 0.90655 0.0
C52 C 0.06929 0.62335 0.12257 0.0
C53 C 0.14238 0.53075 0.21348 0.0
C54 C 0.0943 0.57215 0.22902 0.0
C55 C 0.09036 0.54099 0.24161 0.0
C56 C 0.11459 0.52019 0.23369 0.0
N57 N 0.12164 0.58232 0.20925 0.0
C58 C 0.14551 0.56209 0.20144 0.0
Co59 Co 0.62843 0.87649 0.44129 0.0
Co60 Co 0.62657 0.87821 0.31243 0.0
O61 O 0.64247 0.89243 0.37687 0.0
C62 C 0.61802 0.94411 0.44815 0.0
O63 O 0.60738 0.94286 0.40244 0.0
C64 C 0.69426 0.86836 0.30549 0.0
O65 O 0.69322 0.85782 0.35122 0.0
O66 O 0.63164 0.83394 0.33174 0.0
O67 O 0.62852 0.83313 0.41512 0.0
H68 H 0.56012 0.8132 0.19966 0.0
H69 H 0.68358 0.91731 0.43698 0.0
O70 O 0.62785 0.91962 0.46937 0.0
H71 H 0.7209 0.81893 0.50858 0.0
H72 H 0.62702 0.87139 0.62835 0.0
H73 H 0.58236 0.82961 0.47324 0.0
H74 H 0.66584 0.8255 0.48628 0.0
H75 H 0.64475 0.89053 0.54677 0.0
O76 O 0.66965 0.87793 0.28431 0.0
H77 H 0.58005 0.8317 0.28043 0.0
H78 H 0.64031 0.89457 0.20695 0.0
H79 H 0.56413 0.80961 0.554 0.0
H80 H 0.73881 0.91183 0.45913 0.0
H81 H 0.5865 0.83055 0.6323 0.0
H82 H 0.75779 0.86231 0.49506 0.0
O83 O 0.58413 0.8812 0.42195 0.0
H84 H 0.66096 0.98893 0.29494 0.0
H85 H 0.57527 0.91521 0.26745 0.0
H86 H 0.56821 0.97024 0.24538 0.0
H87 H 0.61127 0.00752 0.25909 0.0
H88 H 0.66693 0.93371 0.31686 0.0
H89 H 0.62122 0.87657 0.12536 0.0
H90 H 0.58075 0.83568 0.12138 0.0
O91 O 0.58325 0.878 0.33857 0.0
C92 C 0.63066 0.81953 0.3731 0.0
C93 C 0.57768 0.8311 0.20091 0.0
C94 C 0.612 0.86665 0.15921 0.0
N95 N 0.61112 0.86435 0.24839 0.0
C96 C 0.58899 0.84173 0.24653 0.0
C97 C 0.62276 0.8767 0.2055 0.0
C98 C 0.58929 0.84371 0.157 0.0
C99 C 0.69163 0.89581 0.45305 0.0
N100 N 0.6715 0.87181 0.46052 0.0
C101 C 0.72294 0.89279 0.46533 0.0
C102 C 0.73359 0.86498 0.48541 0.0
C103 C 0.7129 0.84062 0.49297 0.0
C104 C 0.68176 0.84446 0.48016 0.0
C105 C 0.61714 0.86204 0.5945 0.0
C106 C 0.59235 0.83868 0.50715 0.0
C107 C 0.62705 0.87283 0.54821 0.0
N108 N 0.61477 0.86102 0.50531 0.0
C109 C 0.58187 0.82733 0.55277 0.0
C110 C 0.59441 0.83911 0.59668 0.0
C111 C 0.56968 0.88008 0.38058 0.0
C112 C 0.64206 0.97289 0.28866 0.0
C113 C 0.59409 0.93129 0.27363 0.0
C114 C 0.58998 0.96242 0.26096 0.0
C115 C 0.61416 0.98332 0.26862 0.0
N116 N 0.62154 0.92125 0.29325 0.0
C117 C 0.64536 0.94159 0.3008 0.0
Co118 Co 0.37725 0.37818 0.69005 0.0
Co119 Co 0.37554 0.37615 0.56118 0.0
O120 O 0.36138 0.39219 0.62553 0.0
C121 C 0.30963 0.36791 0.69665 0.0
O122 O 0.31084 0.35729 0.65092 0.0
C123 C 0.3858 0.44378 0.55424 0.0
O124 O 0.39633 0.44268 0.60002 0.0
O125 O 0.41981 0.381 0.58066 0.0
O126 O 0.4206 0.37817 0.66407 0.0
H127 H 0.44012 0.30916 0.44876 0.0
H128 H 0.33657 0.43345 0.68543 0.0
O129 O 0.33413 0.3777 0.71796 0.0
H130 H 0.43496 0.47065 0.75738 0.0
H131 H 0.38228 0.3769 0.87714 0.0
H132 H 0.42399 0.33201 0.72225 0.0
H133 H 0.42826 0.41555 0.73522 0.0
H134 H 0.36322 0.39464 0.79546 0.0
O135 O 0.37607 0.41922 0.53303 0.0
H136 H 0.42176 0.3293 0.52943 0.0
H137 H 0.35931 0.38992 0.45562 0.0
H138 H 0.44391 0.31378 0.80312 0.0
H139 H 0.34218 0.48873 0.70743 0.0
H140 H 0.423 0.33627 0.8813 0.0
H141 H 0.3917 0.50766 0.74353 0.0
O142 O 0.37245 0.33385 0.67077 0.0
H143 H 0.26509 0.41119 0.54306 0.0
H144 H 0.33829 0.32499 0.51611 0.0
H145 H 0.28326 0.31823 0.49374 0.0
H146 H 0.24625 0.36155 0.50716 0.0
H147 H 0.32029 0.41686 0.56529 0.0
H148 H 0.37718 0.37062 0.37412 0.0
H149 H 0.41779 0.32986 0.37037 0.0
O150 O 0.3755 0.33284 0.58739 0.0
C151 C 0.43421 0.38014 0.62208 0.0
C152 C 0.42234 0.32685 0.44991 0.0
C153 C 0.38704 0.36137 0.40802 0.0
N154 N 0.38932 0.36056 0.49722 0.0
C155 C 0.41179 0.33827 0.49548 0.0
C156 C 0.37706 0.37225 0.45427 0.0
C157 C 0.40983 0.3385 0.40594 0.0
C158 C 0.35807 0.44147 0.70159 0.0
N159 N 0.382 0.42129 0.70923 0.0
C160 C 0.36116 0.47281 0.71377 0.0
C161 C 0.38897 0.48343 0.73395 0.0
C162 C 0.41326 0.46268 0.7417 0.0
C163 C 0.40936 0.43152 0.72897 0.0
C164 C 0.39162 0.36697 0.84333 0.0
C165 C 0.41494 0.34205 0.75612 0.0
C166 C 0.38088 0.37688 0.79699 0.0
N167 N 0.39267 0.36454 0.75415 0.0
C168 C 0.42624 0.33157 0.80179 0.0
C169 C 0.41447 0.34418 0.84564 0.0
C170 C 0.37343 0.31934 0.62944 0.0
C171 C 0.28101 0.39218 0.5369 0.0
C172 C 0.32232 0.34392 0.52218 0.0
C173 C 0.2912 0.33998 0.50933 0.0
C174 C 0.27045 0.36431 0.51684 0.0
N175 N 0.3325 0.37134 0.54181 0.0
C176 C 0.31231 0.3953 0.54922 0.0
Co177 Co 0.87773 0.12576 0.81101 0.0
Co178 Co 0.87608 0.12758 0.93987 0.0
O179 O 0.86182 0.1117 0.87544 0.0
C180 C 0.81015 0.13621 0.80436 0.0
O181 O 0.81145 0.14685 0.85007 0.0
C182 C 0.88582 0.05983 0.94681 0.0
O183 O 0.89632 0.06081 0.90104 0.0
O184 O 0.92029 0.1224 0.92045 0.0
O185 O 0.9211 0.12561 0.83707 0.0
H186 H 0.94131 0.1939 0.05252 0.0
H187 H 0.83691 0.07059 0.81532 0.0
O188 O 0.8346 0.12637 0.78304 0.0
H189 H 0.93515 0.03325 0.7433 0.0
H190 H 0.88268 0.12729 0.62393 0.0
H191 H 0.92461 0.17182 0.77903 0.0
H192 H 0.92863 0.08832 0.76578 0.0
H193 H 0.8636 0.10949 0.70552 0.0
O194 O 0.87629 0.08449 0.96796 0.0
H195 H 0.9227 0.17402 0.97178 0.0
H196 H 0.85976 0.11389 0.04538 0.0
H197 H 0.94453 0.19011 0.69826 0.0
H198 H 0.84233 0.01534 0.79299 0.0
H199 H 0.92352 0.16781 0.61997 0.0
H200 H 0.89178 0.99634 0.75685 0.0
O201 O 0.87305 0.17008 0.83042 0.0
H202 H 0.76536 0.0934 0.95759 0.0
H203 H 0.83924 0.17899 0.98499 0.0
H204 H 0.78427 0.18617 0.0072 0.0
H205 H 0.74691 0.14316 0.99354 0.0
H206 H 0.82052 0.08731 0.93553 0.0
H207 H 0.87787 0.13293 0.12694 0.0
H208 H 0.91886 0.1733 0.13084 0.0
O209 O 0.87635 0.17094 0.91378 0.0
C210 C 0.93469 0.12338 0.87908 0.0
C211 C 0.92337 0.17638 0.05131 0.0
C212 C 0.88779 0.14213 0.09307 0.0
N213 N 0.89 0.14301 0.00388 0.0
C214 C 0.91267 0.1651 0.0057 0.0
C215 C 0.87767 0.13139 0.04679 0.0
C216 C 0.91078 0.16479 0.09523 0.0
C217 C 0.85838 0.06253 0.79916 0.0
N218 N 0.88237 0.08266 0.79168 0.0
C219 C 0.86136 0.03121 0.78679 0.0
C220 C 0.88913 0.02056 0.76658 0.0
C221 C 0.91348 0.04125 0.759 0.0
C222 C 0.90968 0.07239 0.77192 0.0
C223 C 0.89206 0.13714 0.65778 0.0
C224 C 0.91551 0.16186 0.74512 0.0
C225 C 0.88131 0.1272 0.70408 0.0
N226 N 0.89316 0.13944 0.74698 0.0
C227 C 0.92681 0.17237 0.6995 0.0
C228 C 0.91498 0.15987 0.65559 0.0
C229 C 0.87421 0.18453 0.8718 0.0
C230 C 0.78143 0.11228 0.96385 0.0
C231 C 0.82312 0.16019 0.97883 0.0
C232 C 0.79203 0.16437 0.99158 0.0
C233 C 0.77109 0.14022 0.98394 0.0
N234 N 0.83309 0.13271 0.95915 0.0
C235 C 0.81271 0.10891 0.95163 0.0
Co236 Co 0.12729 0.37579 0.9394 0.0
Co237 Co 0.12583 0.37709 0.81054 0.0
O238 O 0.14166 0.39143 0.87498 0.0
C239 C 0.11777 0.4436 0.94608 0.0
O240 O 0.10721 0.44251 0.90032 0.0
C241 C 0.19352 0.36713 0.80397 0.0
O242 O 0.1924 0.35658 0.8497 0.0
O243 O 0.13077 0.33285 0.83016 0.0
O244 O 0.12688 0.33237 0.91346 0.0
H245 H 0.05946 0.31196 0.69782 0.0
H246 H 0.18301 0.41583 0.93523 0.0
O247 O 0.12723 0.41897 0.96733 0.0
H248 H 0.21878 0.31707 0.00753 0.0
H249 H 0.12526 0.37103 0.12648 0.0
H250 H 0.08047 0.32963 0.97121 0.0
H251 H 0.16387 0.32438 0.9849 0.0
H252 H 0.14354 0.38975 0.04496 0.0
O253 O 0.16895 0.37668 0.78266 0.0
H254 H 0.07926 0.33061 0.77859 0.0
H255 H 0.13983 0.39315 0.70504 0.0
H256 H 0.06167 0.31008 0.05191 0.0
H257 H 0.23811 0.40961 0.95772 0.0
H258 H 0.08411 0.33083 0.13029 0.0
H259 H 0.25632 0.3599 0.994 0.0
O260 O 0.08313 0.38108 0.91974 0.0
H261 H 0.16054 0.48767 0.79233 0.0
H262 H 0.0747 0.41409 0.76504 0.0
H263 H 0.06784 0.46906 0.74243 0.0
H264 H 0.11098 0.50627 0.75602 0.0
H265 H 0.16631 0.43252 0.8148 0.0
H266 H 0.12087 0.375 0.62345 0.0
H267 H 0.08031 0.33419 0.61952 0.0
O268 O 0.08244 0.37705 0.83644 0.0
C269 C 0.1293 0.31859 0.87162 0.0
C270 C 0.07706 0.32982 0.69905 0.0
C271 C 0.11156 0.36518 0.65731 0.0
N272 N 0.11048 0.36311 0.74651 0.0
C273 C 0.08829 0.34054 0.74467 0.0
C274 C 0.12224 0.37532 0.70361 0.0
C275 C 0.08879 0.34229 0.65513 0.0
C276 C 0.19072 0.39425 0.95146 0.0
N277 N 0.17024 0.37056 0.95892 0.0
C278 C 0.22196 0.39082 0.96392 0.0
C279 C 0.23217 0.3629 0.9842 0.0
C280 C 0.21113 0.33885 0.99177 0.0
C281 C 0.18007 0.3431 0.97877 0.0
C282 C 0.11535 0.36177 0.09259 0.0
C283 C 0.09049 0.33862 0.00516 0.0
C284 C 0.12557 0.37231 0.04633 0.0
N285 N 0.11324 0.36061 0.00339 0.0
C286 C 0.07969 0.32752 0.05074 0.0
C287 C 0.09227 0.3392 0.0947 0.0
C288 C 0.06878 0.37966 0.87831 0.0
C289 C 0.14161 0.47166 0.7861 0.0
C290 C 0.09355 0.43014 0.77119 0.0
C291 C 0.08956 0.46123 0.7582 0.0
C292 C 0.11378 0.48209 0.7658 0.0
N293 N 0.12093 0.42009 0.79106 0.0
C294 C 0.14479 0.44039 0.79855 0.0
Co295 Co 0.87673 0.87626 0.06219 0.0
Co296 Co 0.87793 0.87796 0.19105 0.0
O297 O 0.86225 0.89213 0.12648 0.0
C298 C 0.88627 0.94404 0.05522 0.0
O299 O 0.89679 0.94311 0.101 0.0
C300 C 0.81019 0.86819 0.19757 0.0
O301 O 0.81129 0.85753 0.15186 0.0
O302 O 0.87287 0.83369 0.17159 0.0
O303 O 0.87708 0.83292 0.08834 0.0
H304 H 0.94389 0.81295 0.30428 0.0
H305 H 0.82102 0.91634 0.06592 0.0
O306 O 0.87685 0.91934 0.03405 0.0
H307 H 0.78535 0.81736 0.99384 0.0
H308 H 0.87909 0.87086 0.87514 0.0
H309 H 0.92359 0.82996 0.0308 0.0
H310 H 0.84021 0.82472 0.01675 0.0
H311 H 0.86067 0.88986 0.9565 0.0
O312 O 0.83478 0.87778 0.21882 0.0
H313 H 0.92426 0.8314 0.22337 0.0
H314 H 0.86389 0.89447 0.29643 0.0
H315 H 0.94251 0.81012 0.95027 0.0
H316 H 0.76597 0.91008 0.04315 0.0
H317 H 0.92023 0.83062 0.8717 0.0
H318 H 0.74781 0.86026 0.00698 0.0
O319 O 0.92087 0.88158 0.08203 0.0
H320 H 0.8436 0.98873 0.2086 0.0
H321 H 0.92914 0.91494 0.23652 0.0
H322 H 0.93618 0.96998 0.25885 0.0
H323 H 0.89319 0.00729 0.24494 0.0
H324 H 0.83765 0.93351 0.18642 0.0
H325 H 0.88268 0.87653 0.37816 0.0
H326 H 0.92305 0.83556 0.38242 0.0
O327 O 0.92136 0.87767 0.16531 0.0
C328 C 0.87447 0.81929 0.13021 0.0
C329 C 0.92637 0.83089 0.30291 0.0
C330 C 0.89198 0.86655 0.34437 0.0
N331 N 0.89315 0.86415 0.25519 0.0
C332 C 0.91524 0.84149 0.25721 0.0
C333 C 0.88139 0.87657 0.298 0.0
C334 C 0.91464 0.84356 0.34674 0.0
C335 C 0.81333 0.89471 0.04974 0.0
N336 N 0.83381 0.87098 0.04249 0.0
C337 C 0.78212 0.89125 0.03712 0.0
C338 C 0.77194 0.86327 0.0169 0.0
C339 C 0.79298 0.83919 0.00956 0.0
C340 C 0.824 0.84346 0.02271 0.0
C341 C 0.88894 0.8617 0.90912 0.0
C342 C 0.91363 0.83884 0.99677 0.0
C343 C 0.87864 0.87241 0.95528 0.0
N344 N 0.89088 0.86085 0.99834 0.0
C345 C 0.9245 0.82758 0.95128 0.0
C346 C 0.91201 0.83912 0.90722 0.0
C347 C 0.93513 0.88016 0.12353 0.0
C348 C 0.86246 0.97268 0.21497 0.0
C349 C 0.91036 0.93105 0.23023 0.0
C350 C 0.91445 0.96217 0.24306 0.0
C351 C 0.89031 0.98309 0.23528 0.0
N352 N 0.88296 0.92102 0.21035 0.0
C353 C 0.85918 0.94137 0.20268 0.0
Co354 Co 0.37799 0.62622 0.31119 0.0
Co355 Co 0.37636 0.62749 0.44005 0.0
O356 O 0.3622 0.61175 0.37546 0.0
C357 C 0.31028 0.63588 0.30438 0.0
O358 O 0.31137 0.64641 0.35018 0.0
C359 C 0.38632 0.55975 0.4465 0.0
O360 O 0.39691 0.56086 0.40079 0.0
O361 O 0.42061 0.62257 0.42065 0.0
O362 O 0.42133 0.62651 0.33735 0.0
H363 H 0.44115 0.69375 0.55344 0.0
H364 H 0.33784 0.57054 0.31489 0.0
O365 O 0.33488 0.62641 0.2831 0.0
H366 H 0.43662 0.53467 0.24284 0.0
H367 H 0.38313 0.62852 0.12414 0.0
H368 H 0.42431 0.673 0.27979 0.0
H369 H 0.42939 0.58958 0.26575 0.0
H370 H 0.36419 0.61017 0.2055 0.0
O371 O 0.3767 0.58433 0.46777 0.0
H372 H 0.42275 0.67402 0.47248 0.0
H373 H 0.35999 0.61338 0.5454 0.0
H374 H 0.44409 0.69185 0.19926 0.0
H375 H 0.34398 0.51544 0.29211 0.0
H376 H 0.42344 0.66957 0.1207 0.0
H377 H 0.39371 0.49718 0.25595 0.0
O378 O 0.37277 0.67041 0.33103 0.0
H379 H 0.26579 0.59274 0.45734 0.0
H380 H 0.33925 0.67859 0.48553 0.0
H381 H 0.28423 0.68543 0.50774 0.0
H382 H 0.24708 0.64229 0.49369 0.0
H383 H 0.32098 0.58699 0.43528 0.0
H384 H 0.3779 0.63226 0.62717 0.0
H385 H 0.41868 0.67283 0.63152 0.0
O386 O 0.37648 0.67091 0.41435 0.0
C387 C 0.43498 0.62407 0.37928 0.0
C388 C 0.42329 0.67615 0.55202 0.0
C389 C 0.38782 0.64161 0.5934 0.0
N390 N 0.39015 0.64276 0.50423 0.0
C391 C 0.41272 0.66495 0.5063 0.0
C392 C 0.37782 0.63096 0.54701 0.0
C393 C 0.4107 0.66437 0.59582 0.0
C394 C 0.35943 0.56281 0.29871 0.0
N395 N 0.38317 0.58326 0.29147 0.0
C396 C 0.36282 0.53157 0.28608 0.0
C397 C 0.39074 0.52133 0.26587 0.0
C398 C 0.41484 0.54235 0.25854 0.0
C399 C 0.41064 0.5734 0.2717 0.0
C400 C 0.39235 0.63836 0.15812 0.0
C401 C 0.41537 0.66305 0.24576 0.0
C402 C 0.38167 0.6281 0.20429 0.0
N403 N 0.39332 0.64034 0.24734 0.0
C404 C 0.42659 0.67388 0.20028 0.0
C405 C 0.41498 0.66139 0.15621 0.0
C406 C 0.37408 0.68467 0.37256 0.0
C407 C 0.28176 0.61167 0.46377 0.0
C408 C 0.32322 0.65974 0.47918 0.0
C409 C 0.2921 0.66372 0.49195 0.0
C410 C 0.27128 0.6395 0.48409 0.0
N411 N 0.33332 0.63236 0.45929 0.0
C412 C 0.31306 0.6085 0.45155 0.0
Co413 Co 0.62613 0.12675 0.69098 0.0
Co414 Co 0.62754 0.12808 0.56212 0.0
O415 O 0.64185 0.11237 0.62656 0.0
C416 C 0.69382 0.13667 0.69741 0.0
O417 O 0.69259 0.14717 0.65165 0.0
C418 C 0.6176 0.06036 0.55561 0.0
O419 O 0.60709 0.06155 0.60137 0.0
O420 O 0.58333 0.12315 0.58174 0.0
O421 O 0.58273 0.12684 0.66508 0.0
H422 H 0.56248 0.1943 0.44935 0.0
H423 H 0.66653 0.07126 0.68675 0.0
O424 O 0.66929 0.12713 0.71881 0.0
H425 H 0.5681 0.03489 0.75918 0.0
H426 H 0.62141 0.12894 0.87807 0.0
H427 H 0.57965 0.17329 0.7229 0.0
H428 H 0.57501 0.08984 0.73653 0.0
H429 H 0.64025 0.11073 0.7965 0.0
O430 O 0.62715 0.0849 0.53427 0.0
H431 H 0.58107 0.1746 0.53013 0.0
H432 H 0.64365 0.11393 0.45663 0.0
H433 H 0.55997 0.192 0.80366 0.0
H434 H 0.66071 0.01613 0.70926 0.0
H435 H 0.5809 0.16979 0.88198 0.0
H436 H 0.61116 0.99761 0.7456 0.0
O437 O 0.6311 0.17096 0.67134 0.0
H438 H 0.73809 0.09339 0.54404 0.0
H439 H 0.66451 0.17919 0.51662 0.0
H440 H 0.71947 0.18606 0.49409 0.0
H441 H 0.75667 0.14294 0.50775 0.0
H442 H 0.68295 0.08761 0.56642 0.0
H443 H 0.62556 0.13278 0.37503 0.0
H444 H 0.58476 0.17335 0.37107 0.0
O445 O 0.62745 0.17151 0.588 0.0
C446 C 0.56903 0.12447 0.62318 0.0
C447 C 0.58034 0.1767 0.4506 0.0
C448 C 0.61571 0.14214 0.40889 0.0
N449 N 0.61359 0.14333 0.49808 0.0
C450 C 0.59102 0.16552 0.49622 0.0
C451 C 0.62583 0.13151 0.45519 0.0
C452 C 0.59283 0.16491 0.40669 0.0
C453 C 0.64502 0.06342 0.70301 0.0
N454 N 0.6212 0.08376 0.7105 0.0
C455 C 0.64181 0.03216 0.71548 0.0
C456 C 0.61399 0.02178 0.7358 0.0
C457 C 0.58981 0.04268 0.74339 0.0
C458 C 0.59383 0.07375 0.73038 0.0
C459 C 0.61207 0.13875 0.8442 0.0
C460 C 0.58872 0.16337 0.75683 0.0
C461 C 0.62268 0.12857 0.79791 0.0
N462 N 0.61088 0.14077 0.755 0.0
C463 C 0.57755 0.17412 0.80244 0.0
C464 C 0.58933 0.16167 0.84637 0.0
C465 C 0.62979 0.18525 0.62989 0.0
C466 C 0.72208 0.11231 0.53778 0.0
C467 C 0.68057 0.16035 0.5228 0.0
C468 C 0.71165 0.16435 0.50986 0.0
C469 C 0.73251 0.14014 0.51749 0.0
N470 N 0.67053 0.13298 0.54265 0.0
C471 C 0.69082 0.10912 0.55018 0.0
Co472 Co 0.8759 0.37619 0.93943 0.0
Co473 Co 0.87722 0.37764 0.81058 0.0
O474 O 0.86149 0.39192 0.87506 0.0
C475 C 0.88558 0.44397 0.94624 0.0
O476 O 0.89608 0.44288 0.90046 0.0
C477 C 0.80952 0.36773 0.80404 0.0
O478 O 0.81069 0.35716 0.84976 0.0
O479 O 0.87229 0.33339 0.83009 0.0
O480 O 0.8762 0.33279 0.9134 0.0
H481 H 0.94339 0.31257 0.69762 0.0
H482 H 0.82027 0.41638 0.93538 0.0
O483 O 0.8761 0.41935 0.96745 0.0
H484 H 0.78434 0.31765 0.00747 0.0
H485 H 0.87813 0.3713 0.1265 0.0
H486 H 0.92265 0.3299 0.97115 0.0
H487 H 0.83924 0.32484 0.98482 0.0
H488 H 0.8598 0.39011 0.04502 0.0
O489 O 0.83407 0.37728 0.78273 0.0
H490 H 0.92371 0.33116 0.77846 0.0
H491 H 0.86309 0.39382 0.70513 0.0
H492 H 0.94148 0.31024 0.05182 0.0
H493 H 0.76519 0.41028 0.95788 0.0
H494 H 0.91918 0.33099 0.13023 0.0
H495 H 0.7469 0.36058 0.99405 0.0
O496 O 0.92006 0.38138 0.91977 0.0
H497 H 0.84255 0.48826 0.79266 0.0
H498 H 0.92832 0.41465 0.76516 0.0
H499 H 0.93518 0.46964 0.74267 0.0
H500 H 0.89208 0.50686 0.75636 0.0
H501 H 0.83678 0.43309 0.815 0.0
H502 H 0.88192 0.37573 0.62348 0.0
H503 H 0.92244 0.33489 0.6194 0.0
O504 O 0.92064 0.37753 0.83645 0.0
C505 C 0.87377 0.31907 0.8715 0.0
C506 C 0.9258 0.33045 0.69892 0.0
C507 C 0.89127 0.36587 0.65731 0.0
N508 N 0.89248 0.36372 0.7465 0.0
C509 C 0.91464 0.34113 0.74457 0.0
C510 C 0.88066 0.37598 0.70364 0.0
C511 C 0.91401 0.34296 0.65504 0.0
C512 C 0.81253 0.3948 0.95156 0.0
N513 N 0.83296 0.37105 0.95896 0.0
C514 C 0.7813 0.39143 0.96403 0.0
C515 C 0.77104 0.36353 0.98425 0.0
C516 C 0.79203 0.33942 0.99175 0.0
C517 C 0.82308 0.3436 0.97875 0.0
C518 C 0.88798 0.36203 0.09259 0.0
C519 C 0.91269 0.33888 0.00512 0.0
C520 C 0.87773 0.37263 0.04636 0.0
N521 N 0.88998 0.36093 0.00339 0.0
C522 C 0.92351 0.32773 0.05068 0.0
C523 C 0.91101 0.33941 0.09466 0.0
C524 C 0.93435 0.38001 0.87833 0.0
C525 C 0.86146 0.47225 0.78638 0.0
C526 C 0.90949 0.43071 0.77136 0.0
C527 C 0.91348 0.46181 0.75844 0.0
C528 C 0.88928 0.48268 0.76609 0.0
N529 N 0.88213 0.42066 0.79121 0.0
C530 C 0.85828 0.44096 0.79876 0.0
Co531 Co 0.37587 0.1276 0.56283 0.0
Co532 Co 0.37769 0.12644 0.6917 0.0
O533 O 0.36184 0.1119 0.62741 0.0
C534 C 0.38631 0.05996 0.55657 0.0
O535 O 0.39691 0.06132 0.60229 0.0
C536 C 0.30997 0.13607 0.69847 0.0
O537 O 0.311 0.14647 0.65264 0.0
O538 O 0.37249 0.17061 0.67192 0.0
O539 O 0.37574 0.17107 0.58855 0.0
H540 H 0.44393 0.19212 0.80379 0.0
H541 H 0.32074 0.08677 0.56754 0.0
O542 O 0.37648 0.08438 0.53517 0.0
H543 H 0.28337 0.18484 0.49492 0.0
H544 H 0.37732 0.13199 0.37572 0.0
H545 H 0.42192 0.17439 0.53044 0.0
H546 H 0.33843 0.17839 0.5173 0.0
H547 H 0.35957 0.11316 0.45747 0.0
O548 O 0.33461 0.12669 0.71977 0.0
H549 H 0.42407 0.17321 0.72321 0.0
H550 H 0.36396 0.1105 0.79735 0.0
H551 H 0.44017 0.19407 0.4495 0.0
H552 H 0.26551 0.09213 0.54532 0.0
H553 H 0.41783 0.17282 0.3714 0.0
H554 H 0.2465 0.14149 0.50888 0.0
O555 O 0.42016 0.12299 0.58224 0.0
H556 H 0.34362 0.0157 0.71045 0.0
H557 H 0.42909 0.0898 0.73712 0.0
H558 H 0.4363 0.03489 0.75987 0.0
H559 H 0.39335 0.99742 0.74659 0.0
H560 H 0.3375 0.07079 0.68785 0.0
H561 H 0.38298 0.1289 0.87875 0.0
H562 H 0.42333 0.16992 0.8823 0.0
O563 O 0.42101 0.12666 0.66558 0.0
C564 C 0.37352 0.18485 0.6304 0.0
C565 C 0.42642 0.17416 0.80273 0.0
C566 C 0.39218 0.13871 0.8448 0.0
N567 N 0.39308 0.14061 0.75559 0.0
C568 C 0.41516 0.1633 0.75722 0.0
C569 C 0.38146 0.12842 0.79861 0.0
C570 C 0.41483 0.16172 0.84677 0.0
C571 C 0.31268 0.1082 0.55124 0.0
N572 N 0.33279 0.13218 0.54354 0.0
C573 C 0.28137 0.11115 0.53893 0.0
C574 C 0.27071 0.13887 0.51856 0.0
C575 C 0.29138 0.16321 0.51075 0.0
C576 C 0.32252 0.15945 0.52361 0.0
C577 C 0.38719 0.14148 0.40949 0.0
C578 C 0.41195 0.16518 0.49661 0.0
C579 C 0.37727 0.13086 0.45588 0.0
N580 N 0.38953 0.14284 0.49867 0.0
C581 C 0.42243 0.17635 0.45089 0.0
C582 C 0.40991 0.16439 0.40709 0.0
C583 C 0.43459 0.12436 0.6236 0.0
C584 C 0.36247 0.03182 0.71655 0.0
C585 C 0.41032 0.07362 0.73112 0.0
C586 C 0.41451 0.04257 0.74418 0.0
C587 C 0.3904 0.02157 0.73675 0.0
N588 N 0.38285 0.0835 0.71135 0.0
C589 C 0.35909 0.06305 0.70402 0.0
Co590 Co 0.62637 0.62649 0.31122 0.0
Co591 Co 0.62813 0.62794 0.4401 0.0
O592 O 0.6422 0.6121 0.37556 0.0
C593 C 0.69407 0.63625 0.30452 0.0
O594 O 0.69299 0.64675 0.35033 0.0
C595 C 0.6178 0.56027 0.44657 0.0
O596 O 0.60723 0.56146 0.40082 0.0
O597 O 0.58384 0.6232 0.42065 0.0
O598 O 0.58304 0.6267 0.3373 0.0
H599 H 0.56369 0.6946 0.55324 0.0
H600 H 0.66662 0.57088 0.31515 0.0
O601 O 0.66947 0.62674 0.2832 0.0
H602 H 0.5679 0.53475 0.243 0.0
H603 H 0.62118 0.6286 0.12416 0.0
H604 H 0.57995 0.67314 0.27963 0.0
H605 H 0.57503 0.5897 0.26577 0.0
H606 H 0.64017 0.61036 0.2056 0.0
O607 O 0.62757 0.58479 0.46788 0.0
H608 H 0.58198 0.67472 0.47235 0.0
H609 H 0.64444 0.6138 0.5455 0.0
H610 H 0.56012 0.69188 0.19902 0.0
H611 H 0.66057 0.51574 0.29253 0.0
H612 H 0.58078 0.66957 0.12054 0.0
H613 H 0.61088 0.49736 0.25632 0.0
O614 O 0.63152 0.6707 0.33095 0.0
H615 H 0.73854 0.59268 0.45766 0.0
H616 H 0.66549 0.67889 0.48556 0.0
H617 H 0.72054 0.68549 0.50788 0.0
H618 H 0.75748 0.64217 0.49398 0.0
H619 H 0.68331 0.58718 0.43549 0.0
H620 H 0.62665 0.63283 0.6272 0.0
H621 H 0.58607 0.67361 0.6314 0.0
O622 O 0.6282 0.67135 0.41431 0.0
C623 C 0.56943 0.62445 0.37926 0.0
C624 C 0.58146 0.6769 0.5519 0.0
C625 C 0.61676 0.64221 0.5934 0.0
N626 N 0.61442 0.64332 0.50422 0.0
C627 C 0.59197 0.66562 0.50621 0.0
C628 C 0.6267 0.63148 0.54704 0.0
C629 C 0.594 0.66509 0.59573 0.0
C630 C 0.64505 0.5631 0.29895 0.0
N631 N 0.62127 0.5835 0.2916 0.0
C632 C 0.64171 0.53183 0.28641 0.0
C633 C 0.6138 0.52152 0.26617 0.0
C634 C 0.58966 0.54249 0.25872 0.0
C635 C 0.59382 0.57356 0.2718 0.0
C636 C 0.61195 0.63845 0.1581 0.0
C637 C 0.5889 0.66318 0.24564 0.0
C638 C 0.62265 0.62826 0.20431 0.0
N639 N 0.61099 0.64051 0.2473 0.0
C640 C 0.57765 0.67394 0.20011 0.0
C641 C 0.58928 0.66144 0.15609 0.0
C642 C 0.63046 0.68503 0.37243 0.0
C643 C 0.72265 0.61169 0.46403 0.0
C644 C 0.68143 0.65996 0.47928 0.0
C645 C 0.71256 0.66381 0.4921 0.0
C646 C 0.73327 0.63948 0.48433 0.0
N647 N 0.67119 0.63263 0.45941 0.0
C648 C 0.69134 0.60866 0.45175 0.0
Co649 Co 0.12647 0.87722 0.1928 0.0
Co650 Co 0.12825 0.87604 0.06395 0.0
O651 O 0.14239 0.89169 0.1286 0.0
C652 C 0.19414 0.86731 0.19975 0.0
O653 O 0.19303 0.85678 0.15396 0.0
C654 C 0.11861 0.94387 0.0574 0.0
O655 O 0.10802 0.94285 0.10312 0.0
O656 O 0.08402 0.88121 0.08323 0.0
O657 O 0.08314 0.87714 0.16651 0.0
H658 H 0.06312 0.81027 0.95033 0.0
H659 H 0.16684 0.93274 0.18936 0.0
O660 O 0.16954 0.87684 0.22101 0.0
H661 H 0.06817 0.96891 0.2614 0.0
H662 H 0.12117 0.87472 0.37984 0.0
H663 H 0.0799 0.83062 0.22396 0.0
H664 H 0.07517 0.91402 0.23822 0.0
H665 H 0.14024 0.8931 0.29857 0.0
O666 O 0.12816 0.91923 0.03622 0.0
H667 H 0.0816 0.82983 0.03135 0.0
H668 H 0.14484 0.89007 0.95865 0.0
H669 H 0.05999 0.81175 0.3044 0.0
H670 H 0.16093 0.98782 0.2124 0.0
H671 H 0.08068 0.83384 0.38307 0.0
H672 H 0.11126 0.00623 0.24856 0.0
O673 O 0.13153 0.83302 0.1729 0.0
H674 H 0.23904 0.91016 0.04712 0.0
H675 H 0.16513 0.82475 0.01854 0.0
H676 H 0.22014 0.81759 0.99657 0.0
H677 H 0.25752 0.8605 0.01082 0.0
H678 H 0.18384 0.91623 0.06894 0.0
H679 H 0.12687 0.87135 0.87682 0.0
H680 H 0.0858 0.83108 0.87233 0.0
O681 O 0.12786 0.83259 0.08958 0.0
C682 C 0.06957 0.87976 0.12453 0.0
C683 C 0.0811 0.82775 0.95181 0.0
C684 C 0.11686 0.86206 0.91055 0.0
N685 N 0.11444 0.86087 0.99972 0.0
C686 C 0.09172 0.83884 0.99757 0.0
C687 C 0.1269 0.87261 0.95698 0.0
C688 C 0.09382 0.83946 0.90805 0.0
C689 C 0.14527 0.94054 0.20552 0.0
N690 N 0.12144 0.92018 0.21261 0.0
C691 C 0.14201 0.97177 0.2183 0.0
C692 C 0.11412 0.98209 0.23852 0.0
C693 C 0.08993 0.96117 0.24569 0.0
C694 C 0.094 0.93013 0.23238 0.0
C695 C 0.11193 0.86496 0.34581 0.0
C696 C 0.08885 0.84049 0.25804 0.0
C697 C 0.12268 0.87523 0.2997 0.0
N698 N 0.11101 0.8631 0.25659 0.0
C699 C 0.07756 0.82965 0.30347 0.0
C700 C 0.0892 0.84203 0.3476 0.0
C701 C 0.13019 0.81878 0.13135 0.0
C702 C 0.22297 0.89132 0.0406 0.0
C703 C 0.18126 0.84351 0.02496 0.0
C704 C 0.21237 0.83934 0.01234 0.0
C705 C 0.23332 0.86344 0.02031 0.0
N706 N 0.17128 0.87093 0.04484 0.0
C707 C 0.19167 0.89468 0.05268 0.0
Co708 Co 0.87634 0.62777 0.06153 0.0
Co709 Co 0.87779 0.62603 0.19038 0.0
O710 O 0.86194 0.61195 0.12582 0.0
C711 C 0.88587 0.56 0.05444 0.0
O712 O 0.89643 0.56102 0.1002 0.0
C713 C 0.81012 0.6362 0.197 0.0
O714 O 0.81129 0.64684 0.15133 0.0
O715 O 0.87297 0.67034 0.17112 0.0
O716 O 0.87673 0.67112 0.08781 0.0
H717 H 0.94429 0.69063 0.30369 0.0
H718 H 0.82061 0.58771 0.06535 0.0
O719 O 0.87641 0.58466 0.0333 0.0
H720 H 0.78486 0.68667 0.99376 0.0
H721 H 0.87841 0.63304 0.87449 0.0
H722 H 0.92314 0.67404 0.03007 0.0
H723 H 0.83975 0.6793 0.0164 0.0
H724 H 0.86012 0.61409 0.95587 0.0
O725 O 0.83466 0.62649 0.21824 0.0
H726 H 0.92446 0.67229 0.22275 0.0
H727 H 0.86372 0.60966 0.29574 0.0
H728 H 0.94194 0.69383 0.94952 0.0
H729 H 0.76552 0.59398 0.04285 0.0
H730 H 0.91953 0.67328 0.87099 0.0
H731 H 0.74732 0.64379 0.00693 0.0
O732 O 0.9205 0.62245 0.08117 0.0
H733 H 0.84277 0.51548 0.20758 0.0
H734 H 0.9288 0.58874 0.23559 0.0
H735 H 0.93551 0.53367 0.2577 0.0
H736 H 0.89228 0.49662 0.24374 0.0
H737 H 0.83715 0.57073 0.18563 0.0
H738 H 0.8827 0.6275 0.37748 0.0
H739 H 0.92336 0.66819 0.38179 0.0
O740 O 0.92119 0.62604 0.16451 0.0
C741 C 0.87439 0.68475 0.12979 0.0
C742 C 0.92665 0.67281 0.30229 0.0
C743 C 0.89205 0.63741 0.34371 0.0
N744 N 0.89315 0.63976 0.25453 0.0
C745 C 0.9154 0.66227 0.25658 0.0
C746 C 0.88135 0.62744 0.29733 0.0
C747 C 0.91487 0.66023 0.3461 0.0
C748 C 0.81291 0.60933 0.04928 0.0
N749 N 0.83338 0.63305 0.04201 0.0
C750 C 0.78167 0.6128 0.0368 0.0
C751 C 0.77147 0.64077 0.01672 0.0
C752 C 0.79251 0.66485 0.00936 0.0
C753 C 0.82355 0.66057 0.02237 0.0
C754 C 0.8883 0.64222 0.90845 0.0
C755 C 0.91313 0.66515 0.99606 0.0
C756 C 0.87808 0.63154 0.95463 0.0
N757 N 0.89039 0.64313 0.99766 0.0
C758 C 0.92393 0.67637 0.95056 0.0
C759 C 0.91138 0.66481 0.90651 0.0
C760 C 0.93485 0.62364 0.12261 0.0
C761 C 0.86174 0.53142 0.21397 0.0
C762 C 0.90991 0.57275 0.22929 0.0
C763 C 0.91382 0.54161 0.24199 0.0
C764 C 0.88954 0.52084 0.23418 0.0
N765 N 0.88256 0.58295 0.20951 0.0
C766 C 0.85865 0.56274 0.20181 0.0
Co767 Co 0.12751 0.12733 0.94127 0.0
Co768 Co 0.1263 0.12508 0.81242 0.0
O769 O 0.14206 0.11128 0.87715 0.0
C770 C 0.11809 0.05957 0.94874 0.0
O771 O 0.10761 0.06039 0.90292 0.0
C772 C 0.19393 0.13544 0.80599 0.0
O773 O 0.19268 0.14623 0.85161 0.0
O774 O 0.13098 0.16948 0.83143 0.0
O775 O 0.12709 0.17058 0.91473 0.0
H776 H 0.05984 0.18903 0.69839 0.0
H777 H 0.1833 0.08735 0.93794 0.0
O778 O 0.12745 0.08434 0.96978 0.0
H779 H 0.21876 0.18665 0.00912 0.0
H780 H 0.12507 0.13337 0.12827 0.0
H781 H 0.08057 0.17366 0.97222 0.0
H782 H 0.16392 0.1791 0.98628 0.0
H783 H 0.14355 0.11411 0.0471 0.0
O784 O 0.16947 0.12553 0.78474 0.0
H785 H 0.07959 0.17111 0.77953 0.0
H786 H 0.14057 0.10827 0.70724 0.0
H787 H 0.06159 0.19375 0.05255 0.0
H788 H 0.23834 0.0938 0.96065 0.0
H789 H 0.08388 0.17356 0.13132 0.0
H790 H 0.25639 0.14379 0.99636 0.0
O791 O 0.08338 0.12188 0.92145 0.0
H792 H 0.1616 0.01454 0.79607 0.0
H793 H 0.07544 0.08748 0.76726 0.0
H794 H 0.06889 0.03229 0.7455 0.0
H795 H 0.11219 0.99541 0.75986 0.0
H796 H 0.16706 0.0699 0.81767 0.0
H797 H 0.12167 0.1257 0.6253 0.0
H798 H 0.08093 0.16627 0.62053 0.0
O799 O 0.08287 0.12512 0.83809 0.0
C800 C 0.12947 0.18404 0.87268 0.0
C801 C 0.07752 0.17126 0.69998 0.0
C802 C 0.11226 0.13574 0.65896 0.0
N803 N 0.11101 0.1385 0.74811 0.0
C804 C 0.08873 0.16096 0.74581 0.0
C805 C 0.12291 0.12601 0.70545 0.0
C806 C 0.08939 0.1585 0.65631 0.0
C807 C 0.19094 0.10905 0.95393 0.0
N808 N 0.17041 0.13276 0.96096 0.0
C809 C 0.22215 0.11262 0.96652 0.0
C810 C 0.23227 0.14069 0.98648 0.0
C811 C 0.21118 0.16476 0.99361 0.0
C812 C 0.18016 0.16037 0.9805 0.0
C813 C 0.11522 0.1424 0.0942 0.0
C814 C 0.09052 0.16492 0.00634 0.0
C815 C 0.12555 0.13154 0.04814 0.0
N816 N 0.11331 0.14294 0.00498 0.0
C817 C 0.07962 0.17631 0.05171 0.0
C818 C 0.09211 0.16495 0.09589 0.0
C819 C 0.06912 0.1229 0.87992 0.0
C820 C 0.1426 0.0304 0.7895 0.0
C821 C 0.09436 0.07156 0.77374 0.0
C822 C 0.09054 0.04035 0.76123 0.0
C823 C 0.11485 0.01968 0.76926 0.0
N824 N 0.12165 0.0819 0.79355 0.0
C825 C 0.14561 0.06179 0.80146 0.0
Co826 Co 0.62568 0.37852 0.69004 0.0
Co827 Co 0.62725 0.3766 0.56118 0.0
O828 O 0.64147 0.3926 0.62556 0.0
C829 C 0.69331 0.36839 0.69671 0.0
O830 O 0.69207 0.35775 0.65099 0.0
C831 C 0.61719 0.44428 0.55426 0.0
O832 O 0.60664 0.44323 0.6 0.0
O833 O 0.583 0.38151 0.58064 0.0
O834 O 0.58231 0.3784 0.66402 0.0
H835 H 0.56248 0.30976 0.44865 0.0
H836 H 0.6662 0.4339 0.68556 0.0
O837 O 0.66881 0.37815 0.71799 0.0
H838 H 0.56775 0.47082 0.75739 0.0
H839 H 0.62073 0.37718 0.87713 0.0
H840 H 0.57907 0.33222 0.72215 0.0
H841 H 0.57458 0.41574 0.73519 0.0
H842 H 0.63971 0.39498 0.79548 0.0
O843 O 0.6268 0.41967 0.53306 0.0
H844 H 0.58093 0.32984 0.52936 0.0
H845 H 0.64344 0.39036 0.45565 0.0
H846 H 0.55924 0.31392 0.80298 0.0
H847 H 0.66046 0.48916 0.70761 0.0
H848 H 0.58012 0.33644 0.8812 0.0
H849 H 0.6109 0.50794 0.74364 0.0
O850 O 0.63058 0.33422 0.67071 0.0
H851 H 0.73775 0.41146 0.54321 0.0
H852 H 0.66439 0.32539 0.5161 0.0
H853 H 0.71939 0.31855 0.49377 0.0
H854 H 0.75648 0.3618 0.50728 0.0
H855 H 0.68258 0.41721 0.5654 0.0
H856 H 0.62548 0.37113 0.37412 0.0
H857 H 0.58479 0.33045 0.3703 0.0
O858 O 0.62724 0.33328 0.58735 0.0
C859 C 0.56865 0.38048 0.62205 0.0
C860 C 0.58029 0.32741 0.44984 0.0
C861 C 0.61562 0.36189 0.40801 0.0
N862 N 0.61341 0.36106 0.4972 0.0
C863 C 0.5909 0.33881 0.49542 0.0
C864 C 0.62566 0.37273 0.45427 0.0
C865 C 0.5928 0.33905 0.40589 0.0
C866 C 0.64469 0.44186 0.70169 0.0
N867 N 0.62081 0.42161 0.70926 0.0
C868 C 0.64152 0.47319 0.7139 0.0
C869 C 0.61369 0.48372 0.73405 0.0
C870 C 0.58946 0.46291 0.74173 0.0
C871 C 0.59344 0.43176 0.72898 0.0
C872 C 0.61141 0.36723 0.8433 0.0
C873 C 0.58811 0.34227 0.75603 0.0
C874 C 0.62211 0.37718 0.79698 0.0
N875 N 0.61033 0.36481 0.75411 0.0
C876 C 0.57686 0.33176 0.80169 0.0
C877 C 0.58861 0.34438 0.84556 0.0
C878 C 0.62946 0.31974 0.62935 0.0
C879 C 0.72179 0.39248 0.53702 0.0
C880 C 0.6804 0.34429 0.5222 0.0
C881 C 0.7115 0.3403 0.50938 0.0
C882 C 0.7323 0.36459 0.51693 0.0
N883 N 0.67027 0.37172 0.54186 0.0
C884 C 0.69051 0.39565 0.54931 0.0
Co885 Co 0.37677 0.87598 0.44243 0.0
Co886 Co 0.37802 0.87797 0.31357 0.0
O887 O 0.36237 0.89199 0.37823 0.0
C888 C 0.38693 0.94362 0.44942 0.0
O889 O 0.39742 0.94244 0.40365 0.0
C890 C 0.31033 0.86792 0.30717 0.0
O891 O 0.31159 0.8573 0.35286 0.0
O892 O 0.37316 0.83366 0.33269 0.0
O893 O 0.37668 0.83267 0.41604 0.0
H894 H 0.44416 0.81341 0.19984 0.0
H895 H 0.32144 0.91661 0.43883 0.0
O896 O 0.37731 0.91907 0.47068 0.0
H897 H 0.28484 0.81799 0.51041 0.0
H898 H 0.37912 0.87056 0.62945 0.0
H899 H 0.42312 0.82917 0.47371 0.0
H900 H 0.33975 0.82479 0.48757 0.0
H901 H 0.36092 0.88979 0.54814 0.0
O902 O 0.33483 0.87762 0.28586 0.0
H903 H 0.42453 0.83166 0.2809 0.0
H904 H 0.36376 0.89452 0.20833 0.0
H905 H 0.44181 0.80909 0.55419 0.0
H906 H 0.26635 0.9109 0.46154 0.0
H907 H 0.41977 0.82984 0.6328 0.0
H908 H 0.24772 0.86126 0.49746 0.0
O909 O 0.42096 0.88088 0.4227 0.0
H910 H 0.34322 0.98863 0.29705 0.0
H911 H 0.42901 0.91523 0.26835 0.0
H912 H 0.4358 0.97034 0.24656 0.0
H913 H 0.3927 0.00745 0.26088 0.0
H914 H 0.33751 0.93334 0.31868 0.0
H915 H 0.38254 0.87677 0.12646 0.0
H916 H 0.42311 0.83601 0.12188 0.0
O917 O 0.42147 0.87784 0.33931 0.0
C918 C 0.37436 0.81916 0.37396 0.0
C919 C 0.42655 0.83126 0.20135 0.0
C920 C 0.39194 0.86679 0.16016 0.0
N921 N 0.39322 0.8643 0.24933 0.0
C922 C 0.41541 0.84175 0.24713 0.0
C923 C 0.38135 0.87671 0.20662 0.0
C924 C 0.41471 0.84393 0.15762 0.0
C925 C 0.31355 0.89506 0.4549 0.0
N926 N 0.3338 0.87112 0.46205 0.0
C927 C 0.28232 0.89191 0.46749 0.0
C928 C 0.27187 0.86403 0.48757 0.0
C929 C 0.29268 0.83973 0.49481 0.0
C930 C 0.32373 0.8437 0.48169 0.0
C931 C 0.38886 0.8613 0.59546 0.0
C932 C 0.41328 0.83816 0.50776 0.0
C933 C 0.37869 0.87214 0.54932 0.0
N934 N 0.39079 0.86043 0.50624 0.0
C935 C 0.42402 0.82677 0.55322 0.0
C936 C 0.41166 0.83844 0.59731 0.0
C937 C 0.43522 0.87988 0.38121 0.0
C938 C 0.36214 0.97266 0.29051 0.0
C939 C 0.41017 0.93124 0.27479 0.0
C940 C 0.41413 0.96241 0.26228 0.0
C941 C 0.38992 0.98322 0.27028 0.0
N942 N 0.38284 0.92107 0.2946 0.0
C943 C 0.35899 0.94132 0.30248 0.0
C944 C 0.13273 0.76759 0.17607 0.0
C945 C 0.13098 0.78436 0.13129 0.0
H946 H 0.13381 0.72298 0.21091 0.0
C947 C 0.12942 0.76785 0.0862 0.0
H948 H 0.13391 0.77949 0.21152 0.0
C949 C 0.12936 0.73548 0.08584 0.0
C950 C 0.13086 0.71866 0.13058 0.0
H951 H 0.12799 0.77988 0.05094 0.0
H952 H 0.1279 0.72369 0.05033 0.0
C953 C 0.13267 0.73513 0.17571 0.0
C954 C 0.48617 0.87962 0.33635 0.0
C955 C 0.46962 0.88077 0.38137 0.0
H956 H 0.53035 0.87852 0.30073 0.0
C957 C 0.48633 0.88222 0.42628 0.0
H958 H 0.47419 0.87844 0.30099 0.0
C959 C 0.51877 0.88227 0.42613 0.0
C960 C 0.53528 0.88087 0.38106 0.0
H961 H 0.4744 0.88308 0.46168 0.0
H962 H 0.53087 0.88317 0.46142 0.0
C963 C 0.51852 0.87967 0.3362 0.0
C964 C 0.37112 0.26848 0.67512 0.0
C965 C 0.37251 0.28493 0.63001 0.0
H966 H 0.37031 0.22413 0.71079 0.0
C967 C 0.37362 0.26811 0.58519 0.0
H968 H 0.37029 0.28064 0.71038 0.0
C969 C 0.37363 0.23575 0.58542 0.0
C970 C 0.37253 0.21926 0.63049 0.0
H971 H 0.37475 0.27989 0.54968 0.0
H972 H 0.37477 0.22371 0.55009 0.0
C973 C 0.37113 0.23603 0.67536 0.0
C974 C 0.01803 0.12059 0.92486 0.0
C975 C 0.03473 0.12198 0.87999 0.0
H976 H 0.97351 0.11991 0.95992 0.0
C977 C 0.01817 0.1232 0.83494 0.0
H978 H 0.02997 0.11968 0.96028 0.0
C979 C 0.98582 0.12334 0.83473 0.0
C980 C 0.96908 0.12227 0.87957 0.0
H981 H 0.03015 0.12433 0.7996 0.0
H982 H 0.97398 0.12457 0.79925 0.0
C983 C 0.98559 0.12073 0.92465 0.0
C984 C 0.13203 0.26738 0.82671 0.0
C985 C 0.13011 0.28416 0.87153 0.0
H986 H 0.13337 0.22274 0.79176 0.0
C987 C 0.12843 0.26767 0.91655 0.0
H988 H 0.1333 0.27927 0.79132 0.0
C989 C 0.12847 0.23531 0.9168 0.0
C990 C 0.13019 0.21847 0.87205 0.0
H991 H 0.12686 0.27971 0.95183 0.0
H992 H 0.12694 0.22354 0.95228 0.0
C993 C 0.13208 0.23491 0.82697 0.0
C994 C 0.98607 0.87929 0.16853 0.0
C995 C 0.96953 0.88099 0.12351 0.0
H996 H 0.03023 0.87758 0.20423 0.0
C997 C 0.98625 0.88285 0.0787 0.0
H998 H 0.97407 0.87778 0.20382 0.0
C999 C 0.01868 0.88274 0.07894 0.0
C1000 C 0.03518 0.88076 0.124 0.0
H1001 H 0.97432 0.88414 0.0433 0.0
H1002 H 0.03079 0.88395 0.04372 0.0
C1003 C 0.01842 0.87917 0.16877 0.0
C1004 C 0.37462 0.73559 0.41769 0.0
C1005 C 0.37321 0.71908 0.37259 0.0
H1006 H 0.37606 0.77974 0.45356 0.0
C1007 C 0.3716 0.73583 0.32779 0.0
H1008 H 0.37592 0.72357 0.45297 0.0
C1009 C 0.37169 0.76829 0.32813 0.0
C1010 C 0.37338 0.78475 0.37328 0.0
H1011 H 0.37054 0.72392 0.29233 0.0
H1012 H 0.37068 0.78043 0.29292 0.0
C1013 C 0.3747 0.76795 0.41803 0.0
C1014 C 0.51795 0.12187 0.57805 0.0
C1015 C 0.53463 0.1236 0.62296 0.0
H1016 H 0.47344 0.12073 0.54286 0.0
C1017 C 0.51806 0.12508 0.66794 0.0
H1018 H 0.52991 0.12076 0.54269 0.0
C1019 C 0.48571 0.12506 0.66804 0.0
C1020 C 0.46899 0.12357 0.62317 0.0
H1021 H 0.53002 0.12648 0.7033 0.0
H1022 H 0.47387 0.12645 0.70347 0.0
C1023 C 0.48552 0.12185 0.57815 0.0
C1024 C 0.87152 0.23548 0.82639 0.0
C1025 C 0.87333 0.21895 0.87139 0.0
H1026 H 0.87021 0.2799 0.79097 0.0
C1027 C 0.87476 0.23569 0.91627 0.0
H1028 H 0.87043 0.22339 0.7911 0.0
C1029 C 0.87463 0.26806 0.9162 0.0
C1030 C 0.87305 0.28464 0.87125 0.0
H1031 H 0.87622 0.22385 0.95169 0.0
H1032 H 0.876 0.28003 0.95157 0.0
C1033 C 0.87139 0.26794 0.82632 0.0
C1034 C 0.63294 0.7361 0.32737 0.0
C1035 C 0.63147 0.71944 0.37228 0.0
H1036 H 0.63387 0.78061 0.29225 0.0
C1037 C 0.63037 0.73605 0.4173 0.0
H1038 H 0.63377 0.72411 0.29197 0.0
C1039 C 0.63043 0.76841 0.41746 0.0
C1040 C 0.63159 0.78512 0.3726 0.0
H1041 H 0.62919 0.72411 0.45266 0.0
H1042 H 0.6293 0.78029 0.45294 0.0
C1043 C 0.63299 0.76855 0.32753 0.0
C1044 C 0.87167 0.73577 0.17523 0.0
C1045 C 0.87361 0.71917 0.13024 0.0
H1046 H 0.87038 0.78025 0.21067 0.0
C1047 C 0.87535 0.73585 0.0854 0.0
H1048 H 0.87035 0.72373 0.21049 0.0
C1049 C 0.87537 0.76821 0.08551 0.0
C1050 C 0.87365 0.78486 0.13045 0.0
H1051 H 0.87693 0.72396 0.04999 0.0
H1052 H 0.87696 0.78013 0.05017 0.0
C1053 C 0.87168 0.76823 0.17533 0.0
C1054 C 0.62917 0.26857 0.58495 0.0
C1055 C 0.63043 0.28534 0.62982 0.0
H1056 H 0.62801 0.22421 0.54972 0.0
C1057 C 0.63205 0.26884 0.67487 0.0
H1058 H 0.62786 0.28039 0.5495 0.0
C1059 C 0.63215 0.23638 0.675 0.0
C1060 C 0.63062 0.21966 0.63008 0.0
H1061 H 0.63301 0.28095 0.71015 0.0
H1062 H 0.63317 0.22444 0.71038 0.0
C1063 C 0.62926 0.23621 0.58508 0.0
C1064 C 0.01772 0.37916 0.83365 0.0
C1065 C 0.03439 0.38068 0.87857 0.0
H1066 H 0.97343 0.37779 0.79828 0.0
C1067 C 0.01782 0.3826 0.92352 0.0
H1068 H 0.0296 0.37763 0.79827 0.0
C1069 C 0.98538 0.38269 0.92352 0.0
C1070 C 0.96875 0.38088 0.87858 0.0
H1071 H 0.02985 0.38376 0.95884 0.0
H1072 H 0.97339 0.38392 0.95885 0.0
C1073 C 0.98536 0.37926 0.83366 0.0
C1074 C 0.51835 0.62505 0.3347 0.0
C1075 C 0.53504 0.62357 0.3796 0.0
H1076 H 0.47408 0.62635 0.29932 0.0
C1077 C 0.51846 0.62173 0.42456 0.0
H1078 H 0.53023 0.62653 0.29931 0.0
C1079 C 0.48602 0.62162 0.42457 0.0
C1080 C 0.46938 0.62333 0.37961 0.0
H1081 H 0.53051 0.62061 0.45987 0.0
H1082 H 0.47402 0.62041 0.45988 0.0
C1083 C 0.48601 0.62494 0.33471 0.0
C1084 C 0.51763 0.38018 0.66666 0.0
C1085 C 0.53425 0.38129 0.62172 0.0
H1086 H 0.47341 0.37897 0.7021 0.0
C1087 C 0.51762 0.38257 0.57673 0.0
H1088 H 0.52955 0.37913 0.70208 0.0
C1089 C 0.48518 0.38247 0.57673 0.0
C1090 C 0.4686 0.3811 0.62173 0.0
H1091 H 0.52961 0.3834 0.54138 0.0
H1092 H 0.47313 0.38323 0.54139 0.0
C1093 C 0.48528 0.38008 0.66667 0.0
C1094 C 0.01825 0.6209 0.07735 0.0
C1095 C 0.03489 0.62247 0.12232 0.0
H1096 H 0.97378 0.61999 0.04203 0.0
C1097 C 0.01828 0.62382 0.16726 0.0
H1098 H 0.03024 0.61987 0.04201 0.0
C1099 C 0.98592 0.6239 0.16727 0.0
C1100 C 0.96924 0.62261 0.12234 0.0
H1101 H 0.03021 0.6251 0.20266 0.0
H1102 H 0.97404 0.62522 0.20268 0.0
C1103 C 0.98582 0.62096 0.07736 0.0
C1104 C 0.11812 0.50159 0.05217 0.0
C1105 C 0.11823 0.52996 0.0266 0.0
H1106 H 0.11841 0.45202 0.0467 0.0
C1107 C 0.11846 0.52974 0.97429 0.0
H1108 H 0.11808 0.50104 0.09246 0.0
C1109 C 0.11809 0.50169 0.94807 0.0
C1110 C 0.11818 0.47331 0.97365 0.0
H1111 H 0.11844 0.55126 0.95356 0.0
H1112 H 0.11802 0.50223 0.90779 0.0
C1113 C 0.11844 0.47354 0.02596 0.0
C1114 C 0.7523 0.86861 0.30355 0.0
C1115 C 0.72393 0.86869 0.27793 0.0
H1116 H 0.80183 0.86892 0.29817 0.0
C1117 C 0.72412 0.86885 0.22562 0.0
H1118 H 0.75287 0.86862 0.34384 0.0
C1119 C 0.75213 0.86845 0.19945 0.0
C1120 C 0.78051 0.86859 0.22508 0.0
H1121 H 0.70259 0.8688 0.20485 0.0
H1122 H 0.75157 0.86833 0.15916 0.0
C1123 C 0.78031 0.86891 0.27739 0.0
C1124 C 0.38547 0.47364 0.47441 0.0
C1125 C 0.38564 0.47345 0.52672 0.0
H1126 H 0.38605 0.50111 0.40799 0.0
C1127 C 0.38585 0.50183 0.55238 0.0
H1128 H 0.38542 0.4521 0.45362 0.0
C1129 C 0.38565 0.52986 0.52625 0.0
C1130 C 0.38593 0.53005 0.47394 0.0
H1131 H 0.38586 0.5024 0.59267 0.0
H1132 H 0.38572 0.55139 0.54706 0.0
C1133 C 0.38596 0.50167 0.44828 0.0
C1134 C 0.724 0.13612 0.77699 0.0
C1135 C 0.72359 0.13627 0.72468 0.0
H1136 H 0.75172 0.13645 0.84321 0.0
C1137 C 0.75186 0.13619 0.69882 0.0
H1138 H 0.70256 0.13627 0.79793 0.0
C1139 C 0.77998 0.13573 0.72475 0.0
C1140 C 0.78038 0.13603 0.77706 0.0
H1141 H 0.75226 0.13618 0.65853 0.0
H1142 H 0.80142 0.13559 0.70381 0.0
C1143 C 0.75212 0.13634 0.80292 0.0
C1144 C 0.88506 0.47389 0.02614 0.0
C1145 C 0.88526 0.47367 0.97383 0.0
H1146 H 0.88556 0.50137 0.09266 0.0
C1147 C 0.88538 0.50205 0.94828 0.0
H1148 H 0.88507 0.45236 0.04687 0.0
C1149 C 0.8851 0.5301 0.97451 0.0
C1150 C 0.8854 0.53031 0.02682 0.0
H1151 H 0.8854 0.50261 0.90799 0.0
H1152 H 0.88514 0.55162 0.95379 0.0
C1153 C 0.88547 0.50193 0.05237 0.0
C1154 C 0.25198 0.13577 0.8043 0.0
C1155 C 0.22364 0.13527 0.77858 0.0
H1156 H 0.30153 0.13589 0.79906 0.0
C1157 C 0.22391 0.13482 0.72627 0.0
H1158 H 0.25249 0.13599 0.84459 0.0
C1159 C 0.25194 0.13533 0.7002 0.0
C1160 C 0.28028 0.1356 0.72591 0.0
H1161 H 0.20241 0.13454 0.70543 0.0
H1162 H 0.25143 0.13521 0.65991 0.0
C1163 C 0.28003 0.13558 0.77823 0.0
C1164 C 0.61764 0.5022 0.44835 0.0
C1165 C 0.61791 0.53058 0.47403 0.0
H1166 H 0.61772 0.45263 0.45366 0.0
C1167 C 0.6181 0.53037 0.52634 0.0
H1168 H 0.61761 0.50165 0.40806 0.0
C1169 C 0.6176 0.50234 0.55245 0.0
C1170 C 0.61759 0.47396 0.52678 0.0
H1171 H 0.6182 0.5519 0.54715 0.0
H1172 H 0.61755 0.5029 0.59274 0.0
C1173 C 0.61783 0.47417 0.47447 0.0
C1174 C 0.28025 0.86835 0.22748 0.0
C1175 C 0.28058 0.86811 0.27979 0.0
H1176 H 0.25263 0.8678 0.16115 0.0
C1177 C 0.25228 0.86783 0.30554 0.0
H1178 H 0.30172 0.86846 0.20661 0.0
C1179 C 0.22419 0.86802 0.27949 0.0
C1180 C 0.22387 0.86778 0.22718 0.0
H1181 H 0.25182 0.86777 0.34583 0.0
H1182 H 0.20272 0.86788 0.30035 0.0
C1183 C 0.25217 0.86784 0.20144 0.0
C1184 C 0.61812 0.03026 0.47591 0.0
C1185 C 0.61797 0.0306 0.52822 0.0
H1186 H 0.61779 0.00262 0.40956 0.0
C1187 C 0.61803 0.00228 0.55395 0.0
H1188 H 0.61798 0.05174 0.45505 0.0
C1189 C 0.61849 0.97418 0.52789 0.0
C1190 C 0.61819 0.97385 0.47558 0.0
H1191 H 0.61804 0.00183 0.59424 0.0
H1192 H 0.61862 0.9527 0.54874 0.0
C1193 C 0.61789 0.00217 0.44985 0.0
C1194 C 0.2516 0.36771 0.69828 0.0
C1195 C 0.27992 0.36803 0.72405 0.0
H1196 H 0.20205 0.36769 0.70342 0.0
C1197 C 0.27963 0.36824 0.77636 0.0
H1198 H 0.25111 0.36767 0.65799 0.0
C1199 C 0.25157 0.36767 0.80238 0.0
C1200 C 0.22324 0.3676 0.77661 0.0
H1201 H 0.30111 0.36837 0.79724 0.0
H1202 H 0.25205 0.36762 0.84267 0.0
C1203 C 0.22354 0.36785 0.7243 0.0
C1204 C 0.88534 0.0301 0.02678 0.0
C1205 C 0.88555 0.03019 0.97446 0.0
H1206 H 0.88588 0.00277 0.09335 0.0
C1207 C 0.88574 0.00175 0.94897 0.0
H1208 H 0.88529 0.05168 0.04747 0.0
C1209 C 0.88552 0.97377 0.97525 0.0
C1210 C 0.88579 0.97368 0.02756 0.0
H1211 H 0.88577 1.0011 0.90868 0.0
H1212 H 0.8856 0.9522 0.95456 0.0
C1213 C 0.8858 0.00212 0.05306 0.0
C1214 C 0.22418 0.63493 0.27655 0.0
C1215 C 0.22387 0.63524 0.22424 0.0
H1216 H 0.25176 0.63537 0.34292 0.0
C1217 C 0.25219 0.63551 0.19853 0.0
H1218 H 0.2027 0.63482 0.29739 0.0
C1219 C 0.28026 0.63526 0.22461 0.0
C1220 C 0.28056 0.63543 0.27692 0.0
H1221 H 0.25267 0.63563 0.15824 0.0
H1222 H 0.30174 0.63541 0.20378 0.0
C1223 C 0.25224 0.63537 0.30263 0.0
C1224 C 0.38651 0.00188 0.55508 0.0
C1225 C 0.38621 0.03017 0.52927 0.0
H1226 H 0.38644 0.9523 0.54999 0.0
C1227 C 0.38599 0.02978 0.47696 0.0
H1228 H 0.38656 1.00148 0.59537 0.0
C1229 C 0.38649 0.00167 0.45098 0.0
C1230 C 0.38653 0.97338 0.47679 0.0
H1231 H 0.38587 0.05124 0.45605 0.0
H1232 H 0.38652 0.00208 0.41069 0.0
C1233 C 0.38632 0.97376 0.52909 0.0
C1234 C 0.75207 0.63612 0.19869 0.0
C1235 C 0.78041 0.6359 0.22441 0.0
H1236 H 0.70253 0.63589 0.20392 0.0
C1237 C 0.78015 0.63555 0.27672 0.0
H1238 H 0.75156 0.63626 0.1584 0.0
C1239 C 0.75211 0.6359 0.30279 0.0
C1240 C 0.72377 0.6359 0.27707 0.0
H1241 H 0.80165 0.63547 0.29757 0.0
H1242 H 0.75262 0.63586 0.34308 0.0
C1243 C 0.72403 0.63578 0.22476 0.0
C1244 C 0.11862 0.00197 0.05517 0.0
C1245 C 0.11889 0.9735 0.02973 0.0
H1246 H 0.11868 0.05152 0.04945 0.0
C1247 C 0.11917 0.97356 0.97741 0.0
H1248 H 0.11853 0.00264 0.09545 0.0
C1249 C 0.11869 1.00151 0.95107 0.0
C1250 C 0.11862 0.02997 0.9765 0.0
H1251 H 0.11927 0.95197 0.95676 0.0
H1252 H 0.11867 1.00082 0.91079 0.0
C1253 C 0.11883 0.02993 0.02882 0.0
C1254 C 0.75134 0.36828 0.69835 0.0
C1255 C 0.72304 0.36857 0.72411 0.0
H1256 H 0.80089 0.3683 0.70349 0.0
C1257 C 0.72339 0.36879 0.77642 0.0
H1258 H 0.75179 0.36823 0.65806 0.0
C1259 C 0.75147 0.36826 0.80245 0.0
C1260 C 0.77977 0.36819 0.77668 0.0
H1261 H 0.70192 0.3689 0.79729 0.0
H1262 H 0.75102 0.3682 0.84274 0.0
C1263 C 0.77943 0.36844 0.72437 0.0
loop_
_geom_bond_atom_site_label_1
_geom_bond_atom_site_label_2
_geom_bond_distance
_geom_bond_site_symmetry_2
_ccdc_geom_bond_type
Co0 O2 2.143 . S
Co0 O8 2.074 . S
Co0 O11 2.093 . S
Co0 O24 2.097 . S
Co0 N41 2.151 . S
Co0 N49 2.214 1_554 S
Co1 O2 2.160 . S
Co1 O7 2.058 . S
Co1 O17 2.057 . S
Co1 O32 2.037 . S
Co1 N36 2.145 . S
Co1 N57 2.257 . S
O2 Co0 2.143 . S
O2 Co1 2.160 . S
C3 O4 1.278 . S
C3 O11 1.224 . S
O4 C3 1.278 . S
C5 O6 1.245 . S
C5 O17 1.232 . S
O6 C5 1.245 . S
O7 Co1 2.058 . S
O7 C33 1.269 . S
O8 Co0 2.074 . S
O8 C33 1.257 . S
H9 C34 0.930 . S
H10 C40 0.930 . S
O11 Co0 2.093 . S
O11 C3 1.224 . S
H12 C44 0.929 . S
H13 C46 0.930 . S
H14 C47 0.938 . S
H15 C45 0.929 . S
H16 C48 0.928 . S
O17 Co1 2.057 . S
O17 C5 1.232 . S
H18 C37 0.929 . S
H19 C38 0.929 . S
H20 C50 0.931 . S
H21 C42 0.929 . S
H22 C51 0.930 . S
H23 C43 0.931 . S
O24 Co0 2.097 . S
O24 C52 1.214 . S
H25 C53 0.929 . S
H26 C54 0.929 . S
H27 C55 0.930 . S
H28 C56 0.929 . S
H29 C58 0.930 . S
H30 C35 0.930 . S
H31 C39 0.930 . S
O32 Co1 2.037 . S
O32 C52 1.234 . S
C33 O7 1.269 . S
C33 O8 1.257 . S
C34 H9 0.930 . S
C34 C37 1.388 . S
C34 C39 1.418 . S
C35 H30 0.930 . S
C35 C38 1.404 . S
C35 C39 1.353 . S
N36 Co1 2.145 . S
N36 C37 1.397 . S
N36 C38 1.334 . S
C37 H18 0.929 . S
C37 C34 1.388 . S
C37 N36 1.397 . S
C38 H19 0.929 . S
C38 C35 1.404 . S
C38 N36 1.334 . S
C39 H31 0.930 . S
C39 C34 1.418 . S
C39 C35 1.353 . S
C40 H10 0.930 . S
C40 N41 1.330 . S
C40 C42 1.446 1_554 S
N41 Co0 2.151 . S
N41 C40 1.330 . S
N41 C45 1.418 1_554 S
C42 H21 0.929 . S
C42 C40 1.446 1_556 S
C42 C43 1.332 . S
C43 H23 0.931 . S
C43 C42 1.332 . S
C43 C44 1.267 . S
C44 H12 0.929 . S
C44 C43 1.267 . S
C44 C45 1.251 . S
C45 H15 0.929 . S
C45 N41 1.418 1_556 S
C45 C44 1.251 . S
C46 H13 0.930 . S
C46 C48 1.406 . S
C46 C51 1.261 . S
C47 H14 0.938 . S
C47 N49 1.324 1_554 S
C47 C50 1.351 1_554 S
C48 H16 0.928 . S
C48 C46 1.406 . S
C48 N49 1.261 . S
N49 Co0 2.214 1_556 S
N49 C47 1.324 1_556 S
N49 C48 1.261 . S
C50 H20 0.931 . S
C50 C47 1.351 1_556 S
C50 C51 1.312 . S
C51 H22 0.930 . S
C51 C46 1.261 . S
C51 C50 1.312 . S
C52 O24 1.214 . S
C52 O32 1.234 . S
C53 H25 0.929 . S
C53 C56 1.391 . S
C53 C58 1.391 . S
C54 H26 0.929 . S
C54 C55 1.390 . S
C54 N57 1.391 . S
C55 H27 0.930 . S
C55 C54 1.390 . S
C55 C56 1.392 . S
C56 H28 0.929 . S
C56 C53 1.391 . S
C56 C55 1.392 . S
N57 Co1 2.257 . S
N57 C54 1.391 . S
N57 C58 1.388 . S
C58 H29 0.930 . S
C58 C53 1.391 . S
C58 N57 1.388 . S
Co59 O61 2.143 . S
Co59 O67 2.074 . S
Co59 O70 2.093 . S
Co59 O83 2.097 . S
Co59 N100 2.151 . S
Co59 N108 2.214 . S
Co60 O61 2.160 . S
Co60 O66 2.058 . S
Co60 O76 2.057 . S
Co60 O91 2.037 . S
Co60 N95 2.145 . S
Co60 N116 2.257 . S
O61 Co59 2.143 . S
O61 Co60 2.160 . S
C62 O63 1.278 . S
C62 O70 1.224 . S
O63 C62 1.278 . S
C64 O65 1.245 . S
C64 O76 1.232 . S
O65 C64 1.245 . S
O66 Co60 2.058 . S
O66 C92 1.269 . S
O67 Co59 2.074 . S
O67 C92 1.257 . S
H68 C93 0.930 . S
H69 C99 0.930 . S
O70 Co59 2.093 . S
O70 C62 1.224 . S
H71 C103 0.929 . S
H72 C105 0.930 . S
H73 C106 0.930 . S
H74 C104 0.929 . S
H75 C107 0.928 . S
O76 Co60 2.057 . S
O76 C64 1.232 . S
H77 C96 0.929 . S
H78 C97 0.929 . S
H79 C109 0.931 . S
H80 C101 0.929 . S
H81 C110 0.930 . S
H82 C102 0.931 . S
O83 Co59 2.097 . S
O83 C111 1.214 . S
H84 C112 0.929 . S
H85 C113 0.929 . S
H86 C114 0.930 . S
H87 C115 0.929 . S
H88 C117 0.930 . S
H89 C94 0.930 . S
H90 C98 0.930 . S
O91 Co60 2.037 . S
O91 C111 1.234 . S
C92 O66 1.269 . S
C92 O67 1.257 . S
C93 H68 0.930 . S
C93 C96 1.388 . S
C93 C98 1.418 . S
C94 H89 0.930 . S
C94 C97 1.404 . S
C94 C98 1.353 . S
N95 Co60 2.145 . S
N95 C96 1.397 . S
N95 C97 1.334 . S
C96 H77 0.929 . S
C96 C93 1.388 . S
C96 N95 1.397 . S
C97 H78 0.929 . S
C97 C94 1.404 . S
C97 N95 1.334 . S
C98 H90 0.930 . S
C98 C93 1.418 . S
C98 C94 1.353 . S
C99 H69 0.930 . S
C99 N100 1.330 . S
C99 C101 1.446 . S
N100 Co59 2.151 . S
N100 C99 1.330 . S
N100 C104 1.418 . S
C101 H80 0.929 . S
C101 C99 1.446 . S
C101 C102 1.332 . S
C102 H82 0.931 . S
C102 C101 1.332 . S
C102 C103 1.267 . S
C103 H71 0.929 . S
C103 C102 1.267 . S
C103 C104 1.251 . S
C104 H74 0.929 . S
C104 N100 1.418 . S
C104 C103 1.251 . S
C105 H72 0.930 . S
C105 C107 1.406 . S
C105 C110 1.261 . S
C106 H73 0.930 . S
C106 N108 1.325 . S
C106 C109 1.357 . S
C107 H75 0.928 . S
C107 C105 1.406 . S
C107 N108 1.261 . S
N108 Co59 2.214 . S
N108 C106 1.325 . S
N108 C107 1.261 . S
C109 H79 0.931 . S
C109 C106 1.357 . S
C109 C110 1.312 . S
C110 H81 0.930 . S
C110 C105 1.261 . S
C110 C109 1.312 . S
C111 O83 1.214 . S
C111 O91 1.234 . S
C112 H84 0.929 . S
C112 C115 1.391 . S
C112 C117 1.391 . S
C113 H85 0.929 . S
C113 C114 1.390 . S
C113 N116 1.391 . S
C114 H86 0.930 . S
C114 C113 1.390 . S
C114 C115 1.392 . S
C115 H87 0.929 . S
C115 C112 1.391 . S
C115 C114 1.392 . S
N116 Co60 2.257 . S
N116 C113 1.391 . S
N116 C117 1.388 . S
C117 H88 0.930 . S
C117 C112 1.391 . S
C117 N116 1.388 . S
Co118 O120 2.143 . S
Co118 O126 2.074 . S
Co118 O129 2.093 . S
Co118 O142 2.097 . S
Co118 N159 2.151 . S
Co118 N167 2.214 . S
Co119 O120 2.160 . S
Co119 O125 2.058 . S
Co119 O135 2.057 . S
Co119 O150 2.037 . S
Co119 N154 2.145 . S
Co119 N175 2.257 . S
O120 Co118 2.143 . S
O120 Co119 2.160 . S
C121 O122 1.278 . S
C121 O129 1.224 . S
O122 C121 1.278 . S
C123 O124 1.245 . S
C123 O135 1.232 . S
O124 C123 1.245 . S
O125 Co119 2.058 . S
O125 C151 1.269 . S
O126 Co118 2.074 . S
O126 C151 1.257 . S
H127 C152 0.930 . S
H128 C158 0.930 . S
O129 Co118 2.093 . S
O129 C121 1.224 . S
H130 C162 0.929 . S
H131 C164 0.930 . S
H132 C165 0.930 . S
H133 C163 0.929 . S
H134 C166 0.928 . S
O135 Co119 2.057 . S
O135 C123 1.232 . S
H136 C155 0.929 . S
H137 C156 0.929 . S
H138 C168 0.931 . S
H139 C160 0.929 . S
H140 C169 0.930 . S
H141 C161 0.931 . S
O142 Co118 2.097 . S
O142 C170 1.214 . S
H143 C171 0.929 . S
H144 C172 0.929 . S
H145 C173 0.930 . S
H146 C174 0.929 . S
H147 C176 0.930 . S
H148 C153 0.930 . S
H149 C157 0.930 . S
O150 Co119 2.037 . S
O150 C170 1.234 . S
C151 O125 1.269 . S
C151 O126 1.257 . S
C152 H127 0.930 . S
C152 C155 1.388 . S
C152 C157 1.418 . S
C153 H148 0.930 . S
C153 C156 1.404 . S
C153 C157 1.353 . S
N154 Co119 2.145 . S
N154 C155 1.397 . S
N154 C156 1.334 . S
C155 H136 0.929 . S
C155 C152 1.388 . S
C155 N154 1.397 . S
C156 H137 0.929 . S
C156 C153 1.404 . S
C156 N154 1.334 . S
C157 H149 0.930 . S
C157 C152 1.418 . S
C157 C153 1.353 . S
C158 H128 0.930 . S
C158 N159 1.330 . S
C158 C160 1.446 . S
N159 Co118 2.151 . S
N159 C158 1.330 . S
N159 C163 1.418 . S
C160 H139 0.929 . S
C160 C158 1.446 . S
C160 C161 1.332 . S
C161 H141 0.931 . S
C161 C160 1.332 . S
C161 C162 1.267 . S
C162 H130 0.929 . S
C162 C161 1.267 . S
C162 C163 1.251 . S
C163 H133 0.929 . S
C163 N159 1.418 . S
C163 C162 1.251 . S
C164 H131 0.930 . S
C164 C166 1.406 . S
C164 C169 1.261 . S
C165 H132 0.930 . S
C165 N167 1.325 . S
C165 C168 1.357 . S
C166 H134 0.928 . S
C166 C164 1.406 . S
C166 N167 1.261 . S
N167 Co118 2.214 . S
N167 C165 1.325 . S
N167 C166 1.261 . S
C168 H138 0.931 . S
C168 C165 1.357 . S
C168 C169 1.312 . S
C169 H140 0.930 . S
C169 C164 1.261 . S
C169 C168 1.312 . S
C170 O142 1.214 . S
C170 O150 1.234 . S
C171 H143 0.929 . S
C171 C174 1.391 . S
C171 C176 1.391 . S
C172 H144 0.929 . S
C172 C173 1.390 . S
C172 N175 1.391 . S
C173 H145 0.930 . S
C173 C172 1.390 . S
C173 C174 1.392 . S
C174 H146 0.929 . S
C174 C171 1.391 . S
C174 C173 1.392 . S
N175 Co119 2.257 . S
N175 C172 1.391 . S
N175 C176 1.388 . S
C176 H147 0.930 . S
C176 C171 1.391 . S
C176 N175 1.388 . S
Co177 O179 2.143 . S
Co177 O185 2.074 . S
Co177 O188 2.093 . S
Co177 O201 2.097 . S
Co177 N218 2.151 . S
Co177 N226 2.214 . S
Co178 O179 2.160 . S
Co178 O184 2.058 . S
Co178 O194 2.057 . S
Co178 O209 2.037 . S
Co178 N213 2.145 1_556 S
Co178 N234 2.257 . S
O179 Co177 2.143 . S
O179 Co178 2.160 . S
C180 O181 1.278 . S
C180 O188 1.224 . S
O181 C180 1.278 . S
C182 O183 1.245 . S
C182 O194 1.232 . S
O183 C182 1.245 . S
O184 Co178 2.058 . S
O184 C210 1.269 . S
O185 Co177 2.074 . S
O185 C210 1.257 . S
H186 C211 0.930 . S
H187 C217 0.930 . S
O188 Co177 2.093 . S
O188 C180 1.224 . S
H189 C221 0.929 . S
H190 C223 0.930 . S
H191 C224 0.930 . S
H192 C222 0.929 . S
H193 C225 0.928 . S
O194 Co178 2.057 . S
O194 C182 1.232 . S
H195 C214 0.929 1_556 S
H196 C215 0.929 . S
H197 C227 0.931 . S
H198 C219 0.929 . S
H199 C228 0.930 . S
H200 C220 0.931 . S
O201 Co177 2.097 . S
O201 C229 1.214 . S
H202 C230 0.929 . S
H203 C231 0.929 . S
H204 C232 0.930 . S
H205 C233 0.929 . S
H206 C235 0.930 . S
H207 C212 0.930 . S
H208 C216 0.930 . S
O209 Co178 2.037 . S
O209 C229 1.234 . S
C210 O184 1.269 . S
C210 O185 1.257 . S
C211 H186 0.930 . S
C211 C214 1.388 . S
C211 C216 1.418 . S
C212 H207 0.930 . S
C212 C215 1.404 . S
C212 C216 1.353 . S
N213 Co178 2.145 1_554 S
N213 C214 1.397 . S
N213 C215 1.334 . S
C214 H195 0.929 1_554 S
C214 C211 1.388 . S
C214 N213 1.397 . S
C215 H196 0.929 . S
C215 C212 1.404 . S
C215 N213 1.334 . S
C216 H208 0.930 . S
C216 C211 1.418 . S
C216 C212 1.353 . S
C217 H187 0.930 . S
C217 N218 1.330 . S
C217 C219 1.446 . S
N218 Co177 2.151 . S
N218 C217 1.330 . S
N218 C222 1.418 . S
C219 H198 0.929 . S
C219 C217 1.446 . S
C219 C220 1.332 . S
C220 H200 0.931 . S
C220 C219 1.332 . S
C220 C221 1.267 . S
C221 H189 0.929 . S
C221 C220 1.267 . S
C221 C222 1.251 . S
C222 H192 0.929 . S
C222 N218 1.418 . S
C222 C221 1.251 . S
C223 H190 0.930 . S
C223 C225 1.406 . S
C223 C228 1.261 . S
C224 H191 0.930 . S
C224 N226 1.325 . S
C224 C227 1.357 . S
C225 H193 0.928 . S
C225 C223 1.406 . S
C225 N226 1.261 . S
N226 Co177 2.214 . S
N226 C224 1.325 . S
N226 C225 1.261 . S
C227 H197 0.931 . S
C227 C224 1.357 . S
C227 C228 1.312 . S
C228 H199 0.930 . S
C228 C223 1.261 . S
C228 C227 1.312 . S
C229 O201 1.214 . S
C229 O209 1.234 . S
C230 H202 0.929 . S
C230 C233 1.391 1_556 S
C230 C235 1.391 . S
C231 H203 0.929 . S
C231 C232 1.390 1_556 S
C231 N234 1.391 . S
C232 H204 0.930 . S
C232 C231 1.390 1_554 S
C232 C233 1.392 . S
C233 H205 0.929 . S
C233 C230 1.391 1_554 S
C233 C232 1.392 . S
N234 Co178 2.257 . S
N234 C231 1.391 . S
N234 C235 1.388 . S
C235 H206 0.930 . S
C235 C230 1.391 . S
C235 N234 1.388 . S
Co236 O238 2.143 . S
Co236 O244 2.074 . S
Co236 O247 2.093 . S
Co236 O260 2.097 . S
Co236 N277 2.151 . S
Co236 N285 2.214 1_556 S
Co237 O238 2.160 . S
Co237 O243 2.058 . S
Co237 O253 2.057 . S
Co237 O268 2.037 . S
Co237 N272 2.145 . S
Co237 N293 2.257 . S
O238 Co236 2.143 . S
O238 Co237 2.160 . S
C239 O240 1.278 . S
C239 O247 1.224 . S
O240 C239 1.278 . S
C241 O242 1.245 . S
C241 O253 1.232 . S
O242 C241 1.245 . S
O243 Co237 2.058 . S
O243 C269 1.269 . S
O244 Co236 2.074 . S
O244 C269 1.257 . S
H245 C270 0.930 . S
H246 C276 0.930 . S
O247 Co236 2.093 . S
O247 C239 1.224 . S
H248 C280 0.929 . S
H249 C282 0.930 . S
H250 C283 0.940 . S
H251 C281 0.929 . S
H252 C284 0.928 . S
O253 Co237 2.057 . S
O253 C241 1.232 . S
H254 C273 0.929 . S
H255 C274 0.929 . S
H256 C286 0.931 . S
H257 C278 0.929 . S
H258 C287 0.930 . S
H259 C279 0.931 . S
O260 Co236 2.097 . S
O260 C288 1.214 . S
H261 C289 0.929 . S
H262 C290 0.929 . S
H263 C291 0.930 . S
H264 C292 0.929 . S
H265 C294 0.930 . S
H266 C271 0.930 . S
H267 C275 0.930 . S
O268 Co237 2.037 . S
O268 C288 1.234 . S
C269 O243 1.269 . S
C269 O244 1.257 . S
C270 H245 0.930 . S
C270 C273 1.388 . S
C270 C275 1.418 . S
C271 H266 0.930 . S
C271 C274 1.404 . S
C271 C275 1.353 . S
N272 Co237 2.145 . S
N272 C273 1.397 . S
N272 C274 1.334 . S
C273 H254 0.929 . S
C273 C270 1.388 . S
C273 N272 1.397 . S
C274 H255 0.929 . S
C274 C271 1.404 . S
C274 N272 1.334 . S
C275 H267 0.930 . S
C275 C270 1.418 . S
C275 C271 1.353 . S
C276 H246 0.930 . S
C276 N277 1.330 . S
C276 C278 1.446 1_556 S
N277 Co236 2.151 . S
N277 C276 1.330 . S
N277 C281 1.418 1_556 S
C278 H257 0.929 . S
C278 C276 1.446 1_554 S
C278 C279 1.332 . S
C279 H259 0.931 . S
C279 C278 1.332 . S
C279 C280 1.267 . S
C280 H248 0.929 . S
C280 C279 1.267 . S
C280 C281 1.251 . S
C281 H251 0.929 . S
C281 N277 1.418 1_554 S
C281 C280 1.251 . S
C282 H249 0.930 . S
C282 C284 1.406 . S
C282 C287 1.261 . S
C283 H250 0.940 . S
C283 N285 1.323 1_556 S
C283 C286 1.349 1_556 S
C284 H252 0.928 . S
C284 C282 1.406 . S
C284 N285 1.261 . S
N285 Co236 2.214 1_554 S
N285 C283 1.323 1_554 S
N285 C284 1.261 . S
C286 H256 0.931 . S
C286 C283 1.349 1_554 S
C286 C287 1.312 . S
C287 H258 0.930 . S
C287 C282 1.261 . S
C287 C286 1.312 . S
C288 O260 1.214 . S
C288 O268 1.234 . S
C289 H261 0.929 . S
C289 C292 1.391 . S
C289 C294 1.391 . S
C290 H262 0.929 . S
C290 C291 1.390 . S
C290 N293 1.391 . S
C291 H263 0.930 . S
C291 C290 1.390 . S
C291 C292 1.392 . S
C292 H264 0.929 . S
C292 C289 1.391 . S
C292 C291 1.392 . S
N293 Co237 2.257 . S
N293 C290 1.391 . S
N293 C294 1.388 . S
C294 H265 0.930 . S
C294 C289 1.391 . S
C294 N293 1.388 . S
Co295 O297 2.143 . S
Co295 O303 2.074 . S
Co295 O306 2.093 . S
Co295 O319 2.097 . S
Co295 N336 2.151 . S
Co295 N344 2.214 1_554 S
Co296 O297 2.160 . S
Co296 O302 2.058 . S
Co296 O312 2.057 . S
Co296 O327 2.037 . S
Co296 N331 2.145 . S
Co296 N352 2.257 . S
O297 Co295 2.143 . S
O297 Co296 2.160 . S
C298 O299 1.278 . S
C298 O306 1.224 . S
O299 C298 1.278 . S
C300 O301 1.245 . S
C300 O312 1.232 . S
O301 C300 1.245 . S
O302 Co296 2.058 . S
O302 C328 1.269 . S
O303 Co295 2.074 . S
O303 C328 1.257 . S
H304 C329 0.930 . S
H305 C335 0.930 . S
O306 Co295 2.093 . S
O306 C298 1.224 . S
H307 C339 0.929 . S
H308 C341 0.930 . S
H309 C342 0.933 . S
H310 C340 0.929 . S
H311 C343 0.928 . S
O312 Co296 2.057 . S
O312 C300 1.232 . S
H313 C332 0.929 . S
H314 C333 0.929 . S
H315 C345 0.931 . S
H316 C337 0.929 . S
H317 C346 0.930 . S
H318 C338 0.931 . S
O319 Co295 2.097 . S
O319 C347 1.214 . S
H320 C348 0.929 . S
H321 C349 0.929 . S
H322 C350 0.930 . S
H323 C351 0.929 . S
H324 C353 0.930 . S
H325 C330 0.930 . S
H326 C334 0.930 . S
O327 Co296 2.037 . S
O327 C347 1.234 . S
C328 O302 1.269 . S
C328 O303 1.257 . S
C329 H304 0.930 . S
C329 C332 1.388 . S
C329 C334 1.418 . S
C330 H325 0.930 . S
C330 C333 1.404 . S
C330 C334 1.353 . S
N331 Co296 2.145 . S
N331 C332 1.397 . S
N331 C333 1.334 . S
C332 H313 0.929 . S
C332 C329 1.388 . S
C332 N331 1.397 . S
C333 H314 0.929 . S
C333 C330 1.404 . S
C333 N331 1.334 . S
C334 H326 0.930 . S
C334 C329 1.418 . S
C334 C330 1.353 . S
C335 H305 0.930 . S
C335 N336 1.330 . S
C335 C337 1.446 1_554 S
N336 Co295 2.151 . S
N336 C335 1.330 . S
N336 C340 1.418 1_554 S
C337 H316 0.929 . S
C337 C335 1.446 1_556 S
C337 C338 1.332 . S
C338 H318 0.931 . S
C338 C337 1.332 . S
C338 C339 1.267 . S
C339 H307 0.929 . S
C339 C338 1.267 . S
C339 C340 1.251 . S
C340 H310 0.929 . S
C340 N336 1.418 1_556 S
C340 C339 1.251 . S
C341 H308 0.930 . S
C341 C343 1.406 . S
C341 C346 1.261 . S
C342 H309 0.933 . S
C342 N344 1.325 1_554 S
C342 C345 1.354 1_554 S
C343 H311 0.928 . S
C343 C341 1.406 . S
C343 N344 1.261 . S
N344 Co295 2.214 1_556 S
N344 C342 1.325 1_556 S
N344 C343 1.261 . S
C345 H315 0.931 . S
C345 C342 1.354 1_556 S
C345 C346 1.312 . S
C346 H317 0.930 . S
C346 C341 1.261 . S
C346 C345 1.312 . S
C347 O319 1.214 . S
C347 O327 1.234 . S
C348 H320 0.929 . S
C348 C351 1.391 . S
C348 C353 1.391 . S
C349 H321 0.929 . S
C349 C350 1.390 . S
C349 N352 1.391 . S
C350 H322 0.930 . S
C350 C349 1.390 . S
C350 C351 1.392 . S
C351 H323 0.929 . S
C351 C348 1.391 . S
C351 C350 1.392 . S
N352 Co296 2.257 . S
N352 C349 1.391 . S
N352 C353 1.388 . S
C353 H324 0.930 . S
C353 C348 1.391 . S
C353 N352 1.388 . S
Co354 O356 2.143 . S
Co354 O362 2.074 . S
Co354 O365 2.093 . S
Co354 O378 2.097 . S
Co354 N395 2.151 . S
Co354 N403 2.214 . S
Co355 O356 2.160 . S
Co355 O361 2.058 . S
Co355 O371 2.057 . S
Co355 O386 2.037 . S
Co355 N390 2.145 . S
Co355 N411 2.257 . S
O356 Co354 2.143 . S
O356 Co355 2.160 . S
C357 O358 1.278 . S
C357 O365 1.224 . S
O358 C357 1.278 . S
C359 O360 1.245 . S
C359 O371 1.232 . S
O360 C359 1.245 . S
O361 Co355 2.058 . S
O361 C387 1.269 . S
O362 Co354 2.074 . S
O362 C387 1.257 . S
H363 C388 0.930 . S
H364 C394 0.930 . S
O365 Co354 2.093 . S
O365 C357 1.224 . S
H366 C398 0.929 . S
H367 C400 0.930 . S
H368 C401 0.930 . S
H369 C399 0.929 . S
H370 C402 0.928 . S
O371 Co355 2.057 . S
O371 C359 1.232 . S
H372 C391 0.929 . S
H373 C392 0.929 . S
H374 C404 0.931 . S
H375 C396 0.929 . S
H376 C405 0.930 . S
H377 C397 0.931 . S
O378 Co354 2.097 . S
O378 C406 1.214 . S
H379 C407 0.929 . S
H380 C408 0.929 . S
H381 C409 0.930 . S
H382 C410 0.929 . S
H383 C412 0.930 . S
H384 C389 0.930 . S
H385 C393 0.930 . S
O386 Co355 2.037 . S
O386 C406 1.234 . S
C387 O361 1.269 . S
C387 O362 1.257 . S
C388 H363 0.930 . S
C388 C391 1.388 . S
C388 C393 1.418 . S
C389 H384 0.930 . S
C389 C392 1.404 . S
C389 C393 1.353 . S
N390 Co355 2.145 . S
N390 C391 1.397 . S
N390 C392 1.334 . S
C391 H372 0.929 . S
C391 C388 1.388 . S
C391 N390 1.397 . S
C392 H373 0.929 . S
C392 C389 1.404 . S
C392 N390 1.334 . S
C393 H385 0.930 . S
C393 C388 1.418 . S
C393 C389 1.353 . S
C394 H364 0.930 . S
C394 N395 1.330 . S
C394 C396 1.446 . S
N395 Co354 2.151 . S
N395 C394 1.330 . S
N395 C399 1.418 . S
C396 H375 0.929 . S
C396 C394 1.446 . S
C396 C397 1.332 . S
C397 H377 0.931 . S
C397 C396 1.332 . S
C397 C398 1.267 . S
C398 H366 0.929 . S
C398 C397 1.267 . S
C398 C399 1.251 . S
C399 H369 0.929 . S
C399 N395 1.418 . S
C399 C398 1.251 . S
C400 H367 0.930 . S
C400 C402 1.406 . S
C400 C405 1.261 . S
C401 H368 0.930 . S
C401 N403 1.325 . S
C401 C404 1.357 . S
C402 H370 0.928 . S
C402 C400 1.406 . S
C402 N403 1.261 . S
N403 Co354 2.214 . S
N403 C401 1.325 . S
N403 C402 1.261 . S
C404 H374 0.931 . S
C404 C401 1.357 . S
C404 C405 1.312 . S
C405 H376 0.930 . S
C405 C400 1.261 . S
C405 C404 1.312 . S
C406 O378 1.214 . S
C406 O386 1.234 . S
C407 H379 0.929 . S
C407 C410 1.391 . S
C407 C412 1.391 . S
C408 H380 0.929 . S
C408 C409 1.390 . S
C408 N411 1.391 . S
C409 H381 0.930 . S
C409 C408 1.390 . S
C409 C410 1.392 . S
C410 H382 0.929 . S
C410 C407 1.391 . S
C410 C409 1.392 . S
N411 Co355 2.257 . S
N411 C408 1.391 . S
N411 C412 1.388 . S
C412 H383 0.930 . S
C412 C407 1.391 . S
C412 N411 1.388 . S
Co413 O415 2.143 . S
Co413 O421 2.074 . S
Co413 O424 2.093 . S
Co413 O437 2.097 . S
Co413 N454 2.151 . S
Co413 N462 2.214 . S
Co414 O415 2.160 . S
Co414 O420 2.058 . S
Co414 O430 2.057 . S
Co414 O445 2.037 . S
Co414 N449 2.145 . S
Co414 N470 2.257 . S
O415 Co413 2.143 . S
O415 Co414 2.160 . S
C416 O417 1.278 . S
C416 O424 1.224 . S
O417 C416 1.278 . S
C418 O419 1.245 . S
C418 O430 1.232 . S
O419 C418 1.245 . S
O420 Co414 2.058 . S
O420 C446 1.269 . S
O421 Co413 2.074 . S
O421 C446 1.257 . S
H422 C447 0.930 . S
H423 C453 0.930 . S
O424 Co413 2.093 . S
O424 C416 1.224 . S
H425 C457 0.929 . S
H426 C459 0.930 . S
H427 C460 0.930 . S
H428 C458 0.929 . S
H429 C461 0.928 . S
O430 Co414 2.057 . S
O430 C418 1.232 . S
H431 C450 0.929 . S
H432 C451 0.929 . S
H433 C463 0.931 . S
H434 C455 0.929 . S
H435 C464 0.930 . S
H436 C456 0.931 . S
O437 Co413 2.097 . S
O437 C465 1.214 . S
H438 C466 0.929 . S
H439 C467 0.929 . S
H440 C468 0.930 . S
H441 C469 0.929 . S
H442 C471 0.930 . S
H443 C448 0.930 . S
H444 C452 0.930 . S
O445 Co414 2.037 . S
O445 C465 1.234 . S
C446 O420 1.269 . S
C446 O421 1.257 . S
C447 H422 0.930 . S
C447 C450 1.388 . S
C447 C452 1.418 . S
C448 H443 0.930 . S
C448 C451 1.404 . S
C448 C452 1.353 . S
N449 Co414 2.145 . S
N449 C450 1.397 . S
N449 C451 1.334 . S
C450 H431 0.929 . S
C450 C447 1.388 . S
C450 N449 1.397 . S
C451 H432 0.929 . S
C451 C448 1.404 . S
C451 N449 1.334 . S
C452 H444 0.930 . S
C452 C447 1.418 . S
C452 C448 1.353 . S
C453 H423 0.930 . S
C453 N454 1.330 . S
C453 C455 1.446 . S
N454 Co413 2.151 . S
N454 C453 1.330 . S
N454 C458 1.418 . S
C455 H434 0.929 . S
C455 C453 1.446 . S
C455 C456 1.332 . S
C456 H436 0.931 . S
C456 C455 1.332 . S
C456 C457 1.267 . S
C457 H425 0.929 . S
C457 C456 1.267 . S
C457 C458 1.251 . S
C458 H428 0.929 . S
C458 N454 1.418 . S
C458 C457 1.251 . S
C459 H426 0.930 . S
C459 C461 1.406 . S
C459 C464 1.261 . S
C460 H427 0.930 . S
C460 N462 1.325 . S
C460 C463 1.357 . S
C461 H429 0.928 . S
C461 C459 1.406 . S
C461 N462 1.261 . S
N462 Co413 2.214 . S
N462 C460 1.325 . S
N462 C461 1.261 . S
C463 H433 0.931 . S
C463 C460 1.357 . S
C463 C464 1.312 . S
C464 H435 0.930 . S
C464 C459 1.261 . S
C464 C463 1.312 . S
C465 O437 1.214 . S
C465 O445 1.234 . S
C466 H438 0.929 . S
C466 C469 1.391 . S
C466 C471 1.391 . S
C467 H439 0.929 . S
C467 C468 1.390 . S
C467 N470 1.391 . S
C468 H440 0.930 . S
C468 C467 1.390 . S
C468 C469 1.392 . S
C469 H441 0.929 . S
C469 C466 1.391 . S
C469 C468 1.392 . S
N470 Co414 2.257 . S
N470 C467 1.391 . S
N470 C471 1.388 . S
C471 H442 0.930 . S
C471 C466 1.391 . S
C471 N470 1.388 . S
Co472 O474 2.143 . S
Co472 O480 2.074 . S
Co472 O483 2.093 . S
Co472 O496 2.097 . S
Co472 N513 2.151 . S
Co472 N521 2.214 1_556 S
Co473 O474 2.160 . S
Co473 O479 2.058 . S
Co473 O489 2.057 . S
Co473 O504 2.037 . S
Co473 N508 2.145 . S
Co473 N529 2.257 . S
O474 Co472 2.143 . S
O474 Co473 2.160 . S
C475 O476 1.278 . S
C475 O483 1.224 . S
O476 C475 1.278 . S
C477 O478 1.245 . S
C477 O489 1.232 . S
O478 C477 1.245 . S
O479 Co473 2.058 . S
O479 C505 1.269 . S
O480 Co472 2.074 . S
O480 C505 1.257 . S
H481 C506 0.930 . S
H482 C512 0.930 . S
O483 Co472 2.093 . S
O483 C475 1.224 . S
H484 C516 0.929 . S
H485 C518 0.930 . S
H486 C519 0.940 . S
H487 C517 0.929 . S
H488 C520 0.928 . S
O489 Co473 2.057 . S
O489 C477 1.232 . S
H490 C509 0.929 . S
H491 C510 0.929 . S
H492 C522 0.931 . S
H493 C514 0.929 . S
H494 C523 0.930 . S
H495 C515 0.931 . S
O496 Co472 2.097 . S
O496 C524 1.214 . S
H497 C525 0.929 . S
H498 C526 0.929 . S
H499 C527 0.930 . S
H500 C528 0.929 . S
H501 C530 0.930 . S
H502 C507 0.930 . S
H503 C511 0.930 . S
O504 Co473 2.037 . S
O504 C524 1.234 . S
C505 O479 1.269 . S
C505 O480 1.257 . S
C506 H481 0.930 . S
C506 C509 1.388 . S
C506 C511 1.418 . S
C507 H502 0.930 . S
C507 C510 1.404 . S
C507 C511 1.353 . S
N508 Co473 2.145 . S
N508 C509 1.397 . S
N508 C510 1.334 . S
C509 H490 0.929 . S
C509 C506 1.388 . S
C509 N508 1.397 . S
C510 H491 0.929 . S
C510 C507 1.404 . S
C510 N508 1.334 . S
C511 H503 0.930 . S
C511 C506 1.418 . S
C511 C507 1.353 . S
C512 H482 0.930 . S
C512 N513 1.330 . S
C512 C514 1.446 1_556 S
N513 Co472 2.151 . S
N513 C512 1.330 . S
N513 C517 1.418 1_556 S
C514 H493 0.929 . S
C514 C512 1.446 1_554 S
C514 C515 1.332 . S
C515 H495 0.931 . S
C515 C514 1.332 . S
C515 C516 1.267 . S
C516 H484 0.929 . S
C516 C515 1.267 . S
C516 C517 1.251 . S
C517 H487 0.929 . S
C517 N513 1.418 1_554 S
C517 C516 1.251 . S
C518 H485 0.930 . S
C518 C520 1.406 . S
C518 C523 1.261 . S
C519 H486 0.940 . S
C519 N521 1.323 1_556 S
C519 C522 1.349 1_556 S
C520 H488 0.928 . S
C520 C518 1.406 . S
C520 N521 1.261 . S
N521 Co472 2.214 1_554 S
N521 C519 1.323 1_554 S
N521 C520 1.261 . S
C522 H492 0.931 . S
C522 C519 1.349 1_554 S
C522 C523 1.312 . S
C523 H494 0.930 . S
C523 C518 1.261 . S
C523 C522 1.312 . S
C524 O496 1.214 . S
C524 O504 1.234 . S
C525 H497 0.929 . S
C525 C528 1.391 . S
C525 C530 1.391 . S
C526 H498 0.929 . S
C526 C527 1.390 . S
C526 N529 1.391 . S
C527 H499 0.930 . S
C527 C526 1.390 . S
C527 C528 1.392 . S
C528 H500 0.929 . S
C528 C525 1.391 . S
C528 C527 1.392 . S
N529 Co473 2.257 . S
N529 C526 1.391 . S
N529 C530 1.388 . S
C530 H501 0.930 . S
C530 C525 1.391 . S
C530 N529 1.388 . S
Co531 O533 2.143 . S
Co531 O539 2.074 . S
Co531 O542 2.093 . S
Co531 O555 2.097 . S
Co531 N572 2.151 . S
Co531 N580 2.214 . S
Co532 O533 2.160 . S
Co532 O538 2.058 . S
Co532 O548 2.057 . S
Co532 O563 2.037 . S
Co532 N567 2.145 . S
Co532 N588 2.257 . S
O533 Co531 2.143 . S
O533 Co532 2.160 . S
C534 O535 1.278 . S
C534 O542 1.224 . S
O535 C534 1.278 . S
C536 O537 1.245 . S
C536 O548 1.232 . S
O537 C536 1.245 . S
O538 Co532 2.058 . S
O538 C564 1.269 . S
O539 Co531 2.074 . S
O539 C564 1.257 . S
H540 C565 0.930 . S
H541 C571 0.930 . S
O542 Co531 2.093 . S
O542 C534 1.224 . S
H543 C575 0.929 . S
H544 C577 0.930 . S
H545 C578 0.930 . S
H546 C576 0.929 . S
H547 C579 0.928 . S
O548 Co532 2.057 . S
O548 C536 1.232 . S
H549 C568 0.929 . S
H550 C569 0.929 . S
H551 C581 0.931 . S
H552 C573 0.929 . S
H553 C582 0.930 . S
H554 C574 0.931 . S
O555 Co531 2.097 . S
O555 C583 1.214 . S
H556 C584 0.929 . S
H557 C585 0.929 . S
H558 C586 0.930 . S
H559 C587 0.929 . S
H560 C589 0.930 . S
H561 C566 0.930 . S
H562 C570 0.930 . S
O563 Co532 2.037 . S
O563 C583 1.234 . S
C564 O538 1.269 . S
C564 O539 1.257 . S
C565 H540 0.930 . S
C565 C568 1.388 . S
C565 C570 1.418 . S
C566 H561 0.930 . S
C566 C569 1.404 . S
C566 C570 1.353 . S
N567 Co532 2.145 . S
N567 C568 1.397 . S
N567 C569 1.334 . S
C568 H549 0.929 . S
C568 C565 1.388 . S
C568 N567 1.397 . S
C569 H550 0.929 . S
C569 C566 1.404 . S
C569 N567 1.334 . S
C570 H562 0.930 . S
C570 C565 1.418 . S
C570 C566 1.353 . S
C571 H541 0.930 . S
C571 N572 1.330 . S
C571 C573 1.446 . S
N572 Co531 2.151 . S
N572 C571 1.330 . S
N572 C576 1.418 . S
C573 H552 0.929 . S
C573 C571 1.446 . S
C573 C574 1.332 . S
C574 H554 0.931 . S
C574 C573 1.332 . S
C574 C575 1.267 . S
C575 H543 0.929 . S
C575 C574 1.267 . S
C575 C576 1.251 . S
C576 H546 0.929 . S
C576 N572 1.418 . S
C576 C575 1.251 . S
C577 H544 0.930 . S
C577 C579 1.406 . S
C577 C582 1.261 . S
C578 H545 0.930 . S
C578 N580 1.325 . S
C578 C581 1.357 . S
C579 H547 0.928 . S
C579 C577 1.406 . S
C579 N580 1.261 . S
N580 Co531 2.214 . S
N580 C578 1.325 . S
N580 C579 1.261 . S
C581 H551 0.931 . S
C581 C578 1.357 . S
C581 C582 1.312 . S
C582 H553 0.930 . S
C582 C577 1.261 . S
C582 C581 1.312 . S
C583 O555 1.214 . S
C583 O563 1.234 . S
C584 H556 0.929 . S
C584 C587 1.391 . S
C584 C589 1.391 . S
C585 H557 0.929 . S
C585 C586 1.390 . S
C585 N588 1.391 . S
C586 H558 0.930 . S
C586 C585 1.390 . S
C586 C587 1.392 . S
C587 H559 0.929 . S
C587 C584 1.391 . S
C587 C586 1.392 . S
N588 Co532 2.257 . S
N588 C585 1.391 . S
N588 C589 1.388 . S
C589 H560 0.930 . S
C589 C584 1.391 . S
C589 N588 1.388 . S
Co590 O592 2.143 . S
Co590 O598 2.074 . S
Co590 O601 2.093 . S
Co590 O614 2.097 . S
Co590 N631 2.151 . S
Co590 N639 2.214 . S
Co591 O592 2.160 . S
Co591 O597 2.058 . S
Co591 O607 2.057 . S
Co591 O622 2.037 . S
Co591 N626 2.145 . S
Co591 N647 2.257 . S
O592 Co590 2.143 . S
O592 Co591 2.160 . S
C593 O594 1.278 . S
C593 O601 1.224 . S
O594 C593 1.278 . S
C595 O596 1.245 . S
C595 O607 1.232 . S
O596 C595 1.245 . S
O597 Co591 2.058 . S
O597 C623 1.269 . S
O598 Co590 2.074 . S
O598 C623 1.257 . S
H599 C624 0.930 . S
H600 C630 0.930 . S
O601 Co590 2.093 . S
O601 C593 1.224 . S
H602 C634 0.929 . S
H603 C636 0.930 . S
H604 C637 0.930 . S
H605 C635 0.929 . S
H606 C638 0.928 . S
O607 Co591 2.057 . S
O607 C595 1.232 . S
H608 C627 0.929 . S
H609 C628 0.929 . S
H610 C640 0.931 . S
H611 C632 0.929 . S
H612 C641 0.930 . S
H613 C633 0.931 . S
O614 Co590 2.097 . S
O614 C642 1.214 . S
H615 C643 0.929 . S
H616 C644 0.929 . S
H617 C645 0.930 . S
H618 C646 0.929 . S
H619 C648 0.930 . S
H620 C625 0.930 . S
H621 C629 0.930 . S
O622 Co591 2.037 . S
O622 C642 1.234 . S
C623 O597 1.269 . S
C623 O598 1.257 . S
C624 H599 0.930 . S
C624 C627 1.388 . S
C624 C629 1.418 . S
C625 H620 0.930 . S
C625 C628 1.404 . S
C625 C629 1.353 . S
N626 Co591 2.145 . S
N626 C627 1.397 . S
N626 C628 1.334 . S
C627 H608 0.929 . S
C627 C624 1.388 . S
C627 N626 1.397 . S
C628 H609 0.929 . S
C628 C625 1.404 . S
C628 N626 1.334 . S
C629 H621 0.930 . S
C629 C624 1.418 . S
C629 C625 1.353 . S
C630 H600 0.930 . S
C630 N631 1.330 . S
C630 C632 1.446 . S
N631 Co590 2.151 . S
N631 C630 1.330 . S
N631 C635 1.418 . S
C632 H611 0.929 . S
C632 C630 1.446 . S
C632 C633 1.332 . S
C633 H613 0.931 . S
C633 C632 1.332 . S
C633 C634 1.267 . S
C634 H602 0.929 . S
C634 C633 1.267 . S
C634 C635 1.251 . S
C635 H605 0.929 . S
C635 N631 1.418 . S
C635 C634 1.251 . S
C636 H603 0.930 . S
C636 C638 1.406 . S
C636 C641 1.261 . S
C637 H604 0.930 . S
C637 N639 1.325 . S
C637 C640 1.357 . S
C638 H606 0.928 . S
C638 C636 1.406 . S
C638 N639 1.261 . S
N639 Co590 2.214 . S
N639 C637 1.325 . S
N639 C638 1.261 . S
C640 H610 0.931 . S
C640 C637 1.357 . S
C640 C641 1.312 . S
C641 H612 0.930 . S
C641 C636 1.261 . S
C641 C640 1.312 . S
C642 O614 1.214 . S
C642 O622 1.234 . S
C643 H615 0.929 . S
C643 C646 1.391 . S
C643 C648 1.391 . S
C644 H616 0.929 . S
C644 C645 1.390 . S
C644 N647 1.391 . S
C645 H617 0.930 . S
C645 C644 1.390 . S
C645 C646 1.392 . S
C646 H618 0.929 . S
C646 C643 1.391 . S
C646 C645 1.392 . S
N647 Co591 2.257 . S
N647 C644 1.391 . S
N647 C648 1.388 . S
C648 H619 0.930 . S
C648 C643 1.391 . S
C648 N647 1.388 . S
Co649 O651 2.143 . S
Co649 O657 2.074 . S
Co649 O660 2.093 . S
Co649 O673 2.097 . S
Co649 N690 2.151 . S
Co649 N698 2.214 . S
Co650 O651 2.160 . S
Co650 O656 2.058 . S
Co650 O666 2.057 . S
Co650 O681 2.037 . S
Co650 N685 2.145 1_554 S
Co650 N706 2.257 . S
O651 Co649 2.143 . S
O651 Co650 2.160 . S
C652 O653 1.278 . S
C652 O660 1.224 . S
O653 C652 1.278 . S
C654 O655 1.245 . S
C654 O666 1.232 . S
O655 C654 1.245 . S
O656 Co650 2.058 . S
O656 C682 1.269 . S
O657 Co649 2.074 . S
O657 C682 1.257 . S
H658 C683 0.930 . S
H659 C689 0.930 . S
O660 Co649 2.093 . S
O660 C652 1.224 . S
H661 C693 0.929 . S
H662 C695 0.930 . S
H663 C696 0.930 . S
H664 C694 0.929 . S
H665 C697 0.928 . S
O666 Co650 2.057 . S
O666 C654 1.232 . S
H667 C686 0.929 1_554 S
H668 C687 0.929 . S
H669 C699 0.931 . S
H670 C691 0.929 . S
H671 C700 0.930 . S
H672 C692 0.931 . S
O673 Co649 2.097 . S
O673 C701 1.214 . S
H674 C702 0.929 . S
H675 C703 0.929 . S
H676 C704 0.930 . S
H677 C705 0.929 . S
H678 C707 0.930 . S
H679 C684 0.930 . S
H680 C688 0.930 . S
O681 Co650 2.037 . S
O681 C701 1.234 . S
C682 O656 1.269 . S
C682 O657 1.257 . S
C683 H658 0.930 . S
C683 C686 1.388 . S
C683 C688 1.418 . S
C684 H679 0.930 . S
C684 C687 1.404 . S
C684 C688 1.353 . S
N685 Co650 2.145 1_556 S
N685 C686 1.397 . S
N685 C687 1.334 . S
C686 H667 0.929 1_556 S
C686 C683 1.388 . S
C686 N685 1.397 . S
C687 H668 0.929 . S
C687 C684 1.404 . S
C687 N685 1.334 . S
C688 H680 0.930 . S
C688 C683 1.418 . S
C688 C684 1.353 . S
C689 H659 0.930 . S
C689 N690 1.330 . S
C689 C691 1.446 . S
N690 Co649 2.151 . S
N690 C689 1.330 . S
N690 C694 1.418 . S
C691 H670 0.929 . S
C691 C689 1.446 . S
C691 C692 1.332 . S
C692 H672 0.931 . S
C692 C691 1.332 . S
C692 C693 1.267 . S
C693 H661 0.929 . S
C693 C692 1.267 . S
C693 C694 1.251 . S
C694 H664 0.929 . S
C694 N690 1.418 . S
C694 C693 1.251 . S
C695 H662 0.930 . S
C695 C697 1.406 . S
C695 C700 1.261 . S
C696 H663 0.930 . S
C696 N698 1.325 . S
C696 C699 1.357 . S
C697 H665 0.928 . S
C697 C695 1.406 . S
C697 N698 1.261 . S
N698 Co649 2.214 . S
N698 C696 1.325 . S
N698 C697 1.261 . S
C699 H669 0.931 . S
C699 C696 1.357 . S
C699 C700 1.312 . S
C700 H671 0.930 . S
C700 C695 1.261 . S
C700 C699 1.312 . S
C701 O673 1.214 . S
C701 O681 1.234 . S
C702 H674 0.929 . S
C702 C705 1.391 1_554 S
C702 C707 1.391 . S
C703 H675 0.929 . S
C703 C704 1.390 1_554 S
C703 N706 1.391 . S
C704 H676 0.930 . S
C704 C703 1.390 1_556 S
C704 C705 1.392 . S
C705 H677 0.929 . S
C705 C702 1.391 1_556 S
C705 C704 1.392 . S
N706 Co650 2.257 . S
N706 C703 1.391 . S
N706 C707 1.388 . S
C707 H678 0.930 . S
C707 C702 1.391 . S
C707 N706 1.388 . S
Co708 O710 2.143 . S
Co708 O716 2.074 . S
Co708 O719 2.093 . S
Co708 O732 2.097 . S
Co708 N749 2.151 . S
Co708 N757 2.214 1_554 S
Co709 O710 2.160 . S
Co709 O715 2.058 . S
Co709 O725 2.057 . S
Co709 O740 2.037 . S
Co709 N744 2.145 . S
Co709 N765 2.257 . S
O710 Co708 2.143 . S
O710 Co709 2.160 . S
C711 O712 1.278 . S
C711 O719 1.224 . S
O712 C711 1.278 . S
C713 O714 1.245 . S
C713 O725 1.232 . S
O714 C713 1.245 . S
O715 Co709 2.058 . S
O715 C741 1.269 . S
O716 Co708 2.074 . S
O716 C741 1.257 . S
H717 C742 0.930 . S
H718 C748 0.930 . S
O719 Co708 2.093 . S
O719 C711 1.224 . S
H720 C752 0.929 . S
H721 C754 0.930 . S
H722 C755 0.940 . S
H723 C753 0.929 . S
H724 C756 0.928 . S
O725 Co709 2.057 . S
O725 C713 1.232 . S
H726 C745 0.929 . S
H727 C746 0.929 . S
H728 C758 0.931 . S
H729 C750 0.929 . S
H730 C759 0.930 . S
H731 C751 0.931 . S
O732 Co708 2.097 . S
O732 C760 1.214 . S
H733 C761 0.929 . S
H734 C762 0.929 . S
H735 C763 0.930 . S
H736 C764 0.929 . S
H737 C766 0.930 . S
H738 C743 0.930 . S
H739 C747 0.930 . S
O740 Co709 2.037 . S
O740 C760 1.234 . S
C741 O715 1.269 . S
C741 O716 1.257 . S
C742 H717 0.930 . S
C742 C745 1.388 . S
C742 C747 1.418 . S
C743 H738 0.930 . S
C743 C746 1.404 . S
C743 C747 1.353 . S
N744 Co709 2.145 . S
N744 C745 1.397 . S
N744 C746 1.334 . S
C745 H726 0.929 . S
C745 C742 1.388 . S
C745 N744 1.397 . S
C746 H727 0.929 . S
C746 C743 1.404 . S
C746 N744 1.334 . S
C747 H739 0.930 . S
C747 C742 1.418 . S
C747 C743 1.353 . S
C748 H718 0.930 . S
C748 N749 1.330 . S
C748 C750 1.446 1_554 S
N749 Co708 2.151 . S
N749 C748 1.330 . S
N749 C753 1.418 1_554 S
C750 H729 0.929 . S
C750 C748 1.446 1_556 S
C750 C751 1.332 . S
C751 H731 0.931 . S
C751 C750 1.332 . S
C751 C752 1.267 . S
C752 H720 0.929 . S
C752 C751 1.267 . S
C752 C753 1.251 . S
C753 H723 0.929 . S
C753 N749 1.418 1_556 S
C753 C752 1.251 . S
C754 H721 0.930 . S
C754 C756 1.406 . S
C754 C759 1.261 . S
C755 H722 0.940 . S
C755 N757 1.323 1_554 S
C755 C758 1.349 1_554 S
C756 H724 0.928 . S
C756 C754 1.406 . S
C756 N757 1.261 . S
N757 Co708 2.214 1_556 S
N757 C755 1.323 1_556 S
N757 C756 1.261 . S
C758 H728 0.931 . S
C758 C755 1.349 1_556 S
C758 C759 1.312 . S
C759 H730 0.930 . S
C759 C754 1.261 . S
C759 C758 1.312 . S
C760 O732 1.214 . S
C760 O740 1.234 . S
C761 H733 0.929 . S
C761 C764 1.391 . S
C761 C766 1.391 . S
C762 H734 0.929 . S
C762 C763 1.390 . S
C762 N765 1.391 . S
C763 H735 0.930 . S
C763 C762 1.390 . S
C763 C764 1.392 . S
C764 H736 0.929 . S
C764 C761 1.391 . S
C764 C763 1.392 . S
N765 Co709 2.257 . S
N765 C762 1.391 . S
N765 C766 1.388 . S
C766 H737 0.930 . S
C766 C761 1.391 . S
C766 N765 1.388 . S
Co767 O769 2.143 . S
Co767 O775 2.074 . S
Co767 O778 2.093 . S
Co767 O791 2.097 . S
Co767 N808 2.151 . S
Co767 N816 2.214 1_556 S
Co768 O769 2.160 . S
Co768 O774 2.058 . S
Co768 O784 2.057 . S
Co768 O799 2.037 . S
Co768 N803 2.145 . S
Co768 N824 2.257 . S
O769 Co767 2.143 . S
O769 Co768 2.160 . S
C770 O771 1.278 . S
C770 O778 1.224 . S
O771 C770 1.278 . S
C772 O773 1.245 . S
C772 O784 1.232 . S
O773 C772 1.245 . S
O774 Co768 2.058 . S
O774 C800 1.269 . S
O775 Co767 2.074 . S
O775 C800 1.257 . S
H776 C801 0.930 . S
H777 C807 0.930 . S
O778 Co767 2.093 . S
O778 C770 1.224 . S
H779 C811 0.929 . S
H780 C813 0.930 . S
H781 C814 0.943 . S
H782 C812 0.929 . S
H783 C815 0.928 . S
O784 Co768 2.057 . S
O784 C772 1.232 . S
H785 C804 0.929 . S
H786 C805 0.929 . S
H787 C817 0.931 . S
H788 C809 0.929 . S
H789 C818 0.930 . S
H790 C810 0.931 . S
O791 Co767 2.097 . S
O791 C819 1.214 . S
H792 C820 0.929 . S
H793 C821 0.929 . S
H794 C822 0.930 . S
H795 C823 0.929 . S
H796 C825 0.930 . S
H797 C802 0.930 . S
H798 C806 0.930 . S
O799 Co768 2.037 . S
O799 C819 1.234 . S
C800 O774 1.269 . S
C800 O775 1.257 . S
C801 H776 0.930 . S
C801 C804 1.388 . S
C801 C806 1.418 . S
C802 H797 0.930 . S
C802 C805 1.404 . S
C802 C806 1.353 . S
N803 Co768 2.145 . S
N803 C804 1.397 . S
N803 C805 1.334 . S
C804 H785 0.929 . S
C804 C801 1.388 . S
C804 N803 1.397 . S
C805 H786 0.929 . S
C805 C802 1.404 . S
C805 N803 1.334 . S
C806 H798 0.930 . S
C806 C801 1.418 . S
C806 C802 1.353 . S
C807 H777 0.930 . S
C807 N808 1.330 . S
C807 C809 1.446 1_556 S
N808 Co767 2.151 . S
N808 C807 1.330 . S
N808 C812 1.418 1_556 S
C809 H788 0.929 . S
C809 C807 1.446 1_554 S
C809 C810 1.332 . S
C810 H790 0.931 . S
C810 C809 1.332 . S
C810 C811 1.267 . S
C811 H779 0.929 . S
C811 C810 1.267 . S
C811 C812 1.251 . S
C812 H782 0.929 . S
C812 N808 1.418 1_554 S
C812 C811 1.251 . S
C813 H780 0.930 . S
C813 C815 1.406 . S
C813 C818 1.261 . S
C814 H781 0.943 . S
C814 N816 1.323 1_556 S
C814 C817 1.347 1_556 S
C815 H783 0.928 . S
C815 C813 1.406 . S
C815 N816 1.261 . S
N816 Co767 2.214 1_554 S
N816 C814 1.323 1_554 S
N816 C815 1.261 . S
C817 H787 0.931 . S
C817 C814 1.347 1_554 S
C817 C818 1.312 . S
C818 H789 0.930 . S
C818 C813 1.261 . S
C818 C817 1.312 . S
C819 O791 1.214 . S
C819 O799 1.234 . S
C820 H792 0.929 . S
C820 C823 1.391 . S
C820 C825 1.391 . S
C821 H793 0.929 . S
C821 C822 1.390 . S
C821 N824 1.391 . S
C822 H794 0.930 . S
C822 C821 1.390 . S
C822 C823 1.392 . S
C823 H795 0.929 . S
C823 C820 1.391 . S
C823 C822 1.392 . S
N824 Co768 2.257 . S
N824 C821 1.391 . S
N824 C825 1.388 . S
C825 H796 0.930 . S
C825 C820 1.391 . S
C825 N824 1.388 . S
Co826 O828 2.143 . S
Co826 O834 2.074 . S
Co826 O837 2.093 . S
Co826 O850 2.097 . S
Co826 N867 2.151 . S
Co826 N875 2.214 . S
Co827 O828 2.160 . S
Co827 O833 2.058 . S
Co827 O843 2.057 . S
Co827 O858 2.037 . S
Co827 N862 2.145 . S
Co827 N883 2.257 . S
O828 Co826 2.143 . S
O828 Co827 2.160 . S
C829 O830 1.278 . S
C829 O837 1.224 . S
O830 C829 1.278 . S
C831 O832 1.245 . S
C831 O843 1.232 . S
O832 C831 1.245 . S
O833 Co827 2.058 . S
O833 C859 1.269 . S
O834 Co826 2.074 . S
O834 C859 1.257 . S
H835 C860 0.930 . S
H836 C866 0.930 . S
O837 Co826 2.093 . S
O837 C829 1.224 . S
H838 C870 0.929 . S
H839 C872 0.930 . S
H840 C873 0.930 . S
H841 C871 0.929 . S
H842 C874 0.928 . S
O843 Co827 2.057 . S
O843 C831 1.232 . S
H844 C863 0.929 . S
H845 C864 0.929 . S
H846 C876 0.931 . S
H847 C868 0.929 . S
H848 C877 0.930 . S
H849 C869 0.931 . S
O850 Co826 2.097 . S
O850 C878 1.214 . S
H851 C879 0.929 . S
H852 C880 0.929 . S
H853 C881 0.930 . S
H854 C882 0.929 . S
H855 C884 0.930 . S
H856 C861 0.930 . S
H857 C865 0.930 . S
O858 Co827 2.037 . S
O858 C878 1.234 . S
C859 O833 1.269 . S
C859 O834 1.257 . S
C860 H835 0.930 . S
C860 C863 1.388 . S
C860 C865 1.418 . S
C861 H856 0.930 . S
C861 C864 1.404 . S
C861 C865 1.353 . S
N862 Co827 2.145 . S
N862 C863 1.397 . S
N862 C864 1.334 . S
C863 H844 0.929 . S
C863 C860 1.388 . S
C863 N862 1.397 . S
C864 H845 0.929 . S
C864 C861 1.404 . S
C864 N862 1.334 . S
C865 H857 0.930 . S
C865 C860 1.418 . S
C865 C861 1.353 . S
C866 H836 0.930 . S
C866 N867 1.330 . S
C866 C868 1.446 . S
N867 Co826 2.151 . S
N867 C866 1.330 . S
N867 C871 1.418 . S
C868 H847 0.929 . S
C868 C866 1.446 . S
C868 C869 1.332 . S
C869 H849 0.931 . S
C869 C868 1.332 . S
C869 C870 1.267 . S
C870 H838 0.929 . S
C870 C869 1.267 . S
C870 C871 1.251 . S
C871 H841 0.929 . S
C871 N867 1.418 . S
C871 C870 1.251 . S
C872 H839 0.930 . S
C872 C874 1.406 . S
C872 C877 1.261 . S
C873 H840 0.930 . S
C873 N875 1.325 . S
C873 C876 1.357 . S
C874 H842 0.928 . S
C874 C872 1.406 . S
C874 N875 1.261 . S
N875 Co826 2.214 . S
N875 C873 1.325 . S
N875 C874 1.261 . S
C876 H846 0.931 . S
C876 C873 1.357 . S
C876 C877 1.312 . S
C877 H848 0.930 . S
C877 C872 1.261 . S
C877 C876 1.312 . S
C878 O850 1.214 . S
C878 O858 1.234 . S
C879 H851 0.929 . S
C879 C882 1.391 . S
C879 C884 1.391 . S
C880 H852 0.929 . S
C880 C881 1.390 . S
C880 N883 1.391 . S
C881 H853 0.930 . S
C881 C880 1.390 . S
C881 C882 1.392 . S
C882 H854 0.929 . S
C882 C879 1.391 . S
C882 C881 1.392 . S
N883 Co827 2.257 . S
N883 C880 1.391 . S
N883 C884 1.388 . S
C884 H855 0.930 . S
C884 C879 1.391 . S
C884 N883 1.388 . S
Co885 O887 2.143 . S
Co885 O893 2.074 . S
Co885 O896 2.093 . S
Co885 O909 2.097 . S
Co885 N926 2.151 . S
Co885 N934 2.214 . S
Co886 O887 2.160 . S
Co886 O892 2.058 . S
Co886 O902 2.057 . S
Co886 O917 2.037 . S
Co886 N921 2.145 . S
Co886 N942 2.257 . S
O887 Co885 2.143 . S
O887 Co886 2.160 . S
C888 O889 1.278 . S
C888 O896 1.224 . S
O889 C888 1.278 . S
C890 O891 1.245 . S
C890 O902 1.232 . S
O891 C890 1.245 . S
O892 Co886 2.058 . S
O892 C918 1.269 . S
O893 Co885 2.074 . S
O893 C918 1.257 . S
H894 C919 0.930 . S
H895 C925 0.930 . S
O896 Co885 2.093 . S
O896 C888 1.224 . S
H897 C929 0.929 . S
H898 C931 0.930 . S
H899 C932 0.930 . S
H900 C930 0.929 . S
H901 C933 0.928 . S
O902 Co886 2.057 . S
O902 C890 1.232 . S
H903 C922 0.929 . S
H904 C923 0.929 . S
H905 C935 0.931 . S
H906 C927 0.929 . S
H907 C936 0.930 . S
H908 C928 0.931 . S
O909 Co885 2.097 . S
O909 C937 1.214 . S
H910 C938 0.929 . S
H911 C939 0.929 . S
H912 C940 0.930 . S
H913 C941 0.929 . S
H914 C943 0.930 . S
H915 C920 0.930 . S
H916 C924 0.930 . S
O917 Co886 2.037 . S
O917 C937 1.234 . S
C918 O892 1.269 . S
C918 O893 1.257 . S
C919 H894 0.930 . S
C919 C922 1.388 . S
C919 C924 1.418 . S
C920 H915 0.930 . S
C920 C923 1.404 . S
C920 C924 1.353 . S
N921 Co886 2.145 . S
N921 C922 1.397 . S
N921 C923 1.334 . S
C922 H903 0.929 . S
C922 C919 1.388 . S
C922 N921 1.397 . S
C923 H904 0.929 . S
C923 C920 1.404 . S
C923 N921 1.334 . S
C924 H916 0.930 . S
C924 C919 1.418 . S
C924 C920 1.353 . S
C925 H895 0.930 . S
C925 N926 1.330 . S
C925 C927 1.446 . S
N926 Co885 2.151 . S
N926 C925 1.330 . S
N926 C930 1.418 . S
C927 H906 0.929 . S
C927 C925 1.446 . S
C927 C928 1.332 . S
C928 H908 0.931 . S
C928 C927 1.332 . S
C928 C929 1.267 . S
C929 H897 0.929 . S
C929 C928 1.267 . S
C929 C930 1.251 . S
C930 H900 0.929 . S
C930 N926 1.418 . S
C930 C929 1.251 . S
C931 H898 0.930 . S
C931 C933 1.406 . S
C931 C936 1.261 . S
C932 H899 0.930 . S
C932 N934 1.325 . S
C932 C935 1.357 . S
C933 H901 0.928 . S
C933 C931 1.406 . S
C933 N934 1.261 . S
N934 Co885 2.214 . S
N934 C932 1.325 . S
N934 C933 1.261 . S
C935 H905 0.931 . S
C935 C932 1.357 . S
C935 C936 1.312 . S
C936 H907 0.930 . S
C936 C931 1.261 . S
C936 C935 1.312 . S
C937 O909 1.214 . S
C937 O917 1.234 . S
C938 H910 0.929 . S
C938 C941 1.391 . S
C938 C943 1.391 . S
C939 H911 0.929 . S
C939 C940 1.390 . S
C939 N942 1.391 . S
C940 H912 0.930 . S
C940 C939 1.390 . S
C940 C941 1.392 . S
C941 H913 0.929 . S
C941 C938 1.391 . S
C941 C940 1.392 . S
N942 Co886 2.257 . S
N942 C939 1.391 . S
N942 C943 1.388 . S
C943 H914 0.930 . S
C943 C938 1.391 . S
C943 N942 1.388 . S
C944 C945 1.387 . S
C944 H948 0.950 . S
C944 C953 1.390 . S
C945 C944 1.387 . S
C945 C947 1.387 . S
H946 C953 0.950 . S
C947 C945 1.387 . S
C947 C949 1.390 . S
C947 H951 0.950 . S
H948 C944 0.950 . S
C949 C947 1.390 . S
C949 C950 1.387 . S
C949 H952 0.950 . S
C950 C949 1.387 . S
C950 C953 1.387 . S
H951 C947 0.950 . S
H952 C949 0.950 . S
C953 C944 1.390 . S
C953 H946 0.950 . S
C953 C950 1.387 . S
C954 C955 1.387 . S
C954 H958 0.950 . S
C954 C963 1.390 . S
C955 C954 1.387 . S
C955 C957 1.387 . S
H956 C963 0.950 . S
C957 C955 1.387 . S
C957 C959 1.390 . S
C957 H961 0.950 . S
H958 C954 0.950 . S
C959 C957 1.390 . S
C959 C960 1.387 . S
C959 H962 0.950 . S
C960 C959 1.387 . S
C960 C963 1.387 . S
H961 C957 0.950 . S
H962 C959 0.950 . S
C963 C954 1.390 . S
C963 H956 0.950 . S
C963 C960 1.387 . S
C964 C965 1.387 . S
C964 H968 0.950 . S
C964 C973 1.390 . S
C965 C964 1.387 . S
C965 C967 1.387 . S
H966 C973 0.950 . S
C967 C965 1.387 . S
C967 C969 1.390 . S
C967 H971 0.950 . S
H968 C964 0.950 . S
C969 C967 1.390 . S
C969 C970 1.387 . S
C969 H972 0.950 . S
C970 C969 1.387 . S
C970 C973 1.387 . S
H971 C967 0.950 . S
H972 C969 0.950 . S
C973 C964 1.390 . S
C973 H966 0.950 . S
C973 C970 1.387 . S
C974 C975 1.387 . S
C974 H978 0.950 . S
C974 C983 1.390 1_455 S
C975 C974 1.387 . S
C975 C977 1.387 . S
H976 C983 0.950 . S
C977 C975 1.387 . S
C977 C979 1.390 1_455 S
C977 H981 0.950 . S
H978 C974 0.950 . S
C979 C977 1.390 1_655 S
C979 C980 1.387 . S
C979 H982 0.950 . S
C980 C979 1.387 . S
C980 C983 1.387 . S
H981 C977 0.950 . S
H982 C979 0.950 . S
C983 C974 1.390 1_655 S
C983 H976 0.950 . S
C983 C980 1.387 . S
C984 C985 1.387 . S
C984 H988 0.950 . S
C984 C993 1.390 . S
C985 C984 1.387 . S
C985 C987 1.387 . S
H986 C993 0.950 . S
C987 C985 1.387 . S
C987 C989 1.390 . S
C987 H991 0.950 . S
H988 C984 0.950 . S
C989 C987 1.390 . S
C989 C990 1.387 . S
C989 H992 0.950 . S
C990 C989 1.387 . S
C990 C993 1.387 . S
H991 C987 0.950 . S
H992 C989 0.950 . S
C993 C984 1.390 . S
C993 H986 0.950 . S
C993 C990 1.387 . S
C994 C995 1.387 . S
C994 H998 0.950 . S
C994 C1003 1.390 1_655 S
C995 C994 1.387 . S
C995 C997 1.387 . S
H996 C1003 0.950 . S
C997 C995 1.387 . S
C997 C999 1.390 1_655 S
C997 H1001 0.950 . S
H998 C994 0.950 . S
C999 C997 1.390 1_455 S
C999 C1000 1.387 . S
C999 H1002 0.950 . S
C1000 C999 1.387 . S
C1000 C1003 1.387 . S
H1001 C997 0.950 . S
H1002 C999 0.950 . S
C1003 C994 1.390 1_455 S
C1003 H996 0.950 . S
C1003 C1000 1.387 . S
C1004 C1005 1.387 . S
C1004 H1008 0.950 . S
C1004 C1013 1.390 . S
C1005 C1004 1.387 . S
C1005 C1007 1.387 . S
H1006 C1013 0.950 . S
C1007 C1005 1.387 . S
C1007 C1009 1.390 . S
C1007 H1011 0.950 . S
H1008 C1004 0.950 . S
C1009 C1007 1.390 . S
C1009 C1010 1.387 . S
C1009 H1012 0.950 . S
C1010 C1009 1.387 . S
C1010 C1013 1.387 . S
H1011 C1007 0.950 . S
H1012 C1009 0.950 . S
C1013 C1004 1.390 . S
C1013 H1006 0.950 . S
C1013 C1010 1.387 . S
C1014 C1015 1.387 . S
C1014 H1018 0.950 . S
C1014 C1023 1.390 . S
C1015 C1014 1.387 . S
C1015 C1017 1.387 . S
H1016 C1023 0.950 . S
C1017 C1015 1.387 . S
C1017 C1019 1.390 . S
C1017 H1021 0.950 . S
H1018 C1014 0.950 . S
C1019 C1017 1.390 . S
C1019 C1020 1.387 . S
C1019 H1022 0.950 . S
C1020 C1019 1.387 . S
C1020 C1023 1.387 . S
H1021 C1017 0.950 . S
H1022 C1019 0.950 . S
C1023 C1014 1.390 . S
C1023 H1016 0.950 . S
C1023 C1020 1.387 . S
C1024 C1025 1.387 . S
C1024 H1028 0.950 . S
C1024 C1033 1.390 . S
C1025 C1024 1.387 . S
C1025 C1027 1.387 . S
H1026 C1033 0.950 . S
C1027 C1025 1.387 . S
C1027 C1029 1.390 . S
C1027 H1031 0.950 . S
H1028 C1024 0.950 . S
C1029 C1027 1.390 . S
C1029 C1030 1.387 . S
C1029 H1032 0.950 . S
C1030 C1029 1.387 . S
C1030 C1033 1.387 . S
H1031 C1027 0.950 . S
H1032 C1029 0.950 . S
C1033 C1024 1.390 . S
C1033 H1026 0.950 . S
C1033 C1030 1.387 . S
C1034 C1035 1.387 . S
C1034 H1038 0.950 . S
C1034 C1043 1.390 . S
C1035 C1034 1.387 . S
C1035 C1037 1.387 . S
H1036 C1043 0.950 . S
C1037 C1035 1.387 . S
C1037 C1039 1.390 . S
C1037 H1041 0.950 . S
H1038 C1034 0.950 . S
C1039 C1037 1.390 . S
C1039 C1040 1.387 . S
C1039 H1042 0.950 . S
C1040 C1039 1.387 . S
C1040 C1043 1.387 . S
H1041 C1037 0.950 . S
H1042 C1039 0.950 . S
C1043 C1034 1.390 . S
C1043 H1036 0.950 . S
C1043 C1040 1.387 . S
C1044 C1045 1.387 . S
C1044 H1048 0.950 . S
C1044 C1053 1.390 . S
C1045 C1044 1.387 . S
C1045 C1047 1.387 . S
H1046 C1053 0.950 . S
C1047 C1045 1.387 . S
C1047 C1049 1.390 . S
C1047 H1051 0.950 . S
H1048 C1044 0.950 . S
C1049 C1047 1.390 . S
C1049 C1050 1.387 . S
C1049 H1052 0.950 . S
C1050 C1049 1.387 . S
C1050 C1053 1.387 . S
H1051 C1047 0.950 . S
H1052 C1049 0.950 . S
C1053 C1044 1.390 . S
C1053 H1046 0.950 . S
C1053 C1050 1.387 . S
C1054 C1055 1.387 . S
C1054 H1058 0.950 . S
C1054 C1063 1.390 . S
C1055 C1054 1.387 . S
C1055 C1057 1.387 . S
H1056 C1063 0.950 . S
C1057 C1055 1.387 . S
C1057 C1059 1.390 . S
C1057 H1061 0.950 . S
H1058 C1054 0.950 . S
C1059 C1057 1.390 . S
C1059 C1060 1.387 . S
C1059 H1062 0.950 . S
C1060 C1059 1.387 . S
C1060 C1063 1.387 . S
H1061 C1057 0.950 . S
H1062 C1059 0.950 . S
C1063 C1054 1.390 . S
C1063 H1056 0.950 . S
C1063 C1060 1.387 . S
C1064 C1065 1.387 . S
C1064 H1068 0.950 . S
C1064 C1073 1.390 1_455 S
C1065 C1064 1.387 . S
C1065 C1067 1.387 . S
H1066 C1073 0.950 . S
C1067 C1065 1.387 . S
C1067 C1069 1.390 1_455 S
C1067 H1071 0.950 . S
H1068 C1064 0.950 . S
C1069 C1067 1.390 1_655 S
C1069 C1070 1.387 . S
C1069 H1072 0.950 . S
C1070 C1069 1.387 . S
C1070 C1073 1.387 . S
H1071 C1067 0.950 . S
H1072 C1069 0.950 . S
C1073 C1064 1.390 1_655 S
C1073 H1066 0.950 . S
C1073 C1070 1.387 . S
C1074 C1075 1.387 . S
C1074 H1078 0.950 . S
C1074 C1083 1.390 . S
C1075 C1074 1.387 . S
C1075 C1077 1.387 . S
H1076 C1083 0.950 . S
C1077 C1075 1.387 . S
C1077 C1079 1.390 . S
C1077 H1081 0.950 . S
H1078 C1074 0.950 . S
C1079 C1077 1.390 . S
C1079 C1080 1.387 . S
C1079 H1082 0.950 . S
C1080 C1079 1.387 . S
C1080 C1083 1.387 . S
H1081 C1077 0.950 . S
H1082 C1079 0.950 . S
C1083 C1074 1.390 . S
C1083 H1076 0.950 . S
C1083 C1080 1.387 . S
C1084 C1085 1.387 . S
C1084 H1088 0.950 . S
C1084 C1093 1.390 . S
C1085 C1084 1.387 . S
C1085 C1087 1.387 . S
H1086 C1093 0.950 . S
C1087 C1085 1.387 . S
C1087 C1089 1.390 . S
C1087 H1091 0.950 . S
H1088 C1084 0.950 . S
C1089 C1087 1.390 . S
C1089 C1090 1.387 . S
C1089 H1092 0.950 . S
C1090 C1089 1.387 . S
C1090 C1093 1.387 . S
H1091 C1087 0.950 . S
H1092 C1089 0.950 . S
C1093 C1084 1.390 . S
C1093 H1086 0.950 . S
C1093 C1090 1.387 . S
C1094 C1095 1.387 . S
C1094 H1098 0.950 . S
C1094 C1103 1.390 1_455 S
C1095 C1094 1.387 . S
C1095 C1097 1.387 . S
H1096 C1103 0.950 . S
C1097 C1095 1.387 . S
C1097 C1099 1.390 1_455 S
C1097 H1101 0.950 . S
H1098 C1094 0.950 . S
C1099 C1097 1.390 1_655 S
C1099 C1100 1.387 . S
C1099 H1102 0.950 . S
C1100 C1099 1.387 . S
C1100 C1103 1.387 . S
H1101 C1097 0.950 . S
H1102 C1099 0.950 . S
C1103 C1094 1.390 1_655 S
C1103 H1096 0.950 . S
C1103 C1100 1.387 . S
C1104 C1105 1.387 . S
C1104 H1108 0.950 . S
C1104 C1113 1.390 1_554 S
C1105 C1104 1.387 . S
C1105 C1107 1.387 . S
H1106 C1113 0.950 . S
C1107 C1105 1.387 . S
C1107 C1109 1.390 1_554 S
C1107 H1111 0.950 . S
H1108 C1104 0.950 . S
C1109 C1107 1.390 1_556 S
C1109 C1110 1.387 . S
C1109 H1112 0.950 . S
C1110 C1109 1.387 . S
C1110 C1113 1.387 . S
H1111 C1107 0.950 . S
H1112 C1109 0.950 . S
C1113 C1104 1.390 1_556 S
C1113 H1106 0.950 . S
C1113 C1110 1.387 . S
C1114 C1115 1.387 . S
C1114 H1118 0.950 . S
C1114 C1123 1.390 . S
C1115 C1114 1.387 . S
C1115 C1117 1.387 . S
H1116 C1123 0.950 . S
C1117 C1115 1.387 . S
C1117 C1119 1.390 . S
C1117 H1121 0.950 . S
H1118 C1114 0.950 . S
C1119 C1117 1.390 . S
C1119 C1120 1.387 . S
C1119 H1122 0.950 . S
C1120 C1119 1.387 . S
C1120 C1123 1.387 . S
H1121 C1117 0.950 . S
H1122 C1119 0.950 . S
C1123 C1114 1.390 . S
C1123 H1116 0.950 . S
C1123 C1120 1.387 . S
C1124 C1125 1.387 . S
C1124 H1128 0.950 . S
C1124 C1133 1.390 . S
C1125 C1124 1.387 . S
C1125 C1127 1.387 . S
H1126 C1133 0.950 . S
C1127 C1125 1.387 . S
C1127 C1129 1.390 . S
C1127 H1131 0.950 . S
H1128 C1124 0.950 . S
C1129 C1127 1.390 . S
C1129 C1130 1.387 . S
C1129 H1132 0.950 . S
C1130 C1129 1.387 . S
C1130 C1133 1.387 . S
H1131 C1127 0.950 . S
H1132 C1129 0.950 . S
C1133 C1124 1.390 . S
C1133 H1126 0.950 . S
C1133 C1130 1.387 . S
C1134 C1135 1.387 . S
C1134 H1138 0.950 . S
C1134 C1143 1.390 . S
C1135 C1134 1.387 . S
C1135 C1137 1.387 . S
H1136 C1143 0.950 . S
C1137 C1135 1.387 . S
C1137 C1139 1.390 . S
C1137 H1141 0.950 . S
H1138 C1134 0.950 . S
C1139 C1137 1.390 . S
C1139 C1140 1.387 . S
C1139 H1142 0.950 . S
C1140 C1139 1.387 . S
C1140 C1143 1.387 . S
H1141 C1137 0.950 . S
H1142 C1139 0.950 . S
C1143 C1134 1.390 . S
C1143 H1136 0.950 . S
C1143 C1140 1.387 . S
C1144 C1145 1.387 . S
C1144 H1148 0.950 . S
C1144 C1153 1.390 1_556 S
C1145 C1144 1.387 . S
C1145 C1147 1.387 . S
H1146 C1153 0.950 . S
C1147 C1145 1.387 . S
C1147 C1149 1.390 1_556 S
C1147 H1151 0.950 . S
H1148 C1144 0.950 . S
C1149 C1147 1.390 1_554 S
C1149 C1150 1.387 . S
C1149 H1152 0.950 . S
C1150 C1149 1.387 . S
C1150 C1153 1.387 . S
H1151 C1147 0.950 . S
H1152 C1149 0.950 . S
C1153 C1144 1.390 1_554 S
C1153 H1146 0.950 . S
C1153 C1150 1.387 . S
C1154 C1155 1.387 . S
C1154 H1158 0.950 . S
C1154 C1163 1.390 . S
C1155 C1154 1.387 . S
C1155 C1157 1.387 . S
H1156 C1163 0.950 . S
C1157 C1155 1.387 . S
C1157 C1159 1.390 . S
C1157 H1161 0.950 . S
H1158 C1154 0.950 . S
C1159 C1157 1.390 . S
C1159 C1160 1.387 . S
C1159 H1162 0.950 . S
C1160 C1159 1.387 . S
C1160 C1163 1.387 . S
H1161 C1157 0.950 . S
H1162 C1159 0.950 . S
C1163 C1154 1.390 . S
C1163 H1156 0.950 . S
C1163 C1160 1.387 . S
C1164 C1165 1.387 . S
C1164 H1168 0.950 . S
C1164 C1173 1.390 . S
C1165 C1164 1.387 . S
C1165 C1167 1.387 . S
H1166 C1173 0.950 . S
C1167 C1165 1.387 . S
C1167 C1169 1.390 . S
C1167 H1171 0.950 . S
H1168 C1164 0.950 . S
C1169 C1167 1.390 . S
C1169 C1170 1.387 . S
C1169 H1172 0.950 . S
C1170 C1169 1.387 . S
C1170 C1173 1.387 . S
H1171 C1167 0.950 . S
H1172 C1169 0.950 . S
C1173 C1164 1.390 . S
C1173 H1166 0.950 . S
C1173 C1170 1.387 . S
C1174 C1175 1.387 . S
C1174 H1178 0.950 . S
C1174 C1183 1.390 . S
C1175 C1174 1.387 . S
C1175 C1177 1.387 . S
H1176 C1183 0.950 . S
C1177 C1175 1.387 . S
C1177 C1179 1.390 . S
C1177 H1181 0.950 . S
H1178 C1174 0.950 . S
C1179 C1177 1.390 . S
C1179 C1180 1.387 . S
C1179 H1182 0.950 . S
C1180 C1179 1.387 . S
C1180 C1183 1.387 . S
H1181 C1177 0.950 . S
H1182 C1179 0.950 . S
C1183 C1174 1.390 . S
C1183 H1176 0.950 . S
C1183 C1180 1.387 . S
C1184 C1185 1.387 . S
C1184 H1188 0.950 . S
C1184 C1193 1.390 1_545 S
C1185 C1184 1.387 . S
C1185 C1187 1.387 . S
H1186 C1193 0.950 . S
C1187 C1185 1.387 . S
C1187 C1189 1.390 1_545 S
C1187 H1191 0.950 . S
H1188 C1184 0.950 . S
C1189 C1187 1.390 1_565 S
C1189 C1190 1.387 . S
C1189 H1192 0.950 . S
C1190 C1189 1.387 . S
C1190 C1193 1.387 . S
H1191 C1187 0.950 . S
H1192 C1189 0.950 . S
C1193 C1184 1.390 1_565 S
C1193 H1186 0.950 . S
C1193 C1190 1.387 . S
C1194 C1195 1.387 . S
C1194 H1198 0.950 . S
C1194 C1203 1.390 . S
C1195 C1194 1.387 . S
C1195 C1197 1.387 . S
H1196 C1203 0.950 . S
C1197 C1195 1.387 . S
C1197 C1199 1.390 . S
C1197 H1201 0.950 . S
H1198 C1194 0.950 . S
C1199 C1197 1.390 . S
C1199 C1200 1.387 . S
C1199 H1202 0.950 . S
C1200 C1199 1.387 . S
C1200 C1203 1.387 . S
H1201 C1197 0.950 . S
H1202 C1199 0.950 . S
C1203 C1194 1.390 . S
C1203 H1196 0.950 . S
C1203 C1200 1.387 . S
C1204 C1205 1.387 . S
C1204 H1208 0.950 . S
C1204 C1213 1.390 1_546 S
C1205 C1204 1.387 . S
C1205 C1207 1.387 . S
H1206 C1213 0.950 . S
C1207 C1205 1.387 . S
C1207 C1209 1.390 1_546 S
C1207 H1211 0.950 . S
H1208 C1204 0.950 . S
C1209 C1207 1.390 1_564 S
C1209 C1210 1.387 . S
C1209 H1212 0.950 . S
C1210 C1209 1.387 . S
C1210 C1213 1.387 . S
H1211 C1207 0.950 . S
H1212 C1209 0.950 . S
C1213 C1204 1.390 1_564 S
C1213 H1206 0.950 . S
C1213 C1210 1.387 . S
C1214 C1215 1.387 . S
C1214 H1218 0.950 . S
C1214 C1223 1.390 . S
C1215 C1214 1.387 . S
C1215 C1217 1.387 . S
H1216 C1223 0.950 . S
C1217 C1215 1.387 . S
C1217 C1219 1.390 . S
C1217 H1221 0.950 . S
H1218 C1214 0.950 . S
C1219 C1217 1.390 . S
C1219 C1220 1.387 . S
C1219 H1222 0.950 . S
C1220 C1219 1.387 . S
C1220 C1223 1.387 . S
H1221 C1217 0.950 . S
H1222 C1219 0.950 . S
C1223 C1214 1.390 . S
C1223 H1216 0.950 . S
C1223 C1220 1.387 . S
C1224 C1225 1.387 . S
C1224 H1228 0.950 . S
C1224 C1233 1.390 1_545 S
C1225 C1224 1.387 . S
C1225 C1227 1.387 . S
H1226 C1233 0.950 . S
C1227 C1225 1.387 . S
C1227 C1229 1.390 1_545 S
C1227 H1231 0.950 . S
H1228 C1224 0.950 . S
C1229 C1227 1.390 1_565 S
C1229 C1230 1.387 . S
C1229 H1232 0.950 . S
C1230 C1229 1.387 . S
C1230 C1233 1.387 . S
H1231 C1227 0.950 . S
H1232 C1229 0.950 . S
C1233 C1224 1.390 1_565 S
C1233 H1226 0.950 . S
C1233 C1230 1.387 . S
C1234 C1235 1.387 . S
C1234 H1238 0.950 . S
C1234 C1243 1.390 . S
C1235 C1234 1.387 . S
C1235 C1237 1.387 . S
H1236 C1243 0.950 . S
C1237 C1235 1.387 . S
C1237 C1239 1.390 . S
C1237 H1241 0.950 . S
H1238 C1234 0.950 . S
C1239 C1237 1.390 . S
C1239 C1240 1.387 . S
C1239 H1242 0.950 . S
C1240 C1239 1.387 . S
C1240 C1243 1.387 . S
H1241 C1237 0.950 . S
H1242 C1239 0.950 . S
C1243 C1234 1.390 . S
C1243 H1236 0.950 . S
C1243 C1240 1.387 . S
C1244 C1245 1.387 . S
C1244 H1248 0.950 . S
C1244 C1253 1.390 1_564 S
C1245 C1244 1.387 . S
C1245 C1247 1.387 . S
H1246 C1253 0.950 . S
C1247 C1245 1.387 . S
C1247 C1249 1.390 1_564 S
C1247 H1251 0.950 . S
H1248 C1244 0.950 . S
C1249 C1247 1.390 1_546 S
C1249 C1250 1.387 . S
C1249 H1252 0.950 . S
C1250 C1249 1.387 . S
C1250 C1253 1.387 . S
H1251 C1247 0.950 . S
H1252 C1249 0.950 . S
C1253 C1244 1.390 1_546 S
C1253 H1246 0.950 . S
C1253 C1250 1.387 . S
C1254 C1255 1.387 . S
C1254 H1258 0.950 . S
C1254 C1263 1.390 . S
C1255 C1254 1.387 . S
C1255 C1257 1.387 . S
H1256 C1263 0.950 . S
C1257 C1255 1.387 . S
C1257 C1259 1.390 . S
C1257 H1261 0.950 . S
H1258 C1254 0.950 . S
C1259 C1257 1.390 . S
C1259 C1260 1.387 . S
C1259 H1262 0.950 . S
C1260 C1259 1.387 . S
C1260 C1263 1.387 . S
H1261 C1257 0.950 . S
H1262 C1259 0.950 . S
C1263 C1254 1.390 . S
C1263 H1256 0.950 . S
C1263 C1260 1.387 . S
C945 C701 1.436 . S
C950 C33 1.436 . S
C955 C937 1.433 . S
C960 C111 1.433 . S
C965 C170 1.435 . S
C970 C564 1.435 . S
C975 C819 1.434 . S
C980 C210 1.434 . S
C985 C269 1.435 . S
C990 C800 1.435 . S
C995 C347 1.433 . S
C1000 C682 1.432 . S
C1005 C406 1.433 . S
C1010 C918 1.434 . S
C1015 C446 1.434 . S
C1020 C583 1.433 . S
C1025 C229 1.435 . S
C1030 C505 1.436 . S
C1035 C642 1.432 . S
C1040 C92 1.432 . S
C1045 C741 1.435 . S
C1050 C328 1.435 . S
C1055 C878 1.433 . S
C1060 C465 1.433 . S
C1065 C288 1.435 . S
C1070 C524 1.435 . S
C1075 C623 1.433 . S
C1080 C387 1.434 . S
C1085 C859 1.434 . S
C1090 C151 1.433 . S
C1095 C52 1.434 . S
C1100 C760 1.435 . S
C1105 C3 1.427 . S
C1110 C239 1.427 . S
C1115 C64 1.432 . S
C1120 C300 1.432 . S
C1125 C123 1.436 . S
C1130 C359 1.436 . S
C1135 C416 1.428 . S
C1140 C180 1.428 . S
C1145 C475 1.426 . S
C1150 C711 1.426 . S
C1155 C772 1.433 . S
C1160 C536 1.433 . S
C1165 C595 1.435 . S
C1170 C831 1.435 . S
C1175 C890 1.435 . S
C1180 C652 1.426 . S
C1185 C418 1.432 . S
C1190 C62 1.422 . S
C1195 C121 1.430 . S
C1200 C241 1.439 . S
C1205 C182 1.437 . S
C1210 C298 1.428 . S
C1215 C5 1.435 . S
C1220 C357 1.426 . S
C1225 C534 1.427 . S
C1230 C888 1.427 . S
C1235 C713 1.439 . S
C1240 C593 1.429 . S
C1245 C654 1.436 . S
C1250 C770 1.427 . S
C1255 C829 1.423 . S
C1260 C477 1.432 . S
