# Generated by pormake.
# Topology wfx, (7)-cn, num edge types: 1
# Building blocks:
#     Node 0, Type 0, BuildingBlock: NUHQUE_clean_sbu_2, # of connection points: 7
#     Node 1, Type 0, BuildingBlock: NUHQUE_clean_sbu_2, # of connection points: 7
#     Node 2, Type 0, BuildingBlock: NUHQUE_clean_sbu_2, # of connection points: 7
#     Node 3, Type 0, BuildingBlock: NUHQUE_clean_sbu_2, # of connection points: 7
#     Node 4, Type 0, BuildingBlock: NUHQUE_clean_sbu_2, # of connection points: 7
#     Node 5, Type 0, BuildingBlock: NUHQUE_clean_sbu_2, # of connection points: 7
#     Node 6, Type 0, BuildingBlock: NUHQUE_clean_sbu_2, # of connection points: 7
#     Node 7, Type 0, BuildingBlock: NUHQUE_clean_sbu_2, # of connection points: 7
#     Node 8, Type 0, BuildingBlock: NUHQUE_clean_sbu_2, # of connection points: 7
#     Node 9, Type 0, BuildingBlock: NUHQUE_clean_sbu_2, # of connection points: 7
#     Node 10, Type 0, BuildingBlock: NUHQUE_clean_sbu_2, # of connection points: 7
#     Node 11, Type 0, BuildingBlock: NUHQUE_clean_sbu_2, # of connection points: 7
#     Node 12, Type 0, BuildingBlock: NUHQUE_clean_sbu_2, # of connection points: 7
#     Node 13, Type 0, BuildingBlock: NUHQUE_clean_sbu_2, # of connection points: 7
#     Node 14, Type 0, BuildingBlock: NUHQUE_clean_sbu_2, # of connection points: 7
#     Node 15, Type 0, BuildingBlock: NUHQUE_clean_sbu_2, # of connection points: 7
#     Edge 16, Type (0, 0), BuildingBlock: AJUNOK_clean_linker_0, # of connection points: 2
#     Edge 17, Type (0, 0), BuildingBlock: AJUNOK_clean_linker_0, # of connection points: 2
#     Edge 18, Type (0, 0), BuildingBlock: AJUNOK_clean_linker_0, # of connection points: 2
#     Edge 19, Type (0, 0), BuildingBlock: AJUNOK_clean_linker_0, # of connection points: 2
#     Edge 20, Type (0, 0), BuildingBlock: AJUNOK_clean_linker_0, # of connection points: 2
#     Edge 21, Type (0, 0), BuildingBlock: AJUNOK_clean_linker_0, # of connection points: 2
#     Edge 22, Type (0, 0), BuildingBlock: AJUNOK_clean_linker_0, # of connection points: 2
#     Edge 23, Type (0, 0), BuildingBlock: AJUNOK_clean_linker_0, # of connection points: 2
#     Edge 24, Type (0, 0), BuildingBlock: AJUNOK_clean_linker_0, # of connection points: 2
#     Edge 25, Type (0, 0), BuildingBlock: AJUNOK_clean_linker_0, # of connection points: 2
#     Edge 26, Type (0, 0), BuildingBlock: AJUNOK_clean_linker_0, # of connection points: 2
#     Edge 27, Type (0, 0), BuildingBlock: AJUNOK_clean_linker_0, # of connection points: 2
#     Edge 28, Type (0, 0), BuildingBlock: AJUNOK_clean_linker_0, # of connection points: 2
#     Edge 29, Type (0, 0), BuildingBlock: AJUNOK_clean_linker_0, # of connection points: 2
#     Edge 30, Type (0, 0), BuildingBlock: AJUNOK_clean_linker_0, # of connection points: 2
#     Edge 31, Type (0, 0), BuildingBlock: AJUNOK_clean_linker_0, # of connection points: 2
#     Edge 32, Type (0, 0), BuildingBlock: AJUNOK_clean_linker_0, # of connection points: 2
#     Edge 33, Type (0, 0), BuildingBlock: AJUNOK_clean_linker_0, # of connection points: 2
#     Edge 34, Type (0, 0), BuildingBlock: AJUNOK_clean_linker_0, # of connection points: 2
#     Edge 35, Type (0, 0), BuildingBlock: AJUNOK_clean_linker_0, # of connection points: 2
#     Edge 36, Type (0, 0), BuildingBlock: AJUNOK_clean_linker_0, # of connection points: 2
#     Edge 37, Type (0, 0), BuildingBlock: AJUNOK_clean_linker_0, # of connection points: 2
#     Edge 38, Type (0, 0), BuildingBlock: AJUNOK_clean_linker_0, # of connection points: 2
#     Edge 39, Type (0, 0), BuildingBlock: AJUNOK_clean_linker_0, # of connection points: 2
#     Edge 40, Type (0, 0), BuildingBlock: AJUNOK_clean_linker_0, # of connection points: 2
#     Edge 41, Type (0, 0), BuildingBlock: AJUNOK_clean_linker_0, # of connection points: 2
#     Edge 42, Type (0, 0), BuildingBlock: AJUNOK_clean_linker_0, # of connection points: 2
#     Edge 43, Type (0, 0), BuildingBlock: AJUNOK_clean_linker_0, # of connection points: 2
#     Edge 44, Type (0, 0), BuildingBlock: AJUNOK_clean_linker_0, # of connection points: 2
#     Edge 45, Type (0, 0), BuildingBlock: AJUNOK_clean_linker_0, # of connection points: 2
#     Edge 46, Type (0, 0), BuildingBlock: AJUNOK_clean_linker_0, # of connection points: 2
#     Edge 47, Type (0, 0), BuildingBlock: AJUNOK_clean_linker_0, # of connection points: 2
#     Edge 48, Type (0, 0), BuildingBlock: AJUNOK_clean_linker_0, # of connection points: 2
#     Edge 49, Type (0, 0), BuildingBlock: AJUNOK_clean_linker_0, # of connection points: 2
#     Edge 50, Type (0, 0), BuildingBlock: AJUNOK_clean_linker_0, # of connection points: 2
#     Edge 51, Type (0, 0), BuildingBlock: AJUNOK_clean_linker_0, # of connection points: 2
#     Edge 52, Type (0, 0), BuildingBlock: AJUNOK_clean_linker_0, # of connection points: 2
#     Edge 53, Type (0, 0), BuildingBlock: AJUNOK_clean_linker_0, # of connection points: 2
#     Edge 54, Type (0, 0), BuildingBlock: AJUNOK_clean_linker_0, # of connection points: 2
#     Edge 55, Type (0, 0), BuildingBlock: AJUNOK_clean_linker_0, # of connection points: 2
#     Edge 56, Type (0, 0), BuildingBlock: AJUNOK_clean_linker_0, # of connection points: 2
#     Edge 57, Type (0, 0), BuildingBlock: AJUNOK_clean_linker_0, # of connection points: 2
#     Edge 58, Type (0, 0), BuildingBlock: AJUNOK_clean_linker_0, # of connection points: 2
#     Edge 59, Type (0, 0), BuildingBlock: AJUNOK_clean_linker_0, # of connection points: 2
#     Edge 60, Type (0, 0), BuildingBlock: AJUNOK_clean_linker_0, # of connection points: 2
#     Edge 61, Type (0, 0), BuildingBlock: AJUNOK_clean_linker_0, # of connection points: 2
#     Edge 62, Type (0, 0), BuildingBlock: AJUNOK_clean_linker_0, # of connection points: 2
#     Edge 63, Type (0, 0), BuildingBlock: AJUNOK_clean_linker_0, # of connection points: 2
#     Edge 64, Type (0, 0), BuildingBlock: AJUNOK_clean_linker_0, # of connection points: 2
#     Edge 65, Type (0, 0), BuildingBlock: AJUNOK_clean_linker_0, # of connection points: 2
#     Edge 66, Type (0, 0), BuildingBlock: AJUNOK_clean_linker_0, # of connection points: 2
#     Edge 67, Type (0, 0), BuildingBlock: AJUNOK_clean_linker_0, # of connection points: 2
#     Edge 68, Type (0, 0), BuildingBlock: AJUNOK_clean_linker_0, # of connection points: 2
#     Edge 69, Type (0, 0), BuildingBlock: AJUNOK_clean_linker_0, # of connection points: 2
#     Edge 70, Type (0, 0), BuildingBlock: AJUNOK_clean_linker_0, # of connection points: 2
#     Edge 71, Type (0, 0), BuildingBlock: AJUNOK_clean_linker_0, # of connection points: 2
# Relax obj value: 0.240
# Max RMSD: 0.279
# Mean RMSD: 0.279
data_MOF--net-wfx--node1-NUHQUE_clean_sbu_2--edge1-AJUNOK_clean_linker_0
_symmetry_space_group_name_H-M    P1
_symmetry_Int_Tables_number       1
_symmetry_cell_setting            triclinic
loop_
_symmetry_equiv_pos_as_xyz
'x, y, z'
_cell_length_a     35.369212
_cell_length_b     35.419859
_cell_length_c     35.629109
_cell_angle_alpha  90.117362
_cell_angle_beta   90.100261
_cell_angle_gamma 89.745241
loop_
_atom_site_label
_atom_site_type_symbol
_atom_site_fract_x
_atom_site_fract_y
_atom_site_fract_z
_atom_type_partial_charge
O0 O 0.6793 0.17828 0.07102 0.0
Tb1 Tb 0.69386 0.15034 0.12382 0.0
Eu2 Eu 0.70767 0.03109 0.12915 0.0
C3 C 0.64412 0.18032 0.05892 0.0
O4 O 0.61778 0.16175 0.077 0.0
C5 C 0.74497 0.09516 0.08315 0.0
O6 O 0.7614 0.99777 0.13565 0.0
C7 C 0.65553 0.98664 0.10477 0.0
C8 C 0.79174 1.01166 0.15168 0.0
O9 O 0.78988 0.04474 0.16831 0.0
C10 C 0.66509 0.09434 0.18037 0.0
C11 C 0.61546 0.97557 0.10414 0.0
C12 C 0.59084 0.99399 0.07926 0.0
C13 C 0.55563 0.97862 0.07048 0.0
C14 C 0.54414 0.94529 0.08804 0.0
C15 C 0.56776 0.92729 0.11411 0.0
C16 C 0.60349 0.94241 0.12214 0.0
O17 O 0.7398 0.11127 0.11563 0.0
O18 O 0.73466 0.06001 0.07984 0.0
O19 O 0.74056 0.1746 0.15474 0.0
O20 O 0.68581 0.19803 0.16199 0.0
C21 C 0.72121 0.20056 0.17187 0.0
O22 O 0.68925 0.0657 0.17997 0.0
O23 O 0.65492 0.11072 0.1488 0.0
O24 O 0.67651 0.97823 0.13419 0.0
O25 O 0.66429 0.01893 0.08881 0.0
H26 H 0.5998 0.01933 0.06484 0.0
H27 H 0.51745 0.93242 0.08034 0.0
H28 H 0.62266 0.92711 0.14044 0.0
O29 O 0.34853 0.6375 0.07695 0.0
Tb30 Tb 0.38228 0.67257 0.11499 0.0
Eu31 Eu 0.47998 0.7042 0.14228 0.0
C32 C 0.35394 0.63696 0.04035 0.0
O33 O 0.38448 0.65239 0.02645 0.0
C34 C 0.42781 0.73567 0.07549 0.0
O35 O 0.51814 0.75408 0.14957 0.0
C36 C 0.52227 0.65386 0.11031 0.0
C37 C 0.50801 0.78539 0.16651 0.0
O38 O 0.47656 0.78651 0.186 0.0
C39 C 0.42225 0.65656 0.19038 0.0
C40 C 0.53808 0.61543 0.1048 0.0
C41 C 0.52257 0.59248 0.07666 0.0
C42 C 0.54084 0.55926 0.06561 0.0
C43 C 0.57444 0.54828 0.08301 0.0
C44 C 0.59023 0.56998 0.11195 0.0
C45 C 0.57203 0.60389 0.12266 0.0
O46 O 0.4139 0.70157 0.07124 0.0
O47 O 0.44862 0.74445 0.10471 0.0
O48 O 0.32767 0.68108 0.14215 0.0
O49 O 0.36225 0.72854 0.1322 0.0
C50 C 0.3301 0.71741 0.14589 0.0
O51 O 0.44608 0.685 0.19194 0.0
O52 O 0.41339 0.64119 0.15777 0.0
O53 O 0.53325 0.67368 0.13965 0.0
O54 O 0.4875 0.66158 0.09884 0.0
H55 H 0.49719 0.60126 0.06188 0.0
H56 H 0.5886 0.52278 0.07347 0.0
H57 H 0.58457 0.62148 0.14419 0.0
O58 O 0.87127 0.34438 0.07363 0.0
Tb59 Tb 0.84142 0.37628 0.11708 0.0
Eu60 Eu 0.82287 0.49428 0.12709 0.0
C61 C 0.8584 0.33934 0.03933 0.0
O62 O 0.82735 0.3569 0.0289 0.0
C63 C 0.79028 0.43141 0.07207 0.0
O64 O 0.76787 0.52489 0.13732 0.0
C65 C 0.87346 0.54162 0.1047 0.0
C66 C 0.7372 0.50627 0.14639 0.0
O67 O 0.73981 0.46968 0.15193 0.0
C68 C 0.86641 0.43163 0.17689 0.0
C69 C 0.91378 0.55183 0.10364 0.0
C70 C 0.93771 0.53363 0.07783 0.0
C71 C 0.9737 0.54773 0.07026 0.0
C72 C 0.98701 0.57872 0.09059 0.0
C73 C 0.96399 0.59657 0.11734 0.0
C74 C 0.92707 0.58352 0.12333 0.0
O75 O 0.79323 0.41122 0.1025 0.0
O76 O 0.80041 0.46683 0.07405 0.0
O77 O 0.78999 0.34859 0.13352 0.0
O78 O 0.84003 0.33698 0.16472 0.0
C79 C 0.80383 0.33058 0.16198 0.0
O80 O 0.84218 0.46004 0.17792 0.0
O81 O 0.87678 0.41796 0.14425 0.0
O82 O 0.85386 0.54712 0.13562 0.0
O83 O 0.86384 0.51098 0.08628 0.0
H84 H 0.92783 0.50935 0.06213 0.0
H85 H 1.01466 0.59018 0.08425 0.0
H86 H 0.90854 0.59858 0.14246 0.0
O87 O 0.1802 0.88766 0.08302 0.0
Tb88 Tb 0.14259 0.8521 0.1155 0.0
Eu89 Eu 0.04927 0.81903 0.13821 0.0
C90 C 0.17393 0.89697 0.04792 0.0
O91 O 0.14062 0.89046 0.03299 0.0
C92 C 0.09799 0.79446 0.06679 0.0
O93 O 1.0145 0.76835 0.15177 0.0
C94 C 1.00529 0.86901 0.10811 0.0
C95 C 0.03173 0.73705 0.16146 0.0
O96 O 0.06839 0.73799 0.16735 0.0
C97 C 0.10168 0.87 0.18858 0.0
C98 C 0.99103 0.90817 0.10526 0.0
C99 C 1.0086 0.93284 0.0801 0.0
C100 C 0.99063 0.96614 0.06861 0.0
C101 C 0.95615 0.97656 0.08503 0.0
C102 C 0.93899 0.95314 0.11158 0.0
C103 C 0.95613 0.91868 0.12133 0.0
O104 O 0.11455 0.82763 0.06674 0.0
O105 O 0.07901 0.7823 0.09594 0.0
O106 O 0.19776 0.8429 0.14076 0.0
O107 O 0.16077 0.79641 0.13582 0.0
C108 C 0.19412 0.80714 0.14723 0.0
O109 O 0.08194 0.83871 0.18852 0.0
O110 O 0.11201 0.88542 0.15669 0.0
O111 O 0.99489 0.84815 0.13679 0.0
O112 O 0.03974 0.86165 0.09589 0.0
H113 H 0.03543 0.92508 0.06755 0.0
H114 H 0.94174 1.00206 0.07594 0.0
H115 H 0.94146 0.89949 0.1399 0.0
O116 O 0.14034 0.85702 0.43408 0.0
Tb117 Tb 0.17615 0.89232 0.39855 0.0
Eu118 Eu 0.20866 0.99003 0.37574 0.0
C119 C 0.14049 0.85996 0.47092 0.0
O120 O 0.15694 0.88895 0.48687 0.0
C121 C 0.23977 0.93553 0.44167 0.0
O122 O 0.25854 0.02816 0.36753 0.0
C123 C 0.1581 0.03126 0.40899 0.0
C124 C 0.28928 0.01822 0.34939 0.0
O125 O 0.28967 0.98669 0.32994 0.0
C126 C 0.15817 0.93614 0.32743 0.0
C127 C 0.11873 0.04543 0.41256 0.0
C128 C 0.09514 0.02911 0.43957 0.0
C129 C 0.06042 0.04573 0.44897 0.0
C130 C 0.04831 0.0781 0.42981 0.0
C131 C 0.071 0.0948 0.4022 0.0
C132 C 0.10647 0.07851 0.39387 0.0
O133 O 0.20668 0.91905 0.44449 0.0
O134 O 0.24841 0.95699 0.4129 0.0
O135 O 0.22938 0.87325 0.37273 0.0
O136 O 0.1812 0.83798 0.37059 0.0
C137 C 0.21648 0.84076 0.36123 0.0
O138 O 0.18752 0.95866 0.3252 0.0
O139 O 0.14392 0.92764 0.36042 0.0
O140 O 0.17866 0.04338 0.38075 0.0
O141 O 0.16602 0.99627 0.41928 0.0
H142 H 0.10439 1.004 0.45438 0.0
H143 H 0.02172 0.09132 0.43757 0.0
H144 H 0.12461 0.0919 0.37342 0.0
O145 O 0.68483 0.14566 0.4317 0.0
Tb146 Tb 0.65362 0.17992 0.3914 0.0
Eu147 Eu 0.55257 0.20291 0.37136 0.0
C148 C 0.67751 0.14681 0.4679 0.0
O149 O 0.64706 0.16448 0.47968 0.0
C150 C 0.60435 0.24104 0.43889 0.0
O151 O 0.51503 0.25339 0.36158 0.0
C152 C 0.51293 0.14603 0.39216 0.0
C153 C 0.53098 0.28601 0.35445 0.0
O154 O 0.56767 0.28675 0.34882 0.0
C155 C 0.61004 0.15928 0.32166 0.0
C156 C 0.4902 0.11331 0.40419 0.0
C157 C 0.50306 0.09065 0.43388 0.0
C158 C 0.48186 0.0597 0.44626 0.0
C159 C 0.44752 0.05141 0.42848 0.0
C160 C 0.43396 0.07404 0.39913 0.0
C161 C 0.45547 0.10481 0.38676 0.0
O162 O 0.63504 0.22061 0.4334 0.0
O163 O 0.57289 0.23887 0.41932 0.0
O164 O 0.7101 0.1835 0.36697 0.0
O165 O 0.67157 0.22859 0.35895 0.0
C166 C 0.70586 0.21683 0.35234 0.0
O167 O 0.58826 0.1894 0.32082 0.0
O168 O 0.61965 0.14517 0.35441 0.0
O169 O 0.50066 0.17028 0.36687 0.0
O170 O 0.54684 0.15286 0.40613 0.0
H171 H 0.52943 0.0974 0.44786 0.0
H172 H 0.43131 0.02706 0.43718 0.0
H173 H 0.44483 0.12232 0.36414 0.0
O174 O 0.35025 0.68295 0.44138 0.0
Tb175 Tb 0.33399 0.65197 0.39097 0.0
Eu176 Eu 0.32371 0.5361 0.38579 0.0
C177 C 0.37645 0.67301 0.46566 0.0
O178 O 0.39268 0.63971 0.46285 0.0
C179 C 0.28499 0.59896 0.43851 0.0
O180 O 0.26875 0.50461 0.37755 0.0
C181 C 0.37484 0.48845 0.40824 0.0
C182 C 0.23811 0.52163 0.3651 0.0
O183 O 0.24023 0.55736 0.35554 0.0
C184 C 0.36466 0.59782 0.33282 0.0
C185 C 0.4147 0.47581 0.40976 0.0
C186 C 0.43961 0.49376 0.43476 0.0
C187 C 0.47529 0.4785 0.4424 0.0
C188 C 0.48702 0.44579 0.4236 0.0
C189 C 0.46282 0.42761 0.39822 0.0
C190 C 0.42641 0.44233 0.39169 0.0
O191 O 0.28479 0.62093 0.40908 0.0
O192 O 0.3024 0.5662 0.43775 0.0
O193 O 0.29024 0.67466 0.35432 0.0
O194 O 0.33905 0.70723 0.36425 0.0
C195 C 0.30601 0.70712 0.34819 0.0
O196 O 0.34093 0.56923 0.33403 0.0
O197 O 0.37469 0.61513 0.36391 0.0
O198 O 0.35438 0.48252 0.37794 0.0
O199 O 0.36649 0.52018 0.42557 0.0
H200 H 0.43075 0.51888 0.44986 0.0
H201 H 0.51431 0.43329 0.43008 0.0
H202 H 0.4071 0.42729 0.37342 0.0
O203 O 0.85476 0.39039 0.42891 0.0
Tb204 Tb 0.89041 0.3541 0.39402 0.0
Eu205 Eu 0.98354 0.32127 0.36917 0.0
C206 C 0.86014 0.39532 0.46513 0.0
O207 O 0.89249 0.38524 0.48026 0.0
C208 C 0.93317 0.29191 0.43796 0.0
O209 O 0.01948 0.26915 0.35933 0.0
C210 C 0.02583 0.37102 0.40234 0.0
C211 C 1.00339 0.23634 0.35281 0.0
O212 O 0.9669 0.23578 0.34583 0.0
C213 C 0.92839 0.37183 0.31841 0.0
C214 C 0.04116 0.40971 0.40803 0.0
C215 C 0.02522 0.43272 0.43612 0.0
C216 C 0.04219 0.46687 0.44637 0.0
C217 C 0.07566 0.4779 0.42883 0.0
C218 C 0.09211 0.45614 0.40022 0.0
C219 C 0.07467 0.42177 0.3899 0.0
O220 O 0.91796 0.32568 0.44107 0.0
O221 O 0.95211 0.28223 0.40781 0.0
O222 O 0.83228 0.34662 0.37732 0.0
O223 O 0.87089 0.30175 0.36665 0.0
C224 C 0.83575 0.31288 0.3637 0.0
O225 O 0.95062 0.34181 0.31865 0.0
O226 O 0.91743 0.38744 0.35029 0.0
O227 O 0.03728 0.35089 0.37335 0.0
O228 O 0.99085 0.36363 0.41289 0.0
H229 H 0.99994 0.42376 0.45072 0.0
H230 H 0.08965 0.50335 0.43845 0.0
H231 H 0.08739 0.40425 0.36838 0.0
O232 O 0.38482 0.85193 0.93754 0.0
Tb233 Tb 0.35351 0.89114 0.90227 0.0
Eu234 Eu 0.32402 0.98399 0.8741 0.0
C235 C 0.39497 0.85858 0.97234 0.0
O236 O 0.39289 0.89292 0.98613 0.0
C237 C 0.29449 0.93742 0.9448 0.0
O238 O 0.27353 0.01897 0.85897 0.0
C239 C 0.37182 0.02845 0.90661 0.0
C240 C 0.24164 1.00218 0.85084 0.0
O241 O 0.24195 0.96545 0.8455 0.0
C242 C 0.37516 0.92759 0.82694 0.0
C243 C 0.41085 0.04256 0.91092 0.0
C244 C 0.43438 0.02559 0.9377 0.0
C245 C 0.46848 0.04231 0.94828 0.0
C246 C 0.48065 0.07497 0.92999 0.0
C247 C 0.45798 0.0921 0.90254 0.0
C248 C 0.42272 0.0762 0.89343 0.0
O249 O 0.32845 0.92268 0.94835 0.0
O250 O 0.28451 0.95449 0.91364 0.0
O251 O 0.34225 0.83519 0.8811 0.0
O252 O 0.29759 0.87544 0.88043 0.0
C253 C 0.30698 0.84055 0.8729 0.0
O254 O 0.34616 0.95082 0.82509 0.0
O255 O 0.38901 0.9161 0.85934 0.0
O256 O 0.35231 0.03841 0.87671 0.0
O257 O 0.36425 0.9941 0.91873 0.0
H258 H 0.42544 1.00003 0.95176 0.0
H259 H 0.50696 0.08817 0.93841 0.0
H260 H 0.40441 0.09041 0.87349 0.0
O261 O 0.67635 0.38822 0.93164 0.0
Tb262 Tb 0.63744 0.3552 0.89709 0.0
Eu263 Eu 0.54422 0.31845 0.87804 0.0
C264 C 0.66857 0.39588 0.96691 0.0
O265 O 0.63408 0.38997 0.97903 0.0
C266 C 0.60098 0.29038 0.94395 0.0
O267 O 0.5087 0.26702 0.86742 0.0
C268 C 0.50097 0.36804 0.91036 0.0
C269 C 0.52475 0.23444 0.85976 0.0
O270 O 0.5612 0.23367 0.85267 0.0
C271 C 0.59306 0.37128 0.82669 0.0
C272 C 0.4857 0.40712 0.91174 0.0
C273 C 0.50148 0.43271 0.93739 0.0
C274 C 0.48398 0.46743 0.94446 0.0
C275 C 0.45127 0.47761 0.92491 0.0
C276 C 0.43504 0.45289 0.89879 0.0
C277 C 0.45212 0.41736 0.89249 0.0
O278 O 0.61611 0.32424 0.94546 0.0
O279 O 0.57795 0.28058 0.91665 0.0
O280 O 0.65667 0.30107 0.87383 0.0
O281 O 0.68654 0.35114 0.86156 0.0
C282 C 0.6862 0.31483 0.85694 0.0
O283 O 0.57391 0.33956 0.8265 0.0
O284 O 0.60155 0.38703 0.85911 0.0
O285 O 0.48926 0.34556 0.88333 0.0
O286 O 0.5365 0.36216 0.92035 0.0
H287 H 0.52618 0.4248 0.95372 0.0
H288 H 0.43763 0.50441 0.93112 0.0
H289 H 0.43884 0.39762 0.87336 0.0
O290 O 0.13832 0.6676 0.93334 0.0
Tb291 Tb 0.18151 0.64357 0.89668 0.0
Eu292 Eu 0.20622 0.53214 0.87404 0.0
C293 C 0.15209 0.67702 0.96648 0.0
O294 O 0.18603 0.6645 0.97491 0.0
C295 C 0.23722 0.59054 0.93516 0.0
O296 O 0.25838 0.49866 0.85785 0.0
C297 C 0.16381 0.48844 0.91393 0.0
C298 C 0.29082 0.51559 0.85161 0.0
O299 O 0.29078 0.55231 0.84642 0.0
C300 C 0.16353 0.59526 0.82432 0.0
C301 C 0.12397 0.47636 0.91805 0.0
C302 C 0.10075 0.49482 0.94424 0.0
C303 C 0.0642 0.48184 0.95152 0.0
C304 C 0.05062 0.45017 0.93239 0.0
C305 C 0.07287 0.4316 0.90552 0.0
C306 C 0.10981 0.44455 0.8987 0.0
O307 O 0.20261 0.60337 0.93787 0.0
O308 O 0.24692 0.56765 0.90789 0.0
O309 O 0.23355 0.67629 0.89783 0.0
O310 O 0.18234 0.70183 0.8779 0.0
C311 C 0.21816 0.70684 0.88396 0.0
O312 O 0.16915 0.55879 0.82928 0.0
O313 O 0.18588 0.61951 0.84077 0.0
O314 O 0.18217 0.47674 0.88395 0.0
O315 O 0.17214 0.52335 0.92382 0.0
H316 H 0.11131 0.51899 0.9597 0.0
H317 H 0.02311 0.43896 0.93966 0.0
H318 H 0.12755 0.42952 0.87886 0.0
O319 O 0.85596 0.15074 0.94459 0.0
Tb320 Tb 0.87495 0.18409 0.89746 0.0
Eu321 Eu 0.993 0.20471 0.88304 0.0
C322 C 0.84331 0.16769 0.97488 0.0
O323 O 0.84785 0.20428 0.97844 0.0
C324 C 0.93286 0.23737 0.93339 0.0
O325 O 0.02489 0.25794 0.87098 0.0
C326 C 0.03784 0.15298 0.90795 0.0
C327 C 1.00584 0.28894 0.86367 0.0
O328 O 0.96903 0.28657 0.85936 0.0
C329 C 0.92688 0.16257 0.83161 0.0
C330 C 0.05092 0.11356 0.91026 0.0
C331 C 0.03445 0.08951 0.93683 0.0
C332 C 0.05136 0.05497 0.94603 0.0
C333 C 0.08448 0.04397 0.92744 0.0
C334 C 0.10032 0.06682 0.89958 0.0
C335 C 0.08372 0.10186 0.89129 0.0
O336 O 0.91713 0.22709 0.9019 0.0
O337 O 0.96938 0.23454 0.93375 0.0
O338 O 0.83832 0.23221 0.89989 0.0
O339 O 0.82867 0.19115 0.85681 0.0
C340 C 0.81782 0.22347 0.87102 0.0
O341 O 0.9552 0.18706 0.83345 0.0
O342 O 0.90997 0.14886 0.86145 0.0
O343 O 0.04628 0.17363 0.8784 0.0
O344 O 1.00488 0.16114 0.92314 0.0
H345 H 1.00918 0.09831 0.95166 0.0
H346 H 0.09894 0.0182 0.93555 0.0
H347 H 0.09691 0.12031 0.87097 0.0
O348 O 0.89174 0.17522 0.57875 0.0
Tb349 Tb 0.85421 0.1424 0.61483 0.0
Eu350 Eu 0.82018 0.04512 0.64217 0.0
C351 C 0.89174 0.1724 0.54188 0.0
O352 O 0.8746 0.14387 0.52575 0.0
C353 C 0.7919 0.09804 0.57492 0.0
O354 O 0.76861 1.00773 0.64695 0.0
C355 C 0.87059 1.00282 0.60986 0.0
C356 C 0.73558 0.0188 0.66001 0.0
O357 O 0.73272 0.05129 0.6776 0.0
C358 C 0.86925 0.10306 0.69106 0.0
C359 C 0.90943 0.98733 0.60548 0.0
C360 C 0.93375 1.00351 0.57893 0.0
C361 C 0.96832 0.98627 0.56984 0.0
C362 C 0.9789 0.95268 0.58777 0.0
C363 C 0.95518 0.93595 0.6143 0.0
C364 C 0.92033 0.95315 0.62304 0.0
O365 O 0.82667 0.11004 0.57072 0.0
O366 O 0.78184 0.07892 0.60472 0.0
O367 O 0.84699 0.20085 0.63162 0.0
O368 O 0.79988 0.16436 0.63595 0.0
C369 C 0.81167 0.19887 0.64087 0.0
O370 O 0.84081 0.07902 0.692 0.0
O371 O 0.88518 0.11354 0.65932 0.0
O372 O 0.85027 0.99169 0.6387 0.0
O373 O 0.86309 0.0377 0.59889 0.0
H374 H 0.92535 0.02907 0.56438 0.0
H375 H 1.00512 0.93867 0.58011 0.0
H376 H 0.9015 0.93938 0.64262 0.0
O377 O 0.34628 0.88124 0.58334 0.0
Tb378 Tb 0.38512 0.84849 0.61764 0.0
Eu379 Eu 0.4861 0.81754 0.63603 0.0
C380 C 0.35579 0.89626 0.5511 0.0
O381 O 0.39132 0.89563 0.54047 0.0
C382 C 0.42792 0.78787 0.57203 0.0
O383 O 0.52391 0.76658 0.64175 0.0
C384 C 0.5275 0.869 0.60495 0.0
C385 C 0.51325 0.73467 0.6571 0.0
O386 O 0.48154 0.73331 0.67614 0.0
C387 C 0.43208 0.86638 0.687 0.0
C388 C 0.5418 0.90835 0.60226 0.0
C389 C 0.52463 0.93307 0.57655 0.0
C390 C 0.54132 0.96769 0.56763 0.0
C391 C 0.57523 0.97812 0.58498 0.0
C392 C 0.59306 0.95413 0.61075 0.0
C393 C 0.5762 0.91925 0.6196 0.0
O394 O 0.41298 0.82191 0.56992 0.0
O395 O 0.45232 0.77899 0.59847 0.0
O396 O 0.33461 0.83919 0.65151 0.0
O397 O 0.36766 0.7921 0.63533 0.0
C398 C 0.33719 0.80266 0.65306 0.0
O399 O 0.45454 0.83667 0.68734 0.0
O400 O 0.42078 0.88128 0.65511 0.0
O401 O 0.5394 0.84769 0.63284 0.0
O402 O 0.49263 0.86143 0.59387 0.0
H403 H 0.49941 0.92442 0.56155 0.0
H404 H 0.58842 1.0047 0.57762 0.0
H405 H 0.59086 0.89997 0.63825 0.0
O406 O 0.64007 0.35534 0.5784 0.0
Tb407 Tb 0.67756 0.38883 0.61368 0.0
Eu408 Eu 0.71176 0.48386 0.64026 0.0
C409 C 0.63348 0.3632 0.54296 0.0
O410 O 0.64425 0.39591 0.52954 0.0
C411 C 0.73993 0.43236 0.57122 0.0
O412 O 0.76239 0.522 0.64632 0.0
C413 C 0.66067 0.52495 0.60761 0.0
C414 C 0.79452 0.51141 0.66167 0.0
O415 O 0.79647 0.47892 0.67927 0.0
C416 C 0.66178 0.42891 0.68885 0.0
C417 C 0.62153 0.53935 0.6028 0.0
C418 C 0.59838 0.5226 0.57549 0.0
C419 C 0.56428 0.53958 0.56466 0.0
C420 C 0.55246 0.57299 0.58204 0.0
C421 C 0.57517 0.59057 0.6091 0.0
C422 C 0.60962 0.57355 0.61975 0.0
O423 O 0.70588 0.4179 0.56772 0.0
O424 O 0.74998 0.45053 0.60185 0.0
O425 O 0.68551 0.33295 0.63825 0.0
O426 O 0.73316 0.36813 0.63143 0.0
C427 C 0.72181 0.33513 0.64275 0.0
O428 O 0.69111 0.45167 0.69083 0.0
O429 O 0.64663 0.42065 0.65605 0.0
O430 O 0.68075 0.53686 0.6364 0.0
O431 O 0.6689 0.49016 0.59687 0.0
H432 H 0.60757 0.49705 0.56131 0.0
H433 H 0.52632 0.58643 0.57311 0.0
H434 H 0.62791 0.58802 0.63946 0.0
O435 O 0.18031 0.64246 0.5825 0.0
Tb436 Tb 0.14516 0.67775 0.61833 0.0
Eu437 Eu 0.04623 0.70964 0.63795 0.0
C438 C 0.16916 0.63182 0.54897 0.0
O439 O 0.13369 0.6371 0.53937 0.0
C440 C 0.101 0.73757 0.57048 0.0
O441 O 1.0094 0.76121 0.64702 0.0
C442 C 1.00383 0.65883 0.60671 0.0
C443 C 0.02387 0.79386 0.65702 0.0
O444 O 0.05975 0.79529 0.66651 0.0
C445 C 0.09893 0.65799 0.68748 0.0
C446 C 0.98864 0.61982 0.60395 0.0
C447 C 1.00432 0.59495 0.57739 0.0
C448 C 0.9862 0.56103 0.56803 0.0
C449 C 0.95285 0.55112 0.58656 0.0
C450 C 0.93684 0.57513 0.61352 0.0
C451 C 0.95473 0.60952 0.62225 0.0
O452 O 0.12043 0.70589 0.56992 0.0
O453 O 0.07806 0.74713 0.59792 0.0
O454 O 0.19978 0.68203 0.64604 0.0
O455 O 0.16599 0.73118 0.64183 0.0
C456 C 0.1983 0.71781 0.65382 0.0
O457 O 0.07797 0.68878 0.68893 0.0
O458 O 0.10954 0.64434 0.65483 0.0
O459 O 0.99224 0.68071 0.63433 0.0
O460 O 0.03891 0.66547 0.59597 0.0
H461 H 0.02988 0.60273 0.56259 0.0
H462 H 0.93833 0.52531 0.57885 0.0
H463 H 0.94126 0.62883 0.64175 0.0
C464 C 0.52924 0.02034 0.97631 0.0
C465 C 0.49025 0.02675 0.98004 0.0
C466 C 0.55016 1.00484 1.00581 0.0
C467 C 0.53282 0.99548 0.04008 0.0
H468 H 0.5435 0.02672 0.9502 0.0
H469 H 0.58005 0.99958 1.00152 0.0
S470 S 0.43213 1.00973 0.06495 0.0
N471 N 0.43544 0.02473 0.02124 0.0
N472 N 0.47501 0.99542 0.07674 0.0
C473 C 0.49402 1.00238 0.04439 0.0
C474 C 0.47269 0.01814 0.01437 0.0
C475 C 0.5473 0.53059 1.00211 0.0
C476 C 0.52564 0.53646 0.03467 0.0
C477 C 0.53356 0.50831 0.97267 0.0
C478 C 0.49781 0.49149 0.97509 0.0
H479 H 0.57495 0.54337 0.99945 0.0
H480 H 0.55083 0.50425 0.94789 0.0
S481 S 0.43183 0.4959 0.05564 0.0
N482 N 0.46796 0.52235 0.06853 0.0
N483 N 0.44194 0.48039 0.01304 0.0
C484 C 0.47614 0.49683 0.00764 0.0
C485 C 0.49012 0.51943 0.03754 0.0
C486 C 0.05645 0.50649 0.01668 0.0
C487 C 0.04095 0.4999 0.9809 0.0
C488 C 0.03454 0.52214 0.04545 0.0
C489 C 0.99642 0.53159 0.03938 0.0
H490 H 0.08551 0.49881 0.0227 0.0
H491 H 0.04733 0.52629 0.07279 0.0
S492 S 0.9435 0.52288 0.94972 0.0
N493 N 0.98598 0.50589 0.94027 0.0
N494 N 0.94471 0.53559 0.99432 0.0
C495 C 0.9808 0.5259 1.00347 0.0
C496 C 1.0031 0.50994 0.97423 0.0
C497 C 1.0088 0.02769 0.03981 0.0
C498 C 1.0063 0.98823 0.03712 0.0
C499 C 0.02341 0.04902 0.01026 0.0
C500 C 0.0357 0.03168 0.97677 0.0
H501 H 0.9999 0.04213 0.06516 0.0
H502 H 0.02559 0.07929 0.01395 0.0
S503 S 0.03264 0.92932 0.95475 0.0
N504 N 0.0157 0.93269 0.99775 0.0
N505 N 0.04281 0.97288 0.94208 0.0
C506 C 0.03284 0.99227 0.97354 0.0
C507 C 0.01817 0.97053 1.0037 0.0
C508 C 0.99849 0.02486 0.47539 0.0
C509 C 0.03753 0.03047 0.48019 0.0
C510 C 0.97625 1.01087 0.50465 0.0
C511 C 0.99227 1.00202 0.53973 0.0
H512 H 0.98512 0.03093 0.44868 0.0
H513 H 0.94639 1.00639 0.4996 0.0
S514 S 0.09249 1.01425 0.56758 0.0
N515 N 0.09088 0.02809 0.52338 0.0
N516 N 0.04902 1.00136 0.57823 0.0
C517 C 0.03114 1.00789 0.54506 0.0
C518 C 0.05378 0.02225 0.51534 0.0
C519 C 0.53415 0.02457 0.47813 0.0
C520 C 0.496 0.03598 0.47757 0.0
C521 C 0.54858 1.00276 0.50755 0.0
C522 C 0.52534 0.99135 0.53737 0.0
H523 H 0.55296 0.03226 0.45547 0.0
H524 H 0.57805 0.99431 0.50668 0.0
S525 S 0.42403 0.01481 0.55023 0.0
N526 N 0.43557 0.03524 0.51025 0.0
N527 N 0.46279 0.99348 0.56523 0.0
C528 C 0.4872 1.00239 0.53723 0.0
C529 C 0.47249 0.02487 0.5074 0.0
C530 C 0.50369 0.51612 0.53784 0.0
C531 C 0.54224 0.524 0.53312 0.0
C532 C 0.48223 0.50158 0.50821 0.0
C533 C 0.49857 0.49474 0.47282 0.0
H534 H 0.4902 0.52082 0.56474 0.0
H535 H 0.45274 0.49516 0.51318 0.0
S536 S 0.5975 0.51419 0.44526 0.0
N537 N 0.5954 0.52628 0.49001 0.0
N538 N 0.55484 0.49899 0.43412 0.0
C539 C 0.53689 0.50322 0.46757 0.0
C540 C 0.55878 0.51792 0.49777 0.0
C541 C 1.00474 0.49812 0.54135 0.0
C542 C 1.00025 0.53733 0.53667 0.0
C543 C 0.01752 0.47523 0.51178 0.0
C544 C 0.02613 0.49082 0.47656 0.0
H545 H 0.99882 0.48516 0.56821 0.0
H546 H 0.0215 0.44531 0.51676 0.0
S547 S 0.01553 0.59116 0.4488 0.0
N548 N 1.00286 0.59025 0.49336 0.0
N549 N 0.02697 0.54726 0.43791 0.0
C550 C 0.02084 0.52978 0.47128 0.0
C551 C 1.0079 0.55304 0.5013 0.0
C552 C 0.55063 0.86011 0.10449 0.0
C553 C 0.55632 0.8904 0.1293 0.0
C554 C 0.53652 0.82568 0.11732 0.0
C555 C 0.52674 0.82068 0.15526 0.0
H556 H 0.55657 0.86331 0.07483 0.0
H557 H 0.53185 0.80333 0.09706 0.0
S558 S 0.53831 0.89076 0.23161 0.0
N559 N 0.55324 0.91285 0.19363 0.0
N560 N 0.52532 0.84819 0.2177 0.0
C561 C 0.53302 0.85049 0.18046 0.0
C562 C 0.54825 0.88536 0.16749 0.0
C563 C 0.66668 0.5026 0.14491 0.0
C564 C 0.69946 0.52492 0.14456 0.0
C565 C 0.63109 0.51821 0.13727 0.0
C566 C 0.62661 0.55678 0.12869 0.0
H567 H 0.66857 0.4724 0.14936 0.0
H568 H 0.60698 0.49945 0.13629 0.0
S569 S 0.70254 0.62868 0.12971 0.0
N570 N 0.72451 0.58867 0.13961 0.0
N571 N 0.65753 0.61775 0.1242 0.0
C572 C 0.65866 0.58003 0.13096 0.0
C573 C 0.69509 0.56413 0.139 0.0
C574 C 0.97533 0.69964 0.14147 0.0
C575 C 1.01185 0.70056 0.15743 0.0
C576 C 0.95867 0.66544 0.13081 0.0
C577 C 0.97796 0.6311 0.13579 0.0
H578 H 0.96023 0.72557 0.13528 0.0
H579 H 0.93158 0.66609 0.11657 0.0
S580 S 0.0713 0.61729 0.18105 0.0
N581 N 0.06472 0.66346 0.18137 0.0
N582 N 0.03323 0.59933 0.16114 0.0
C583 C 1.01315 0.63133 0.15397 0.0
C584 C 0.03012 0.66603 0.1649 0.0
C585 C 0.83371 0.97071 0.11261 0.0
C586 C 0.8287 0.99303 0.14504 0.0
C587 C 0.86937 0.95643 0.10286 0.0
C588 C 0.90107 0.96338 0.12551 0.0
H589 H 0.81032 0.96564 0.09362 0.0
H590 H 0.87245 0.94089 0.0768 0.0
S591 S 0.90278 0.01687 0.21482 0.0
N592 N 0.85824 0.01929 0.2009 0.0
N593 N 0.92527 0.99182 0.18259 0.0
C594 C 0.89632 0.9841 0.15874 0.0
C595 C 0.86009 0.99908 0.16851 0.0
C596 C 1.00392 0.16587 0.35801 0.0
C597 C 0.02393 0.20013 0.35999 0.0
C598 C 0.02019 0.13176 0.36982 0.0
C599 C 0.05731 0.13019 0.38398 0.0
H600 H 0.97479 0.16543 0.34862 0.0
H601 H 1.00307 0.10648 0.369 0.0
S602 S 0.12311 0.21096 0.39283 0.0
N603 N 0.08405 0.22975 0.37537 0.0
N604 N 0.11444 0.16545 0.39767 0.0
C605 C 0.07843 0.16374 0.38448 0.0
C606 C 0.06179 0.19871 0.37252 0.0
C607 C 0.3294 0.05421 0.39426 0.0
C608 C 0.32503 0.03782 0.35847 0.0
C609 C 0.36454 0.06748 0.40647 0.0
C610 C 0.39637 0.06571 0.38307 0.0
H611 H 0.30609 0.05482 0.41394 0.0
H612 H 0.36718 0.07792 0.43498 0.0
S613 S 0.39887 0.03075 0.28509 0.0
N614 N 0.35473 0.02393 0.29855 0.0
N615 N 0.42081 0.04996 0.32136 0.0
C616 C 0.39195 0.0519 0.34639 0.0
C617 C 0.35625 0.03764 0.33413 0.0
C618 C 0.46046 0.35729 0.39318 0.0
C619 C 0.47558 0.39178 0.38106 0.0
C620 C 0.47724 0.32282 0.38267 0.0
C621 C 0.50978 0.32184 0.35984 0.0
H622 H 0.43679 0.35706 0.41245 0.0
H623 H 0.46582 0.29699 0.39415 0.0
S624 S 0.55734 0.40475 0.31778 0.0
N625 N 0.52271 0.42306 0.34305 0.0
N626 N 0.55417 0.35855 0.32294 0.0
C627 C 0.52377 0.35624 0.34607 0.0
C628 C 0.50672 0.39116 0.35681 0.0
C629 C 0.13222 0.50884 0.37577 0.0
C630 C 0.12828 0.46998 0.38341 0.0
C631 C 0.16751 0.52479 0.36793 0.0
C632 C 0.20061 0.50269 0.36732 0.0
H633 H 0.10795 0.52753 0.37747 0.0
H634 H 0.16893 0.55505 0.36399 0.0
S635 S 0.20511 0.39848 0.37808 0.0
N636 N 0.16011 0.40902 0.38495 0.0
N637 N 0.22645 0.43895 0.36952 0.0
C638 C 0.19679 0.46334 0.37178 0.0
C639 C 0.16065 0.447 0.37982 0.0
C640 C 0.52205 0.16399 0.85744 0.0
C641 C 0.50394 0.19854 0.8655 0.0
C642 C 0.50591 0.12949 0.86769 0.0
C643 C 0.47083 0.12812 0.88602 0.0
H644 H 0.54968 0.16351 0.84437 0.0
H645 H 0.5216 0.10369 0.8624 0.0
S646 S 0.41093 0.20979 0.91286 0.0
N647 N 0.44801 0.22882 0.89222 0.0
N648 N 0.4179 0.16369 0.91123 0.0
C649 C 0.45157 0.16211 0.89296 0.0
C650 C 0.46804 0.19739 0.88273 0.0
C651 C 0.39651 0.49951 0.86249 0.0
C652 C 0.3989 0.46435 0.88062 0.0
C653 C 0.36162 0.51467 0.85122 0.0
C654 C 0.32747 0.49546 0.85781 0.0
H655 H 0.42178 0.51615 0.8583 0.0
H656 H 0.3614 0.54247 0.83861 0.0
S657 S 0.31867 0.40166 0.90362 0.0
N658 N 0.36454 0.4101 0.90382 0.0
N659 N 0.29876 0.43831 0.88271 0.0
C660 C 0.32966 0.45941 0.87459 0.0
C661 C 0.36539 0.44395 0.88597 0.0
C662 C 0.06248 0.32843 0.8791 0.0
C663 C 0.02442 0.32629 0.86744 0.0
C664 C 0.07891 0.36304 0.88902 0.0
C665 C 0.05792 0.39679 0.8876 0.0
H666 H 0.07928 0.30301 0.88238 0.0
H667 H 0.10751 0.36302 0.89994 0.0
S668 S 0.95917 0.4076 0.85381 0.0
N669 N 0.96756 0.36179 0.85135 0.0
N670 N 0.99865 0.42667 0.86954 0.0
C671 C 0.02078 0.39544 0.87348 0.0
C672 C 1.00399 0.36026 0.86349 0.0
C673 C 0.17132 1.00202 0.85361 0.0
C674 C 0.20531 0.02228 0.85668 0.0
C675 C 0.13708 0.0176 0.86568 0.0
C676 C 0.13544 0.05409 0.88108 0.0
H677 H 0.17127 0.97318 0.84345 0.0
H678 H 0.11185 1.00039 0.86432 0.0
S679 S 0.21538 0.12035 0.89275 0.0
N680 N 0.23456 0.08214 0.874 0.0
N681 N 0.16989 0.11109 0.89698 0.0
C682 C 0.16862 0.0756 0.88244 0.0
C683 C 0.20366 0.05976 0.87016 0.0
C684 C 0.97283 0.83086 0.62425 0.0
C685 C 1.002 0.82939 0.65128 0.0
C686 C 0.95584 0.86534 0.61405 0.0
C687 C 0.96705 0.89943 0.63087 0.0
H688 H 0.96445 0.80554 0.60936 0.0
H689 H 0.93514 0.86559 0.59159 0.0
S690 S 0.03894 0.91079 0.70561 0.0
N691 N 0.03903 0.86502 0.69658 0.0
N692 N 1.007 0.92955 0.67729 0.0
C693 C 0.99467 0.89818 0.65911 0.0
C694 C 1.01212 0.86322 0.66939 0.0
C695 C 0.67017 0.99449 0.67363 0.0
C696 C 0.7009 0.99804 0.64879 0.0
C697 C 0.63592 0.97788 0.662 0.0
C698 C 0.63105 0.96499 0.62494 0.0
H699 H 0.67243 1.00518 0.70205 0.0
H700 H 0.61257 0.97664 0.68159 0.0
S701 S 0.70195 0.96917 0.54856 0.0
N702 N 0.72383 0.98744 0.5853 0.0
N703 N 0.65943 0.95735 0.56343 0.0
C704 C 0.66162 0.9681 0.60002 0.0
C705 C 0.69655 0.9843 0.61194 0.0
C706 C 0.53777 0.66954 0.67158 0.0
C707 C 0.53269 0.69932 0.64593 0.0
C708 C 0.55365 0.63485 0.66013 0.0
C709 C 0.56405 0.62869 0.62252 0.0
H710 H 0.52902 0.67295 0.70051 0.0
H711 H 0.55637 0.61224 0.6804 0.0
S712 S 0.55547 0.69707 0.54428 0.0
N713 N 0.53924 0.72013 0.58124 0.0
N714 N 0.56826 0.65503 0.55981 0.0
C715 C 0.55947 0.65838 0.59681 0.0
C716 C 0.54397 0.69368 0.60849 0.0
C717 C 0.83306 0.54993 0.61733 0.0
C718 C 0.82953 0.53247 0.65264 0.0
C719 C 0.86751 0.5655 0.6057 0.0
C720 C 0.89946 0.56498 0.62923 0.0
H721 H 0.80964 0.54984 0.59769 0.0
H722 H 0.86961 0.57682 0.57755 0.0
S723 S 0.90423 0.526 0.72547 0.0
N724 N 0.86037 0.51769 0.7118 0.0
N725 N 0.92494 0.54777 0.69009 0.0
C726 C 0.89587 0.54939 0.66521 0.0
C727 C 0.86094 0.53292 0.67686 0.0
C728 C 0.64396 0.26673 0.99525 0.0
C729 C 0.61127 0.26188 0.97309 0.0
C730 C 0.65502 0.23965 0.02198 0.0
C731 C 0.63353 0.20687 0.02819 0.0
H732 H 0.66145 0.29151 0.99176 0.0
H733 H 0.68018 0.24494 0.03852 0.0
S734 S 0.54617 0.17985 0.97695 0.0
N735 N 0.55812 0.22084 0.9586 0.0
N736 N 0.5785 0.17061 0.0092 0.0
C737 C 0.60093 0.20152 1.00612 0.0
C738 C 0.58994 0.22879 0.97852 0.0
C739 C 0.2956 0.62572 0.9514 0.0
C740 C 0.26592 0.60227 0.96266 0.0
C741 C 0.3239 0.63647 0.97678 0.0
C742 C 0.32386 0.62376 0.01429 0.0
H743 H 0.29686 0.636 0.92281 0.0
H744 H 0.34582 0.65523 0.96687 0.0
S745 S 0.25294 0.55966 0.05649 0.0
N746 N 0.23824 0.56554 0.01284 0.0
N747 N 0.29172 0.58519 0.06077 0.0
C748 C 0.29425 0.59994 0.0257 0.0
C749 C 0.26524 0.58928 0.99979 0.0
C750 C 0.88698 0.28883 0.94906 0.0
C751 C 0.91307 0.26146 0.96124 0.0
C752 C 0.86955 0.31382 0.97441 0.0
C753 C 0.87797 0.31285 0.01305 0.0
H754 H 0.881 0.29174 0.91946 0.0
H755 H 0.84977 0.33447 0.96349 0.0
S756 S 0.94507 0.24635 0.05914 0.0
N757 N 0.94689 0.23479 0.01425 0.0
N758 N 0.91465 0.28174 0.06213 0.0
C759 C 0.9045 0.28572 0.02554 0.0
C760 C 0.92201 0.26015 0.99961 0.0
C761 C 0.22661 0.93472 0.96352 0.0
C762 C 0.26493 0.92973 0.97325 0.0
C763 C 0.19757 0.92509 0.98828 0.0
C764 C 0.20549 0.91042 0.02405 0.0
H765 H 0.21869 0.94521 0.93605 0.0
H766 H 0.16861 0.92864 0.97893 0.0
S767 S 0.30127 0.89331 0.06408 0.0
N768 N 0.30936 0.91019 0.02171 0.0
N769 N 0.25482 0.89231 0.06853 0.0
C770 C 0.24377 0.90626 0.0347 0.0
C771 C 0.27344 0.91579 0.00923 0.0
C772 C 0.14347 0.78826 0.54929 0.0
C773 C 0.11092 0.76671 0.54308 0.0
C774 C 0.15248 0.81837 0.52565 0.0
C775 C 0.1296 0.82757 0.49458 0.0
H776 H 0.16169 0.78227 0.57306 0.0
H777 H 0.17777 0.83446 0.53167 0.0
S778 S 0.04214 0.77812 0.46548 0.0
N779 N 0.05603 0.75558 0.50372 0.0
N780 N 0.07374 0.81156 0.45808 0.0
C781 C 0.09758 0.80532 0.48735 0.0
C782 C 0.08797 0.77505 0.51203 0.0
C783 C 0.77102 0.11385 0.50963 0.0
C784 C 0.76242 0.10954 0.54784 0.0
C785 C 0.74307 0.12473 0.48376 0.0
C786 C 0.7057 0.1324 0.49532 0.0
H787 H 0.79946 0.10852 0.4996 0.0
H788 H 0.75111 0.12792 0.45462 0.0
S789 S 0.66954 0.12726 0.59301 0.0
N790 N 0.7144 0.11477 0.59633 0.0
N791 N 0.66211 0.13577 0.54806 0.0
C792 C 0.69698 0.12856 0.53365 0.0
C793 C 0.72527 0.11699 0.55981 0.0
C794 C 0.38331 0.74011 0.48708 0.0
C795 C 0.38951 0.70132 0.49377 0.0
C796 C 0.39603 0.76783 0.51225 0.0
C797 C 0.41553 0.75802 0.54528 0.0
H798 H 0.36888 0.74932 0.46184 0.0
H799 H 0.39068 0.7972 0.50558 0.0
S800 S 0.43664 0.66034 0.57753 0.0
N801 N 0.41501 0.65455 0.53682 0.0
N802 N 0.4387 0.70639 0.58429 0.0
C803 C 0.42147 0.71928 0.55265 0.0
C804 C 0.40856 0.69104 0.52689 0.0
C805 C 0.80759 0.43158 0.5508 0.0
C806 C 0.76927 0.42504 0.54209 0.0
C807 C 0.83651 0.42287 0.52535 0.0
C808 C 0.82849 0.40784 0.48971 0.0
H809 H 0.81566 0.44267 0.57801 0.0
H810 H 0.86551 0.42758 0.53394 0.0
S811 S 0.73283 0.3862 0.45218 0.0
N812 N 0.72485 0.40311 0.49467 0.0
N813 N 0.77917 0.38724 0.44659 0.0
C814 C 0.79024 0.40202 0.48006 0.0
C815 C 0.76069 0.41044 0.50629 0.0
C816 C 0.43486 0.82788 0.0216 0.0
C817 C 0.40388 0.82633 0.99706 0.0
C818 C 0.44289 0.7979 0.04605 0.0
C819 C 0.41988 0.76549 0.04728 0.0
H820 H 0.4531 0.85238 0.02181 0.0
H821 H 0.46719 0.80039 0.06439 0.0
S822 S 0.33292 0.74964 0.99093 0.0
N823 N 0.34894 0.79082 0.97638 0.0
N824 N 0.36324 0.73502 0.02311 0.0
C825 C 0.38844 0.76389 0.02307 0.0
C826 C 0.38061 0.7942 0.99779 0.0
C827 C 0.7343 0.41991 0.98117 0.0
C828 C 0.69928 0.40589 0.99383 0.0
C829 C 0.76372 0.42841 1.00655 0.0
C830 C 0.75951 0.42214 0.0453 0.0
H831 H 0.73897 0.42457 0.9515 0.0
H832 H 0.79007 0.43946 0.99577 0.0
S833 S 0.6741 0.38529 0.09289 0.0
N834 N 0.66268 0.38595 0.04801 0.0
N835 N 0.71776 0.40126 0.0951 0.0
C836 C 0.72491 0.40781 0.0582 0.0
C837 C 0.69489 0.39984 0.03264 0.0
C838 C 0.15949 0.72318 0.01841 0.0
C839 C 0.13578 0.70717 0.99072 0.0
C840 C 0.1471 0.75231 0.04173 0.0
C841 C 0.11028 0.76644 0.03894 0.0
H842 H 0.18829 0.71341 0.02223 0.0
H843 H 0.16635 0.76332 0.06273 0.0
S844 S 0.03683 0.7364 0.97112 0.0
N845 N 0.07369 0.70929 0.96112 0.0
N846 N 0.04996 0.76364 1.00652 0.0
C847 C 0.08601 0.75133 0.01158 0.0
C848 C 0.0989 0.72185 0.98702 0.0
C849 C 0.79215 0.14396 0.0649 0.0
C850 C 0.76946 0.11303 0.05468 0.0
C851 C 0.81669 0.16074 0.03913 0.0
C852 C 0.81965 0.14719 1.00217 0.0
H853 H 0.79128 0.15525 0.09315 0.0
H854 H 0.83346 0.1846 0.04825 0.0
S855 S 0.76472 0.06836 0.96052 0.0
N856 N 0.75043 0.0704 1.00458 0.0
N857 N 0.79672 0.10185 0.95609 0.0
C858 C 0.7971 0.1163 0.99146 0.0
C859 C 0.77192 0.09929 0.01771 0.0
C860 C 0.91853 0.19527 0.48135 0.0
C861 C 0.90656 0.20339 0.51809 0.0
C862 C 0.92823 0.22409 0.45633 0.0
C863 C 0.92555 0.26244 0.46662 0.0
H864 H 0.91985 0.16631 0.47156 0.0
H865 H 0.93668 0.21609 0.42819 0.0
S866 S 0.89722 0.29905 0.56017 0.0
N867 N 0.8942 0.2527 0.56424 0.0
N868 N 0.9114 0.30697 0.51677 0.0
C869 C 0.91436 0.27106 0.50356 0.0
C870 C 0.90521 0.24154 0.5294 0.0
C871 C 0.26242 0.90049 0.49867 0.0
C872 C 0.26877 0.92828 0.47114 0.0
C873 C 0.29029 0.89123 0.52519 0.0
C874 C 0.32578 0.90905 0.52501 0.0
H875 H 0.23609 0.88504 0.49935 0.0
H876 H 0.28439 0.869 0.54516 0.0
S877 S 0.35573 0.98595 0.46167 0.0
N878 N 0.31256 0.9755 0.44753 0.0
N879 N 0.36497 0.95723 0.49692 0.0
C880 C 0.33219 0.93749 0.49851 0.0
C881 C 0.3037 0.94733 0.47174 0.0
C882 C 0.6269 0.33712 0.47807 0.0
C883 C 0.62095 0.33286 0.51692 0.0
C884 C 0.6204 0.30731 0.45303 0.0
C885 C 0.6075 0.27226 0.46582 0.0
H886 H 0.63807 0.3632 0.46689 0.0
H887 H 0.62646 0.3114 0.42351 0.0
S888 S 0.58442 0.24671 0.56372 0.0
N889 N 0.59907 0.29088 0.56646 0.0
N890 N 0.58693 0.23497 0.51888 0.0
C891 C 0.60007 0.2677 0.50412 0.0
C892 C 0.60674 0.29803 0.52981 0.0
C893 C 0.2354 0.61257 0.53169 0.0
C894 C 0.19766 0.61976 0.52072 0.0
C895 C 0.26357 0.60466 0.50501 0.0
C896 C 0.25504 0.60443 0.46654 0.0
H897 H 0.24344 0.61365 0.56102 0.0
H898 H 0.29236 0.5999 0.51442 0.0
S899 S 0.16122 0.62008 0.42283 0.0
N900 N 0.1536 0.62468 0.46829 0.0
N901 N 0.20671 0.61061 0.41858 0.0
C902 C 0.21762 0.61091 0.45519 0.0
C903 C 0.18887 0.61834 0.48218 0.0
C904 C 0.61477 0.15802 0.25127 0.0
C905 C 0.62456 0.14217 0.28619 0.0
C906 C 0.62805 0.1425 0.21742 0.0
C907 C 0.65182 0.11043 0.2169 0.0
H908 H 0.5966 0.18268 0.24992 0.0
H909 H 0.61946 0.15586 0.19144 0.0
S910 S 0.68633 0.0583 0.30079 0.0
N911 N 0.65991 0.09261 0.31813 0.0
N912 N 0.68478 0.06356 0.25481 0.0
C913 C 0.66202 0.09442 0.25169 0.0
C914 C 0.64846 0.11022 0.28618 0.0
C915 C 0.40657 0.64028 0.29493 0.0
C916 C 0.37868 0.61203 0.29596 0.0
C917 C 0.42052 0.65418 0.26082 0.0
C918 C 0.40726 0.64053 0.22605 0.0
H919 H 0.41795 0.65182 0.32074 0.0
H920 H 0.44197 0.67588 0.26188 0.0
S921 S 0.33271 0.56812 0.21281 0.0
N922 N 0.33727 0.57184 0.25877 0.0
N923 N 0.36335 0.59805 0.19485 0.0
C924 C 0.379 0.61263 0.22656 0.0
C925 C 0.36478 0.5984 0.26138 0.0
C926 C 0.8881 0.41762 0.28136 0.0
C927 C 0.91394 0.38717 0.28184 0.0
C928 C 0.87282 0.43157 0.24755 0.0
C929 C 0.88265 0.4158 0.21251 0.0
H930 H 0.87925 0.43079 0.30738 0.0
H931 H 0.85311 0.455 0.24902 0.0
S932 S 0.94871 0.33513 0.19784 0.0
N933 N 0.94824 0.34136 0.24374 0.0
N934 N 0.91998 0.3676 0.18063 0.0
C935 C 0.90845 0.38529 0.21254 0.0
C936 C 0.92392 0.37101 0.24698 0.0
C937 C 0.14885 0.93653 0.25791 0.0
C938 C 0.1421 0.91941 0.29281 0.0
C939 C 0.13511 0.9207 0.22453 0.0
C940 C 0.11435 0.88687 0.22464 0.0
H941 H 0.16487 0.96246 0.25627 0.0
H942 H 0.14117 0.93505 0.19843 0.0
S943 S 0.0912 0.82939 0.30867 0.0
N944 N 0.11441 0.86604 0.32548 0.0
N945 N 0.08906 0.83591 0.26287 0.0
C946 C 0.10773 0.8692 0.25942 0.0
C947 C 0.12147 0.88555 0.29345 0.0
C948 C 0.41279 0.92089 0.72755 0.0
C949 C 0.41766 0.88174 0.72272 0.0
C950 C 0.39931 0.93576 0.7616 0.0
C951 C 0.39056 0.91191 0.79181 0.0
H952 H 0.41978 0.94014 0.70504 0.0
H953 H 0.39599 0.96606 0.76442 0.0
S954 S 0.39166 0.80728 0.7908 0.0
N955 N 0.40816 0.81935 0.74921 0.0
N956 N 0.38338 0.84733 0.81317 0.0
C957 C 0.39405 0.87274 0.7868 0.0
C958 C 0.40749 0.85762 0.75221 0.0
C959 C 0.63053 0.41986 0.79099 0.0
C960 C 0.60984 0.3859 0.79112 0.0
C961 C 0.64747 0.43356 0.758 0.0
C962 C 0.64412 0.41405 0.7237 0.0
H963 H 0.63381 0.43606 0.81659 0.0
H964 H 0.66294 0.45985 0.75934 0.0
S965 S 0.59639 0.32199 0.70923 0.0
N966 N 0.58943 0.33184 0.75397 0.0
N967 N 0.62074 0.35777 0.6924 0.0
C968 C 0.62417 0.37977 0.72353 0.0
C969 C 0.60719 0.36567 0.75706 0.0
C970 C 0.12907 0.64541 0.7891 0.0
C971 C 0.14424 0.6086 0.78978 0.0
C972 C 0.11341 0.66069 0.75626 0.0
C973 C 0.11284 0.63998 0.72254 0.0
H974 H 0.12974 0.66282 0.81415 0.0
H975 H 0.10271 0.68938 0.75713 0.0
S976 S 0.14887 0.54217 0.70924 0.0
N977 N 0.15727 0.55158 0.75387 0.0
N978 N 0.12835 0.58034 0.69202 0.0
C979 C 0.12754 0.60292 0.7229 0.0
C980 C 0.14304 0.58718 0.75654 0.0
C981 C 0.92503 0.11287 0.78173 0.0
C982 C 0.91402 0.14885 0.79462 0.0
C983 C 0.91046 0.098 0.74804 0.0
C984 C 0.88417 0.11855 0.72655 0.0
H985 H 0.94479 0.09605 0.79795 0.0
H986 H 0.91966 0.07029 0.73882 0.0
S987 S 0.84482 0.213 0.74922 0.0
N988 N 0.87466 0.20409 0.78388 0.0
N989 N 0.84691 0.17598 0.72098 0.0
C990 C 0.8728 0.15436 0.7393 0.0
C991 C 0.8878 0.16957 0.77333 0.0
C992 C 0.80002 0.26696 0.19017 0.0
C993 C 0.78234 0.30126 0.18123 0.0
C994 C 0.77866 0.23391 0.19281 0.0
C995 C 0.73929 0.23464 0.18675 0.0
H996 H 0.83059 0.26477 0.19055 0.0
H997 H 0.79353 0.20722 0.19533 0.0
S998 S 0.6794 0.31953 0.1734 0.0
N999 N 0.72311 0.33567 0.17455 0.0
N1000 N 0.68292 0.27351 0.17987 0.0
C1001 C 0.72096 0.26967 0.18394 0.0
C1002 C 0.74266 0.30317 0.18097 0.0
C1003 C 0.28128 0.75602 0.11489 0.0
C1004 C 0.29649 0.74154 0.1483 0.0
C1005 C 0.24717 0.77608 0.11502 0.0
C1006 C 0.22734 0.78239 0.14856 0.0
H1007 H 0.29555 0.75127 0.08838 0.0
H1008 H 0.23641 0.78714 0.08871 0.0
S1009 S 0.25658 0.75221 0.24354 0.0
N1010 N 0.29002 0.73531 0.21577 0.0
N1011 N 0.22604 0.77446 0.21616 0.0
C1012 C 0.24252 0.76867 0.18225 0.0
C1013 C 0.27713 0.74772 0.18206 0.0
C1014 C 0.30117 0.77734 0.34513 0.0
C1015 C 0.28415 0.74181 0.34021 0.0
C1016 C 0.27916 0.81022 0.34891 0.0
C1017 C 0.23947 0.80853 0.34781 0.0
H1018 H 0.33149 0.77946 0.34886 0.0
H1019 H 0.29321 0.83658 0.35529 0.0
S1020 S 0.18158 0.72345 0.32862 0.0
N1021 N 0.22556 0.70773 0.32944 0.0
N1022 N 0.18434 0.76937 0.336 0.0
C1023 C 0.22238 0.77375 0.3393 0.0
C1024 C 0.2447 0.74036 0.33567 0.0
C1025 C 0.76888 0.29813 0.37451 0.0
C1026 C 0.8027 0.2891 0.35585 0.0
C1027 C 0.73701 0.27554 0.37094 0.0
C1028 C 0.73765 0.24295 0.34858 0.0
H1029 H 0.76731 0.32213 0.39335 0.0
H1030 H 0.71228 0.28267 0.38749 0.0
S1031 S 0.81729 0.20966 0.28961 0.0
N1032 N 0.83397 0.24753 0.31114 0.0
N1033 N 0.77348 0.2042 0.30479 0.0
C1034 C 0.77068 0.23417 0.32847 0.0
C1035 C 0.80341 0.2575 0.332 0.0
C1036 C 0.29716 0.77299 0.85979 0.0
C1037 C 0.28117 0.80872 0.86703 0.0
C1038 C 0.2762 0.74006 0.86452 0.0
C1039 C 0.23834 0.74187 0.87576 0.0
H1040 H 0.32681 0.77025 0.85262 0.0
H1041 H 0.28999 0.71301 0.86027 0.0
S1042 S 0.18198 0.82836 0.89436 0.0
N1043 N 0.22447 0.84409 0.88346 0.0
N1044 N 0.18443 0.78189 0.89093 0.0
C1045 C 0.22102 0.77739 0.8802 0.0
C1046 C 0.24262 0.81102 0.87605 0.0
C1047 C 0.75338 0.23261 0.84326 0.0
C1048 C 0.78682 0.24774 0.85823 0.0
C1049 C 0.72067 0.25515 0.84023 0.0
C1050 C 0.72126 0.29335 0.85115 0.0
H1051 H 0.75169 0.20281 0.8366 0.0
H1052 H 0.69447 0.24228 0.83114 0.0
S1053 S 0.80336 0.34643 0.88897 0.0
N1054 N 0.81945 0.3034 0.88124 0.0
N1055 N 0.75885 0.34555 0.87533 0.0
C1056 C 0.75551 0.30917 0.8634 0.0
C1057 C 0.78818 0.28632 0.86696 0.0
C1058 C 0.74507 0.27627 0.67431 0.0
C1059 C 0.74602 0.30141 0.64379 0.0
C1060 C 0.76588 0.24227 0.67346 0.0
C1061 C 0.78742 0.23255 0.64176 0.0
H1062 H 0.7283 0.283 0.69887 0.0
H1063 H 0.76546 0.22383 0.69767 0.0
S1064 S 0.79403 0.28594 0.55267 0.0
N1065 N 0.76723 0.31256 0.57999 0.0
N1066 N 0.80555 0.24868 0.57811 0.0
C1067 C 0.78736 0.25687 0.61074 0.0
C1068 C 0.76677 0.29137 0.61179 0.0
C1069 C 0.25557 0.74206 0.62343 0.0
C1070 C 0.23311 0.74022 0.65582 0.0
C1071 C 0.29018 0.76092 0.62365 0.0
C1072 C 0.30344 0.77886 0.65624 0.0
H1073 H 0.24623 0.72879 0.5976 0.0
H1074 H 0.30616 0.76243 0.59776 0.0
S1075 S 0.25637 0.78046 0.74904 0.0
N1076 N 0.22724 0.75613 0.72193 0.0
N1077 N 0.29218 0.793 0.72204 0.0
C1078 C 0.28144 0.77717 0.68897 0.0
C1079 C 0.24624 0.75738 0.68888 0.0
loop_
_geom_bond_atom_site_label_1
_geom_bond_atom_site_label_2
_geom_bond_distance
_geom_bond_site_symmetry_2
_ccdc_geom_bond_type
O0 Tb1 2.292 . S
O0 C3 1.255 . S
Tb1 O0 2.292 . S
Tb1 O17 2.326 . S
Tb1 O19 2.500 . S
Tb1 O20 2.473 . S
Tb1 O23 2.324 . S
Eu2 O6 2.292 . S
Eu2 C7 2.852 . S
Eu2 O18 2.324 . S
Eu2 O22 2.326 . S
Eu2 O24 2.500 1_545 S
Eu2 O25 2.473 . S
C3 O0 1.255 . S
C3 O4 1.247 . S
O4 C3 1.247 . S
C5 O17 1.242 . S
C5 O18 1.258 . S
O6 Eu2 2.292 . S
O6 C8 1.255 . S
C7 Eu2 2.852 . S
C7 C11 1.503 1_545 S
C7 O24 1.273 1_545 S
C7 O25 1.257 . S
C8 O6 1.255 . S
C8 O9 1.247 . S
O9 C8 1.247 . S
C10 O22 1.242 . S
C10 O23 1.258 . S
C11 C7 1.503 1_565 S
C11 C12 1.379 1_565 S
C11 C16 1.392 . S
C12 C11 1.379 1_545 S
C12 C13 1.404 1_545 S
C12 H26 0.929 . S
C13 C12 1.404 1_565 S
C13 C14 1.389 . S
C14 C13 1.389 . S
C14 C15 1.399 . S
C14 H27 0.931 . S
C15 C14 1.399 . S
C15 C16 1.390 . S
C16 C11 1.392 . S
C16 C15 1.390 . S
C16 H28 0.929 . S
O17 Tb1 2.326 . S
O17 C5 1.242 . S
O18 Eu2 2.324 . S
O18 C5 1.258 . S
O19 Tb1 2.500 . S
O19 C21 1.273 . S
O20 Tb1 2.473 . S
O20 C21 1.257 . S
C21 O19 1.273 . S
C21 O20 1.257 . S
O22 Eu2 2.326 . S
O22 C10 1.242 . S
O23 Tb1 2.324 . S
O23 C10 1.258 . S
O24 Eu2 2.500 1_565 S
O24 C7 1.273 1_565 S
O25 Eu2 2.473 . S
O25 C7 1.257 . S
H26 C12 0.929 . S
H27 C14 0.931 . S
H28 C16 0.929 . S
O29 Tb30 2.292 . S
O29 C32 1.255 . S
Tb30 O29 2.292 . S
Tb30 O46 2.326 . S
Tb30 O48 2.500 . S
Tb30 O49 2.473 . S
Tb30 O52 2.324 . S
Eu31 O35 2.292 . S
Eu31 C36 2.852 . S
Eu31 O47 2.324 . S
Eu31 O51 2.326 . S
Eu31 O53 2.500 . S
Eu31 O54 2.473 . S
C32 O29 1.255 . S
C32 O33 1.247 . S
O33 C32 1.247 . S
C34 O46 1.242 . S
C34 O47 1.258 . S
O35 Eu31 2.292 . S
O35 C37 1.255 . S
C36 Eu31 2.852 . S
C36 C40 1.503 . S
C36 O53 1.273 . S
C36 O54 1.257 . S
C37 O35 1.255 . S
C37 O38 1.247 . S
O38 C37 1.247 . S
C39 O51 1.242 . S
C39 O52 1.258 . S
C40 C36 1.503 . S
C40 C41 1.379 . S
C40 C45 1.392 . S
C41 C40 1.379 . S
C41 C42 1.404 . S
C41 H55 0.929 . S
C42 C41 1.404 . S
C42 C43 1.389 . S
C43 C42 1.389 . S
C43 C44 1.399 . S
C43 H56 0.931 . S
C44 C43 1.399 . S
C44 C45 1.390 . S
C45 C40 1.392 . S
C45 C44 1.390 . S
C45 H57 0.929 . S
O46 Tb30 2.326 . S
O46 C34 1.242 . S
O47 Eu31 2.324 . S
O47 C34 1.258 . S
O48 Tb30 2.500 . S
O48 C50 1.273 . S
O49 Tb30 2.473 . S
O49 C50 1.257 . S
C50 O48 1.273 . S
C50 O49 1.257 . S
O51 Eu31 2.326 . S
O51 C39 1.242 . S
O52 Tb30 2.324 . S
O52 C39 1.258 . S
O53 Eu31 2.500 . S
O53 C36 1.273 . S
O54 Eu31 2.473 . S
O54 C36 1.257 . S
H55 C41 0.929 . S
H56 C43 0.931 . S
H57 C45 0.929 . S
O58 Tb59 2.292 . S
O58 C61 1.255 . S
Tb59 O58 2.292 . S
Tb59 O75 2.326 . S
Tb59 O77 2.500 . S
Tb59 O78 2.473 . S
Tb59 O81 2.324 . S
Eu60 O64 2.292 . S
Eu60 C65 2.852 . S
Eu60 O76 2.324 . S
Eu60 O80 2.326 . S
Eu60 O82 2.500 . S
Eu60 O83 2.473 . S
C61 O58 1.255 . S
C61 O62 1.247 . S
O62 C61 1.247 . S
C63 O75 1.242 . S
C63 O76 1.258 . S
O64 Eu60 2.292 . S
O64 C66 1.255 . S
C65 Eu60 2.852 . S
C65 C69 1.503 . S
C65 O82 1.273 . S
C65 O83 1.257 . S
C66 O64 1.255 . S
C66 O67 1.247 . S
O67 C66 1.247 . S
C68 O80 1.242 . S
C68 O81 1.258 . S
C69 C65 1.503 . S
C69 C70 1.379 . S
C69 C74 1.392 . S
C70 C69 1.379 . S
C70 C71 1.404 . S
C70 H84 0.929 . S
C71 C70 1.404 . S
C71 C72 1.389 . S
C72 C71 1.389 . S
C72 C73 1.399 . S
C72 H85 0.931 . S
C73 C72 1.399 . S
C73 C74 1.390 . S
C74 C69 1.392 . S
C74 C73 1.390 . S
C74 H86 0.929 . S
O75 Tb59 2.326 . S
O75 C63 1.242 . S
O76 Eu60 2.324 . S
O76 C63 1.258 . S
O77 Tb59 2.500 . S
O77 C79 1.273 . S
O78 Tb59 2.473 . S
O78 C79 1.257 . S
C79 O77 1.273 . S
C79 O78 1.257 . S
O80 Eu60 2.326 . S
O80 C68 1.242 . S
O81 Tb59 2.324 . S
O81 C68 1.258 . S
O82 Eu60 2.500 . S
O82 C65 1.273 . S
O83 Eu60 2.473 . S
O83 C65 1.257 . S
H84 C70 0.929 . S
H85 C72 0.931 . S
H86 C74 0.929 . S
O87 Tb88 2.292 . S
O87 C90 1.255 . S
Tb88 O87 2.292 . S
Tb88 O104 2.326 . S
Tb88 O106 2.500 . S
Tb88 O107 2.473 . S
Tb88 O110 2.324 . S
Eu89 O93 2.292 . S
Eu89 C94 2.852 . S
Eu89 O105 2.324 . S
Eu89 O109 2.326 . S
Eu89 O111 2.500 1_455 S
Eu89 O112 2.473 . S
C90 O87 1.255 . S
C90 O91 1.247 . S
O91 C90 1.247 . S
C92 O104 1.242 . S
C92 O105 1.258 . S
O93 Eu89 2.292 . S
O93 C95 1.255 . S
C94 Eu89 2.852 . S
C94 C98 1.503 1_455 S
C94 O111 1.273 1_455 S
C94 O112 1.257 . S
C95 O93 1.255 . S
C95 O96 1.247 . S
O96 C95 1.247 . S
C97 O109 1.242 . S
C97 O110 1.258 . S
C98 C94 1.503 1_655 S
C98 C99 1.379 1_655 S
C98 C103 1.392 . S
C99 C98 1.379 1_455 S
C99 C100 1.404 1_455 S
C99 H113 0.929 . S
C100 C99 1.404 1_655 S
C100 C101 1.389 . S
C101 C100 1.389 . S
C101 C102 1.399 . S
C101 H114 0.931 . S
C102 C101 1.399 . S
C102 C103 1.390 . S
C103 C98 1.392 . S
C103 C102 1.390 . S
C103 H115 0.929 . S
O104 Tb88 2.326 . S
O104 C92 1.242 . S
O105 Eu89 2.324 . S
O105 C92 1.258 . S
O106 Tb88 2.500 . S
O106 C108 1.273 . S
O107 Tb88 2.473 . S
O107 C108 1.257 . S
C108 O106 1.273 . S
C108 O107 1.257 . S
O109 Eu89 2.326 . S
O109 C97 1.242 . S
O110 Tb88 2.324 . S
O110 C97 1.258 . S
O111 Eu89 2.500 1_655 S
O111 C94 1.273 1_655 S
O112 Eu89 2.473 . S
O112 C94 1.257 . S
H113 C99 0.929 . S
H114 C101 0.931 . S
H115 C103 0.929 . S
O116 Tb117 2.292 . S
O116 C119 1.255 . S
Tb117 O116 2.292 . S
Tb117 O133 2.326 . S
Tb117 O135 2.500 . S
Tb117 O136 2.473 . S
Tb117 O139 2.324 . S
Eu118 O122 2.292 . S
Eu118 C123 2.852 . S
Eu118 O134 2.324 . S
Eu118 O138 2.326 . S
Eu118 O140 2.500 1_565 S
Eu118 O141 2.473 . S
C119 O116 1.255 . S
C119 O120 1.247 . S
O120 C119 1.247 . S
C121 O133 1.242 . S
C121 O134 1.258 . S
O122 Eu118 2.292 . S
O122 C124 1.255 . S
C123 Eu118 2.852 . S
C123 C127 1.503 1_565 S
C123 O140 1.273 1_565 S
C123 O141 1.257 . S
C124 O122 1.255 . S
C124 O125 1.247 . S
O125 C124 1.247 . S
C126 O138 1.242 . S
C126 O139 1.258 . S
C127 C123 1.503 1_545 S
C127 C128 1.379 1_545 S
C127 C132 1.392 . S
C128 C127 1.379 1_565 S
C128 C129 1.404 1_565 S
C128 H142 0.929 . S
C129 C128 1.404 1_545 S
C129 C130 1.389 . S
C130 C129 1.389 . S
C130 C131 1.399 . S
C130 H143 0.931 . S
C131 C130 1.399 . S
C131 C132 1.390 . S
C132 C127 1.392 . S
C132 C131 1.390 . S
C132 H144 0.929 . S
O133 Tb117 2.326 . S
O133 C121 1.242 . S
O134 Eu118 2.324 . S
O134 C121 1.258 . S
O135 Tb117 2.500 . S
O135 C137 1.273 . S
O136 Tb117 2.473 . S
O136 C137 1.257 . S
C137 O135 1.273 . S
C137 O136 1.257 . S
O138 Eu118 2.326 . S
O138 C126 1.242 . S
O139 Tb117 2.324 . S
O139 C126 1.258 . S
O140 Eu118 2.500 1_545 S
O140 C123 1.273 1_545 S
O141 Eu118 2.473 . S
O141 C123 1.257 . S
H142 C128 0.929 . S
H143 C130 0.931 . S
H144 C132 0.929 . S
O145 Tb146 2.292 . S
O145 C148 1.255 . S
Tb146 O145 2.292 . S
Tb146 O162 2.326 . S
Tb146 O164 2.500 . S
Tb146 O165 2.473 . S
Tb146 O168 2.324 . S
Eu147 O151 2.292 . S
Eu147 C152 2.852 . S
Eu147 O163 2.324 . S
Eu147 O167 2.326 . S
Eu147 O169 2.500 . S
Eu147 O170 2.473 . S
C148 O145 1.255 . S
C148 O149 1.247 . S
O149 C148 1.247 . S
C150 O162 1.242 . S
C150 O163 1.258 . S
O151 Eu147 2.292 . S
O151 C153 1.255 . S
C152 Eu147 2.852 . S
C152 C156 1.503 . S
C152 O169 1.273 . S
C152 O170 1.257 . S
C153 O151 1.255 . S
C153 O154 1.247 . S
O154 C153 1.247 . S
C155 O167 1.242 . S
C155 O168 1.258 . S
C156 C152 1.503 . S
C156 C157 1.379 . S
C156 C161 1.392 . S
C157 C156 1.379 . S
C157 C158 1.404 . S
C157 H171 0.929 . S
C158 C157 1.404 . S
C158 C159 1.389 . S
C159 C158 1.389 . S
C159 C160 1.399 . S
C159 H172 0.931 . S
C160 C159 1.399 . S
C160 C161 1.390 . S
C161 C156 1.392 . S
C161 C160 1.390 . S
C161 H173 0.929 . S
O162 Tb146 2.326 . S
O162 C150 1.242 . S
O163 Eu147 2.324 . S
O163 C150 1.258 . S
O164 Tb146 2.500 . S
O164 C166 1.273 . S
O165 Tb146 2.473 . S
O165 C166 1.257 . S
C166 O164 1.273 . S
C166 O165 1.257 . S
O167 Eu147 2.326 . S
O167 C155 1.242 . S
O168 Tb146 2.324 . S
O168 C155 1.258 . S
O169 Eu147 2.500 . S
O169 C152 1.273 . S
O170 Eu147 2.473 . S
O170 C152 1.257 . S
H171 C157 0.929 . S
H172 C159 0.931 . S
H173 C161 0.929 . S
O174 Tb175 2.292 . S
O174 C177 1.255 . S
Tb175 O174 2.292 . S
Tb175 O191 2.326 . S
Tb175 O193 2.500 . S
Tb175 O194 2.473 . S
Tb175 O197 2.324 . S
Eu176 O180 2.292 . S
Eu176 C181 2.852 . S
Eu176 O192 2.324 . S
Eu176 O196 2.326 . S
Eu176 O198 2.500 . S
Eu176 O199 2.473 . S
C177 O174 1.255 . S
C177 O178 1.247 . S
O178 C177 1.247 . S
C179 O191 1.242 . S
C179 O192 1.258 . S
O180 Eu176 2.292 . S
O180 C182 1.255 . S
C181 Eu176 2.852 . S
C181 C185 1.503 . S
C181 O198 1.273 . S
C181 O199 1.257 . S
C182 O180 1.255 . S
C182 O183 1.247 . S
O183 C182 1.247 . S
C184 O196 1.242 . S
C184 O197 1.258 . S
C185 C181 1.503 . S
C185 C186 1.379 . S
C185 C190 1.392 . S
C186 C185 1.379 . S
C186 C187 1.404 . S
C186 H200 0.929 . S
C187 C186 1.404 . S
C187 C188 1.389 . S
C188 C187 1.389 . S
C188 C189 1.399 . S
C188 H201 0.931 . S
C189 C188 1.399 . S
C189 C190 1.390 . S
C190 C185 1.392 . S
C190 C189 1.390 . S
C190 H202 0.929 . S
O191 Tb175 2.326 . S
O191 C179 1.242 . S
O192 Eu176 2.324 . S
O192 C179 1.258 . S
O193 Tb175 2.500 . S
O193 C195 1.273 . S
O194 Tb175 2.473 . S
O194 C195 1.257 . S
C195 O193 1.273 . S
C195 O194 1.257 . S
O196 Eu176 2.326 . S
O196 C184 1.242 . S
O197 Tb175 2.324 . S
O197 C184 1.258 . S
O198 Eu176 2.500 . S
O198 C181 1.273 . S
O199 Eu176 2.473 . S
O199 C181 1.257 . S
H200 C186 0.929 . S
H201 C188 0.931 . S
H202 C190 0.929 . S
O203 Tb204 2.292 . S
O203 C206 1.255 . S
Tb204 O203 2.292 . S
Tb204 O220 2.326 . S
Tb204 O222 2.500 . S
Tb204 O223 2.473 . S
Tb204 O226 2.324 . S
Eu205 O209 2.292 . S
Eu205 C210 2.852 . S
Eu205 O221 2.324 . S
Eu205 O225 2.326 . S
Eu205 O227 2.500 1_655 S
Eu205 O228 2.473 . S
C206 O203 1.255 . S
C206 O207 1.247 . S
O207 C206 1.247 . S
C208 O220 1.242 . S
C208 O221 1.258 . S
O209 Eu205 2.292 . S
O209 C211 1.255 . S
C210 Eu205 2.852 . S
C210 C214 1.503 1_655 S
C210 O227 1.273 1_655 S
C210 O228 1.257 . S
C211 O209 1.255 . S
C211 O212 1.247 . S
O212 C211 1.247 . S
C213 O225 1.242 . S
C213 O226 1.258 . S
C214 C210 1.503 1_455 S
C214 C215 1.379 1_455 S
C214 C219 1.392 . S
C215 C214 1.379 1_655 S
C215 C216 1.404 1_655 S
C215 H229 0.929 . S
C216 C215 1.404 1_455 S
C216 C217 1.389 . S
C217 C216 1.389 . S
C217 C218 1.399 . S
C217 H230 0.931 . S
C218 C217 1.399 . S
C218 C219 1.390 . S
C219 C214 1.392 . S
C219 C218 1.390 . S
C219 H231 0.929 . S
O220 Tb204 2.326 . S
O220 C208 1.242 . S
O221 Eu205 2.324 . S
O221 C208 1.258 . S
O222 Tb204 2.500 . S
O222 C224 1.273 . S
O223 Tb204 2.473 . S
O223 C224 1.257 . S
C224 O222 1.273 . S
C224 O223 1.257 . S
O225 Eu205 2.326 . S
O225 C213 1.242 . S
O226 Tb204 2.324 . S
O226 C213 1.258 . S
O227 Eu205 2.500 1_455 S
O227 C210 1.273 1_455 S
O228 Eu205 2.473 . S
O228 C210 1.257 . S
H229 C215 0.929 . S
H230 C217 0.931 . S
H231 C219 0.929 . S
O232 Tb233 2.292 . S
O232 C235 1.255 . S
Tb233 O232 2.292 . S
Tb233 O249 2.326 . S
Tb233 O251 2.500 . S
Tb233 O252 2.473 . S
Tb233 O255 2.324 . S
Eu234 O238 2.292 . S
Eu234 C239 2.852 . S
Eu234 O250 2.324 . S
Eu234 O254 2.326 . S
Eu234 O256 2.500 1_565 S
Eu234 O257 2.473 . S
C235 O232 1.255 . S
C235 O236 1.247 . S
O236 C235 1.247 . S
C237 O249 1.242 . S
C237 O250 1.258 . S
O238 Eu234 2.292 . S
O238 C240 1.255 . S
C239 Eu234 2.852 . S
C239 C243 1.503 1_565 S
C239 O256 1.273 1_565 S
C239 O257 1.257 . S
C240 O238 1.255 . S
C240 O241 1.247 . S
O241 C240 1.247 . S
C242 O254 1.242 . S
C242 O255 1.258 . S
C243 C239 1.503 1_545 S
C243 C244 1.379 1_545 S
C243 C248 1.392 . S
C244 C243 1.379 1_565 S
C244 C245 1.404 1_565 S
C244 H258 0.929 . S
C245 C244 1.404 1_545 S
C245 C246 1.389 . S
C246 C245 1.389 . S
C246 C247 1.399 . S
C246 H259 0.931 . S
C247 C246 1.399 . S
C247 C248 1.390 . S
C248 C243 1.392 . S
C248 C247 1.390 . S
C248 H260 0.929 . S
O249 Tb233 2.326 . S
O249 C237 1.242 . S
O250 Eu234 2.324 . S
O250 C237 1.258 . S
O251 Tb233 2.500 . S
O251 C253 1.273 . S
O252 Tb233 2.473 . S
O252 C253 1.257 . S
C253 O251 1.273 . S
C253 O252 1.257 . S
O254 Eu234 2.326 . S
O254 C242 1.242 . S
O255 Tb233 2.324 . S
O255 C242 1.258 . S
O256 Eu234 2.500 1_545 S
O256 C239 1.273 1_545 S
O257 Eu234 2.473 . S
O257 C239 1.257 . S
H258 C244 0.929 . S
H259 C246 0.931 . S
H260 C248 0.929 . S
O261 Tb262 2.292 . S
O261 C264 1.255 . S
Tb262 O261 2.292 . S
Tb262 O278 2.326 . S
Tb262 O280 2.500 . S
Tb262 O281 2.473 . S
Tb262 O284 2.324 . S
Eu263 O267 2.292 . S
Eu263 C268 2.852 . S
Eu263 O279 2.324 . S
Eu263 O283 2.326 . S
Eu263 O285 2.500 . S
Eu263 O286 2.473 . S
C264 O261 1.255 . S
C264 O265 1.247 . S
O265 C264 1.247 . S
C266 O278 1.242 . S
C266 O279 1.258 . S
O267 Eu263 2.292 . S
O267 C269 1.255 . S
C268 Eu263 2.852 . S
C268 C272 1.503 . S
C268 O285 1.273 . S
C268 O286 1.257 . S
C269 O267 1.255 . S
C269 O270 1.247 . S
O270 C269 1.247 . S
C271 O283 1.242 . S
C271 O284 1.258 . S
C272 C268 1.503 . S
C272 C273 1.379 . S
C272 C277 1.392 . S
C273 C272 1.379 . S
C273 C274 1.404 . S
C273 H287 0.929 . S
C274 C273 1.404 . S
C274 C275 1.389 . S
C275 C274 1.389 . S
C275 C276 1.399 . S
C275 H288 0.931 . S
C276 C275 1.399 . S
C276 C277 1.390 . S
C277 C272 1.392 . S
C277 C276 1.390 . S
C277 H289 0.929 . S
O278 Tb262 2.326 . S
O278 C266 1.242 . S
O279 Eu263 2.324 . S
O279 C266 1.258 . S
O280 Tb262 2.500 . S
O280 C282 1.273 . S
O281 Tb262 2.473 . S
O281 C282 1.257 . S
C282 O280 1.273 . S
C282 O281 1.257 . S
O283 Eu263 2.326 . S
O283 C271 1.242 . S
O284 Tb262 2.324 . S
O284 C271 1.258 . S
O285 Eu263 2.500 . S
O285 C268 1.273 . S
O286 Eu263 2.473 . S
O286 C268 1.257 . S
H287 C273 0.929 . S
H288 C275 0.931 . S
H289 C277 0.929 . S
O290 Tb291 2.292 . S
O290 C293 1.255 . S
Tb291 O290 2.292 . S
Tb291 O307 2.326 . S
Tb291 O309 2.500 . S
Tb291 O310 2.473 . S
Tb291 O313 2.324 . S
Eu292 O296 2.292 . S
Eu292 C297 2.852 . S
Eu292 O308 2.324 . S
Eu292 O312 2.326 . S
Eu292 O314 2.500 . S
Eu292 O315 2.473 . S
C293 O290 1.255 . S
C293 O294 1.247 . S
O294 C293 1.247 . S
C295 O307 1.242 . S
C295 O308 1.258 . S
O296 Eu292 2.292 . S
O296 C298 1.255 . S
C297 Eu292 2.852 . S
C297 C301 1.503 . S
C297 O314 1.273 . S
C297 O315 1.257 . S
C298 O296 1.255 . S
C298 O299 1.247 . S
O299 C298 1.247 . S
C300 O312 1.242 . S
C300 O313 1.258 . S
C301 C297 1.503 . S
C301 C302 1.379 . S
C301 C306 1.392 . S
C302 C301 1.379 . S
C302 C303 1.404 . S
C302 H316 0.929 . S
C303 C302 1.404 . S
C303 C304 1.389 . S
C304 C303 1.389 . S
C304 C305 1.399 . S
C304 H317 0.931 . S
C305 C304 1.399 . S
C305 C306 1.390 . S
C306 C301 1.392 . S
C306 C305 1.390 . S
C306 H318 0.929 . S
O307 Tb291 2.326 . S
O307 C295 1.242 . S
O308 Eu292 2.324 . S
O308 C295 1.258 . S
O309 Tb291 2.500 . S
O309 C311 1.273 . S
O310 Tb291 2.473 . S
O310 C311 1.257 . S
C311 O309 1.273 . S
C311 O310 1.257 . S
O312 Eu292 2.326 . S
O312 C300 1.242 . S
O313 Tb291 2.324 . S
O313 C300 1.258 . S
O314 Eu292 2.500 . S
O314 C297 1.273 . S
O315 Eu292 2.473 . S
O315 C297 1.257 . S
H316 C302 0.929 . S
H317 C304 0.931 . S
H318 C306 0.929 . S
O319 Tb320 2.292 . S
O319 C322 1.255 . S
Tb320 O319 2.292 . S
Tb320 O336 2.326 . S
Tb320 O338 2.500 . S
Tb320 O339 2.473 . S
Tb320 O342 2.324 . S
Eu321 O325 2.292 . S
Eu321 C326 2.852 . S
Eu321 O337 2.324 . S
Eu321 O341 2.326 . S
Eu321 O343 2.500 1_655 S
Eu321 O344 2.473 . S
C322 O319 1.255 . S
C322 O323 1.247 . S
O323 C322 1.247 . S
C324 O336 1.242 . S
C324 O337 1.258 . S
O325 Eu321 2.292 . S
O325 C327 1.255 . S
C326 Eu321 2.852 . S
C326 C330 1.503 1_655 S
C326 O343 1.273 1_655 S
C326 O344 1.257 . S
C327 O325 1.255 . S
C327 O328 1.247 . S
O328 C327 1.247 . S
C329 O341 1.242 . S
C329 O342 1.258 . S
C330 C326 1.503 1_455 S
C330 C331 1.379 1_455 S
C330 C335 1.392 . S
C331 C330 1.379 1_655 S
C331 C332 1.404 1_655 S
C331 H345 0.929 . S
C332 C331 1.404 1_455 S
C332 C333 1.389 . S
C333 C332 1.389 . S
C333 C334 1.399 . S
C333 H346 0.931 . S
C334 C333 1.399 . S
C334 C335 1.390 . S
C335 C330 1.392 . S
C335 C334 1.390 . S
C335 H347 0.929 . S
O336 Tb320 2.326 . S
O336 C324 1.242 . S
O337 Eu321 2.324 . S
O337 C324 1.258 . S
O338 Tb320 2.500 . S
O338 C340 1.273 . S
O339 Tb320 2.473 . S
O339 C340 1.257 . S
C340 O338 1.273 . S
C340 O339 1.257 . S
O341 Eu321 2.326 . S
O341 C329 1.242 . S
O342 Tb320 2.324 . S
O342 C329 1.258 . S
O343 Eu321 2.500 1_455 S
O343 C326 1.273 1_455 S
O344 Eu321 2.473 . S
O344 C326 1.257 . S
H345 C331 0.929 . S
H346 C333 0.931 . S
H347 C335 0.929 . S
O348 Tb349 2.292 . S
O348 C351 1.255 . S
Tb349 O348 2.292 . S
Tb349 O365 2.326 . S
Tb349 O367 2.500 . S
Tb349 O368 2.473 . S
Tb349 O371 2.324 . S
Eu350 O354 2.292 . S
Eu350 C355 2.852 . S
Eu350 O366 2.324 . S
Eu350 O370 2.326 . S
Eu350 O372 2.500 1_545 S
Eu350 O373 2.473 . S
C351 O348 1.255 . S
C351 O352 1.247 . S
O352 C351 1.247 . S
C353 O365 1.242 . S
C353 O366 1.258 . S
O354 Eu350 2.292 . S
O354 C356 1.255 . S
C355 Eu350 2.852 . S
C355 C359 1.503 1_545 S
C355 O372 1.273 1_545 S
C355 O373 1.257 . S
C356 O354 1.255 . S
C356 O357 1.247 . S
O357 C356 1.247 . S
C358 O370 1.242 . S
C358 O371 1.258 . S
C359 C355 1.503 1_565 S
C359 C360 1.379 1_565 S
C359 C364 1.392 . S
C360 C359 1.379 1_545 S
C360 C361 1.404 1_545 S
C360 H374 0.929 . S
C361 C360 1.404 1_565 S
C361 C362 1.389 . S
C362 C361 1.389 . S
C362 C363 1.399 . S
C362 H375 0.931 . S
C363 C362 1.399 . S
C363 C364 1.390 . S
C364 C359 1.392 . S
C364 C363 1.390 . S
C364 H376 0.929 . S
O365 Tb349 2.326 . S
O365 C353 1.242 . S
O366 Eu350 2.324 . S
O366 C353 1.258 . S
O367 Tb349 2.500 . S
O367 C369 1.273 . S
O368 Tb349 2.473 . S
O368 C369 1.257 . S
C369 O367 1.273 . S
C369 O368 1.257 . S
O370 Eu350 2.326 . S
O370 C358 1.242 . S
O371 Tb349 2.324 . S
O371 C358 1.258 . S
O372 Eu350 2.500 1_565 S
O372 C355 1.273 1_565 S
O373 Eu350 2.473 . S
O373 C355 1.257 . S
H374 C360 0.929 . S
H375 C362 0.931 . S
H376 C364 0.929 . S
O377 Tb378 2.292 . S
O377 C380 1.255 . S
Tb378 O377 2.292 . S
Tb378 O394 2.326 . S
Tb378 O396 2.500 . S
Tb378 O397 2.473 . S
Tb378 O400 2.324 . S
Eu379 O383 2.292 . S
Eu379 C384 2.852 . S
Eu379 O395 2.324 . S
Eu379 O399 2.326 . S
Eu379 O401 2.500 . S
Eu379 O402 2.473 . S
C380 O377 1.255 . S
C380 O381 1.247 . S
O381 C380 1.247 . S
C382 O394 1.242 . S
C382 O395 1.258 . S
O383 Eu379 2.292 . S
O383 C385 1.255 . S
C384 Eu379 2.852 . S
C384 C388 1.503 . S
C384 O401 1.273 . S
C384 O402 1.257 . S
C385 O383 1.255 . S
C385 O386 1.247 . S
O386 C385 1.247 . S
C387 O399 1.242 . S
C387 O400 1.258 . S
C388 C384 1.503 . S
C388 C389 1.379 . S
C388 C393 1.392 . S
C389 C388 1.379 . S
C389 C390 1.404 . S
C389 H403 0.929 . S
C390 C389 1.404 . S
C390 C391 1.389 . S
C391 C390 1.389 . S
C391 C392 1.399 . S
C391 H404 0.931 . S
C392 C391 1.399 . S
C392 C393 1.390 . S
C393 C388 1.392 . S
C393 C392 1.390 . S
C393 H405 0.929 . S
O394 Tb378 2.326 . S
O394 C382 1.242 . S
O395 Eu379 2.324 . S
O395 C382 1.258 . S
O396 Tb378 2.500 . S
O396 C398 1.273 . S
O397 Tb378 2.473 . S
O397 C398 1.257 . S
C398 O396 1.273 . S
C398 O397 1.257 . S
O399 Eu379 2.326 . S
O399 C387 1.242 . S
O400 Tb378 2.324 . S
O400 C387 1.258 . S
O401 Eu379 2.500 . S
O401 C384 1.273 . S
O402 Eu379 2.473 . S
O402 C384 1.257 . S
H403 C389 0.929 . S
H404 C391 0.931 . S
H405 C393 0.929 . S
O406 Tb407 2.292 . S
O406 C409 1.255 . S
Tb407 O406 2.292 . S
Tb407 O423 2.326 . S
Tb407 O425 2.500 . S
Tb407 O426 2.473 . S
Tb407 O429 2.324 . S
Eu408 O412 2.292 . S
Eu408 C413 2.852 . S
Eu408 O424 2.324 . S
Eu408 O428 2.326 . S
Eu408 O430 2.500 . S
Eu408 O431 2.473 . S
C409 O406 1.255 . S
C409 O410 1.247 . S
O410 C409 1.247 . S
C411 O423 1.242 . S
C411 O424 1.258 . S
O412 Eu408 2.292 . S
O412 C414 1.255 . S
C413 Eu408 2.852 . S
C413 C417 1.503 . S
C413 O430 1.273 . S
C413 O431 1.257 . S
C414 O412 1.255 . S
C414 O415 1.247 . S
O415 C414 1.247 . S
C416 O428 1.242 . S
C416 O429 1.258 . S
C417 C413 1.503 . S
C417 C418 1.379 . S
C417 C422 1.392 . S
C418 C417 1.379 . S
C418 C419 1.404 . S
C418 H432 0.929 . S
C419 C418 1.404 . S
C419 C420 1.389 . S
C420 C419 1.389 . S
C420 C421 1.399 . S
C420 H433 0.931 . S
C421 C420 1.399 . S
C421 C422 1.390 . S
C422 C417 1.392 . S
C422 C421 1.390 . S
C422 H434 0.929 . S
O423 Tb407 2.326 . S
O423 C411 1.242 . S
O424 Eu408 2.324 . S
O424 C411 1.258 . S
O425 Tb407 2.500 . S
O425 C427 1.273 . S
O426 Tb407 2.473 . S
O426 C427 1.257 . S
C427 O425 1.273 . S
C427 O426 1.257 . S
O428 Eu408 2.326 . S
O428 C416 1.242 . S
O429 Tb407 2.324 . S
O429 C416 1.258 . S
O430 Eu408 2.500 . S
O430 C413 1.273 . S
O431 Eu408 2.473 . S
O431 C413 1.257 . S
H432 C418 0.929 . S
H433 C420 0.931 . S
H434 C422 0.929 . S
O435 Tb436 2.292 . S
O435 C438 1.255 . S
Tb436 O435 2.292 . S
Tb436 O452 2.326 . S
Tb436 O454 2.500 . S
Tb436 O455 2.473 . S
Tb436 O458 2.324 . S
Eu437 O441 2.292 . S
Eu437 C442 2.852 . S
Eu437 O453 2.324 . S
Eu437 O457 2.326 . S
Eu437 O459 2.500 1_455 S
Eu437 O460 2.473 . S
C438 O435 1.255 . S
C438 O439 1.247 . S
O439 C438 1.247 . S
C440 O452 1.242 . S
C440 O453 1.258 . S
O441 Eu437 2.292 . S
O441 C443 1.255 . S
C442 Eu437 2.852 . S
C442 C446 1.503 1_455 S
C442 O459 1.273 1_455 S
C442 O460 1.257 . S
C443 O441 1.255 . S
C443 O444 1.247 . S
O444 C443 1.247 . S
C445 O457 1.242 . S
C445 O458 1.258 . S
C446 C442 1.503 1_655 S
C446 C447 1.379 1_655 S
C446 C451 1.392 . S
C447 C446 1.379 1_455 S
C447 C448 1.404 1_455 S
C447 H461 0.929 . S
C448 C447 1.404 1_655 S
C448 C449 1.389 . S
C449 C448 1.389 . S
C449 C450 1.399 . S
C449 H462 0.931 . S
C450 C449 1.399 . S
C450 C451 1.390 . S
C451 C446 1.392 . S
C451 C450 1.390 . S
C451 H463 0.929 . S
O452 Tb436 2.326 . S
O452 C440 1.242 . S
O453 Eu437 2.324 . S
O453 C440 1.258 . S
O454 Tb436 2.500 . S
O454 C456 1.273 . S
O455 Tb436 2.473 . S
O455 C456 1.257 . S
C456 O454 1.273 . S
C456 O455 1.257 . S
O457 Eu437 2.326 . S
O457 C445 1.242 . S
O458 Tb436 2.324 . S
O458 C445 1.258 . S
O459 Eu437 2.500 1_655 S
O459 C442 1.273 1_655 S
O460 Eu437 2.473 . S
O460 C442 1.257 . S
H461 C447 0.929 . S
H462 C449 0.931 . S
H463 C451 0.929 . S
C464 C465 1.369 1_545 S
C464 C466 1.399 1_556 S
C464 H468 0.930 . S
C465 C464 1.369 1_565 S
C465 C474 1.408 1_556 S
C466 C464 1.399 1_554 S
C466 C467 1.384 . S
C466 H469 0.928 1_554 S
C467 C466 1.384 . S
C467 C473 1.428 1_545 S
H468 C464 0.930 . S
H469 C466 0.928 1_556 S
S470 N471 1.613 . S
S470 N472 1.610 . S
N471 S470 1.613 . S
N471 C474 1.353 . S
N472 S470 1.610 . S
N472 C473 1.351 . S
C473 C467 1.428 1_565 S
C473 N472 1.351 . S
C473 C474 1.454 . S
C474 C465 1.408 1_554 S
C474 N471 1.353 . S
C474 C473 1.454 . S
C475 C476 1.369 . S
C475 C477 1.419 1_554 S
C475 H479 0.930 . S
C476 C475 1.369 . S
C476 C485 1.429 . S
C477 C475 1.419 1_556 S
C477 C478 1.363 . S
C477 H480 0.929 . S
C478 C477 1.363 . S
C478 C484 1.428 . S
H479 C475 0.930 . S
H480 C477 0.929 . S
S481 N482 1.613 . S
S481 N483 1.610 1_554 S
N482 S481 1.613 . S
N482 C485 1.350 . S
N483 S481 1.610 1_556 S
N483 C484 1.351 . S
C484 C478 1.428 . S
C484 N483 1.351 . S
C484 C485 1.434 1_556 S
C485 C476 1.429 . S
C485 N482 1.350 . S
C485 C484 1.434 1_554 S
C486 C487 1.391 . S
C486 C488 1.397 1_556 S
C486 H490 0.929 1_556 S
C487 C486 1.391 . S
C487 C496 1.429 1_455 S
C488 C486 1.397 1_554 S
C488 C489 1.363 1_455 S
C488 H491 0.929 . S
C489 C488 1.363 1_655 S
C489 C495 1.419 1_554 S
H490 C486 0.929 1_554 S
H491 C488 0.929 . S
S492 N493 1.613 . S
S492 N494 1.610 . S
N493 S492 1.613 . S
N493 C496 1.350 . S
N494 S492 1.610 . S
N494 C495 1.352 . S
C495 C489 1.419 1_556 S
C495 N494 1.352 . S
C495 C496 1.443 . S
C496 C487 1.429 1_655 S
C496 N493 1.350 . S
C496 C495 1.443 . S
C497 C498 1.369 1_645 S
C497 C499 1.419 1_554 S
C497 H501 0.930 . S
C498 C497 1.369 1_465 S
C498 C507 1.429 . S
C499 C497 1.419 1_556 S
C499 C500 1.378 . S
C499 H502 0.929 . S
C500 C499 1.378 . S
C500 C506 1.413 1_645 S
H501 C497 0.930 . S
H502 C499 0.929 . S
S503 N504 1.613 1_556 S
S503 N505 1.610 . S
N504 S503 1.613 1_554 S
N504 C507 1.350 . S
N505 S503 1.610 . S
N505 C506 1.351 . S
C506 C500 1.413 1_465 S
C506 N505 1.351 . S
C506 C507 1.434 1_556 S
C507 C498 1.429 . S
C507 N504 1.350 . S
C507 C506 1.434 1_554 S
C508 C509 1.369 1_655 S
C508 C510 1.419 . S
C508 H512 0.930 . S
C509 C508 1.369 1_455 S
C509 C518 1.429 1_565 S
C510 C508 1.419 . S
C510 C511 1.363 1_565 S
C510 H513 0.929 . S
C511 C510 1.363 1_545 S
C511 C517 1.428 1_655 S
H512 C508 0.930 . S
H513 C510 0.929 . S
S514 N515 1.613 . S
S514 N516 1.610 . S
N515 S514 1.613 . S
N515 C518 1.350 . S
N516 S514 1.610 . S
N516 C517 1.351 . S
C517 C511 1.428 1_455 S
C517 N516 1.351 . S
C517 C518 1.434 . S
C518 C509 1.429 1_545 S
C518 N515 1.350 . S
C518 C517 1.434 . S
C519 C520 1.369 . S
C519 C521 1.419 1_545 S
C519 H523 0.930 . S
C520 C519 1.369 . S
C520 C529 1.429 . S
C521 C519 1.419 1_565 S
C521 C522 1.363 . S
C521 H524 0.929 . S
C522 C521 1.363 . S
C522 C528 1.428 . S
H523 C519 0.930 . S
H524 C521 0.929 . S
S525 N526 1.613 . S
S525 N527 1.610 . S
N526 S525 1.613 . S
N526 C529 1.350 . S
N527 S525 1.610 . S
N527 C528 1.351 1_545 S
C528 C522 1.428 . S
C528 N527 1.351 1_565 S
C528 C529 1.434 1_565 S
C529 C520 1.429 . S
C529 N526 1.350 . S
C529 C528 1.434 1_545 S
C530 C531 1.369 . S
C530 C532 1.419 . S
C530 H534 0.930 . S
C531 C530 1.369 . S
C531 C540 1.429 . S
C532 C530 1.419 . S
C532 C533 1.363 . S
C532 H535 0.929 . S
C533 C532 1.363 . S
C533 C539 1.428 . S
H534 C530 0.930 . S
H535 C532 0.929 . S
S536 N537 1.613 . S
S536 N538 1.610 . S
N537 S536 1.613 . S
N537 C540 1.350 . S
N538 S536 1.610 . S
N538 C539 1.351 . S
C539 C533 1.428 . S
C539 N538 1.351 . S
C539 C540 1.434 . S
C540 C531 1.429 . S
C540 N537 1.350 . S
C540 C539 1.434 . S
C541 C542 1.372 . S
C541 C543 1.419 . S
C541 H545 0.930 . S
C542 C541 1.372 . S
C542 C551 1.425 1_455 S
C543 C541 1.419 . S
C543 C544 1.363 1_455 S
C543 H546 0.929 . S
C544 C543 1.363 1_655 S
C544 C550 1.428 . S
H545 C541 0.930 . S
H546 C543 0.929 . S
S547 N548 1.613 . S
S547 N549 1.610 . S
N548 S547 1.613 . S
N548 C551 1.350 . S
N549 S547 1.610 . S
N549 C550 1.351 . S
C550 C544 1.428 . S
C550 N549 1.351 . S
C550 C551 1.434 . S
C551 C542 1.425 1_655 S
C551 N548 1.350 . S
C551 C550 1.434 . S
C552 C553 1.369 . S
C552 C554 1.419 . S
C552 H556 0.930 . S
C553 C552 1.369 . S
C553 C562 1.429 . S
C554 C552 1.419 . S
C554 C555 1.363 . S
C554 H557 0.929 . S
C555 C554 1.363 . S
C555 C561 1.428 . S
H556 C552 0.930 . S
H557 C554 0.929 . S
S558 N559 1.613 . S
S558 N560 1.610 . S
N559 S558 1.613 . S
N559 C562 1.350 . S
N560 S558 1.610 . S
N560 C561 1.351 . S
C561 C555 1.428 . S
C561 N560 1.351 . S
C561 C562 1.434 . S
C562 C553 1.429 . S
C562 N559 1.350 . S
C562 C561 1.434 . S
C563 C564 1.369 . S
C563 C565 1.419 . S
C563 H567 0.930 . S
C564 C563 1.369 . S
C564 C573 1.429 . S
C565 C563 1.419 . S
C565 C566 1.363 . S
C565 H568 0.929 . S
C566 C565 1.363 . S
C566 C572 1.428 . S
H567 C563 0.930 . S
H568 C565 0.929 . S
S569 N570 1.613 . S
S569 N571 1.610 . S
N570 S569 1.613 . S
N570 C573 1.350 . S
N571 S569 1.610 . S
N571 C572 1.351 . S
C572 C566 1.428 . S
C572 N571 1.351 . S
C572 C573 1.434 . S
C573 C564 1.429 . S
C573 N570 1.350 . S
C573 C572 1.434 . S
C574 C575 1.369 . S
C574 C576 1.419 . S
C574 H578 0.930 . S
C575 C574 1.369 . S
C575 C584 1.429 1_655 S
C576 C574 1.419 . S
C576 C577 1.363 . S
C576 H579 0.929 . S
C577 C576 1.363 . S
C577 C583 1.428 . S
H578 C574 0.930 . S
H579 C576 0.929 . S
S580 N581 1.613 . S
S580 N582 1.610 . S
N581 S580 1.613 . S
N581 C584 1.350 . S
N582 S580 1.610 . S
N582 C583 1.351 1_455 S
C583 C577 1.428 . S
C583 N582 1.351 1_655 S
C583 C584 1.434 1_655 S
C584 C575 1.429 1_455 S
C584 N581 1.350 . S
C584 C583 1.434 1_455 S
C585 C586 1.369 . S
C585 C587 1.419 . S
C585 H589 0.930 . S
C586 C585 1.369 . S
C586 C595 1.429 . S
C587 C585 1.419 . S
C587 C588 1.363 . S
C587 H590 0.929 . S
C588 C587 1.363 . S
C588 C594 1.428 . S
H589 C585 0.930 . S
H590 C587 0.929 . S
S591 N592 1.613 1_565 S
S591 N593 1.610 . S
N592 S591 1.613 1_545 S
N592 C595 1.350 1_545 S
N593 S591 1.610 . S
N593 C594 1.351 . S
C594 C588 1.428 . S
C594 N593 1.351 . S
C594 C595 1.434 . S
C595 C586 1.429 . S
C595 N592 1.350 1_565 S
C595 C594 1.434 . S
C596 C597 1.369 1_655 S
C596 C598 1.419 1_655 S
C596 H600 0.930 . S
C597 C596 1.369 1_455 S
C597 C606 1.429 . S
C598 C596 1.419 1_455 S
C598 C599 1.363 . S
C598 H601 0.929 1_455 S
C599 C598 1.363 . S
C599 C605 1.428 . S
H600 C596 0.930 . S
H601 C598 0.929 1_655 S
S602 N603 1.613 . S
S602 N604 1.610 . S
N603 S602 1.613 . S
N603 C606 1.350 . S
N604 S602 1.610 . S
N604 C605 1.351 . S
C605 C599 1.428 . S
C605 N604 1.351 . S
C605 C606 1.434 . S
C606 C597 1.429 . S
C606 N603 1.350 . S
C606 C605 1.434 . S
C607 C608 1.369 . S
C607 C609 1.419 . S
C607 H611 0.930 . S
C608 C607 1.369 . S
C608 C617 1.429 . S
C609 C607 1.419 . S
C609 C610 1.363 . S
C609 H612 0.929 . S
C610 C609 1.363 . S
C610 C616 1.428 . S
H611 C607 0.930 . S
H612 C609 0.929 . S
S613 N614 1.613 . S
S613 N615 1.610 . S
N614 S613 1.613 . S
N614 C617 1.350 . S
N615 S613 1.610 . S
N615 C616 1.351 . S
C616 C610 1.428 . S
C616 N615 1.351 . S
C616 C617 1.434 . S
C617 C608 1.429 . S
C617 N614 1.350 . S
C617 C616 1.434 . S
C618 C619 1.369 . S
C618 C620 1.419 . S
C618 H622 0.930 . S
C619 C618 1.369 . S
C619 C628 1.429 . S
C620 C618 1.419 . S
C620 C621 1.363 . S
C620 H623 0.929 . S
C621 C620 1.363 . S
C621 C627 1.428 . S
H622 C618 0.930 . S
H623 C620 0.929 . S
S624 N625 1.613 . S
S624 N626 1.610 . S
N625 S624 1.613 . S
N625 C628 1.350 . S
N626 S624 1.610 . S
N626 C627 1.351 . S
C627 C621 1.428 . S
C627 N626 1.351 . S
C627 C628 1.434 . S
C628 C619 1.429 . S
C628 N625 1.350 . S
C628 C627 1.434 . S
C629 C630 1.369 . S
C629 C631 1.419 . S
C629 H633 0.930 . S
C630 C629 1.369 . S
C630 C639 1.429 . S
C631 C629 1.419 . S
C631 C632 1.363 . S
C631 H634 0.929 . S
C632 C631 1.363 . S
C632 C638 1.428 . S
H633 C629 0.930 . S
H634 C631 0.929 . S
S635 N636 1.613 . S
S635 N637 1.610 . S
N636 S635 1.613 . S
N636 C639 1.350 . S
N637 S635 1.610 . S
N637 C638 1.351 . S
C638 C632 1.428 . S
C638 N637 1.351 . S
C638 C639 1.434 . S
C639 C630 1.429 . S
C639 N636 1.350 . S
C639 C638 1.434 . S
C640 C641 1.369 . S
C640 C642 1.419 . S
C640 H644 0.930 . S
C641 C640 1.369 . S
C641 C650 1.429 . S
C642 C640 1.419 . S
C642 C643 1.363 . S
C642 H645 0.929 . S
C643 C642 1.363 . S
C643 C649 1.428 . S
H644 C640 0.930 . S
H645 C642 0.929 . S
S646 N647 1.613 . S
S646 N648 1.610 . S
N647 S646 1.613 . S
N647 C650 1.350 . S
N648 S646 1.610 . S
N648 C649 1.351 . S
C649 C643 1.428 . S
C649 N648 1.351 . S
C649 C650 1.434 . S
C650 C641 1.429 . S
C650 N647 1.350 . S
C650 C649 1.434 . S
C651 C652 1.369 . S
C651 C653 1.419 . S
C651 H655 0.930 . S
C652 C651 1.369 . S
C652 C661 1.429 . S
C653 C651 1.419 . S
C653 C654 1.363 . S
C653 H656 0.929 . S
C654 C653 1.363 . S
C654 C660 1.428 . S
H655 C651 0.930 . S
H656 C653 0.929 . S
S657 N658 1.613 . S
S657 N659 1.610 . S
N658 S657 1.613 . S
N658 C661 1.350 . S
N659 S657 1.610 . S
N659 C660 1.351 . S
C660 C654 1.428 . S
C660 N659 1.351 . S
C660 C661 1.434 . S
C661 C652 1.429 . S
C661 N658 1.350 . S
C661 C660 1.434 . S
C662 C663 1.369 . S
C662 C664 1.419 . S
C662 H666 0.930 . S
C663 C662 1.369 . S
C663 C672 1.429 1_455 S
C664 C662 1.419 . S
C664 C665 1.363 . S
C664 H667 0.929 . S
C665 C664 1.363 . S
C665 C671 1.428 . S
H666 C662 0.930 . S
H667 C664 0.929 . S
S668 N669 1.613 . S
S668 N670 1.610 . S
N669 S668 1.613 . S
N669 C672 1.350 . S
N670 S668 1.610 . S
N670 C671 1.351 1_655 S
C671 C665 1.428 . S
C671 N670 1.351 1_455 S
C671 C672 1.434 1_455 S
C672 C663 1.429 1_655 S
C672 N669 1.350 . S
C672 C671 1.434 1_655 S
C673 C674 1.369 1_565 S
C673 C675 1.419 1_565 S
C673 H677 0.930 . S
C674 C673 1.369 1_545 S
C674 C683 1.429 . S
C675 C673 1.419 1_545 S
C675 C676 1.363 . S
C675 H678 0.929 1_545 S
C676 C675 1.363 . S
C676 C682 1.428 . S
H677 C673 0.930 . S
H678 C675 0.929 1_565 S
S679 N680 1.613 . S
S679 N681 1.610 . S
N680 S679 1.613 . S
N680 C683 1.350 . S
N681 S679 1.610 . S
N681 C682 1.351 . S
C682 C676 1.428 . S
C682 N681 1.351 . S
C682 C683 1.434 . S
C683 C674 1.429 . S
C683 N680 1.350 . S
C683 C682 1.434 . S
C684 C685 1.369 . S
C684 C686 1.419 . S
C684 H688 0.930 . S
C685 C684 1.369 . S
C685 C694 1.429 . S
C686 C684 1.419 . S
C686 C687 1.363 . S
C686 H689 0.929 . S
C687 C686 1.363 . S
C687 C693 1.428 . S
H688 C684 0.930 . S
H689 C686 0.929 . S
S690 N691 1.613 . S
S690 N692 1.610 1_455 S
N691 S690 1.613 . S
N691 C694 1.350 1_455 S
N692 S690 1.610 1_655 S
N692 C693 1.351 . S
C693 C687 1.428 . S
C693 N692 1.351 . S
C693 C694 1.434 . S
C694 C685 1.429 . S
C694 N691 1.350 1_655 S
C694 C693 1.434 . S
C695 C696 1.369 . S
C695 C697 1.419 . S
C695 H699 0.930 . S
C696 C695 1.369 . S
C696 C705 1.429 . S
C697 C695 1.419 . S
C697 C698 1.363 . S
C697 H700 0.929 . S
C698 C697 1.363 . S
C698 C704 1.428 . S
H699 C695 0.930 . S
H700 C697 0.929 . S
S701 N702 1.613 . S
S701 N703 1.610 . S
N702 S701 1.613 . S
N702 C705 1.350 . S
N703 S701 1.610 . S
N703 C704 1.351 . S
C704 C698 1.428 . S
C704 N703 1.351 . S
C704 C705 1.434 . S
C705 C696 1.429 . S
C705 N702 1.350 . S
C705 C704 1.434 . S
C706 C707 1.369 . S
C706 C708 1.419 . S
C706 H710 0.930 . S
C707 C706 1.369 . S
C707 C716 1.429 . S
C708 C706 1.419 . S
C708 C709 1.363 . S
C708 H711 0.929 . S
C709 C708 1.363 . S
C709 C715 1.428 . S
H710 C706 0.930 . S
H711 C708 0.929 . S
S712 N713 1.613 . S
S712 N714 1.610 . S
N713 S712 1.613 . S
N713 C716 1.350 . S
N714 S712 1.610 . S
N714 C715 1.351 . S
C715 C709 1.428 . S
C715 N714 1.351 . S
C715 C716 1.434 . S
C716 C707 1.429 . S
C716 N713 1.350 . S
C716 C715 1.434 . S
C717 C718 1.369 . S
C717 C719 1.419 . S
C717 H721 0.930 . S
C718 C717 1.369 . S
C718 C727 1.429 . S
C719 C717 1.419 . S
C719 C720 1.363 . S
C719 H722 0.929 . S
C720 C719 1.363 . S
C720 C726 1.428 . S
H721 C717 0.930 . S
H722 C719 0.929 . S
S723 N724 1.613 . S
S723 N725 1.610 . S
N724 S723 1.613 . S
N724 C727 1.350 . S
N725 S723 1.610 . S
N725 C726 1.351 . S
C726 C720 1.428 . S
C726 N725 1.351 . S
C726 C727 1.434 . S
C727 C718 1.429 . S
C727 N724 1.350 . S
C727 C726 1.434 . S
C728 C729 1.369 . S
C728 C730 1.419 1_556 S
C728 H732 0.930 . S
C729 C728 1.369 . S
C729 C738 1.429 . S
C730 C728 1.419 1_554 S
C730 C731 1.363 . S
C730 H733 0.929 . S
C731 C730 1.363 . S
C731 C737 1.428 1_554 S
H732 C728 0.930 . S
H733 C730 0.929 . S
S734 N735 1.613 . S
S734 N736 1.610 . S
N735 S734 1.613 . S
N735 C738 1.350 . S
N736 S734 1.610 . S
N736 C737 1.351 . S
C737 C731 1.428 1_556 S
C737 N736 1.351 . S
C737 C738 1.434 . S
C738 C729 1.429 . S
C738 N735 1.350 . S
C738 C737 1.434 . S
C739 C740 1.369 . S
C739 C741 1.419 . S
C739 H743 0.930 . S
C740 C739 1.369 . S
C740 C749 1.429 . S
C741 C739 1.419 . S
C741 C742 1.363 1_556 S
C741 H744 0.929 . S
C742 C741 1.363 1_554 S
C742 C748 1.428 . S
H743 C739 0.930 . S
H744 C741 0.929 . S
S745 N746 1.613 1_554 S
S745 N747 1.610 . S
N746 S745 1.613 1_556 S
N746 C749 1.350 . S
N747 S745 1.610 . S
N747 C748 1.351 . S
C748 C742 1.428 . S
C748 N747 1.351 . S
C748 C749 1.434 1_554 S
C749 C740 1.429 . S
C749 N746 1.350 . S
C749 C748 1.434 1_556 S
C750 C751 1.369 . S
C750 C752 1.419 . S
C750 H754 0.930 . S
C751 C750 1.369 . S
C751 C760 1.434 . S
C752 C750 1.419 . S
C752 C753 1.363 1_556 S
C752 H755 0.929 . S
C753 C752 1.363 1_554 S
C753 C759 1.428 . S
H754 C750 0.930 . S
H755 C752 0.929 . S
S756 N757 1.613 . S
S756 N758 1.610 . S
N757 S756 1.613 . S
N757 C760 1.348 1_554 S
N758 S756 1.610 . S
N758 C759 1.351 . S
C759 C753 1.428 . S
C759 N758 1.351 . S
C759 C760 1.430 1_554 S
C760 C751 1.434 . S
C760 N757 1.348 1_556 S
C760 C759 1.430 1_556 S
C761 C762 1.369 . S
C761 C763 1.419 . S
C761 H765 0.930 . S
C762 C761 1.369 . S
C762 C771 1.429 1_556 S
C763 C761 1.419 . S
C763 C764 1.363 1_556 S
C763 H766 0.929 . S
C764 C763 1.363 1_554 S
C764 C770 1.428 . S
H765 C761 0.930 . S
H766 C763 0.929 . S
S767 N768 1.613 . S
S767 N769 1.610 . S
N768 S767 1.613 . S
N768 C771 1.350 . S
N769 S767 1.610 . S
N769 C770 1.351 . S
C770 C764 1.428 . S
C770 N769 1.351 . S
C770 C771 1.434 . S
C771 C762 1.429 1_554 S
C771 N768 1.350 . S
C771 C770 1.434 . S
C772 C773 1.369 . S
C772 C774 1.419 . S
C772 H776 0.930 . S
C773 C772 1.369 . S
C773 C782 1.429 . S
C774 C772 1.419 . S
C774 C775 1.363 . S
C774 H777 0.929 . S
C775 C774 1.363 . S
C775 C781 1.428 . S
H776 C772 0.930 . S
H777 C774 0.929 . S
S778 N779 1.613 . S
S778 N780 1.610 . S
N779 S778 1.613 . S
N779 C782 1.350 . S
N780 S778 1.610 . S
N780 C781 1.351 . S
C781 C775 1.428 . S
C781 N780 1.351 . S
C781 C782 1.434 . S
C782 C773 1.429 . S
C782 N779 1.350 . S
C782 C781 1.434 . S
C783 C784 1.369 . S
C783 C785 1.419 . S
C783 H787 0.930 . S
C784 C783 1.369 . S
C784 C793 1.429 . S
C785 C783 1.419 . S
C785 C786 1.363 . S
C785 H788 0.929 . S
C786 C785 1.363 . S
C786 C792 1.428 . S
H787 C783 0.930 . S
H788 C785 0.929 . S
S789 N790 1.613 . S
S789 N791 1.610 . S
N790 S789 1.613 . S
N790 C793 1.350 . S
N791 S789 1.610 . S
N791 C792 1.351 . S
C792 C786 1.428 . S
C792 N791 1.351 . S
C792 C793 1.434 . S
C793 C784 1.429 . S
C793 N790 1.350 . S
C793 C792 1.434 . S
C794 C795 1.369 . S
C794 C796 1.419 . S
C794 H798 0.930 . S
C795 C794 1.369 . S
C795 C804 1.429 . S
C796 C794 1.419 . S
C796 C797 1.363 . S
C796 H799 0.929 . S
C797 C796 1.363 . S
C797 C803 1.428 . S
H798 C794 0.930 . S
H799 C796 0.929 . S
S800 N801 1.613 . S
S800 N802 1.610 . S
N801 S800 1.613 . S
N801 C804 1.350 . S
N802 S800 1.610 . S
N802 C803 1.351 . S
C803 C797 1.428 . S
C803 N802 1.351 . S
C803 C804 1.434 . S
C804 C795 1.429 . S
C804 N801 1.350 . S
C804 C803 1.434 . S
C805 C806 1.369 . S
C805 C807 1.419 . S
C805 H809 0.930 . S
C806 C805 1.369 . S
C806 C815 1.429 . S
C807 C805 1.419 . S
C807 C808 1.363 . S
C807 H810 0.929 . S
C808 C807 1.363 . S
C808 C814 1.428 . S
H809 C805 0.930 . S
H810 C807 0.929 . S
S811 N812 1.613 . S
S811 N813 1.610 . S
N812 S811 1.613 . S
N812 C815 1.350 . S
N813 S811 1.610 . S
N813 C814 1.351 . S
C814 C808 1.428 . S
C814 N813 1.351 . S
C814 C815 1.434 . S
C815 C806 1.429 . S
C815 N812 1.350 . S
C815 C814 1.434 . S
C816 C817 1.369 1_554 S
C816 C818 1.419 . S
C816 H820 0.930 . S
C817 C816 1.369 1_556 S
C817 C826 1.429 . S
C818 C816 1.419 . S
C818 C819 1.363 . S
C818 H821 0.929 . S
C819 C818 1.363 . S
C819 C825 1.428 . S
H820 C816 0.930 . S
H821 C818 0.929 . S
S822 N823 1.613 . S
S822 N824 1.610 1_556 S
N823 S822 1.613 . S
N823 C826 1.350 . S
N824 S822 1.610 1_554 S
N824 C825 1.351 . S
C825 C819 1.428 . S
C825 N824 1.351 . S
C825 C826 1.434 1_554 S
C826 C817 1.429 . S
C826 N823 1.350 . S
C826 C825 1.434 1_556 S
C827 C828 1.369 . S
C827 C829 1.419 1_556 S
C827 H831 0.930 . S
C828 C827 1.369 . S
C828 C837 1.429 1_556 S
C829 C827 1.419 1_554 S
C829 C830 1.363 . S
C829 H832 0.929 1_554 S
C830 C829 1.363 . S
C830 C836 1.428 . S
H831 C827 0.930 . S
H832 C829 0.929 1_556 S
S833 N834 1.613 . S
S833 N835 1.610 . S
N834 S833 1.613 . S
N834 C837 1.350 . S
N835 S833 1.610 . S
N835 C836 1.351 . S
C836 C830 1.428 . S
C836 N835 1.351 . S
C836 C837 1.434 . S
C837 C828 1.429 1_554 S
C837 N834 1.350 . S
C837 C836 1.434 . S
C838 C839 1.369 1_554 S
C838 C840 1.419 . S
C838 H842 0.928 1_554 S
C839 C838 1.369 1_556 S
C839 C848 1.429 . S
C840 C838 1.419 . S
C840 C841 1.363 . S
C840 H843 0.929 . S
C841 C840 1.363 . S
C841 C847 1.428 . S
H842 C838 0.928 1_556 S
H843 C840 0.929 . S
S844 N845 1.613 . S
S844 N846 1.610 1_556 S
N845 S844 1.613 . S
N845 C848 1.350 . S
N846 S844 1.610 1_554 S
N846 C847 1.351 . S
C847 C841 1.428 . S
C847 N846 1.351 . S
C847 C848 1.434 1_554 S
C848 C839 1.429 . S
C848 N845 1.350 . S
C848 C847 1.434 1_556 S
C849 C850 1.369 . S
C849 C851 1.419 . S
C849 H853 0.930 . S
C850 C849 1.369 . S
C850 C859 1.429 . S
C851 C849 1.419 . S
C851 C852 1.363 1_554 S
C851 H854 0.929 . S
C852 C851 1.363 1_556 S
C852 C858 1.428 . S
H853 C849 0.930 . S
H854 C851 0.929 . S
S855 N856 1.613 . S
S855 N857 1.610 . S
N856 S855 1.613 . S
N856 C859 1.350 1_556 S
N857 S855 1.610 . S
N857 C858 1.351 . S
C858 C852 1.428 . S
C858 N857 1.351 . S
C858 C859 1.434 1_556 S
C859 C850 1.429 . S
C859 N856 1.350 1_554 S
C859 C858 1.434 1_554 S
C860 C861 1.369 . S
C860 C862 1.419 . S
C860 H864 0.930 . S
C861 C860 1.369 . S
C861 C870 1.429 . S
C862 C860 1.419 . S
C862 C863 1.363 . S
C862 H865 0.929 . S
C863 C862 1.363 . S
C863 C869 1.428 . S
H864 C860 0.930 . S
H865 C862 0.929 . S
S866 N867 1.613 . S
S866 N868 1.610 . S
N867 S866 1.613 . S
N867 C870 1.350 . S
N868 S866 1.610 . S
N868 C869 1.351 . S
C869 C863 1.428 . S
C869 N868 1.351 . S
C869 C870 1.434 . S
C870 C861 1.429 . S
C870 N867 1.350 . S
C870 C869 1.434 . S
C871 C872 1.369 . S
C871 C873 1.419 . S
C871 H875 0.930 . S
C872 C871 1.369 . S
C872 C881 1.429 . S
C873 C871 1.419 . S
C873 C874 1.363 . S
C873 H876 0.929 . S
C874 C873 1.363 . S
C874 C880 1.428 . S
H875 C871 0.930 . S
H876 C873 0.929 . S
S877 N878 1.613 . S
S877 N879 1.610 . S
N878 S877 1.613 . S
N878 C881 1.350 . S
N879 S877 1.610 . S
N879 C880 1.351 . S
C880 C874 1.428 . S
C880 N879 1.351 . S
C880 C881 1.434 . S
C881 C872 1.429 . S
C881 N878 1.350 . S
C881 C880 1.434 . S
C882 C883 1.369 . S
C882 C884 1.419 . S
C882 H886 0.930 . S
C883 C882 1.369 . S
C883 C892 1.429 . S
C884 C882 1.419 . S
C884 C885 1.363 . S
C884 H887 0.929 . S
C885 C884 1.363 . S
C885 C891 1.428 . S
H886 C882 0.930 . S
H887 C884 0.929 . S
S888 N889 1.613 . S
S888 N890 1.610 . S
N889 S888 1.613 . S
N889 C892 1.350 . S
N890 S888 1.610 . S
N890 C891 1.351 . S
C891 C885 1.428 . S
C891 N890 1.351 . S
C891 C892 1.434 . S
C892 C883 1.429 . S
C892 N889 1.350 . S
C892 C891 1.434 . S
C893 C894 1.369 . S
C893 C895 1.419 . S
C893 H897 0.930 . S
C894 C893 1.369 . S
C894 C903 1.429 . S
C895 C893 1.419 . S
C895 C896 1.363 . S
C895 H898 0.929 . S
C896 C895 1.363 . S
C896 C902 1.428 . S
H897 C893 0.930 . S
H898 C895 0.929 . S
S899 N900 1.613 . S
S899 N901 1.610 . S
N900 S899 1.613 . S
N900 C903 1.350 . S
N901 S899 1.610 . S
N901 C902 1.351 . S
C902 C896 1.428 . S
C902 N901 1.351 . S
C902 C903 1.434 . S
C903 C894 1.429 . S
C903 N900 1.350 . S
C903 C902 1.434 . S
C904 C905 1.369 . S
C904 C906 1.419 . S
C904 H908 0.930 . S
C905 C904 1.369 . S
C905 C914 1.429 . S
C906 C904 1.419 . S
C906 C907 1.363 . S
C906 H909 0.929 . S
C907 C906 1.363 . S
C907 C913 1.428 . S
H908 C904 0.930 . S
H909 C906 0.929 . S
S910 N911 1.613 . S
S910 N912 1.610 . S
N911 S910 1.613 . S
N911 C914 1.350 . S
N912 S910 1.610 . S
N912 C913 1.351 . S
C913 C907 1.428 . S
C913 N912 1.351 . S
C913 C914 1.434 . S
C914 C905 1.429 . S
C914 N911 1.350 . S
C914 C913 1.434 . S
C915 C916 1.369 . S
C915 C917 1.419 . S
C915 H919 0.930 . S
C916 C915 1.369 . S
C916 C925 1.429 . S
C917 C915 1.419 . S
C917 C918 1.363 . S
C917 H920 0.929 . S
C918 C917 1.363 . S
C918 C924 1.428 . S
H919 C915 0.930 . S
H920 C917 0.929 . S
S921 N922 1.613 . S
S921 N923 1.610 . S
N922 S921 1.613 . S
N922 C925 1.350 . S
N923 S921 1.610 . S
N923 C924 1.351 . S
C924 C918 1.428 . S
C924 N923 1.351 . S
C924 C925 1.434 . S
C925 C916 1.429 . S
C925 N922 1.350 . S
C925 C924 1.434 . S
C926 C927 1.369 . S
C926 C928 1.419 . S
C926 H930 0.930 . S
C927 C926 1.369 . S
C927 C936 1.429 . S
C928 C926 1.419 . S
C928 C929 1.363 . S
C928 H931 0.929 . S
C929 C928 1.363 . S
C929 C935 1.428 . S
H930 C926 0.930 . S
H931 C928 0.929 . S
S932 N933 1.613 . S
S932 N934 1.610 . S
N933 S932 1.613 . S
N933 C936 1.350 . S
N934 S932 1.610 . S
N934 C935 1.351 . S
C935 C929 1.428 . S
C935 N934 1.351 . S
C935 C936 1.434 . S
C936 C927 1.429 . S
C936 N933 1.350 . S
C936 C935 1.434 . S
C937 C938 1.369 . S
C937 C939 1.419 . S
C937 H941 0.930 . S
C938 C937 1.369 . S
C938 C947 1.429 . S
C939 C937 1.419 . S
C939 C940 1.363 . S
C939 H942 0.929 . S
C940 C939 1.363 . S
C940 C946 1.428 . S
H941 C937 0.930 . S
H942 C939 0.929 . S
S943 N944 1.613 . S
S943 N945 1.610 . S
N944 S943 1.613 . S
N944 C947 1.350 . S
N945 S943 1.610 . S
N945 C946 1.351 . S
C946 C940 1.428 . S
C946 N945 1.351 . S
C946 C947 1.434 . S
C947 C938 1.429 . S
C947 N944 1.350 . S
C947 C946 1.434 . S
C948 C949 1.369 . S
C948 C950 1.419 . S
C948 H952 0.930 . S
C949 C948 1.369 . S
C949 C958 1.429 . S
C950 C948 1.419 . S
C950 C951 1.363 . S
C950 H953 0.929 . S
C951 C950 1.363 . S
C951 C957 1.428 . S
H952 C948 0.930 . S
H953 C950 0.929 . S
S954 N955 1.613 . S
S954 N956 1.610 . S
N955 S954 1.613 . S
N955 C958 1.350 . S
N956 S954 1.610 . S
N956 C957 1.351 . S
C957 C951 1.428 . S
C957 N956 1.351 . S
C957 C958 1.434 . S
C958 C949 1.429 . S
C958 N955 1.350 . S
C958 C957 1.434 . S
C959 C960 1.369 . S
C959 C961 1.419 . S
C959 H963 0.930 . S
C960 C959 1.369 . S
C960 C969 1.429 . S
C961 C959 1.419 . S
C961 C962 1.363 . S
C961 H964 0.929 . S
C962 C961 1.363 . S
C962 C968 1.428 . S
H963 C959 0.930 . S
H964 C961 0.929 . S
S965 N966 1.613 . S
S965 N967 1.610 . S
N966 S965 1.613 . S
N966 C969 1.350 . S
N967 S965 1.610 . S
N967 C968 1.351 . S
C968 C962 1.428 . S
C968 N967 1.351 . S
C968 C969 1.434 . S
C969 C960 1.429 . S
C969 N966 1.350 . S
C969 C968 1.434 . S
C970 C971 1.369 . S
C970 C972 1.419 . S
C970 H974 0.930 . S
C971 C970 1.369 . S
C971 C980 1.429 . S
C972 C970 1.419 . S
C972 C973 1.363 . S
C972 H975 0.929 . S
C973 C972 1.363 . S
C973 C979 1.428 . S
H974 C970 0.930 . S
H975 C972 0.929 . S
S976 N977 1.613 . S
S976 N978 1.610 . S
N977 S976 1.613 . S
N977 C980 1.350 . S
N978 S976 1.610 . S
N978 C979 1.351 . S
C979 C973 1.428 . S
C979 N978 1.351 . S
C979 C980 1.434 . S
C980 C971 1.429 . S
C980 N977 1.350 . S
C980 C979 1.434 . S
C981 C982 1.369 . S
C981 C983 1.419 . S
C981 H985 0.930 . S
C982 C981 1.369 . S
C982 C991 1.429 . S
C983 C981 1.419 . S
C983 C984 1.363 . S
C983 H986 0.929 . S
C984 C983 1.363 . S
C984 C990 1.428 . S
H985 C981 0.930 . S
H986 C983 0.929 . S
S987 N988 1.613 . S
S987 N989 1.610 . S
N988 S987 1.613 . S
N988 C991 1.350 . S
N989 S987 1.610 . S
N989 C990 1.351 . S
C990 C984 1.428 . S
C990 N989 1.351 . S
C990 C991 1.434 . S
C991 C982 1.429 . S
C991 N988 1.350 . S
C991 C990 1.434 . S
C992 C993 1.369 . S
C992 C994 1.419 . S
C992 H996 0.930 . S
C993 C992 1.369 . S
C993 C1002 1.429 . S
C994 C992 1.419 . S
C994 C995 1.363 . S
C994 H997 0.929 . S
C995 C994 1.363 . S
C995 C1001 1.428 . S
H996 C992 0.930 . S
H997 C994 0.929 . S
S998 N999 1.613 . S
S998 N1000 1.610 . S
N999 S998 1.613 . S
N999 C1002 1.350 . S
N1000 S998 1.610 . S
N1000 C1001 1.351 . S
C1001 C995 1.428 . S
C1001 N1000 1.351 . S
C1001 C1002 1.434 . S
C1002 C993 1.429 . S
C1002 N999 1.350 . S
C1002 C1001 1.434 . S
C1003 C1004 1.369 . S
C1003 C1005 1.419 . S
C1003 H1007 0.930 . S
C1004 C1003 1.369 . S
C1004 C1013 1.429 . S
C1005 C1003 1.419 . S
C1005 C1006 1.363 . S
C1005 H1008 0.929 . S
C1006 C1005 1.363 . S
C1006 C1012 1.428 . S
H1007 C1003 0.930 . S
H1008 C1005 0.929 . S
S1009 N1010 1.613 . S
S1009 N1011 1.610 . S
N1010 S1009 1.613 . S
N1010 C1013 1.350 . S
N1011 S1009 1.610 . S
N1011 C1012 1.351 . S
C1012 C1006 1.428 . S
C1012 N1011 1.351 . S
C1012 C1013 1.434 . S
C1013 C1004 1.429 . S
C1013 N1010 1.350 . S
C1013 C1012 1.434 . S
C1014 C1015 1.369 . S
C1014 C1016 1.419 . S
C1014 H1018 0.930 . S
C1015 C1014 1.369 . S
C1015 C1024 1.429 . S
C1016 C1014 1.419 . S
C1016 C1017 1.363 . S
C1016 H1019 0.929 . S
C1017 C1016 1.363 . S
C1017 C1023 1.428 . S
H1018 C1014 0.930 . S
H1019 C1016 0.929 . S
S1020 N1021 1.613 . S
S1020 N1022 1.610 . S
N1021 S1020 1.613 . S
N1021 C1024 1.350 . S
N1022 S1020 1.610 . S
N1022 C1023 1.351 . S
C1023 C1017 1.428 . S
C1023 N1022 1.351 . S
C1023 C1024 1.434 . S
C1024 C1015 1.429 . S
C1024 N1021 1.350 . S
C1024 C1023 1.434 . S
C1025 C1026 1.369 . S
C1025 C1027 1.419 . S
C1025 H1029 0.930 . S
C1026 C1025 1.369 . S
C1026 C1035 1.429 . S
C1027 C1025 1.419 . S
C1027 C1028 1.363 . S
C1027 H1030 0.929 . S
C1028 C1027 1.363 . S
C1028 C1034 1.428 . S
H1029 C1025 0.930 . S
H1030 C1027 0.929 . S
S1031 N1032 1.613 . S
S1031 N1033 1.610 . S
N1032 S1031 1.613 . S
N1032 C1035 1.350 . S
N1033 S1031 1.610 . S
N1033 C1034 1.351 . S
C1034 C1028 1.428 . S
C1034 N1033 1.351 . S
C1034 C1035 1.434 . S
C1035 C1026 1.429 . S
C1035 N1032 1.350 . S
C1035 C1034 1.434 . S
C1036 C1037 1.369 . S
C1036 C1038 1.419 . S
C1036 H1040 0.930 . S
C1037 C1036 1.369 . S
C1037 C1046 1.429 . S
C1038 C1036 1.419 . S
C1038 C1039 1.363 . S
C1038 H1041 0.929 . S
C1039 C1038 1.363 . S
C1039 C1045 1.428 . S
H1040 C1036 0.930 . S
H1041 C1038 0.929 . S
S1042 N1043 1.613 . S
S1042 N1044 1.610 . S
N1043 S1042 1.613 . S
N1043 C1046 1.350 . S
N1044 S1042 1.610 . S
N1044 C1045 1.351 . S
C1045 C1039 1.428 . S
C1045 N1044 1.351 . S
C1045 C1046 1.434 . S
C1046 C1037 1.429 . S
C1046 N1043 1.350 . S
C1046 C1045 1.434 . S
C1047 C1048 1.369 . S
C1047 C1049 1.419 . S
C1047 H1051 0.930 . S
C1048 C1047 1.369 . S
C1048 C1057 1.429 . S
C1049 C1047 1.419 . S
C1049 C1050 1.363 . S
C1049 H1052 0.929 . S
C1050 C1049 1.363 . S
C1050 C1056 1.428 . S
H1051 C1047 0.930 . S
H1052 C1049 0.929 . S
S1053 N1054 1.613 . S
S1053 N1055 1.610 . S
N1054 S1053 1.613 . S
N1054 C1057 1.350 . S
N1055 S1053 1.610 . S
N1055 C1056 1.351 . S
C1056 C1050 1.428 . S
C1056 N1055 1.351 . S
C1056 C1057 1.434 . S
C1057 C1048 1.429 . S
C1057 N1054 1.350 . S
C1057 C1056 1.434 . S
C1058 C1059 1.369 . S
C1058 C1060 1.419 . S
C1058 H1062 0.930 . S
C1059 C1058 1.369 . S
C1059 C1068 1.429 . S
C1060 C1058 1.419 . S
C1060 C1061 1.363 . S
C1060 H1063 0.929 . S
C1061 C1060 1.363 . S
C1061 C1067 1.428 . S
H1062 C1058 0.930 . S
H1063 C1060 0.929 . S
S1064 N1065 1.613 . S
S1064 N1066 1.610 . S
N1065 S1064 1.613 . S
N1065 C1068 1.350 . S
N1066 S1064 1.610 . S
N1066 C1067 1.351 . S
C1067 C1061 1.428 . S
C1067 N1066 1.351 . S
C1067 C1068 1.434 . S
C1068 C1059 1.429 . S
C1068 N1065 1.350 . S
C1068 C1067 1.434 . S
C1069 C1070 1.369 . S
C1069 C1071 1.419 . S
C1069 H1073 0.930 . S
C1070 C1069 1.369 . S
C1070 C1079 1.429 . S
C1071 C1069 1.419 . S
C1071 C1072 1.363 . S
C1071 H1074 0.929 . S
C1072 C1071 1.363 . S
C1072 C1078 1.428 . S
H1073 C1069 0.930 . S
H1074 C1071 0.929 . S
S1075 N1076 1.613 . S
S1075 N1077 1.610 . S
N1076 S1075 1.613 . S
N1076 C1079 1.350 . S
N1077 S1075 1.610 . S
N1077 C1078 1.351 . S
C1078 C1072 1.428 . S
C1078 N1077 1.351 . S
C1078 C1079 1.434 . S
C1079 C1070 1.429 . S
C1079 N1076 1.350 . S
C1079 C1078 1.434 . S
C465 C245 1.851 1_565 S
C467 C13 1.857 1_545 S
C476 C42 1.858 . S
C478 C274 1.851 . S
C487 C303 1.859 . S
C489 C71 1.852 . S
C498 C100 1.857 1_455 S
C500 C332 1.849 1_655 S
C509 C129 1.853 1_565 S
C511 C361 1.856 1_545 S
C520 C158 1.850 . S
C522 C390 1.858 . S
C531 C419 1.850 . S
C533 C187 1.858 . S
C542 C448 1.846 1_455 S
C544 C216 1.857 1_655 S
C553 C15 2.915 . S
C555 C37 2.372 . S
C564 C66 2.373 . S
C566 C44 2.915 . S
C575 C95 2.364 1_655 S
C577 C73 2.914 . S
C586 C8 2.368 1_565 S
C588 C102 2.914 . S
C597 C211 2.372 1_455 S
C599 C131 2.914 . S
C608 C124 2.370 1_545 S
C610 C160 2.914 . S
C619 C189 2.914 . S
C621 C153 2.369 . S
C630 C218 2.914 . S
C632 C182 2.371 . S
C641 C269 2.367 . S
C643 C247 2.914 . S
C652 C276 2.914 . S
C654 C298 2.370 . S
C663 C327 2.365 1_455 S
C665 C305 2.914 . S
C674 C240 2.368 1_545 S
C676 C334 2.914 . S
C685 C443 2.371 1_655 S
C687 C363 2.914 . S
C696 C356 2.363 1_565 S
C698 C392 2.914 . S
C707 C385 2.363 . S
C709 C421 2.914 . S
C718 C414 2.373 . S
C720 C450 2.915 . S
C729 C266 1.197 . S
C731 C3 1.282 . S
C740 C295 1.203 . S
C742 C32 1.282 . S
C751 C324 1.207 . S
C753 C61 1.281 . S
C762 C237 1.209 . S
C764 C90 1.281 . S
C773 C440 1.203 . S
C775 C119 1.282 . S
C784 C353 1.196 . S
C786 C148 1.280 . S
C795 C177 1.280 . S
C797 C382 1.199 . S
C806 C411 1.210 . S
C808 C206 1.280 . S
C817 C235 1.279 . S
C819 C34 1.207 . S
C828 C264 1.280 . S
C830 C63 1.199 . S
C839 C293 1.282 . S
C841 C92 1.202 . S
C850 C5 1.200 . S
C852 C322 1.282 . S
C861 C351 1.280 . S
C863 C208 1.208 . S
C872 C121 1.195 . S
C874 C380 1.281 . S
C883 C409 1.281 . S
C885 C150 1.206 . S
C894 C438 1.281 . S
C896 C179 1.197 . S
C905 C155 1.843 . S
C907 C10 1.853 . S
C916 C184 1.855 . S
C918 C39 1.846 . S
C927 C213 1.855 . S
C929 C68 1.846 . S
C938 C126 1.843 . S
C940 C97 1.850 . S
C949 C387 1.846 . S
C951 C242 1.846 . S
C960 C271 1.850 . S
C962 C416 1.845 . S
C971 C300 1.855 . S
C973 C445 1.846 . S
C982 C329 1.845 . S
C984 C358 1.847 . S
C993 C79 0.952 . S
C995 C21 0.930 . S
C1004 C50 0.936 . S
C1006 C108 0.944 . S
C1015 C195 0.952 . S
C1017 C137 0.932 . S
C1026 C224 0.943 . S
C1028 C166 0.939 . S
C1037 C253 0.947 . S
C1039 C311 0.933 . S
C1048 C340 0.946 . S
C1050 C282 0.933 . S
C1059 C427 0.940 . S
C1061 C369 0.937 . S
C1070 C456 0.947 . S
C1072 C398 0.938 . S
