# Generated by pormake.
# Topology skb, (5)-cn, num edge types: 1
# Building blocks:
#     Node 0, Type 0, BuildingBlock: BEQFEK_clean_sbu_0, # of connection points: 5
#     Node 1, Type 0, BuildingBlock: BEQFEK_clean_sbu_0, # of connection points: 5
#     Node 2, Type 0, BuildingBlock: BEQFEK_clean_sbu_0, # of connection points: 5
#     Node 3, Type 0, BuildingBlock: BEQFEK_clean_sbu_0, # of connection points: 5
#     Node 4, Type 0, BuildingBlock: BEQFEK_clean_sbu_0, # of connection points: 5
#     Node 5, Type 0, BuildingBlock: BEQFEK_clean_sbu_0, # of connection points: 5
#     Node 6, Type 0, BuildingBlock: BEQFEK_clean_sbu_0, # of connection points: 5
#     Node 7, Type 0, BuildingBlock: BEQFEK_clean_sbu_0, # of connection points: 5
#     Node 8, Type 0, BuildingBlock: BEQFEK_clean_sbu_0, # of connection points: 5
#     Node 9, Type 0, BuildingBlock: BEQFEK_clean_sbu_0, # of connection points: 5
#     Node 10, Type 0, BuildingBlock: BEQFEK_clean_sbu_0, # of connection points: 5
#     Node 11, Type 0, BuildingBlock: BEQFEK_clean_sbu_0, # of connection points: 5
#     Node 12, Type 0, BuildingBlock: BEQFEK_clean_sbu_0, # of connection points: 5
#     Node 13, Type 0, BuildingBlock: BEQFEK_clean_sbu_0, # of connection points: 5
#     Node 14, Type 0, BuildingBlock: BEQFEK_clean_sbu_0, # of connection points: 5
#     Node 15, Type 0, BuildingBlock: BEQFEK_clean_sbu_0, # of connection points: 5
#     Edge 16, Type (0, 0), BuildingBlock: XUDNAN_clean_linker_2, # of connection points: 2
#     Edge 17, Type (0, 0), BuildingBlock: XUDNAN_clean_linker_2, # of connection points: 2
#     Edge 18, Type (0, 0), BuildingBlock: XUDNAN_clean_linker_2, # of connection points: 2
#     Edge 19, Type (0, 0), BuildingBlock: XUDNAN_clean_linker_2, # of connection points: 2
#     Edge 20, Type (0, 0), BuildingBlock: XUDNAN_clean_linker_2, # of connection points: 2
#     Edge 21, Type (0, 0), BuildingBlock: XUDNAN_clean_linker_2, # of connection points: 2
#     Edge 22, Type (0, 0), BuildingBlock: XUDNAN_clean_linker_2, # of connection points: 2
#     Edge 23, Type (0, 0), BuildingBlock: XUDNAN_clean_linker_2, # of connection points: 2
#     Edge 24, Type (0, 0), BuildingBlock: XUDNAN_clean_linker_2, # of connection points: 2
#     Edge 25, Type (0, 0), BuildingBlock: XUDNAN_clean_linker_2, # of connection points: 2
#     Edge 26, Type (0, 0), BuildingBlock: XUDNAN_clean_linker_2, # of connection points: 2
#     Edge 27, Type (0, 0), BuildingBlock: XUDNAN_clean_linker_2, # of connection points: 2
#     Edge 28, Type (0, 0), BuildingBlock: XUDNAN_clean_linker_2, # of connection points: 2
#     Edge 29, Type (0, 0), BuildingBlock: XUDNAN_clean_linker_2, # of connection points: 2
#     Edge 30, Type (0, 0), BuildingBlock: XUDNAN_clean_linker_2, # of connection points: 2
#     Edge 31, Type (0, 0), BuildingBlock: XUDNAN_clean_linker_2, # of connection points: 2
#     Edge 32, Type (0, 0), BuildingBlock: XUDNAN_clean_linker_2, # of connection points: 2
#     Edge 33, Type (0, 0), BuildingBlock: XUDNAN_clean_linker_2, # of connection points: 2
#     Edge 34, Type (0, 0), BuildingBlock: XUDNAN_clean_linker_2, # of connection points: 2
#     Edge 35, Type (0, 0), BuildingBlock: XUDNAN_clean_linker_2, # of connection points: 2
#     Edge 36, Type (0, 0), BuildingBlock: XUDNAN_clean_linker_2, # of connection points: 2
#     Edge 37, Type (0, 0), BuildingBlock: XUDNAN_clean_linker_2, # of connection points: 2
#     Edge 38, Type (0, 0), BuildingBlock: XUDNAN_clean_linker_2, # of connection points: 2
#     Edge 39, Type (0, 0), BuildingBlock: XUDNAN_clean_linker_2, # of connection points: 2
#     Edge 40, Type (0, 0), BuildingBlock: XUDNAN_clean_linker_2, # of connection points: 2
#     Edge 41, Type (0, 0), BuildingBlock: XUDNAN_clean_linker_2, # of connection points: 2
#     Edge 42, Type (0, 0), BuildingBlock: XUDNAN_clean_linker_2, # of connection points: 2
#     Edge 43, Type (0, 0), BuildingBlock: XUDNAN_clean_linker_2, # of connection points: 2
#     Edge 44, Type (0, 0), BuildingBlock: XUDNAN_clean_linker_2, # of connection points: 2
#     Edge 45, Type (0, 0), BuildingBlock: XUDNAN_clean_linker_2, # of connection points: 2
#     Edge 46, Type (0, 0), BuildingBlock: XUDNAN_clean_linker_2, # of connection points: 2
#     Edge 47, Type (0, 0), BuildingBlock: XUDNAN_clean_linker_2, # of connection points: 2
#     Edge 48, Type (0, 0), BuildingBlock: XUDNAN_clean_linker_2, # of connection points: 2
#     Edge 49, Type (0, 0), BuildingBlock: XUDNAN_clean_linker_2, # of connection points: 2
#     Edge 50, Type (0, 0), BuildingBlock: XUDNAN_clean_linker_2, # of connection points: 2
#     Edge 51, Type (0, 0), BuildingBlock: XUDNAN_clean_linker_2, # of connection points: 2
#     Edge 52, Type (0, 0), BuildingBlock: XUDNAN_clean_linker_2, # of connection points: 2
#     Edge 53, Type (0, 0), BuildingBlock: XUDNAN_clean_linker_2, # of connection points: 2
#     Edge 54, Type (0, 0), BuildingBlock: XUDNAN_clean_linker_2, # of connection points: 2
#     Edge 55, Type (0, 0), BuildingBlock: XUDNAN_clean_linker_2, # of connection points: 2
# Relax obj value: 0.050
# Max RMSD: 0.094
# Mean RMSD: 0.094
data_MOF--net-skb--node1-BEQFEK_clean_sbu_0--edge1-XUDNAN_clean_linker_2
_symmetry_space_group_name_H-M    P1
_symmetry_Int_Tables_number       1
_symmetry_cell_setting            triclinic
loop_
_symmetry_equiv_pos_as_xyz
'x, y, z'
_cell_length_a     40.283007
_cell_length_b     30.279442
_cell_length_c     76.471809
_cell_angle_alpha  89.933799
_cell_angle_beta   89.954729
_cell_angle_gamma 89.970936
loop_
_atom_site_label
_atom_site_type_symbol
_atom_site_fract_x
_atom_site_fract_y
_atom_site_fract_z
_atom_type_partial_charge
Co0 Co 0.18605 0.04738 0.10716 0.0
Co1 Co 0.19174 0.0316 0.14803 0.0
C2 C 0.2148 0.11575 0.13184 0.0
O3 O 0.20615 0.10345 0.11655 0.0
O4 O 0.21098 0.09057 0.145 0.0
C5 C 0.21938 0.05868 0.07494 0.0
O6 O 0.24345 0.06752 0.08598 0.0
C7 C 0.21716 0.02788 0.18429 0.0
C8 C 0.17989 0.9855 0.19722 0.0
C9 C 0.20821 0.01014 0.2004 0.0
N10 N 0.19499 0.0147 0.17222 0.0
N11 N 0.17282 0.98928 0.18006 0.0
C12 C 0.24704 0.05529 0.18021 0.0
H13 H 0.25459 0.05059 0.16638 0.0
H14 H 0.26795 0.04651 0.18901 0.0
H15 H 0.24087 0.09058 0.18223 0.0
C16 C 0.21591 0.9577 0.10772 0.0
N17 N 0.208 0.99569 0.11591 0.0
N18 N 0.21151 0.98994 0.13289 0.0
C19 C 0.22227 0.94854 0.136 0.0
C20 C 0.2251 0.92649 0.12015 0.0
C21 C 0.21146 0.95014 0.08851 0.0
H22 H 0.22998 0.97011 0.08128 0.0
H23 H 0.21518 0.91505 0.08488 0.0
H24 H 0.18633 0.96109 0.08446 0.0
O25 O 0.13797 0.04389 0.11387 0.0
O26 O 0.14413 0.03419 0.14252 0.0
H27 H 0.23653 0.89586 0.15377 0.0
H28 H 0.23718 0.95081 0.16285 0.0
C29 C 0.22383 0.92832 0.15385 0.0
H30 H 0.19822 0.92359 0.15884 0.0
H31 H 0.15254 0.97504 0.17374 0.0
O32 O 0.19084 0.04922 0.08103 0.0
C33 C 0.12564 0.03846 0.12912 0.0
Co34 Co 0.82339 0.99747 0.10499 0.0
Co35 Co 0.81549 0.01152 0.14525 0.0
C36 C 0.79163 0.92843 0.12785 0.0
O37 O 0.80112 0.94129 0.11277 0.0
O38 O 0.79562 0.95278 0.14125 0.0
C39 C 0.80036 0.98977 0.06916 0.0
O40 O 0.77116 0.98094 0.07598 0.0
C41 C 0.79012 0.01098 0.18135 0.0
C42 C 0.82577 0.05515 0.19456 0.0
C43 C 0.79888 0.02777 0.19752 0.0
N44 N 0.81112 0.0272 0.16931 0.0
N45 N 0.8323 0.05375 0.1773 0.0
C46 C 0.76196 0.98048 0.17748 0.0
H47 H 0.75377 0.98424 0.16371 0.0
H48 H 0.74081 0.98709 0.18642 0.0
H49 H 0.77029 0.94607 0.1797 0.0
C50 C 0.79286 0.08752 0.10511 0.0
N51 N 0.80118 0.04958 0.11328 0.0
N52 N 0.79733 0.05499 0.13024 0.0
C53 C 0.78619 0.09624 0.13339 0.0
C54 C 0.78325 0.11853 0.11756 0.0
C55 C 0.79622 0.09482 0.08582 0.0
H56 H 0.77896 0.07239 0.0789 0.0
H57 H 0.79001 0.12915 0.08198 0.0
H58 H 0.82189 0.08679 0.08162 0.0
O59 O 0.87079 0.99897 0.11281 0.0
O60 O 0.86347 0.00835 0.14127 0.0
H61 H 0.77073 0.14799 0.15133 0.0
H62 H 0.77061 0.09272 0.16015 0.0
C63 C 0.78383 0.11585 0.15132 0.0
H64 H 0.80923 0.12109 0.15648 0.0
H65 H 0.85182 0.06999 0.17103 0.0
O66 O 0.82482 0.99759 0.07917 0.0
C67 C 0.88253 1.00382 0.12815 0.0
Co68 Co 0.19199 0.01446 0.91445 0.0
Co69 Co 0.18472 1.00476 0.87343 0.0
C70 C 0.20776 0.92922 0.8954 0.0
O71 O 0.205 0.95295 0.90908 0.0
O72 O 0.20119 0.94474 0.88028 0.0
C73 C 0.2283 0.01811 0.94704 0.0
O74 O 0.25307 1.00413 0.93732 0.0
C75 C 0.20172 0.99142 0.83601 0.0
C76 C 0.16629 0.03709 0.82334 0.0
C77 C 0.19215 0.00828 0.81986 0.0
N78 N 0.18246 0.00973 0.84845 0.0
N79 N 0.16106 0.03649 0.84072 0.0
C80 C 0.23059 0.96185 0.8398 0.0
H81 H 0.24056 0.96871 0.85305 0.0
H82 H 0.25046 0.96627 0.82989 0.0
H83 H 0.22213 0.92699 0.83943 0.0
C84 C 0.23156 0.0923 0.90348 0.0
N85 N 0.21481 0.05493 0.89982 0.0
N86 N 0.2123 0.05064 0.88272 0.0
C87 C 0.22775 0.08511 0.87501 0.0
C88 C 0.2404 0.11254 0.88789 0.0
C89 C 0.2353 0.11106 0.92148 0.0
H90 H 0.21253 0.10475 0.92923 0.0
H91 H 0.25652 0.0947 0.92807 0.0
H92 H 0.24007 0.14714 0.92108 0.0
O93 O 0.14409 0.02151 0.91072 0.0
O94 O 0.13828 0.01335 0.88204 0.0
H95 H 0.20454 0.10122 0.85072 0.0
H96 H 0.24702 0.11966 0.85236 0.0
C97 C 0.22956 0.09259 0.85569 0.0
H98 H 0.238 0.06197 0.84915 0.0
H99 H 0.1435 0.05542 0.8474 0.0
O100 O 0.2003 0.02525 0.93991 0.0
C101 C 0.12589 0.02022 0.89714 0.0
Co102 Co 0.81479 0.05012 0.90593 0.0
Co103 Co 0.82712 0.04681 0.86562 0.0
C104 C 0.79086 0.12292 0.88367 0.0
O105 O 0.79238 0.10633 0.89898 0.0
O106 O 0.80346 0.10301 0.87058 0.0
C107 C 0.78887 0.04463 0.94262 0.0
O108 O 0.75927 0.05781 0.93766 0.0
C109 C 0.80121 0.04031 0.83022 0.0
C110 C 0.84654 0.03363 0.81414 0.0
C111 C 0.81225 0.03561 0.81318 0.0
N112 N 0.8277 0.04078 0.84085 0.0
N113 N 0.85478 0.03707 0.83117 0.0
C114 C 0.7662 0.04695 0.83626 0.0
H115 H 0.76501 0.04921 0.85072 0.0
H116 H 0.75028 0.01936 0.83178 0.0
H117 H 0.75623 0.07776 0.83039 0.0
C118 C 0.78471 0.96187 0.89841 0.0
N119 N 0.79916 0.99997 0.89328 0.0
N120 N 0.80516 0.99802 0.87635 0.0
C121 C 0.7948 0.95856 0.87025 0.0
C122 C 0.78133 0.93458 0.88397 0.0
C123 C 0.77451 0.95182 0.91679 0.0
H124 H 0.75639 0.97702 0.92122 0.0
H125 H 0.76311 0.91859 0.91793 0.0
H126 H 0.79654 0.95368 0.92546 0.0
O127 O 0.86324 0.05562 0.90234 0.0
O128 O 0.87355 0.04999 0.87397 0.0
H129 H 0.80059 0.90565 0.8516 0.0
H130 H 0.77919 0.9536 0.84365 0.0
C131 C 0.80002 0.94229 0.85198 0.0
H132 H 0.8236 0.95535 0.8466 0.0
H133 H 0.87887 0.03669 0.83619 0.0
O134 O 0.8119 0.04009 0.93141 0.0
C135 C 0.88363 0.05421 0.88964 0.0
Co136 Co 0.1882 0.54969 0.60519 0.0
Co137 Co 0.17915 0.53892 0.64622 0.0
C138 C 0.21286 0.61831 0.63002 0.0
O139 O 0.2094 0.60431 0.6144 0.0
O140 O 0.20232 0.59614 0.64308 0.0
C141 C 0.22231 0.55321 0.57178 0.0
O142 O 0.24793 0.56447 0.58142 0.0
C143 C 0.19915 0.5316 0.68364 0.0
C144 C 0.15372 0.50289 0.6951 0.0
C145 C 0.18534 0.51737 0.69946 0.0
N146 N 0.17664 0.52562 0.6708 0.0
N147 N 0.14955 0.50862 0.67781 0.0
C148 C 0.23359 0.54805 0.68035 0.0
H149 H 0.23997 0.54495 0.66627 0.0
H150 H 0.25177 0.52926 0.68832 0.0
H151 H 0.23505 0.58345 0.684 0.0
C152 C 0.21873 0.46111 0.60999 0.0
N153 N 0.20503 0.49823 0.61651 0.0
N154 N 0.20114 0.49355 0.63354 0.0
C155 C 0.21224 0.45332 0.63835 0.0
C156 C 0.22387 0.43161 0.6236 0.0
C157 C 0.22355 0.45219 0.59091 0.0
H158 H 0.20126 0.46285 0.58353 0.0
H159 H 0.24522 0.4713 0.58614 0.0
H160 H 0.22799 0.41664 0.58831 0.0
O161 O 0.13986 0.55279 0.60909 0.0
O162 O 0.13268 0.54384 0.63768 0.0
H163 H 0.18526 0.43578 0.66142 0.0
H164 H 0.22176 0.40217 0.65762 0.0
C165 C 0.21128 0.43595 0.65667 0.0
H166 H 0.22584 0.4581 0.66525 0.0
H167 H 0.12818 0.50078 0.67076 0.0
O168 O 0.19461 0.54598 0.57922 0.0
C169 C 0.12095 0.54955 0.62238 0.0
Co170 Co 0.81345 0.51288 0.60213 0.0
Co171 Co 0.81731 0.50001 0.64266 0.0
C172 C 0.79501 0.42643 0.62018 0.0
O173 O 0.79835 0.45137 0.60686 0.0
O174 O 0.80165 0.44043 0.63548 0.0
C175 C 0.78267 0.50634 0.56863 0.0
O176 O 0.76203 0.48037 0.57708 0.0
C177 C 0.79842 0.48381 0.67952 0.0
C178 C 0.82774 0.53531 0.69294 0.0
C179 C 0.80444 0.50249 0.69578 0.0
N180 N 0.81727 0.50486 0.6676 0.0
N181 N 0.83506 0.53513 0.67577 0.0
C182 C 0.77278 0.4499 0.67506 0.0
H183 H 0.76209 0.45678 0.66197 0.0
H184 H 0.75263 0.44922 0.68496 0.0
H185 H 0.78475 0.4169 0.67465 0.0
C186 C 0.78184 0.59627 0.61345 0.0
N187 N 0.79252 0.55485 0.61651 0.0
N188 N 0.78955 0.5458 0.6332 0.0
C189 C 0.7736 0.57944 0.64108 0.0
C190 C 0.76901 0.61389 0.62901 0.0
C191 C 0.78939 0.61996 0.5967 0.0
H192 H 0.80939 0.60276 0.58944 0.0
H193 H 0.76685 0.62059 0.58837 0.0
H194 H 0.79763 0.65429 0.59928 0.0
O195 O 0.86056 0.51728 0.60613 0.0
O196 O 0.86507 0.50972 0.6349 0.0
H197 H 0.77976 0.58749 0.66874 0.0
H198 H 0.73779 0.59647 0.66102 0.0
C199 C 0.76054 0.57623 0.65938 0.0
H200 H 0.7543 0.54146 0.66248 0.0
H201 H 0.85128 0.55685 0.6695 0.0
O202 O 0.80592 0.52513 0.577 0.0
C203 C 0.87815 0.51629 0.61988 0.0
Co204 Co 0.17745 0.49816 0.4128 0.0
Co205 Co 0.19211 0.5128 0.3723 0.0
C206 C 0.2054 0.4263 0.38945 0.0
O207 O 0.19607 0.44018 0.40441 0.0
O208 O 0.20492 0.45126 0.37606 0.0
C209 C 0.20914 0.49285 0.44509 0.0
O210 O 0.2335 0.48621 0.43395 0.0
C211 C 0.21983 0.50981 0.33613 0.0
C212 C 0.19799 0.56984 0.32445 0.0
C213 C 0.21786 0.53378 0.3206 0.0
N214 N 0.20167 0.53051 0.34848 0.0
N215 N 0.18878 0.56644 0.34135 0.0
C216 C 0.2399 0.4691 0.33945 0.0
H217 H 0.24987 0.46956 0.35297 0.0
H218 H 0.26078 0.46643 0.33004 0.0
H219 H 0.2237 0.43974 0.33802 0.0
C220 C 0.21109 0.58442 0.41353 0.0
N221 N 0.20287 0.54722 0.40499 0.0
N222 N 0.21315 0.55003 0.38873 0.0
C223 C 0.23079 0.58745 0.38673 0.0
C224 C 0.22978 0.61131 0.40239 0.0
C225 C 0.1954 0.59718 0.43059 0.0
H226 H 0.17196 0.57868 0.43261 0.0
H227 H 0.21262 0.58932 0.44147 0.0
H228 H 0.18956 0.63297 0.43091 0.0
O229 O 0.1315 0.50588 0.40392 0.0
O230 O 0.14304 0.51762 0.37577 0.0
H231 H 0.23172 0.61801 0.3615 0.0
H232 H 0.27099 0.61912 0.37292 0.0
C233 C 0.24857 0.59902 0.37016 0.0
H234 H 0.25611 0.5685 0.36319 0.0
H235 H 0.17337 0.58847 0.348 0.0
O236 O 0.17988 0.49751 0.43907 0.0
C237 C 0.12216 0.51427 0.3883 0.0
Co238 Co 0.81797 0.53498 0.40495 0.0
Co239 Co 0.81246 0.5425 0.36416 0.0
C240 C 0.78675 0.61421 0.38722 0.0
O241 O 0.79657 0.59241 0.40048 0.0
O242 O 0.79044 0.59901 0.37179 0.0
C243 C 0.82093 0.54762 0.44282 0.0
O244 O 0.83744 0.58413 0.43957 0.0
C245 C 0.78573 0.5511 0.32841 0.0
C246 C 0.82265 0.51315 0.31318 0.0
C247 C 0.79335 0.53672 0.31165 0.0
N248 N 0.80945 0.53655 0.33936 0.0
N249 N 0.8316 0.51429 0.33013 0.0
C250 C 0.7554 0.57558 0.33418 0.0
H251 H 0.74814 0.56494 0.34754 0.0
H252 H 0.73448 0.57011 0.325 0.0
H253 H 0.76106 0.61143 0.33459 0.0
C254 C 0.78888 0.44814 0.39783 0.0
N255 N 0.79701 0.48898 0.3924 0.0
N256 N 0.79466 0.491 0.37527 0.0
C257 C 0.78523 0.45087 0.36926 0.0
C258 C 0.78162 0.42222 0.38339 0.0
C259 C 0.79025 0.43347 0.4165 0.0
H260 H 0.77412 0.45539 0.42438 0.0
H261 H 0.78147 0.39901 0.41818 0.0
H262 H 0.81605 0.43648 0.42143 0.0
O263 O 0.86583 0.53742 0.39848 0.0
O264 O 0.86058 0.54535 0.3697 0.0
H265 H 0.81056 0.43712 0.34536 0.0
H266 H 0.77308 0.40558 0.34832 0.0
C267 C 0.78472 0.43835 0.35035 0.0
H268 H 0.77084 0.46355 0.34278 0.0
H269 H 0.85255 0.49914 0.33548 0.0
O270 O 0.81211 0.52298 0.43022 0.0
C271 C 0.87866 0.54224 0.38333 0.0
Co272 Co 0.67219 0.04337 0.60735 0.0
Co273 Co 0.68369 0.05407 0.6475 0.0
C274 C 0.70976 0.12158 0.62401 0.0
O275 O 0.69763 0.09944 0.61132 0.0
O276 O 0.70706 0.10809 0.63975 0.0
C277 C 0.69484 0.02324 0.57183 0.0
O278 O 0.7246 0.01706 0.57842 0.0
C279 C 0.70721 0.05192 0.68487 0.0
C280 C 0.664 0.01747 0.69634 0.0
C281 C 0.69504 0.03405 0.70048 0.0
N282 N 0.68443 0.04508 0.67224 0.0
N283 N 0.65859 0.02509 0.67933 0.0
C284 C 0.74045 0.07228 0.68157 0.0
H285 H 0.74531 0.07502 0.66732 0.0
H286 H 0.76024 0.05234 0.68788 0.0
H287 H 0.74093 0.10596 0.68726 0.0
C288 C 0.69425 0.95184 0.61607 0.0
N289 N 0.69042 0.99506 0.61981 0.0
N290 N 0.6998 1.00226 0.63599 0.0
C291 C 0.71254 0.96478 0.64264 0.0
C292 C 0.70855 0.93059 0.6305 0.0
C293 C 0.67996 0.93105 0.6 0.0
H294 H 0.6607 0.95274 0.59419 0.0
H295 H 0.69997 0.92618 0.59021 0.0
H296 H 0.66866 0.89858 0.60313 0.0
O297 O 0.6261 0.05095 0.61457 0.0
O298 O 0.63507 0.06058 0.64284 0.0
H299 H 0.7126 0.95833 0.67054 0.0
H300 H 0.74941 0.93659 0.65993 0.0
C301 C 0.73059 0.96334 0.65973 0.0
H302 H 0.74354 0.99508 0.66186 0.0
H303 H 0.63757 0.01524 0.6724 0.0
O304 O 0.67083 0.03298 0.58189 0.0
C305 C 0.6153 0.05795 0.6299 0.0
Co306 Co 0.31572 0.99913 0.60803 0.0
Co307 Co 0.30665 0.01199 0.64891 0.0
C308 C 0.29297 0.92516 0.63152 0.0
O309 O 0.30004 0.93959 0.61629 0.0
O310 O 0.29454 0.9501 0.64486 0.0
C311 C 0.28878 0.98461 0.57418 0.0
O312 O 0.26497 0.96785 0.58388 0.0
C313 C 0.2789 0.00616 0.68468 0.0
C314 C 0.30829 0.05657 0.69863 0.0
C315 C 0.28391 0.02492 0.70103 0.0
N316 N 0.29951 0.02567 0.67315 0.0
N317 N 0.31704 0.05571 0.68162 0.0
C318 C 0.25419 0.97138 0.67992 0.0
H319 H 0.24599 0.97576 0.66618 0.0
H320 H 0.23238 0.97259 0.68879 0.0
H321 H 0.26602 0.93846 0.68118 0.0
C322 C 0.27826 0.0832 0.60854 0.0
N323 N 0.28844 0.04612 0.6167 0.0
N324 N 0.28386 0.05089 0.63366 0.0
C325 C 0.27035 0.09087 0.63676 0.0
C326 C 0.26686 0.11308 0.62096 0.0
C327 C 0.28328 0.09205 0.58945 0.0
H328 H 0.30977 0.08703 0.58599 0.0
H329 H 0.26816 0.06844 0.5818 0.0
H330 H 0.2755 0.12593 0.58574 0.0
O331 O 0.36236 0.00985 0.61609 0.0
O332 O 0.35435 0.01915 0.64463 0.0
H333 H 0.29218 0.11991 0.65941 0.0
H334 H 0.25136 0.14056 0.65456 0.0
C335 C 0.26718 0.11063 0.65462 0.0
H336 H 0.25625 0.08611 0.66372 0.0
H337 H 0.33535 0.07524 0.67584 0.0
O338 O 0.31449 0.99974 0.58175 0.0
C339 C 0.3735 0.0179 0.63139 0.0
Co340 Co 0.6752 1.00239 0.4072 0.0
Co341 Co 0.68283 0.99616 0.36668 0.0
C342 C 0.70261 0.92064 0.38931 0.0
O343 O 0.69356 0.94262 0.40271 0.0
O344 O 0.70054 0.93712 0.37399 0.0
C345 C 0.69597 0.99947 0.4436 0.0
O346 O 0.72245 0.97847 0.43798 0.0
C347 C 0.70851 0.98763 0.33066 0.0
C348 C 0.67564 0.0347 0.31686 0.0
C349 C 0.7021 0.00624 0.31442 0.0
N350 N 0.68679 1.00459 0.34219 0.0
N351 N 0.66702 0.03229 0.33381 0.0
C352 C 0.73625 0.95716 0.33552 0.0
H353 H 0.74432 0.96357 0.34915 0.0
H354 H 0.75761 0.9611 0.32647 0.0
H355 H 0.72728 0.92257 0.33474 0.0
C356 C 0.7144 0.08416 0.40141 0.0
N357 N 0.70045 0.04641 0.39568 0.0
N358 N 0.70394 0.04386 0.37859 0.0
C359 C 0.7202 0.08015 0.37293 0.0
C360 C 0.72726 0.10682 0.38717 0.0
C361 C 0.71299 0.09972 0.41996 0.0
H362 H 0.68721 0.09682 0.42494 0.0
H363 H 0.72905 0.07823 0.42812 0.0
H364 H 0.72145 0.13444 0.42121 0.0
O365 O 0.62837 1.00553 0.39953 0.0
O366 O 0.63447 0.99875 0.37089 0.0
H367 H 0.70526 0.09886 0.34719 0.0
H368 H 0.74628 0.11741 0.35305 0.0
C369 C 0.72833 0.08976 0.35422 0.0
H370 H 0.73903 0.05994 0.34799 0.0
H371 H 0.64807 0.05032 0.33978 0.0
O372 O 0.67428 0.0125 0.43269 0.0
C373 C 0.61601 1.00323 0.38427 0.0
Co374 Co 0.31837 0.0506 0.41465 0.0
Co375 Co 0.30387 0.03364 0.37442 0.0
C376 C 0.28485 0.11848 0.39106 0.0
O377 O 0.29575 0.10644 0.40602 0.0
O378 O 0.28658 0.09303 0.37787 0.0
C379 C 0.28806 0.04928 0.44751 0.0
O380 O 0.26251 0.05132 0.43686 0.0
C381 C 0.27988 0.0321 0.33758 0.0
C382 C 0.30435 0.97192 0.32762 0.0
C383 C 0.28444 0.00694 0.32257 0.0
N384 N 0.29665 0.01312 0.35084 0.0
N385 N 0.31113 0.97707 0.34475 0.0
C386 C 0.25923 0.07283 0.33938 0.0
H387 H 0.24742 0.07376 0.35248 0.0
H388 H 0.23969 0.07418 0.32917 0.0
H389 H 0.27554 0.1021 0.33793 0.0
C390 C 0.29111 0.95972 0.41551 0.0
N391 N 0.29632 0.99821 0.40713 0.0
N392 N 0.28553 0.99471 0.39101 0.0
C393 C 0.27027 0.95557 0.38899 0.0
C394 C 0.2738 0.93111 0.40442 0.0
C395 C 0.3082 0.94831 0.43233 0.0
H396 H 0.32998 0.97005 0.43439 0.0
H397 H 0.29071 0.95285 0.44339 0.0
H398 H 0.31695 0.91356 0.43224 0.0
O399 O 0.36447 0.04791 0.40568 0.0
O400 O 0.35278 0.03499 0.3777 0.0
H401 H 0.26841 0.92593 0.36359 0.0
H402 H 0.23025 0.92178 0.37592 0.0
C403 C 0.25164 0.94346 0.37275 0.0
H404 H 0.24244 0.97371 0.36613 0.0
H405 H 0.32617 0.95634 0.35224 0.0
O406 O 0.31709 0.05075 0.44095 0.0
C407 C 0.37376 0.04062 0.38998 0.0
Co408 Co 0.68774 0.55062 0.10177 0.0
Co409 Co 0.68081 0.53774 0.14237 0.0
C410 C 0.70711 0.62246 0.12611 0.0
O411 O 0.70576 0.60762 0.11055 0.0
O412 O 0.69785 0.59893 0.13905 0.0
C413 C 0.71603 0.55438 0.06591 0.0
O414 O 0.74584 0.55872 0.07264 0.0
C415 C 0.70065 0.54217 0.17939 0.0
C416 C 0.66752 0.49295 0.19165 0.0
C417 C 0.69222 0.52333 0.19529 0.0
N418 N 0.68164 0.52409 0.16685 0.0
N419 N 0.66185 0.49472 0.17429 0.0
C420 C 0.72762 0.57504 0.17607 0.0
H421 H 0.73843 0.57001 0.16287 0.0
H422 H 0.74744 0.57224 0.18609 0.0
H423 H 0.71699 0.60876 0.17677 0.0
C424 C 0.72334 0.46458 0.1054 0.0
N425 N 0.70856 0.50065 0.11225 0.0
N426 N 0.70612 0.49566 0.12933 0.0
C427 C 0.7198 0.4566 0.13387 0.0
C428 C 0.7311 0.43562 0.11887 0.0
C429 C 0.72597 0.4553 0.08623 0.0
H430 H 0.70343 0.46726 0.0794 0.0
H431 H 0.7479 0.47279 0.08087 0.0
H432 H 0.72892 0.41946 0.08364 0.0
O433 O 0.63951 0.54738 0.1064 0.0
O434 O 0.63359 0.53563 0.13486 0.0
H435 H 0.69624 0.42863 0.1563 0.0
H436 H 0.73857 0.41065 0.15319 0.0
C437 C 0.72141 0.4392 0.15217 0.0
H438 H 0.72997 0.46561 0.16112 0.0
H439 H 0.64439 0.47592 0.16751 0.0
O440 O 0.69097 0.55031 0.0759 0.0
C441 C 0.62113 0.54071 0.1197 0.0
Co442 Co 0.31043 0.49584 0.10639 0.0
Co443 Co 0.31979 0.5087 0.14734 0.0
C444 C 0.29456 0.42331 0.13131 0.0
O445 O 0.2953 0.43808 0.11571 0.0
O446 O 0.30356 0.44712 0.14421 0.0
C447 C 0.29117 0.46794 0.07132 0.0
O448 O 0.28116 0.43168 0.07915 0.0
C449 C 0.29788 0.50694 0.18428 0.0
C450 C 0.33357 0.55186 0.197 0.0
C451 C 0.30644 0.52502 0.20039 0.0
N452 N 0.31907 0.52212 0.17204 0.0
N453 N 0.34038 0.54893 0.17977 0.0
C454 C 0.26857 0.47841 0.18026 0.0
H455 H 0.26025 0.48395 0.1666 0.0
H456 H 0.24782 0.48534 0.18941 0.0
H457 H 0.27582 0.44326 0.18168 0.0
C458 C 0.27213 0.57783 0.11089 0.0
N459 N 0.28863 0.54317 0.11768 0.0
N460 N 0.29274 0.54923 0.1346 0.0
C461 C 0.2789 0.58816 0.13909 0.0
C462 C 0.26546 0.6076 0.12423 0.0
C463 C 0.26719 0.58469 0.09167 0.0
H464 H 0.29171 0.58479 0.08506 0.0
H465 H 0.25261 0.55676 0.08629 0.0
H466 H 0.25429 0.61617 0.08874 0.0
O467 O 0.35859 0.50225 0.11018 0.0
O468 O 0.36655 0.51273 0.13864 0.0
H469 H 0.30604 0.61495 0.16059 0.0
H470 H 0.2648 0.63783 0.1581 0.0
C471 C 0.27994 0.60732 0.15711 0.0
H472 H 0.27037 0.58277 0.16661 0.0
H473 H 0.3595 0.56539 0.17327 0.0
O474 O 0.3036 0.49889 0.08044 0.0
C475 C 0.37782 0.50918 0.1231 0.0
Co476 Co 0.68635 0.50546 0.9025 0.0
Co477 Co 0.67598 0.50824 0.86192 0.0
C478 C 0.70455 0.42808 0.88082 0.0
O479 O 0.7048 0.44626 0.89585 0.0
O480 O 0.69371 0.44876 0.86748 0.0
C481 C 0.71428 0.50834 0.93862 0.0
O482 O 0.74242 0.49187 0.93288 0.0
C483 C 0.69897 0.49775 0.82584 0.0
C484 C 0.66169 0.53524 0.81073 0.0
C485 C 0.69029 0.5102 0.80902 0.0
N486 N 0.67644 0.51435 0.83702 0.0
N487 N 0.6541 0.53657 0.8279 0.0
C488 C 0.72968 0.47368 0.83133 0.0
H489 H 0.73651 0.48263 0.84493 0.0
H490 H 0.75059 0.48143 0.82238 0.0
H491 H 0.725 0.43764 0.83073 0.0
C492 C 0.71615 0.59339 0.89499 0.0
N493 N 0.70506 0.55347 0.88971 0.0
N494 N 0.7015 0.55387 0.8726 0.0
C495 C 0.71108 0.59356 0.86642 0.0
C496 C 0.72018 0.62039 0.88038 0.0
C497 C 0.717 0.60743 0.91376 0.0
H498 H 0.69288 0.59959 0.92004 0.0
H499 H 0.73661 0.58854 0.92067 0.0
H500 H 0.72196 0.64323 0.91522 0.0
O501 O 0.63781 0.50635 0.89865 0.0
O502 O 0.62906 0.51242 0.87011 0.0
H503 H 0.68284 0.61065 0.84374 0.0
H504 H 0.72266 0.63804 0.84507 0.0
C505 C 0.70922 0.60668 0.84757 0.0
H506 H 0.7204 0.58046 0.83936 0.0
H507 H 0.63387 0.553 0.83341 0.0
O508 O 0.69058 0.51527 0.928 0.0
C509 C 0.61809 0.51031 0.88573 0.0
Co510 Co 0.30799 0.53637 0.90767 0.0
Co511 Co 0.31524 0.55233 0.86698 0.0
C512 C 0.28353 0.61949 0.89132 0.0
O513 O 0.28788 0.59443 0.90447 0.0
O514 O 0.29266 0.6076 0.87604 0.0
C515 C 0.30859 0.53958 0.94583 0.0
O516 O 0.32251 0.57846 0.94372 0.0
C517 C 0.28534 0.54947 0.832 0.0
C518 C 0.32876 0.5534 0.81444 0.0
C519 C 0.29453 0.54865 0.81445 0.0
N520 N 0.31284 0.55368 0.84183 0.0
N521 N 0.33869 0.55646 0.83124 0.0
C522 C 0.25096 0.54806 0.83942 0.0
H523 H 0.25021 0.5652 0.85223 0.0
H524 H 0.24343 0.51328 0.84158 0.0
H525 H 0.23301 0.56352 0.83026 0.0
C526 C 0.28074 0.45279 0.89569 0.0
N527 N 0.28981 0.49457 0.89218 0.0
N528 N 0.29523 0.49883 0.87528 0.0
C529 C 0.29119 0.4589 0.86765 0.0
C530 C 0.2815 0.4286 0.88034 0.0
C531 C 0.27674 0.43462 0.91378 0.0
H532 H 0.26044 0.45677 0.92151 0.0
H533 H 0.26579 0.40099 0.91357 0.0
H534 H 0.30138 0.43314 0.92024 0.0
O535 O 0.35635 0.53994 0.90324 0.0
O536 O 0.36274 0.55139 0.87465 0.0
H537 H 0.30968 0.41218 0.84856 0.0
H538 H 0.28352 0.45498 0.84003 0.0
C539 C 0.30332 0.44774 0.84966 0.0
H540 H 0.32545 0.46785 0.84636 0.0
H541 H 0.36323 0.55953 0.83548 0.0
O542 O 0.30073 0.5171 0.9324 0.0
C543 C 0.37494 0.54557 0.8899 0.0
H544 H 0.21626 0.95052 0.22694 0.0
H545 H 0.23166 0.08827 0.21365 0.0
H546 H 0.25302 0.10231 0.24335 0.0
H547 H 0.18858 0.96815 0.27072 0.0
H548 H 0.20934 0.92038 0.27959 0.0
H549 H 0.19624 0.9207 0.25707 0.0
H550 H 0.25635 0.9033 0.24713 0.0
H551 H 0.26959 0.90261 0.26963 0.0
H552 H 0.28983 0.93856 0.25414 0.0
H553 H 0.27055 0.10204 0.27493 0.0
H554 H 0.28616 0.08651 0.30555 0.0
H555 H 0.26015 0.94876 0.29841 0.0
C556 C 0.22443 0.98353 0.23027 0.0
C557 C 0.22297 0.01811 0.21786 0.0
C558 C 0.23356 0.06096 0.22272 0.0
C559 C 0.24538 0.06937 0.23965 0.0
C560 C 0.24652 0.03455 0.25157 0.0
C561 C 0.23661 0.99238 0.24707 0.0
C562 C 0.24039 0.96081 0.26234 0.0
C563 C 0.20663 0.94138 0.26774 0.0
C564 C 0.26554 0.92416 0.25805 0.0
C565 C 0.2537 0.99188 0.27618 0.0
C566 C 0.25684 0.03433 0.26973 0.0
C567 C 0.26813 0.06895 0.28013 0.0
C568 C 0.2766 0.05991 0.29757 0.0
C569 C 0.27376 0.01662 0.30443 0.0
C570 C 0.26238 0.9822 0.29351 0.0
H571 H 0.77868 0.08301 0.22347 0.0
H572 H 0.78993 0.94463 0.21032 0.0
H573 H 0.76869 0.9236 0.23952 0.0
H574 H 0.80156 0.07453 0.26902 0.0
H575 H 0.771 0.11407 0.27621 0.0
H576 H 0.78835 0.11814 0.25454 0.0
H577 H 0.72922 0.11567 0.2412 0.0
H578 H 0.71171 0.11186 0.26282 0.0
H579 H 0.70195 0.07051 0.24668 0.0
H580 H 0.74687 0.91795 0.27033 0.0
H581 H 0.72116 0.92813 0.29951 0.0
H582 H 0.72178 0.06999 0.29179 0.0
C583 C 0.77668 0.04835 0.22682 0.0
C584 C 0.78556 0.01535 0.21474 0.0
C585 C 0.7826 0.97028 0.21938 0.0
C586 C 0.77089 0.95807 0.23596 0.0
C587 C 0.76213 0.99142 0.24761 0.0
C588 C 0.76453 0.03562 0.24319 0.0
C589 C 0.75201 0.06492 0.25777 0.0
C590 C 0.7799 0.09466 0.2648 0.0
C591 C 0.72193 0.09234 0.25176 0.0
C592 C 0.7421 0.03031 0.27105 0.0
C593 C 0.74859 0.98813 0.26508 0.0
C594 C 0.74169 0.95082 0.27516 0.0
C595 C 0.72733 0.95686 0.29171 0.0
C596 C 0.71978 0.99978 0.29779 0.0
C597 C 0.72736 0.03683 0.28736 0.0
H598 H 0.26104 0.08057 0.7263 0.0
H599 H 0.27434 0.94181 0.71432 0.0
H600 H 0.25282 0.92193 0.74361 0.0
H601 H 0.28456 0.0755 0.7712 0.0
H602 H 0.25378 0.11468 0.77843 0.0
H603 H 0.26993 0.11781 0.7565 0.0
H604 H 0.21025 0.11281 0.74401 0.0
H605 H 0.19389 0.11001 0.76591 0.0
H606 H 0.18395 0.06736 0.75035 0.0
H607 H 0.23257 0.91777 0.77506 0.0
H608 H 0.21006 0.92948 0.8049 0.0
H609 H 0.20744 0.07064 0.79553 0.0
C610 C 0.25917 0.04601 0.72984 0.0
C611 C 0.26895 0.01267 0.71803 0.0
C612 C 0.26629 0.9678 0.72306 0.0
C613 C 0.25439 0.95624 0.73972 0.0
C614 C 0.24501 0.98996 0.75111 0.0
C615 C 0.24684 0.03392 0.74628 0.0
C616 C 0.2346 0.06382 0.76078 0.0
C617 C 0.26238 0.09477 0.7671 0.0
C618 C 0.20384 0.09003 0.75491 0.0
C619 C 0.22584 0.0299 0.77458 0.0
C620 C 0.23237 0.98748 0.76887 0.0
C621 C 0.22718 0.95083 0.77962 0.0
C622 C 0.21464 0.95776 0.79656 0.0
C623 C 0.20713 1.0009 0.80245 0.0
C624 C 0.2128 0.03727 0.79128 0.0
H625 H 0.74459 0.08402 0.71686 0.0
H626 H 0.68111 0.96919 0.72377 0.0
H627 H 0.7043 0.9576 0.75303 0.0
H628 H 0.81672 0.03644 0.73902 0.0
H629 H 0.82874 0.08818 0.74878 0.0
H630 H 0.80733 0.08774 0.7281 0.0
H631 H 0.76217 0.13935 0.74093 0.0
H632 H 0.78327 0.13966 0.76168 0.0
H633 H 0.74036 0.12307 0.7605 0.0
H634 H 0.73231 0.95896 0.78171 0.0
H635 H 0.7662 0.97185 0.80811 0.0
H636 H 0.81388 0.0831 0.7827 0.0
C637 C 0.73608 0.05581 0.72424 0.0
C638 C 0.71113 0.02733 0.71776 0.0
C639 C 0.70005 0.99174 0.72835 0.0
C640 C 0.71315 0.98466 0.74503 0.0
C641 C 0.73754 0.01325 0.751 0.0
C642 C 0.74919 0.0479 0.74095 0.0
C643 C 0.77561 0.07368 0.75071 0.0
C644 C 0.80909 0.07136 0.74108 0.0
C645 C 0.76469 0.12179 0.75363 0.0
C646 C 0.77666 0.0482 0.7678 0.0
C647 C 0.75431 0.01362 0.76765 0.0
C648 C 0.74995 0.98589 0.78201 0.0
C649 C 0.76902 0.99366 0.79697 0.0
C650 C 0.7921 0.02875 0.7974 0.0
C651 C 0.79626 0.05609 0.7826 0.0
H652 H 0.23523 0.56925 0.71474 0.0
H653 H 0.16643 0.46218 0.72564 0.0
H654 H 0.18598 0.45977 0.75605 0.0
H655 H 0.30283 0.52558 0.74147 0.0
H656 H 0.31605 0.57947 0.74864 0.0
H657 H 0.29661 0.57302 0.72758 0.0
H658 H 0.25258 0.63152 0.73612 0.0
H659 H 0.27166 0.6378 0.75726 0.0
H660 H 0.22829 0.62374 0.75569 0.0
H661 H 0.21181 0.46932 0.78544 0.0
H662 H 0.24468 0.48781 0.81159 0.0
H663 H 0.29866 0.58651 0.78184 0.0
C664 C 0.2248 0.54445 0.72326 0.0
C665 C 0.19947 0.51544 0.71749 0.0
C666 C 0.1858 0.48484 0.72959 0.0
C667 C 0.19678 0.4831 0.74696 0.0
C668 C 0.22164 0.51206 0.75217 0.0
C669 C 0.23575 0.54191 0.74069 0.0
C670 C 0.26228 0.56916 0.74977 0.0
C671 C 0.29647 0.56132 0.74136 0.0
C672 C 0.25314 0.61848 0.7497 0.0
C673 C 0.2607 0.55001 0.76812 0.0
C674 C 0.23688 0.51733 0.7692 0.0
C675 C 0.23045 0.495 0.78478 0.0
C676 C 0.24899 0.50612 0.79965 0.0
C677 C 0.27371 0.53929 0.79888 0.0
C678 C 0.27973 0.56124 0.78284 0.0
H679 H 0.77685 0.56304 0.7176 0.0
H680 H 0.79386 0.42256 0.71153 0.0
H681 H 0.76653 0.40883 0.7401 0.0
H682 H 0.78998 0.56949 0.76377 0.0
H683 H 0.75727 0.60909 0.76738 0.0
H684 H 0.77852 0.60757 0.74666 0.0
H685 H 0.72231 0.59756 0.73068 0.0
H686 H 0.70088 0.59917 0.75135 0.0
H687 H 0.6953 0.55276 0.73691 0.0
H688 H 0.73972 0.41144 0.77005 0.0
H689 H 0.71108 0.42925 0.79785 0.0
H690 H 0.7083 0.56749 0.7832 0.0
C691 C 0.77481 0.52942 0.72234 0.0
C692 C 0.7874 0.49376 0.7125 0.0
C693 C 0.78409 0.45016 0.71891 0.0
C694 C 0.76877 0.44216 0.73512 0.0
C695 C 0.75658 0.47812 0.74454 0.0
C696 C 0.75904 0.52083 0.73827 0.0
C697 C 0.74308 0.55357 0.75065 0.0
C698 C 0.76875 0.58688 0.75752 0.0
C699 C 0.71364 0.57714 0.74187 0.0
C700 C 0.73151 0.52271 0.76498 0.0
C701 C 0.73985 0.47938 0.76132 0.0
C702 C 0.73285 0.44519 0.77298 0.0
C703 C 0.71679 0.45559 0.78874 0.0
C704 C 0.7076 0.49965 0.79255 0.0
C705 C 0.71486 0.53349 0.78046 0.0
H706 H 0.29592 0.58562 0.22639 0.0
H707 H 0.284 0.44674 0.21415 0.0
H708 H 0.2607 0.43365 0.2436 0.0
H709 H 0.31983 0.57168 0.27128 0.0
H710 H 0.29728 0.61932 0.27894 0.0
H711 H 0.3128 0.61788 0.25685 0.0
H712 H 0.25358 0.63257 0.245 0.0
H713 H 0.2379 0.63431 0.26705 0.0
H714 H 0.22004 0.59664 0.25144 0.0
H715 H 0.23983 0.43544 0.2748 0.0
H716 H 0.22004 0.45272 0.3046 0.0
H717 H 0.24458 0.59067 0.29653 0.0
C718 C 0.28828 0.5525 0.22991 0.0
C719 C 0.29128 0.51731 0.21786 0.0
C720 C 0.28113 0.47441 0.22297 0.0
C721 C 0.26817 0.46658 0.23975 0.0
C722 C 0.26542 0.50202 0.2513 0.0
C723 C 0.27494 0.54421 0.24655 0.0
C724 C 0.2689 0.57666 0.26133 0.0
C725 C 0.30166 0.59761 0.26746 0.0
C726 C 0.2436 0.61214 0.25588 0.0
C727 C 0.25468 0.54611 0.27516 0.0
C728 C 0.25311 0.50312 0.26916 0.0
C729 C 0.24109 0.46896 0.27964 0.0
C730 C 0.23021 0.47901 0.29664 0.0
C731 C 0.23136 0.52288 0.30303 0.0
C732 C 0.24361 0.55678 0.29204 0.0
H733 H 0.71666 0.46632 0.21972 0.0
H734 H 0.69707 0.60492 0.21003 0.0
H735 H 0.71837 0.62343 0.23951 0.0
H736 H 0.69646 0.46481 0.26583 0.0
H737 H 0.72982 0.42776 0.27146 0.0
H738 H 0.71133 0.42528 0.25004 0.0
H739 H 0.76915 0.43651 0.23582 0.0
H740 H 0.78782 0.43883 0.25718 0.0
H741 H 0.79387 0.48362 0.24197 0.0
H742 H 0.74094 0.62633 0.27031 0.0
H743 H 0.76857 0.61435 0.29888 0.0
H744 H 0.7771 0.47464 0.28746 0.0
C745 C 0.71674 0.50048 0.22391 0.0
C746 C 0.70528 0.53428 0.21276 0.0
C747 C 0.70603 0.57871 0.21845 0.0
C748 C 0.71786 0.58944 0.23516 0.0
C749 C 0.72917 0.55535 0.24588 0.0
C750 C 0.72913 0.51183 0.2404 0.0
C751 C 0.74444 0.48177 0.25402 0.0
C752 C 0.71899 0.44791 0.26073 0.0
C753 C 0.77568 0.45885 0.24682 0.0
C754 C 0.7531 0.51513 0.26801 0.0
C755 C 0.74359 0.5573 0.26322 0.0
C756 C 0.74856 0.59348 0.27419 0.0
C757 C 0.76405 0.58639 0.29039 0.0
C758 C 0.77475 0.54363 0.29528 0.0
C759 C 0.76916 0.50767 0.28395 0.0
H760 H 0.22607 0.18198 0.1075 0.0
H761 H 0.2344 0.15158 0.16287 0.0
H762 H 0.2558 0.22605 0.16842 0.0
H763 H 0.30049 0.24923 0.10463 0.0
H764 H 0.28247 0.28847 0.08964 0.0
H765 H 0.26835 0.23202 0.08974 0.0
H766 H 0.20798 0.25877 0.0947 0.0
H767 H 0.22195 0.31527 0.09468 0.0
H768 H 0.19881 0.29409 0.11305 0.0
H769 H 0.27536 0.30351 0.16842 0.0
H770 H 0.29283 0.37998 0.16268 0.0
H771 H 0.27173 0.36211 0.10741 0.0
C772 C 0.23257 0.19091 0.12077 0.0
C773 C 0.22865 0.16057 0.13472 0.0
C774 C 0.23731 0.17382 0.15191 0.0
C775 C 0.24946 0.21623 0.15524 0.0
C776 C 0.25283 0.24528 0.14127 0.0
C777 C 0.24474 0.23336 0.12437 0.0
C778 C 0.2505 0.27148 0.11183 0.0
C779 C 0.27703 0.25958 0.09815 0.0
C780 C 0.21786 0.28574 0.10305 0.0
C781 C 0.26297 0.30652 0.12438 0.0
C782 C 0.26409 0.29055 0.14129 0.0
C783 C 0.27462 0.31648 0.15523 0.0
C784 C 0.28441 0.35999 0.15183 0.0
C785 C 0.28359 0.3773 0.1346 0.0
C786 C 0.27266 0.35 0.12072 0.0
H787 H 0.73484 0.68175 0.10262 0.0
H788 H 0.70446 0.66782 0.15688 0.0
H789 H 0.72219 0.74396 0.16269 0.0
H790 H 0.80757 0.74838 0.1109 0.0
H791 H 0.80204 0.7829 0.09191 0.0
H792 H 0.78708 0.72684 0.09178 0.0
H793 H 0.72819 0.75474 0.08387 0.0
H794 H 0.74293 0.81091 0.08404 0.0
H795 H 0.70831 0.79521 0.09763 0.0
H796 H 0.74259 0.82065 0.16296 0.0
H797 H 0.76583 0.89427 0.15789 0.0
H798 H 0.78326 0.86143 0.10338 0.0
C799 C 0.73197 0.69469 0.11572 0.0
C800 C 0.71848 0.6684 0.12934 0.0
C801 C 0.71511 0.6868 0.14628 0.0
C802 C 0.72495 0.73023 0.14971 0.0
C803 C 0.73808 0.75513 0.13607 0.0
C804 C 0.74171 0.73825 0.11941 0.0
C805 C 0.75672 0.77252 0.1072 0.0
C806 C 0.79035 0.75671 0.10003 0.0
C807 C 0.73259 0.78402 0.0923 0.0
C808 C 0.76097 0.81115 0.11966 0.0
C809 C 0.74992 0.80015 0.13621 0.0
C810 C 0.75132 0.82973 0.15006 0.0
C811 C 0.76461 0.87166 0.14702 0.0
C812 C 0.77644 0.88405 0.13025 0.0
C813 C 0.77436 0.85323 0.11635 0.0
H814 H 0.22732 0.86922 0.86992 0.0
H815 H 0.21058 0.88279 0.92583 0.0
H816 H 0.226 0.80517 0.93013 0.0
H817 H 0.1966 0.75672 0.86604 0.0
H818 H 0.22781 0.73993 0.8505 0.0
H819 H 0.21456 0.79675 0.85135 0.0
H820 H 0.27539 0.82171 0.85592 0.0
H821 H 0.28885 0.76502 0.85502 0.0
H822 H 0.29913 0.79861 0.8737 0.0
H823 H 0.24263 0.72744 0.92891 0.0
H824 H 0.26317 0.65309 0.92253 0.0
H825 H 0.27142 0.68713 0.86742 0.0
C826 C 0.2268 0.85575 0.88304 0.0
C827 C 0.21762 0.88228 0.89753 0.0
C828 C 0.21755 0.86342 0.91451 0.0
C829 C 0.22616 0.8192 0.91711 0.0
C830 C 0.23499 0.79404 0.90264 0.0
C831 C 0.23567 0.81142 0.88595 0.0
C832 C 0.24723 0.77688 0.87285 0.0
C833 C 0.21992 0.76699 0.85939 0.0
C834 C 0.27958 0.79143 0.86384 0.0
C835 C 0.25302 0.73762 0.88489 0.0
C836 C 0.24545 0.74849 0.90197 0.0
C837 C 0.24869 0.71843 0.9156 0.0
C838 C 0.26041 0.67611 0.91178 0.0
C839 C 0.26905 0.66396 0.89444 0.0
C840 C 0.265 0.69523 0.88079 0.0
H841 H 0.72954 0.36973 0.90573 0.0
H842 H 0.70505 0.38075 0.85054 0.0
H843 H 0.72304 0.30435 0.8459 0.0
H844 H 0.80265 0.30209 0.90017 0.0
H845 H 0.79492 0.26842 0.91919 0.0
H846 H 0.78008 0.32453 0.91849 0.0
H847 H 0.72036 0.29714 0.92478 0.0
H848 H 0.735 0.24091 0.92542 0.0
H849 H 0.70199 0.25617 0.9107 0.0
H850 H 0.74407 0.228 0.84662 0.0
H851 H 0.76771 0.15476 0.85277 0.0
H852 H 0.77797 0.18968 0.90759 0.0
C853 C 0.72802 0.35608 0.89267 0.0
C854 C 0.71608 0.38174 0.87848 0.0
C855 C 0.71439 0.36232 0.86163 0.0
C856 C 0.72442 0.3187 0.85883 0.0
C857 C 0.73597 0.29442 0.87301 0.0
C858 C 0.73785 0.31215 0.88961 0.0
C859 C 0.75142 0.27829 0.90247 0.0
C860 C 0.78422 0.2943 0.91055 0.0
C861 C 0.72565 0.2675 0.91668 0.0
C862 C 0.757 0.23908 0.89041 0.0
C863 C 0.74783 0.24938 0.87349 0.0
C864 C 0.75126 0.21941 0.85983 0.0
C865 C 0.76479 0.17786 0.86347 0.0
C866 C 0.77468 0.16632 0.88066 0.0
C867 C 0.77035 0.19732 0.89435 0.0
H868 H 0.80332 0.85703 0.89853 0.0
H869 H 0.72529 0.91322 0.86652 0.0
H870 H 0.69988 0.83924 0.86328 0.0
H871 H 0.81284 0.75866 0.87332 0.0
H872 H 0.82097 0.72319 0.89177 0.0
H873 H 0.83157 0.7809 0.89282 0.0
H874 H 0.79604 0.78944 0.92086 0.0
H875 H 0.78536 0.7317 0.91992 0.0
H876 H 0.75306 0.77288 0.92057 0.0
H877 H 0.68329 0.75994 0.86335 0.0
H878 H 0.678 0.67893 0.8651 0.0
H879 H 0.76891 0.67204 0.89532 0.0
C880 C 0.78062 0.85356 0.89108 0.0
C881 C 0.76577 0.89052 0.88296 0.0
C882 C 0.73662 0.88509 0.87294 0.0
C883 C 0.72209 0.84333 0.87106 0.0
C884 C 0.73732 0.80733 0.87913 0.0
C885 C 0.76605 0.81185 0.88884 0.0
C886 C 0.77834 0.76726 0.89526 0.0
C887 C 0.81298 0.75691 0.88784 0.0
C888 C 0.77818 0.76521 0.91535 0.0
C889 C 0.75215 0.73703 0.88754 0.0
C890 C 0.72856 0.76102 0.87847 0.0
C891 C 0.70175 0.74076 0.87028 0.0
C892 C 0.6991 0.69472 0.87123 0.0
C893 C 0.72337 0.66924 0.88005 0.0
C894 C 0.7501 0.69078 0.88843 0.0
H895 H 0.23729 0.36987 0.86639 0.0
H896 H 0.33175 0.37905 0.89312 0.0
H897 H 0.33404 0.29765 0.8956 0.0
H898 H 0.20436 0.28615 0.89219 0.0
H899 H 0.18307 0.25752 0.87485 0.0
H900 H 0.19085 0.31584 0.87302 0.0
H901 H 0.2213 0.30333 0.84358 0.0
H902 H 0.21342 0.24487 0.84526 0.0
H903 H 0.2553 0.26468 0.84254 0.0
H904 H 0.3228 0.217 0.89849 0.0
H905 H 0.29978 0.14125 0.90031 0.0
H906 H 0.21309 0.18355 0.87127 0.0
C907 C 0.25878 0.3544 0.8723 0.0
C908 C 0.28449 0.38015 0.87947 0.0
C909 C 0.31201 0.3594 0.88749 0.0
C910 C 0.3135 0.31335 0.88893 0.0
C911 C 0.28734 0.28866 0.88217 0.0
C912 C 0.26064 0.30832 0.87384 0.0
C913 C 0.23476 0.27431 0.86883 0.0
C914 C 0.2013 0.28405 0.87776 0.0
C915 C 0.23098 0.27164 0.84886 0.0
C916 C 0.25063 0.23279 0.87611 0.0
C917 C 0.28106 0.24177 0.88364 0.0
C918 C 0.29933 0.20934 0.89233 0.0
C919 C 0.28611 0.16659 0.89335 0.0
C920 C 0.25509 0.15681 0.88569 0.0
C921 C 0.23728 0.19019 0.87686 0.0
H922 H 0.70368 0.35838 0.1306 0.0
H923 H 0.78872 0.41151 0.10298 0.0
H924 H 0.81108 0.33584 0.09923 0.0
H925 H 0.74706 0.27106 0.15347 0.0
H926 H 0.71353 0.23204 0.15134 0.0
H927 H 0.70479 0.29036 0.15214 0.0
H928 H 0.67322 0.28466 0.12271 0.0
H929 H 0.682 0.22637 0.12178 0.0
H930 H 0.69399 0.26178 0.10389 0.0
H931 H 0.8246 0.2548 0.09914 0.0
H932 H 0.82787 0.17358 0.10206 0.0
H933 H 0.73241 0.17253 0.12825 0.0
C934 C 0.72717 0.35394 0.12394 0.0
C935 C 0.74479 0.3905 0.1172 0.0
C936 C 0.77507 0.38369 0.10825 0.0
C937 C 0.78788 0.34096 0.10608 0.0
C938 C 0.76988 0.30548 0.11281 0.0
C939 C 0.74013 0.31146 0.12151 0.0
C940 C 0.72541 0.26766 0.12719 0.0
C941 C 0.72253 0.26515 0.14722 0.0
C942 C 0.69165 0.25966 0.11836 0.0
C943 C 0.75157 0.2361 0.12037 0.0
C944 C 0.77709 0.25863 0.1122 0.0
C945 C 0.80459 0.23677 0.10533 0.0
C946 C 0.80614 0.19068 0.10694 0.0
C947 C 0.78018 0.16693 0.11515 0.0
C948 C 0.7525 0.18999 0.12184 0.0
H949 H 0.2754 0.87037 0.12917 0.0
H950 H 0.17663 0.87404 0.10683 0.0
H951 H 0.1763 0.79245 0.10501 0.0
H952 H 0.30646 0.77681 0.10415 0.0
H953 H 0.32953 0.75439 0.1223 0.0
H954 H 0.32257 0.81304 0.1208 0.0
H955 H 0.2961 0.81233 0.15171 0.0
H956 H 0.3027 0.75361 0.15324 0.0
H957 H 0.26161 0.77606 0.15611 0.0
H958 H 0.18611 0.71054 0.10652 0.0
H959 H 0.20593 0.63375 0.1109 0.0
H960 H 0.29762 0.68357 0.13291 0.0
C961 C 0.25395 0.85382 0.12371 0.0
C962 C 0.22625 0.87812 0.11787 0.0
C963 C 0.19832 0.85573 0.11103 0.0
C964 C 0.19785 0.80953 0.11006 0.0
C965 C 0.22543 0.78635 0.1161 0.0
C966 C 0.253 0.8077 0.12277 0.0
C967 C 0.27893 0.77499 0.12891 0.0
C968 C 0.31128 0.78012 0.11841 0.0
C969 C 0.28519 0.77953 0.14867 0.0
C970 C 0.26163 0.73196 0.12467 0.0
C971 C 0.23081 0.73921 0.11727 0.0
C972 C 0.21021 0.70445 0.11228 0.0
C973 C 0.22156 0.66111 0.11481 0.0
C974 C 0.25307 0.65316 0.1223 0.0
C975 C 0.27325 0.689 0.12732 0.0
H976 H 0.2284 0.68313 0.60593 0.0
H977 H 0.23201 0.65255 0.66144 0.0
H978 H 0.25462 0.72648 0.66735 0.0
H979 H 0.3045 0.74937 0.60457 0.0
H980 H 0.28774 0.78857 0.58917 0.0
H981 H 0.27354 0.73214 0.58899 0.0
H982 H 0.21288 0.7591 0.59256 0.0
H983 H 0.22689 0.81556 0.59283 0.0
H984 H 0.20228 0.79449 0.61068 0.0
H985 H 0.27409 0.80383 0.66769 0.0
H986 H 0.29047 0.88079 0.66247 0.0
H987 H 0.27443 0.86323 0.60672 0.0
C988 C 0.23435 0.69178 0.6193 0.0
C989 C 0.22843 0.6619 0.63322 0.0
C990 C 0.23623 0.67476 0.65055 0.0
C991 C 0.24916 0.7167 0.65406 0.0
C992 C 0.25421 0.7455 0.64012 0.0
C993 C 0.24721 0.73372 0.62307 0.0
C994 C 0.254 0.77178 0.61062 0.0
C995 C 0.28159 0.75974 0.59757 0.0
C996 C 0.22211 0.78607 0.60112 0.0
C997 C 0.26553 0.80686 0.6234 0.0
C998 C 0.26551 0.79075 0.64032 0.0
C999 C 0.27433 0.81684 0.65451 0.0
C1000 C 0.28341 0.8607 0.65138 0.0
C1001 C 0.28358 0.8783 0.63419 0.0
C1002 C 0.27469 0.85077 0.62 0.0
H1003 H 0.77896 0.36401 0.64526 0.0
H1004 H 0.78534 0.38406 0.58907 0.0
H1005 H 0.76683 0.30765 0.58426 0.0
H1006 H 0.80727 0.25002 0.64547 0.0
H1007 H 0.7789 0.23308 0.66243 0.0
H1008 H 0.79369 0.28922 0.6617 0.0
H1009 H 0.73311 0.3178 0.66104 0.0
H1010 H 0.71813 0.26181 0.66185 0.0
H1011 H 0.70516 0.29798 0.64441 0.0
H1012 H 0.74682 0.23008 0.58523 0.0
H1013 H 0.72448 0.15636 0.59194 0.0
H1014 H 0.73038 0.18532 0.6475 0.0
C1015 C 0.77662 0.35228 0.63195 0.0
C1016 C 0.78374 0.38021 0.61756 0.0
C1017 C 0.78008 0.36352 0.60034 0.0
C1018 C 0.76965 0.32003 0.59745 0.0
C1019 C 0.76289 0.29345 0.61187 0.0
C1020 C 0.76608 0.30883 0.62879 0.0
C1021 C 0.75622 0.27353 0.64192 0.0
C1022 C 0.78579 0.26071 0.65356 0.0
C1023 C 0.72638 0.28869 0.65295 0.0
C1024 C 0.74679 0.23611 0.6297 0.0
C1025 C 0.75104 0.24837 0.61243 0.0
C1026 C 0.74345 0.22 0.5987 0.0
C1027 C 0.73075 0.17812 0.60267 0.0
C1028 C 0.72564 0.16483 0.62025 0.0
C1029 C 0.73417 0.19424 0.63393 0.0
H1030 H 0.22628 0.36604 0.41454 0.0
H1031 H 0.2075 0.38114 0.35889 0.0
H1032 H 0.22457 0.30447 0.35397 0.0
H1033 H 0.29936 0.29808 0.40979 0.0
H1034 H 0.29026 0.26321 0.4283 0.0
H1035 H 0.27566 0.31945 0.42792 0.0
H1036 H 0.21543 0.29219 0.43277 0.0
H1037 H 0.22984 0.23584 0.43315 0.0
H1038 H 0.19791 0.25221 0.41797 0.0
H1039 H 0.24322 0.2281 0.35451 0.0
H1040 H 0.26487 0.15423 0.36022 0.0
H1041 H 0.27335 0.18495 0.41555 0.0
C1042 C 0.22566 0.35304 0.40136 0.0
C1043 C 0.21568 0.37977 0.38708 0.0
C1044 C 0.21539 0.36165 0.37001 0.0
C1045 C 0.22487 0.31796 0.36707 0.0
C1046 C 0.2347 0.29264 0.38132 0.0
C1047 C 0.23537 0.30922 0.39812 0.0
C1048 C 0.24794 0.2745 0.4109 0.0
C1049 C 0.28023 0.28973 0.41975 0.0
C1050 C 0.22117 0.26301 0.4245 0.0
C1051 C 0.25419 0.23607 0.39855 0.0
C1052 C 0.2461 0.2476 0.3816 0.0
C1053 C 0.24962 0.21852 0.36772 0.0
C1054 C 0.26194 0.17638 0.37116 0.0
C1055 C 0.27082 0.16333 0.38835 0.0
C1056 C 0.26677 0.19375 0.40227 0.0
H1057 H 0.77084 0.6794 0.36291 0.0
H1058 H 0.76908 0.64972 0.41855 0.0
H1059 H 0.7476 0.7239 0.4246 0.0
H1060 H 0.79728 0.79203 0.36723 0.0
H1061 H 0.7717 0.81291 0.34974 0.0
H1062 H 0.78601 0.75654 0.34928 0.0
H1063 H 0.72538 0.72905 0.34657 0.0
H1064 H 0.71091 0.78537 0.3469 0.0
H1065 H 0.69507 0.74611 0.36256 0.0
H1066 H 0.72828 0.8009 0.42523 0.0
H1067 H 0.70983 0.87712 0.4203 0.0
H1068 H 0.7231 0.85987 0.36428 0.0
C1069 C 0.76563 0.68841 0.37633 0.0
C1070 C 0.77177 0.65846 0.39023 0.0
C1071 C 0.76477 0.67181 0.40763 0.0
C1072 C 0.75251 0.71401 0.41125 0.0
C1073 C 0.74723 0.74282 0.39737 0.0
C1074 C 0.75333 0.73079 0.38024 0.0
C1075 C 0.74571 0.76891 0.3679 0.0
C1076 C 0.77705 0.78345 0.35795 0.0
C1077 C 0.71759 0.75662 0.35523 0.0
C1078 C 0.73459 0.80406 0.38084 0.0
C1079 C 0.73575 0.78803 0.39774 0.0
C1080 C 0.7271 0.81387 0.41206 0.0
C1081 C 0.71667 0.85728 0.40908 0.0
C1082 C 0.71486 0.87475 0.39189 0.0
C1083 C 0.72413 0.84762 0.37758 0.0
H1084 H 0.73304 0.36739 0.37033 0.0
H1085 H 0.82878 0.36716 0.39615 0.0
H1086 H 0.82617 0.28602 0.39905 0.0
H1087 H 0.69565 0.2841 0.39574 0.0
H1088 H 0.67354 0.25832 0.37799 0.0
H1089 H 0.68363 0.31617 0.37689 0.0
H1090 H 0.71399 0.30384 0.34741 0.0
H1091 H 0.70374 0.24594 0.34835 0.0
H1092 H 0.7464 0.26292 0.34603 0.0
H1093 H 0.81083 0.20639 0.40184 0.0
H1094 H 0.78575 0.13162 0.40176 0.0
H1095 H 0.70169 0.18175 0.37255 0.0
C1096 C 0.75364 0.34999 0.37627 0.0
C1097 C 0.78099 0.37331 0.38315 0.0
C1098 C 0.80748 0.34973 0.39097 0.0
C1099 C 0.80625 0.30371 0.39264 0.0
C1100 C 0.77858 0.28164 0.38616 0.0
C1101 C 0.75298 0.30379 0.37787 0.0
C1102 C 0.72588 0.27196 0.37236 0.0
C1103 C 0.69272 0.28333 0.38128 0.0
C1104 C 0.7223 0.27112 0.35235 0.0
C1105 C 0.73994 0.22878 0.37919 0.0
C1106 C 0.77034 0.23519 0.38716 0.0
C1107 C 0.78732 0.20078 0.39537 0.0
C1108 C 0.77295 0.15859 0.39533 0.0
C1109 C 0.74219 0.15128 0.38699 0.0
C1110 C 0.72554 0.18669 0.37877 0.0
H1111 H 0.23601 0.68115 0.37898 0.0
H1112 H 0.25007 0.64718 0.43369 0.0
H1113 H 0.25806 0.72587 0.44054 0.0
H1114 H 0.30701 0.75936 0.38024 0.0
H1115 H 0.28844 0.7941 0.36378 0.0
H1116 H 0.28078 0.7355 0.36367 0.0
H1117 H 0.21753 0.7512 0.36424 0.0
H1118 H 0.22499 0.80978 0.36498 0.0
H1119 H 0.20027 0.78382 0.38174 0.0
H1120 H 0.25399 0.81028 0.44135 0.0
H1121 H 0.25887 0.89002 0.43573 0.0
H1122 H 0.26937 0.86291 0.38019 0.0
C1123 C 0.24192 0.68928 0.39233 0.0
C1124 C 0.24088 0.65746 0.40587 0.0
C1125 C 0.24855 0.67095 0.42317 0.0
C1126 C 0.25353 0.7156 0.4272 0.0
C1127 C 0.25303 0.74607 0.41359 0.0
C1128 C 0.2494 0.73309 0.39641 0.0
C1129 C 0.2538 0.77162 0.38401 0.0
C1130 C 0.28433 0.76475 0.37224 0.0
C1131 C 0.22226 0.77954 0.37311 0.0
C1132 C 0.25929 0.80853 0.397 0.0
C1133 C 0.25748 0.79341 0.41398 0.0
C1134 C 0.25731 0.82227 0.42812 0.0
C1135 C 0.26051 0.86762 0.42478 0.0
C1136 C 0.26594 0.88355 0.40755 0.0
C1137 C 0.26503 0.85311 0.39353 0.0
H1138 H 0.74376 0.67709 0.60569 0.0
H1139 H 0.77116 0.66003 0.6603 0.0
H1140 H 0.7508 0.73396 0.66663 0.0
H1141 H 0.78448 0.78421 0.60583 0.0
H1142 H 0.7573 0.80717 0.58946 0.0
H1143 H 0.76606 0.74883 0.58958 0.0
H1144 H 0.70298 0.73252 0.59093 0.0
H1145 H 0.69407 0.79086 0.59111 0.0
H1146 H 0.67842 0.75589 0.60834 0.0
H1147 H 0.72192 0.80798 0.6672 0.0
H1148 H 0.70546 0.88432 0.66156 0.0
H1149 H 0.72213 0.86444 0.60594 0.0
C1150 C 0.74628 0.68845 0.61897 0.0
C1151 C 0.7577 0.66036 0.63258 0.0
C1152 C 0.75996 0.67817 0.64973 0.0
C1153 C 0.74903 0.721 0.65348 0.0
C1154 C 0.73804 0.74726 0.63976 0.0
C1155 C 0.73837 0.73254 0.62273 0.0
C1156 C 0.73166 0.77028 0.6101 0.0
C1157 C 0.76167 0.77809 0.59803 0.0
C1158 C 0.69989 0.76186 0.59949 0.0
C1159 C 0.72699 0.80819 0.62284 0.0
C1160 C 0.72924 0.79347 0.63986 0.0
C1161 C 0.72193 0.82063 0.65395 0.0
C1162 C 0.71331 0.86457 0.65058 0.0
C1163 C 0.71454 0.88224 0.63339 0.0
C1164 C 0.7211 0.85302 0.6193 0.0
H1165 H 0.1921 0.35558 0.63305 0.0
H1166 H 0.28337 0.40569 0.61053 0.0
H1167 H 0.30394 0.32913 0.60685 0.0
H1168 H 0.22869 0.26425 0.65683 0.0
H1169 H 0.19451 0.22738 0.65261 0.0
H1170 H 0.18745 0.28606 0.65374 0.0
H1171 H 0.16096 0.28426 0.62287 0.0
H1172 H 0.16815 0.22564 0.62159 0.0
H1173 H 0.18424 0.26166 0.60482 0.0
H1174 H 0.31471 0.24792 0.60611 0.0
H1175 H 0.31513 0.16649 0.6081 0.0
H1176 H 0.2158 0.16856 0.62994 0.0
C1177 C 0.21655 0.35022 0.62754 0.0
C1178 C 0.23647 0.38608 0.62221 0.0
C1179 C 0.26802 0.37829 0.61474 0.0
C1180 C 0.2798 0.33509 0.6126 0.0
C1181 C 0.25953 0.30028 0.6179 0.0
C1182 C 0.22857 0.30729 0.62521 0.0
C1183 C 0.21161 0.26402 0.62959 0.0
C1184 C 0.20519 0.26022 0.64937 0.0
C1185 C 0.17933 0.25859 0.61909 0.0
C1186 C 0.23789 0.23158 0.62364 0.0
C1187 C 0.26535 0.25327 0.61699 0.0
C1188 C 0.29324 0.23054 0.61111 0.0
C1189 C 0.29317 0.18439 0.61218 0.0
C1190 C 0.26526 0.16154 0.61887 0.0
C1191 C 0.23726 0.18542 0.6246 0.0
H1192 H 0.93318 0.0092 0.10359 0.0
H1193 H 0.91413 1.00486 0.15956 0.0
H1194 H 0.97355 0.01427 0.1653 0.0
H1195 H 0.01192 0.9494 0.10514 0.0
H1196 H 0.03108 0.98251 0.08834 0.0
H1197 H 0.98678 0.97429 0.0883 0.0
H1198 H 0.97794 0.05902 0.08825 0.0
H1199 H 0.02221 0.06751 0.08844 0.0
H1200 H 0.99667 0.09203 0.10519 0.0
H1201 H 0.03355 0.02618 0.16552 0.0
H1202 H 0.09303 0.03626 0.16024 0.0
H1203 H 0.07573 0.03283 0.10412 0.0
C1204 C 0.94159 0.00979 0.11704 0.0
C1205 C 0.91883 0.00631 0.13111 0.0
C1206 C 0.93088 0.00754 0.14852 0.0
C1207 C 0.96466 0.01292 0.15196 0.0
C1208 C 0.98627 0.01699 0.13788 0.0
C1209 C 0.97548 0.0152 0.12077 0.0
C1210 C 0.00441 0.02072 0.10818 0.0
C1211 C 0.0088 0.97926 0.09682 0.0
C1212 C 1.00004 0.0623 0.09685 0.0
C1213 C 0.03296 0.02601 0.12098 0.0
C1214 C 0.02166 0.0238 0.13801 0.0
C1215 C 0.04283 0.0278 0.15225 0.0
C1216 C 0.07666 0.03357 0.14906 0.0
C1217 C 0.08925 0.03527 0.13174 0.0
C1218 C 0.06693 0.03183 0.1175 0.0
H1219 H 0.07744 0.01734 0.87163 0.0
H1220 H 0.0925 0.04107 0.92711 0.0
H1221 H 0.03282 0.05545 0.93066 0.0
H1222 H 0.01426 0.10099 0.86513 0.0
H1223 H 0.99034 0.06799 0.85012 0.0
H1224 H 0.03462 0.06039 0.85163 0.0
H1225 H 0.02602 0.9772 0.85818 0.0
H1226 H 0.98175 0.98451 0.85661 0.0
H1227 H 0.99961 0.96093 0.87611 0.0
H1228 H 0.97208 0.06629 0.92859 0.0
H1229 H 0.91277 0.07024 0.9212 0.0
H1230 H 0.93598 0.03931 0.86706 0.0
C1231 C 0.06821 0.02563 0.88452 0.0
C1232 C 0.08978 0.02809 0.89908 0.0
C1233 C 0.0766 0.03891 0.91574 0.0
C1234 C 0.0427 0.0473 0.9179 0.0
C1235 C 0.02221 0.04474 0.90331 0.0
C1236 C 0.03431 0.03403 0.88695 0.0
C1237 C 0.00656 0.0325 0.87356 0.0
C1238 C 0.01177 0.06756 0.85926 0.0
C1239 C 0.0033 0.98602 0.86566 0.0
C1240 C 0.97702 0.04371 0.88503 0.0
C1241 C 0.98675 0.05088 0.90211 0.0
C1242 C 0.96409 0.06087 0.91525 0.0
C1243 C 0.93041 0.06303 0.9109 0.0
C1244 C 0.91962 0.05513 0.89353 0.0
C1245 C 0.9434 0.04583 0.88041 0.0
H1246 H 0.92866 0.50701 0.64445 0.0
H1247 H 0.90921 0.54626 0.59068 0.0
H1248 H 0.96819 0.56194 0.5864 0.0
H1249 H 0.99333 0.58873 0.65287 0.0
H1250 H 0.01863 0.55162 0.66563 0.0
H1251 H 0.97421 0.54459 0.6651 0.0
H1252 H 0.98175 0.46377 0.65475 0.0
H1253 H 0.02616 0.47054 0.6553 0.0
H1254 H 0.00613 0.45264 0.63546 0.0
H1255 H 0.02836 0.57192 0.58709 0.0
H1256 H 0.08837 0.57368 0.59267 0.0
H1257 H 0.07124 0.52801 0.64584 0.0
C1258 C 0.93685 0.51908 0.63183 0.0
C1259 C 0.91412 0.52527 0.61793 0.0
C1260 C 0.92594 0.54093 0.60156 0.0
C1261 C 0.95948 0.5502 0.59897 0.0
C1262 C 0.98117 0.54367 0.61282 0.0
C1263 C 0.97059 0.52838 0.62892 0.0
C1264 C 0.99978 0.52305 0.6413 0.0
C1265 C 0.99627 0.55384 0.65717 0.0
C1266 C 0.00368 0.47462 0.64704 0.0
C1267 C 0.02818 0.53742 0.62952 0.0
C1268 C 0.01665 0.54937 0.6132 0.0
C1269 C 0.03781 0.56281 0.59984 0.0
C1270 C 0.07191 0.56363 0.60315 0.0
C1271 C 0.0846 0.55102 0.61969 0.0
C1272 C 0.06231 0.53818 0.63311 0.0
H1273 H 0.9269 0.5272 0.40837 0.0
H1274 H 0.91345 0.55754 0.35326 0.0
H1275 H 0.97389 0.55467 0.3489 0.0
H1276 H 0.00304 0.59061 0.41416 0.0
H1277 H 0.02141 0.55074 0.42876 0.0
H1278 H 0.97694 0.5567 0.42784 0.0
H1279 H 0.97115 0.47326 0.42106 0.0
H1280 H 0.01559 0.46707 0.42187 0.0
H1281 H 0.99308 0.45016 0.40265 0.0
H1282 H 0.03517 0.54639 0.35003 0.0
H1283 H 0.0942 0.53452 0.35673 0.0
H1284 H 0.06897 0.50933 0.41111 0.0
C1285 C 0.93667 0.53365 0.39542 0.0
C1286 C 0.91528 0.54267 0.38117 0.0
C1287 C 0.92917 0.55058 0.36441 0.0
C1288 C 0.96354 0.54903 0.36177 0.0
C1289 C 0.98383 0.53959 0.376 0.0
C1290 C 0.97105 0.53218 0.39251 0.0
C1291 C 0.99854 0.52188 0.40546 0.0
C1292 C 1.00007 0.55709 0.41991 0.0
C1293 C 0.99433 0.47532 0.41321 0.0
C1294 C 0.02865 0.52437 0.39357 0.0
C1295 C 0.01951 0.53472 0.37665 0.0
C1296 C 0.0427 0.53842 0.36324 0.0
C1297 C 0.07623 0.53152 0.3672 0.0
C1298 C 0.0864 0.52097 0.38446 0.0
C1299 C 0.06212 0.51738 0.39779 0.0
H1300 H 0.42444 0.01613 0.60714 0.0
H1301 H 0.40343 0.04151 0.66199 0.0
H1302 H 0.46224 0.05853 0.66701 0.0
H1303 H 0.50268 0.96308 0.61406 0.0
H1304 H 0.52199 0.9865 0.59491 0.0
H1305 H 0.47779 0.97776 0.59535 0.0
H1306 H 0.46828 0.0604 0.58803 0.0
H1307 H 0.51249 0.06943 0.58767 0.0
H1308 H 0.48646 0.10218 0.6018 0.0
H1309 H 0.52316 0.07103 0.66656 0.0
H1310 H 0.58325 0.07551 0.6607 0.0
H1311 H 0.56533 0.04243 0.60624 0.0
C1312 C 0.43218 0.02538 0.62018 0.0
C1313 C 0.40918 0.02745 0.63413 0.0
C1314 C 0.42045 0.03957 0.65104 0.0
C1315 C 0.45385 0.04951 0.65406 0.0
C1316 C 0.4758 0.04727 0.64006 0.0
C1317 C 0.46556 0.0354 0.62347 0.0
C1318 C 0.49461 0.0343 0.61087 0.0
C1319 C 0.49955 0.98763 0.60337 0.0
C1320 C 0.49019 0.06863 0.59623 0.0
C1321 C 0.52269 0.04694 0.62306 0.0
C1322 C 0.51121 0.05455 0.6398 0.0
C1323 C 0.5325 0.06541 0.65347 0.0
C1324 C 0.5666 0.06791 0.65001 0.0
C1325 C 0.57906 0.0595 0.63301 0.0
C1326 C 0.55663 0.04947 0.61934 0.0
H1327 H 0.42686 0.04037 0.41277 0.0
H1328 H 0.40168 0.03147 0.35762 0.0
H1329 H 0.46065 0.02101 0.3504 0.0
H1330 H 0.50448 0.0997 0.40689 0.0
H1331 H 0.52533 0.07056 0.42428 0.0
H1332 H 0.48106 0.07866 0.42519 0.0
H1333 H 0.47262 0.99421 0.42846 0.0
H1334 H 0.51685 0.98583 0.42745 0.0
H1335 H 0.49 0.95754 0.4123 0.0
H1336 H 0.52166 0.00969 0.34899 0.0
H1337 H 0.58175 1.00023 0.35344 0.0
H1338 H 0.56801 0.01615 0.40947 0.0
C1339 C 0.43376 0.03661 0.39916 0.0
C1340 C 0.40954 0.0368 0.38578 0.0
C1341 C 0.41967 0.03145 0.36814 0.0
C1342 C 0.45314 0.02545 0.36387 0.0
C1343 C 0.47627 0.02489 0.37736 0.0
C1344 C 0.46715 0.03049 0.39464 0.0
C1345 C 0.49709 0.02793 0.4066 0.0
C1346 C 0.50229 0.07183 0.41631 0.0
C1347 C 0.49394 0.98906 0.41946 0.0
C1348 C 0.52435 0.01985 0.39331 0.0
C1349 C 0.51173 0.01823 0.37654 0.0
C1350 C 0.53191 0.01098 0.36205 0.0
C1351 C 0.56604 1.00555 0.36474 0.0
C1352 C 0.5797 0.00739 0.38181 0.0
C1353 C 0.55841 0.01448 0.39626 0.0
H1354 H 0.57198 0.53311 0.14483 0.0
H1355 H 0.58777 0.54096 0.08867 0.0
H1356 H 0.52773 0.53392 0.08385 0.0
H1357 H 0.50625 0.45304 0.14359 0.0
H1358 H 0.48275 0.47778 0.1611 0.0
H1359 H 0.52722 0.48391 0.16043 0.0
H1360 H 0.52081 0.569 0.16144 0.0
H1361 H 0.47632 0.56313 0.16215 0.0
H1362 H 0.49537 0.59631 0.14533 0.0
H1363 H 0.46698 0.52432 0.08471 0.0
H1364 H 0.40772 0.51517 0.09121 0.0
H1365 H 0.42954 0.51484 0.14689 0.0
C1366 C 0.56279 0.53346 0.13153 0.0
C1367 C 0.58473 0.53758 0.11713 0.0
C1368 C 0.57162 0.53795 0.09993 0.0
C1369 C 0.53749 0.5339 0.09703 0.0
C1370 C 0.51665 0.52972 0.11144 0.0
C1371 C 0.52862 0.5297 0.12836 0.0
C1372 C 0.50048 0.52487 0.14145 0.0
C1373 C 0.50442 0.48237 0.15228 0.0
C1374 C 0.49811 0.56577 0.15329 0.0
C1375 C 0.47097 0.52194 0.12919 0.0
C1376 C 0.48104 0.52471 0.11195 0.0
C1377 C 0.4587 0.52225 0.09815 0.0
C1378 C 0.42502 0.51693 0.10202 0.0
C1379 C 0.41382 0.51428 0.11958 0.0
C1380 C 0.43724 0.51689 0.13334 0.0
H1381 H 0.4243 0.5442 0.86463 0.0
H1382 H 0.40834 0.54047 0.92085 0.0
H1383 H 0.46823 0.53103 0.92546 0.0
H1384 H 0.488 0.46206 0.86343 0.0
H1385 H 0.51235 0.48908 0.84678 0.0
H1386 H 0.46808 0.49726 0.84756 0.0
H1387 H 0.47665 0.58192 0.84924 0.0
H1388 H 0.52096 0.57402 0.84834 0.0
H1389 H 0.50274 0.6046 0.86614 0.0
H1390 H 0.52877 0.5193 0.92436 0.0
H1391 H 0.58788 0.50937 0.91765 0.0
H1392 H 0.56645 0.5211 0.86212 0.0
C1393 C 0.43345 0.54187 0.87791 0.0
C1394 C 0.41144 0.54308 0.89236 0.0
C1395 C 0.4245 0.53959 0.90953 0.0
C1396 C 0.45856 0.53418 0.91232 0.0
C1397 C 0.47943 0.53241 0.89784 0.0
C1398 C 0.46757 0.53643 0.88097 0.0
C1399 C 0.49568 0.5329 0.86779 0.0
C1400 C 0.49072 0.49294 0.85568 0.0
C1401 C 0.49921 0.57593 0.85726 0.0
C1402 C 0.52504 0.52603 0.87994 0.0
C1403 C 0.51491 0.52582 0.8972 0.0
C1404 C 0.5371 0.5196 0.9109 0.0
C1405 C 0.5707 0.51387 0.90691 0.0
C1406 C 0.58201 0.51446 0.88934 0.0
C1407 C 0.55869 0.52045 0.87568 0.0
H1408 H 0.18061 0.02589 0.97275 0.0
H1409 H 0.28715 0.02834 0.96424 0.0
H1410 H 0.29595 0.04127 0.99575 0.0
H1411 H 0.17756 0.10994 1.00647 0.0
H1412 H 0.14605 0.08207 0.01907 0.0
H1413 H 0.14785 0.07473 0.99571 0.0
H1414 H 0.15155 0.98998 0.99992 0.0
H1415 H 0.14974 0.99705 0.02328 0.0
H1416 H 0.18379 0.96721 0.01357 0.0
H1417 H 0.29344 0.05413 0.028 0.0
H1418 H 0.28015 0.06201 0.05926 0.0
H1419 H 0.1752 0.04821 0.04752 0.0
C1420 C 0.20578 0.02946 0.97751 0.0
C1421 C 0.23323 0.02631 0.96599 0.0
C1422 C 0.26576 0.03057 0.97278 0.0
C1423 C 0.27101 0.03807 0.99066 0.0
C1424 C 0.24349 0.04085 1.00166 0.0
C1425 C 0.2115 0.03638 0.9954 0.0
C1426 C 0.18638 0.03908 0.01019 0.0
C1427 C 0.16309 0.07883 0.00771 0.0
C1428 C 0.16671 0.99575 0.01183 0.0
C1429 C 0.20928 0.04573 0.02572 0.0
C1430 C 0.24208 0.04703 0.02044 0.0
C1431 C 0.26785 0.0531 0.0323 0.0
C1432 C 0.26 0.05764 0.05007 0.0
C1433 C 0.22662 0.05572 0.05592 0.0
C1434 C 0.20095 0.04978 0.0435 0.0
H1435 H 0.74487 0.03398 0.9701 0.0
H1436 H 0.84992 0.03341 0.95711 0.0
H1437 H 0.8636 0.01718 0.98775 0.0
H1438 H 0.7528 0.08526 0.0122 0.0
H1439 H 0.72113 0.0521 0.02246 0.0
H1440 H 0.71914 0.0633 0.99935 0.0
H1441 H 0.71691 0.9793 0.99302 0.0
H1442 H 0.719 0.96785 0.01612 0.0
H1443 H 0.7491 0.94386 1.00149 0.0
H1444 H 0.86663 1.00352 0.01954 0.0
H1445 H 0.85862 0.99194 0.05113 0.0
H1446 H 0.75176 0.99885 0.04406 0.0
C1447 C 0.77072 0.03047 0.97373 0.0
C1448 C 0.7963 0.03502 0.96118 0.0
C1449 C 0.82983 0.02994 0.96644 0.0
C1450 C 0.83793 0.02073 0.98383 0.0
C1451 C 0.81223 0.01631 0.99584 0.0
C1452 C 0.77931 0.02082 0.9911 0.0
C1453 C 0.75666 0.01433 1.00675 0.0
C1454 C 0.73623 0.05625 0.0104 0.0
C1455 C 0.73409 0.97393 1.00419 0.0
C1456 C 0.78212 0.00614 0.02101 0.0
C1457 C 0.81398 0.00743 0.01436 0.0
C1458 C 0.8418 1.00214 0.02493 0.0
C1459 C 0.83698 0.99563 0.04286 0.0
C1460 C 0.80459 0.99428 0.05005 0.0
C1461 C 0.77681 0.99923 0.03892 0.0
H1462 H 0.17357 0.54124 0.54681 0.0
H1463 H 0.2805 0.54639 0.55365 0.0
H1464 H 0.28817 0.53005 0.52234 0.0
H1465 H 0.17193 0.45257 0.51556 0.0
H1466 H 0.13891 0.47599 0.50263 0.0
H1467 H 0.14144 0.48793 0.52566 0.0
H1468 H 0.14198 0.57179 0.51893 0.0
H1469 H 0.13929 0.5601 0.49588 0.0
H1470 H 0.17269 0.59373 0.50413 0.0
H1471 H 0.28466 0.51132 0.4907 0.0
H1472 H 0.27041 0.4962 0.46004 0.0
H1473 H 0.16553 0.50552 0.47279 0.0
C1474 C 0.19859 0.539 0.54171 0.0
C1475 C 0.22647 0.54506 0.55275 0.0
C1476 C 0.25877 0.54206 0.54551 0.0
C1477 C 0.26339 0.53262 0.52773 0.0
C1478 C 0.23548 0.52659 0.51725 0.0
C1479 C 0.20369 0.53005 0.52388 0.0
C1480 C 0.17802 0.52297 0.5096 0.0
C1481 C 0.1563 0.48245 0.51361 0.0
C1482 C 0.15674 0.56463 0.50698 0.0
C1483 C 0.2004 0.51473 0.49394 0.0
C1484 C 0.23343 0.51673 0.49875 0.0
C1485 C 0.25888 0.50984 0.48676 0.0
C1486 C 0.25047 0.50112 0.46933 0.0
C1487 C 0.21682 0.49962 0.46391 0.0
C1488 C 0.19147 0.5064 0.47648 0.0
H1489 H 0.84209 0.58471 0.47379 0.0
H1490 H 0.77578 0.48515 0.45268 0.0
H1491 H 0.757 0.46673 0.48237 0.0
H1492 H 0.86663 0.52269 0.51159 0.0
H1493 H 0.86814 0.56998 0.52587 0.0
H1494 H 0.87569 0.57663 0.5028 0.0
H1495 H 0.82891 0.63529 0.50121 0.0
H1496 H 0.82109 0.6286 0.52426 0.0
H1497 H 0.78783 0.62135 0.50878 0.0
H1498 H 0.74513 0.45877 0.51415 0.0
H1499 H 0.74395 0.45816 0.54638 0.0
H1500 H 0.81866 0.56155 0.54728 0.0
C1501 C 0.82357 0.55912 0.47542 0.0
C1502 C 0.81047 0.53636 0.46085 0.0
C1503 C 0.78641 0.50289 0.46357 0.0
C1504 C 0.77537 0.49233 0.48041 0.0
C1505 C 0.78867 0.51542 0.49446 0.0
C1506 C 0.8124 0.54789 0.49221 0.0
C1507 C 0.8234 0.56652 0.50966 0.0
C1508 C 0.86067 0.55845 0.51265 0.0
C1509 C 0.81478 0.61587 0.51105 0.0
C1510 C 0.80235 0.5391 0.52201 0.0
C1511 C 0.78223 0.51022 0.51293 0.0
C1512 C 0.76074 0.48125 0.52143 0.0
C1513 C 0.76019 0.48125 0.53975 0.0
C1514 C 0.78122 0.50974 0.54936 0.0
C1515 C 0.80227 0.53937 0.5403 0.0
H1516 H 0.73773 0.99464 0.54603 0.0
H1517 H 0.63891 0.04825 0.55443 0.0
H1518 H 0.62919 0.04839 0.5227 0.0
H1519 H 0.7562 0.05539 0.50688 0.0
H1520 H 0.77753 0.01039 0.49631 0.0
H1521 H 0.77711 0.01408 0.51982 0.0
H1522 H 0.75242 0.93523 0.52181 0.0
H1523 H 0.75288 0.93123 0.49831 0.0
H1524 H 0.71473 0.92256 0.51015 0.0
H1525 H 0.63023 0.04503 0.49039 0.0
H1526 H 0.64086 0.03445 0.459 0.0
H1527 H 0.73842 0.98109 0.47096 0.0
C1528 C 0.71405 0.00632 0.54118 0.0
C1529 C 0.68913 0.02153 0.55274 0.0
C1530 C 0.65839 0.03635 0.54587 0.0
C1531 C 0.65261 0.03669 0.52785 0.0
C1532 C 0.67769 0.02181 0.51683 0.0
C1533 C 0.7077 0.00655 0.52316 0.0
C1534 C 0.73018 0.99187 0.50834 0.0
C1535 C 0.76214 0.0196 0.50781 0.0
C1536 C 0.738 0.94228 0.50974 0.0
C1537 C 0.70814 1.00164 0.49274 0.0
C1538 C 0.67805 0.01905 0.49799 0.0
C1539 C 0.65363 0.03124 0.48608 0.0
C1540 C 0.65997 0.02516 0.46826 0.0
C1541 C 0.69044 0.00682 0.46249 0.0
C1542 C 0.71485 0.99506 0.47495 0.0
H1543 H 0.33329 0.05199 0.47492 0.0
H1544 H 0.23027 0.02314 0.46268 0.0
H1545 H 0.2203 1.00233 0.4933 0.0
H1546 H 0.34544 0.96411 0.50602 0.0
H1547 H 0.37051 0.99632 0.52078 0.0
H1548 H 0.37021 0.00913 0.49776 0.0
H1549 H 0.35291 0.08963 0.50467 0.0
H1550 H 0.35335 0.07714 0.52771 0.0
H1551 H 0.31647 0.09968 0.51778 0.0
H1552 H 0.22125 0.98215 0.52469 0.0
H1553 H 0.23194 0.9692 0.55593 0.0
H1554 H 0.33366 0.0137 0.54912 0.0
C1555 C 0.30863 0.04147 0.47873 0.0
C1556 C 0.28257 0.03927 0.46632 0.0
C1557 C 0.25064 0.0254 0.47187 0.0
C1558 C 0.24471 0.01328 0.48926 0.0
C1559 C 0.27084 0.01552 0.50111 0.0
C1560 C 0.30208 0.02972 0.49621 0.0
C1561 C 0.32544 0.02985 0.51183 0.0
C1562 C 0.35463 0.99795 0.50892 0.0
C1563 C 0.33777 0.07688 0.51572 0.0
C1564 C 0.30242 0.01325 0.52616 0.0
C1565 C 0.27113 1.00491 0.51957 0.0
C1566 C 0.2456 0.98876 0.53005 0.0
C1567 C 0.252 0.98137 0.54781 0.0
C1568 C 0.28363 0.99044 0.55507 0.0
C1569 C 0.3092 0.00647 0.54401 0.0
H1570 H 0.76106 0.53109 0.0403 0.0
H1571 H 0.65927 0.57372 0.04841 0.0
H1572 H 0.64891 0.56867 0.01676 0.0
H1573 H 0.77429 0.58692 0.9985 0.0
H1574 H 0.79806 0.54216 0.9893 0.0
H1575 H 0.79842 0.55149 0.01256 0.0
H1576 H 0.77933 0.47086 0.01779 0.0
H1577 H 0.77881 0.46132 0.99455 0.0
H1578 H 0.74202 0.45122 0.00737 0.0
H1579 H 0.64867 0.55784 0.98481 0.0
H1580 H 0.65799 0.53998 0.95388 0.0
H1581 H 0.75956 0.5018 0.96574 0.0
C1582 C 0.73677 0.5399 0.03534 0.0
C1583 C 0.711 0.55306 0.04679 0.0
C1584 C 0.67935 0.56354 0.03988 0.0
C1585 C 0.67322 0.56089 0.02192 0.0
C1586 C 0.69893 0.54738 0.01101 0.0
C1587 C 0.73005 0.53688 0.01738 0.0
C1588 C 0.7527 0.5213 1.00274 0.0
C1589 C 0.78264 0.55233 1.00065 0.0
C1590 C 0.76386 0.47333 1.0058 0.0
C1591 C 0.72936 0.52473 0.98722 0.0
C1592 C 0.69857 0.54009 0.99237 0.0
C1593 C 0.67267 0.54583 0.98058 0.0
C1594 C 0.67827 0.53553 0.96301 0.0
C1595 C 0.70952 0.51939 0.95732 0.0
C1596 C 0.73541 0.51404 0.96965 0.0
H1597 H 0.32266 0.57851 0.97753 0.0
H1598 H 0.2802 0.46029 0.95452 0.0
H1599 H 0.26993 0.43024 0.98401 0.0
H1600 H 0.36422 0.52442 0.01299 0.0
H1601 H 0.35604 0.56778 0.02854 0.0
H1602 H 0.35935 0.58062 1.00561 0.0
H1603 H 0.30111 0.61691 1.00641 0.0
H1604 H 0.2976 0.60412 0.02935 0.0
H1605 H 0.26615 0.58553 0.01431 0.0
H1606 H 0.26503 0.41229 0.01599 0.0
H1607 H 0.26641 0.40739 0.04819 0.0
H1608 H 0.31199 0.5372 0.05059 0.0
C1609 C 0.3111 0.54636 0.97867 0.0
C1610 C 0.30221 0.52183 0.96364 0.0
C1611 C 0.28722 0.47981 0.96578 0.0
C1612 C 0.28125 0.46242 0.9825 0.0
C1613 C 0.29035 0.48741 0.99701 0.0
C1614 C 0.30495 0.52846 0.99529 0.0
C1615 C 0.31278 0.54822 0.01304 0.0
C1616 C 0.35033 0.55568 0.01516 0.0
C1617 C 0.29324 0.59124 0.01594 0.0
C1618 C 0.30049 0.51173 0.025 0.0
C1619 C 0.28755 0.47703 0.01548 0.0
C1620 C 0.27503 0.43932 0.02359 0.0
C1621 C 0.27592 0.43686 0.04191 0.0
C1622 C 0.28929 0.47187 0.05198 0.0
C1623 C 0.30154 0.50988 0.04331 0.0
loop_
_geom_bond_atom_site_label_1
_geom_bond_atom_site_label_2
_geom_bond_distance
_geom_bond_site_symmetry_2
_ccdc_geom_bond_type
Co0 O3 1.970 . S
Co0 N17 1.989 1_545 S
Co0 O25 1.967 . S
Co0 O32 1.920 . S
Co1 O4 1.966 . S
Co1 N10 2.022 . S
Co1 N18 1.993 1_545 S
Co1 O26 1.941 . S
C2 O3 1.258 . S
C2 O4 1.263 . S
O3 Co0 1.970 . S
O3 C2 1.258 . S
O4 Co1 1.966 . S
O4 C2 1.263 . S
C5 O6 1.235 . S
C5 O32 1.289 . S
O6 C5 1.235 . S
C7 C9 1.400 . S
C7 N10 1.351 . S
C7 C12 1.501 . S
C8 C9 1.387 1_565 S
C8 N11 1.341 . S
C9 C7 1.400 . S
C9 C8 1.387 1_545 S
N10 Co1 2.022 . S
N10 C7 1.351 . S
N10 N11 1.365 1_545 S
N11 C8 1.341 . S
N11 N10 1.365 1_565 S
N11 H31 0.862 . S
C12 C7 1.501 . S
C12 H13 0.961 . S
C12 H14 0.961 . S
C12 H15 0.960 . S
H13 C12 0.961 . S
H14 C12 0.961 . S
H15 C12 0.960 . S
C16 N17 1.342 . S
C16 C20 1.401 . S
C16 C21 1.499 . S
N17 Co0 1.989 1_565 S
N17 C16 1.342 . S
N17 N18 1.388 . S
N18 Co1 1.993 1_565 S
N18 N17 1.388 . S
N18 C19 1.346 . S
C19 N18 1.346 . S
C19 C20 1.396 . S
C19 C29 1.510 . S
C20 C16 1.401 . S
C20 C19 1.396 . S
C21 C16 1.499 . S
C21 H22 0.959 . S
C21 H23 0.960 . S
C21 H24 0.961 . S
H22 C21 0.959 . S
H23 C21 0.960 . S
H24 C21 0.961 . S
O25 Co0 1.967 . S
O25 C33 1.258 . S
O26 Co1 1.941 . S
O26 C33 1.266 . S
H27 C29 0.959 . S
H28 C29 0.961 . S
C29 C19 1.510 . S
C29 H27 0.959 . S
C29 H28 0.961 . S
C29 H30 0.960 . S
H30 C29 0.960 . S
H31 N11 0.862 . S
O32 Co0 1.920 . S
O32 C5 1.289 . S
C33 O25 1.258 . S
C33 O26 1.266 . S
Co34 O37 1.970 1_545 S
Co34 N51 1.989 . S
Co34 O59 1.967 1_545 S
Co34 O66 1.920 . S
Co35 O38 1.966 1_545 S
Co35 N44 2.022 . S
Co35 N52 1.993 . S
Co35 O60 1.941 . S
C36 O37 1.258 . S
C36 O38 1.263 . S
O37 Co34 1.970 1_565 S
O37 C36 1.258 . S
O38 Co35 1.966 1_565 S
O38 C36 1.263 . S
C39 O40 1.235 . S
C39 O66 1.289 . S
O40 C39 1.235 . S
C41 C43 1.400 1_565 S
C41 N44 1.351 1_565 S
C41 C46 1.501 . S
C42 C43 1.387 . S
C42 N45 1.341 . S
C43 C41 1.400 1_545 S
C43 C42 1.387 . S
N44 Co35 2.022 . S
N44 C41 1.351 1_545 S
N44 N45 1.365 . S
N45 C42 1.341 . S
N45 N44 1.365 . S
N45 H65 0.862 . S
C46 C41 1.501 . S
C46 H47 0.961 . S
C46 H48 0.961 . S
C46 H49 0.960 . S
H47 C46 0.961 . S
H48 C46 0.961 . S
H49 C46 0.960 . S
C50 N51 1.342 . S
C50 C54 1.401 . S
C50 C55 1.499 . S
N51 Co34 1.989 . S
N51 C50 1.342 . S
N51 N52 1.388 . S
N52 Co35 1.993 . S
N52 N51 1.388 . S
N52 C53 1.346 . S
C53 N52 1.346 . S
C53 C54 1.396 . S
C53 C63 1.510 . S
C54 C50 1.401 . S
C54 C53 1.396 . S
C55 C50 1.499 . S
C55 H56 0.959 . S
C55 H57 0.960 . S
C55 H58 0.961 . S
H56 C55 0.959 . S
H57 C55 0.960 . S
H58 C55 0.961 . S
O59 Co34 1.967 1_565 S
O59 C67 1.258 1_565 S
O60 Co35 1.941 . S
O60 C67 1.266 . S
H61 C63 0.959 . S
H62 C63 0.961 . S
C63 C53 1.510 . S
C63 H61 0.959 . S
C63 H62 0.961 . S
C63 H64 0.960 . S
H64 C63 0.960 . S
H65 N45 0.862 . S
O66 Co34 1.920 . S
O66 C39 1.289 . S
C67 O59 1.258 1_545 S
C67 O60 1.266 . S
Co68 O71 1.970 1_545 S
Co68 N85 1.989 . S
Co68 O93 1.967 1_545 S
Co68 O100 1.920 . S
Co69 O72 1.966 1_545 S
Co69 N78 2.022 . S
Co69 N86 1.993 . S
Co69 O94 1.941 . S
C70 O71 1.258 . S
C70 O72 1.263 . S
O71 Co68 1.970 1_565 S
O71 C70 1.258 . S
O72 Co69 1.966 1_565 S
O72 C70 1.263 . S
C73 O74 1.235 . S
C73 O100 1.289 . S
O74 C73 1.235 . S
C75 C77 1.400 1_565 S
C75 N78 1.351 1_565 S
C75 C80 1.501 . S
C76 C77 1.387 . S
C76 N79 1.341 . S
C77 C75 1.400 1_545 S
C77 C76 1.387 . S
N78 Co69 2.022 . S
N78 C75 1.351 1_545 S
N78 N79 1.365 . S
N79 C76 1.341 . S
N79 N78 1.365 . S
N79 H99 0.862 . S
C80 C75 1.501 . S
C80 H81 0.961 . S
C80 H82 0.961 . S
C80 H83 0.960 . S
H81 C80 0.961 . S
H82 C80 0.961 . S
H83 C80 0.960 . S
C84 N85 1.342 . S
C84 C88 1.401 . S
C84 C89 1.499 . S
N85 Co68 1.989 . S
N85 C84 1.342 . S
N85 N86 1.388 . S
N86 Co69 1.993 . S
N86 N85 1.388 . S
N86 C87 1.346 . S
C87 N86 1.346 . S
C87 C88 1.396 . S
C87 C97 1.510 . S
C88 C84 1.401 . S
C88 C87 1.396 . S
C89 C84 1.499 . S
C89 H90 0.959 . S
C89 H91 0.960 . S
C89 H92 0.961 . S
H90 C89 0.959 . S
H91 C89 0.960 . S
H92 C89 0.961 . S
O93 Co68 1.967 1_565 S
O93 C101 1.258 1_565 S
O94 Co69 1.941 . S
O94 C101 1.266 . S
H95 C97 0.959 . S
H96 C97 0.961 . S
C97 C87 1.510 . S
C97 H95 0.959 . S
C97 H96 0.961 . S
C97 H98 0.960 . S
H98 C97 0.960 . S
H99 N79 0.862 . S
O100 Co68 1.920 . S
O100 C73 1.289 . S
C101 O93 1.258 1_545 S
C101 O94 1.266 . S
Co102 O105 1.970 . S
Co102 N119 1.989 1_545 S
Co102 O127 1.967 . S
Co102 O134 1.920 . S
Co103 O106 1.966 . S
Co103 N112 2.022 . S
Co103 N120 1.993 1_545 S
Co103 O128 1.941 . S
C104 O105 1.258 . S
C104 O106 1.263 . S
O105 Co102 1.970 . S
O105 C104 1.258 . S
O106 Co103 1.966 . S
O106 C104 1.263 . S
C107 O108 1.235 . S
C107 O134 1.289 . S
O108 C107 1.235 . S
C109 C111 1.400 . S
C109 N112 1.351 . S
C109 C114 1.501 . S
C110 C111 1.387 1_565 S
C110 N113 1.341 . S
C111 C109 1.400 . S
C111 C110 1.387 1_545 S
N112 Co103 2.022 . S
N112 C109 1.351 . S
N112 N113 1.365 1_545 S
N113 C110 1.341 . S
N113 N112 1.365 1_565 S
N113 H133 0.862 . S
C114 C109 1.501 . S
C114 H115 0.961 . S
C114 H116 0.961 . S
C114 H117 0.960 . S
H115 C114 0.961 . S
H116 C114 0.961 . S
H117 C114 0.960 . S
C118 N119 1.342 . S
C118 C122 1.401 . S
C118 C123 1.499 . S
N119 Co102 1.989 1_565 S
N119 C118 1.342 . S
N119 N120 1.388 . S
N120 Co103 1.993 1_565 S
N120 N119 1.388 . S
N120 C121 1.346 . S
C121 N120 1.346 . S
C121 C122 1.396 . S
C121 C131 1.510 . S
C122 C118 1.401 . S
C122 C121 1.396 . S
C123 C118 1.499 . S
C123 H124 0.959 . S
C123 H125 0.960 . S
C123 H126 0.961 . S
H124 C123 0.959 . S
H125 C123 0.960 . S
H126 C123 0.961 . S
O127 Co102 1.967 . S
O127 C135 1.258 . S
O128 Co103 1.941 . S
O128 C135 1.266 . S
H129 C131 0.959 . S
H130 C131 0.961 . S
C131 C121 1.510 . S
C131 H129 0.959 . S
C131 H130 0.961 . S
C131 H132 0.960 . S
H132 C131 0.960 . S
H133 N113 0.862 . S
O134 Co102 1.920 . S
O134 C107 1.289 . S
C135 O127 1.258 . S
C135 O128 1.266 . S
Co136 O139 1.970 . S
Co136 N153 1.989 . S
Co136 O161 1.967 . S
Co136 O168 1.920 . S
Co137 O140 1.966 . S
Co137 N146 2.022 . S
Co137 N154 1.993 . S
Co137 O162 1.941 . S
C138 O139 1.258 . S
C138 O140 1.263 . S
O139 Co136 1.970 . S
O139 C138 1.258 . S
O140 Co137 1.966 . S
O140 C138 1.263 . S
C141 O142 1.235 . S
C141 O168 1.289 . S
O142 C141 1.235 . S
C143 C145 1.400 . S
C143 N146 1.351 . S
C143 C148 1.501 . S
C144 C145 1.387 . S
C144 N147 1.341 . S
C145 C143 1.400 . S
C145 C144 1.387 . S
N146 Co137 2.022 . S
N146 C143 1.351 . S
N146 N147 1.365 . S
N147 C144 1.341 . S
N147 N146 1.365 . S
N147 H167 0.862 . S
C148 C143 1.501 . S
C148 H149 0.961 . S
C148 H150 0.961 . S
C148 H151 0.960 . S
H149 C148 0.961 . S
H150 C148 0.961 . S
H151 C148 0.960 . S
C152 N153 1.342 . S
C152 C156 1.401 . S
C152 C157 1.499 . S
N153 Co136 1.989 . S
N153 C152 1.342 . S
N153 N154 1.388 . S
N154 Co137 1.993 . S
N154 N153 1.388 . S
N154 C155 1.346 . S
C155 N154 1.346 . S
C155 C156 1.396 . S
C155 C165 1.510 . S
C156 C152 1.401 . S
C156 C155 1.396 . S
C157 C152 1.499 . S
C157 H158 0.959 . S
C157 H159 0.960 . S
C157 H160 0.961 . S
H158 C157 0.959 . S
H159 C157 0.960 . S
H160 C157 0.961 . S
O161 Co136 1.967 . S
O161 C169 1.258 . S
O162 Co137 1.941 . S
O162 C169 1.266 . S
H163 C165 0.959 . S
H164 C165 0.961 . S
C165 C155 1.510 . S
C165 H163 0.959 . S
C165 H164 0.961 . S
C165 H166 0.960 . S
H166 C165 0.960 . S
H167 N147 0.862 . S
O168 Co136 1.920 . S
O168 C141 1.289 . S
C169 O161 1.258 . S
C169 O162 1.266 . S
Co170 O173 1.970 . S
Co170 N187 1.989 . S
Co170 O195 1.967 . S
Co170 O202 1.920 . S
Co171 O174 1.966 . S
Co171 N180 2.022 . S
Co171 N188 1.993 . S
Co171 O196 1.941 . S
C172 O173 1.258 . S
C172 O174 1.263 . S
O173 Co170 1.970 . S
O173 C172 1.258 . S
O174 Co171 1.966 . S
O174 C172 1.263 . S
C175 O176 1.235 . S
C175 O202 1.289 . S
O176 C175 1.235 . S
C177 C179 1.400 . S
C177 N180 1.351 . S
C177 C182 1.501 . S
C178 C179 1.387 . S
C178 N181 1.341 . S
C179 C177 1.400 . S
C179 C178 1.387 . S
N180 Co171 2.022 . S
N180 C177 1.351 . S
N180 N181 1.365 . S
N181 C178 1.341 . S
N181 N180 1.365 . S
N181 H201 0.862 . S
C182 C177 1.501 . S
C182 H183 0.961 . S
C182 H184 0.961 . S
C182 H185 0.960 . S
H183 C182 0.961 . S
H184 C182 0.961 . S
H185 C182 0.960 . S
C186 N187 1.342 . S
C186 C190 1.401 . S
C186 C191 1.499 . S
N187 Co170 1.989 . S
N187 C186 1.342 . S
N187 N188 1.388 . S
N188 Co171 1.993 . S
N188 N187 1.388 . S
N188 C189 1.346 . S
C189 N188 1.346 . S
C189 C190 1.396 . S
C189 C199 1.510 . S
C190 C186 1.401 . S
C190 C189 1.396 . S
C191 C186 1.499 . S
C191 H192 0.959 . S
C191 H193 0.960 . S
C191 H194 0.961 . S
H192 C191 0.959 . S
H193 C191 0.960 . S
H194 C191 0.961 . S
O195 Co170 1.967 . S
O195 C203 1.258 . S
O196 Co171 1.941 . S
O196 C203 1.266 . S
H197 C199 0.959 . S
H198 C199 0.961 . S
C199 C189 1.510 . S
C199 H197 0.959 . S
C199 H198 0.961 . S
C199 H200 0.960 . S
H200 C199 0.960 . S
H201 N181 0.862 . S
O202 Co170 1.920 . S
O202 C175 1.289 . S
C203 O195 1.258 . S
C203 O196 1.266 . S
Co204 O207 1.970 . S
Co204 N221 1.989 . S
Co204 O229 1.967 . S
Co204 O236 1.920 . S
Co205 O208 1.966 . S
Co205 N214 2.022 . S
Co205 N222 1.993 . S
Co205 O230 1.941 . S
C206 O207 1.258 . S
C206 O208 1.263 . S
O207 Co204 1.970 . S
O207 C206 1.258 . S
O208 Co205 1.966 . S
O208 C206 1.263 . S
C209 O210 1.235 . S
C209 O236 1.289 . S
O210 C209 1.235 . S
C211 C213 1.400 . S
C211 N214 1.351 . S
C211 C216 1.501 . S
C212 C213 1.387 . S
C212 N215 1.341 . S
C213 C211 1.400 . S
C213 C212 1.387 . S
N214 Co205 2.022 . S
N214 C211 1.351 . S
N214 N215 1.365 . S
N215 C212 1.341 . S
N215 N214 1.365 . S
N215 H235 0.862 . S
C216 C211 1.501 . S
C216 H217 0.961 . S
C216 H218 0.961 . S
C216 H219 0.960 . S
H217 C216 0.961 . S
H218 C216 0.961 . S
H219 C216 0.960 . S
C220 N221 1.342 . S
C220 C224 1.401 . S
C220 C225 1.499 . S
N221 Co204 1.989 . S
N221 C220 1.342 . S
N221 N222 1.388 . S
N222 Co205 1.993 . S
N222 N221 1.388 . S
N222 C223 1.346 . S
C223 N222 1.346 . S
C223 C224 1.396 . S
C223 C233 1.510 . S
C224 C220 1.401 . S
C224 C223 1.396 . S
C225 C220 1.499 . S
C225 H226 0.959 . S
C225 H227 0.960 . S
C225 H228 0.961 . S
H226 C225 0.959 . S
H227 C225 0.960 . S
H228 C225 0.961 . S
O229 Co204 1.967 . S
O229 C237 1.258 . S
O230 Co205 1.941 . S
O230 C237 1.266 . S
H231 C233 0.959 . S
H232 C233 0.961 . S
C233 C223 1.510 . S
C233 H231 0.959 . S
C233 H232 0.961 . S
C233 H234 0.960 . S
H234 C233 0.960 . S
H235 N215 0.862 . S
O236 Co204 1.920 . S
O236 C209 1.289 . S
C237 O229 1.258 . S
C237 O230 1.266 . S
Co238 O241 1.970 . S
Co238 N255 1.989 . S
Co238 O263 1.967 . S
Co238 O270 1.920 . S
Co239 O242 1.966 . S
Co239 N248 2.022 . S
Co239 N256 1.993 . S
Co239 O264 1.941 . S
C240 O241 1.258 . S
C240 O242 1.263 . S
O241 Co238 1.970 . S
O241 C240 1.258 . S
O242 Co239 1.966 . S
O242 C240 1.263 . S
C243 O244 1.235 . S
C243 O270 1.289 . S
O244 C243 1.235 . S
C245 C247 1.400 . S
C245 N248 1.351 . S
C245 C250 1.501 . S
C246 C247 1.387 . S
C246 N249 1.341 . S
C247 C245 1.400 . S
C247 C246 1.387 . S
N248 Co239 2.022 . S
N248 C245 1.351 . S
N248 N249 1.365 . S
N249 C246 1.341 . S
N249 N248 1.365 . S
N249 H269 0.862 . S
C250 C245 1.501 . S
C250 H251 0.961 . S
C250 H252 0.961 . S
C250 H253 0.960 . S
H251 C250 0.961 . S
H252 C250 0.961 . S
H253 C250 0.960 . S
C254 N255 1.342 . S
C254 C258 1.401 . S
C254 C259 1.499 . S
N255 Co238 1.989 . S
N255 C254 1.342 . S
N255 N256 1.388 . S
N256 Co239 1.993 . S
N256 N255 1.388 . S
N256 C257 1.346 . S
C257 N256 1.346 . S
C257 C258 1.396 . S
C257 C267 1.510 . S
C258 C254 1.401 . S
C258 C257 1.396 . S
C259 C254 1.499 . S
C259 H260 0.959 . S
C259 H261 0.960 . S
C259 H262 0.961 . S
H260 C259 0.959 . S
H261 C259 0.960 . S
H262 C259 0.961 . S
O263 Co238 1.967 . S
O263 C271 1.258 . S
O264 Co239 1.941 . S
O264 C271 1.266 . S
H265 C267 0.959 . S
H266 C267 0.961 . S
C267 C257 1.510 . S
C267 H265 0.959 . S
C267 H266 0.961 . S
C267 H268 0.960 . S
H268 C267 0.960 . S
H269 N249 0.862 . S
O270 Co238 1.920 . S
O270 C243 1.289 . S
C271 O263 1.258 . S
C271 O264 1.266 . S
Co272 O275 1.970 . S
Co272 N289 1.989 1_545 S
Co272 O297 1.967 . S
Co272 O304 1.920 . S
Co273 O276 1.966 . S
Co273 N282 2.022 . S
Co273 N290 1.993 1_545 S
Co273 O298 1.941 . S
C274 O275 1.258 . S
C274 O276 1.263 . S
O275 Co272 1.970 . S
O275 C274 1.258 . S
O276 Co273 1.966 . S
O276 C274 1.263 . S
C277 O278 1.235 . S
C277 O304 1.289 . S
O278 C277 1.235 . S
C279 C281 1.400 . S
C279 N282 1.351 . S
C279 C284 1.501 . S
C280 C281 1.387 1_565 S
C280 N283 1.341 . S
C281 C279 1.400 . S
C281 C280 1.387 1_545 S
N282 Co273 2.022 . S
N282 C279 1.351 . S
N282 N283 1.365 1_545 S
N283 C280 1.341 . S
N283 N282 1.365 1_565 S
N283 H303 0.862 . S
C284 C279 1.501 . S
C284 H285 0.961 . S
C284 H286 0.961 . S
C284 H287 0.960 . S
H285 C284 0.961 . S
H286 C284 0.961 . S
H287 C284 0.960 . S
C288 N289 1.342 . S
C288 C292 1.401 . S
C288 C293 1.499 . S
N289 Co272 1.989 1_565 S
N289 C288 1.342 . S
N289 N290 1.388 . S
N290 Co273 1.993 1_565 S
N290 N289 1.388 . S
N290 C291 1.346 . S
C291 N290 1.346 . S
C291 C292 1.396 . S
C291 C301 1.510 . S
C292 C288 1.401 . S
C292 C291 1.396 . S
C293 C288 1.499 . S
C293 H294 0.959 . S
C293 H295 0.960 . S
C293 H296 0.961 . S
H294 C293 0.959 . S
H295 C293 0.960 . S
H296 C293 0.961 . S
O297 Co272 1.967 . S
O297 C305 1.258 . S
O298 Co273 1.941 . S
O298 C305 1.266 . S
H299 C301 0.959 . S
H300 C301 0.961 . S
C301 C291 1.510 . S
C301 H299 0.959 . S
C301 H300 0.961 . S
C301 H302 0.960 . S
H302 C301 0.960 . S
H303 N283 0.862 . S
O304 Co272 1.920 . S
O304 C277 1.289 . S
C305 O297 1.258 . S
C305 O298 1.266 . S
Co306 O309 1.970 1_545 S
Co306 N323 1.989 . S
Co306 O331 1.967 1_545 S
Co306 O338 1.920 . S
Co307 O310 1.966 1_545 S
Co307 N316 2.022 . S
Co307 N324 1.993 . S
Co307 O332 1.941 . S
C308 O309 1.258 . S
C308 O310 1.263 . S
O309 Co306 1.970 1_565 S
O309 C308 1.258 . S
O310 Co307 1.966 1_565 S
O310 C308 1.263 . S
C311 O312 1.235 . S
C311 O338 1.289 . S
O312 C311 1.235 . S
C313 C315 1.400 1_565 S
C313 N316 1.351 1_565 S
C313 C318 1.501 . S
C314 C315 1.387 . S
C314 N317 1.341 . S
C315 C313 1.400 1_545 S
C315 C314 1.387 . S
N316 Co307 2.022 . S
N316 C313 1.351 1_545 S
N316 N317 1.365 . S
N317 C314 1.341 . S
N317 N316 1.365 . S
N317 H337 0.862 . S
C318 C313 1.501 . S
C318 H319 0.961 . S
C318 H320 0.961 . S
C318 H321 0.960 . S
H319 C318 0.961 . S
H320 C318 0.961 . S
H321 C318 0.960 . S
C322 N323 1.342 . S
C322 C326 1.401 . S
C322 C327 1.499 . S
N323 Co306 1.989 . S
N323 C322 1.342 . S
N323 N324 1.388 . S
N324 Co307 1.993 . S
N324 N323 1.388 . S
N324 C325 1.346 . S
C325 N324 1.346 . S
C325 C326 1.396 . S
C325 C335 1.510 . S
C326 C322 1.401 . S
C326 C325 1.396 . S
C327 C322 1.499 . S
C327 H328 0.959 . S
C327 H329 0.960 . S
C327 H330 0.961 . S
H328 C327 0.959 . S
H329 C327 0.960 . S
H330 C327 0.961 . S
O331 Co306 1.967 1_565 S
O331 C339 1.258 1_565 S
O332 Co307 1.941 . S
O332 C339 1.266 . S
H333 C335 0.959 . S
H334 C335 0.961 . S
C335 C325 1.510 . S
C335 H333 0.959 . S
C335 H334 0.961 . S
C335 H336 0.960 . S
H336 C335 0.960 . S
H337 N317 0.862 . S
O338 Co306 1.920 . S
O338 C311 1.289 . S
C339 O331 1.258 1_545 S
C339 O332 1.266 . S
Co340 O343 1.970 1_545 S
Co340 N357 1.989 . S
Co340 O365 1.967 1_545 S
Co340 O372 1.920 . S
Co341 O344 1.966 1_545 S
Co341 N350 2.022 . S
Co341 N358 1.993 . S
Co341 O366 1.941 . S
C342 O343 1.258 . S
C342 O344 1.263 . S
O343 Co340 1.970 1_565 S
O343 C342 1.258 . S
O344 Co341 1.966 1_565 S
O344 C342 1.263 . S
C345 O346 1.235 . S
C345 O372 1.289 . S
O346 C345 1.235 . S
C347 C349 1.400 1_565 S
C347 N350 1.351 1_565 S
C347 C352 1.501 . S
C348 C349 1.387 . S
C348 N351 1.341 . S
C349 C347 1.400 1_545 S
C349 C348 1.387 . S
N350 Co341 2.022 . S
N350 C347 1.351 1_545 S
N350 N351 1.365 . S
N351 C348 1.341 . S
N351 N350 1.365 . S
N351 H371 0.862 . S
C352 C347 1.501 . S
C352 H353 0.961 . S
C352 H354 0.961 . S
C352 H355 0.960 . S
H353 C352 0.961 . S
H354 C352 0.961 . S
H355 C352 0.960 . S
C356 N357 1.342 . S
C356 C360 1.401 . S
C356 C361 1.499 . S
N357 Co340 1.989 . S
N357 C356 1.342 . S
N357 N358 1.388 . S
N358 Co341 1.993 . S
N358 N357 1.388 . S
N358 C359 1.346 . S
C359 N358 1.346 . S
C359 C360 1.396 . S
C359 C369 1.510 . S
C360 C356 1.401 . S
C360 C359 1.396 . S
C361 C356 1.499 . S
C361 H362 0.959 . S
C361 H363 0.960 . S
C361 H364 0.961 . S
H362 C361 0.959 . S
H363 C361 0.960 . S
H364 C361 0.961 . S
O365 Co340 1.967 1_565 S
O365 C373 1.258 1_565 S
O366 Co341 1.941 . S
O366 C373 1.266 . S
H367 C369 0.959 . S
H368 C369 0.961 . S
C369 C359 1.510 . S
C369 H367 0.959 . S
C369 H368 0.961 . S
C369 H370 0.960 . S
H370 C369 0.960 . S
H371 N351 0.862 . S
O372 Co340 1.920 . S
O372 C345 1.289 . S
C373 O365 1.258 1_545 S
C373 O366 1.266 . S
Co374 O377 1.970 . S
Co374 N391 1.989 1_545 S
Co374 O399 1.967 . S
Co374 O406 1.920 . S
Co375 O378 1.966 . S
Co375 N384 2.022 . S
Co375 N392 1.993 1_545 S
Co375 O400 1.941 . S
C376 O377 1.258 . S
C376 O378 1.263 . S
O377 Co374 1.970 . S
O377 C376 1.258 . S
O378 Co375 1.966 . S
O378 C376 1.263 . S
C379 O380 1.235 . S
C379 O406 1.289 . S
O380 C379 1.235 . S
C381 C383 1.400 . S
C381 N384 1.351 . S
C381 C386 1.501 . S
C382 C383 1.387 1_565 S
C382 N385 1.341 . S
C383 C381 1.400 . S
C383 C382 1.387 1_545 S
N384 Co375 2.022 . S
N384 C381 1.351 . S
N384 N385 1.365 1_545 S
N385 C382 1.341 . S
N385 N384 1.365 1_565 S
N385 H405 0.862 . S
C386 C381 1.501 . S
C386 H387 0.961 . S
C386 H388 0.961 . S
C386 H389 0.960 . S
H387 C386 0.961 . S
H388 C386 0.961 . S
H389 C386 0.960 . S
C390 N391 1.342 . S
C390 C394 1.401 . S
C390 C395 1.499 . S
N391 Co374 1.989 1_565 S
N391 C390 1.342 . S
N391 N392 1.388 . S
N392 Co375 1.993 1_565 S
N392 N391 1.388 . S
N392 C393 1.346 . S
C393 N392 1.346 . S
C393 C394 1.396 . S
C393 C403 1.510 . S
C394 C390 1.401 . S
C394 C393 1.396 . S
C395 C390 1.499 . S
C395 H396 0.959 . S
C395 H397 0.960 . S
C395 H398 0.961 . S
H396 C395 0.959 . S
H397 C395 0.960 . S
H398 C395 0.961 . S
O399 Co374 1.967 . S
O399 C407 1.258 . S
O400 Co375 1.941 . S
O400 C407 1.266 . S
H401 C403 0.959 . S
H402 C403 0.961 . S
C403 C393 1.510 . S
C403 H401 0.959 . S
C403 H402 0.961 . S
C403 H404 0.960 . S
H404 C403 0.960 . S
H405 N385 0.862 . S
O406 Co374 1.920 . S
O406 C379 1.289 . S
C407 O399 1.258 . S
C407 O400 1.266 . S
Co408 O411 1.970 . S
Co408 N425 1.989 . S
Co408 O433 1.967 . S
Co408 O440 1.920 . S
Co409 O412 1.966 . S
Co409 N418 2.022 . S
Co409 N426 1.993 . S
Co409 O434 1.941 . S
C410 O411 1.258 . S
C410 O412 1.263 . S
O411 Co408 1.970 . S
O411 C410 1.258 . S
O412 Co409 1.966 . S
O412 C410 1.263 . S
C413 O414 1.235 . S
C413 O440 1.289 . S
O414 C413 1.235 . S
C415 C417 1.400 . S
C415 N418 1.351 . S
C415 C420 1.501 . S
C416 C417 1.387 . S
C416 N419 1.341 . S
C417 C415 1.400 . S
C417 C416 1.387 . S
N418 Co409 2.022 . S
N418 C415 1.351 . S
N418 N419 1.365 . S
N419 C416 1.341 . S
N419 N418 1.365 . S
N419 H439 0.862 . S
C420 C415 1.501 . S
C420 H421 0.961 . S
C420 H422 0.961 . S
C420 H423 0.960 . S
H421 C420 0.961 . S
H422 C420 0.961 . S
H423 C420 0.960 . S
C424 N425 1.342 . S
C424 C428 1.401 . S
C424 C429 1.499 . S
N425 Co408 1.989 . S
N425 C424 1.342 . S
N425 N426 1.388 . S
N426 Co409 1.993 . S
N426 N425 1.388 . S
N426 C427 1.346 . S
C427 N426 1.346 . S
C427 C428 1.396 . S
C427 C437 1.510 . S
C428 C424 1.401 . S
C428 C427 1.396 . S
C429 C424 1.499 . S
C429 H430 0.959 . S
C429 H431 0.960 . S
C429 H432 0.961 . S
H430 C429 0.959 . S
H431 C429 0.960 . S
H432 C429 0.961 . S
O433 Co408 1.967 . S
O433 C441 1.258 . S
O434 Co409 1.941 . S
O434 C441 1.266 . S
H435 C437 0.959 . S
H436 C437 0.961 . S
C437 C427 1.510 . S
C437 H435 0.959 . S
C437 H436 0.961 . S
C437 H438 0.960 . S
H438 C437 0.960 . S
H439 N419 0.862 . S
O440 Co408 1.920 . S
O440 C413 1.289 . S
C441 O433 1.258 . S
C441 O434 1.266 . S
Co442 O445 1.970 . S
Co442 N459 1.989 . S
Co442 O467 1.967 . S
Co442 O474 1.920 . S
Co443 O446 1.966 . S
Co443 N452 2.022 . S
Co443 N460 1.993 . S
Co443 O468 1.941 . S
C444 O445 1.258 . S
C444 O446 1.263 . S
O445 Co442 1.970 . S
O445 C444 1.258 . S
O446 Co443 1.966 . S
O446 C444 1.263 . S
C447 O448 1.235 . S
C447 O474 1.289 . S
O448 C447 1.235 . S
C449 C451 1.400 . S
C449 N452 1.351 . S
C449 C454 1.501 . S
C450 C451 1.387 . S
C450 N453 1.341 . S
C451 C449 1.400 . S
C451 C450 1.387 . S
N452 Co443 2.022 . S
N452 C449 1.351 . S
N452 N453 1.365 . S
N453 C450 1.341 . S
N453 N452 1.365 . S
N453 H473 0.862 . S
C454 C449 1.501 . S
C454 H455 0.961 . S
C454 H456 0.961 . S
C454 H457 0.960 . S
H455 C454 0.961 . S
H456 C454 0.961 . S
H457 C454 0.960 . S
C458 N459 1.342 . S
C458 C462 1.401 . S
C458 C463 1.499 . S
N459 Co442 1.989 . S
N459 C458 1.342 . S
N459 N460 1.388 . S
N460 Co443 1.993 . S
N460 N459 1.388 . S
N460 C461 1.346 . S
C461 N460 1.346 . S
C461 C462 1.396 . S
C461 C471 1.510 . S
C462 C458 1.401 . S
C462 C461 1.396 . S
C463 C458 1.499 . S
C463 H464 0.959 . S
C463 H465 0.960 . S
C463 H466 0.961 . S
H464 C463 0.959 . S
H465 C463 0.960 . S
H466 C463 0.961 . S
O467 Co442 1.967 . S
O467 C475 1.258 . S
O468 Co443 1.941 . S
O468 C475 1.266 . S
H469 C471 0.959 . S
H470 C471 0.961 . S
C471 C461 1.510 . S
C471 H469 0.959 . S
C471 H470 0.961 . S
C471 H472 0.960 . S
H472 C471 0.960 . S
H473 N453 0.862 . S
O474 Co442 1.920 . S
O474 C447 1.289 . S
C475 O467 1.258 . S
C475 O468 1.266 . S
Co476 O479 1.970 . S
Co476 N493 1.989 . S
Co476 O501 1.967 . S
Co476 O508 1.920 . S
Co477 O480 1.966 . S
Co477 N486 2.022 . S
Co477 N494 1.993 . S
Co477 O502 1.941 . S
C478 O479 1.258 . S
C478 O480 1.263 . S
O479 Co476 1.970 . S
O479 C478 1.258 . S
O480 Co477 1.966 . S
O480 C478 1.263 . S
C481 O482 1.235 . S
C481 O508 1.289 . S
O482 C481 1.235 . S
C483 C485 1.400 . S
C483 N486 1.351 . S
C483 C488 1.501 . S
C484 C485 1.387 . S
C484 N487 1.341 . S
C485 C483 1.400 . S
C485 C484 1.387 . S
N486 Co477 2.022 . S
N486 C483 1.351 . S
N486 N487 1.365 . S
N487 C484 1.341 . S
N487 N486 1.365 . S
N487 H507 0.862 . S
C488 C483 1.501 . S
C488 H489 0.961 . S
C488 H490 0.961 . S
C488 H491 0.960 . S
H489 C488 0.961 . S
H490 C488 0.961 . S
H491 C488 0.960 . S
C492 N493 1.342 . S
C492 C496 1.401 . S
C492 C497 1.499 . S
N493 Co476 1.989 . S
N493 C492 1.342 . S
N493 N494 1.388 . S
N494 Co477 1.993 . S
N494 N493 1.388 . S
N494 C495 1.346 . S
C495 N494 1.346 . S
C495 C496 1.396 . S
C495 C505 1.510 . S
C496 C492 1.401 . S
C496 C495 1.396 . S
C497 C492 1.499 . S
C497 H498 0.959 . S
C497 H499 0.960 . S
C497 H500 0.961 . S
H498 C497 0.959 . S
H499 C497 0.960 . S
H500 C497 0.961 . S
O501 Co476 1.967 . S
O501 C509 1.258 . S
O502 Co477 1.941 . S
O502 C509 1.266 . S
H503 C505 0.959 . S
H504 C505 0.961 . S
C505 C495 1.510 . S
C505 H503 0.959 . S
C505 H504 0.961 . S
C505 H506 0.960 . S
H506 C505 0.960 . S
H507 N487 0.862 . S
O508 Co476 1.920 . S
O508 C481 1.289 . S
C509 O501 1.258 . S
C509 O502 1.266 . S
Co510 O513 1.970 . S
Co510 N527 1.989 . S
Co510 O535 1.967 . S
Co510 O542 1.920 . S
Co511 O514 1.966 . S
Co511 N520 2.022 . S
Co511 N528 1.993 . S
Co511 O536 1.941 . S
C512 O513 1.258 . S
C512 O514 1.263 . S
O513 Co510 1.970 . S
O513 C512 1.258 . S
O514 Co511 1.966 . S
O514 C512 1.263 . S
C515 O516 1.235 . S
C515 O542 1.289 . S
O516 C515 1.235 . S
C517 C519 1.400 . S
C517 N520 1.351 . S
C517 C522 1.501 . S
C518 C519 1.387 . S
C518 N521 1.341 . S
C519 C517 1.400 . S
C519 C518 1.387 . S
N520 Co511 2.022 . S
N520 C517 1.351 . S
N520 N521 1.365 . S
N521 C518 1.341 . S
N521 N520 1.365 . S
N521 H541 0.862 . S
C522 C517 1.501 . S
C522 H523 0.961 . S
C522 H524 0.961 . S
C522 H525 0.960 . S
H523 C522 0.961 . S
H524 C522 0.961 . S
H525 C522 0.960 . S
C526 N527 1.342 . S
C526 C530 1.401 . S
C526 C531 1.499 . S
N527 Co510 1.989 . S
N527 C526 1.342 . S
N527 N528 1.388 . S
N528 Co511 1.993 . S
N528 N527 1.388 . S
N528 C529 1.346 . S
C529 N528 1.346 . S
C529 C530 1.396 . S
C529 C539 1.510 . S
C530 C526 1.401 . S
C530 C529 1.396 . S
C531 C526 1.499 . S
C531 H532 0.959 . S
C531 H533 0.960 . S
C531 H534 0.961 . S
H532 C531 0.959 . S
H533 C531 0.960 . S
H534 C531 0.961 . S
O535 Co510 1.967 . S
O535 C543 1.258 . S
O536 Co511 1.941 . S
O536 C543 1.266 . S
H537 C539 0.959 . S
H538 C539 0.961 . S
C539 C529 1.510 . S
C539 H537 0.959 . S
C539 H538 0.961 . S
C539 H540 0.960 . S
H540 C539 0.960 . S
H541 N521 0.862 . S
O542 Co510 1.920 . S
O542 C515 1.289 . S
C543 O535 1.258 . S
C543 O536 1.266 . S
H544 C556 0.930 . S
H545 C558 0.930 . S
H546 C559 0.930 . S
H547 C563 0.959 . S
H548 C563 0.959 . S
H549 C563 0.961 . S
H550 C564 0.960 . S
H551 C564 0.961 . S
H552 C564 0.959 . S
H553 C567 0.929 . S
H554 C568 0.931 . S
H555 C570 0.930 . S
C556 H544 0.930 . S
C556 C557 1.399 1_565 S
C556 C561 1.399 . S
C557 C556 1.399 1_545 S
C557 C558 1.376 . S
C558 H545 0.930 . S
C558 C557 1.376 . S
C558 C559 1.388 . S
C559 H546 0.930 . S
C559 C558 1.388 . S
C559 C560 1.390 . S
C560 C559 1.390 . S
C560 C561 1.394 1_545 S
C560 C566 1.465 . S
C561 C556 1.399 . S
C561 C560 1.394 1_565 S
C561 C562 1.516 . S
C562 C561 1.516 . S
C562 C563 1.502 . S
C562 C564 1.561 . S
C562 C565 1.526 . S
C563 H547 0.959 . S
C563 H548 0.959 . S
C563 H549 0.961 . S
C563 C562 1.502 . S
C564 H550 0.960 . S
C564 H551 0.961 . S
C564 H552 0.959 . S
C564 C562 1.561 . S
C565 C562 1.526 . S
C565 C566 1.396 1_565 S
C565 C570 1.390 . S
C566 C560 1.465 . S
C566 C565 1.396 1_545 S
C566 C567 1.399 . S
C567 H553 0.929 . S
C567 C566 1.399 . S
C567 C568 1.385 . S
C568 H554 0.931 . S
C568 C567 1.385 . S
C568 C569 1.389 . S
C569 C568 1.389 . S
C569 C570 1.387 1_545 S
C570 H555 0.930 . S
C570 C565 1.390 . S
C570 C569 1.387 1_565 S
H571 C583 0.930 . S
H572 C585 0.930 . S
H573 C586 0.930 . S
H574 C590 0.959 . S
H575 C590 0.959 . S
H576 C590 0.961 . S
H577 C591 0.960 . S
H578 C591 0.961 . S
H579 C591 0.959 . S
H580 C594 0.929 . S
H581 C595 0.931 . S
H582 C597 0.930 . S
C583 H571 0.930 . S
C583 C584 1.399 . S
C583 C588 1.399 . S
C584 C583 1.399 . S
C584 C585 1.376 1_545 S
C585 H572 0.930 . S
C585 C584 1.376 1_565 S
C585 C586 1.388 . S
C586 H573 0.930 . S
C586 C585 1.388 . S
C586 C587 1.390 . S
C587 C586 1.390 . S
C587 C588 1.394 1_565 S
C587 C593 1.465 . S
C588 C583 1.399 . S
C588 C587 1.394 1_545 S
C588 C589 1.516 . S
C589 C588 1.516 . S
C589 C590 1.502 . S
C589 C591 1.561 . S
C589 C592 1.526 . S
C590 H574 0.959 . S
C590 H575 0.959 . S
C590 H576 0.961 . S
C590 C589 1.502 . S
C591 H577 0.960 . S
C591 H578 0.961 . S
C591 H579 0.959 . S
C591 C589 1.561 . S
C592 C589 1.526 . S
C592 C593 1.396 1_545 S
C592 C597 1.390 . S
C593 C587 1.465 . S
C593 C592 1.396 1_565 S
C593 C594 1.399 . S
C594 H580 0.929 . S
C594 C593 1.399 . S
C594 C595 1.385 . S
C595 H581 0.931 . S
C595 C594 1.385 . S
C595 C596 1.389 1_565 S
C596 C595 1.389 1_545 S
C596 C597 1.387 . S
C597 H582 0.930 . S
C597 C592 1.390 . S
C597 C596 1.387 . S
H598 C610 0.930 . S
H599 C612 0.930 . S
H600 C613 0.930 . S
H601 C617 0.959 . S
H602 C617 0.959 . S
H603 C617 0.961 . S
H604 C618 0.960 . S
H605 C618 0.961 . S
H606 C618 0.959 . S
H607 C621 0.929 . S
H608 C622 0.931 . S
H609 C624 0.930 . S
C610 H598 0.930 . S
C610 C611 1.399 . S
C610 C615 1.399 . S
C611 C610 1.399 . S
C611 C612 1.376 1_545 S
C612 H599 0.930 . S
C612 C611 1.376 1_565 S
C612 C613 1.388 . S
C613 H600 0.930 . S
C613 C612 1.388 . S
C613 C614 1.390 . S
C614 C613 1.390 . S
C614 C615 1.394 1_565 S
C614 C620 1.465 . S
C615 C610 1.399 . S
C615 C614 1.394 1_545 S
C615 C616 1.516 . S
C616 C615 1.516 . S
C616 C617 1.502 . S
C616 C618 1.561 . S
C616 C619 1.526 . S
C617 H601 0.959 . S
C617 H602 0.959 . S
C617 H603 0.961 . S
C617 C616 1.502 . S
C618 H604 0.960 . S
C618 H605 0.961 . S
C618 H606 0.959 . S
C618 C616 1.561 . S
C619 C616 1.526 . S
C619 C620 1.396 1_545 S
C619 C624 1.390 . S
C620 C614 1.465 . S
C620 C619 1.396 1_565 S
C620 C621 1.399 . S
C621 H607 0.929 . S
C621 C620 1.399 . S
C621 C622 1.385 . S
C622 H608 0.931 . S
C622 C621 1.385 . S
C622 C623 1.389 1_565 S
C623 C622 1.389 1_545 S
C623 C624 1.387 . S
C624 H609 0.930 . S
C624 C619 1.390 . S
C624 C623 1.387 . S
H625 C637 0.930 . S
H626 C639 0.930 . S
H627 C640 0.930 . S
H628 C644 0.959 . S
H629 C644 0.959 . S
H630 C644 0.961 . S
H631 C645 0.960 . S
H632 C645 0.961 . S
H633 C645 0.959 . S
H634 C648 0.929 . S
H635 C649 0.931 . S
H636 C651 0.930 . S
C637 H625 0.930 . S
C637 C638 1.399 . S
C637 C642 1.399 . S
C638 C637 1.399 . S
C638 C639 1.376 1_545 S
C639 H626 0.930 . S
C639 C638 1.376 1_565 S
C639 C640 1.388 . S
C640 H627 0.930 . S
C640 C639 1.388 . S
C640 C641 1.390 . S
C641 C640 1.390 . S
C641 C642 1.394 1_565 S
C641 C647 1.465 . S
C642 C637 1.399 . S
C642 C641 1.394 1_545 S
C642 C643 1.516 . S
C643 C642 1.516 . S
C643 C644 1.502 . S
C643 C645 1.561 . S
C643 C646 1.526 . S
C644 H628 0.959 . S
C644 H629 0.959 . S
C644 H630 0.961 . S
C644 C643 1.502 . S
C645 H631 0.960 . S
C645 H632 0.961 . S
C645 H633 0.959 . S
C645 C643 1.561 . S
C646 C643 1.526 . S
C646 C647 1.396 1_545 S
C646 C651 1.390 . S
C647 C641 1.465 . S
C647 C646 1.396 1_565 S
C647 C648 1.399 . S
C648 H634 0.929 . S
C648 C647 1.399 . S
C648 C649 1.385 . S
C649 H635 0.931 . S
C649 C648 1.385 . S
C649 C650 1.389 1_565 S
C650 C649 1.389 1_545 S
C650 C651 1.387 . S
C651 H636 0.930 . S
C651 C646 1.390 . S
C651 C650 1.387 . S
H652 C664 0.930 . S
H653 C666 0.930 . S
H654 C667 0.930 . S
H655 C671 0.959 . S
H656 C671 0.959 . S
H657 C671 0.961 . S
H658 C672 0.960 . S
H659 C672 0.961 . S
H660 C672 0.959 . S
H661 C675 0.929 . S
H662 C676 0.931 . S
H663 C678 0.930 . S
C664 H652 0.930 . S
C664 C665 1.399 . S
C664 C669 1.399 . S
C665 C664 1.399 . S
C665 C666 1.376 . S
C666 H653 0.930 . S
C666 C665 1.376 . S
C666 C667 1.388 . S
C667 H654 0.930 . S
C667 C666 1.388 . S
C667 C668 1.390 . S
C668 C667 1.390 . S
C668 C669 1.394 . S
C668 C674 1.465 . S
C669 C664 1.399 . S
C669 C668 1.394 . S
C669 C670 1.516 . S
C670 C669 1.516 . S
C670 C671 1.502 . S
C670 C672 1.561 . S
C670 C673 1.526 . S
C671 H655 0.959 . S
C671 H656 0.959 . S
C671 H657 0.961 . S
C671 C670 1.502 . S
C672 H658 0.960 . S
C672 H659 0.961 . S
C672 H660 0.959 . S
C672 C670 1.561 . S
C673 C670 1.526 . S
C673 C674 1.396 . S
C673 C678 1.390 . S
C674 C668 1.465 . S
C674 C673 1.396 . S
C674 C675 1.399 . S
C675 H661 0.929 . S
C675 C674 1.399 . S
C675 C676 1.385 . S
C676 H662 0.931 . S
C676 C675 1.385 . S
C676 C677 1.389 . S
C677 C676 1.389 . S
C677 C678 1.387 . S
C678 H663 0.930 . S
C678 C673 1.390 . S
C678 C677 1.387 . S
H679 C691 0.930 . S
H680 C693 0.930 . S
H681 C694 0.930 . S
H682 C698 0.959 . S
H683 C698 0.959 . S
H684 C698 0.961 . S
H685 C699 0.960 . S
H686 C699 0.961 . S
H687 C699 0.959 . S
H688 C702 0.929 . S
H689 C703 0.931 . S
H690 C705 0.930 . S
C691 H679 0.930 . S
C691 C692 1.399 . S
C691 C696 1.399 . S
C692 C691 1.399 . S
C692 C693 1.376 . S
C693 H680 0.930 . S
C693 C692 1.376 . S
C693 C694 1.388 . S
C694 H681 0.930 . S
C694 C693 1.388 . S
C694 C695 1.390 . S
C695 C694 1.390 . S
C695 C696 1.394 . S
C695 C701 1.465 . S
C696 C691 1.399 . S
C696 C695 1.394 . S
C696 C697 1.516 . S
C697 C696 1.516 . S
C697 C698 1.502 . S
C697 C699 1.561 . S
C697 C700 1.526 . S
C698 H682 0.959 . S
C698 H683 0.959 . S
C698 H684 0.961 . S
C698 C697 1.502 . S
C699 H685 0.960 . S
C699 H686 0.961 . S
C699 H687 0.959 . S
C699 C697 1.561 . S
C700 C697 1.526 . S
C700 C701 1.396 . S
C700 C705 1.390 . S
C701 C695 1.465 . S
C701 C700 1.396 . S
C701 C702 1.399 . S
C702 H688 0.929 . S
C702 C701 1.399 . S
C702 C703 1.385 . S
C703 H689 0.931 . S
C703 C702 1.385 . S
C703 C704 1.389 . S
C704 C703 1.389 . S
C704 C705 1.387 . S
C705 H690 0.930 . S
C705 C700 1.390 . S
C705 C704 1.387 . S
H706 C718 0.930 . S
H707 C720 0.930 . S
H708 C721 0.930 . S
H709 C725 0.959 . S
H710 C725 0.959 . S
H711 C725 0.961 . S
H712 C726 0.960 . S
H713 C726 0.961 . S
H714 C726 0.959 . S
H715 C729 0.929 . S
H716 C730 0.931 . S
H717 C732 0.930 . S
C718 H706 0.930 . S
C718 C719 1.399 . S
C718 C723 1.399 . S
C719 C718 1.399 . S
C719 C720 1.376 . S
C720 H707 0.930 . S
C720 C719 1.376 . S
C720 C721 1.388 . S
C721 H708 0.930 . S
C721 C720 1.388 . S
C721 C722 1.390 . S
C722 C721 1.390 . S
C722 C723 1.394 . S
C722 C728 1.465 . S
C723 C718 1.399 . S
C723 C722 1.394 . S
C723 C724 1.516 . S
C724 C723 1.516 . S
C724 C725 1.502 . S
C724 C726 1.561 . S
C724 C727 1.526 . S
C725 H709 0.959 . S
C725 H710 0.959 . S
C725 H711 0.961 . S
C725 C724 1.502 . S
C726 H712 0.960 . S
C726 H713 0.961 . S
C726 H714 0.959 . S
C726 C724 1.561 . S
C727 C724 1.526 . S
C727 C728 1.396 . S
C727 C732 1.390 . S
C728 C722 1.465 . S
C728 C727 1.396 . S
C728 C729 1.399 . S
C729 H715 0.929 . S
C729 C728 1.399 . S
C729 C730 1.385 . S
C730 H716 0.931 . S
C730 C729 1.385 . S
C730 C731 1.389 . S
C731 C730 1.389 . S
C731 C732 1.387 . S
C732 H717 0.930 . S
C732 C727 1.390 . S
C732 C731 1.387 . S
H733 C745 0.930 . S
H734 C747 0.930 . S
H735 C748 0.930 . S
H736 C752 0.959 . S
H737 C752 0.959 . S
H738 C752 0.961 . S
H739 C753 0.960 . S
H740 C753 0.961 . S
H741 C753 0.959 . S
H742 C756 0.929 . S
H743 C757 0.931 . S
H744 C759 0.930 . S
C745 H733 0.930 . S
C745 C746 1.399 . S
C745 C750 1.399 . S
C746 C745 1.399 . S
C746 C747 1.376 . S
C747 H734 0.930 . S
C747 C746 1.376 . S
C747 C748 1.388 . S
C748 H735 0.930 . S
C748 C747 1.388 . S
C748 C749 1.390 . S
C749 C748 1.390 . S
C749 C750 1.394 . S
C749 C755 1.465 . S
C750 C745 1.399 . S
C750 C749 1.394 . S
C750 C751 1.516 . S
C751 C750 1.516 . S
C751 C752 1.502 . S
C751 C753 1.561 . S
C751 C754 1.526 . S
C752 H736 0.959 . S
C752 H737 0.959 . S
C752 H738 0.961 . S
C752 C751 1.502 . S
C753 H739 0.960 . S
C753 H740 0.961 . S
C753 H741 0.959 . S
C753 C751 1.561 . S
C754 C751 1.526 . S
C754 C755 1.396 . S
C754 C759 1.390 . S
C755 C749 1.465 . S
C755 C754 1.396 . S
C755 C756 1.399 . S
C756 H742 0.929 . S
C756 C755 1.399 . S
C756 C757 1.385 . S
C757 H743 0.931 . S
C757 C756 1.385 . S
C757 C758 1.389 . S
C758 C757 1.389 . S
C758 C759 1.387 . S
C759 H744 0.930 . S
C759 C754 1.390 . S
C759 C758 1.387 . S
H760 C772 0.930 . S
H761 C774 0.930 . S
H762 C775 0.930 . S
H763 C779 0.959 . S
H764 C779 0.959 . S
H765 C779 0.961 . S
H766 C780 0.960 . S
H767 C780 0.961 . S
H768 C780 0.959 . S
H769 C783 0.929 . S
H770 C784 0.931 . S
H771 C786 0.930 . S
C772 H760 0.930 . S
C772 C773 1.399 . S
C772 C777 1.399 . S
C773 C772 1.399 . S
C773 C774 1.376 . S
C774 H761 0.930 . S
C774 C773 1.376 . S
C774 C775 1.388 . S
C775 H762 0.930 . S
C775 C774 1.388 . S
C775 C776 1.390 . S
C776 C775 1.390 . S
C776 C777 1.394 . S
C776 C782 1.465 . S
C777 C772 1.399 . S
C777 C776 1.394 . S
C777 C778 1.516 . S
C778 C777 1.516 . S
C778 C779 1.502 . S
C778 C780 1.561 . S
C778 C781 1.526 . S
C779 H763 0.959 . S
C779 H764 0.959 . S
C779 H765 0.961 . S
C779 C778 1.502 . S
C780 H766 0.960 . S
C780 H767 0.961 . S
C780 H768 0.959 . S
C780 C778 1.561 . S
C781 C778 1.526 . S
C781 C782 1.396 . S
C781 C786 1.390 . S
C782 C776 1.465 . S
C782 C781 1.396 . S
C782 C783 1.399 . S
C783 H769 0.929 . S
C783 C782 1.399 . S
C783 C784 1.385 . S
C784 H770 0.931 . S
C784 C783 1.385 . S
C784 C785 1.389 . S
C785 C784 1.389 . S
C785 C786 1.387 . S
C786 H771 0.930 . S
C786 C781 1.390 . S
C786 C785 1.387 . S
H787 C799 0.930 . S
H788 C801 0.930 . S
H789 C802 0.930 . S
H790 C806 0.959 . S
H791 C806 0.959 . S
H792 C806 0.961 . S
H793 C807 0.960 . S
H794 C807 0.961 . S
H795 C807 0.959 . S
H796 C810 0.929 . S
H797 C811 0.931 . S
H798 C813 0.930 . S
C799 H787 0.930 . S
C799 C800 1.399 . S
C799 C804 1.399 . S
C800 C799 1.399 . S
C800 C801 1.376 . S
C801 H788 0.930 . S
C801 C800 1.376 . S
C801 C802 1.388 . S
C802 H789 0.930 . S
C802 C801 1.388 . S
C802 C803 1.390 . S
C803 C802 1.390 . S
C803 C804 1.394 . S
C803 C809 1.465 . S
C804 C799 1.399 . S
C804 C803 1.394 . S
C804 C805 1.516 . S
C805 C804 1.516 . S
C805 C806 1.502 . S
C805 C807 1.561 . S
C805 C808 1.526 . S
C806 H790 0.959 . S
C806 H791 0.959 . S
C806 H792 0.961 . S
C806 C805 1.502 . S
C807 H793 0.960 . S
C807 H794 0.961 . S
C807 H795 0.959 . S
C807 C805 1.561 . S
C808 C805 1.526 . S
C808 C809 1.396 . S
C808 C813 1.390 . S
C809 C803 1.465 . S
C809 C808 1.396 . S
C809 C810 1.399 . S
C810 H796 0.929 . S
C810 C809 1.399 . S
C810 C811 1.385 . S
C811 H797 0.931 . S
C811 C810 1.385 . S
C811 C812 1.389 . S
C812 C811 1.389 . S
C812 C813 1.387 . S
C813 H798 0.930 . S
C813 C808 1.390 . S
C813 C812 1.387 . S
H814 C826 0.930 . S
H815 C828 0.930 . S
H816 C829 0.930 . S
H817 C833 0.959 . S
H818 C833 0.959 . S
H819 C833 0.961 . S
H820 C834 0.960 . S
H821 C834 0.961 . S
H822 C834 0.959 . S
H823 C837 0.929 . S
H824 C838 0.931 . S
H825 C840 0.930 . S
C826 H814 0.930 . S
C826 C827 1.399 . S
C826 C831 1.399 . S
C827 C826 1.399 . S
C827 C828 1.376 . S
C828 H815 0.930 . S
C828 C827 1.376 . S
C828 C829 1.388 . S
C829 H816 0.930 . S
C829 C828 1.388 . S
C829 C830 1.390 . S
C830 C829 1.390 . S
C830 C831 1.394 . S
C830 C836 1.465 . S
C831 C826 1.399 . S
C831 C830 1.394 . S
C831 C832 1.516 . S
C832 C831 1.516 . S
C832 C833 1.502 . S
C832 C834 1.561 . S
C832 C835 1.526 . S
C833 H817 0.959 . S
C833 H818 0.959 . S
C833 H819 0.961 . S
C833 C832 1.502 . S
C834 H820 0.960 . S
C834 H821 0.961 . S
C834 H822 0.959 . S
C834 C832 1.561 . S
C835 C832 1.526 . S
C835 C836 1.396 . S
C835 C840 1.390 . S
C836 C830 1.465 . S
C836 C835 1.396 . S
C836 C837 1.399 . S
C837 H823 0.929 . S
C837 C836 1.399 . S
C837 C838 1.385 . S
C838 H824 0.931 . S
C838 C837 1.385 . S
C838 C839 1.389 . S
C839 C838 1.389 . S
C839 C840 1.387 . S
C840 H825 0.930 . S
C840 C835 1.390 . S
C840 C839 1.387 . S
H841 C853 0.930 . S
H842 C855 0.930 . S
H843 C856 0.930 . S
H844 C860 0.959 . S
H845 C860 0.959 . S
H846 C860 0.961 . S
H847 C861 0.960 . S
H848 C861 0.961 . S
H849 C861 0.959 . S
H850 C864 0.929 . S
H851 C865 0.931 . S
H852 C867 0.930 . S
C853 H841 0.930 . S
C853 C854 1.399 . S
C853 C858 1.399 . S
C854 C853 1.399 . S
C854 C855 1.376 . S
C855 H842 0.930 . S
C855 C854 1.376 . S
C855 C856 1.388 . S
C856 H843 0.930 . S
C856 C855 1.388 . S
C856 C857 1.390 . S
C857 C856 1.390 . S
C857 C858 1.394 . S
C857 C863 1.465 . S
C858 C853 1.399 . S
C858 C857 1.394 . S
C858 C859 1.516 . S
C859 C858 1.516 . S
C859 C860 1.502 . S
C859 C861 1.561 . S
C859 C862 1.526 . S
C860 H844 0.959 . S
C860 H845 0.959 . S
C860 H846 0.961 . S
C860 C859 1.502 . S
C861 H847 0.960 . S
C861 H848 0.961 . S
C861 H849 0.959 . S
C861 C859 1.561 . S
C862 C859 1.526 . S
C862 C863 1.396 . S
C862 C867 1.390 . S
C863 C857 1.465 . S
C863 C862 1.396 . S
C863 C864 1.399 . S
C864 H850 0.929 . S
C864 C863 1.399 . S
C864 C865 1.385 . S
C865 H851 0.931 . S
C865 C864 1.385 . S
C865 C866 1.389 . S
C866 C865 1.389 . S
C866 C867 1.387 . S
C867 H852 0.930 . S
C867 C862 1.390 . S
C867 C866 1.387 . S
H868 C880 0.930 . S
H869 C882 0.930 . S
H870 C883 0.930 . S
H871 C887 0.959 . S
H872 C887 0.959 . S
H873 C887 0.961 . S
H874 C888 0.960 . S
H875 C888 0.961 . S
H876 C888 0.959 . S
H877 C891 0.929 . S
H878 C892 0.931 . S
H879 C894 0.930 . S
C880 H868 0.930 . S
C880 C881 1.399 . S
C880 C885 1.399 . S
C881 C880 1.399 . S
C881 C882 1.376 . S
C882 H869 0.930 . S
C882 C881 1.376 . S
C882 C883 1.388 . S
C883 H870 0.930 . S
C883 C882 1.388 . S
C883 C884 1.390 . S
C884 C883 1.390 . S
C884 C885 1.394 . S
C884 C890 1.465 . S
C885 C880 1.399 . S
C885 C884 1.394 . S
C885 C886 1.516 . S
C886 C885 1.516 . S
C886 C887 1.502 . S
C886 C888 1.561 . S
C886 C889 1.526 . S
C887 H871 0.959 . S
C887 H872 0.959 . S
C887 H873 0.961 . S
C887 C886 1.502 . S
C888 H874 0.960 . S
C888 H875 0.961 . S
C888 H876 0.959 . S
C888 C886 1.561 . S
C889 C886 1.526 . S
C889 C890 1.396 . S
C889 C894 1.390 . S
C890 C884 1.465 . S
C890 C889 1.396 . S
C890 C891 1.399 . S
C891 H877 0.929 . S
C891 C890 1.399 . S
C891 C892 1.385 . S
C892 H878 0.931 . S
C892 C891 1.385 . S
C892 C893 1.389 . S
C893 C892 1.389 . S
C893 C894 1.387 . S
C894 H879 0.930 . S
C894 C889 1.390 . S
C894 C893 1.387 . S
H895 C907 0.930 . S
H896 C909 0.930 . S
H897 C910 0.930 . S
H898 C914 0.959 . S
H899 C914 0.959 . S
H900 C914 0.961 . S
H901 C915 0.960 . S
H902 C915 0.961 . S
H903 C915 0.959 . S
H904 C918 0.929 . S
H905 C919 0.931 . S
H906 C921 0.930 . S
C907 H895 0.930 . S
C907 C908 1.399 . S
C907 C912 1.399 . S
C908 C907 1.399 . S
C908 C909 1.376 . S
C909 H896 0.930 . S
C909 C908 1.376 . S
C909 C910 1.388 . S
C910 H897 0.930 . S
C910 C909 1.388 . S
C910 C911 1.390 . S
C911 C910 1.390 . S
C911 C912 1.394 . S
C911 C917 1.465 . S
C912 C907 1.399 . S
C912 C911 1.394 . S
C912 C913 1.516 . S
C913 C912 1.516 . S
C913 C914 1.502 . S
C913 C915 1.561 . S
C913 C916 1.526 . S
C914 H898 0.959 . S
C914 H899 0.959 . S
C914 H900 0.961 . S
C914 C913 1.502 . S
C915 H901 0.960 . S
C915 H902 0.961 . S
C915 H903 0.959 . S
C915 C913 1.561 . S
C916 C913 1.526 . S
C916 C917 1.396 . S
C916 C921 1.390 . S
C917 C911 1.465 . S
C917 C916 1.396 . S
C917 C918 1.399 . S
C918 H904 0.929 . S
C918 C917 1.399 . S
C918 C919 1.385 . S
C919 H905 0.931 . S
C919 C918 1.385 . S
C919 C920 1.389 . S
C920 C919 1.389 . S
C920 C921 1.387 . S
C921 H906 0.930 . S
C921 C916 1.390 . S
C921 C920 1.387 . S
H922 C934 0.930 . S
H923 C936 0.930 . S
H924 C937 0.930 . S
H925 C941 0.959 . S
H926 C941 0.959 . S
H927 C941 0.961 . S
H928 C942 0.960 . S
H929 C942 0.961 . S
H930 C942 0.959 . S
H931 C945 0.929 . S
H932 C946 0.931 . S
H933 C948 0.930 . S
C934 H922 0.930 . S
C934 C935 1.399 . S
C934 C939 1.399 . S
C935 C934 1.399 . S
C935 C936 1.376 . S
C936 H923 0.930 . S
C936 C935 1.376 . S
C936 C937 1.388 . S
C937 H924 0.930 . S
C937 C936 1.388 . S
C937 C938 1.390 . S
C938 C937 1.390 . S
C938 C939 1.394 . S
C938 C944 1.465 . S
C939 C934 1.399 . S
C939 C938 1.394 . S
C939 C940 1.516 . S
C940 C939 1.516 . S
C940 C941 1.502 . S
C940 C942 1.561 . S
C940 C943 1.526 . S
C941 H925 0.959 . S
C941 H926 0.959 . S
C941 H927 0.961 . S
C941 C940 1.502 . S
C942 H928 0.960 . S
C942 H929 0.961 . S
C942 H930 0.959 . S
C942 C940 1.561 . S
C943 C940 1.526 . S
C943 C944 1.396 . S
C943 C948 1.390 . S
C944 C938 1.465 . S
C944 C943 1.396 . S
C944 C945 1.399 . S
C945 H931 0.929 . S
C945 C944 1.399 . S
C945 C946 1.385 . S
C946 H932 0.931 . S
C946 C945 1.385 . S
C946 C947 1.389 . S
C947 C946 1.389 . S
C947 C948 1.387 . S
C948 H933 0.930 . S
C948 C943 1.390 . S
C948 C947 1.387 . S
H949 C961 0.930 . S
H950 C963 0.930 . S
H951 C964 0.930 . S
H952 C968 0.959 . S
H953 C968 0.959 . S
H954 C968 0.961 . S
H955 C969 0.960 . S
H956 C969 0.961 . S
H957 C969 0.959 . S
H958 C972 0.929 . S
H959 C973 0.931 . S
H960 C975 0.930 . S
C961 H949 0.930 . S
C961 C962 1.399 . S
C961 C966 1.399 . S
C962 C961 1.399 . S
C962 C963 1.376 . S
C963 H950 0.930 . S
C963 C962 1.376 . S
C963 C964 1.388 . S
C964 H951 0.930 . S
C964 C963 1.388 . S
C964 C965 1.390 . S
C965 C964 1.390 . S
C965 C966 1.394 . S
C965 C971 1.465 . S
C966 C961 1.399 . S
C966 C965 1.394 . S
C966 C967 1.516 . S
C967 C966 1.516 . S
C967 C968 1.502 . S
C967 C969 1.561 . S
C967 C970 1.526 . S
C968 H952 0.959 . S
C968 H953 0.959 . S
C968 H954 0.961 . S
C968 C967 1.502 . S
C969 H955 0.960 . S
C969 H956 0.961 . S
C969 H957 0.959 . S
C969 C967 1.561 . S
C970 C967 1.526 . S
C970 C971 1.396 . S
C970 C975 1.390 . S
C971 C965 1.465 . S
C971 C970 1.396 . S
C971 C972 1.399 . S
C972 H958 0.929 . S
C972 C971 1.399 . S
C972 C973 1.385 . S
C973 H959 0.931 . S
C973 C972 1.385 . S
C973 C974 1.389 . S
C974 C973 1.389 . S
C974 C975 1.387 . S
C975 H960 0.930 . S
C975 C970 1.390 . S
C975 C974 1.387 . S
H976 C988 0.930 . S
H977 C990 0.930 . S
H978 C991 0.930 . S
H979 C995 0.959 . S
H980 C995 0.959 . S
H981 C995 0.961 . S
H982 C996 0.960 . S
H983 C996 0.961 . S
H984 C996 0.959 . S
H985 C999 0.929 . S
H986 C1000 0.931 . S
H987 C1002 0.930 . S
C988 H976 0.930 . S
C988 C989 1.399 . S
C988 C993 1.399 . S
C989 C988 1.399 . S
C989 C990 1.376 . S
C990 H977 0.930 . S
C990 C989 1.376 . S
C990 C991 1.388 . S
C991 H978 0.930 . S
C991 C990 1.388 . S
C991 C992 1.390 . S
C992 C991 1.390 . S
C992 C993 1.394 . S
C992 C998 1.465 . S
C993 C988 1.399 . S
C993 C992 1.394 . S
C993 C994 1.516 . S
C994 C993 1.516 . S
C994 C995 1.502 . S
C994 C996 1.561 . S
C994 C997 1.526 . S
C995 H979 0.959 . S
C995 H980 0.959 . S
C995 H981 0.961 . S
C995 C994 1.502 . S
C996 H982 0.960 . S
C996 H983 0.961 . S
C996 H984 0.959 . S
C996 C994 1.561 . S
C997 C994 1.526 . S
C997 C998 1.396 . S
C997 C1002 1.390 . S
C998 C992 1.465 . S
C998 C997 1.396 . S
C998 C999 1.399 . S
C999 H985 0.929 . S
C999 C998 1.399 . S
C999 C1000 1.385 . S
C1000 H986 0.931 . S
C1000 C999 1.385 . S
C1000 C1001 1.389 . S
C1001 C1000 1.389 . S
C1001 C1002 1.387 . S
C1002 H987 0.930 . S
C1002 C997 1.390 . S
C1002 C1001 1.387 . S
H1003 C1015 0.930 . S
H1004 C1017 0.930 . S
H1005 C1018 0.930 . S
H1006 C1022 0.959 . S
H1007 C1022 0.959 . S
H1008 C1022 0.961 . S
H1009 C1023 0.960 . S
H1010 C1023 0.961 . S
H1011 C1023 0.959 . S
H1012 C1026 0.929 . S
H1013 C1027 0.931 . S
H1014 C1029 0.930 . S
C1015 H1003 0.930 . S
C1015 C1016 1.399 . S
C1015 C1020 1.399 . S
C1016 C1015 1.399 . S
C1016 C1017 1.376 . S
C1017 H1004 0.930 . S
C1017 C1016 1.376 . S
C1017 C1018 1.388 . S
C1018 H1005 0.930 . S
C1018 C1017 1.388 . S
C1018 C1019 1.390 . S
C1019 C1018 1.390 . S
C1019 C1020 1.394 . S
C1019 C1025 1.465 . S
C1020 C1015 1.399 . S
C1020 C1019 1.394 . S
C1020 C1021 1.516 . S
C1021 C1020 1.516 . S
C1021 C1022 1.502 . S
C1021 C1023 1.561 . S
C1021 C1024 1.526 . S
C1022 H1006 0.959 . S
C1022 H1007 0.959 . S
C1022 H1008 0.961 . S
C1022 C1021 1.502 . S
C1023 H1009 0.960 . S
C1023 H1010 0.961 . S
C1023 H1011 0.959 . S
C1023 C1021 1.561 . S
C1024 C1021 1.526 . S
C1024 C1025 1.396 . S
C1024 C1029 1.390 . S
C1025 C1019 1.465 . S
C1025 C1024 1.396 . S
C1025 C1026 1.399 . S
C1026 H1012 0.929 . S
C1026 C1025 1.399 . S
C1026 C1027 1.385 . S
C1027 H1013 0.931 . S
C1027 C1026 1.385 . S
C1027 C1028 1.389 . S
C1028 C1027 1.389 . S
C1028 C1029 1.387 . S
C1029 H1014 0.930 . S
C1029 C1024 1.390 . S
C1029 C1028 1.387 . S
H1030 C1042 0.930 . S
H1031 C1044 0.930 . S
H1032 C1045 0.930 . S
H1033 C1049 0.959 . S
H1034 C1049 0.959 . S
H1035 C1049 0.961 . S
H1036 C1050 0.960 . S
H1037 C1050 0.961 . S
H1038 C1050 0.959 . S
H1039 C1053 0.929 . S
H1040 C1054 0.931 . S
H1041 C1056 0.930 . S
C1042 H1030 0.930 . S
C1042 C1043 1.399 . S
C1042 C1047 1.399 . S
C1043 C1042 1.399 . S
C1043 C1044 1.376 . S
C1044 H1031 0.930 . S
C1044 C1043 1.376 . S
C1044 C1045 1.388 . S
C1045 H1032 0.930 . S
C1045 C1044 1.388 . S
C1045 C1046 1.390 . S
C1046 C1045 1.390 . S
C1046 C1047 1.394 . S
C1046 C1052 1.465 . S
C1047 C1042 1.399 . S
C1047 C1046 1.394 . S
C1047 C1048 1.516 . S
C1048 C1047 1.516 . S
C1048 C1049 1.502 . S
C1048 C1050 1.561 . S
C1048 C1051 1.526 . S
C1049 H1033 0.959 . S
C1049 H1034 0.959 . S
C1049 H1035 0.961 . S
C1049 C1048 1.502 . S
C1050 H1036 0.960 . S
C1050 H1037 0.961 . S
C1050 H1038 0.959 . S
C1050 C1048 1.561 . S
C1051 C1048 1.526 . S
C1051 C1052 1.396 . S
C1051 C1056 1.390 . S
C1052 C1046 1.465 . S
C1052 C1051 1.396 . S
C1052 C1053 1.399 . S
C1053 H1039 0.929 . S
C1053 C1052 1.399 . S
C1053 C1054 1.385 . S
C1054 H1040 0.931 . S
C1054 C1053 1.385 . S
C1054 C1055 1.389 . S
C1055 C1054 1.389 . S
C1055 C1056 1.387 . S
C1056 H1041 0.930 . S
C1056 C1051 1.390 . S
C1056 C1055 1.387 . S
H1057 C1069 0.930 . S
H1058 C1071 0.930 . S
H1059 C1072 0.930 . S
H1060 C1076 0.959 . S
H1061 C1076 0.959 . S
H1062 C1076 0.961 . S
H1063 C1077 0.960 . S
H1064 C1077 0.961 . S
H1065 C1077 0.959 . S
H1066 C1080 0.929 . S
H1067 C1081 0.931 . S
H1068 C1083 0.930 . S
C1069 H1057 0.930 . S
C1069 C1070 1.399 . S
C1069 C1074 1.399 . S
C1070 C1069 1.399 . S
C1070 C1071 1.376 . S
C1071 H1058 0.930 . S
C1071 C1070 1.376 . S
C1071 C1072 1.388 . S
C1072 H1059 0.930 . S
C1072 C1071 1.388 . S
C1072 C1073 1.390 . S
C1073 C1072 1.390 . S
C1073 C1074 1.394 . S
C1073 C1079 1.465 . S
C1074 C1069 1.399 . S
C1074 C1073 1.394 . S
C1074 C1075 1.516 . S
C1075 C1074 1.516 . S
C1075 C1076 1.502 . S
C1075 C1077 1.561 . S
C1075 C1078 1.526 . S
C1076 H1060 0.959 . S
C1076 H1061 0.959 . S
C1076 H1062 0.961 . S
C1076 C1075 1.502 . S
C1077 H1063 0.960 . S
C1077 H1064 0.961 . S
C1077 H1065 0.959 . S
C1077 C1075 1.561 . S
C1078 C1075 1.526 . S
C1078 C1079 1.396 . S
C1078 C1083 1.390 . S
C1079 C1073 1.465 . S
C1079 C1078 1.396 . S
C1079 C1080 1.399 . S
C1080 H1066 0.929 . S
C1080 C1079 1.399 . S
C1080 C1081 1.385 . S
C1081 H1067 0.931 . S
C1081 C1080 1.385 . S
C1081 C1082 1.389 . S
C1082 C1081 1.389 . S
C1082 C1083 1.387 . S
C1083 H1068 0.930 . S
C1083 C1078 1.390 . S
C1083 C1082 1.387 . S
H1084 C1096 0.930 . S
H1085 C1098 0.930 . S
H1086 C1099 0.930 . S
H1087 C1103 0.959 . S
H1088 C1103 0.959 . S
H1089 C1103 0.961 . S
H1090 C1104 0.960 . S
H1091 C1104 0.961 . S
H1092 C1104 0.959 . S
H1093 C1107 0.929 . S
H1094 C1108 0.931 . S
H1095 C1110 0.930 . S
C1096 H1084 0.930 . S
C1096 C1097 1.399 . S
C1096 C1101 1.399 . S
C1097 C1096 1.399 . S
C1097 C1098 1.376 . S
C1098 H1085 0.930 . S
C1098 C1097 1.376 . S
C1098 C1099 1.388 . S
C1099 H1086 0.930 . S
C1099 C1098 1.388 . S
C1099 C1100 1.390 . S
C1100 C1099 1.390 . S
C1100 C1101 1.394 . S
C1100 C1106 1.465 . S
C1101 C1096 1.399 . S
C1101 C1100 1.394 . S
C1101 C1102 1.516 . S
C1102 C1101 1.516 . S
C1102 C1103 1.502 . S
C1102 C1104 1.561 . S
C1102 C1105 1.526 . S
C1103 H1087 0.959 . S
C1103 H1088 0.959 . S
C1103 H1089 0.961 . S
C1103 C1102 1.502 . S
C1104 H1090 0.960 . S
C1104 H1091 0.961 . S
C1104 H1092 0.959 . S
C1104 C1102 1.561 . S
C1105 C1102 1.526 . S
C1105 C1106 1.396 . S
C1105 C1110 1.390 . S
C1106 C1100 1.465 . S
C1106 C1105 1.396 . S
C1106 C1107 1.399 . S
C1107 H1093 0.929 . S
C1107 C1106 1.399 . S
C1107 C1108 1.385 . S
C1108 H1094 0.931 . S
C1108 C1107 1.385 . S
C1108 C1109 1.389 . S
C1109 C1108 1.389 . S
C1109 C1110 1.387 . S
C1110 H1095 0.930 . S
C1110 C1105 1.390 . S
C1110 C1109 1.387 . S
H1111 C1123 0.930 . S
H1112 C1125 0.930 . S
H1113 C1126 0.930 . S
H1114 C1130 0.959 . S
H1115 C1130 0.959 . S
H1116 C1130 0.961 . S
H1117 C1131 0.960 . S
H1118 C1131 0.961 . S
H1119 C1131 0.959 . S
H1120 C1134 0.929 . S
H1121 C1135 0.931 . S
H1122 C1137 0.930 . S
C1123 H1111 0.930 . S
C1123 C1124 1.399 . S
C1123 C1128 1.399 . S
C1124 C1123 1.399 . S
C1124 C1125 1.376 . S
C1125 H1112 0.930 . S
C1125 C1124 1.376 . S
C1125 C1126 1.388 . S
C1126 H1113 0.930 . S
C1126 C1125 1.388 . S
C1126 C1127 1.390 . S
C1127 C1126 1.390 . S
C1127 C1128 1.394 . S
C1127 C1133 1.465 . S
C1128 C1123 1.399 . S
C1128 C1127 1.394 . S
C1128 C1129 1.516 . S
C1129 C1128 1.516 . S
C1129 C1130 1.502 . S
C1129 C1131 1.561 . S
C1129 C1132 1.526 . S
C1130 H1114 0.959 . S
C1130 H1115 0.959 . S
C1130 H1116 0.961 . S
C1130 C1129 1.502 . S
C1131 H1117 0.960 . S
C1131 H1118 0.961 . S
C1131 H1119 0.959 . S
C1131 C1129 1.561 . S
C1132 C1129 1.526 . S
C1132 C1133 1.396 . S
C1132 C1137 1.390 . S
C1133 C1127 1.465 . S
C1133 C1132 1.396 . S
C1133 C1134 1.399 . S
C1134 H1120 0.929 . S
C1134 C1133 1.399 . S
C1134 C1135 1.385 . S
C1135 H1121 0.931 . S
C1135 C1134 1.385 . S
C1135 C1136 1.389 . S
C1136 C1135 1.389 . S
C1136 C1137 1.387 . S
C1137 H1122 0.930 . S
C1137 C1132 1.390 . S
C1137 C1136 1.387 . S
H1138 C1150 0.930 . S
H1139 C1152 0.930 . S
H1140 C1153 0.930 . S
H1141 C1157 0.959 . S
H1142 C1157 0.959 . S
H1143 C1157 0.961 . S
H1144 C1158 0.960 . S
H1145 C1158 0.961 . S
H1146 C1158 0.959 . S
H1147 C1161 0.929 . S
H1148 C1162 0.931 . S
H1149 C1164 0.930 . S
C1150 H1138 0.930 . S
C1150 C1151 1.399 . S
C1150 C1155 1.399 . S
C1151 C1150 1.399 . S
C1151 C1152 1.376 . S
C1152 H1139 0.930 . S
C1152 C1151 1.376 . S
C1152 C1153 1.388 . S
C1153 H1140 0.930 . S
C1153 C1152 1.388 . S
C1153 C1154 1.390 . S
C1154 C1153 1.390 . S
C1154 C1155 1.394 . S
C1154 C1160 1.465 . S
C1155 C1150 1.399 . S
C1155 C1154 1.394 . S
C1155 C1156 1.516 . S
C1156 C1155 1.516 . S
C1156 C1157 1.502 . S
C1156 C1158 1.561 . S
C1156 C1159 1.526 . S
C1157 H1141 0.959 . S
C1157 H1142 0.959 . S
C1157 H1143 0.961 . S
C1157 C1156 1.502 . S
C1158 H1144 0.960 . S
C1158 H1145 0.961 . S
C1158 H1146 0.959 . S
C1158 C1156 1.561 . S
C1159 C1156 1.526 . S
C1159 C1160 1.396 . S
C1159 C1164 1.390 . S
C1160 C1154 1.465 . S
C1160 C1159 1.396 . S
C1160 C1161 1.399 . S
C1161 H1147 0.929 . S
C1161 C1160 1.399 . S
C1161 C1162 1.385 . S
C1162 H1148 0.931 . S
C1162 C1161 1.385 . S
C1162 C1163 1.389 . S
C1163 C1162 1.389 . S
C1163 C1164 1.387 . S
C1164 H1149 0.930 . S
C1164 C1159 1.390 . S
C1164 C1163 1.387 . S
H1165 C1177 0.930 . S
H1166 C1179 0.930 . S
H1167 C1180 0.930 . S
H1168 C1184 0.959 . S
H1169 C1184 0.959 . S
H1170 C1184 0.961 . S
H1171 C1185 0.960 . S
H1172 C1185 0.961 . S
H1173 C1185 0.959 . S
H1174 C1188 0.929 . S
H1175 C1189 0.931 . S
H1176 C1191 0.930 . S
C1177 H1165 0.930 . S
C1177 C1178 1.399 . S
C1177 C1182 1.399 . S
C1178 C1177 1.399 . S
C1178 C1179 1.376 . S
C1179 H1166 0.930 . S
C1179 C1178 1.376 . S
C1179 C1180 1.388 . S
C1180 H1167 0.930 . S
C1180 C1179 1.388 . S
C1180 C1181 1.390 . S
C1181 C1180 1.390 . S
C1181 C1182 1.394 . S
C1181 C1187 1.465 . S
C1182 C1177 1.399 . S
C1182 C1181 1.394 . S
C1182 C1183 1.516 . S
C1183 C1182 1.516 . S
C1183 C1184 1.502 . S
C1183 C1185 1.561 . S
C1183 C1186 1.526 . S
C1184 H1168 0.959 . S
C1184 H1169 0.959 . S
C1184 H1170 0.961 . S
C1184 C1183 1.502 . S
C1185 H1171 0.960 . S
C1185 H1172 0.961 . S
C1185 H1173 0.959 . S
C1185 C1183 1.561 . S
C1186 C1183 1.526 . S
C1186 C1187 1.396 . S
C1186 C1191 1.390 . S
C1187 C1181 1.465 . S
C1187 C1186 1.396 . S
C1187 C1188 1.399 . S
C1188 H1174 0.929 . S
C1188 C1187 1.399 . S
C1188 C1189 1.385 . S
C1189 H1175 0.931 . S
C1189 C1188 1.385 . S
C1189 C1190 1.389 . S
C1190 C1189 1.389 . S
C1190 C1191 1.387 . S
C1191 H1176 0.930 . S
C1191 C1186 1.390 . S
C1191 C1190 1.387 . S
H1192 C1204 0.930 . S
H1193 C1206 0.930 . S
H1194 C1207 0.930 . S
H1195 C1211 0.959 . S
H1196 C1211 0.959 . S
H1197 C1211 0.961 1_655 S
H1198 C1212 0.960 . S
H1199 C1212 0.961 1_455 S
H1200 C1212 0.959 . S
H1201 C1215 0.929 . S
H1202 C1216 0.931 . S
H1203 C1218 0.930 . S
C1204 H1192 0.930 . S
C1204 C1205 1.399 1_565 S
C1204 C1209 1.399 1_565 S
C1205 C1204 1.399 1_545 S
C1205 C1206 1.376 . S
C1206 H1193 0.930 . S
C1206 C1205 1.376 . S
C1206 C1207 1.388 . S
C1207 H1194 0.930 . S
C1207 C1206 1.388 . S
C1207 C1208 1.390 . S
C1208 C1207 1.390 . S
C1208 C1209 1.394 . S
C1208 C1214 1.465 1_655 S
C1209 C1204 1.399 1_545 S
C1209 C1208 1.394 . S
C1209 C1210 1.519 1_655 S
C1210 C1209 1.519 1_455 S
C1210 C1211 1.478 1_545 S
C1210 C1212 1.577 1_455 S
C1210 C1213 1.534 . S
C1211 H1195 0.959 . S
C1211 H1196 0.959 . S
C1211 H1197 0.961 1_455 S
C1211 C1210 1.478 1_565 S
C1212 H1198 0.960 . S
C1212 H1199 0.961 1_655 S
C1212 H1200 0.959 . S
C1212 C1210 1.577 1_655 S
C1213 C1210 1.534 . S
C1213 C1214 1.396 . S
C1213 C1218 1.390 . S
C1214 C1208 1.465 1_455 S
C1214 C1213 1.396 . S
C1214 C1215 1.399 . S
C1215 H1201 0.929 . S
C1215 C1214 1.399 . S
C1215 C1216 1.385 . S
C1216 H1202 0.931 . S
C1216 C1215 1.385 . S
C1216 C1217 1.389 . S
C1217 C1216 1.389 . S
C1217 C1218 1.387 . S
C1218 H1203 0.930 . S
C1218 C1213 1.390 . S
C1218 C1217 1.387 . S
H1219 C1231 0.930 . S
H1220 C1233 0.930 . S
H1221 C1234 0.930 . S
H1222 C1238 0.959 . S
H1223 C1238 0.959 1_655 S
H1224 C1238 0.961 . S
H1225 C1239 0.960 1_455 S
H1226 C1239 0.961 . S
H1227 C1239 0.959 1_565 S
H1228 C1242 0.929 . S
H1229 C1243 0.930 1_565 S
H1230 C1245 0.930 . S
C1231 H1219 0.930 . S
C1231 C1232 1.390 1_545 S
C1231 C1236 1.399 . S
C1232 C1231 1.390 1_565 S
C1232 C1233 1.386 . S
C1233 H1220 0.930 . S
C1233 C1232 1.386 . S
C1233 C1234 1.388 . S
C1234 H1221 0.930 . S
C1234 C1233 1.388 . S
C1234 C1235 1.394 . S
C1235 C1234 1.394 . S
C1235 C1236 1.390 1_565 S
C1235 C1241 1.464 1_465 S
C1236 C1231 1.399 . S
C1236 C1235 1.390 1_545 S
C1236 C1237 1.516 . S
C1237 C1236 1.516 . S
C1237 C1238 1.502 . S
C1237 C1239 1.561 1_455 S
C1237 C1240 1.526 1_455 S
C1238 H1222 0.959 . S
C1238 H1223 0.959 1_455 S
C1238 H1224 0.961 . S
C1238 C1237 1.502 . S
C1239 H1225 0.960 1_655 S
C1239 H1226 0.961 . S
C1239 H1227 0.959 1_545 S
C1239 C1237 1.561 1_655 S
C1240 C1237 1.526 1_655 S
C1240 C1241 1.396 . S
C1240 C1245 1.390 . S
C1241 C1235 1.464 1_645 S
C1241 C1240 1.396 . S
C1241 C1242 1.399 1_545 S
C1242 H1228 0.929 . S
C1242 C1241 1.399 1_565 S
C1242 C1243 1.385 1_565 S
C1243 H1229 0.930 1_545 S
C1243 C1242 1.385 1_545 S
C1243 C1244 1.389 . S
C1244 C1243 1.389 . S
C1244 C1245 1.387 . S
C1245 H1230 0.930 . S
C1245 C1240 1.390 . S
C1245 C1244 1.387 . S
H1246 C1258 0.930 . S
H1247 C1260 0.930 . S
H1248 C1261 0.930 . S
H1249 C1265 0.959 . S
H1250 C1265 0.959 . S
H1251 C1265 0.961 1_655 S
H1252 C1266 0.960 1_655 S
H1253 C1266 0.961 . S
H1254 C1266 0.959 . S
H1255 C1269 0.929 . S
H1256 C1270 0.931 . S
H1257 C1272 0.930 . S
C1258 H1246 0.930 . S
C1258 C1259 1.399 . S
C1258 C1263 1.399 . S
C1259 C1258 1.399 . S
C1259 C1260 1.376 . S
C1260 H1247 0.930 . S
C1260 C1259 1.376 . S
C1260 C1261 1.388 . S
C1261 H1248 0.930 . S
C1261 C1260 1.388 . S
C1261 C1262 1.390 . S
C1262 C1261 1.390 . S
C1262 C1263 1.394 . S
C1262 C1268 1.465 1_655 S
C1263 C1258 1.399 . S
C1263 C1262 1.394 . S
C1263 C1264 1.516 1_655 S
C1264 C1263 1.516 1_455 S
C1264 C1265 1.502 . S
C1264 C1266 1.561 . S
C1264 C1267 1.526 . S
C1265 H1249 0.959 . S
C1265 H1250 0.959 . S
C1265 H1251 0.961 1_455 S
C1265 C1264 1.502 . S
C1266 H1252 0.960 1_455 S
C1266 H1253 0.961 . S
C1266 H1254 0.959 . S
C1266 C1264 1.561 . S
C1267 C1264 1.526 . S
C1267 C1268 1.396 . S
C1267 C1272 1.390 . S
C1268 C1262 1.465 1_455 S
C1268 C1267 1.396 . S
C1268 C1269 1.399 . S
C1269 H1255 0.929 . S
C1269 C1268 1.399 . S
C1269 C1270 1.385 . S
C1270 H1256 0.931 . S
C1270 C1269 1.385 . S
C1270 C1271 1.389 . S
C1271 C1270 1.389 . S
C1271 C1272 1.387 . S
C1272 H1257 0.930 . S
C1272 C1267 1.390 . S
C1272 C1271 1.387 . S
H1273 C1285 0.930 . S
H1274 C1287 0.930 . S
H1275 C1288 0.930 . S
H1276 C1292 0.959 . S
H1277 C1292 0.959 . S
H1278 C1292 0.961 1_655 S
H1279 C1293 0.960 . S
H1280 C1293 0.961 1_455 S
H1281 C1293 0.959 . S
H1282 C1296 0.929 . S
H1283 C1297 0.931 . S
H1284 C1299 0.930 . S
C1285 H1273 0.930 . S
C1285 C1286 1.399 . S
C1285 C1290 1.399 . S
C1286 C1285 1.399 . S
C1286 C1287 1.376 . S
C1287 H1274 0.930 . S
C1287 C1286 1.376 . S
C1287 C1288 1.388 . S
C1288 H1275 0.930 . S
C1288 C1287 1.388 . S
C1288 C1289 1.390 . S
C1289 C1288 1.390 . S
C1289 C1290 1.394 . S
C1289 C1295 1.465 1_655 S
C1290 C1285 1.399 . S
C1290 C1289 1.394 . S
C1290 C1291 1.516 1_655 S
C1291 C1290 1.516 1_455 S
C1291 C1292 1.502 . S
C1291 C1293 1.561 1_455 S
C1291 C1294 1.526 . S
C1292 H1276 0.959 . S
C1292 H1277 0.959 . S
C1292 H1278 0.961 1_455 S
C1292 C1291 1.502 . S
C1293 H1279 0.960 . S
C1293 H1280 0.961 1_655 S
C1293 H1281 0.959 . S
C1293 C1291 1.561 1_655 S
C1294 C1291 1.526 . S
C1294 C1295 1.396 . S
C1294 C1299 1.390 . S
C1295 C1289 1.465 1_455 S
C1295 C1294 1.396 . S
C1295 C1296 1.399 . S
C1296 H1282 0.929 . S
C1296 C1295 1.399 . S
C1296 C1297 1.385 . S
C1297 H1283 0.931 . S
C1297 C1296 1.385 . S
C1297 C1298 1.389 . S
C1298 C1297 1.389 . S
C1298 C1299 1.387 . S
C1299 H1284 0.930 . S
C1299 C1294 1.390 . S
C1299 C1298 1.387 . S
H1300 C1312 0.928 1_565 S
H1301 C1314 0.930 . S
H1302 C1315 0.930 . S
H1303 C1319 0.959 . S
H1304 C1319 0.959 . S
H1305 C1319 0.961 . S
H1306 C1320 0.960 . S
H1307 C1320 0.961 . S
H1308 C1320 0.959 . S
H1309 C1323 0.929 . S
H1310 C1324 0.931 . S
H1311 C1326 0.930 . S
C1312 H1300 0.928 1_545 S
C1312 C1313 1.399 . S
C1312 C1317 1.399 . S
C1313 C1312 1.399 . S
C1313 C1314 1.376 . S
C1314 H1301 0.930 . S
C1314 C1313 1.376 . S
C1314 C1315 1.388 . S
C1315 H1302 0.930 . S
C1315 C1314 1.388 . S
C1315 C1316 1.390 . S
C1316 C1315 1.390 . S
C1316 C1317 1.394 . S
C1316 C1322 1.465 . S
C1317 C1312 1.399 . S
C1317 C1316 1.394 . S
C1317 C1318 1.516 . S
C1318 C1317 1.516 . S
C1318 C1319 1.502 1_545 S
C1318 C1320 1.561 . S
C1318 C1321 1.526 . S
C1319 H1303 0.959 . S
C1319 H1304 0.959 . S
C1319 H1305 0.961 . S
C1319 C1318 1.502 1_565 S
C1320 H1306 0.960 . S
C1320 H1307 0.961 . S
C1320 H1308 0.959 . S
C1320 C1318 1.561 . S
C1321 C1318 1.526 . S
C1321 C1322 1.396 . S
C1321 C1326 1.390 . S
C1322 C1316 1.465 . S
C1322 C1321 1.396 . S
C1322 C1323 1.399 . S
C1323 H1309 0.929 . S
C1323 C1322 1.399 . S
C1323 C1324 1.385 . S
C1324 H1310 0.931 . S
C1324 C1323 1.385 . S
C1324 C1325 1.389 . S
C1325 C1324 1.389 . S
C1325 C1326 1.387 . S
C1326 H1311 0.930 . S
C1326 C1321 1.390 . S
C1326 C1325 1.387 . S
H1327 C1339 0.930 . S
H1328 C1341 0.930 . S
H1329 C1342 0.927 1_565 S
H1330 C1346 0.959 . S
H1331 C1346 0.959 . S
H1332 C1346 0.961 . S
H1333 C1347 0.960 . S
H1334 C1347 0.961 . S
H1335 C1347 0.959 . S
H1336 C1350 0.929 . S
H1337 C1351 0.931 . S
H1338 C1353 0.930 . S
C1339 H1327 0.930 . S
C1339 C1340 1.399 . S
C1339 C1344 1.399 . S
C1340 C1339 1.399 . S
C1340 C1341 1.376 . S
C1341 H1328 0.930 . S
C1341 C1340 1.376 . S
C1341 C1342 1.390 . S
C1342 H1329 0.927 1_545 S
C1342 C1341 1.390 . S
C1342 C1343 1.391 . S
C1343 C1342 1.391 . S
C1343 C1344 1.394 . S
C1343 C1349 1.465 . S
C1344 C1339 1.399 . S
C1344 C1343 1.394 . S
C1344 C1345 1.516 . S
C1345 C1344 1.516 . S
C1345 C1346 1.502 . S
C1345 C1347 1.561 1_545 S
C1345 C1348 1.526 . S
C1346 H1330 0.959 . S
C1346 H1331 0.959 . S
C1346 H1332 0.961 . S
C1346 C1345 1.502 . S
C1347 H1333 0.960 . S
C1347 H1334 0.961 . S
C1347 H1335 0.959 . S
C1347 C1345 1.561 1_565 S
C1348 C1345 1.526 . S
C1348 C1349 1.396 . S
C1348 C1353 1.390 . S
C1349 C1343 1.465 . S
C1349 C1348 1.396 . S
C1349 C1350 1.399 1_545 S
C1350 H1336 0.929 . S
C1350 C1349 1.399 1_565 S
C1350 C1351 1.385 . S
C1351 H1337 0.931 . S
C1351 C1350 1.385 . S
C1351 C1352 1.384 1_565 S
C1352 C1351 1.384 1_545 S
C1352 C1353 1.393 . S
C1353 H1338 0.930 . S
C1353 C1348 1.390 . S
C1353 C1352 1.393 . S
H1354 C1366 0.930 . S
H1355 C1368 0.930 . S
H1356 C1369 0.930 . S
H1357 C1373 0.959 . S
H1358 C1373 0.959 . S
H1359 C1373 0.961 . S
H1360 C1374 0.960 . S
H1361 C1374 0.961 . S
H1362 C1374 0.959 . S
H1363 C1377 0.929 . S
H1364 C1378 0.931 . S
H1365 C1380 0.930 . S
C1366 H1354 0.930 . S
C1366 C1367 1.399 . S
C1366 C1371 1.399 . S
C1367 C1366 1.399 . S
C1367 C1368 1.376 . S
C1368 H1355 0.930 . S
C1368 C1367 1.376 . S
C1368 C1369 1.388 . S
C1369 H1356 0.930 . S
C1369 C1368 1.388 . S
C1369 C1370 1.390 . S
C1370 C1369 1.390 . S
C1370 C1371 1.394 . S
C1370 C1376 1.465 . S
C1371 C1366 1.399 . S
C1371 C1370 1.394 . S
C1371 C1372 1.516 . S
C1372 C1371 1.516 . S
C1372 C1373 1.502 . S
C1372 C1374 1.561 . S
C1372 C1375 1.526 . S
C1373 H1357 0.959 . S
C1373 H1358 0.959 . S
C1373 H1359 0.961 . S
C1373 C1372 1.502 . S
C1374 H1360 0.960 . S
C1374 H1361 0.961 . S
C1374 H1362 0.959 . S
C1374 C1372 1.561 . S
C1375 C1372 1.526 . S
C1375 C1376 1.396 . S
C1375 C1380 1.390 . S
C1376 C1370 1.465 . S
C1376 C1375 1.396 . S
C1376 C1377 1.399 . S
C1377 H1363 0.929 . S
C1377 C1376 1.399 . S
C1377 C1378 1.385 . S
C1378 H1364 0.931 . S
C1378 C1377 1.385 . S
C1378 C1379 1.389 . S
C1379 C1378 1.389 . S
C1379 C1380 1.387 . S
C1380 H1365 0.930 . S
C1380 C1375 1.390 . S
C1380 C1379 1.387 . S
H1381 C1393 0.930 . S
H1382 C1395 0.930 . S
H1383 C1396 0.930 . S
H1384 C1400 0.959 . S
H1385 C1400 0.959 . S
H1386 C1400 0.961 . S
H1387 C1401 0.960 . S
H1388 C1401 0.961 . S
H1389 C1401 0.959 . S
H1390 C1404 0.929 . S
H1391 C1405 0.931 . S
H1392 C1407 0.930 . S
C1393 H1381 0.930 . S
C1393 C1394 1.399 . S
C1393 C1398 1.399 . S
C1394 C1393 1.399 . S
C1394 C1395 1.376 . S
C1395 H1382 0.930 . S
C1395 C1394 1.376 . S
C1395 C1396 1.388 . S
C1396 H1383 0.930 . S
C1396 C1395 1.388 . S
C1396 C1397 1.390 . S
C1397 C1396 1.390 . S
C1397 C1398 1.394 . S
C1397 C1403 1.465 . S
C1398 C1393 1.399 . S
C1398 C1397 1.394 . S
C1398 C1399 1.516 . S
C1399 C1398 1.516 . S
C1399 C1400 1.502 . S
C1399 C1401 1.561 . S
C1399 C1402 1.526 . S
C1400 H1384 0.959 . S
C1400 H1385 0.959 . S
C1400 H1386 0.961 . S
C1400 C1399 1.502 . S
C1401 H1387 0.960 . S
C1401 H1388 0.961 . S
C1401 H1389 0.959 . S
C1401 C1399 1.561 . S
C1402 C1399 1.526 . S
C1402 C1403 1.396 . S
C1402 C1407 1.390 . S
C1403 C1397 1.465 . S
C1403 C1402 1.396 . S
C1403 C1404 1.399 . S
C1404 H1390 0.929 . S
C1404 C1403 1.399 . S
C1404 C1405 1.385 . S
C1405 H1391 0.931 . S
C1405 C1404 1.385 . S
C1405 C1406 1.389 . S
C1406 C1405 1.389 . S
C1406 C1407 1.387 . S
C1407 H1392 0.930 . S
C1407 C1402 1.390 . S
C1407 C1406 1.387 . S
H1408 C1420 0.930 . S
H1409 C1422 0.930 . S
H1410 C1423 0.930 . S
H1411 C1427 0.957 1_554 S
H1412 C1427 0.959 1_554 S
H1413 C1427 0.961 . S
H1414 C1428 0.955 . S
H1415 C1428 0.965 1_554 S
H1416 C1428 0.959 1_554 S
H1417 C1431 0.929 . S
H1418 C1432 0.931 . S
H1419 C1434 0.930 . S
C1420 H1408 0.930 . S
C1420 C1421 1.399 . S
C1420 C1425 1.399 . S
C1421 C1420 1.399 . S
C1421 C1422 1.376 1_545 S
C1422 H1409 0.930 . S
C1422 C1421 1.376 1_565 S
C1422 C1423 1.388 . S
C1423 H1410 0.930 . S
C1423 C1422 1.388 . S
C1423 C1424 1.390 . S
C1424 C1423 1.390 . S
C1424 C1425 1.394 1_565 S
C1424 C1430 1.465 1_556 S
C1425 C1420 1.399 . S
C1425 C1424 1.394 1_545 S
C1425 C1426 1.519 . S
C1426 C1425 1.519 . S
C1426 C1427 1.502 . S
C1426 C1428 1.561 . S
C1426 C1429 1.523 1_556 S
C1427 H1411 0.957 1_556 S
C1427 H1412 0.959 1_556 S
C1427 H1413 0.961 . S
C1427 C1426 1.502 . S
C1428 H1414 0.955 . S
C1428 H1415 0.965 1_556 S
C1428 H1416 0.959 1_556 S
C1428 C1426 1.561 . S
C1429 C1426 1.523 1_554 S
C1429 C1430 1.396 1_545 S
C1429 C1434 1.390 . S
C1430 C1424 1.465 1_554 S
C1430 C1429 1.396 1_565 S
C1430 C1431 1.399 . S
C1431 H1417 0.929 . S
C1431 C1430 1.399 . S
C1431 C1432 1.385 . S
C1432 H1418 0.931 . S
C1432 C1431 1.385 . S
C1432 C1433 1.389 1_565 S
C1433 C1432 1.389 1_545 S
C1433 C1434 1.387 . S
C1434 H1419 0.930 . S
C1434 C1429 1.390 . S
C1434 C1433 1.387 . S
H1435 C1447 0.930 . S
H1436 C1449 0.930 . S
H1437 C1450 0.930 . S
H1438 C1454 0.959 . S
H1439 C1454 0.955 . S
H1440 C1454 0.966 1_556 S
H1441 C1455 0.983 . S
H1442 C1455 0.941 1_554 S
H1443 C1455 0.955 1_554 S
H1444 C1458 0.929 . S
H1445 C1459 0.931 . S
H1446 C1461 0.930 . S
C1447 H1435 0.930 . S
C1447 C1448 1.399 1_565 S
C1447 C1452 1.399 . S
C1448 C1447 1.399 1_545 S
C1448 C1449 1.376 . S
C1449 H1436 0.930 . S
C1449 C1448 1.376 . S
C1449 C1450 1.388 . S
C1450 H1437 0.930 . S
C1450 C1449 1.388 . S
C1450 C1451 1.390 . S
C1451 C1450 1.390 . S
C1451 C1452 1.394 1_545 S
C1451 C1457 1.465 1_556 S
C1452 C1447 1.399 . S
C1452 C1451 1.394 1_565 S
C1452 C1453 1.524 . S
C1453 C1452 1.524 . S
C1453 C1454 1.502 1_556 S
C1453 C1455 1.561 . S
C1453 C1456 1.518 1_556 S
C1454 H1438 0.959 . S
C1454 H1439 0.955 . S
C1454 H1440 0.966 1_554 S
C1454 C1453 1.502 1_554 S
C1455 H1441 0.983 . S
C1455 H1442 0.941 1_556 S
C1455 H1443 0.955 1_556 S
C1455 C1453 1.561 . S
C1456 C1453 1.518 1_554 S
C1456 C1457 1.396 1_565 S
C1456 C1461 1.390 . S
C1457 C1451 1.465 1_554 S
C1457 C1456 1.396 1_545 S
C1457 C1458 1.399 . S
C1458 H1444 0.929 . S
C1458 C1457 1.399 . S
C1458 C1459 1.385 . S
C1459 H1445 0.931 . S
C1459 C1458 1.385 . S
C1459 C1460 1.389 . S
C1460 C1459 1.389 . S
C1460 C1461 1.387 1_545 S
C1461 H1446 0.930 . S
C1461 C1456 1.390 . S
C1461 C1460 1.387 1_565 S
H1462 C1474 0.930 . S
H1463 C1476 0.930 . S
H1464 C1477 0.930 . S
H1465 C1481 0.959 . S
H1466 C1481 0.959 . S
H1467 C1481 0.961 . S
H1468 C1482 0.960 . S
H1469 C1482 0.961 . S
H1470 C1482 0.959 . S
H1471 C1485 0.929 . S
H1472 C1486 0.931 . S
H1473 C1488 0.930 . S
C1474 H1462 0.930 . S
C1474 C1475 1.399 . S
C1474 C1479 1.399 . S
C1475 C1474 1.399 . S
C1475 C1476 1.376 . S
C1476 H1463 0.930 . S
C1476 C1475 1.376 . S
C1476 C1477 1.388 . S
C1477 H1464 0.930 . S
C1477 C1476 1.388 . S
C1477 C1478 1.390 . S
C1478 C1477 1.390 . S
C1478 C1479 1.394 . S
C1478 C1484 1.465 . S
C1479 C1474 1.399 . S
C1479 C1478 1.394 . S
C1479 C1480 1.516 . S
C1480 C1479 1.516 . S
C1480 C1481 1.502 . S
C1480 C1482 1.561 . S
C1480 C1483 1.526 . S
C1481 H1465 0.959 . S
C1481 H1466 0.959 . S
C1481 H1467 0.961 . S
C1481 C1480 1.502 . S
C1482 H1468 0.960 . S
C1482 H1469 0.961 . S
C1482 H1470 0.959 . S
C1482 C1480 1.561 . S
C1483 C1480 1.526 . S
C1483 C1484 1.396 . S
C1483 C1488 1.390 . S
C1484 C1478 1.465 . S
C1484 C1483 1.396 . S
C1484 C1485 1.399 . S
C1485 H1471 0.929 . S
C1485 C1484 1.399 . S
C1485 C1486 1.385 . S
C1486 H1472 0.931 . S
C1486 C1485 1.385 . S
C1486 C1487 1.389 . S
C1487 C1486 1.389 . S
C1487 C1488 1.387 . S
C1488 H1473 0.930 . S
C1488 C1483 1.390 . S
C1488 C1487 1.387 . S
H1489 C1501 0.930 . S
H1490 C1503 0.930 . S
H1491 C1504 0.930 . S
H1492 C1508 0.959 . S
H1493 C1508 0.959 . S
H1494 C1508 0.961 . S
H1495 C1509 0.960 . S
H1496 C1509 0.961 . S
H1497 C1509 0.959 . S
H1498 C1512 0.929 . S
H1499 C1513 0.931 . S
H1500 C1515 0.930 . S
C1501 H1489 0.930 . S
C1501 C1502 1.399 . S
C1501 C1506 1.399 . S
C1502 C1501 1.399 . S
C1502 C1503 1.376 . S
C1503 H1490 0.930 . S
C1503 C1502 1.376 . S
C1503 C1504 1.388 . S
C1504 H1491 0.930 . S
C1504 C1503 1.388 . S
C1504 C1505 1.390 . S
C1505 C1504 1.390 . S
C1505 C1506 1.394 . S
C1505 C1511 1.465 . S
C1506 C1501 1.399 . S
C1506 C1505 1.394 . S
C1506 C1507 1.516 . S
C1507 C1506 1.516 . S
C1507 C1508 1.502 . S
C1507 C1509 1.561 . S
C1507 C1510 1.526 . S
C1508 H1492 0.959 . S
C1508 H1493 0.959 . S
C1508 H1494 0.961 . S
C1508 C1507 1.502 . S
C1509 H1495 0.960 . S
C1509 H1496 0.961 . S
C1509 H1497 0.959 . S
C1509 C1507 1.561 . S
C1510 C1507 1.526 . S
C1510 C1511 1.396 . S
C1510 C1515 1.390 . S
C1511 C1505 1.465 . S
C1511 C1510 1.396 . S
C1511 C1512 1.399 . S
C1512 H1498 0.929 . S
C1512 C1511 1.399 . S
C1512 C1513 1.385 . S
C1513 H1499 0.931 . S
C1513 C1512 1.385 . S
C1513 C1514 1.389 . S
C1514 C1513 1.389 . S
C1514 C1515 1.387 . S
C1515 H1500 0.930 . S
C1515 C1510 1.390 . S
C1515 C1514 1.387 . S
H1516 C1528 0.930 . S
H1517 C1530 0.930 . S
H1518 C1531 0.930 . S
H1519 C1535 0.959 . S
H1520 C1535 0.959 . S
H1521 C1535 0.961 . S
H1522 C1536 0.960 . S
H1523 C1536 0.961 . S
H1524 C1536 0.959 . S
H1525 C1539 0.929 . S
H1526 C1540 0.931 . S
H1527 C1542 0.930 . S
C1528 H1516 0.930 . S
C1528 C1529 1.399 1_565 S
C1528 C1533 1.399 . S
C1529 C1528 1.399 1_545 S
C1529 C1530 1.376 . S
C1530 H1517 0.930 . S
C1530 C1529 1.376 . S
C1530 C1531 1.388 . S
C1531 H1518 0.930 . S
C1531 C1530 1.388 . S
C1531 C1532 1.390 . S
C1532 C1531 1.390 . S
C1532 C1533 1.394 1_545 S
C1532 C1538 1.465 . S
C1533 C1528 1.399 . S
C1533 C1532 1.394 1_565 S
C1533 C1534 1.516 . S
C1534 C1533 1.516 . S
C1534 C1535 1.502 . S
C1534 C1536 1.561 . S
C1534 C1537 1.526 . S
C1535 H1519 0.959 . S
C1535 H1520 0.959 . S
C1535 H1521 0.961 . S
C1535 C1534 1.502 . S
C1536 H1522 0.960 . S
C1536 H1523 0.961 . S
C1536 H1524 0.959 . S
C1536 C1534 1.561 . S
C1537 C1534 1.526 . S
C1537 C1538 1.396 1_565 S
C1537 C1542 1.390 . S
C1538 C1532 1.465 . S
C1538 C1537 1.396 1_545 S
C1538 C1539 1.399 . S
C1539 H1525 0.929 . S
C1539 C1538 1.399 . S
C1539 C1540 1.385 . S
C1540 H1526 0.931 . S
C1540 C1539 1.385 . S
C1540 C1541 1.389 . S
C1541 C1540 1.389 . S
C1541 C1542 1.387 1_545 S
C1542 H1527 0.930 . S
C1542 C1537 1.390 . S
C1542 C1541 1.387 1_565 S
H1543 C1555 0.930 . S
H1544 C1557 0.930 . S
H1545 C1558 0.930 . S
H1546 C1562 0.959 . S
H1547 C1562 0.959 . S
H1548 C1562 0.961 . S
H1549 C1563 0.960 . S
H1550 C1563 0.961 . S
H1551 C1563 0.959 . S
H1552 C1566 0.929 . S
H1553 C1567 0.931 . S
H1554 C1569 0.930 . S
C1555 H1543 0.930 . S
C1555 C1556 1.399 . S
C1555 C1560 1.399 . S
C1556 C1555 1.399 . S
C1556 C1557 1.376 1_545 S
C1557 H1544 0.930 . S
C1557 C1556 1.376 1_565 S
C1557 C1558 1.388 . S
C1558 H1545 0.930 . S
C1558 C1557 1.388 . S
C1558 C1559 1.400 . S
C1559 C1558 1.400 . S
C1559 C1560 1.381 1_565 S
C1559 C1565 1.466 . S
C1560 C1555 1.399 . S
C1560 C1559 1.381 1_545 S
C1560 C1561 1.516 . S
C1561 C1560 1.516 . S
C1561 C1562 1.502 . S
C1561 C1563 1.561 . S
C1561 C1564 1.526 . S
C1562 H1546 0.959 . S
C1562 H1547 0.959 . S
C1562 H1548 0.961 . S
C1562 C1561 1.502 . S
C1563 H1549 0.960 . S
C1563 H1550 0.961 . S
C1563 H1551 0.959 . S
C1563 C1561 1.561 . S
C1564 C1561 1.526 . S
C1564 C1565 1.396 1_545 S
C1564 C1569 1.390 . S
C1565 C1559 1.466 . S
C1565 C1564 1.396 1_565 S
C1565 C1566 1.399 . S
C1566 H1552 0.929 . S
C1566 C1565 1.399 . S
C1566 C1567 1.385 . S
C1567 H1553 0.931 . S
C1567 C1566 1.385 . S
C1567 C1568 1.389 1_565 S
C1568 C1567 1.389 1_545 S
C1568 C1569 1.387 . S
C1569 H1554 0.930 . S
C1569 C1564 1.390 . S
C1569 C1568 1.387 . S
H1570 C1582 0.930 . S
H1571 C1584 0.930 . S
H1572 C1585 0.930 . S
H1573 C1589 0.960 1_556 S
H1574 C1589 0.964 1_556 S
H1575 C1589 0.955 . S
H1576 C1590 0.982 . S
H1577 C1590 0.941 1_556 S
H1578 C1590 0.955 1_556 S
H1579 C1593 0.929 . S
H1580 C1594 0.931 . S
H1581 C1596 0.930 . S
C1582 H1570 0.930 . S
C1582 C1583 1.399 . S
C1582 C1587 1.399 . S
C1583 C1582 1.399 . S
C1583 C1584 1.376 . S
C1584 H1571 0.930 . S
C1584 C1583 1.376 . S
C1584 C1585 1.388 . S
C1585 H1572 0.930 . S
C1585 C1584 1.388 . S
C1585 C1586 1.390 . S
C1586 C1585 1.390 . S
C1586 C1587 1.394 . S
C1586 C1592 1.465 1_554 S
C1587 C1582 1.399 . S
C1587 C1586 1.394 . S
C1587 C1588 1.525 . S
C1588 C1587 1.525 . S
C1588 C1589 1.502 . S
C1588 C1590 1.561 . S
C1588 C1591 1.517 1_554 S
C1589 H1573 0.960 1_554 S
C1589 H1574 0.964 1_554 S
C1589 H1575 0.955 . S
C1589 C1588 1.502 . S
C1590 H1576 0.982 . S
C1590 H1577 0.941 1_554 S
C1590 H1578 0.955 1_554 S
C1590 C1588 1.561 . S
C1591 C1588 1.517 1_556 S
C1591 C1592 1.396 . S
C1591 C1596 1.390 . S
C1592 C1586 1.465 1_556 S
C1592 C1591 1.396 . S
C1592 C1593 1.399 . S
C1593 H1579 0.929 . S
C1593 C1592 1.399 . S
C1593 C1594 1.385 . S
C1594 H1580 0.931 . S
C1594 C1593 1.385 . S
C1594 C1595 1.389 . S
C1595 C1594 1.389 . S
C1595 C1596 1.387 . S
C1596 H1581 0.930 . S
C1596 C1591 1.390 . S
C1596 C1595 1.387 . S
H1597 C1609 0.930 . S
H1598 C1611 0.930 . S
H1599 C1612 0.930 . S
H1600 C1616 0.965 . S
H1601 C1616 1.006 . S
H1602 C1616 0.913 1_556 S
H1603 C1617 0.925 1_556 S
H1604 C1617 0.994 . S
H1605 C1617 0.963 . S
H1606 C1620 0.929 . S
H1607 C1621 0.931 . S
H1608 C1623 0.930 . S
C1609 H1597 0.930 . S
C1609 C1610 1.399 . S
C1609 C1614 1.399 . S
C1610 C1609 1.399 . S
C1610 C1611 1.376 . S
C1611 H1598 0.930 . S
C1611 C1610 1.376 . S
C1611 C1612 1.388 . S
C1612 H1599 0.930 . S
C1612 C1611 1.388 . S
C1612 C1613 1.390 . S
C1613 C1612 1.390 . S
C1613 C1614 1.394 . S
C1613 C1619 1.465 1_556 S
C1614 C1609 1.399 . S
C1614 C1613 1.394 . S
C1614 C1615 1.500 1_556 S
C1615 C1614 1.500 1_554 S
C1615 C1616 1.501 . S
C1615 C1617 1.561 . S
C1615 C1618 1.542 . S
C1616 H1600 0.965 . S
C1616 H1601 1.006 . S
C1616 H1602 0.913 1_554 S
C1616 C1615 1.501 . S
C1617 H1603 0.925 1_554 S
C1617 H1604 0.994 . S
C1617 H1605 0.963 . S
C1617 C1615 1.561 . S
C1618 C1615 1.542 . S
C1618 C1619 1.396 . S
C1618 C1623 1.390 . S
C1619 C1613 1.465 1_554 S
C1619 C1618 1.396 . S
C1619 C1620 1.399 . S
C1620 H1606 0.929 . S
C1620 C1619 1.399 . S
C1620 C1621 1.385 . S
C1621 H1607 0.931 . S
C1621 C1620 1.385 . S
C1621 C1622 1.389 . S
C1622 C1621 1.389 . S
C1622 C1623 1.387 . S
C1623 H1608 0.930 . S
C1623 C1618 1.390 . S
C1623 C1622 1.387 . S
C557 C9 1.457 . S
C569 C383 1.408 . S
C584 C43 1.451 . S
C596 C349 1.420 . S
C611 C315 1.456 . S
C623 C77 1.412 . S
C638 C281 1.377 . S
C650 C111 1.424 . S
C665 C145 1.380 . S
C677 C519 1.418 . S
C692 C179 1.452 . S
C704 C485 1.418 . S
C719 C451 1.453 . S
C731 C213 1.416 . S
C746 C417 1.455 . S
C758 C247 1.413 . S
C773 C2 2.012 . S
C785 C444 2.008 . S
C800 C410 2.012 . S
C812 C36 2.008 . S
C827 C70 2.004 . S
C839 C512 2.008 . S
C854 C478 2.012 . S
C866 C104 2.008 . S
C881 C122 1.034 . S
C893 C496 1.017 . S
C908 C530 1.011 . S
C920 C88 1.026 . S
C935 C428 1.017 . S
C947 C54 1.018 . S
C962 C20 1.012 . S
C974 C462 1.025 . S
C989 C138 2.012 . S
C1001 C308 2.008 . S
C1016 C172 2.004 . S
C1028 C274 2.008 . S
C1043 C206 2.012 . S
C1055 C376 2.008 . S
C1070 C240 2.004 . S
C1082 C342 2.008 . S
C1097 C258 1.011 . S
C1109 C360 1.026 . S
C1124 C224 1.013 . S
C1136 C394 1.024 . S
C1151 C190 1.031 . S
C1163 C292 1.022 . S
C1178 C156 1.028 . S
C1190 C326 1.011 . S
C1205 C67 1.584 . S
C1217 C33 1.602 . S
C1232 C101 1.611 1_565 S
C1244 C135 1.595 . S
C1259 C203 1.596 . S
C1271 C169 1.611 . S
C1286 C271 1.585 . S
C1298 C237 1.601 . S
C1313 C339 1.587 . S
C1325 C305 1.597 . S
C1340 C407 1.585 . S
C1352 C373 1.601 . S
C1367 C441 1.601 . S
C1379 C475 1.608 . S
C1394 C543 1.609 . S
C1406 C509 1.600 . S
C1421 C73 1.460 . S
C1433 C5 1.460 . S
C1448 C107 1.480 . S
C1460 C39 1.480 . S
C1475 C141 1.456 . S
C1487 C209 1.456 . S
C1502 C243 1.458 . S
C1514 C175 1.458 . S
C1529 C277 1.479 . S
C1541 C345 1.479 . S
C1556 C379 1.455 . S
C1568 C311 1.456 . S
C1583 C413 1.479 . S
C1595 C481 1.479 . S
C1610 C515 1.458 . S
C1622 C447 1.458 . S
