# Generated by pormake.
# Topology svb, (7)-cn, num edge types: 1
# Building blocks:
#     Node 0, Type 0, BuildingBlock: NUHQUE_clean_sbu_2, # of connection points: 7
#     Node 1, Type 0, BuildingBlock: NUHQUE_clean_sbu_2, # of connection points: 7
#     Node 2, Type 0, BuildingBlock: NUHQUE_clean_sbu_2, # of connection points: 7
#     Node 3, Type 0, BuildingBlock: NUHQUE_clean_sbu_2, # of connection points: 7
#     Node 4, Type 0, BuildingBlock: NUHQUE_clean_sbu_2, # of connection points: 7
#     Node 5, Type 0, BuildingBlock: NUHQUE_clean_sbu_2, # of connection points: 7
#     Node 6, Type 0, BuildingBlock: NUHQUE_clean_sbu_2, # of connection points: 7
#     Node 7, Type 0, BuildingBlock: NUHQUE_clean_sbu_2, # of connection points: 7
#     Node 8, Type 0, BuildingBlock: NUHQUE_clean_sbu_2, # of connection points: 7
#     Node 9, Type 0, BuildingBlock: NUHQUE_clean_sbu_2, # of connection points: 7
#     Node 10, Type 0, BuildingBlock: NUHQUE_clean_sbu_2, # of connection points: 7
#     Node 11, Type 0, BuildingBlock: NUHQUE_clean_sbu_2, # of connection points: 7
#     Node 12, Type 0, BuildingBlock: NUHQUE_clean_sbu_2, # of connection points: 7
#     Node 13, Type 0, BuildingBlock: NUHQUE_clean_sbu_2, # of connection points: 7
#     Node 14, Type 0, BuildingBlock: NUHQUE_clean_sbu_2, # of connection points: 7
#     Node 15, Type 0, BuildingBlock: NUHQUE_clean_sbu_2, # of connection points: 7
#     Edge 16, Type (0, 0), BuildingBlock: XIVTED_clean_linker_0, # of connection points: 2
#     Edge 17, Type (0, 0), BuildingBlock: XIVTED_clean_linker_0, # of connection points: 2
#     Edge 18, Type (0, 0), BuildingBlock: XIVTED_clean_linker_0, # of connection points: 2
#     Edge 19, Type (0, 0), BuildingBlock: XIVTED_clean_linker_0, # of connection points: 2
#     Edge 20, Type (0, 0), BuildingBlock: XIVTED_clean_linker_0, # of connection points: 2
#     Edge 21, Type (0, 0), BuildingBlock: XIVTED_clean_linker_0, # of connection points: 2
#     Edge 22, Type (0, 0), BuildingBlock: XIVTED_clean_linker_0, # of connection points: 2
#     Edge 23, Type (0, 0), BuildingBlock: XIVTED_clean_linker_0, # of connection points: 2
#     Edge 24, Type (0, 0), BuildingBlock: XIVTED_clean_linker_0, # of connection points: 2
#     Edge 25, Type (0, 0), BuildingBlock: XIVTED_clean_linker_0, # of connection points: 2
#     Edge 26, Type (0, 0), BuildingBlock: XIVTED_clean_linker_0, # of connection points: 2
#     Edge 27, Type (0, 0), BuildingBlock: XIVTED_clean_linker_0, # of connection points: 2
#     Edge 28, Type (0, 0), BuildingBlock: XIVTED_clean_linker_0, # of connection points: 2
#     Edge 29, Type (0, 0), BuildingBlock: XIVTED_clean_linker_0, # of connection points: 2
#     Edge 30, Type (0, 0), BuildingBlock: XIVTED_clean_linker_0, # of connection points: 2
#     Edge 31, Type (0, 0), BuildingBlock: XIVTED_clean_linker_0, # of connection points: 2
#     Edge 32, Type (0, 0), BuildingBlock: XIVTED_clean_linker_0, # of connection points: 2
#     Edge 33, Type (0, 0), BuildingBlock: XIVTED_clean_linker_0, # of connection points: 2
#     Edge 34, Type (0, 0), BuildingBlock: XIVTED_clean_linker_0, # of connection points: 2
#     Edge 35, Type (0, 0), BuildingBlock: XIVTED_clean_linker_0, # of connection points: 2
#     Edge 36, Type (0, 0), BuildingBlock: XIVTED_clean_linker_0, # of connection points: 2
#     Edge 37, Type (0, 0), BuildingBlock: XIVTED_clean_linker_0, # of connection points: 2
#     Edge 38, Type (0, 0), BuildingBlock: XIVTED_clean_linker_0, # of connection points: 2
#     Edge 39, Type (0, 0), BuildingBlock: XIVTED_clean_linker_0, # of connection points: 2
#     Edge 40, Type (0, 0), BuildingBlock: XIVTED_clean_linker_0, # of connection points: 2
#     Edge 41, Type (0, 0), BuildingBlock: XIVTED_clean_linker_0, # of connection points: 2
#     Edge 42, Type (0, 0), BuildingBlock: XIVTED_clean_linker_0, # of connection points: 2
#     Edge 43, Type (0, 0), BuildingBlock: XIVTED_clean_linker_0, # of connection points: 2
#     Edge 44, Type (0, 0), BuildingBlock: XIVTED_clean_linker_0, # of connection points: 2
#     Edge 45, Type (0, 0), BuildingBlock: XIVTED_clean_linker_0, # of connection points: 2
#     Edge 46, Type (0, 0), BuildingBlock: XIVTED_clean_linker_0, # of connection points: 2
#     Edge 47, Type (0, 0), BuildingBlock: XIVTED_clean_linker_0, # of connection points: 2
#     Edge 48, Type (0, 0), BuildingBlock: XIVTED_clean_linker_0, # of connection points: 2
#     Edge 49, Type (0, 0), BuildingBlock: XIVTED_clean_linker_0, # of connection points: 2
#     Edge 50, Type (0, 0), BuildingBlock: XIVTED_clean_linker_0, # of connection points: 2
#     Edge 51, Type (0, 0), BuildingBlock: XIVTED_clean_linker_0, # of connection points: 2
#     Edge 52, Type (0, 0), BuildingBlock: XIVTED_clean_linker_0, # of connection points: 2
#     Edge 53, Type (0, 0), BuildingBlock: XIVTED_clean_linker_0, # of connection points: 2
#     Edge 54, Type (0, 0), BuildingBlock: XIVTED_clean_linker_0, # of connection points: 2
#     Edge 55, Type (0, 0), BuildingBlock: XIVTED_clean_linker_0, # of connection points: 2
#     Edge 56, Type (0, 0), BuildingBlock: XIVTED_clean_linker_0, # of connection points: 2
#     Edge 57, Type (0, 0), BuildingBlock: XIVTED_clean_linker_0, # of connection points: 2
#     Edge 58, Type (0, 0), BuildingBlock: XIVTED_clean_linker_0, # of connection points: 2
#     Edge 59, Type (0, 0), BuildingBlock: XIVTED_clean_linker_0, # of connection points: 2
#     Edge 60, Type (0, 0), BuildingBlock: XIVTED_clean_linker_0, # of connection points: 2
#     Edge 61, Type (0, 0), BuildingBlock: XIVTED_clean_linker_0, # of connection points: 2
#     Edge 62, Type (0, 0), BuildingBlock: XIVTED_clean_linker_0, # of connection points: 2
#     Edge 63, Type (0, 0), BuildingBlock: XIVTED_clean_linker_0, # of connection points: 2
#     Edge 64, Type (0, 0), BuildingBlock: XIVTED_clean_linker_0, # of connection points: 2
#     Edge 65, Type (0, 0), BuildingBlock: XIVTED_clean_linker_0, # of connection points: 2
#     Edge 66, Type (0, 0), BuildingBlock: XIVTED_clean_linker_0, # of connection points: 2
#     Edge 67, Type (0, 0), BuildingBlock: XIVTED_clean_linker_0, # of connection points: 2
#     Edge 68, Type (0, 0), BuildingBlock: XIVTED_clean_linker_0, # of connection points: 2
#     Edge 69, Type (0, 0), BuildingBlock: XIVTED_clean_linker_0, # of connection points: 2
#     Edge 70, Type (0, 0), BuildingBlock: XIVTED_clean_linker_0, # of connection points: 2
#     Edge 71, Type (0, 0), BuildingBlock: XIVTED_clean_linker_0, # of connection points: 2
# Relax obj value: 0.368
# Max RMSD: 0.313
# Mean RMSD: 0.299
data_MOF--net-svb--node1-NUHQUE_clean_sbu_2--edge1-XIVTED_clean_linker_0
_symmetry_space_group_name_H-M    P1
_symmetry_Int_Tables_number       1
_symmetry_cell_setting            triclinic
loop_
_symmetry_equiv_pos_as_xyz
'x, y, z'
_cell_length_a     60.607976
_cell_length_b     59.731684
_cell_length_c     25.548532
_cell_angle_alpha  95.732298
_cell_angle_beta   93.106865
_cell_angle_gamma 89.963453
loop_
_atom_site_label
_atom_site_type_symbol
_atom_site_fract_x
_atom_site_fract_y
_atom_site_fract_z
_atom_type_partial_charge
O0 O 0.05048 0.36042 0.23687 0.0
Tb1 Tb 0.07502 0.34626 0.18358 0.0
Eu2 Eu 0.11884 0.33943 0.1006 0.0
C3 C 0.05409 0.36038 0.28814 0.0
O4 O 0.07369 0.3545 0.30642 0.0
C5 C 0.11746 0.32513 0.21591 0.0
O6 O 0.12906 0.31661 1.02955 0.0
C7 C 0.14439 0.3741 0.12579 0.0
C8 C 0.12163 0.29572 1.02417 0.0
O9 O 0.10982 0.28912 0.06149 0.0
C10 C 0.06871 0.35598 0.06504 0.0
C11 C 0.15769 0.39482 0.12246 0.0
C12 C 0.15252 0.41499 0.15278 0.0
C13 C 0.16667 0.43389 0.15601 0.0
C14 C 0.18634 0.43224 0.12904 0.0
C15 C 0.192 0.41219 0.09919 0.0
C16 C 0.1774 0.39372 0.09551 0.0
O17 O 0.10706 0.34441 0.22546 0.0
O18 O 0.11981 0.31724 0.16665 0.0
O19 O 0.06055 0.31624 0.20844 0.0
O20 O 0.07517 0.31431 0.13413 0.0
C21 C 0.06587 0.30298 0.16785 0.0
O22 O 0.08704 0.34501 0.05357 0.0
O23 O 0.06418 0.36312 0.11405 0.0
O24 O 0.15114 0.35481 0.1026 0.0
O25 O 0.12306 0.37475 0.13379 0.0
H26 H 0.13766 0.41586 0.17468 0.0
H27 H 0.19756 0.44649 0.13222 0.0
H28 H 0.18201 0.37807 0.07371 0.0
O29 O 0.90337 0.80803 0.52412 0.0
Tb30 Tb 0.91819 0.83036 0.47353 0.0
Eu31 Eu 0.92942 0.87277 0.40255 0.0
C32 C 0.90892 0.81095 0.57483 0.0
O33 O 0.92145 0.82828 0.59273 0.0
C34 C 0.94563 0.86958 0.51954 0.0
O35 O 0.95154 0.88441 0.34034 0.0
C36 C 0.89556 0.89702 0.43094 0.0
C37 C 0.96423 0.86919 0.31554 0.0
O38 O 0.96312 0.84833 0.32686 0.0
C39 C 0.90585 0.82543 0.35392 0.0
C40 C 0.87444 0.90816 0.41663 0.0
C41 C 0.85483 0.90408 0.44209 0.0
C42 C 0.83566 0.91723 0.43426 0.0
C43 C 0.83652 0.93419 0.39981 0.0
C44 C 0.85605 0.9388 0.37595 0.0
C45 C 0.87467 0.92549 0.38354 0.0
O46 O 0.92552 0.86164 0.5228 0.0
O47 O 0.95307 0.87068 0.47256 0.0
O48 O 0.94679 0.81012 0.49265 0.0
O49 O 0.9469 0.82882 0.42594 0.0
C50 C 0.95819 0.81573 0.45445 0.0
O51 O 0.91957 0.84202 0.34819 0.0
O52 O 0.8981 0.82238 0.40015 0.0
O53 O 0.91399 0.90533 0.41532 0.0
O54 O 0.89595 0.87502 0.43162 0.0
H55 H 0.85488 0.89146 0.46974 0.0
H56 H 0.82215 0.94448 0.39271 0.0
H57 H 0.88966 0.92923 0.36471 0.0
O58 O 0.39912 0.70249 0.52201 0.0
Tb59 Tb 0.41418 0.68339 0.58303 0.0
Eu60 Eu 0.42745 0.64522 0.66835 0.0
C61 C 0.40836 0.70106 0.47632 0.0
O62 O 0.42472 0.68689 0.46863 0.0
C63 C 0.44308 0.64435 0.55394 0.0
O64 O 0.45058 0.63547 0.73537 0.0
C65 C 0.39634 0.61611 0.6404 0.0
C66 C 0.45659 0.65031 0.77533 0.0
O67 O 0.44882 0.67085 0.77658 0.0
C68 C 0.39879 0.6905 0.69792 0.0
C69 C 0.37595 0.60631 0.65765 0.0
C70 C 0.35552 0.60991 0.63085 0.0
C71 C 0.33661 0.59804 0.64194 0.0
C72 C 0.33808 0.58331 0.68125 0.0
C73 C 0.35833 0.57912 0.70697 0.0
C74 C 0.37719 0.59078 0.69557 0.0
O75 O 0.42278 0.65105 0.54283 0.0
O76 O 0.45047 0.64573 0.60336 0.0
O77 O 0.44242 0.70395 0.56906 0.0
O78 O 0.44255 0.68761 0.63931 0.0
C79 C 0.45387 0.69981 0.61125 0.0
O80 O 0.41391 0.67621 0.71271 0.0
O81 O 0.39266 0.69198 0.64783 0.0
O82 O 0.41506 0.61122 0.66516 0.0
O83 O 0.3955 0.63691 0.62763 0.0
H84 H 0.35462 0.62085 0.59941 0.0
H85 H 0.32359 0.57386 0.68938 0.0
H86 H 0.39292 0.58699 0.71487 0.0
O87 O 0.55011 0.14794 0.80468 0.0
Tb88 Tb 0.57247 0.16396 0.86675 0.0
Eu89 Eu 0.61476 0.17348 0.96151 0.0
C90 C 0.55513 0.14725 0.75511 0.0
O91 O 0.57483 0.15397 0.74429 0.0
C92 C 0.61279 0.18983 0.8489 0.0
O93 O 0.62481 0.19533 0.03795 0.0
C94 C 0.63924 0.13953 0.93045 0.0
C95 C 0.60969 0.21006 0.05387 0.0
O96 O 0.59126 0.21025 1.02462 0.0
C97 C 0.56731 0.15048 0.98057 0.0
C98 C 0.65146 0.11806 0.93372 0.0
C99 C 0.64495 0.09826 0.90128 0.0
C100 C 0.65838 0.07889 0.89973 0.0
C101 C 0.67858 0.0798 0.92931 0.0
C102 C 0.68556 0.09945 0.96051 0.0
C103 C 0.67172 0.11827 0.96333 0.0
O104 O 0.60422 0.1697 0.83489 0.0
O105 O 0.61375 0.19742 0.89909 0.0
O106 O 0.55458 0.19323 0.84367 0.0
O107 O 0.57014 0.19431 0.92074 0.0
C108 C 0.5591 0.20567 0.88749 0.0
O109 O 0.58388 0.16376 0.99902 0.0
O110 O 0.5638 0.14398 0.92977 0.0
O111 O 0.64687 0.15785 0.95875 0.0
O112 O 0.61769 0.13956 0.9204 0.0
H113 H 0.62975 0.09801 0.87683 0.0
H114 H 0.6894 0.06533 0.9259 0.0
H115 H 0.67713 0.1334 0.98756 0.0
O116 O 0.05359 0.64354 0.29886 0.0
Tb117 Tb 0.07511 0.66082 0.36148 0.0
Eu118 Eu 0.11756 0.67228 0.45693 0.0
C119 C 0.05772 0.64445 0.249 0.0
O120 O 0.07639 0.65351 0.2377 0.0
C121 C 0.11494 0.68879 0.34468 0.0
O122 O 0.12795 0.69287 0.53495 0.0
C123 C 0.14091 0.63778 0.42427 0.0
C124 C 0.11325 0.70774 0.5527 0.0
O125 O 0.09506 0.70964 0.52321 0.0
C126 C 0.06981 0.65022 0.47728 0.0
C127 C 0.15303 0.61639 0.42859 0.0
C128 C 0.14715 0.59686 0.39469 0.0
C129 C 0.16066 0.57757 0.39343 0.0
C130 C 0.18038 0.57833 0.42491 0.0
C131 C 0.18673 0.59777 0.45769 0.0
C132 C 0.17267 0.61643 0.46037 0.0
O133 O 0.10651 0.66863 0.32938 0.0
O134 O 0.11581 0.69615 0.39496 0.0
O135 O 0.0549 0.68847 0.33788 0.0
O136 O 0.07227 0.69175 0.41311 0.0
C137 C 0.05969 0.7018 0.3802 0.0
O138 O 0.08634 0.66385 0.49367 0.0
O139 O 0.0666 0.64208 0.42729 0.0
O140 O 0.14936 0.65641 0.4496 0.0
O141 O 0.1192 0.63786 0.41797 0.0
H142 H 0.13241 0.59682 0.36869 0.0
H143 H 0.19142 0.56403 0.42156 0.0
H144 H 0.17751 0.63138 0.48598 0.0
O145 O 0.55279 0.86311 0.77748 0.0
Tb146 Tb 0.57549 0.84692 0.72178 0.0
Eu147 Eu 0.62075 0.83729 0.64193 0.0
C148 C 0.55495 0.85926 0.82736 0.0
O149 O 0.57251 0.84861 0.84373 0.0
C150 C 0.61611 0.82168 0.75712 0.0
O151 O 0.62881 0.81243 0.572 0.0
C152 C 0.64933 0.87001 0.66334 0.0
C153 C 0.61247 0.7995 0.55034 0.0
O154 O 0.59324 0.8015 0.57147 0.0
C155 C 0.57219 0.85887 0.60503 0.0
C156 C 0.66053 0.89129 0.65253 0.0
C157 C 0.65435 0.91204 0.67911 0.0
C158 C 0.66655 0.93188 0.67559 0.0
C159 C 0.68524 0.9307 0.64513 0.0
C160 C 0.69195 0.91031 0.61804 0.0
C161 C 0.67939 0.89067 0.62207 0.0
O162 O 0.60625 0.84133 0.76652 0.0
O163 O 0.6205 0.81451 0.7083 0.0
O164 O 0.55529 0.81866 0.73721 0.0
O165 O 0.57572 0.81524 0.67153 0.0
C166 C 0.56226 0.805 0.69906 0.0
O167 O 0.58997 0.8468 0.59413 0.0
O168 O 0.5674 0.86574 0.65395 0.0
O169 O 0.65373 0.851 0.63518 0.0
O170 O 0.6291 0.87083 0.68002 0.0
H171 H 0.64026 0.91269 0.70354 0.0
H172 H 0.69523 0.94569 0.64463 0.0
H173 H 0.68449 0.8748 0.60217 0.0
O174 O 0.40344 0.30991 1.02957 0.0
Tb175 Tb 0.41806 0.33092 0.97544 0.0
Eu176 Eu 0.43187 0.37127 0.90414 0.0
C177 C 0.41386 0.30891 0.07585 0.0
O178 O 0.43132 0.32174 0.08827 0.0
C179 C 0.44554 0.3702 1.02347 0.0
O180 O 0.45642 0.38171 0.84512 0.0
C181 C 0.39902 0.39753 0.92897 0.0
C182 C 0.46293 0.36694 0.80677 0.0
O183 O 0.45464 0.34652 0.80207 0.0
C184 C 0.40332 0.32667 0.85728 0.0
C185 C 0.37696 0.40667 0.91455 0.0
C186 C 0.35777 0.40008 0.93847 0.0
C187 C 0.3374 0.41084 0.92909 0.0
C188 C 0.3365 0.42843 0.89669 0.0
C189 C 0.35556 0.43578 0.87481 0.0
C190 C 0.37555 0.42455 0.88295 0.0
O191 O 0.42543 0.36195 1.02522 0.0
O192 O 0.45415 0.37067 0.97744 0.0
O193 O 0.44607 0.30931 0.9902 0.0
O194 O 0.447 0.33052 0.92826 0.0
C195 C 0.45791 0.31627 0.95432 0.0
O196 O 0.4188 0.34143 0.85071 0.0
O197 O 0.39668 0.32344 0.9044 0.0
O198 O 0.41633 0.40403 0.90505 0.0
O199 O 0.40018 0.37653 0.94008 0.0
H200 H 0.35875 0.38702 0.96503 0.0
H201 H 0.32102 0.43714 0.89045 0.0
H202 H 0.39039 0.43074 0.8673 0.0
O203 O 0.89709 0.20464 0.99101 0.0
Tb204 Tb 0.91238 0.18274 0.04634 0.0
Eu205 Eu 0.9306 0.14204 0.12419 0.0
C206 C 0.89371 0.19863 0.94014 0.0
O207 O 0.89691 0.17762 0.9219 0.0
C208 C 0.94265 0.14513 1.0043 0.0
O209 O 0.95633 0.13646 0.19044 0.0
C210 C 0.90065 0.11075 0.10681 0.0
C211 C 0.96636 0.15411 0.2167 0.0
O212 O 0.96113 0.17416 0.20319 0.0
C213 C 0.89834 0.18366 0.15952 0.0
C214 C 0.88026 0.10156 0.1264 0.0
C215 C 0.85932 0.10747 0.10491 0.0
C216 C 0.84015 0.09656 0.11795 0.0
C217 C 0.8419 0.08057 0.15426 0.0
C218 C 0.86247 0.0734 0.17329 0.0
C219 C 0.88166 0.08426 0.16027 0.0
O220 O 0.92257 0.15328 0.99681 0.0
O221 O 0.951 0.14292 0.05238 0.0
O222 O 0.93487 0.21127 0.05233 0.0
O223 O 0.94288 0.18339 0.09534 0.0
C224 C 0.94929 0.20289 0.08419 0.0
O225 O 0.91616 0.17208 0.17111 0.0
O226 O 0.89033 0.18412 0.11058 0.0
O227 O 0.91951 0.10812 0.13358 0.0
O228 O 0.89919 0.13016 0.08657 0.0
H229 H 0.85802 0.1195 0.07584 0.0
H230 H 0.82702 0.07259 0.16538 0.0
H231 H 0.89765 0.07838 0.17405 0.0
O232 O 0.95314 0.6463 0.78302 0.0
Tb233 Tb 0.93658 0.65959 0.85328 0.0
Eu234 Eu 0.89779 0.67728 0.93801 0.0
C235 C 0.95686 0.66071 0.74865 0.0
O236 O 0.94913 0.68123 0.75761 0.0
C237 C 0.90042 0.69307 0.82447 0.0
O238 O 0.88912 0.69981 1.01086 0.0
C239 C 0.87015 0.645 0.90912 0.0
C240 C 0.90488 0.71365 1.03144 0.0
O241 O 0.92354 0.71341 1.00752 0.0
C242 C 0.93929 0.64595 0.96526 0.0
C243 C 0.86135 0.62369 0.92392 0.0
C244 C 0.86684 0.60321 0.89532 0.0
C245 C 0.85536 0.58344 0.90221 0.0
C246 C 0.83917 0.58401 0.93926 0.0
C247 C 0.8333 0.60425 0.96663 0.0
C248 C 0.84451 0.62403 0.95968 0.0
O249 O 0.90773 0.67255 0.8109 0.0
O250 O 0.89873 0.70042 0.87438 0.0
O251 O 0.96747 0.67838 0.86733 0.0
O252 O 0.9382 0.6916 0.90098 0.0
C253 C 0.95893 0.69497 0.89603 0.0
O254 O 0.92811 0.66425 0.97968 0.0
O255 O 0.93877 0.63717 0.91553 0.0
O256 O 0.86476 0.66369 0.93733 0.0
O257 O 0.89051 0.64495 0.89365 0.0
H258 H 0.87871 0.60297 0.865 0.0
H259 H 0.82968 0.56894 0.94344 0.0
H260 H 0.83889 0.63979 0.97919 0.0
O261 O 0.1241 0.21103 0.52266 0.0
Tb262 Tb 0.10915 0.18971 0.57651 0.0
Eu263 Eu 0.08996 0.14571 0.64777 0.0
C264 C 0.12181 0.20665 0.47101 0.0
O265 O 0.11432 0.18683 0.45114 0.0
C266 C 0.07796 0.1513 0.52448 0.0
O267 O 0.06423 0.13795 0.70505 0.0
C268 C 0.12192 0.1172 0.65057 0.0
C269 C 0.05043 0.15378 0.7218 0.0
O270 O 0.05191 0.1736 0.70433 0.0
C271 C 0.11825 0.18946 0.69499 0.0
C272 C 0.14023 0.10077 0.65231 0.0
C273 C 0.15955 0.10437 0.62627 0.0
C274 C 0.17777 0.09003 0.63053 0.0
C275 C 0.17637 0.07182 0.66095 0.0
C276 C 0.15739 0.06786 0.68793 0.0
C277 C 0.13921 0.08243 0.68299 0.0
O278 O 0.09749 0.161 0.52227 0.0
O279 O 0.07058 0.14591 0.56932 0.0
O280 O 0.09206 0.22155 0.58595 0.0
O281 O 0.07665 0.19204 0.60804 0.0
C282 C 0.0749 0.21356 0.60585 0.0
O283 O 0.09979 0.17796 0.69666 0.0
O284 O 0.12864 0.1897 0.65078 0.0
O285 O 0.10224 0.11297 0.66667 0.0
O286 O 0.1239 0.1366 0.63073 0.0
H287 H 0.1604 0.11841 0.60268 0.0
H288 H 0.19039 0.06074 0.66418 0.0
H289 H 0.1246 0.08001 0.70442 0.0
O290 O 0.61139 0.30478 0.54603 0.0
Tb291 Tb 0.59796 0.32902 0.49435 0.0
Eu292 Eu 0.59163 0.37395 0.41667 0.0
C293 C 0.6097 0.30876 0.59729 0.0
O294 O 0.60196 0.32829 0.61614 0.0
C295 C 0.57668 0.37201 0.53408 0.0
O296 O 0.56805 0.38169 0.34898 0.0
C297 C 0.62444 0.40242 0.43254 0.0
C298 C 0.5473 0.37503 0.34838 0.0
O299 O 0.54068 0.36549 0.38897 0.0
C300 C 0.6102 0.3233 0.37634 0.0
C301 C 0.64426 0.41372 0.41443 0.0
C302 C 0.66553 0.40863 0.43537 0.0
C303 C 0.68422 0.42134 0.42558 0.0
C304 C 0.6813 0.43898 0.39318 0.0
C305 C 0.66024 0.44518 0.37375 0.0
C306 C 0.64183 0.43217 0.38387 0.0
O307 O 0.5955 0.36133 0.54107 0.0
O308 O 0.5697 0.37528 0.48577 0.0
O309 O 0.56793 0.31267 0.51336 0.0
O310 O 0.56769 0.32995 0.44428 0.0
C311 C 0.55586 0.31892 0.474 0.0
O312 O 0.59885 0.34152 0.36695 0.0
O313 O 0.61658 0.31894 0.42466 0.0
O314 O 0.60477 0.40752 0.4128 0.0
O315 O 0.62588 0.38148 0.44469 0.0
H316 H 0.66731 0.39552 0.46166 0.0
H317 H 0.69558 0.44834 0.3836 0.0
H318 H 0.62549 0.43715 0.37031 0.0
O319 O 0.38939 0.80579 0.04379 0.0
Tb320 Tb 0.40935 0.82522 0.10602 0.0
Eu321 Eu 0.42596 0.86656 0.20345 0.0
C322 C 0.38996 0.81054 0.99461 0.0
O323 O 0.39904 0.82957 0.98518 0.0
C324 C 0.43667 0.86542 0.08527 0.0
O325 O 0.44808 0.87562 0.27847 0.0
C326 C 0.38994 0.88879 0.18663 0.0
C327 C 0.46452 0.86154 0.2868 0.0
O328 O 0.4671 0.84473 0.25037 0.0
C329 C 0.40491 0.81854 0.22352 0.0
C330 C 0.36881 0.90113 0.19378 0.0
C331 C 0.3493 0.89453 0.1629 0.0
C332 C 0.33014 0.90808 0.16569 0.0
C333 C 0.33107 0.92854 0.19796 0.0
C334 C 0.35041 0.93545 0.22761 0.0
C335 C 0.36894 0.92147 0.22639 0.0
O336 O 0.41633 0.85738 0.0773 0.0
O337 O 0.4463 0.86672 0.13281 0.0
O338 O 0.4316 0.80128 0.06807 0.0
O339 O 0.44285 0.82079 0.13889 0.0
C340 C 0.44829 0.80602 0.10108 0.0
O341 O 0.42072 0.83352 0.23539 0.0
O342 O 0.39394 0.81679 0.17715 0.0
O343 O 0.40848 0.89804 0.20817 0.0
O344 O 0.39074 0.86676 0.17638 0.0
H345 H 0.34908 0.87914 0.13653 0.0
H346 H 0.31675 0.93945 0.19913 0.0
H347 H 0.38394 0.9272 0.24876 0.0
O348 O 0.88945 0.29599 0.50868 0.0
Tb349 Tb 0.90448 0.3172 0.57572 0.0
Eu350 Eu 0.92102 0.35918 0.6661 0.0
C351 C 0.8896 0.30153 0.46008 0.0
O352 O 0.89621 0.32175 0.45196 0.0
C353 C 0.93771 0.35316 0.55051 0.0
O354 O 0.94331 0.36893 0.74015 0.0
C355 C 0.88965 0.38626 0.64042 0.0
C356 C 0.95711 0.35322 0.7546 0.0
O357 O 0.95669 0.33382 0.72548 0.0
C358 C 0.89133 0.31681 0.68935 0.0
C359 C 0.86927 0.39934 0.65097 0.0
C360 C 0.84994 0.39563 0.61739 0.0
C361 C 0.83231 0.41108 0.62061 0.0
C362 C 0.83417 0.42994 0.65799 0.0
C363 C 0.85317 0.43384 0.69141 0.0
C364 C 0.8704 0.41825 0.68843 0.0
O365 O 0.91785 0.34476 0.53623 0.0
O366 O 0.94451 0.35569 0.60057 0.0
O367 O 0.92413 0.28678 0.57591 0.0
O368 O 0.93471 0.31631 0.6245 0.0
C369 C 0.93901 0.29551 0.61034 0.0
O370 O 0.90845 0.32983 0.70472 0.0
O371 O 0.88272 0.31572 0.64045 0.0
O372 O 0.90817 0.3929 0.66698 0.0
O373 O 0.88838 0.36437 0.62786 0.0
H374 H 0.84918 0.38161 0.58694 0.0
H375 H 0.82099 0.44223 0.65934 0.0
H376 H 0.88515 0.42142 0.71399 0.0
O377 O 0.45889 0.15593 0.30016 0.0
Tb378 Tb 0.43517 0.17017 0.35552 0.0
Eu379 Eu 0.39285 0.18137 0.44261 0.0
C380 C 0.45336 0.15049 0.24993 0.0
O381 O 0.43246 0.15112 0.23374 0.0
C382 C 0.39407 0.19391 0.3268 0.0
O383 O 0.38597 0.20446 0.51565 0.0
C384 C 0.3632 0.15014 0.4208 0.0
C385 C 0.39482 0.22471 0.52179 0.0
O386 O 0.40616 0.23121 0.4836 0.0
C387 C 0.43889 0.15443 0.46821 0.0
C388 C 0.35322 0.12929 0.43586 0.0
C389 C 0.35984 0.10837 0.41163 0.0
C390 C 0.3488 0.0886 0.42014 0.0
C391 C 0.33095 0.08975 0.45267 0.0
C392 C 0.32379 0.11041 0.47682 0.0
C393 C 0.3351 0.1302 0.46839 0.0
O394 O 0.40271 0.17372 0.31853 0.0
O395 O 0.39295 0.20309 0.37557 0.0
O396 O 0.4508 0.20123 0.33923 0.0
O397 O 0.43793 0.19918 0.41455 0.0
C398 C 0.44742 0.21213 0.38454 0.0
O399 O 0.4236 0.16891 0.48427 0.0
O400 O 0.44208 0.14857 0.41795 0.0
O401 O 0.35942 0.16923 0.44927 0.0
O402 O 0.38317 0.14884 0.40274 0.0
H403 H 0.37318 0.10743 0.38489 0.0
H404 H 0.32175 0.07448 0.45639 0.0
H405 H 0.32946 0.14628 0.48605 0.0
O406 O 0.55571 0.64222 0.23898 0.0
Tb407 Tb 0.57521 0.65691 0.18193 0.0
Eu408 Eu 0.61434 0.6717 0.10634 0.0
C409 C 0.55784 0.6501 0.28891 0.0
O410 O 0.57371 0.66459 0.30422 0.0
C411 C 0.61341 0.68787 0.22789 0.0
O412 O 0.62342 0.69492 0.04403 0.0
C413 C 0.63762 0.63653 0.12258 0.0
C414 C 0.60802 0.70918 1.02949 0.0
O415 O 0.58917 0.70908 0.05254 0.0
C416 C 0.57134 0.64304 0.06434 0.0
C417 C 0.65128 0.61642 0.13147 0.0
C418 C 0.6448 0.59956 0.16313 0.0
C419 C 0.65946 0.58188 0.1737 0.0
C420 C 0.68021 0.58109 0.15189 0.0
C421 C 0.68648 0.59741 0.12003 0.0
C422 C 0.67202 0.61488 0.10996 0.0
O423 O 0.60443 0.66796 0.23135 0.0
O424 O 0.61563 0.69522 0.18152 0.0
O425 O 0.54565 0.67737 0.18106 0.0
O426 O 0.57467 0.68882 0.14814 0.0
C427 C 0.55436 0.69326 0.15782 0.0
O428 O 0.58323 0.6609 0.05814 0.0
O429 O 0.57192 0.63437 0.10986 0.0
O430 O 0.64474 0.65285 0.09638 0.0
O431 O 0.61756 0.6392 0.13921 0.0
H432 H 0.62891 0.60057 0.1807 0.0
H433 H 0.69154 0.56758 0.15957 0.0
H434 H 0.67735 0.62777 0.08634 0.0
O435 O 0.1246 0.80786 0.05393 0.0
Tb436 Tb 0.10554 0.82731 0.99968 0.0
Eu437 Eu 0.09039 0.86621 0.92005 0.0
C438 C 0.12116 0.81096 0.1046 0.0
O439 O 0.10969 0.82854 0.12209 0.0
C440 C 0.07557 0.86569 0.03622 0.0
O441 O 0.06776 0.87706 0.85318 0.0
C442 C 0.12529 0.8911 0.94611 0.0
C443 C 0.05416 0.86191 0.82772 0.0
O444 O 0.05414 0.8414 0.84199 0.0
C445 C 0.11177 0.81816 0.87924 0.0
C446 C 0.14625 0.90167 0.93272 0.0
C447 C 0.16638 0.89688 0.95969 0.0
C448 C 0.18577 0.90922 0.95344 0.0
C449 C 0.18453 0.92691 0.92091 0.0
C450 C 0.1646 0.93211 0.89373 0.0
C451 C 0.14574 0.91892 0.89902 0.0
O452 O 0.09594 0.85849 0.04546 0.0
O453 O 0.06798 0.86605 0.98716 0.0
O454 O 0.08328 0.80323 1.02602 0.0
O455 O 0.07272 0.82135 0.96137 0.0
C456 C 0.06702 0.80705 0.99333 0.0
O457 O 0.09698 0.83372 0.87102 0.0
O458 O 0.12196 0.81727 0.92613 0.0
O459 O 0.10648 0.8988 0.92687 0.0
O460 O 0.12475 0.86944 0.95186 0.0
H461 H 0.16685 0.8838 0.98622 0.0
H462 H 0.19901 0.93733 0.91886 0.0
H463 H 0.13039 0.92247 0.87787 0.0
H464 H 0.96092 0.24614 0.08112 0.0
H465 H 0.06501 0.276 0.07565 0.0
H466 H 0.98582 0.18214 0.12282 0.0
H467 H 0.05176 0.27689 0.24012 0.0
H468 H 0.0418 0.24236 0.05676 0.0
H469 H 0.99762 0.26252 0.10299 0.0
C470 C 0.97414 0.23562 0.09493 0.0
C471 C 0.97063 0.21294 0.1005 0.0
C472 C 0.04504 0.2493 0.09729 0.0
C473 C 0.01207 0.23119 0.12412 0.0
C474 C 0.05805 0.26851 0.108 0.0
C475 C 0.05931 0.27948 0.159 0.0
C476 C 0.03338 0.24159 0.13788 0.0
C477 C 0.05032 0.26915 0.19989 0.0
C478 C 0.99491 0.24484 0.10694 0.0
C479 C 0.9881 0.19985 0.11889 0.0
N480 N 0.03696 0.25102 0.18819 0.0
N481 N 0.00838 0.20925 0.13047 0.0
H482 H 0.06582 0.73015 0.46946 0.0
H483 H 0.977 0.81203 0.36057 0.0
H484 H 0.03819 0.72618 0.30961 0.0
H485 H 0.98886 0.80124 0.52404 0.0
H486 H 0.01137 0.79266 0.34017 0.0
H487 H 0.04975 0.76746 0.48637 0.0
C488 C 0.05667 0.73734 0.43777 0.0
C489 C 0.05259 0.72502 0.38875 0.0
C490 C 1.00678 0.79513 0.38074 0.0
C491 C 0.03441 0.76728 0.40747 0.0
C492 C 0.98727 0.80621 0.39234 0.0
C493 C 0.98018 0.80769 0.44368 0.0
C494 C 0.01888 0.78538 0.42087 0.0
C495 C 0.99371 0.79975 0.48366 0.0
C496 C 0.04766 0.75861 0.44728 0.0
C497 C 0.04105 0.73504 0.34847 0.0
N498 N 0.01238 0.7885 0.47123 0.0
N499 N 0.03195 0.75556 0.35901 0.0
H500 H 0.54566 0.77935 0.7689 0.0
H501 H 0.48226 0.71383 0.54325 0.0
H502 H 0.5654 0.77707 0.60892 0.0
H503 H 0.47787 0.69838 0.70371 0.0
H504 H 0.51923 0.72892 0.56525 0.0
H505 H 0.52843 0.74252 0.74845 0.0
C506 C 0.54665 0.77082 0.72961 0.0
C507 C 0.55603 0.7814 0.68972 0.0
C508 C 0.51047 0.72181 0.59557 0.0
C509 C 0.53631 0.73969 0.66585 0.0
C510 C 0.48927 0.71352 0.58312 0.0
C511 C 0.4769 0.70602 0.62257 0.0
C512 C 0.51883 0.72324 0.64817 0.0
C513 C 0.4868 0.70492 0.67291 0.0
C514 C 0.53708 0.7497 0.71805 0.0
C515 C 0.55775 0.76958 0.64017 0.0
N516 N 0.50709 0.7141 0.68481 0.0
N517 N 0.54736 0.74948 0.62905 0.0
H518 H 0.48069 0.318 0.86606 0.0
H519 H 0.5628 0.23202 0.98028 0.0
H520 H 0.48668 0.3011 1.02642 0.0
H521 H 0.54309 0.23306 0.81589 0.0
H522 H 0.54895 0.27006 0.99779 0.0
H523 H 0.5165 0.30017 0.85009 0.0
C524 C 0.48985 0.31096 0.89807 0.0
C525 C 0.48064 0.30987 0.94673 0.0
C526 C 0.54818 0.2622 0.95762 0.0
C527 C 0.5211 0.29015 0.92942 0.0
C528 C 0.55603 0.24048 0.94772 0.0
C529 C 0.55343 0.22933 0.89704 0.0
C530 C 0.53712 0.2724 0.91666 0.0
C531 C 0.54463 0.24097 0.85595 0.0
C532 C 0.51024 0.301 0.88915 0.0
C533 C 0.49307 0.30128 0.98767 0.0
N534 N 0.53626 0.26183 0.86687 0.0
N535 N 0.51262 0.29135 0.97783 0.0
H536 H 0.9429 0.73709 0.91462 0.0
H537 H 0.05426 0.77932 0.06274 0.0
H538 H 1.00131 0.69661 0.93281 0.0
H539 H 0.03105 0.81167 0.92637 0.0
H540 H 0.02113 0.75586 0.05357 0.0
H541 H 0.96401 0.77043 0.95423 0.0
C542 C 0.96007 0.7353 0.92766 0.0
C543 C 0.97076 0.71451 0.92037 0.0
C544 C 0.02302 0.7687 1.02696 0.0
C545 C 0.99394 0.75143 0.96686 0.0
C546 C 0.0419 0.78182 1.03161 0.0
C547 C 0.04552 0.79659 0.99377 0.0
C548 C 0.00795 0.77051 0.9843 0.0
C549 C 0.02892 0.79981 0.95512 0.0
C550 C 0.97186 0.75409 0.95022 0.0
C551 C 0.99281 0.71258 0.93744 0.0
N552 N 0.01083 0.7863 0.95042 0.0
N553 N 1.00378 0.73096 0.96023 0.0
H554 H 0.07113 0.25898 0.61228 0.0
H555 H 0.94372 0.25101 0.61627 0.0
H556 H 0.03658 0.19817 0.63749 0.0
H557 H 0.97831 0.31456 0.64333 0.0
H558 H 0.97811 0.23167 0.63574 0.0
H559 H 0.03807 0.2806 0.63386 0.0
C560 C 0.05669 0.25031 0.62354 0.0
C561 C 0.05628 0.22689 0.62325 0.0
C562 C 0.97814 0.24989 0.63866 0.0
C563 C 0.01895 0.25117 0.64822 0.0
C564 C 0.95861 0.2608 0.62714 0.0
C565 C 0.9586 0.28414 0.62792 0.0
C566 C 0.99768 0.26254 0.64929 0.0
C567 C 0.97796 0.29641 0.64262 0.0
C568 C 0.03798 0.2626 0.63635 0.0
C569 C 0.03748 0.21625 0.63807 0.0
N570 N 0.99702 0.28537 0.6518 0.0
N571 N 0.01936 0.2285 0.64952 0.0
H572 H 0.45048 0.23404 0.48316 0.0
H573 H 0.53081 0.32055 0.38271 0.0
H574 H 0.45908 0.24287 0.31997 0.0
H575 H 0.52806 0.30532 0.54374 0.0
H576 H 0.49417 0.3037 0.36329 0.0
H577 H 0.4677 0.27072 0.50853 0.0
C578 C 0.45554 0.244 0.45268 0.0
C579 C 0.45407 0.23539 0.3997 0.0
C580 C 0.50133 0.30456 0.40321 0.0
C581 C 0.47403 0.27682 0.42808 0.0
C582 C 0.5222 0.31415 0.4142 0.0
C583 C 0.53253 0.31343 0.46425 0.0
C584 C 0.49117 0.29405 0.44254 0.0
C585 C 0.52078 0.30534 0.50408 0.0
C586 C 0.46534 0.2649 0.46707 0.0
C587 C 0.46065 0.24881 0.36147 0.0
N588 N 0.50082 0.29548 0.4921 0.0
N589 N 0.47081 0.26876 0.3765 0.0
H590 H 0.51218 0.69298 0.12088 0.0
H591 H 0.48428 0.81158 0.16997 0.0
H592 H 0.5698 0.73554 0.15308 0.0
H593 H 0.46063 0.77636 1.02173 0.0
H594 H 0.51659 0.78678 0.17003 0.0
H595 H 0.49161 0.72487 0.09084 0.0
C596 C 0.52039 0.70913 0.12147 0.0
C597 C 0.54237 0.71209 0.13967 0.0
C598 C 0.50468 0.78517 0.13666 0.0
C599 C 0.51935 0.7481 0.10592 0.0
C600 C 0.48624 0.79904 0.1369 0.0
C601 C 0.46965 0.79524 0.09678 0.0
C602 C 0.5059 0.76748 0.09658 0.0
C603 C 0.47288 0.7792 0.05418 0.0
C604 C 0.50887 0.72709 0.1037 0.0
C605 C 0.55268 0.73303 0.13931 0.0
N606 N 0.49044 0.76535 0.05589 0.0
N607 N 0.54082 0.75068 0.12377 0.0
H608 H 0.3318 0.41227 0.03509 0.0
H609 H 0.20044 0.39366 0.99959 0.0
H610 H 0.29663 0.39945 0.88394 0.0
H611 H 0.23302 0.42574 0.14177 0.0
H612 H 0.23625 0.39015 0.95944 0.0
H613 H 0.29649 0.41118 0.07796 0.0
C614 C 0.31671 0.40862 1.01108 0.0
C615 C 0.31712 0.40572 0.95597 0.0
C616 C 0.23556 0.39795 0.99944 0.0
C617 C 0.27671 0.40483 1.00444 0.0
C618 C 0.21513 0.3999 1.02243 0.0
C619 C 0.21367 0.41013 0.07403 0.0
C620 C 0.25481 0.40601 1.02841 0.0
C621 C 0.2333 0.41802 0.10164 0.0
C622 C 0.29655 0.40829 0.03544 0.0
C623 C 0.29702 0.4016 0.92657 0.0
N624 N 0.25303 0.41575 0.07858 0.0
N625 N 0.27767 0.40132 0.95109 0.0
H626 H 0.88786 0.97142 0.38819 0.0
H627 H 0.83939 0.03451 0.14721 0.0
H628 H 0.82777 0.95152 0.29729 0.0
H629 H 0.88761 0.06537 0.26275 0.0
H630 H 0.83787 1.00202 0.19694 0.0
H631 H 0.89063 1.00417 0.33841 0.0
C632 C 0.87533 0.97392 0.35746 0.0
C633 C 0.85766 0.95869 0.3463 0.0
C634 C 0.84877 0.01587 0.21158 0.0
C635 C 0.8607 0.99602 0.28963 0.0
C636 C 0.84963 0.03448 0.1833 0.0
C637 C 0.86333 0.05291 0.20155 0.0
C638 C 0.86193 0.0154 0.25822 0.0
C639 C 0.87678 0.05157 0.24751 0.0
C640 C 0.87686 0.99264 0.3294 0.0
C641 C 0.84163 0.96287 0.30698 0.0
N642 N 0.87568 0.03311 0.27452 0.0
N643 N 0.84361 0.9811 0.2798 0.0
H644 H 0.21569 0.63357 0.47154 0.0
H645 H 0.31204 0.56239 0.59816 0.0
H646 H 0.20836 0.56488 0.50739 0.0
H647 H 0.31387 0.63496 0.61124 0.0
H648 H 0.27566 0.56295 0.55351 0.0
H649 H 0.25283 0.63452 0.51421 0.0
C650 C 0.22174 0.61877 0.4889 0.0
C651 C 0.20881 0.59908 0.48594 0.0
C652 C 0.28395 0.57879 0.56608 0.0
C653 C 0.25148 0.59996 0.53325 0.0
C654 C 0.30471 0.5785 0.5916 0.0
C655 C 0.31572 0.59871 0.60944 0.0
C656 C 0.2741 0.59944 0.55764 0.0
C657 C 0.30581 0.61905 0.59836 0.0
C658 C 0.243 0.61931 0.51282 0.0
C659 C 0.21778 0.5803 0.50804 0.0
N660 N 0.28539 0.61893 0.57332 0.0
N661 N 0.23858 0.58119 0.53051 0.0
H662 H 0.66611 0.97441 0.64265 0.0
H663 H 0.65347 0.03696 0.93059 0.0
H664 H 0.65432 0.93941 0.77824 0.0
H665 H 0.65235 0.07235 0.79168 0.0
H666 H 0.65211 1.00116 0.8748 0.0
H667 H 0.66006 0.01025 0.69526 0.0
C668 C 0.66212 0.97422 0.68342 0.0
C669 C 0.66082 0.95373 0.70595 0.0
C670 C 0.65176 0.01669 0.85628 0.0
C671 C 0.65385 0.99495 0.76671 0.0
C672 C 0.65239 0.03715 0.88817 0.0
C673 C 0.65276 0.05767 0.86574 0.0
C674 C 0.65191 0.01658 0.80126 0.0
C675 C 0.65174 0.05693 0.81054 0.0
C676 C 0.65856 0.99474 0.7134 0.0
C677 C 0.65534 0.95466 0.7589 0.0
N678 N 0.65164 0.03675 0.78022 0.0
N679 N 0.65229 0.97486 0.78747 0.0
H680 H 0.79358 0.60663 0.91672 0.0
H681 H 0.72647 0.59162 0.17162 0.0
H682 H 0.82535 0.603 0.07058 0.0
H683 H 0.69626 0.60228 1.01929 0.0
H684 H 0.76296 0.59382 0.1355 0.0
H685 H 0.75762 0.60405 0.95414 0.0
C686 C 0.79279 0.60563 0.95872 0.0
C687 C 0.81209 0.60526 0.9911 0.0
C688 C 0.74833 0.59563 0.11005 0.0
C689 C 0.77135 0.60194 0.03408 0.0
C690 C 0.72757 0.59418 0.13046 0.0
C691 C 0.70847 0.59687 0.09827 0.0
C692 C 0.74982 0.59969 0.05718 0.0
C693 C 0.71066 0.60038 0.04545 0.0
C694 C 0.77237 0.60403 0.98003 0.0
C695 C 0.8106 0.60356 0.04491 0.0
N696 N 0.73099 0.60174 1.02657 0.0
N697 N 0.79042 0.60189 0.06495 0.0
H698 H 0.19692 0.94988 0.83727 0.0
H699 H 0.12237 0.04041 0.7064 0.0
H700 H 0.1291 0.96037 0.87813 0.0
H701 H 0.19194 0.05135 0.74725 0.0
H702 H 0.12357 0.00753 0.75693 0.0
H703 H 0.19467 0.98342 0.79011 0.0
C704 C 0.18156 0.95912 0.83668 0.0
C705 C 0.1632 0.95201 0.86226 0.0
C706 C 0.13851 0.01722 0.75453 0.0
C707 C 0.1604 0.99019 0.80636 0.0
C708 C 0.13784 0.0361 0.72602 0.0
C709 C 0.15715 0.04866 0.72145 0.0
C710 C 0.15868 0.01061 0.77786 0.0
C711 C 0.17674 0.04191 0.74767 0.0
C712 C 0.18029 0.97824 0.80935 0.0
C713 C 0.14361 0.96465 0.85836 0.0
N714 N 0.17705 0.02327 0.77404 0.0
N715 N 0.1427 0.983 0.83075 0.0
H716 H 0.70394 0.3814 0.45136 0.0
H717 H 0.81705 0.44325 0.56035 0.0
H718 H 0.71567 0.45308 0.46223 0.0
H719 H 0.80235 0.37599 0.59576 0.0
H720 H 0.78165 0.44434 0.51103 0.0
H721 H 0.74079 0.37677 0.49432 0.0
C722 C 0.71413 0.39616 0.46255 0.0
C723 C 0.70655 0.41766 0.45201 0.0
C724 C 0.7861 0.42921 0.52913 0.0
C725 C 0.74897 0.41233 0.50041 0.0
C726 C 0.80642 0.42854 0.55712 0.0
C727 C 0.81261 0.40958 0.58268 0.0
C728 C 0.7716 0.41075 0.52611 0.0
C729 C 0.79822 0.39093 0.5766 0.0
C730 C 0.73524 0.39345 0.48686 0.0
C731 C 0.72075 0.43605 0.46756 0.0
N732 N 0.77826 0.39202 0.54925 0.0
N733 N 0.74111 0.43293 0.49049 0.0
H734 H 0.36625 0.94671 0.32905 0.0
H735 H 0.35162 0.079 0.31415 0.0
H736 H 0.33849 0.97548 0.19196 0.0
H737 H 0.3569 0.04873 0.46061 0.0
H738 H 0.35416 0.04153 0.26611 0.0
H739 H 0.36953 0.98458 0.37564 0.0
C740 C 0.36085 0.96103 0.30887 0.0
C741 C 0.35188 0.95805 0.25691 0.0
C742 C 0.35502 0.04314 0.30877 0.0
C743 C 0.35582 1.0012 0.30941 0.0
C744 C 0.35382 0.06448 0.3361 0.0
C745 C 0.35407 0.06681 0.39124 0.0
C746 C 0.35667 0.02413 0.33696 0.0
C747 C 0.3566 0.04751 0.418 0.0
C748 C 0.36271 0.98256 0.33538 0.0
C749 C 0.34515 0.97709 0.23235 0.0
N750 N 0.35772 0.02692 0.39057 0.0
N751 N 0.3473 0.9979 0.25881 0.0
H752 H 0.81641 0.87843 0.46409 0.0
H753 H 0.70765 0.94282 0.56029 0.0
H754 H 0.80778 0.95046 0.4734 0.0
H755 H 0.7237 0.87673 0.60551 0.0
H756 H 0.74258 0.94366 0.51802 0.0
H757 H 0.78142 0.87544 0.5078 0.0
C758 C 0.80732 0.8936 0.47529 0.0
C759 C 0.81508 0.91468 0.46373 0.0
C760 C 0.7385 0.92893 0.53713 0.0
C761 C 0.77476 0.91128 0.51295 0.0
C762 C 0.71849 0.92845 0.56166 0.0
C763 C 0.71259 0.90981 0.58762 0.0
C764 C 0.75292 0.91052 0.53745 0.0
C765 C 0.72729 0.89145 0.58597 0.0
C766 C 0.78727 0.89185 0.50001 0.0
C767 C 0.80235 0.9337 0.47942 0.0
N768 N 0.74674 0.89228 0.56147 0.0
N769 N 0.78291 0.9315 0.50257 0.0
H770 H 0.37645 0.44429 0.78639 0.0
H771 H 0.3324 0.56993 0.78627 0.0
H772 H 0.33442 0.4751 0.90425 0.0
H773 H 0.38724 0.54436 0.69771 0.0
H774 H 0.3314 0.53473 0.82756 0.0
H775 H 0.37859 0.48025 0.74907 0.0
C776 C 0.36762 0.45859 0.80426 0.0
C777 C 0.35524 0.4567 0.84843 0.0
C778 C 0.34385 0.53696 0.79967 0.0
C779 C 0.35757 0.49776 0.806 0.0
C780 C 0.34447 0.55702 0.77637 0.0
C781 C 0.36002 0.55999 0.73901 0.0
C782 C 0.35873 0.51975 0.7849 0.0
C783 C 0.37523 0.5428 0.72702 0.0
C784 C 0.36888 0.47909 0.78305 0.0
C785 C 0.34387 0.47569 0.86965 0.0
N786 N 0.37407 0.52327 0.74959 0.0
N787 N 0.34532 0.49546 0.84822 0.0
H788 H 0.70688 0.0668 1.01129 0.0
H789 H 0.8177 0.13549 0.09831 0.0
H790 H 0.71542 0.13461 0.97056 0.0
H791 H 0.81327 0.06308 0.07315 0.0
H792 H 0.7794 0.13768 0.06079 0.0
H793 H 0.7449 0.06735 0.04719 0.0
C794 C 0.71674 0.08182 1.00989 0.0
C795 C 0.70797 0.10056 0.98729 0.0
C796 C 0.78699 0.12138 0.06341 0.0
C797 C 0.75156 0.10142 1.02903 0.0
C798 C 0.80877 0.12015 0.08444 0.0
C799 C 0.81843 0.09909 0.08971 0.0
C800 C 0.77501 0.10141 0.04817 0.0
C801 C 0.80625 0.07967 0.07104 0.0
C802 C 0.73845 0.08215 1.03048 0.0
C803 C 0.72143 0.11981 0.98794 0.0
N804 N 0.78517 0.0813 0.05174 0.0
N805 N 0.74263 0.11975 1.00839 0.0
H806 H 0.15288 0.5737 0.28588 0.0
H807 H 0.15307 0.43846 0.25742 0.0
H808 H 0.15846 0.53429 0.41828 0.0
H809 H 0.16939 0.47756 0.13171 0.0
H810 H 0.14782 0.47347 0.31411 0.0
H811 H 0.15147 0.53866 0.22617 0.0
C812 C 0.15326 0.55768 0.30235 0.0
C813 C 0.15569 0.55688 0.35708 0.0
C814 C 0.15239 0.47439 0.27399 0.0
C815 C 0.15433 0.5168 0.28922 0.0
C816 C 0.15525 0.4544 0.24148 0.0
C817 C 0.16173 0.45504 0.18969 0.0
C818 C 0.15575 0.49526 0.25451 0.0
C819 C 0.16458 0.47626 0.17149 0.0
C820 C 0.1527 0.5377 0.26832 0.0
C821 C 0.15654 0.53564 0.37633 0.0
N822 N 0.16158 0.49547 0.20377 0.0
N823 N 0.15591 0.5165 0.34255 0.0
H824 H 0.29 0.14149 0.47838 0.0
H825 H 0.20616 0.05901 0.58478 0.0
H826 H 0.31069 0.08016 0.54276 0.0
H827 H 0.19738 0.13076 0.61805 0.0
H828 H 0.24235 0.06598 0.5528 0.0
H829 H 0.25403 0.13806 0.51681 0.0
C830 C 0.2872 0.12755 0.50127 0.0
C831 C 0.30336 0.1109 0.50664 0.0
C832 C 0.23244 0.08018 0.5671 0.0
C833 C 0.26214 0.10657 0.54865 0.0
C834 C 0.21178 0.07625 0.58559 0.0
C835 C 0.19873 0.0943 0.60523 0.0
C836 C 0.24 0.10232 0.56684 0.0
C837 C 0.20673 0.1163 0.60309 0.0
C838 C 0.26662 0.12554 0.52272 0.0
C839 C 0.29859 0.09308 0.53627 0.0
N840 N 0.22688 0.11972 0.58414 0.0
N841 N 0.27832 0.09119 0.55533 0.0
H842 H 0.68205 0.48535 0.39867 0.0
H843 H 0.62772 0.5484 0.15999 0.0
H844 H 0.63233 0.45385 0.28807 0.0
H845 H 0.68148 0.57457 0.26551 0.0
H846 H 0.6259 0.51528 0.2103 0.0
H847 H 0.67933 0.51926 0.35368 0.0
C848 C 0.67062 0.48543 0.3646 0.0
C849 C 0.65769 0.46635 0.34679 0.0
C850 C 0.63784 0.52847 0.22291 0.0
C851 C 0.65411 0.50589 0.29514 0.0
C852 C 0.63868 0.54747 0.19462 0.0
C853 C 0.65455 0.56439 0.20915 0.0
C854 C 0.653 0.52644 0.26596 0.0
C855 C 0.66881 0.56205 0.2534 0.0
C856 C 0.66895 0.505 0.33906 0.0
C857 C 0.64267 0.46804 0.30332 0.0
N858 N 0.66775 0.54349 0.27992 0.0
N859 N 0.64138 0.48738 0.27883 0.0
H860 H 0.22758 0.90753 0.91662 0.0
H861 H 0.28868 0.90587 0.20119 0.0
H862 H 0.19297 0.90123 0.05753 0.0
H863 H 0.32359 0.89829 0.05809 0.0
H864 H 0.25358 0.90313 0.14894 0.0
H865 H 0.26274 0.90355 0.96678 0.0
C866 C 0.22735 0.90519 0.95809 0.0
C867 C 0.20717 0.90479 0.9828 0.0
C868 C 0.26886 0.90171 0.12878 0.0
C869 C 0.24759 0.90024 0.04076 0.0
C870 C 0.28893 0.9032 0.15865 0.0
C871 C 0.30913 0.90219 0.13401 0.0
C872 C 0.2688 0.89952 0.07352 0.0
C873 C 0.30843 0.89889 0.07873 0.0
C874 C 0.24746 0.90281 0.98667 0.0
C875 C 0.208 0.90147 0.03658 0.0
N876 N 0.28863 0.89796 0.05035 0.0
N877 N 0.22781 0.89956 0.06374 0.0
H878 H 0.82187 0.56225 0.84376 0.0
H879 H 0.89013 0.46081 0.7112 0.0
H880 H 0.89224 0.55841 0.87691 0.0
H881 H 0.82177 0.45611 0.74908 0.0
H882 H 0.89238 0.49811 0.76085 0.0
H883 H 0.82263 0.52561 0.79306 0.0
C884 C 0.83754 0.55363 0.84002 0.0
C885 C 0.85696 0.56299 0.86536 0.0
C886 C 0.877 0.48875 0.75841 0.0
C887 C 0.85796 0.52111 0.80735 0.0
C888 C 0.8757 0.46741 0.73055 0.0
C889 C 0.85565 0.45532 0.72572 0.0
C890 C 0.85804 0.4981 0.78064 0.0
C891 C 0.83742 0.46494 0.7508 0.0
C892 C 0.83794 0.53273 0.81131 0.0
C893 C 0.87693 0.55153 0.85821 0.0
N894 N 0.83901 0.48583 0.77671 0.0
N895 N 0.87693 0.53094 0.82996 0.0
H896 H 0.13756 0.23196 0.70382 0.0
H897 H 0.11292 0.25082 1.01056 0.0
H898 H 0.11258 0.18168 0.79548 0.0
H899 H 0.13795 0.3044 0.92861 0.0
H900 H 0.11588 0.22503 0.93181 0.0
H901 H 0.14134 0.25832 0.78482 0.0
C902 C 0.13342 0.22629 0.74107 0.0
C903 C 0.12485 0.20454 0.743 0.0
C904 C 0.12089 0.24237 0.93073 0.0
C905 C 0.12872 0.23456 0.83514 0.0
C906 C 0.11919 0.2572 0.97599 0.0
C907 C 0.12513 0.27992 0.97643 0.0
C908 C 0.12846 0.25014 0.88471 0.0
C909 C 0.13321 0.28702 0.93012 0.0
C910 C 0.13536 0.24139 0.78713 0.0
C911 C 0.11927 0.19825 0.79205 0.0
N912 N 0.13449 0.27222 0.88594 0.0
N913 N 0.12119 0.21313 0.83575 0.0
H914 H 0.03068 0.86401 1.02363 0.0
H915 H 1.00353 0.8927 0.32629 0.0
H916 H 0.08295 0.87383 0.14533 0.0
H917 H 0.96001 0.85479 0.21151 0.0
H918 H 0.03144 0.89326 0.25934 0.0
H919 H 1.00356 0.86761 0.09064 0.0
C920 C 0.03656 0.86717 0.0645 0.0
C921 C 0.05933 0.86874 0.07854 0.0
C922 C 0.01563 0.88515 0.24868 0.0
C923 C 0.02782 0.87303 0.1563 0.0
C924 C 0.99959 0.88513 0.28657 0.0
C925 C 0.97918 0.87423 0.27394 0.0
C926 C 0.01112 0.87434 0.19771 0.0
C927 C 0.97529 0.86388 0.2225 0.0
C928 C 0.02093 0.86912 0.10288 0.0
C929 C 0.06564 0.87254 0.13253 0.0
N930 N 0.99099 0.86428 0.18639 0.0
N931 N 0.04999 0.87468 0.16944 0.0
H932 H 0.36908 0.71742 0.43482 0.0
H933 H 0.42866 0.81629 0.31592 0.0
H934 H 0.43988 0.72453 0.43553 0.0
H935 H 0.37466 0.78307 0.22112 0.0
H936 H 0.42684 0.78824 0.37735 0.0
H937 H 0.36528 0.74633 0.37161 0.0
C938 C 0.38373 0.72511 0.42182 0.0
C939 C 0.40483 0.71858 0.43993 0.0
C940 C 0.41526 0.78716 0.34333 0.0
C941 C 0.40062 0.7515 0.36954 0.0
C942 C 0.41618 0.80323 0.30797 0.0
C943 C 0.40186 0.80208 0.26258 0.0
C944 C 0.39976 0.76971 0.33425 0.0
C945 C 0.38608 0.78459 0.25536 0.0
C946 C 0.38156 0.74137 0.38571 0.0
C947 C 0.42333 0.72893 0.42207 0.0
N948 N 0.38544 0.76896 0.29095 0.0
N949 N 0.42079 0.745 0.38841 0.0
H950 H 0.43272 0.15374 0.57296 0.0
H951 H 0.56067 0.14075 0.64915 0.0
H952 H 0.48134 0.13897 0.4572 0.0
H953 H 0.5103 0.14328 0.76266 0.0
H954 H 0.53183 0.13773 0.57813 0.0
H955 H 0.46057 0.14755 0.64242 0.0
C956 C 0.4492 0.14883 0.56205 0.0
C957 C 0.45469 0.14692 0.50911 0.0
C958 C 0.52708 0.13864 0.61853 0.0
C959 C 0.48687 0.14013 0.58883 0.0
C960 C 0.54354 0.14038 0.65916 0.0
C961 C 0.53792 0.14237 0.712 0.0
C962 C 0.50476 0.13917 0.63073 0.0
C963 C 0.51544 0.14176 0.72254 0.0
C964 C 0.46512 0.14531 0.60183 0.0
C965 C 0.47631 0.14051 0.49742 0.0
N966 N 0.49969 0.14048 0.6823 0.0
N967 N 0.49169 0.13764 0.53703 0.0
H968 H 0.07925 0.80207 0.80989 0.0
H969 H 0.15091 0.71917 0.61919 0.0
H970 H 0.14848 0.79215 0.84843 0.0
H971 H 0.0803 0.72837 0.60576 0.0
H972 H 0.15221 0.74472 0.70216 0.0
H973 H 0.081 0.77437 0.73484 0.0
C974 C 0.09498 0.79407 0.80246 0.0
C975 C 0.1138 0.79978 0.83552 0.0
C976 C 0.13649 0.74094 0.68099 0.0
C977 C 0.11603 0.76735 0.74773 0.0
C978 C 0.13573 0.72633 0.63371 0.0
C979 C 0.11549 0.72166 0.6049 0.0
C980 C 0.11685 0.75078 0.69948 0.0
C981 C 0.09638 0.73152 0.62573 0.0
C982 C 0.09596 0.77804 0.7593 0.0
C983 C 0.13355 0.78831 0.82399 0.0
N984 N 0.09759 0.74546 0.67108 0.0
N985 N 0.13424 0.77277 0.78067 0.0
H986 H 0.44233 0.83298 1.00459 0.0
H987 H 0.52814 0.89611 0.84775 0.0
H988 H 0.46467 0.89925 0.06701 0.0
H989 H 0.53868 0.82782 0.88389 0.0
H990 H 0.49747 0.89912 0.90823 0.0
H991 H 0.47023 0.83231 0.93846 0.0
C992 C 0.45262 0.84767 1.00327 0.0
C993 C 0.45091 0.86641 0.04047 0.0
C994 C 0.50654 0.88352 0.90252 0.0
C995 C 0.48275 0.86575 0.96512 0.0
C996 C 0.52389 0.88178 0.86811 0.0
C997 C 0.53599 0.86178 0.86144 0.0
C998 C 0.50089 0.86485 0.92849 0.0
C999 C 0.52988 0.84362 0.88852 0.0
C1000 C 0.46867 0.84717 0.96598 0.0
C1001 C 0.46529 0.88467 0.03834 0.0
N1002 N 0.51263 0.8455 0.92044 0.0
N1003 N 0.48056 0.88399 1.00097 0.0
H1004 H 0.44382 0.28389 0.12538 0.0
H1005 H 0.3671 0.22996 0.31439 0.0
H1006 H 0.37352 0.29311 0.10207 0.0
H1007 H 0.42116 0.19304 0.24503 0.0
H1008 H 0.36985 0.25733 0.24885 0.0
H1009 H 0.43699 0.25456 0.1827 0.0
C1010 C 0.42691 0.27974 0.13253 0.0
C1011 C 0.40918 0.2909 0.10919 0.0
C1012 C 0.38076 0.24294 0.24759 0.0
C1013 C 0.40131 0.25763 0.17526 0.0
C1014 C 0.37924 0.2274 0.2848 0.0
C1015 C 0.39365 0.20898 0.28436 0.0
C1016 C 0.39728 0.24034 0.21111 0.0
C1017 C 0.40937 0.20662 0.24595 0.0
C1018 C 0.42306 0.26295 0.16492 0.0
C1019 C 0.38759 0.28477 0.11932 0.0
N1020 N 0.411 0.2223 0.21139 0.0
N1021 N 0.3842 0.26868 0.15241 0.0
H1022 H 0.99264 0.18746 0.26659 0.0
H1023 H 0.04725 0.11794 0.49169 0.0
H1024 H 0.97866 0.11672 0.26849 0.0
H1025 H 0.07234 0.18099 0.45085 0.0
H1026 H 0.02021 0.1171 0.41566 0.0
H1027 H 0.01967 0.1855 0.33964 0.0
C1028 C 0.99524 0.17141 0.28226 0.0
C1029 C 0.98324 0.15221 0.26092 0.0
C1030 C 0.03187 0.13093 0.42301 0.0
C1031 C 0.01461 0.14987 0.3458 0.0
C1032 C 0.04731 0.13141 0.4663 0.0
C1033 C 0.06259 0.14923 0.47671 0.0
C1034 C 0.03132 0.14874 0.39082 0.0
C1035 C 0.06158 0.16648 0.44322 0.0
C1036 C 0.01083 0.17031 0.32413 0.0
C1037 C 0.98753 0.13195 0.28342 0.0
N1038 N 0.04621 0.16586 0.40226 0.0
N1039 N 1.00279 0.13132 0.3248 0.0
H1040 H 0.93753 0.81298 0.28781 0.0
H1041 H 0.86811 0.72281 0.09164 0.0
H1042 H 0.87044 0.79654 0.31838 0.0
H1043 H 0.93715 0.73928 0.08435 0.0
H1044 H 0.86682 0.74904 0.17285 0.0
H1045 H 0.93603 0.78553 0.21224 0.0
C1046 C 0.92227 0.80368 0.27831 0.0
C1047 C 0.90392 0.8075 0.30914 0.0
C1048 C 0.88219 0.74673 0.15332 0.0
C1049 C 0.90208 0.77522 0.22116 0.0
C1050 C 0.88295 0.73181 0.10701 0.0
C1051 C 0.90277 0.72884 0.08081 0.0
C1052 C 0.90139 0.75862 0.17326 0.0
C1053 C 0.92144 0.74097 0.10257 0.0
C1054 C 0.92146 0.78775 0.23494 0.0
C1055 C 0.88491 0.79425 0.29543 0.0
N1056 N 0.92024 0.75517 0.14704 0.0
N1057 N 0.88438 0.77876 0.25197 0.0
H1058 H 0.01291 0.1777 0.73945 0.0
H1059 H 0.98294 0.12386 0.9991 0.0
H1060 H 0.04958 0.12144 0.79207 0.0
H1061 H 0.9366 0.16117 0.90788 0.0
H1062 H 0.00873 0.12364 0.92802 0.0
H1063 H 0.98609 0.17318 0.80535 0.0
C1064 C 0.0153 0.16431 0.76482 0.0
C1065 C 0.03358 0.14994 0.76018 0.0
C1066 C 0.99279 0.13161 0.92342 0.0
C1067 C 1.00284 0.1448 0.83656 0.0
C1068 C 0.97804 0.13175 0.96394 0.0
C1069 C 0.95744 0.14246 0.95948 0.0
C1070 C 0.98706 0.14265 0.87858 0.0
C1071 C 0.95211 0.15253 0.9131 0.0
C1072 C 0.9999 0.16169 0.80239 0.0
C1073 C 0.03569 0.13283 0.79414 0.0
N1074 N 0.96687 0.15258 0.8749 0.0
N1075 N 0.02063 0.13087 0.83133 0.0
H1076 H 0.60965 0.18241 0.74007 0.0
H1077 H 0.61475 0.31389 0.70439 0.0
H1078 H 0.62165 0.23477 0.86755 0.0
H1079 H 0.61341 0.26292 0.57211 0.0
H1080 H 0.61763 0.28455 0.76404 0.0
H1081 H 0.61111 0.21089 0.67721 0.0
C1082 C 0.61272 0.1998 0.75487 0.0
C1083 C 0.61546 0.20613 0.8093 0.0
C1084 C 0.61689 0.27968 0.722 0.0
C1085 C 0.61711 0.23879 0.73766 0.0
C1086 C 0.61525 0.29649 0.68782 0.0
C1087 C 0.61383 0.2909 0.63309 0.0
C1088 C 0.61685 0.25695 0.70158 0.0
C1089 C 0.61458 0.26801 0.61403 0.0
C1090 C 0.6136 0.21605 0.71896 0.0
C1091 C 0.61947 0.22897 0.82608 0.0
N1092 N 0.61584 0.25185 0.64823 0.0
N1093 N 0.62004 0.24439 0.79056 0.0
H1094 H 0.49756 0.83277 0.30966 0.0
H1095 H 0.53487 0.88654 0.60109 0.0
H1096 H 0.46653 0.89336 0.37606 0.0
H1097 H 0.57225 0.83849 0.50462 0.0
H1098 H 0.50811 0.88901 0.52519 0.0
H1099 H 0.52267 0.8338 0.38658 0.0
C1100 C 0.49599 0.84648 0.34033 0.0
C1101 C 0.47977 0.86312 0.33552 0.0
C1102 C 0.52229 0.87809 0.52082 0.0
C1103 C 0.50918 0.86435 0.42575 0.0
C1104 C 0.53762 0.87667 0.56414 0.0
C1105 C 0.55614 0.86243 0.55962 0.0
C1106 C 0.52527 0.86484 0.47293 0.0
C1107 C 0.55856 0.84994 0.51056 0.0
C1108 C 0.51053 0.84704 0.38465 0.0
C1109 C 0.47876 0.88021 0.37765 0.0
N1110 N 0.54338 0.85136 0.46985 0.0
N1111 N 0.49324 0.88039 0.42102 0.0
H1112 H 0.89683 0.17726 0.26287 0.0
H1113 H 0.88708 0.3075 0.35496 0.0
H1114 H 0.88282 0.22654 0.15347 0.0
H1115 H 0.88317 0.25608 0.46146 0.0
H1116 H 0.88451 0.27834 0.28059 0.0
H1117 H 0.8905 0.20575 0.33588 0.0
C1118 C 0.89193 0.19401 0.25425 0.0
C1119 C 0.89014 0.19951 0.20212 0.0
C1120 C 0.88387 0.27346 0.32018 0.0
C1121 C 0.88352 0.23247 0.28559 0.0
C1122 C 0.88536 0.29011 0.36275 0.0
C1123 C 0.88536 0.28427 0.41467 0.0
C1124 C 0.88262 0.25073 0.32949 0.0
C1125 C 0.88319 0.26142 0.4222 0.0
C1126 C 0.88839 0.2103 0.29594 0.0
C1127 C 0.88402 0.22152 0.19308 0.0
N1128 N 0.88215 0.2455 0.38015 0.0
N1129 N 0.88125 0.23731 0.2345 0.0
H1130 H 0.52425 0.13535 0.96145 0.0
H1131 H 0.49847 0.15207 0.26795 0.0
H1132 H 0.57299 0.15411 0.0877 0.0
H1133 H 0.44784 0.13972 0.14296 0.0
H1134 H 0.52649 0.14847 0.20241 0.0
H1135 H 0.4966 0.13224 1.02723 0.0
C1136 C 0.52926 0.13839 1.00289 0.0
C1137 C 0.55102 0.14499 1.01892 0.0
C1138 C 0.50926 0.14637 0.18928 0.0
C1139 C 0.51941 0.14178 0.09436 0.0
C1140 C 0.49322 0.14836 0.2268 0.0
C1141 C 0.47069 0.14624 0.21108 0.0
C1142 C 0.50282 0.14222 0.13545 0.0
C1143 C 0.46498 0.14151 0.15701 0.0
C1144 C 0.51342 0.13679 0.04044 0.0
C1145 C 0.55644 0.14902 0.07328 0.0
N1146 N 0.48089 0.13978 0.12119 0.0
N1147 N 0.54078 0.14747 0.10882 0.0
H1148 H 0.57662 0.73637 0.99002 0.0
H1149 H 0.6503 0.794 0.78686 0.0
H1150 H 0.6451 0.71869 0.97364 0.0
H1151 H 0.58261 0.80982 0.81626 0.0
H1152 H 0.64977 0.76604 0.85207 0.0
H1153 H 0.57951 0.76273 0.92469 0.0
C1154 C 0.59241 0.73798 0.97278 0.0
C1155 C 0.61067 0.7251 0.98806 0.0
C1156 C 0.63513 0.77589 0.84472 0.0
C1157 C 0.61413 0.75601 0.91157 0.0
C1158 C 0.63543 0.79189 0.80759 0.0
C1159 C 0.61674 0.80517 0.79774 0.0
C1160 C 0.6158 0.77277 0.87147 0.0
C1161 C 0.59778 0.80115 0.82461 0.0
C1162 C 0.59403 0.75321 0.93508 0.0
C1163 C 0.63055 0.72817 0.96338 0.0
N1164 N 0.59782 0.78549 0.85989 0.0
N1165 N 0.63178 0.74331 0.92649 0.0
H1166 H 0.98956 0.86069 0.51798 0.0
H1167 H 0.02187 0.89414 0.82171 0.0
H1168 H 0.93885 0.88029 0.62538 0.0
H1169 H 0.05299 0.8397 0.73013 0.0
H1170 H 0.99477 0.89748 0.74694 0.0
H1171 H 0.01652 0.86107 0.5925 0.0
C1172 C 0.98411 0.86536 0.55726 0.0
C1173 C 0.96187 0.8706 0.56542 0.0
C1174 C 0.00771 0.885 0.74327 0.0
C1175 C 0.99293 0.87127 0.65108 0.0
C1176 C 0.02327 0.88327 0.7855 0.0
C1177 C 0.03976 0.86678 0.78164 0.0
C1178 C 0.00912 0.87049 0.69673 0.0
C1179 C 0.04061 0.85274 0.73442 0.0
C1180 C 0.99954 0.86545 0.59978 0.0
C1181 C 0.95581 0.87617 0.61741 0.0
N1182 N 0.02564 0.85502 0.69373 0.0
N1183 N 0.97131 0.87652 0.65839 0.0
H1184 H 0.57896 0.70585 0.27899 0.0
H1185 H 0.64998 0.78618 0.49712 0.0
H1186 H 0.65 0.7083 0.28148 0.0
H1187 H 0.57938 0.77614 0.49355 0.0
H1188 H 0.6514 0.75913 0.41761 0.0
H1189 H 0.57965 0.73313 0.3566 0.0
C1190 C 0.59477 0.71191 0.29669 0.0
C1191 C 0.61447 0.70434 0.27507 0.0
C1192 C 0.63565 0.76295 0.43443 0.0
C1193 C 0.61553 0.73618 0.36358 0.0
C1194 C 0.63483 0.77838 0.47972 0.0
C1195 C 0.61455 0.78347 0.50229 0.0
C1196 C 0.61602 0.75272 0.41154 0.0
C1197 C 0.59545 0.7728 0.47803 0.0
C1198 C 0.5952 0.72767 0.34079 0.0
C1199 C 0.63449 0.71351 0.29783 0.0
N1200 N 0.59669 0.75808 0.43431 0.0
N1201 N 0.63455 0.72891 0.34118 0.0
H1202 H 0.53173 0.3723 0.52024 0.0
H1203 H 0.50291 0.38991 0.82386 0.0
H1204 H 0.58365 0.37549 0.64316 0.0
H1205 H 0.4605 0.35491 0.70163 0.0
H1206 H 0.53144 0.39264 0.75893 0.0
H1207 H 0.50436 0.37368 0.58684 0.0
C1208 C 0.53747 0.37359 0.56134 0.0
C1209 C 0.5602 0.37391 0.57589 0.0
C1210 C 0.51577 0.38459 0.74642 0.0
C1211 C 0.52849 0.37565 0.65309 0.0
C1212 C 0.49941 0.38328 0.78324 0.0
C1213 C 0.4792 0.37233 0.76803 0.0
C1214 C 0.51166 0.37533 0.69389 0.0
C1215 C 0.47577 0.36358 0.71509 0.0
C1216 C 0.52172 0.37425 0.59944 0.0
C1217 C 0.56637 0.37522 0.63005 0.0
N1218 N 0.49168 0.36537 0.68012 0.0
N1219 N 0.55062 0.37618 0.66671 0.0
H1220 H 0.88354 0.1923 0.83338 0.0
H1221 H 0.89468 0.32284 0.79594 0.0
H1222 H 0.89313 0.24458 0.96189 0.0
H1223 H 0.87556 0.27324 0.66715 0.0
H1224 H 0.89223 0.29431 0.85707 0.0
H1225 H 0.87886 0.22124 0.7721 0.0
C1226 C 0.88445 0.20984 0.84886 0.0
C1227 C 0.88875 0.21594 0.90306 0.0
C1228 C 0.88815 0.28964 0.81564 0.0
C1229 C 0.88358 0.24922 0.83281 0.0
C1230 C 0.88943 0.306 0.78063 0.0
C1231 C 0.88505 0.30054 0.72633 0.0
C1232 C 0.88273 0.26736 0.79649 0.0
C1233 C 0.87867 0.27832 0.70877 0.0
C1234 C 0.88176 0.22637 0.81376 0.0
C1235 C 0.88978 0.23899 0.92061 0.0
N1236 N 0.87795 0.26247 0.74369 0.0
N1237 N 0.8874 0.2547 0.88564 0.0
H1238 H 0.06267 0.63795 0.14267 0.0
H1239 H 0.93422 0.64676 0.07003 0.0
H1240 H 0.01318 0.63829 0.25788 0.0
H1241 H 0.98132 0.62921 0.95238 0.0
H1242 H 0.9628 0.642 0.13891 0.0
H1243 H 0.03346 0.63317 0.07239 0.0
C1244 C 0.04568 0.63673 0.15322 0.0
C1245 C 0.04041 0.63857 0.20637 0.0
C1246 C 0.96687 0.63871 0.09812 0.0
C1247 C 1.00679 0.63339 0.12587 0.0
C1248 C 0.9505 0.64135 0.0587 0.0
C1249 C 0.95532 0.63815 1.00536 0.0
C1250 C 0.98847 0.63326 0.08439 0.0
C1251 C 0.97679 0.63147 0.99298 0.0
C1252 C 0.029 0.63397 0.113 0.0
C1253 C 0.01807 0.63686 0.21756 0.0
N1254 N 0.99268 0.62957 0.03224 0.0
N1255 N 1.00211 0.63466 0.17773 0.0
H1256 H 0.63724 0.28515 0.36749 0.0
H1257 H 0.58148 0.24349 0.08379 0.0
H1258 H 0.5897 0.32228 0.27882 0.0
H1259 H 0.643 0.21414 0.1354 0.0
H1260 H 0.58342 0.26991 0.16171 0.0
H1261 H 0.63931 0.2571 0.28963 0.0
C1262 C 0.62739 0.28755 0.33186 0.0
C1263 C 0.61339 0.30634 0.33002 0.0
C1264 C 0.59666 0.25785 0.15631 0.0
C1265 C 0.61538 0.27415 0.24141 0.0
C1266 C 0.59555 0.24255 0.11147 0.0
C1267 C 0.61214 0.22637 0.10241 0.0
C1268 C 0.61447 0.25731 0.19361 0.0
C1269 C 0.62986 0.2263 0.14051 0.0
C1270 C 0.6286 0.27154 0.28746 0.0
C1271 C 0.60095 0.30838 0.28264 0.0
N1272 N 0.63054 0.2415 0.18463 0.0
N1273 N 0.60216 0.29256 0.24095 0.0
H1274 H 0.97982 0.36946 0.568 0.0
H1275 H 0.00918 0.35833 0.26422 0.0
H1276 H 0.93224 0.34726 0.44165 0.0
H1277 H 0.05726 0.36887 0.3952 0.0
H1278 H 0.97972 0.35896 0.32679 0.0
H1279 H 1.0071 0.37408 0.50353 0.0
C1280 C 0.97498 0.36569 0.52662 0.0
C1281 C 0.9536 0.35781 0.51045 0.0
C1282 C 0.99671 0.36135 0.34172 0.0
C1283 C 0.98512 0.36304 0.43583 0.0
C1284 C 0.01353 0.36115 0.30604 0.0
C1285 C 0.03576 0.36354 0.32448 0.0
C1286 C 1.00216 0.36416 0.39619 0.0
C1287 C 0.0404 0.36689 0.37913 0.0
C1288 C 0.99068 0.36829 0.48972 0.0
C1289 C 0.94848 0.35329 0.45608 0.0
N1290 N 0.0238 0.36705 0.41289 0.0
N1291 N 0.96415 0.35586 0.42073 0.0
H1292 H 0.89859 0.68544 0.71583 0.0
H1293 H 0.91299 0.81546 0.68176 0.0
H1294 H 0.89709 0.73852 0.84342 0.0
H1295 H 0.8939 0.76741 0.54955 0.0
H1296 H 0.90845 0.78652 0.74081 0.0
H1297 H 0.8978 0.71417 0.65308 0.0
C1298 C 0.89784 0.70305 0.73059 0.0
C1299 C 0.89781 0.70954 0.78495 0.0
C1300 C 0.90498 0.78228 0.69896 0.0
C1301 C 0.89729 0.74232 0.7138 0.0
C1302 C 0.90759 0.79884 0.66514 0.0
C1303 C 0.90379 0.79388 0.61061 0.0
C1304 C 0.89875 0.7604 0.67829 0.0
C1305 C 0.89689 0.77198 0.5914 0.0
C1306 C 0.89739 0.7194 0.69483 0.0
C1307 C 0.89696 0.73261 0.80194 0.0
N1308 N 0.89479 0.75594 0.62521 0.0
N1309 N 0.89694 0.74809 0.76661 0.0
H1310 H 0.52716 0.6439 0.07731 0.0
H1311 H 0.49013 0.61908 0.77188 0.0
H1312 H 0.5751 0.63047 0.95983 0.0
H1313 H 0.45868 0.66872 0.87706 0.0
H1314 H 0.51764 0.61282 0.84372 0.0
H1315 H 0.49772 0.64226 1.00692 0.0
C1316 C 0.53136 0.63975 0.03679 0.0
C1317 C 0.55346 0.63685 1.02414 0.0
C1318 C 0.50452 0.62488 0.85093 0.0
C1319 C 0.52007 0.63516 0.94384 0.0
C1320 C 0.48882 0.62838 0.8102 0.0
C1321 C 0.47218 0.6445 0.81856 0.0
C1322 C 0.50311 0.63715 0.90052 0.0
C1323 C 0.47131 0.65623 0.86885 0.0
C1324 C 0.51464 0.6391 0.99673 0.0
C1325 C 0.55817 0.63241 0.97097 0.0
N1326 N 0.48649 0.65227 0.90792 0.0
N1327 N 0.5416 0.63164 0.93262 0.0
H1328 H 0.38718 0.28284 0.84862 0.0
H1329 H 0.40979 0.26781 0.54242 0.0
H1330 H 0.40344 0.33668 0.75652 0.0
H1331 H 0.37636 0.21599 0.61456 0.0
H1332 H 0.4083 0.29235 0.62372 0.0
H1333 H 0.38256 0.2574 0.76637 0.0
C1334 C 0.38923 0.28944 0.81121 0.0
C1335 C 0.39576 0.31192 0.80949 0.0
C1336 C 0.40107 0.2757 0.62191 0.0
C1337 C 0.3911 0.28296 0.71598 0.0
C1338 C 0.40196 0.26159 0.57529 0.0
C1339 C 0.39307 0.23979 0.57133 0.0
C1340 C 0.39137 0.26806 0.66564 0.0
C1341 C 0.38332 0.23272 0.61575 0.0
C1342 C 0.38679 0.27489 0.76439 0.0
C1343 C 0.39855 0.31948 0.75997 0.0
N1344 N 0.38282 0.24679 0.66125 0.0
N1345 N 0.39643 0.30505 0.71559 0.0
H1346 H 0.48764 0.64672 0.57021 0.0
H1347 H 0.51654 0.63093 0.26764 0.0
H1348 H 0.43652 0.6376 0.44532 0.0
H1349 H 0.56068 0.65935 0.39534 0.0
H1350 H 0.48784 0.6275 0.33098 0.0
H1351 H 0.51525 0.64562 0.50527 0.0
C1352 C 0.48215 0.64419 0.52898 0.0
C1353 C 0.45961 0.64214 0.51324 0.0
C1354 C 0.50388 0.63436 0.34491 0.0
C1355 C 0.49155 0.64098 0.43806 0.0
C1356 C 0.5203 0.63615 0.30898 0.0
C1357 C 0.54106 0.6454 0.3263 0.0
C1358 C 0.50842 0.64166 0.39836 0.0
C1359 C 0.54496 0.65211 0.38015 0.0
C1360 C 0.49803 0.6437 0.4918 0.0
C1361 C 0.4537 0.63922 0.45909 0.0
N1362 N 0.52883 0.65012 0.41412 0.0
N1363 N 0.46962 0.63871 0.42324 0.0
H1364 H 0.11206 0.68286 0.23536 0.0
H1365 H 0.12413 0.81454 0.2117 0.0
H1366 H 0.12731 0.73262 0.36686 0.0
H1367 H 0.12607 0.76558 0.07601 0.0
H1368 H 0.12488 0.78408 0.26849 0.0
H1369 H 0.11651 0.71211 0.17522 0.0
C1370 C 0.1165 0.69979 0.25158 0.0
C1371 C 0.11924 0.70521 0.30633 0.0
C1372 C 0.12545 0.77991 0.22635 0.0
C1373 C 0.12421 0.73869 0.238 0.0
C1374 C 0.12509 0.79735 0.19389 0.0
C1375 C 0.12521 0.79265 0.13906 0.0
C1376 C 0.12557 0.75743 0.20398 0.0
C1377 C 0.12624 0.76999 0.11816 0.0
C1378 C 0.11906 0.71646 0.21727 0.0
C1379 C 0.12498 0.7275 0.32507 0.0
N1380 N 0.12612 0.75319 0.15061 0.0
N1381 N 0.1271 0.74333 0.29113 0.0
H1382 H 0.06732 0.33173 0.96925 0.0
H1383 H 0.96146 0.38858 0.83538 0.0
H1384 H 0.03168 0.38396 0.05787 0.0
H1385 H 0.98941 0.32441 0.7819 0.0
H1386 H 0.98818 0.39101 0.91275 0.0
H1387 H 0.04048 0.33285 0.8962 0.0
C1388 C 0.05395 0.34372 0.97338 0.0
C1389 C 0.05205 0.35793 1.02019 0.0
C1390 C 0.9883 0.37644 0.88394 0.0
C1391 C 0.02056 0.35917 0.93497 0.0
C1392 C 0.97314 0.37508 0.83968 0.0
C1393 C 0.97305 0.35625 0.80176 0.0
C1394 C 1.00361 0.35897 0.88984 0.0
C1395 C 0.98862 0.33928 0.80967 0.0
C1396 C 0.03841 0.34422 0.93134 0.0
C1397 C 0.03391 0.37272 1.02264 0.0
N1398 N 1.00311 0.3411 0.8523 0.0
N1399 N 0.01889 0.37304 0.98053 0.0
H1400 H 0.39683 0.68508 0.80197 0.0
H1401 H 0.3853 0.81581 0.88942 0.0
H1402 H 0.38382 0.73374 0.69037 0.0
H1403 H 0.38424 0.76506 0.99815 0.0
H1404 H 0.38286 0.78619 0.81596 0.0
H1405 H 0.39037 0.71395 0.87375 0.0
C1406 C 0.39218 0.70178 0.79247 0.0
C1407 C 0.39078 0.70695 0.73995 0.0
C1408 C 0.3828 0.78153 0.85584 0.0
C1409 C 0.38374 0.74038 0.8225 0.0
C1410 C 0.38417 0.79845 0.89788 0.0
C1411 C 0.38494 0.79297 0.95016 0.0
C1412 C 0.3825 0.75886 0.86598 0.0
C1413 C 0.38354 0.77014 0.9586 0.0
C1414 C 0.38853 0.7183 0.83361 0.0
C1415 C 0.38483 0.72893 0.73017 0.0
N1416 N 0.38266 0.75395 0.91702 0.0
N1417 N 0.38182 0.74492 0.77112 0.0
H1418 H 0.9722 0.61934 0.70597 0.0
H1419 H 0.06933 0.6712 0.5765 0.0
H1420 H 0.97578 0.69064 0.69151 0.0
H1421 H 0.03196 0.62294 0.46919 0.0
H1422 H 0.04082 0.67049 0.63878 0.0
H1423 H 0.99894 0.61295 0.63603 0.0
C1424 C 0.97839 0.63356 0.68791 0.0
C1425 C 0.97172 0.65556 0.70468 0.0
C1426 C 0.03903 0.6598 0.60193 0.0
C1427 C 1.00214 0.64837 0.62599 0.0
C1428 C 0.05534 0.66006 0.56601 0.0
C1429 C 0.05318 0.64709 0.51685 0.0
C1430 C 0.02036 0.64623 0.58972 0.0
C1431 C 0.03436 0.6332 0.50643 0.0
C1432 C 0.99345 0.62986 0.64796 0.0
C1433 C 0.98031 0.67338 0.67998 0.0
N1434 N 0.01853 0.63314 0.5427 0.0
N1435 N 0.99527 0.66942 0.64266 0.0
H1436 H 0.1132 0.33256 0.32406 0.0
H1437 H 0.12413 0.20164 0.36408 0.0
H1438 H 0.12863 0.28077 0.20148 0.0
H1439 H 0.1249 0.25274 0.49602 0.0
H1440 H 0.12459 0.23098 0.30442 0.0
H1441 H 0.11616 0.30435 0.38819 0.0
C1442 C 0.11731 0.31539 0.31061 0.0
C1443 C 0.12064 0.30917 0.2571 0.0
C1444 C 0.12488 0.23588 0.34642 0.0
C1445 C 0.12391 0.27677 0.33016 0.0
C1446 C 0.12466 0.21906 0.38064 0.0
C1447 C 0.12463 0.22463 0.43533 0.0
C1448 C 0.12478 0.25865 0.36661 0.0
C1449 C 0.12514 0.2476 0.4542 0.0
C1450 C 0.11904 0.29929 0.34725 0.0
C1451 C 0.12597 0.28657 0.24215 0.0
N1452 N 0.12502 0.26377 0.41992 0.0
N1453 N 0.12727 0.27131 0.2782 0.0
H1454 H 0.48925 0.38239 0.03236 0.0
H1455 H 0.50336 0.36419 0.33809 0.0
H1456 H 0.43505 0.36707 0.1259 0.0
H1457 H 0.55584 0.38937 0.25209 0.0
H1458 H 0.4783 0.36516 0.26044 0.0
H1459 H 0.51384 0.38539 0.11176 0.0
C1460 C 0.48243 0.37987 0.06966 0.0
C1461 C 0.45999 0.37436 0.0723 0.0
C1462 C 0.49524 0.37064 0.25855 0.0
C1463 C 0.48825 0.37755 0.16352 0.0
C1464 C 0.50962 0.37009 0.30298 0.0
C1465 C 0.5318 0.37677 0.30182 0.0
C1466 C 0.50302 0.37778 0.21215 0.0
C1467 C 0.53888 0.38414 0.25493 0.0
C1468 C 0.49654 0.38154 0.11502 0.0
C1469 C 0.45221 0.37123 0.12181 0.0
N1470 N 0.52458 0.38434 0.21191 0.0
N1471 N 0.46633 0.3727 0.1653 0.0
loop_
_geom_bond_atom_site_label_1
_geom_bond_atom_site_label_2
_geom_bond_distance
_geom_bond_site_symmetry_2
_ccdc_geom_bond_type
O0 Tb1 2.292 . S
O0 C3 1.255 . S
Tb1 O0 2.292 . S
Tb1 O17 2.326 . S
Tb1 O19 2.500 . S
Tb1 O20 2.473 . S
Tb1 O23 2.324 . S
Eu2 O6 2.292 1_554 S
Eu2 C7 2.852 . S
Eu2 O18 2.324 . S
Eu2 O22 2.326 . S
Eu2 O24 2.500 . S
Eu2 O25 2.473 . S
C3 O0 1.255 . S
C3 O4 1.247 . S
O4 C3 1.247 . S
C5 O17 1.242 . S
C5 O18 1.258 . S
O6 Eu2 2.292 1_556 S
O6 C8 1.255 . S
C7 Eu2 2.852 . S
C7 C11 1.503 . S
C7 O24 1.273 . S
C7 O25 1.257 . S
C8 O6 1.255 . S
C8 O9 1.247 . S
O9 C8 1.247 . S
C10 O22 1.242 . S
C10 O23 1.258 . S
C11 C7 1.503 . S
C11 C12 1.379 . S
C11 C16 1.392 . S
C12 C11 1.379 . S
C12 C13 1.404 . S
C12 H26 0.929 . S
C13 C12 1.404 . S
C13 C14 1.389 . S
C14 C13 1.389 . S
C14 C15 1.399 . S
C14 H27 0.931 . S
C15 C14 1.399 . S
C15 C16 1.390 . S
C16 C11 1.392 . S
C16 C15 1.390 . S
C16 H28 0.929 . S
O17 Tb1 2.326 . S
O17 C5 1.242 . S
O18 Eu2 2.324 . S
O18 C5 1.258 . S
O19 Tb1 2.500 . S
O19 C21 1.273 . S
O20 Tb1 2.473 . S
O20 C21 1.257 . S
C21 O19 1.273 . S
C21 O20 1.257 . S
O22 Eu2 2.326 . S
O22 C10 1.242 . S
O23 Tb1 2.324 . S
O23 C10 1.258 . S
O24 Eu2 2.500 . S
O24 C7 1.273 . S
O25 Eu2 2.473 . S
O25 C7 1.257 . S
H26 C12 0.929 . S
H27 C14 0.931 . S
H28 C16 0.929 . S
O29 Tb30 2.292 . S
O29 C32 1.255 . S
Tb30 O29 2.292 . S
Tb30 O46 2.326 . S
Tb30 O48 2.500 . S
Tb30 O49 2.473 . S
Tb30 O52 2.324 . S
Eu31 O35 2.292 . S
Eu31 C36 2.852 . S
Eu31 O47 2.324 . S
Eu31 O51 2.326 . S
Eu31 O53 2.500 . S
Eu31 O54 2.473 . S
C32 O29 1.255 . S
C32 O33 1.247 . S
O33 C32 1.247 . S
C34 O46 1.242 . S
C34 O47 1.258 . S
O35 Eu31 2.292 . S
O35 C37 1.255 . S
C36 Eu31 2.852 . S
C36 C40 1.503 . S
C36 O53 1.273 . S
C36 O54 1.257 . S
C37 O35 1.255 . S
C37 O38 1.247 . S
O38 C37 1.247 . S
C39 O51 1.242 . S
C39 O52 1.258 . S
C40 C36 1.503 . S
C40 C41 1.379 . S
C40 C45 1.392 . S
C41 C40 1.379 . S
C41 C42 1.404 . S
C41 H55 0.929 . S
C42 C41 1.404 . S
C42 C43 1.389 . S
C43 C42 1.389 . S
C43 C44 1.399 . S
C43 H56 0.931 . S
C44 C43 1.399 . S
C44 C45 1.390 . S
C45 C40 1.392 . S
C45 C44 1.390 . S
C45 H57 0.929 . S
O46 Tb30 2.326 . S
O46 C34 1.242 . S
O47 Eu31 2.324 . S
O47 C34 1.258 . S
O48 Tb30 2.500 . S
O48 C50 1.273 . S
O49 Tb30 2.473 . S
O49 C50 1.257 . S
C50 O48 1.273 . S
C50 O49 1.257 . S
O51 Eu31 2.326 . S
O51 C39 1.242 . S
O52 Tb30 2.324 . S
O52 C39 1.258 . S
O53 Eu31 2.500 . S
O53 C36 1.273 . S
O54 Eu31 2.473 . S
O54 C36 1.257 . S
H55 C41 0.929 . S
H56 C43 0.931 . S
H57 C45 0.929 . S
O58 Tb59 2.292 . S
O58 C61 1.255 . S
Tb59 O58 2.292 . S
Tb59 O75 2.326 . S
Tb59 O77 2.500 . S
Tb59 O78 2.473 . S
Tb59 O81 2.324 . S
Eu60 O64 2.292 . S
Eu60 C65 2.852 . S
Eu60 O76 2.324 . S
Eu60 O80 2.326 . S
Eu60 O82 2.500 . S
Eu60 O83 2.473 . S
C61 O58 1.255 . S
C61 O62 1.247 . S
O62 C61 1.247 . S
C63 O75 1.242 . S
C63 O76 1.258 . S
O64 Eu60 2.292 . S
O64 C66 1.255 . S
C65 Eu60 2.852 . S
C65 C69 1.503 . S
C65 O82 1.273 . S
C65 O83 1.257 . S
C66 O64 1.255 . S
C66 O67 1.247 . S
O67 C66 1.247 . S
C68 O80 1.242 . S
C68 O81 1.258 . S
C69 C65 1.503 . S
C69 C70 1.379 . S
C69 C74 1.392 . S
C70 C69 1.379 . S
C70 C71 1.404 . S
C70 H84 0.929 . S
C71 C70 1.404 . S
C71 C72 1.389 . S
C72 C71 1.389 . S
C72 C73 1.399 . S
C72 H85 0.931 . S
C73 C72 1.399 . S
C73 C74 1.390 . S
C74 C69 1.392 . S
C74 C73 1.390 . S
C74 H86 0.929 . S
O75 Tb59 2.326 . S
O75 C63 1.242 . S
O76 Eu60 2.324 . S
O76 C63 1.258 . S
O77 Tb59 2.500 . S
O77 C79 1.273 . S
O78 Tb59 2.473 . S
O78 C79 1.257 . S
C79 O77 1.273 . S
C79 O78 1.257 . S
O80 Eu60 2.326 . S
O80 C68 1.242 . S
O81 Tb59 2.324 . S
O81 C68 1.258 . S
O82 Eu60 2.500 . S
O82 C65 1.273 . S
O83 Eu60 2.473 . S
O83 C65 1.257 . S
H84 C70 0.929 . S
H85 C72 0.931 . S
H86 C74 0.929 . S
O87 Tb88 2.292 . S
O87 C90 1.255 . S
Tb88 O87 2.292 . S
Tb88 O104 2.326 . S
Tb88 O106 2.500 . S
Tb88 O107 2.473 . S
Tb88 O110 2.324 . S
Eu89 O93 2.292 1_556 S
Eu89 C94 2.852 . S
Eu89 O105 2.324 . S
Eu89 O109 2.326 . S
Eu89 O111 2.500 . S
Eu89 O112 2.473 . S
C90 O87 1.255 . S
C90 O91 1.247 . S
O91 C90 1.247 . S
C92 O104 1.242 . S
C92 O105 1.258 . S
O93 Eu89 2.292 1_554 S
O93 C95 1.255 . S
C94 Eu89 2.852 . S
C94 C98 1.503 . S
C94 O111 1.273 . S
C94 O112 1.257 . S
C95 O93 1.255 . S
C95 O96 1.247 . S
O96 C95 1.247 . S
C97 O109 1.242 . S
C97 O110 1.258 . S
C98 C94 1.503 . S
C98 C99 1.379 . S
C98 C103 1.392 . S
C99 C98 1.379 . S
C99 C100 1.404 . S
C99 H113 0.929 . S
C100 C99 1.404 . S
C100 C101 1.389 . S
C101 C100 1.389 . S
C101 C102 1.399 . S
C101 H114 0.931 . S
C102 C101 1.399 . S
C102 C103 1.390 . S
C103 C98 1.392 . S
C103 C102 1.390 . S
C103 H115 0.929 . S
O104 Tb88 2.326 . S
O104 C92 1.242 . S
O105 Eu89 2.324 . S
O105 C92 1.258 . S
O106 Tb88 2.500 . S
O106 C108 1.273 . S
O107 Tb88 2.473 . S
O107 C108 1.257 . S
C108 O106 1.273 . S
C108 O107 1.257 . S
O109 Eu89 2.326 . S
O109 C97 1.242 . S
O110 Tb88 2.324 . S
O110 C97 1.258 . S
O111 Eu89 2.500 . S
O111 C94 1.273 . S
O112 Eu89 2.473 . S
O112 C94 1.257 . S
H113 C99 0.929 . S
H114 C101 0.931 . S
H115 C103 0.929 . S
O116 Tb117 2.292 . S
O116 C119 1.255 . S
Tb117 O116 2.292 . S
Tb117 O133 2.326 . S
Tb117 O135 2.500 . S
Tb117 O136 2.473 . S
Tb117 O139 2.324 . S
Eu118 O122 2.292 . S
Eu118 C123 2.852 . S
Eu118 O134 2.324 . S
Eu118 O138 2.326 . S
Eu118 O140 2.500 . S
Eu118 O141 2.473 . S
C119 O116 1.255 . S
C119 O120 1.247 . S
O120 C119 1.247 . S
C121 O133 1.242 . S
C121 O134 1.258 . S
O122 Eu118 2.292 . S
O122 C124 1.255 . S
C123 Eu118 2.852 . S
C123 C127 1.503 . S
C123 O140 1.273 . S
C123 O141 1.257 . S
C124 O122 1.255 . S
C124 O125 1.247 . S
O125 C124 1.247 . S
C126 O138 1.242 . S
C126 O139 1.258 . S
C127 C123 1.503 . S
C127 C128 1.379 . S
C127 C132 1.392 . S
C128 C127 1.379 . S
C128 C129 1.404 . S
C128 H142 0.929 . S
C129 C128 1.404 . S
C129 C130 1.389 . S
C130 C129 1.389 . S
C130 C131 1.399 . S
C130 H143 0.931 . S
C131 C130 1.399 . S
C131 C132 1.390 . S
C132 C127 1.392 . S
C132 C131 1.390 . S
C132 H144 0.929 . S
O133 Tb117 2.326 . S
O133 C121 1.242 . S
O134 Eu118 2.324 . S
O134 C121 1.258 . S
O135 Tb117 2.500 . S
O135 C137 1.273 . S
O136 Tb117 2.473 . S
O136 C137 1.257 . S
C137 O135 1.273 . S
C137 O136 1.257 . S
O138 Eu118 2.326 . S
O138 C126 1.242 . S
O139 Tb117 2.324 . S
O139 C126 1.258 . S
O140 Eu118 2.500 . S
O140 C123 1.273 . S
O141 Eu118 2.473 . S
O141 C123 1.257 . S
H142 C128 0.929 . S
H143 C130 0.931 . S
H144 C132 0.929 . S
O145 Tb146 2.292 . S
O145 C148 1.255 . S
Tb146 O145 2.292 . S
Tb146 O162 2.326 . S
Tb146 O164 2.500 . S
Tb146 O165 2.473 . S
Tb146 O168 2.324 . S
Eu147 O151 2.292 . S
Eu147 C152 2.852 . S
Eu147 O163 2.324 . S
Eu147 O167 2.326 . S
Eu147 O169 2.500 . S
Eu147 O170 2.473 . S
C148 O145 1.255 . S
C148 O149 1.247 . S
O149 C148 1.247 . S
C150 O162 1.242 . S
C150 O163 1.258 . S
O151 Eu147 2.292 . S
O151 C153 1.255 . S
C152 Eu147 2.852 . S
C152 C156 1.503 . S
C152 O169 1.273 . S
C152 O170 1.257 . S
C153 O151 1.255 . S
C153 O154 1.247 . S
O154 C153 1.247 . S
C155 O167 1.242 . S
C155 O168 1.258 . S
C156 C152 1.503 . S
C156 C157 1.379 . S
C156 C161 1.392 . S
C157 C156 1.379 . S
C157 C158 1.404 . S
C157 H171 0.929 . S
C158 C157 1.404 . S
C158 C159 1.389 . S
C159 C158 1.389 . S
C159 C160 1.399 . S
C159 H172 0.931 . S
C160 C159 1.399 . S
C160 C161 1.390 . S
C161 C156 1.392 . S
C161 C160 1.390 . S
C161 H173 0.929 . S
O162 Tb146 2.326 . S
O162 C150 1.242 . S
O163 Eu147 2.324 . S
O163 C150 1.258 . S
O164 Tb146 2.500 . S
O164 C166 1.273 . S
O165 Tb146 2.473 . S
O165 C166 1.257 . S
C166 O164 1.273 . S
C166 O165 1.257 . S
O167 Eu147 2.326 . S
O167 C155 1.242 . S
O168 Tb146 2.324 . S
O168 C155 1.258 . S
O169 Eu147 2.500 . S
O169 C152 1.273 . S
O170 Eu147 2.473 . S
O170 C152 1.257 . S
H171 C157 0.929 . S
H172 C159 0.931 . S
H173 C161 0.929 . S
O174 Tb175 2.292 . S
O174 C177 1.255 1_556 S
Tb175 O174 2.292 . S
Tb175 O191 2.326 . S
Tb175 O193 2.500 . S
Tb175 O194 2.473 . S
Tb175 O197 2.324 . S
Eu176 O180 2.292 . S
Eu176 C181 2.852 . S
Eu176 O192 2.324 . S
Eu176 O196 2.326 . S
Eu176 O198 2.500 . S
Eu176 O199 2.473 . S
C177 O174 1.255 1_554 S
C177 O178 1.247 . S
O178 C177 1.247 . S
C179 O191 1.242 . S
C179 O192 1.258 . S
O180 Eu176 2.292 . S
O180 C182 1.255 . S
C181 Eu176 2.852 . S
C181 C185 1.503 . S
C181 O198 1.273 . S
C181 O199 1.257 . S
C182 O180 1.255 . S
C182 O183 1.247 . S
O183 C182 1.247 . S
C184 O196 1.242 . S
C184 O197 1.258 . S
C185 C181 1.503 . S
C185 C186 1.379 . S
C185 C190 1.392 . S
C186 C185 1.379 . S
C186 C187 1.404 . S
C186 H200 0.929 . S
C187 C186 1.404 . S
C187 C188 1.389 . S
C188 C187 1.389 . S
C188 C189 1.399 . S
C188 H201 0.931 . S
C189 C188 1.399 . S
C189 C190 1.390 . S
C190 C185 1.392 . S
C190 C189 1.390 . S
C190 H202 0.929 . S
O191 Tb175 2.326 . S
O191 C179 1.242 . S
O192 Eu176 2.324 . S
O192 C179 1.258 . S
O193 Tb175 2.500 . S
O193 C195 1.273 . S
O194 Tb175 2.473 . S
O194 C195 1.257 . S
C195 O193 1.273 . S
C195 O194 1.257 . S
O196 Eu176 2.326 . S
O196 C184 1.242 . S
O197 Tb175 2.324 . S
O197 C184 1.258 . S
O198 Eu176 2.500 . S
O198 C181 1.273 . S
O199 Eu176 2.473 . S
O199 C181 1.257 . S
H200 C186 0.929 . S
H201 C188 0.931 . S
H202 C190 0.929 . S
O203 Tb204 2.292 1_556 S
O203 C206 1.255 . S
Tb204 O203 2.292 1_554 S
Tb204 O220 2.326 . S
Tb204 O222 2.500 . S
Tb204 O223 2.473 . S
Tb204 O226 2.324 . S
Eu205 O209 2.292 . S
Eu205 C210 2.852 . S
Eu205 O221 2.324 . S
Eu205 O225 2.326 . S
Eu205 O227 2.500 . S
Eu205 O228 2.473 . S
C206 O203 1.255 . S
C206 O207 1.247 . S
O207 C206 1.247 . S
C208 O220 1.242 . S
C208 O221 1.258 . S
O209 Eu205 2.292 . S
O209 C211 1.255 . S
C210 Eu205 2.852 . S
C210 C214 1.503 . S
C210 O227 1.273 . S
C210 O228 1.257 . S
C211 O209 1.255 . S
C211 O212 1.247 . S
O212 C211 1.247 . S
C213 O225 1.242 . S
C213 O226 1.258 . S
C214 C210 1.503 . S
C214 C215 1.379 . S
C214 C219 1.392 . S
C215 C214 1.379 . S
C215 C216 1.404 . S
C215 H229 0.929 . S
C216 C215 1.404 . S
C216 C217 1.389 . S
C217 C216 1.389 . S
C217 C218 1.399 . S
C217 H230 0.931 . S
C218 C217 1.399 . S
C218 C219 1.390 . S
C219 C214 1.392 . S
C219 C218 1.390 . S
C219 H231 0.929 . S
O220 Tb204 2.326 . S
O220 C208 1.242 . S
O221 Eu205 2.324 . S
O221 C208 1.258 . S
O222 Tb204 2.500 . S
O222 C224 1.273 . S
O223 Tb204 2.473 . S
O223 C224 1.257 . S
C224 O222 1.273 . S
C224 O223 1.257 . S
O225 Eu205 2.326 . S
O225 C213 1.242 . S
O226 Tb204 2.324 . S
O226 C213 1.258 . S
O227 Eu205 2.500 . S
O227 C210 1.273 . S
O228 Eu205 2.473 . S
O228 C210 1.257 . S
H229 C215 0.929 . S
H230 C217 0.931 . S
H231 C219 0.929 . S
O232 Tb233 2.292 . S
O232 C235 1.255 . S
Tb233 O232 2.292 . S
Tb233 O249 2.326 . S
Tb233 O251 2.500 . S
Tb233 O252 2.473 . S
Tb233 O255 2.324 . S
Eu234 O238 2.292 . S
Eu234 C239 2.852 . S
Eu234 O250 2.324 . S
Eu234 O254 2.326 . S
Eu234 O256 2.500 . S
Eu234 O257 2.473 . S
C235 O232 1.255 . S
C235 O236 1.247 . S
O236 C235 1.247 . S
C237 O249 1.242 . S
C237 O250 1.258 . S
O238 Eu234 2.292 . S
O238 C240 1.255 1_556 S
C239 Eu234 2.852 . S
C239 C243 1.503 . S
C239 O256 1.273 . S
C239 O257 1.257 . S
C240 O238 1.255 1_554 S
C240 O241 1.247 . S
O241 C240 1.247 . S
C242 O254 1.242 . S
C242 O255 1.258 . S
C243 C239 1.503 . S
C243 C244 1.379 . S
C243 C248 1.392 . S
C244 C243 1.379 . S
C244 C245 1.404 . S
C244 H258 0.929 . S
C245 C244 1.404 . S
C245 C246 1.389 . S
C246 C245 1.389 . S
C246 C247 1.399 . S
C246 H259 0.931 . S
C247 C246 1.399 . S
C247 C248 1.390 . S
C248 C243 1.392 . S
C248 C247 1.390 . S
C248 H260 0.929 . S
O249 Tb233 2.326 . S
O249 C237 1.242 . S
O250 Eu234 2.324 . S
O250 C237 1.258 . S
O251 Tb233 2.500 . S
O251 C253 1.273 . S
O252 Tb233 2.473 . S
O252 C253 1.257 . S
C253 O251 1.273 . S
C253 O252 1.257 . S
O254 Eu234 2.326 . S
O254 C242 1.242 . S
O255 Tb233 2.324 . S
O255 C242 1.258 . S
O256 Eu234 2.500 . S
O256 C239 1.273 . S
O257 Eu234 2.473 . S
O257 C239 1.257 . S
H258 C244 0.929 . S
H259 C246 0.931 . S
H260 C248 0.929 . S
O261 Tb262 2.292 . S
O261 C264 1.255 . S
Tb262 O261 2.292 . S
Tb262 O278 2.326 . S
Tb262 O280 2.500 . S
Tb262 O281 2.473 . S
Tb262 O284 2.324 . S
Eu263 O267 2.292 . S
Eu263 C268 2.852 . S
Eu263 O279 2.324 . S
Eu263 O283 2.326 . S
Eu263 O285 2.500 . S
Eu263 O286 2.473 . S
C264 O261 1.255 . S
C264 O265 1.247 . S
O265 C264 1.247 . S
C266 O278 1.242 . S
C266 O279 1.258 . S
O267 Eu263 2.292 . S
O267 C269 1.255 . S
C268 Eu263 2.852 . S
C268 C272 1.503 . S
C268 O285 1.273 . S
C268 O286 1.257 . S
C269 O267 1.255 . S
C269 O270 1.247 . S
O270 C269 1.247 . S
C271 O283 1.242 . S
C271 O284 1.258 . S
C272 C268 1.503 . S
C272 C273 1.379 . S
C272 C277 1.392 . S
C273 C272 1.379 . S
C273 C274 1.404 . S
C273 H287 0.929 . S
C274 C273 1.404 . S
C274 C275 1.389 . S
C275 C274 1.389 . S
C275 C276 1.399 . S
C275 H288 0.931 . S
C276 C275 1.399 . S
C276 C277 1.390 . S
C277 C272 1.392 . S
C277 C276 1.390 . S
C277 H289 0.929 . S
O278 Tb262 2.326 . S
O278 C266 1.242 . S
O279 Eu263 2.324 . S
O279 C266 1.258 . S
O280 Tb262 2.500 . S
O280 C282 1.273 . S
O281 Tb262 2.473 . S
O281 C282 1.257 . S
C282 O280 1.273 . S
C282 O281 1.257 . S
O283 Eu263 2.326 . S
O283 C271 1.242 . S
O284 Tb262 2.324 . S
O284 C271 1.258 . S
O285 Eu263 2.500 . S
O285 C268 1.273 . S
O286 Eu263 2.473 . S
O286 C268 1.257 . S
H287 C273 0.929 . S
H288 C275 0.931 . S
H289 C277 0.929 . S
O290 Tb291 2.292 . S
O290 C293 1.255 . S
Tb291 O290 2.292 . S
Tb291 O307 2.326 . S
Tb291 O309 2.500 . S
Tb291 O310 2.473 . S
Tb291 O313 2.324 . S
Eu292 O296 2.292 . S
Eu292 C297 2.852 . S
Eu292 O308 2.324 . S
Eu292 O312 2.326 . S
Eu292 O314 2.500 . S
Eu292 O315 2.473 . S
C293 O290 1.255 . S
C293 O294 1.247 . S
O294 C293 1.247 . S
C295 O307 1.242 . S
C295 O308 1.258 . S
O296 Eu292 2.292 . S
O296 C298 1.255 . S
C297 Eu292 2.852 . S
C297 C301 1.503 . S
C297 O314 1.273 . S
C297 O315 1.257 . S
C298 O296 1.255 . S
C298 O299 1.247 . S
O299 C298 1.247 . S
C300 O312 1.242 . S
C300 O313 1.258 . S
C301 C297 1.503 . S
C301 C302 1.379 . S
C301 C306 1.392 . S
C302 C301 1.379 . S
C302 C303 1.404 . S
C302 H316 0.929 . S
C303 C302 1.404 . S
C303 C304 1.389 . S
C304 C303 1.389 . S
C304 C305 1.399 . S
C304 H317 0.931 . S
C305 C304 1.399 . S
C305 C306 1.390 . S
C306 C301 1.392 . S
C306 C305 1.390 . S
C306 H318 0.929 . S
O307 Tb291 2.326 . S
O307 C295 1.242 . S
O308 Eu292 2.324 . S
O308 C295 1.258 . S
O309 Tb291 2.500 . S
O309 C311 1.273 . S
O310 Tb291 2.473 . S
O310 C311 1.257 . S
C311 O309 1.273 . S
C311 O310 1.257 . S
O312 Eu292 2.326 . S
O312 C300 1.242 . S
O313 Tb291 2.324 . S
O313 C300 1.258 . S
O314 Eu292 2.500 . S
O314 C297 1.273 . S
O315 Eu292 2.473 . S
O315 C297 1.257 . S
H316 C302 0.929 . S
H317 C304 0.931 . S
H318 C306 0.929 . S
O319 Tb320 2.292 . S
O319 C322 1.255 1_554 S
Tb320 O319 2.292 . S
Tb320 O336 2.326 . S
Tb320 O338 2.500 . S
Tb320 O339 2.473 . S
Tb320 O342 2.324 . S
Eu321 O325 2.292 . S
Eu321 C326 2.852 . S
Eu321 O337 2.324 . S
Eu321 O341 2.326 . S
Eu321 O343 2.500 . S
Eu321 O344 2.473 . S
C322 O319 1.255 1_556 S
C322 O323 1.247 . S
O323 C322 1.247 . S
C324 O336 1.242 . S
C324 O337 1.258 . S
O325 Eu321 2.292 . S
O325 C327 1.255 . S
C326 Eu321 2.852 . S
C326 C330 1.503 . S
C326 O343 1.273 . S
C326 O344 1.257 . S
C327 O325 1.255 . S
C327 O328 1.247 . S
O328 C327 1.247 . S
C329 O341 1.242 . S
C329 O342 1.258 . S
C330 C326 1.503 . S
C330 C331 1.379 . S
C330 C335 1.392 . S
C331 C330 1.379 . S
C331 C332 1.404 . S
C331 H345 0.929 . S
C332 C331 1.404 . S
C332 C333 1.389 . S
C333 C332 1.389 . S
C333 C334 1.399 . S
C333 H346 0.931 . S
C334 C333 1.399 . S
C334 C335 1.390 . S
C335 C330 1.392 . S
C335 C334 1.390 . S
C335 H347 0.929 . S
O336 Tb320 2.326 . S
O336 C324 1.242 . S
O337 Eu321 2.324 . S
O337 C324 1.258 . S
O338 Tb320 2.500 . S
O338 C340 1.273 . S
O339 Tb320 2.473 . S
O339 C340 1.257 . S
C340 O338 1.273 . S
C340 O339 1.257 . S
O341 Eu321 2.326 . S
O341 C329 1.242 . S
O342 Tb320 2.324 . S
O342 C329 1.258 . S
O343 Eu321 2.500 . S
O343 C326 1.273 . S
O344 Eu321 2.473 . S
O344 C326 1.257 . S
H345 C331 0.929 . S
H346 C333 0.931 . S
H347 C335 0.929 . S
O348 Tb349 2.292 . S
O348 C351 1.255 . S
Tb349 O348 2.292 . S
Tb349 O365 2.326 . S
Tb349 O367 2.500 . S
Tb349 O368 2.473 . S
Tb349 O371 2.324 . S
Eu350 O354 2.292 . S
Eu350 C355 2.852 . S
Eu350 O366 2.324 . S
Eu350 O370 2.326 . S
Eu350 O372 2.500 . S
Eu350 O373 2.473 . S
C351 O348 1.255 . S
C351 O352 1.247 . S
O352 C351 1.247 . S
C353 O365 1.242 . S
C353 O366 1.258 . S
O354 Eu350 2.292 . S
O354 C356 1.255 . S
C355 Eu350 2.852 . S
C355 C359 1.503 . S
C355 O372 1.273 . S
C355 O373 1.257 . S
C356 O354 1.255 . S
C356 O357 1.247 . S
O357 C356 1.247 . S
C358 O370 1.242 . S
C358 O371 1.258 . S
C359 C355 1.503 . S
C359 C360 1.379 . S
C359 C364 1.392 . S
C360 C359 1.379 . S
C360 C361 1.404 . S
C360 H374 0.929 . S
C361 C360 1.404 . S
C361 C362 1.389 . S
C362 C361 1.389 . S
C362 C363 1.399 . S
C362 H375 0.931 . S
C363 C362 1.399 . S
C363 C364 1.390 . S
C364 C359 1.392 . S
C364 C363 1.390 . S
C364 H376 0.929 . S
O365 Tb349 2.326 . S
O365 C353 1.242 . S
O366 Eu350 2.324 . S
O366 C353 1.258 . S
O367 Tb349 2.500 . S
O367 C369 1.273 . S
O368 Tb349 2.473 . S
O368 C369 1.257 . S
C369 O367 1.273 . S
C369 O368 1.257 . S
O370 Eu350 2.326 . S
O370 C358 1.242 . S
O371 Tb349 2.324 . S
O371 C358 1.258 . S
O372 Eu350 2.500 . S
O372 C355 1.273 . S
O373 Eu350 2.473 . S
O373 C355 1.257 . S
H374 C360 0.929 . S
H375 C362 0.931 . S
H376 C364 0.929 . S
O377 Tb378 2.292 . S
O377 C380 1.255 . S
Tb378 O377 2.292 . S
Tb378 O394 2.326 . S
Tb378 O396 2.500 . S
Tb378 O397 2.473 . S
Tb378 O400 2.324 . S
Eu379 O383 2.292 . S
Eu379 C384 2.852 . S
Eu379 O395 2.324 . S
Eu379 O399 2.326 . S
Eu379 O401 2.500 . S
Eu379 O402 2.473 . S
C380 O377 1.255 . S
C380 O381 1.247 . S
O381 C380 1.247 . S
C382 O394 1.242 . S
C382 O395 1.258 . S
O383 Eu379 2.292 . S
O383 C385 1.255 . S
C384 Eu379 2.852 . S
C384 C388 1.503 . S
C384 O401 1.273 . S
C384 O402 1.257 . S
C385 O383 1.255 . S
C385 O386 1.247 . S
O386 C385 1.247 . S
C387 O399 1.242 . S
C387 O400 1.258 . S
C388 C384 1.503 . S
C388 C389 1.379 . S
C388 C393 1.392 . S
C389 C388 1.379 . S
C389 C390 1.404 . S
C389 H403 0.929 . S
C390 C389 1.404 . S
C390 C391 1.389 . S
C391 C390 1.389 . S
C391 C392 1.399 . S
C391 H404 0.931 . S
C392 C391 1.399 . S
C392 C393 1.390 . S
C393 C388 1.392 . S
C393 C392 1.390 . S
C393 H405 0.929 . S
O394 Tb378 2.326 . S
O394 C382 1.242 . S
O395 Eu379 2.324 . S
O395 C382 1.258 . S
O396 Tb378 2.500 . S
O396 C398 1.273 . S
O397 Tb378 2.473 . S
O397 C398 1.257 . S
C398 O396 1.273 . S
C398 O397 1.257 . S
O399 Eu379 2.326 . S
O399 C387 1.242 . S
O400 Tb378 2.324 . S
O400 C387 1.258 . S
O401 Eu379 2.500 . S
O401 C384 1.273 . S
O402 Eu379 2.473 . S
O402 C384 1.257 . S
H403 C389 0.929 . S
H404 C391 0.931 . S
H405 C393 0.929 . S
O406 Tb407 2.292 . S
O406 C409 1.255 . S
Tb407 O406 2.292 . S
Tb407 O423 2.326 . S
Tb407 O425 2.500 . S
Tb407 O426 2.473 . S
Tb407 O429 2.324 . S
Eu408 O412 2.292 . S
Eu408 C413 2.852 . S
Eu408 O424 2.324 . S
Eu408 O428 2.326 . S
Eu408 O430 2.500 . S
Eu408 O431 2.473 . S
C409 O406 1.255 . S
C409 O410 1.247 . S
O410 C409 1.247 . S
C411 O423 1.242 . S
C411 O424 1.258 . S
O412 Eu408 2.292 . S
O412 C414 1.255 1_554 S
C413 Eu408 2.852 . S
C413 C417 1.503 . S
C413 O430 1.273 . S
C413 O431 1.257 . S
C414 O412 1.255 1_556 S
C414 O415 1.247 . S
O415 C414 1.247 . S
C416 O428 1.242 . S
C416 O429 1.258 . S
C417 C413 1.503 . S
C417 C418 1.379 . S
C417 C422 1.392 . S
C418 C417 1.379 . S
C418 C419 1.404 . S
C418 H432 0.929 . S
C419 C418 1.404 . S
C419 C420 1.389 . S
C420 C419 1.389 . S
C420 C421 1.399 . S
C420 H433 0.931 . S
C421 C420 1.399 . S
C421 C422 1.390 . S
C422 C417 1.392 . S
C422 C421 1.390 . S
C422 H434 0.929 . S
O423 Tb407 2.326 . S
O423 C411 1.242 . S
O424 Eu408 2.324 . S
O424 C411 1.258 . S
O425 Tb407 2.500 . S
O425 C427 1.273 . S
O426 Tb407 2.473 . S
O426 C427 1.257 . S
C427 O425 1.273 . S
C427 O426 1.257 . S
O428 Eu408 2.326 . S
O428 C416 1.242 . S
O429 Tb407 2.324 . S
O429 C416 1.258 . S
O430 Eu408 2.500 . S
O430 C413 1.273 . S
O431 Eu408 2.473 . S
O431 C413 1.257 . S
H432 C418 0.929 . S
H433 C420 0.931 . S
H434 C422 0.929 . S
O435 Tb436 2.292 1_554 S
O435 C438 1.255 . S
Tb436 O435 2.292 1_556 S
Tb436 O452 2.326 . S
Tb436 O454 2.500 . S
Tb436 O455 2.473 . S
Tb436 O458 2.324 . S
Eu437 O441 2.292 . S
Eu437 C442 2.852 . S
Eu437 O453 2.324 . S
Eu437 O457 2.326 . S
Eu437 O459 2.500 . S
Eu437 O460 2.473 . S
C438 O435 1.255 . S
C438 O439 1.247 . S
O439 C438 1.247 . S
C440 O452 1.242 . S
C440 O453 1.258 . S
O441 Eu437 2.292 . S
O441 C443 1.255 . S
C442 Eu437 2.852 . S
C442 C446 1.503 . S
C442 O459 1.273 . S
C442 O460 1.257 . S
C443 O441 1.255 . S
C443 O444 1.247 . S
O444 C443 1.247 . S
C445 O457 1.242 . S
C445 O458 1.258 . S
C446 C442 1.503 . S
C446 C447 1.379 . S
C446 C451 1.392 . S
C447 C446 1.379 . S
C447 C448 1.404 . S
C447 H461 0.929 . S
C448 C447 1.404 . S
C448 C449 1.389 . S
C449 C448 1.389 . S
C449 C450 1.399 . S
C449 H462 0.931 . S
C450 C449 1.399 . S
C450 C451 1.390 . S
C451 C446 1.392 . S
C451 C450 1.390 . S
C451 H463 0.929 . S
O452 Tb436 2.326 . S
O452 C440 1.242 . S
O453 Eu437 2.324 . S
O453 C440 1.258 . S
O454 Tb436 2.500 . S
O454 C456 1.273 . S
O455 Tb436 2.473 . S
O455 C456 1.257 . S
C456 O454 1.273 . S
C456 O455 1.257 . S
O457 Eu437 2.326 . S
O457 C445 1.242 . S
O458 Tb436 2.324 . S
O458 C445 1.258 . S
O459 Eu437 2.500 . S
O459 C442 1.273 . S
O460 Eu437 2.473 . S
O460 C442 1.257 . S
H461 C447 0.929 . S
H462 C449 0.931 . S
H463 C451 0.929 . S
H464 C470 0.930 . S
H465 C474 0.930 . S
H466 C479 0.929 . S
H467 C477 0.929 . S
H468 C472 0.929 . S
H469 C478 0.929 . S
C470 H464 0.930 . S
C470 C471 1.367 . S
C470 C478 1.378 . S
C471 C470 1.367 . S
C471 C479 1.433 . S
C472 H468 0.929 . S
C472 C474 1.378 . S
C472 C476 1.350 . S
C473 C476 1.463 1_655 S
C473 C478 1.350 . S
C473 N481 1.427 . S
C474 H465 0.930 . S
C474 C472 1.378 . S
C474 C475 1.367 . S
C475 C474 1.367 . S
C475 C477 1.433 . S
C476 C472 1.350 . S
C476 C473 1.463 1_455 S
C476 N480 1.427 . S
C477 H467 0.929 . S
C477 C475 1.433 . S
C477 N480 1.384 . S
C478 H469 0.929 . S
C478 C470 1.378 . S
C478 C473 1.350 . S
C479 H466 0.929 . S
C479 C471 1.433 . S
C479 N481 1.384 . S
N480 C476 1.427 . S
N480 C477 1.384 . S
N481 C473 1.427 . S
N481 C479 1.384 . S
H482 C488 0.930 . S
H483 C492 0.930 . S
H484 C497 0.929 . S
H485 C495 0.929 . S
H486 C490 0.929 . S
H487 C496 0.929 . S
C488 H482 0.930 . S
C488 C489 1.367 . S
C488 C496 1.378 . S
C489 C488 1.367 . S
C489 C497 1.433 . S
C490 H486 0.929 . S
C490 C492 1.378 . S
C490 C494 1.350 . S
C491 C494 1.477 . S
C491 C496 1.335 1_655 S
C491 N499 1.429 . S
C492 H483 0.930 . S
C492 C490 1.378 . S
C492 C493 1.367 . S
C493 C492 1.367 . S
C493 C495 1.433 . S
C494 C490 1.350 . S
C494 C491 1.477 . S
C494 N498 1.427 . S
C495 H485 0.929 . S
C495 C493 1.433 . S
C495 N498 1.384 . S
C496 H487 0.929 . S
C496 C488 1.378 . S
C496 C491 1.335 1_455 S
C497 H484 0.929 . S
C497 C489 1.433 . S
C497 N499 1.384 1_455 S
N498 C494 1.427 . S
N498 C495 1.384 . S
N499 C491 1.429 . S
N499 C497 1.384 1_655 S
H500 C506 0.930 . S
H501 C510 0.930 . S
H502 C515 0.929 . S
H503 C513 0.929 . S
H504 C508 0.929 . S
H505 C514 0.929 . S
C506 H500 0.930 . S
C506 C507 1.367 . S
C506 C514 1.378 . S
C507 C506 1.367 . S
C507 C515 1.433 . S
C508 H504 0.929 . S
C508 C510 1.378 . S
C508 C512 1.350 . S
C509 C512 1.463 . S
C509 C514 1.350 . S
C509 N517 1.427 . S
C510 H501 0.930 . S
C510 C508 1.378 . S
C510 C511 1.367 . S
C511 C510 1.367 . S
C511 C513 1.433 . S
C512 C508 1.350 . S
C512 C509 1.463 . S
C512 N516 1.427 . S
C513 H503 0.929 . S
C513 C511 1.433 . S
C513 N516 1.384 . S
C514 H505 0.929 . S
C514 C506 1.378 . S
C514 C509 1.350 . S
C515 H502 0.929 . S
C515 C507 1.433 . S
C515 N517 1.384 . S
N516 C512 1.427 . S
N516 C513 1.384 . S
N517 C509 1.427 . S
N517 C515 1.384 . S
H518 C524 0.930 . S
H519 C528 0.930 . S
H520 C533 0.942 . S
H521 C531 0.929 . S
H522 C526 0.929 . S
H523 C532 0.929 . S
C524 H518 0.930 . S
C524 C525 1.367 . S
C524 C532 1.378 . S
C525 C524 1.367 . S
C525 C533 1.433 . S
C526 H522 0.929 . S
C526 C528 1.378 . S
C526 C530 1.350 . S
C527 C530 1.463 . S
C527 C532 1.350 . S
C527 N535 1.427 . S
C528 H519 0.930 . S
C528 C526 1.378 . S
C528 C529 1.367 . S
C529 C528 1.367 . S
C529 C531 1.433 . S
C530 C526 1.350 . S
C530 C527 1.463 . S
C530 N534 1.427 . S
C531 H521 0.929 . S
C531 C529 1.433 . S
C531 N534 1.384 . S
C532 H523 0.929 . S
C532 C524 1.378 . S
C532 C527 1.350 . S
C533 H520 0.942 . S
C533 C525 1.433 . S
C533 N535 1.384 . S
N534 C530 1.427 . S
N534 C531 1.384 . S
N535 C527 1.427 . S
N535 C533 1.384 . S
H536 C542 0.930 . S
H537 C546 0.930 . S
H538 C551 0.929 . S
H539 C549 0.929 . S
H540 C544 0.929 . S
H541 C550 0.929 . S
C542 H536 0.930 . S
C542 C543 1.367 . S
C542 C550 1.378 . S
C543 C542 1.367 . S
C543 C551 1.433 . S
C544 H540 0.929 . S
C544 C546 1.378 . S
C544 C548 1.350 . S
C545 C548 1.488 . S
C545 C550 1.324 1_455 S
C545 N553 1.431 . S
C546 H537 0.930 . S
C546 C544 1.378 . S
C546 C547 1.367 . S
C547 C546 1.367 . S
C547 C549 1.433 . S
C548 C544 1.350 . S
C548 C545 1.488 . S
C548 N552 1.427 . S
C549 H539 0.929 . S
C549 C547 1.433 . S
C549 N552 1.384 . S
C550 H541 0.929 . S
C550 C542 1.378 . S
C550 C545 1.324 1_655 S
C551 H538 0.929 . S
C551 C543 1.433 . S
C551 N553 1.384 1_655 S
N552 C548 1.427 . S
N552 C549 1.384 . S
N553 C545 1.431 . S
N553 C551 1.384 1_455 S
H554 C560 0.930 . S
H555 C564 0.930 . S
H556 C569 0.929 . S
H557 C567 0.929 . S
H558 C562 0.929 . S
H559 C568 0.929 . S
C560 H554 0.930 . S
C560 C561 1.367 . S
C560 C568 1.378 . S
C561 C560 1.367 . S
C561 C569 1.433 . S
C562 H558 0.929 . S
C562 C564 1.378 . S
C562 C566 1.350 . S
C563 C566 1.463 1_455 S
C563 C568 1.350 . S
C563 N571 1.427 . S
C564 H555 0.930 . S
C564 C562 1.378 . S
C564 C565 1.367 . S
C565 C564 1.367 . S
C565 C567 1.433 . S
C566 C562 1.350 . S
C566 C563 1.463 1_655 S
C566 N570 1.427 . S
C567 H557 0.929 . S
C567 C565 1.433 . S
C567 N570 1.384 . S
C568 H559 0.929 . S
C568 C560 1.378 . S
C568 C563 1.350 . S
C569 H556 0.929 . S
C569 C561 1.433 . S
C569 N571 1.384 . S
N570 C566 1.427 . S
N570 C567 1.384 . S
N571 C563 1.427 . S
N571 C569 1.384 . S
H572 C578 0.930 . S
H573 C582 0.930 . S
H574 C587 0.929 . S
H575 C585 0.929 . S
H576 C580 0.929 . S
H577 C586 0.929 . S
C578 H572 0.930 . S
C578 C579 1.367 . S
C578 C586 1.378 . S
C579 C578 1.367 . S
C579 C587 1.433 . S
C580 H576 0.929 . S
C580 C582 1.378 . S
C580 C584 1.350 . S
C581 C584 1.463 . S
C581 C586 1.350 . S
C581 N589 1.427 . S
C582 H573 0.930 . S
C582 C580 1.378 . S
C582 C583 1.367 . S
C583 C582 1.367 . S
C583 C585 1.433 . S
C584 C580 1.350 . S
C584 C581 1.463 . S
C584 N588 1.427 . S
C585 H575 0.929 . S
C585 C583 1.433 . S
C585 N588 1.384 . S
C586 H577 0.929 . S
C586 C578 1.378 . S
C586 C581 1.350 . S
C587 H574 0.929 . S
C587 C579 1.433 . S
C587 N589 1.384 . S
N588 C584 1.427 . S
N588 C585 1.384 . S
N589 C581 1.427 . S
N589 C587 1.384 . S
H590 C596 0.930 . S
H591 C600 0.930 . S
H592 C605 0.929 . S
H593 C603 0.929 . S
H594 C598 0.929 . S
H595 C604 0.929 . S
C596 H590 0.930 . S
C596 C597 1.367 . S
C596 C604 1.378 . S
C597 C596 1.367 . S
C597 C605 1.433 . S
C598 H594 0.929 . S
C598 C600 1.378 . S
C598 C602 1.350 . S
C599 C602 1.463 . S
C599 C604 1.350 . S
C599 N607 1.427 . S
C600 H591 0.930 . S
C600 C598 1.378 . S
C600 C601 1.367 . S
C601 C600 1.367 . S
C601 C603 1.433 . S
C602 C598 1.350 . S
C602 C599 1.463 . S
C602 N606 1.427 . S
C603 H593 0.929 . S
C603 C601 1.433 . S
C603 N606 1.384 . S
C604 H595 0.929 . S
C604 C596 1.378 . S
C604 C599 1.350 . S
C605 H592 0.929 . S
C605 C597 1.433 . S
C605 N607 1.384 . S
N606 C602 1.427 . S
N606 C603 1.384 . S
N607 C599 1.427 . S
N607 C605 1.384 . S
H608 C614 0.930 1_554 S
H609 C618 0.930 . S
H610 C623 0.929 . S
H611 C621 0.929 . S
H612 C616 0.929 . S
H613 C622 0.929 . S
C614 H608 0.930 1_556 S
C614 C615 1.367 . S
C614 C622 1.378 1_556 S
C615 C614 1.367 . S
C615 C623 1.433 . S
C616 H612 0.929 . S
C616 C618 1.378 . S
C616 C620 1.350 . S
C617 C620 1.463 . S
C617 C622 1.350 1_556 S
C617 N625 1.427 . S
C618 H609 0.930 . S
C618 C616 1.378 . S
C618 C619 1.367 1_556 S
C619 C618 1.367 1_554 S
C619 C621 1.433 . S
C620 C616 1.350 . S
C620 C617 1.463 . S
C620 N624 1.427 1_556 S
C621 H611 0.929 . S
C621 C619 1.433 . S
C621 N624 1.384 . S
C622 H613 0.929 . S
C622 C614 1.378 1_554 S
C622 C617 1.350 1_554 S
C623 H610 0.929 . S
C623 C615 1.433 . S
C623 N625 1.384 . S
N624 C620 1.427 1_554 S
N624 C621 1.384 . S
N625 C617 1.427 . S
N625 C623 1.384 . S
H626 C632 0.930 . S
H627 C636 0.930 . S
H628 C641 0.929 . S
H629 C639 0.929 . S
H630 C634 0.929 . S
H631 C640 0.929 1_545 S
C632 H626 0.930 . S
C632 C633 1.367 . S
C632 C640 1.378 . S
C633 C632 1.367 . S
C633 C641 1.433 . S
C634 H630 0.929 . S
C634 C636 1.378 . S
C634 C638 1.350 . S
C635 C638 1.463 1_565 S
C635 C640 1.350 . S
C635 N643 1.427 . S
C636 H627 0.930 . S
C636 C634 1.378 . S
C636 C637 1.367 . S
C637 C636 1.367 . S
C637 C639 1.433 . S
C638 C634 1.350 . S
C638 C635 1.463 1_545 S
C638 N642 1.427 . S
C639 H629 0.929 . S
C639 C637 1.433 . S
C639 N642 1.384 . S
C640 H631 0.929 1_565 S
C640 C632 1.378 . S
C640 C635 1.350 . S
C641 H628 0.929 . S
C641 C633 1.433 . S
C641 N643 1.384 . S
N642 C638 1.427 . S
N642 C639 1.384 . S
N643 C635 1.427 . S
N643 C641 1.384 . S
H644 C650 0.930 . S
H645 C654 0.930 . S
H646 C659 0.929 . S
H647 C657 0.929 . S
H648 C652 0.929 . S
H649 C658 0.929 . S
C650 H644 0.930 . S
C650 C651 1.367 . S
C650 C658 1.378 . S
C651 C650 1.367 . S
C651 C659 1.433 . S
C652 H648 0.929 . S
C652 C654 1.378 . S
C652 C656 1.350 . S
C653 C656 1.463 . S
C653 C658 1.350 . S
C653 N661 1.427 . S
C654 H645 0.930 . S
C654 C652 1.378 . S
C654 C655 1.367 . S
C655 C654 1.367 . S
C655 C657 1.433 . S
C656 C652 1.350 . S
C656 C653 1.463 . S
C656 N660 1.427 . S
C657 H647 0.929 . S
C657 C655 1.433 . S
C657 N660 1.384 . S
C658 H649 0.929 . S
C658 C650 1.378 . S
C658 C653 1.350 . S
C659 H646 0.929 . S
C659 C651 1.433 . S
C659 N661 1.384 . S
N660 C656 1.427 . S
N660 C657 1.384 . S
N661 C653 1.427 . S
N661 C659 1.384 . S
H662 C668 0.930 . S
H663 C672 0.930 . S
H664 C677 0.929 . S
H665 C675 0.929 . S
H666 C670 0.929 . S
H667 C676 0.949 . S
C668 H662 0.930 . S
C668 C669 1.367 . S
C668 C676 1.378 . S
C669 C668 1.367 . S
C669 C677 1.433 . S
C670 H666 0.929 . S
C670 C672 1.378 . S
C670 C674 1.350 . S
C671 C674 1.463 1_565 S
C671 C676 1.350 . S
C671 N679 1.427 . S
C672 H663 0.930 . S
C672 C670 1.378 . S
C672 C673 1.367 . S
C673 C672 1.367 . S
C673 C675 1.433 . S
C674 C670 1.350 . S
C674 C671 1.463 1_545 S
C674 N678 1.427 . S
C675 H665 0.929 . S
C675 C673 1.433 . S
C675 N678 1.384 . S
C676 H667 0.949 . S
C676 C668 1.378 . S
C676 C671 1.350 . S
C677 H664 0.929 . S
C677 C669 1.433 . S
C677 N679 1.384 . S
N678 C674 1.427 . S
N678 C675 1.384 . S
N679 C671 1.427 . S
N679 C677 1.384 . S
H680 C686 0.930 . S
H681 C690 0.930 . S
H682 C695 0.929 . S
H683 C693 0.929 . S
H684 C688 0.929 . S
H685 C694 0.929 . S
C686 H680 0.930 . S
C686 C687 1.367 . S
C686 C694 1.378 . S
C687 C686 1.367 . S
C687 C695 1.433 1_556 S
C688 H684 0.929 . S
C688 C690 1.378 . S
C688 C692 1.350 1_554 S
C689 C692 1.463 . S
C689 C694 1.350 . S
C689 N697 1.427 1_556 S
C690 H681 0.930 . S
C690 C688 1.378 . S
C690 C691 1.367 . S
C691 C690 1.367 . S
C691 C693 1.433 1_554 S
C692 C688 1.350 1_556 S
C692 C689 1.463 . S
C692 N696 1.427 . S
C693 H683 0.929 . S
C693 C691 1.433 1_556 S
C693 N696 1.384 . S
C694 H685 0.929 . S
C694 C686 1.378 . S
C694 C689 1.350 . S
C695 H682 0.929 . S
C695 C687 1.433 1_554 S
C695 N697 1.384 . S
N696 C692 1.427 . S
N696 C693 1.384 . S
N697 C689 1.427 1_554 S
N697 C695 1.384 . S
H698 C704 0.930 . S
H699 C708 0.930 . S
H700 C713 0.929 . S
H701 C711 0.929 . S
H702 C706 0.929 . S
H703 C712 0.929 . S
C704 H698 0.930 . S
C704 C705 1.367 . S
C704 C712 1.378 . S
C705 C704 1.367 . S
C705 C713 1.433 . S
C706 H702 0.929 . S
C706 C708 1.378 . S
C706 C710 1.350 . S
C707 C710 1.463 1_565 S
C707 C712 1.350 . S
C707 N715 1.427 . S
C708 H699 0.930 . S
C708 C706 1.378 . S
C708 C709 1.367 . S
C709 C708 1.367 . S
C709 C711 1.433 . S
C710 C706 1.350 . S
C710 C707 1.463 1_545 S
C710 N714 1.427 . S
C711 H701 0.929 . S
C711 C709 1.433 . S
C711 N714 1.384 . S
C712 H703 0.929 . S
C712 C704 1.378 . S
C712 C707 1.350 . S
C713 H700 0.929 . S
C713 C705 1.433 . S
C713 N715 1.384 . S
N714 C710 1.427 . S
N714 C711 1.384 . S
N715 C707 1.427 . S
N715 C713 1.384 . S
H716 C722 0.930 . S
H717 C726 0.930 . S
H718 C731 0.929 . S
H719 C729 0.929 . S
H720 C724 0.929 . S
H721 C730 0.929 . S
C722 H716 0.930 . S
C722 C723 1.367 . S
C722 C730 1.378 . S
C723 C722 1.367 . S
C723 C731 1.433 . S
C724 H720 0.929 . S
C724 C726 1.378 . S
C724 C728 1.350 . S
C725 C728 1.463 . S
C725 C730 1.350 . S
C725 N733 1.427 . S
C726 H717 0.930 . S
C726 C724 1.378 . S
C726 C727 1.367 . S
C727 C726 1.367 . S
C727 C729 1.433 . S
C728 C724 1.350 . S
C728 C725 1.463 . S
C728 N732 1.427 . S
C729 H719 0.929 . S
C729 C727 1.433 . S
C729 N732 1.384 . S
C730 H721 0.929 . S
C730 C722 1.378 . S
C730 C725 1.350 . S
C731 H718 0.929 . S
C731 C723 1.433 . S
C731 N733 1.384 . S
N732 C728 1.427 . S
N732 C729 1.384 . S
N733 C725 1.427 . S
N733 C731 1.384 . S
H734 C740 0.930 . S
H735 C744 0.930 . S
H736 C749 0.929 . S
H737 C747 0.929 . S
H738 C742 0.929 . S
H739 C748 0.929 . S
C740 H734 0.930 . S
C740 C741 1.367 . S
C740 C748 1.378 . S
C741 C740 1.367 . S
C741 C749 1.433 . S
C742 H738 0.929 . S
C742 C744 1.378 . S
C742 C746 1.350 . S
C743 C746 1.463 1_565 S
C743 C748 1.350 . S
C743 N751 1.427 . S
C744 H735 0.930 . S
C744 C742 1.378 . S
C744 C745 1.367 . S
C745 C744 1.367 . S
C745 C747 1.433 . S
C746 C742 1.350 . S
C746 C743 1.463 1_545 S
C746 N750 1.427 . S
C747 H737 0.929 . S
C747 C745 1.433 . S
C747 N750 1.384 . S
C748 H739 0.929 . S
C748 C740 1.378 . S
C748 C743 1.350 . S
C749 H736 0.929 . S
C749 C741 1.433 . S
C749 N751 1.384 . S
N750 C746 1.427 . S
N750 C747 1.384 . S
N751 C743 1.427 . S
N751 C749 1.384 . S
H752 C758 0.930 . S
H753 C762 0.930 . S
H754 C767 0.929 . S
H755 C765 0.929 . S
H756 C760 0.929 . S
H757 C766 0.929 . S
C758 H752 0.930 . S
C758 C759 1.367 . S
C758 C766 1.378 . S
C759 C758 1.367 . S
C759 C767 1.433 . S
C760 H756 0.929 . S
C760 C762 1.378 . S
C760 C764 1.350 . S
C761 C764 1.463 . S
C761 C766 1.350 . S
C761 N769 1.427 . S
C762 H753 0.930 . S
C762 C760 1.378 . S
C762 C763 1.367 . S
C763 C762 1.367 . S
C763 C765 1.433 . S
C764 C760 1.350 . S
C764 C761 1.463 . S
C764 N768 1.427 . S
C765 H755 0.929 . S
C765 C763 1.433 . S
C765 N768 1.384 . S
C766 H757 0.929 . S
C766 C758 1.378 . S
C766 C761 1.350 . S
C767 H754 0.929 . S
C767 C759 1.433 . S
C767 N769 1.384 . S
N768 C764 1.427 . S
N768 C765 1.384 . S
N769 C761 1.427 . S
N769 C767 1.384 . S
H770 C776 0.930 . S
H771 C780 0.930 . S
H772 C785 0.929 . S
H773 C783 0.929 . S
H774 C778 0.929 . S
H775 C784 0.929 . S
C776 H770 0.930 . S
C776 C777 1.367 . S
C776 C784 1.378 . S
C777 C776 1.367 . S
C777 C785 1.433 . S
C778 H774 0.929 . S
C778 C780 1.378 . S
C778 C782 1.350 . S
C779 C782 1.463 . S
C779 C784 1.350 . S
C779 N787 1.427 . S
C780 H771 0.930 . S
C780 C778 1.378 . S
C780 C781 1.367 . S
C781 C780 1.367 . S
C781 C783 1.433 . S
C782 C778 1.350 . S
C782 C779 1.463 . S
C782 N786 1.427 . S
C783 H773 0.929 . S
C783 C781 1.433 . S
C783 N786 1.384 . S
C784 H775 0.929 . S
C784 C776 1.378 . S
C784 C779 1.350 . S
C785 H772 0.929 . S
C785 C777 1.433 . S
C785 N787 1.384 . S
N786 C782 1.427 . S
N786 C783 1.384 . S
N787 C779 1.427 . S
N787 C785 1.384 . S
H788 C794 0.930 . S
H789 C798 0.930 . S
H790 C803 0.929 . S
H791 C801 0.929 1_556 S
H792 C796 0.929 . S
H793 C802 0.929 . S
C794 H788 0.930 . S
C794 C795 1.367 . S
C794 C802 1.378 . S
C795 C794 1.367 . S
C795 C803 1.433 1_556 S
C796 H792 0.929 . S
C796 C798 1.378 . S
C796 C800 1.350 . S
C797 C800 1.463 . S
C797 C802 1.350 1_554 S
C797 N805 1.427 . S
C798 H789 0.930 . S
C798 C796 1.378 . S
C798 C799 1.367 . S
C799 C798 1.367 . S
C799 C801 1.433 . S
C800 C796 1.350 . S
C800 C797 1.463 . S
C800 N804 1.427 1_554 S
C801 H791 0.929 1_554 S
C801 C799 1.433 . S
C801 N804 1.384 1_554 S
C802 H793 0.929 . S
C802 C794 1.378 . S
C802 C797 1.350 1_556 S
C803 H790 0.929 . S
C803 C795 1.433 1_554 S
C803 N805 1.384 . S
N804 C800 1.427 1_556 S
N804 C801 1.384 1_556 S
N805 C797 1.427 . S
N805 C803 1.384 . S
H806 C812 0.930 . S
H807 C816 0.930 . S
H808 C821 0.929 . S
H809 C819 0.929 . S
H810 C814 0.929 . S
H811 C820 0.929 . S
C812 H806 0.930 . S
C812 C813 1.367 . S
C812 C820 1.378 . S
C813 C812 1.367 . S
C813 C821 1.433 . S
C814 H810 0.929 . S
C814 C816 1.378 . S
C814 C818 1.350 . S
C815 C818 1.463 . S
C815 C820 1.350 . S
C815 N823 1.427 . S
C816 H807 0.930 . S
C816 C814 1.378 . S
C816 C817 1.367 . S
C817 C816 1.367 . S
C817 C819 1.433 . S
C818 C814 1.350 . S
C818 C815 1.463 . S
C818 N822 1.427 . S
C819 H809 0.929 . S
C819 C817 1.433 . S
C819 N822 1.384 . S
C820 H811 0.929 . S
C820 C812 1.378 . S
C820 C815 1.350 . S
C821 H808 0.929 . S
C821 C813 1.433 . S
C821 N823 1.384 . S
N822 C818 1.427 . S
N822 C819 1.384 . S
N823 C815 1.427 . S
N823 C821 1.384 . S
H824 C830 0.930 . S
H825 C834 0.930 . S
H826 C839 0.929 . S
H827 C837 0.929 . S
H828 C832 0.929 . S
H829 C838 0.929 . S
C830 H824 0.930 . S
C830 C831 1.367 . S
C830 C838 1.378 . S
C831 C830 1.367 . S
C831 C839 1.433 . S
C832 H828 0.929 . S
C832 C834 1.378 . S
C832 C836 1.350 . S
C833 C836 1.463 . S
C833 C838 1.350 . S
C833 N841 1.427 . S
C834 H825 0.930 . S
C834 C832 1.378 . S
C834 C835 1.367 . S
C835 C834 1.367 . S
C835 C837 1.433 . S
C836 C832 1.350 . S
C836 C833 1.463 . S
C836 N840 1.427 . S
C837 H827 0.929 . S
C837 C835 1.433 . S
C837 N840 1.384 . S
C838 H829 0.929 . S
C838 C830 1.378 . S
C838 C833 1.350 . S
C839 H826 0.929 . S
C839 C831 1.433 . S
C839 N841 1.384 . S
N840 C836 1.427 . S
N840 C837 1.384 . S
N841 C833 1.427 . S
N841 C839 1.384 . S
H842 C848 0.930 . S
H843 C852 0.930 . S
H844 C857 0.929 . S
H845 C855 0.929 . S
H846 C850 0.929 . S
H847 C856 0.929 . S
C848 H842 0.930 . S
C848 C849 1.367 . S
C848 C856 1.378 . S
C849 C848 1.367 . S
C849 C857 1.433 . S
C850 H846 0.929 . S
C850 C852 1.378 . S
C850 C854 1.350 . S
C851 C854 1.463 . S
C851 C856 1.350 . S
C851 N859 1.427 . S
C852 H843 0.930 . S
C852 C850 1.378 . S
C852 C853 1.367 . S
C853 C852 1.367 . S
C853 C855 1.433 . S
C854 C850 1.350 . S
C854 C851 1.463 . S
C854 N858 1.427 . S
C855 H845 0.929 . S
C855 C853 1.433 . S
C855 N858 1.384 . S
C856 H847 0.929 . S
C856 C848 1.378 . S
C856 C851 1.350 . S
C857 H844 0.929 . S
C857 C849 1.433 . S
C857 N859 1.384 . S
N858 C854 1.427 . S
N858 C855 1.384 . S
N859 C851 1.427 . S
N859 C857 1.384 . S
H860 C866 0.930 . S
H861 C870 0.930 . S
H862 C875 0.929 . S
H863 C873 0.929 . S
H864 C868 0.929 . S
H865 C874 0.929 . S
C866 H860 0.930 . S
C866 C867 1.367 . S
C866 C874 1.378 . S
C867 C866 1.367 . S
C867 C875 1.433 1_556 S
C868 H864 0.929 . S
C868 C870 1.378 . S
C868 C872 1.350 . S
C869 C872 1.463 . S
C869 C874 1.350 1_554 S
C869 N877 1.427 . S
C870 H861 0.930 . S
C870 C868 1.378 . S
C870 C871 1.367 . S
C871 C870 1.367 . S
C871 C873 1.433 . S
C872 C868 1.350 . S
C872 C869 1.463 . S
C872 N876 1.427 . S
C873 H863 0.929 . S
C873 C871 1.433 . S
C873 N876 1.384 . S
C874 H865 0.929 . S
C874 C866 1.378 . S
C874 C869 1.350 1_556 S
C875 H862 0.929 . S
C875 C867 1.433 1_554 S
C875 N877 1.384 . S
N876 C872 1.427 . S
N876 C873 1.384 . S
N877 C869 1.427 . S
N877 C875 1.384 . S
H878 C884 0.930 . S
H879 C888 0.930 . S
H880 C893 0.929 . S
H881 C891 0.929 . S
H882 C886 0.929 . S
H883 C892 0.929 . S
C884 H878 0.930 . S
C884 C885 1.367 . S
C884 C892 1.378 . S
C885 C884 1.367 . S
C885 C893 1.433 . S
C886 H882 0.929 . S
C886 C888 1.378 . S
C886 C890 1.350 . S
C887 C890 1.463 . S
C887 C892 1.350 . S
C887 N895 1.427 . S
C888 H879 0.930 . S
C888 C886 1.378 . S
C888 C889 1.367 . S
C889 C888 1.367 . S
C889 C891 1.433 . S
C890 C886 1.350 . S
C890 C887 1.463 . S
C890 N894 1.427 . S
C891 H881 0.929 . S
C891 C889 1.433 . S
C891 N894 1.384 . S
C892 H883 0.929 . S
C892 C884 1.378 . S
C892 C887 1.350 . S
C893 H880 0.929 . S
C893 C885 1.433 . S
C893 N895 1.384 . S
N894 C890 1.427 . S
N894 C891 1.384 . S
N895 C887 1.427 . S
N895 C893 1.384 . S
H896 C902 0.930 . S
H897 C906 0.930 . S
H898 C911 0.929 . S
H899 C909 0.929 . S
H900 C904 0.929 . S
H901 C910 0.929 . S
C902 H896 0.930 . S
C902 C903 1.367 . S
C902 C910 1.378 . S
C903 C902 1.367 . S
C903 C911 1.433 . S
C904 H900 0.929 . S
C904 C906 1.378 . S
C904 C908 1.350 . S
C905 C908 1.463 . S
C905 C910 1.350 . S
C905 N913 1.427 . S
C906 H897 0.930 . S
C906 C904 1.378 . S
C906 C907 1.367 . S
C907 C906 1.367 . S
C907 C909 1.433 . S
C908 C904 1.350 . S
C908 C905 1.463 . S
C908 N912 1.427 . S
C909 H899 0.929 . S
C909 C907 1.433 . S
C909 N912 1.384 . S
C910 H901 0.929 . S
C910 C902 1.378 . S
C910 C905 1.350 . S
C911 H898 0.929 . S
C911 C903 1.433 . S
C911 N913 1.384 . S
N912 C908 1.427 . S
N912 C909 1.384 . S
N913 C905 1.427 . S
N913 C911 1.384 . S
H914 C920 0.930 1_556 S
H915 C924 0.930 . S
H916 C929 0.929 . S
H917 C927 0.929 . S
H918 C922 0.929 . S
H919 C928 0.929 1_655 S
C920 H914 0.930 1_554 S
C920 C921 1.367 . S
C920 C928 1.378 . S
C921 C920 1.367 . S
C921 C929 1.433 . S
C922 H918 0.929 . S
C922 C924 1.378 1_455 S
C922 C926 1.347 1_455 S
C923 C926 1.450 1_455 S
C923 C928 1.350 . S
C923 N931 1.427 . S
C924 H915 0.930 . S
C924 C922 1.378 1_655 S
C924 C925 1.367 . S
C925 C924 1.367 . S
C925 C927 1.433 . S
C926 C922 1.347 1_655 S
C926 C923 1.450 1_655 S
C926 N930 1.444 . S
C927 H917 0.929 . S
C927 C925 1.433 . S
C927 N930 1.384 . S
C928 H919 0.929 1_455 S
C928 C920 1.378 . S
C928 C923 1.350 . S
C929 H916 0.929 . S
C929 C921 1.433 . S
C929 N931 1.384 . S
N930 C926 1.444 . S
N930 C927 1.384 . S
N931 C923 1.427 . S
N931 C929 1.384 . S
H932 C938 0.930 . S
H933 C942 0.930 . S
H934 C947 0.929 . S
H935 C945 0.929 . S
H936 C940 0.929 . S
H937 C946 0.929 . S
C938 H932 0.930 . S
C938 C939 1.367 . S
C938 C946 1.378 . S
C939 C938 1.367 . S
C939 C947 1.433 . S
C940 H936 0.929 . S
C940 C942 1.378 . S
C940 C944 1.350 . S
C941 C944 1.463 . S
C941 C946 1.350 . S
C941 N949 1.427 . S
C942 H933 0.930 . S
C942 C940 1.378 . S
C942 C943 1.367 . S
C943 C942 1.367 . S
C943 C945 1.433 . S
C944 C940 1.350 . S
C944 C941 1.463 . S
C944 N948 1.427 . S
C945 H935 0.929 . S
C945 C943 1.433 . S
C945 N948 1.384 . S
C946 H937 0.929 . S
C946 C938 1.378 . S
C946 C941 1.350 . S
C947 H934 0.929 . S
C947 C939 1.433 . S
C947 N949 1.384 . S
N948 C944 1.427 . S
N948 C945 1.384 . S
N949 C941 1.427 . S
N949 C947 1.384 . S
H950 C956 0.930 . S
H951 C960 0.930 . S
H952 C965 0.929 . S
H953 C963 0.929 . S
H954 C958 0.929 . S
H955 C964 0.929 . S
C956 H950 0.930 . S
C956 C957 1.367 . S
C956 C964 1.378 . S
C957 C956 1.367 . S
C957 C965 1.433 . S
C958 H954 0.929 . S
C958 C960 1.378 . S
C958 C962 1.350 . S
C959 C962 1.463 . S
C959 C964 1.350 . S
C959 N967 1.427 . S
C960 H951 0.930 . S
C960 C958 1.378 . S
C960 C961 1.367 . S
C961 C960 1.367 . S
C961 C963 1.433 . S
C962 C958 1.350 . S
C962 C959 1.463 . S
C962 N966 1.427 . S
C963 H953 0.929 . S
C963 C961 1.433 . S
C963 N966 1.384 . S
C964 H955 0.929 . S
C964 C956 1.378 . S
C964 C959 1.350 . S
C965 H952 0.929 . S
C965 C957 1.433 . S
C965 N967 1.384 . S
N966 C962 1.427 . S
N966 C963 1.384 . S
N967 C959 1.427 . S
N967 C965 1.384 . S
H968 C974 0.930 . S
H969 C978 0.930 . S
H970 C983 0.929 . S
H971 C981 0.929 . S
H972 C976 0.929 . S
H973 C982 0.929 . S
C974 H968 0.930 . S
C974 C975 1.367 . S
C974 C982 1.378 . S
C975 C974 1.367 . S
C975 C983 1.433 . S
C976 H972 0.929 . S
C976 C978 1.378 . S
C976 C980 1.350 . S
C977 C980 1.463 . S
C977 C982 1.350 . S
C977 N985 1.427 . S
C978 H969 0.930 . S
C978 C976 1.378 . S
C978 C979 1.367 . S
C979 C978 1.367 . S
C979 C981 1.433 . S
C980 C976 1.350 . S
C980 C977 1.463 . S
C980 N984 1.427 . S
C981 H971 0.929 . S
C981 C979 1.433 . S
C981 N984 1.384 . S
C982 H973 0.929 . S
C982 C974 1.378 . S
C982 C977 1.350 . S
C983 H970 0.929 . S
C983 C975 1.433 . S
C983 N985 1.384 . S
N984 C980 1.427 . S
N984 C981 1.384 . S
N985 C977 1.427 . S
N985 C983 1.384 . S
H986 C992 0.930 . S
H987 C996 0.930 . S
H988 C1001 0.929 1_554 S
H989 C999 0.929 . S
H990 C994 0.929 . S
H991 C1000 0.929 . S
C992 H986 0.930 . S
C992 C993 1.367 1_556 S
C992 C1000 1.378 . S
C993 C992 1.367 1_554 S
C993 C1001 1.433 1_554 S
C994 H990 0.929 . S
C994 C996 1.378 . S
C994 C998 1.350 . S
C995 C998 1.463 . S
C995 C1000 1.350 . S
C995 N1003 1.427 . S
C996 H987 0.930 . S
C996 C994 1.378 . S
C996 C997 1.367 . S
C997 C996 1.367 . S
C997 C999 1.433 . S
C998 C994 1.350 . S
C998 C995 1.463 . S
C998 N1002 1.427 . S
C999 H989 0.929 . S
C999 C997 1.433 . S
C999 N1002 1.384 . S
C1000 H991 0.929 . S
C1000 C992 1.378 . S
C1000 C995 1.350 . S
C1001 H988 0.929 1_556 S
C1001 C993 1.433 1_556 S
C1001 N1003 1.384 . S
N1002 C998 1.427 . S
N1002 C999 1.384 . S
N1003 C995 1.427 . S
N1003 C1001 1.384 . S
H1004 C1010 0.930 . S
H1005 C1014 0.930 . S
H1006 C1019 0.929 . S
H1007 C1017 0.929 . S
H1008 C1012 0.929 . S
H1009 C1018 0.929 . S
C1010 H1004 0.930 . S
C1010 C1011 1.367 . S
C1010 C1018 1.378 . S
C1011 C1010 1.367 . S
C1011 C1019 1.433 . S
C1012 H1008 0.929 . S
C1012 C1014 1.378 . S
C1012 C1016 1.350 . S
C1013 C1016 1.463 . S
C1013 C1018 1.350 . S
C1013 N1021 1.427 . S
C1014 H1005 0.930 . S
C1014 C1012 1.378 . S
C1014 C1015 1.367 . S
C1015 C1014 1.367 . S
C1015 C1017 1.433 . S
C1016 C1012 1.350 . S
C1016 C1013 1.463 . S
C1016 N1020 1.427 . S
C1017 H1007 0.929 . S
C1017 C1015 1.433 . S
C1017 N1020 1.384 . S
C1018 H1009 0.929 . S
C1018 C1010 1.378 . S
C1018 C1013 1.350 . S
C1019 H1006 0.929 . S
C1019 C1011 1.433 . S
C1019 N1021 1.384 . S
N1020 C1016 1.427 . S
N1020 C1017 1.384 . S
N1021 C1013 1.427 . S
N1021 C1019 1.384 . S
H1022 C1028 0.930 . S
H1023 C1032 0.930 . S
H1024 C1037 0.929 . S
H1025 C1035 0.929 . S
H1026 C1030 0.929 . S
H1027 C1036 0.929 . S
C1028 H1022 0.930 . S
C1028 C1029 1.367 . S
C1028 C1036 1.378 . S
C1029 C1028 1.367 . S
C1029 C1037 1.433 . S
C1030 H1026 0.929 . S
C1030 C1032 1.378 . S
C1030 C1034 1.350 . S
C1031 C1034 1.463 1_655 S
C1031 C1036 1.350 . S
C1031 N1039 1.427 . S
C1032 H1023 0.930 . S
C1032 C1030 1.378 . S
C1032 C1033 1.367 . S
C1033 C1032 1.367 . S
C1033 C1035 1.433 . S
C1034 C1030 1.350 . S
C1034 C1031 1.463 1_455 S
C1034 N1038 1.427 . S
C1035 H1025 0.929 . S
C1035 C1033 1.433 . S
C1035 N1038 1.384 . S
C1036 H1027 0.929 . S
C1036 C1028 1.378 . S
C1036 C1031 1.350 . S
C1037 H1024 0.929 . S
C1037 C1029 1.433 . S
C1037 N1039 1.384 . S
N1038 C1034 1.427 . S
N1038 C1035 1.384 . S
N1039 C1031 1.427 . S
N1039 C1037 1.384 . S
H1040 C1046 0.930 . S
H1041 C1050 0.930 . S
H1042 C1055 0.929 . S
H1043 C1053 0.929 . S
H1044 C1048 0.929 . S
H1045 C1054 0.929 . S
C1046 H1040 0.930 . S
C1046 C1047 1.367 . S
C1046 C1054 1.378 . S
C1047 C1046 1.367 . S
C1047 C1055 1.433 . S
C1048 H1044 0.929 . S
C1048 C1050 1.378 . S
C1048 C1052 1.350 . S
C1049 C1052 1.463 . S
C1049 C1054 1.350 . S
C1049 N1057 1.427 . S
C1050 H1041 0.930 . S
C1050 C1048 1.378 . S
C1050 C1051 1.367 . S
C1051 C1050 1.367 . S
C1051 C1053 1.433 . S
C1052 C1048 1.350 . S
C1052 C1049 1.463 . S
C1052 N1056 1.427 . S
C1053 H1043 0.929 . S
C1053 C1051 1.433 . S
C1053 N1056 1.384 . S
C1054 H1045 0.929 . S
C1054 C1046 1.378 . S
C1054 C1049 1.350 . S
C1055 H1042 0.929 . S
C1055 C1047 1.433 . S
C1055 N1057 1.384 . S
N1056 C1052 1.427 . S
N1056 C1053 1.384 . S
N1057 C1049 1.427 . S
N1057 C1055 1.384 . S
H1058 C1064 0.930 . S
H1059 C1068 0.930 . S
H1060 C1073 0.929 . S
H1061 C1071 0.929 . S
H1062 C1066 0.929 . S
H1063 C1072 0.914 1_655 S
C1064 H1058 0.930 . S
C1064 C1065 1.367 . S
C1064 C1072 1.378 . S
C1065 C1064 1.367 . S
C1065 C1073 1.433 . S
C1066 H1062 0.929 . S
C1066 C1068 1.378 . S
C1066 C1070 1.350 . S
C1067 C1070 1.463 . S
C1067 C1072 1.350 1_655 S
C1067 N1075 1.427 1_655 S
C1068 H1059 0.930 . S
C1068 C1066 1.378 . S
C1068 C1069 1.367 . S
C1069 C1068 1.367 . S
C1069 C1071 1.433 . S
C1070 C1066 1.350 . S
C1070 C1067 1.463 . S
C1070 N1074 1.427 . S
C1071 H1061 0.929 . S
C1071 C1069 1.433 . S
C1071 N1074 1.384 . S
C1072 H1063 0.914 1_455 S
C1072 C1064 1.378 . S
C1072 C1067 1.350 1_455 S
C1073 H1060 0.929 . S
C1073 C1065 1.433 . S
C1073 N1075 1.384 . S
N1074 C1070 1.427 . S
N1074 C1071 1.384 . S
N1075 C1067 1.427 1_455 S
N1075 C1073 1.384 . S
H1076 C1082 0.930 . S
H1077 C1086 0.930 . S
H1078 C1091 0.929 . S
H1079 C1089 0.929 . S
H1080 C1084 0.929 . S
H1081 C1090 0.929 . S
C1082 H1076 0.930 . S
C1082 C1083 1.367 . S
C1082 C1090 1.378 . S
C1083 C1082 1.367 . S
C1083 C1091 1.433 . S
C1084 H1080 0.929 . S
C1084 C1086 1.378 . S
C1084 C1088 1.350 . S
C1085 C1088 1.463 . S
C1085 C1090 1.350 . S
C1085 N1093 1.427 . S
C1086 H1077 0.930 . S
C1086 C1084 1.378 . S
C1086 C1087 1.367 . S
C1087 C1086 1.367 . S
C1087 C1089 1.433 . S
C1088 C1084 1.350 . S
C1088 C1085 1.463 . S
C1088 N1092 1.427 . S
C1089 H1079 0.929 . S
C1089 C1087 1.433 . S
C1089 N1092 1.384 . S
C1090 H1081 0.929 . S
C1090 C1082 1.378 . S
C1090 C1085 1.350 . S
C1091 H1078 0.929 . S
C1091 C1083 1.433 . S
C1091 N1093 1.384 . S
N1092 C1088 1.427 . S
N1092 C1089 1.384 . S
N1093 C1085 1.427 . S
N1093 C1091 1.384 . S
H1094 C1100 0.930 . S
H1095 C1104 0.930 . S
H1096 C1109 0.929 . S
H1097 C1107 0.929 . S
H1098 C1102 0.929 . S
H1099 C1108 0.929 . S
C1100 H1094 0.930 . S
C1100 C1101 1.367 . S
C1100 C1108 1.378 . S
C1101 C1100 1.367 . S
C1101 C1109 1.433 . S
C1102 H1098 0.929 . S
C1102 C1104 1.378 . S
C1102 C1106 1.350 . S
C1103 C1106 1.463 . S
C1103 C1108 1.350 . S
C1103 N1111 1.427 . S
C1104 H1095 0.930 . S
C1104 C1102 1.378 . S
C1104 C1105 1.367 . S
C1105 C1104 1.367 . S
C1105 C1107 1.433 . S
C1106 C1102 1.350 . S
C1106 C1103 1.463 . S
C1106 N1110 1.427 . S
C1107 H1097 0.929 . S
C1107 C1105 1.433 . S
C1107 N1110 1.384 . S
C1108 H1099 0.929 . S
C1108 C1100 1.378 . S
C1108 C1103 1.350 . S
C1109 H1096 0.929 . S
C1109 C1101 1.433 . S
C1109 N1111 1.384 . S
N1110 C1106 1.427 . S
N1110 C1107 1.384 . S
N1111 C1103 1.427 . S
N1111 C1109 1.384 . S
H1112 C1118 0.930 . S
H1113 C1122 0.930 . S
H1114 C1127 0.929 . S
H1115 C1125 0.929 . S
H1116 C1120 0.929 . S
H1117 C1126 0.929 . S
C1118 H1112 0.930 . S
C1118 C1119 1.367 . S
C1118 C1126 1.378 . S
C1119 C1118 1.367 . S
C1119 C1127 1.433 . S
C1120 H1116 0.929 . S
C1120 C1122 1.378 . S
C1120 C1124 1.350 . S
C1121 C1124 1.463 . S
C1121 C1126 1.350 . S
C1121 N1129 1.427 . S
C1122 H1113 0.930 . S
C1122 C1120 1.378 . S
C1122 C1123 1.367 . S
C1123 C1122 1.367 . S
C1123 C1125 1.433 . S
C1124 C1120 1.350 . S
C1124 C1121 1.463 . S
C1124 N1128 1.427 . S
C1125 H1115 0.929 . S
C1125 C1123 1.433 . S
C1125 N1128 1.384 . S
C1126 H1117 0.929 . S
C1126 C1118 1.378 . S
C1126 C1121 1.350 . S
C1127 H1114 0.929 . S
C1127 C1119 1.433 . S
C1127 N1129 1.384 . S
N1128 C1124 1.427 . S
N1128 C1125 1.384 . S
N1129 C1121 1.427 . S
N1129 C1127 1.384 . S
H1130 C1136 0.930 1_556 S
H1131 C1140 0.930 . S
H1132 C1145 0.929 . S
H1133 C1143 0.929 . S
H1134 C1138 0.929 . S
H1135 C1144 0.929 . S
C1136 H1130 0.930 1_554 S
C1136 C1137 1.367 . S
C1136 C1144 1.378 . S
C1137 C1136 1.367 . S
C1137 C1145 1.433 . S
C1138 H1134 0.929 . S
C1138 C1140 1.378 . S
C1138 C1142 1.350 . S
C1139 C1142 1.463 . S
C1139 C1144 1.350 . S
C1139 N1147 1.427 . S
C1140 H1131 0.930 . S
C1140 C1138 1.378 . S
C1140 C1141 1.367 . S
C1141 C1140 1.367 . S
C1141 C1143 1.433 . S
C1142 C1138 1.350 . S
C1142 C1139 1.463 . S
C1142 N1146 1.427 . S
C1143 H1133 0.929 . S
C1143 C1141 1.433 . S
C1143 N1146 1.384 . S
C1144 H1135 0.929 . S
C1144 C1136 1.378 . S
C1144 C1139 1.350 . S
C1145 H1132 0.929 . S
C1145 C1137 1.433 . S
C1145 N1147 1.384 . S
N1146 C1142 1.427 . S
N1146 C1143 1.384 . S
N1147 C1139 1.427 . S
N1147 C1145 1.384 . S
H1148 C1154 0.930 . S
H1149 C1158 0.930 . S
H1150 C1163 0.929 . S
H1151 C1161 0.929 . S
H1152 C1156 0.929 . S
H1153 C1162 0.929 . S
C1154 H1148 0.930 . S
C1154 C1155 1.367 . S
C1154 C1162 1.378 . S
C1155 C1154 1.367 . S
C1155 C1163 1.433 . S
C1156 H1152 0.929 . S
C1156 C1158 1.378 . S
C1156 C1160 1.350 . S
C1157 C1160 1.463 . S
C1157 C1162 1.350 . S
C1157 N1165 1.427 . S
C1158 H1149 0.930 . S
C1158 C1156 1.378 . S
C1158 C1159 1.367 . S
C1159 C1158 1.367 . S
C1159 C1161 1.433 . S
C1160 C1156 1.350 . S
C1160 C1157 1.463 . S
C1160 N1164 1.427 . S
C1161 H1151 0.929 . S
C1161 C1159 1.433 . S
C1161 N1164 1.384 . S
C1162 H1153 0.929 . S
C1162 C1154 1.378 . S
C1162 C1157 1.350 . S
C1163 H1150 0.929 . S
C1163 C1155 1.433 . S
C1163 N1165 1.384 . S
N1164 C1160 1.427 . S
N1164 C1161 1.384 . S
N1165 C1157 1.427 . S
N1165 C1163 1.384 . S
H1166 C1172 0.930 . S
H1167 C1176 0.930 . S
H1168 C1181 0.929 . S
H1169 C1179 0.929 . S
H1170 C1174 0.967 . S
H1171 C1180 0.929 1_455 S
C1172 H1166 0.930 . S
C1172 C1173 1.367 . S
C1172 C1180 1.378 . S
C1173 C1172 1.367 . S
C1173 C1181 1.433 . S
C1174 H1170 0.967 . S
C1174 C1176 1.349 1_655 S
C1174 C1178 1.342 1_655 S
C1175 C1178 1.463 1_655 S
C1175 C1180 1.350 . S
C1175 N1183 1.427 . S
C1176 H1167 0.930 . S
C1176 C1174 1.349 1_455 S
C1176 C1177 1.367 . S
C1177 C1176 1.367 . S
C1177 C1179 1.433 . S
C1178 C1174 1.342 1_455 S
C1178 C1175 1.463 1_455 S
C1178 N1182 1.427 . S
C1179 H1169 0.929 . S
C1179 C1177 1.433 . S
C1179 N1182 1.384 . S
C1180 H1171 0.929 1_655 S
C1180 C1172 1.378 . S
C1180 C1175 1.350 . S
C1181 H1168 0.929 . S
C1181 C1173 1.433 . S
C1181 N1183 1.384 . S
N1182 C1178 1.427 . S
N1182 C1179 1.384 . S
N1183 C1175 1.427 . S
N1183 C1181 1.384 . S
H1184 C1190 0.930 . S
H1185 C1194 0.930 . S
H1186 C1199 0.929 . S
H1187 C1197 0.929 . S
H1188 C1192 0.929 . S
H1189 C1198 0.929 . S
C1190 H1184 0.930 . S
C1190 C1191 1.367 . S
C1190 C1198 1.378 . S
C1191 C1190 1.367 . S
C1191 C1199 1.433 . S
C1192 H1188 0.929 . S
C1192 C1194 1.378 . S
C1192 C1196 1.350 . S
C1193 C1196 1.463 . S
C1193 C1198 1.350 . S
C1193 N1201 1.427 . S
C1194 H1185 0.930 . S
C1194 C1192 1.378 . S
C1194 C1195 1.367 . S
C1195 C1194 1.367 . S
C1195 C1197 1.433 . S
C1196 C1192 1.350 . S
C1196 C1193 1.463 . S
C1196 N1200 1.427 . S
C1197 H1187 0.929 . S
C1197 C1195 1.433 . S
C1197 N1200 1.384 . S
C1198 H1189 0.929 . S
C1198 C1190 1.378 . S
C1198 C1193 1.350 . S
C1199 H1186 0.929 . S
C1199 C1191 1.433 . S
C1199 N1201 1.384 . S
N1200 C1196 1.427 . S
N1200 C1197 1.384 . S
N1201 C1193 1.427 . S
N1201 C1199 1.384 . S
H1202 C1208 0.930 . S
H1203 C1212 0.930 . S
H1204 C1217 0.929 . S
H1205 C1215 0.929 . S
H1206 C1210 0.929 . S
H1207 C1216 0.929 . S
C1208 H1202 0.930 . S
C1208 C1209 1.367 . S
C1208 C1216 1.378 . S
C1209 C1208 1.367 . S
C1209 C1217 1.433 . S
C1210 H1206 0.929 . S
C1210 C1212 1.378 . S
C1210 C1214 1.350 . S
C1211 C1214 1.463 . S
C1211 C1216 1.350 . S
C1211 N1219 1.427 . S
C1212 H1203 0.930 . S
C1212 C1210 1.378 . S
C1212 C1213 1.367 . S
C1213 C1212 1.367 . S
C1213 C1215 1.433 . S
C1214 C1210 1.350 . S
C1214 C1211 1.463 . S
C1214 N1218 1.427 . S
C1215 H1205 0.929 . S
C1215 C1213 1.433 . S
C1215 N1218 1.384 . S
C1216 H1207 0.929 . S
C1216 C1208 1.378 . S
C1216 C1211 1.350 . S
C1217 H1204 0.929 . S
C1217 C1209 1.433 . S
C1217 N1219 1.384 . S
N1218 C1214 1.427 . S
N1218 C1215 1.384 . S
N1219 C1211 1.427 . S
N1219 C1217 1.384 . S
H1220 C1226 0.930 . S
H1221 C1230 0.930 . S
H1222 C1235 0.929 . S
H1223 C1233 0.929 . S
H1224 C1228 0.929 . S
H1225 C1234 0.929 . S
C1226 H1220 0.930 . S
C1226 C1227 1.367 . S
C1226 C1234 1.378 . S
C1227 C1226 1.367 . S
C1227 C1235 1.433 . S
C1228 H1224 0.929 . S
C1228 C1230 1.378 . S
C1228 C1232 1.350 . S
C1229 C1232 1.463 . S
C1229 C1234 1.350 . S
C1229 N1237 1.427 . S
C1230 H1221 0.930 . S
C1230 C1228 1.378 . S
C1230 C1231 1.367 . S
C1231 C1230 1.367 . S
C1231 C1233 1.433 . S
C1232 C1228 1.350 . S
C1232 C1229 1.463 . S
C1232 N1236 1.427 . S
C1233 H1223 0.929 . S
C1233 C1231 1.433 . S
C1233 N1236 1.384 . S
C1234 H1225 0.929 . S
C1234 C1226 1.378 . S
C1234 C1229 1.350 . S
C1235 H1222 0.929 . S
C1235 C1227 1.433 . S
C1235 N1237 1.384 . S
N1236 C1232 1.427 . S
N1236 C1233 1.384 . S
N1237 C1229 1.427 . S
N1237 C1235 1.384 . S
H1238 C1244 0.930 . S
H1239 C1248 0.930 . S
H1240 C1253 0.929 . S
H1241 C1251 0.929 . S
H1242 C1246 0.929 . S
H1243 C1252 0.929 . S
C1244 H1238 0.930 . S
C1244 C1245 1.367 . S
C1244 C1252 1.378 . S
C1245 C1244 1.367 . S
C1245 C1253 1.433 . S
C1246 H1242 0.929 . S
C1246 C1248 1.378 . S
C1246 C1250 1.350 . S
C1247 C1250 1.463 . S
C1247 C1252 1.350 1_655 S
C1247 N1255 1.427 . S
C1248 H1239 0.930 . S
C1248 C1246 1.378 . S
C1248 C1249 1.367 . S
C1249 C1248 1.367 . S
C1249 C1251 1.433 1_554 S
C1250 C1246 1.350 . S
C1250 C1247 1.463 . S
C1250 N1254 1.427 . S
C1251 H1241 0.929 . S
C1251 C1249 1.433 1_556 S
C1251 N1254 1.384 1_556 S
C1252 H1243 0.929 . S
C1252 C1244 1.378 . S
C1252 C1247 1.350 1_455 S
C1253 H1240 0.929 . S
C1253 C1245 1.433 . S
C1253 N1255 1.384 1_455 S
N1254 C1250 1.427 . S
N1254 C1251 1.384 1_554 S
N1255 C1247 1.427 . S
N1255 C1253 1.384 1_655 S
H1256 C1262 0.930 . S
H1257 C1266 0.930 . S
H1258 C1271 0.929 . S
H1259 C1269 0.929 . S
H1260 C1264 0.929 . S
H1261 C1270 0.929 . S
C1262 H1256 0.930 . S
C1262 C1263 1.367 . S
C1262 C1270 1.378 . S
C1263 C1262 1.367 . S
C1263 C1271 1.433 . S
C1264 H1260 0.929 . S
C1264 C1266 1.378 . S
C1264 C1268 1.350 . S
C1265 C1268 1.463 . S
C1265 C1270 1.350 . S
C1265 N1273 1.427 . S
C1266 H1257 0.930 . S
C1266 C1264 1.378 . S
C1266 C1267 1.367 . S
C1267 C1266 1.367 . S
C1267 C1269 1.433 . S
C1268 C1264 1.350 . S
C1268 C1265 1.463 . S
C1268 N1272 1.427 . S
C1269 H1259 0.929 . S
C1269 C1267 1.433 . S
C1269 N1272 1.384 . S
C1270 H1261 0.929 . S
C1270 C1262 1.378 . S
C1270 C1265 1.350 . S
C1271 H1258 0.929 . S
C1271 C1263 1.433 . S
C1271 N1273 1.384 . S
N1272 C1268 1.427 . S
N1272 C1269 1.384 . S
N1273 C1265 1.427 . S
N1273 C1271 1.384 . S
H1274 C1280 0.930 . S
H1275 C1284 0.930 . S
H1276 C1289 0.929 . S
H1277 C1287 0.929 . S
H1278 C1282 0.929 . S
H1279 C1288 0.929 . S
C1280 H1274 0.930 . S
C1280 C1281 1.367 . S
C1280 C1288 1.378 . S
C1281 C1280 1.367 . S
C1281 C1289 1.433 . S
C1282 H1278 0.929 . S
C1282 C1284 1.378 . S
C1282 C1286 1.350 . S
C1283 C1286 1.463 1_655 S
C1283 C1288 1.350 . S
C1283 N1291 1.427 . S
C1284 H1275 0.930 . S
C1284 C1282 1.378 . S
C1284 C1285 1.367 . S
C1285 C1284 1.367 . S
C1285 C1287 1.433 . S
C1286 C1282 1.350 . S
C1286 C1283 1.463 1_455 S
C1286 N1290 1.427 . S
C1287 H1277 0.929 . S
C1287 C1285 1.433 . S
C1287 N1290 1.384 . S
C1288 H1279 0.929 . S
C1288 C1280 1.378 . S
C1288 C1283 1.350 . S
C1289 H1276 0.929 . S
C1289 C1281 1.433 . S
C1289 N1291 1.384 . S
N1290 C1286 1.427 . S
N1290 C1287 1.384 . S
N1291 C1283 1.427 . S
N1291 C1289 1.384 . S
H1292 C1298 0.930 . S
H1293 C1302 0.930 . S
H1294 C1307 0.929 . S
H1295 C1305 0.929 . S
H1296 C1300 0.929 . S
H1297 C1306 0.929 . S
C1298 H1292 0.930 . S
C1298 C1299 1.367 . S
C1298 C1306 1.378 . S
C1299 C1298 1.367 . S
C1299 C1307 1.433 . S
C1300 H1296 0.929 . S
C1300 C1302 1.378 . S
C1300 C1304 1.350 . S
C1301 C1304 1.463 . S
C1301 C1306 1.350 . S
C1301 N1309 1.427 . S
C1302 H1293 0.930 . S
C1302 C1300 1.378 . S
C1302 C1303 1.367 . S
C1303 C1302 1.367 . S
C1303 C1305 1.433 . S
C1304 C1300 1.350 . S
C1304 C1301 1.463 . S
C1304 N1308 1.427 . S
C1305 H1295 0.929 . S
C1305 C1303 1.433 . S
C1305 N1308 1.384 . S
C1306 H1297 0.929 . S
C1306 C1298 1.378 . S
C1306 C1301 1.350 . S
C1307 H1294 0.929 . S
C1307 C1299 1.433 . S
C1307 N1309 1.384 . S
N1308 C1304 1.427 . S
N1308 C1305 1.384 . S
N1309 C1301 1.427 . S
N1309 C1307 1.384 . S
H1310 C1316 0.930 1_554 S
H1311 C1320 0.930 . S
H1312 C1325 0.929 . S
H1313 C1323 0.929 . S
H1314 C1318 0.929 . S
H1315 C1324 0.929 . S
C1316 H1310 0.930 1_556 S
C1316 C1317 1.367 . S
C1316 C1324 1.378 . S
C1317 C1316 1.367 . S
C1317 C1325 1.433 . S
C1318 H1314 0.929 . S
C1318 C1320 1.378 . S
C1318 C1322 1.350 . S
C1319 C1322 1.463 . S
C1319 C1324 1.350 . S
C1319 N1327 1.427 . S
C1320 H1311 0.930 . S
C1320 C1318 1.378 . S
C1320 C1321 1.367 . S
C1321 C1320 1.367 . S
C1321 C1323 1.433 . S
C1322 C1318 1.350 . S
C1322 C1319 1.463 . S
C1322 N1326 1.427 . S
C1323 H1313 0.929 . S
C1323 C1321 1.433 . S
C1323 N1326 1.384 . S
C1324 H1315 0.929 . S
C1324 C1316 1.378 . S
C1324 C1319 1.350 . S
C1325 H1312 0.929 . S
C1325 C1317 1.433 . S
C1325 N1327 1.384 . S
N1326 C1322 1.427 . S
N1326 C1323 1.384 . S
N1327 C1319 1.427 . S
N1327 C1325 1.384 . S
H1328 C1334 0.930 . S
H1329 C1338 0.930 . S
H1330 C1343 0.929 . S
H1331 C1341 0.929 . S
H1332 C1336 0.929 . S
H1333 C1342 0.929 . S
C1334 H1328 0.930 . S
C1334 C1335 1.367 . S
C1334 C1342 1.378 . S
C1335 C1334 1.367 . S
C1335 C1343 1.433 . S
C1336 H1332 0.929 . S
C1336 C1338 1.378 . S
C1336 C1340 1.350 . S
C1337 C1340 1.463 . S
C1337 C1342 1.350 . S
C1337 N1345 1.427 . S
C1338 H1329 0.930 . S
C1338 C1336 1.378 . S
C1338 C1339 1.367 . S
C1339 C1338 1.367 . S
C1339 C1341 1.433 . S
C1340 C1336 1.350 . S
C1340 C1337 1.463 . S
C1340 N1344 1.427 . S
C1341 H1331 0.929 . S
C1341 C1339 1.433 . S
C1341 N1344 1.384 . S
C1342 H1333 0.929 . S
C1342 C1334 1.378 . S
C1342 C1337 1.350 . S
C1343 H1330 0.929 . S
C1343 C1335 1.433 . S
C1343 N1345 1.384 . S
N1344 C1340 1.427 . S
N1344 C1341 1.384 . S
N1345 C1337 1.427 . S
N1345 C1343 1.384 . S
H1346 C1352 0.930 . S
H1347 C1356 0.930 . S
H1348 C1361 0.929 . S
H1349 C1359 0.929 . S
H1350 C1354 0.929 . S
H1351 C1360 0.929 . S
C1352 H1346 0.930 . S
C1352 C1353 1.367 . S
C1352 C1360 1.378 . S
C1353 C1352 1.367 . S
C1353 C1361 1.433 . S
C1354 H1350 0.929 . S
C1354 C1356 1.378 . S
C1354 C1358 1.350 . S
C1355 C1358 1.463 . S
C1355 C1360 1.350 . S
C1355 N1363 1.427 . S
C1356 H1347 0.930 . S
C1356 C1354 1.378 . S
C1356 C1357 1.367 . S
C1357 C1356 1.367 . S
C1357 C1359 1.433 . S
C1358 C1354 1.350 . S
C1358 C1355 1.463 . S
C1358 N1362 1.427 . S
C1359 H1349 0.929 . S
C1359 C1357 1.433 . S
C1359 N1362 1.384 . S
C1360 H1351 0.929 . S
C1360 C1352 1.378 . S
C1360 C1355 1.350 . S
C1361 H1348 0.929 . S
C1361 C1353 1.433 . S
C1361 N1363 1.384 . S
N1362 C1358 1.427 . S
N1362 C1359 1.384 . S
N1363 C1355 1.427 . S
N1363 C1361 1.384 . S
H1364 C1370 0.930 . S
H1365 C1374 0.930 . S
H1366 C1379 0.929 . S
H1367 C1377 0.929 . S
H1368 C1372 0.929 . S
H1369 C1378 0.929 . S
C1370 H1364 0.930 . S
C1370 C1371 1.367 . S
C1370 C1378 1.378 . S
C1371 C1370 1.367 . S
C1371 C1379 1.433 . S
C1372 H1368 0.929 . S
C1372 C1374 1.378 . S
C1372 C1376 1.350 . S
C1373 C1376 1.463 . S
C1373 C1378 1.350 . S
C1373 N1381 1.427 . S
C1374 H1365 0.930 . S
C1374 C1372 1.378 . S
C1374 C1375 1.367 . S
C1375 C1374 1.367 . S
C1375 C1377 1.433 . S
C1376 C1372 1.350 . S
C1376 C1373 1.463 . S
C1376 N1380 1.427 . S
C1377 H1367 0.929 . S
C1377 C1375 1.433 . S
C1377 N1380 1.384 . S
C1378 H1369 0.929 . S
C1378 C1370 1.378 . S
C1378 C1373 1.350 . S
C1379 H1366 0.929 . S
C1379 C1371 1.433 . S
C1379 N1381 1.384 . S
N1380 C1376 1.427 . S
N1380 C1377 1.384 . S
N1381 C1373 1.427 . S
N1381 C1379 1.384 . S
H1382 C1388 0.930 . S
H1383 C1392 0.930 . S
H1384 C1397 0.929 . S
H1385 C1395 0.929 . S
H1386 C1390 0.929 . S
H1387 C1396 0.929 . S
C1388 H1382 0.930 . S
C1388 C1389 1.367 . S
C1388 C1396 1.378 . S
C1389 C1388 1.367 . S
C1389 C1397 1.433 . S
C1390 H1386 0.929 . S
C1390 C1392 1.378 1_455 S
C1390 C1394 1.350 . S
C1391 C1394 1.463 . S
C1391 C1396 1.350 . S
C1391 N1399 1.427 . S
C1392 H1383 0.930 . S
C1392 C1390 1.378 1_655 S
C1392 C1393 1.367 . S
C1393 C1392 1.367 . S
C1393 C1395 1.433 . S
C1394 C1390 1.350 . S
C1394 C1391 1.463 . S
C1394 N1398 1.427 1_455 S
C1395 H1385 0.929 . S
C1395 C1393 1.433 . S
C1395 N1398 1.384 . S
C1396 H1387 0.929 . S
C1396 C1388 1.378 . S
C1396 C1391 1.350 . S
C1397 H1384 0.929 . S
C1397 C1389 1.433 . S
C1397 N1399 1.384 . S
N1398 C1394 1.427 1_655 S
N1398 C1395 1.384 . S
N1399 C1391 1.427 . S
N1399 C1397 1.384 . S
H1400 C1406 0.930 . S
H1401 C1410 0.930 . S
H1402 C1415 0.929 . S
H1403 C1413 0.929 . S
H1404 C1408 0.929 . S
H1405 C1414 0.929 . S
C1406 H1400 0.930 . S
C1406 C1407 1.367 . S
C1406 C1414 1.378 . S
C1407 C1406 1.367 . S
C1407 C1415 1.433 . S
C1408 H1404 0.929 . S
C1408 C1410 1.378 . S
C1408 C1412 1.350 . S
C1409 C1412 1.463 . S
C1409 C1414 1.350 . S
C1409 N1417 1.427 . S
C1410 H1401 0.930 . S
C1410 C1408 1.378 . S
C1410 C1411 1.367 . S
C1411 C1410 1.367 . S
C1411 C1413 1.433 . S
C1412 C1408 1.350 . S
C1412 C1409 1.463 . S
C1412 N1416 1.427 . S
C1413 H1403 0.929 . S
C1413 C1411 1.433 . S
C1413 N1416 1.384 . S
C1414 H1405 0.929 . S
C1414 C1406 1.378 . S
C1414 C1409 1.350 . S
C1415 H1402 0.929 . S
C1415 C1407 1.433 . S
C1415 N1417 1.384 . S
N1416 C1412 1.427 . S
N1416 C1413 1.384 . S
N1417 C1409 1.427 . S
N1417 C1415 1.384 . S
H1418 C1424 0.930 . S
H1419 C1428 0.930 . S
H1420 C1433 0.929 . S
H1421 C1431 0.929 . S
H1422 C1426 0.929 . S
H1423 C1432 0.929 1_455 S
C1424 H1418 0.930 . S
C1424 C1425 1.367 . S
C1424 C1432 1.378 . S
C1425 C1424 1.367 . S
C1425 C1433 1.433 . S
C1426 H1422 0.929 . S
C1426 C1428 1.378 . S
C1426 C1430 1.350 . S
C1427 C1430 1.463 . S
C1427 C1432 1.350 1_455 S
C1427 N1435 1.427 1_455 S
C1428 H1419 0.930 . S
C1428 C1426 1.378 . S
C1428 C1429 1.367 . S
C1429 C1428 1.367 . S
C1429 C1431 1.433 . S
C1430 C1426 1.350 . S
C1430 C1427 1.463 . S
C1430 N1434 1.427 . S
C1431 H1421 0.929 . S
C1431 C1429 1.433 . S
C1431 N1434 1.384 . S
C1432 H1423 0.929 1_655 S
C1432 C1424 1.378 . S
C1432 C1427 1.350 1_655 S
C1433 H1420 0.929 . S
C1433 C1425 1.433 . S
C1433 N1435 1.384 . S
N1434 C1430 1.427 . S
N1434 C1431 1.384 . S
N1435 C1427 1.427 1_655 S
N1435 C1433 1.384 . S
H1436 C1442 0.930 . S
H1437 C1446 0.930 . S
H1438 C1451 0.929 . S
H1439 C1449 0.929 . S
H1440 C1444 0.929 . S
H1441 C1450 0.929 . S
C1442 H1436 0.930 . S
C1442 C1443 1.367 . S
C1442 C1450 1.378 . S
C1443 C1442 1.367 . S
C1443 C1451 1.433 . S
C1444 H1440 0.929 . S
C1444 C1446 1.378 . S
C1444 C1448 1.350 . S
C1445 C1448 1.463 . S
C1445 C1450 1.350 . S
C1445 N1453 1.427 . S
C1446 H1437 0.930 . S
C1446 C1444 1.378 . S
C1446 C1447 1.367 . S
C1447 C1446 1.367 . S
C1447 C1449 1.433 . S
C1448 C1444 1.350 . S
C1448 C1445 1.463 . S
C1448 N1452 1.427 . S
C1449 H1439 0.929 . S
C1449 C1447 1.433 . S
C1449 N1452 1.384 . S
C1450 H1441 0.929 . S
C1450 C1442 1.378 . S
C1450 C1445 1.350 . S
C1451 H1438 0.929 . S
C1451 C1443 1.433 . S
C1451 N1453 1.384 . S
N1452 C1448 1.427 . S
N1452 C1449 1.384 . S
N1453 C1445 1.427 . S
N1453 C1451 1.384 . S
H1454 C1460 0.930 1_556 S
H1455 C1464 0.930 . S
H1456 C1469 0.929 . S
H1457 C1467 0.929 . S
H1458 C1462 0.929 . S
H1459 C1468 0.929 . S
C1460 H1454 0.930 1_554 S
C1460 C1461 1.367 . S
C1460 C1468 1.378 . S
C1461 C1460 1.367 . S
C1461 C1469 1.433 . S
C1462 H1458 0.929 . S
C1462 C1464 1.378 . S
C1462 C1466 1.350 . S
C1463 C1466 1.463 . S
C1463 C1468 1.350 . S
C1463 N1471 1.427 . S
C1464 H1455 0.930 . S
C1464 C1462 1.378 . S
C1464 C1465 1.367 . S
C1465 C1464 1.367 . S
C1465 C1467 1.433 . S
C1466 C1462 1.350 . S
C1466 C1463 1.463 . S
C1466 N1470 1.427 . S
C1467 H1457 0.929 . S
C1467 C1465 1.433 . S
C1467 N1470 1.384 . S
C1468 H1459 0.929 . S
C1468 C1460 1.378 . S
C1468 C1463 1.350 . S
C1469 H1456 0.929 . S
C1469 C1461 1.433 . S
C1469 N1471 1.384 . S
N1470 C1466 1.427 . S
N1470 C1467 1.384 . S
N1471 C1463 1.427 . S
N1471 C1469 1.384 . S
C471 C224 0.388 . S
C475 C21 0.585 . S
C489 C137 0.414 . S
C493 C50 0.453 . S
C507 C166 0.488 . S
C511 C79 0.543 . S
C525 C195 0.526 . S
C529 C108 0.479 . S
C543 C253 0.486 . S
C547 C456 0.484 . S
C561 C282 0.295 . S
C565 C369 0.270 . S
C579 C398 0.510 . S
C583 C311 0.523 . S
C597 C427 0.407 . S
C601 C340 0.497 . S
C615 C187 2.386 . S
C619 C15 2.325 . S
C633 C44 2.740 . S
C637 C218 2.727 . S
C651 C131 2.329 . S
C655 C71 2.406 . S
C669 C158 2.376 . S
C673 C100 2.354 . S
C687 C247 2.525 . S
C691 C421 2.503 . S
C705 C450 2.685 . S
C709 C276 2.689 . S
C723 C303 2.381 . S
C727 C361 2.352 . S
C741 C334 2.315 . S
C745 C390 2.382 . S
C759 C42 2.678 . S
C763 C160 2.609 . S
C777 C189 2.466 . S
C781 C73 2.485 . S
C795 C102 2.114 . S
C799 C216 2.187 . S
C813 C129 2.632 . S
C817 C13 2.651 . S
C831 C392 2.415 . S
C835 C274 2.488 . S
C849 C305 2.675 . S
C853 C419 2.730 . S
C867 C448 2.384 . S
C871 C332 2.359 . S
C885 C245 2.371 . S
C889 C363 2.312 . S
C903 C271 1.601 . S
C907 C8 1.543 . S
C921 C440 1.724 1_554 S
C925 C37 1.594 . S
C939 C61 2.174 . S
C943 C329 2.031 . S
C957 C387 1.469 . S
C961 C90 1.580 . S
C975 C445 1.599 . S
C979 C124 1.549 . S
C993 C324 1.872 . S
C997 C148 1.899 . S
C1011 C177 2.092 . S
C1015 C382 2.066 . S
C1029 C211 1.273 . S
C1033 C266 1.366 . S
C1047 C39 1.536 . S
C1051 C240 1.514 . S
C1065 C269 1.835 . S
C1069 C208 1.980 1_556 S
C1083 C92 2.045 . S
C1087 C293 2.065 . S
C1101 C327 1.441 . S
C1105 C155 1.497 . S
C1119 C213 1.340 . S
C1123 C351 1.433 . S
C1137 C97 1.999 1_554 S
C1141 C380 2.146 . S
C1155 C414 1.783 . S
C1159 C150 1.948 . S
C1173 C34 1.619 . S
C1177 C443 1.508 . S
C1191 C411 1.421 . S
C1195 C153 1.306 . S
C1209 C295 1.832 . S
C1213 C182 1.705 . S
C1227 C206 2.309 . S
C1231 C358 2.183 . S
C1245 C119 1.759 . S
C1249 C242 1.633 1_554 S
C1263 C300 1.428 . S
C1267 C95 1.357 . S
C1281 C353 1.704 . S
C1285 C3 1.735 . S
C1299 C237 1.966 . S
C1303 C32 1.991 . S
C1317 C416 1.532 1_556 S
C1321 C66 1.547 . S
C1335 C184 1.337 . S
C1339 C385 1.299 . S
C1353 C63 1.858 . S
C1357 C409 1.895 . S
C1371 C121 1.912 . S
C1375 C438 1.933 . S
C1389 C10 1.727 1_556 S
C1393 C356 1.683 . S
C1407 C68 1.542 . S
C1411 C322 1.652 . S
C1425 C235 2.009 . S
C1429 C126 1.861 . S
C1443 C5 1.843 . S
C1447 C264 1.866 . S
C1461 C179 1.418 1_554 S
C1465 C298 1.310 . S
