# Generated by pormake.
# Topology fcn, (5)-cn, num edge types: 1
# Building blocks:
#     Node 0, Type 0, BuildingBlock: XOMCOT_clean_sbu_1, # of connection points: 5
#     Node 1, Type 0, BuildingBlock: XOMCOT_clean_sbu_1, # of connection points: 5
#     Node 2, Type 0, BuildingBlock: XOMCOT_clean_sbu_1, # of connection points: 5
#     Node 3, Type 0, BuildingBlock: XOMCOT_clean_sbu_1, # of connection points: 5
#     Node 4, Type 0, BuildingBlock: XOMCOT_clean_sbu_1, # of connection points: 5
#     Node 5, Type 0, BuildingBlock: XOMCOT_clean_sbu_1, # of connection points: 5
#     Node 6, Type 0, BuildingBlock: XOMCOT_clean_sbu_1, # of connection points: 5
#     Node 7, Type 0, BuildingBlock: XOMCOT_clean_sbu_1, # of connection points: 5
#     Node 8, Type 0, BuildingBlock: XOMCOT_clean_sbu_1, # of connection points: 5
#     Node 9, Type 0, BuildingBlock: XOMCOT_clean_sbu_1, # of connection points: 5
#     Node 10, Type 0, BuildingBlock: XOMCOT_clean_sbu_1, # of connection points: 5
#     Node 11, Type 0, BuildingBlock: XOMCOT_clean_sbu_1, # of connection points: 5
#     Node 12, Type 0, BuildingBlock: XOMCOT_clean_sbu_1, # of connection points: 5
#     Node 13, Type 0, BuildingBlock: XOMCOT_clean_sbu_1, # of connection points: 5
#     Node 14, Type 0, BuildingBlock: XOMCOT_clean_sbu_1, # of connection points: 5
#     Node 15, Type 0, BuildingBlock: XOMCOT_clean_sbu_1, # of connection points: 5
#     Node 16, Type 0, BuildingBlock: XOMCOT_clean_sbu_1, # of connection points: 5
#     Node 17, Type 0, BuildingBlock: XOMCOT_clean_sbu_1, # of connection points: 5
#     Node 18, Type 0, BuildingBlock: XOMCOT_clean_sbu_1, # of connection points: 5
#     Node 19, Type 0, BuildingBlock: XOMCOT_clean_sbu_1, # of connection points: 5
#     Node 20, Type 0, BuildingBlock: XOMCOT_clean_sbu_1, # of connection points: 5
#     Node 21, Type 0, BuildingBlock: XOMCOT_clean_sbu_1, # of connection points: 5
#     Node 22, Type 0, BuildingBlock: XOMCOT_clean_sbu_1, # of connection points: 5
#     Node 23, Type 0, BuildingBlock: XOMCOT_clean_sbu_1, # of connection points: 5
#     Node 24, Type 0, BuildingBlock: XOMCOT_clean_sbu_1, # of connection points: 5
#     Node 25, Type 0, BuildingBlock: XOMCOT_clean_sbu_1, # of connection points: 5
#     Node 26, Type 0, BuildingBlock: XOMCOT_clean_sbu_1, # of connection points: 5
#     Node 27, Type 0, BuildingBlock: XOMCOT_clean_sbu_1, # of connection points: 5
#     Node 28, Type 0, BuildingBlock: XOMCOT_clean_sbu_1, # of connection points: 5
#     Node 29, Type 0, BuildingBlock: XOMCOT_clean_sbu_1, # of connection points: 5
#     Node 30, Type 0, BuildingBlock: XOMCOT_clean_sbu_1, # of connection points: 5
#     Node 31, Type 0, BuildingBlock: XOMCOT_clean_sbu_1, # of connection points: 5
#     Node 32, Type 0, BuildingBlock: XOMCOT_clean_sbu_1, # of connection points: 5
#     Node 33, Type 0, BuildingBlock: XOMCOT_clean_sbu_1, # of connection points: 5
#     Node 34, Type 0, BuildingBlock: XOMCOT_clean_sbu_1, # of connection points: 5
#     Node 35, Type 0, BuildingBlock: XOMCOT_clean_sbu_1, # of connection points: 5
#     Node 36, Type 0, BuildingBlock: XOMCOT_clean_sbu_1, # of connection points: 5
#     Node 37, Type 0, BuildingBlock: XOMCOT_clean_sbu_1, # of connection points: 5
#     Node 38, Type 0, BuildingBlock: XOMCOT_clean_sbu_1, # of connection points: 5
#     Node 39, Type 0, BuildingBlock: XOMCOT_clean_sbu_1, # of connection points: 5
#     Node 40, Type 0, BuildingBlock: XOMCOT_clean_sbu_1, # of connection points: 5
#     Node 41, Type 0, BuildingBlock: XOMCOT_clean_sbu_1, # of connection points: 5
#     Node 42, Type 0, BuildingBlock: XOMCOT_clean_sbu_1, # of connection points: 5
#     Node 43, Type 0, BuildingBlock: XOMCOT_clean_sbu_1, # of connection points: 5
#     Node 44, Type 0, BuildingBlock: XOMCOT_clean_sbu_1, # of connection points: 5
#     Node 45, Type 0, BuildingBlock: XOMCOT_clean_sbu_1, # of connection points: 5
#     Node 46, Type 0, BuildingBlock: XOMCOT_clean_sbu_1, # of connection points: 5
#     Node 47, Type 0, BuildingBlock: XOMCOT_clean_sbu_1, # of connection points: 5
#     Edge 48, Type (0, 0), BuildingBlock: OJICUG_clean_linker_0, # of connection points: 2
#     Edge 49, Type (0, 0), BuildingBlock: OJICUG_clean_linker_0, # of connection points: 2
#     Edge 50, Type (0, 0), BuildingBlock: OJICUG_clean_linker_0, # of connection points: 2
#     Edge 51, Type (0, 0), BuildingBlock: OJICUG_clean_linker_0, # of connection points: 2
#     Edge 52, Type (0, 0), BuildingBlock: OJICUG_clean_linker_0, # of connection points: 2
#     Edge 53, Type (0, 0), BuildingBlock: OJICUG_clean_linker_0, # of connection points: 2
#     Edge 54, Type (0, 0), BuildingBlock: OJICUG_clean_linker_0, # of connection points: 2
#     Edge 55, Type (0, 0), BuildingBlock: OJICUG_clean_linker_0, # of connection points: 2
#     Edge 56, Type (0, 0), BuildingBlock: OJICUG_clean_linker_0, # of connection points: 2
#     Edge 57, Type (0, 0), BuildingBlock: OJICUG_clean_linker_0, # of connection points: 2
#     Edge 58, Type (0, 0), BuildingBlock: OJICUG_clean_linker_0, # of connection points: 2
#     Edge 59, Type (0, 0), BuildingBlock: OJICUG_clean_linker_0, # of connection points: 2
#     Edge 60, Type (0, 0), BuildingBlock: OJICUG_clean_linker_0, # of connection points: 2
#     Edge 61, Type (0, 0), BuildingBlock: OJICUG_clean_linker_0, # of connection points: 2
#     Edge 62, Type (0, 0), BuildingBlock: OJICUG_clean_linker_0, # of connection points: 2
#     Edge 63, Type (0, 0), BuildingBlock: OJICUG_clean_linker_0, # of connection points: 2
#     Edge 64, Type (0, 0), BuildingBlock: OJICUG_clean_linker_0, # of connection points: 2
#     Edge 65, Type (0, 0), BuildingBlock: OJICUG_clean_linker_0, # of connection points: 2
#     Edge 66, Type (0, 0), BuildingBlock: OJICUG_clean_linker_0, # of connection points: 2
#     Edge 67, Type (0, 0), BuildingBlock: OJICUG_clean_linker_0, # of connection points: 2
#     Edge 68, Type (0, 0), BuildingBlock: OJICUG_clean_linker_0, # of connection points: 2
#     Edge 69, Type (0, 0), BuildingBlock: OJICUG_clean_linker_0, # of connection points: 2
#     Edge 70, Type (0, 0), BuildingBlock: OJICUG_clean_linker_0, # of connection points: 2
#     Edge 71, Type (0, 0), BuildingBlock: OJICUG_clean_linker_0, # of connection points: 2
#     Edge 72, Type (0, 0), BuildingBlock: OJICUG_clean_linker_0, # of connection points: 2
#     Edge 73, Type (0, 0), BuildingBlock: OJICUG_clean_linker_0, # of connection points: 2
#     Edge 74, Type (0, 0), BuildingBlock: OJICUG_clean_linker_0, # of connection points: 2
#     Edge 75, Type (0, 0), BuildingBlock: OJICUG_clean_linker_0, # of connection points: 2
#     Edge 76, Type (0, 0), BuildingBlock: OJICUG_clean_linker_0, # of connection points: 2
#     Edge 77, Type (0, 0), BuildingBlock: OJICUG_clean_linker_0, # of connection points: 2
#     Edge 78, Type (0, 0), BuildingBlock: OJICUG_clean_linker_0, # of connection points: 2
#     Edge 79, Type (0, 0), BuildingBlock: OJICUG_clean_linker_0, # of connection points: 2
#     Edge 80, Type (0, 0), BuildingBlock: OJICUG_clean_linker_0, # of connection points: 2
#     Edge 81, Type (0, 0), BuildingBlock: OJICUG_clean_linker_0, # of connection points: 2
#     Edge 82, Type (0, 0), BuildingBlock: OJICUG_clean_linker_0, # of connection points: 2
#     Edge 83, Type (0, 0), BuildingBlock: OJICUG_clean_linker_0, # of connection points: 2
#     Edge 84, Type (0, 0), BuildingBlock: OJICUG_clean_linker_0, # of connection points: 2
#     Edge 85, Type (0, 0), BuildingBlock: OJICUG_clean_linker_0, # of connection points: 2
#     Edge 86, Type (0, 0), BuildingBlock: OJICUG_clean_linker_0, # of connection points: 2
#     Edge 87, Type (0, 0), BuildingBlock: OJICUG_clean_linker_0, # of connection points: 2
#     Edge 88, Type (0, 0), BuildingBlock: OJICUG_clean_linker_0, # of connection points: 2
#     Edge 89, Type (0, 0), BuildingBlock: OJICUG_clean_linker_0, # of connection points: 2
#     Edge 90, Type (0, 0), BuildingBlock: OJICUG_clean_linker_0, # of connection points: 2
#     Edge 91, Type (0, 0), BuildingBlock: OJICUG_clean_linker_0, # of connection points: 2
#     Edge 92, Type (0, 0), BuildingBlock: OJICUG_clean_linker_0, # of connection points: 2
#     Edge 93, Type (0, 0), BuildingBlock: OJICUG_clean_linker_0, # of connection points: 2
#     Edge 94, Type (0, 0), BuildingBlock: OJICUG_clean_linker_0, # of connection points: 2
#     Edge 95, Type (0, 0), BuildingBlock: OJICUG_clean_linker_0, # of connection points: 2
#     Edge 96, Type (0, 0), BuildingBlock: OJICUG_clean_linker_0, # of connection points: 2
#     Edge 97, Type (0, 0), BuildingBlock: OJICUG_clean_linker_0, # of connection points: 2
#     Edge 98, Type (0, 0), BuildingBlock: OJICUG_clean_linker_0, # of connection points: 2
#     Edge 99, Type (0, 0), BuildingBlock: OJICUG_clean_linker_0, # of connection points: 2
#     Edge 100, Type (0, 0), BuildingBlock: OJICUG_clean_linker_0, # of connection points: 2
#     Edge 101, Type (0, 0), BuildingBlock: OJICUG_clean_linker_0, # of connection points: 2
#     Edge 102, Type (0, 0), BuildingBlock: OJICUG_clean_linker_0, # of connection points: 2
#     Edge 103, Type (0, 0), BuildingBlock: OJICUG_clean_linker_0, # of connection points: 2
#     Edge 104, Type (0, 0), BuildingBlock: OJICUG_clean_linker_0, # of connection points: 2
#     Edge 105, Type (0, 0), BuildingBlock: OJICUG_clean_linker_0, # of connection points: 2
#     Edge 106, Type (0, 0), BuildingBlock: OJICUG_clean_linker_0, # of connection points: 2
#     Edge 107, Type (0, 0), BuildingBlock: OJICUG_clean_linker_0, # of connection points: 2
#     Edge 108, Type (0, 0), BuildingBlock: OJICUG_clean_linker_0, # of connection points: 2
#     Edge 109, Type (0, 0), BuildingBlock: OJICUG_clean_linker_0, # of connection points: 2
#     Edge 110, Type (0, 0), BuildingBlock: OJICUG_clean_linker_0, # of connection points: 2
#     Edge 111, Type (0, 0), BuildingBlock: OJICUG_clean_linker_0, # of connection points: 2
#     Edge 112, Type (0, 0), BuildingBlock: OJICUG_clean_linker_0, # of connection points: 2
#     Edge 113, Type (0, 0), BuildingBlock: OJICUG_clean_linker_0, # of connection points: 2
#     Edge 114, Type (0, 0), BuildingBlock: OJICUG_clean_linker_0, # of connection points: 2
#     Edge 115, Type (0, 0), BuildingBlock: OJICUG_clean_linker_0, # of connection points: 2
#     Edge 116, Type (0, 0), BuildingBlock: OJICUG_clean_linker_0, # of connection points: 2
#     Edge 117, Type (0, 0), BuildingBlock: OJICUG_clean_linker_0, # of connection points: 2
#     Edge 118, Type (0, 0), BuildingBlock: OJICUG_clean_linker_0, # of connection points: 2
#     Edge 119, Type (0, 0), BuildingBlock: OJICUG_clean_linker_0, # of connection points: 2
#     Edge 120, Type (0, 0), BuildingBlock: OJICUG_clean_linker_0, # of connection points: 2
#     Edge 121, Type (0, 0), BuildingBlock: OJICUG_clean_linker_0, # of connection points: 2
#     Edge 122, Type (0, 0), BuildingBlock: OJICUG_clean_linker_0, # of connection points: 2
#     Edge 123, Type (0, 0), BuildingBlock: OJICUG_clean_linker_0, # of connection points: 2
#     Edge 124, Type (0, 0), BuildingBlock: OJICUG_clean_linker_0, # of connection points: 2
#     Edge 125, Type (0, 0), BuildingBlock: OJICUG_clean_linker_0, # of connection points: 2
#     Edge 126, Type (0, 0), BuildingBlock: OJICUG_clean_linker_0, # of connection points: 2
#     Edge 127, Type (0, 0), BuildingBlock: OJICUG_clean_linker_0, # of connection points: 2
#     Edge 128, Type (0, 0), BuildingBlock: OJICUG_clean_linker_0, # of connection points: 2
#     Edge 129, Type (0, 0), BuildingBlock: OJICUG_clean_linker_0, # of connection points: 2
#     Edge 130, Type (0, 0), BuildingBlock: OJICUG_clean_linker_0, # of connection points: 2
#     Edge 131, Type (0, 0), BuildingBlock: OJICUG_clean_linker_0, # of connection points: 2
#     Edge 132, Type (0, 0), BuildingBlock: OJICUG_clean_linker_0, # of connection points: 2
#     Edge 133, Type (0, 0), BuildingBlock: OJICUG_clean_linker_0, # of connection points: 2
#     Edge 134, Type (0, 0), BuildingBlock: OJICUG_clean_linker_0, # of connection points: 2
#     Edge 135, Type (0, 0), BuildingBlock: OJICUG_clean_linker_0, # of connection points: 2
#     Edge 136, Type (0, 0), BuildingBlock: OJICUG_clean_linker_0, # of connection points: 2
#     Edge 137, Type (0, 0), BuildingBlock: OJICUG_clean_linker_0, # of connection points: 2
#     Edge 138, Type (0, 0), BuildingBlock: OJICUG_clean_linker_0, # of connection points: 2
#     Edge 139, Type (0, 0), BuildingBlock: OJICUG_clean_linker_0, # of connection points: 2
#     Edge 140, Type (0, 0), BuildingBlock: OJICUG_clean_linker_0, # of connection points: 2
#     Edge 141, Type (0, 0), BuildingBlock: OJICUG_clean_linker_0, # of connection points: 2
#     Edge 142, Type (0, 0), BuildingBlock: OJICUG_clean_linker_0, # of connection points: 2
#     Edge 143, Type (0, 0), BuildingBlock: OJICUG_clean_linker_0, # of connection points: 2
#     Edge 144, Type (0, 0), BuildingBlock: OJICUG_clean_linker_0, # of connection points: 2
#     Edge 145, Type (0, 0), BuildingBlock: OJICUG_clean_linker_0, # of connection points: 2
#     Edge 146, Type (0, 0), BuildingBlock: OJICUG_clean_linker_0, # of connection points: 2
#     Edge 147, Type (0, 0), BuildingBlock: OJICUG_clean_linker_0, # of connection points: 2
#     Edge 148, Type (0, 0), BuildingBlock: OJICUG_clean_linker_0, # of connection points: 2
#     Edge 149, Type (0, 0), BuildingBlock: OJICUG_clean_linker_0, # of connection points: 2
#     Edge 150, Type (0, 0), BuildingBlock: OJICUG_clean_linker_0, # of connection points: 2
#     Edge 151, Type (0, 0), BuildingBlock: OJICUG_clean_linker_0, # of connection points: 2
#     Edge 152, Type (0, 0), BuildingBlock: OJICUG_clean_linker_0, # of connection points: 2
#     Edge 153, Type (0, 0), BuildingBlock: OJICUG_clean_linker_0, # of connection points: 2
#     Edge 154, Type (0, 0), BuildingBlock: OJICUG_clean_linker_0, # of connection points: 2
#     Edge 155, Type (0, 0), BuildingBlock: OJICUG_clean_linker_0, # of connection points: 2
#     Edge 156, Type (0, 0), BuildingBlock: OJICUG_clean_linker_0, # of connection points: 2
#     Edge 157, Type (0, 0), BuildingBlock: OJICUG_clean_linker_0, # of connection points: 2
#     Edge 158, Type (0, 0), BuildingBlock: OJICUG_clean_linker_0, # of connection points: 2
#     Edge 159, Type (0, 0), BuildingBlock: OJICUG_clean_linker_0, # of connection points: 2
#     Edge 160, Type (0, 0), BuildingBlock: OJICUG_clean_linker_0, # of connection points: 2
#     Edge 161, Type (0, 0), BuildingBlock: OJICUG_clean_linker_0, # of connection points: 2
#     Edge 162, Type (0, 0), BuildingBlock: OJICUG_clean_linker_0, # of connection points: 2
#     Edge 163, Type (0, 0), BuildingBlock: OJICUG_clean_linker_0, # of connection points: 2
#     Edge 164, Type (0, 0), BuildingBlock: OJICUG_clean_linker_0, # of connection points: 2
#     Edge 165, Type (0, 0), BuildingBlock: OJICUG_clean_linker_0, # of connection points: 2
#     Edge 166, Type (0, 0), BuildingBlock: OJICUG_clean_linker_0, # of connection points: 2
#     Edge 167, Type (0, 0), BuildingBlock: OJICUG_clean_linker_0, # of connection points: 2
# Relax obj value: 0.274
# Max RMSD: 0.222
# Mean RMSD: 0.222
data_MOF--net-fcn--node1-XOMCOT_clean_sbu_1--edge1-OJICUG_clean_linker_0
_symmetry_space_group_name_H-M    P1
_symmetry_Int_Tables_number       1
_symmetry_cell_setting            triclinic
loop_
_symmetry_equiv_pos_as_xyz
'x, y, z'
_cell_length_a     57.243685
_cell_length_b     57.307584
_cell_length_c     57.29094
_cell_angle_alpha  90.014028
_cell_angle_beta   89.977898
_cell_angle_gamma 89.953513
loop_
_atom_site_label
_atom_site_type_symbol
_atom_site_fract_x
_atom_site_fract_y
_atom_site_fract_z
_atom_type_partial_charge
C0 C 0.08829 0.20599 0.30789 0.0
C1 C 0.07041 0.22162 0.31174 0.0
N2 N 0.05425 0.21876 0.29488 0.0
N3 N 0.08329 0.19303 0.28891 0.0
C4 C 0.06256 0.20141 0.28118 0.0
H5 H 0.10391 0.20406 0.31833 0.0
Co6 Co 0.10214 0.1694 0.27651 0.0
C7 C 0.06144 0.13504 0.26846 0.0
O8 O 0.06536 0.12028 0.28554 0.0
N9 N 0.12141 0.14581 0.26346 0.0
C10 C 0.13675 0.11157 0.25316 0.0
C11 C 0.11865 0.12242 0.26456 0.0
C12 C 0.14174 0.14863 0.25164 0.0
N13 N 0.1513 0.12807 0.24503 0.0
O14 O 0.10265 0.18516 0.2478 0.0
H15 H 0.10503 0.11353 0.27388 0.0
H16 H 0.14956 0.16541 0.2481 0.0
O17 O 0.07455 0.15282 0.2655 0.0
C18 C 0.11794 0.20111 0.24615 0.0
O19 O 0.1309 0.20604 0.26443 0.0
N20 N 0.10327 0.15476 0.3056 0.0
C21 C 0.11199 0.13439 0.34887 0.0
C22 C 0.08895 0.13901 0.34165 0.0
C23 C 0.08497 0.14971 0.32001 0.0
C24 C 0.12565 0.15207 0.31319 0.0
C25 C 0.13041 0.14155 0.33446 0.0
H26 H 0.06731 0.15395 0.31482 0.0
H27 H 0.14005 0.15788 0.30246 0.0
H28 H 0.05357 0.19473 0.26599 0.0
H29 H 0.06946 0.23424 0.32577 0.0
H30 H 0.13947 0.09292 0.25179 0.0
H31 H 0.07422 0.1344 0.35257 0.0
H32 H 0.14847 0.13844 0.33913 0.0
C33 C 0.03255 0.81893 0.54171 0.0
C34 C 0.01526 0.80263 0.54452 0.0
N35 N 0.01859 0.7856 0.52878 0.0
N36 N 0.04719 0.81234 0.5243 0.0
C37 C 0.03783 0.79191 0.5166 0.0
H38 H 0.03423 0.83445 0.55225 0.0
Co39 Co 0.07595 0.82721 0.51561 0.0
C40 C 0.09272 0.7857 0.50009 0.0
O41 O 0.09506 0.78251 0.52268 0.0
N42 N 0.10419 0.84143 0.50752 0.0
C43 C 0.14197 0.85062 0.50571 0.0
C44 C 0.12604 0.83335 0.51121 0.0
C45 C 0.10727 0.86341 0.49966 0.0
N46 N 0.12995 0.86955 0.49875 0.0
O47 O 0.06023 0.84563 0.49173 0.0
H48 H 0.13012 0.81646 0.51856 0.0
H49 H 0.09313 0.87524 0.49558 0.0
O50 O 0.08219 0.80388 0.49279 0.0
C51 C 0.0396 0.8524 0.48662 0.0
O52 O 0.02201 0.84729 0.5004 0.0
N53 N 0.07244 0.84974 0.53897 0.0
C54 C 0.08588 0.88047 0.57416 0.0
C55 C 0.0885 0.85629 0.57694 0.0
C56 C 0.08193 0.84131 0.55903 0.0
C57 C 0.06758 0.87298 0.53666 0.0
C58 C 0.07452 0.88877 0.55406 0.0
H59 H 0.08613 0.82294 0.56028 0.0
H60 H 0.06034 0.87974 0.52064 0.0
H61 H 0.04542 0.78117 0.50307 0.0
H62 H 0.00156 0.80297 0.55755 0.0
H63 H 0.16072 0.84984 0.50805 0.0
H64 H 0.09752 0.84908 0.59191 0.0
H65 H 0.07225 0.90732 0.55125 0.0
C66 C 0.41226 0.78488 0.78911 0.0
C67 C 0.43032 0.76973 0.79382 0.0
N68 N 0.44818 0.77469 0.77934 0.0
N69 N 0.4188 0.7996 0.77196 0.0
C70 C 0.44069 0.79278 0.76614 0.0
H71 H 0.39551 0.78539 0.79784 0.0
Co72 Co 0.40053 0.82397 0.76023 0.0
C73 C 0.44179 0.85904 0.75923 0.0
O74 O 0.43683 0.8716 0.77774 0.0
N75 N 0.38191 0.84853 0.74804 0.0
C76 C 0.36732 0.88371 0.74026 0.0
C77 C 0.38525 0.87171 0.75064 0.0
C78 C 0.36145 0.84695 0.73622 0.0
N79 N 0.35226 0.86817 0.73118 0.0
O80 O 0.40245 0.81102 0.72996 0.0
H81 H 0.39911 0.87967 0.76043 0.0
H82 H 0.35324 0.83055 0.73177 0.0
O83 O 0.42871 0.84198 0.75321 0.0
C84 C 0.38843 0.79421 0.72636 0.0
O85 O 0.37612 0.78621 0.74399 0.0
N86 N 0.39662 0.83571 0.79038 0.0
C87 C 0.38332 0.85595 0.83233 0.0
C88 C 0.40701 0.85142 0.82773 0.0
C89 C 0.41329 0.84058 0.80668 0.0
C90 C 0.37357 0.83706 0.7961 0.0
C91 C 0.36651 0.84732 0.81685 0.0
H92 H 0.43146 0.8368 0.80316 0.0
H93 H 0.36046 0.83083 0.78403 0.0
H94 H 0.45115 0.80123 0.75287 0.0
H95 H 0.4303 0.75606 0.80686 0.0
H96 H 0.36499 0.90245 0.74039 0.0
H97 H 0.42053 0.85708 0.83966 0.0
H98 H 0.34801 0.8493 0.82031 0.0
C99 C 0.46751 0.17052 0.04331 0.0
C100 C 0.48359 0.18812 0.0452 0.0
N101 N 0.47609 0.20619 0.03238 0.0
N102 N 0.44953 0.17737 0.0295 0.0
C103 C 0.45561 0.19933 0.02293 0.0
H104 H 0.469 0.15387 0.05201 0.0
Co105 Co 0.42085 0.1611 0.02383 0.0
C106 C 0.39776 0.20074 0.01407 0.0
O107 O 0.39657 0.20032 0.03697 0.0
N108 N 0.39265 0.1456 0.01891 0.0
C109 C 0.35887 0.12922 0.0287 0.0
C110 C 0.37453 0.14667 0.03393 0.0
C111 C 0.38736 0.12782 0.00433 0.0
N112 N 0.36702 0.11743 0.01008 0.0
O113 O 0.43483 0.14539 0.99687 0.0
H114 H 0.37378 0.15811 0.04893 0.0
H115 H 0.39923 0.12095 0.99135 0.0
O116 O 0.4101 0.18534 0.00374 0.0
C117 C 0.45463 0.13601 0.99253 0.0
O118 O 0.47052 0.13464 0.00898 0.0
N119 N 0.4287 0.13758 0.04502 0.0
C120 C 0.41694 0.10625 0.08029 0.0
C121 C 0.41959 0.13011 0.0851 0.0
C122 C 0.4251 0.14546 0.06715 0.0
C123 C 0.42869 0.1142 0.04034 0.0
C124 C 0.42279 0.09817 0.05786 0.0
H125 H 0.42397 0.16404 0.07033 0.0
H126 H 0.43034 0.10797 0.02264 0.0
H127 H 0.44485 0.21064 0.01234 0.0
H128 H 0.49937 0.18789 0.05563 0.0
H129 H 0.34348 0.12461 0.03867 0.0
H130 H 0.41479 0.13735 0.10189 0.0
H131 H 0.42086 0.07991 0.05337 0.0
C132 C 0.07364 0.78829 0.20335 0.0
C133 C 0.05538 0.77322 0.19942 0.0
N134 N 0.03919 0.77683 0.21608 0.0
N135 N 0.06871 0.80168 0.22208 0.0
C136 C 0.0477 0.79406 0.22969 0.0
H137 H 0.08933 0.7898 0.19293 0.0
Co138 Co 0.08746 0.82555 0.23348 0.0
C139 C 0.04667 0.86045 0.23963 0.0
O140 O 0.04995 0.87308 0.22081 0.0
N141 N 0.10666 0.84966 0.24531 0.0
C142 C 0.1219 0.88436 0.25389 0.0
C143 C 0.10294 0.87295 0.24477 0.0
C144 C 0.12829 0.84746 0.25457 0.0
N145 N 0.13789 0.86832 0.25998 0.0
O146 O 0.08841 0.81077 0.26294 0.0
H147 H 0.08808 0.8815 0.2372 0.0
H148 H 0.1371 0.83093 0.25678 0.0
O149 O 0.05992 0.84301 0.24406 0.0
C150 C 0.10436 0.79534 0.26387 0.0
O151 O 0.11637 0.79074 0.24485 0.0
N152 N 0.08872 0.83879 0.20385 0.0
C153 C 0.09913 0.86096 0.16227 0.0
C154 C 0.07579 0.85611 0.16806 0.0
C155 C 0.07097 0.84418 0.18888 0.0
C156 C 0.11131 0.84022 0.19657 0.0
C157 C 0.11695 0.85146 0.17598 0.0
H158 H 0.0531 0.84004 0.19338 0.0
H159 H 0.12519 0.83331 0.20733 0.0
H160 H 0.03851 0.80142 0.24449 0.0
H161 H 0.05398 0.76066 0.18537 0.0
H162 H 0.12422 0.90309 0.25483 0.0
H163 H 0.06156 0.86238 0.15731 0.0
H164 H 0.13518 0.85372 0.1714 0.0
C165 C 0.47856 0.83125 0.45708 0.0
C166 C 0.49207 0.81204 0.452 0.0
N167 N 0.48561 0.7946 0.46635 0.0
N168 N 0.46344 0.82574 0.47426 0.0
C169 C 0.46836 0.80338 0.47979 0.0
H170 H 0.47933 0.84803 0.44847 0.0
Co171 Co 0.44043 0.84523 0.48602 0.0
C172 C 0.40207 0.8069 0.48604 0.0
O173 O 0.39055 0.81308 0.46723 0.0
N174 N 0.41732 0.86495 0.4981 0.0
C175 C 0.38353 0.88196 0.50686 0.0
C176 C 0.39387 0.8633 0.49606 0.0
C177 C 0.4208 0.88504 0.50991 0.0
N178 N 0.40049 0.89565 0.51551 0.0
O179 O 0.45302 0.84224 0.51667 0.0
H180 H 0.38461 0.85018 0.48644 0.0
H181 H 0.4379 0.89203 0.51384 0.0
O182 O 0.42015 0.81831 0.4926 0.0
C183 C 0.47074 0.85506 0.52064 0.0
O184 O 0.48042 0.86607 0.50299 0.0
N185 N 0.42934 0.85047 0.4558 0.0
C186 C 0.41081 0.86601 0.4137 0.0
C187 C 0.4131 0.84195 0.41826 0.0
C188 C 0.42329 0.83453 0.43922 0.0
C189 C 0.43017 0.87357 0.45029 0.0
C190 C 0.42101 0.88173 0.4294 0.0
H191 H 0.42557 0.81609 0.44248 0.0
H192 H 0.43745 0.88592 0.46256 0.0
H193 H 0.45907 0.7935 0.49295 0.0
H194 H 0.50555 0.81094 0.43879 0.0
H195 H 0.36502 0.88582 0.50722 0.0
H196 H 0.40625 0.82897 0.40637 0.0
H197 H 0.42122 0.90032 0.42604 0.0
C198 C 0.41654 0.22048 0.71539 0.0
C199 C 0.43579 0.23378 0.70985 0.0
N200 N 0.45318 0.22797 0.72456 0.0
N201 N 0.42203 0.20607 0.73319 0.0
C202 C 0.44436 0.21134 0.73865 0.0
H203 H 0.3999 0.22066 0.70647 0.0
Co204 Co 0.40339 0.18241 0.74514 0.0
C205 C 0.43643 0.14293 0.75199 0.0
O206 O 0.42206 0.12861 0.74128 0.0
N207 N 0.38433 0.15854 0.75817 0.0
C208 C 0.3716 0.13335 0.785 0.0
C209 C 0.38961 0.14766 0.77845 0.0
C210 C 0.36243 0.15095 0.75325 0.0
N211 N 0.35441 0.13544 0.76916 0.0
O212 O 0.40371 0.19682 0.77444 0.0
H213 H 0.40521 0.15079 0.78861 0.0
H214 H 0.35197 0.15726 0.73896 0.0
O215 O 0.43122 0.16456 0.75374 0.0
C216 C 0.38598 0.20989 0.77712 0.0
O217 O 0.37188 0.21314 0.75932 0.0
N218 N 0.40169 0.1696 0.71549 0.0
C219 C 0.39391 0.15475 0.66999 0.0
C220 C 0.41651 0.15417 0.67964 0.0
C221 C 0.42008 0.16191 0.70244 0.0
C222 C 0.3805 0.17312 0.70539 0.0
C223 C 0.37593 0.1651 0.683 0.0
H224 H 0.43762 0.16212 0.70939 0.0
H225 H 0.36709 0.18252 0.71475 0.0
H226 H 0.45434 0.20248 0.75201 0.0
H227 H 0.43705 0.24644 0.69589 0.0
H228 H 0.37066 0.12339 0.80102 0.0
H229 H 0.43129 0.1477 0.66978 0.0
H230 H 0.3583 0.16656 0.67638 0.0
C231 C 0.02358 0.17304 0.984 0.0
C232 C 0.00735 0.1906 0.9814 0.0
N233 N 0.01879 0.21109 0.98094 0.0
N234 N 0.04516 0.18244 0.98551 0.0
C235 C 0.04159 0.20562 0.98335 0.0
H236 H 0.01976 0.15463 0.98413 0.0
Co237 Co 0.07431 0.16779 0.98858 0.0
C238 C 0.09613 0.20665 0.00466 0.0
O239 O 0.10008 0.20907 0.98219 0.0
N240 N 0.10356 0.15407 0.99125 0.0
C241 C 0.13713 0.13975 0.9782 0.0
C242 C 0.12027 0.1565 0.97483 0.0
C243 C 0.11105 0.13652 0.00501 0.0
N244 N 0.1312 0.1272 0.99715 0.0
O245 O 0.06122 0.14867 0.01393 0.0
H246 H 0.11895 0.16805 0.95995 0.0
H247 H 0.10054 0.12867 0.0186 0.0
O248 O 0.08346 0.18981 0.0117 0.0
C249 C 0.04789 0.13117 0.01779 0.0
O250 O 0.03908 0.11923 0.00033 0.0
N251 N 0.06718 0.14669 0.96428 0.0
C252 C 0.08436 0.12623 0.92371 0.0
C253 C 0.0736 0.14819 0.92297 0.0
C254 C 0.06519 0.15817 0.94353 0.0
C255 C 0.0742 0.12384 0.9646 0.0
C256 C 0.08291 0.11325 0.94438 0.0
H257 H 0.06047 0.17644 0.94329 0.0
H258 H 0.07692 0.11487 0.98092 0.0
H259 H 0.05543 0.21838 0.9836 0.0
H260 H 0.98868 0.18839 0.97942 0.0
H261 H 0.15142 0.13571 0.96649 0.0
H262 H 0.07421 0.15869 0.90725 0.0
H263 H 0.09123 0.09632 0.94574 0.0
C264 C 0.2923 0.07352 0.21455 0.0
C265 C 0.2952 0.05534 0.22988 0.0
N266 N 0.28185 0.03747 0.2226 0.0
N267 N 0.27744 0.06702 0.19751 0.0
C268 C 0.27113 0.04495 0.20298 0.0
H269 H 0.30107 0.09021 0.21525 0.0
Co270 Co 0.27157 0.0862 0.17223 0.0
C271 C 0.25641 0.05327 0.13433 0.0
O272 O 0.27149 0.06164 0.11927 0.0
N273 N 0.26593 0.10679 0.14655 0.0
C274 C 0.27067 0.12816 0.11425 0.0
C275 C 0.27875 0.10948 0.1268 0.0
C276 C 0.24996 0.12425 0.14523 0.0
N277 N 0.25257 0.1374 0.12587 0.0
O278 O 0.24165 0.09362 0.18531 0.0
H279 H 0.29381 0.09923 0.12192 0.0
H280 H 0.23754 0.1284 0.15878 0.0
O281 O 0.25614 0.06081 0.15533 0.0
C282 C 0.23971 0.10919 0.20108 0.0
O283 O 0.25841 0.12073 0.20764 0.0
N284 N 0.30161 0.07932 0.16101 0.0
C285 C 0.34638 0.07631 0.1423 0.0
C286 C 0.33162 0.05677 0.14236 0.0
C287 C 0.30942 0.05843 0.15255 0.0
C288 C 0.31659 0.09762 0.16331 0.0
C289 C 0.33899 0.09659 0.15387 0.0
H290 H 0.29832 0.04321 0.15292 0.0
H291 H 0.31053 0.11364 0.17128 0.0
H292 H 0.25983 0.0342 0.19231 0.0
H293 H 0.3066 0.05505 0.24495 0.0
H294 H 0.27817 0.13509 0.09835 0.0
H295 H 0.33698 0.04059 0.13417 0.0
H296 H 0.34983 0.11207 0.15435 0.0
C297 C 0.18185 0.02779 0.48304 0.0
C298 C 0.20197 0.03416 0.49445 0.0
N299 N 0.21937 0.02047 0.4866 0.0
N300 N 0.18682 0.01054 0.46778 0.0
C301 C 0.20978 0.00618 0.47063 0.0
H302 H 0.16479 0.03554 0.48537 0.0
Co303 Co 0.16633 0.99737 0.44683 0.0
C304 C 0.19202 0.99264 0.40218 0.0
O305 O 0.17352 0.00025 0.39092 0.0
N306 N 0.14536 0.98332 0.42576 0.0
C307 C 0.13045 0.95696 0.40134 0.0
C308 C 0.14847 0.96187 0.41635 0.0
C309 C 0.12504 0.99082 0.41638 0.0
N310 N 0.11579 0.97529 0.40139 0.0
O311 O 0.17143 0.96742 0.46047 0.0
H312 H 0.16317 0.95055 0.41992 0.0
H313 H 0.117 0.00735 0.42003 0.0
O314 O 0.19183 0.99158 0.42452 0.0
C315 C 0.15679 0.96309 0.4766 0.0
O316 O 0.14275 0.97996 0.48333 0.0
N317 N 0.16008 0.02733 0.43508 0.0
C318 C 0.14394 0.06947 0.41751 0.0
C319 C 0.16676 0.06192 0.41265 0.0
C320 C 0.17473 0.0409 0.42208 0.0
C321 C 0.13946 0.03631 0.44293 0.0
C322 C 0.13063 0.05702 0.43375 0.0
H323 H 0.19239 0.0354 0.41845 0.0
H324 H 0.12902 0.02637 0.45514 0.0
H325 H 0.21944 0.99329 0.46075 0.0
H326 H 0.20376 0.04778 0.50743 0.0
H327 H 0.12813 0.94099 0.39153 0.0
H328 H 0.17791 0.07153 0.40078 0.0
H329 H 0.11326 0.06277 0.43861 0.0
C330 C 0.20419 0.92326 0.70561 0.0
C331 C 0.19922 0.93916 0.72284 0.0
N332 N 0.21259 0.95818 0.7194 0.0
N333 N 0.22043 0.93224 0.69119 0.0
C334 C 0.22546 0.95351 0.70014 0.0
H335 H 0.19614 0.90633 0.70338 0.0
Co336 Co 0.2305 0.91632 0.66483 0.0
C337 C 0.24219 0.96129 0.63664 0.0
O338 O 0.22341 0.96341 0.62366 0.0
N339 N 0.24059 0.89979 0.63851 0.0
C340 C 0.24827 0.88784 0.60235 0.0
C341 C 0.24148 0.90646 0.6159 0.0
C342 C 0.24663 0.87705 0.63819 0.0
N343 N 0.25132 0.86933 0.61644 0.0
O344 O 0.26026 0.91082 0.67933 0.0
H345 H 0.23657 0.92336 0.60933 0.0
H346 H 0.24706 0.8662 0.65361 0.0
O347 O 0.2439 0.94457 0.65133 0.0
C348 C 0.26266 0.89327 0.6928 0.0
O349 O 0.24429 0.8803 0.69738 0.0
N350 N 0.20071 0.91989 0.65137 0.0
C351 C 0.1562 0.91736 0.63178 0.0
C352 C 0.16582 0.93905 0.63787 0.0
C353 C 0.18795 0.93985 0.64853 0.0
C354 C 0.19079 0.89874 0.64692 0.0
C355 C 0.16875 0.89709 0.63694 0.0
H356 H 0.1947 0.95636 0.65462 0.0
H357 H 0.20009 0.88288 0.65115 0.0
H358 H 0.23769 0.9656 0.69234 0.0
H359 H 0.18663 0.93699 0.73678 0.0
H360 H 0.24987 0.88768 0.58352 0.0
H361 H 0.15622 0.95504 0.63476 0.0
H362 H 0.16175 0.88 0.63287 0.0
C363 C 0.32763 0.95939 0.97752 0.0
C364 C 0.30791 0.95399 0.99016 0.0
N365 N 0.29128 0.96971 0.98476 0.0
N366 N 0.32315 0.97817 0.96405 0.0
C367 C 0.30101 0.98423 0.96908 0.0
H368 H 0.34397 0.94991 0.97766 0.0
Co369 Co 0.34236 0.99143 0.94194 0.0
C370 C 0.31176 0.99894 0.90063 0.0
O371 O 0.32786 0.99011 0.88683 0.0
N372 N 0.36184 0.00555 0.91965 0.0
C373 C 0.37493 0.03254 0.89493 0.0
C374 C 0.35729 0.0266 0.90997 0.0
C375 C 0.3828 -0.00054 0.91064 0.0
N376 N 0.39095 0.01539 0.89538 0.0
O377 O 0.33986 0.02117 0.95702 0.0
H378 H 0.34212 0.03719 0.9138 0.0
H379 H 0.3924 0.98405 0.91535 0.0
O380 O 0.3152 -0.00037 0.9227 0.0
C381 C 0.34696 0.0253 0.97764 0.0
O382 O 0.35474 0.00806 0.9906 0.0
N383 N 0.34556 0.96185 0.92804 0.0
C384 C 0.35504 0.92052 0.90458 0.0
C385 C 0.33217 0.92938 0.90549 0.0
C386 C 0.3277 0.94991 0.91775 0.0
C387 C 0.36662 0.95118 0.93103 0.0
C388 C 0.37208 0.93085 0.91877 0.0
H389 H 0.31002 0.95643 0.91842 0.0
H390 H 0.37966 0.95914 0.94211 0.0
H391 H 0.29189 0.99856 0.96082 0.0
H392 H 0.30586 0.93959 0.00222 0.0
H393 H 0.37632 0.04869 0.88524 0.0
H394 H 0.31805 0.92102 0.89611 0.0
H395 H 0.38976 0.92416 0.91945 0.0
C396 C 0.29206 0.91299 0.2774 0.0
C397 C 0.29592 0.93018 0.26112 0.0
N398 N 0.28187 0.94834 0.26617 0.0
N399 N 0.276 0.9205 0.29289 0.0
C400 C 0.26985 0.94201 0.28543 0.0
H401 H 0.30074 0.89624 0.27825 0.0
Co402 Co 0.26601 0.90352 0.31859 0.0
C403 C 0.26536 0.94511 0.35257 0.0
O404 O 0.28519 0.94062 0.36316 0.0
N405 N 0.25548 0.88604 0.34427 0.0
C406 C 0.24735 0.87196 0.37958 0.0
C407 C 0.25683 0.89031 0.36745 0.0
C408 C 0.24535 0.86484 0.34285 0.0
N409 N 0.24024 0.85592 0.36404 0.0
O410 O 0.23509 0.90356 0.30653 0.0
H411 H 0.26494 0.90519 0.37543 0.0
H412 H 0.24221 0.85586 0.32657 0.0
O413 O 0.25832 0.93217 0.33577 0.0
C414 C 0.23108 0.88801 0.29118 0.0
O415 O 0.24844 0.87473 0.28415 0.0
N416 N 0.29689 0.90154 0.32935 0.0
C417 C 0.34148 0.89302 0.34654 0.0
C418 C 0.33486 0.91566 0.33988 0.0
C419 C 0.31258 0.91943 0.33054 0.0
C420 C 0.30408 0.87919 0.33325 0.0
C421 C 0.32616 0.87455 0.34216 0.0
H422 H 0.30762 0.93681 0.32509 0.0
H423 H 0.2924 0.86477 0.32993 0.0
H424 H 0.25735 0.9531 0.29429 0.0
H425 H 0.30822 0.9295 0.24677 0.0
H426 H 0.24673 0.87008 0.39837 0.0
H427 H 0.34655 0.9303 0.34238 0.0
H428 H 0.33069 0.85676 0.3467 0.0
C429 C 0.34895 0.03914 0.52348 0.0
C430 C 0.33103 0.03945 0.5075 0.0
N431 N 0.31349 0.02643 0.51608 0.0
N432 N 0.34237 0.02644 0.54219 0.0
C433 C 0.3208 0.0186 0.53698 0.0
H434 H 0.36536 0.04831 0.52194 0.0
Co435 Co 0.35915 0.02351 0.56953 0.0
C436 C 0.3287 0.99678 0.60002 0.0
O437 O 0.34677 0.98309 0.60362 0.0
N438 N 0.37649 0.02113 0.59702 0.0
C439 C 0.38816 0.02286 0.63404 0.0
C440 C 0.37013 0.02743 0.61889 0.0
C441 C 0.39862 0.01346 0.59923 0.0
N442 N 0.40604 0.01417 0.62155 0.0
O443 O 0.36499 0.99189 0.56225 0.0
H444 H 0.35332 0.03461 0.62363 0.0
H445 H 0.40903 0.00708 0.58483 0.0
O446 O 0.33075 0.01448 0.58656 0.0
C447 C 0.38207 0.98778 0.5487 0.0
O448 O 0.39439 0.00537 0.54064 0.0
N449 N 0.35516 0.05473 0.57541 0.0
C450 C 0.36421 0.09839 0.59317 0.0
C451 C 0.34272 0.08754 0.5978 0.0
C452 C 0.3384 0.06539 0.58853 0.0
C453 C 0.37458 0.06638 0.56831 0.0
C454 C 0.37941 0.08846 0.57687 0.0
H455 H 0.3229 0.05605 0.59386 0.0
H456 H 0.38759 0.05741 0.55795 0.0
H457 H 0.31009 0.00837 0.54869 0.0
H458 H 0.33059 0.049 0.49121 0.0
H459 H 0.38819 0.02573 0.65271 0.0
H460 H 0.3307 0.0948 0.61049 0.0
H461 H 0.39613 0.09642 0.57301 0.0
C462 C 0.19578 0.07544 0.78767 0.0
C463 C 0.19086 0.05787 0.7721 0.0
N464 N 0.20794 0.04176 0.77347 0.0
N465 N 0.21568 0.07027 0.79915 0.0
C466 C 0.22286 0.04974 0.78993 0.0
H467 H 0.18561 0.09112 0.79025 0.0
Co468 Co 0.23015 0.08905 0.82134 0.0
C469 C 0.24122 0.05809 0.86097 0.0
O470 O 0.23217 0.0737 0.87517 0.0
N471 N 0.2458 0.10834 0.84329 0.0
C472 C 0.27555 0.12101 0.86497 0.0
C473 C 0.26765 0.10344 0.85087 0.0
C474 C 0.24118 0.1296 0.85263 0.0
N475 N 0.25892 0.13755 0.8661 0.0
O476 O 0.25842 0.08799 0.80383 0.0
H477 H 0.27766 0.08822 0.84585 0.0
H478 H 0.22557 0.13953 0.84916 0.0
O479 O 0.2404 0.06143 0.83887 0.0
C480 C 0.26158 0.10464 0.78948 0.0
O481 O 0.24432 0.11931 0.78576 0.0
N482 N 0.20153 0.09137 0.83762 0.0
C483 C 0.15922 0.10075 0.86025 0.0
C484 C 0.16917 0.0783 0.86095 0.0
C485 C 0.18996 0.07378 0.84883 0.0
C486 C 0.19086 0.11238 0.83465 0.0
C487 C 0.16987 0.11751 0.84586 0.0
H488 H 0.19681 0.05623 0.84879 0.0
H489 H 0.19877 0.12531 0.8234 0.0
H490 H 0.23866 0.0408 0.79521 0.0
H491 H 0.17609 0.0572 0.76032 0.0
H492 H 0.29276 0.1221 0.87271 0.0
H493 H 0.1614 0.06445 0.87116 0.0
H494 H 0.1622 0.1346 0.84334 0.0
C495 C 0.15972 0.9643 0.02114 0.0
C496 C 0.17917 0.9577 0.00861 0.0
N497 N 0.19667 0.97237 0.01414 0.0
N498 N 0.16525 0.98275 0.03468 0.0
C499 C 0.18774 0.98744 0.02979 0.0
H500 H 0.14282 0.95589 0.02082 0.0
Co501 Co 0.14674 0.99744 0.05652 0.0
C502 C 0.17735 0.00271 0.09837 0.0
O503 O 0.16044 0.99587 0.11232 0.0
N504 N 0.12791 0.01307 0.07848 0.0
C505 C 0.11642 0.04109 0.10288 0.0
C506 C 0.13394 0.03363 0.08839 0.0
C507 C 0.10621 0.00885 0.0868 0.0
N508 N 0.09899 0.02543 0.10189 0.0
O509 O 0.15233 0.02671 0.04207 0.0
H510 H 0.15012 0.04281 0.08516 0.0
H511 H 0.09552 0.99425 0.08185 0.0
O512 O 0.17409 0.00316 0.07628 0.0
C513 C 0.14604 0.03231 0.02158 0.0
O514 O 0.1365 0.01653 0.00795 0.0
N515 N 0.14077 0.9683 0.07005 0.0
C516 C 0.12801 0.92758 0.09272 0.0
C517 C 0.15142 0.93478 0.09243 0.0
C518 C 0.15754 0.95506 0.08059 0.0
C519 C 0.11904 0.95926 0.06657 0.0
C520 C 0.11195 0.9392 0.07841 0.0
H521 H 0.17565 0.96026 0.08034 0.0
H522 H 0.10681 0.96828 0.05536 0.0
H523 H 0.19761 0.00125 0.03804 0.0
H524 H 0.18041 0.94325 0.9965 0.0
H525 H 0.11624 0.05719 0.11277 0.0
H526 H 0.16472 0.92534 0.10202 0.0
H527 H 0.0939 0.93369 0.07735 0.0
C528 C 0.2242 0.28815 0.09238 0.0
C529 C 0.23739 0.29228 0.07276 0.0
N530 N 0.22859 0.27936 0.0552 0.0
N531 N 0.20702 0.27299 0.08704 0.0
C532 C 0.21033 0.26768 0.06434 0.0
H533 H 0.22649 0.29619 0.10931 0.0
Co534 Co 0.18322 0.26376 0.10686 0.0
C535 C 0.14561 0.267 0.06781 0.0
O536 O 0.13714 0.28793 0.07153 0.0
N537 N 0.1591 0.25447 0.12655 0.0
C538 C 0.12424 0.25105 0.14322 0.0
C539 C 0.13627 0.26021 0.12473 0.0
C540 C 0.1606 0.24212 0.14651 0.0
N541 N 0.13958 0.23977 0.15692 0.0
O542 O 0.19288 0.23209 0.10391 0.0
H543 H 0.12885 0.27134 0.11154 0.0
H544 H 0.17684 0.23541 0.15348 0.0
O545 O 0.16207 0.25874 0.08044 0.0
C546 C 0.21184 0.22751 0.11456 0.0
O547 O 0.2228 0.24435 0.1256 0.0
N548 N 0.17533 0.2949 0.11179 0.0
C549 C 0.15978 0.33819 0.12669 0.0
C550 C 0.16238 0.3335 0.10271 0.0
C551 C 0.17116 0.31182 0.09562 0.0
C552 C 0.1766 0.30058 0.13484 0.0
C553 C 0.16891 0.32214 0.14271 0.0
H554 H 0.17369 0.3083 0.07726 0.0
H555 H 0.18266 0.28783 0.14737 0.0
H556 H 0.19907 0.2562 0.05443 0.0
H557 H 0.2521 0.30405 0.07138 0.0
H558 H 0.10586 0.25348 0.14695 0.0
H559 H 0.15652 0.34573 0.08956 0.0
H560 H 0.16884 0.3256 0.16129 0.0
C561 C 0.72131 0.20405 0.92607 0.0
C562 C 0.73598 0.19856 0.94425 0.0
N563 N 0.73406 0.21539 0.96052 0.0
N564 N 0.70986 0.22401 0.93111 0.0
C565 C 0.71817 0.23065 0.95215 0.0
H566 H 0.7194 0.19427 0.91005 0.0
Co567 Co 0.68913 0.23975 0.91182 0.0
C568 C 0.64702 0.2485 0.94006 0.0
O569 O 0.6342 0.24178 0.92225 0.0
N570 N 0.66858 0.25671 0.89193 0.0
C571 C 0.64772 0.28695 0.87888 0.0
C572 C 0.66112 0.27857 0.89689 0.0
C573 C 0.65973 0.25252 0.87038 0.0
N574 N 0.64684 0.27052 0.86214 0.0
O575 O 0.70617 0.26753 0.91627 0.0
H576 H 0.66545 0.28808 0.91261 0.0
H577 H 0.66283 0.23686 0.86052 0.0
O578 O 0.66934 0.24772 0.93864 0.0
C579 C 0.72362 0.26984 0.9028 0.0
O580 O 0.72985 0.25201 0.88975 0.0
N581 N 0.67352 0.21164 0.90633 0.0
C582 C 0.65062 0.17137 0.89263 0.0
C583 C 0.64939 0.1789 0.91587 0.0
C584 C 0.66147 0.19896 0.92254 0.0
C585 C 0.67766 0.20251 0.88479 0.0
C586 C 0.66576 0.18276 0.87724 0.0
H587 H 0.66077 0.20444 0.94056 0.0
H588 H 0.68974 0.21115 0.87313 0.0
H589 H 0.71273 0.24637 0.96111 0.0
H590 H 0.74757 0.18366 0.94522 0.0
H591 H 0.64001 0.30416 0.87787 0.0
H592 H 0.63845 0.16999 0.92846 0.0
H593 H 0.66794 0.17677 0.85943 0.0
C594 C 0.04152 0.47265 0.16844 0.0
C595 C 0.04565 0.48763 0.18677 0.0
N596 N 0.03016 0.48277 0.20378 0.0
N597 N 0.02386 0.4582 0.17419 0.0
C598 C 0.01704 0.46504 0.19566 0.0
H599 H 0.05122 0.47182 0.15225 0.0
Co600 Co 0.01275 0.43344 0.15676 0.0
C601 C 0.01028 0.39558 0.19261 0.0
O602 O 0.02309 0.3818 0.17944 0.0
N603 N 0.00038 0.40888 0.13856 0.0
C604 C 0.97505 0.38221 0.1259 0.0
C605 C 0.98437 0.39282 0.14517 0.0
C606 C 0.9995 0.40831 0.11496 0.0
N607 N 0.98443 0.39208 0.10682 0.0
O608 O 0.98264 0.44659 0.15696 0.0
H609 H 0.97753 0.3906 0.16256 0.0
H610 H 0.00813 0.42094 0.10398 0.0
O611 O 0.0054 0.41622 0.18553 0.0
C612 C 0.97872 0.45919 0.13914 0.0
O613 O 0.99606 0.46366 0.12477 0.0
N614 N 0.04319 0.42134 0.15526 0.0
C615 C 0.08829 0.40412 0.14992 0.0
C616 C 0.07925 0.40853 0.17225 0.0
C617 C 0.05676 0.41763 0.17453 0.0
C618 C 0.05276 0.41967 0.13355 0.0
C619 C 0.07511 0.41067 0.13042 0.0
H620 H 0.05011 0.42135 0.19179 0.0
H621 H 0.04318 0.42544 0.11849 0.0
H622 H 0.00329 0.45664 0.20553 0.0
H623 H 0.0591 0.50086 0.18767 0.0
H624 H 0.96077 0.36984 0.12601 0.0
H625 H 0.08926 0.40451 0.18778 0.0
H626 H 0.08156 0.40804 0.11284 0.0
C627 C 0.77856 0.79606 0.41271 0.0
C628 C 0.76462 0.80092 0.43166 0.0
N629 N 0.7706 0.78624 0.449 0.0
N630 N 0.79344 0.7787 0.41837 0.0
C631 C 0.78796 0.77285 0.44047 0.0
H632 H 0.77835 0.80497 0.39607 0.0
Co633 Co 0.81703 0.76714 0.39972 0.0
C634 C 0.85268 0.76472 0.44045 0.0
O635 O 0.86385 0.7845 0.43769 0.0
N636 N 0.84087 0.75521 0.38089 0.0
C637 C 0.87559 0.74678 0.36572 0.0
C638 C 0.86416 0.75783 0.38362 0.0
C639 C 0.83858 0.74277 0.36102 0.0
N640 N 0.85947 0.73734 0.3515 0.0
O641 O 0.80376 0.73707 0.40134 0.0
H642 H 0.87243 0.76792 0.39717 0.0
H643 H 0.8219 0.73808 0.35352 0.0
O644 O 0.83593 0.75891 0.4269 0.0
C645 C 0.78632 0.73373 0.38804 0.0
O646 O 0.7779 0.7515 0.37623 0.0
N647 N 0.82895 0.79709 0.39638 0.0
C648 C 0.84996 0.83889 0.38474 0.0
C649 C 0.8449 0.83379 0.40817 0.0
C650 C 0.83354 0.81288 0.41358 0.0
C651 C 0.8304 0.80352 0.37356 0.0
C652 C 0.84098 0.82432 0.36731 0.0
H653 H 0.8293 0.80895 0.43154 0.0
H654 H 0.82418 0.79192 0.36004 0.0
H655 H 0.79697 0.75953 0.45039 0.0
H656 H 0.75122 0.81423 0.43269 0.0
H657 H 0.89428 0.74664 0.3628 0.0
H658 H 0.85074 0.84507 0.42216 0.0
H659 H 0.84329 0.82831 0.34897 0.0
C660 C 0.95262 0.03735 0.17564 0.0
C661 C 0.94882 0.02268 0.1942 0.0
N662 N 0.96472 0.02759 0.21078 0.0
N663 N 0.97063 0.05165 0.18062 0.0
C664 C 0.97789 0.04508 0.20207 0.0
H665 H 0.94253 0.03803 0.1597 0.0
Co666 Co 0.97973 0.07545 0.16071 0.0
C667 C 0.99751 0.11257 0.19374 0.0
O668 O 0.9856 0.12932 0.18371 0.0
N669 N 0.98879 0.09927 0.13895 0.0
C670 C 0.99049 0.13144 0.11691 0.0
C671 C 0.98003 0.12102 0.13583 0.0
C672 C 0.00405 0.09683 0.12092 0.0
N673 N 0.00554 0.11613 0.10747 0.0
O674 O 0.00802 0.05969 0.15505 0.0
H675 H 0.96604 0.12872 0.14588 0.0
H676 H 0.01359 0.08103 0.11714 0.0
O677 O 0.99572 0.09155 0.18644 0.0
C678 C 0.00936 0.04185 0.14196 0.0
O679 O 0.99024 0.03341 0.13252 0.0
N680 N 0.95121 0.09003 0.1664 0.0
C681 C 0.90708 0.10954 0.17129 0.0
C682 C 0.92197 0.10772 0.19059 0.0
C683 C 0.94386 0.09732 0.18789 0.0
C684 C 0.93636 0.09019 0.14786 0.0
C685 C 0.91425 0.10008 0.14986 0.0
H686 H 0.95482 0.09513 0.20306 0.0
H687 H 0.94202 0.0831 0.1313 0.0
H688 H 0.99194 0.05342 0.21146 0.0
H689 H 0.93529 0.00956 0.19552 0.0
H690 H 0.98639 0.14849 0.10986 0.0
H691 H 0.9168 0.11446 0.20749 0.0
H692 H 0.90329 0.10122 0.13449 0.0
C693 C 0.28022 0.71028 0.57102 0.0
C694 C 0.26721 0.70343 0.55206 0.0
N695 N 0.27142 0.71846 0.53452 0.0
N696 N 0.29288 0.72926 0.56524 0.0
C697 C 0.28693 0.73403 0.54296 0.0
H698 H 0.28045 0.70194 0.58794 0.0
Co699 Co 0.31338 0.74502 0.5846 0.0
C700 C 0.35636 0.75252 0.55718 0.0
O701 O 0.36854 0.74535 0.57527 0.0
N702 N 0.33377 0.76191 0.60442 0.0
C703 C 0.35505 0.79193 0.61709 0.0
C704 C 0.34166 0.78353 0.59913 0.0
C705 C 0.34235 0.75788 0.62607 0.0
N706 N 0.35548 0.77575 0.63407 0.0
O707 O 0.29675 0.77305 0.5794 0.0
H708 H 0.33765 0.79284 0.58321 0.0
H709 H 0.33889 0.74244 0.63616 0.0
O710 O 0.33398 0.75229 0.55805 0.0
C711 C 0.28099 0.77656 0.59462 0.0
O712 O 0.27646 0.75989 0.60972 0.0
N713 N 0.32835 0.71669 0.59093 0.0
C714 C 0.34945 0.6754 0.60503 0.0
C715 C 0.35124 0.68299 0.58179 0.0
C716 C 0.3401 0.7035 0.57494 0.0
C717 C 0.3236 0.70777 0.61246 0.0
C718 C 0.33451 0.68745 0.62018 0.0
H719 H 0.34111 0.70881 0.55689 0.0
H720 H 0.3117 0.7169 0.62394 0.0
H721 H 0.29399 0.74847 0.53303 0.0
H722 H 0.25532 0.68877 0.55129 0.0
H723 H 0.36303 0.80902 0.61792 0.0
H724 H 0.3615 0.67338 0.56912 0.0
H725 H 0.33198 0.68184 0.63805 0.0
C726 C 0.03413 0.52972 0.33182 0.0
C727 C 0.04 0.51538 0.31346 0.0
N728 N 0.02594 0.52064 0.29537 0.0
N729 N 0.0168 0.54416 0.32508 0.0
C730 C 0.0119 0.53795 0.30291 0.0
H731 H 0.04247 0.53017 0.34876 0.0
Co732 Co 0.00465 0.56835 0.34271 0.0
C733 C 0.00091 0.6068 0.30746 0.0
O734 O 0.01244 0.6211 0.32121 0.0
N735 N 0.99143 0.59223 0.36132 0.0
C736 C 0.96549 0.61821 0.37429 0.0
C737 C 0.97484 0.60781 0.35491 0.0
C738 C 0.99084 0.59283 0.38496 0.0
N739 N 0.9754 0.60862 0.39326 0.0
O740 O 0.97515 0.5544 0.34196 0.0
H741 H 0.96792 0.61001 0.33755 0.0
H742 H -0.00039 0.58027 0.39595 0.0
O743 O 0.99707 0.58578 0.31404 0.0
C744 C 0.97182 0.5413 0.35951 0.0
O745 O 0.98936 0.53722 0.37374 0.0
N746 N 0.03457 0.58116 0.34466 0.0
C747 C 0.08028 0.59631 0.35055 0.0
C748 C 0.07092 0.59361 0.3281 0.0
C749 C 0.0481 0.58561 0.32551 0.0
C750 C 0.0442 0.5816 0.36639 0.0
C751 C 0.06686 0.58956 0.36981 0.0
H752 H 0.04139 0.58277 0.30812 0.0
H753 H 0.03454 0.57527 0.38118 0.0
H754 H 0.99893 0.54652 0.29218 0.0
H755 H 0.05367 0.50232 0.31329 0.0
H756 H 0.95144 0.63086 0.37435 0.0
H757 H 0.08106 0.59785 0.31271 0.0
H758 H 0.07352 0.59099 0.38745 0.0
C759 C 0.45676 0.45995 0.82663 0.0
C760 C 0.45062 0.47509 0.80904 0.0
N761 N 0.46491 0.47126 0.79076 0.0
N762 N 0.47456 0.44638 0.81929 0.0
C763 C 0.47936 0.45388 0.79746 0.0
H764 H 0.44866 0.4588 0.84365 0.0
Co765 Co 0.48882 0.4228 0.83628 0.0
C766 C 0.49278 0.38316 0.80361 0.0
O767 O 0.48392 0.3695 0.81979 0.0
N768 N 0.50426 0.39918 0.8537 0.0
C769 C 0.53222 0.3741 0.86391 0.0
C770 C 0.52381 0.38808 0.84644 0.0
C771 C 0.50191 0.39233 0.87619 0.0
N772 N 0.5185 0.37683 0.88281 0.0
O773 O 0.51797 0.43811 0.83327 0.0
H774 H 0.53214 0.3907 0.82971 0.0
H775 H 0.48947 0.39982 0.8881 0.0
O776 O 0.49474 0.40508 0.80751 0.0
C777 C 0.52181 0.44911 0.85218 0.0
O778 O 0.50533 0.44946 0.86816 0.0
N779 N 0.45951 0.40917 0.84112 0.0
C780 C 0.41694 0.39011 0.85489 0.0
C781 C 0.42363 0.39006 0.83124 0.0
C782 C 0.44488 0.40014 0.82463 0.0
C783 C 0.45176 0.41226 0.86335 0.0
C784 C 0.43098 0.40223 0.87084 0.0
H785 H 0.44957 0.40052 0.80637 0.0
H786 H 0.46187 0.4226 0.87542 0.0
H787 H 0.49291 0.44649 0.78654 0.0
H788 H 0.43686 0.48804 0.80967 0.0
H789 H 0.5478 0.36349 0.86283 0.0
H790 H 0.41271 0.38217 0.818 0.0
H791 H 0.42651 0.40345 0.88915 0.0
C792 C 0.57358 0.72006 0.78883 0.0
C793 C 0.55465 0.73355 0.795 0.0
N794 N 0.53772 0.73037 0.77899 0.0
N795 N 0.56849 0.70809 0.76921 0.0
C796 C 0.54659 0.71493 0.76349 0.0
H797 H 0.59005 0.7191 0.79803 0.0
Co798 Co 0.58814 0.68747 0.75324 0.0
C799 C 0.56041 0.64451 0.74721 0.0
O800 O 0.57867 0.63215 0.75362 0.0
N801 N 0.60794 0.66686 0.73588 0.0
C802 C 0.61857 0.64484 0.70549 0.0
C803 C 0.6013 0.65855 0.71478 0.0
C804 C 0.62994 0.65832 0.73855 0.0
N805 N 0.63663 0.64464 0.72045 0.0
O806 O 0.58241 0.70372 0.72514 0.0
H807 H 0.58478 0.66234 0.70644 0.0
H808 H 0.64116 0.66204 0.75317 0.0
O809 O 0.56158 0.66683 0.74696 0.0
C810 C 0.59615 0.7209 0.72243 0.0
O811 O 0.60863 0.72777 0.74042 0.0
N812 N 0.5952 0.67268 0.78151 0.0
C813 C 0.61043 0.65088 0.82213 0.0
C814 C 0.58674 0.6502 0.81566 0.0
C815 C 0.5794 0.66153 0.79541 0.0
C816 C 0.61733 0.67642 0.78934 0.0
C817 C 0.6256 0.66509 0.80923 0.0
H818 H 0.56109 0.66116 0.79085 0.0
H819 H 0.62884 0.68786 0.77971 0.0
H820 H 0.53726 0.70857 0.74834 0.0
H821 H 0.55356 0.74513 0.8099 0.0
H822 H 0.61814 0.63629 0.68865 0.0
H823 H 0.57404 0.64068 0.82592 0.0
H824 H 0.64384 0.66684 0.81383 0.0
C825 C 0.52955 0.33135 0.0417 0.0
C826 C 0.51422 0.31347 0.04623 0.0
N827 N 0.51919 0.2957 0.03169 0.0
N828 N 0.54442 0.3247 0.02469 0.0
C829 C 0.53749 0.30295 0.0187 0.0
H830 H 0.53011 0.34805 0.05049 0.0
Co831 Co 0.56884 0.34282 0.01325 0.0
C832 C 0.60482 0.30211 0.0137 0.0
O833 O 0.6167 0.30716 0.03263 0.0
N834 N 0.59337 0.36126 0.00145 0.0
C835 C 0.62847 0.37624 0.9942 0.0
C836 C 0.61657 0.35829 0.00457 0.0
C837 C 0.59164 0.38147 0.98936 0.0
N838 N 0.61281 0.39089 0.98468 0.0
O839 O 0.55698 0.33987 0.98256 0.0
H840 H 0.62457 0.34475 0.01478 0.0
H841 H 0.57514 0.38937 0.98457 0.0
O842 O 0.58764 0.31488 0.00726 0.0
C843 C 0.53854 0.35103 0.97723 0.0
O844 O 0.52724 0.36244 0.99362 0.0
N845 N 0.57968 0.34752 0.04357 0.0
C846 C 0.60106 0.36145 0.08465 0.0
C847 C 0.59651 0.33769 0.0805 0.0
C848 C 0.58497 0.33112 0.05996 0.0
C849 C 0.58064 0.37061 0.04907 0.0
C850 C 0.59133 0.37799 0.06949 0.0
H851 H 0.58135 0.3129 0.05669 0.0
H852 H 0.57407 0.38347 0.03692 0.0
H853 H 0.54602 0.29242 0.00552 0.0
H854 H 0.5005 0.31345 0.05925 0.0
H855 H 0.64717 0.37898 0.99476 0.0
H856 H 0.6029 0.32428 0.09218 0.0
H857 H 0.59307 0.39653 0.07271 0.0
C858 C 0.92955 0.27507 0.29493 0.0
C859 C 0.94788 0.26115 0.30174 0.0
N860 N 0.96629 0.26573 0.28785 0.0
N861 N 0.93638 0.28873 0.27703 0.0
C862 C 0.95884 0.28242 0.27288 0.0
H863 H 0.91226 0.27512 0.30251 0.0
Co864 Co 0.9172 0.31045 0.26196 0.0
C865 C 0.94593 0.35312 0.25644 0.0
O866 O 0.92835 0.36594 0.26379 0.0
N867 N 0.89778 0.33198 0.24599 0.0
C868 C 0.8856 0.35573 0.21764 0.0
C869 C 0.9034 0.34157 0.22515 0.0
C870 C 0.87606 0.34028 0.25038 0.0
N871 N 0.86836 0.35494 0.23357 0.0
O872 O 0.92299 0.29565 0.23249 0.0
H873 H 0.91952 0.33836 0.21583 0.0
H874 H 0.86572 0.33557 0.26531 0.0
O875 O 0.9441 0.33085 0.25629 0.0
C876 C 0.91231 0.27686 0.2274 0.0
O877 O 0.90023 0.26616 0.2437 0.0
N878 N 0.90998 0.32409 0.29126 0.0
C879 C 0.89157 0.34571 0.3309 0.0
C880 C 0.91511 0.34894 0.32462 0.0
C881 C 0.92416 0.33749 0.30495 0.0
C882 C 0.88831 0.31815 0.29911 0.0
C883 C 0.8785 0.32919 0.3185 0.0
H884 H 0.94229 0.34001 0.30047 0.0
H885 H 0.87804 0.30562 0.28941 0.0
H886 H 0.96955 0.29005 0.25931 0.0
H887 H 0.94758 0.24834 0.31563 0.0
H888 H 0.88511 0.36519 0.2013 0.0
H889 H 0.92617 0.36092 0.33417 0.0
H890 H 0.86065 0.32524 0.32337 0.0
C891 C 0.95832 0.66377 0.53816 0.0
C892 C 0.97511 0.68058 0.54094 0.0
N893 N 0.96927 0.69901 0.52776 0.0
N894 N 0.94144 0.67144 0.52343 0.0
C895 C 0.949 0.69309 0.51718 0.0
H896 H 0.95862 0.647 0.54674 0.0
Co897 Co 0.91296 0.65551 0.51531 0.0
C898 C 0.89365 0.69631 0.50148 0.0
O899 O 0.89015 0.6979 0.52409 0.0
N900 N 0.88512 0.64007 0.50758 0.0
C901 C 0.85028 0.62408 0.51375 0.0
C902 C 0.86547 0.64147 0.52048 0.0
C903 C 0.88123 0.6221 0.49268 0.0
N904 N 0.86024 0.61196 0.49623 0.0
O905 O 0.9292 0.63925 0.49078 0.0
H906 H 0.86318 0.65315 0.53514 0.0
H907 H 0.89433 0.61497 0.4811 0.0
O908 O 0.9052 0.67911 0.49344 0.0
C909 C 0.94858 0.62873 0.48769 0.0
O910 O 0.96307 0.62571 0.50518 0.0
N911 N 0.91807 0.63266 0.53787 0.0
C912 C 0.90326 0.60312 0.57346 0.0
C913 C 0.906 0.62711 0.57744 0.0
C914 C 0.91304 0.64157 0.55931 0.0
C915 C 0.91787 0.60912 0.53413 0.0
C916 C 0.91042 0.59396 0.55183 0.0
H917 H 0.91213 0.66028 0.56164 0.0
H918 H 0.92074 0.60215 0.51686 0.0
H919 H 0.9396 0.70476 0.50573 0.0
H920 H 0.99036 0.67947 0.55207 0.0
H921 H 0.83384 0.61975 0.52202 0.0
H922 H 0.90022 0.63514 0.59356 0.0
H923 H 0.90844 0.57556 0.548 0.0
C924 C 0.58309 0.26801 0.71018 0.0
C925 C 0.56441 0.25317 0.70715 0.0
N926 N 0.54716 0.26008 0.72158 0.0
N927 N 0.57735 0.28441 0.72607 0.0
C928 C 0.55551 0.27885 0.733 0.0
H929 H 0.59939 0.26757 0.70064 0.0
Co930 Co 0.59489 0.31058 0.73384 0.0
C931 C 0.55254 0.3441 0.73307 0.0
O932 O 0.55636 0.35458 0.71306 0.0
N933 N 0.61256 0.33697 0.74198 0.0
C934 C 0.62674 0.37299 0.74487 0.0
C935 C 0.60875 0.35959 0.73652 0.0
C936 C 0.63318 0.33708 0.75341 0.0
N937 N 0.64215 0.35879 0.75543 0.0
O938 O 0.5955 0.30091 0.76567 0.0
H939 H 0.59459 0.36607 0.72608 0.0
H940 H 0.6417 0.32146 0.75969 0.0
O941 O 0.56634 0.32817 0.74047 0.0
C942 C 0.61032 0.28489 0.76995 0.0
O943 O 0.62176 0.27559 0.75235 0.0
N944 N 0.59636 0.31891 0.70233 0.0
C945 C 0.60517 0.33161 0.65626 0.0
C946 C 0.5823 0.32648 0.66367 0.0
C947 C 0.57831 0.3197 0.68681 0.0
C948 C 0.61878 0.32134 0.69473 0.0
C949 C 0.62357 0.32814 0.67199 0.0
H950 H 0.56078 0.3154 0.69235 0.0
H951 H 0.63317 0.31855 0.70662 0.0
H952 H 0.54542 0.28902 0.74529 0.0
H953 H 0.56333 0.23882 0.69491 0.0
H954 H 0.62889 0.39158 0.7423 0.0
H955 H 0.56763 0.32809 0.65185 0.0
H956 H 0.64153 0.33168 0.66724 0.0
C957 C 0.98023 0.34207 0.97538 0.0
C958 C 0.99511 0.32326 0.975 0.0
N959 N 0.98219 0.3036 0.97536 0.0
N960 N 0.95803 0.33438 0.97616 0.0
C961 C 0.95973 0.31087 0.97596 0.0
H962 H 0.98527 0.36024 0.9751 0.0
Co963 Co 0.93234 0.35393 0.9767 0.0
C964 C 0.8907 0.32484 0.99015 0.0
O965 O 0.87564 0.34019 0.98228 0.0
N966 N 0.90629 0.37504 0.977 0.0
C967 C 0.8767 0.39776 0.96557 0.0
C968 C 0.89254 0.38129 0.95876 0.0
C969 C 0.89801 0.38829 0.99486 0.0
N970 N 0.8802 0.4023 0.98825 0.0
O971 O 0.93894 0.36065 0.00835 0.0
H972 H 0.89354 0.37468 0.94127 0.0
H973 H 0.90532 0.38843 0.01224 0.0
O974 O 0.91266 0.32812 0.98757 0.0
C975 C 0.95176 0.37811 0.01319 0.0
O976 O 0.95819 0.39227 0.99634 0.0
N977 N 0.9278 0.34786 0.94528 0.0
C978 C 0.91403 0.35576 0.89991 0.0
C979 C 0.90552 0.33623 0.91206 0.0
C980 C 0.91281 0.33244 0.93507 0.0
C981 C 0.93929 0.36413 0.93232 0.0
C982 C 0.93254 0.36851 0.90944 0.0
H983 H 0.90454 0.31887 0.94517 0.0
H984 H 0.95157 0.37573 0.94076 0.0
H985 H 0.94482 0.29933 0.97579 0.0
H986 H 0.01399 0.32408 0.97484 0.0
H987 H 0.8639 0.40618 0.95448 0.0
H988 H 0.89128 0.32595 0.90506 0.0
H989 H 0.93956 0.38359 0.90044 0.0
C990 C 0.91275 0.72637 0.21475 0.0
C991 C 0.93003 0.74287 0.21274 0.0
N992 N 0.94986 0.73378 0.22145 0.0
N993 N 0.92172 0.70687 0.22439 0.0
C994 C 0.94443 0.71196 0.22846 0.0
H995 H 0.89497 0.72806 0.2086 0.0
Co996 Co 0.90475 0.67938 0.22668 0.0
C997 C 0.9419 0.64225 0.234 0.0
O998 O 0.93353 0.62794 0.21824 0.0
N999 N 0.8866 0.65127 0.22858 0.0
C1000 C 0.86826 0.61836 0.21835 0.0
C1001 C 0.88544 0.63387 0.21252 0.0
C1002 C 0.86971 0.64548 0.24417 0.0
N1003 N 0.85836 0.62569 0.23822 0.0
O1004 O 0.89857 0.68618 0.2584 0.0
H1005 H 0.89566 0.63267 0.19676 0.0
H1006 H 0.86464 0.65617 0.25884 0.0
O1007 O 0.9326 0.66233 0.23706 0.0
C1008 C 0.88094 0.6993 0.26172 0.0
O1009 O 0.86831 0.70565 0.24365 0.0
N1010 N 0.90934 0.67468 0.19512 0.0
C1011 C 0.90308 0.65827 0.1503 0.0
C1012 C 0.92542 0.65774 0.16069 0.0
C1013 C 0.92828 0.66638 0.18337 0.0
C1014 C 0.88909 0.67952 0.18369 0.0
C1015 C 0.88545 0.67127 0.16123 0.0
H1016 H 0.94496 0.66462 0.192 0.0
H1017 H 0.87469 0.6873 0.19316 0.0
H1018 H 0.95707 0.69962 0.23515 0.0
H1019 H 0.9284 0.75997 0.20487 0.0
H1020 H 0.86274 0.60339 0.20821 0.0
H1021 H 0.93987 0.64884 0.15233 0.0
H1022 H 0.86804 0.67256 0.15396 0.0
C1023 C 0.53295 0.66679 0.45605 0.0
C1024 C 0.51835 0.6852 0.45098 0.0
N1025 N 0.52284 0.7025 0.46624 0.0
N1026 N 0.54683 0.67272 0.47411 0.0
C1027 C 0.54003 0.69445 0.48017 0.0
H1028 H 0.53387 0.65036 0.4468 0.0
Co1029 Co 0.57075 0.65476 0.48642 0.0
C1030 C 0.60897 0.69012 0.49071 0.0
O1031 O 0.62333 0.67693 0.47856 0.0
N1032 N 0.59448 0.636 0.49981 0.0
C1033 C 0.62175 0.62245 0.5241 0.0
C1034 C 0.61087 0.64205 0.51573 0.0
C1035 C 0.595 0.61239 0.49999 0.0
N1036 N 0.61167 0.6037 0.51425 0.0
O1037 O 0.55614 0.6552 0.51585 0.0
H1038 H 0.61366 0.65931 0.52264 0.0
H1039 H 0.582 0.60169 0.49153 0.0
O1040 O 0.58808 0.68314 0.49456 0.0
C1041 C 0.54283 0.63768 0.51868 0.0
O1042 O 0.53923 0.62363 0.5009 0.0
N1043 N 0.5842 0.65287 0.45661 0.0
C1044 C 0.60326 0.64557 0.4125 0.0
C1045 C 0.59981 0.66832 0.42095 0.0
C1046 C 0.58973 0.67161 0.44293 0.0
C1047 C 0.58494 0.63097 0.44747 0.0
C1048 C 0.59492 0.62683 0.42578 0.0
H1049 H 0.58662 0.68918 0.44907 0.0
H1050 H 0.57753 0.61654 0.45686 0.0
H1051 H 0.54803 0.70451 0.49401 0.0
H1052 H 0.50558 0.68592 0.43707 0.0
H1053 H 0.63527 0.62213 0.53728 0.0
H1054 H 0.60505 0.68339 0.41082 0.0
H1055 H 0.59669 0.60895 0.41993 0.0
C1056 C 0.784 0.57206 0.70731 0.0
C1057 C 0.79 0.55473 0.72275 0.0
N1058 N 0.7765 0.53604 0.71828 0.0
N1059 N 0.76706 0.56416 0.69302 0.0
C1060 C 0.76261 0.54222 0.70029 0.0
H1061 H 0.7919 0.58915 0.70609 0.0
Co1062 Co 0.75582 0.58115 0.66815 0.0
C1063 C 0.742 0.54612 0.63262 0.0
O1064 O 0.75295 0.55841 0.61662 0.0
N1065 N 0.74401 0.59934 0.64348 0.0
C1066 C 0.7179 0.6152 0.61942 0.0
C1067 C 0.72298 0.5963 0.63318 0.0
C1068 C 0.75087 0.62074 0.6363 0.0
N1069 N 0.7354 0.63069 0.62151 0.0
O1070 O 0.72705 0.58638 0.68425 0.0
H1071 H 0.71111 0.58209 0.63682 0.0
H1072 H 0.76594 0.62971 0.64305 0.0
O1073 O 0.74236 0.55287 0.65394 0.0
C1074 C 0.72558 0.60472 0.69674 0.0
O1075 O 0.74434 0.61763 0.69954 0.0
N1076 N 0.78499 0.57703 0.6532 0.0
C1077 C 0.82933 0.57581 0.63302 0.0
C1078 C 0.81579 0.55551 0.63436 0.0
C1079 C 0.79397 0.5563 0.64539 0.0
C1080 C 0.79893 0.59626 0.65399 0.0
C1081 C 0.82098 0.59617 0.64369 0.0
H1082 H 0.78447 0.54021 0.64764 0.0
H1083 H 0.79306 0.6117 0.66305 0.0
H1084 H 0.75014 0.53065 0.69208 0.0
H1085 H 0.80336 0.55566 0.73608 0.0
H1086 H 0.70159 0.61819 0.61034 0.0
H1087 H 0.82209 0.5392 0.62714 0.0
H1088 H 0.83117 0.6121 0.64361 0.0
C1089 C 0.666 0.53774 0.96599 0.0
C1090 C 0.68351 0.54172 0.98189 0.0
N1091 N 0.70241 0.52946 0.9752 0.0
N1092 N 0.67395 0.52332 0.94916 0.0
C1093 C 0.69618 0.51832 0.95538 0.0
H1094 H 0.64871 0.54535 0.96631 0.0
Co1095 Co 0.65638 0.51542 0.92312 0.0
C1096 C 0.69377 0.50815 0.88595 0.0
O1097 O 0.68413 0.52216 0.87065 0.0
N1098 N 0.63771 0.50765 0.89658 0.0
C1099 C 0.61818 0.50972 0.86284 0.0
C1100 C 0.63527 0.51964 0.87631 0.0
C1101 C 0.62137 0.49066 0.8949 0.0
N1102 N 0.60932 0.49159 0.87466 0.0
O1103 O 0.6536 0.4843 0.93465 0.0
H1104 H 0.64404 0.5357 0.87194 0.0
H1105 H 0.61748 0.47833 0.90856 0.0
O1106 O 0.68472 0.50567 0.90624 0.0
C1107 C 0.63723 0.48142 0.94945 0.0
O1108 O 0.62452 0.49956 0.95548 0.0
N1109 N 0.65729 0.54636 0.91363 0.0
C1110 C 0.64589 0.58815 0.89265 0.0
C1111 C 0.66915 0.58027 0.89246 0.0
C1112 C 0.67469 0.55923 0.90371 0.0
C1113 C 0.63573 0.55574 0.91716 0.0
C1114 C 0.62959 0.57664 0.9067 0.0
H1115 H 0.69233 0.55259 0.90296 0.0
H1116 H 0.62257 0.5457 0.92626 0.0
H1117 H 0.70786 0.50748 0.94523 0.0
H1118 H 0.68255 0.55294 0.99706 0.0
H1119 H 0.61151 0.51647 0.8465 0.0
H1120 H 0.68234 0.58915 0.88222 0.0
H1121 H 0.61165 0.58262 0.90779 0.0
C1122 C 0.71098 0.41387 0.22173 0.0
C1123 C 0.70422 0.43237 0.2355 0.0
N1124 N 0.71878 0.45031 0.23121 0.0
N1125 N 0.72942 0.42038 0.20861 0.0
C1126 C 0.73396 0.44255 0.21499 0.0
H1127 H 0.70277 0.39689 0.22099 0.0
Co1128 Co 0.74451 0.40268 0.18629 0.0
C1129 C 0.74832 0.4347 0.14567 0.0
O1130 O 0.74019 0.41802 0.13218 0.0
N1131 N 0.7609 0.38438 0.16429 0.0
C1132 C 0.79016 0.3733 0.14113 0.0
C1133 C 0.77968 0.3918 0.15201 0.0
C1134 C 0.7613 0.36092 0.16153 0.0
N1135 N 0.77867 0.35378 0.14721 0.0
O1136 O 0.77322 0.40647 0.20217 0.0
H1137 H 0.78654 0.40935 0.15215 0.0
H1138 H 0.7506 0.34901 0.17141 0.0
O1139 O 0.75074 0.43102 0.16761 0.0
C1140 C 0.77657 0.39066 0.21737 0.0
O1141 O 0.7591 0.37675 0.22263 0.0
N1142 N 0.71556 0.39767 0.17151 0.0
C1143 C 0.67321 0.38769 0.14991 0.0
C1144 C 0.68053 0.41086 0.15277 0.0
C1145 C 0.70155 0.41551 0.16412 0.0
C1146 C 0.70722 0.3754 0.17155 0.0
C1147 C 0.68633 0.36989 0.16033 0.0
H1148 H 0.70663 0.43346 0.16674 0.0
H1149 H 0.71654 0.36184 0.18058 0.0
H1150 H 0.7478 0.45299 0.20748 0.0
H1151 H 0.68981 0.43261 0.24774 0.0
H1152 H 0.80561 0.37417 0.13028 0.0
H1153 H 0.67027 0.42524 0.14603 0.0
H1154 H 0.68093 0.35181 0.15927 0.0
C1155 C 0.8211 0.45382 0.46712 0.0
C1156 C 0.80257 0.44846 0.48149 0.0
N1157 N 0.78523 0.46373 0.47713 0.0
N1158 N 0.81519 0.47208 0.45348 0.0
C1159 C 0.79335 0.47795 0.46023 0.0
H1160 H 0.83751 0.44452 0.46607 0.0
Co1161 Co 0.83281 0.48459 0.42925 0.0
C1162 C 0.79032 0.48536 0.3954 0.0
O1163 O 0.79358 0.46603 0.38355 0.0
N1164 N 0.85002 0.49729 0.40481 0.0
C1165 C 0.8638 0.50492 0.3694 0.0
C1166 C 0.84579 0.4952 0.3817 0.0
C1167 C 0.8708 0.50824 0.40612 0.0
N1168 N 0.8796 0.51295 0.38476 0.0
O1169 O 0.83024 0.51543 0.44269 0.0
H1170 H 0.83147 0.48581 0.37401 0.0
H1171 H 0.87971 0.5117 0.42242 0.0
O1172 O 0.8045 0.49125 0.41157 0.0
C1173 C 0.83968 0.52007 0.46232 0.0
O1174 O 0.84935 0.50313 0.47436 0.0
N1175 N 0.8377 0.45438 0.41678 0.0
C1176 C 0.85252 0.41289 0.39565 0.0
C1177 C 0.82868 0.4168 0.40046 0.0
C1178 C 0.82168 0.4375 0.41168 0.0
C1179 C 0.86094 0.44962 0.41456 0.0
C1180 C 0.8687 0.42936 0.40366 0.0
H1181 H 0.80349 0.44006 0.41603 0.0
H1182 H 0.87373 0.46207 0.42064 0.0
H1183 H 0.78319 0.49174 0.45224 0.0
H1184 H 0.80171 0.43422 0.49387 0.0
H1185 H 0.86589 0.50457 0.35062 0.0
H1186 H 0.81561 0.40408 0.39552 0.0
H1187 H 0.88726 0.42721 0.40075 0.0
C1188 C 0.7944 0.41381 0.77632 0.0
C1189 C 0.79825 0.43111 0.76012 0.0
N1190 N 0.78262 0.44825 0.76393 0.0
N1191 N 0.77675 0.42035 0.79051 0.0
C1192 C 0.76971 0.44126 0.7823 0.0
H1193 H 0.80404 0.39766 0.77783 0.0
Co1194 Co 0.76509 0.40417 0.81589 0.0
C1195 C 0.75957 0.43934 0.85345 0.0
O1196 O 0.76975 0.42512 0.86831 0.0
N1197 N 0.75237 0.38767 0.84146 0.0
C1198 C 0.72589 0.37682 0.86779 0.0
C1199 C 0.73169 0.39325 0.85143 0.0
C1200 C 0.75851 0.36741 0.85191 0.0
N1201 N 0.74276 0.36047 0.86804 0.0
O1202 O 0.73507 0.40421 0.80206 0.0
H1203 H 0.72095 0.40796 0.84644 0.0
H1204 H 0.77363 0.35727 0.84729 0.0
O1205 O 0.75791 0.43355 0.83193 0.0
C1206 C 0.73184 0.38515 0.79116 0.0
O1207 O 0.74918 0.37013 0.79002 0.0
N1208 N 0.79526 0.40218 0.82791 0.0
C1209 C 0.84058 0.39175 0.84244 0.0
C1210 C 0.83204 0.41485 0.84323 0.0
C1211 C 0.8093 0.41975 0.83567 0.0
C1212 C 0.80427 0.38055 0.82418 0.0
C1213 C 0.82644 0.37469 0.83203 0.0
H1214 H 0.80317 0.43757 0.83584 0.0
H1215 H 0.79386 0.36753 0.81534 0.0
H1216 H 0.75575 0.45144 0.78997 0.0
H1217 H 0.81145 0.43111 0.74658 0.0
H1218 H 0.70973 0.3762 0.87757 0.0
H1219 H 0.84268 0.42903 0.84973 0.0
H1220 H 0.83186 0.35668 0.83053 0.0
C1221 C 0.82584 0.54361 0.03195 0.0
C1222 C 0.80798 0.54812 0.01655 0.0
N1223 N 0.79092 0.53242 0.0203 0.0
N1224 N 0.81982 0.52543 0.04565 0.0
C1225 C 0.79854 0.51879 0.03793 0.0
H1226 H 0.84209 0.55313 0.03326 0.0
Co1227 Co 0.83762 0.51283 0.06982 0.0
C1228 C 0.79585 0.51301 0.10463 0.0
O1229 O 0.80004 0.53212 0.11654 0.0
N1230 N 0.85527 0.50007 0.09429 0.0
C1231 C 0.8695 0.49262 0.1296 0.0
C1232 C 0.85119 0.50198 0.11744 0.0
C1233 C 0.87636 0.48959 0.09286 0.0
N1234 N 0.88543 0.485 0.11415 0.0
O1235 O 0.83478 0.48263 0.05649 0.0
H1236 H 0.83677 0.51102 0.12533 0.0
H1237 H 0.88534 0.48644 0.07654 0.0
O1238 O 0.80939 0.50682 0.088 0.0
C1239 C 0.84891 0.48144 0.03937 0.0
O1240 O 0.86112 0.50003 0.03377 0.0
N1241 N 0.84351 0.54265 0.08118 0.0
C1242 C 0.86356 0.58437 0.09551 0.0
C1243 C 0.8391 0.58175 0.09537 0.0
C1244 C 0.82929 0.56071 0.08745 0.0
C1245 C 0.86693 0.54612 0.0788 0.0
C1246 C 0.87733 0.56664 0.08603 0.0
H1247 H 0.81056 0.55908 0.08605 0.0
H1248 H 0.87776 0.53264 0.07125 0.0
H1249 H 0.78861 0.50456 0.04539 0.0
H1250 H 0.80755 0.56183 0.00355 0.0
H1251 H 0.87168 0.49299 0.14837 0.0
H1252 H 0.82779 0.5955 0.10175 0.0
H1253 H 0.89612 0.56839 0.08465 0.0
C1254 C 0.70526 0.5783 0.27695 0.0
C1255 C 0.69956 0.55885 0.26406 0.0
N1256 N 0.71527 0.54204 0.26891 0.0
N1257 N 0.72424 0.57354 0.29008 0.0
C1258 C 0.73007 0.55141 0.2846 0.0
H1259 H 0.69611 0.59481 0.27681 0.0
Co1260 Co 0.73924 0.59281 0.31126 0.0
C1261 C 0.74426 0.56411 0.35399 0.0
O1262 O 0.73796 0.58203 0.36687 0.0
N1263 N 0.75525 0.61214 0.33255 0.0
C1264 C 0.78421 0.62435 0.35547 0.0
C1265 C 0.77632 0.60651 0.34165 0.0
C1266 C 0.75101 0.63382 0.34089 0.0
N1267 N 0.76825 0.64157 0.35499 0.0
O1268 O 0.76826 0.58743 0.29608 0.0
H1269 H 0.78562 0.59044 0.33817 0.0
H1270 H 0.7359 0.6441 0.33654 0.0
O1271 O 0.74483 0.56601 0.33174 0.0
C1272 C 0.7709 0.59841 0.277 0.0
O1273 O 0.75301 0.60965 0.26804 0.0
N1274 N 0.71031 0.59961 0.32472 0.0
C1275 C 0.66869 0.61586 0.34341 0.0
C1276 C 0.67549 0.59257 0.34673 0.0
C1277 C 0.69626 0.58459 0.33676 0.0
C1278 C 0.70224 0.62113 0.31866 0.0
C1279 C 0.68178 0.62993 0.32838 0.0
H1280 H 0.70105 0.56651 0.33896 0.0
H1281 H 0.71229 0.63184 0.3068 0.0
H1282 H 0.74473 0.54223 0.29221 0.0
H1283 H 0.68521 0.55727 0.25186 0.0
H1284 H 0.80088 0.62494 0.36436 0.0
H1285 H 0.6654 0.58093 0.35769 0.0
H1286 H 0.67655 0.64772 0.32465 0.0
C1287 C 0.65538 0.45186 0.51731 0.0
C1288 C 0.67435 0.44966 0.50274 0.0
N1289 N 0.69224 0.46152 0.51223 0.0
N1290 N 0.66142 0.46472 0.5361 0.0
C1291 C 0.68397 0.47061 0.53232 0.0
H1292 H 0.63844 0.44394 0.51476 0.0
Co1293 Co 0.64194 0.46934 0.56178 0.0
C1294 C 0.67542 0.47694 0.60235 0.0
O1295 O 0.66323 0.4651 0.61768 0.0
N1296 N 0.62138 0.4737 0.58781 0.0
C1297 C 0.59949 0.46649 0.61929 0.0
C1298 C 0.61684 0.45822 0.60515 0.0
C1299 C 0.60617 0.4914 0.59208 0.0
N1300 N 0.59278 0.48734 0.6111 0.0
O1301 O 0.63931 0.50137 0.55401 0.0
H1302 H 0.6252 0.44153 0.60755 0.0
H1303 H 0.60394 0.50641 0.58087 0.0
O1304 O 0.66884 0.47792 0.58104 0.0
C1305 C 0.62671 0.50719 0.53669 0.0
O1306 O 0.61599 0.49086 0.52468 0.0
N1307 N 0.64353 0.43763 0.56788 0.0
C1308 C 0.63314 0.39305 0.58309 0.0
C1309 C 0.65523 0.40286 0.58765 0.0
C1310 C 0.66028 0.42533 0.57948 0.0
C1311 C 0.6236 0.42707 0.56043 0.0
C1312 C 0.61804 0.40468 0.5678 0.0
H1313 H 0.67673 0.43333 0.584 0.0
H1314 H 0.61097 0.43698 0.55047 0.0
H1315 H 0.69451 0.48042 0.54443 0.0
H1316 H 0.6751 0.4398 0.48663 0.0
H1317 H 0.59181 0.45755 0.63406 0.0
H1318 H 0.66757 0.39426 0.5991 0.0
H1319 H 0.60117 0.39742 0.56329 0.0
C1320 C 0.72465 0.79275 0.57735 0.0
C1321 C 0.73862 0.79892 0.5588 0.0
N1322 N 0.73395 0.78428 0.54103 0.0
N1323 N 0.71103 0.77463 0.57101 0.0
C1324 C 0.71732 0.76966 0.5489 0.0
H1325 H 0.72417 0.80116 0.59424 0.0
Co1326 Co 0.68816 0.76048 0.58864 0.0
C1327 C 0.64782 0.7541 0.55708 0.0
O1328 O 0.63391 0.76261 0.57325 0.0
N1329 N 0.66502 0.74525 0.60673 0.0
C1330 C 0.64054 0.71713 0.61791 0.0
C1331 C 0.65672 0.72376 0.60155 0.0
C1332 C 0.65372 0.75104 0.62667 0.0
N1333 N 0.63863 0.73436 0.63374 0.0
O1334 O 0.70354 0.73145 0.58517 0.0
H1335 H 0.66217 0.7134 0.58673 0.0
H1336 H 0.65643 0.76695 0.63618 0.0
O1337 O 0.66989 0.75352 0.5606 0.0
C1338 C 0.7191 0.72643 0.60015 0.0
O1339 O 0.72509 0.74231 0.61557 0.0
N1340 N 0.67427 0.78965 0.59298 0.0
C1341 C 0.65266 0.83127 0.60527 0.0
C1342 C 0.65299 0.82381 0.58188 0.0
C1343 C 0.66424 0.80301 0.57601 0.0
C1344 C 0.6777 0.79871 0.61465 0.0
C1345 C 0.66633 0.81904 0.62151 0.0
H1346 H 0.66451 0.79752 0.55799 0.0
H1347 H 0.68825 0.78924 0.62715 0.0
H1348 H 0.70946 0.75596 0.53854 0.0
H1349 H 0.7512 0.813 0.55836 0.0
H1350 H 0.63154 0.70054 0.6185 0.0
H1351 H 0.64414 0.83356 0.56832 0.0
H1352 H 0.66733 0.82423 0.63964 0.0
C1353 C 0.22184 0.70471 0.40815 0.0
C1354 C 0.23723 0.70129 0.42625 0.0
N1355 N 0.23044 0.71483 0.44421 0.0
N1356 N 0.20524 0.72001 0.41489 0.0
C1357 C 0.21111 0.72612 0.43687 0.0
H1358 H 0.22244 0.6963 0.39125 0.0
Co1359 Co 0.17999 0.72929 0.39695 0.0
C1360 C 0.14472 0.72574 0.43818 0.0
O1361 O 0.13631 0.70476 0.43468 0.0
N1362 N 0.15429 0.73872 0.37887 0.0
C1363 C 0.1182 0.74226 0.36488 0.0
C1364 C 0.13171 0.73265 0.38214 0.0
C1365 C 0.15409 0.75167 0.35918 0.0
N1366 N 0.13232 0.75415 0.35044 0.0
O1367 O 0.18986 0.76066 0.39927 0.0
H1368 H 0.12539 0.72107 0.3955 0.0
H1369 H 0.16961 0.75879 0.35113 0.0
O1370 O 0.16053 0.73418 0.42483 0.0
C1371 C 0.20541 0.76446 0.38387 0.0
O1372 O 0.21216 0.747 0.37057 0.0
N1373 N 0.17208 0.69835 0.39215 0.0
C1374 C 0.15614 0.65595 0.37577 0.0
C1375 C 0.15905 0.65959 0.39991 0.0
C1376 C 0.16819 0.68084 0.40774 0.0
C1377 C 0.17337 0.6935 0.36893 0.0
C1378 C 0.16569 0.67229 0.36033 0.0
H1379 H 0.17122 0.68358 0.42614 0.0
H1380 H 0.17938 0.70672 0.35687 0.0
H1381 H 0.2011 0.73814 0.44749 0.0
H1382 H 0.25223 0.68977 0.42625 0.0
H1383 H 0.09961 0.73975 0.36249 0.0
H1384 H 0.15307 0.64696 0.41262 0.0
H1385 H 0.16555 0.66953 0.34163 0.0
C1386 C 0.55444 0.96605 0.67709 0.0
C1387 C 0.56041 0.97924 0.69625 0.0
N1388 N 0.54362 0.97667 0.71253 0.0
N1389 N 0.53413 0.95495 0.68142 0.0
C1390 C 0.52788 0.96191 0.70306 0.0
H1391 H 0.56409 0.96496 0.66091 0.0
Co1392 Co 0.51746 0.93593 0.66112 0.0
C1393 C 0.50401 0.89457 0.68868 0.0
O1394 O 0.5102 0.88107 0.67118 0.0
N1395 N 0.4996 0.91693 0.64046 0.0
C1396 C 0.46829 0.89832 0.62663 0.0
C1397 C 0.47681 0.91203 0.6443 0.0
C1398 C 0.50432 0.9061 0.61992 0.0
N1399 N 0.48564 0.89454 0.61124 0.0
O1400 O 0.49113 0.9554 0.6648 0.0
H1401 H 0.46686 0.91806 0.65919 0.0
H1402 H 0.521 0.90653 0.61126 0.0
O1403 O 0.50703 0.91664 0.6873 0.0
C1404 C 0.49143 0.97157 0.64963 0.0
O1405 O 0.50985 0.97345 0.63605 0.0
N1406 N 0.54436 0.91847 0.65597 0.0
C1407 C 0.58446 0.89591 0.64114 0.0
C1408 C 0.57609 0.89241 0.66388 0.0
C1409 C 0.55602 0.9043 0.67118 0.0
C1410 C 0.55403 0.92411 0.63502 0.0
C1411 C 0.57374 0.91255 0.62693 0.0
H1412 H 0.54988 0.90198 0.68885 0.0
H1413 H 0.54574 0.93712 0.62413 0.0
H1414 H 0.51198 0.95634 0.71164 0.0
H1415 H 0.57559 0.99039 0.69781 0.0
H1416 H 0.45049 0.89221 0.62495 0.0
H1417 H 0.58447 0.88009 0.67552 0.0
H1418 H 0.58024 0.91618 0.60954 0.0
C1419 C 0.27314 0.29375 0.92748 0.0
C1420 C 0.25786 0.29805 0.94547 0.0
N1421 N 0.2599 0.28065 0.96109 0.0
N1422 N 0.28516 0.27401 0.93204 0.0
C1423 C 0.2761 0.26602 0.95226 0.0
H1424 H 0.27587 0.30489 0.91252 0.0
Co1425 Co 0.31013 0.26208 0.91496 0.0
C1426 C 0.33128 0.25843 0.96446 0.0
O1427 O 0.32061 0.2759 0.97485 0.0
N1428 N 0.33508 0.25046 0.89802 0.0
C1429 C 0.37133 0.24309 0.88641 0.0
C1430 C 0.35778 0.25084 0.9045 0.0
C1431 C 0.33528 0.24271 0.87583 0.0
N1432 N 0.35718 0.23808 0.86836 0.0
O1433 O 0.29624 0.23191 0.91528 0.0
H1434 H 0.36432 0.25746 0.92089 0.0
H1435 H 0.31972 0.24112 0.86524 0.0
O1436 O 0.32722 0.25396 0.94306 0.0
C1437 C 0.2802 0.22893 0.90017 0.0
O1438 O 0.27342 0.24692 0.88766 0.0
N1439 N 0.32321 0.29163 0.91216 0.0
C1440 C 0.3467 0.33004 0.89438 0.0
C1441 C 0.35087 0.32252 0.91732 0.0
C1442 C 0.33901 0.30298 0.9259 0.0
C1443 C 0.31782 0.29984 0.89051 0.0
C1444 C 0.3294 0.31899 0.88122 0.0
H1445 H 0.34385 0.29632 0.94274 0.0
H1446 H 0.30547 0.29039 0.8798 0.0
H1447 H 0.28236 0.25057 0.96115 0.0
H1448 H 0.24675 0.31324 0.94738 0.0
H1449 H 0.39023 0.24237 0.88616 0.0
H1450 H 0.3644 0.33055 0.92781 0.0
H1451 H 0.32576 0.32435 0.86345 0.0
C1452 C 0.45054 0.52955 0.66801 0.0
C1453 C 0.44597 0.5141 0.6858 0.0
N1454 N 0.46168 0.51774 0.7029 0.0
N1455 N 0.46881 0.5431 0.67406 0.0
C1456 C 0.47543 0.53531 0.69531 0.0
H1457 H 0.44094 0.5311 0.65182 0.0
Co1458 Co 0.48092 0.56746 0.65638 0.0
C1459 C 0.48405 0.60132 0.69849 0.0
O1460 O 0.46478 0.61324 0.69505 0.0
N1461 N 0.49326 0.59217 0.63874 0.0
C1462 C 0.50055 0.6277 0.62498 0.0
C1463 C 0.49075 0.61526 0.64285 0.0
C1464 C 0.50444 0.59106 0.61801 0.0
N1465 N 0.50907 0.61249 0.60929 0.0
O1466 O 0.51092 0.55301 0.65643 0.0
H1467 H 0.48111 0.62286 0.65704 0.0
H1468 H 0.5084 0.57487 0.60914 0.0
O1469 O 0.48967 0.58455 0.68481 0.0
C1470 C 0.51141 0.53635 0.64172 0.0
O1471 O 0.49213 0.53091 0.63053 0.0
N1472 N 0.4511 0.58019 0.65343 0.0
C1473 C 0.4114 0.60366 0.63919 0.0
C1474 C 0.41487 0.59877 0.66299 0.0
C1475 C 0.43474 0.58606 0.66973 0.0
C1476 C 0.44567 0.58123 0.63032 0.0
C1477 C 0.42605 0.59311 0.62277 0.0
H1478 H 0.43747 0.58185 0.68792 0.0
H1479 H 0.45745 0.57387 0.61752 0.0
H1480 H 0.48967 0.54273 0.70527 0.0
H1481 H 0.4322 0.50117 0.68615 0.0
H1482 H 0.50012 0.64648 0.62299 0.0
H1483 H 0.4032 0.60569 0.67617 0.0
H1484 H 0.42317 0.59527 0.6042 0.0
C1485 C 0.79172 0.21121 0.08344 0.0
C1486 C 0.77538 0.20758 0.06641 0.0
N1487 N 0.78216 0.21921 0.04728 0.0
N1488 N 0.80904 0.22513 0.07526 0.0
C1489 C 0.80247 0.22975 0.05298 0.0
H1490 H 0.79094 0.20356 0.10065 0.0
Co1491 Co 0.83751 0.23308 0.09058 0.0
C1492 C 0.8598 0.25101 0.0514 0.0
O1493 O 0.86996 0.23046 0.0513 0.0
N1494 N 0.86574 0.24014 0.10548 0.0
C1495 C 0.90047 0.23192 0.12082 0.0
C1496 C 0.88487 0.22654 0.10336 0.0
C1497 C 0.87029 0.25397 0.1241 0.0
N1498 N 0.89127 0.24922 0.13375 0.0
O1499 O 0.82183 0.25775 0.10754 0.0
H1500 H 0.88636 0.21205 0.09136 0.0
H1501 H 0.85754 0.26537 0.13212 0.0
O1502 O 0.84448 0.25551 0.0669 0.0
C1503 C 0.80238 0.26096 0.11794 0.0
O1504 O 0.78742 0.24378 0.12018 0.0
N1505 N 0.83241 0.21062 0.11341 0.0
C1506 C 0.84 0.17389 0.14412 0.0
C1507 C 0.83976 0.17013 0.11991 0.0
C1508 C 0.83635 0.18882 0.10491 0.0
C1509 C 0.83089 0.2145 0.13689 0.0
C1510 C 0.83453 0.19621 0.15262 0.0
H1511 H 0.83848 0.18631 0.08631 0.0
H1512 H 0.82904 0.23196 0.14369 0.0
H1513 H 0.81277 0.23973 0.04072 0.0
H1514 H 0.75986 0.19688 0.06782 0.0
H1515 H 0.91644 0.22263 0.12484 0.0
H1516 H 0.84457 0.15343 0.11247 0.0
H1517 H 0.83489 0.19988 0.17116 0.0
C1518 C 0.54733 0.03289 0.83734 0.0
C1519 C 0.55461 0.01905 0.81911 0.0
N1520 N 0.53959 0.02192 0.80123 0.0
N1521 N 0.52801 0.04467 0.83086 0.0
C1522 C 0.52356 0.03748 0.80886 0.0
H1523 H 0.55552 0.03424 0.8543 0.0
Co1524 Co 0.5112 0.0652 0.84947 0.0
C1525 C 0.50161 0.10537 0.8183 0.0
O1526 O 0.50949 0.11966 0.83444 0.0
N1527 N 0.49304 0.08538 0.86886 0.0
C1528 C 0.4618 0.10558 0.8806 0.0
C1529 C 0.47241 0.09474 0.86211 0.0
C1530 C 0.4938 0.08997 0.89212 0.0
N1531 N 0.47519 0.10255 0.89965 0.0
O1532 O 0.48442 0.0469 0.84563 0.0
H1533 H 0.46475 0.09283 0.84497 0.0
H1534 H 0.50673 0.08289 0.90379 0.0
O1535 O 0.50209 0.08333 0.82189 0.0
C1536 C 0.48209 0.03033 0.8601 0.0
O1537 O 0.49973 0.02518 0.87386 0.0
N1538 N 0.53851 0.08255 0.85407 0.0
C1539 C 0.57979 0.10624 0.86399 0.0
C1540 C 0.57184 0.10414 0.8409 0.0
C1541 C 0.55133 0.09189 0.83627 0.0
C1542 C 0.54748 0.08199 0.87605 0.0
C1543 C 0.56764 0.09435 0.8816 0.0
H1544 H 0.54587 0.08976 0.81835 0.0
H1545 H 0.53931 0.07143 0.88927 0.0
H1546 H 0.50891 0.0436 0.79862 0.0
H1547 H 0.56952 0.00742 0.81918 0.0
H1548 H 0.44516 0.1145 0.88 0.0
H1549 H 0.58136 0.11183 0.82649 0.0
H1550 H 0.57333 0.09478 0.89961 0.0
C1551 C 0.9604 0.97695 0.33757 0.0
C1552 C 0.95409 0.99107 0.31922 0.0
N1553 N 0.9687 0.98675 0.3013 0.0
N1554 N 0.97863 0.96354 0.33106 0.0
C1555 C 0.9835 0.9701 0.30896 0.0
H1556 H 0.95212 0.97632 0.35453 0.0
Co1557 Co 0.9932 0.94133 0.34951 0.0
C1558 C 0.99941 0.9002 0.31896 0.0
O1559 O 0.99177 0.8868 0.33595 0.0
N1560 N 0.00917 0.91927 0.36871 0.0
C1561 C 0.03916 0.89716 0.38019 0.0
C1562 C 0.02996 0.91001 0.36228 0.0
C1563 C 0.00661 0.91215 0.3912 0.0
N1564 N 0.02453 0.89853 0.3985 0.0
O1565 O 0.02168 0.95691 0.34587 0.0
H1566 H 0.03844 0.91303 0.34569 0.0
H1567 H 0.99276 0.91777 0.40262 0.0
O1568 O 0.0004 0.92235 0.32184 0.0
C1569 C 0.02546 0.97269 0.3609 0.0
O1570 O 0.00806 0.9795 0.37425 0.0
N1571 N 0.96434 0.92679 0.35376 0.0
C1572 C 0.92177 0.90541 0.36226 0.0
C1573 C 0.9302 0.90757 0.33939 0.0
C1574 C 0.95139 0.91869 0.33547 0.0
C1575 C 0.95477 0.9279 0.3755 0.0
C1576 C 0.93372 0.91669 0.38036 0.0
H1577 H 0.95738 0.92069 0.31771 0.0
H1578 H 0.96343 0.93761 0.3891 0.0
H1579 H 0.99735 0.96253 0.29855 0.0
H1580 H 0.93996 0.00364 0.31907 0.0
H1581 H 0.05557 0.88778 0.37978 0.0
H1582 H 0.92077 0.90027 0.32473 0.0
H1583 H 0.92735 0.91622 0.39815 0.0
C1584 C 0.03551 0.14694 0.2354 0.0
C1585 C 0.04375 0.12947 0.2505 0.0
H1586 H 0.01428 0.15532 0.20588 0.0
C1587 C 0.0361 0.1064 0.24724 0.0
H1588 H 0.04113 0.16487 0.2374 0.0
C1589 C 0.02106 0.10082 0.22883 0.0
C1590 C 0.01298 0.11828 0.21362 0.0
H1591 H 0.0423 0.0925 0.25847 0.0
H1592 H 0.01588 0.08283 0.2265 0.0
C1593 C 0.02012 0.14145 0.21732 0.0
C1594 C 0.12181 0.73218 0.47472 0.0
C1595 C 0.13224 0.74128 0.45449 0.0
H1596 H 0.10118 0.73927 0.50517 0.0
C1597 C 0.12897 0.76496 0.44899 0.0
H1598 H 0.12394 0.71394 0.47923 0.0
C1599 C 0.11528 0.77921 0.46336 0.0
C1600 C 0.10513 0.77016 0.48376 0.0
H1601 H 0.13653 0.77233 0.4333 0.0
H1602 H 0.11312 0.79743 0.45881 0.0
C1603 C 0.10868 0.74659 0.48943 0.0
C1604 C 0.48469 0.8983 0.72781 0.0
C1605 C 0.49076 0.88452 0.70845 0.0
H1606 H 0.46471 0.90094 0.75928 0.0
C1607 C 0.48239 0.86149 0.70719 0.0
H1608 H 0.49095 0.91607 0.72935 0.0
C1609 C 0.4672 0.85288 0.72421 0.0
C1610 C 0.46024 0.86702 0.743 0.0
H1611 H 0.48676 0.85037 0.69254 0.0
H1612 H 0.46038 0.83536 0.72225 0.0
C1613 C 0.46968 0.88959 0.74499 0.0
C1614 C 0.37073 0.23509 0.01235 0.0
C1615 C 0.38246 0.21682 0.00083 0.0
H1616 H 0.34545 0.26259 0.00999 0.0
C1617 C 0.37773 0.21283 0.97713 0.0
H1618 H 0.37396 0.23859 0.03065 0.0
C1619 C 0.36114 0.22636 0.96541 0.0
C1620 C 0.34911 0.24442 0.977 0.0
H1621 H 0.38626 0.19875 0.96781 0.0
H1622 H 0.35752 0.22234 0.94731 0.0
C1623 C 0.3543 0.2488 0.00055 0.0
C1624 C 0.02455 0.89324 0.25825 0.0
C1625 C 0.03151 0.86968 0.25841 0.0
H1626 H 0.0091 0.92144 0.27736 0.0
C1627 C 0.02597 0.85583 0.27785 0.0
H1628 H 0.02859 0.90443 0.24356 0.0
C1629 C 0.0146 0.86557 0.29713 0.0
C1630 C 0.00886 0.88943 0.29749 0.0
H1631 H 0.03104 0.83762 0.27847 0.0
H1632 H 0.01121 0.85457 0.31213 0.0
C1633 C 0.0135 0.90305 0.27767 0.0
C1634 C 0.35639 0.77075 0.51734 0.0
C1635 C 0.36866 0.76355 0.53731 0.0
H1636 H 0.35746 0.78974 0.48522 0.0
C1637 C 0.39264 0.76865 0.539 0.0
H1638 H 0.33795 0.76699 0.51545 0.0
C1639 C 0.4038 0.78184 0.5218 0.0
C1640 C 0.39128 0.79003 0.50238 0.0
H1641 H 0.40267 0.7633 0.55411 0.0
H1642 H 0.42205 0.78626 0.5241 0.0
C1643 C 0.36763 0.78373 0.49998 0.0
C1644 C 0.45974 0.1092 0.76734 0.0
C1645 C 0.45616 0.13343 0.76577 0.0
H1646 H 0.47713 0.08125 0.78504 0.0
C1647 C 0.47001 0.14834 0.77947 0.0
H1648 H 0.44949 0.09722 0.75692 0.0
C1649 C 0.48586 0.13918 0.79559 0.0
C1650 C 0.48822 0.11492 0.79836 0.0
H1651 H 0.46785 0.1671 0.77858 0.0
H1652 H 0.49546 0.15116 0.80661 0.0
C1653 C 0.47562 0.10003 0.78347 0.0
C1654 C 0.11171 0.24575 0.01546 0.0
C1655 C 0.10786 0.22228 0.0213 0.0
H1656 H 0.1265 0.2785 0.02596 0.0
C1657 C 0.11673 0.21351 0.04237 0.0
H1658 H 0.10509 0.25284 -0.00078 0.0
C1659 C 0.12966 0.22792 0.0572 0.0
C1660 C 0.1333 0.25148 0.05148 0.0
H1661 H 0.11419 0.19537 0.04708 0.0
H1662 H 0.13643 0.22078 0.07335 0.0
C1663 C 0.12399 0.26036 0.03064 0.0
C1664 C 0.21998 0.02982 0.14104 0.0
C1665 C 0.23791 0.03725 0.12602 0.0
H1666 H 0.18681 0.01286 0.14411 0.0
C1667 C 0.23686 0.031 0.1023 0.0
H1668 H 0.2203 0.03425 0.15942 0.0
C1669 C 0.21764 0.01885 0.09352 0.0
C1670 C 0.19909 0.01256 0.10827 0.0
H1671 H 0.25044 0.03627 0.09024 0.0
H1672 H 0.21702 0.01509 0.07501 0.0
C1673 C 0.20077 0.01754 0.13225 0.0
C1674 C 0.20972 0.97848 0.36485 0.0
C1675 C 0.21213 0.98349 0.38877 0.0
H1676 H 0.22474 0.96251 0.33455 0.0
C1677 C 0.23333 0.97823 0.3999 0.0
H1678 H 0.19362 0.98238 0.35572 0.0
C1679 C 0.25132 0.96715 0.38763 0.0
C1680 C 0.24832 0.96079 0.36409 0.0
H1681 H 0.2358 0.98206 0.41825 0.0
H1682 H 0.26709 0.96251 0.39699 0.0
C1683 C 0.22756 0.96711 0.35268 0.0
C1684 C 0.28483 0.99858 0.60219 0.0
C1685 C 0.30626 0.99101 0.61144 0.0
H1686 H 0.24753 0.99517 0.603 0.0
C1687 C 0.30618 0.97618 0.63095 0.0
H1688 H 0.28437 0.01012 0.58723 0.0
C1689 C 0.28522 0.96788 0.64017 0.0
C1690 C 0.26377 0.97396 0.62989 0.0
H1691 H 0.32241 0.97034 0.63873 0.0
H1692 H 0.28598 0.95574 0.65464 0.0
C1693 C 0.26375 0.99002 0.61126 0.0
C1694 C 0.2713 0.0266 0.85631 0.0
C1695 C 0.25626 0.03951 0.87078 0.0
H1696 H 0.30061 0.0035 0.85441 0.0
C1697 C 0.2578 0.03658 0.8951 0.0
H1698 H 0.27053 0.0284 0.8375 0.0
C1699 C 0.27507 0.02236 0.90481 0.0
C1700 C 0.29118 0.01076 0.8904 0.0
H1701 H 0.24634 0.04611 0.90675 0.0
H1702 H 0.2764 0.02132 0.92364 0.0
C1703 C 0.2886 0.01237 0.86603 0.0
C1704 C 0.60136 0.278 0.97751 0.0
C1705 C 0.61459 0.28516 0.99686 0.0
H1706 H 0.60116 0.26054 0.94458 0.0
C1707 C 0.63807 0.27806 0.99851 0.0
H1708 H 0.58321 0.28309 0.97579 0.0
C1709 C 0.64849 0.26534 0.98045 0.0
C1710 C 0.63555 0.25924 0.96055 0.0
H1711 H 0.64877 0.2833 0.01318 0.0
H1712 H 0.66686 0.26096 0.98175 0.0
C1713 C 0.61169 0.26507 0.95962 0.0
C1714 C 0.98116 0.39921 0.22508 0.0
C1715 C 0.99714 0.3855 0.21247 0.0
H1716 H 0.95267 0.39976 0.2492 0.0
C1717 C 0.99841 0.36144 0.21721 0.0
H1718 H 0.97987 0.41782 0.22204 0.0
C1719 C 0.98274 0.35103 0.23277 0.0
C1720 C 0.96553 0.36449 0.24397 0.0
H1721 H 0.01065 0.35038 0.20797 0.0
H1722 H 0.98334 0.33228 0.23504 0.0
C1723 C 0.96555 0.38882 0.24069 0.0
C1724 C 0.88199 0.73733 0.49276 0.0
C1725 C 0.88357 0.7139 0.48574 0.0
H1726 H 0.87122 0.77201 0.48356 0.0
C1727 C 0.87447 0.70721 0.46402 0.0
H1728 H 0.88888 0.74284 0.50949 0.0
C1729 C 0.86366 0.72367 0.44963 0.0
C1730 C 0.86244 0.74719 0.45646 0.0
H1731 H 0.8753 0.68918 0.45837 0.0
H1732 H 0.85676 0.71812 0.43292 0.0
C1733 C 0.87187 0.75394 0.47803 0.0
C1734 C 0.98486 0.64029 0.28433 0.0
C1735 C 0.9886 0.61614 0.28672 0.0
H1736 H 0.96711 0.66754 0.26584 0.0
C1737 C 0.97876 0.60097 0.27019 0.0
H1738 H 0.99218 0.65248 0.29679 0.0
C1739 C 0.96464 0.60965 0.25226 0.0
C1740 C 0.95976 0.63367 0.25067 0.0
H1741 H 0.98141 0.5823 0.27146 0.0
H1742 H 0.95671 0.59736 0.24029 0.0
C1743 C 0.97045 0.64895 0.2666 0.0
C1744 C 0.51253 0.38622 0.76462 0.0
C1745 C 0.50497 0.37253 0.7835 0.0
H1746 H 0.53319 0.38776 0.73346 0.0
C1747 C 0.51129 0.34883 0.78428 0.0
H1748 H 0.50789 0.40452 0.76355 0.0
C1749 C 0.52607 0.33938 0.76737 0.0
C1750 C 0.53445 0.35327 0.74902 0.0
H1751 H 0.50584 0.33779 0.79862 0.0
H1752 H 0.53148 0.32135 0.76908 0.0
C1753 C 0.52695 0.3766 0.74738 0.0
C1754 C 0.52237 0.59834 0.71935 0.0
C1755 C 0.502 0.61104 0.7143 0.0
H1756 H 0.55671 0.5989 0.734 0.0
C1757 C 0.50012 0.63418 0.72233 0.0
H1758 H 0.52431 0.58046 0.7135 0.0
C1759 C 0.5188 0.64486 0.7338 0.0
C1760 C 0.5396 0.63252 0.73779 0.0
H1761 H 0.48467 0.64449 0.71875 0.0
H1762 H 0.5172 0.663 0.73891 0.0
C1763 C 0.54093 0.60893 0.73112 0.0
C1764 C 0.88903 0.26778 0.02359 0.0
C1765 C 0.86705 0.26908 0.03449 0.0
H1766 H 0.91388 0.28446 0.00118 0.0
C1767 C 0.85248 0.28819 0.02968 0.0
H1768 H 0.90067 0.25327 0.02702 0.0
C1769 C 0.85987 0.30582 0.01454 0.0
C1770 C 0.88218 0.30495 0.00426 0.0
H1771 H 0.8354 0.28959 0.03774 0.0
H1772 H 0.84836 0.32052 0.0115 0.0
C1773 C 0.89662 0.28566 0.00881 0.0
C1774 C 0.64262 0.71422 0.50478 0.0
C1775 C 0.61844 0.70989 0.50437 0.0
H1776 H 0.67095 0.73176 0.52168 0.0
C1777 C 0.60381 0.72286 0.51921 0.0
H1778 H 0.65439 0.70467 0.49345 0.0
C1779 C 0.61332 0.73848 0.53534 0.0
C1780 C 0.63766 0.74138 0.53703 0.0
H1781 H 0.58509 0.72014 0.51918 0.0
H1782 H 0.60162 0.74732 0.54729 0.0
C1783 C 0.65215 0.72977 0.52098 0.0
C1784 C 0.69833 0.49634 0.63434 0.0
C1785 C 0.69482 0.4921 0.61039 0.0
H1786 H 0.71597 0.51681 0.66026 0.0
C1787 C 0.70858 0.50426 0.59415 0.0
H1788 H 0.68802 0.48732 0.64736 0.0
C1789 C 0.72467 0.52097 0.60153 0.0
C1790 C 0.72725 0.52618 0.62536 0.0
H1791 H 0.70644 0.50152 0.57563 0.0
H1792 H 0.73444 0.53044 0.5884 0.0
C1793 C 0.71432 0.51329 0.64175 0.0
C1794 C 0.74044 0.46113 0.88625 0.0
C1795 C 0.74587 0.45941 0.86234 0.0
H1796 H 0.71966 0.47781 0.91253 0.0
C1797 C 0.73595 0.47554 0.84679 0.0
H1798 H 0.74777 0.44896 0.89872 0.0
C1799 C 0.71998 0.4922 0.85476 0.0
C1800 C 0.71336 0.49295 0.87842 0.0
H1801 H 0.73986 0.47477 0.82831 0.0
H1802 H 0.71206 0.5038 0.84211 0.0
C1803 C 0.72425 0.47764 0.89419 0.0
C1804 C 0.76107 0.45739 0.11064 0.0
C1805 C 0.75742 0.45636 0.1349 0.0
H1806 H 0.77598 0.47624 0.08202 0.0
C1807 C 0.76397 0.47554 0.1487 0.0
H1808 H 0.75615 0.44296 0.09947 0.0
C1809 C 0.775 0.49485 0.13856 0.0
C1810 C 0.78002 0.49515 0.11451 0.0
H1811 H 0.76123 0.47535 0.1674 0.0
H1812 H 0.78077 0.50891 0.1498 0.0
C1813 C 0.77241 0.47648 0.10059 0.0
C1814 C 0.76917 0.52329 0.39941 0.0
C1815 C 0.77463 0.50354 0.38594 0.0
H1816 H 0.75506 0.55783 0.39992 0.0
C1817 C 0.76761 0.50288 0.36242 0.0
H1818 H 0.77427 0.52427 0.41759 0.0
C1819 C 0.75689 0.52226 0.35218 0.0
C1820 C 0.75268 0.54253 0.36534 0.0
H1821 H 0.7716 0.48793 0.35155 0.0
H1822 H 0.75262 0.52164 0.33377 0.0
C1823 C 0.75819 0.54253 0.38925 0.0
C1824 C 0.11304 0.21828 0.18284 0.0
C1825 C 0.13452 0.22949 0.17913 0.0
H1826 H 0.09091 0.20047 0.20708 0.0
C1827 C 0.1504 0.23155 0.19764 0.0
H1828 H 0.1006 0.21642 0.16874 0.0
C1829 C 0.14477 0.22275 0.21963 0.0
C1830 C 0.12331 0.21147 0.22332 0.0
H1831 H 0.16692 0.24041 0.19523 0.0
H1832 H 0.15735 0.22456 0.23363 0.0
C1833 C 0.10753 0.2092 0.20472 0.0
C1834 C 0.00916 0.8825 0.43575 0.0
C1835 C 0.02815 0.88828 0.42129 0.0
H1836 H 0.9978 0.86662 0.4677 0.0
C1837 C 0.05088 0.88313 0.42911 0.0
H1838 H 0.99144 0.88608 0.43024 0.0
C1839 C 0.05453 0.87188 0.45042 0.0
C1840 C 0.03556 0.86553 0.46462 0.0
H1841 H 0.06599 0.88776 0.41875 0.0
H1842 H 0.0723 0.86796 0.4556 0.0
C1843 C 0.01282 0.87124 0.45719 0.0
C1844 C 0.38446 0.79375 0.66053 0.0
C1845 C 0.3658 0.77821 0.65688 0.0
H1846 H 0.40655 0.81082 0.68537 0.0
C1847 C 0.35653 0.76614 0.67611 0.0
H1848 H 0.39234 0.80295 0.64604 0.0
C1849 C 0.36486 0.77042 0.69857 0.0
C1850 C 0.38258 0.78694 0.70235 0.0
H1851 H 0.34208 0.75417 0.67406 0.0
H1852 H 0.35667 0.76147 0.71308 0.0
C1853 C 0.39276 0.79809 0.68304 0.0
C1854 C 0.48257 0.11975 0.96278 0.0
C1855 C 0.45979 0.1267 0.96887 0.0
H1856 H 0.50545 0.10708 0.93609 0.0
C1857 C 0.44209 0.12504 0.95198 0.0
H1858 H 0.49667 0.12088 0.97533 0.0
C1859 C 0.44706 0.11678 0.92954 0.0
C1860 C 0.46994 0.11019 0.92321 0.0
H1861 H 0.42433 0.13012 0.95605 0.0
H1862 H 0.4328 0.11555 0.91725 0.0
C1863 C 0.4876 0.11169 0.94023 0.0
C1864 C 0.10373 0.77622 0.32703 0.0
C1865 C 0.12557 0.76517 0.32898 0.0
H1866 H 0.07985 0.79462 0.30485 0.0
C1867 C 0.14028 0.76414 0.30944 0.0
H1868 H 0.09215 0.77732 0.34194 0.0
C1869 C 0.13315 0.77369 0.28822 0.0
C1870 C 0.11131 0.78474 0.28623 0.0
H1871 H 0.15706 0.75547 0.31042 0.0
H1872 H 0.14488 0.77254 0.27342 0.0
C1873 C 0.09672 0.7861 0.30587 0.0
C1874 C 0.46289 0.85536 0.56376 0.0
C1875 C 0.47692 0.86199 0.54477 0.0
H1876 H 0.45488 0.86024 0.5999 0.0
C1877 C 0.49531 0.87779 0.54862 0.0
H1878 H 0.4486 0.84319 0.56142 0.0
C1879 C 0.49873 0.88779 0.57059 0.0
C1880 C 0.48386 0.88223 0.5893 0.0
H1881 H 0.50651 0.88325 0.53439 0.0
H1882 H 0.51235 0.90072 0.57252 0.0
C1883 C 0.46633 0.86536 0.58577 0.0
C1884 C 0.38523 0.21847 0.84235 0.0
C1885 C 0.36447 0.23119 0.84541 0.0
H1886 H 0.40848 0.2019 0.8183 0.0
C1887 C 0.35133 0.23762 0.82576 0.0
H1888 H 0.39558 0.2131 0.85721 0.0
C1889 C 0.35872 0.23126 0.80347 0.0
C1890 C 0.37934 0.21829 0.80045 0.0
H1891 H 0.3355 0.24779 0.82757 0.0
H1892 H 0.34811 0.23629 0.78865 0.0
C1893 C 0.39261 0.21207 0.82007 0.0
C1894 C 0.03019 0.1045 0.04777 0.0
C1895 C 0.03947 0.12644 0.04184 0.0
H1896 H 0.01245 0.0839 0.07357 0.0
C1897 C 0.03884 0.14441 0.05856 0.0
H1898 H 0.03044 0.09031 0.03529 0.0
C1899 C 0.02815 0.14084 0.08027 0.0
C1900 C 0.01834 0.11909 0.08596 0.0
H1901 H 0.04572 0.16154 0.05453 0.0
H1902 H 0.02725 0.15518 0.09255 0.0
C1903 C 0.01998 0.10079 0.06971 0.0
C1904 C 0.19741 0.09989 0.2078 0.0
C1905 C 0.21664 0.11464 0.21156 0.0
H1906 H 0.16151 0.09273 0.21545 0.0
C1907 C 0.21372 0.13446 0.22577 0.0
H1908 H 0.19904 0.08453 0.1969 0.0
C1909 C 0.19215 0.13924 0.23625 0.0
C1910 C 0.1731 0.12414 0.233 0.0
H1911 H 0.22816 0.14625 0.22893 0.0
H1912 H 0.19056 0.15438 0.24745 0.0
C1913 C 0.17594 0.10453 0.21851 0.0
C1914 C 0.12679 0.91181 0.50489 0.0
C1915 C 0.13864 0.89278 0.49503 0.0
H1916 H 0.12364 0.94878 0.50734 0.0
C1917 C 0.15821 0.89689 0.48084 0.0
H1918 H 0.11192 0.90903 0.51624 0.0
C1919 C 0.16492 0.91982 0.47547 0.0
C1920 C 0.15234 0.9389 0.48456 0.0
H1921 H 0.16761 0.8824 0.47314 0.0
H1922 H 0.17942 0.92259 0.46364 0.0
C1923 C 0.13363 0.93457 0.49986 0.0
C1924 C 0.31081 0.85883 0.7229 0.0
C1925 C 0.33014 0.87369 0.72036 0.0
H1926 H 0.27436 0.85348 0.71651 0.0
C1927 C 0.3272 0.89483 0.70817 0.0
H1928 H 0.31242 0.84256 0.73236 0.0
C1929 C 0.30539 0.90116 0.6991 0.0
C1930 C 0.28592 0.88657 0.70214 0.0
H1931 H 0.34181 0.90654 0.70566 0.0
H1932 H 0.30376 0.91759 0.6899 0.0
C1933 C 0.28894 0.86524 0.71399 0.0
C1934 C 0.35914 0.09013 0.97784 0.0
C1935 C 0.35922 0.09509 0.00181 0.0
H1936 H 0.35448 0.06419 0.95131 0.0
C1937 C 0.35354 0.07733 0.01773 0.0
H1938 H 0.36356 0.10359 0.96533 0.0
C1939 C 0.34893 0.0547 0.00984 0.0
C1940 C 0.34931 0.04961 0.98587 0.0
H1941 H 0.35373 0.08072 0.03631 0.0
H1942 H 0.34548 0.0411 0.02251 0.0
C1943 C 0.35388 0.06766 0.96989 0.0
C1944 C 0.20246 0.86326 0.2695 0.0
C1945 C 0.20706 0.8832 0.28306 0.0
H1946 H 0.17681 0.84284 0.25162 0.0
C1947 C 0.18845 0.8979 0.28929 0.0
H1948 H 0.2164 0.85149 0.26449 0.0
C1949 C 0.16573 0.89286 0.28192 0.0
C1950 C 0.16114 0.87293 0.26834 0.0
H1951 H 0.19141 0.91331 0.29983 0.0
H1952 H 0.1517 0.90448 0.28699 0.0
C1953 C 0.17973 0.85813 0.26232 0.0
C1954 C 0.40827 0.95896 0.52908 0.0
C1955 C 0.38781 0.9637 0.54179 0.0
H1956 H 0.42845 0.93332 0.51082 0.0
C1957 C 0.37256 0.94532 0.54725 0.0
H1958 H 0.42045 0.97276 0.52476 0.0
C1959 C 0.37719 0.9228 0.53926 0.0
C1960 C 0.39722 0.91821 0.52587 0.0
H1961 H 0.35674 0.94841 0.55716 0.0
H1962 H 0.36492 0.909 0.54325 0.0
C1963 C 0.41299 0.93637 0.52127 0.0
C1964 C 0.28909 0.13017 0.76711 0.0
C1965 C 0.28535 0.11026 0.78095 0.0
H1966 H 0.31393 0.15393 0.75261 0.0
C1967 C 0.30477 0.09739 0.78865 0.0
H1968 H 0.27451 0.14046 0.76084 0.0
C1969 C 0.32743 0.10509 0.78381 0.0
C1970 C 0.3312 0.12582 0.77119 0.0
H1971 H 0.30252 0.0819 0.79925 0.0
H1972 H 0.34203 0.09514 0.79053 0.0
C1973 C 0.31175 0.13787 0.76228 0.0
C1974 C 0.14331 0.06357 0.99125 0.0
C1975 C 0.14605 0.05711 0.01473 0.0
H1976 H 0.13688 0.09151 0.9672 0.0
C1977 C 0.14657 0.07459 0.03198 0.0
H1978 H 0.14287 0.05048 0.97761 0.0
C1979 C 0.14282 0.0979 0.02603 0.0
C1980 C 0.13915 0.10418 0.00272 0.0
H1981 H 0.14857 0.07018 0.05024 0.0
H1982 H 0.14192 0.11097 0.03966 0.0
C1983 C 0.14009 0.08699 0.98527 0.0
C1984 C 0.25584 0.17888 0.11586 0.0
C1985 C 0.24183 0.15955 0.12127 0.0
H1986 H 0.25713 0.21569 0.10974 0.0
C1987 C 0.21752 0.16239 0.12303 0.0
H1988 H 0.27463 0.17708 0.11465 0.0
C1989 C 0.2074 0.18439 0.11958 0.0
C1990 C 0.22162 0.20384 0.11508 0.0
H1991 H 0.20649 0.14762 0.1272 0.0
H1992 H 0.18867 0.18641 0.12141 0.0
C1993 C 0.24586 0.20089 0.11312 0.0
C1994 C 0.74852 0.29638 0.87906 0.0
C1995 C 0.73264 0.29332 0.89748 0.0
H1996 H 0.76399 0.32002 0.85498 0.0
C1997 C 0.72298 0.31308 0.90834 0.0
H1998 H 0.75641 0.28151 0.87043 0.0
C1999 C 0.72752 0.33534 0.89957 0.0
C2000 C 0.7417 0.33824 0.87974 0.0
H2001 H 0.71088 0.3113 0.92277 0.0
H2002 H 0.71911 0.35016 0.90773 0.0
C2003 C 0.75295 0.3186 0.87022 0.0
C2004 C 0.93586 0.46007 0.14737 0.0
C2005 C 0.9547 0.46599 0.13286 0.0
H2006 H 0.89886 0.46105 0.1524 0.0
C2007 C 0.9503 0.47744 0.11161 0.0
H2008 H 0.93868 0.451 0.16372 0.0
C2009 C 0.9275 0.48305 0.1051 0.0
C2010 C 0.90869 0.47742 0.11975 0.0
H2011 H 0.96445 0.48208 0.09996 0.0
H2012 H 0.92469 0.49236 0.08891 0.0
C2013 C 0.91308 0.46576 0.14088 0.0
C2014 C 0.7587 0.68363 0.35569 0.0
C2015 C 0.77044 0.66437 0.36535 0.0
H2016 H 0.75424 0.72061 0.35555 0.0
C2017 C 0.78543 0.66798 0.38446 0.0
H2018 H 0.74714 0.68164 0.3409 0.0
C2019 C 0.78969 0.69049 0.39276 0.0
C2020 C 0.77893 0.7098 0.38217 0.0
H2021 H 0.79432 0.65349 0.39268 0.0
H2022 H 0.80204 0.69279 0.40689 0.0
C2023 C 0.76285 0.70608 0.36406 0.0
C2024 C 0.05275 0.0431 0.14444 0.0
C2025 C 0.03254 0.03433 0.13368 0.0
H2026 H 0.08983 0.04679 0.14288 0.0
C2027 C 0.03473 0.02069 0.11344 0.0
H2028 H 0.05163 0.0535 0.16019 0.0
C2029 C 0.05665 0.01709 0.10337 0.0
C2030 C 0.07674 0.027 0.11342 0.0
H2031 H 0.01945 0.01377 0.10472 0.0
H2032 H 0.05766 0.0075 0.08713 0.0
C2033 C 0.07462 0.03944 0.13442 0.0
C2034 C 0.27879 0.81909 0.58471 0.0
C2035 C 0.27122 0.80012 0.59827 0.0
H2036 H 0.27849 0.85618 0.58007 0.0
C2037 C 0.25585 0.8042 0.61696 0.0
H2038 H 0.29071 0.81651 0.57024 0.0
C2039 C 0.24902 0.82685 0.62263 0.0
C2040 C 0.25729 0.84591 0.60967 0.0
H2041 H 0.24958 0.78995 0.62769 0.0
H2042 H 0.23737 0.82945 0.63729 0.0
C2043 C 0.27182 0.84179 0.59032 0.0
C2044 C 0.92161 0.51563 0.39349 0.0
C2045 C 0.90259 0.52104 0.37904 0.0
H2046 H 0.95854 0.5174 0.39839 0.0
C2047 C 0.9065 0.53301 0.35802 0.0
H2048 H 0.91913 0.50607 0.40959 0.0
C2049 C 0.92906 0.53931 0.35144 0.0
C2050 C 0.94812 0.53367 0.36578 0.0
H2051 H 0.89207 0.53751 0.34667 0.0
H2052 H 0.93153 0.54865 0.33519 0.0
C2053 C 0.94419 0.52184 0.38689 0.0
C2054 C 0.56111 0.46412 0.83992 0.0
C2055 C 0.54486 0.45914 0.85757 0.0
H2056 H 0.59473 0.47852 0.8317 0.0
C2057 C 0.55074 0.46375 0.88093 0.0
H2058 H 0.55704 0.46061 0.8218 0.0
C2059 C 0.57225 0.47355 0.88657 0.0
C2060 C 0.58825 0.47925 0.86894 0.0
H2061 H 0.53867 0.45985 0.89497 0.0
H2062 H 0.57598 0.47745 0.90467 0.0
C2063 C 0.58259 0.47432 0.84557 0.0
C2064 C 0.59509 0.71593 0.67904 0.0
C2065 C 0.60325 0.72807 0.69873 0.0
H2066 H 0.59979 0.70868 0.64275 0.0
C2067 C 0.62114 0.74457 0.69593 0.0
H2068 H 0.5812 0.7032 0.68058 0.0
C2069 C 0.63206 0.74742 0.67437 0.0
C2070 C 0.6252 0.73393 0.65504 0.0
H2071 H 0.62775 0.75432 0.71072 0.0
H2072 H 0.64674 0.75921 0.67336 0.0
C2073 C 0.60596 0.71885 0.65741 0.0
C2074 C 0.54875 0.35072 0.9349 0.0
C2075 C 0.53217 0.35448 0.95254 0.0
H2076 H 0.55776 0.35513 0.8992 0.0
C2077 C 0.51027 0.3637 0.94658 0.0
H2078 H 0.56584 0.34368 0.93898 0.0
C2079 C 0.50539 0.37004 0.92355 0.0
C2080 C 0.5225 0.36773 0.90602 0.0
H2081 H 0.49704 0.36652 0.95981 0.0
H2082 H 0.48834 0.37719 0.91974 0.0
C2083 C 0.54404 0.35737 0.91195 0.0
C2084 C 0.90953 0.28594 0.18466 0.0
C2085 C 0.90985 0.26936 0.20279 0.0
H2086 H 0.90266 0.29241 0.14828 0.0
C2087 C 0.90516 0.24589 0.19746 0.0
H2088 H 0.91277 0.3042 0.18827 0.0
C2089 C 0.89992 0.2392 0.17457 0.0
C2090 C 0.89869 0.25592 0.15672 0.0
H2091 H 0.90512 0.23278 0.21108 0.0
H2092 H 0.89596 0.22109 0.17089 0.0
C2093 C 0.90364 0.27931 0.16187 0.0
C2094 C 0.93912 0.62423 0.44542 0.0
C2095 C 0.95521 0.62163 0.46375 0.0
H2096 H 0.93274 0.62175 0.40887 0.0
C2097 C 0.97784 0.61352 0.45864 0.0
H2098 H 0.92149 0.63027 0.44869 0.0
C2099 C 0.9844 0.60884 0.43555 0.0
C2100 C 0.96847 0.61222 0.41718 0.0
H2101 H 0.99066 0.61135 0.47237 0.0
H2102 H 0.00211 0.60322 0.43199 0.0
C2103 C 0.94565 0.61956 0.42247 0.0
C2104 C 0.64434 0.25947 0.82044 0.0
C2105 C 0.63608 0.27264 0.83943 0.0
H2106 H 0.64249 0.2528 0.78383 0.0
C2107 C 0.61777 0.28863 0.83561 0.0
H2108 H 0.65851 0.24717 0.82253 0.0
C2109 C 0.60862 0.29201 0.8132 0.0
C2110 C 0.61757 0.27944 0.79414 0.0
H2111 H 0.61066 0.29877 0.84988 0.0
H2112 H 0.59502 0.30492 0.81074 0.0
C2113 C 0.63518 0.2628 0.79812 0.0
C2114 C 0.9577 0.36417 0.05401 0.0
C2115 C 0.96002 0.38189 0.03726 0.0
H2116 H 0.96436 0.35325 0.08899 0.0
C2117 C 0.97092 0.40291 0.04356 0.0
H2118 H 0.94962 0.34766 0.04961 0.0
C2119 C 0.97916 0.40623 0.06626 0.0
C2120 C 0.97684 0.38851 0.08309 0.0
H2121 H 0.97291 0.4169 0.03101 0.0
H2122 H 0.9869 0.42287 0.07063 0.0
C2123 C 0.96614 0.3674 0.07662 0.0
C2124 C 0.85353 0.71939 0.28901 0.0
C2125 C 0.87463 0.7074 0.28532 0.0
H2126 H 0.83212 0.73831 0.31306 0.0
C2127 C 0.88995 0.70408 0.30416 0.0
H2128 H 0.84129 0.72211 0.27484 0.0
C2129 C 0.88465 0.71338 0.32606 0.0
C2130 C 0.86388 0.726 0.32956 0.0
H2131 H 0.90629 0.69481 0.30187 0.0
H2132 H 0.89692 0.71092 0.34022 0.0
C2133 C 0.84816 0.72852 0.31094 0.0
C2134 C 0.53808 0.64597 0.56127 0.0
C2135 C 0.53389 0.63146 0.54198 0.0
H2136 H 0.53378 0.65097 0.59802 0.0
C2137 C 0.52199 0.61027 0.54532 0.0
H2138 H 0.5474 0.66229 0.55928 0.0
C2139 C 0.51434 0.60374 0.56749 0.0
C2140 C 0.51831 0.61835 0.58674 0.0
H2141 H 0.51861 0.59863 0.53082 0.0
H2142 H 0.50485 0.58754 0.56946 0.0
C2143 C 0.53031 0.63948 0.58342 0.0
C2144 C 0.66016 0.61278 0.7032 0.0
C2145 C 0.65883 0.63325 0.71671 0.0
H2146 H 0.68216 0.58751 0.68656 0.0
C2147 C 0.67962 0.64307 0.72525 0.0
H2148 H 0.64444 0.60458 0.69667 0.0
C2149 C 0.70128 0.63326 0.71947 0.0
C2150 C 0.70262 0.61331 0.70519 0.0
H2151 H 0.67922 0.65889 0.73556 0.0
H2152 H 0.717 0.64173 0.72568 0.0
C2153 C 0.68179 0.60288 0.69756 0.0
C2154 C 0.64532 0.43861 0.9538 0.0
C2155 C 0.6307 0.45787 0.9578 0.0
H2156 H 0.65085 0.40202 0.95907 0.0
C2157 C 0.60944 0.45445 0.96968 0.0
H2158 H 0.6617 0.44064 0.94456 0.0
C2159 C 0.60314 0.43232 0.97775 0.0
C2160 C 0.61806 0.41319 0.97436 0.0
H2161 H 0.59766 0.4689 0.97287 0.0
H2162 H 0.58695 0.43033 0.98733 0.0
C2163 C 0.63911 0.41652 0.96211 0.0
C2164 C 0.82629 0.35625 0.2434 0.0
C2165 C 0.84572 0.36589 0.23191 0.0
H2166 H 0.7893 0.35684 0.24818 0.0
C2167 C 0.8424 0.38572 0.2178 0.0
H2168 H 0.82804 0.34095 0.2543 0.0
C2169 C 0.82003 0.39481 0.21416 0.0
C2170 C 0.80051 0.38426 0.22461 0.0
H2171 H 0.85703 0.39393 0.2091 0.0
H2172 H 0.81795 0.40944 0.20237 0.0
C2173 C 0.80397 0.36535 0.23982 0.0
C2174 C 0.85334 0.58484 0.46334 0.0
C2175 C 0.85288 0.5896 0.48739 0.0
H2176 H 0.84861 0.55915 0.43638 0.0
C2177 C 0.84649 0.57174 0.50291 0.0
H2178 H 0.85833 0.59836 0.45111 0.0
C2179 C 0.84153 0.5493 0.49464 0.0
C2180 C 0.84217 0.54443 0.47061 0.0
H2181 H 0.84629 0.57493 0.52154 0.0
H2182 H 0.83753 0.53564 0.50708 0.0
C2183 C 0.84765 0.56253 0.45497 0.0
C2184 C 0.68338 0.34978 0.7639 0.0
C2185 C 0.66449 0.36536 0.7648 0.0
H2186 H 0.71945 0.34394 0.77119 0.0
C2187 C 0.66794 0.38774 0.7743 0.0
H2188 H 0.68137 0.33258 0.75636 0.0
C2189 C 0.68986 0.39436 0.78276 0.0
C2190 C 0.70874 0.37875 0.78173 0.0
H2191 H 0.65363 0.40004 0.77538 0.0
H2192 H 0.69197 0.41163 0.79014 0.0
C2193 C 0.70527 0.35642 0.7722 0.0
C2194 C 0.86442 0.44212 0.98969 0.0
C2195 C 0.86981 0.42115 0.00117 0.0
H2196 H 0.85336 0.47757 0.993 0.0
C2197 C 0.86584 0.41939 0.02533 0.0
H2198 H 0.86756 0.44411 0.97116 0.0
C2199 C 0.85722 0.4386 0.03784 0.0
C2200 C 0.853 0.45982 0.02633 0.0
H2201 H 0.86976 0.40335 0.03451 0.0
H2202 H 0.85511 0.4373 0.05659 0.0
C2203 C 0.85631 0.46129 0.00216 0.0
C2204 C 0.81346 0.60657 0.28175 0.0
C2205 C 0.79426 0.6022 0.26709 0.0
H2206 H 0.84911 0.61825 0.28382 0.0
C2207 C 0.79686 0.60454 0.24288 0.0
H2208 H 0.81172 0.60524 0.30053 0.0
C2209 C 0.81819 0.61151 0.23344 0.0
C2210 C 0.83709 0.61689 0.24809 0.0
H2211 H 0.78222 0.60146 0.23129 0.0
H2212 H 0.81966 0.61363 0.21472 0.0
C2213 C 0.83467 0.61422 0.2723 0.0
C2214 C 0.63076 0.5496 0.54604 0.0
C2215 C 0.62342 0.53201 0.53066 0.0
H2216 H 0.63239 0.58604 0.55323 0.0
C2217 C 0.61253 0.53834 0.50963 0.0
H2218 H 0.63908 0.54525 0.56246 0.0
C2219 C 0.60895 0.56181 0.50414 0.0
C2220 C 0.61597 0.57948 0.51966 0.0
H2221 H 0.60682 0.52516 0.49734 0.0
H2222 H 0.60078 0.56606 0.48766 0.0
C2223 C 0.627 0.57305 0.54066 0.0
C2224 C 0.72169 0.66088 0.59402 0.0
C2225 C 0.73474 0.65462 0.61383 0.0
H2226 H 0.7067 0.68854 0.57391 0.0
C2227 C 0.74516 0.67234 0.62723 0.0
H2228 H 0.71382 0.64762 0.5831 0.0
C2229 C 0.74125 0.69579 0.62187 0.0
C2230 C 0.72681 0.702 0.60305 0.0
H2231 H 0.7552 0.66824 0.64268 0.0
H2232 H 0.74859 0.70899 0.63323 0.0
C2233 C 0.71774 0.68433 0.58868 0.0
C2234 C 0.22831 0.79204 0.35944 0.0
C2235 C 0.21441 0.78809 0.37927 0.0
H2236 H 0.24743 0.81671 0.33912 0.0
C2237 C 0.20896 0.80689 0.39403 0.0
H2238 H 0.2328 0.77793 0.34768 0.0
C2239 C 0.21742 0.82922 0.38903 0.0
C2240 C 0.23121 0.83311 0.36909 0.0
H2241 H 0.19822 0.80435 0.40939 0.0
H2242 H 0.21297 0.8435 0.40058 0.0
C2243 C 0.23653 0.8143 0.35437 0.0
C2244 C 0.46924 0.9986 0.62388 0.0
C2245 C 0.47021 0.98512 0.64435 0.0
H2246 H 0.4478 0.01842 0.60059 0.0
C2247 C 0.45013 0.9831 0.65832 0.0
H2248 H 0.48442 0.00057 0.61277 0.0
C2249 C 0.42921 0.99355 0.65135 0.0
C2250 C 0.42801 0.00586 0.63019 0.0
H2251 H 0.45039 0.97284 0.6742 0.0
H2252 H 0.41371 0.99107 0.66189 0.0
C2253 C 0.44829 0.00871 0.61679 0.0
C2254 C 0.28189 0.18541 0.90442 0.0
C2255 C 0.27198 0.20523 0.89396 0.0
H2256 H 0.28508 0.14822 0.904 0.0
C2257 C 0.25566 0.20218 0.87585 0.0
H2258 H 0.29438 0.18712 0.91851 0.0
C2259 C 0.25045 0.17989 0.86742 0.0
C2260 C 0.26147 0.16015 0.87691 0.0
H2261 H 0.2476 0.21709 0.86747 0.0
H2262 H 0.23874 0.17828 0.85269 0.0
C2263 C 0.27668 0.16312 0.89599 0.0
C2264 C 0.57397 0.52402 0.62399 0.0
C2265 C 0.57268 0.50007 0.61898 0.0
H2266 H 0.55543 0.5544 0.63614 0.0
C2267 C 0.55159 0.48817 0.6226 0.0
H2268 H 0.59018 0.5334 0.62143 0.0
C2269 C 0.53193 0.50002 0.63062 0.0
C2270 C 0.53309 0.52391 0.63577 0.0
H2271 H 0.55027 0.46971 0.61879 0.0
H2272 H 0.51571 0.4905 0.63269 0.0
C2273 C 0.55431 0.53585 0.63266 0.0
C2274 C 0.76803 0.31228 0.14167 0.0
C2275 C 0.78483 0.33016 0.14108 0.0
H2276 H 0.76039 0.27634 0.13493 0.0
C2277 C 0.80768 0.32471 0.13386 0.0
H2278 H 0.75024 0.31589 0.14695 0.0
C2279 C 0.81341 0.30217 0.12673 0.0
C2280 C 0.79651 0.28443 0.12686 0.0
H2281 H 0.82124 0.33782 0.13365 0.0
H2282 H 0.83109 0.29876 0.12092 0.0
C2283 C 0.77383 0.28962 0.1347 0.0
C2284 C 0.4166 0.02822 0.86335 0.0
C2285 C 0.41334 0.01553 0.88405 0.0
H2286 H 0.44105 0.04242 0.83906 0.0
C2287 C 0.43263 0.00447 0.89444 0.0
H2288 H 0.40196 0.03641 0.85464 0.0
C2289 C 0.455 0.00766 0.8854 0.0
C2290 C 0.45846 0.02204 0.86588 0.0
H2291 H 0.43075 0.99457 0.9104 0.0
H2292 H 0.46967 9e-05 0.89462 0.0
C2293 C 0.43897 0.03143 0.85431 0.0
C2294 C 0.06824 0.96504 0.35788 0.0
C2295 C 0.04965 0.97742 0.36812 0.0
H2296 H 0.10404 0.95474 0.36053 0.0
C2297 C 0.05394 0.99127 0.38784 0.0
H2298 H 0.06552 0.95431 0.34255 0.0
C2299 C 0.0759 0.99124 0.39827 0.0
C2300 C 0.09403 0.97745 0.38909 0.0
H2301 H 0.03999 0.00104 0.39609 0.0
H2302 H 0.07819 0.001 0.41426 0.0
C2303 C 0.09022 0.96502 0.36833 0.0
C2304 C 0.11199 0.08483 0.39226 0.0
C2305 C 0.13332 0.08856 0.4038 0.0
H2306 H 0.08852 0.0964 0.36565 0.0
C2307 C 0.14557 0.10936 0.39984 0.0
H2308 H 0.10228 0.06882 0.39492 0.0
C2309 C 0.13746 0.12539 0.38339 0.0
C2310 C 0.11724 0.12065 0.37021 0.0
H2311 H 0.16188 0.11277 0.4088 0.0
H2312 H 0.14769 0.14094 0.38016 0.0
C2313 C 0.10405 0.10068 0.37554 0.0
C2314 C 0.11625 0.90059 0.62874 0.0
C2315 C 0.1337 0.91497 0.6193 0.0
H2316 H 0.0866 0.87894 0.62182 0.0
C2317 C 0.13188 0.92211 0.59593 0.0
H2318 H 0.11733 0.89484 0.64673 0.0
C2319 C 0.11439 0.91282 0.58155 0.0
C2320 C 0.09852 0.89628 0.59041 0.0
H2321 H 0.14531 0.93298 0.58823 0.0
H2322 H 0.1148 0.91678 0.56307 0.0
C2323 C 0.09874 0.89143 0.61446 0.0
C2324 C 0.3588 0.88852 0.8472 0.0
C2325 C 0.37584 0.87144 0.85165 0.0
H2326 H 0.33916 0.91723 0.86018 0.0
C2327 C 0.38566 0.86995 0.87406 0.0
H2328 H 0.35133 0.89055 0.82995 0.0
C2329 C 0.37848 0.88536 0.89169 0.0
C2330 C 0.36146 0.90252 0.88708 0.0
H2331 H 0.39877 0.8569 0.87797 0.0
H2332 H 0.38629 0.88388 0.90884 0.0
C2333 C 0.35172 0.90381 0.86464 0.0
C2334 C 0.38443 0.07832 0.08881 0.0
C2335 C 0.4034 0.09163 0.09697 0.0
H2336 H 0.35142 0.06281 0.09702 0.0
C2337 C 0.40585 0.09496 0.12118 0.0
H2338 H 0.38188 0.0755 0.0703 0.0
C2339 C 0.3882 0.08789 0.13649 0.0
C2340 C 0.36793 0.07707 0.12791 0.0
H2341 H 0.42048 0.10475 0.12809 0.0
H2342 H 0.38962 0.09239 0.1548 0.0
C2343 C 0.36687 0.07107 0.10416 0.0
C2344 C 0.12172 0.89536 0.14946 0.0
C2345 C 0.10546 0.87791 0.14396 0.0
H2346 H 0.14131 0.92458 0.13771 0.0
C2347 C 0.09603 0.87693 0.12136 0.0
H2348 H 0.12878 0.89693 0.16695 0.0
C2349 C 0.1034 0.89289 0.10434 0.0
C2350 C 0.12021 0.90995 0.10985 0.0
H2351 H 0.08339 0.86363 0.1168 0.0
H2352 H 0.09621 0.89173 0.0869 0.0
C2353 C 0.129 0.91114 0.13266 0.0
C2354 C 0.36625 0.90221 0.38085 0.0
C2355 C 0.3626 0.88876 0.36077 0.0
H2356 H 0.38354 0.90522 0.41348 0.0
C2357 C 0.37683 0.86916 0.35676 0.0
H2358 H 0.35525 0.91714 0.38461 0.0
C2359 C 0.39351 0.86237 0.37326 0.0
C2360 C 0.39604 0.8749 0.39422 0.0
H2361 H 0.3744 0.85857 0.34128 0.0
H2362 H 0.40385 0.84691 0.3699 0.0
C2363 C 0.3826 0.89528 0.39745 0.0
C2364 C 0.36219 0.13632 0.61481 0.0
C2365 C 0.37367 0.11533 0.60987 0.0
H2366 H 0.3606 0.16634 0.63685 0.0
C2367 C 0.3933 0.10882 0.62299 0.0
H2368 H 0.34703 0.14158 0.60479 0.0
C2369 C 0.40058 0.12233 0.64171 0.0
C2370 C 0.38861 0.14292 0.64756 0.0
H2371 H 0.40216 0.09242 0.61969 0.0
H2372 H 0.4147 0.11572 0.65239 0.0
C2373 C 0.36988 0.15026 0.63329 0.0
C2374 C 0.10318 0.09693 0.89655 0.0
C2375 C 0.10164 0.11971 0.9055 0.0
H2376 H 0.12194 0.07315 0.87455 0.0
C2377 C 0.1186 0.13613 0.89893 0.0
H2378 H 0.09044 0.08387 0.90151 0.0
C2379 C 0.13689 0.12994 0.88414 0.0
C2380 C 0.13868 0.10718 0.87509 0.0
H2381 H 0.11838 0.15362 0.90613 0.0
H2382 H 0.15011 0.14295 0.88055 0.0
C2383 C 0.12139 0.09078 0.8813 0.0
C2384 C 0.14296 0.37872 0.12279 0.0
C2385 C 0.14477 0.35758 0.1351 0.0
H2386 H 0.12383 0.41057 0.1182 0.0
C2387 C 0.12989 0.35375 0.15429 0.0
H2388 H 0.15438 0.38243 0.10819 0.0
C2389 C 0.11272 0.36987 0.16013 0.0
C2390 C 0.10978 0.39015 0.1468 0.0
H2391 H 0.13029 0.33752 0.16395 0.0
H2392 H 0.10064 0.36552 0.17402 0.0
C2393 C 0.12555 0.39487 0.12857 0.0
C2394 C 0.61489 0.11615 0.88858 0.0
C2395 C 0.59991 0.12149 0.86981 0.0
H2396 H 0.64278 0.12792 0.91065 0.0
C2397 C 0.60323 0.14252 0.85763 0.0
H2398 H 0.61324 0.09988 0.89803 0.0
C2399 C 0.6205 0.15816 0.8645 0.0
C2400 C 0.6346 0.15329 0.88391 0.0
H2401 H 0.59182 0.14749 0.8434 0.0
H2402 H 0.62207 0.17461 0.85532 0.0
C2403 C 0.63192 0.13205 0.89573 0.0
C2404 C 0.9013 0.86789 0.35603 0.0
C2405 C 0.90204 0.88962 0.36724 0.0
H2406 H 0.88464 0.83495 0.3531 0.0
C2407 C 0.88493 0.89511 0.384 0.0
H2408 H 0.91461 0.86284 0.34356 0.0
C2409 C 0.86749 0.87893 0.38953 0.0
C2410 C 0.86698 0.85713 0.37833 0.0
H2411 H 0.88511 0.9118 0.39287 0.0
H2412 H 0.85452 0.88339 0.40256 0.0
C2413 C 0.88405 0.85187 0.36152 0.0
C2414 C 0.84811 0.13233 0.15454 0.0
C2415 C 0.85134 0.15621 0.15917 0.0
H2416 H 0.86364 0.09833 0.15504 0.0
C2417 C 0.86996 0.16308 0.17362 0.0
H2418 H 0.83363 0.1265 0.14386 0.0
C2419 C 0.887 0.14694 0.18014 0.0
C2420 C 0.88562 0.1238 0.17225 0.0
H2421 H 0.87299 0.18132 0.17752 0.0
H2422 H 0.90249 0.1532 0.189 0.0
C2423 C 0.86527 0.11624 0.16088 0.0
C2424 C 0.38797 0.65553 0.60657 0.0
C2425 C 0.36457 0.65634 0.61377 0.0
H2426 H 0.42094 0.63863 0.60939 0.0
C2427 C 0.35651 0.63982 0.6301 0.0
H2428 H 0.39496 0.66842 0.59464 0.0
C2429 C 0.37162 0.62263 0.63879 0.0
C2430 C 0.39489 0.62174 0.63112 0.0
H2431 H 0.33853 0.64007 0.636 0.0
H2432 H 0.36509 0.60989 0.65113 0.0
C2433 C 0.4029 0.6385 0.61513 0.0
C2434 C 0.12517 0.64368 0.3479 0.0
C2435 C 0.13994 0.63794 0.36669 0.0
H2436 H 0.09498 0.63498 0.32812 0.0
C2437 C 0.13677 0.61649 0.37814 0.0
H2438 H 0.12653 0.66025 0.33894 0.0
C2439 C 0.1182 0.60192 0.37191 0.0
C2440 C 0.10264 0.60859 0.35412 0.0
H2441 H 0.14803 0.61137 0.39243 0.0
H2442 H 0.11547 0.58593 0.38161 0.0
C2443 C 0.10687 0.62914 0.34163 0.0
C2444 C 0.3743 0.34029 0.86257 0.0
C2445 C 0.36252 0.34685 0.88303 0.0
H2446 H 0.40092 0.34849 0.83793 0.0
C2447 C 0.36707 0.36866 0.89305 0.0
H2448 H 0.37122 0.32338 0.85468 0.0
C2449 C 0.38368 0.38347 0.88306 0.0
C2450 C 0.39652 0.3764 0.86325 0.0
H2451 H 0.35797 0.37411 0.90872 0.0
H2452 H 0.38681 0.40021 0.89123 0.0
C2453 C 0.39122 0.35481 0.85288 0.0
C2454 C 0.61886 0.59804 0.86053 0.0
C2455 C 0.63725 0.60494 0.87517 0.0
H2456 H 0.59643 0.60677 0.83229 0.0
C2457 C 0.64693 0.62725 0.87256 0.0
H2458 H 0.61145 0.58068 0.86185 0.0
C2459 C 0.63795 0.64258 0.85573 0.0
C2460 C 0.6194 0.63562 0.84108 0.0
H2461 H 0.66117 0.63286 0.88367 0.0
H2462 H 0.64546 0.65985 0.85427 0.0
C2463 C 0.61012 0.6131 0.84368 0.0
C2464 C 0.63719 0.36431 0.14028 0.0
C2465 C 0.65317 0.38207 0.1346 0.0
H2466 H 0.60769 0.34407 0.12915 0.0
C2467 C 0.65108 0.39352 0.11309 0.0
H2468 H 0.63833 0.35527 0.15684 0.0
C2469 C 0.63382 0.38707 0.09733 0.0
C2470 C 0.61799 0.36909 0.10269 0.0
H2471 H 0.66345 0.40686 0.10793 0.0
H2472 H 0.63355 0.39565 0.08049 0.0
C2473 C 0.6197 0.35788 0.12445 0.0
C2474 C 0.85801 0.37012 0.34529 0.0
C2475 C 0.8803 0.36045 0.34917 0.0
H2476 H 0.8318 0.3942 0.35681 0.0
C2477 C 0.89215 0.3662 0.36985 0.0
H2478 H 0.84847 0.36624 0.32944 0.0
C2479 C 0.88243 0.38207 0.3857 0.0
C2480 C 0.86075 0.39283 0.38116 0.0
H2481 H 0.90912 0.35874 0.37359 0.0
H2482 H 0.89226 0.3864 0.40126 0.0
C2483 C 0.84837 0.38613 0.36107 0.0
C2484 C 0.87119 0.58755 0.62862 0.0
C2485 C 0.85131 0.57656 0.6194 0.0
H2486 H 0.90414 0.60357 0.62133 0.0
C2487 C 0.85135 0.5697 0.59587 0.0
H2488 H 0.87172 0.59267 0.64681 0.0
C2489 C 0.86977 0.57615 0.5812 0.0
C2490 C 0.88852 0.58945 0.58988 0.0
H2491 H 0.83621 0.56123 0.58834 0.0
H2492 H 0.86815 0.57267 0.56269 0.0
C2493 C 0.88973 0.59374 0.61403 0.0
C2494 C 0.63822 0.35479 0.60399 0.0
C2495 C 0.62407 0.37377 0.59772 0.0
H2496 H 0.64277 0.32556 0.62675 0.0
C2497 C 0.60193 0.37612 0.60816 0.0
H2498 H 0.65521 0.35239 0.59601 0.0
C2499 C 0.59493 0.36106 0.62588 0.0
C2500 C 0.60988 0.34324 0.63358 0.0
H2501 H 0.5907 0.39076 0.60399 0.0
H2502 H 0.57863 0.36467 0.63479 0.0
C2503 C 0.63108 0.33951 0.62162 0.0
C2504 C 0.88852 0.38828 0.88771 0.0
C2505 C 0.89914 0.3669 0.88216 0.0
H2506 H 0.86151 0.4125 0.88018 0.0
C2507 C 0.89276 0.35533 0.86164 0.0
H2508 H 0.89303 0.39744 0.90363 0.0
C2509 C 0.87516 0.36455 0.84742 0.0
C2510 C 0.86288 0.3849 0.85411 0.0
H2511 H 0.90085 0.33887 0.85703 0.0
H2512 H 0.87062 0.35509 0.83172 0.0
C2513 C 0.87045 0.39704 0.87404 0.0
C2514 C 0.86748 0.62736 0.10396 0.0
C2515 C 0.87527 0.60434 0.10696 0.0
H2516 H 0.87125 0.6631 0.11427 0.0
C2517 C 0.89443 0.60004 0.12166 0.0
H2518 H 0.85299 0.63119 0.09241 0.0
C2519 C 0.90484 0.61808 0.13406 0.0
C2520 C 0.89636 0.641 0.13217 0.0
H2521 H 0.9007 0.58243 0.12456 0.0
H2522 H 0.91841 0.61362 0.14645 0.0
C2523 C 0.87807 0.64559 0.11632 0.0
C2524 C 0.61226 0.62164 0.37687 0.0
C2525 C 0.61725 0.64098 0.3912 0.0
H2526 H 0.62481 0.5984 0.35035 0.0
C2527 C 0.63767 0.6539 0.38699 0.0
H2528 H 0.59637 0.61168 0.37923 0.0
C2529 C 0.65365 0.64652 0.37018 0.0
C2530 C 0.64961 0.626 0.35742 0.0
H2531 H 0.6422 0.66873 0.3978 0.0
H2532 H 0.66995 0.65596 0.36837 0.0
C2533 C 0.62844 0.61407 0.36029 0.0
C2534 C 0.61454 0.85245 0.60233 0.0
C2535 C 0.63649 0.85002 0.61311 0.0
H2536 H 0.58106 0.86897 0.60288 0.0
C2537 C 0.64162 0.86397 0.63273 0.0
H2538 H 0.60959 0.84171 0.5876 0.0
C2539 C 0.6248 0.87908 0.64195 0.0
C2540 C 0.60285 0.88093 0.63132 0.0
H2541 H 0.65847 0.86299 0.64125 0.0
H2542 H 0.62887 0.88927 0.65735 0.0
C2543 C 0.59802 0.86788 0.61122 0.0
C2544 C 0.99855 0.24932 0.31121 0.0
C2545 C 0.989 0.25485 0.2893 0.0
H2546 H 0.02673 0.23364 0.3301 0.0
C2547 C 0.00147 0.2486 0.26909 0.0
H2548 H 0.98938 0.25401 0.32707 0.0
C2549 C 0.02281 0.23656 0.27082 0.0
C2550 C 0.0323 0.23105 0.29281 0.0
H2551 H 0.99442 0.2525 0.252 0.0
H2552 H 0.03199 0.23174 0.25502 0.0
C2553 C 0.01999 0.23777 0.31295 0.0
C2554 C 0.00078 0.75215 0.54895 0.0
C2555 C 0.00618 0.76372 0.52803 0.0
H2556 H 0.98492 0.72244 0.56511 0.0
C2557 C 0.99889 0.75384 0.50677 0.0
H2558 H 0.0063 0.75932 0.56554 0.0
C2559 C 0.98612 0.73287 0.50657 0.0
C2560 C 0.9811 0.72121 0.52758 0.0
H2561 H 0.00278 0.76253 0.49045 0.0
H2562 H 0.98061 0.72549 0.49007 0.0
C2563 C 0.98863 0.73106 0.54871 0.0
C2564 C 0.50309 0.74532 0.79989 0.0
C2565 C 0.51498 0.74125 0.77882 0.0
H2566 H 0.47247 0.75901 0.81649 0.0
C2567 C 0.50453 0.74841 0.75779 0.0
H2568 H 0.51065 0.73988 0.81632 0.0
C2569 C 0.48276 0.75973 0.75791 0.0
C2570 C 0.47081 0.76357 0.77902 0.0
H2571 H 0.5134 0.74565 0.74133 0.0
H2572 H 0.4751 0.76517 0.74152 0.0
C2573 C 0.48118 0.75613 0.79997 0.0
C2574 C 0.50338 0.26183 0.05272 0.0
C2575 C 0.50824 0.27313 0.03155 0.0
H2576 H 0.48952 0.23139 0.06942 0.0
C2577 C 0.50199 0.26224 0.01047 0.0
H2578 H 0.50814 0.26986 0.06916 0.0
C2579 C 0.49079 0.24046 0.01065 0.0
C2580 C 0.48638 0.22905 0.03189 0.0
H2581 H 0.50548 0.27075 0.99396 0.0
H2582 H 0.48602 0.23228 0.9943 0.0
C2583 C 0.49283 0.23989 0.05288 0.0
C2584 C 0.98671 0.74591 0.24022 0.0
C2585 C 0.97263 0.74417 0.22024 0.0
H2586 H 0.01909 0.75847 0.2546 0.0
C2587 C 0.98078 0.75321 0.199 0.0
H2588 H 0.98062 0.73908 0.25676 0.0
C2589 C 0.00276 0.76366 0.19764 0.0
C2590 C 0.01671 0.76584 0.21765 0.0
H2591 H 0.97016 0.75196 0.18341 0.0
H2592 H 0.00875 0.77043 0.18105 0.0
C2593 C 0.00849 0.75703 0.23901 0.0
C2594 C 0.50852 0.73716 0.44525 0.0
C2595 C 0.51286 0.72551 0.46636 0.0
H2596 H 0.49665 0.76859 0.4288 0.0
C2597 C 0.50783 0.73682 0.48753 0.0
H2598 H 0.51246 0.72886 0.42873 0.0
C2599 C 0.49845 0.75938 0.48756 0.0
C2600 C 0.49456 0.77117 0.46643 0.0
H2601 H 0.51097 0.72811 0.504 0.0
H2602 H 0.49469 0.76782 0.50405 0.0
C2603 C 0.49969 0.75988 0.44529 0.0
C2604 C 0.51174 0.24594 0.70172 0.0
C2605 C 0.52366 0.25136 0.72244 0.0
H2606 H 0.47959 0.23462 0.68623 0.0
C2607 C 0.51204 0.249 0.7439 0.0
H2608 H 0.52029 0.24789 0.68498 0.0
C2609 C 0.48894 0.24106 0.74463 0.0
C2610 C 0.47692 0.23604 0.72388 0.0
H2611 H 0.52094 0.25311 0.76005 0.0
H2612 H 0.48031 0.23921 0.76135 0.0
C2613 C 0.48848 0.23861 0.70242 0.0
C2614 C 0.02212 0.25213 0.96831 0.0
C2615 C 0.00896 0.23412 0.97846 0.0
H2616 H 0.02377 0.28811 0.95886 0.0
C2617 C 0.98636 0.23911 0.98666 0.0
H2618 H 0.03937 0.24877 0.96135 0.0
C2619 C 0.97738 0.26179 0.98532 0.0
C2620 C 0.9908 0.27994 0.97566 0.0
H2621 H 0.97587 0.22565 0.99475 0.0
H2622 H 0.96021 0.26519 0.99246 0.0
C2623 C 0.01315 0.27473 0.96689 0.0
C2624 C 0.30264 0.00314 0.23755 0.0
C2625 C 0.28151 0.0145 0.23254 0.0
H2626 H 0.31919 0.97288 0.25198 0.0
C2627 C 0.26033 0.00364 0.23836 0.0
H2628 H 0.31914 0.01127 0.23315 0.0
C2629 C 0.26036 0.98194 0.24967 0.0
C2630 C 0.28156 0.97058 0.25461 0.0
H2631 H 0.24389 0.01226 0.23474 0.0
H2632 H 0.24391 0.97391 0.25439 0.0
C2633 C 0.30266 0.98126 0.24821 0.0
C2634 C 0.25483 0.0434 0.49356 0.0
C2635 C 0.24346 0.02175 0.49303 0.0
H2636 H 0.28665 0.06167 0.50087 0.0
C2637 C 0.25572 0.00146 0.49915 0.0
H2638 H 0.24558 0.05917 0.48874 0.0
C2639 C 0.27893 0.00294 0.50651 0.0
C2640 C 0.29027 0.02461 0.50708 0.0
H2641 H 0.2471 0.98465 0.49886 0.0
H2642 H 0.28805 0.98726 0.51183 0.0
C2643 C 0.2782 0.04478 0.50024 0.0
C2644 C 0.23215 0.99206 0.7379 0.0
C2645 C 0.21172 0.97947 0.73277 0.0
H2646 H 0.247 0.02175 0.75546 0.0
C2647 C 0.19024 0.98764 0.74137 0.0
H2648 H 0.24892 0.98603 0.73158 0.0
C2649 C 0.18911 0.00802 0.75468 0.0
C2650 C 0.20948 0.02052 0.76008 0.0
H2651 H 0.17422 0.97838 0.73754 0.0
H2652 H 0.17228 0.01389 0.761 0.0
C2653 C 0.23107 0.0123 0.75169 0.0
C2654 C 0.25623 0.9917 0.99605 0.0
C2655 C 0.26753 0.97024 0.99263 0.0
H2656 H 0.22456 0.00912 0.00556 0.0
C2657 C 0.25512 0.94942 0.9961 0.0
H2658 H 0.26552 0.00796 0.99355 0.0
C2659 C 0.23164 0.95008 0.00269 0.0
C2660 C 0.22042 0.97157 0.00628 0.0
H2661 H 0.26345 0.93269 0.99329 0.0
H2662 H 0.22238 0.93384 0.0054 0.0
C2663 C 0.23292 0.99236 0.00298 0.0
C2664 C 0.24401 0.25924 0.99491 0.0
C2665 C 0.25074 0.28033 0.98442 0.0
H2666 H 0.23128 0.24251 0.02594 0.0
C2667 C 0.24974 0.30106 0.99746 0.0
H2668 H 0.24472 0.24308 0.98515 0.0
C2669 C 0.24257 0.30066 0.02071 0.0
C2670 C 0.23587 0.27962 0.03124 0.0
H2671 H 0.25516 0.31747 0.98985 0.0
H2672 H 0.24212 0.31685 0.03046 0.0
C2673 C 0.23634 0.25893 0.01809 0.0
C2674 C 0.76761 0.23877 0.01171 0.0
C2675 C 0.77087 0.2184 0.02492 0.0
H2676 H 0.75268 0.25382 0.98075 0.0
C2677 C 0.76209 0.19714 0.0165 0.0
H2678 H 0.77416 0.25534 0.018 0.0
C2679 C 0.75023 0.1962 0.99528 0.0
C2680 C 0.74648 0.21658 0.98227 0.0
H2681 H 0.76453 0.18121 0.02636 0.0
H2682 H 0.74359 0.17959 0.9892 0.0
C2683 C 0.75521 0.23792 0.99064 0.0
C2684 C 0.00738 0.49727 0.23727 0.0
C2685 C 0.02906 0.49287 0.22667 0.0
H2686 H 0.98947 0.50999 0.26763 0.0
C2687 C 0.04968 0.49776 0.23898 0.0
H2688 H 0.9913 0.49366 0.22802 0.0
C2689 C 0.04863 0.50659 0.26167 0.0
C2690 C 0.02696 0.51114 0.27222 0.0
H2691 H 0.06657 0.49429 0.23121 0.0
H2692 H 0.06474 0.51018 0.2709 0.0
C2693 C 0.00634 0.50663 0.25977 0.0
C2694 C 0.74867 0.7639 0.50622 0.0
C2695 C 0.74365 0.7848 0.51798 0.0
H2696 H 0.76153 0.74808 0.47482 0.0
C2697 C 0.74764 0.80618 0.50674 0.0
H2698 H 0.7458 0.74723 0.51465 0.0
C2699 C 0.75619 0.80665 0.48394 0.0
C2700 C 0.76136 0.78575 0.47224 0.0
H2701 H 0.74368 0.82248 0.51546 0.0
H2702 H 0.7591 0.82331 0.47553 0.0
C2703 C 0.75771 0.76438 0.4836 0.0
C2704 C 0.9876 0.01288 0.24427 0.0
C2705 C 0.96595 0.01746 0.2337 0.0
H2706 H 0.00543 0.99901 0.27421 0.0
C2707 C 0.94533 0.01188 0.24575 0.0
H2708 H 0.00371 0.01697 0.23525 0.0
C2709 C 0.94629 0.00201 0.26798 0.0
C2710 C 0.9679 0.99711 0.27846 0.0
H2711 H 0.92843 0.01545 0.23805 0.0
H2712 H 0.93013 0.99786 0.27687 0.0
C2713 C 0.98857 0.00251 0.26639 0.0
C2714 C 0.25392 0.73832 0.50056 0.0
C2715 C 0.26147 0.71775 0.51154 0.0
H2716 H 0.23755 0.75337 0.47036 0.0
C2717 C 0.25879 0.69632 0.5 0.0
H2718 H 0.2557 0.755 0.50925 0.0
C2719 C 0.24889 0.69544 0.47777 0.0
C2720 C 0.24097 0.71593 0.46692 0.0
H2721 H 0.26461 0.68028 0.50814 0.0
H2722 H 0.247 0.67871 0.46919 0.0
C2723 C 0.24345 0.73737 0.47851 0.0
C2724 C 0.48502 0.48856 0.75672 0.0
C2725 C 0.46427 0.48288 0.76852 0.0
H2726 H 0.50042 0.50462 0.72653 0.0
C2727 C 0.44275 0.48885 0.75839 0.0
H2728 H 0.50181 0.48425 0.76427 0.0
C2729 C 0.44196 0.5001 0.73679 0.0
C2730 C 0.46267 0.50605 0.72509 0.0
H2731 H 0.42652 0.48452 0.76707 0.0
H2732 H 0.42513 0.50449 0.72935 0.0
C2733 C 0.48424 0.50032 0.7353 0.0
C2734 C 0.7998 0.50398 0.73477 0.0
C2735 C 0.77792 0.51364 0.72936 0.0
H2736 H 0.81837 0.4752 0.74979 0.0
C2737 C 0.75755 0.50129 0.73508 0.0
H2738 H 0.81571 0.51317 0.73032 0.0
C2739 C 0.75906 0.47981 0.74655 0.0
C2740 C 0.78097 0.47013 0.75187 0.0
H2741 H 0.74053 0.50852 0.73111 0.0
H2742 H 0.74318 0.47063 0.7511 0.0
C2743 C 0.80132 0.48228 0.74569 0.0
C2744 C 0.75915 0.51002 0.00158 0.0
C2745 C 0.76868 0.53146 0.00873 0.0
H2746 H 0.73049 0.4927 0.98455 0.0
C2747 C 0.75626 0.55211 0.00435 0.0
H2748 H 0.76855 0.49392 0.0047 0.0
C2749 C 0.7345 0.55136 0.99339 0.0
C2750 C 0.72502 0.53001 0.98606 0.0
H2751 H 0.76323 0.56879 0.00982 0.0
H2752 H 0.72512 0.5675 0.99041 0.0
C2753 C 0.7376 0.50934 0.99 0.0
C2754 C 0.7377 0.50812 0.25492 0.0
C2755 C 0.71612 0.51885 0.25947 0.0
H2756 H 0.7554 0.47773 0.24217 0.0
C2757 C 0.69541 0.5066 0.25482 0.0
H2758 H 0.7539 0.51729 0.25822 0.0
C2759 C 0.69627 0.48393 0.24591 0.0
C2760 C 0.71786 0.47331 0.2411 0.0
H2761 H 0.67857 0.51447 0.25837 0.0
H2762 H 0.68008 0.47485 0.24236 0.0
C2763 C 0.73856 0.48562 0.24562 0.0
C2764 C 0.75094 0.48394 0.49378 0.0
C2765 C 0.76197 0.46326 0.48654 0.0
H2766 H 0.71993 0.49942 0.50833 0.0
C2767 C 0.74982 0.44206 0.48814 0.0
H2768 H 0.76008 0.50044 0.49271 0.0
C2769 C 0.72687 0.44157 0.4964 0.0
C2770 C 0.71588 0.46219 0.50381 0.0
H2771 H 0.75795 0.42595 0.48248 0.0
H2772 H 0.71772 0.42506 0.49725 0.0
C2773 C 0.72817 0.48335 0.50272 0.0
C2774 C 0.56308 0.99335 0.74717 0.0
C2775 C 0.54249 0.98793 0.73499 0.0
H2776 H 0.57827 0.00844 0.77778 0.0
C2777 C 0.52086 0.99394 0.74497 0.0
H2778 H 0.57998 0.9888 0.74 0.0
C2779 C 0.51988 0.00528 0.76659 0.0
C2780 C 0.5405 0.01057 0.7788 0.0
H2781 H 0.50471 0.99018 0.7359 0.0
H2782 H 0.50299 0.00962 0.77389 0.0
C2783 C 0.5621 0.00442 0.76888 0.0
loop_
_geom_bond_atom_site_label_1
_geom_bond_atom_site_label_2
_geom_bond_distance
_geom_bond_site_symmetry_2
_ccdc_geom_bond_type
C0 C1 1.351 . S
C0 N3 1.368 . S
C0 H5 0.931 . S
C1 C0 1.351 . S
C1 N2 1.373 . S
C1 H29 0.930 . S
N2 C1 1.373 . S
N2 C4 1.340 . S
N3 C0 1.368 . S
N3 C4 1.321 . S
N3 Co6 2.135 . S
C4 N2 1.340 . S
C4 N3 1.321 . S
C4 H28 0.930 . S
H5 C0 0.931 . S
Co6 N3 2.135 . S
Co6 N9 2.121 . S
Co6 O14 2.055 . S
Co6 O17 2.039 . S
Co6 N20 2.140 . S
C7 O8 1.227 . S
C7 O17 1.265 . S
O8 C7 1.227 . S
N9 Co6 2.121 . S
N9 C11 1.375 . S
N9 C12 1.313 . S
C10 C11 1.338 . S
C10 N13 1.377 . S
C10 H30 0.930 . S
C11 N9 1.375 . S
C11 C10 1.338 . S
C11 H15 0.931 . S
C12 N9 1.313 . S
C12 N13 1.344 . S
C12 H16 0.930 . S
N13 C10 1.377 . S
N13 C12 1.344 . S
O14 Co6 2.055 . S
O14 C18 1.253 . S
H15 C11 0.931 . S
H16 C12 0.930 . S
O17 Co6 2.039 . S
O17 C7 1.265 . S
C18 O14 1.253 . S
C18 O19 1.227 . S
O19 C18 1.227 . S
N20 Co6 2.140 . S
N20 C23 1.346 . S
N20 C24 1.345 . S
C21 C22 1.387 . S
C21 C25 1.391 . S
C22 C21 1.387 . S
C22 C23 1.369 . S
C22 H31 0.929 . S
C23 N20 1.346 . S
C23 C22 1.369 . S
C23 H26 0.928 . S
C24 N20 1.345 . S
C24 C25 1.371 . S
C24 H27 0.931 . S
C25 C21 1.391 . S
C25 C24 1.371 . S
C25 H32 0.930 . S
H26 C23 0.928 . S
H27 C24 0.931 . S
H28 C4 0.930 . S
H29 C1 0.930 . S
H30 C10 0.930 . S
H31 C22 0.929 . S
H32 C25 0.930 . S
C33 C34 1.351 . S
C33 N36 1.368 . S
C33 H38 0.931 . S
C34 C33 1.351 . S
C34 N35 1.373 . S
C34 H62 0.930 1_455 S
N35 C34 1.373 . S
N35 C37 1.340 . S
N36 C33 1.368 . S
N36 C37 1.321 . S
N36 Co39 2.135 . S
C37 N35 1.340 . S
C37 N36 1.321 . S
C37 H61 0.930 . S
H38 C33 0.931 . S
Co39 N36 2.135 . S
Co39 N42 2.121 . S
Co39 O47 2.055 . S
Co39 O50 2.039 . S
Co39 N53 2.140 . S
C40 O41 1.227 . S
C40 O50 1.265 . S
O41 C40 1.227 . S
N42 Co39 2.121 . S
N42 C44 1.375 . S
N42 C45 1.313 . S
C43 C44 1.338 . S
C43 N46 1.377 . S
C43 H63 0.930 . S
C44 N42 1.375 . S
C44 C43 1.338 . S
C44 H48 0.931 . S
C45 N42 1.313 . S
C45 N46 1.344 . S
C45 H49 0.930 . S
N46 C43 1.377 . S
N46 C45 1.344 . S
O47 Co39 2.055 . S
O47 C51 1.253 . S
H48 C44 0.931 . S
H49 C45 0.930 . S
O50 Co39 2.039 . S
O50 C40 1.265 . S
C51 O47 1.253 . S
C51 O52 1.227 . S
O52 C51 1.227 . S
N53 Co39 2.140 . S
N53 C56 1.346 . S
N53 C57 1.345 . S
C54 C55 1.387 . S
C54 C58 1.391 . S
C55 C54 1.387 . S
C55 C56 1.369 . S
C55 H64 0.929 . S
C56 N53 1.346 . S
C56 C55 1.369 . S
C56 H59 0.928 . S
C57 N53 1.345 . S
C57 C58 1.371 . S
C57 H60 0.931 . S
C58 C54 1.391 . S
C58 C57 1.371 . S
C58 H65 0.930 . S
H59 C56 0.928 . S
H60 C57 0.931 . S
H61 C37 0.930 . S
H62 C34 0.930 1_655 S
H63 C43 0.930 . S
H64 C55 0.929 . S
H65 C58 0.930 . S
C66 C67 1.351 . S
C66 N69 1.368 . S
C66 H71 0.931 . S
C67 C66 1.351 . S
C67 N68 1.373 . S
C67 H95 0.930 . S
N68 C67 1.373 . S
N68 C70 1.340 . S
N69 C66 1.368 . S
N69 C70 1.321 . S
N69 Co72 2.135 . S
C70 N68 1.340 . S
C70 N69 1.321 . S
C70 H94 0.930 . S
H71 C66 0.931 . S
Co72 N69 2.135 . S
Co72 N75 2.121 . S
Co72 O80 2.055 . S
Co72 O83 2.039 . S
Co72 N86 2.140 . S
C73 O74 1.227 . S
C73 O83 1.265 . S
O74 C73 1.227 . S
N75 Co72 2.121 . S
N75 C77 1.375 . S
N75 C78 1.313 . S
C76 C77 1.338 . S
C76 N79 1.377 . S
C76 H96 0.930 . S
C77 N75 1.375 . S
C77 C76 1.338 . S
C77 H81 0.931 . S
C78 N75 1.313 . S
C78 N79 1.344 . S
C78 H82 0.930 . S
N79 C76 1.377 . S
N79 C78 1.344 . S
O80 Co72 2.055 . S
O80 C84 1.253 . S
H81 C77 0.931 . S
H82 C78 0.930 . S
O83 Co72 2.039 . S
O83 C73 1.265 . S
C84 O80 1.253 . S
C84 O85 1.227 . S
O85 C84 1.227 . S
N86 Co72 2.140 . S
N86 C89 1.346 . S
N86 C90 1.345 . S
C87 C88 1.387 . S
C87 C91 1.391 . S
C88 C87 1.387 . S
C88 C89 1.369 . S
C88 H97 0.929 . S
C89 N86 1.346 . S
C89 C88 1.369 . S
C89 H92 0.928 . S
C90 N86 1.345 . S
C90 C91 1.371 . S
C90 H93 0.931 . S
C91 C87 1.391 . S
C91 C90 1.371 . S
C91 H98 0.930 . S
H92 C89 0.928 . S
H93 C90 0.931 . S
H94 C70 0.930 . S
H95 C67 0.930 . S
H96 C76 0.930 . S
H97 C88 0.929 . S
H98 C91 0.930 . S
C99 C100 1.351 . S
C99 N102 1.368 . S
C99 H104 0.931 . S
C100 C99 1.351 . S
C100 N101 1.373 . S
C100 H128 0.930 . S
N101 C100 1.373 . S
N101 C103 1.340 . S
N102 C99 1.368 . S
N102 C103 1.321 . S
N102 Co105 2.135 . S
C103 N101 1.340 . S
C103 N102 1.321 . S
C103 H127 0.930 . S
H104 C99 0.931 . S
Co105 N102 2.135 . S
Co105 N108 2.121 . S
Co105 O113 2.055 1_554 S
Co105 O116 2.039 1_554 S
Co105 N119 2.140 . S
C106 O107 1.227 . S
C106 O116 1.265 1_554 S
O107 C106 1.227 . S
N108 Co105 2.121 . S
N108 C110 1.375 . S
N108 C111 1.313 1_554 S
C109 C110 1.336 . S
C109 N112 1.378 1_554 S
C109 H129 0.930 1_554 S
C110 N108 1.375 . S
C110 C109 1.336 . S
C110 H114 0.931 . S
C111 N108 1.313 1_556 S
C111 N112 1.344 . S
C111 H115 0.930 . S
N112 C109 1.378 1_556 S
N112 C111 1.344 . S
O113 Co105 2.055 1_556 S
O113 C117 1.253 1_556 S
H114 C110 0.931 . S
H115 C111 0.930 . S
O116 Co105 2.039 1_556 S
O116 C106 1.265 1_556 S
C117 O113 1.253 1_554 S
C117 O118 1.227 . S
O118 C117 1.227 . S
N119 Co105 2.140 . S
N119 C122 1.346 . S
N119 C123 1.345 . S
C120 C121 1.387 . S
C120 C124 1.391 . S
C121 C120 1.387 . S
C121 C122 1.369 . S
C121 H130 0.929 . S
C122 N119 1.346 . S
C122 C121 1.369 . S
C122 H125 0.928 . S
C123 N119 1.345 . S
C123 C124 1.371 . S
C123 H126 0.931 . S
C124 C120 1.391 . S
C124 C123 1.371 . S
C124 H131 0.930 . S
H125 C122 0.928 . S
H126 C123 0.931 . S
H127 C103 0.930 . S
H128 C100 0.930 . S
H129 C109 0.930 1_556 S
H130 C121 0.929 . S
H131 C124 0.930 . S
C132 C133 1.351 . S
C132 N135 1.368 . S
C132 H137 0.931 . S
C133 C132 1.351 . S
C133 N134 1.373 . S
C133 H161 0.930 . S
N134 C133 1.373 . S
N134 C136 1.340 . S
N135 C132 1.368 . S
N135 C136 1.321 . S
N135 Co138 2.135 . S
C136 N134 1.340 . S
C136 N135 1.321 . S
C136 H160 0.930 . S
H137 C132 0.931 . S
Co138 N135 2.135 . S
Co138 N141 2.121 . S
Co138 O146 2.055 . S
Co138 O149 2.039 . S
Co138 N152 2.140 . S
C139 O140 1.227 . S
C139 O149 1.265 . S
O140 C139 1.227 . S
N141 Co138 2.121 . S
N141 C143 1.375 . S
N141 C144 1.313 . S
C142 C143 1.338 . S
C142 N145 1.377 . S
C142 H162 0.930 . S
C143 N141 1.375 . S
C143 C142 1.338 . S
C143 H147 0.931 . S
C144 N141 1.313 . S
C144 N145 1.344 . S
C144 H148 0.930 . S
N145 C142 1.377 . S
N145 C144 1.344 . S
O146 Co138 2.055 . S
O146 C150 1.253 . S
H147 C143 0.931 . S
H148 C144 0.930 . S
O149 Co138 2.039 . S
O149 C139 1.265 . S
C150 O146 1.253 . S
C150 O151 1.227 . S
O151 C150 1.227 . S
N152 Co138 2.140 . S
N152 C155 1.346 . S
N152 C156 1.345 . S
C153 C154 1.387 . S
C153 C157 1.391 . S
C154 C153 1.387 . S
C154 C155 1.369 . S
C154 H163 0.929 . S
C155 N152 1.346 . S
C155 C154 1.369 . S
C155 H158 0.928 . S
C156 N152 1.345 . S
C156 C157 1.371 . S
C156 H159 0.931 . S
C157 C153 1.391 . S
C157 C156 1.371 . S
C157 H164 0.930 . S
H158 C155 0.928 . S
H159 C156 0.931 . S
H160 C136 0.930 . S
H161 C133 0.930 . S
H162 C142 0.930 . S
H163 C154 0.929 . S
H164 C157 0.930 . S
C165 C166 1.351 . S
C165 N168 1.368 . S
C165 H170 0.931 . S
C166 C165 1.351 . S
C166 N167 1.373 . S
C166 H194 0.930 . S
N167 C166 1.373 . S
N167 C169 1.340 . S
N168 C165 1.368 . S
N168 C169 1.321 . S
N168 Co171 2.135 . S
C169 N167 1.340 . S
C169 N168 1.321 . S
C169 H193 0.930 . S
H170 C165 0.931 . S
Co171 N168 2.135 . S
Co171 N174 2.121 . S
Co171 O179 2.055 . S
Co171 O182 2.039 . S
Co171 N185 2.140 . S
C172 O173 1.227 . S
C172 O182 1.265 . S
O173 C172 1.227 . S
N174 Co171 2.121 . S
N174 C176 1.375 . S
N174 C177 1.313 . S
C175 C176 1.338 . S
C175 N178 1.377 . S
C175 H195 0.930 . S
C176 N174 1.375 . S
C176 C175 1.338 . S
C176 H180 0.931 . S
C177 N174 1.313 . S
C177 N178 1.344 . S
C177 H181 0.930 . S
N178 C175 1.377 . S
N178 C177 1.344 . S
O179 Co171 2.055 . S
O179 C183 1.253 . S
H180 C176 0.931 . S
H181 C177 0.930 . S
O182 Co171 2.039 . S
O182 C172 1.265 . S
C183 O179 1.253 . S
C183 O184 1.227 . S
O184 C183 1.227 . S
N185 Co171 2.140 . S
N185 C188 1.346 . S
N185 C189 1.345 . S
C186 C187 1.387 . S
C186 C190 1.391 . S
C187 C186 1.387 . S
C187 C188 1.369 . S
C187 H196 0.929 . S
C188 N185 1.346 . S
C188 C187 1.369 . S
C188 H191 0.928 . S
C189 N185 1.345 . S
C189 C190 1.371 . S
C189 H192 0.931 . S
C190 C186 1.391 . S
C190 C189 1.371 . S
C190 H197 0.930 . S
H191 C188 0.928 . S
H192 C189 0.931 . S
H193 C169 0.930 . S
H194 C166 0.930 . S
H195 C175 0.930 . S
H196 C187 0.929 . S
H197 C190 0.930 . S
C198 C199 1.351 . S
C198 N201 1.368 . S
C198 H203 0.931 . S
C199 C198 1.351 . S
C199 N200 1.373 . S
C199 H227 0.930 . S
N200 C199 1.373 . S
N200 C202 1.340 . S
N201 C198 1.368 . S
N201 C202 1.321 . S
N201 Co204 2.135 . S
C202 N200 1.340 . S
C202 N201 1.321 . S
C202 H226 0.930 . S
H203 C198 0.931 . S
Co204 N201 2.135 . S
Co204 N207 2.121 . S
Co204 O212 2.055 . S
Co204 O215 2.039 . S
Co204 N218 2.140 . S
C205 O206 1.227 . S
C205 O215 1.265 . S
O206 C205 1.227 . S
N207 Co204 2.121 . S
N207 C209 1.375 . S
N207 C210 1.313 . S
C208 C209 1.338 . S
C208 N211 1.377 . S
C208 H228 0.930 . S
C209 N207 1.375 . S
C209 C208 1.338 . S
C209 H213 0.931 . S
C210 N207 1.313 . S
C210 N211 1.344 . S
C210 H214 0.930 . S
N211 C208 1.377 . S
N211 C210 1.344 . S
O212 Co204 2.055 . S
O212 C216 1.253 . S
H213 C209 0.931 . S
H214 C210 0.930 . S
O215 Co204 2.039 . S
O215 C205 1.265 . S
C216 O212 1.253 . S
C216 O217 1.227 . S
O217 C216 1.227 . S
N218 Co204 2.140 . S
N218 C221 1.346 . S
N218 C222 1.345 . S
C219 C220 1.387 . S
C219 C223 1.391 . S
C220 C219 1.387 . S
C220 C221 1.369 . S
C220 H229 0.929 . S
C221 N218 1.346 . S
C221 C220 1.369 . S
C221 H224 0.928 . S
C222 N218 1.345 . S
C222 C223 1.371 . S
C222 H225 0.931 . S
C223 C219 1.391 . S
C223 C222 1.371 . S
C223 H230 0.930 . S
H224 C221 0.928 . S
H225 C222 0.931 . S
H226 C202 0.930 . S
H227 C199 0.930 . S
H228 C208 0.930 . S
H229 C220 0.929 . S
H230 C223 0.930 . S
C231 C232 1.351 . S
C231 N234 1.368 . S
C231 H236 0.931 . S
C232 C231 1.351 . S
C232 N233 1.373 . S
C232 H260 0.930 1_455 S
N233 C232 1.373 . S
N233 C235 1.340 . S
N234 C231 1.368 . S
N234 C235 1.321 . S
N234 Co237 2.135 . S
C235 N233 1.340 . S
C235 N234 1.321 . S
C235 H259 0.930 . S
H236 C231 0.931 . S
Co237 N234 2.135 . S
Co237 N240 2.121 . S
Co237 O245 2.055 1_556 S
Co237 O248 2.039 1_556 S
Co237 N251 2.140 . S
C238 O239 1.227 . S
C238 O248 1.265 1_556 S
O239 C238 1.227 . S
N240 Co237 2.121 . S
N240 C242 1.375 . S
N240 C243 1.313 1_556 S
C241 C242 1.336 . S
C241 N244 1.378 1_556 S
C241 H261 0.930 1_556 S
C242 N240 1.375 . S
C242 C241 1.336 . S
C242 H246 0.931 . S
C243 N240 1.313 1_554 S
C243 N244 1.344 . S
C243 H247 0.930 . S
N244 C241 1.378 1_554 S
N244 C243 1.344 . S
O245 Co237 2.055 1_554 S
O245 C249 1.253 1_554 S
H246 C242 0.931 . S
H247 C243 0.930 . S
O248 Co237 2.039 1_554 S
O248 C238 1.265 1_554 S
C249 O245 1.253 1_556 S
C249 O250 1.227 . S
O250 C249 1.227 . S
N251 Co237 2.140 . S
N251 C254 1.346 . S
N251 C255 1.345 . S
C252 C253 1.387 . S
C252 C256 1.391 . S
C253 C252 1.387 . S
C253 C254 1.369 . S
C253 H262 0.929 . S
C254 N251 1.346 . S
C254 C253 1.369 . S
C254 H257 0.928 . S
C255 N251 1.345 . S
C255 C256 1.371 . S
C255 H258 0.931 . S
C256 C252 1.391 . S
C256 C255 1.371 . S
C256 H263 0.930 . S
H257 C254 0.928 . S
H258 C255 0.931 . S
H259 C235 0.930 . S
H260 C232 0.930 1_655 S
H261 C241 0.930 1_554 S
H262 C253 0.929 . S
H263 C256 0.930 . S
C264 C265 1.351 . S
C264 N267 1.368 . S
C264 H269 0.931 . S
C265 C264 1.351 . S
C265 N266 1.373 . S
C265 H293 0.930 . S
N266 C265 1.373 . S
N266 C268 1.340 . S
N267 C264 1.368 . S
N267 C268 1.321 . S
N267 Co270 2.135 . S
C268 N266 1.340 . S
C268 N267 1.321 . S
C268 H292 0.930 . S
H269 C264 0.931 . S
Co270 N267 2.135 . S
Co270 N273 2.121 . S
Co270 O278 2.055 . S
Co270 O281 2.039 . S
Co270 N284 2.140 . S
C271 O272 1.227 . S
C271 O281 1.265 . S
O272 C271 1.227 . S
N273 Co270 2.121 . S
N273 C275 1.375 . S
N273 C276 1.313 . S
C274 C275 1.338 . S
C274 N277 1.377 . S
C274 H294 0.930 . S
C275 N273 1.375 . S
C275 C274 1.338 . S
C275 H279 0.931 . S
C276 N273 1.313 . S
C276 N277 1.344 . S
C276 H280 0.930 . S
N277 C274 1.377 . S
N277 C276 1.344 . S
O278 Co270 2.055 . S
O278 C282 1.253 . S
H279 C275 0.931 . S
H280 C276 0.930 . S
O281 Co270 2.039 . S
O281 C271 1.265 . S
C282 O278 1.253 . S
C282 O283 1.227 . S
O283 C282 1.227 . S
N284 Co270 2.140 . S
N284 C287 1.346 . S
N284 C288 1.345 . S
C285 C286 1.387 . S
C285 C289 1.391 . S
C286 C285 1.387 . S
C286 C287 1.369 . S
C286 H295 0.929 . S
C287 N284 1.346 . S
C287 C286 1.369 . S
C287 H290 0.928 . S
C288 N284 1.345 . S
C288 C289 1.371 . S
C288 H291 0.931 . S
C289 C285 1.391 . S
C289 C288 1.371 . S
C289 H296 0.930 . S
H290 C287 0.928 . S
H291 C288 0.931 . S
H292 C268 0.930 . S
H293 C265 0.930 . S
H294 C274 0.930 . S
H295 C286 0.929 . S
H296 C289 0.930 . S
C297 C298 1.351 . S
C297 N300 1.368 . S
C297 H302 0.931 . S
C298 C297 1.351 . S
C298 N299 1.373 . S
C298 H326 0.930 . S
N299 C298 1.373 . S
N299 C301 1.340 . S
N300 C297 1.368 . S
N300 C301 1.321 . S
N300 Co303 2.135 . S
C301 N299 1.340 . S
C301 N300 1.321 . S
C301 H325 0.930 . S
H302 C297 0.931 . S
Co303 N300 2.135 . S
Co303 N306 2.121 . S
Co303 O311 2.055 1_545 S
Co303 O314 2.039 1_545 S
Co303 N317 2.140 . S
C304 O305 1.227 . S
C304 O314 1.265 1_545 S
O305 C304 1.227 . S
N306 Co303 2.121 . S
N306 C308 1.375 . S
N306 C309 1.313 1_545 S
C307 C308 1.336 . S
C307 N310 1.378 1_545 S
C307 H327 0.930 1_545 S
C308 N306 1.375 . S
C308 C307 1.336 . S
C308 H312 0.931 . S
C309 N306 1.313 1_565 S
C309 N310 1.344 . S
C309 H313 0.930 . S
N310 C307 1.378 1_565 S
N310 C309 1.344 . S
O311 Co303 2.055 1_565 S
O311 C315 1.253 1_565 S
H312 C308 0.931 . S
H313 C309 0.930 . S
O314 Co303 2.039 1_565 S
O314 C304 1.265 1_565 S
C315 O311 1.253 1_545 S
C315 O316 1.227 . S
O316 C315 1.227 . S
N317 Co303 2.140 . S
N317 C320 1.346 . S
N317 C321 1.345 . S
C318 C319 1.387 . S
C318 C322 1.391 . S
C319 C318 1.387 . S
C319 C320 1.369 . S
C319 H328 0.929 . S
C320 N317 1.346 . S
C320 C319 1.369 . S
C320 H323 0.928 . S
C321 N317 1.345 . S
C321 C322 1.371 . S
C321 H324 0.931 . S
C322 C318 1.391 . S
C322 C321 1.371 . S
C322 H329 0.930 . S
H323 C320 0.928 . S
H324 C321 0.931 . S
H325 C301 0.930 . S
H326 C298 0.930 . S
H327 C307 0.930 1_565 S
H328 C319 0.929 . S
H329 C322 0.930 . S
C330 C331 1.351 . S
C330 N333 1.368 . S
C330 H335 0.931 . S
C331 C330 1.351 . S
C331 N332 1.373 . S
C331 H359 0.930 . S
N332 C331 1.373 . S
N332 C334 1.340 . S
N333 C330 1.368 . S
N333 C334 1.321 . S
N333 Co336 2.135 . S
C334 N332 1.340 . S
C334 N333 1.321 . S
C334 H358 0.930 . S
H335 C330 0.931 . S
Co336 N333 2.135 . S
Co336 N339 2.121 . S
Co336 O344 2.055 . S
Co336 O347 2.039 . S
Co336 N350 2.140 . S
C337 O338 1.227 . S
C337 O347 1.265 . S
O338 C337 1.227 . S
N339 Co336 2.121 . S
N339 C341 1.375 . S
N339 C342 1.313 . S
C340 C341 1.338 . S
C340 N343 1.377 . S
C340 H360 0.930 . S
C341 N339 1.375 . S
C341 C340 1.338 . S
C341 H345 0.931 . S
C342 N339 1.313 . S
C342 N343 1.344 . S
C342 H346 0.930 . S
N343 C340 1.377 . S
N343 C342 1.344 . S
O344 Co336 2.055 . S
O344 C348 1.253 . S
H345 C341 0.931 . S
H346 C342 0.930 . S
O347 Co336 2.039 . S
O347 C337 1.265 . S
C348 O344 1.253 . S
C348 O349 1.227 . S
O349 C348 1.227 . S
N350 Co336 2.140 . S
N350 C353 1.346 . S
N350 C354 1.345 . S
C351 C352 1.387 . S
C351 C355 1.391 . S
C352 C351 1.387 . S
C352 C353 1.369 . S
C352 H361 0.929 . S
C353 N350 1.346 . S
C353 C352 1.369 . S
C353 H356 0.928 . S
C354 N350 1.345 . S
C354 C355 1.371 . S
C354 H357 0.931 . S
C355 C351 1.391 . S
C355 C354 1.371 . S
C355 H362 0.930 . S
H356 C353 0.928 . S
H357 C354 0.931 . S
H358 C334 0.930 . S
H359 C331 0.930 . S
H360 C340 0.930 . S
H361 C352 0.929 . S
H362 C355 0.930 . S
C363 C364 1.351 . S
C363 N366 1.368 . S
C363 H368 0.931 . S
C364 C363 1.351 . S
C364 N365 1.373 . S
C364 H392 0.930 1_556 S
N365 C364 1.373 . S
N365 C367 1.340 . S
N366 C363 1.368 . S
N366 C367 1.321 . S
N366 Co369 2.135 . S
C367 N365 1.340 . S
C367 N366 1.321 . S
C367 H391 0.930 . S
H368 C363 0.931 . S
Co369 N366 2.135 . S
Co369 N372 2.121 . S
Co369 O377 2.055 1_565 S
Co369 O380 2.039 1_565 S
Co369 N383 2.140 . S
C370 O371 1.227 . S
C370 O380 1.265 1_565 S
O371 C370 1.227 . S
N372 Co369 2.121 . S
N372 C374 1.375 . S
N372 C375 1.313 1_565 S
C373 C374 1.336 . S
C373 N376 1.378 1_565 S
C373 H393 0.930 1_565 S
C374 N372 1.375 . S
C374 C373 1.336 . S
C374 H378 0.931 . S
C375 N372 1.313 1_545 S
C375 N376 1.344 . S
C375 H379 0.930 . S
N376 C373 1.378 1_545 S
N376 C375 1.344 . S
O377 Co369 2.055 1_545 S
O377 C381 1.253 1_545 S
H378 C374 0.931 . S
H379 C375 0.930 . S
O380 Co369 2.039 1_545 S
O380 C370 1.265 1_545 S
C381 O377 1.253 1_565 S
C381 O382 1.227 . S
O382 C381 1.227 . S
N383 Co369 2.140 . S
N383 C386 1.346 . S
N383 C387 1.345 . S
C384 C385 1.387 . S
C384 C388 1.391 . S
C385 C384 1.387 . S
C385 C386 1.369 . S
C385 H394 0.929 . S
C386 N383 1.346 . S
C386 C385 1.369 . S
C386 H389 0.928 . S
C387 N383 1.345 . S
C387 C388 1.371 . S
C387 H390 0.931 . S
C388 C384 1.391 . S
C388 C387 1.371 . S
C388 H395 0.930 . S
H389 C386 0.928 . S
H390 C387 0.931 . S
H391 C367 0.930 . S
H392 C364 0.930 1_554 S
H393 C373 0.930 1_545 S
H394 C385 0.929 . S
H395 C388 0.930 . S
C396 C397 1.351 . S
C396 N399 1.368 . S
C396 H401 0.931 . S
C397 C396 1.351 . S
C397 N398 1.373 . S
C397 H425 0.930 . S
N398 C397 1.373 . S
N398 C400 1.340 . S
N399 C396 1.368 . S
N399 C400 1.321 . S
N399 Co402 2.135 . S
C400 N398 1.340 . S
C400 N399 1.321 . S
C400 H424 0.930 . S
H401 C396 0.931 . S
Co402 N399 2.135 . S
Co402 N405 2.121 . S
Co402 O410 2.055 . S
Co402 O413 2.039 . S
Co402 N416 2.140 . S
C403 O404 1.227 . S
C403 O413 1.265 . S
O404 C403 1.227 . S
N405 Co402 2.121 . S
N405 C407 1.375 . S
N405 C408 1.313 . S
C406 C407 1.338 . S
C406 N409 1.377 . S
C406 H426 0.930 . S
C407 N405 1.375 . S
C407 C406 1.338 . S
C407 H411 0.931 . S
C408 N405 1.313 . S
C408 N409 1.344 . S
C408 H412 0.930 . S
N409 C406 1.377 . S
N409 C408 1.344 . S
O410 Co402 2.055 . S
O410 C414 1.253 . S
H411 C407 0.931 . S
H412 C408 0.930 . S
O413 Co402 2.039 . S
O413 C403 1.265 . S
C414 O410 1.253 . S
C414 O415 1.227 . S
O415 C414 1.227 . S
N416 Co402 2.140 . S
N416 C419 1.346 . S
N416 C420 1.345 . S
C417 C418 1.387 . S
C417 C421 1.391 . S
C418 C417 1.387 . S
C418 C419 1.369 . S
C418 H427 0.929 . S
C419 N416 1.346 . S
C419 C418 1.369 . S
C419 H422 0.928 . S
C420 N416 1.345 . S
C420 C421 1.371 . S
C420 H423 0.931 . S
C421 C417 1.391 . S
C421 C420 1.371 . S
C421 H428 0.930 . S
H422 C419 0.928 . S
H423 C420 0.931 . S
H424 C400 0.930 . S
H425 C397 0.930 . S
H426 C406 0.930 . S
H427 C418 0.929 . S
H428 C421 0.930 . S
C429 C430 1.351 . S
C429 N432 1.368 . S
C429 H434 0.931 . S
C430 C429 1.351 . S
C430 N431 1.373 . S
C430 H458 0.930 . S
N431 C430 1.373 . S
N431 C433 1.340 . S
N432 C429 1.368 . S
N432 C433 1.321 . S
N432 Co435 2.135 . S
C433 N431 1.340 . S
C433 N432 1.321 . S
C433 H457 0.930 . S
H434 C429 0.931 . S
Co435 N432 2.135 . S
Co435 N438 2.121 . S
Co435 O443 2.055 1_545 S
Co435 O446 2.039 1_545 S
Co435 N449 2.140 . S
C436 O437 1.227 . S
C436 O446 1.265 1_545 S
O437 C436 1.227 . S
N438 Co435 2.121 . S
N438 C440 1.375 . S
N438 C441 1.313 1_545 S
C439 C440 1.336 . S
C439 N442 1.378 1_545 S
C439 H459 0.930 1_545 S
C440 N438 1.375 . S
C440 C439 1.336 . S
C440 H444 0.931 . S
C441 N438 1.313 1_565 S
C441 N442 1.344 . S
C441 H445 0.930 . S
N442 C439 1.378 1_565 S
N442 C441 1.344 . S
O443 Co435 2.055 1_565 S
O443 C447 1.253 1_565 S
H444 C440 0.931 . S
H445 C441 0.930 . S
O446 Co435 2.039 1_565 S
O446 C436 1.265 1_565 S
C447 O443 1.253 1_545 S
C447 O448 1.227 . S
O448 C447 1.227 . S
N449 Co435 2.140 . S
N449 C452 1.346 . S
N449 C453 1.345 . S
C450 C451 1.387 . S
C450 C454 1.391 . S
C451 C450 1.387 . S
C451 C452 1.369 . S
C451 H460 0.929 . S
C452 N449 1.346 . S
C452 C451 1.369 . S
C452 H455 0.928 . S
C453 N449 1.345 . S
C453 C454 1.371 . S
C453 H456 0.931 . S
C454 C450 1.391 . S
C454 C453 1.371 . S
C454 H461 0.930 . S
H455 C452 0.928 . S
H456 C453 0.931 . S
H457 C433 0.930 . S
H458 C430 0.930 . S
H459 C439 0.930 1_565 S
H460 C451 0.929 . S
H461 C454 0.930 . S
C462 C463 1.351 . S
C462 N465 1.368 . S
C462 H467 0.931 . S
C463 C462 1.351 . S
C463 N464 1.373 . S
C463 H491 0.930 . S
N464 C463 1.373 . S
N464 C466 1.340 . S
N465 C462 1.368 . S
N465 C466 1.321 . S
N465 Co468 2.135 . S
C466 N464 1.340 . S
C466 N465 1.321 . S
C466 H490 0.930 . S
H467 C462 0.931 . S
Co468 N465 2.135 . S
Co468 N471 2.121 . S
Co468 O476 2.055 . S
Co468 O479 2.039 . S
Co468 N482 2.140 . S
C469 O470 1.227 . S
C469 O479 1.265 . S
O470 C469 1.227 . S
N471 Co468 2.121 . S
N471 C473 1.375 . S
N471 C474 1.313 . S
C472 C473 1.338 . S
C472 N475 1.377 . S
C472 H492 0.930 . S
C473 N471 1.375 . S
C473 C472 1.338 . S
C473 H477 0.931 . S
C474 N471 1.313 . S
C474 N475 1.344 . S
C474 H478 0.930 . S
N475 C472 1.377 . S
N475 C474 1.344 . S
O476 Co468 2.055 . S
O476 C480 1.253 . S
H477 C473 0.931 . S
H478 C474 0.930 . S
O479 Co468 2.039 . S
O479 C469 1.265 . S
C480 O476 1.253 . S
C480 O481 1.227 . S
O481 C480 1.227 . S
N482 Co468 2.140 . S
N482 C485 1.346 . S
N482 C486 1.345 . S
C483 C484 1.387 . S
C483 C487 1.391 . S
C484 C483 1.387 . S
C484 C485 1.369 . S
C484 H493 0.929 . S
C485 N482 1.346 . S
C485 C484 1.369 . S
C485 H488 0.928 . S
C486 N482 1.345 . S
C486 C487 1.371 . S
C486 H489 0.931 . S
C487 C483 1.391 . S
C487 C486 1.371 . S
C487 H494 0.930 . S
H488 C485 0.928 . S
H489 C486 0.931 . S
H490 C466 0.930 . S
H491 C463 0.930 . S
H492 C472 0.930 . S
H493 C484 0.929 . S
H494 C487 0.930 . S
C495 C496 1.351 . S
C495 N498 1.368 . S
C495 H500 0.931 . S
C496 C495 1.351 . S
C496 N497 1.373 . S
C496 H524 0.930 1_554 S
N497 C496 1.373 . S
N497 C499 1.340 . S
N498 C495 1.368 . S
N498 C499 1.321 . S
N498 Co501 2.135 . S
C499 N497 1.340 . S
C499 N498 1.321 . S
C499 H523 0.930 . S
H500 C495 0.931 . S
Co501 N498 2.135 . S
Co501 N504 2.121 . S
Co501 O509 2.055 1_565 S
Co501 O512 2.039 1_565 S
Co501 N515 2.140 . S
C502 O503 1.227 . S
C502 O512 1.265 1_565 S
O503 C502 1.227 . S
N504 Co501 2.121 . S
N504 C506 1.375 . S
N504 C507 1.313 1_565 S
C505 C506 1.336 . S
C505 N508 1.378 1_565 S
C505 H525 0.930 1_565 S
C506 N504 1.375 . S
C506 C505 1.336 . S
C506 H510 0.931 . S
C507 N504 1.313 1_545 S
C507 N508 1.344 . S
C507 H511 0.930 . S
N508 C505 1.378 1_545 S
N508 C507 1.344 . S
O509 Co501 2.055 1_545 S
O509 C513 1.253 1_545 S
H510 C506 0.931 . S
H511 C507 0.930 . S
O512 Co501 2.039 1_545 S
O512 C502 1.265 1_545 S
C513 O509 1.253 1_565 S
C513 O514 1.227 . S
O514 C513 1.227 . S
N515 Co501 2.140 . S
N515 C518 1.346 . S
N515 C519 1.345 . S
C516 C517 1.387 . S
C516 C520 1.391 . S
C517 C516 1.387 . S
C517 C518 1.369 . S
C517 H526 0.929 . S
C518 N515 1.346 . S
C518 C517 1.369 . S
C518 H521 0.928 . S
C519 N515 1.345 . S
C519 C520 1.371 . S
C519 H522 0.931 . S
C520 C516 1.391 . S
C520 C519 1.371 . S
C520 H527 0.930 . S
H521 C518 0.928 . S
H522 C519 0.931 . S
H523 C499 0.930 . S
H524 C496 0.930 1_556 S
H525 C505 0.930 1_545 S
H526 C517 0.929 . S
H527 C520 0.930 . S
C528 C529 1.351 . S
C528 N531 1.368 . S
C528 H533 0.931 . S
C529 C528 1.351 . S
C529 N530 1.373 . S
C529 H557 0.930 . S
N530 C529 1.373 . S
N530 C532 1.340 . S
N531 C528 1.368 . S
N531 C532 1.321 . S
N531 Co534 2.135 . S
C532 N530 1.340 . S
C532 N531 1.321 . S
C532 H556 0.930 . S
H533 C528 0.931 . S
Co534 N531 2.135 . S
Co534 N537 2.121 . S
Co534 O542 2.055 . S
Co534 O545 2.039 . S
Co534 N548 2.140 . S
C535 O536 1.227 . S
C535 O545 1.265 . S
O536 C535 1.227 . S
N537 Co534 2.121 . S
N537 C539 1.375 . S
N537 C540 1.313 . S
C538 C539 1.338 . S
C538 N541 1.377 . S
C538 H558 0.930 . S
C539 N537 1.375 . S
C539 C538 1.338 . S
C539 H543 0.931 . S
C540 N537 1.313 . S
C540 N541 1.344 . S
C540 H544 0.930 . S
N541 C538 1.377 . S
N541 C540 1.344 . S
O542 Co534 2.055 . S
O542 C546 1.253 . S
H543 C539 0.931 . S
H544 C540 0.930 . S
O545 Co534 2.039 . S
O545 C535 1.265 . S
C546 O542 1.253 . S
C546 O547 1.227 . S
O547 C546 1.227 . S
N548 Co534 2.140 . S
N548 C551 1.346 . S
N548 C552 1.345 . S
C549 C550 1.387 . S
C549 C553 1.391 . S
C550 C549 1.387 . S
C550 C551 1.369 . S
C550 H559 0.929 . S
C551 N548 1.346 . S
C551 C550 1.369 . S
C551 H554 0.928 . S
C552 N548 1.345 . S
C552 C553 1.371 . S
C552 H555 0.931 . S
C553 C549 1.391 . S
C553 C552 1.371 . S
C553 H560 0.930 . S
H554 C551 0.928 . S
H555 C552 0.931 . S
H556 C532 0.930 . S
H557 C529 0.930 . S
H558 C538 0.930 . S
H559 C550 0.929 . S
H560 C553 0.930 . S
C561 C562 1.351 . S
C561 N564 1.368 . S
C561 H566 0.931 . S
C562 C561 1.351 . S
C562 N563 1.373 . S
C562 H590 0.930 . S
N563 C562 1.373 . S
N563 C565 1.340 . S
N564 C561 1.368 . S
N564 C565 1.321 . S
N564 Co567 2.135 . S
C565 N563 1.340 . S
C565 N564 1.321 . S
C565 H589 0.930 . S
H566 C561 0.931 . S
Co567 N564 2.135 . S
Co567 N570 2.121 . S
Co567 O575 2.055 . S
Co567 O578 2.039 . S
Co567 N581 2.140 . S
C568 O569 1.227 . S
C568 O578 1.265 . S
O569 C568 1.227 . S
N570 Co567 2.121 . S
N570 C572 1.375 . S
N570 C573 1.313 . S
C571 C572 1.338 . S
C571 N574 1.377 . S
C571 H591 0.930 . S
C572 N570 1.375 . S
C572 C571 1.338 . S
C572 H576 0.931 . S
C573 N570 1.313 . S
C573 N574 1.344 . S
C573 H577 0.930 . S
N574 C571 1.377 . S
N574 C573 1.344 . S
O575 Co567 2.055 . S
O575 C579 1.253 . S
H576 C572 0.931 . S
H577 C573 0.930 . S
O578 Co567 2.039 . S
O578 C568 1.265 . S
C579 O575 1.253 . S
C579 O580 1.227 . S
O580 C579 1.227 . S
N581 Co567 2.140 . S
N581 C584 1.346 . S
N581 C585 1.345 . S
C582 C583 1.387 . S
C582 C586 1.391 . S
C583 C582 1.387 . S
C583 C584 1.369 . S
C583 H592 0.929 . S
C584 N581 1.346 . S
C584 C583 1.369 . S
C584 H587 0.928 . S
C585 N581 1.345 . S
C585 C586 1.371 . S
C585 H588 0.931 . S
C586 C582 1.391 . S
C586 C585 1.371 . S
C586 H593 0.930 . S
H587 C584 0.928 . S
H588 C585 0.931 . S
H589 C565 0.930 . S
H590 C562 0.930 . S
H591 C571 0.930 . S
H592 C583 0.929 . S
H593 C586 0.930 . S
C594 C595 1.351 . S
C594 N597 1.368 . S
C594 H599 0.931 . S
C595 C594 1.351 . S
C595 N596 1.373 . S
C595 H623 0.930 . S
N596 C595 1.373 . S
N596 C598 1.340 . S
N597 C594 1.368 . S
N597 C598 1.321 . S
N597 Co600 2.135 . S
C598 N596 1.340 . S
C598 N597 1.321 . S
C598 H622 0.930 . S
H599 C594 0.931 . S
Co600 N597 2.135 . S
Co600 N603 2.121 . S
Co600 O608 2.055 1_455 S
Co600 O611 2.039 1_455 S
Co600 N614 2.140 . S
C601 O602 1.227 . S
C601 O611 1.265 1_455 S
O602 C601 1.227 . S
N603 Co600 2.121 . S
N603 C605 1.375 . S
N603 C606 1.313 1_455 S
C604 C605 1.336 . S
C604 N607 1.378 1_455 S
C604 H624 0.930 1_455 S
C605 N603 1.375 . S
C605 C604 1.336 . S
C605 H609 0.931 . S
C606 N603 1.313 1_655 S
C606 N607 1.344 . S
C606 H610 0.930 . S
N607 C604 1.378 1_655 S
N607 C606 1.344 . S
O608 Co600 2.055 1_655 S
O608 C612 1.253 1_655 S
H609 C605 0.931 . S
H610 C606 0.930 . S
O611 Co600 2.039 1_655 S
O611 C601 1.265 1_655 S
C612 O608 1.253 1_455 S
C612 O613 1.227 . S
O613 C612 1.227 . S
N614 Co600 2.140 . S
N614 C617 1.346 . S
N614 C618 1.345 . S
C615 C616 1.387 . S
C615 C619 1.391 . S
C616 C615 1.387 . S
C616 C617 1.369 . S
C616 H625 0.929 . S
C617 N614 1.346 . S
C617 C616 1.369 . S
C617 H620 0.928 . S
C618 N614 1.345 . S
C618 C619 1.371 . S
C618 H621 0.931 . S
C619 C615 1.391 . S
C619 C618 1.371 . S
C619 H626 0.930 . S
H620 C617 0.928 . S
H621 C618 0.931 . S
H622 C598 0.930 . S
H623 C595 0.930 . S
H624 C604 0.930 1_655 S
H625 C616 0.929 . S
H626 C619 0.930 . S
C627 C628 1.351 . S
C627 N630 1.368 . S
C627 H632 0.931 . S
C628 C627 1.351 . S
C628 N629 1.373 . S
C628 H656 0.930 . S
N629 C628 1.373 . S
N629 C631 1.340 . S
N630 C627 1.368 . S
N630 C631 1.321 . S
N630 Co633 2.135 . S
C631 N629 1.340 . S
C631 N630 1.321 . S
C631 H655 0.930 . S
H632 C627 0.931 . S
Co633 N630 2.135 . S
Co633 N636 2.121 . S
Co633 O641 2.055 . S
Co633 O644 2.039 . S
Co633 N647 2.140 . S
C634 O635 1.227 . S
C634 O644 1.265 . S
O635 C634 1.227 . S
N636 Co633 2.121 . S
N636 C638 1.375 . S
N636 C639 1.313 . S
C637 C638 1.338 . S
C637 N640 1.377 . S
C637 H657 0.930 . S
C638 N636 1.375 . S
C638 C637 1.338 . S
C638 H642 0.931 . S
C639 N636 1.313 . S
C639 N640 1.344 . S
C639 H643 0.930 . S
N640 C637 1.377 . S
N640 C639 1.344 . S
O641 Co633 2.055 . S
O641 C645 1.253 . S
H642 C638 0.931 . S
H643 C639 0.930 . S
O644 Co633 2.039 . S
O644 C634 1.265 . S
C645 O641 1.253 . S
C645 O646 1.227 . S
O646 C645 1.227 . S
N647 Co633 2.140 . S
N647 C650 1.346 . S
N647 C651 1.345 . S
C648 C649 1.387 . S
C648 C652 1.391 . S
C649 C648 1.387 . S
C649 C650 1.369 . S
C649 H658 0.929 . S
C650 N647 1.346 . S
C650 C649 1.369 . S
C650 H653 0.928 . S
C651 N647 1.345 . S
C651 C652 1.371 . S
C651 H654 0.931 . S
C652 C648 1.391 . S
C652 C651 1.371 . S
C652 H659 0.930 . S
H653 C650 0.928 . S
H654 C651 0.931 . S
H655 C631 0.930 . S
H656 C628 0.930 . S
H657 C637 0.930 . S
H658 C649 0.929 . S
H659 C652 0.930 . S
C660 C661 1.351 . S
C660 N663 1.368 . S
C660 H665 0.931 . S
C661 C660 1.351 . S
C661 N662 1.373 . S
C661 H689 0.930 1_545 S
N662 C661 1.373 . S
N662 C664 1.340 . S
N663 C660 1.368 . S
N663 C664 1.321 . S
N663 Co666 2.135 . S
C664 N662 1.340 . S
C664 N663 1.321 . S
C664 H688 0.930 . S
H665 C660 0.931 . S
Co666 N663 2.135 . S
Co666 N669 2.121 . S
Co666 O674 2.055 1_655 S
Co666 O677 2.039 1_655 S
Co666 N680 2.140 . S
C667 O668 1.227 . S
C667 O677 1.265 1_655 S
O668 C667 1.227 . S
N669 Co666 2.121 . S
N669 C671 1.375 . S
N669 C672 1.313 1_655 S
C670 C671 1.336 . S
C670 N673 1.378 1_655 S
C670 H690 0.930 1_655 S
C671 N669 1.375 . S
C671 C670 1.336 . S
C671 H675 0.931 . S
C672 N669 1.313 1_455 S
C672 N673 1.344 . S
C672 H676 0.930 . S
N673 C670 1.378 1_455 S
N673 C672 1.344 . S
O674 Co666 2.055 1_455 S
O674 C678 1.253 1_455 S
H675 C671 0.931 . S
H676 C672 0.930 . S
O677 Co666 2.039 1_455 S
O677 C667 1.265 1_455 S
C678 O674 1.253 1_655 S
C678 O679 1.227 . S
O679 C678 1.227 . S
N680 Co666 2.140 . S
N680 C683 1.346 . S
N680 C684 1.345 . S
C681 C682 1.387 . S
C681 C685 1.391 . S
C682 C681 1.387 . S
C682 C683 1.369 . S
C682 H691 0.929 . S
C683 N680 1.346 . S
C683 C682 1.369 . S
C683 H686 0.928 . S
C684 N680 1.345 . S
C684 C685 1.371 . S
C684 H687 0.931 . S
C685 C681 1.391 . S
C685 C684 1.371 . S
C685 H692 0.930 . S
H686 C683 0.928 . S
H687 C684 0.931 . S
H688 C664 0.930 . S
H689 C661 0.930 1_565 S
H690 C670 0.930 1_455 S
H691 C682 0.929 . S
H692 C685 0.930 . S
C693 C694 1.351 . S
C693 N696 1.368 . S
C693 H698 0.931 . S
C694 C693 1.351 . S
C694 N695 1.373 . S
C694 H722 0.930 . S
N695 C694 1.373 . S
N695 C697 1.340 . S
N696 C693 1.368 . S
N696 C697 1.321 . S
N696 Co699 2.135 . S
C697 N695 1.340 . S
C697 N696 1.321 . S
C697 H721 0.930 . S
H698 C693 0.931 . S
Co699 N696 2.135 . S
Co699 N702 2.121 . S
Co699 O707 2.055 . S
Co699 O710 2.039 . S
Co699 N713 2.140 . S
C700 O701 1.227 . S
C700 O710 1.265 . S
O701 C700 1.227 . S
N702 Co699 2.121 . S
N702 C704 1.375 . S
N702 C705 1.313 . S
C703 C704 1.338 . S
C703 N706 1.377 . S
C703 H723 0.930 . S
C704 N702 1.375 . S
C704 C703 1.338 . S
C704 H708 0.931 . S
C705 N702 1.313 . S
C705 N706 1.344 . S
C705 H709 0.930 . S
N706 C703 1.377 . S
N706 C705 1.344 . S
O707 Co699 2.055 . S
O707 C711 1.253 . S
H708 C704 0.931 . S
H709 C705 0.930 . S
O710 Co699 2.039 . S
O710 C700 1.265 . S
C711 O707 1.253 . S
C711 O712 1.227 . S
O712 C711 1.227 . S
N713 Co699 2.140 . S
N713 C716 1.346 . S
N713 C717 1.345 . S
C714 C715 1.387 . S
C714 C718 1.391 . S
C715 C714 1.387 . S
C715 C716 1.369 . S
C715 H724 0.929 . S
C716 N713 1.346 . S
C716 C715 1.369 . S
C716 H719 0.928 . S
C717 N713 1.345 . S
C717 C718 1.371 . S
C717 H720 0.931 . S
C718 C714 1.391 . S
C718 C717 1.371 . S
C718 H725 0.930 . S
H719 C716 0.928 . S
H720 C717 0.931 . S
H721 C697 0.930 . S
H722 C694 0.930 . S
H723 C703 0.930 . S
H724 C715 0.929 . S
H725 C718 0.930 . S
C726 C727 1.351 . S
C726 N729 1.368 . S
C726 H731 0.931 . S
C727 C726 1.351 . S
C727 N728 1.373 . S
C727 H755 0.930 . S
N728 C727 1.373 . S
N728 C730 1.340 . S
N729 C726 1.368 . S
N729 C730 1.321 . S
N729 Co732 2.135 . S
C730 N728 1.340 . S
C730 N729 1.321 . S
C730 H754 0.930 . S
H731 C726 0.931 . S
Co732 N729 2.135 . S
Co732 N735 2.121 . S
Co732 O740 2.055 1_455 S
Co732 O743 2.039 1_455 S
Co732 N746 2.140 . S
C733 O734 1.227 . S
C733 O743 1.265 1_455 S
O734 C733 1.227 . S
N735 Co732 2.121 . S
N735 C737 1.375 . S
N735 C738 1.313 1_455 S
C736 C737 1.336 . S
C736 N739 1.378 1_455 S
C736 H756 0.930 1_455 S
C737 N735 1.375 . S
C737 C736 1.336 . S
C737 H741 0.931 . S
C738 N735 1.313 1_655 S
C738 N739 1.344 . S
C738 H742 0.930 . S
N739 C736 1.378 1_655 S
N739 C738 1.344 . S
O740 Co732 2.055 1_655 S
O740 C744 1.253 1_655 S
H741 C737 0.931 . S
H742 C738 0.930 . S
O743 Co732 2.039 1_655 S
O743 C733 1.265 1_655 S
C744 O740 1.253 1_455 S
C744 O745 1.227 . S
O745 C744 1.227 . S
N746 Co732 2.140 . S
N746 C749 1.346 . S
N746 C750 1.345 . S
C747 C748 1.387 . S
C747 C751 1.391 . S
C748 C747 1.387 . S
C748 C749 1.369 . S
C748 H757 0.929 . S
C749 N746 1.346 . S
C749 C748 1.369 . S
C749 H752 0.928 . S
C750 N746 1.345 . S
C750 C751 1.371 . S
C750 H753 0.931 . S
C751 C747 1.391 . S
C751 C750 1.371 . S
C751 H758 0.930 . S
H752 C749 0.928 . S
H753 C750 0.931 . S
H754 C730 0.930 . S
H755 C727 0.930 . S
H756 C736 0.930 1_655 S
H757 C748 0.929 . S
H758 C751 0.930 . S
C759 C760 1.351 . S
C759 N762 1.368 . S
C759 H764 0.931 . S
C760 C759 1.351 . S
C760 N761 1.373 . S
C760 H788 0.930 . S
N761 C760 1.373 . S
N761 C763 1.340 . S
N762 C759 1.368 . S
N762 C763 1.321 . S
N762 Co765 2.135 . S
C763 N761 1.340 . S
C763 N762 1.321 . S
C763 H787 0.930 . S
H764 C759 0.931 . S
Co765 N762 2.135 . S
Co765 N768 2.121 . S
Co765 O773 2.055 . S
Co765 O776 2.039 . S
Co765 N779 2.140 . S
C766 O767 1.227 . S
C766 O776 1.265 . S
O767 C766 1.227 . S
N768 Co765 2.121 . S
N768 C770 1.375 . S
N768 C771 1.313 . S
C769 C770 1.338 . S
C769 N772 1.377 . S
C769 H789 0.930 . S
C770 N768 1.375 . S
C770 C769 1.338 . S
C770 H774 0.931 . S
C771 N768 1.313 . S
C771 N772 1.344 . S
C771 H775 0.930 . S
N772 C769 1.377 . S
N772 C771 1.344 . S
O773 Co765 2.055 . S
O773 C777 1.253 . S
H774 C770 0.931 . S
H775 C771 0.930 . S
O776 Co765 2.039 . S
O776 C766 1.265 . S
C777 O773 1.253 . S
C777 O778 1.227 . S
O778 C777 1.227 . S
N779 Co765 2.140 . S
N779 C782 1.346 . S
N779 C783 1.345 . S
C780 C781 1.387 . S
C780 C784 1.391 . S
C781 C780 1.387 . S
C781 C782 1.369 . S
C781 H790 0.929 . S
C782 N779 1.346 . S
C782 C781 1.369 . S
C782 H785 0.928 . S
C783 N779 1.345 . S
C783 C784 1.371 . S
C783 H786 0.931 . S
C784 C780 1.391 . S
C784 C783 1.371 . S
C784 H791 0.930 . S
H785 C782 0.928 . S
H786 C783 0.931 . S
H787 C763 0.930 . S
H788 C760 0.930 . S
H789 C769 0.930 . S
H790 C781 0.929 . S
H791 C784 0.930 . S
C792 C793 1.351 . S
C792 N795 1.368 . S
C792 H797 0.931 . S
C793 C792 1.351 . S
C793 N794 1.373 . S
C793 H821 0.930 . S
N794 C793 1.373 . S
N794 C796 1.340 . S
N795 C792 1.368 . S
N795 C796 1.321 . S
N795 Co798 2.135 . S
C796 N794 1.340 . S
C796 N795 1.321 . S
C796 H820 0.930 . S
H797 C792 0.931 . S
Co798 N795 2.135 . S
Co798 N801 2.121 . S
Co798 O806 2.055 . S
Co798 O809 2.039 . S
Co798 N812 2.140 . S
C799 O800 1.227 . S
C799 O809 1.265 . S
O800 C799 1.227 . S
N801 Co798 2.121 . S
N801 C803 1.375 . S
N801 C804 1.313 . S
C802 C803 1.338 . S
C802 N805 1.377 . S
C802 H822 0.930 . S
C803 N801 1.375 . S
C803 C802 1.338 . S
C803 H807 0.931 . S
C804 N801 1.313 . S
C804 N805 1.344 . S
C804 H808 0.930 . S
N805 C802 1.377 . S
N805 C804 1.344 . S
O806 Co798 2.055 . S
O806 C810 1.253 . S
H807 C803 0.931 . S
H808 C804 0.930 . S
O809 Co798 2.039 . S
O809 C799 1.265 . S
C810 O806 1.253 . S
C810 O811 1.227 . S
O811 C810 1.227 . S
N812 Co798 2.140 . S
N812 C815 1.346 . S
N812 C816 1.345 . S
C813 C814 1.387 . S
C813 C817 1.391 . S
C814 C813 1.387 . S
C814 C815 1.369 . S
C814 H823 0.929 . S
C815 N812 1.346 . S
C815 C814 1.369 . S
C815 H818 0.928 . S
C816 N812 1.345 . S
C816 C817 1.371 . S
C816 H819 0.931 . S
C817 C813 1.391 . S
C817 C816 1.371 . S
C817 H824 0.930 . S
H818 C815 0.928 . S
H819 C816 0.931 . S
H820 C796 0.930 . S
H821 C793 0.930 . S
H822 C802 0.930 . S
H823 C814 0.929 . S
H824 C817 0.930 . S
C825 C826 1.351 . S
C825 N828 1.368 . S
C825 H830 0.931 . S
C826 C825 1.351 . S
C826 N827 1.373 . S
C826 H854 0.930 . S
N827 C826 1.373 . S
N827 C829 1.340 . S
N828 C825 1.368 . S
N828 C829 1.321 . S
N828 Co831 2.135 . S
C829 N827 1.340 . S
C829 N828 1.321 . S
C829 H853 0.930 . S
H830 C825 0.931 . S
Co831 N828 2.135 . S
Co831 N834 2.121 . S
Co831 O839 2.055 1_554 S
Co831 O842 2.039 1_554 S
Co831 N845 2.140 . S
C832 O833 1.227 . S
C832 O842 1.265 1_554 S
O833 C832 1.227 . S
N834 Co831 2.121 . S
N834 C836 1.375 . S
N834 C837 1.313 1_554 S
C835 C836 1.336 . S
C835 N838 1.378 1_554 S
C835 H855 0.930 1_554 S
C836 N834 1.375 . S
C836 C835 1.336 . S
C836 H840 0.931 . S
C837 N834 1.313 1_556 S
C837 N838 1.344 . S
C837 H841 0.930 . S
N838 C835 1.378 1_556 S
N838 C837 1.344 . S
O839 Co831 2.055 1_556 S
O839 C843 1.253 1_556 S
H840 C836 0.931 . S
H841 C837 0.930 . S
O842 Co831 2.039 1_556 S
O842 C832 1.265 1_556 S
C843 O839 1.253 1_554 S
C843 O844 1.227 . S
O844 C843 1.227 . S
N845 Co831 2.140 . S
N845 C848 1.346 . S
N845 C849 1.345 . S
C846 C847 1.387 . S
C846 C850 1.391 . S
C847 C846 1.387 . S
C847 C848 1.369 . S
C847 H856 0.929 . S
C848 N845 1.346 . S
C848 C847 1.369 . S
C848 H851 0.928 . S
C849 N845 1.345 . S
C849 C850 1.371 . S
C849 H852 0.931 . S
C850 C846 1.391 . S
C850 C849 1.371 . S
C850 H857 0.930 . S
H851 C848 0.928 . S
H852 C849 0.931 . S
H853 C829 0.930 . S
H854 C826 0.930 . S
H855 C835 0.930 1_556 S
H856 C847 0.929 . S
H857 C850 0.930 . S
C858 C859 1.351 . S
C858 N861 1.368 . S
C858 H863 0.931 . S
C859 C858 1.351 . S
C859 N860 1.373 . S
C859 H887 0.930 . S
N860 C859 1.373 . S
N860 C862 1.340 . S
N861 C858 1.368 . S
N861 C862 1.321 . S
N861 Co864 2.135 . S
C862 N860 1.340 . S
C862 N861 1.321 . S
C862 H886 0.930 . S
H863 C858 0.931 . S
Co864 N861 2.135 . S
Co864 N867 2.121 . S
Co864 O872 2.055 . S
Co864 O875 2.039 . S
Co864 N878 2.140 . S
C865 O866 1.227 . S
C865 O875 1.265 . S
O866 C865 1.227 . S
N867 Co864 2.121 . S
N867 C869 1.375 . S
N867 C870 1.313 . S
C868 C869 1.338 . S
C868 N871 1.377 . S
C868 H888 0.930 . S
C869 N867 1.375 . S
C869 C868 1.338 . S
C869 H873 0.931 . S
C870 N867 1.313 . S
C870 N871 1.344 . S
C870 H874 0.930 . S
N871 C868 1.377 . S
N871 C870 1.344 . S
O872 Co864 2.055 . S
O872 C876 1.253 . S
H873 C869 0.931 . S
H874 C870 0.930 . S
O875 Co864 2.039 . S
O875 C865 1.265 . S
C876 O872 1.253 . S
C876 O877 1.227 . S
O877 C876 1.227 . S
N878 Co864 2.140 . S
N878 C881 1.346 . S
N878 C882 1.345 . S
C879 C880 1.387 . S
C879 C883 1.391 . S
C880 C879 1.387 . S
C880 C881 1.369 . S
C880 H889 0.929 . S
C881 N878 1.346 . S
C881 C880 1.369 . S
C881 H884 0.928 . S
C882 N878 1.345 . S
C882 C883 1.371 . S
C882 H885 0.931 . S
C883 C879 1.391 . S
C883 C882 1.371 . S
C883 H890 0.930 . S
H884 C881 0.928 . S
H885 C882 0.931 . S
H886 C862 0.930 . S
H887 C859 0.930 . S
H888 C868 0.930 . S
H889 C880 0.929 . S
H890 C883 0.930 . S
C891 C892 1.351 . S
C891 N894 1.368 . S
C891 H896 0.931 . S
C892 C891 1.351 . S
C892 N893 1.373 . S
C892 H920 0.930 1_655 S
N893 C892 1.373 . S
N893 C895 1.340 . S
N894 C891 1.368 . S
N894 C895 1.321 . S
N894 Co897 2.135 . S
C895 N893 1.340 . S
C895 N894 1.321 . S
C895 H919 0.930 . S
H896 C891 0.931 . S
Co897 N894 2.135 . S
Co897 N900 2.121 . S
Co897 O905 2.055 . S
Co897 O908 2.039 . S
Co897 N911 2.140 . S
C898 O899 1.227 . S
C898 O908 1.265 . S
O899 C898 1.227 . S
N900 Co897 2.121 . S
N900 C902 1.375 . S
N900 C903 1.313 . S
C901 C902 1.338 . S
C901 N904 1.377 . S
C901 H921 0.930 . S
C902 N900 1.375 . S
C902 C901 1.338 . S
C902 H906 0.931 . S
C903 N900 1.313 . S
C903 N904 1.344 . S
C903 H907 0.930 . S
N904 C901 1.377 . S
N904 C903 1.344 . S
O905 Co897 2.055 . S
O905 C909 1.253 . S
H906 C902 0.931 . S
H907 C903 0.930 . S
O908 Co897 2.039 . S
O908 C898 1.265 . S
C909 O905 1.253 . S
C909 O910 1.227 . S
O910 C909 1.227 . S
N911 Co897 2.140 . S
N911 C914 1.346 . S
N911 C915 1.345 . S
C912 C913 1.387 . S
C912 C916 1.391 . S
C913 C912 1.387 . S
C913 C914 1.369 . S
C913 H922 0.929 . S
C914 N911 1.346 . S
C914 C913 1.369 . S
C914 H917 0.928 . S
C915 N911 1.345 . S
C915 C916 1.371 . S
C915 H918 0.931 . S
C916 C912 1.391 . S
C916 C915 1.371 . S
C916 H923 0.930 . S
H917 C914 0.928 . S
H918 C915 0.931 . S
H919 C895 0.930 . S
H920 C892 0.930 1_455 S
H921 C901 0.930 . S
H922 C913 0.929 . S
H923 C916 0.930 . S
C924 C925 1.351 . S
C924 N927 1.368 . S
C924 H929 0.931 . S
C925 C924 1.351 . S
C925 N926 1.373 . S
C925 H953 0.930 . S
N926 C925 1.373 . S
N926 C928 1.340 . S
N927 C924 1.368 . S
N927 C928 1.321 . S
N927 Co930 2.135 . S
C928 N926 1.340 . S
C928 N927 1.321 . S
C928 H952 0.930 . S
H929 C924 0.931 . S
Co930 N927 2.135 . S
Co930 N933 2.121 . S
Co930 O938 2.055 . S
Co930 O941 2.039 . S
Co930 N944 2.140 . S
C931 O932 1.227 . S
C931 O941 1.265 . S
O932 C931 1.227 . S
N933 Co930 2.121 . S
N933 C935 1.375 . S
N933 C936 1.313 . S
C934 C935 1.338 . S
C934 N937 1.377 . S
C934 H954 0.930 . S
C935 N933 1.375 . S
C935 C934 1.338 . S
C935 H939 0.931 . S
C936 N933 1.313 . S
C936 N937 1.344 . S
C936 H940 0.930 . S
N937 C934 1.377 . S
N937 C936 1.344 . S
O938 Co930 2.055 . S
O938 C942 1.253 . S
H939 C935 0.931 . S
H940 C936 0.930 . S
O941 Co930 2.039 . S
O941 C931 1.265 . S
C942 O938 1.253 . S
C942 O943 1.227 . S
O943 C942 1.227 . S
N944 Co930 2.140 . S
N944 C947 1.346 . S
N944 C948 1.345 . S
C945 C946 1.387 . S
C945 C949 1.391 . S
C946 C945 1.387 . S
C946 C947 1.369 . S
C946 H955 0.929 . S
C947 N944 1.346 . S
C947 C946 1.369 . S
C947 H950 0.928 . S
C948 N944 1.345 . S
C948 C949 1.371 . S
C948 H951 0.931 . S
C949 C945 1.391 . S
C949 C948 1.371 . S
C949 H956 0.930 . S
H950 C947 0.928 . S
H951 C948 0.931 . S
H952 C928 0.930 . S
H953 C925 0.930 . S
H954 C934 0.930 . S
H955 C946 0.929 . S
H956 C949 0.930 . S
C957 C958 1.351 . S
C957 N960 1.368 . S
C957 H962 0.931 . S
C958 C957 1.351 . S
C958 N959 1.373 . S
C958 H986 0.930 1_655 S
N959 C958 1.373 . S
N959 C961 1.340 . S
N960 C957 1.368 . S
N960 C961 1.321 . S
N960 Co963 2.135 . S
C961 N959 1.340 . S
C961 N960 1.321 . S
C961 H985 0.930 . S
H962 C957 0.931 . S
Co963 N960 2.135 . S
Co963 N966 2.121 . S
Co963 O971 2.055 1_556 S
Co963 O974 2.039 1_556 S
Co963 N977 2.140 . S
C964 O965 1.227 . S
C964 O974 1.265 1_556 S
O965 C964 1.227 . S
N966 Co963 2.121 . S
N966 C968 1.375 . S
N966 C969 1.313 1_556 S
C967 C968 1.336 . S
C967 N970 1.378 1_556 S
C967 H987 0.930 1_556 S
C968 N966 1.375 . S
C968 C967 1.336 . S
C968 H972 0.931 . S
C969 N966 1.313 1_554 S
C969 N970 1.344 . S
C969 H973 0.930 . S
N970 C967 1.378 1_554 S
N970 C969 1.344 . S
O971 Co963 2.055 1_554 S
O971 C975 1.253 1_554 S
H972 C968 0.931 . S
H973 C969 0.930 . S
O974 Co963 2.039 1_554 S
O974 C964 1.265 1_554 S
C975 O971 1.253 1_556 S
C975 O976 1.227 . S
O976 C975 1.227 . S
N977 Co963 2.140 . S
N977 C980 1.346 . S
N977 C981 1.345 . S
C978 C979 1.387 . S
C978 C982 1.391 . S
C979 C978 1.387 . S
C979 C980 1.369 . S
C979 H988 0.929 . S
C980 N977 1.346 . S
C980 C979 1.369 . S
C980 H983 0.928 . S
C981 N977 1.345 . S
C981 C982 1.371 . S
C981 H984 0.931 . S
C982 C978 1.391 . S
C982 C981 1.371 . S
C982 H989 0.930 . S
H983 C980 0.928 . S
H984 C981 0.931 . S
H985 C961 0.930 . S
H986 C958 0.930 1_455 S
H987 C967 0.930 1_554 S
H988 C979 0.929 . S
H989 C982 0.930 . S
C990 C991 1.351 . S
C990 N993 1.368 . S
C990 H995 0.931 . S
C991 C990 1.351 . S
C991 N992 1.373 . S
C991 H1019 0.930 . S
N992 C991 1.373 . S
N992 C994 1.340 . S
N993 C990 1.368 . S
N993 C994 1.321 . S
N993 Co996 2.135 . S
C994 N992 1.340 . S
C994 N993 1.321 . S
C994 H1018 0.930 . S
H995 C990 0.931 . S
Co996 N993 2.135 . S
Co996 N999 2.121 . S
Co996 O1004 2.055 . S
Co996 O1007 2.039 . S
Co996 N1010 2.140 . S
C997 O998 1.227 . S
C997 O1007 1.265 . S
O998 C997 1.227 . S
N999 Co996 2.121 . S
N999 C1001 1.375 . S
N999 C1002 1.313 . S
C1000 C1001 1.338 . S
C1000 N1003 1.377 . S
C1000 H1020 0.930 . S
C1001 N999 1.375 . S
C1001 C1000 1.338 . S
C1001 H1005 0.931 . S
C1002 N999 1.313 . S
C1002 N1003 1.344 . S
C1002 H1006 0.930 . S
N1003 C1000 1.377 . S
N1003 C1002 1.344 . S
O1004 Co996 2.055 . S
O1004 C1008 1.253 . S
H1005 C1001 0.931 . S
H1006 C1002 0.930 . S
O1007 Co996 2.039 . S
O1007 C997 1.265 . S
C1008 O1004 1.253 . S
C1008 O1009 1.227 . S
O1009 C1008 1.227 . S
N1010 Co996 2.140 . S
N1010 C1013 1.346 . S
N1010 C1014 1.345 . S
C1011 C1012 1.387 . S
C1011 C1015 1.391 . S
C1012 C1011 1.387 . S
C1012 C1013 1.369 . S
C1012 H1021 0.929 . S
C1013 N1010 1.346 . S
C1013 C1012 1.369 . S
C1013 H1016 0.928 . S
C1014 N1010 1.345 . S
C1014 C1015 1.371 . S
C1014 H1017 0.931 . S
C1015 C1011 1.391 . S
C1015 C1014 1.371 . S
C1015 H1022 0.930 . S
H1016 C1013 0.928 . S
H1017 C1014 0.931 . S
H1018 C994 0.930 . S
H1019 C991 0.930 . S
H1020 C1000 0.930 . S
H1021 C1012 0.929 . S
H1022 C1015 0.930 . S
C1023 C1024 1.351 . S
C1023 N1026 1.368 . S
C1023 H1028 0.931 . S
C1024 C1023 1.351 . S
C1024 N1025 1.373 . S
C1024 H1052 0.930 . S
N1025 C1024 1.373 . S
N1025 C1027 1.340 . S
N1026 C1023 1.368 . S
N1026 C1027 1.321 . S
N1026 Co1029 2.135 . S
C1027 N1025 1.340 . S
C1027 N1026 1.321 . S
C1027 H1051 0.930 . S
H1028 C1023 0.931 . S
Co1029 N1026 2.135 . S
Co1029 N1032 2.121 . S
Co1029 O1037 2.055 . S
Co1029 O1040 2.039 . S
Co1029 N1043 2.140 . S
C1030 O1031 1.227 . S
C1030 O1040 1.265 . S
O1031 C1030 1.227 . S
N1032 Co1029 2.121 . S
N1032 C1034 1.375 . S
N1032 C1035 1.313 . S
C1033 C1034 1.338 . S
C1033 N1036 1.377 . S
C1033 H1053 0.930 . S
C1034 N1032 1.375 . S
C1034 C1033 1.338 . S
C1034 H1038 0.931 . S
C1035 N1032 1.313 . S
C1035 N1036 1.344 . S
C1035 H1039 0.930 . S
N1036 C1033 1.377 . S
N1036 C1035 1.344 . S
O1037 Co1029 2.055 . S
O1037 C1041 1.253 . S
H1038 C1034 0.931 . S
H1039 C1035 0.930 . S
O1040 Co1029 2.039 . S
O1040 C1030 1.265 . S
C1041 O1037 1.253 . S
C1041 O1042 1.227 . S
O1042 C1041 1.227 . S
N1043 Co1029 2.140 . S
N1043 C1046 1.346 . S
N1043 C1047 1.345 . S
C1044 C1045 1.387 . S
C1044 C1048 1.391 . S
C1045 C1044 1.387 . S
C1045 C1046 1.369 . S
C1045 H1054 0.929 . S
C1046 N1043 1.346 . S
C1046 C1045 1.369 . S
C1046 H1049 0.928 . S
C1047 N1043 1.345 . S
C1047 C1048 1.371 . S
C1047 H1050 0.931 . S
C1048 C1044 1.391 . S
C1048 C1047 1.371 . S
C1048 H1055 0.930 . S
H1049 C1046 0.928 . S
H1050 C1047 0.931 . S
H1051 C1027 0.930 . S
H1052 C1024 0.930 . S
H1053 C1033 0.930 . S
H1054 C1045 0.929 . S
H1055 C1048 0.930 . S
C1056 C1057 1.351 . S
C1056 N1059 1.368 . S
C1056 H1061 0.931 . S
C1057 C1056 1.351 . S
C1057 N1058 1.373 . S
C1057 H1085 0.930 . S
N1058 C1057 1.373 . S
N1058 C1060 1.340 . S
N1059 C1056 1.368 . S
N1059 C1060 1.321 . S
N1059 Co1062 2.135 . S
C1060 N1058 1.340 . S
C1060 N1059 1.321 . S
C1060 H1084 0.930 . S
H1061 C1056 0.931 . S
Co1062 N1059 2.135 . S
Co1062 N1065 2.121 . S
Co1062 O1070 2.055 . S
Co1062 O1073 2.039 . S
Co1062 N1076 2.140 . S
C1063 O1064 1.227 . S
C1063 O1073 1.265 . S
O1064 C1063 1.227 . S
N1065 Co1062 2.121 . S
N1065 C1067 1.375 . S
N1065 C1068 1.313 . S
C1066 C1067 1.338 . S
C1066 N1069 1.377 . S
C1066 H1086 0.930 . S
C1067 N1065 1.375 . S
C1067 C1066 1.338 . S
C1067 H1071 0.931 . S
C1068 N1065 1.313 . S
C1068 N1069 1.344 . S
C1068 H1072 0.930 . S
N1069 C1066 1.377 . S
N1069 C1068 1.344 . S
O1070 Co1062 2.055 . S
O1070 C1074 1.253 . S
H1071 C1067 0.931 . S
H1072 C1068 0.930 . S
O1073 Co1062 2.039 . S
O1073 C1063 1.265 . S
C1074 O1070 1.253 . S
C1074 O1075 1.227 . S
O1075 C1074 1.227 . S
N1076 Co1062 2.140 . S
N1076 C1079 1.346 . S
N1076 C1080 1.345 . S
C1077 C1078 1.387 . S
C1077 C1081 1.391 . S
C1078 C1077 1.387 . S
C1078 C1079 1.369 . S
C1078 H1087 0.929 . S
C1079 N1076 1.346 . S
C1079 C1078 1.369 . S
C1079 H1082 0.928 . S
C1080 N1076 1.345 . S
C1080 C1081 1.371 . S
C1080 H1083 0.931 . S
C1081 C1077 1.391 . S
C1081 C1080 1.371 . S
C1081 H1088 0.930 . S
H1082 C1079 0.928 . S
H1083 C1080 0.931 . S
H1084 C1060 0.930 . S
H1085 C1057 0.930 . S
H1086 C1066 0.930 . S
H1087 C1078 0.929 . S
H1088 C1081 0.930 . S
C1089 C1090 1.351 . S
C1089 N1092 1.368 . S
C1089 H1094 0.931 . S
C1090 C1089 1.351 . S
C1090 N1091 1.373 . S
C1090 H1118 0.930 1_556 S
N1091 C1090 1.373 . S
N1091 C1093 1.340 . S
N1092 C1089 1.368 . S
N1092 C1093 1.321 . S
N1092 Co1095 2.135 . S
C1093 N1091 1.340 . S
C1093 N1092 1.321 . S
C1093 H1117 0.930 . S
H1094 C1089 0.931 . S
Co1095 N1092 2.135 . S
Co1095 N1098 2.121 . S
Co1095 O1103 2.055 . S
Co1095 O1106 2.039 . S
Co1095 N1109 2.140 . S
C1096 O1097 1.227 . S
C1096 O1106 1.265 . S
O1097 C1096 1.227 . S
N1098 Co1095 2.121 . S
N1098 C1100 1.375 . S
N1098 C1101 1.313 . S
C1099 C1100 1.338 . S
C1099 N1102 1.377 . S
C1099 H1119 0.930 . S
C1100 N1098 1.375 . S
C1100 C1099 1.338 . S
C1100 H1104 0.931 . S
C1101 N1098 1.313 . S
C1101 N1102 1.344 . S
C1101 H1105 0.930 . S
N1102 C1099 1.377 . S
N1102 C1101 1.344 . S
O1103 Co1095 2.055 . S
O1103 C1107 1.253 . S
H1104 C1100 0.931 . S
H1105 C1101 0.930 . S
O1106 Co1095 2.039 . S
O1106 C1096 1.265 . S
C1107 O1103 1.253 . S
C1107 O1108 1.227 . S
O1108 C1107 1.227 . S
N1109 Co1095 2.140 . S
N1109 C1112 1.346 . S
N1109 C1113 1.345 . S
C1110 C1111 1.387 . S
C1110 C1114 1.391 . S
C1111 C1110 1.387 . S
C1111 C1112 1.369 . S
C1111 H1120 0.929 . S
C1112 N1109 1.346 . S
C1112 C1111 1.369 . S
C1112 H1115 0.928 . S
C1113 N1109 1.345 . S
C1113 C1114 1.371 . S
C1113 H1116 0.931 . S
C1114 C1110 1.391 . S
C1114 C1113 1.371 . S
C1114 H1121 0.930 . S
H1115 C1112 0.928 . S
H1116 C1113 0.931 . S
H1117 C1093 0.930 . S
H1118 C1090 0.930 1_554 S
H1119 C1099 0.930 . S
H1120 C1111 0.929 . S
H1121 C1114 0.930 . S
C1122 C1123 1.351 . S
C1122 N1125 1.368 . S
C1122 H1127 0.931 . S
C1123 C1122 1.351 . S
C1123 N1124 1.373 . S
C1123 H1151 0.930 . S
N1124 C1123 1.373 . S
N1124 C1126 1.340 . S
N1125 C1122 1.368 . S
N1125 C1126 1.321 . S
N1125 Co1128 2.135 . S
C1126 N1124 1.340 . S
C1126 N1125 1.321 . S
C1126 H1150 0.930 . S
H1127 C1122 0.931 . S
Co1128 N1125 2.135 . S
Co1128 N1131 2.121 . S
Co1128 O1136 2.055 . S
Co1128 O1139 2.039 . S
Co1128 N1142 2.140 . S
C1129 O1130 1.227 . S
C1129 O1139 1.265 . S
O1130 C1129 1.227 . S
N1131 Co1128 2.121 . S
N1131 C1133 1.375 . S
N1131 C1134 1.313 . S
C1132 C1133 1.338 . S
C1132 N1135 1.377 . S
C1132 H1152 0.930 . S
C1133 N1131 1.375 . S
C1133 C1132 1.338 . S
C1133 H1137 0.931 . S
C1134 N1131 1.313 . S
C1134 N1135 1.344 . S
C1134 H1138 0.930 . S
N1135 C1132 1.377 . S
N1135 C1134 1.344 . S
O1136 Co1128 2.055 . S
O1136 C1140 1.253 . S
H1137 C1133 0.931 . S
H1138 C1134 0.930 . S
O1139 Co1128 2.039 . S
O1139 C1129 1.265 . S
C1140 O1136 1.253 . S
C1140 O1141 1.227 . S
O1141 C1140 1.227 . S
N1142 Co1128 2.140 . S
N1142 C1145 1.346 . S
N1142 C1146 1.345 . S
C1143 C1144 1.387 . S
C1143 C1147 1.391 . S
C1144 C1143 1.387 . S
C1144 C1145 1.369 . S
C1144 H1153 0.929 . S
C1145 N1142 1.346 . S
C1145 C1144 1.369 . S
C1145 H1148 0.928 . S
C1146 N1142 1.345 . S
C1146 C1147 1.371 . S
C1146 H1149 0.931 . S
C1147 C1143 1.391 . S
C1147 C1146 1.371 . S
C1147 H1154 0.930 . S
H1148 C1145 0.928 . S
H1149 C1146 0.931 . S
H1150 C1126 0.930 . S
H1151 C1123 0.930 . S
H1152 C1132 0.930 . S
H1153 C1144 0.929 . S
H1154 C1147 0.930 . S
C1155 C1156 1.351 . S
C1155 N1158 1.368 . S
C1155 H1160 0.931 . S
C1156 C1155 1.351 . S
C1156 N1157 1.373 . S
C1156 H1184 0.930 . S
N1157 C1156 1.373 . S
N1157 C1159 1.340 . S
N1158 C1155 1.368 . S
N1158 C1159 1.321 . S
N1158 Co1161 2.135 . S
C1159 N1157 1.340 . S
C1159 N1158 1.321 . S
C1159 H1183 0.930 . S
H1160 C1155 0.931 . S
Co1161 N1158 2.135 . S
Co1161 N1164 2.121 . S
Co1161 O1169 2.055 . S
Co1161 O1172 2.039 . S
Co1161 N1175 2.140 . S
C1162 O1163 1.227 . S
C1162 O1172 1.265 . S
O1163 C1162 1.227 . S
N1164 Co1161 2.121 . S
N1164 C1166 1.375 . S
N1164 C1167 1.313 . S
C1165 C1166 1.338 . S
C1165 N1168 1.377 . S
C1165 H1185 0.930 . S
C1166 N1164 1.375 . S
C1166 C1165 1.338 . S
C1166 H1170 0.931 . S
C1167 N1164 1.313 . S
C1167 N1168 1.344 . S
C1167 H1171 0.930 . S
N1168 C1165 1.377 . S
N1168 C1167 1.344 . S
O1169 Co1161 2.055 . S
O1169 C1173 1.253 . S
H1170 C1166 0.931 . S
H1171 C1167 0.930 . S
O1172 Co1161 2.039 . S
O1172 C1162 1.265 . S
C1173 O1169 1.253 . S
C1173 O1174 1.227 . S
O1174 C1173 1.227 . S
N1175 Co1161 2.140 . S
N1175 C1178 1.346 . S
N1175 C1179 1.345 . S
C1176 C1177 1.387 . S
C1176 C1180 1.391 . S
C1177 C1176 1.387 . S
C1177 C1178 1.369 . S
C1177 H1186 0.929 . S
C1178 N1175 1.346 . S
C1178 C1177 1.369 . S
C1178 H1181 0.928 . S
C1179 N1175 1.345 . S
C1179 C1180 1.371 . S
C1179 H1182 0.931 . S
C1180 C1176 1.391 . S
C1180 C1179 1.371 . S
C1180 H1187 0.930 . S
H1181 C1178 0.928 . S
H1182 C1179 0.931 . S
H1183 C1159 0.930 . S
H1184 C1156 0.930 . S
H1185 C1165 0.930 . S
H1186 C1177 0.929 . S
H1187 C1180 0.930 . S
C1188 C1189 1.351 . S
C1188 N1191 1.368 . S
C1188 H1193 0.931 . S
C1189 C1188 1.351 . S
C1189 N1190 1.373 . S
C1189 H1217 0.930 . S
N1190 C1189 1.373 . S
N1190 C1192 1.340 . S
N1191 C1188 1.368 . S
N1191 C1192 1.321 . S
N1191 Co1194 2.135 . S
C1192 N1190 1.340 . S
C1192 N1191 1.321 . S
C1192 H1216 0.930 . S
H1193 C1188 0.931 . S
Co1194 N1191 2.135 . S
Co1194 N1197 2.121 . S
Co1194 O1202 2.055 . S
Co1194 O1205 2.039 . S
Co1194 N1208 2.140 . S
C1195 O1196 1.227 . S
C1195 O1205 1.265 . S
O1196 C1195 1.227 . S
N1197 Co1194 2.121 . S
N1197 C1199 1.375 . S
N1197 C1200 1.313 . S
C1198 C1199 1.338 . S
C1198 N1201 1.377 . S
C1198 H1218 0.930 . S
C1199 N1197 1.375 . S
C1199 C1198 1.338 . S
C1199 H1203 0.931 . S
C1200 N1197 1.313 . S
C1200 N1201 1.344 . S
C1200 H1204 0.930 . S
N1201 C1198 1.377 . S
N1201 C1200 1.344 . S
O1202 Co1194 2.055 . S
O1202 C1206 1.253 . S
H1203 C1199 0.931 . S
H1204 C1200 0.930 . S
O1205 Co1194 2.039 . S
O1205 C1195 1.265 . S
C1206 O1202 1.253 . S
C1206 O1207 1.227 . S
O1207 C1206 1.227 . S
N1208 Co1194 2.140 . S
N1208 C1211 1.346 . S
N1208 C1212 1.345 . S
C1209 C1210 1.387 . S
C1209 C1213 1.391 . S
C1210 C1209 1.387 . S
C1210 C1211 1.369 . S
C1210 H1219 0.929 . S
C1211 N1208 1.346 . S
C1211 C1210 1.369 . S
C1211 H1214 0.928 . S
C1212 N1208 1.345 . S
C1212 C1213 1.371 . S
C1212 H1215 0.931 . S
C1213 C1209 1.391 . S
C1213 C1212 1.371 . S
C1213 H1220 0.930 . S
H1214 C1211 0.928 . S
H1215 C1212 0.931 . S
H1216 C1192 0.930 . S
H1217 C1189 0.930 . S
H1218 C1198 0.930 . S
H1219 C1210 0.929 . S
H1220 C1213 0.930 . S
C1221 C1222 1.351 . S
C1221 N1224 1.368 . S
C1221 H1226 0.931 . S
C1222 C1221 1.351 . S
C1222 N1223 1.373 . S
C1222 H1250 0.930 1_554 S
N1223 C1222 1.373 . S
N1223 C1225 1.340 . S
N1224 C1221 1.368 . S
N1224 C1225 1.321 . S
N1224 Co1227 2.135 . S
C1225 N1223 1.340 . S
C1225 N1224 1.321 . S
C1225 H1249 0.930 . S
H1226 C1221 0.931 . S
Co1227 N1224 2.135 . S
Co1227 N1230 2.121 . S
Co1227 O1235 2.055 . S
Co1227 O1238 2.039 . S
Co1227 N1241 2.140 . S
C1228 O1229 1.227 . S
C1228 O1238 1.265 . S
O1229 C1228 1.227 . S
N1230 Co1227 2.121 . S
N1230 C1232 1.375 . S
N1230 C1233 1.313 . S
C1231 C1232 1.338 . S
C1231 N1234 1.377 . S
C1231 H1251 0.930 . S
C1232 N1230 1.375 . S
C1232 C1231 1.338 . S
C1232 H1236 0.931 . S
C1233 N1230 1.313 . S
C1233 N1234 1.344 . S
C1233 H1237 0.930 . S
N1234 C1231 1.377 . S
N1234 C1233 1.344 . S
O1235 Co1227 2.055 . S
O1235 C1239 1.253 . S
H1236 C1232 0.931 . S
H1237 C1233 0.930 . S
O1238 Co1227 2.039 . S
O1238 C1228 1.265 . S
C1239 O1235 1.253 . S
C1239 O1240 1.227 . S
O1240 C1239 1.227 . S
N1241 Co1227 2.140 . S
N1241 C1244 1.346 . S
N1241 C1245 1.345 . S
C1242 C1243 1.387 . S
C1242 C1246 1.391 . S
C1243 C1242 1.387 . S
C1243 C1244 1.369 . S
C1243 H1252 0.929 . S
C1244 N1241 1.346 . S
C1244 C1243 1.369 . S
C1244 H1247 0.928 . S
C1245 N1241 1.345 . S
C1245 C1246 1.371 . S
C1245 H1248 0.931 . S
C1246 C1242 1.391 . S
C1246 C1245 1.371 . S
C1246 H1253 0.930 . S
H1247 C1244 0.928 . S
H1248 C1245 0.931 . S
H1249 C1225 0.930 . S
H1250 C1222 0.930 1_556 S
H1251 C1231 0.930 . S
H1252 C1243 0.929 . S
H1253 C1246 0.930 . S
C1254 C1255 1.351 . S
C1254 N1257 1.368 . S
C1254 H1259 0.931 . S
C1255 C1254 1.351 . S
C1255 N1256 1.373 . S
C1255 H1283 0.930 . S
N1256 C1255 1.373 . S
N1256 C1258 1.340 . S
N1257 C1254 1.368 . S
N1257 C1258 1.321 . S
N1257 Co1260 2.135 . S
C1258 N1256 1.340 . S
C1258 N1257 1.321 . S
C1258 H1282 0.930 . S
H1259 C1254 0.931 . S
Co1260 N1257 2.135 . S
Co1260 N1263 2.121 . S
Co1260 O1268 2.055 . S
Co1260 O1271 2.039 . S
Co1260 N1274 2.140 . S
C1261 O1262 1.227 . S
C1261 O1271 1.265 . S
O1262 C1261 1.227 . S
N1263 Co1260 2.121 . S
N1263 C1265 1.375 . S
N1263 C1266 1.313 . S
C1264 C1265 1.338 . S
C1264 N1267 1.377 . S
C1264 H1284 0.930 . S
C1265 N1263 1.375 . S
C1265 C1264 1.338 . S
C1265 H1269 0.931 . S
C1266 N1263 1.313 . S
C1266 N1267 1.344 . S
C1266 H1270 0.930 . S
N1267 C1264 1.377 . S
N1267 C1266 1.344 . S
O1268 Co1260 2.055 . S
O1268 C1272 1.253 . S
H1269 C1265 0.931 . S
H1270 C1266 0.930 . S
O1271 Co1260 2.039 . S
O1271 C1261 1.265 . S
C1272 O1268 1.253 . S
C1272 O1273 1.227 . S
O1273 C1272 1.227 . S
N1274 Co1260 2.140 . S
N1274 C1277 1.346 . S
N1274 C1278 1.345 . S
C1275 C1276 1.387 . S
C1275 C1279 1.391 . S
C1276 C1275 1.387 . S
C1276 C1277 1.369 . S
C1276 H1285 0.929 . S
C1277 N1274 1.346 . S
C1277 C1276 1.369 . S
C1277 H1280 0.928 . S
C1278 N1274 1.345 . S
C1278 C1279 1.371 . S
C1278 H1281 0.931 . S
C1279 C1275 1.391 . S
C1279 C1278 1.371 . S
C1279 H1286 0.930 . S
H1280 C1277 0.928 . S
H1281 C1278 0.931 . S
H1282 C1258 0.930 . S
H1283 C1255 0.930 . S
H1284 C1264 0.930 . S
H1285 C1276 0.929 . S
H1286 C1279 0.930 . S
C1287 C1288 1.351 . S
C1287 N1290 1.368 . S
C1287 H1292 0.931 . S
C1288 C1287 1.351 . S
C1288 N1289 1.373 . S
C1288 H1316 0.930 . S
N1289 C1288 1.373 . S
N1289 C1291 1.340 . S
N1290 C1287 1.368 . S
N1290 C1291 1.321 . S
N1290 Co1293 2.135 . S
C1291 N1289 1.340 . S
C1291 N1290 1.321 . S
C1291 H1315 0.930 . S
H1292 C1287 0.931 . S
Co1293 N1290 2.135 . S
Co1293 N1296 2.121 . S
Co1293 O1301 2.055 . S
Co1293 O1304 2.039 . S
Co1293 N1307 2.140 . S
C1294 O1295 1.227 . S
C1294 O1304 1.265 . S
O1295 C1294 1.227 . S
N1296 Co1293 2.121 . S
N1296 C1298 1.375 . S
N1296 C1299 1.313 . S
C1297 C1298 1.338 . S
C1297 N1300 1.377 . S
C1297 H1317 0.930 . S
C1298 N1296 1.375 . S
C1298 C1297 1.338 . S
C1298 H1302 0.931 . S
C1299 N1296 1.313 . S
C1299 N1300 1.344 . S
C1299 H1303 0.930 . S
N1300 C1297 1.377 . S
N1300 C1299 1.344 . S
O1301 Co1293 2.055 . S
O1301 C1305 1.253 . S
H1302 C1298 0.931 . S
H1303 C1299 0.930 . S
O1304 Co1293 2.039 . S
O1304 C1294 1.265 . S
C1305 O1301 1.253 . S
C1305 O1306 1.227 . S
O1306 C1305 1.227 . S
N1307 Co1293 2.140 . S
N1307 C1310 1.346 . S
N1307 C1311 1.345 . S
C1308 C1309 1.387 . S
C1308 C1312 1.391 . S
C1309 C1308 1.387 . S
C1309 C1310 1.369 . S
C1309 H1318 0.929 . S
C1310 N1307 1.346 . S
C1310 C1309 1.369 . S
C1310 H1313 0.928 . S
C1311 N1307 1.345 . S
C1311 C1312 1.371 . S
C1311 H1314 0.931 . S
C1312 C1308 1.391 . S
C1312 C1311 1.371 . S
C1312 H1319 0.930 . S
H1313 C1310 0.928 . S
H1314 C1311 0.931 . S
H1315 C1291 0.930 . S
H1316 C1288 0.930 . S
H1317 C1297 0.930 . S
H1318 C1309 0.929 . S
H1319 C1312 0.930 . S
C1320 C1321 1.351 . S
C1320 N1323 1.368 . S
C1320 H1325 0.931 . S
C1321 C1320 1.351 . S
C1321 N1322 1.373 . S
C1321 H1349 0.930 . S
N1322 C1321 1.373 . S
N1322 C1324 1.340 . S
N1323 C1320 1.368 . S
N1323 C1324 1.321 . S
N1323 Co1326 2.135 . S
C1324 N1322 1.340 . S
C1324 N1323 1.321 . S
C1324 H1348 0.930 . S
H1325 C1320 0.931 . S
Co1326 N1323 2.135 . S
Co1326 N1329 2.121 . S
Co1326 O1334 2.055 . S
Co1326 O1337 2.039 . S
Co1326 N1340 2.140 . S
C1327 O1328 1.227 . S
C1327 O1337 1.265 . S
O1328 C1327 1.227 . S
N1329 Co1326 2.121 . S
N1329 C1331 1.375 . S
N1329 C1332 1.313 . S
C1330 C1331 1.338 . S
C1330 N1333 1.377 . S
C1330 H1350 0.930 . S
C1331 N1329 1.375 . S
C1331 C1330 1.338 . S
C1331 H1335 0.931 . S
C1332 N1329 1.313 . S
C1332 N1333 1.344 . S
C1332 H1336 0.930 . S
N1333 C1330 1.377 . S
N1333 C1332 1.344 . S
O1334 Co1326 2.055 . S
O1334 C1338 1.253 . S
H1335 C1331 0.931 . S
H1336 C1332 0.930 . S
O1337 Co1326 2.039 . S
O1337 C1327 1.265 . S
C1338 O1334 1.253 . S
C1338 O1339 1.227 . S
O1339 C1338 1.227 . S
N1340 Co1326 2.140 . S
N1340 C1343 1.346 . S
N1340 C1344 1.345 . S
C1341 C1342 1.387 . S
C1341 C1345 1.391 . S
C1342 C1341 1.387 . S
C1342 C1343 1.369 . S
C1342 H1351 0.929 . S
C1343 N1340 1.346 . S
C1343 C1342 1.369 . S
C1343 H1346 0.928 . S
C1344 N1340 1.345 . S
C1344 C1345 1.371 . S
C1344 H1347 0.931 . S
C1345 C1341 1.391 . S
C1345 C1344 1.371 . S
C1345 H1352 0.930 . S
H1346 C1343 0.928 . S
H1347 C1344 0.931 . S
H1348 C1324 0.930 . S
H1349 C1321 0.930 . S
H1350 C1330 0.930 . S
H1351 C1342 0.929 . S
H1352 C1345 0.930 . S
C1353 C1354 1.351 . S
C1353 N1356 1.368 . S
C1353 H1358 0.931 . S
C1354 C1353 1.351 . S
C1354 N1355 1.373 . S
C1354 H1382 0.930 . S
N1355 C1354 1.373 . S
N1355 C1357 1.340 . S
N1356 C1353 1.368 . S
N1356 C1357 1.321 . S
N1356 Co1359 2.135 . S
C1357 N1355 1.340 . S
C1357 N1356 1.321 . S
C1357 H1381 0.930 . S
H1358 C1353 0.931 . S
Co1359 N1356 2.135 . S
Co1359 N1362 2.121 . S
Co1359 O1367 2.055 . S
Co1359 O1370 2.039 . S
Co1359 N1373 2.140 . S
C1360 O1361 1.227 . S
C1360 O1370 1.265 . S
O1361 C1360 1.227 . S
N1362 Co1359 2.121 . S
N1362 C1364 1.375 . S
N1362 C1365 1.313 . S
C1363 C1364 1.338 . S
C1363 N1366 1.377 . S
C1363 H1383 0.930 . S
C1364 N1362 1.375 . S
C1364 C1363 1.338 . S
C1364 H1368 0.931 . S
C1365 N1362 1.313 . S
C1365 N1366 1.344 . S
C1365 H1369 0.930 . S
N1366 C1363 1.377 . S
N1366 C1365 1.344 . S
O1367 Co1359 2.055 . S
O1367 C1371 1.253 . S
H1368 C1364 0.931 . S
H1369 C1365 0.930 . S
O1370 Co1359 2.039 . S
O1370 C1360 1.265 . S
C1371 O1367 1.253 . S
C1371 O1372 1.227 . S
O1372 C1371 1.227 . S
N1373 Co1359 2.140 . S
N1373 C1376 1.346 . S
N1373 C1377 1.345 . S
C1374 C1375 1.387 . S
C1374 C1378 1.391 . S
C1375 C1374 1.387 . S
C1375 C1376 1.369 . S
C1375 H1384 0.929 . S
C1376 N1373 1.346 . S
C1376 C1375 1.369 . S
C1376 H1379 0.928 . S
C1377 N1373 1.345 . S
C1377 C1378 1.371 . S
C1377 H1380 0.931 . S
C1378 C1374 1.391 . S
C1378 C1377 1.371 . S
C1378 H1385 0.930 . S
H1379 C1376 0.928 . S
H1380 C1377 0.931 . S
H1381 C1357 0.930 . S
H1382 C1354 0.930 . S
H1383 C1363 0.930 . S
H1384 C1375 0.929 . S
H1385 C1378 0.930 . S
C1386 C1387 1.351 . S
C1386 N1389 1.368 . S
C1386 H1391 0.931 . S
C1387 C1386 1.351 . S
C1387 N1388 1.373 . S
C1387 H1415 0.930 1_565 S
N1388 C1387 1.373 . S
N1388 C1390 1.340 . S
N1389 C1386 1.368 . S
N1389 C1390 1.321 . S
N1389 Co1392 2.135 . S
C1390 N1388 1.340 . S
C1390 N1389 1.321 . S
C1390 H1414 0.930 . S
H1391 C1386 0.931 . S
Co1392 N1389 2.135 . S
Co1392 N1395 2.121 . S
Co1392 O1400 2.055 . S
Co1392 O1403 2.039 . S
Co1392 N1406 2.140 . S
C1393 O1394 1.227 . S
C1393 O1403 1.265 . S
O1394 C1393 1.227 . S
N1395 Co1392 2.121 . S
N1395 C1397 1.375 . S
N1395 C1398 1.313 . S
C1396 C1397 1.338 . S
C1396 N1399 1.377 . S
C1396 H1416 0.930 . S
C1397 N1395 1.375 . S
C1397 C1396 1.338 . S
C1397 H1401 0.931 . S
C1398 N1395 1.313 . S
C1398 N1399 1.344 . S
C1398 H1402 0.930 . S
N1399 C1396 1.377 . S
N1399 C1398 1.344 . S
O1400 Co1392 2.055 . S
O1400 C1404 1.253 . S
H1401 C1397 0.931 . S
H1402 C1398 0.930 . S
O1403 Co1392 2.039 . S
O1403 C1393 1.265 . S
C1404 O1400 1.253 . S
C1404 O1405 1.227 . S
O1405 C1404 1.227 . S
N1406 Co1392 2.140 . S
N1406 C1409 1.346 . S
N1406 C1410 1.345 . S
C1407 C1408 1.387 . S
C1407 C1411 1.391 . S
C1408 C1407 1.387 . S
C1408 C1409 1.369 . S
C1408 H1417 0.929 . S
C1409 N1406 1.346 . S
C1409 C1408 1.369 . S
C1409 H1412 0.928 . S
C1410 N1406 1.345 . S
C1410 C1411 1.371 . S
C1410 H1413 0.931 . S
C1411 C1407 1.391 . S
C1411 C1410 1.371 . S
C1411 H1418 0.930 . S
H1412 C1409 0.928 . S
H1413 C1410 0.931 . S
H1414 C1390 0.930 . S
H1415 C1387 0.930 1_545 S
H1416 C1396 0.930 . S
H1417 C1408 0.929 . S
H1418 C1411 0.930 . S
C1419 C1420 1.351 . S
C1419 N1422 1.368 . S
C1419 H1424 0.931 . S
C1420 C1419 1.351 . S
C1420 N1421 1.373 . S
C1420 H1448 0.930 . S
N1421 C1420 1.373 . S
N1421 C1423 1.340 . S
N1422 C1419 1.368 . S
N1422 C1423 1.321 . S
N1422 Co1425 2.135 . S
C1423 N1421 1.340 . S
C1423 N1422 1.321 . S
C1423 H1447 0.930 . S
H1424 C1419 0.931 . S
Co1425 N1422 2.135 . S
Co1425 N1428 2.121 . S
Co1425 O1433 2.055 . S
Co1425 O1436 2.039 . S
Co1425 N1439 2.140 . S
C1426 O1427 1.227 . S
C1426 O1436 1.265 . S
O1427 C1426 1.227 . S
N1428 Co1425 2.121 . S
N1428 C1430 1.375 . S
N1428 C1431 1.313 . S
C1429 C1430 1.338 . S
C1429 N1432 1.377 . S
C1429 H1449 0.930 . S
C1430 N1428 1.375 . S
C1430 C1429 1.338 . S
C1430 H1434 0.931 . S
C1431 N1428 1.313 . S
C1431 N1432 1.344 . S
C1431 H1435 0.930 . S
N1432 C1429 1.377 . S
N1432 C1431 1.344 . S
O1433 Co1425 2.055 . S
O1433 C1437 1.253 . S
H1434 C1430 0.931 . S
H1435 C1431 0.930 . S
O1436 Co1425 2.039 . S
O1436 C1426 1.265 . S
C1437 O1433 1.253 . S
C1437 O1438 1.227 . S
O1438 C1437 1.227 . S
N1439 Co1425 2.140 . S
N1439 C1442 1.346 . S
N1439 C1443 1.345 . S
C1440 C1441 1.387 . S
C1440 C1444 1.391 . S
C1441 C1440 1.387 . S
C1441 C1442 1.369 . S
C1441 H1450 0.929 . S
C1442 N1439 1.346 . S
C1442 C1441 1.369 . S
C1442 H1445 0.928 . S
C1443 N1439 1.345 . S
C1443 C1444 1.371 . S
C1443 H1446 0.931 . S
C1444 C1440 1.391 . S
C1444 C1443 1.371 . S
C1444 H1451 0.930 . S
H1445 C1442 0.928 . S
H1446 C1443 0.931 . S
H1447 C1423 0.930 . S
H1448 C1420 0.930 . S
H1449 C1429 0.930 . S
H1450 C1441 0.929 . S
H1451 C1444 0.930 . S
C1452 C1453 1.351 . S
C1452 N1455 1.368 . S
C1452 H1457 0.931 . S
C1453 C1452 1.351 . S
C1453 N1454 1.373 . S
C1453 H1481 0.930 . S
N1454 C1453 1.373 . S
N1454 C1456 1.340 . S
N1455 C1452 1.368 . S
N1455 C1456 1.321 . S
N1455 Co1458 2.135 . S
C1456 N1454 1.340 . S
C1456 N1455 1.321 . S
C1456 H1480 0.930 . S
H1457 C1452 0.931 . S
Co1458 N1455 2.135 . S
Co1458 N1461 2.121 . S
Co1458 O1466 2.055 . S
Co1458 O1469 2.039 . S
Co1458 N1472 2.140 . S
C1459 O1460 1.227 . S
C1459 O1469 1.265 . S
O1460 C1459 1.227 . S
N1461 Co1458 2.121 . S
N1461 C1463 1.375 . S
N1461 C1464 1.313 . S
C1462 C1463 1.338 . S
C1462 N1465 1.377 . S
C1462 H1482 0.930 . S
C1463 N1461 1.375 . S
C1463 C1462 1.338 . S
C1463 H1467 0.931 . S
C1464 N1461 1.313 . S
C1464 N1465 1.344 . S
C1464 H1468 0.930 . S
N1465 C1462 1.377 . S
N1465 C1464 1.344 . S
O1466 Co1458 2.055 . S
O1466 C1470 1.253 . S
H1467 C1463 0.931 . S
H1468 C1464 0.930 . S
O1469 Co1458 2.039 . S
O1469 C1459 1.265 . S
C1470 O1466 1.253 . S
C1470 O1471 1.227 . S
O1471 C1470 1.227 . S
N1472 Co1458 2.140 . S
N1472 C1475 1.346 . S
N1472 C1476 1.345 . S
C1473 C1474 1.387 . S
C1473 C1477 1.391 . S
C1474 C1473 1.387 . S
C1474 C1475 1.369 . S
C1474 H1483 0.929 . S
C1475 N1472 1.346 . S
C1475 C1474 1.369 . S
C1475 H1478 0.928 . S
C1476 N1472 1.345 . S
C1476 C1477 1.371 . S
C1476 H1479 0.931 . S
C1477 C1473 1.391 . S
C1477 C1476 1.371 . S
C1477 H1484 0.930 . S
H1478 C1475 0.928 . S
H1479 C1476 0.931 . S
H1480 C1456 0.930 . S
H1481 C1453 0.930 . S
H1482 C1462 0.930 . S
H1483 C1474 0.929 . S
H1484 C1477 0.930 . S
C1485 C1486 1.351 . S
C1485 N1488 1.368 . S
C1485 H1490 0.931 . S
C1486 C1485 1.351 . S
C1486 N1487 1.373 . S
C1486 H1514 0.930 . S
N1487 C1486 1.373 . S
N1487 C1489 1.340 . S
N1488 C1485 1.368 . S
N1488 C1489 1.321 . S
N1488 Co1491 2.135 . S
C1489 N1487 1.340 . S
C1489 N1488 1.321 . S
C1489 H1513 0.930 . S
H1490 C1485 0.931 . S
Co1491 N1488 2.135 . S
Co1491 N1494 2.121 . S
Co1491 O1499 2.055 . S
Co1491 O1502 2.039 . S
Co1491 N1505 2.140 . S
C1492 O1493 1.227 . S
C1492 O1502 1.265 . S
O1493 C1492 1.227 . S
N1494 Co1491 2.121 . S
N1494 C1496 1.375 . S
N1494 C1497 1.313 . S
C1495 C1496 1.338 . S
C1495 N1498 1.377 . S
C1495 H1515 0.930 . S
C1496 N1494 1.375 . S
C1496 C1495 1.338 . S
C1496 H1500 0.931 . S
C1497 N1494 1.313 . S
C1497 N1498 1.344 . S
C1497 H1501 0.930 . S
N1498 C1495 1.377 . S
N1498 C1497 1.344 . S
O1499 Co1491 2.055 . S
O1499 C1503 1.253 . S
H1500 C1496 0.931 . S
H1501 C1497 0.930 . S
O1502 Co1491 2.039 . S
O1502 C1492 1.265 . S
C1503 O1499 1.253 . S
C1503 O1504 1.227 . S
O1504 C1503 1.227 . S
N1505 Co1491 2.140 . S
N1505 C1508 1.346 . S
N1505 C1509 1.345 . S
C1506 C1507 1.387 . S
C1506 C1510 1.391 . S
C1507 C1506 1.387 . S
C1507 C1508 1.369 . S
C1507 H1516 0.929 . S
C1508 N1505 1.346 . S
C1508 C1507 1.369 . S
C1508 H1511 0.928 . S
C1509 N1505 1.345 . S
C1509 C1510 1.371 . S
C1509 H1512 0.931 . S
C1510 C1506 1.391 . S
C1510 C1509 1.371 . S
C1510 H1517 0.930 . S
H1511 C1508 0.928 . S
H1512 C1509 0.931 . S
H1513 C1489 0.930 . S
H1514 C1486 0.930 . S
H1515 C1495 0.930 . S
H1516 C1507 0.929 . S
H1517 C1510 0.930 . S
C1518 C1519 1.351 . S
C1518 N1521 1.368 . S
C1518 H1523 0.931 . S
C1519 C1518 1.351 . S
C1519 N1520 1.373 . S
C1519 H1547 0.930 1_545 S
N1520 C1519 1.373 . S
N1520 C1522 1.340 . S
N1521 C1518 1.368 . S
N1521 C1522 1.321 . S
N1521 Co1524 2.135 . S
C1522 N1520 1.340 . S
C1522 N1521 1.321 . S
C1522 H1546 0.930 . S
H1523 C1518 0.931 . S
Co1524 N1521 2.135 . S
Co1524 N1527 2.121 . S
Co1524 O1532 2.055 . S
Co1524 O1535 2.039 . S
Co1524 N1538 2.140 . S
C1525 O1526 1.227 . S
C1525 O1535 1.265 . S
O1526 C1525 1.227 . S
N1527 Co1524 2.121 . S
N1527 C1529 1.375 . S
N1527 C1530 1.313 . S
C1528 C1529 1.338 . S
C1528 N1531 1.377 . S
C1528 H1548 0.930 . S
C1529 N1527 1.375 . S
C1529 C1528 1.338 . S
C1529 H1533 0.931 . S
C1530 N1527 1.313 . S
C1530 N1531 1.344 . S
C1530 H1534 0.930 . S
N1531 C1528 1.377 . S
N1531 C1530 1.344 . S
O1532 Co1524 2.055 . S
O1532 C1536 1.253 . S
H1533 C1529 0.931 . S
H1534 C1530 0.930 . S
O1535 Co1524 2.039 . S
O1535 C1525 1.265 . S
C1536 O1532 1.253 . S
C1536 O1537 1.227 . S
O1537 C1536 1.227 . S
N1538 Co1524 2.140 . S
N1538 C1541 1.346 . S
N1538 C1542 1.345 . S
C1539 C1540 1.387 . S
C1539 C1543 1.391 . S
C1540 C1539 1.387 . S
C1540 C1541 1.369 . S
C1540 H1549 0.929 . S
C1541 N1538 1.346 . S
C1541 C1540 1.369 . S
C1541 H1544 0.928 . S
C1542 N1538 1.345 . S
C1542 C1543 1.371 . S
C1542 H1545 0.931 . S
C1543 C1539 1.391 . S
C1543 C1542 1.371 . S
C1543 H1550 0.930 . S
H1544 C1541 0.928 . S
H1545 C1542 0.931 . S
H1546 C1522 0.930 . S
H1547 C1519 0.930 1_565 S
H1548 C1528 0.930 . S
H1549 C1540 0.929 . S
H1550 C1543 0.930 . S
C1551 C1552 1.351 . S
C1551 N1554 1.368 . S
C1551 H1556 0.931 . S
C1552 C1551 1.351 . S
C1552 N1553 1.373 . S
C1552 H1580 0.930 1_565 S
N1553 C1552 1.373 . S
N1553 C1555 1.340 . S
N1554 C1551 1.368 . S
N1554 C1555 1.321 . S
N1554 Co1557 2.135 . S
C1555 N1553 1.340 . S
C1555 N1554 1.321 . S
C1555 H1579 0.930 . S
H1556 C1551 0.931 . S
Co1557 N1554 2.135 . S
Co1557 N1560 2.121 . S
Co1557 O1565 2.055 1_655 S
Co1557 O1568 2.039 1_655 S
Co1557 N1571 2.140 . S
C1558 O1559 1.227 . S
C1558 O1568 1.265 1_655 S
O1559 C1558 1.227 . S
N1560 Co1557 2.121 . S
N1560 C1562 1.375 . S
N1560 C1563 1.313 1_655 S
C1561 C1562 1.336 . S
C1561 N1564 1.378 1_655 S
C1561 H1581 0.930 1_655 S
C1562 N1560 1.375 . S
C1562 C1561 1.336 . S
C1562 H1566 0.931 . S
C1563 N1560 1.313 1_455 S
C1563 N1564 1.344 . S
C1563 H1567 0.930 . S
N1564 C1561 1.378 1_455 S
N1564 C1563 1.344 . S
O1565 Co1557 2.055 1_455 S
O1565 C1569 1.253 1_455 S
H1566 C1562 0.931 . S
H1567 C1563 0.930 . S
O1568 Co1557 2.039 1_455 S
O1568 C1558 1.265 1_455 S
C1569 O1565 1.253 1_655 S
C1569 O1570 1.227 . S
O1570 C1569 1.227 . S
N1571 Co1557 2.140 . S
N1571 C1574 1.346 . S
N1571 C1575 1.345 . S
C1572 C1573 1.387 . S
C1572 C1576 1.391 . S
C1573 C1572 1.387 . S
C1573 C1574 1.369 . S
C1573 H1582 0.929 . S
C1574 N1571 1.346 . S
C1574 C1573 1.369 . S
C1574 H1577 0.928 . S
C1575 N1571 1.345 . S
C1575 C1576 1.371 . S
C1575 H1578 0.931 . S
C1576 C1572 1.391 . S
C1576 C1575 1.371 . S
C1576 H1583 0.930 . S
H1577 C1574 0.928 . S
H1578 C1575 0.931 . S
H1579 C1555 0.930 . S
H1580 C1552 0.930 1_545 S
H1581 C1561 0.930 1_455 S
H1582 C1573 0.929 . S
H1583 C1576 0.930 . S
C1584 C1585 1.387 . S
C1584 H1588 0.950 . S
C1584 C1593 1.390 . S
C1585 C1584 1.387 . S
C1585 C1587 1.387 . S
H1586 C1593 0.950 . S
C1587 C1585 1.387 . S
C1587 C1589 1.390 . S
C1587 H1591 0.950 . S
H1588 C1584 0.950 . S
C1589 C1587 1.390 . S
C1589 C1590 1.387 . S
C1589 H1592 0.950 . S
C1590 C1589 1.387 . S
C1590 C1593 1.387 . S
H1591 C1587 0.950 . S
H1592 C1589 0.950 . S
C1593 C1584 1.390 . S
C1593 H1586 0.950 . S
C1593 C1590 1.387 . S
C1594 C1595 1.387 . S
C1594 H1598 0.950 . S
C1594 C1603 1.390 . S
C1595 C1594 1.387 . S
C1595 C1597 1.387 . S
H1596 C1603 0.950 . S
C1597 C1595 1.387 . S
C1597 C1599 1.390 . S
C1597 H1601 0.950 . S
H1598 C1594 0.950 . S
C1599 C1597 1.390 . S
C1599 C1600 1.387 . S
C1599 H1602 0.950 . S
C1600 C1599 1.387 . S
C1600 C1603 1.387 . S
H1601 C1597 0.950 . S
H1602 C1599 0.950 . S
C1603 C1594 1.390 . S
C1603 H1596 0.950 . S
C1603 C1600 1.387 . S
C1604 C1605 1.387 . S
C1604 H1608 0.950 . S
C1604 C1613 1.390 . S
C1605 C1604 1.387 . S
C1605 C1607 1.387 . S
H1606 C1613 0.950 . S
C1607 C1605 1.387 . S
C1607 C1609 1.390 . S
C1607 H1611 0.950 . S
H1608 C1604 0.950 . S
C1609 C1607 1.390 . S
C1609 C1610 1.387 . S
C1609 H1612 0.950 . S
C1610 C1609 1.387 . S
C1610 C1613 1.387 . S
H1611 C1607 0.950 . S
H1612 C1609 0.950 . S
C1613 C1604 1.390 . S
C1613 H1606 0.950 . S
C1613 C1610 1.387 . S
C1614 C1615 1.387 . S
C1614 H1618 0.950 1_556 S
C1614 C1623 1.390 . S
C1615 C1614 1.387 . S
C1615 C1617 1.387 . S
H1616 C1623 0.950 . S
C1617 C1615 1.387 . S
C1617 C1619 1.390 . S
C1617 H1621 0.950 . S
H1618 C1614 0.950 1_554 S
C1619 C1617 1.390 . S
C1619 C1620 1.387 . S
C1619 H1622 0.950 . S
C1620 C1619 1.387 . S
C1620 C1623 1.387 . S
H1621 C1617 0.950 . S
H1622 C1619 0.950 . S
C1623 C1614 1.390 . S
C1623 H1616 0.950 . S
C1623 C1620 1.387 . S
C1624 C1625 1.387 . S
C1624 H1628 0.950 . S
C1624 C1633 1.390 . S
C1625 C1624 1.387 . S
C1625 C1627 1.387 . S
H1626 C1633 0.950 . S
C1627 C1625 1.387 . S
C1627 C1629 1.390 . S
C1627 H1631 0.950 . S
H1628 C1624 0.950 . S
C1629 C1627 1.390 . S
C1629 C1630 1.387 . S
C1629 H1632 0.950 . S
C1630 C1629 1.387 . S
C1630 C1633 1.387 . S
H1631 C1627 0.950 . S
H1632 C1629 0.950 . S
C1633 C1624 1.390 . S
C1633 H1626 0.950 . S
C1633 C1630 1.387 . S
C1634 C1635 1.387 . S
C1634 H1638 0.950 . S
C1634 C1643 1.390 . S
C1635 C1634 1.387 . S
C1635 C1637 1.387 . S
H1636 C1643 0.950 . S
C1637 C1635 1.387 . S
C1637 C1639 1.390 . S
C1637 H1641 0.950 . S
H1638 C1634 0.950 . S
C1639 C1637 1.390 . S
C1639 C1640 1.387 . S
C1639 H1642 0.950 . S
C1640 C1639 1.387 . S
C1640 C1643 1.387 . S
H1641 C1637 0.950 . S
H1642 C1639 0.950 . S
C1643 C1634 1.390 . S
C1643 H1636 0.950 . S
C1643 C1640 1.387 . S
C1644 C1645 1.387 . S
C1644 H1648 0.950 . S
C1644 C1653 1.390 . S
C1645 C1644 1.387 . S
C1645 C1647 1.387 . S
H1646 C1653 0.950 . S
C1647 C1645 1.387 . S
C1647 C1649 1.390 . S
C1647 H1651 0.950 . S
H1648 C1644 0.950 . S
C1649 C1647 1.390 . S
C1649 C1650 1.387 . S
C1649 H1652 0.950 . S
C1650 C1649 1.387 . S
C1650 C1653 1.387 . S
H1651 C1647 0.950 . S
H1652 C1649 0.950 . S
C1653 C1644 1.390 . S
C1653 H1646 0.950 . S
C1653 C1650 1.387 . S
C1654 C1655 1.387 . S
C1654 H1658 0.909 1_554 S
C1654 C1663 1.390 . S
C1655 C1654 1.387 . S
C1655 C1657 1.387 . S
H1656 C1663 0.950 . S
C1657 C1655 1.387 . S
C1657 C1659 1.390 . S
C1657 H1661 0.950 . S
H1658 C1654 0.909 1_556 S
C1659 C1657 1.390 . S
C1659 C1660 1.387 . S
C1659 H1662 0.950 . S
C1660 C1659 1.387 . S
C1660 C1663 1.387 . S
H1661 C1657 0.950 . S
H1662 C1659 0.950 . S
C1663 C1654 1.390 . S
C1663 H1656 0.950 . S
C1663 C1660 1.387 . S
C1664 C1665 1.387 . S
C1664 H1668 0.950 . S
C1664 C1673 1.390 . S
C1665 C1664 1.387 . S
C1665 C1667 1.387 . S
H1666 C1673 0.950 . S
C1667 C1665 1.387 . S
C1667 C1669 1.390 . S
C1667 H1671 0.950 . S
H1668 C1664 0.950 . S
C1669 C1667 1.390 . S
C1669 C1670 1.387 . S
C1669 H1672 0.950 . S
C1670 C1669 1.387 . S
C1670 C1673 1.387 . S
H1671 C1667 0.950 . S
H1672 C1669 0.950 . S
C1673 C1664 1.390 . S
C1673 H1666 0.950 . S
C1673 C1670 1.387 . S
C1674 C1675 1.387 . S
C1674 H1678 0.950 1_565 S
C1674 C1683 1.390 . S
C1675 C1674 1.387 . S
C1675 C1677 1.387 . S
H1676 C1683 0.950 . S
C1677 C1675 1.387 . S
C1677 C1679 1.390 . S
C1677 H1681 0.950 . S
H1678 C1674 0.950 1_545 S
C1679 C1677 1.390 . S
C1679 C1680 1.387 . S
C1679 H1682 0.950 . S
C1680 C1679 1.387 . S
C1680 C1683 1.387 . S
H1681 C1677 0.950 . S
H1682 C1679 0.950 . S
C1683 C1674 1.390 . S
C1683 H1676 0.950 . S
C1683 C1680 1.387 . S
C1684 C1685 1.387 . S
C1684 H1688 0.950 . S
C1684 C1693 1.390 . S
C1685 C1684 1.387 . S
C1685 C1687 1.387 . S
H1686 C1693 0.950 . S
C1687 C1685 1.387 . S
C1687 C1689 1.390 . S
C1687 H1691 0.950 1_565 S
H1688 C1684 0.950 . S
C1689 C1687 1.390 . S
C1689 C1690 1.387 . S
C1689 H1692 0.950 . S
C1690 C1689 1.387 . S
C1690 C1693 1.387 . S
H1691 C1687 0.950 1_545 S
H1692 C1689 0.950 . S
C1693 C1684 1.390 . S
C1693 H1686 0.950 . S
C1693 C1690 1.387 . S
C1694 C1695 1.387 . S
C1694 H1698 0.950 . S
C1694 C1703 1.390 . S
C1695 C1694 1.387 . S
C1695 C1697 1.387 . S
H1696 C1703 0.950 1_565 S
C1697 C1695 1.387 . S
C1697 C1699 1.390 . S
C1697 H1701 0.950 . S
H1698 C1694 0.950 . S
C1699 C1697 1.390 . S
C1699 C1700 1.387 . S
C1699 H1702 0.950 . S
C1700 C1699 1.387 . S
C1700 C1703 1.387 . S
H1701 C1697 0.950 . S
H1702 C1699 0.950 . S
C1703 C1694 1.390 . S
C1703 H1696 0.950 1_545 S
C1703 C1700 1.387 . S
C1704 C1705 1.387 . S
C1704 H1708 0.950 . S
C1704 C1713 1.390 . S
C1705 C1704 1.387 . S
C1705 C1707 1.387 . S
H1706 C1713 0.950 . S
C1707 C1705 1.387 . S
C1707 C1709 1.390 . S
C1707 H1711 0.950 1_556 S
H1708 C1704 0.950 . S
C1709 C1707 1.390 . S
C1709 C1710 1.387 . S
C1709 H1712 0.950 . S
C1710 C1709 1.387 . S
C1710 C1713 1.387 . S
H1711 C1707 0.950 1_554 S
H1712 C1709 0.950 . S
C1713 C1704 1.390 . S
C1713 H1706 0.950 . S
C1713 C1710 1.387 . S
C1714 C1715 1.387 . S
C1714 H1718 0.950 . S
C1714 C1723 1.390 . S
C1715 C1714 1.387 . S
C1715 C1717 1.387 . S
H1716 C1723 0.950 . S
C1717 C1715 1.387 . S
C1717 C1719 1.390 . S
C1717 H1721 0.982 . S
H1718 C1714 0.950 . S
C1719 C1717 1.390 . S
C1719 C1720 1.387 . S
C1719 H1722 0.950 . S
C1720 C1719 1.387 . S
C1720 C1723 1.387 . S
H1721 C1717 0.982 . S
H1722 C1719 0.950 . S
C1723 C1714 1.390 . S
C1723 H1716 0.950 . S
C1723 C1720 1.387 . S
C1724 C1725 1.387 . S
C1724 H1728 0.950 . S
C1724 C1733 1.390 . S
C1725 C1724 1.387 . S
C1725 C1727 1.387 . S
H1726 C1733 0.950 . S
C1727 C1725 1.387 . S
C1727 C1729 1.390 . S
C1727 H1731 0.950 . S
H1728 C1724 0.950 . S
C1729 C1727 1.390 . S
C1729 C1730 1.387 . S
C1729 H1732 0.950 . S
C1730 C1729 1.387 . S
C1730 C1733 1.387 . S
H1731 C1727 0.950 . S
H1732 C1729 0.950 . S
C1733 C1724 1.390 . S
C1733 H1726 0.950 . S
C1733 C1730 1.387 . S
C1734 C1735 1.387 . S
C1734 H1738 0.950 . S
C1734 C1743 1.390 . S
C1735 C1734 1.387 . S
C1735 C1737 1.387 . S
H1736 C1743 0.950 . S
C1737 C1735 1.387 . S
C1737 C1739 1.390 . S
C1737 H1741 0.950 . S
H1738 C1734 0.950 . S
C1739 C1737 1.390 . S
C1739 C1740 1.387 . S
C1739 H1742 0.950 . S
C1740 C1739 1.387 . S
C1740 C1743 1.387 . S
H1741 C1737 0.950 . S
H1742 C1739 0.950 . S
C1743 C1734 1.390 . S
C1743 H1736 0.950 . S
C1743 C1740 1.387 . S
C1744 C1745 1.387 . S
C1744 H1748 0.950 . S
C1744 C1753 1.390 . S
C1745 C1744 1.387 . S
C1745 C1747 1.387 . S
H1746 C1753 0.950 . S
C1747 C1745 1.387 . S
C1747 C1749 1.390 . S
C1747 H1751 0.950 . S
H1748 C1744 0.950 . S
C1749 C1747 1.390 . S
C1749 C1750 1.387 . S
C1749 H1752 0.950 . S
C1750 C1749 1.387 . S
C1750 C1753 1.387 . S
H1751 C1747 0.950 . S
H1752 C1749 0.950 . S
C1753 C1744 1.390 . S
C1753 H1746 0.950 . S
C1753 C1750 1.387 . S
C1754 C1755 1.387 . S
C1754 H1758 0.950 . S
C1754 C1763 1.390 . S
C1755 C1754 1.387 . S
C1755 C1757 1.387 . S
H1756 C1763 0.950 . S
C1757 C1755 1.387 . S
C1757 C1759 1.390 . S
C1757 H1761 0.950 . S
H1758 C1754 0.950 . S
C1759 C1757 1.390 . S
C1759 C1760 1.387 . S
C1759 H1762 0.950 . S
C1760 C1759 1.387 . S
C1760 C1763 1.387 . S
H1761 C1757 0.950 . S
H1762 C1759 0.950 . S
C1763 C1754 1.390 . S
C1763 H1756 0.950 . S
C1763 C1760 1.387 . S
C1764 C1765 1.387 . S
C1764 H1768 0.950 . S
C1764 C1773 1.390 . S
C1765 C1764 1.387 . S
C1765 C1767 1.387 . S
H1766 C1773 0.950 . S
C1767 C1765 1.387 . S
C1767 C1769 1.390 . S
C1767 H1771 0.950 . S
H1768 C1764 0.950 . S
C1769 C1767 1.390 . S
C1769 C1770 1.387 . S
C1769 H1772 0.950 . S
C1770 C1769 1.387 . S
C1770 C1773 1.387 . S
H1771 C1767 0.950 . S
H1772 C1769 0.950 . S
C1773 C1764 1.390 . S
C1773 H1766 0.950 . S
C1773 C1770 1.387 . S
C1774 C1775 1.387 . S
C1774 H1778 0.950 . S
C1774 C1783 1.390 . S
C1775 C1774 1.387 . S
C1775 C1777 1.387 . S
H1776 C1783 0.950 . S
C1777 C1775 1.387 . S
C1777 C1779 1.390 . S
C1777 H1781 0.950 . S
H1778 C1774 0.950 . S
C1779 C1777 1.390 . S
C1779 C1780 1.387 . S
C1779 H1782 0.950 . S
C1780 C1779 1.387 . S
C1780 C1783 1.387 . S
H1781 C1777 0.950 . S
H1782 C1779 0.950 . S
C1783 C1774 1.390 . S
C1783 H1776 0.950 . S
C1783 C1780 1.387 . S
C1784 C1785 1.387 . S
C1784 H1788 0.950 . S
C1784 C1793 1.390 . S
C1785 C1784 1.387 . S
C1785 C1787 1.387 . S
H1786 C1793 0.950 . S
C1787 C1785 1.387 . S
C1787 C1789 1.390 . S
C1787 H1791 0.950 . S
H1788 C1784 0.950 . S
C1789 C1787 1.390 . S
C1789 C1790 1.387 . S
C1789 H1792 0.950 . S
C1790 C1789 1.387 . S
C1790 C1793 1.387 . S
H1791 C1787 0.950 . S
H1792 C1789 0.950 . S
C1793 C1784 1.390 . S
C1793 H1786 0.950 . S
C1793 C1790 1.387 . S
C1794 C1795 1.387 . S
C1794 H1798 0.950 . S
C1794 C1803 1.390 . S
C1795 C1794 1.387 . S
C1795 C1797 1.387 . S
H1796 C1803 0.950 . S
C1797 C1795 1.387 . S
C1797 C1799 1.390 . S
C1797 H1801 0.950 . S
H1798 C1794 0.950 . S
C1799 C1797 1.390 . S
C1799 C1800 1.387 . S
C1799 H1802 0.950 . S
C1800 C1799 1.387 . S
C1800 C1803 1.387 . S
H1801 C1797 0.950 . S
H1802 C1799 0.950 . S
C1803 C1794 1.390 . S
C1803 H1796 0.950 . S
C1803 C1800 1.387 . S
C1804 C1805 1.387 . S
C1804 H1808 0.950 . S
C1804 C1813 1.390 . S
C1805 C1804 1.387 . S
C1805 C1807 1.387 . S
H1806 C1813 0.950 . S
C1807 C1805 1.387 . S
C1807 C1809 1.390 . S
C1807 H1811 0.950 . S
H1808 C1804 0.950 . S
C1809 C1807 1.390 . S
C1809 C1810 1.387 . S
C1809 H1812 0.950 . S
C1810 C1809 1.387 . S
C1810 C1813 1.387 . S
H1811 C1807 0.950 . S
H1812 C1809 0.950 . S
C1813 C1804 1.390 . S
C1813 H1806 0.950 . S
C1813 C1810 1.387 . S
C1814 C1815 1.387 . S
C1814 H1818 0.950 . S
C1814 C1823 1.390 . S
C1815 C1814 1.387 . S
C1815 C1817 1.387 . S
H1816 C1823 0.950 . S
C1817 C1815 1.387 . S
C1817 C1819 1.390 . S
C1817 H1821 0.950 . S
H1818 C1814 0.950 . S
C1819 C1817 1.390 . S
C1819 C1820 1.387 . S
C1819 H1822 0.950 . S
C1820 C1819 1.387 . S
C1820 C1823 1.387 . S
H1821 C1817 0.950 . S
H1822 C1819 0.950 . S
C1823 C1814 1.390 . S
C1823 H1816 0.950 . S
C1823 C1820 1.387 . S
C1824 C1825 1.387 . S
C1824 H1828 0.950 . S
C1824 C1833 1.390 . S
C1825 C1824 1.387 . S
C1825 C1827 1.387 . S
H1826 C1833 0.950 . S
C1827 C1825 1.387 . S
C1827 C1829 1.390 . S
C1827 H1831 0.950 . S
H1828 C1824 0.950 . S
C1829 C1827 1.390 . S
C1829 C1830 1.387 . S
C1829 H1832 0.950 . S
C1830 C1829 1.387 . S
C1830 C1833 1.387 . S
H1831 C1827 0.950 . S
H1832 C1829 0.950 . S
C1833 C1824 1.390 . S
C1833 H1826 0.950 . S
C1833 C1830 1.387 . S
C1834 C1835 1.387 1_655 S
C1834 H1838 0.950 . S
C1834 C1843 1.390 . S
C1835 C1834 1.387 1_455 S
C1835 C1837 1.387 . S
H1836 C1843 0.950 . S
C1837 C1835 1.387 . S
C1837 C1839 1.390 . S
C1837 H1841 0.950 . S
H1838 C1834 0.950 . S
C1839 C1837 1.390 . S
C1839 C1840 1.387 . S
C1839 H1842 0.950 . S
C1840 C1839 1.387 . S
C1840 C1843 1.387 1_455 S
H1841 C1837 0.950 . S
H1842 C1839 0.950 . S
C1843 C1834 1.390 . S
C1843 H1836 0.950 . S
C1843 C1840 1.387 1_655 S
C1844 C1845 1.387 . S
C1844 H1848 0.950 . S
C1844 C1853 1.390 . S
C1845 C1844 1.387 . S
C1845 C1847 1.387 . S
H1846 C1853 0.950 . S
C1847 C1845 1.387 . S
C1847 C1849 1.390 . S
C1847 H1851 0.950 . S
H1848 C1844 0.950 . S
C1849 C1847 1.390 . S
C1849 C1850 1.387 . S
C1849 H1852 0.950 . S
C1850 C1849 1.387 . S
C1850 C1853 1.387 . S
H1851 C1847 0.950 . S
H1852 C1849 0.950 . S
C1853 C1844 1.390 . S
C1853 H1846 0.950 . S
C1853 C1850 1.387 . S
C1854 C1855 1.387 . S
C1854 H1858 0.950 . S
C1854 C1863 1.390 . S
C1855 C1854 1.387 . S
C1855 C1857 1.387 . S
H1856 C1863 0.950 . S
C1857 C1855 1.387 . S
C1857 C1859 1.390 . S
C1857 H1861 0.950 . S
H1858 C1854 0.950 . S
C1859 C1857 1.390 . S
C1859 C1860 1.387 . S
C1859 H1862 0.950 . S
C1860 C1859 1.387 . S
C1860 C1863 1.387 . S
H1861 C1857 0.950 . S
H1862 C1859 0.950 . S
C1863 C1854 1.390 . S
C1863 H1856 0.950 . S
C1863 C1860 1.387 . S
C1864 C1865 1.387 . S
C1864 H1868 0.950 . S
C1864 C1873 1.390 . S
C1865 C1864 1.387 . S
C1865 C1867 1.387 . S
H1866 C1873 0.950 . S
C1867 C1865 1.387 . S
C1867 C1869 1.390 . S
C1867 H1871 0.950 . S
H1868 C1864 0.950 . S
C1869 C1867 1.390 . S
C1869 C1870 1.387 . S
C1869 H1872 0.950 . S
C1870 C1869 1.387 . S
C1870 C1873 1.387 . S
H1871 C1867 0.950 . S
H1872 C1869 0.950 . S
C1873 C1864 1.390 . S
C1873 H1866 0.950 . S
C1873 C1870 1.387 . S
C1874 C1875 1.387 . S
C1874 H1878 0.950 . S
C1874 C1883 1.390 . S
C1875 C1874 1.387 . S
C1875 C1877 1.387 . S
H1876 C1883 0.950 . S
C1877 C1875 1.387 . S
C1877 C1879 1.390 . S
C1877 H1881 0.950 . S
H1878 C1874 0.950 . S
C1879 C1877 1.390 . S
C1879 C1880 1.387 . S
C1879 H1882 0.950 . S
C1880 C1879 1.387 . S
C1880 C1883 1.387 . S
H1881 C1877 0.950 . S
H1882 C1879 0.950 . S
C1883 C1874 1.390 . S
C1883 H1876 0.950 . S
C1883 C1880 1.387 . S
C1884 C1885 1.387 . S
C1884 H1888 0.950 . S
C1884 C1893 1.390 . S
C1885 C1884 1.387 . S
C1885 C1887 1.387 . S
H1886 C1893 0.950 . S
C1887 C1885 1.387 . S
C1887 C1889 1.390 . S
C1887 H1891 0.950 . S
H1888 C1884 0.950 . S
C1889 C1887 1.390 . S
C1889 C1890 1.387 . S
C1889 H1892 0.950 . S
C1890 C1889 1.387 . S
C1890 C1893 1.387 . S
H1891 C1887 0.950 . S
H1892 C1889 0.950 . S
C1893 C1884 1.390 . S
C1893 H1886 0.950 . S
C1893 C1890 1.387 . S
C1894 C1895 1.387 . S
C1894 H1898 0.950 1_455 S
C1894 C1903 1.390 . S
C1895 C1894 1.387 . S
C1895 C1897 1.387 . S
H1896 C1903 0.950 1_655 S
C1897 C1895 1.387 . S
C1897 C1899 1.390 . S
C1897 H1901 0.950 . S
H1898 C1894 0.950 1_655 S
C1899 C1897 1.390 . S
C1899 C1900 1.387 . S
C1899 H1902 0.950 . S
C1900 C1899 1.387 . S
C1900 C1903 1.387 . S
H1901 C1897 0.950 . S
H1902 C1899 0.950 . S
C1903 C1894 1.390 . S
C1903 H1896 0.950 1_455 S
C1903 C1900 1.387 . S
C1904 C1905 1.387 . S
C1904 H1908 0.950 . S
C1904 C1913 1.390 . S
C1905 C1904 1.387 . S
C1905 C1907 1.387 . S
H1906 C1913 0.950 . S
C1907 C1905 1.387 . S
C1907 C1909 1.390 . S
C1907 H1911 0.950 . S
H1908 C1904 0.950 . S
C1909 C1907 1.390 . S
C1909 C1910 1.387 . S
C1909 H1912 0.950 . S
C1910 C1909 1.387 . S
C1910 C1913 1.387 . S
H1911 C1907 0.950 . S
H1912 C1909 0.950 . S
C1913 C1904 1.390 . S
C1913 H1906 0.950 . S
C1913 C1910 1.387 . S
C1914 C1915 1.387 . S
C1914 H1918 0.950 . S
C1914 C1923 1.390 . S
C1915 C1914 1.387 . S
C1915 C1917 1.387 . S
H1916 C1923 0.950 . S
C1917 C1915 1.387 . S
C1917 C1919 1.390 . S
C1917 H1921 0.950 . S
H1918 C1914 0.950 . S
C1919 C1917 1.390 . S
C1919 C1920 1.387 . S
C1919 H1922 0.950 . S
C1920 C1919 1.387 . S
C1920 C1923 1.387 . S
H1921 C1917 0.950 . S
H1922 C1919 0.950 . S
C1923 C1914 1.390 . S
C1923 H1916 0.950 . S
C1923 C1920 1.387 . S
C1924 C1925 1.387 . S
C1924 H1928 0.950 . S
C1924 C1933 1.390 . S
C1925 C1924 1.387 . S
C1925 C1927 1.387 . S
H1926 C1933 0.950 . S
C1927 C1925 1.387 . S
C1927 C1929 1.390 . S
C1927 H1931 0.950 . S
H1928 C1924 0.950 . S
C1929 C1927 1.390 . S
C1929 C1930 1.387 . S
C1929 H1932 0.950 . S
C1930 C1929 1.387 . S
C1930 C1933 1.387 . S
H1931 C1927 0.950 . S
H1932 C1929 0.950 . S
C1933 C1924 1.390 . S
C1933 H1926 0.950 . S
C1933 C1930 1.387 . S
C1934 C1935 1.387 . S
C1934 H1938 0.950 . S
C1934 C1943 1.390 . S
C1935 C1934 1.387 . S
C1935 C1937 1.387 1_556 S
H1936 C1943 0.950 . S
C1937 C1935 1.387 1_554 S
C1937 C1939 1.390 . S
C1937 H1941 0.950 . S
H1938 C1934 0.950 . S
C1939 C1937 1.390 . S
C1939 C1940 1.387 1_554 S
C1939 H1942 0.950 . S
C1940 C1939 1.387 1_556 S
C1940 C1943 1.387 . S
H1941 C1937 0.950 . S
H1942 C1939 0.950 . S
C1943 C1934 1.390 . S
C1943 H1936 0.950 . S
C1943 C1940 1.387 . S
C1944 C1945 1.387 . S
C1944 H1948 0.950 . S
C1944 C1953 1.390 . S
C1945 C1944 1.387 . S
C1945 C1947 1.387 . S
H1946 C1953 0.950 . S
C1947 C1945 1.387 . S
C1947 C1949 1.390 . S
C1947 H1951 0.950 . S
H1948 C1944 0.950 . S
C1949 C1947 1.390 . S
C1949 C1950 1.387 . S
C1949 H1952 0.950 . S
C1950 C1949 1.387 . S
C1950 C1953 1.387 . S
H1951 C1947 0.950 . S
H1952 C1949 0.950 . S
C1953 C1944 1.390 . S
C1953 H1946 0.950 . S
C1953 C1950 1.387 . S
C1954 C1955 1.387 . S
C1954 H1958 0.950 . S
C1954 C1963 1.390 . S
C1955 C1954 1.387 . S
C1955 C1957 1.387 . S
H1956 C1963 0.950 . S
C1957 C1955 1.387 . S
C1957 C1959 1.390 . S
C1957 H1961 0.950 . S
H1958 C1954 0.950 . S
C1959 C1957 1.390 . S
C1959 C1960 1.387 . S
C1959 H1962 0.950 . S
C1960 C1959 1.387 . S
C1960 C1963 1.387 . S
H1961 C1957 0.950 . S
H1962 C1959 0.950 . S
C1963 C1954 1.390 . S
C1963 H1956 0.950 . S
C1963 C1960 1.387 . S
C1964 C1965 1.387 . S
C1964 H1968 0.950 . S
C1964 C1973 1.390 . S
C1965 C1964 1.387 . S
C1965 C1967 1.387 . S
H1966 C1973 0.950 . S
C1967 C1965 1.387 . S
C1967 C1969 1.390 . S
C1967 H1971 0.950 . S
H1968 C1964 0.950 . S
C1969 C1967 1.390 . S
C1969 C1970 1.387 . S
C1969 H1972 0.950 . S
C1970 C1969 1.387 . S
C1970 C1973 1.387 . S
H1971 C1967 0.950 . S
H1972 C1969 0.950 . S
C1973 C1964 1.390 . S
C1973 H1966 0.950 . S
C1973 C1970 1.387 . S
C1974 C1975 1.387 1_556 S
C1974 H1978 0.950 . S
C1974 C1983 1.390 . S
C1975 C1974 1.387 1_554 S
C1975 C1977 1.387 . S
H1976 C1983 0.950 . S
C1977 C1975 1.387 . S
C1977 C1979 1.390 . S
C1977 H1981 0.950 . S
H1978 C1974 0.950 . S
C1979 C1977 1.390 . S
C1979 C1980 1.387 . S
C1979 H1982 0.950 . S
C1980 C1979 1.387 . S
C1980 C1983 1.387 1_554 S
H1981 C1977 0.950 . S
H1982 C1979 0.950 . S
C1983 C1974 1.390 . S
C1983 H1976 0.950 . S
C1983 C1980 1.387 1_556 S
C1984 C1985 1.387 . S
C1984 H1988 0.950 . S
C1984 C1993 1.390 . S
C1985 C1984 1.387 . S
C1985 C1987 1.387 . S
H1986 C1993 0.950 . S
C1987 C1985 1.387 . S
C1987 C1989 1.390 . S
C1987 H1991 0.950 . S
H1988 C1984 0.950 . S
C1989 C1987 1.390 . S
C1989 C1990 1.387 . S
C1989 H1992 0.950 . S
C1990 C1989 1.387 . S
C1990 C1993 1.387 . S
H1991 C1987 0.950 . S
H1992 C1989 0.950 . S
C1993 C1984 1.390 . S
C1993 H1986 0.950 . S
C1993 C1990 1.387 . S
C1994 C1995 1.387 . S
C1994 H1998 0.950 . S
C1994 C2003 1.390 . S
C1995 C1994 1.387 . S
C1995 C1997 1.387 . S
H1996 C2003 0.950 . S
C1997 C1995 1.387 . S
C1997 C1999 1.390 . S
C1997 H2001 0.950 . S
H1998 C1994 0.950 . S
C1999 C1997 1.390 . S
C1999 C2000 1.387 . S
C1999 H2002 0.950 . S
C2000 C1999 1.387 . S
C2000 C2003 1.387 . S
H2001 C1997 0.950 . S
H2002 C1999 0.950 . S
C2003 C1994 1.390 . S
C2003 H1996 0.950 . S
C2003 C2000 1.387 . S
C2004 C2005 1.387 . S
C2004 H2008 0.950 . S
C2004 C2013 1.390 . S
C2005 C2004 1.387 . S
C2005 C2007 1.387 . S
H2006 C2013 0.950 . S
C2007 C2005 1.387 . S
C2007 C2009 1.390 . S
C2007 H2011 0.950 . S
H2008 C2004 0.950 . S
C2009 C2007 1.390 . S
C2009 C2010 1.387 . S
C2009 H2012 0.950 . S
C2010 C2009 1.387 . S
C2010 C2013 1.387 . S
H2011 C2007 0.950 . S
H2012 C2009 0.950 . S
C2013 C2004 1.390 . S
C2013 H2006 0.950 . S
C2013 C2010 1.387 . S
C2014 C2015 1.387 . S
C2014 H2018 0.950 . S
C2014 C2023 1.390 . S
C2015 C2014 1.387 . S
C2015 C2017 1.387 . S
H2016 C2023 0.950 . S
C2017 C2015 1.387 . S
C2017 C2019 1.390 . S
C2017 H2021 0.950 . S
H2018 C2014 0.950 . S
C2019 C2017 1.390 . S
C2019 C2020 1.387 . S
C2019 H2022 0.950 . S
C2020 C2019 1.387 . S
C2020 C2023 1.387 . S
H2021 C2017 0.950 . S
H2022 C2019 0.950 . S
C2023 C2014 1.390 . S
C2023 H2016 0.950 . S
C2023 C2020 1.387 . S
C2024 C2025 1.387 . S
C2024 H2028 0.950 . S
C2024 C2033 1.390 . S
C2025 C2024 1.387 . S
C2025 C2027 1.387 1_545 S
H2026 C2033 0.950 . S
C2027 C2025 1.387 1_565 S
C2027 C2029 1.390 . S
C2027 H2031 0.950 . S
H2028 C2024 0.950 . S
C2029 C2027 1.390 . S
C2029 C2030 1.387 1_565 S
C2029 H2032 0.950 . S
C2030 C2029 1.387 1_545 S
C2030 C2033 1.387 . S
H2031 C2027 0.950 . S
H2032 C2029 0.950 . S
C2033 C2024 1.390 . S
C2033 H2026 0.950 . S
C2033 C2030 1.387 . S
C2034 C2035 1.387 . S
C2034 H2038 0.950 . S
C2034 C2043 1.390 . S
C2035 C2034 1.387 . S
C2035 C2037 1.387 . S
H2036 C2043 0.950 . S
C2037 C2035 1.387 . S
C2037 C2039 1.390 . S
C2037 H2041 0.950 . S
H2038 C2034 0.950 . S
C2039 C2037 1.390 . S
C2039 C2040 1.387 . S
C2039 H2042 0.950 . S
C2040 C2039 1.387 . S
C2040 C2043 1.387 . S
H2041 C2037 0.950 . S
H2042 C2039 0.950 . S
C2043 C2034 1.390 . S
C2043 H2036 0.950 . S
C2043 C2040 1.387 . S
C2044 C2045 1.387 . S
C2044 H2048 0.950 . S
C2044 C2053 1.390 . S
C2045 C2044 1.387 . S
C2045 C2047 1.387 . S
H2046 C2053 0.950 . S
C2047 C2045 1.387 . S
C2047 C2049 1.390 . S
C2047 H2051 0.950 . S
H2048 C2044 0.950 . S
C2049 C2047 1.390 . S
C2049 C2050 1.387 . S
C2049 H2052 0.950 . S
C2050 C2049 1.387 . S
C2050 C2053 1.387 . S
H2051 C2047 0.950 . S
H2052 C2049 0.950 . S
C2053 C2044 1.390 . S
C2053 H2046 0.950 . S
C2053 C2050 1.387 . S
C2054 C2055 1.387 . S
C2054 H2058 0.950 . S
C2054 C2063 1.390 . S
C2055 C2054 1.387 . S
C2055 C2057 1.387 . S
H2056 C2063 0.950 . S
C2057 C2055 1.387 . S
C2057 C2059 1.390 . S
C2057 H2061 0.950 . S
H2058 C2054 0.950 . S
C2059 C2057 1.390 . S
C2059 C2060 1.387 . S
C2059 H2062 0.950 . S
C2060 C2059 1.387 . S
C2060 C2063 1.387 . S
H2061 C2057 0.950 . S
H2062 C2059 0.950 . S
C2063 C2054 1.390 . S
C2063 H2056 0.950 . S
C2063 C2060 1.387 . S
C2064 C2065 1.387 . S
C2064 H2068 0.950 . S
C2064 C2073 1.390 . S
C2065 C2064 1.387 . S
C2065 C2067 1.387 . S
H2066 C2073 0.950 . S
C2067 C2065 1.387 . S
C2067 C2069 1.390 . S
C2067 H2071 0.950 . S
H2068 C2064 0.950 . S
C2069 C2067 1.390 . S
C2069 C2070 1.387 . S
C2069 H2072 0.950 . S
C2070 C2069 1.387 . S
C2070 C2073 1.387 . S
H2071 C2067 0.950 . S
H2072 C2069 0.950 . S
C2073 C2064 1.390 . S
C2073 H2066 0.950 . S
C2073 C2070 1.387 . S
C2074 C2075 1.387 . S
C2074 H2078 0.950 . S
C2074 C2083 1.390 . S
C2075 C2074 1.387 . S
C2075 C2077 1.387 . S
H2076 C2083 0.950 . S
C2077 C2075 1.387 . S
C2077 C2079 1.390 . S
C2077 H2081 0.950 . S
H2078 C2074 0.950 . S
C2079 C2077 1.390 . S
C2079 C2080 1.387 . S
C2079 H2082 0.950 . S
C2080 C2079 1.387 . S
C2080 C2083 1.387 . S
H2081 C2077 0.950 . S
H2082 C2079 0.950 . S
C2083 C2074 1.390 . S
C2083 H2076 0.950 . S
C2083 C2080 1.387 . S
C2084 C2085 1.387 . S
C2084 H2088 0.950 . S
C2084 C2093 1.390 . S
C2085 C2084 1.387 . S
C2085 C2087 1.387 . S
H2086 C2093 0.950 . S
C2087 C2085 1.387 . S
C2087 C2089 1.390 . S
C2087 H2091 0.950 . S
H2088 C2084 0.950 . S
C2089 C2087 1.390 . S
C2089 C2090 1.387 . S
C2089 H2092 0.950 . S
C2090 C2089 1.387 . S
C2090 C2093 1.387 . S
H2091 C2087 0.950 . S
H2092 C2089 0.950 . S
C2093 C2084 1.390 . S
C2093 H2086 0.950 . S
C2093 C2090 1.387 . S
C2094 C2095 1.387 . S
C2094 H2098 0.950 . S
C2094 C2103 1.390 . S
C2095 C2094 1.387 . S
C2095 C2097 1.387 1_655 S
H2096 C2103 0.950 . S
C2097 C2095 1.387 1_455 S
C2097 C2099 1.390 . S
C2097 H2101 0.950 . S
H2098 C2094 0.950 . S
C2099 C2097 1.390 . S
C2099 C2100 1.387 1_455 S
C2099 H2102 0.950 . S
C2100 C2099 1.387 1_655 S
C2100 C2103 1.387 . S
H2101 C2097 0.950 . S
H2102 C2099 0.950 . S
C2103 C2094 1.390 . S
C2103 H2096 0.950 . S
C2103 C2100 1.387 . S
C2104 C2105 1.387 . S
C2104 H2108 0.950 . S
C2104 C2113 1.390 . S
C2105 C2104 1.387 . S
C2105 C2107 1.387 . S
H2106 C2113 0.950 . S
C2107 C2105 1.387 . S
C2107 C2109 1.390 . S
C2107 H2111 0.950 . S
H2108 C2104 0.950 . S
C2109 C2107 1.390 . S
C2109 C2110 1.387 . S
C2109 H2112 0.950 . S
C2110 C2109 1.387 . S
C2110 C2113 1.387 . S
H2111 C2107 0.950 . S
H2112 C2109 0.950 . S
C2113 C2104 1.390 . S
C2113 H2106 0.950 . S
C2113 C2110 1.387 . S
C2114 C2115 1.387 . S
C2114 H2118 0.950 . S
C2114 C2123 1.390 . S
C2115 C2114 1.387 . S
C2115 C2117 1.387 . S
H2116 C2123 0.950 1_455 S
C2117 C2115 1.387 . S
C2117 C2119 1.390 . S
C2117 H2121 0.950 . S
H2118 C2114 0.950 . S
C2119 C2117 1.390 . S
C2119 C2120 1.387 . S
C2119 H2122 0.950 . S
C2120 C2119 1.387 . S
C2120 C2123 1.387 . S
H2121 C2117 0.950 . S
H2122 C2119 0.950 . S
C2123 C2114 1.390 . S
C2123 H2116 0.950 1_655 S
C2123 C2120 1.387 . S
C2124 C2125 1.387 . S
C2124 H2128 0.950 . S
C2124 C2133 1.390 . S
C2125 C2124 1.387 . S
C2125 C2127 1.387 . S
H2126 C2133 0.950 . S
C2127 C2125 1.387 . S
C2127 C2129 1.390 . S
C2127 H2131 0.950 . S
H2128 C2124 0.950 . S
C2129 C2127 1.390 . S
C2129 C2130 1.387 . S
C2129 H2132 0.950 . S
C2130 C2129 1.387 . S
C2130 C2133 1.387 . S
H2131 C2127 0.950 . S
H2132 C2129 0.950 . S
C2133 C2124 1.390 . S
C2133 H2126 0.950 . S
C2133 C2130 1.387 . S
C2134 C2135 1.387 . S
C2134 H2138 0.950 . S
C2134 C2143 1.390 . S
C2135 C2134 1.387 . S
C2135 C2137 1.387 . S
H2136 C2143 0.950 . S
C2137 C2135 1.387 . S
C2137 C2139 1.390 . S
C2137 H2141 0.950 . S
H2138 C2134 0.950 . S
C2139 C2137 1.390 . S
C2139 C2140 1.387 . S
C2139 H2142 0.950 . S
C2140 C2139 1.387 . S
C2140 C2143 1.387 . S
H2141 C2137 0.950 . S
H2142 C2139 0.950 . S
C2143 C2134 1.390 . S
C2143 H2136 0.950 . S
C2143 C2140 1.387 . S
C2144 C2145 1.387 . S
C2144 H2148 0.950 . S
C2144 C2153 1.390 . S
C2145 C2144 1.387 . S
C2145 C2147 1.387 . S
H2146 C2153 0.950 . S
C2147 C2145 1.387 . S
C2147 C2149 1.390 . S
C2147 H2151 0.950 . S
H2148 C2144 0.950 . S
C2149 C2147 1.390 . S
C2149 C2150 1.387 . S
C2149 H2152 0.950 . S
C2150 C2149 1.387 . S
C2150 C2153 1.387 . S
H2151 C2147 0.950 . S
H2152 C2149 0.950 . S
C2153 C2144 1.390 . S
C2153 H2146 0.950 . S
C2153 C2150 1.387 . S
C2154 C2155 1.387 . S
C2154 H2158 0.950 . S
C2154 C2163 1.390 . S
C2155 C2154 1.387 . S
C2155 C2157 1.387 1_556 S
H2156 C2163 0.950 . S
C2157 C2155 1.387 1_554 S
C2157 C2159 1.390 . S
C2157 H2161 0.950 . S
H2158 C2154 0.950 . S
C2159 C2157 1.390 . S
C2159 C2160 1.387 1_554 S
C2159 H2162 0.950 . S
C2160 C2159 1.387 1_556 S
C2160 C2163 1.387 . S
H2161 C2157 0.950 . S
H2162 C2159 0.950 . S
C2163 C2154 1.390 . S
C2163 H2156 0.950 . S
C2163 C2160 1.387 . S
C2164 C2165 1.387 . S
C2164 H2168 0.950 . S
C2164 C2173 1.390 . S
C2165 C2164 1.387 . S
C2165 C2167 1.387 . S
H2166 C2173 0.950 . S
C2167 C2165 1.387 . S
C2167 C2169 1.390 . S
C2167 H2171 0.950 . S
H2168 C2164 0.950 . S
C2169 C2167 1.390 . S
C2169 C2170 1.387 . S
C2169 H2172 0.950 . S
C2170 C2169 1.387 . S
C2170 C2173 1.387 . S
H2171 C2167 0.950 . S
H2172 C2169 0.950 . S
C2173 C2164 1.390 . S
C2173 H2166 0.950 . S
C2173 C2170 1.387 . S
C2174 C2175 1.387 . S
C2174 H2178 0.950 . S
C2174 C2183 1.390 . S
C2175 C2174 1.387 . S
C2175 C2177 1.387 . S
H2176 C2183 0.950 . S
C2177 C2175 1.387 . S
C2177 C2179 1.390 . S
C2177 H2181 0.950 . S
H2178 C2174 0.950 . S
C2179 C2177 1.390 . S
C2179 C2180 1.387 . S
C2179 H2182 0.950 . S
C2180 C2179 1.387 . S
C2180 C2183 1.387 . S
H2181 C2177 0.950 . S
H2182 C2179 0.950 . S
C2183 C2174 1.390 . S
C2183 H2176 0.950 . S
C2183 C2180 1.387 . S
C2184 C2185 1.387 . S
C2184 H2188 0.950 . S
C2184 C2193 1.390 . S
C2185 C2184 1.387 . S
C2185 C2187 1.387 . S
H2186 C2193 0.950 . S
C2187 C2185 1.387 . S
C2187 C2189 1.390 . S
C2187 H2191 0.950 . S
H2188 C2184 0.950 . S
C2189 C2187 1.390 . S
C2189 C2190 1.387 . S
C2189 H2192 0.950 . S
C2190 C2189 1.387 . S
C2190 C2193 1.387 . S
H2191 C2187 0.950 . S
H2192 C2189 0.950 . S
C2193 C2184 1.390 . S
C2193 H2186 0.950 . S
C2193 C2190 1.387 . S
C2194 C2195 1.387 1_556 S
C2194 H2198 0.950 . S
C2194 C2203 1.390 . S
C2195 C2194 1.387 1_554 S
C2195 C2197 1.387 . S
H2196 C2203 0.950 . S
C2197 C2195 1.387 . S
C2197 C2199 1.390 . S
C2197 H2201 0.950 . S
H2198 C2194 0.950 . S
C2199 C2197 1.390 . S
C2199 C2200 1.387 . S
C2199 H2202 0.950 . S
C2200 C2199 1.387 . S
C2200 C2203 1.387 1_554 S
H2201 C2197 0.950 . S
H2202 C2199 0.950 . S
C2203 C2194 1.390 . S
C2203 H2196 0.950 . S
C2203 C2200 1.387 1_556 S
C2204 C2205 1.387 . S
C2204 H2208 0.950 . S
C2204 C2213 1.390 . S
C2205 C2204 1.387 . S
C2205 C2207 1.387 . S
H2206 C2213 0.950 . S
C2207 C2205 1.387 . S
C2207 C2209 1.390 . S
C2207 H2211 0.950 . S
H2208 C2204 0.950 . S
C2209 C2207 1.390 . S
C2209 C2210 1.387 . S
C2209 H2212 0.950 . S
C2210 C2209 1.387 . S
C2210 C2213 1.387 . S
H2211 C2207 0.950 . S
H2212 C2209 0.950 . S
C2213 C2204 1.390 . S
C2213 H2206 0.950 . S
C2213 C2210 1.387 . S
C2214 C2215 1.387 . S
C2214 H2218 0.950 . S
C2214 C2223 1.390 . S
C2215 C2214 1.387 . S
C2215 C2217 1.387 . S
H2216 C2223 0.950 . S
C2217 C2215 1.387 . S
C2217 C2219 1.390 . S
C2217 H2221 0.950 . S
H2218 C2214 0.950 . S
C2219 C2217 1.390 . S
C2219 C2220 1.387 . S
C2219 H2222 0.950 . S
C2220 C2219 1.387 . S
C2220 C2223 1.387 . S
H2221 C2217 0.950 . S
H2222 C2219 0.950 . S
C2223 C2214 1.390 . S
C2223 H2216 0.950 . S
C2223 C2220 1.387 . S
C2224 C2225 1.387 . S
C2224 H2228 0.950 . S
C2224 C2233 1.390 . S
C2225 C2224 1.387 . S
C2225 C2227 1.387 . S
H2226 C2233 0.950 . S
C2227 C2225 1.387 . S
C2227 C2229 1.390 . S
C2227 H2231 0.950 . S
H2228 C2224 0.950 . S
C2229 C2227 1.390 . S
C2229 C2230 1.387 . S
C2229 H2232 0.950 . S
C2230 C2229 1.387 . S
C2230 C2233 1.387 . S
H2231 C2227 0.950 . S
H2232 C2229 0.950 . S
C2233 C2224 1.390 . S
C2233 H2226 0.950 . S
C2233 C2230 1.387 . S
C2234 C2235 1.387 . S
C2234 H2238 0.950 . S
C2234 C2243 1.390 . S
C2235 C2234 1.387 . S
C2235 C2237 1.387 . S
H2236 C2243 0.950 . S
C2237 C2235 1.387 . S
C2237 C2239 1.390 . S
C2237 H2241 0.950 . S
H2238 C2234 0.950 . S
C2239 C2237 1.390 . S
C2239 C2240 1.387 . S
C2239 H2242 0.950 . S
C2240 C2239 1.387 . S
C2240 C2243 1.387 . S
H2241 C2237 0.950 . S
H2242 C2239 0.950 . S
C2243 C2234 1.390 . S
C2243 H2236 0.950 . S
C2243 C2240 1.387 . S
C2244 C2245 1.387 . S
C2244 H2248 0.950 . S
C2244 C2253 1.390 . S
C2245 C2244 1.387 . S
C2245 C2247 1.387 1_565 S
H2246 C2253 0.950 . S
C2247 C2245 1.387 1_545 S
C2247 C2249 1.390 . S
C2247 H2251 0.950 . S
H2248 C2244 0.950 . S
C2249 C2247 1.390 . S
C2249 C2250 1.387 1_545 S
C2249 H2252 0.950 . S
C2250 C2249 1.387 1_565 S
C2250 C2253 1.387 . S
H2251 C2247 0.950 . S
H2252 C2249 0.950 . S
C2253 C2244 1.390 . S
C2253 H2246 0.950 . S
C2253 C2250 1.387 . S
C2254 C2255 1.387 . S
C2254 H2258 0.950 . S
C2254 C2263 1.390 . S
C2255 C2254 1.387 . S
C2255 C2257 1.387 . S
H2256 C2263 0.950 . S
C2257 C2255 1.387 . S
C2257 C2259 1.390 . S
C2257 H2261 0.950 . S
H2258 C2254 0.950 . S
C2259 C2257 1.390 . S
C2259 C2260 1.387 . S
C2259 H2262 0.950 . S
C2260 C2259 1.387 . S
C2260 C2263 1.387 . S
H2261 C2257 0.950 . S
H2262 C2259 0.950 . S
C2263 C2254 1.390 . S
C2263 H2256 0.950 . S
C2263 C2260 1.387 . S
C2264 C2265 1.387 . S
C2264 H2268 0.950 . S
C2264 C2273 1.390 . S
C2265 C2264 1.387 . S
C2265 C2267 1.387 . S
H2266 C2273 0.950 . S
C2267 C2265 1.387 . S
C2267 C2269 1.390 . S
C2267 H2271 0.950 . S
H2268 C2264 0.950 . S
C2269 C2267 1.390 . S
C2269 C2270 1.387 . S
C2269 H2272 0.950 . S
C2270 C2269 1.387 . S
C2270 C2273 1.387 . S
H2271 C2267 0.950 . S
H2272 C2269 0.950 . S
C2273 C2264 1.390 . S
C2273 H2266 0.950 . S
C2273 C2270 1.387 . S
C2274 C2275 1.387 . S
C2274 H2278 0.950 . S
C2274 C2283 1.390 . S
C2275 C2274 1.387 . S
C2275 C2277 1.387 . S
H2276 C2283 0.950 . S
C2277 C2275 1.387 . S
C2277 C2279 1.390 . S
C2277 H2281 0.950 . S
H2278 C2274 0.950 . S
C2279 C2277 1.390 . S
C2279 C2280 1.387 . S
C2279 H2282 0.950 . S
C2280 C2279 1.387 . S
C2280 C2283 1.387 . S
H2281 C2277 0.950 . S
H2282 C2279 0.950 . S
C2283 C2274 1.390 . S
C2283 H2276 0.950 . S
C2283 C2280 1.387 . S
C2284 C2285 1.387 1_565 S
C2284 H2288 0.950 . S
C2284 C2293 1.390 . S
C2285 C2284 1.387 1_545 S
C2285 C2287 1.387 . S
H2286 C2293 0.950 . S
C2287 C2285 1.387 . S
C2287 C2289 1.390 . S
C2287 H2291 0.950 . S
H2288 C2284 0.950 . S
C2289 C2287 1.390 . S
C2289 C2290 1.387 . S
C2289 H2292 0.950 . S
C2290 C2289 1.387 . S
C2290 C2293 1.387 1_545 S
H2291 C2287 0.950 . S
H2292 C2289 0.950 . S
C2293 C2284 1.390 . S
C2293 H2286 0.950 . S
C2293 C2290 1.387 1_565 S
C2294 C2295 1.387 1_545 S
C2294 H2298 0.950 . S
C2294 C2303 1.390 . S
C2295 C2294 1.387 1_565 S
C2295 C2297 1.387 . S
H2296 C2303 0.950 . S
C2297 C2295 1.387 . S
C2297 C2299 1.390 . S
C2297 H2301 0.950 . S
H2298 C2294 0.950 . S
C2299 C2297 1.390 . S
C2299 C2300 1.387 . S
C2299 H2302 0.950 . S
C2300 C2299 1.387 . S
C2300 C2303 1.387 1_565 S
H2301 C2297 0.950 . S
H2302 C2299 0.950 . S
C2303 C2294 1.390 . S
C2303 H2296 0.950 . S
C2303 C2300 1.387 1_545 S
C2304 C2305 1.387 . S
C2304 H2308 0.950 . S
C2304 C2313 1.390 . S
C2305 C2304 1.387 . S
C2305 C2307 1.387 . S
H2306 C2313 0.950 . S
C2307 C2305 1.387 . S
C2307 C2309 1.390 . S
C2307 H2311 0.950 . S
H2308 C2304 0.950 . S
C2309 C2307 1.390 . S
C2309 C2310 1.387 . S
C2309 H2312 0.950 . S
C2310 C2309 1.387 . S
C2310 C2313 1.387 . S
H2311 C2307 0.950 . S
H2312 C2309 0.950 . S
C2313 C2304 1.390 . S
C2313 H2306 0.950 . S
C2313 C2310 1.387 . S
C2314 C2315 1.387 . S
C2314 H2318 0.950 . S
C2314 C2323 1.390 . S
C2315 C2314 1.387 . S
C2315 C2317 1.387 . S
H2316 C2323 0.950 . S
C2317 C2315 1.387 . S
C2317 C2319 1.390 . S
C2317 H2321 0.950 . S
H2318 C2314 0.950 . S
C2319 C2317 1.390 . S
C2319 C2320 1.387 . S
C2319 H2322 0.950 . S
C2320 C2319 1.387 . S
C2320 C2323 1.387 . S
H2321 C2317 0.950 . S
H2322 C2319 0.950 . S
C2323 C2314 1.390 . S
C2323 H2316 0.950 . S
C2323 C2320 1.387 . S
C2324 C2325 1.387 . S
C2324 H2328 0.950 . S
C2324 C2333 1.390 . S
C2325 C2324 1.387 . S
C2325 C2327 1.387 . S
H2326 C2333 0.950 . S
C2327 C2325 1.387 . S
C2327 C2329 1.390 . S
C2327 H2331 0.950 . S
H2328 C2324 0.950 . S
C2329 C2327 1.390 . S
C2329 C2330 1.387 . S
C2329 H2332 0.950 . S
C2330 C2329 1.387 . S
C2330 C2333 1.387 . S
H2331 C2327 0.950 . S
H2332 C2329 0.950 . S
C2333 C2324 1.390 . S
C2333 H2326 0.950 . S
C2333 C2330 1.387 . S
C2334 C2335 1.387 . S
C2334 H2338 0.950 . S
C2334 C2343 1.390 . S
C2335 C2334 1.387 . S
C2335 C2337 1.387 . S
H2336 C2343 0.950 . S
C2337 C2335 1.387 . S
C2337 C2339 1.390 . S
C2337 H2341 0.950 . S
H2338 C2334 0.950 . S
C2339 C2337 1.390 . S
C2339 C2340 1.387 . S
C2339 H2342 0.950 . S
C2340 C2339 1.387 . S
C2340 C2343 1.387 . S
H2341 C2337 0.950 . S
H2342 C2339 0.950 . S
C2343 C2334 1.390 . S
C2343 H2336 0.950 . S
C2343 C2340 1.387 . S
C2344 C2345 1.387 . S
C2344 H2348 0.950 . S
C2344 C2353 1.390 . S
C2345 C2344 1.387 . S
C2345 C2347 1.387 . S
H2346 C2353 0.950 . S
C2347 C2345 1.387 . S
C2347 C2349 1.390 . S
C2347 H2351 0.950 . S
H2348 C2344 0.950 . S
C2349 C2347 1.390 . S
C2349 C2350 1.387 . S
C2349 H2352 0.950 . S
C2350 C2349 1.387 . S
C2350 C2353 1.387 . S
H2351 C2347 0.950 . S
H2352 C2349 0.950 . S
C2353 C2344 1.390 . S
C2353 H2346 0.950 . S
C2353 C2350 1.387 . S
C2354 C2355 1.387 . S
C2354 H2358 0.950 . S
C2354 C2363 1.390 . S
C2355 C2354 1.387 . S
C2355 C2357 1.387 . S
H2356 C2363 0.950 . S
C2357 C2355 1.387 . S
C2357 C2359 1.390 . S
C2357 H2361 0.950 . S
H2358 C2354 0.950 . S
C2359 C2357 1.390 . S
C2359 C2360 1.387 . S
C2359 H2362 0.950 . S
C2360 C2359 1.387 . S
C2360 C2363 1.387 . S
H2361 C2357 0.950 . S
H2362 C2359 0.950 . S
C2363 C2354 1.390 . S
C2363 H2356 0.950 . S
C2363 C2360 1.387 . S
C2364 C2365 1.387 . S
C2364 H2368 0.950 . S
C2364 C2373 1.390 . S
C2365 C2364 1.387 . S
C2365 C2367 1.387 . S
H2366 C2373 0.950 . S
C2367 C2365 1.387 . S
C2367 C2369 1.390 . S
C2367 H2371 0.950 . S
H2368 C2364 0.950 . S
C2369 C2367 1.390 . S
C2369 C2370 1.387 . S
C2369 H2372 0.950 . S
C2370 C2369 1.387 . S
C2370 C2373 1.387 . S
H2371 C2367 0.950 . S
H2372 C2369 0.950 . S
C2373 C2364 1.390 . S
C2373 H2366 0.950 . S
C2373 C2370 1.387 . S
C2374 C2375 1.387 . S
C2374 H2378 0.950 . S
C2374 C2383 1.390 . S
C2375 C2374 1.387 . S
C2375 C2377 1.387 . S
H2376 C2383 0.950 . S
C2377 C2375 1.387 . S
C2377 C2379 1.390 . S
C2377 H2381 0.950 . S
H2378 C2374 0.950 . S
C2379 C2377 1.390 . S
C2379 C2380 1.387 . S
C2379 H2382 0.950 . S
C2380 C2379 1.387 . S
C2380 C2383 1.387 . S
H2381 C2377 0.950 . S
H2382 C2379 0.950 . S
C2383 C2374 1.390 . S
C2383 H2376 0.950 . S
C2383 C2380 1.387 . S
C2384 C2385 1.387 . S
C2384 H2388 0.950 . S
C2384 C2393 1.390 . S
C2385 C2384 1.387 . S
C2385 C2387 1.387 . S
H2386 C2393 0.950 . S
C2387 C2385 1.387 . S
C2387 C2389 1.390 . S
C2387 H2391 0.950 . S
H2388 C2384 0.950 . S
C2389 C2387 1.390 . S
C2389 C2390 1.387 . S
C2389 H2392 0.950 . S
C2390 C2389 1.387 . S
C2390 C2393 1.387 . S
H2391 C2387 0.950 . S
H2392 C2389 0.950 . S
C2393 C2384 1.390 . S
C2393 H2386 0.950 . S
C2393 C2390 1.387 . S
C2394 C2395 1.387 . S
C2394 H2398 0.950 . S
C2394 C2403 1.390 . S
C2395 C2394 1.387 . S
C2395 C2397 1.387 . S
H2396 C2403 0.950 . S
C2397 C2395 1.387 . S
C2397 C2399 1.390 . S
C2397 H2401 0.950 . S
H2398 C2394 0.950 . S
C2399 C2397 1.390 . S
C2399 C2400 1.387 . S
C2399 H2402 0.950 . S
C2400 C2399 1.387 . S
C2400 C2403 1.387 . S
H2401 C2397 0.950 . S
H2402 C2399 0.950 . S
C2403 C2394 1.390 . S
C2403 H2396 0.950 . S
C2403 C2400 1.387 . S
C2404 C2405 1.387 . S
C2404 H2408 0.950 . S
C2404 C2413 1.390 . S
C2405 C2404 1.387 . S
C2405 C2407 1.387 . S
H2406 C2413 0.950 . S
C2407 C2405 1.387 . S
C2407 C2409 1.390 . S
C2407 H2411 0.950 . S
H2408 C2404 0.950 . S
C2409 C2407 1.390 . S
C2409 C2410 1.387 . S
C2409 H2412 0.950 . S
C2410 C2409 1.387 . S
C2410 C2413 1.387 . S
H2411 C2407 0.950 . S
H2412 C2409 0.950 . S
C2413 C2404 1.390 . S
C2413 H2406 0.950 . S
C2413 C2410 1.387 . S
C2414 C2415 1.387 . S
C2414 H2418 0.950 . S
C2414 C2423 1.390 . S
C2415 C2414 1.387 . S
C2415 C2417 1.387 . S
H2416 C2423 0.950 . S
C2417 C2415 1.387 . S
C2417 C2419 1.390 . S
C2417 H2421 0.950 . S
H2418 C2414 0.950 . S
C2419 C2417 1.390 . S
C2419 C2420 1.387 . S
C2419 H2422 0.950 . S
C2420 C2419 1.387 . S
C2420 C2423 1.387 . S
H2421 C2417 0.950 . S
H2422 C2419 0.950 . S
C2423 C2414 1.390 . S
C2423 H2416 0.950 . S
C2423 C2420 1.387 . S
C2424 C2425 1.387 . S
C2424 H2428 0.950 . S
C2424 C2433 1.390 . S
C2425 C2424 1.387 . S
C2425 C2427 1.387 . S
H2426 C2433 0.950 . S
C2427 C2425 1.387 . S
C2427 C2429 1.390 . S
C2427 H2431 0.950 . S
H2428 C2424 0.950 . S
C2429 C2427 1.390 . S
C2429 C2430 1.387 . S
C2429 H2432 0.950 . S
C2430 C2429 1.387 . S
C2430 C2433 1.387 . S
H2431 C2427 0.950 . S
H2432 C2429 0.950 . S
C2433 C2424 1.390 . S
C2433 H2426 0.950 . S
C2433 C2430 1.387 . S
C2434 C2435 1.387 . S
C2434 H2438 0.950 . S
C2434 C2443 1.390 . S
C2435 C2434 1.387 . S
C2435 C2437 1.387 . S
H2436 C2443 0.950 . S
C2437 C2435 1.387 . S
C2437 C2439 1.390 . S
C2437 H2441 0.950 . S
H2438 C2434 0.950 . S
C2439 C2437 1.390 . S
C2439 C2440 1.387 . S
C2439 H2442 0.950 . S
C2440 C2439 1.387 . S
C2440 C2443 1.387 . S
H2441 C2437 0.950 . S
H2442 C2439 0.950 . S
C2443 C2434 1.390 . S
C2443 H2436 0.950 . S
C2443 C2440 1.387 . S
C2444 C2445 1.387 . S
C2444 H2448 0.950 . S
C2444 C2453 1.390 . S
C2445 C2444 1.387 . S
C2445 C2447 1.387 . S
H2446 C2453 0.950 . S
C2447 C2445 1.387 . S
C2447 C2449 1.390 . S
C2447 H2451 0.950 . S
H2448 C2444 0.950 . S
C2449 C2447 1.390 . S
C2449 C2450 1.387 . S
C2449 H2452 0.950 . S
C2450 C2449 1.387 . S
C2450 C2453 1.387 . S
H2451 C2447 0.950 . S
H2452 C2449 0.950 . S
C2453 C2444 1.390 . S
C2453 H2446 0.950 . S
C2453 C2450 1.387 . S
C2454 C2455 1.387 . S
C2454 H2458 0.950 . S
C2454 C2463 1.390 . S
C2455 C2454 1.387 . S
C2455 C2457 1.387 . S
H2456 C2463 0.950 . S
C2457 C2455 1.387 . S
C2457 C2459 1.390 . S
C2457 H2461 0.950 . S
H2458 C2454 0.950 . S
C2459 C2457 1.390 . S
C2459 C2460 1.387 . S
C2459 H2462 0.950 . S
C2460 C2459 1.387 . S
C2460 C2463 1.387 . S
H2461 C2457 0.950 . S
H2462 C2459 0.950 . S
C2463 C2454 1.390 . S
C2463 H2456 0.950 . S
C2463 C2460 1.387 . S
C2464 C2465 1.387 . S
C2464 H2468 0.950 . S
C2464 C2473 1.390 . S
C2465 C2464 1.387 . S
C2465 C2467 1.387 . S
H2466 C2473 0.950 . S
C2467 C2465 1.387 . S
C2467 C2469 1.390 . S
C2467 H2471 0.950 . S
H2468 C2464 0.950 . S
C2469 C2467 1.390 . S
C2469 C2470 1.387 . S
C2469 H2472 0.950 . S
C2470 C2469 1.387 . S
C2470 C2473 1.387 . S
H2471 C2467 0.950 . S
H2472 C2469 0.950 . S
C2473 C2464 1.390 . S
C2473 H2466 0.950 . S
C2473 C2470 1.387 . S
C2474 C2475 1.387 . S
C2474 H2478 0.950 . S
C2474 C2483 1.390 . S
C2475 C2474 1.387 . S
C2475 C2477 1.387 . S
H2476 C2483 0.950 . S
C2477 C2475 1.387 . S
C2477 C2479 1.390 . S
C2477 H2481 0.950 . S
H2478 C2474 0.950 . S
C2479 C2477 1.390 . S
C2479 C2480 1.387 . S
C2479 H2482 0.950 . S
C2480 C2479 1.387 . S
C2480 C2483 1.387 . S
H2481 C2477 0.950 . S
H2482 C2479 0.950 . S
C2483 C2474 1.390 . S
C2483 H2476 0.950 . S
C2483 C2480 1.387 . S
C2484 C2485 1.387 . S
C2484 H2488 0.950 . S
C2484 C2493 1.390 . S
C2485 C2484 1.387 . S
C2485 C2487 1.387 . S
H2486 C2493 0.950 . S
C2487 C2485 1.387 . S
C2487 C2489 1.390 . S
C2487 H2491 0.950 . S
H2488 C2484 0.950 . S
C2489 C2487 1.390 . S
C2489 C2490 1.387 . S
C2489 H2492 0.950 . S
C2490 C2489 1.387 . S
C2490 C2493 1.387 . S
H2491 C2487 0.950 . S
H2492 C2489 0.950 . S
C2493 C2484 1.390 . S
C2493 H2486 0.950 . S
C2493 C2490 1.387 . S
C2494 C2495 1.387 . S
C2494 H2498 0.950 . S
C2494 C2503 1.390 . S
C2495 C2494 1.387 . S
C2495 C2497 1.387 . S
H2496 C2503 0.950 . S
C2497 C2495 1.387 . S
C2497 C2499 1.390 . S
C2497 H2501 0.950 . S
H2498 C2494 0.950 . S
C2499 C2497 1.390 . S
C2499 C2500 1.387 . S
C2499 H2502 0.950 . S
C2500 C2499 1.387 . S
C2500 C2503 1.387 . S
H2501 C2497 0.950 . S
H2502 C2499 0.950 . S
C2503 C2494 1.390 . S
C2503 H2496 0.950 . S
C2503 C2500 1.387 . S
C2504 C2505 1.387 . S
C2504 H2508 0.950 . S
C2504 C2513 1.390 . S
C2505 C2504 1.387 . S
C2505 C2507 1.387 . S
H2506 C2513 0.950 . S
C2507 C2505 1.387 . S
C2507 C2509 1.390 . S
C2507 H2511 0.950 . S
H2508 C2504 0.950 . S
C2509 C2507 1.390 . S
C2509 C2510 1.387 . S
C2509 H2512 0.950 . S
C2510 C2509 1.387 . S
C2510 C2513 1.387 . S
H2511 C2507 0.950 . S
H2512 C2509 0.950 . S
C2513 C2504 1.390 . S
C2513 H2506 0.950 . S
C2513 C2510 1.387 . S
C2514 C2515 1.387 . S
C2514 H2518 0.950 . S
C2514 C2523 1.390 . S
C2515 C2514 1.387 . S
C2515 C2517 1.387 . S
H2516 C2523 0.950 . S
C2517 C2515 1.387 . S
C2517 C2519 1.390 . S
C2517 H2521 0.950 . S
H2518 C2514 0.950 . S
C2519 C2517 1.390 . S
C2519 C2520 1.387 . S
C2519 H2522 0.950 . S
C2520 C2519 1.387 . S
C2520 C2523 1.387 . S
H2521 C2517 0.950 . S
H2522 C2519 0.950 . S
C2523 C2514 1.390 . S
C2523 H2516 0.950 . S
C2523 C2520 1.387 . S
C2524 C2525 1.387 . S
C2524 H2528 0.950 . S
C2524 C2533 1.390 . S
C2525 C2524 1.387 . S
C2525 C2527 1.387 . S
H2526 C2533 0.950 . S
C2527 C2525 1.387 . S
C2527 C2529 1.390 . S
C2527 H2531 0.950 . S
H2528 C2524 0.950 . S
C2529 C2527 1.390 . S
C2529 C2530 1.387 . S
C2529 H2532 0.950 . S
C2530 C2529 1.387 . S
C2530 C2533 1.387 . S
H2531 C2527 0.950 . S
H2532 C2529 0.950 . S
C2533 C2524 1.390 . S
C2533 H2526 0.950 . S
C2533 C2530 1.387 . S
C2534 C2535 1.387 . S
C2534 H2538 0.950 . S
C2534 C2543 1.390 . S
C2535 C2534 1.387 . S
C2535 C2537 1.387 . S
H2536 C2543 0.950 . S
C2537 C2535 1.387 . S
C2537 C2539 1.390 . S
C2537 H2541 0.950 . S
H2538 C2534 0.950 . S
C2539 C2537 1.390 . S
C2539 C2540 1.387 . S
C2539 H2542 0.950 . S
C2540 C2539 1.387 . S
C2540 C2543 1.387 . S
H2541 C2537 0.950 . S
H2542 C2539 0.950 . S
C2543 C2534 1.390 . S
C2543 H2536 0.950 . S
C2543 C2540 1.387 . S
C2544 C2545 1.387 . S
C2544 H2548 0.950 . S
C2544 C2553 1.390 1_655 S
C2545 C2544 1.387 . S
C2545 C2547 1.387 . S
H2546 C2553 0.950 . S
C2547 C2545 1.387 . S
C2547 C2549 1.390 1_655 S
C2547 H2551 0.950 . S
H2548 C2544 0.950 . S
C2549 C2547 1.390 1_455 S
C2549 C2550 1.387 . S
C2549 H2552 0.950 . S
C2550 C2549 1.387 . S
C2550 C2553 1.387 . S
H2551 C2547 0.950 . S
H2552 C2549 0.950 . S
C2553 C2544 1.390 1_455 S
C2553 H2546 0.950 . S
C2553 C2550 1.387 . S
C2554 C2555 1.387 . S
C2554 H2558 0.950 . S
C2554 C2563 1.390 1_455 S
C2555 C2554 1.387 . S
C2555 C2557 1.387 . S
H2556 C2563 0.950 . S
C2557 C2555 1.387 . S
C2557 C2559 1.390 1_455 S
C2557 H2561 0.950 . S
H2558 C2554 0.950 . S
C2559 C2557 1.390 1_655 S
C2559 C2560 1.387 . S
C2559 H2562 0.950 . S
C2560 C2559 1.387 . S
C2560 C2563 1.387 . S
H2561 C2557 0.950 . S
H2562 C2559 0.950 . S
C2563 C2554 1.390 1_655 S
C2563 H2556 0.950 . S
C2563 C2560 1.387 . S
C2564 C2565 1.387 . S
C2564 H2568 0.950 . S
C2564 C2573 1.390 . S
C2565 C2564 1.387 . S
C2565 C2567 1.387 . S
H2566 C2573 0.950 . S
C2567 C2565 1.387 . S
C2567 C2569 1.390 . S
C2567 H2571 0.950 . S
H2568 C2564 0.950 . S
C2569 C2567 1.390 . S
C2569 C2570 1.387 . S
C2569 H2572 0.950 . S
C2570 C2569 1.387 . S
C2570 C2573 1.387 . S
H2571 C2567 0.950 . S
H2572 C2569 0.950 . S
C2573 C2564 1.390 . S
C2573 H2566 0.950 . S
C2573 C2570 1.387 . S
C2574 C2575 1.387 . S
C2574 H2578 0.950 . S
C2574 C2583 1.390 . S
C2575 C2574 1.387 . S
C2575 C2577 1.387 . S
H2576 C2583 0.950 . S
C2577 C2575 1.387 . S
C2577 C2579 1.390 . S
C2577 H2581 0.950 . S
H2578 C2574 0.950 . S
C2579 C2577 1.390 . S
C2579 C2580 1.387 . S
C2579 H2582 0.950 . S
C2580 C2579 1.387 . S
C2580 C2583 1.387 . S
H2581 C2577 0.950 . S
H2582 C2579 0.950 . S
C2583 C2574 1.390 . S
C2583 H2576 0.950 . S
C2583 C2580 1.387 . S
C2584 C2585 1.387 . S
C2584 H2588 0.950 . S
C2584 C2593 1.390 1_655 S
C2585 C2584 1.387 . S
C2585 C2587 1.387 . S
H2586 C2593 0.950 . S
C2587 C2585 1.387 . S
C2587 C2589 1.390 1_655 S
C2587 H2591 0.950 . S
H2588 C2584 0.950 . S
C2589 C2587 1.390 1_455 S
C2589 C2590 1.387 . S
C2589 H2592 0.950 . S
C2590 C2589 1.387 . S
C2590 C2593 1.387 . S
H2591 C2587 0.950 . S
H2592 C2589 0.950 . S
C2593 C2584 1.390 1_455 S
C2593 H2586 0.950 . S
C2593 C2590 1.387 . S
C2594 C2595 1.387 . S
C2594 H2598 0.950 . S
C2594 C2603 1.390 . S
C2595 C2594 1.387 . S
C2595 C2597 1.387 . S
H2596 C2603 0.950 . S
C2597 C2595 1.387 . S
C2597 C2599 1.390 . S
C2597 H2601 0.950 . S
H2598 C2594 0.950 . S
C2599 C2597 1.390 . S
C2599 C2600 1.387 . S
C2599 H2602 0.950 . S
C2600 C2599 1.387 . S
C2600 C2603 1.387 . S
H2601 C2597 0.950 . S
H2602 C2599 0.950 . S
C2603 C2594 1.390 . S
C2603 H2596 0.950 . S
C2603 C2600 1.387 . S
C2604 C2605 1.387 . S
C2604 H2608 0.950 . S
C2604 C2613 1.390 . S
C2605 C2604 1.387 . S
C2605 C2607 1.387 . S
H2606 C2613 0.950 . S
C2607 C2605 1.387 . S
C2607 C2609 1.390 . S
C2607 H2611 0.950 . S
H2608 C2604 0.950 . S
C2609 C2607 1.390 . S
C2609 C2610 1.387 . S
C2609 H2612 0.950 . S
C2610 C2609 1.387 . S
C2610 C2613 1.387 . S
H2611 C2607 0.950 . S
H2612 C2609 0.950 . S
C2613 C2604 1.390 . S
C2613 H2606 0.950 . S
C2613 C2610 1.387 . S
C2614 C2615 1.387 . S
C2614 H2618 0.950 . S
C2614 C2623 1.390 1_455 S
C2615 C2614 1.387 . S
C2615 C2617 1.387 . S
H2616 C2623 0.950 . S
C2617 C2615 1.387 . S
C2617 C2619 1.390 1_455 S
C2617 H2621 0.950 . S
H2618 C2614 0.950 . S
C2619 C2617 1.390 1_655 S
C2619 C2620 1.387 . S
C2619 H2622 0.950 . S
C2620 C2619 1.387 . S
C2620 C2623 1.387 . S
H2621 C2617 0.950 . S
H2622 C2619 0.950 . S
C2623 C2614 1.390 1_655 S
C2623 H2616 0.950 . S
C2623 C2620 1.387 . S
C2624 C2625 1.387 . S
C2624 H2628 0.950 . S
C2624 C2633 1.390 1_545 S
C2625 C2624 1.387 . S
C2625 C2627 1.387 . S
H2626 C2633 0.950 . S
C2627 C2625 1.387 . S
C2627 C2629 1.390 1_545 S
C2627 H2631 0.950 . S
H2628 C2624 0.950 . S
C2629 C2627 1.390 1_565 S
C2629 C2630 1.387 . S
C2629 H2632 0.950 . S
C2630 C2629 1.387 . S
C2630 C2633 1.387 . S
H2631 C2627 0.950 . S
H2632 C2629 0.950 . S
C2633 C2624 1.390 1_565 S
C2633 H2626 0.950 . S
C2633 C2630 1.387 . S
C2634 C2635 1.387 . S
C2634 H2638 0.950 . S
C2634 C2643 1.390 . S
C2635 C2634 1.387 . S
C2635 C2637 1.387 . S
H2636 C2643 0.950 . S
C2637 C2635 1.387 . S
C2637 C2639 1.390 . S
C2637 H2641 0.950 . S
H2638 C2634 0.950 . S
C2639 C2637 1.390 . S
C2639 C2640 1.387 . S
C2639 H2642 0.950 . S
C2640 C2639 1.387 . S
C2640 C2643 1.387 . S
H2641 C2637 0.950 . S
H2642 C2639 0.950 . S
C2643 C2634 1.390 . S
C2643 H2636 0.950 . S
C2643 C2640 1.387 . S
C2644 C2645 1.387 . S
C2644 H2648 0.950 . S
C2644 C2653 1.390 1_565 S
C2645 C2644 1.387 . S
C2645 C2647 1.387 . S
H2646 C2653 0.950 . S
C2647 C2645 1.387 . S
C2647 C2649 1.390 1_565 S
C2647 H2651 0.950 . S
H2648 C2644 0.950 . S
C2649 C2647 1.390 1_545 S
C2649 C2650 1.387 . S
C2649 H2652 0.950 . S
C2650 C2649 1.387 . S
C2650 C2653 1.387 . S
H2651 C2647 0.950 . S
H2652 C2649 0.950 . S
C2653 C2644 1.390 1_545 S
C2653 H2646 0.950 . S
C2653 C2650 1.387 . S
C2654 C2655 1.387 . S
C2654 H2658 0.950 . S
C2654 C2663 1.390 1_556 S
C2655 C2654 1.387 . S
C2655 C2657 1.387 . S
H2656 C2663 0.950 . S
C2657 C2655 1.387 . S
C2657 C2659 1.390 1_556 S
C2657 H2661 0.950 . S
H2658 C2654 0.950 . S
C2659 C2657 1.390 1_554 S
C2659 C2660 1.387 . S
C2659 H2662 0.950 . S
C2660 C2659 1.387 . S
C2660 C2663 1.387 . S
H2661 C2657 0.950 . S
H2662 C2659 0.950 . S
C2663 C2654 1.390 1_554 S
C2663 H2656 0.950 . S
C2663 C2660 1.387 . S
C2664 C2665 1.387 . S
C2664 H2668 0.950 . S
C2664 C2673 1.390 1_556 S
C2665 C2664 1.387 . S
C2665 C2667 1.387 . S
H2666 C2673 0.950 . S
C2667 C2665 1.387 . S
C2667 C2669 1.390 1_556 S
C2667 H2671 0.950 . S
H2668 C2664 0.950 . S
C2669 C2667 1.390 1_554 S
C2669 C2670 1.387 . S
C2669 H2672 0.950 . S
C2670 C2669 1.387 . S
C2670 C2673 1.387 . S
H2671 C2667 0.950 . S
H2672 C2669 0.950 . S
C2673 C2664 1.390 1_554 S
C2673 H2666 0.950 . S
C2673 C2670 1.387 . S
C2674 C2675 1.387 . S
C2674 H2678 0.950 . S
C2674 C2683 1.390 1_554 S
C2675 C2674 1.387 . S
C2675 C2677 1.387 . S
H2676 C2683 0.950 . S
C2677 C2675 1.387 . S
C2677 C2679 1.390 1_554 S
C2677 H2681 0.950 . S
H2678 C2674 0.950 . S
C2679 C2677 1.390 1_556 S
C2679 C2680 1.387 . S
C2679 H2682 0.950 . S
C2680 C2679 1.387 . S
C2680 C2683 1.387 . S
H2681 C2677 0.950 . S
H2682 C2679 0.950 . S
C2683 C2674 1.390 1_556 S
C2683 H2676 0.950 . S
C2683 C2680 1.387 . S
C2684 C2685 1.387 . S
C2684 H2688 0.950 . S
C2684 C2693 1.390 . S
C2685 C2684 1.387 . S
C2685 C2687 1.387 . S
H2686 C2693 0.950 . S
C2687 C2685 1.387 . S
C2687 C2689 1.390 . S
C2687 H2691 0.950 . S
H2688 C2684 0.950 . S
C2689 C2687 1.390 . S
C2689 C2690 1.387 . S
C2689 H2692 0.950 . S
C2690 C2689 1.387 . S
C2690 C2693 1.387 . S
H2691 C2687 0.950 . S
H2692 C2689 0.950 . S
C2693 C2684 1.390 . S
C2693 H2686 0.950 . S
C2693 C2690 1.387 . S
C2694 C2695 1.387 . S
C2694 H2698 0.950 . S
C2694 C2703 1.390 . S
C2695 C2694 1.387 . S
C2695 C2697 1.387 . S
H2696 C2703 0.950 . S
C2697 C2695 1.387 . S
C2697 C2699 1.390 . S
C2697 H2701 0.950 . S
H2698 C2694 0.950 . S
C2699 C2697 1.390 . S
C2699 C2700 1.387 . S
C2699 H2702 0.950 . S
C2700 C2699 1.387 . S
C2700 C2703 1.387 . S
H2701 C2697 0.950 . S
H2702 C2699 0.950 . S
C2703 C2694 1.390 . S
C2703 H2696 0.950 . S
C2703 C2700 1.387 . S
C2704 C2705 1.387 . S
C2704 H2708 0.950 . S
C2704 C2713 1.390 1_545 S
C2705 C2704 1.387 . S
C2705 C2707 1.387 . S
H2706 C2713 0.950 . S
C2707 C2705 1.387 . S
C2707 C2709 1.390 1_545 S
C2707 H2711 0.950 . S
H2708 C2704 0.950 . S
C2709 C2707 1.390 1_565 S
C2709 C2710 1.387 . S
C2709 H2712 0.950 . S
C2710 C2709 1.387 . S
C2710 C2713 1.387 . S
H2711 C2707 0.950 . S
H2712 C2709 0.950 . S
C2713 C2704 1.390 1_565 S
C2713 H2706 0.950 . S
C2713 C2710 1.387 . S
C2714 C2715 1.387 . S
C2714 H2718 0.950 . S
C2714 C2723 1.390 . S
C2715 C2714 1.387 . S
C2715 C2717 1.387 . S
H2716 C2723 0.950 . S
C2717 C2715 1.387 . S
C2717 C2719 1.390 . S
C2717 H2721 0.950 . S
H2718 C2714 0.950 . S
C2719 C2717 1.390 . S
C2719 C2720 1.387 . S
C2719 H2722 0.950 . S
C2720 C2719 1.387 . S
C2720 C2723 1.387 . S
H2721 C2717 0.950 . S
H2722 C2719 0.950 . S
C2723 C2714 1.390 . S
C2723 H2716 0.950 . S
C2723 C2720 1.387 . S
C2724 C2725 1.387 . S
C2724 H2728 0.950 . S
C2724 C2733 1.390 . S
C2725 C2724 1.387 . S
C2725 C2727 1.387 . S
H2726 C2733 0.950 . S
C2727 C2725 1.387 . S
C2727 C2729 1.390 . S
C2727 H2731 0.950 . S
H2728 C2724 0.950 . S
C2729 C2727 1.390 . S
C2729 C2730 1.387 . S
C2729 H2732 0.950 . S
C2730 C2729 1.387 . S
C2730 C2733 1.387 . S
H2731 C2727 0.950 . S
H2732 C2729 0.950 . S
C2733 C2724 1.390 . S
C2733 H2726 0.950 . S
C2733 C2730 1.387 . S
C2734 C2735 1.387 . S
C2734 H2738 0.950 . S
C2734 C2743 1.390 . S
C2735 C2734 1.387 . S
C2735 C2737 1.387 . S
H2736 C2743 0.950 . S
C2737 C2735 1.387 . S
C2737 C2739 1.390 . S
C2737 H2741 0.950 . S
H2738 C2734 0.950 . S
C2739 C2737 1.390 . S
C2739 C2740 1.387 . S
C2739 H2742 0.950 . S
C2740 C2739 1.387 . S
C2740 C2743 1.387 . S
H2741 C2737 0.950 . S
H2742 C2739 0.950 . S
C2743 C2734 1.390 . S
C2743 H2736 0.950 . S
C2743 C2740 1.387 . S
C2744 C2745 1.387 . S
C2744 H2748 0.950 . S
C2744 C2753 1.390 1_554 S
C2745 C2744 1.387 . S
C2745 C2747 1.387 . S
H2746 C2753 0.950 . S
C2747 C2745 1.387 . S
C2747 C2749 1.390 1_554 S
C2747 H2751 0.950 . S
H2748 C2744 0.950 . S
C2749 C2747 1.390 1_556 S
C2749 C2750 1.387 . S
C2749 H2752 0.950 . S
C2750 C2749 1.387 . S
C2750 C2753 1.387 . S
H2751 C2747 0.950 . S
H2752 C2749 0.950 . S
C2753 C2744 1.390 1_556 S
C2753 H2746 0.950 . S
C2753 C2750 1.387 . S
C2754 C2755 1.387 . S
C2754 H2758 0.950 . S
C2754 C2763 1.390 . S
C2755 C2754 1.387 . S
C2755 C2757 1.387 . S
H2756 C2763 0.950 . S
C2757 C2755 1.387 . S
C2757 C2759 1.390 . S
C2757 H2761 0.950 . S
H2758 C2754 0.950 . S
C2759 C2757 1.390 . S
C2759 C2760 1.387 . S
C2759 H2762 0.950 . S
C2760 C2759 1.387 . S
C2760 C2763 1.387 . S
H2761 C2757 0.950 . S
H2762 C2759 0.950 . S
C2763 C2754 1.390 . S
C2763 H2756 0.950 . S
C2763 C2760 1.387 . S
C2764 C2765 1.387 . S
C2764 H2768 0.950 . S
C2764 C2773 1.390 . S
C2765 C2764 1.387 . S
C2765 C2767 1.387 . S
H2766 C2773 0.950 . S
C2767 C2765 1.387 . S
C2767 C2769 1.390 . S
C2767 H2771 0.950 . S
H2768 C2764 0.950 . S
C2769 C2767 1.390 . S
C2769 C2770 1.387 . S
C2769 H2772 0.950 . S
C2770 C2769 1.387 . S
C2770 C2773 1.387 . S
H2771 C2767 0.950 . S
H2772 C2769 0.950 . S
C2773 C2764 1.390 . S
C2773 H2766 0.950 . S
C2773 C2770 1.387 . S
C2774 C2775 1.387 . S
C2774 H2778 0.950 . S
C2774 C2783 1.390 1_565 S
C2775 C2774 1.387 . S
C2775 C2777 1.387 . S
H2776 C2783 0.950 . S
C2777 C2775 1.387 . S
C2777 C2779 1.390 1_565 S
C2777 H2781 0.950 . S
H2778 C2774 0.950 . S
C2779 C2777 1.390 1_545 S
C2779 C2780 1.387 . S
C2779 H2782 0.950 . S
C2780 C2779 1.387 . S
C2780 C2783 1.387 . S
H2781 C2777 0.950 . S
H2782 C2779 0.950 . S
C2783 C2774 1.390 1_545 S
C2783 H2776 0.950 . S
C2783 C2780 1.387 . S
C1585 C7 2.112 . S
C1590 C667 2.112 1_455 S
C1595 C1360 2.112 . S
C1600 C40 2.112 . S
C1605 C1393 2.112 . S
C1610 C73 2.112 . S
C1615 C106 2.112 1_556 S
C1620 C1426 2.112 . S
C1625 C139 2.112 . S
C1630 C1558 2.112 1_455 S
C1635 C700 2.112 . S
C1640 C172 2.112 . S
C1645 C205 2.112 . S
C1650 C1525 2.112 . S
C1655 C238 2.112 1_554 S
C1660 C535 2.112 . S
C1665 C271 2.112 . S
C1670 C502 2.112 1_545 S
C1675 C304 2.112 1_565 S
C1680 C403 2.112 . S
C1685 C436 2.112 1_565 S
C1690 C337 2.112 . S
C1695 C469 2.112 . S
C1700 C370 2.112 1_545 S
C1705 C832 2.112 1_556 S
C1710 C568 2.112 . S
C1715 C601 2.112 1_655 S
C1720 C865 2.112 . S
C1725 C898 2.112 . S
C1730 C634 2.112 . S
C1735 C733 2.112 1_655 S
C1740 C997 2.112 . S
C1745 C766 2.112 . S
C1750 C931 2.112 . S
C1755 C1459 2.112 . S
C1760 C799 2.112 . S
C1765 C1492 2.112 . S
C1770 C964 2.112 1_554 S
C1775 C1030 2.112 . S
C1780 C1327 2.112 . S
C1785 C1294 2.112 . S
C1790 C1063 2.112 . S
C1795 C1195 2.112 . S
C1800 C1096 2.112 . S
C1805 C1129 2.112 . S
C1810 C1228 2.112 . S
C1815 C1162 2.112 . S
C1820 C1261 2.112 . S
C1825 N541 1.526 . S
C1830 C18 1.334 . S
C1835 N1564 1.526 . S
C1840 C51 1.332 . S
C1845 N706 1.526 . S
C1850 C84 1.334 . S
C1855 C117 1.333 1_556 S
C1860 N1531 1.526 . S
C1865 N1366 1.526 . S
C1870 C150 1.334 . S
C1875 C183 1.333 . S
C1880 N1399 1.526 . S
C1885 N1432 1.525 . S
C1890 C216 1.330 . S
C1895 C249 1.334 1_554 S
C1900 N673 1.526 . S
C1905 C282 1.335 . S
C1910 N13 1.526 . S
C1915 N46 1.526 . S
C1920 C315 1.332 1_565 S
C1925 N79 1.526 . S
C1930 C348 1.330 . S
C1935 N112 1.526 . S
C1940 C381 1.334 1_545 S
C1945 C414 1.335 . S
C1950 N145 1.526 . S
C1955 C447 1.332 1_565 S
C1960 N178 1.526 . S
C1965 C480 1.335 . S
C1970 N211 1.526 . S
C1975 C513 1.331 1_545 S
C1980 N244 1.526 . S
C1985 N277 1.526 . S
C1990 C546 1.331 . S
C1995 C579 1.335 . S
C2000 N1201 1.526 . S
C2005 C612 1.330 1_655 S
C2010 N1234 1.526 . S
C2015 N1267 1.526 . S
C2020 C645 1.336 . S
C2025 C678 1.335 1_455 S
C2030 N508 1.526 . S
C2035 C711 1.330 . S
C2040 N343 1.525 . S
C2045 N1168 1.526 . S
C2050 C744 1.331 1_655 S
C2055 C777 1.330 . S
C2060 N1102 1.526 . S
C2065 C810 1.330 . S
C2070 N1333 1.526 . S
C2075 C843 1.333 1_556 S
C2080 N772 1.526 . S
C2085 C876 1.334 . S
C2090 N1498 1.526 . S
C2095 C909 1.332 . S
C2100 N739 1.525 . S
C2105 N574 1.526 . S
C2110 C942 1.331 . S
C2115 C975 1.330 1_554 S
C2120 N607 1.525 . S
C2125 C1008 1.331 . S
C2130 N640 1.526 . S
C2135 C1041 1.334 . S
C2140 N1465 1.526 . S
C2145 N805 1.525 . S
C2150 C1074 1.330 . S
C2155 C1107 1.334 . S
C2160 N838 1.526 . S
C2165 N871 1.526 . S
C2170 C1140 1.335 . S
C2175 N904 1.526 . S
C2180 C1173 1.334 . S
C2185 N937 1.526 . S
C2190 C1206 1.335 . S
C2195 N970 1.526 . S
C2200 C1239 1.331 . S
C2205 C1272 1.334 . S
C2210 N1003 1.526 . S
C2215 C1305 1.334 . S
C2220 N1036 1.526 . S
C2225 N1069 1.525 . S
C2230 C1338 1.330 . S
C2235 C1371 1.335 . S
C2240 N409 1.526 . S
C2245 C1404 1.335 . S
C2250 N442 1.526 . S
C2255 C1437 1.330 . S
C2260 N475 1.525 . S
C2265 N1300 1.526 . S
C2270 C1470 1.335 . S
C2275 N1135 1.526 . S
C2280 C1503 1.334 . S
C2285 N376 1.525 . S
C2290 C1536 1.330 . S
C2295 C1569 1.330 1_455 S
C2300 N310 1.526 . S
C2305 C318 1.457 . S
C2310 C21 1.457 . S
C2315 C351 1.456 . S
C2320 C54 1.459 . S
C2325 C87 1.456 . S
C2330 C384 1.459 . S
C2335 C120 1.456 . S
C2340 C285 1.459 . S
C2345 C153 1.457 . S
C2350 C516 1.458 . S
C2355 C417 1.458 . S
C2360 C186 1.456 . S
C2365 C450 1.458 . S
C2370 C219 1.456 . S
C2375 C252 1.456 . S
C2380 C483 1.459 . S
C2385 C549 1.458 . S
C2390 C615 1.456 . S
C2395 C1539 1.456 . S
C2400 C582 1.459 . S
C2405 C1572 1.459 . S
C2410 C648 1.456 . S
C2415 C1506 1.457 . S
C2420 C681 1.458 . S
C2425 C714 1.459 . S
C2430 C1473 1.456 . S
C2435 C1374 1.456 . S
C2440 C747 1.459 . S
C2445 C1440 1.456 . S
C2450 C780 1.458 . S
C2455 C1110 1.456 . S
C2460 C813 1.459 . S
C2465 C1143 1.456 . S
C2470 C846 1.459 . S
C2475 C879 1.456 . S
C2480 C1176 1.458 . S
C2485 C1077 1.456 . S
C2490 C912 1.459 . S
C2495 C1308 1.459 . S
C2500 C945 1.456 . S
C2505 C978 1.456 . S
C2510 C1209 1.459 . S
C2515 C1242 1.458 . S
C2520 C1011 1.457 . S
C2525 C1044 1.456 . S
C2530 C1275 1.459 . S
C2535 C1341 1.459 . S
C2540 C1407 1.456 . S
C2545 N860 1.458 . S
C2550 N2 1.458 . S
C2555 N35 1.458 . S
C2560 N893 1.458 . S
C2565 N794 1.458 . S
C2570 N68 1.458 . S
C2575 N827 1.458 . S
C2580 N101 1.458 . S
C2585 N992 1.455 . S
C2590 N134 1.455 . S
C2595 N1025 1.458 . S
C2600 N167 1.458 . S
C2605 N926 1.458 . S
C2610 N200 1.458 . S
C2615 N233 1.458 . S
C2620 N959 1.458 . S
C2625 N266 1.458 . S
C2630 N398 1.458 . S
C2635 N299 1.458 . S
C2640 N431 1.458 . S
C2645 N332 1.455 . S
C2650 N464 1.455 . S
C2655 N365 1.455 . S
C2660 N497 1.455 . S
C2665 N1421 1.455 . S
C2670 N530 1.455 . S
C2675 N1487 1.455 . S
C2680 N563 1.455 . S
C2685 N596 1.455 . S
C2690 N728 1.455 . S
C2695 N1322 1.455 . S
C2700 N629 1.455 . S
C2705 N662 1.455 . S
C2710 N1553 1.455 . S
C2715 N695 1.455 . S
C2720 N1355 1.455 . S
C2725 N761 1.455 . S
C2730 N1454 1.455 . S
C2735 N1058 1.458 . S
C2740 N1190 1.458 . S
C2745 N1223 1.455 . S
C2750 N1091 1.455 . S
C2755 N1256 1.455 . S
C2760 N1124 1.455 . S
C2765 N1157 1.455 . S
C2770 N1289 1.455 . S
C2775 N1388 1.458 . S
C2780 N1520 1.458 . S
