# Generated by pormake.
# Topology ftb, (5)-cn, num edge types: 1
# Building blocks:
#     Node 0, Type 0, BuildingBlock: BEQFEK_clean_sbu_0, # of connection points: 5
#     Node 1, Type 0, BuildingBlock: BEQFEK_clean_sbu_0, # of connection points: 5
#     Node 2, Type 0, BuildingBlock: BEQFEK_clean_sbu_0, # of connection points: 5
#     Node 3, Type 0, BuildingBlock: BEQFEK_clean_sbu_0, # of connection points: 5
#     Node 4, Type 0, BuildingBlock: BEQFEK_clean_sbu_0, # of connection points: 5
#     Node 5, Type 0, BuildingBlock: BEQFEK_clean_sbu_0, # of connection points: 5
#     Node 6, Type 0, BuildingBlock: BEQFEK_clean_sbu_0, # of connection points: 5
#     Node 7, Type 0, BuildingBlock: BEQFEK_clean_sbu_0, # of connection points: 5
#     Edge 8, Type (0, 0), BuildingBlock: UVAHIK_clean_linker_0, # of connection points: 2
#     Edge 9, Type (0, 0), BuildingBlock: UVAHIK_clean_linker_0, # of connection points: 2
#     Edge 10, Type (0, 0), BuildingBlock: UVAHIK_clean_linker_0, # of connection points: 2
#     Edge 11, Type (0, 0), BuildingBlock: UVAHIK_clean_linker_0, # of connection points: 2
#     Edge 12, Type (0, 0), BuildingBlock: UVAHIK_clean_linker_0, # of connection points: 2
#     Edge 13, Type (0, 0), BuildingBlock: UVAHIK_clean_linker_0, # of connection points: 2
#     Edge 14, Type (0, 0), BuildingBlock: UVAHIK_clean_linker_0, # of connection points: 2
#     Edge 15, Type (0, 0), BuildingBlock: UVAHIK_clean_linker_0, # of connection points: 2
#     Edge 16, Type (0, 0), BuildingBlock: UVAHIK_clean_linker_0, # of connection points: 2
#     Edge 17, Type (0, 0), BuildingBlock: UVAHIK_clean_linker_0, # of connection points: 2
#     Edge 18, Type (0, 0), BuildingBlock: UVAHIK_clean_linker_0, # of connection points: 2
#     Edge 19, Type (0, 0), BuildingBlock: UVAHIK_clean_linker_0, # of connection points: 2
#     Edge 20, Type (0, 0), BuildingBlock: UVAHIK_clean_linker_0, # of connection points: 2
#     Edge 21, Type (0, 0), BuildingBlock: UVAHIK_clean_linker_0, # of connection points: 2
#     Edge 22, Type (0, 0), BuildingBlock: UVAHIK_clean_linker_0, # of connection points: 2
#     Edge 23, Type (0, 0), BuildingBlock: UVAHIK_clean_linker_0, # of connection points: 2
#     Edge 24, Type (0, 0), BuildingBlock: UVAHIK_clean_linker_0, # of connection points: 2
#     Edge 25, Type (0, 0), BuildingBlock: UVAHIK_clean_linker_0, # of connection points: 2
#     Edge 26, Type (0, 0), BuildingBlock: UVAHIK_clean_linker_0, # of connection points: 2
#     Edge 27, Type (0, 0), BuildingBlock: UVAHIK_clean_linker_0, # of connection points: 2
# Relax obj value: 0.145
# Max RMSD: 0.206
# Mean RMSD: 0.206
data_MOF--net-ftb--node1-BEQFEK_clean_sbu_0--edge1-UVAHIK_clean_linker_0
_symmetry_space_group_name_H-M    P1
_symmetry_Int_Tables_number       1
_symmetry_cell_setting            triclinic
loop_
_symmetry_equiv_pos_as_xyz
'x, y, z'
_cell_length_a     71.01345
_cell_length_b     19.511648
_cell_length_c     43.648756
_cell_angle_alpha  89.991557
_cell_angle_beta   93.220254
_cell_angle_gamma 89.964897
loop_
_atom_site_label
_atom_site_type_symbol
_atom_site_fract_x
_atom_site_fract_y
_atom_site_fract_z
_atom_type_partial_charge
Co0 Co 0.34696 0.1023 0.06487 0.0
Co1 Co 0.35255 0.02149 0.00393 0.0
C2 C 0.34315 0.94666 0.05904 0.0
O3 O 0.34248 0.00379 0.07311 0.0
O4 O 0.34744 0.94347 0.0311 0.0
C5 C 0.35573 0.12296 0.12847 0.0
O6 O 0.36408 0.06327 0.12591 0.0
C7 C 0.35643 0.93304 0.94933 0.0
C8 C 0.36848 0.0075 0.91768 0.0
C9 C 0.36271 0.93994 0.91982 0.0
N10 N 0.35881 0.99346 0.96391 0.0
N11 N 0.36583 0.03775 0.94472 0.0
C12 C 0.34646 0.87321 0.96247 0.0
H13 H 0.33617 0.89115 0.97888 0.0
H14 H 0.35695 0.83983 0.975 0.0
H15 H 0.33892 0.84287 0.94413 0.0
C16 C 0.38585 0.14583 0.05494 0.0
N17 N 0.36974 0.11381 0.04568 0.0
N18 N 0.37276 0.07519 0.02175 0.0
C19 C 0.39123 0.07855 0.01615 0.0
C20 C 0.39998 0.12437 0.03663 0.0
C21 C 0.3883 0.18948 0.08305 0.0
H22 H 0.37533 0.21971 0.08621 0.0
H23 H 0.39114 0.15607 0.10334 0.0
H24 H 0.40044 0.22484 0.0814 0.0
O25 O 0.32572 0.13756 0.03903 0.0
O26 O 0.32855 0.07404 0.99735 0.0
H27 H 0.40117 0.05942 0.97168 0.0
H28 H 0.41557 0.02224 0.00223 0.0
C29 C 0.40079 0.03306 0.99414 0.0
H30 H 0.39304 0.98402 0.99101 0.0
H31 H 0.36859 0.08906 0.95001 0.0
O32 O 0.34752 0.15008 0.10484 0.0
C33 C 0.31973 0.11846 0.0124 0.0
Co34 Co 0.64397 0.04503 0.04003 0.0
Co35 Co 0.64866 0.00911 0.11011 0.0
C36 C 0.65137 0.90199 0.06083 0.0
O37 O 0.6477 0.9449 0.0393 0.0
O38 O 0.65195 0.92023 0.08894 0.0
C39 C 0.6419 0.05088 0.9736 0.0
O40 O 0.65133 0.99291 0.97501 0.0
C41 C 0.64253 0.93998 0.1684 0.0
C42 C 0.65263 0.01828 0.20202 0.0
C43 C 0.64505 0.95297 0.19962 0.0
N44 N 0.64841 0.99505 0.15314 0.0
N45 N 0.65449 0.04155 0.17334 0.0
C46 C 0.6336 0.87855 0.1531 0.0
H47 H 0.62638 0.89342 0.13088 0.0
H48 H 0.62334 0.85423 0.16799 0.0
H49 H 0.64475 0.84071 0.14842 0.0
C50 C 0.60763 0.09731 0.05942 0.0
N51 N 0.62472 0.06951 0.06594 0.0
N52 N 0.6265 0.05476 0.09534 0.0
C53 C 0.61056 0.07306 0.10859 0.0
C54 C 0.59812 0.10086 0.08627 0.0
C55 C 0.59995 0.11257 0.02748 0.0
H56 H 0.60258 0.06826 0.01238 0.0
H57 H 0.5846 0.1233 0.02652 0.0
H58 H 0.60746 0.15756 0.01855 0.0
O59 O 0.66852 0.08606 0.05343 0.0
O60 O 0.67145 0.06332 0.10326 0.0
H61 H 0.59383 0.08718 0.14815 0.0
H62 H 0.60671 0.00728 0.14688 0.0
C63 C 0.6072 0.06294 0.14182 0.0
H64 H 0.61901 0.08566 0.15604 0.0
H65 H 0.65981 0.08937 0.16752 0.0
O66 O 0.6375 0.07984 0.99827 0.0
C67 C 0.67785 0.08902 0.07917 0.0
Co68 Co 0.3497 0.54401 0.57955 0.0
Co69 Co 0.34742 0.51352 0.5085 0.0
C70 C 0.34387 0.40207 0.55549 0.0
O71 O 0.34614 0.44394 0.5778 0.0
O72 O 0.34445 0.42202 0.52771 0.0
C73 C 0.35558 0.53816 0.64628 0.0
O74 O 0.35363 0.47142 0.64379 0.0
C75 C 0.35297 0.45708 0.44593 0.0
C76 C 0.34477 0.5478 0.41791 0.0
C77 C 0.35084 0.48061 0.41581 0.0
N78 N 0.34857 0.50857 0.46483 0.0
N79 N 0.34366 0.56242 0.44783 0.0
C80 C 0.35776 0.38582 0.45645 0.0
H81 H 0.351 0.3739 0.47798 0.0
H82 H 0.37326 0.38159 0.46078 0.0
H83 H 0.35306 0.34752 0.43887 0.0
C84 C 0.38639 0.59981 0.56449 0.0
N85 N 0.36968 0.57148 0.5559 0.0
N86 N 0.36881 0.56059 0.52614 0.0
C87 C 0.38499 0.58268 0.51466 0.0
C88 C 0.39664 0.6086 0.53861 0.0
C89 C 0.39309 0.61025 0.59733 0.0
H90 H 0.38958 0.56446 0.61093 0.0
H91 H 0.40852 0.6187 0.60001 0.0
H92 H 0.38567 0.655 0.60671 0.0
O93 O 0.32564 0.58666 0.56507 0.0
O94 O 0.32365 0.56232 0.51535 0.0
H95 H 0.3778 0.60614 0.46768 0.0
H96 H 0.40276 0.60307 0.4768 0.0
C97 C 0.38907 0.57903 0.48143 0.0
H98 H 0.38907 0.52466 0.47399 0.0
H99 H 0.3394 0.60922 0.45673 0.0
O100 O 0.35443 0.57527 0.62232 0.0
C101 C 0.31674 0.58818 0.53898 0.0
Co102 Co 0.64036 0.55052 0.54174 0.0
Co103 Co 0.64167 0.51269 0.61162 0.0
C104 C 0.645 0.40643 0.56165 0.0
O105 O 0.64255 0.45046 0.54026 0.0
O106 O 0.64502 0.42381 0.58985 0.0
C107 C 0.64102 0.55817 0.47566 0.0
O108 O 0.64869 0.49693 0.47758 0.0
C109 C 0.63313 0.44023 0.66825 0.0
C110 C 0.64164 0.51719 0.7035 0.0
C111 C 0.63449 0.45152 0.6997 0.0
N112 N 0.63926 0.49661 0.6542 0.0
N113 N 0.64436 0.54233 0.6754 0.0
C114 C 0.62536 0.3786 0.65157 0.0
H115 H 0.61824 0.3942 0.62937 0.0
H116 H 0.61524 0.3508 0.66555 0.0
H117 H 0.63714 0.34361 0.64668 0.0
C118 C 0.60351 0.60562 0.55666 0.0
N119 N 0.62014 0.57655 0.56521 0.0
N120 N 0.6206 0.56238 0.59468 0.0
C121 C 0.60432 0.5835 0.60608 0.0
C122 C 0.59293 0.61176 0.58233 0.0
C123 C 0.59715 0.61872 0.52386 0.0
H124 H 0.60388 0.66638 0.51596 0.0
H125 H 0.60165 0.57579 0.50932 0.0
H126 H 0.58162 0.62391 0.52075 0.0
O127 O 0.66482 0.58676 0.55855 0.0
O128 O 0.66536 0.56435 0.6084 0.0
H129 H 0.61168 0.59756 0.6538 0.0
H130 H 0.58679 0.60461 0.64411 0.0
C131 C 0.59986 0.57664 0.63904 0.0
H132 H 0.59827 0.52158 0.64471 0.0
H133 H 0.64975 0.59069 0.67065 0.0
O134 O 0.63652 0.58844 0.49995 0.0
C135 C 0.67306 0.58889 0.58519 0.0
Co136 Co 0.84495 0.07037 0.56974 0.0
Co137 Co 0.84242 0.0144 0.50193 0.0
C138 C 0.83885 0.922 0.55658 0.0
O139 O 0.84175 0.97076 0.57569 0.0
O140 O 0.83885 0.93229 0.52773 0.0
C141 C 0.85672 0.08765 0.63394 0.0
O142 O 0.86267 0.02401 0.63259 0.0
C143 C 0.8495 0.93308 0.44577 0.0
C144 C 0.83749 0.00379 0.41025 0.0
C145 C 0.84577 0.93992 0.41429 0.0
N146 N 0.84365 0.99047 0.45957 0.0
N147 N 0.83667 0.03258 0.4381 0.0
C148 C 0.85744 0.87154 0.46242 0.0
H149 H 0.85486 0.87371 0.48711 0.0
H150 H 0.87291 0.8698 0.46015 0.0
H151 H 0.85124 0.82394 0.45223 0.0
C152 C 0.88183 0.11766 0.55037 0.0
N153 N 0.86478 0.08946 0.544 0.0
N154 N 0.86408 0.06459 0.51595 0.0
C155 C 0.88086 0.07521 0.50376 0.0
C156 C 0.89263 0.1094 0.52513 0.0
C157 C 0.88849 0.1426 0.58155 0.0
H158 H 0.87819 0.17988 0.58998 0.0
H159 H 0.88939 0.09855 0.59762 0.0
H160 H 0.90254 0.16731 0.58144 0.0
O161 O 0.82064 0.10496 0.5525 0.0
O162 O 0.81891 0.06858 0.50433 0.0
H163 H 0.87568 0.06518 0.45524 0.0
H164 H 0.90039 0.0647 0.46769 0.0
C165 C 0.8861 0.04761 0.47343 0.0
H166 H 0.88571 0.99082 0.47409 0.0
H167 H 0.83092 0.08054 0.44257 0.0
O168 O 0.84918 0.11576 0.61002 0.0
C169 C 0.8118 0.1001 0.52644 0.0
Co170 Co 0.14103 0.05416 0.53917 0.0
Co171 Co 0.14299 0.01721 0.6098 0.0
C172 C 0.147 0.90949 0.56243 0.0
O173 O 0.14509 0.9541 0.54115 0.0
O174 O 0.14593 0.92594 0.59057 0.0
C175 C 0.13459 0.04126 0.47334 0.0
O176 O 0.13627 0.97519 0.47855 0.0
C177 C 0.14129 0.95536 0.67174 0.0
C178 C 0.13997 0.04848 0.70038 0.0
C179 C 0.14015 0.97757 0.70188 0.0
N180 N 0.1414 0.01076 0.65336 0.0
N181 N 0.14075 0.06613 0.6707 0.0
C182 C 0.14421 0.88372 0.66071 0.0
H183 H 0.1556 0.88331 0.64437 0.0
H184 H 0.13107 0.86541 0.6484 0.0
H185 H 0.14821 0.84828 0.67983 0.0
C186 C 0.10396 0.10589 0.55443 0.0
N187 N 0.12101 0.08018 0.56305 0.0
N188 N 0.12128 0.06236 0.59214 0.0
C189 C 0.10414 0.07466 0.60276 0.0
C190 C 0.09269 0.10337 0.5793 0.0
C191 C 0.09787 0.12273 0.5219 0.0
H192 H 0.09848 0.07564 0.50774 0.0
H193 H 0.08334 0.14372 0.51985 0.0
H194 H 0.10776 0.16063 0.51278 0.0
O195 O 0.16496 0.09614 0.55391 0.0
O196 O 0.16667 0.06829 0.60327 0.0
H197 H 0.1047 0.08932 0.65122 0.0
H198 H 0.08279 0.05534 0.63537 0.0
C199 C 0.09832 0.05363 0.63383 0.0
H200 H 0.10355 0.00119 0.63926 0.0
H201 H 0.14089 0.11612 0.66222 0.0
O202 O 0.13602 0.08289 0.49576 0.0
C203 C 0.17376 0.09584 0.58011 0.0
Co204 Co 0.85383 0.54686 0.07565 0.0
Co205 Co 0.85221 0.51634 0.00464 0.0
C206 C 0.84765 0.40499 0.05112 0.0
O207 O 0.85019 0.44676 0.07341 0.0
O208 O 0.84829 0.42483 0.02332 0.0
C209 C 0.8514 0.54357 0.14107 0.0
O210 O 0.84092 0.48911 0.13534 0.0
C211 C 0.85638 0.45504 0.94329 0.0
C212 C 0.85548 0.54772 0.9141 0.0
C213 C 0.8573 0.47709 0.9131 0.0
N214 N 0.85446 0.51036 0.96125 0.0
N215 N 0.85383 0.56546 0.9436 0.0
C216 C 0.85525 0.38297 0.95474 0.0
H217 H 0.86805 0.37119 0.96955 0.0
H218 H 0.85367 0.34519 0.93584 0.0
H219 H 0.84285 0.37826 0.96887 0.0
C220 C 0.8912 0.59818 0.06202 0.0
N221 N 0.87411 0.57396 0.05266 0.0
N222 N 0.87392 0.55941 0.02323 0.0
C223 C 0.89109 0.57295 0.013 0.0
C224 C 0.90253 0.59851 0.03719 0.0
C225 C 0.89719 0.61084 0.09498 0.0
H226 H 0.89507 0.56347 0.10842 0.0
H227 H 0.91219 0.62652 0.09798 0.0
H228 H 0.88818 0.65153 0.10421 0.0
O229 O 0.82989 0.589 0.06061 0.0
O230 O 0.82882 0.56917 0.0105 0.0
H231 H 0.88918 0.59115 0.96473 0.0
H232 H 0.91219 0.56414 0.9791 0.0
C233 C 0.89684 0.55674 0.98133 0.0
H234 H 0.89295 0.5031 0.97542 0.0
H235 H 0.85222 0.61528 0.95175 0.0
O236 O 0.85839 0.57516 0.11894 0.0
C237 C 0.82147 0.59323 0.03417 0.0
Co238 Co 0.15141 0.57742 0.0489 0.0
Co239 Co 0.15279 0.49467 0.11099 0.0
C240 C 0.15809 0.42386 0.05222 0.0
O241 O 0.1564 0.48086 0.03808 0.0
O242 O 0.15663 0.42004 0.08116 0.0
C243 C 0.13946 0.60256 0.98596 0.0
O244 O 0.13357 0.53882 0.98691 0.0
C245 C 0.14496 0.40185 0.16324 0.0
C246 C 0.15862 0.46138 0.20142 0.0
C247 C 0.14915 0.40086 0.1947 0.0
N248 N 0.15171 0.46061 0.15191 0.0
N249 N 0.15971 0.49597 0.17497 0.0
C250 C 0.13591 0.34599 0.14415 0.0
H251 H 0.13606 0.35828 0.11938 0.0
H252 H 0.12108 0.33943 0.15027 0.0
H253 H 0.14337 0.29684 0.14903 0.0
C254 C 0.11375 0.6131 0.06904 0.0
N255 N 0.13075 0.58348 0.07397 0.0
N256 N 0.13096 0.54755 0.09952 0.0
C257 C 0.1139 0.55243 0.11138 0.0
C258 C 0.10246 0.59417 0.0925 0.0
C259 C 0.10774 0.65082 0.04025 0.0
H260 H 0.11878 0.68824 0.03467 0.0
H261 H 0.10602 0.61366 0.02108 0.0
H262 H 0.09421 0.67821 0.04238 0.0
O263 O 0.17425 0.61504 0.07011 0.0
O264 O 0.17597 0.55152 0.11233 0.0
H265 H 0.11846 0.52363 0.15851 0.0
H266 H 0.0939 0.52909 0.14554 0.0
C267 C 0.10818 0.51382 0.13896 0.0
H268 H 0.10825 0.45817 0.13388 0.0
H269 H 0.16624 0.5434 0.17255 0.0
O270 O 0.14707 0.62959 0.0101 0.0
C271 C 0.1827 0.59728 0.09532 0.0
C272 C 0.36686 0.39246 0.384 0.0
C273 C 0.35301 0.44328 0.38668 0.0
C274 C 0.36849 0.35769 0.35625 0.0
C275 C 0.35772 0.37353 0.27333 0.0
H276 H 0.3594 0.17489 0.27284 0.0
C277 C 0.34579 0.21918 0.1618 0.0
C278 C 0.35646 0.15938 0.15819 0.0
C279 C 0.34647 0.25376 0.18983 0.0
C280 C 0.35925 0.23038 0.27258 0.0
H281 H 0.33052 0.49931 0.36204 0.0
H282 H 0.33355 0.43934 0.31362 0.0
H283 H 0.35912 0.23601 0.3216 0.0
H284 H 0.37635 0.08923 0.18108 0.0
H285 H 0.37784 0.1504 0.22985 0.0
H286 H 0.35797 0.36836 0.22445 0.0
C287 C 0.34303 0.42597 0.33302 0.0
C288 C 0.35906 0.26531 0.30052 0.0
C289 C 0.34128 0.46016 0.36078 0.0
C290 C 0.36788 0.13499 0.18319 0.0
C291 C 0.36866 0.16988 0.2112 0.0
C292 C 0.35807 0.33872 0.24544 0.0
C293 C 0.35657 0.37412 0.33052 0.0
C294 C 0.35803 0.33717 0.30111 0.0
C295 C 0.35796 0.22969 0.21486 0.0
C296 C 0.35858 0.26668 0.24467 0.0
H297 H 0.37665 0.38024 0.40309 0.0
H298 H 0.37927 0.31871 0.35476 0.0
H299 H 0.35722 0.42902 0.27317 0.0
H300 H 0.33677 0.23911 0.14302 0.0
H301 H 0.33776 0.2989 0.19197 0.0
C302 C 0.63438 0.93687 0.25246 0.0
C303 C 0.64119 0.90817 0.22577 0.0
C304 C 0.63215 0.89639 0.27834 0.0
C305 C 0.63018 0.71648 0.30576 0.0
H306 H 0.64659 0.79894 0.38357 0.0
C307 C 0.64448 0.5634 0.41881 0.0
C308 C 0.63848 0.5937 0.4458 0.0
C309 C 0.6431 0.59934 0.39104 0.0
C310 C 0.64173 0.77542 0.36208 0.0
H311 H 0.65128 0.81487 0.20529 0.0
H312 H 0.64755 0.74408 0.2506 0.0
H313 H 0.6472 0.86618 0.33679 0.0
H314 H 0.62562 0.68437 0.46458 0.0
H315 H 0.62323 0.74667 0.41625 0.0
H316 H 0.62513 0.62507 0.33133 0.0
C317 C 0.64342 0.79747 0.25128 0.0
C318 C 0.64203 0.81401 0.33524 0.0
C319 C 0.64551 0.83797 0.22527 0.0
C320 C 0.63055 0.65973 0.44428 0.0
C321 C 0.62923 0.6956 0.41661 0.0
C322 C 0.62997 0.67766 0.33269 0.0
C323 C 0.63697 0.82648 0.27827 0.0
C324 C 0.63623 0.78514 0.30675 0.0
C325 C 0.63576 0.66626 0.38981 0.0
C326 C 0.63571 0.70688 0.36112 0.0
H327 H 0.6309 0.99088 0.25338 0.0
H328 H 0.62682 0.92012 0.29855 0.0
H329 H 0.62545 0.69292 0.28422 0.0
H330 H 0.6506 0.51253 0.41922 0.0
H331 H 0.64835 0.57563 0.37076 0.0
C332 C 0.3596 0.53216 0.70383 0.0
C333 C 0.35883 0.571 0.67665 0.0
C334 C 0.36219 0.56443 0.73241 0.0
C335 C 0.37816 0.72865 0.76808 0.0
H336 H 0.34624 0.67756 0.83363 0.0
C337 C 0.36134 0.91349 0.86398 0.0
C338 C 0.36287 0.88966 0.8944 0.0
C339 C 0.36249 0.86817 0.83951 0.0
C340 C 0.35543 0.69165 0.81567 0.0
H341 H 0.36034 0.67408 0.65818 0.0
H342 H 0.36449 0.72994 0.70764 0.0
H343 H 0.34566 0.60907 0.78659 0.0
H344 H 0.36751 0.79929 0.92286 0.0
H345 H 0.36874 0.71945 0.87978 0.0
H346 H 0.38733 0.81276 0.79658 0.0
C347 C 0.36345 0.67458 0.70705 0.0
C348 C 0.35514 0.65244 0.78879 0.0
C349 C 0.3609 0.64249 0.67862 0.0
C350 C 0.36557 0.81914 0.89977 0.0
C351 C 0.36649 0.77346 0.87514 0.0
C352 C 0.37832 0.76799 0.79474 0.0
C353 C 0.3641 0.63608 0.7343 0.0
C354 C 0.36614 0.67167 0.76438 0.0
C355 C 0.36516 0.79783 0.84482 0.0
C356 C 0.36661 0.75089 0.81844 0.0
H357 H 0.3581 0.47694 0.70306 0.0
H358 H 0.36276 0.53333 0.753 0.0
H359 H 0.38716 0.74386 0.75003 0.0
H360 H 0.35926 0.96745 0.85901 0.0
H361 H 0.36117 0.88819 0.81633 0.0
C362 C 0.63625 0.33524 0.72411 0.0
C363 C 0.63063 0.40419 0.72496 0.0
C364 C 0.63466 0.29316 0.74978 0.0
C365 C 0.63273 0.30737 0.8337 0.0
H366 H 0.62115 0.11326 0.82947 0.0
C367 C 0.62744 0.14731 0.94279 0.0
C368 C 0.63739 0.08497 0.94382 0.0
C369 C 0.6244 0.18267 0.91519 0.0
C370 C 0.62448 0.16736 0.83092 0.0
H371 H 0.61836 0.48271 0.75266 0.0
H372 H 0.61508 0.40905 0.79717 0.0
H373 H 0.61933 0.18212 0.78252 0.0
H374 H 0.65124 0.00941 0.91638 0.0
H375 H 0.64601 0.0717 0.86806 0.0
H376 H 0.638 0.29284 0.88192 0.0
C377 C 0.62108 0.38762 0.777 0.0
C378 C 0.62346 0.20677 0.80408 0.0
C379 C 0.62284 0.42972 0.75149 0.0
C380 C 0.64359 0.05744 0.91638 0.0
C381 C 0.64051 0.09289 0.88868 0.0
C382 C 0.63364 0.26819 0.86044 0.0
C383 C 0.6274 0.3193 0.77675 0.0
C384 C 0.62763 0.27726 0.80517 0.0
C385 C 0.63122 0.15655 0.88795 0.0
C386 C 0.62959 0.19777 0.85937 0.0
H387 H 0.64276 0.31467 0.70425 0.0
H388 H 0.63992 0.24113 0.74893 0.0
H389 H 0.63649 0.36108 0.83535 0.0
H390 H 0.62229 0.16967 0.96344 0.0
H391 H 0.61691 0.23106 0.91525 0.0
C392 C 0.85058 0.19227 0.66484 0.0
C393 C 0.8588 0.12701 0.66289 0.0
C394 C 0.85223 0.22953 0.69212 0.0
C395 C 0.86207 0.20946 0.77565 0.0
H396 H 0.86715 0.40725 0.77268 0.0
C397 C 0.87109 0.3789 0.88458 0.0
C398 C 0.85912 0.43622 0.8849 0.0
C399 C 0.87257 0.3407 0.85772 0.0
C400 C 0.86565 0.35207 0.77383 0.0
H401 H 0.87544 0.05002 0.68798 0.0
H402 H 0.87862 0.11578 0.73559 0.0
H403 H 0.86736 0.34104 0.72536 0.0
H404 H 0.84002 0.50049 0.85712 0.0
H405 H 0.84272 0.43424 0.81014 0.0
H406 H 0.86042 0.2209 0.82426 0.0
C407 C 0.8706 0.13759 0.71612 0.0
C408 C 0.86572 0.3141 0.74674 0.0
C409 C 0.86886 0.10003 0.6888 0.0
C410 C 0.84923 0.45616 0.85759 0.0
C411 C 0.85082 0.41841 0.83071 0.0
C412 C 0.86215 0.24747 0.80281 0.0
C413 C 0.86226 0.20276 0.71811 0.0
C414 C 0.86361 0.24243 0.74724 0.0
C415 C 0.86241 0.36003 0.83054 0.0
C416 C 0.86365 0.31924 0.80209 0.0
H417 H 0.84265 0.21447 0.64536 0.0
H418 H 0.84531 0.27892 0.69296 0.0
H419 H 0.86019 0.15447 0.77686 0.0
H420 H 0.87952 0.36409 0.90495 0.0
H421 H 0.88187 0.29665 0.85808 0.0
C422 C 0.12869 0.61347 0.93048 0.0
C423 C 0.13778 0.6419 0.95693 0.0
C424 C 0.12776 0.64966 0.90278 0.0
C425 C 0.13293 0.82411 0.87033 0.0
H426 H 0.14123 0.72546 0.79513 0.0
C427 C 0.14848 0.96171 0.75772 0.0
C428 C 0.13947 0.93699 0.73046 0.0
C429 C 0.14749 0.92532 0.78513 0.0
C430 C 0.13868 0.75359 0.81589 0.0
H431 H 0.15289 0.73098 0.9751 0.0
H432 H 0.15156 0.79346 0.92679 0.0
H433 H 0.14074 0.66299 0.84349 0.0
H434 H 0.12144 0.85672 0.71092 0.0
H435 H 0.12005 0.79218 0.75872 0.0
H436 H 0.13119 0.91485 0.84274 0.0
C437 C 0.14486 0.74369 0.92748 0.0
C438 C 0.13835 0.71781 0.84361 0.0
C439 C 0.14572 0.70765 0.95518 0.0
C440 C 0.12916 0.87565 0.73127 0.0
C441 C 0.12824 0.83899 0.75869 0.0
C442 C 0.13334 0.85989 0.84265 0.0
C443 C 0.13595 0.71502 0.90088 0.0
C444 C 0.13559 0.75269 0.87121 0.0
C445 C 0.13737 0.86352 0.78593 0.0
C446 C 0.13634 0.8251 0.81516 0.0
H447 H 0.12234 0.56305 0.93108 0.0
H448 H 0.12054 0.62647 0.88287 0.0
H449 H 0.13041 0.85246 0.89103 0.0
H450 H 0.15643 0.0091 0.75781 0.0
H451 H 0.15482 0.94524 0.80566 0.0
C452 C 0.86363 0.84546 0.38928 0.0
C453 C 0.84786 0.88894 0.38962 0.0
C454 C 0.86538 0.79863 0.3653 0.0
C455 C 0.83743 0.71049 0.30296 0.0
H456 H 0.88506 0.69655 0.26409 0.0
C457 C 0.84511 0.53962 0.19699 0.0
C458 C 0.85394 0.57103 0.17263 0.0
C459 C 0.84622 0.56905 0.22623 0.0
C460 C 0.87167 0.69982 0.27474 0.0
H461 H 0.82174 0.91824 0.36499 0.0
H462 H 0.82485 0.83738 0.32317 0.0
H463 H 0.88292 0.76684 0.31006 0.0
H464 H 0.87157 0.65634 0.16019 0.0
H465 H 0.87326 0.70806 0.21096 0.0
H466 H 0.82594 0.64609 0.26701 0.0
C467 C 0.83569 0.8383 0.34164 0.0
C468 C 0.8705 0.73951 0.30124 0.0
C469 C 0.834 0.88511 0.36545 0.0
C470 C 0.86453 0.63095 0.17842 0.0
C471 C 0.86563 0.66035 0.20763 0.0
C472 C 0.83861 0.67083 0.27653 0.0
C473 C 0.85138 0.79447 0.34127 0.0
C474 C 0.85325 0.74648 0.31522 0.0
C475 C 0.8562 0.63047 0.23174 0.0
C476 C 0.85564 0.66615 0.26174 0.0
H477 H 0.87483 0.84856 0.40705 0.0
H478 H 0.87766 0.76564 0.36559 0.0
H479 H 0.82401 0.71407 0.31347 0.0
H480 H 0.83697 0.49312 0.19335 0.0
H481 H 0.83902 0.54425 0.24444 0.0
C482 C 0.12826 0.13713 0.436 0.0
C483 C 0.13206 0.06738 0.44155 0.0
C484 C 0.1271 0.16273 0.40606 0.0
C485 C 0.14529 0.12957 0.33106 0.0
H486 H 0.10964 0.27049 0.30367 0.0
C487 C 0.1602 0.32821 0.23879 0.0
C488 C 0.14566 0.34685 0.21732 0.0
C489 C 0.15677 0.2829 0.26253 0.0
C490 C 0.11951 0.23042 0.31078 0.0
H491 H 0.13699 0.96936 0.41992 0.0
H492 H 0.13511 0.01435 0.36762 0.0
H493 H 0.1059 0.21263 0.35266 0.0
H494 H 0.11608 0.33335 0.20383 0.0
H495 H 0.10997 0.25391 0.24571 0.0
H496 H 0.15925 0.14889 0.28969 0.0
C497 C 0.13311 0.04915 0.3865 0.0
C498 C 0.11747 0.19781 0.33893 0.0
C499 C 0.13412 0.02341 0.41644 0.0
C500 C 0.12763 0.31849 0.21967 0.0
C501 C 0.1241 0.27375 0.24379 0.0
C502 C 0.14741 0.16256 0.30307 0.0
C503 C 0.12984 0.11924 0.38103 0.0
C504 C 0.13057 0.14806 0.34965 0.0
C505 C 0.13862 0.25614 0.26563 0.0
C506 C 0.13479 0.21435 0.29296 0.0
H507 H 0.1265 0.1723 0.45483 0.0
H508 H 0.12475 0.21711 0.40262 0.0
H509 H 0.15568 0.09179 0.33878 0.0
H510 H 0.17419 0.34979 0.23753 0.0
H511 H 0.16817 0.27108 0.27924 0.0
C512 C 0.57108 0.18155 0.07805 0.0
C513 C 0.57812 0.11845 0.08896 0.0
C514 C 0.55172 0.1946 0.07695 0.0
C515 C 0.50622 0.13053 0.10374 0.0
H516 H 0.48584 0.20032 0.0255 0.0
C517 C 0.43039 0.0785 0.05834 0.0
C518 C 0.42029 0.13216 0.04384 0.0
C519 C 0.44949 0.08639 0.06671 0.0
C520 C 0.49132 0.1819 0.04767 0.0
H521 H 0.57088 0.0203 0.10813 0.0
H522 H 0.53705 0.04256 0.10615 0.0
H523 H 0.51986 0.19888 0.03652 0.0
H524 H 0.42161 0.23619 0.02706 0.0
H525 H 0.45535 0.2502 0.04144 0.0
H526 H 0.47765 0.11119 0.11434 0.0
C527 C 0.54638 0.08259 0.09888 0.0
C528 C 0.5108 0.18122 0.05404 0.0
C529 C 0.56571 0.06967 0.09998 0.0
C530 C 0.42937 0.19406 0.03792 0.0
C531 C 0.44855 0.20193 0.04614 0.0
C532 C 0.48675 0.13097 0.09732 0.0
C533 C 0.53913 0.14458 0.08672 0.0
C534 C 0.51847 0.15404 0.08185 0.0
C535 C 0.45876 0.14818 0.06072 0.0
C536 C 0.47916 0.15516 0.06893 0.0
H537 H 0.58051 0.21987 0.06955 0.0
H538 H 0.54656 0.24315 0.06783 0.0
H539 H 0.5117 0.11038 0.12559 0.0
H540 H 0.42346 0.03066 0.06334 0.0
H541 H 0.45706 0.04379 0.07751 0.0
C542 C 0.42986 0.59074 0.52443 0.0
C543 C 0.41641 0.63173 0.53803 0.0
C544 C 0.44897 0.60756 0.52773 0.0
C545 C 0.48194 0.67722 0.58363 0.0
H546 H 0.51711 0.67699 0.51876 0.0
C547 C 0.56706 0.69384 0.5672 0.0
C548 C 0.57306 0.63396 0.58273 0.0
C549 C 0.54787 0.70924 0.56327 0.0
C550 C 0.50741 0.67818 0.53705 0.0
H551 H 0.41207 0.72389 0.56437 0.0
H552 H 0.44571 0.75191 0.57118 0.0
H553 H 0.4831 0.67583 0.50559 0.0
H554 H 0.56391 0.5449 0.60754 0.0
H555 H 0.53038 0.57351 0.60189 0.0
H556 H 0.50626 0.67498 0.61507 0.0
C557 C 0.44141 0.70739 0.55773 0.0
C558 C 0.48804 0.67722 0.52952 0.0
C559 C 0.42226 0.69134 0.55387 0.0
C560 C 0.55968 0.59199 0.59594 0.0
C561 C 0.54053 0.60815 0.59259 0.0
C562 C 0.50131 0.67675 0.59114 0.0
C563 C 0.45491 0.66486 0.54516 0.0
C564 C 0.47519 0.67558 0.55277 0.0
C565 C 0.53446 0.66579 0.57548 0.0
C566 C 0.51417 0.67607 0.5679 0.0
H567 H 0.42573 0.54388 0.51258 0.0
H568 H 0.45919 0.5736 0.51815 0.0
H569 H 0.47225 0.67528 0.60191 0.0
H570 H 0.57718 0.72724 0.55705 0.0
H571 H 0.54346 0.75405 0.55007 0.0
C572 C 0.06354 0.17406 0.57242 0.0
C573 C 0.07206 0.11013 0.5779 0.0
C574 C 0.04395 0.17901 0.56784 0.0
C575 C -0.00031 0.08138 0.57707 0.0
H576 H 0.97959 0.20033 0.51189 0.0
C577 C 0.92408 0.05404 0.52639 0.0
C578 C 0.9133 0.11424 0.52559 0.0
C579 C 0.94358 0.05726 0.53188 0.0
C580 C 0.98504 0.16731 0.53028 0.0
H581 H 0.06728 0.00138 0.58286 0.0
H582 H 0.03312 0.00929 0.57442 0.0
H583 H 0.01347 0.19986 0.52534 0.0
H584 H 0.91409 0.22484 0.52856 0.0
H585 H 0.94851 0.23084 0.53764 0.0
H586 H 0.97132 0.04747 0.58134 0.0
C587 C 0.04133 0.05605 0.57443 0.0
C588 C 0.00439 0.16727 0.53814 0.0
C589 C 0.06085 0.05132 0.57919 0.0
C590 C 0.92229 0.17797 0.5289 0.0
C591 C 0.94187 0.1813 0.53409 0.0
C592 C 0.98043 0.08089 0.56898 0.0
C593 C 0.03264 0.11985 0.56838 0.0
C594 C 0.01196 0.12372 0.56143 0.0
C595 C 0.9526 0.12079 0.53644 0.0
C596 C 0.97296 0.12327 0.5453 0.0
H597 H 0.07208 0.21987 0.57114 0.0
H598 H 0.0377 0.22899 0.56363 0.0
H599 H 0.00497 0.04833 0.59555 0.0
H600 H 0.91731 0.00439 0.52413 0.0
H601 H 0.95159 0.00997 0.53324 0.0
C602 C 0.93445 0.54815 0.03415 0.0
C603 C 0.92316 0.60569 0.03874 0.0
C604 C 0.95398 0.55243 0.03891 0.0
C605 C 0.99075 0.65355 0.08106 0.0
H606 H 0.02394 0.54916 0.03106 0.0
C607 C 0.07279 0.66268 0.09239 0.0
C608 C 0.08177 0.59877 0.0915 0.0
C609 C 0.05325 0.66733 0.08698 0.0
C610 C 0.0148 0.57821 0.04531 0.0
H611 H 0.92302 0.71287 0.05127 0.0
H612 H 0.9574 0.72129 0.05896 0.0
H613 H 0.99028 0.55319 0.01696 0.0
H614 H 0.07777 0.48962 0.08531 0.0
H615 H 0.04356 0.49749 0.07589 0.0
H616 H 0.0155 0.67888 0.10922 0.0
C617 C 0.9512 0.67258 0.05211 0.0
C618 C 0.99554 0.58052 0.03727 0.0
C619 C 0.93161 0.66808 0.04747 0.0
C620 C 0.07102 0.53934 0.08628 0.0
C621 C 0.05155 0.54396 0.08061 0.0
C622 C 0.01009 0.65174 0.08893 0.0
C623 C 0.96258 0.61448 0.04829 0.0
C624 C 0.98324 0.61723 0.05533 0.0
C625 C 0.04255 0.60811 0.08026 0.0
C626 C 0.02221 0.61306 0.07141 0.0
H627 H 0.9281 0.49924 0.02793 0.0
H628 H 0.96226 0.50639 0.03631 0.0
H629 H 0.98164 0.68161 0.09568 0.0
H630 H 0.08097 0.70904 0.09627 0.0
H631 H 0.04662 0.71736 0.08675 0.0
C632 C 0.16686 0.36843 0.00344 0.0
C633 C 0.16524 0.36434 0.03536 0.0
C634 C 0.17873 0.32364 0.98871 0.0
C635 C 0.21169 0.17566 0.00049 0.0
H636 H 0.24711 0.29906 0.96438 0.0
C637 C 0.28906 0.09982 0.98265 0.0
C638 C 0.30116 0.14318 0.00036 0.0
C639 C 0.27025 0.11853 0.97597 0.0
C640 C 0.23722 0.26359 0.9738 0.0
H641 H 0.1726 0.30392 0.07602 0.0
H642 H 0.19347 0.22655 0.05047 0.0
H643 H 0.21531 0.33842 0.97275 0.0
H644 H 0.30357 0.24162 0.02318 0.0
H645 H 0.27096 0.27518 0.01075 0.0
H646 H 0.23427 0.10254 0.00343 0.0
C647 C 0.18564 0.2643 0.03673 0.0
C648 C 0.21894 0.28581 0.97841 0.0
C649 C 0.17372 0.30901 0.05147 0.0
C650 C 0.29453 0.2073 0.00952 0.0
C651 C 0.27591 0.22658 0.00227 0.0
C652 C 0.22999 0.15319 0.99559 0.0
C653 C 0.18919 0.27403 0.00564 0.0
C654 C 0.20626 0.24325 0.99317 0.0
C655 C 0.26346 0.18158 0.98623 0.0
C656 C 0.24314 0.19822 0.98358 0.0
H657 H 0.16017 0.40963 0.9902 0.0
H658 H 0.18087 0.33132 0.96457 0.0
H659 H 0.20219 0.14162 0.01169 0.0
H660 H 0.2938 0.04982 0.97552 0.0
H661 H 0.26087 0.08303 0.96363 0.0
C662 C 0.79178 0.62283 0.00297 0.0
C663 C 0.80174 0.61797 0.03169 0.0
C664 C 0.77246 0.63745 0.00114 0.0
C665 C 0.73043 0.62733 0.04647 0.0
H666 H 0.71103 0.77643 0.99528 0.0
C667 C 0.6687 0.7949 0.07598 0.0
C668 C 0.65945 0.83475 0.05291 0.0
C669 C 0.68213 0.74644 0.06844 0.0
C670 C 0.71596 0.73319 0.00906 0.0
H671 H 0.79926 0.62659 0.08093 0.0
H672 H 0.76571 0.65226 0.07761 0.0
H673 H 0.74347 0.73913 0.99149 0.0
H674 H 0.65455 0.84643 0.00364 0.0
H675 H 0.67762 0.7605 0.99052 0.0
H676 H 0.70311 0.62259 0.06473 0.0
C677 C 0.77279 0.6438 0.05658 0.0
C678 C 0.73464 0.71222 0.00699 0.0
C679 C 0.79207 0.62995 0.05842 0.0
C680 C 0.66176 0.81776 0.02203 0.0
C681 C 0.67511 0.76884 0.01448 0.0
C682 C 0.71168 0.64784 0.04835 0.0
C683 C 0.76274 0.64666 0.02799 0.0
C684 C 0.74224 0.66098 0.02653 0.0
C685 C 0.68638 0.7363 0.03767 0.0
C686 C 0.70444 0.7029 0.03056 0.0
H687 H 0.79879 0.61374 0.98194 0.0
H688 H 0.76503 0.6398 0.97881 0.0
H689 H 0.73588 0.58663 0.06136 0.0
H690 H 0.66705 0.80582 0.10001 0.0
H691 H 0.69043 0.72219 0.08699 0.0
C692 C 0.20652 0.69042 0.09202 0.0
C693 C 0.20141 0.62653 0.10373 0.0
C694 C 0.22481 0.71516 0.0974 0.0
C695 C 0.26228 0.76687 0.12604 0.0
H696 H 0.30115 0.65472 0.09202 0.0
C697 C 0.33233 0.88775 0.10561 0.0
C698 C 0.33571 0.88542 0.07419 0.0
C699 C 0.3203 0.84028 0.11823 0.0
C700 C 0.29053 0.6861 0.10209 0.0
H701 H 0.21127 0.53886 0.13073 0.0
H702 H 0.24359 0.58169 0.13936 0.0
H703 H 0.2697 0.6065 0.09814 0.0
H704 H 0.33123 0.82611 0.03238 0.0
H705 H 0.31004 0.74384 0.05431 0.0
H706 H 0.28252 0.84761 0.12849 0.0
C707 C 0.23328 0.6127 0.12642 0.0
C708 C 0.27261 0.65849 0.10571 0.0
C709 C 0.21482 0.58853 0.12159 0.0
C710 C 0.32876 0.82968 0.05659 0.0
C711 C 0.31666 0.78227 0.06923 0.0
C712 C 0.28018 0.79415 0.12279 0.0
C713 C 0.23843 0.67593 0.11412 0.0
C714 C 0.25818 0.69966 0.11656 0.0
C715 C 0.31142 0.78976 0.09965 0.0
C716 C 0.29428 0.75493 0.10967 0.0
H717 H 0.19646 0.72076 0.07823 0.0
H718 H 0.22854 0.76384 0.08744 0.0
H719 H 0.25136 0.79938 0.13456 0.0
H720 H 0.33781 0.92932 0.11995 0.0
H721 H 0.31682 0.84631 0.14193 0.0
C722 C 0.70638 0.12816 0.05304 0.0
C723 C 0.69747 0.11469 0.08035 0.0
C724 C 0.7256 0.14323 0.05375 0.0
C725 C 0.76454 0.21076 0.10243 0.0
H726 H 0.79527 0.12737 0.0418 0.0
C727 C 0.83738 0.31647 0.08805 0.0
C728 C 0.8395 0.33703 0.05754 0.0
C729 C 0.824 0.26702 0.09472 0.0
C730 C 0.78692 0.15087 0.05897 0.0
H731 H 0.70166 0.10892 0.12996 0.0
H732 H 0.73523 0.13662 0.13112 0.0
H733 H 0.76261 0.09066 0.04564 0.0
H734 H 0.8314 0.31389 0.01001 0.0
H735 H 0.80799 0.22938 0.02151 0.0
H736 H 0.78828 0.27376 0.1147 0.0
C737 C 0.7273 0.13479 0.10919 0.0
C738 C 0.76822 0.13001 0.06109 0.0
C739 C 0.70808 0.11913 0.10849 0.0
C740 C 0.82997 0.30017 0.03377 0.0
C741 C 0.8165 0.25119 0.04043 0.0
C742 C 0.78316 0.23201 0.10017 0.0
C743 C 0.7363 0.14572 0.08177 0.0
C744 C 0.75671 0.1613 0.0822 0.0
C745 C 0.81248 0.23755 0.07102 0.0
C746 C 0.79441 0.20387 0.07775 0.0
H747 H 0.69866 0.1251 0.03096 0.0
H748 H 0.7321 0.15294 0.03231 0.0
H749 H 0.75596 0.23593 0.11883 0.0
H750 H 0.84482 0.34275 0.10694 0.0
H751 H 0.82167 0.25592 0.11852 0.0
C752 C 0.1587 0.79246 0.57773 0.0
C753 C 0.15495 0.84189 0.55479 0.0
C754 C 0.1718 0.74032 0.57337 0.0
C755 C 0.20655 0.6773 0.51713 0.0
H756 H 0.23938 0.67024 0.59098 0.0
C757 C 0.29082 0.65989 0.55823 0.0
C758 C 0.29701 0.61192 0.53711 0.0
C759 C 0.27169 0.67562 0.55904 0.0
C760 C 0.23051 0.67246 0.57 0.0
H761 H 0.15977 0.86895 0.5076 0.0
H762 H 0.18296 0.78157 0.50059 0.0
H763 H 0.2075 0.71112 0.5939 0.0
H764 H 0.28816 0.54305 0.50009 0.0
H765 H 0.25471 0.56821 0.50227 0.0
H766 H 0.23026 0.64485 0.49285 0.0
C767 C 0.17591 0.78157 0.52193 0.0
C768 C 0.21191 0.69433 0.57179 0.0
C769 C 0.16255 0.83255 0.52604 0.0
C770 C 0.28378 0.58102 0.51635 0.0
C771 C 0.26457 0.59548 0.51764 0.0
C772 C 0.22533 0.65704 0.51523 0.0
C773 C 0.18166 0.73765 0.54626 0.0
C774 C 0.19981 0.69938 0.54521 0.0
C775 C 0.25822 0.64228 0.53931 0.0
C776 C 0.23773 0.65656 0.54152 0.0
H777 H 0.15267 0.79707 0.59988 0.0
H778 H 0.1752 0.70541 0.59216 0.0
H779 H 0.19758 0.67854 0.49625 0.0
H780 H 0.30076 0.68469 0.57438 0.0
H781 H 0.26749 0.71371 0.57534 0.0
C782 C 0.65277 0.319 0.52249 0.0
C783 C 0.65215 0.33799 0.55351 0.0
C784 C 0.66521 0.26805 0.51375 0.0
C785 C 0.70519 0.2279 0.50331 0.0
H786 H 0.72723 0.0866 0.55644 0.0
C787 C 0.78262 0.14127 0.54981 0.0
C788 C 0.79188 0.12256 0.52342 0.0
C789 C 0.76323 0.15237 0.5483 0.0
C790 C 0.72111 0.12548 0.54119 0.0
H791 H 0.66185 0.31121 0.59999 0.0
H792 H 0.6837 0.2241 0.58489 0.0
H793 H 0.6947 0.12258 0.56241 0.0
H794 H 0.78808 0.10393 0.47442 0.0
H795 H 0.75401 0.12604 0.47173 0.0
H796 H 0.7319 0.23206 0.48284 0.0
C797 C 0.67472 0.24807 0.56711 0.0
C798 C 0.70253 0.14615 0.54461 0.0
C799 C 0.66216 0.29851 0.57586 0.0
C800 C 0.78137 0.11829 0.49516 0.0
C801 C 0.7619 0.13051 0.49361 0.0
C802 C 0.7237 0.20656 0.49966 0.0
C803 C 0.6773 0.23558 0.53586 0.0
C804 C 0.69466 0.20006 0.52675 0.0
C805 C 0.75265 0.14597 0.52035 0.0
C806 C 0.73207 0.15755 0.51955 0.0
H807 H 0.6449 0.34745 0.50471 0.0
H808 H 0.66641 0.25802 0.48953 0.0
H809 H 0.69975 0.27005 0.48931 0.0
H810 H 0.79022 0.14507 0.57197 0.0
H811 H 0.75646 0.16585 0.56912 0.0
C812 C 0.204 0.11908 0.611 0.0
C813 C 0.19361 0.11928 0.58258 0.0
C814 C 0.22339 0.13245 0.6125 0.0
C815 C 0.26464 0.12756 0.56521 0.0
H816 H 0.28539 0.26787 0.62 0.0
C817 C 0.32632 0.29724 0.53799 0.0
C818 C 0.33596 0.33369 0.56179 0.0
C819 C 0.31295 0.24791 0.54469 0.0
C820 C 0.28008 0.22697 0.60515 0.0
H821 H 0.1954 0.13562 0.53359 0.0
H822 H 0.22906 0.15905 0.53635 0.0
H823 H 0.25293 0.23124 0.62407 0.0
H824 H 0.34164 0.33834 0.61112 0.0
H825 H 0.3187 0.25078 0.62276 0.0
H826 H 0.29159 0.12457 0.54565 0.0
C827 C 0.22227 0.14761 0.55736 0.0
C828 C 0.26139 0.20641 0.6074 0.0
C829 C 0.20292 0.13504 0.55588 0.0
C830 C 0.3341 0.31234 0.59225 0.0
C831 C 0.32083 0.2625 0.59895 0.0
C832 C 0.2834 0.1476 0.56314 0.0
C833 C 0.23274 0.14542 0.58559 0.0
C834 C 0.25329 0.15856 0.58665 0.0
C835 C 0.30915 0.23348 0.57533 0.0
C836 C 0.29112 0.19962 0.58225 0.0
H837 H 0.19728 0.107 0.632 0.0
H838 H 0.23115 0.1309 0.63457 0.0
H839 H 0.25879 0.08943 0.54934 0.0
H840 H 0.32757 0.3117 0.51422 0.0
H841 H 0.30432 0.22651 0.52582 0.0
C842 C 0.70167 0.6241 0.61785 0.0
C843 C 0.69275 0.61357 0.58862 0.0
C844 C 0.72078 0.64169 0.62088 0.0
C845 C 0.76472 0.63273 0.5804 0.0
H846 H 0.779 0.79832 0.62476 0.0
C847 C 0.82358 0.80847 0.5465 0.0
C848 C 0.8313 0.8564 0.5677 0.0
C849 C 0.8109 0.75904 0.55572 0.0
C850 C 0.77553 0.75072 0.61303 0.0
H851 H 0.69692 0.61358 0.5397 0.0
H852 H 0.73016 0.64405 0.54511 0.0
H853 H 0.74735 0.75273 0.62808 0.0
H854 H 0.8342 0.88281 0.61605 0.0
H855 H 0.81245 0.79523 0.63224 0.0
H856 H 0.79269 0.63159 0.5646 0.0
C857 C 0.7224 0.63821 0.56563 0.0
C858 C 0.75729 0.72492 0.61481 0.0
C859 C 0.7033 0.62163 0.56255 0.0
C860 C 0.82817 0.84761 0.59899 0.0
C861 C 0.81558 0.79772 0.60827 0.0
C862 C 0.78303 0.65803 0.57888 0.0
C863 C 0.73136 0.64791 0.59479 0.0
C864 C 0.7515 0.66741 0.59749 0.0
C865 C 0.80585 0.75598 0.58641 0.0
C866 C 0.78841 0.71908 0.59409 0.0
H867 H 0.69394 0.61812 0.63838 0.0
H868 H 0.72737 0.64929 0.64362 0.0
H869 H 0.76066 0.58744 0.56728 0.0
H870 H 0.82589 0.81303 0.52226 0.0
H871 H 0.80377 0.72781 0.53816 0.0
loop_
_geom_bond_atom_site_label_1
_geom_bond_atom_site_label_2
_geom_bond_distance
_geom_bond_site_symmetry_2
_ccdc_geom_bond_type
Co0 O3 1.970 1_545 S
Co0 N17 1.989 . S
Co0 O25 1.967 . S
Co0 O32 1.920 . S
Co1 O4 1.966 1_545 S
Co1 N10 2.022 1_544 S
Co1 N18 1.993 . S
Co1 O26 1.941 . S
C2 O3 1.258 . S
C2 O4 1.263 . S
O3 Co0 1.970 1_565 S
O3 C2 1.258 . S
O4 Co1 1.966 1_565 S
O4 C2 1.263 . S
C5 O6 1.235 1_545 S
C5 O32 1.289 . S
O6 C5 1.235 1_565 S
C7 C9 1.400 . S
C7 N10 1.351 . S
C7 C12 1.501 . S
C8 C9 1.387 . S
C8 N11 1.341 1_565 S
C9 C7 1.400 . S
C9 C8 1.387 . S
N10 Co1 2.022 1_566 S
N10 C7 1.351 . S
N10 N11 1.365 1_565 S
N11 C8 1.341 1_545 S
N11 N10 1.365 1_545 S
N11 H31 0.862 . S
C12 C7 1.501 . S
C12 H13 0.961 . S
C12 H14 0.961 . S
C12 H15 0.960 . S
H13 C12 0.961 . S
H14 C12 0.961 . S
H15 C12 0.960 . S
C16 N17 1.342 . S
C16 C20 1.401 . S
C16 C21 1.499 . S
N17 Co0 1.989 . S
N17 C16 1.342 . S
N17 N18 1.388 . S
N18 Co1 1.993 . S
N18 N17 1.388 . S
N18 C19 1.346 . S
C19 N18 1.346 . S
C19 C20 1.396 . S
C19 C29 1.510 1_554 S
C20 C16 1.401 . S
C20 C19 1.396 . S
C21 C16 1.499 . S
C21 H22 0.959 . S
C21 H23 0.960 . S
C21 H24 0.961 . S
H22 C21 0.959 . S
H23 C21 0.960 . S
H24 C21 0.961 . S
O25 Co0 1.967 . S
O25 C33 1.258 . S
O26 Co1 1.941 . S
O26 C33 1.266 . S
H27 C29 0.959 . S
H28 C29 0.961 1_565 S
C29 C19 1.510 1_556 S
C29 H27 0.959 . S
C29 H28 0.961 1_545 S
C29 H30 0.960 1_545 S
H30 C29 0.960 1_565 S
H31 N11 0.862 . S
O32 Co0 1.920 . S
O32 C5 1.289 . S
C33 O25 1.258 . S
C33 O26 1.266 . S
Co34 O37 1.970 1_545 S
Co34 N51 1.989 . S
Co34 O59 1.967 . S
Co34 O66 1.920 1_554 S
Co35 O38 1.966 1_545 S
Co35 N44 2.022 1_545 S
Co35 N52 1.993 . S
Co35 O60 1.941 . S
C36 O37 1.258 . S
C36 O38 1.263 . S
O37 Co34 1.970 1_565 S
O37 C36 1.258 . S
O38 Co35 1.966 1_565 S
O38 C36 1.263 . S
C39 O40 1.235 1_545 S
C39 O66 1.289 . S
O40 C39 1.235 1_565 S
C41 C43 1.400 . S
C41 N44 1.351 . S
C41 C46 1.501 . S
C42 C43 1.387 . S
C42 N45 1.341 1_565 S
C43 C41 1.400 . S
C43 C42 1.387 . S
N44 Co35 2.022 1_565 S
N44 C41 1.351 . S
N44 N45 1.365 1_565 S
N45 C42 1.341 1_545 S
N45 N44 1.365 1_545 S
N45 H65 0.862 . S
C46 C41 1.501 . S
C46 H47 0.961 . S
C46 H48 0.961 . S
C46 H49 0.960 . S
H47 C46 0.961 . S
H48 C46 0.961 . S
H49 C46 0.960 . S
C50 N51 1.342 . S
C50 C54 1.401 . S
C50 C55 1.499 . S
N51 Co34 1.989 . S
N51 C50 1.342 . S
N51 N52 1.388 . S
N52 Co35 1.993 . S
N52 N51 1.388 . S
N52 C53 1.346 . S
C53 N52 1.346 . S
C53 C54 1.396 . S
C53 C63 1.510 . S
C54 C50 1.401 . S
C54 C53 1.396 . S
C55 C50 1.499 . S
C55 H56 0.959 . S
C55 H57 0.960 . S
C55 H58 0.961 . S
H56 C55 0.959 . S
H57 C55 0.960 . S
H58 C55 0.961 . S
O59 Co34 1.967 . S
O59 C67 1.258 . S
O60 Co35 1.941 . S
O60 C67 1.266 . S
H61 C63 0.959 . S
H62 C63 0.961 1_565 S
C63 C53 1.510 . S
C63 H61 0.959 . S
C63 H62 0.961 1_545 S
C63 H64 0.960 1_545 S
H64 C63 0.960 1_565 S
H65 N45 0.862 . S
O66 Co34 1.920 1_556 S
O66 C39 1.289 . S
C67 O59 1.258 . S
C67 O60 1.266 . S
Co68 O71 1.970 . S
Co68 N85 1.989 . S
Co68 O93 1.967 . S
Co68 O100 1.920 . S
Co69 O72 1.966 . S
Co69 N78 2.022 . S
Co69 N86 1.993 . S
Co69 O94 1.941 . S
C70 O71 1.258 . S
C70 O72 1.263 . S
O71 Co68 1.970 . S
O71 C70 1.258 . S
O72 Co69 1.966 . S
O72 C70 1.263 . S
C73 O74 1.235 . S
C73 O100 1.289 . S
O74 C73 1.235 . S
C75 C77 1.400 . S
C75 N78 1.351 . S
C75 C80 1.501 . S
C76 C77 1.387 . S
C76 N79 1.341 . S
C77 C75 1.400 . S
C77 C76 1.387 . S
N78 Co69 2.022 . S
N78 C75 1.351 . S
N78 N79 1.365 . S
N79 C76 1.341 . S
N79 N78 1.365 . S
N79 H99 0.862 . S
C80 C75 1.501 . S
C80 H81 0.961 . S
C80 H82 0.961 . S
C80 H83 0.960 . S
H81 C80 0.961 . S
H82 C80 0.961 . S
H83 C80 0.960 . S
C84 N85 1.342 . S
C84 C88 1.401 . S
C84 C89 1.499 . S
N85 Co68 1.989 . S
N85 C84 1.342 . S
N85 N86 1.388 . S
N86 Co69 1.993 . S
N86 N85 1.388 . S
N86 C87 1.346 . S
C87 N86 1.346 . S
C87 C88 1.396 . S
C87 C97 1.510 . S
C88 C84 1.401 . S
C88 C87 1.396 . S
C89 C84 1.499 . S
C89 H90 0.959 . S
C89 H91 0.960 . S
C89 H92 0.961 . S
H90 C89 0.959 . S
H91 C89 0.960 . S
H92 C89 0.961 . S
O93 Co68 1.967 . S
O93 C101 1.258 . S
O94 Co69 1.941 . S
O94 C101 1.266 . S
H95 C97 0.959 . S
H96 C97 0.961 . S
C97 C87 1.510 . S
C97 H95 0.959 . S
C97 H96 0.961 . S
C97 H98 0.960 . S
H98 C97 0.960 . S
H99 N79 0.862 . S
O100 Co68 1.920 . S
O100 C73 1.289 . S
C101 O93 1.258 . S
C101 O94 1.266 . S
Co102 O105 1.970 . S
Co102 N119 1.989 . S
Co102 O127 1.967 . S
Co102 O134 1.920 . S
Co103 O106 1.966 . S
Co103 N112 2.022 . S
Co103 N120 1.993 . S
Co103 O128 1.941 . S
C104 O105 1.258 . S
C104 O106 1.263 . S
O105 Co102 1.970 . S
O105 C104 1.258 . S
O106 Co103 1.966 . S
O106 C104 1.263 . S
C107 O108 1.235 . S
C107 O134 1.289 . S
O108 C107 1.235 . S
C109 C111 1.400 . S
C109 N112 1.351 . S
C109 C114 1.501 . S
C110 C111 1.387 . S
C110 N113 1.341 . S
C111 C109 1.400 . S
C111 C110 1.387 . S
N112 Co103 2.022 . S
N112 C109 1.351 . S
N112 N113 1.365 . S
N113 C110 1.341 . S
N113 N112 1.365 . S
N113 H133 0.862 . S
C114 C109 1.501 . S
C114 H115 0.961 . S
C114 H116 0.961 . S
C114 H117 0.960 . S
H115 C114 0.961 . S
H116 C114 0.961 . S
H117 C114 0.960 . S
C118 N119 1.342 . S
C118 C122 1.401 . S
C118 C123 1.499 . S
N119 Co102 1.989 . S
N119 C118 1.342 . S
N119 N120 1.388 . S
N120 Co103 1.993 . S
N120 N119 1.388 . S
N120 C121 1.346 . S
C121 N120 1.346 . S
C121 C122 1.396 . S
C121 C131 1.510 . S
C122 C118 1.401 . S
C122 C121 1.396 . S
C123 C118 1.499 . S
C123 H124 0.959 . S
C123 H125 0.960 . S
C123 H126 0.961 . S
H124 C123 0.959 . S
H125 C123 0.960 . S
H126 C123 0.961 . S
O127 Co102 1.967 . S
O127 C135 1.258 . S
O128 Co103 1.941 . S
O128 C135 1.266 . S
H129 C131 0.959 . S
H130 C131 0.961 . S
C131 C121 1.510 . S
C131 H129 0.959 . S
C131 H130 0.961 . S
C131 H132 0.960 . S
H132 C131 0.960 . S
H133 N113 0.862 . S
O134 Co102 1.920 . S
O134 C107 1.289 . S
C135 O127 1.258 . S
C135 O128 1.266 . S
Co136 O139 1.970 1_545 S
Co136 N153 1.989 . S
Co136 O161 1.967 . S
Co136 O168 1.920 . S
Co137 O140 1.966 1_545 S
Co137 N146 2.022 1_545 S
Co137 N154 1.993 . S
Co137 O162 1.941 . S
C138 O139 1.258 . S
C138 O140 1.263 . S
O139 Co136 1.970 1_565 S
O139 C138 1.258 . S
O140 Co137 1.966 1_565 S
O140 C138 1.263 . S
C141 O142 1.235 1_545 S
C141 O168 1.289 . S
O142 C141 1.235 1_565 S
C143 C145 1.400 . S
C143 N146 1.351 . S
C143 C148 1.501 . S
C144 C145 1.387 . S
C144 N147 1.341 1_565 S
C145 C143 1.400 . S
C145 C144 1.387 . S
N146 Co137 2.022 1_565 S
N146 C143 1.351 . S
N146 N147 1.365 1_565 S
N147 C144 1.341 1_545 S
N147 N146 1.365 1_545 S
N147 H167 0.862 . S
C148 C143 1.501 . S
C148 H149 0.961 . S
C148 H150 0.961 . S
C148 H151 0.960 . S
H149 C148 0.961 . S
H150 C148 0.961 . S
H151 C148 0.960 . S
C152 N153 1.342 . S
C152 C156 1.401 . S
C152 C157 1.499 . S
N153 Co136 1.989 . S
N153 C152 1.342 . S
N153 N154 1.388 . S
N154 Co137 1.993 . S
N154 N153 1.388 . S
N154 C155 1.346 . S
C155 N154 1.346 . S
C155 C156 1.396 . S
C155 C165 1.510 . S
C156 C152 1.401 . S
C156 C155 1.396 . S
C157 C152 1.499 . S
C157 H158 0.959 . S
C157 H159 0.960 . S
C157 H160 0.961 . S
H158 C157 0.959 . S
H159 C157 0.960 . S
H160 C157 0.961 . S
O161 Co136 1.967 . S
O161 C169 1.258 . S
O162 Co137 1.941 . S
O162 C169 1.266 . S
H163 C165 0.959 . S
H164 C165 0.961 1_565 S
C165 C155 1.510 . S
C165 H163 0.959 . S
C165 H164 0.961 1_545 S
C165 H166 0.960 1_545 S
H166 C165 0.960 1_565 S
H167 N147 0.862 . S
O168 Co136 1.920 . S
O168 C141 1.289 . S
C169 O161 1.258 . S
C169 O162 1.266 . S
Co170 O173 1.970 1_545 S
Co170 N187 1.989 . S
Co170 O195 1.967 . S
Co170 O202 1.920 . S
Co171 O174 1.966 1_545 S
Co171 N180 2.022 1_545 S
Co171 N188 1.993 . S
Co171 O196 1.941 . S
C172 O173 1.258 . S
C172 O174 1.263 . S
O173 Co170 1.970 1_565 S
O173 C172 1.258 . S
O174 Co171 1.966 1_565 S
O174 C172 1.263 . S
C175 O176 1.235 1_545 S
C175 O202 1.289 . S
O176 C175 1.235 1_565 S
C177 C179 1.400 . S
C177 N180 1.351 . S
C177 C182 1.501 . S
C178 C179 1.387 . S
C178 N181 1.341 1_565 S
C179 C177 1.400 . S
C179 C178 1.387 . S
N180 Co171 2.022 1_565 S
N180 C177 1.351 . S
N180 N181 1.365 1_565 S
N181 C178 1.341 1_545 S
N181 N180 1.365 1_545 S
N181 H201 0.862 . S
C182 C177 1.501 . S
C182 H183 0.961 . S
C182 H184 0.961 . S
C182 H185 0.960 . S
H183 C182 0.961 . S
H184 C182 0.961 . S
H185 C182 0.960 . S
C186 N187 1.342 . S
C186 C190 1.401 . S
C186 C191 1.499 . S
N187 Co170 1.989 . S
N187 C186 1.342 . S
N187 N188 1.388 . S
N188 Co171 1.993 . S
N188 N187 1.388 . S
N188 C189 1.346 . S
C189 N188 1.346 . S
C189 C190 1.396 . S
C189 C199 1.510 . S
C190 C186 1.401 . S
C190 C189 1.396 . S
C191 C186 1.499 . S
C191 H192 0.959 . S
C191 H193 0.960 . S
C191 H194 0.961 . S
H192 C191 0.959 . S
H193 C191 0.960 . S
H194 C191 0.961 . S
O195 Co170 1.967 . S
O195 C203 1.258 . S
O196 Co171 1.941 . S
O196 C203 1.266 . S
H197 C199 0.959 . S
H198 C199 0.961 1_565 S
C199 C189 1.510 . S
C199 H197 0.959 . S
C199 H198 0.961 1_545 S
C199 H200 0.960 1_545 S
H200 C199 0.960 1_565 S
H201 N181 0.862 . S
O202 Co170 1.920 . S
O202 C175 1.289 . S
C203 O195 1.258 . S
C203 O196 1.266 . S
Co204 O207 1.970 . S
Co204 N221 1.989 . S
Co204 O229 1.967 . S
Co204 O236 1.920 . S
Co205 O208 1.966 . S
Co205 N214 2.022 1_554 S
Co205 N222 1.993 . S
Co205 O230 1.941 . S
C206 O207 1.258 . S
C206 O208 1.263 . S
O207 Co204 1.970 . S
O207 C206 1.258 . S
O208 Co205 1.966 . S
O208 C206 1.263 . S
C209 O210 1.235 . S
C209 O236 1.289 . S
O210 C209 1.235 . S
C211 C213 1.400 . S
C211 N214 1.351 . S
C211 C216 1.501 . S
C212 C213 1.387 . S
C212 N215 1.341 . S
C213 C211 1.400 . S
C213 C212 1.387 . S
N214 Co205 2.022 1_556 S
N214 C211 1.351 . S
N214 N215 1.365 . S
N215 C212 1.341 . S
N215 N214 1.365 . S
N215 H235 0.862 . S
C216 C211 1.501 . S
C216 H217 0.961 . S
C216 H218 0.961 . S
C216 H219 0.960 . S
H217 C216 0.961 . S
H218 C216 0.961 . S
H219 C216 0.960 . S
C220 N221 1.342 . S
C220 C224 1.401 . S
C220 C225 1.499 . S
N221 Co204 1.989 . S
N221 C220 1.342 . S
N221 N222 1.388 . S
N222 Co205 1.993 . S
N222 N221 1.388 . S
N222 C223 1.346 . S
C223 N222 1.346 . S
C223 C224 1.396 . S
C223 C233 1.510 1_554 S
C224 C220 1.401 . S
C224 C223 1.396 . S
C225 C220 1.499 . S
C225 H226 0.959 . S
C225 H227 0.960 . S
C225 H228 0.961 . S
H226 C225 0.959 . S
H227 C225 0.960 . S
H228 C225 0.961 . S
O229 Co204 1.967 . S
O229 C237 1.258 . S
O230 Co205 1.941 . S
O230 C237 1.266 . S
H231 C233 0.959 . S
H232 C233 0.961 . S
C233 C223 1.510 1_556 S
C233 H231 0.959 . S
C233 H232 0.961 . S
C233 H234 0.960 . S
H234 C233 0.960 . S
H235 N215 0.862 . S
O236 Co204 1.920 . S
O236 C209 1.289 . S
C237 O229 1.258 . S
C237 O230 1.266 . S
Co238 O241 1.970 . S
Co238 N255 1.989 . S
Co238 O263 1.967 . S
Co238 O270 1.920 1_554 S
Co239 O242 1.966 . S
Co239 N248 2.022 . S
Co239 N256 1.993 . S
Co239 O264 1.941 . S
C240 O241 1.258 . S
C240 O242 1.263 . S
O241 Co238 1.970 . S
O241 C240 1.258 . S
O242 Co239 1.966 . S
O242 C240 1.263 . S
C243 O244 1.235 . S
C243 O270 1.289 . S
O244 C243 1.235 . S
C245 C247 1.400 . S
C245 N248 1.351 . S
C245 C250 1.501 . S
C246 C247 1.387 . S
C246 N249 1.341 . S
C247 C245 1.400 . S
C247 C246 1.387 . S
N248 Co239 2.022 . S
N248 C245 1.351 . S
N248 N249 1.365 . S
N249 C246 1.341 . S
N249 N248 1.365 . S
N249 H269 0.862 . S
C250 C245 1.501 . S
C250 H251 0.961 . S
C250 H252 0.961 . S
C250 H253 0.960 . S
H251 C250 0.961 . S
H252 C250 0.961 . S
H253 C250 0.960 . S
C254 N255 1.342 . S
C254 C258 1.401 . S
C254 C259 1.499 . S
N255 Co238 1.989 . S
N255 C254 1.342 . S
N255 N256 1.388 . S
N256 Co239 1.993 . S
N256 N255 1.388 . S
N256 C257 1.346 . S
C257 N256 1.346 . S
C257 C258 1.396 . S
C257 C267 1.510 . S
C258 C254 1.401 . S
C258 C257 1.396 . S
C259 C254 1.499 . S
C259 H260 0.959 . S
C259 H261 0.960 . S
C259 H262 0.961 . S
H260 C259 0.959 . S
H261 C259 0.960 . S
H262 C259 0.961 . S
O263 Co238 1.967 . S
O263 C271 1.258 . S
O264 Co239 1.941 . S
O264 C271 1.266 . S
H265 C267 0.959 . S
H266 C267 0.961 . S
C267 C257 1.510 . S
C267 H265 0.959 . S
C267 H266 0.961 . S
C267 H268 0.960 . S
H268 C267 0.960 . S
H269 N249 0.862 . S
O270 Co238 1.920 1_556 S
O270 C243 1.289 . S
C271 O263 1.258 . S
C271 O264 1.266 . S
C272 C273 1.349 . S
C272 C274 1.327 . S
C272 H297 0.950 . S
C273 C272 1.349 . S
C273 C289 1.349 . S
C274 C272 1.327 . S
C274 C293 1.429 . S
C274 H298 0.950 . S
C275 C292 1.574 . S
C275 C294 1.368 . S
C275 H299 0.949 . S
H276 C280 0.949 . S
C277 C278 1.349 . S
C277 C279 1.327 . S
C277 H300 0.950 . S
C278 C277 1.349 . S
C278 C290 1.349 . S
C279 C277 1.327 . S
C279 C295 1.429 . S
C279 H301 0.950 . S
C280 H276 0.949 . S
C280 C288 1.574 . S
C280 C296 1.368 . S
H281 C289 0.950 . S
H282 C287 0.950 . S
H283 C288 0.949 . S
H284 C290 0.950 . S
H285 C291 0.950 . S
H286 C292 0.949 . S
C287 H282 0.950 . S
C287 C289 1.327 . S
C287 C293 1.429 . S
C288 C280 1.574 . S
C288 H283 0.949 . S
C288 C294 1.368 . S
C289 C273 1.349 . S
C289 H281 0.950 . S
C289 C287 1.327 . S
C290 C278 1.349 . S
C290 H284 0.950 . S
C290 C291 1.327 . S
C291 H285 0.950 . S
C291 C290 1.327 . S
C291 C295 1.429 . S
C292 C275 1.574 . S
C292 H286 0.949 . S
C292 C296 1.368 . S
C293 C274 1.429 . S
C293 C287 1.429 . S
C293 C294 1.523 . S
C294 C275 1.368 . S
C294 C288 1.368 . S
C294 C293 1.523 . S
C295 C279 1.429 . S
C295 C291 1.429 . S
C295 C296 1.523 . S
C296 C280 1.368 . S
C296 C292 1.368 . S
C296 C295 1.523 . S
H297 C272 0.950 . S
H298 C274 0.950 . S
H299 C275 0.949 . S
H300 C277 0.950 . S
H301 C279 0.950 . S
C302 C303 1.349 . S
C302 C304 1.327 . S
C302 H327 0.950 . S
C303 C302 1.349 . S
C303 C319 1.349 . S
C304 C302 1.327 . S
C304 C323 1.429 . S
C304 H328 0.950 . S
C305 C322 1.574 . S
C305 C324 1.368 . S
C305 H329 0.949 . S
H306 C310 0.949 . S
C307 C308 1.349 . S
C307 C309 1.327 . S
C307 H330 0.950 . S
C308 C307 1.349 . S
C308 C320 1.349 . S
C309 C307 1.327 . S
C309 C325 1.429 . S
C309 H331 0.950 . S
C310 H306 0.949 . S
C310 C318 1.574 . S
C310 C326 1.368 . S
H311 C319 0.950 . S
H312 C317 0.950 . S
H313 C318 0.949 . S
H314 C320 0.950 . S
H315 C321 0.950 . S
H316 C322 0.949 . S
C317 H312 0.950 . S
C317 C319 1.327 . S
C317 C323 1.429 . S
C318 C310 1.574 . S
C318 H313 0.949 . S
C318 C324 1.368 . S
C319 C303 1.349 . S
C319 H311 0.950 . S
C319 C317 1.327 . S
C320 C308 1.349 . S
C320 H314 0.950 . S
C320 C321 1.327 . S
C321 H315 0.950 . S
C321 C320 1.327 . S
C321 C325 1.429 . S
C322 C305 1.574 . S
C322 H316 0.949 . S
C322 C326 1.368 . S
C323 C304 1.429 . S
C323 C317 1.429 . S
C323 C324 1.523 . S
C324 C305 1.368 . S
C324 C318 1.368 . S
C324 C323 1.523 . S
C325 C309 1.429 . S
C325 C321 1.429 . S
C325 C326 1.523 . S
C326 C310 1.368 . S
C326 C322 1.368 . S
C326 C325 1.523 . S
H327 C302 0.950 . S
H328 C304 0.950 . S
H329 C305 0.949 . S
H330 C307 0.950 . S
H331 C309 0.950 . S
C332 C333 1.349 . S
C332 C334 1.327 . S
C332 H357 0.950 . S
C333 C332 1.349 . S
C333 C349 1.349 . S
C334 C332 1.327 . S
C334 C353 1.429 . S
C334 H358 0.950 . S
C335 C352 1.574 . S
C335 C354 1.368 . S
C335 H359 0.949 . S
H336 C340 0.949 . S
C337 C338 1.349 . S
C337 C339 1.327 . S
C337 H360 0.950 . S
C338 C337 1.349 . S
C338 C350 1.349 . S
C339 C337 1.327 . S
C339 C355 1.429 . S
C339 H361 0.950 . S
C340 H336 0.949 . S
C340 C348 1.574 . S
C340 C356 1.368 . S
H341 C349 0.950 . S
H342 C347 0.950 . S
H343 C348 0.949 . S
H344 C350 0.950 . S
H345 C351 0.950 . S
H346 C352 0.949 . S
C347 H342 0.950 . S
C347 C349 1.327 . S
C347 C353 1.429 . S
C348 C340 1.574 . S
C348 H343 0.949 . S
C348 C354 1.368 . S
C349 C333 1.349 . S
C349 H341 0.950 . S
C349 C347 1.327 . S
C350 C338 1.349 . S
C350 H344 0.950 . S
C350 C351 1.327 . S
C351 H345 0.950 . S
C351 C350 1.327 . S
C351 C355 1.429 . S
C352 C335 1.574 . S
C352 H346 0.949 . S
C352 C356 1.368 . S
C353 C334 1.429 . S
C353 C347 1.429 . S
C353 C354 1.523 . S
C354 C335 1.368 . S
C354 C348 1.368 . S
C354 C353 1.523 . S
C355 C339 1.429 . S
C355 C351 1.429 . S
C355 C356 1.523 . S
C356 C340 1.368 . S
C356 C352 1.368 . S
C356 C355 1.523 . S
H357 C332 0.950 . S
H358 C334 0.950 . S
H359 C335 0.949 . S
H360 C337 0.950 . S
H361 C339 0.950 . S
C362 C363 1.349 . S
C362 C364 1.327 . S
C362 H387 0.950 . S
C363 C362 1.349 . S
C363 C379 1.349 . S
C364 C362 1.327 . S
C364 C383 1.429 . S
C364 H388 0.950 . S
C365 C382 1.574 . S
C365 C384 1.368 . S
C365 H389 0.949 . S
H366 C370 0.949 . S
C367 C368 1.349 . S
C367 C369 1.327 . S
C367 H390 0.950 . S
C368 C367 1.349 . S
C368 C380 1.349 . S
C369 C367 1.327 . S
C369 C385 1.429 . S
C369 H391 0.950 . S
C370 H366 0.949 . S
C370 C378 1.574 . S
C370 C386 1.368 . S
H371 C379 0.950 . S
H372 C377 0.950 . S
H373 C378 0.949 . S
H374 C380 0.950 . S
H375 C381 0.950 . S
H376 C382 0.949 . S
C377 H372 0.950 . S
C377 C379 1.327 . S
C377 C383 1.429 . S
C378 C370 1.574 . S
C378 H373 0.949 . S
C378 C384 1.368 . S
C379 C363 1.349 . S
C379 H371 0.950 . S
C379 C377 1.327 . S
C380 C368 1.349 . S
C380 H374 0.950 . S
C380 C381 1.327 . S
C381 H375 0.950 . S
C381 C380 1.327 . S
C381 C385 1.429 . S
C382 C365 1.574 . S
C382 H376 0.949 . S
C382 C386 1.368 . S
C383 C364 1.429 . S
C383 C377 1.429 . S
C383 C384 1.523 . S
C384 C365 1.368 . S
C384 C378 1.368 . S
C384 C383 1.523 . S
C385 C369 1.429 . S
C385 C381 1.429 . S
C385 C386 1.523 . S
C386 C370 1.368 . S
C386 C382 1.368 . S
C386 C385 1.523 . S
H387 C362 0.950 . S
H388 C364 0.950 . S
H389 C365 0.949 . S
H390 C367 0.950 . S
H391 C369 0.950 . S
C392 C393 1.349 . S
C392 C394 1.327 . S
C392 H417 0.950 . S
C393 C392 1.349 . S
C393 C409 1.349 . S
C394 C392 1.327 . S
C394 C413 1.429 . S
C394 H418 0.950 . S
C395 C412 1.574 . S
C395 C414 1.368 . S
C395 H419 0.949 . S
H396 C400 0.949 . S
C397 C398 1.349 . S
C397 C399 1.327 . S
C397 H420 0.950 . S
C398 C397 1.349 . S
C398 C410 1.349 . S
C399 C397 1.327 . S
C399 C415 1.429 . S
C399 H421 0.950 . S
C400 H396 0.949 . S
C400 C408 1.574 . S
C400 C416 1.368 . S
H401 C409 0.950 . S
H402 C407 0.950 . S
H403 C408 0.949 . S
H404 C410 0.950 . S
H405 C411 0.950 . S
H406 C412 0.949 . S
C407 H402 0.950 . S
C407 C409 1.327 . S
C407 C413 1.429 . S
C408 C400 1.574 . S
C408 H403 0.949 . S
C408 C414 1.368 . S
C409 C393 1.349 . S
C409 H401 0.950 . S
C409 C407 1.327 . S
C410 C398 1.349 . S
C410 H404 0.950 . S
C410 C411 1.327 . S
C411 H405 0.950 . S
C411 C410 1.327 . S
C411 C415 1.429 . S
C412 C395 1.574 . S
C412 H406 0.949 . S
C412 C416 1.368 . S
C413 C394 1.429 . S
C413 C407 1.429 . S
C413 C414 1.523 . S
C414 C395 1.368 . S
C414 C408 1.368 . S
C414 C413 1.523 . S
C415 C399 1.429 . S
C415 C411 1.429 . S
C415 C416 1.523 . S
C416 C400 1.368 . S
C416 C412 1.368 . S
C416 C415 1.523 . S
H417 C392 0.950 . S
H418 C394 0.950 . S
H419 C395 0.949 . S
H420 C397 0.950 . S
H421 C399 0.950 . S
C422 C423 1.349 . S
C422 C424 1.327 . S
C422 H447 0.950 . S
C423 C422 1.349 . S
C423 C439 1.349 . S
C424 C422 1.327 . S
C424 C443 1.429 . S
C424 H448 0.950 . S
C425 C442 1.574 . S
C425 C444 1.368 . S
C425 H449 0.949 . S
H426 C430 0.949 . S
C427 C428 1.349 . S
C427 C429 1.327 . S
C427 H450 0.950 . S
C428 C427 1.349 . S
C428 C440 1.349 . S
C429 C427 1.327 . S
C429 C445 1.429 . S
C429 H451 0.950 . S
C430 H426 0.949 . S
C430 C438 1.574 . S
C430 C446 1.368 . S
H431 C439 0.950 . S
H432 C437 0.950 . S
H433 C438 0.949 . S
H434 C440 0.950 . S
H435 C441 0.950 . S
H436 C442 0.949 . S
C437 H432 0.950 . S
C437 C439 1.327 . S
C437 C443 1.429 . S
C438 C430 1.574 . S
C438 H433 0.949 . S
C438 C444 1.368 . S
C439 C423 1.349 . S
C439 H431 0.950 . S
C439 C437 1.327 . S
C440 C428 1.349 . S
C440 H434 0.950 . S
C440 C441 1.327 . S
C441 H435 0.950 . S
C441 C440 1.327 . S
C441 C445 1.429 . S
C442 C425 1.574 . S
C442 H436 0.949 . S
C442 C446 1.368 . S
C443 C424 1.429 . S
C443 C437 1.429 . S
C443 C444 1.523 . S
C444 C425 1.368 . S
C444 C438 1.368 . S
C444 C443 1.523 . S
C445 C429 1.429 . S
C445 C441 1.429 . S
C445 C446 1.523 . S
C446 C430 1.368 . S
C446 C442 1.368 . S
C446 C445 1.523 . S
H447 C422 0.950 . S
H448 C424 0.950 . S
H449 C425 0.949 . S
H450 C427 0.950 . S
H451 C429 0.950 . S
C452 C453 1.349 . S
C452 C454 1.327 . S
C452 H477 0.950 . S
C453 C452 1.349 . S
C453 C469 1.349 . S
C454 C452 1.327 . S
C454 C473 1.429 . S
C454 H478 0.950 . S
C455 C472 1.574 . S
C455 C474 1.368 . S
C455 H479 0.949 . S
H456 C460 0.949 . S
C457 C458 1.349 . S
C457 C459 1.327 . S
C457 H480 0.950 . S
C458 C457 1.349 . S
C458 C470 1.349 . S
C459 C457 1.327 . S
C459 C475 1.429 . S
C459 H481 0.950 . S
C460 H456 0.949 . S
C460 C468 1.574 . S
C460 C476 1.368 . S
H461 C469 0.950 . S
H462 C467 0.950 . S
H463 C468 0.949 . S
H464 C470 0.950 . S
H465 C471 0.950 . S
H466 C472 0.949 . S
C467 H462 0.950 . S
C467 C469 1.327 . S
C467 C473 1.429 . S
C468 C460 1.574 . S
C468 H463 0.949 . S
C468 C474 1.368 . S
C469 C453 1.349 . S
C469 H461 0.950 . S
C469 C467 1.327 . S
C470 C458 1.349 . S
C470 H464 0.950 . S
C470 C471 1.327 . S
C471 H465 0.950 . S
C471 C470 1.327 . S
C471 C475 1.429 . S
C472 C455 1.574 . S
C472 H466 0.949 . S
C472 C476 1.368 . S
C473 C454 1.429 . S
C473 C467 1.429 . S
C473 C474 1.523 . S
C474 C455 1.368 . S
C474 C468 1.368 . S
C474 C473 1.523 . S
C475 C459 1.429 . S
C475 C471 1.429 . S
C475 C476 1.523 . S
C476 C460 1.368 . S
C476 C472 1.368 . S
C476 C475 1.523 . S
H477 C452 0.950 . S
H478 C454 0.950 . S
H479 C455 0.949 . S
H480 C457 0.950 . S
H481 C459 0.950 . S
C482 C483 1.349 . S
C482 C484 1.327 . S
C482 H507 0.950 . S
C483 C482 1.349 . S
C483 C499 1.349 . S
C484 C482 1.327 . S
C484 C503 1.429 . S
C484 H508 0.950 . S
C485 C502 1.574 . S
C485 C504 1.368 . S
C485 H509 0.949 . S
H486 C490 0.949 . S
C487 C488 1.349 . S
C487 C489 1.327 . S
C487 H510 0.950 . S
C488 C487 1.349 . S
C488 C500 1.349 . S
C489 C487 1.327 . S
C489 C505 1.429 . S
C489 H511 0.950 . S
C490 H486 0.949 . S
C490 C498 1.574 . S
C490 C506 1.368 . S
H491 C499 0.950 . S
H492 C497 0.950 . S
H493 C498 0.949 . S
H494 C500 0.950 . S
H495 C501 0.950 . S
H496 C502 0.949 . S
C497 H492 0.950 . S
C497 C499 1.327 . S
C497 C503 1.429 . S
C498 C490 1.574 . S
C498 H493 0.949 . S
C498 C504 1.368 . S
C499 C483 1.349 . S
C499 H491 0.950 . S
C499 C497 1.327 . S
C500 C488 1.349 . S
C500 H494 0.950 . S
C500 C501 1.327 . S
C501 H495 0.950 . S
C501 C500 1.327 . S
C501 C505 1.429 . S
C502 C485 1.574 . S
C502 H496 0.949 . S
C502 C506 1.368 . S
C503 C484 1.429 . S
C503 C497 1.429 . S
C503 C504 1.523 . S
C504 C485 1.368 . S
C504 C498 1.368 . S
C504 C503 1.523 . S
C505 C489 1.429 . S
C505 C501 1.429 . S
C505 C506 1.523 . S
C506 C490 1.368 . S
C506 C502 1.368 . S
C506 C505 1.523 . S
H507 C482 0.950 . S
H508 C484 0.950 . S
H509 C485 0.949 . S
H510 C487 0.950 . S
H511 C489 0.950 . S
C512 C513 1.349 . S
C512 C514 1.327 . S
C512 H537 0.950 . S
C513 C512 1.349 . S
C513 C529 1.349 . S
C514 C512 1.327 . S
C514 C533 1.429 . S
C514 H538 0.950 . S
C515 C532 1.574 . S
C515 C534 1.368 . S
C515 H539 0.949 1_545 S
H516 C520 0.949 . S
C517 C518 1.349 . S
C517 C519 1.327 . S
C517 H540 0.950 1_545 S
C518 C517 1.349 . S
C518 C530 1.349 . S
C519 C517 1.327 . S
C519 C535 1.429 . S
C519 H541 0.950 1_545 S
C520 H516 0.949 . S
C520 C528 1.574 . S
C520 C536 1.368 . S
H521 C529 0.950 1_565 S
H522 C527 0.950 1_565 S
H523 C528 0.949 . S
H524 C530 0.950 . S
H525 C531 0.950 . S
H526 C532 0.949 1_565 S
C527 H522 0.950 1_545 S
C527 C529 1.327 . S
C527 C533 1.429 . S
C528 C520 1.574 . S
C528 H523 0.949 . S
C528 C534 1.368 . S
C529 C513 1.349 . S
C529 H521 0.950 1_545 S
C529 C527 1.327 . S
C530 C518 1.349 . S
C530 H524 0.950 . S
C530 C531 1.327 . S
C531 H525 0.950 . S
C531 C530 1.327 . S
C531 C535 1.429 . S
C532 C515 1.574 . S
C532 H526 0.949 1_545 S
C532 C536 1.368 . S
C533 C514 1.429 . S
C533 C527 1.429 . S
C533 C534 1.523 . S
C534 C515 1.368 . S
C534 C528 1.368 . S
C534 C533 1.523 . S
C535 C519 1.429 . S
C535 C531 1.429 . S
C535 C536 1.523 . S
C536 C520 1.368 . S
C536 C532 1.368 . S
C536 C535 1.523 . S
H537 C512 0.950 . S
H538 C514 0.950 . S
H539 C515 0.949 1_565 S
H540 C517 0.950 1_565 S
H541 C519 0.950 1_565 S
C542 C543 1.349 . S
C542 C544 1.327 . S
C542 H567 0.950 . S
C543 C542 1.349 . S
C543 C559 1.349 . S
C544 C542 1.327 . S
C544 C563 1.429 . S
C544 H568 0.950 . S
C545 C562 1.574 . S
C545 C564 1.368 . S
C545 H569 0.949 . S
H546 C550 0.949 . S
C547 C548 1.349 . S
C547 C549 1.327 . S
C547 H570 0.950 . S
C548 C547 1.349 . S
C548 C560 1.349 . S
C549 C547 1.327 . S
C549 C565 1.429 . S
C549 H571 0.950 . S
C550 H546 0.949 . S
C550 C558 1.574 . S
C550 C566 1.368 . S
H551 C559 0.950 . S
H552 C557 0.950 . S
H553 C558 0.949 . S
H554 C560 0.950 . S
H555 C561 0.950 . S
H556 C562 0.949 . S
C557 H552 0.950 . S
C557 C559 1.327 . S
C557 C563 1.429 . S
C558 C550 1.574 . S
C558 H553 0.949 . S
C558 C564 1.368 . S
C559 C543 1.349 . S
C559 H551 0.950 . S
C559 C557 1.327 . S
C560 C548 1.349 . S
C560 H554 0.950 . S
C560 C561 1.327 . S
C561 H555 0.950 . S
C561 C560 1.327 . S
C561 C565 1.429 . S
C562 C545 1.574 . S
C562 H556 0.949 . S
C562 C566 1.368 . S
C563 C544 1.429 . S
C563 C557 1.429 . S
C563 C564 1.523 . S
C564 C545 1.368 . S
C564 C558 1.368 . S
C564 C563 1.523 . S
C565 C549 1.429 . S
C565 C561 1.429 . S
C565 C566 1.523 . S
C566 C550 1.368 . S
C566 C562 1.368 . S
C566 C565 1.523 . S
H567 C542 0.950 . S
H568 C544 0.950 . S
H569 C545 0.949 . S
H570 C547 0.950 . S
H571 C549 0.950 . S
C572 C573 1.349 . S
C572 C574 1.327 . S
C572 H597 0.950 . S
C573 C572 1.349 . S
C573 C589 1.349 . S
C574 C572 1.327 . S
C574 C593 1.429 . S
C574 H598 0.950 . S
C575 C592 1.574 1_455 S
C575 C594 1.368 . S
C575 H599 0.949 1_545 S
H576 C580 0.949 . S
C577 C578 1.349 . S
C577 C579 1.327 . S
C577 H600 0.950 1_545 S
C578 C577 1.349 . S
C578 C590 1.349 . S
C579 C577 1.327 . S
C579 C595 1.429 . S
C579 H601 0.950 1_545 S
C580 H576 0.949 . S
C580 C588 1.574 1_655 S
C580 C596 1.368 . S
H581 C589 0.950 1_565 S
H582 C587 0.950 1_565 S
H583 C588 0.949 . S
H584 C590 0.950 . S
H585 C591 0.950 . S
H586 C592 0.949 1_565 S
C587 H582 0.950 1_545 S
C587 C589 1.327 . S
C587 C593 1.429 . S
C588 C580 1.574 1_455 S
C588 H583 0.949 . S
C588 C594 1.368 . S
C589 C573 1.349 . S
C589 H581 0.950 1_545 S
C589 C587 1.327 . S
C590 C578 1.349 . S
C590 H584 0.950 . S
C590 C591 1.327 . S
C591 H585 0.950 . S
C591 C590 1.327 . S
C591 C595 1.429 . S
C592 C575 1.574 1_655 S
C592 H586 0.949 1_545 S
C592 C596 1.368 . S
C593 C574 1.429 . S
C593 C587 1.429 . S
C593 C594 1.523 . S
C594 C575 1.368 . S
C594 C588 1.368 . S
C594 C593 1.523 . S
C595 C579 1.429 . S
C595 C591 1.429 . S
C595 C596 1.523 . S
C596 C580 1.368 . S
C596 C592 1.368 . S
C596 C595 1.523 . S
H597 C572 0.950 . S
H598 C574 0.950 . S
H599 C575 0.949 1_565 S
H600 C577 0.950 1_565 S
H601 C579 0.950 1_565 S
C602 C603 1.349 . S
C602 C604 1.327 . S
C602 H627 0.950 . S
C603 C602 1.349 . S
C603 C619 1.349 . S
C604 C602 1.327 . S
C604 C623 1.429 . S
C604 H628 0.950 . S
C605 C622 1.574 1_655 S
C605 C624 1.368 . S
C605 H629 0.949 . S
H606 C610 0.949 . S
C607 C608 1.349 . S
C607 C609 1.327 . S
C607 H630 0.950 . S
C608 C607 1.349 . S
C608 C620 1.349 . S
C609 C607 1.327 . S
C609 C625 1.429 . S
C609 H631 0.950 . S
C610 H606 0.949 . S
C610 C618 1.574 1_455 S
C610 C626 1.368 . S
H611 C619 0.950 . S
H612 C617 0.950 . S
H613 C618 0.949 . S
H614 C620 0.950 . S
H615 C621 0.950 . S
H616 C622 0.949 . S
C617 H612 0.950 . S
C617 C619 1.327 . S
C617 C623 1.429 . S
C618 C610 1.574 1_655 S
C618 H613 0.949 . S
C618 C624 1.368 . S
C619 C603 1.349 . S
C619 H611 0.950 . S
C619 C617 1.327 . S
C620 C608 1.349 . S
C620 H614 0.950 . S
C620 C621 1.327 . S
C621 H615 0.950 . S
C621 C620 1.327 . S
C621 C625 1.429 . S
C622 C605 1.574 1_455 S
C622 H616 0.949 . S
C622 C626 1.368 . S
C623 C604 1.429 . S
C623 C617 1.429 . S
C623 C624 1.523 . S
C624 C605 1.368 . S
C624 C618 1.368 . S
C624 C623 1.523 . S
C625 C609 1.429 . S
C625 C621 1.429 . S
C625 C626 1.523 . S
C626 C610 1.368 . S
C626 C622 1.368 . S
C626 C625 1.523 . S
H627 C602 0.950 . S
H628 C604 0.950 . S
H629 C605 0.949 . S
H630 C607 0.950 . S
H631 C609 0.950 . S
C632 C633 1.349 . S
C632 C634 1.327 . S
C632 H657 0.950 . S
C633 C632 1.349 . S
C633 C649 1.349 . S
C634 C632 1.327 . S
C634 C653 1.429 . S
C634 H658 0.950 . S
C635 C652 1.574 . S
C635 C654 1.368 . S
C635 H659 0.949 . S
H636 C640 0.949 . S
C637 C638 1.349 . S
C637 C639 1.327 . S
C637 H660 0.950 . S
C638 C637 1.349 . S
C638 C650 1.349 . S
C639 C637 1.327 . S
C639 C655 1.429 . S
C639 H661 0.950 . S
C640 H636 0.949 . S
C640 C648 1.574 . S
C640 C656 1.368 . S
H641 C649 0.950 . S
H642 C647 0.950 . S
H643 C648 0.949 . S
H644 C650 0.950 . S
H645 C651 0.950 . S
H646 C652 0.949 . S
C647 H642 0.950 . S
C647 C649 1.327 . S
C647 C653 1.429 . S
C648 C640 1.574 . S
C648 H643 0.949 . S
C648 C654 1.368 . S
C649 C633 1.349 . S
C649 H641 0.950 . S
C649 C647 1.327 . S
C650 C638 1.349 . S
C650 H644 0.950 . S
C650 C651 1.327 . S
C651 H645 0.950 . S
C651 C650 1.327 . S
C651 C655 1.429 . S
C652 C635 1.574 . S
C652 H646 0.949 . S
C652 C656 1.368 . S
C653 C634 1.429 . S
C653 C647 1.429 . S
C653 C654 1.523 . S
C654 C635 1.368 . S
C654 C648 1.368 . S
C654 C653 1.523 . S
C655 C639 1.429 . S
C655 C651 1.429 . S
C655 C656 1.523 . S
C656 C640 1.368 . S
C656 C652 1.368 . S
C656 C655 1.523 . S
H657 C632 0.950 . S
H658 C634 0.950 . S
H659 C635 0.949 . S
H660 C637 0.950 . S
H661 C639 0.950 . S
C662 C663 1.349 . S
C662 C664 1.327 . S
C662 H687 0.950 1_554 S
C663 C662 1.349 . S
C663 C679 1.349 . S
C664 C662 1.327 . S
C664 C683 1.429 . S
C664 H688 0.950 1_554 S
C665 C682 1.574 . S
C665 C684 1.368 . S
C665 H689 0.949 . S
H666 C670 0.949 . S
C667 C668 1.349 . S
C667 C669 1.327 . S
C667 H690 0.950 . S
C668 C667 1.349 . S
C668 C680 1.349 . S
C669 C667 1.327 . S
C669 C685 1.429 . S
C669 H691 0.950 . S
C670 H666 0.949 . S
C670 C678 1.574 . S
C670 C686 1.368 . S
H671 C679 0.950 . S
H672 C677 0.950 . S
H673 C678 0.949 1_556 S
H674 C680 0.950 . S
H675 C681 0.950 . S
H676 C682 0.949 . S
C677 H672 0.950 . S
C677 C679 1.327 . S
C677 C683 1.429 . S
C678 C670 1.574 . S
C678 H673 0.949 1_554 S
C678 C684 1.368 . S
C679 C663 1.349 . S
C679 H671 0.950 . S
C679 C677 1.327 . S
C680 C668 1.349 . S
C680 H674 0.950 . S
C680 C681 1.327 . S
C681 H675 0.950 . S
C681 C680 1.327 . S
C681 C685 1.429 . S
C682 C665 1.574 . S
C682 H676 0.949 . S
C682 C686 1.368 . S
C683 C664 1.429 . S
C683 C677 1.429 . S
C683 C684 1.523 . S
C684 C665 1.368 . S
C684 C678 1.368 . S
C684 C683 1.523 . S
C685 C669 1.429 . S
C685 C681 1.429 . S
C685 C686 1.523 . S
C686 C670 1.368 . S
C686 C682 1.368 . S
C686 C685 1.523 . S
H687 C662 0.950 1_556 S
H688 C664 0.950 1_556 S
H689 C665 0.949 . S
H690 C667 0.950 . S
H691 C669 0.950 . S
C692 C693 1.349 . S
C692 C694 1.327 . S
C692 H717 0.950 . S
C693 C692 1.349 . S
C693 C709 1.349 . S
C694 C692 1.327 . S
C694 C713 1.429 . S
C694 H718 0.950 . S
C695 C712 1.574 . S
C695 C714 1.368 . S
C695 H719 0.949 . S
H696 C700 0.949 . S
C697 C698 1.349 . S
C697 C699 1.327 . S
C697 H720 0.950 . S
C698 C697 1.349 . S
C698 C710 1.349 . S
C699 C697 1.327 . S
C699 C715 1.429 . S
C699 H721 0.950 . S
C700 H696 0.949 . S
C700 C708 1.574 . S
C700 C716 1.368 . S
H701 C709 0.950 . S
H702 C707 0.950 . S
H703 C708 0.949 . S
H704 C710 0.950 . S
H705 C711 0.950 . S
H706 C712 0.949 . S
C707 H702 0.950 . S
C707 C709 1.327 . S
C707 C713 1.429 . S
C708 C700 1.574 . S
C708 H703 0.949 . S
C708 C714 1.368 . S
C709 C693 1.349 . S
C709 H701 0.950 . S
C709 C707 1.327 . S
C710 C698 1.349 . S
C710 H704 0.950 . S
C710 C711 1.327 . S
C711 H705 0.950 . S
C711 C710 1.327 . S
C711 C715 1.429 . S
C712 C695 1.574 . S
C712 H706 0.949 . S
C712 C716 1.368 . S
C713 C694 1.429 . S
C713 C707 1.429 . S
C713 C714 1.523 . S
C714 C695 1.368 . S
C714 C708 1.368 . S
C714 C713 1.523 . S
C715 C699 1.429 . S
C715 C711 1.429 . S
C715 C716 1.523 . S
C716 C700 1.368 . S
C716 C712 1.368 . S
C716 C715 1.523 . S
H717 C692 0.950 . S
H718 C694 0.950 . S
H719 C695 0.949 . S
H720 C697 0.950 . S
H721 C699 0.950 . S
C722 C723 1.349 . S
C722 C724 1.327 . S
C722 H747 0.950 . S
C723 C722 1.349 . S
C723 C739 1.349 . S
C724 C722 1.327 . S
C724 C743 1.429 . S
C724 H748 0.950 . S
C725 C742 1.574 . S
C725 C744 1.368 . S
C725 H749 0.949 . S
H726 C730 0.949 . S
C727 C728 1.349 . S
C727 C729 1.327 . S
C727 H750 0.950 . S
C728 C727 1.349 . S
C728 C740 1.349 . S
C729 C727 1.327 . S
C729 C745 1.429 . S
C729 H751 0.950 . S
C730 H726 0.949 . S
C730 C738 1.574 . S
C730 C746 1.368 . S
H731 C739 0.950 . S
H732 C737 0.950 . S
H733 C738 0.949 . S
H734 C740 0.950 . S
H735 C741 0.950 . S
H736 C742 0.949 . S
C737 H732 0.950 . S
C737 C739 1.327 . S
C737 C743 1.429 . S
C738 C730 1.574 . S
C738 H733 0.949 . S
C738 C744 1.368 . S
C739 C723 1.349 . S
C739 H731 0.950 . S
C739 C737 1.327 . S
C740 C728 1.349 . S
C740 H734 0.950 . S
C740 C741 1.327 . S
C741 H735 0.950 . S
C741 C740 1.327 . S
C741 C745 1.429 . S
C742 C725 1.574 . S
C742 H736 0.949 . S
C742 C746 1.368 . S
C743 C724 1.429 . S
C743 C737 1.429 . S
C743 C744 1.523 . S
C744 C725 1.368 . S
C744 C738 1.368 . S
C744 C743 1.523 . S
C745 C729 1.429 . S
C745 C741 1.429 . S
C745 C746 1.523 . S
C746 C730 1.368 . S
C746 C742 1.368 . S
C746 C745 1.523 . S
H747 C722 0.950 . S
H748 C724 0.950 . S
H749 C725 0.949 . S
H750 C727 0.950 . S
H751 C729 0.950 . S
C752 C753 1.349 . S
C752 C754 1.327 . S
C752 H777 0.950 . S
C753 C752 1.349 . S
C753 C769 1.349 . S
C754 C752 1.327 . S
C754 C773 1.429 . S
C754 H778 0.950 . S
C755 C772 1.574 . S
C755 C774 1.368 . S
C755 H779 0.949 . S
H756 C760 0.949 . S
C757 C758 1.349 . S
C757 C759 1.327 . S
C757 H780 0.950 . S
C758 C757 1.349 . S
C758 C770 1.349 . S
C759 C757 1.327 . S
C759 C775 1.429 . S
C759 H781 0.950 . S
C760 H756 0.949 . S
C760 C768 1.574 . S
C760 C776 1.368 . S
H761 C769 0.950 . S
H762 C767 0.950 . S
H763 C768 0.949 . S
H764 C770 0.950 . S
H765 C771 0.950 . S
H766 C772 0.949 . S
C767 H762 0.950 . S
C767 C769 1.327 . S
C767 C773 1.429 . S
C768 C760 1.574 . S
C768 H763 0.949 . S
C768 C774 1.368 . S
C769 C753 1.349 . S
C769 H761 0.950 . S
C769 C767 1.327 . S
C770 C758 1.349 . S
C770 H764 0.950 . S
C770 C771 1.327 . S
C771 H765 0.950 . S
C771 C770 1.327 . S
C771 C775 1.429 . S
C772 C755 1.574 . S
C772 H766 0.949 . S
C772 C776 1.368 . S
C773 C754 1.429 . S
C773 C767 1.429 . S
C773 C774 1.523 . S
C774 C755 1.368 . S
C774 C768 1.368 . S
C774 C773 1.523 . S
C775 C759 1.429 . S
C775 C771 1.429 . S
C775 C776 1.523 . S
C776 C760 1.368 . S
C776 C772 1.368 . S
C776 C775 1.523 . S
H777 C752 0.950 . S
H778 C754 0.950 . S
H779 C755 0.949 . S
H780 C757 0.950 . S
H781 C759 0.950 . S
C782 C783 1.349 . S
C782 C784 1.327 . S
C782 H807 0.950 . S
C783 C782 1.349 . S
C783 C799 1.349 . S
C784 C782 1.327 . S
C784 C803 1.429 . S
C784 H808 0.950 . S
C785 C802 1.574 . S
C785 C804 1.368 . S
C785 H809 0.949 . S
H786 C790 0.949 . S
C787 C788 1.349 . S
C787 C789 1.327 . S
C787 H810 0.950 . S
C788 C787 1.349 . S
C788 C800 1.349 . S
C789 C787 1.327 . S
C789 C805 1.429 . S
C789 H811 0.950 . S
C790 H786 0.949 . S
C790 C798 1.574 . S
C790 C806 1.368 . S
H791 C799 0.950 . S
H792 C797 0.950 . S
H793 C798 0.949 . S
H794 C800 0.950 . S
H795 C801 0.950 . S
H796 C802 0.949 . S
C797 H792 0.950 . S
C797 C799 1.327 . S
C797 C803 1.429 . S
C798 C790 1.574 . S
C798 H793 0.949 . S
C798 C804 1.368 . S
C799 C783 1.349 . S
C799 H791 0.950 . S
C799 C797 1.327 . S
C800 C788 1.349 . S
C800 H794 0.950 . S
C800 C801 1.327 . S
C801 H795 0.950 . S
C801 C800 1.327 . S
C801 C805 1.429 . S
C802 C785 1.574 . S
C802 H796 0.949 . S
C802 C806 1.368 . S
C803 C784 1.429 . S
C803 C797 1.429 . S
C803 C804 1.523 . S
C804 C785 1.368 . S
C804 C798 1.368 . S
C804 C803 1.523 . S
C805 C789 1.429 . S
C805 C801 1.429 . S
C805 C806 1.523 . S
C806 C790 1.368 . S
C806 C802 1.368 . S
C806 C805 1.523 . S
H807 C782 0.950 . S
H808 C784 0.950 . S
H809 C785 0.949 . S
H810 C787 0.950 . S
H811 C789 0.950 . S
C812 C813 1.349 . S
C812 C814 1.327 . S
C812 H837 0.950 . S
C813 C812 1.349 . S
C813 C829 1.349 . S
C814 C812 1.327 . S
C814 C833 1.429 . S
C814 H838 0.950 . S
C815 C832 1.574 . S
C815 C834 1.368 . S
C815 H839 0.949 . S
H816 C820 0.949 . S
C817 C818 1.349 . S
C817 C819 1.327 . S
C817 H840 0.950 . S
C818 C817 1.349 . S
C818 C830 1.349 . S
C819 C817 1.327 . S
C819 C835 1.429 . S
C819 H841 0.950 . S
C820 H816 0.949 . S
C820 C828 1.574 . S
C820 C836 1.368 . S
H821 C829 0.950 . S
H822 C827 0.950 . S
H823 C828 0.949 . S
H824 C830 0.950 . S
H825 C831 0.950 . S
H826 C832 0.949 . S
C827 H822 0.950 . S
C827 C829 1.327 . S
C827 C833 1.429 . S
C828 C820 1.574 . S
C828 H823 0.949 . S
C828 C834 1.368 . S
C829 C813 1.349 . S
C829 H821 0.950 . S
C829 C827 1.327 . S
C830 C818 1.349 . S
C830 H824 0.950 . S
C830 C831 1.327 . S
C831 H825 0.950 . S
C831 C830 1.327 . S
C831 C835 1.429 . S
C832 C815 1.574 . S
C832 H826 0.949 . S
C832 C836 1.368 . S
C833 C814 1.429 . S
C833 C827 1.429 . S
C833 C834 1.523 . S
C834 C815 1.368 . S
C834 C828 1.368 . S
C834 C833 1.523 . S
C835 C819 1.429 . S
C835 C831 1.429 . S
C835 C836 1.523 . S
C836 C820 1.368 . S
C836 C832 1.368 . S
C836 C835 1.523 . S
H837 C812 0.950 . S
H838 C814 0.950 . S
H839 C815 0.949 . S
H840 C817 0.950 . S
H841 C819 0.950 . S
C842 C843 1.349 . S
C842 C844 1.327 . S
C842 H867 0.950 . S
C843 C842 1.349 . S
C843 C859 1.349 . S
C844 C842 1.327 . S
C844 C863 1.429 . S
C844 H868 0.950 . S
C845 C862 1.574 . S
C845 C864 1.368 . S
C845 H869 0.949 . S
H846 C850 0.949 . S
C847 C848 1.349 . S
C847 C849 1.327 . S
C847 H870 0.950 . S
C848 C847 1.349 . S
C848 C860 1.349 . S
C849 C847 1.327 . S
C849 C865 1.429 . S
C849 H871 0.950 . S
C850 H846 0.949 . S
C850 C858 1.574 . S
C850 C866 1.368 . S
H851 C859 0.950 . S
H852 C857 0.950 . S
H853 C858 0.949 . S
H854 C860 0.950 . S
H855 C861 0.950 . S
H856 C862 0.949 . S
C857 H852 0.950 . S
C857 C859 1.327 . S
C857 C863 1.429 . S
C858 C850 1.574 . S
C858 H853 0.949 . S
C858 C864 1.368 . S
C859 C843 1.349 . S
C859 H851 0.950 . S
C859 C857 1.327 . S
C860 C848 1.349 . S
C860 H854 0.950 . S
C860 C861 1.327 . S
C861 H855 0.950 . S
C861 C860 1.327 . S
C861 C865 1.429 . S
C862 C845 1.574 . S
C862 H856 0.949 . S
C862 C866 1.368 . S
C863 C844 1.429 . S
C863 C857 1.429 . S
C863 C864 1.523 . S
C864 C845 1.368 . S
C864 C858 1.368 . S
C864 C863 1.523 . S
C865 C849 1.429 . S
C865 C861 1.429 . S
C865 C866 1.523 . S
C866 C850 1.368 . S
C866 C862 1.368 . S
C866 C865 1.523 . S
H867 C842 0.950 . S
H868 C844 0.950 . S
H869 C845 0.949 . S
H870 C847 0.950 . S
H871 C849 0.950 . S
C273 C77 1.491 . S
C278 C5 1.535 . S
C303 C43 1.490 . S
C308 C107 1.535 . S
C333 C73 1.535 . S
C338 C9 1.491 . S
C363 C111 1.491 . S
C368 C39 1.535 . S
C393 C141 1.535 . S
C398 C213 1.491 . S
C423 C243 1.535 . S
C428 C179 1.491 . S
C453 C145 1.491 . S
C458 C209 1.535 . S
C483 C175 1.535 . S
C488 C247 1.490 . S
C513 C54 1.387 . S
C518 C20 1.387 . S
C543 C88 1.387 . S
C548 C122 1.387 . S
C573 C190 1.387 . S
C578 C156 1.387 . S
C603 C224 1.387 . S
C608 C258 1.387 . S
C633 C240 0.596 . S
C638 C33 0.616 . S
C663 C237 0.616 . S
C668 C36 0.596 . S
C693 C271 0.616 . S
C698 C2 0.596 . S
C723 C67 0.616 . S
C728 C206 0.596 . S
C753 C172 0.596 . S
C758 C101 0.616 . S
C783 C104 0.596 . S
C788 C169 0.616 . S
C813 C203 0.616 . S
C818 C70 0.596 . S
C843 C135 0.615 . S
C848 C138 0.596 . S
