# Generated by pormake.
# Topology gsi, (4)-cn, num edge types: 1
# Building blocks:
#     Node 0, Type 0, BuildingBlock: CEKHIL_clean_sbu_0, # of connection points: 4
#     Node 1, Type 0, BuildingBlock: CEKHIL_clean_sbu_0, # of connection points: 4
#     Node 2, Type 0, BuildingBlock: CEKHIL_clean_sbu_0, # of connection points: 4
#     Node 3, Type 0, BuildingBlock: CEKHIL_clean_sbu_0, # of connection points: 4
#     Node 4, Type 0, BuildingBlock: CEKHIL_clean_sbu_0, # of connection points: 4
#     Node 5, Type 0, BuildingBlock: CEKHIL_clean_sbu_0, # of connection points: 4
#     Node 6, Type 0, BuildingBlock: CEKHIL_clean_sbu_0, # of connection points: 4
#     Node 7, Type 0, BuildingBlock: CEKHIL_clean_sbu_0, # of connection points: 4
#     Node 8, Type 0, BuildingBlock: CEKHIL_clean_sbu_0, # of connection points: 4
#     Node 9, Type 0, BuildingBlock: CEKHIL_clean_sbu_0, # of connection points: 4
#     Node 10, Type 0, BuildingBlock: CEKHIL_clean_sbu_0, # of connection points: 4
#     Node 11, Type 0, BuildingBlock: CEKHIL_clean_sbu_0, # of connection points: 4
#     Node 12, Type 0, BuildingBlock: CEKHIL_clean_sbu_0, # of connection points: 4
#     Node 13, Type 0, BuildingBlock: CEKHIL_clean_sbu_0, # of connection points: 4
#     Node 14, Type 0, BuildingBlock: CEKHIL_clean_sbu_0, # of connection points: 4
#     Node 15, Type 0, BuildingBlock: CEKHIL_clean_sbu_0, # of connection points: 4
#     Edge 16, Type (0, 0), BuildingBlock: EYOCIG_clean_linker_4, # of connection points: 2
#     Edge 17, Type (0, 0), BuildingBlock: EYOCIG_clean_linker_4, # of connection points: 2
#     Edge 18, Type (0, 0), BuildingBlock: EYOCIG_clean_linker_4, # of connection points: 2
#     Edge 19, Type (0, 0), BuildingBlock: EYOCIG_clean_linker_4, # of connection points: 2
#     Edge 20, Type (0, 0), BuildingBlock: EYOCIG_clean_linker_4, # of connection points: 2
#     Edge 21, Type (0, 0), BuildingBlock: EYOCIG_clean_linker_4, # of connection points: 2
#     Edge 22, Type (0, 0), BuildingBlock: EYOCIG_clean_linker_4, # of connection points: 2
#     Edge 23, Type (0, 0), BuildingBlock: EYOCIG_clean_linker_4, # of connection points: 2
#     Edge 24, Type (0, 0), BuildingBlock: EYOCIG_clean_linker_4, # of connection points: 2
#     Edge 25, Type (0, 0), BuildingBlock: EYOCIG_clean_linker_4, # of connection points: 2
#     Edge 26, Type (0, 0), BuildingBlock: EYOCIG_clean_linker_4, # of connection points: 2
#     Edge 27, Type (0, 0), BuildingBlock: EYOCIG_clean_linker_4, # of connection points: 2
#     Edge 28, Type (0, 0), BuildingBlock: EYOCIG_clean_linker_4, # of connection points: 2
#     Edge 29, Type (0, 0), BuildingBlock: EYOCIG_clean_linker_4, # of connection points: 2
#     Edge 30, Type (0, 0), BuildingBlock: EYOCIG_clean_linker_4, # of connection points: 2
#     Edge 31, Type (0, 0), BuildingBlock: EYOCIG_clean_linker_4, # of connection points: 2
#     Edge 32, Type (0, 0), BuildingBlock: EYOCIG_clean_linker_4, # of connection points: 2
#     Edge 33, Type (0, 0), BuildingBlock: EYOCIG_clean_linker_4, # of connection points: 2
#     Edge 34, Type (0, 0), BuildingBlock: EYOCIG_clean_linker_4, # of connection points: 2
#     Edge 35, Type (0, 0), BuildingBlock: EYOCIG_clean_linker_4, # of connection points: 2
#     Edge 36, Type (0, 0), BuildingBlock: EYOCIG_clean_linker_4, # of connection points: 2
#     Edge 37, Type (0, 0), BuildingBlock: EYOCIG_clean_linker_4, # of connection points: 2
#     Edge 38, Type (0, 0), BuildingBlock: EYOCIG_clean_linker_4, # of connection points: 2
#     Edge 39, Type (0, 0), BuildingBlock: EYOCIG_clean_linker_4, # of connection points: 2
#     Edge 40, Type (0, 0), BuildingBlock: EYOCIG_clean_linker_4, # of connection points: 2
#     Edge 41, Type (0, 0), BuildingBlock: EYOCIG_clean_linker_4, # of connection points: 2
#     Edge 42, Type (0, 0), BuildingBlock: EYOCIG_clean_linker_4, # of connection points: 2
#     Edge 43, Type (0, 0), BuildingBlock: EYOCIG_clean_linker_4, # of connection points: 2
#     Edge 44, Type (0, 0), BuildingBlock: EYOCIG_clean_linker_4, # of connection points: 2
#     Edge 45, Type (0, 0), BuildingBlock: EYOCIG_clean_linker_4, # of connection points: 2
#     Edge 46, Type (0, 0), BuildingBlock: EYOCIG_clean_linker_4, # of connection points: 2
#     Edge 47, Type (0, 0), BuildingBlock: EYOCIG_clean_linker_4, # of connection points: 2
# Relax obj value: 0.145
# Max RMSD: 0.207
# Mean RMSD: 0.126
data_MOF--net-gsi--node1-CEKHIL_clean_sbu_0--edge1-EYOCIG_clean_linker_4
_symmetry_space_group_name_H-M    P1
_symmetry_Int_Tables_number       1
_symmetry_cell_setting            triclinic
loop_
_symmetry_equiv_pos_as_xyz
'x, y, z'
_cell_length_a     30.410028
_cell_length_b     34.693427
_cell_length_c     32.061704
_cell_angle_alpha  90.999353
_cell_angle_beta   92.908123
_cell_angle_gamma 98.050704
loop_
_atom_site_label
_atom_site_type_symbol
_atom_site_fract_x
_atom_site_fract_y
_atom_site_fract_z
_atom_type_partial_charge
Co0 Co 0.1654 0.1452 0.14241 0.0
O1 O 0.20676 0.10904 0.15743 0.0
O2 O 0.13852 0.10505 0.1789 0.0
C3 C 0.18317 0.14403 0.07478 0.0
O4 O 0.1123 0.17705 0.1344 0.0
Co5 Co 0.19454 0.2247 0.10181 0.0
O6 O 0.13291 0.23495 0.10505 0.0
C7 C 0.21809 0.21031 0.19028 0.0
C8 C 0.17596 0.09094 0.17916 0.0
C9 C 0.10409 0.21075 0.12155 0.0
O10 O 0.18973 0.17938 0.19107 0.0
O11 O 0.22749 0.22951 0.15753 0.0
O12 O 0.15247 0.11796 0.08819 0.0
O13 O 0.20098 0.17013 0.10168 0.0
Co14 Co 0.86536 0.36655 0.14948 0.0
O15 O 0.82781 0.40438 0.16713 0.0
O16 O 0.89797 0.40478 0.1888 0.0
C17 C 0.84177 0.36826 0.08115 0.0
O18 O 0.91621 0.33338 0.13993 0.0
Co19 Co 0.82957 0.28761 0.10468 0.0
O20 O 0.89079 0.2753 0.10878 0.0
C21 C 0.81336 0.30322 0.19286 0.0
C22 C 0.86174 0.42042 0.19051 0.0
C23 C 0.92205 0.29924 0.126 0.0
O24 O 0.84409 0.33256 0.19591 0.0
O25 O 0.80006 0.28458 0.15887 0.0
O26 O 0.87411 0.39387 0.09666 0.0
O27 O 0.82515 0.34274 0.10662 0.0
Co28 Co 0.1884 0.88128 0.33675 0.0
O29 O 0.22934 0.92521 0.31825 0.0
O30 O 0.1564 0.91651 0.30526 0.0
C31 C 0.21961 0.88089 0.40279 0.0
O32 O 0.13464 0.84039 0.34797 0.0
Co33 Co 0.21994 0.80389 0.36744 0.0
O34 O 0.15611 0.78243 0.36349 0.0
C35 C 0.21973 0.82589 0.27872 0.0
C36 C 0.19469 0.93697 0.29987 0.0
C37 C 0.12619 0.8035 0.35433 0.0
O38 O 0.19589 0.85269 0.28434 0.0
O39 O 0.23656 0.80697 0.30793 0.0
O40 O 0.19079 0.90429 0.39364 0.0
O41 O 0.22976 0.86004 0.37226 0.0
Co42 Co 0.87441 0.6366 0.34997 0.0
O43 O 0.91799 0.65934 0.31176 0.0
O44 O 0.92199 0.67039 0.38015 0.0
C45 C 0.86687 0.57573 0.32047 0.0
O46 O 0.83656 0.6213 0.39981 0.0
Co47 Co 0.77847 0.59862 0.31881 0.0
O48 O 0.76454 0.60785 0.37709 0.0
C49 C 0.80875 0.6829 0.3165 0.0
C50 C 0.93855 0.67794 0.34418 0.0
C51 C 0.79455 0.61693 0.40591 0.0
O52 O 0.84176 0.68112 0.34196 0.0
O53 O 0.78326 0.65356 0.30022 0.0
O54 O 0.89885 0.58706 0.34841 0.0
O55 O 0.84149 0.60115 0.31073 0.0
Co56 Co 0.36567 0.867 0.64963 0.0
O57 O 0.32815 0.90489 0.66705 0.0
O58 O 0.39829 0.90528 0.68888 0.0
C59 C 0.34229 0.8686 0.58124 0.0
O60 O 0.41638 0.83368 0.6402 0.0
Co61 Co 0.32942 0.78799 0.60539 0.0
O62 O 0.39059 0.77553 0.60936 0.0
C63 C 0.31364 0.80395 0.69355 0.0
C64 C 0.36203 0.92092 0.69048 0.0
C65 C 0.42201 0.79945 0.62638 0.0
O66 O 0.34438 0.83327 0.69625 0.0
O67 O 0.30015 0.78509 0.65973 0.0
O68 O 0.37467 0.89416 0.59678 0.0
O69 O 0.32544 0.84322 0.60678 0.0
Co70 Co 0.88952 0.87025 0.88823 0.0
O71 O 0.90545 0.82073 0.90718 0.0
O72 O 0.94913 0.86349 0.87235 0.0
C73 C 0.85913 0.88468 0.94968 0.0
O74 O 0.88639 0.92404 0.86159 0.0
Co75 Co 0.79272 0.88898 0.88205 0.0
O76 O 0.8158 0.9364 0.85262 0.0
C77 C 0.82276 0.83099 0.82591 0.0
C78 C 0.94274 0.82958 0.88932 0.0
C79 C 0.85707 0.94485 0.84722 0.0
O80 O 0.86368 0.84369 0.83514 0.0
O81 O 0.79025 0.8424 0.84395 0.0
O82 O 0.90173 0.89297 0.94532 0.0
O83 O 0.83662 0.86799 0.91768 0.0
Co84 Co 0.13963 0.65714 0.87863 0.0
O85 O 0.1245 0.70648 0.89876 0.0
O86 O 0.07934 0.66403 0.859 0.0
C87 C 0.17075 0.64243 0.9413 0.0
O88 O 0.1431 0.60325 0.85102 0.0
Co89 Co 0.23779 0.63944 0.88098 0.0
O90 O 0.21343 0.58917 0.85364 0.0
C91 C 0.20537 0.69512 0.82206 0.0
C92 C 0.08624 0.69757 0.87879 0.0
C93 C 0.17243 0.58097 0.84256 0.0
O94 O 0.16453 0.68341 0.82848 0.0
O95 O 0.2384 0.68401 0.84231 0.0
O96 O 0.12802 0.63431 0.93348 0.0
O97 O 0.19278 0.65951 0.9121 0.0
Co98 Co 0.84702 0.1427 0.67412 0.0
O99 O 0.78805 0.12017 0.65202 0.0
O100 O 0.8402 0.15191 0.61484 0.0
C101 C 0.86075 0.09172 0.71426 0.0
O102 O 0.91041 0.17167 0.6839 0.0
Co103 Co 0.86718 0.16088 0.76929 0.0
O104 O 0.92226 0.19237 0.75108 0.0
C105 C 0.81092 0.20583 0.71875 0.0
C106 C 0.79964 0.13461 0.61642 0.0
C107 C 0.93336 0.19237 0.71334 0.0
O108 O 0.824 0.19183 0.68545 0.0
O109 O 0.81983 0.19439 0.75554 0.0
O110 O 0.8677 0.0914 0.6745 0.0
O111 O 0.84337 0.121 0.7277 0.0
Co112 Co 0.19515 0.37679 0.67813 0.0
O113 O 0.25243 0.40037 0.65856 0.0
O114 O 0.20094 0.36282 0.6198 0.0
C115 C 0.17983 0.43026 0.71361 0.0
O116 O 0.13314 0.34571 0.68497 0.0
Co117 Co 0.17375 0.36926 0.77317 0.0
O118 O 0.11856 0.336 0.75259 0.0
C119 C 0.23596 0.32394 0.73297 0.0
C120 C 0.24041 0.38282 0.62279 0.0
C121 C 0.10886 0.32998 0.71377 0.0
O122 O 0.22243 0.33113 0.69602 0.0
O123 O 0.22424 0.33914 0.76646 0.0
O124 O 0.17126 0.42657 0.67341 0.0
O125 O 0.19866 0.40316 0.73047 0.0
Co126 Co 0.63939 0.15677 0.37863 0.0
O127 O 0.62414 0.20602 0.39881 0.0
O128 O 0.57902 0.16344 0.35912 0.0
C129 C 0.67072 0.14183 0.44108 0.0
O130 O 0.64304 0.10301 0.35111 0.0
Co131 Co 0.7379 0.13969 0.38075 0.0
O132 O 0.71355 0.08932 0.35362 0.0
C133 C 0.70468 0.19449 0.32124 0.0
C134 C 0.58586 0.19699 0.37889 0.0
C135 C 0.67253 0.08092 0.34269 0.0
O136 O 0.66395 0.18303 0.32832 0.0
O137 O 0.73796 0.18358 0.34128 0.0
O138 O 0.62796 0.13379 0.43342 0.0
O139 O 0.69262 0.1592 0.41196 0.0
Co140 Co 0.66522 0.64527 0.64224 0.0
O141 O 0.70677 0.6092 0.65717 0.0
O142 O 0.63864 0.60512 0.67889 0.0
C143 C 0.68251 0.64423 0.57442 0.0
O144 O 0.61205 0.67703 0.63438 0.0
Co145 Co 0.69432 0.72487 0.60162 0.0
O146 O 0.63268 0.73501 0.60518 0.0
C147 C 0.7177 0.7106 0.69014 0.0
C148 C 0.67613 0.59111 0.67909 0.0
C149 C 0.60386 0.71078 0.62164 0.0
O150 O 0.68958 0.67951 0.69086 0.0
O151 O 0.72708 0.72985 0.65742 0.0
O152 O 0.65209 0.61801 0.58801 0.0
O153 O 0.7005 0.67025 0.60133 0.0
Co154 Co 0.68837 0.38101 0.83631 0.0
O155 O 0.72928 0.42529 0.81846 0.0
O156 O 0.6564 0.41648 0.80515 0.0
C157 C 0.71916 0.37991 0.90245 0.0
O158 O 0.6346 0.33998 0.84688 0.0
Co159 Co 0.7197 0.30328 0.86604 0.0
O160 O 0.65586 0.28193 0.86228 0.0
C161 C 0.72018 0.32634 0.77765 0.0
C162 C 0.69466 0.43713 0.80009 0.0
C163 C 0.62604 0.3031 0.85317 0.0
O164 O 0.69629 0.35305 0.78357 0.0
O165 O 0.73665 0.30693 0.80664 0.0
O166 O 0.69036 0.40336 0.89344 0.0
O167 O 0.72958 0.35943 0.87172 0.0
Co168 Co 0.37448 0.13686 0.84984 0.0
O169 O 0.41753 0.15941 0.81111 0.0
O170 O 0.42255 0.17036 0.87957 0.0
C171 C 0.36603 0.07599 0.82042 0.0
O172 O 0.33736 0.12157 0.90008 0.0
Co173 Co 0.27801 0.10052 0.81932 0.0
O174 O 0.26507 0.10839 0.87815 0.0
C175 C 0.31045 0.18413 0.81575 0.0
C176 C 0.43854 0.17792 0.84336 0.0
C177 C 0.29549 0.11691 0.90672 0.0
O178 O 0.34221 0.18167 0.8424 0.0
O179 O 0.28458 0.15512 0.79923 0.0
O180 O 0.39847 0.0872 0.84793 0.0
O181 O 0.34086 0.10166 0.81085 0.0
Co182 Co 0.38975 0.37008 0.38826 0.0
O183 O 0.40558 0.32061 0.40742 0.0
O184 O 0.44929 0.36315 0.37235 0.0
C185 C 0.3595 0.38473 0.44978 0.0
O186 O 0.38665 0.42378 0.3613 0.0
Co187 Co 0.29308 0.38878 0.38197 0.0
O188 O 0.31601 0.43587 0.35189 0.0
C189 C 0.323 0.3306 0.32607 0.0
C190 C 0.44282 0.32929 0.38944 0.0
C191 C 0.35729 0.44437 0.34652 0.0
O192 O 0.3639 0.34336 0.33529 0.0
O193 O 0.29048 0.34206 0.34404 0.0
O194 O 0.40208 0.393 0.44526 0.0
O195 O 0.3369 0.36796 0.41786 0.0
Co196 Co 0.34742 0.64313 0.17453 0.0
O197 O 0.28838 0.6209 0.15224 0.0
O198 O 0.34025 0.65358 0.11552 0.0
C199 C 0.36134 0.59134 0.21342 0.0
O200 O 0.41076 0.6722 0.18452 0.0
Co201 Co 0.36815 0.65942 0.26998 0.0
O202 O 0.42222 0.6925 0.25185 0.0
C203 C 0.31062 0.70441 0.2211 0.0
C204 C 0.29973 0.63613 0.11693 0.0
C205 C 0.43326 0.6931 0.21408 0.0
O206 O 0.32431 0.69183 0.18737 0.0
O207 O 0.31967 0.69204 0.25745 0.0
O208 O 0.36819 0.59179 0.17363 0.0
O209 O 0.34409 0.62039 0.22759 0.0
Co210 Co 0.6944 0.87738 0.17762 0.0
O211 O 0.75179 0.90025 0.15785 0.0
O212 O 0.69946 0.86355 0.11913 0.0
C213 C 0.68034 0.931 0.21339 0.0
O214 O 0.63208 0.84718 0.18508 0.0
Co215 Co 0.67427 0.87035 0.27318 0.0
O216 O 0.61858 0.83756 0.25299 0.0
C217 C 0.73333 0.8227 0.23168 0.0
C218 C 0.73922 0.88304 0.12203 0.0
C219 C 0.60818 0.83166 0.21425 0.0
O220 O 0.72054 0.83098 0.19487 0.0
O221 O 0.72275 0.83824 0.26543 0.0
O222 O 0.67146 0.92756 0.17324 0.0
O223 O 0.69893 0.90364 0.23 0.0
C224 C 0.26687 0.24413 0.25196 0.0
C225 C 0.24202 0.22478 0.22742 0.0
C226 C 0.29465 0.27253 0.27555 0.0
C227 C 0.3125 0.29888 0.29739 0.0
C228 C 0.76438 0.27374 0.25054 0.0
C229 C 0.7901 0.291 0.2283 0.0
C230 C 0.73418 0.24822 0.27139 0.0
C231 C 0.71471 0.22401 0.29213 0.0
C232 C 0.26382 0.76081 0.21064 0.0
C233 C 0.28513 0.73501 0.21669 0.0
C234 C 0.24102 0.79231 0.2148 0.0
C235 C 0.22637 0.81394 0.23765 0.0
C236 C 0.79709 0.74549 0.27933 0.0
C237 C 0.80557 0.71884 0.29898 0.0
C238 C 0.78108 0.77139 0.2528 0.0
C239 C 0.76019 0.79362 0.23647 0.0
C240 C 0.26522 0.77504 0.75194 0.0
C241 C 0.29066 0.79203 0.72926 0.0
C242 C 0.23523 0.74952 0.77304 0.0
C243 C 0.21577 0.72503 0.79345 0.0
C244 C 0.76615 0.74466 0.75188 0.0
C245 C 0.74144 0.72518 0.72734 0.0
C246 C 0.79405 0.77307 0.77537 0.0
C247 C 0.81214 0.79935 0.79717 0.0
C248 C 0.74289 0.29468 0.71293 0.0
C249 C 0.72772 0.31541 0.73644 0.0
C250 C 0.76573 0.26332 0.70764 0.0
C251 C 0.78638 0.23702 0.71339 0.0
C252 C 0.28783 0.27522 0.75349 0.0
C253 C 0.26506 0.29656 0.73812 0.0
C254 C 0.30341 0.24801 0.77864 0.0
C255 C 0.3093 0.22028 0.79782 0.0
C256 C 0.19659 0.99754 0.24996 0.0
C257 C 0.19814 0.97033 0.27304 0.0
C258 C 0.19063 0.02961 0.22406 0.0
C259 C 0.18391 0.05755 0.20361 0.0
C260 C 0.85882 0.48043 0.24272 0.0
C261 C 0.85894 0.45311 0.21857 0.0
C262 C 0.86126 0.51236 0.27168 0.0
C263 C 0.8652 0.5408 0.29484 0.0
C264 C 0.25987 0.12943 0.9777 0.0
C265 C 0.28078 0.12446 0.94754 0.0
C266 C 0.23087 0.13419 1.00994 0.0
C267 C 0.20739 0.13689 0.03879 0.0
C268 C 0.79464 0.37453 1.01022 0.0
C269 C 0.81768 0.37329 0.04203 0.0
C270 C 0.76579 0.37696 0.97428 0.0
C271 C 0.74315 0.37983 0.94255 0.0
C272 C 0.29532 0.87538 0.51035 0.0
C273 C 0.31825 0.87385 0.54217 0.0
C274 C 0.26647 0.87811 0.47449 0.0
C275 C 0.24368 0.88099 0.44286 0.0
C276 C 0.72922 0.63509 0.50869 0.0
C277 C 0.70619 0.63747 0.53794 0.0
C278 C 0.75808 0.63035 0.47629 0.0
C279 C 0.7792 0.62501 0.44636 0.0
C280 C 0.9963 0.267 0.13241 0.0
C281 C 0.96486 0.28529 0.13146 0.0
C282 C 0.03077 0.24282 0.13122 0.0
C283 C 0.06199 0.22453 0.12866 0.0
C284 C 1.00823 0.73296 0.34031 0.0
C285 C 0.97644 0.70765 0.34042 0.0
C286 C 0.04644 0.76182 0.34352 0.0
C287 C 0.08127 0.78359 0.34774 0.0
C288 C 0.53058 0.74285 0.63137 0.0
C289 C 0.56177 0.72455 0.62878 0.0
C290 C 0.49615 0.76706 0.6326 0.0
C291 C 0.46476 0.78539 0.63171 0.0
C292 C 0.87161 0.0344 0.76646 0.0
C293 C 0.86734 0.05971 0.74139 0.0
C294 C 0.87301 1.00422 0.79613 0.0
C295 C 0.86972 0.97703 0.81981 0.0
C296 C 0.15891 0.51869 0.79219 0.0
C297 C 0.16064 0.54725 0.81494 0.0
C298 C 0.16297 0.4878 0.7634 0.0
C299 C 0.16968 0.46244 0.73895 0.0
C300 C 0.79161 0.88587 0.05718 0.0
C301 C 0.76823 0.88491 0.08705 0.0
C302 C 0.81783 0.88699 0.02115 0.0
C303 C 0.83861 0.88679 0.98962 0.0
C304 C 0.21463 0.63631 0.01407 0.0
C305 C 0.19238 0.63811 0.98185 0.0
C306 C 0.24294 0.63572 0.05081 0.0
C307 C 0.26823 0.63554 0.08134 0.0
C308 C 0.71486 0.13441 0.51339 0.0
C309 C 0.69255 0.13682 0.48133 0.0
C310 C 0.74308 0.13356 0.5501 0.0
C311 C 0.76822 0.13366 0.58075 0.0
C312 C 0.29288 0.38577 0.55793 0.0
C313 C 0.2696 0.38486 0.5879 0.0
C314 C 0.31877 0.38686 0.52165 0.0
C315 C 0.33923 0.3867 0.48989 0.0
C316 C 0.02814 0.74851 0.88026 0.0
C317 C 0.05347 0.72435 0.87865 0.0
C318 C 0.99919 0.77748 0.88327 0.0
C319 C 0.9739 0.80161 0.8857 0.0
C320 C 0.03913 0.27566 0.69846 0.0
C321 C 0.07118 0.30078 0.70237 0.0
C322 C 1.00276 0.245 0.69889 0.0
C323 C 0.97096 0.22028 0.70292 0.0
C324 C 0.52773 0.24786 0.38031 0.0
C325 C 0.55304 0.2237 0.3787 0.0
C326 C 0.49891 0.27692 0.38332 0.0
C327 C 0.47379 0.30117 0.38578 0.0
C328 C 0.69087 0.53001 0.72444 0.0
C329 C 0.68427 0.55785 0.70374 0.0
C330 C 0.69661 0.49795 0.75049 0.0
C331 C 0.69811 0.47064 0.77345 0.0
C332 C 0.3605 0.01272 0.77153 0.0
C333 C 0.36419 0.04119 0.79458 0.0
C334 C 0.35856 0.98079 0.74267 0.0
C335 C 0.35906 0.95353 0.71856 0.0
C336 C 0.50797 0.23298 0.83892 0.0
C337 C 0.47626 0.20764 0.83919 0.0
C338 C 0.5462 0.26176 0.84214 0.0
C339 C 0.5811 0.28337 0.84647 0.0
C340 C 0.37195 0.53339 0.26491 0.0
C341 C 0.36791 0.55885 0.23992 0.0
C342 C 0.37318 0.50331 0.29477 0.0
C343 C 0.36988 0.47633 0.31876 0.0
C344 C 0.6591 0.01865 0.29252 0.0
C345 C 0.66081 0.04719 0.31521 0.0
C346 C 0.66327 0.98795 0.26365 0.0
C347 C 0.6701 0.96284 0.23903 0.0
C348 C 0.53793 0.77771 0.19964 0.0
C349 C 0.57016 0.80266 0.20333 0.0
C350 C 0.50173 0.74687 0.20002 0.0
C351 C 0.47036 0.72167 0.2039 0.0
loop_
_geom_bond_atom_site_label_1
_geom_bond_atom_site_label_2
_geom_bond_distance
_geom_bond_site_symmetry_2
_ccdc_geom_bond_type
Co0 O1 2.216 . S
Co0 O2 2.091 . S
Co0 O4 2.004 . S
Co0 O10 2.021 . S
Co0 O12 2.137 . S
Co0 O13 2.244 . S
O1 Co0 2.216 . S
O1 C8 1.247 . S
O2 Co0 2.091 . S
O2 C8 1.261 . S
C3 O12 1.247 . S
C3 O13 1.272 . S
O4 Co0 2.004 . S
O4 C9 1.259 . S
Co5 O6 2.061 . S
Co5 O11 2.052 . S
Co5 O13 2.135 . S
O6 Co5 2.061 . S
O6 C9 1.235 . S
C7 O10 1.238 . S
C7 O11 1.241 . S
C8 O1 1.247 . S
C8 O2 1.261 . S
C9 O4 1.259 . S
C9 O6 1.235 . S
O10 Co0 2.021 . S
O10 C7 1.238 . S
O11 Co5 2.052 . S
O11 C7 1.241 . S
O12 Co0 2.137 . S
O12 C3 1.247 . S
O13 Co0 2.244 . S
O13 C3 1.272 . S
O13 Co5 2.135 . S
Co14 O15 2.216 . S
Co14 O16 2.091 . S
Co14 O18 2.004 . S
Co14 O24 2.021 . S
Co14 O26 2.137 . S
Co14 O27 2.244 . S
O15 Co14 2.216 . S
O15 C22 1.247 . S
O16 Co14 2.091 . S
O16 C22 1.261 . S
C17 O26 1.247 . S
C17 O27 1.272 . S
O18 Co14 2.004 . S
O18 C23 1.259 . S
Co19 O20 2.061 . S
Co19 O25 2.052 . S
Co19 O27 2.135 . S
O20 Co19 2.061 . S
O20 C23 1.235 . S
C21 O24 1.238 . S
C21 O25 1.241 . S
C22 O15 1.247 . S
C22 O16 1.261 . S
C23 O18 1.259 . S
C23 O20 1.235 . S
O24 Co14 2.021 . S
O24 C21 1.238 . S
O25 Co19 2.052 . S
O25 C21 1.241 . S
O26 Co14 2.137 . S
O26 C17 1.247 . S
O27 Co14 2.244 . S
O27 C17 1.272 . S
O27 Co19 2.135 . S
Co28 O29 2.216 . S
Co28 O30 2.091 . S
Co28 O32 2.004 . S
Co28 O38 2.021 . S
Co28 O40 2.137 . S
Co28 O41 2.244 . S
O29 Co28 2.216 . S
O29 C36 1.247 . S
O30 Co28 2.091 . S
O30 C36 1.261 . S
C31 O40 1.247 . S
C31 O41 1.272 . S
O32 Co28 2.004 . S
O32 C37 1.259 . S
Co33 O34 2.061 . S
Co33 O39 2.052 . S
Co33 O41 2.135 . S
O34 Co33 2.061 . S
O34 C37 1.235 . S
C35 O38 1.238 . S
C35 O39 1.241 . S
C36 O29 1.247 . S
C36 O30 1.261 . S
C37 O32 1.259 . S
C37 O34 1.235 . S
O38 Co28 2.021 . S
O38 C35 1.238 . S
O39 Co33 2.052 . S
O39 C35 1.241 . S
O40 Co28 2.137 . S
O40 C31 1.247 . S
O41 Co28 2.244 . S
O41 C31 1.272 . S
O41 Co33 2.135 . S
Co42 O43 2.216 . S
Co42 O44 2.091 . S
Co42 O46 2.004 . S
Co42 O52 2.021 . S
Co42 O54 2.137 . S
Co42 O55 2.244 . S
O43 Co42 2.216 . S
O43 C50 1.247 . S
O44 Co42 2.091 . S
O44 C50 1.261 . S
C45 O54 1.247 . S
C45 O55 1.272 . S
O46 Co42 2.004 . S
O46 C51 1.259 . S
Co47 O48 2.061 . S
Co47 O53 2.052 . S
Co47 O55 2.135 . S
O48 Co47 2.061 . S
O48 C51 1.235 . S
C49 O52 1.238 . S
C49 O53 1.241 . S
C50 O43 1.247 . S
C50 O44 1.261 . S
C51 O46 1.259 . S
C51 O48 1.235 . S
O52 Co42 2.021 . S
O52 C49 1.238 . S
O53 Co47 2.052 . S
O53 C49 1.241 . S
O54 Co42 2.137 . S
O54 C45 1.247 . S
O55 Co42 2.244 . S
O55 C45 1.272 . S
O55 Co47 2.135 . S
Co56 O57 2.216 . S
Co56 O58 2.091 . S
Co56 O60 2.004 . S
Co56 O66 2.021 . S
Co56 O68 2.137 . S
Co56 O69 2.244 . S
O57 Co56 2.216 . S
O57 C64 1.247 . S
O58 Co56 2.091 . S
O58 C64 1.261 . S
C59 O68 1.247 . S
C59 O69 1.272 . S
O60 Co56 2.004 . S
O60 C65 1.259 . S
Co61 O62 2.061 . S
Co61 O67 2.052 . S
Co61 O69 2.135 . S
O62 Co61 2.061 . S
O62 C65 1.235 . S
C63 O66 1.238 . S
C63 O67 1.241 . S
C64 O57 1.247 . S
C64 O58 1.261 . S
C65 O60 1.259 . S
C65 O62 1.235 . S
O66 Co56 2.021 . S
O66 C63 1.238 . S
O67 Co61 2.052 . S
O67 C63 1.241 . S
O68 Co56 2.137 . S
O68 C59 1.247 . S
O69 Co56 2.244 . S
O69 C59 1.272 . S
O69 Co61 2.135 . S
Co70 O71 2.216 . S
Co70 O72 2.091 . S
Co70 O74 2.004 . S
Co70 O80 2.021 . S
Co70 O82 2.137 . S
Co70 O83 2.244 . S
O71 Co70 2.216 . S
O71 C78 1.247 . S
O72 Co70 2.091 . S
O72 C78 1.261 . S
C73 O82 1.247 . S
C73 O83 1.272 . S
O74 Co70 2.004 . S
O74 C79 1.259 . S
Co75 O76 2.061 . S
Co75 O81 2.052 . S
Co75 O83 2.135 . S
O76 Co75 2.061 . S
O76 C79 1.235 . S
C77 O80 1.238 . S
C77 O81 1.241 . S
C78 O71 1.247 . S
C78 O72 1.261 . S
C79 O74 1.259 . S
C79 O76 1.235 . S
O80 Co70 2.021 . S
O80 C77 1.238 . S
O81 Co75 2.052 . S
O81 C77 1.241 . S
O82 Co70 2.137 . S
O82 C73 1.247 . S
O83 Co70 2.244 . S
O83 C73 1.272 . S
O83 Co75 2.135 . S
Co84 O85 2.216 . S
Co84 O86 2.091 . S
Co84 O88 2.004 . S
Co84 O94 2.021 . S
Co84 O96 2.137 . S
Co84 O97 2.244 . S
O85 Co84 2.216 . S
O85 C92 1.247 . S
O86 Co84 2.091 . S
O86 C92 1.261 . S
C87 O96 1.247 . S
C87 O97 1.272 . S
O88 Co84 2.004 . S
O88 C93 1.259 . S
Co89 O90 2.061 . S
Co89 O95 2.052 . S
Co89 O97 2.135 . S
O90 Co89 2.061 . S
O90 C93 1.235 . S
C91 O94 1.238 . S
C91 O95 1.241 . S
C92 O85 1.247 . S
C92 O86 1.261 . S
C93 O88 1.259 . S
C93 O90 1.235 . S
O94 Co84 2.021 . S
O94 C91 1.238 . S
O95 Co89 2.052 . S
O95 C91 1.241 . S
O96 Co84 2.137 . S
O96 C87 1.247 . S
O97 Co84 2.244 . S
O97 C87 1.272 . S
O97 Co89 2.135 . S
Co98 O99 2.216 . S
Co98 O100 2.091 . S
Co98 O102 2.004 . S
Co98 O108 2.021 . S
Co98 O110 2.137 . S
Co98 O111 2.244 . S
O99 Co98 2.216 . S
O99 C106 1.247 . S
O100 Co98 2.091 . S
O100 C106 1.261 . S
C101 O110 1.247 . S
C101 O111 1.272 . S
O102 Co98 2.004 . S
O102 C107 1.259 . S
Co103 O104 2.061 . S
Co103 O109 2.052 . S
Co103 O111 2.135 . S
O104 Co103 2.061 . S
O104 C107 1.235 . S
C105 O108 1.238 . S
C105 O109 1.241 . S
C106 O99 1.247 . S
C106 O100 1.261 . S
C107 O102 1.259 . S
C107 O104 1.235 . S
O108 Co98 2.021 . S
O108 C105 1.238 . S
O109 Co103 2.052 . S
O109 C105 1.241 . S
O110 Co98 2.137 . S
O110 C101 1.247 . S
O111 Co98 2.244 . S
O111 C101 1.272 . S
O111 Co103 2.135 . S
Co112 O113 2.216 . S
Co112 O114 2.091 . S
Co112 O116 2.004 . S
Co112 O122 2.021 . S
Co112 O124 2.137 . S
Co112 O125 2.244 . S
O113 Co112 2.216 . S
O113 C120 1.247 . S
O114 Co112 2.091 . S
O114 C120 1.261 . S
C115 O124 1.247 . S
C115 O125 1.272 . S
O116 Co112 2.004 . S
O116 C121 1.259 . S
Co117 O118 2.061 . S
Co117 O123 2.052 . S
Co117 O125 2.135 . S
O118 Co117 2.061 . S
O118 C121 1.235 . S
C119 O122 1.238 . S
C119 O123 1.241 . S
C120 O113 1.247 . S
C120 O114 1.261 . S
C121 O116 1.259 . S
C121 O118 1.235 . S
O122 Co112 2.021 . S
O122 C119 1.238 . S
O123 Co117 2.052 . S
O123 C119 1.241 . S
O124 Co112 2.137 . S
O124 C115 1.247 . S
O125 Co112 2.244 . S
O125 C115 1.272 . S
O125 Co117 2.135 . S
Co126 O127 2.216 . S
Co126 O128 2.091 . S
Co126 O130 2.004 . S
Co126 O136 2.021 . S
Co126 O138 2.137 . S
Co126 O139 2.244 . S
O127 Co126 2.216 . S
O127 C134 1.247 . S
O128 Co126 2.091 . S
O128 C134 1.261 . S
C129 O138 1.247 . S
C129 O139 1.272 . S
O130 Co126 2.004 . S
O130 C135 1.259 . S
Co131 O132 2.061 . S
Co131 O137 2.052 . S
Co131 O139 2.135 . S
O132 Co131 2.061 . S
O132 C135 1.235 . S
C133 O136 1.238 . S
C133 O137 1.241 . S
C134 O127 1.247 . S
C134 O128 1.261 . S
C135 O130 1.259 . S
C135 O132 1.235 . S
O136 Co126 2.021 . S
O136 C133 1.238 . S
O137 Co131 2.052 . S
O137 C133 1.241 . S
O138 Co126 2.137 . S
O138 C129 1.247 . S
O139 Co126 2.244 . S
O139 C129 1.272 . S
O139 Co131 2.135 . S
Co140 O141 2.216 . S
Co140 O142 2.091 . S
Co140 O144 2.004 . S
Co140 O150 2.021 . S
Co140 O152 2.137 . S
Co140 O153 2.244 . S
O141 Co140 2.216 . S
O141 C148 1.247 . S
O142 Co140 2.091 . S
O142 C148 1.261 . S
C143 O152 1.247 . S
C143 O153 1.272 . S
O144 Co140 2.004 . S
O144 C149 1.259 . S
Co145 O146 2.061 . S
Co145 O151 2.052 . S
Co145 O153 2.135 . S
O146 Co145 2.061 . S
O146 C149 1.235 . S
C147 O150 1.238 . S
C147 O151 1.241 . S
C148 O141 1.247 . S
C148 O142 1.261 . S
C149 O144 1.259 . S
C149 O146 1.235 . S
O150 Co140 2.021 . S
O150 C147 1.238 . S
O151 Co145 2.052 . S
O151 C147 1.241 . S
O152 Co140 2.137 . S
O152 C143 1.247 . S
O153 Co140 2.244 . S
O153 C143 1.272 . S
O153 Co145 2.135 . S
Co154 O155 2.216 . S
Co154 O156 2.091 . S
Co154 O158 2.004 . S
Co154 O164 2.021 . S
Co154 O166 2.137 . S
Co154 O167 2.244 . S
O155 Co154 2.216 . S
O155 C162 1.247 . S
O156 Co154 2.091 . S
O156 C162 1.261 . S
C157 O166 1.247 . S
C157 O167 1.272 . S
O158 Co154 2.004 . S
O158 C163 1.259 . S
Co159 O160 2.061 . S
Co159 O165 2.052 . S
Co159 O167 2.135 . S
O160 Co159 2.061 . S
O160 C163 1.235 . S
C161 O164 1.238 . S
C161 O165 1.241 . S
C162 O155 1.247 . S
C162 O156 1.261 . S
C163 O158 1.259 . S
C163 O160 1.235 . S
O164 Co154 2.021 . S
O164 C161 1.238 . S
O165 Co159 2.052 . S
O165 C161 1.241 . S
O166 Co154 2.137 . S
O166 C157 1.247 . S
O167 Co154 2.244 . S
O167 C157 1.272 . S
O167 Co159 2.135 . S
Co168 O169 2.216 . S
Co168 O170 2.091 . S
Co168 O172 2.004 . S
Co168 O178 2.021 . S
Co168 O180 2.137 . S
Co168 O181 2.244 . S
O169 Co168 2.216 . S
O169 C176 1.247 . S
O170 Co168 2.091 . S
O170 C176 1.261 . S
C171 O180 1.247 . S
C171 O181 1.272 . S
O172 Co168 2.004 . S
O172 C177 1.259 . S
Co173 O174 2.061 . S
Co173 O179 2.052 . S
Co173 O181 2.135 . S
O174 Co173 2.061 . S
O174 C177 1.235 . S
C175 O178 1.238 . S
C175 O179 1.241 . S
C176 O169 1.247 . S
C176 O170 1.261 . S
C177 O172 1.259 . S
C177 O174 1.235 . S
O178 Co168 2.021 . S
O178 C175 1.238 . S
O179 Co173 2.052 . S
O179 C175 1.241 . S
O180 Co168 2.137 . S
O180 C171 1.247 . S
O181 Co168 2.244 . S
O181 C171 1.272 . S
O181 Co173 2.135 . S
Co182 O183 2.216 . S
Co182 O184 2.091 . S
Co182 O186 2.004 . S
Co182 O192 2.021 . S
Co182 O194 2.137 . S
Co182 O195 2.244 . S
O183 Co182 2.216 . S
O183 C190 1.247 . S
O184 Co182 2.091 . S
O184 C190 1.261 . S
C185 O194 1.247 . S
C185 O195 1.272 . S
O186 Co182 2.004 . S
O186 C191 1.259 . S
Co187 O188 2.061 . S
Co187 O193 2.052 . S
Co187 O195 2.135 . S
O188 Co187 2.061 . S
O188 C191 1.235 . S
C189 O192 1.238 . S
C189 O193 1.241 . S
C190 O183 1.247 . S
C190 O184 1.261 . S
C191 O186 1.259 . S
C191 O188 1.235 . S
O192 Co182 2.021 . S
O192 C189 1.238 . S
O193 Co187 2.052 . S
O193 C189 1.241 . S
O194 Co182 2.137 . S
O194 C185 1.247 . S
O195 Co182 2.244 . S
O195 C185 1.272 . S
O195 Co187 2.135 . S
Co196 O197 2.216 . S
Co196 O198 2.091 . S
Co196 O200 2.004 . S
Co196 O206 2.021 . S
Co196 O208 2.137 . S
Co196 O209 2.244 . S
O197 Co196 2.216 . S
O197 C204 1.247 . S
O198 Co196 2.091 . S
O198 C204 1.261 . S
C199 O208 1.247 . S
C199 O209 1.272 . S
O200 Co196 2.004 . S
O200 C205 1.259 . S
Co201 O202 2.061 . S
Co201 O207 2.052 . S
Co201 O209 2.135 . S
O202 Co201 2.061 . S
O202 C205 1.235 . S
C203 O206 1.238 . S
C203 O207 1.241 . S
C204 O197 1.247 . S
C204 O198 1.261 . S
C205 O200 1.259 . S
C205 O202 1.235 . S
O206 Co196 2.021 . S
O206 C203 1.238 . S
O207 Co201 2.052 . S
O207 C203 1.241 . S
O208 Co196 2.137 . S
O208 C199 1.247 . S
O209 Co196 2.244 . S
O209 C199 1.272 . S
O209 Co201 2.135 . S
Co210 O211 2.216 . S
Co210 O212 2.091 . S
Co210 O214 2.004 . S
Co210 O220 2.021 . S
Co210 O222 2.137 . S
Co210 O223 2.244 . S
O211 Co210 2.216 . S
O211 C218 1.247 . S
O212 Co210 2.091 . S
O212 C218 1.261 . S
C213 O222 1.247 . S
C213 O223 1.272 . S
O214 Co210 2.004 . S
O214 C219 1.259 . S
Co215 O216 2.061 . S
Co215 O221 2.052 . S
Co215 O223 2.135 . S
O216 Co215 2.061 . S
O216 C219 1.235 . S
C217 O220 1.238 . S
C217 O221 1.241 . S
C218 O211 1.247 . S
C218 O212 1.261 . S
C219 O214 1.259 . S
C219 O216 1.235 . S
O220 Co210 2.021 . S
O220 C217 1.238 . S
O221 Co215 2.052 . S
O221 C217 1.241 . S
O222 Co210 2.137 . S
O222 C213 1.247 . S
O223 Co210 2.244 . S
O223 C213 1.272 . S
O223 Co215 2.135 . S
C224 C225 1.170 . S
C224 C226 1.380 . S
C225 C224 1.170 . S
C226 C224 1.380 . S
C226 C227 1.170 . S
C227 C226 1.170 . S
C228 C229 1.170 . S
C228 C230 1.380 . S
C229 C228 1.170 . S
C230 C228 1.380 . S
C230 C231 1.170 . S
C231 C230 1.170 . S
C232 C233 1.170 . S
C232 C234 1.380 . S
C233 C232 1.170 . S
C234 C232 1.380 . S
C234 C235 1.170 . S
C235 C234 1.170 . S
C236 C237 1.170 . S
C236 C238 1.380 . S
C237 C236 1.170 . S
C238 C236 1.380 . S
C238 C239 1.170 . S
C239 C238 1.170 . S
C240 C241 1.170 . S
C240 C242 1.380 . S
C241 C240 1.170 . S
C242 C240 1.380 . S
C242 C243 1.170 . S
C243 C242 1.170 . S
C244 C245 1.170 . S
C244 C246 1.380 . S
C245 C244 1.170 . S
C246 C244 1.380 . S
C246 C247 1.170 . S
C247 C246 1.170 . S
C248 C249 1.170 . S
C248 C250 1.380 . S
C249 C248 1.170 . S
C250 C248 1.380 . S
C250 C251 1.170 . S
C251 C250 1.170 . S
C252 C253 1.170 . S
C252 C254 1.380 . S
C253 C252 1.170 . S
C254 C252 1.380 . S
C254 C255 1.170 . S
C255 C254 1.170 . S
C256 C257 1.170 . S
C256 C258 1.380 1_565 S
C257 C256 1.170 . S
C258 C256 1.380 1_545 S
C258 C259 1.170 . S
C259 C258 1.170 . S
C260 C261 1.170 . S
C260 C262 1.380 . S
C261 C260 1.170 . S
C262 C260 1.380 . S
C262 C263 1.170 . S
C263 C262 1.170 . S
C264 C265 1.170 . S
C264 C266 1.380 . S
C265 C264 1.170 . S
C266 C264 1.380 . S
C266 C267 1.170 1_556 S
C267 C266 1.170 1_554 S
C268 C269 1.170 1_556 S
C268 C270 1.380 . S
C269 C268 1.170 1_554 S
C270 C268 1.380 . S
C270 C271 1.170 . S
C271 C270 1.170 . S
C272 C273 1.170 . S
C272 C274 1.380 . S
C273 C272 1.170 . S
C274 C272 1.380 . S
C274 C275 1.170 . S
C275 C274 1.170 . S
C276 C277 1.170 . S
C276 C278 1.380 . S
C277 C276 1.170 . S
C278 C276 1.380 . S
C278 C279 1.170 . S
C279 C278 1.170 . S
C280 C281 1.170 . S
C280 C282 1.380 1_655 S
C281 C280 1.170 . S
C282 C280 1.380 1_455 S
C282 C283 1.170 . S
C283 C282 1.170 . S
C284 C285 1.170 . S
C284 C286 1.380 1_655 S
C285 C284 1.170 . S
C286 C284 1.380 1_455 S
C286 C287 1.170 . S
C287 C286 1.170 . S
C288 C289 1.170 . S
C288 C290 1.380 . S
C289 C288 1.170 . S
C290 C288 1.380 . S
C290 C291 1.170 . S
C291 C290 1.170 . S
C292 C293 1.170 . S
C292 C294 1.361 1_545 S
C293 C292 1.170 . S
C294 C292 1.361 1_565 S
C294 C295 1.190 . S
C295 C294 1.190 . S
C296 C297 1.170 . S
C296 C298 1.380 . S
C297 C296 1.170 . S
C298 C296 1.380 . S
C298 C299 1.170 . S
C299 C298 1.170 . S
C300 C301 1.170 . S
C300 C302 1.380 . S
C301 C300 1.170 . S
C302 C300 1.380 . S
C302 C303 1.170 1_554 S
C303 C302 1.170 1_556 S
C304 C305 1.170 . S
C304 C306 1.380 1_556 S
C305 C304 1.170 . S
C306 C304 1.380 1_554 S
C306 C307 1.170 . S
C307 C306 1.170 . S
C308 C309 1.170 . S
C308 C310 1.380 . S
C309 C308 1.170 . S
C310 C308 1.380 . S
C310 C311 1.170 . S
C311 C310 1.170 . S
C312 C313 1.170 . S
C312 C314 1.380 . S
C313 C312 1.170 . S
C314 C312 1.380 . S
C314 C315 1.170 . S
C315 C314 1.170 . S
C316 C317 1.170 . S
C316 C318 1.380 1_455 S
C317 C316 1.170 . S
C318 C316 1.380 1_655 S
C318 C319 1.170 . S
C319 C318 1.170 . S
C320 C321 1.170 . S
C320 C322 1.380 1_455 S
C321 C320 1.170 . S
C322 C320 1.380 1_655 S
C322 C323 1.170 . S
C323 C322 1.170 . S
C324 C325 1.170 . S
C324 C326 1.380 . S
C325 C324 1.170 . S
C326 C324 1.380 . S
C326 C327 1.170 . S
C327 C326 1.170 . S
C328 C329 1.170 . S
C328 C330 1.380 . S
C329 C328 1.170 . S
C330 C328 1.380 . S
C330 C331 1.170 . S
C331 C330 1.170 . S
C332 C333 1.170 . S
C332 C334 1.380 1_545 S
C333 C332 1.170 . S
C334 C332 1.380 1_565 S
C334 C335 1.170 . S
C335 C334 1.170 . S
C336 C337 1.170 . S
C336 C338 1.380 . S
C337 C336 1.170 . S
C338 C336 1.380 . S
C338 C339 1.170 . S
C339 C338 1.170 . S
C340 C341 1.170 . S
C340 C342 1.380 . S
C341 C340 1.170 . S
C342 C340 1.380 . S
C342 C343 1.170 . S
C343 C342 1.170 . S
C344 C345 1.170 . S
C344 C346 1.380 1_545 S
C345 C344 1.170 . S
C346 C344 1.380 1_565 S
C346 C347 1.170 . S
C347 C346 1.170 . S
C348 C349 1.170 . S
C348 C350 1.380 . S
C349 C348 1.170 . S
C350 C348 1.380 . S
C350 C351 1.170 . S
C351 C350 1.170 . S
C225 C7 1.336 . S
C227 C189 1.400 . S
C229 C21 1.423 . S
C231 C133 1.441 . S
C233 C203 0.709 . S
C235 C35 0.686 . S
C237 C49 0.908 . S
C239 C217 0.885 . S
C241 C63 1.455 . S
C243 C91 1.418 . S
C245 C147 1.340 . S
C247 C77 1.390 . S
C249 C161 0.784 . S
C251 C105 0.742 . S
C253 C119 0.900 . S
C255 C175 0.931 . S
C257 C36 1.563 . S
C259 C8 1.576 . S
C261 C22 1.601 . S
C263 C45 1.609 . S
C265 C177 1.529 . S
C267 C3 1.519 . S
C269 C17 1.606 . S
C271 C157 1.582 . S
C273 C59 1.613 . S
C275 C31 1.588 . S
C277 C143 1.538 . S
C279 C51 1.508 . S
C281 C23 1.879 . S
C283 C9 1.861 . S
C285 C50 1.544 . S
C287 C37 1.529 . S
C289 C149 1.860 . S
C291 C65 1.879 . S
C293 C101 1.788 . S
C295 C79 1.787 . S
C297 C93 1.514 . S
C299 C115 1.542 . S
C301 C218 1.787 . S
C303 C73 1.794 . S
C305 C87 1.444 . S
C307 C204 1.427 . S
C309 C129 1.444 . S
C311 C106 1.441 . S
C313 C120 1.789 . S
C315 C185 1.798 . S
C317 C92 1.551 . S
C319 C78 1.546 . S
C321 C121 1.635 . S
C323 C107 1.649 . S
C325 C134 1.556 . S
C327 C190 1.540 . S
C329 C148 1.574 . S
C331 C162 1.565 . S
C333 C171 1.610 . S
C335 C64 1.600 . S
C337 C176 1.545 . S
C339 C163 1.529 . S
C341 C199 1.795 . S
C343 C191 1.778 . S
C345 C135 1.514 . S
C347 C213 1.542 . S
C349 C219 1.646 . S
C351 C205 1.632 . S
