# Generated by pormake.
# Topology vbe, (5)-cn, num edge types: 1
# Building blocks:
#     Node 0, Type 0, BuildingBlock: BEQFEK_clean_sbu_0, # of connection points: 5
#     Node 1, Type 0, BuildingBlock: BEQFEK_clean_sbu_0, # of connection points: 5
#     Node 2, Type 0, BuildingBlock: BEQFEK_clean_sbu_0, # of connection points: 5
#     Node 3, Type 0, BuildingBlock: BEQFEK_clean_sbu_0, # of connection points: 5
#     Node 4, Type 0, BuildingBlock: BEQFEK_clean_sbu_0, # of connection points: 5
#     Node 5, Type 0, BuildingBlock: BEQFEK_clean_sbu_0, # of connection points: 5
#     Node 6, Type 0, BuildingBlock: BEQFEK_clean_sbu_0, # of connection points: 5
#     Node 7, Type 0, BuildingBlock: BEQFEK_clean_sbu_0, # of connection points: 5
#     Node 8, Type 0, BuildingBlock: BEQFEK_clean_sbu_0, # of connection points: 5
#     Node 9, Type 0, BuildingBlock: BEQFEK_clean_sbu_0, # of connection points: 5
#     Node 10, Type 0, BuildingBlock: BEQFEK_clean_sbu_0, # of connection points: 5
#     Node 11, Type 0, BuildingBlock: BEQFEK_clean_sbu_0, # of connection points: 5
#     Node 12, Type 0, BuildingBlock: BEQFEK_clean_sbu_0, # of connection points: 5
#     Node 13, Type 0, BuildingBlock: BEQFEK_clean_sbu_0, # of connection points: 5
#     Node 14, Type 0, BuildingBlock: BEQFEK_clean_sbu_0, # of connection points: 5
#     Node 15, Type 0, BuildingBlock: BEQFEK_clean_sbu_0, # of connection points: 5
#     Edge 16, Type (0, 0), BuildingBlock: UVAHIK_clean_linker_0, # of connection points: 2
#     Edge 17, Type (0, 0), BuildingBlock: UVAHIK_clean_linker_0, # of connection points: 2
#     Edge 18, Type (0, 0), BuildingBlock: UVAHIK_clean_linker_0, # of connection points: 2
#     Edge 19, Type (0, 0), BuildingBlock: UVAHIK_clean_linker_0, # of connection points: 2
#     Edge 20, Type (0, 0), BuildingBlock: UVAHIK_clean_linker_0, # of connection points: 2
#     Edge 21, Type (0, 0), BuildingBlock: UVAHIK_clean_linker_0, # of connection points: 2
#     Edge 22, Type (0, 0), BuildingBlock: UVAHIK_clean_linker_0, # of connection points: 2
#     Edge 23, Type (0, 0), BuildingBlock: UVAHIK_clean_linker_0, # of connection points: 2
#     Edge 24, Type (0, 0), BuildingBlock: UVAHIK_clean_linker_0, # of connection points: 2
#     Edge 25, Type (0, 0), BuildingBlock: UVAHIK_clean_linker_0, # of connection points: 2
#     Edge 26, Type (0, 0), BuildingBlock: UVAHIK_clean_linker_0, # of connection points: 2
#     Edge 27, Type (0, 0), BuildingBlock: UVAHIK_clean_linker_0, # of connection points: 2
#     Edge 28, Type (0, 0), BuildingBlock: UVAHIK_clean_linker_0, # of connection points: 2
#     Edge 29, Type (0, 0), BuildingBlock: UVAHIK_clean_linker_0, # of connection points: 2
#     Edge 30, Type (0, 0), BuildingBlock: UVAHIK_clean_linker_0, # of connection points: 2
#     Edge 31, Type (0, 0), BuildingBlock: UVAHIK_clean_linker_0, # of connection points: 2
#     Edge 32, Type (0, 0), BuildingBlock: UVAHIK_clean_linker_0, # of connection points: 2
#     Edge 33, Type (0, 0), BuildingBlock: UVAHIK_clean_linker_0, # of connection points: 2
#     Edge 34, Type (0, 0), BuildingBlock: UVAHIK_clean_linker_0, # of connection points: 2
#     Edge 35, Type (0, 0), BuildingBlock: UVAHIK_clean_linker_0, # of connection points: 2
#     Edge 36, Type (0, 0), BuildingBlock: UVAHIK_clean_linker_0, # of connection points: 2
#     Edge 37, Type (0, 0), BuildingBlock: UVAHIK_clean_linker_0, # of connection points: 2
#     Edge 38, Type (0, 0), BuildingBlock: UVAHIK_clean_linker_0, # of connection points: 2
#     Edge 39, Type (0, 0), BuildingBlock: UVAHIK_clean_linker_0, # of connection points: 2
#     Edge 40, Type (0, 0), BuildingBlock: UVAHIK_clean_linker_0, # of connection points: 2
#     Edge 41, Type (0, 0), BuildingBlock: UVAHIK_clean_linker_0, # of connection points: 2
#     Edge 42, Type (0, 0), BuildingBlock: UVAHIK_clean_linker_0, # of connection points: 2
#     Edge 43, Type (0, 0), BuildingBlock: UVAHIK_clean_linker_0, # of connection points: 2
#     Edge 44, Type (0, 0), BuildingBlock: UVAHIK_clean_linker_0, # of connection points: 2
#     Edge 45, Type (0, 0), BuildingBlock: UVAHIK_clean_linker_0, # of connection points: 2
#     Edge 46, Type (0, 0), BuildingBlock: UVAHIK_clean_linker_0, # of connection points: 2
#     Edge 47, Type (0, 0), BuildingBlock: UVAHIK_clean_linker_0, # of connection points: 2
#     Edge 48, Type (0, 0), BuildingBlock: UVAHIK_clean_linker_0, # of connection points: 2
#     Edge 49, Type (0, 0), BuildingBlock: UVAHIK_clean_linker_0, # of connection points: 2
#     Edge 50, Type (0, 0), BuildingBlock: UVAHIK_clean_linker_0, # of connection points: 2
#     Edge 51, Type (0, 0), BuildingBlock: UVAHIK_clean_linker_0, # of connection points: 2
#     Edge 52, Type (0, 0), BuildingBlock: UVAHIK_clean_linker_0, # of connection points: 2
#     Edge 53, Type (0, 0), BuildingBlock: UVAHIK_clean_linker_0, # of connection points: 2
#     Edge 54, Type (0, 0), BuildingBlock: UVAHIK_clean_linker_0, # of connection points: 2
#     Edge 55, Type (0, 0), BuildingBlock: UVAHIK_clean_linker_0, # of connection points: 2
# Relax obj value: 0.312
# Max RMSD: 0.187
# Mean RMSD: 0.187
data_MOF--net-vbe--node1-BEQFEK_clean_sbu_0--edge1-UVAHIK_clean_linker_0
_symmetry_space_group_name_H-M    P1
_symmetry_Int_Tables_number       1
_symmetry_cell_setting            triclinic
loop_
_symmetry_equiv_pos_as_xyz
'x, y, z'
_cell_length_a     57.536487
_cell_length_b     50.921391
_cell_length_c     69.655103
_cell_angle_alpha  89.955353
_cell_angle_beta   89.987797
_cell_angle_gamma 90.038151
loop_
_atom_site_label
_atom_site_type_symbol
_atom_site_fract_x
_atom_site_fract_y
_atom_site_fract_z
_atom_type_partial_charge
Co0 Co 0.09505 0.12639 0.34669 0.0
Co1 Co 0.07187 0.08584 0.37484 0.0
C2 C 0.06582 0.1436 0.38013 0.0
O3 O 0.07845 0.14907 0.36559 0.0
O4 O 0.06188 0.11995 0.38509 0.0
C5 C 0.11905 0.17196 0.33011 0.0
O6 O 0.11268 0.18515 0.34544 0.0
C7 C 0.05611 0.05869 0.40978 0.0
C8 C 0.04952 0.01872 0.39859 0.0
C9 C 0.04807 0.03398 0.41499 0.0
N10 N 0.06212 0.05796 0.39115 0.0
N11 N 0.05835 0.03398 0.38461 0.0
C12 C 0.05554 0.08342 0.42136 0.0
H13 H 0.03965 0.09451 0.4175 0.0
H14 H 0.07087 0.09576 0.41785 0.0
H15 H 0.05508 0.07959 0.43698 0.0
C16 C 0.13647 0.09529 0.35685 0.0
N17 N 0.11395 0.10156 0.3592 0.0
N18 N 0.10444 0.08527 0.37158 0.0
C19 C 0.12079 0.06863 0.37805 0.0
C20 C 0.14156 0.07416 0.36875 0.0
C21 C 0.1516 0.10715 0.34163 0.0
H22 H 0.14179 0.10838 0.32796 0.0
H23 H 0.1564 0.12741 0.34594 0.0
H24 H 0.16761 0.09556 0.33914 0.0
O25 O 0.07259 0.10778 0.33027 0.0
O26 O 0.05594 0.07943 0.35018 0.0
H27 H 0.10714 0.03116 0.38611 0.0
H28 H 0.13308 0.04051 0.39904 0.0
C29 C 0.11654 0.04781 0.39282 0.0
H30 H 0.10564 0.05583 0.40455 0.0
H31 H 0.06122 0.02824 0.37042 0.0
O32 O 0.11368 0.14785 0.32864 0.0
C33 C 0.05811 0.08946 0.33356 0.0
Co34 Co 0.39404 0.86068 0.34708 0.0
Co35 Co 0.41678 0.90507 0.37207 0.0
C36 C 0.41983 0.84761 0.38257 0.0
O37 O 0.4074 0.8399 0.3685 0.0
O38 O 0.42462 0.87179 0.38499 0.0
C39 C 0.3675 0.81592 0.33091 0.0
O40 O 0.36821 0.80443 0.34779 0.0
C41 C 0.42632 0.93318 0.40753 0.0
C42 C 0.44074 0.97084 0.39717 0.0
C43 C 0.43559 0.95685 0.41371 0.0
N44 N 0.42621 0.93309 0.38827 0.0
N45 N 0.4348 0.95565 0.38212 0.0
C46 C 0.41593 0.91181 0.41955 0.0
H47 H 0.40256 0.90093 0.41127 0.0
H48 H 0.40802 0.92004 0.43278 0.0
H49 H 0.42976 0.89783 0.42378 0.0
C50 C 0.35282 0.89438 0.35281 0.0
N51 N 0.37522 0.88834 0.35612 0.0
N52 N 0.38468 0.90678 0.3668 0.0
C53 C 0.36853 0.925 0.37089 0.0
C54 C 0.34787 0.91786 0.36204 0.0
C55 C 0.33739 0.87917 0.33955 0.0
H56 H 0.34639 0.87629 0.32562 0.0
H57 H 0.33402 0.85949 0.34581 0.0
H58 H 0.32065 0.88928 0.3369 0.0
O59 O 0.41964 0.87505 0.33157 0.0
O60 O 0.43502 0.90788 0.34814 0.0
H61 H 0.38531 0.9618 0.37616 0.0
H62 H 0.35657 0.9593 0.38662 0.0
C63 C 0.37279 0.94846 0.38337 0.0
H64 H 0.38051 0.942 0.39713 0.0
H65 H 0.43676 0.96059 0.36767 0.0
O66 O 0.37671 0.8384 0.32873 0.0
C67 C 0.43427 0.89365 0.33317 0.0
Co68 Co 0.60969 0.86976 0.1439 0.0
Co69 Co 0.57532 0.90968 0.12422 0.0
C70 C 0.5725 0.85195 0.11682 0.0
O71 O 0.59009 0.84689 0.12733 0.0
O72 O 0.56483 0.87523 0.11487 0.0
C73 C 0.63232 0.82387 0.15915 0.0
O74 O 0.61687 0.8112 0.14881 0.0
C75 C 0.54902 0.93621 0.09375 0.0
C76 C 0.54154 0.97466 0.10715 0.0
C77 C 0.53822 0.96017 0.09057 0.0
N78 N 0.55853 0.93667 0.11136 0.0
N79 N 0.55393 0.95964 0.11932 0.0
C80 C 0.54906 0.9125 0.08104 0.0
H81 H 0.53818 0.89702 0.08776 0.0
H82 H 0.56699 0.90466 0.07984 0.0
H83 H 0.54197 0.91668 0.06658 0.0
C84 C 0.6442 0.90492 0.12539 0.0
N85 N 0.62222 0.89755 0.12917 0.0
N86 N 0.60779 0.91345 0.12021 0.0
C87 C 0.62014 0.93095 0.10992 0.0
C88 C 0.64365 0.92633 0.11297 0.0
C89 C 0.66504 0.89284 0.13474 0.0
H90 H 0.6608 0.88691 0.14964 0.0
H91 H 0.67012 0.875 0.12662 0.0
H92 H 0.67993 0.90667 0.13506 0.0
O93 O 0.59103 0.8842 0.16502 0.0
O94 O 0.56743 0.91326 0.15168 0.0
H95 H 0.6011 0.9664 0.10506 0.0
H96 H 0.62262 0.95943 0.08679 0.0
C97 C 0.60954 0.95065 0.09657 0.0
H98 H 0.59612 0.94095 0.08768 0.0
H99 H 0.55924 0.96505 0.13308 0.0
O100 O 0.63364 0.84872 0.15769 0.0
C101 C 0.5752 0.90146 0.16642 0.0
Co102 Co 0.88978 0.10807 0.14901 0.0
Co103 Co 0.92215 0.07228 0.1239 0.0
C104 C 0.92583 0.13076 0.12282 0.0
O105 O 0.90917 0.13365 0.1347 0.0
O106 O 0.93292 0.10813 0.11774 0.0
C107 C 0.85981 0.15037 0.16285 0.0
O108 O 0.86553 0.16316 0.14715 0.0
C109 C 0.94702 0.0515 0.09042 0.0
C110 C 0.95273 0.01022 0.09907 0.0
C111 C 0.95695 0.02803 0.08443 0.0
N112 N 0.93758 0.04768 0.10784 0.0
N113 N 0.94109 0.02301 0.11296 0.0
C114 C 0.94481 0.07657 0.07935 0.0
H115 H 0.92867 0.08702 0.08353 0.0
H116 H 0.94454 0.07275 0.06367 0.0
H117 H 0.95984 0.08944 0.08273 0.0
C118 C 0.85355 0.08002 0.12721 0.0
N119 N 0.8759 0.08463 0.13162 0.0
N120 N 0.88936 0.06993 0.12076 0.0
C121 C 0.87591 0.05571 0.10881 0.0
C122 C 0.85279 0.06168 0.11248 0.0
C123 C 0.8335 0.09196 0.13777 0.0
H124 H 0.83749 0.09297 0.15332 0.0
H125 H 0.83074 0.11228 0.13247 0.0
H126 H 0.81731 0.08047 0.13575 0.0
O127 O 0.90855 0.08859 0.16778 0.0
O128 O 0.9318 0.06343 0.15035 0.0
H129 H 0.89353 0.02066 0.1003 0.0
H130 H 0.87127 0.03118 0.08363 0.0
C131 C 0.88515 0.03793 0.0935 0.0
H132 H 0.89847 0.04849 0.085 0.0
H133 H 0.93548 0.01491 0.12592 0.0
O134 O 0.86711 0.12706 0.16527 0.0
C135 C 0.92455 0.07152 0.16653 0.0
Co136 Co 0.88096 0.87152 0.65691 0.0
Co137 Co 0.90644 0.91168 0.62981 0.0
C138 C 0.9136 0.85401 0.62577 0.0
O139 O 0.89928 0.84888 0.63924 0.0
O140 O 0.91813 0.87753 0.62081 0.0
C141 C 0.85644 0.82526 0.67057 0.0
O142 O 0.86374 0.81417 0.65466 0.0
C143 C 0.92546 0.9377 0.59565 0.0
C144 C 0.92965 0.97849 0.60602 0.0
C145 C 0.93323 0.96243 0.59027 0.0
N146 N 0.91747 0.93917 0.61373 0.0
N147 N 0.91991 0.9636 0.61982 0.0
C148 C 0.92762 0.91246 0.58478 0.0
H149 H 0.91098 0.90148 0.5856 0.0
H150 H 0.93254 0.91552 0.56958 0.0
H151 H 0.94123 0.90025 0.59165 0.0
C152 C 0.84008 0.90088 0.64261 0.0
N153 N 0.86303 0.89587 0.6429 0.0
N154 N 0.87362 0.91162 0.63074 0.0
C155 C 0.85769 0.92655 0.62179 0.0
C156 C 0.83589 0.9205 0.62915 0.0
C157 C 0.82307 0.8887 0.65625 0.0
H158 H 0.83126 0.88612 0.67053 0.0
H159 H 0.81803 0.86904 0.6508 0.0
H160 H 0.80726 0.90092 0.65791 0.0
O161 O 0.90255 0.88993 0.67428 0.0
O162 O 0.91995 0.91879 0.65529 0.0
H163 H 0.87093 0.96346 0.61203 0.0
H164 H 0.84751 0.95055 0.59751 0.0
C165 C 0.86324 0.94533 0.60589 0.0
H166 H 0.8761 0.93637 0.59604 0.0
H167 H 0.91534 0.96996 0.63354 0.0
O168 O 0.86126 0.84923 0.67373 0.0
C169 C 0.91705 0.90847 0.67173 0.0
Co170 Co 0.58967 0.12396 0.65217 0.0
Co171 Co 0.55552 0.08317 0.6336 0.0
C172 C 0.55614 0.14044 0.62238 0.0
O173 O 0.57337 0.14621 0.63308 0.0
O174 O 0.54766 0.11737 0.62198 0.0
C175 C 0.6143 0.16881 0.66727 0.0
O176 O 0.59959 0.18256 0.65693 0.0
C177 C 0.53119 0.05769 0.6022 0.0
C178 C 0.51798 0.02126 0.61558 0.0
C179 C 0.51797 0.03546 0.59859 0.0
N180 N 0.53838 0.05685 0.6205 0.0
N181 N 0.53045 0.03505 0.62847 0.0
C182 C 0.53845 0.07853 0.58824 0.0
H183 H 0.55567 0.08661 0.59232 0.0
H184 H 0.53937 0.07058 0.57343 0.0
H185 H 0.5256 0.09476 0.58857 0.0
C186 C 0.62403 0.08573 0.63793 0.0
N187 N 0.602 0.09388 0.64017 0.0
N188 N 0.58785 0.07693 0.63201 0.0
C189 C 0.60046 0.05752 0.62405 0.0
C190 C 0.62382 0.06249 0.6275 0.0
C191 C 0.6445 0.09917 0.64686 0.0
H192 H 0.64058 0.10374 0.66208 0.0
H193 H 0.64772 0.11801 0.63929 0.0
H194 H 0.6604 0.08691 0.64634 0.0
O195 O 0.56784 0.11371 0.67267 0.0
O196 O 0.5449 0.08304 0.66046 0.0
H197 H 0.57956 0.02288 0.62231 0.0
H198 H 0.60387 0.02319 0.60578 0.0
C199 C 0.59029 0.03536 0.6127 0.0
H200 H 0.57881 0.04338 0.60137 0.0
H201 H 0.53345 0.02968 0.64272 0.0
O202 O 0.61399 0.14392 0.66609 0.0
C203 C 0.55139 0.09722 0.67448 0.0
Co204 Co 0.36881 0.15107 0.85878 0.0
Co205 Co 0.39833 0.11057 0.88287 0.0
C206 C 0.39894 0.16828 0.89141 0.0
O207 O 0.3846 0.17378 0.87801 0.0
O208 O 0.40559 0.1448 0.89455 0.0
C209 C 0.35017 0.19576 0.83886 0.0
O210 O 0.36521 0.20879 0.84936 0.0
C211 C 0.41737 0.0818 0.91605 0.0
C212 C 0.43062 0.04586 0.90199 0.0
C213 C 0.42897 0.05836 0.91958 0.0
N214 N 0.41231 0.08292 0.89723 0.0
N215 N 0.42018 0.06134 0.88894 0.0
C216 C 0.41355 0.10424 0.92954 0.0
H217 H 0.42862 0.11775 0.92847 0.0
H218 H 0.39765 0.11519 0.92542 0.0
H219 H 0.41213 0.09774 0.94464 0.0
C220 C 0.33125 0.11468 0.87079 0.0
N221 N 0.35351 0.1228 0.87107 0.0
N222 N 0.36587 0.1062 0.88136 0.0
C223 C 0.35187 0.08722 0.88816 0.0
C224 C 0.32948 0.09201 0.88174 0.0
C225 C 0.31243 0.12777 0.85951 0.0
H226 H 0.31598 0.12523 0.84396 0.0
H227 H 0.31248 0.14914 0.86259 0.0
H228 H 0.2951 0.11941 0.86297 0.0
O229 O 0.39218 0.1376 0.84063 0.0
O230 O 0.41256 0.10857 0.85723 0.0
H231 H 0.37343 0.05313 0.88981 0.0
H232 H 0.34618 0.04949 0.90214 0.0
C233 C 0.36036 0.06345 0.89872 0.0
H234 H 0.36885 0.06968 0.91227 0.0
H235 H 0.41878 0.05741 0.87429 0.0
O236 O 0.34751 0.17129 0.84179 0.0
C237 C 0.40839 0.12073 0.84169 0.0
Co238 Co 0.10643 0.86301 0.83978 0.0
Co239 Co 0.08498 0.90984 0.86316 0.0
C240 C 0.06723 0.85437 0.8666 0.0
O241 O 0.08244 0.84494 0.85523 0.0
O242 O 0.06625 0.87881 0.87029 0.0
C243 C 0.12319 0.81284 0.82529 0.0
O244 O 0.11095 0.80225 0.83922 0.0
C245 C 0.07087 0.93542 0.89846 0.0
C246 C 0.06538 0.97658 0.88948 0.0
C247 C 0.06389 0.95984 0.90515 0.0
N248 N 0.07599 0.9376 0.87975 0.0
N249 N 0.07272 0.96223 0.87442 0.0
C250 C 0.07398 0.91057 0.90967 0.0
H251 H 0.08778 0.89833 0.90305 0.0
H252 H 0.07855 0.91489 0.92482 0.0
H253 H 0.05752 0.89921 0.90936 0.0
C254 C 0.14896 0.88143 0.8592 0.0
N255 N 0.12596 0.88257 0.85596 0.0
N256 N 0.11709 0.90242 0.86557 0.0
C257 C 0.13422 0.91474 0.87511 0.0
C258 C 0.15497 0.90169 0.87153 0.0
C259 C 0.16484 0.86185 0.85005 0.0
H260 H 0.15734 0.84188 0.85154 0.0
H261 H 0.18239 0.86228 0.85666 0.0
H262 H 0.16631 0.86625 0.83449 0.0
O263 O 0.09112 0.8862 0.82079 0.0
O264 O 0.07692 0.92019 0.83681 0.0
H265 H 0.14791 0.95036 0.88812 0.0
H266 H 0.12226 0.93678 0.89926 0.0
C267 C 0.13113 0.94036 0.88536 0.0
H268 H 0.12007 0.95358 0.87664 0.0
H269 H 0.07533 0.96919 0.86049 0.0
O270 O 0.12421 0.83769 0.82388 0.0
C271 C 0.08039 0.90804 0.82114 0.0
Co272 Co 0.60373 0.64649 0.34826 0.0
Co273 Co 0.57242 0.60823 0.37276 0.0
C274 C 0.57722 0.66498 0.38279 0.0
O275 O 0.59073 0.66976 0.36867 0.0
O276 O 0.56908 0.6421 0.38579 0.0
C277 C 0.63165 0.68974 0.33295 0.0
O278 O 0.62464 0.70322 0.34795 0.0
C279 C 0.55298 0.58042 0.40608 0.0
C280 C 0.53796 0.54509 0.39245 0.0
C281 C 0.54077 0.5575 0.40998 0.0
N282 N 0.55704 0.58154 0.3871 0.0
N283 N 0.54797 0.56041 0.37903 0.0
C284 C 0.56227 0.59992 0.42017 0.0
H285 H 0.57807 0.6096 0.41437 0.0
H286 H 0.56647 0.59026 0.43403 0.0
H287 H 0.54889 0.61516 0.42279 0.0
C288 C 0.63836 0.60511 0.35663 0.0
N289 N 0.61723 0.61599 0.35892 0.0
N290 N 0.60421 0.60026 0.36939 0.0
C291 C 0.61676 0.57914 0.37448 0.0
C292 C 0.63869 0.58131 0.36638 0.0
C293 C 0.65665 0.61607 0.34361 0.0
H294 H 0.64888 0.62037 0.32937 0.0
H295 H 0.66308 0.6349 0.34962 0.0
H296 H 0.67142 0.60236 0.34171 0.0
O297 O 0.57894 0.63572 0.33051 0.0
O298 O 0.55637 0.60939 0.34773 0.0
H299 H 0.59515 0.54548 0.37883 0.0
H300 H 0.6222 0.54446 0.39202 0.0
C301 C 0.60793 0.55737 0.38698 0.0
H302 H 0.59913 0.56576 0.39971 0.0
H303 H 0.54868 0.55641 0.36435 0.0
O304 O 0.62583 0.66575 0.33141 0.0
C305 C 0.56121 0.621 0.33208 0.0
Co306 Co 0.87231 0.34605 0.3486 0.0
Co307 Co 0.89388 0.39409 0.37074 0.0
C308 C 0.90569 0.3381 0.38051 0.0
O309 O 0.89151 0.32843 0.36834 0.0
O310 O 0.90854 0.36277 0.38233 0.0
C311 C 0.85765 0.29599 0.3325 0.0
O312 O 0.87223 0.28535 0.34476 0.0
C313 C 0.90804 0.42614 0.40362 0.0
C314 C 0.91287 0.46515 0.39019 0.0
C315 C 0.91465 0.45185 0.40747 0.0
N316 N 0.9024 0.4245 0.38495 0.0
N317 N 0.90523 0.44787 0.37702 0.0
C318 C 0.9095 0.4027 0.41656 0.0
H319 H 0.92443 0.3904 0.41202 0.0
H320 H 0.8935 0.39068 0.41502 0.0
H321 H 0.91208 0.40805 0.4318 0.0
C322 C 0.82904 0.37253 0.36001 0.0
N323 N 0.8523 0.37034 0.36028 0.0
N324 N 0.8612 0.39023 0.36985 0.0
C325 C 0.8438 0.40563 0.37613 0.0
C326 C 0.82288 0.39488 0.37011 0.0
C327 C 0.81321 0.35422 0.34947 0.0
H328 H 0.81723 0.33368 0.35361 0.0
H329 H 0.79467 0.35844 0.3526 0.0
H330 H 0.81635 0.35618 0.33381 0.0
O331 O 0.89287 0.36382 0.32994 0.0
O332 O 0.90683 0.39883 0.34488 0.0
H333 H 0.85757 0.4446 0.37609 0.0
H334 H 0.83074 0.44143 0.38924 0.0
C335 C 0.84739 0.43162 0.38573 0.0
H336 H 0.85748 0.42873 0.39912 0.0
H337 H 0.90238 0.45188 0.36251 0.0
O338 O 0.85458 0.32069 0.33273 0.0
C339 C 0.90523 0.38454 0.33 0.0
Co340 Co 0.09793 0.36646 0.15167 0.0
Co341 Co 0.06876 0.40958 0.13043 0.0
C342 C 0.06389 0.35196 0.12145 0.0
O343 O 0.07962 0.34528 0.13336 0.0
O344 O 0.058 0.3759 0.11925 0.0
C345 C 0.12493 0.32043 0.16283 0.0
O346 O 0.11762 0.30966 0.1468 0.0
C347 C 0.05066 0.43812 0.09752 0.0
C348 C 0.03959 0.47578 0.11037 0.0
C349 C 0.04053 0.46213 0.09318 0.0
N350 N 0.05532 0.43759 0.11637 0.0
N351 N 0.04863 0.4601 0.12402 0.0
C352 C 0.05758 0.41673 0.08395 0.0
H353 H 0.07294 0.40604 0.08961 0.0
H354 H 0.06166 0.42482 0.06954 0.0
H355 H 0.04304 0.40253 0.08259 0.0
C356 C 0.13646 0.39929 0.13745 0.0
N357 N 0.11372 0.39352 0.13877 0.0
N358 N 0.10156 0.41191 0.1301 0.0
C359 C 0.11621 0.4302 0.12315 0.0
C360 C 0.13874 0.42273 0.12752 0.0
C361 C 0.15524 0.38379 0.14705 0.0
H362 H 0.15199 0.38334 0.16275 0.0
H363 H 0.15468 0.36324 0.14179 0.0
H364 H 0.17271 0.39223 0.14432 0.0
O365 O 0.07686 0.3811 0.17135 0.0
O366 O 0.05678 0.41236 0.15674 0.0
H367 H 0.09727 0.4663 0.12252 0.0
H368 H 0.12382 0.46689 0.10857 0.0
C369 C 0.10875 0.45468 0.11297 0.0
H370 H 0.09873 0.44931 0.09997 0.0
H371 H 0.05031 0.46476 0.13854 0.0
O372 O 0.11943 0.34403 0.16657 0.0
C373 C 0.06162 0.39917 0.1717 0.0
Co374 Co 0.38725 0.63291 0.14143 0.0
Co375 Co 0.41643 0.58825 0.12178 0.0
C376 C 0.42232 0.64525 0.11137 0.0
O377 O 0.40653 0.65297 0.1229 0.0
O378 O 0.42765 0.62108 0.10988 0.0
C379 C 0.36907 0.68045 0.15761 0.0
O380 O 0.386 0.69153 0.14788 0.0
C381 C 0.43406 0.5578 0.08961 0.0
C382 C 0.44825 0.52248 0.10392 0.0
C383 C 0.44567 0.53442 0.08617 0.0
N384 N 0.42983 0.55948 0.10851 0.0
N385 N 0.43818 0.53826 0.11699 0.0
C386 C 0.42918 0.57966 0.0758 0.0
H387 H 0.41323 0.59031 0.08022 0.0
H388 H 0.4272 0.57253 0.06089 0.0
H389 H 0.44392 0.59371 0.07612 0.0
C390 C 0.34875 0.59959 0.12787 0.0
N391 N 0.37149 0.60544 0.12896 0.0
N392 N 0.38365 0.58639 0.1211 0.0
C393 C 0.36899 0.56762 0.11491 0.0
C394 C 0.34645 0.57543 0.11893 0.0
C395 C 0.33003 0.61549 0.13719 0.0
H396 H 0.3327 0.61538 0.15297 0.0
H397 H 0.3313 0.63616 0.13224 0.0
H398 H 0.31247 0.60769 0.13392 0.0
O399 O 0.40735 0.61854 0.16188 0.0
O400 O 0.42799 0.58682 0.1483 0.0
H401 H 0.38839 0.53183 0.11617 0.0
H402 H 0.36149 0.52931 0.10278 0.0
C403 C 0.37651 0.54217 0.10616 0.0
H404 H 0.38615 0.54621 0.0927 0.0
H405 H 0.43749 0.53487 0.13176 0.0
O406 O 0.36549 0.65597 0.15566 0.0
C407 C 0.42257 0.6005 0.16287 0.0
Co408 Co 0.38229 0.3672 0.64507 0.0
Co409 Co 0.41336 0.40866 0.62344 0.0
C410 C 0.41505 0.35108 0.61406 0.0
O411 O 0.39923 0.34503 0.62614 0.0
O412 O 0.42198 0.37467 0.61208 0.0
C413 C 0.35795 0.32136 0.66037 0.0
O414 O 0.36889 0.30786 0.6471 0.0
C415 C 0.43479 0.43633 0.59104 0.0
C416 C 0.44534 0.47383 0.60443 0.0
C417 C 0.44576 0.46009 0.58726 0.0
N418 N 0.42836 0.43607 0.60958 0.0
N419 N 0.43477 0.45849 0.61752 0.0
C420 C 0.42866 0.41507 0.5771 0.0
H421 H 0.41295 0.40433 0.58201 0.0
H422 H 0.42546 0.42335 0.5626 0.0
H423 H 0.44326 0.40092 0.57621 0.0
C424 C 0.34533 0.40324 0.63147 0.0
N425 N 0.36774 0.39591 0.63273 0.0
N426 N 0.3807 0.41283 0.62324 0.0
C427 C 0.36693 0.43117 0.61527 0.0
C428 C 0.34406 0.42585 0.62032 0.0
C429 C 0.32596 0.38974 0.6419 0.0
H430 H 0.33154 0.385 0.65674 0.0
H431 H 0.32188 0.37099 0.63451 0.0
H432 H 0.3101 0.40206 0.64255 0.0
O433 O 0.4045 0.38007 0.66435 0.0
O434 O 0.42575 0.41039 0.6498 0.0
H435 H 0.38564 0.46694 0.61066 0.0
H436 H 0.36109 0.46261 0.5947 0.0
C437 C 0.3755 0.45246 0.60221 0.0
H438 H 0.38708 0.44387 0.5912 0.0
H439 H 0.43188 0.46331 0.63189 0.0
O440 O 0.36015 0.3462 0.66076 0.0
C441 C 0.42054 0.39722 0.6647 0.0
Co442 Co 0.09366 0.6122 0.64676 0.0
Co443 Co 0.06387 0.576 0.61975 0.0
C444 C 0.05755 0.63402 0.62013 0.0
O445 O 0.07357 0.63716 0.63255 0.0
O446 O 0.05177 0.61136 0.6141 0.0
C447 C 0.1225 0.65534 0.66055 0.0
O448 O 0.11817 0.66666 0.64397 0.0
C449 C 0.03993 0.55491 0.58583 0.0
C450 C 0.03612 0.51308 0.59387 0.0
C451 C 0.03086 0.53112 0.57965 0.0
N452 N 0.05021 0.551 0.60292 0.0
N453 N 0.04796 0.52596 0.60759 0.0
C454 C 0.03706 0.58142 0.57684 0.0
H455 H 0.02511 0.59328 0.58584 0.0
H456 H 0.05409 0.59165 0.5765 0.0
H457 H 0.02972 0.58033 0.56217 0.0
C458 C 0.13192 0.58556 0.62643 0.0
N459 N 0.10922 0.59012 0.62941 0.0
N460 N 0.09683 0.5755 0.61765 0.0
C461 C 0.11135 0.56158 0.60642 0.0
C462 C 0.13408 0.56741 0.61164 0.0
C463 C 0.15083 0.59656 0.63882 0.0
H464 H 0.14478 0.5979 0.65389 0.0
H465 H 0.15518 0.61666 0.63379 0.0
H466 H 0.16671 0.58425 0.63837 0.0
O467 O 0.07504 0.59094 0.66458 0.0
O468 O 0.05344 0.56575 0.64573 0.0
H469 H 0.09623 0.52547 0.59707 0.0
H470 H 0.11812 0.53837 0.58098 0.0
C471 C 0.10356 0.54363 0.59068 0.0
H472 H 0.08975 0.55332 0.58215 0.0
H473 H 0.05414 0.5178 0.62035 0.0
O474 O 0.1148 0.63235 0.66371 0.0
C475 C 0.05969 0.57328 0.66232 0.0
Co476 Co 0.88485 0.62128 0.8423 0.0
Co477 Co 0.91609 0.58881 0.87052 0.0
C478 C 0.91609 0.64689 0.87158 0.0
O479 O 0.90118 0.64816 0.85808 0.0
O480 O 0.92364 0.62499 0.87776 0.0
C481 C 0.85222 0.66096 0.82978 0.0
O482 O 0.85473 0.67054 0.84717 0.0
C483 C 0.93793 0.56807 0.9055 0.0
C484 C 0.94782 0.5282 0.89596 0.0
C485 C 0.94856 0.54503 0.91157 0.0
N486 N 0.9313 0.56489 0.88716 0.0
N487 N 0.93737 0.5411 0.88151 0.0
C488 C 0.93233 0.59192 0.91715 0.0
H489 H 0.91664 0.60181 0.91138 0.0
H490 H 0.92939 0.58664 0.93242 0.0
H491 H 0.9471 0.60591 0.91631 0.0
C492 C 0.84871 0.58683 0.85918 0.0
N493 N 0.87058 0.59605 0.85827 0.0
N494 N 0.88358 0.58333 0.87073 0.0
C495 C 0.87025 0.56613 0.88041 0.0
C496 C 0.84777 0.56752 0.87328 0.0
C497 C 0.82994 0.59452 0.8454 0.0
H498 H 0.83749 0.59835 0.83103 0.0
H499 H 0.82161 0.61287 0.85052 0.0
H500 H 0.8165 0.57899 0.84412 0.0
O501 O 0.90682 0.60368 0.82477 0.0
O502 O 0.92901 0.5813 0.84497 0.0
H503 H 0.88949 0.53289 0.89039 0.0
H504 H 0.86432 0.54066 0.90488 0.0
C505 C 0.87886 0.54908 0.89642 0.0
H506 H 0.88992 0.56081 0.90618 0.0
H507 H 0.9342 0.53362 0.86782 0.0
O508 O 0.86248 0.63971 0.82539 0.0
C509 C 0.92367 0.58816 0.828 0.0
Co510 Co 0.60184 0.35354 0.8505 0.0
Co511 Co 0.57558 0.39918 0.87174 0.0
C512 C 0.56914 0.34228 0.8824 0.0
O513 O 0.58369 0.33377 0.87006 0.0
O514 O 0.56455 0.36663 0.88388 0.0
C515 C 0.62656 0.306 0.83766 0.0
O516 O 0.61919 0.29422 0.85331 0.0
C517 C 0.55983 0.43074 0.90451 0.0
C518 C 0.54461 0.46521 0.88988 0.0
C519 C 0.54797 0.454 0.90777 0.0
N520 N 0.56342 0.42837 0.88552 0.0
N521 N 0.55451 0.44918 0.87688 0.0
C522 C 0.56587 0.41004 0.91895 0.0
H523 H 0.54975 0.40258 0.92581 0.0
H524 H 0.57548 0.39366 0.91218 0.0
H525 H 0.577 0.41844 0.93037 0.0
C526 C 0.6423 0.38545 0.86252 0.0
N527 N 0.61931 0.3807 0.86202 0.0
N528 N 0.60832 0.39961 0.87114 0.0
C529 C 0.62395 0.41683 0.87801 0.0
C530 C 0.64599 0.40853 0.87269 0.0
C531 C 0.65992 0.36922 0.85207 0.0
H532 H 0.65416 0.36625 0.83703 0.0
H533 H 0.66109 0.34962 0.85897 0.0
H534 H 0.67732 0.37859 0.85197 0.0
O535 O 0.58041 0.36833 0.8313 0.0
O536 O 0.56266 0.40154 0.8456 0.0
H537 H 0.60679 0.45379 0.8816 0.0
H538 H 0.63332 0.45067 0.89545 0.0
C539 C 0.61778 0.44014 0.89007 0.0
H540 H 0.60762 0.43347 0.90265 0.0
H541 H 0.55448 0.45199 0.86204 0.0
O542 O 0.62182 0.33008 0.83499 0.0
C543 C 0.56613 0.38734 0.83089 0.0
C544 C 0.95971 0.05667 0.18438 0.0
C545 C 0.9359 0.0625 0.18427 0.0
C546 C 0.97124 0.05225 0.20171 0.0
C547 C 0.96443 0.06822 0.25324 0.0
H548 H 0.02276 0.03048 0.25708 0.0
C549 C 0.02169 0.06841 0.32146 0.0
C550 C 0.04352 0.07971 0.31772 0.0
C551 C 0.00738 0.06056 0.30631 0.0
C552 C 0.00636 0.04085 0.25621 0.0
H553 H 0.90497 0.06599 0.2018 0.0
H554 H 0.92472 0.05677 0.23197 0.0
H555 H -0.00131 0.02529 0.22844 0.0
H556 H 0.06796 0.09062 0.29538 0.0
H557 H 0.04311 0.07628 0.26894 0.0
H558 H 0.97223 0.08363 0.2811 0.0
C559 C 0.93484 0.05684 0.21886 0.0
C560 C -0.00735 0.0381 0.23978 0.0
C561 C 0.92345 0.06193 0.20158 0.0
C562 C 0.05115 0.08214 0.29865 0.0
C563 C 0.03707 0.07375 0.28356 0.0
C564 C 0.97789 0.07049 0.2698 0.0
C565 C 0.95905 0.05298 0.21925 0.0
C566 C 0.97185 0.05242 0.23782 0.0
C567 C 0.01496 0.06329 0.28727 0.0
C568 C -0.00076 0.05743 0.27115 0.0
H569 H 0.96971 0.05711 0.17119 0.0
H570 H 0.98991 0.04971 0.20135 0.0
H571 H 0.94882 0.07999 0.25223 0.0
H572 H 0.0154 0.06636 0.33605 0.0
H573 H 0.99031 0.05263 0.30943 0.0
C574 C 0.57501 0.89582 0.20203 0.0
C575 C 0.56504 0.90689 0.18548 0.0
C576 C 0.56422 0.89858 0.21983 0.0
C577 C 0.51796 0.93393 0.24635 0.0
H578 H 0.51159 0.86735 0.27294 0.0
C579 C 0.45194 0.88036 0.30199 0.0
C580 C 0.45097 0.89813 0.31739 0.0
C581 C 0.46803 0.88379 0.28729 0.0
C582 C 0.51329 0.88611 0.26571 0.0
H583 H 0.53664 0.93081 0.1748 0.0
H584 H 0.51753 0.93517 0.20588 0.0
H585 H 0.53644 0.87027 0.24481 0.0
H586 H 0.4659 0.93376 0.32926 0.0
H587 H 0.49411 0.93982 0.30327 0.0
H588 H 0.49393 0.94937 0.26701 0.0
C589 C 0.53383 0.92461 0.2051 0.0
C590 C 0.52772 0.88787 0.24973 0.0
C591 C 0.5447 0.92195 0.18727 0.0
C592 C 0.46627 0.9197 0.31761 0.0
C593 C 0.48233 0.92324 0.30274 0.0
C594 C 0.50353 0.93218 0.26246 0.0
C595 C 0.54318 0.91235 0.22146 0.0
C596 C 0.52988 0.91165 0.23965 0.0
C597 C 0.48349 0.90512 0.28759 0.0
C598 C 0.50068 0.90806 0.27198 0.0
H599 H 0.59087 0.88442 0.20121 0.0
H600 H 0.57204 0.88931 0.23225 0.0
H601 H 0.51946 0.95256 0.23894 0.0
H602 H 0.4404 0.86358 0.30131 0.0
H603 H 0.4683 0.86978 0.2756 0.0
C604 C 0.93158 0.90272 0.70526 0.0
C605 C 0.93248 0.9163 0.68771 0.0
C606 C 0.94845 0.90705 0.71925 0.0
C607 C -0.00326 0.90307 0.73567 0.0
H608 H 0.01912 0.96996 0.75488 0.0
C609 C 0.07402 0.90513 0.78577 0.0
C610 C 0.06934 0.91762 0.80333 0.0
C611 C 0.06016 0.91006 0.76977 0.0
C612 C 0.01308 0.9512 0.74952 0.0
H613 H 0.95075 0.94658 0.6717 0.0
H614 H 0.98025 0.95412 0.69632 0.0
H615 H 0.98689 0.96888 0.73172 0.0
H616 H 0.04799 0.94708 0.81733 0.0
H617 H 0.02356 0.95536 0.78939 0.0
H618 H 0.02238 0.8852 0.75347 0.0
C619 C 0.96651 0.94007 0.69911 0.0
C620 C -0.00526 0.95059 0.73631 0.0
C621 C 0.94967 0.93564 0.68501 0.0
C622 C 0.05192 0.93697 0.80405 0.0
C623 C 0.03798 0.94182 0.78801 0.0
C624 C 0.0151 0.90367 0.74863 0.0
C625 C 0.96647 0.92514 0.71604 0.0
C626 C 0.98621 0.92645 0.72955 0.0
C627 C 0.04131 0.92748 0.77102 0.0
C628 C 0.02334 0.92768 0.75584 0.0
H629 H 0.91847 0.88788 0.7079 0.0
H630 H 0.94786 0.89561 0.73236 0.0
H631 H 0.99072 0.88422 0.73044 0.0
H632 H 0.08758 0.89047 0.78463 0.0
H633 H 0.06339 0.89914 0.75669 0.0
C634 C 0.54541 0.11199 0.7083 0.0
C635 C 0.53886 0.09568 0.69295 0.0
C636 C 0.53238 0.11244 0.72516 0.0
C637 C 0.49167 0.12413 0.75109 0.0
H638 H 0.46675 0.06201 0.77596 0.0
C639 C 0.41975 0.13047 0.80779 0.0
C640 C 0.42295 0.11568 0.82462 0.0
C641 C 0.43409 0.12656 0.79193 0.0
C642 C 0.47372 0.07949 0.7692 0.0
H643 H 0.51408 0.06616 0.68361 0.0
H644 H 0.49123 0.0671 0.71313 0.0
H645 H 0.49273 0.05725 0.74833 0.0
H646 H 0.44338 0.0847 0.83783 0.0
H647 H 0.46849 0.07795 0.81003 0.0
H648 H 0.47281 0.1464 0.77189 0.0
C649 C 0.50652 0.07944 0.71207 0.0
C650 C 0.4884 0.07678 0.75335 0.0
C651 C 0.51954 0.07901 0.69515 0.0
C652 C 0.44049 0.09647 0.82509 0.0
C653 C 0.45479 0.09248 0.80916 0.0
C654 C 0.47693 0.12684 0.76682 0.0
C655 C 0.51256 0.09657 0.72706 0.0
C656 C 0.4975 0.0991 0.74416 0.0
C657 C 0.45189 0.10771 0.79252 0.0
C658 C 0.46773 0.10457 0.77598 0.0
H659 H 0.56031 0.12492 0.70717 0.0
H660 H 0.53763 0.12552 0.73663 0.0
H661 H 0.4982 0.14169 0.74414 0.0
H662 H 0.40633 0.14534 0.8069 0.0
H663 H 0.43127 0.13831 0.77917 0.0
C664 C 0.55607 0.61853 0.29667 0.0
C665 C 0.54646 0.61665 0.31512 0.0
C666 C 0.54237 0.61407 0.28051 0.0
C667 C 0.48523 0.58659 0.26507 0.0
H668 H 0.49853 0.62717 0.2192 0.0
C669 C 0.42542 0.60481 0.1985 0.0
C670 C 0.43529 0.59674 0.18101 0.0
C671 C 0.43841 0.60384 0.2154 0.0
C672 C 0.4948 0.61562 0.23191 0.0
H673 H 0.51502 0.60886 0.33127 0.0
H674 H 0.49065 0.60249 0.30302 0.0
H675 H 0.52206 0.6337 0.24782 0.0
H676 H 0.46614 0.58065 0.16752 0.0
H677 H 0.48911 0.57988 0.19709 0.0
H678 H 0.457 0.56972 0.24908 0.0
C679 C 0.50896 0.60646 0.30096 0.0
C680 C 0.50833 0.61917 0.24829 0.0
C681 C 0.52285 0.61032 0.31716 0.0
C682 C 0.45809 0.58689 0.18081 0.0
C683 C 0.47122 0.58648 0.19764 0.0
C684 C 0.47135 0.5835 0.24876 0.0
C685 C 0.51856 0.60828 0.28241 0.0
C686 C 0.50385 0.60458 0.26506 0.0
C687 C 0.46154 0.59529 0.21494 0.0
C688 C 0.47621 0.59788 0.23209 0.0
H689 H 0.57434 0.62299 0.29472 0.0
H690 H 0.55058 0.61496 0.26654 0.0
H691 H 0.48146 0.57469 0.27757 0.0
H692 H 0.40784 0.61238 0.19904 0.0
H693 H 0.43076 0.61085 0.22865 0.0
C694 C 0.91794 0.37512 0.29641 0.0
C695 C 0.91929 0.39096 0.31288 0.0
C696 C 0.93307 0.37921 0.28107 0.0
C697 C 0.97406 0.42606 0.25911 0.0
H698 H 0.00282 0.36251 0.23972 0.0
C699 C 0.05306 0.38888 0.20607 0.0
C700 C 0.04804 0.40343 0.18942 0.0
C701 C 0.03851 0.39033 0.22203 0.0
C702 C -0.00485 0.38047 0.24512 0.0
H703 H 0.93677 0.42444 0.32572 0.0
H704 H 0.96332 0.43141 0.29889 0.0
H705 H 0.97398 0.35953 0.26512 0.0
H706 H 0.02459 0.43213 0.17692 0.0
H707 H -0.00096 0.43439 0.20478 0.0
H708 H -0.00448 0.44696 0.23909 0.0
C709 C 0.95048 0.4159 0.29788 0.0
C710 C 0.97837 0.37873 0.25946 0.0
C711 C 0.93533 0.41182 0.31327 0.0
C712 C 0.02889 0.42057 0.18949 0.0
C713 C 0.01431 0.42199 0.20548 0.0
C714 C 0.99084 0.4278 0.24465 0.0
C715 C 0.94986 0.39921 0.28185 0.0
C716 C 0.96756 0.40146 0.26654 0.0
C717 C 0.01863 0.40632 0.22169 0.0
C718 C 0.00153 0.40499 0.23753 0.0
H719 H 0.90564 0.35906 0.29554 0.0
H720 H 0.93191 0.36637 0.26871 0.0
H721 H 0.96594 0.44388 0.26429 0.0
H722 H 0.06783 0.37571 0.20659 0.0
H723 H 0.0425 0.37842 0.23449 0.0
C724 C 0.53573 0.41205 0.81246 0.0
C725 C 0.5527 0.39221 0.81317 0.0
C726 C 0.52195 0.41523 0.79611 0.0
C727 C 0.50279 0.42454 0.75557 0.0
H728 H 0.47772 0.36004 0.73438 0.0
C729 C 0.45344 0.41762 0.68304 0.0
C730 C 0.43411 0.40071 0.68252 0.0
C731 C 0.46741 0.41894 0.69943 0.0
C732 C 0.48444 0.37824 0.74022 0.0
H733 H 0.56919 0.36093 0.79694 0.0
H734 H 0.54523 0.36659 0.7685 0.0
H735 H 0.50383 0.35806 0.76179 0.0
H736 H 0.41362 0.37297 0.69914 0.0
H737 H 0.43789 0.37543 0.72763 0.0
H738 H 0.48309 0.44468 0.73397 0.0
C739 C 0.54236 0.3794 0.78068 0.0
C740 C 0.49961 0.37708 0.75576 0.0
C741 C 0.55614 0.37625 0.79696 0.0
C742 C 0.42851 0.386 0.69897 0.0
C743 C 0.44245 0.38731 0.71528 0.0
C744 C 0.48765 0.4257 0.7399 0.0
C745 C 0.52486 0.39859 0.78022 0.0
C746 C 0.50896 0.40019 0.76359 0.0
C747 C 0.4623 0.40335 0.71553 0.0
C748 C 0.47827 0.40253 0.73215 0.0
H749 H 0.53269 0.42473 0.82468 0.0
H750 H 0.50848 0.43009 0.79616 0.0
H751 H 0.50986 0.44263 0.7613 0.0
H752 H 0.45819 0.42926 0.67062 0.0
H753 H 0.48268 0.43138 0.69922 0.0
C754 C 0.95995 0.56782 0.81513 0.0
C755 C 0.93772 0.57832 0.81182 0.0
C756 C 0.97389 0.56003 0.79978 0.0
C757 C 0.97426 0.54088 0.74928 0.0
H758 H 0.03257 0.57886 0.74676 0.0
C759 C 0.02379 0.55764 0.67871 0.0
C760 C 0.04766 0.56309 0.67939 0.0
C761 C 0.01151 0.55267 0.69562 0.0
C762 C 0.01673 0.56741 0.74736 0.0
H763 H 0.91219 0.58767 0.78993 0.0
H764 H 0.93657 0.57369 0.76307 0.0
H765 H 0.00854 0.58239 0.77521 0.0
H766 H 0.07796 0.56511 0.69776 0.0
H767 H 0.05689 0.55487 0.72715 0.0
H768 H 0.98239 0.52579 0.72144 0.0
C769 C 0.94314 0.57165 0.77757 0.0
C770 C 0.00289 0.56963 0.76367 0.0
C771 C 0.92932 0.57985 0.79291 0.0
C772 C 0.05945 0.56137 0.69696 0.0
C773 C 0.04731 0.55571 0.71379 0.0
C774 C 0.98834 0.53821 0.73305 0.0
C775 C 0.96568 0.56216 0.78088 0.0
C776 C 0.98133 0.5569 0.76458 0.0
C777 C 0.02301 0.5525 0.71347 0.0
C778 C 0.0095 0.552 0.73167 0.0
H779 H 0.96689 0.56635 0.82955 0.0
H780 H -0.00876 0.55274 0.80263 0.0
H781 H 0.95771 0.53074 0.74979 0.0
H782 H 0.01432 0.55896 0.6653 0.0
H783 H -0.00718 0.55058 0.69473 0.0
C784 C 0.13615 0.17107 0.29711 0.0
C785 C 0.12978 0.18549 0.3135 0.0
C786 C 0.14319 0.1839 0.28037 0.0
C787 C 0.16169 0.24779 0.25989 0.0
H788 H 0.12644 0.22464 0.21558 0.0
C789 C 0.14004 0.31509 0.19626 0.0
C790 C 0.13567 0.30417 0.17808 0.0
C791 C 0.14601 0.29907 0.21175 0.0
C792 C 0.13695 0.23106 0.22759 0.0
H793 H 0.12736 0.22465 0.32555 0.0
H794 H 0.13954 0.24709 0.29623 0.0
H795 H 0.12483 0.19943 0.24509 0.0
H796 H 0.13628 0.26814 0.16151 0.0
H797 H 0.14731 0.2402 0.18848 0.0
H798 H 0.17341 0.27981 0.24244 0.0
C799 C 0.13914 0.22583 0.29638 0.0
C800 C 0.13594 0.21659 0.24459 0.0
C801 C 0.13204 0.21297 0.31315 0.0
C802 C 0.13924 0.27713 0.17539 0.0
C803 C 0.14541 0.26109 0.19089 0.0
C804 C 0.16287 0.2622 0.24279 0.0
C805 C 0.1441 0.21144 0.27964 0.0
C806 C 0.14783 0.22513 0.26106 0.0
C807 C 0.14798 0.27174 0.20943 0.0
C808 C 0.14999 0.25439 0.22658 0.0
H809 H 0.13492 0.14984 0.29694 0.0
H810 H 0.14727 0.17228 0.26779 0.0
H811 H 0.17128 0.25465 0.27229 0.0
H812 H 0.13761 0.33588 0.19883 0.0
H813 H 0.14765 0.30802 0.22578 0.0
C814 C 0.34545 0.68116 0.18784 0.0
C815 C 0.35776 0.69487 0.17353 0.0
C816 C 0.33872 0.69382 0.20475 0.0
C817 C 0.33162 0.75849 0.2282 0.0
H818 H 0.35622 0.72322 0.27317 0.0
C819 C 0.35886 0.81438 0.29579 0.0
C820 C 0.3581 0.80212 0.31387 0.0
C821 C 0.35245 0.80077 0.27925 0.0
C822 C 0.34868 0.73316 0.26093 0.0
H823 H 0.37095 0.73308 0.1651 0.0
H824 H 0.35896 0.7552 0.19451 0.0
H825 H 0.35553 0.70047 0.24251 0.0
H826 H 0.34867 0.76633 0.32885 0.0
H827 H 0.33699 0.7426 0.29992 0.0
H828 H 0.32512 0.79138 0.24651 0.0
C829 C 0.35464 0.73464 0.19269 0.0
C830 C 0.34834 0.72009 0.2433 0.0
C831 C 0.36161 0.72193 0.17587 0.0
C832 C 0.34964 0.77627 0.31513 0.0
C833 C 0.34307 0.76264 0.29852 0.0
C834 C 0.3317 0.77148 0.24588 0.0
C835 C 0.34386 0.7205 0.20758 0.0
C836 C 0.34048 0.7329 0.22665 0.0
C837 C 0.34489 0.77455 0.28032 0.0
C838 C 0.34097 0.7593 0.26235 0.0
H839 H 0.34212 0.6603 0.18647 0.0
H840 H 0.33022 0.68252 0.21591 0.0
H841 H 0.32518 0.76871 0.21564 0.0
H842 H 0.3652 0.83431 0.29425 0.0
H843 H 0.35447 0.81053 0.26554 0.0
C844 C 0.64461 0.69031 0.29863 0.0
C845 C 0.64248 0.7033 0.31634 0.0
C846 C 0.65115 0.70406 0.28212 0.0
C847 C 0.64981 0.7717 0.26294 0.0
H848 H 0.67873 0.73871 0.21883 0.0
C849 C 0.65403 0.82486 0.19037 0.0
C850 C 0.64396 0.81029 0.17536 0.0
C851 C 0.66054 0.81252 0.20749 0.0
C852 C 0.67073 0.74821 0.23106 0.0
H853 H 0.64738 0.74052 0.33088 0.0
H854 H 0.65955 0.76436 0.3022 0.0
H855 H 0.67858 0.71603 0.24975 0.0
H856 H 0.63472 0.77106 0.16596 0.0
H857 H 0.6463 0.74955 0.19575 0.0
H858 H 0.64168 0.80367 0.24419 0.0
C859 C 0.6554 0.7437 0.30091 0.0
C860 C 0.67053 0.73519 0.24878 0.0
C861 C 0.64859 0.72998 0.31741 0.0
C862 C 0.6423 0.78287 0.17727 0.0
C863 C 0.64903 0.77051 0.19433 0.0
C864 C 0.65026 0.78481 0.24532 0.0
C865 C 0.65601 0.73112 0.28291 0.0
C866 C 0.65947 0.74644 0.26484 0.0
C867 C 0.6574 0.78534 0.20988 0.0
C868 C 0.66019 0.77294 0.22906 0.0
H869 H 0.64007 0.66975 0.29725 0.0
H870 H 0.65113 0.69365 0.26857 0.0
H871 H 0.64077 0.78089 0.27479 0.0
H872 H 0.65564 0.84601 0.18937 0.0
H873 H 0.66721 0.8244 0.21916 0.0
C874 C 0.85192 0.25308 0.31543 0.0
C875 C 0.84792 0.28026 0.31651 0.0
C876 C 0.84578 0.23902 0.29893 0.0
C877 C 0.84127 0.24944 0.24762 0.0
H878 H 0.81563 0.17906 0.24655 0.0
C879 C 0.8416 0.19051 0.17743 0.0
C880 C 0.8489 0.1643 0.1792 0.0
C881 C 0.83491 0.20483 0.19368 0.0
C882 C 0.82294 0.19866 0.24658 0.0
H883 H 0.83297 0.31368 0.30157 0.0
H884 H 0.82257 0.28917 0.27277 0.0
H885 H 0.81635 0.20353 0.2767 0.0
H886 H 0.85345 0.13209 0.19929 0.0
H887 H 0.84269 0.15706 0.22745 0.0
H888 H 0.84923 0.24428 0.21796 0.0
C889 C 0.83056 0.2788 0.28465 0.0
C890 C 0.82324 0.21268 0.26385 0.0
C891 C 0.83646 0.29279 0.30119 0.0
C892 C 0.848 0.15228 0.19737 0.0
C893 C 0.84162 0.16663 0.21359 0.0
C894 C 0.84128 0.23533 0.23044 0.0
C895 C 0.8357 0.25193 0.28315 0.0
C896 C 0.83279 0.23804 0.2646 0.0
C897 C 0.83565 0.19333 0.21208 0.0
C898 C 0.83255 0.20952 0.22974 0.0
H899 H 0.86062 0.24282 0.327 0.0
H900 H 0.85007 0.21834 0.29814 0.0
H901 H 0.84903 0.26883 0.24781 0.0
H902 H 0.84184 0.20028 0.16362 0.0
H903 H 0.82986 0.22516 0.19186 0.0
C904 C 0.83351 0.70255 0.8182 0.0
C905 C 0.84124 0.67688 0.81446 0.0
C906 C 0.82707 0.71916 0.80311 0.0
C907 C 0.81526 0.7216 0.75035 0.0
H908 H 0.84605 0.78914 0.75399 0.0
C909 C 0.84505 0.78177 0.68463 0.0
C910 C 0.84559 0.8093 0.68594 0.0
C911 C 0.83799 0.76656 0.70031 0.0
C912 C 0.83687 0.77063 0.75281 0.0
H913 H 0.84646 0.64787 0.79206 0.0
H914 H 0.83564 0.67684 0.76584 0.0
H915 H 0.84468 0.76063 0.78186 0.0
H916 H 0.83742 0.84251 0.70423 0.0
H917 H 0.82484 0.81601 0.73146 0.0
H918 H 0.80832 0.73135 0.72096 0.0
C919 C 0.83437 0.68419 0.78039 0.0
C920 C 0.83606 0.75424 0.76885 0.0
C921 C 0.84076 0.66759 0.79546 0.0
C922 C 0.83751 0.82133 0.70283 0.0
C923 C 0.83038 0.80614 0.71847 0.0
C924 C 0.8161 0.73804 0.73425 0.0
C925 C 0.82824 0.71046 0.78396 0.0
C926 C 0.82575 0.72925 0.76772 0.0
C927 C 0.83123 0.77857 0.71762 0.0
C928 C 0.8274 0.7625 0.73518 0.0
H929 H 0.83344 0.71025 0.83269 0.0
H930 H 0.82198 0.73914 0.80638 0.0
H931 H 0.80688 0.70263 0.74907 0.0
H932 H 0.85111 0.77187 0.67181 0.0
H933 H 0.83904 0.74539 0.69919 0.0
C934 C 0.64079 0.26359 0.8234 0.0
C935 C 0.63672 0.29068 0.82164 0.0
C936 C 0.64693 0.24865 0.8073 0.0
C937 C 0.66297 0.254 0.75503 0.0
H938 H 0.62843 0.18882 0.75146 0.0
C939 C 0.62749 0.20904 0.68492 0.0
C940 C 0.62743 0.18156 0.68301 0.0
C941 C 0.63601 0.22082 0.70163 0.0
C942 C 0.63856 0.20672 0.75232 0.0
H943 H 0.63742 0.32359 0.8018 0.0
H944 H 0.64717 0.29769 0.77389 0.0
H945 H 0.62998 0.21202 0.78184 0.0
H946 H 0.63793 0.14503 0.69658 0.0
H947 H 0.65245 0.16565 0.72581 0.0
H948 H 0.67006 0.24933 0.72498 0.0
C949 C 0.64614 0.28782 0.78763 0.0
C950 C 0.63956 0.22004 0.76982 0.0
C951 C 0.6403 0.30273 0.80371 0.0
C952 C 0.63756 0.16625 0.69761 0.0
C953 C 0.64582 0.17801 0.71439 0.0
C954 C 0.66166 0.24084 0.73744 0.0
C955 C 0.64888 0.26044 0.78906 0.0
C956 C 0.65124 0.24425 0.77131 0.0
C957 C 0.64444 0.20534 0.71681 0.0
C958 C 0.64899 0.21738 0.73583 0.0
H959 H 0.63844 0.25374 0.83705 0.0
H960 H 0.64944 0.22771 0.80907 0.0
H961 H 0.67259 0.27225 0.7557 0.0
H962 H 0.61992 0.2214 0.67391 0.0
H963 H 0.63463 0.24193 0.70314 0.0
C964 C 0.3423 0.32152 0.69391 0.0
C965 C 0.34704 0.30769 0.67689 0.0
C966 C 0.33579 0.30818 0.71061 0.0
C967 C 0.34096 0.24201 0.73242 0.0
H968 H 0.30658 0.27492 0.77381 0.0
C969 C 0.33195 0.19236 0.80626 0.0
C970 C 0.34035 0.20806 0.82136 0.0
C971 C 0.32687 0.20347 0.78837 0.0
C972 C 0.31611 0.26545 0.76233 0.0
H973 H 0.34685 0.26918 0.66369 0.0
H974 H 0.33452 0.24595 0.69258 0.0
H975 H 0.30758 0.2957 0.74221 0.0
H976 H 0.34829 0.24799 0.82993 0.0
H977 H 0.33898 0.26743 0.7988 0.0
H978 H 0.34948 0.21183 0.75263 0.0
C979 C 0.3367 0.26705 0.69327 0.0
C980 C 0.31684 0.27741 0.74423 0.0
C981 C 0.34357 0.28039 0.67662 0.0
C982 C 0.34194 0.23535 0.81858 0.0
C983 C 0.33652 0.24651 0.80077 0.0
C984 C 0.33991 0.2299 0.75041 0.0
C985 C 0.33348 0.28066 0.71069 0.0
C986 C 0.32982 0.26622 0.72914 0.0
C987 C 0.32969 0.23056 0.78531 0.0
C988 C 0.32796 0.24179 0.76568 0.0
H989 H 0.34484 0.34258 0.69468 0.0
H990 H 0.3338 0.31944 0.72367 0.0
H991 H 0.35149 0.23292 0.7214 0.0
H992 H 0.33051 0.17126 0.8079 0.0
H993 H 0.32145 0.19076 0.77674 0.0
C994 C 0.13297 0.65991 0.69525 0.0
C995 C 0.13265 0.67057 0.67662 0.0
C996 C 0.13893 0.67544 0.711 0.0
C997 C 0.13871 0.74509 0.72529 0.0
H998 H 0.1644 0.71723 0.77258 0.0
C999 C 0.14296 0.80808 0.79345 0.0
C1000 C 0.13273 0.79631 0.80966 0.0
C1001 C 0.14876 0.79301 0.77739 0.0
C1002 C 0.15725 0.72528 0.75945 0.0
H1003 H 0.14014 0.7054 0.65979 0.0
H1004 H 0.15121 0.73237 0.68726 0.0
H1005 H 0.16506 0.69049 0.74347 0.0
H1006 H 0.12204 0.7592 0.82218 0.0
H1007 H 0.13221 0.73291 0.79413 0.0
H1008 H 0.13061 0.77968 0.74131 0.0
C1009 C 0.14614 0.71217 0.68975 0.0
C1010 C 0.15756 0.70996 0.74277 0.0
C1011 C 0.13996 0.69666 0.67397 0.0
C1012 C 0.1298 0.7689 0.80991 0.0
C1013 C 0.13573 0.75381 0.79387 0.0
C1014 C 0.13862 0.76045 0.74188 0.0
C1015 C 0.14496 0.702 0.70854 0.0
C1016 C 0.14777 0.71943 0.72558 0.0
C1017 C 0.14462 0.76583 0.77723 0.0
C1018 C 0.14742 0.75052 0.75924 0.0
H1019 H 0.1275 0.63986 0.69784 0.0
H1020 H 0.13755 0.66692 0.7252 0.0
H1021 H 0.13062 0.75295 0.71248 0.0
H1022 H 0.14566 0.82911 0.79281 0.0
H1023 H 0.15589 0.80276 0.76488 0.0
C1024 C 0.01573 0.01272 0.43283 0.0
C1025 C 0.03718 0.02582 0.43316 0.0
C1026 C 0.00487 0.0055 0.44994 0.0
C1027 C 0.00268 0.02213 0.50111 0.0
H1028 H 0.97276 0.95419 0.50609 0.0
C1029 C 0.96571 0.98431 0.57298 0.0
C1030 C 0.94474 0.9703 0.57231 0.0
C1031 C 0.97709 0.99128 0.55602 0.0
C1032 C 0.98079 0.97336 0.50484 0.0
H1033 H 0.06502 0.03989 0.45136 0.0
H1034 H 0.04584 0.02766 0.48143 0.0
H1035 H -0.00702 0.96534 0.47642 0.0
H1036 H 0.91827 0.95412 0.55368 0.0
H1037 H 0.93808 0.96632 0.52393 0.0
H1038 H 0.99034 0.03027 0.52945 0.0
C1039 C 0.03713 0.02362 0.46796 0.0
C1040 C -0.00759 0.9797 0.48787 0.0
C1041 C 0.04803 0.03075 0.45081 0.0
C1042 C 0.93484 0.96418 0.55449 0.0
C1043 C 0.94616 0.9712 0.53751 0.0
C1044 C -0.00901 0.01582 0.51806 0.0
C1045 C 0.01535 0.0111 0.46768 0.0
C1046 C 0.00344 0.00416 0.48583 0.0
C1047 C 0.96753 0.9846 0.5381 0.0
C1048 C 0.97989 0.99138 0.52009 0.0
H1049 H 0.00713 0.00857 0.41933 0.0
H1050 H 0.98802 0.99603 0.44928 0.0
H1051 H 0.01075 0.04127 0.49982 0.0
H1052 H 0.97356 0.98937 0.58662 0.0
H1053 H -0.0064 0.00141 0.55697 0.0
C1054 C 0.44872 0.94752 0.44724 0.0
C1055 C 0.44043 0.96543 0.43354 0.0
C1056 C 0.45418 0.95587 0.46575 0.0
C1057 C 0.47157 0.01456 0.49255 0.0
H1058 H 0.45763 0.97129 0.53695 0.0
C1059 C 0.4952 0.04699 0.56919 0.0
C1060 C 0.50611 0.02795 0.58065 0.0
C1061 C 0.48476 0.03994 0.55187 0.0
C1062 C 0.46174 0.98349 0.52466 0.0
H1063 H 0.43166 0.00616 0.42828 0.0
H1064 H 0.44112 0.02086 0.46078 0.0
H1065 H 0.44346 0.95819 0.50534 0.0
H1066 H 0.51364 0.98648 0.58359 0.0
H1067 H 0.49551 0.97408 0.55319 0.0
H1068 H 0.49012 0.03966 0.51179 0.0
C1069 C 0.44337 0.00033 0.45719 0.0
C1070 C 0.45363 0.97602 0.50659 0.0
C1071 C 0.43791 0.99194 0.43863 0.0
C1072 C 0.5055 0.00155 0.57492 0.0
C1073 C 0.49504 0.99447 0.55758 0.0
C1074 C 0.47964 0.02205 0.51062 0.0
C1075 C 0.45166 0.98237 0.47092 0.0
C1076 C 0.45871 0.9913 0.4903 0.0
C1077 C 0.48484 0.01367 0.54576 0.0
C1078 C 0.47505 0.00644 0.52682 0.0
H1079 H 0.45177 0.92719 0.44354 0.0
H1080 H 0.46109 0.94168 0.47584 0.0
H1081 H 0.47607 0.02655 0.48024 0.0
H1082 H 0.49456 0.06734 0.57363 0.0
H1083 H 0.47657 0.05506 0.54327 0.0
C1084 C 0.46226 0.03876 0.93722 0.0
C1085 C 0.43961 0.04891 0.93754 0.0
C1086 C 0.47252 0.02934 0.954 0.0
C1087 C 0.45854 0.00504 0.0027 0.0
H1088 H 0.5238 0.01932 0.01198 0.0
C1089 C 0.50458 0.98183 0.07461 0.0
C1090 C 0.52631 0.96953 0.07317 0.0
C1091 C 0.49352 0.99147 0.0582 0.0
C1092 C 0.50561 0.015 0.00949 0.0
H1093 H 0.40925 0.05544 0.9553 0.0
H1094 H 0.42749 0.04012 0.9849 0.0
H1095 H 0.50525 0.03662 0.98319 0.0
H1096 H 0.55417 0.95874 0.05382 0.0
H1097 H 0.5348 0.97538 0.02504 0.0
H1098 H 0.45896 0.98365 0.0292 0.0
C1099 C 0.43741 0.03952 0.97169 0.0
C1100 C 0.49498 0.02486 0.99299 0.0
C1101 C 0.42711 0.04882 0.95484 0.0
C1102 C 0.5371 0.9675 0.05517 0.0
C1103 C 0.52616 0.97731 0.03879 0.0
C1104 C 0.46916 0.99533 0.01929 0.0
C1105 C 0.46029 0.02976 0.97148 0.0
C1106 C 0.47136 0.01984 0.98932 0.0
C1107 C 0.50426 0.98939 0.04014 0.0
C1108 C 0.49283 8e-05 0.02277 0.0
H1109 H 0.47211 0.03824 0.92396 0.0
H1110 H 0.48996 0.02142 0.95322 0.0
H1111 H 0.44041 0.00048 0.00018 0.0
H1112 H 0.49611 0.98387 0.08842 0.0
H1113 H 0.47679 0.00099 0.05968 0.0
C1114 C 0.967 -0.00279 0.05797 0.0
C1115 C 0.96932 0.02212 0.06636 0.0
C1116 C 0.97888 0.99109 0.04109 0.0
C1117 C 0.00709 0.02138 -0.00081 0.0
H1118 H 0.03456 0.95232 0.99324 0.0
C1119 C 0.06013 0.99202 0.93201 0.0
C1120 C 0.05532 0.96706 0.92442 0.0
C1121 C 0.05136 -0.0007 0.94995 0.0
C1122 C 0.02685 0.97163 0.99465 0.0
H1123 H 0.98694 0.05967 0.06428 0.0
H1124 H 0.00747 0.04913 0.03463 0.0
H1125 H 0.01595 0.96405 0.02348 0.0
H1126 H 0.03643 0.93075 0.92918 0.0
H1127 H 0.02144 0.94324 0.96047 0.0
H1128 H 0.01777 0.02882 0.97025 0.0
C1129 C -0.004 0.03456 0.04085 0.0
C1130 C 0.01618 0.97833 0.01195 0.0
C1131 C 0.98411 0.04066 0.05776 0.0
C1132 C 0.0413 0.94967 0.93496 0.0
C1133 C 0.03257 0.95691 0.95287 0.0
C1134 C 0.01778 0.01466 0.98186 0.0
C1135 C -0.00651 0.0097 0.03234 0.0
C1136 C 0.00592 0.00316 0.01432 0.0
C1137 C 0.03748 0.9818 0.96056 0.0
C1138 C 0.02751 0.9896 0.97934 0.0
H1139 H 0.95577 0.9825 0.06434 0.0
H1140 H 0.97636 0.97188 0.03476 0.0
H1141 H -0.00087 0.04056 0.00052 0.0
H1142 H 0.07077 0.00586 0.92411 0.0
H1143 H 0.05554 0.01857 0.95555 0.0
C1144 C 0.53233 0.52063 0.43249 0.0
C1145 C 0.53211 0.54767 0.4286 0.0
C1146 C 0.5236 0.51101 0.44983 0.0
C1147 C 0.50818 0.53151 0.49916 0.0
H1148 H 0.4715 0.46758 0.49885 0.0
C1149 C 0.45497 0.49666 0.56465 0.0
C1150 C 0.45582 0.46976 0.56904 0.0
C1151 C 0.46462 0.50613 0.5476 0.0
C1152 C 0.4819 0.48531 0.49918 0.0
H1153 H 0.52151 0.58576 0.43937 0.0
H1154 H 0.5063 0.56906 0.46963 0.0
H1155 H 0.48774 0.48419 0.46888 0.0
H1156 H 0.46881 0.43194 0.55957 0.0
H1157 H 0.48519 0.44835 0.52964 0.0
H1158 H 0.50209 0.53272 0.52947 0.0
C1159 C 0.51387 0.55532 0.45956 0.0
C1160 C 0.49124 0.49481 0.48203 0.0
C1161 C 0.52269 0.56492 0.44224 0.0
C1162 C 0.46697 0.45258 0.55625 0.0
C1163 C 0.47654 0.46202 0.53916 0.0
C1164 C 0.49875 0.52206 0.5163 0.0
C1165 C 0.51422 0.52825 0.46355 0.0
C1166 C 0.50449 0.51802 0.48182 0.0
C1167 C 0.47541 0.48888 0.53464 0.0
C1168 C 0.48551 0.49887 0.51648 0.0
H1169 H 0.53944 0.5069 0.42216 0.0
H1170 H 0.52437 0.49009 0.45254 0.0
H1171 H 0.51859 0.54922 0.49954 0.0
H1172 H 0.44659 0.51038 0.57431 0.0
H1173 H 0.46335 0.52691 0.54444 0.0
C1174 C 0.02516 0.53336 0.54413 0.0
C1175 C 0.01719 0.52552 0.56227 0.0
C1176 C 0.01243 0.52717 0.52767 0.0
C1177 C 0.96838 0.48046 0.50994 0.0
H1178 H 0.96317 0.52989 0.46777 0.0
C1179 C 0.91299 0.45833 0.44305 0.0
C1180 C 0.92407 0.46285 0.42541 0.0
C1181 C 0.92275 0.46776 0.46006 0.0
C1182 C 0.96458 0.51586 0.47942 0.0
H1183 H 0.99004 0.50488 0.57763 0.0
H1184 H 0.9675 0.49438 0.54894 0.0
H1185 H 0.98341 0.54286 0.49708 0.0
H1186 H 0.95307 0.48209 0.41142 0.0
H1187 H 0.97019 0.49863 0.44114 0.0
H1188 H 0.94965 0.45344 0.49226 0.0
C1189 C 0.98363 0.50512 0.54732 0.0
C1190 C 0.97621 0.52325 0.49617 0.0
C1191 C -0.00356 0.51121 0.56374 0.0
C1192 C 0.94435 0.47814 0.4249 0.0
C1193 C 0.95407 0.48768 0.44188 0.0
C1194 C 0.95667 0.47313 0.49325 0.0
C1195 C -0.00847 0.51292 0.52908 0.0
C1196 C 0.9784 0.50554 0.51156 0.0
C1197 C 0.94356 0.48222 0.45966 0.0
C1198 C 0.95482 0.49067 0.47775 0.0
H1199 H 0.04151 0.54373 0.54263 0.0
H1200 H 0.01926 0.53297 0.51381 0.0
H1201 H 0.97008 0.46619 0.52139 0.0
H1202 H 0.8968 0.4475 0.44369 0.0
H1203 H 0.91401 0.46375 0.47352 0.0
C1204 C 0.02088 0.45467 0.06166 0.0
C1205 C 0.03209 0.47174 0.07446 0.0
C1206 C 0.01286 0.46385 0.04401 0.0
C1207 C -0.00471 0.52388 0.01855 0.0
H1208 H 0.00395 0.48042 0.97341 0.0
C1209 C 0.96998 0.55715 0.94173 0.0
C1210 C 0.95829 0.53835 0.93057 0.0
C1211 C 0.97974 0.55013 0.95937 0.0
C1212 C 0.00126 0.49267 0.98592 0.0
H1213 H 0.04306 0.51192 0.07924 0.0
H1214 H 0.02911 0.52804 0.04822 0.0
H1215 H 0.01983 0.46619 0.00411 0.0
H1216 H 0.94782 0.49751 0.92895 0.0
H1217 H 0.96477 0.48528 0.95971 0.0
H1218 H 0.97658 0.5503 0.00027 0.0
C1219 C 0.02656 0.50755 0.05184 0.0
C1220 C 0.01034 0.48453 0.00349 0.0
C1221 C 0.0346 0.49833 0.06953 0.0
C1222 C 0.95673 0.51241 0.93726 0.0
C1223 C 0.96651 0.50538 0.95483 0.0
C1224 C 0.98623 0.53206 0.00093 0.0
C1225 C 0.01573 0.49034 0.03885 0.0
C1226 C 0.00719 0.49986 0.02004 0.0
C1227 C 0.97819 0.52413 0.96603 0.0
C1228 C 0.98886 0.51634 0.98451 0.0
H1229 H 0.01785 0.43433 0.06539 0.0
H1230 H 0.00403 0.45027 0.03452 0.0
H1231 H -0.00759 0.53599 0.0311 0.0
H1232 H 0.97219 0.57707 0.93665 0.0
H1233 H 0.98896 0.56487 0.96758 0.0
C1234 C 0.5146 0.47144 0.92652 0.0
C1235 C 0.5379 0.46342 0.92594 0.0
C1236 C 0.50451 0.47918 0.94384 0.0
C1237 C 0.51169 0.47246 0.99614 0.0
H1238 H 0.46948 0.53174 0.99812 0.0
C1239 C 0.47892 0.51703 0.06726 0.0
C1240 C 0.4556 0.52494 0.06799 0.0
C1241 C 0.48875 0.50892 0.04994 0.0
C1242 C 0.48102 0.51495 0.99775 0.0
H1243 H 0.5695 0.45917 0.94253 0.0
H1244 H 0.55191 0.47248 0.97287 0.0
H1245 H 0.48745 0.51963 0.96769 0.0
H1246 H 0.42368 0.52865 0.05176 0.0
H1247 H 0.44087 0.51472 0.02133 0.0
H1248 H 0.50531 0.46784 0.02622 0.0
C1249 C 0.54119 0.47197 0.9601 0.0
C1250 C 0.49132 0.50804 0.98033 0.0
C1251 C 0.55124 0.46419 0.94277 0.0
C1252 C 0.44196 0.52363 0.05134 0.0
C1253 C 0.45177 0.51555 0.03399 0.0
C1254 C 0.5014 0.47939 0.01356 0.0
C1255 C 0.51765 0.47927 0.96085 0.0
C1256 C 0.50679 0.48673 0.97935 0.0
C1257 C 0.47533 0.50838 0.03307 0.0
C1258 C 0.48598 0.50072 0.01454 0.0
H1259 H 0.50399 0.47105 0.91367 0.0
H1260 H 0.4863 0.48452 0.94397 0.0
H1261 H 0.52323 0.45567 0.99577 0.0
H1262 H 0.4897 0.51773 0.08001 0.0
H1263 H 0.50698 0.50367 0.04966 0.0
C1264 C 0.16109 0.03072 0.36674 0.0
C1265 C 0.16278 0.05804 0.36875 0.0
C1266 C 0.18104 0.01532 0.36615 0.0
C1267 C 0.24419 0.01688 0.37669 0.0
H1268 H 0.2448 0.95598 0.34322 0.0
C1269 C 0.32693 0.95986 0.35653 0.0
C1270 C 0.32622 0.93312 0.36134 0.0
C1271 C 0.30676 0.9749 0.35711 0.0
C1272 C 0.24473 0.97288 0.35266 0.0
H1273 H 0.18636 0.09088 0.37179 0.0
H1274 H 0.22149 0.06418 0.36974 0.0
H1275 H 0.21012 0.98342 0.34484 0.0
H1276 H 0.30408 0.90073 0.36983 0.0
H1277 H 0.26833 0.92702 0.37013 0.0
H1278 H 0.27924 0.00667 0.38384 0.0
C1279 C 0.20477 0.05446 0.3692 0.0
C1280 C 0.2249 0.98851 0.35371 0.0
C1281 C 0.18472 0.0698 0.37016 0.0
C1282 C 0.30492 0.92133 0.36599 0.0
C1283 C 0.28461 0.93628 0.36621 0.0
C1284 C 0.26415 0.00152 0.37533 0.0
C1285 C 0.20314 0.02702 0.36715 0.0
C1286 C 0.22435 0.01062 0.36583 0.0
C1287 C 0.28553 0.96324 0.36207 0.0
C1288 C 0.26448 0.9794 0.36338 0.0
H1289 H 0.14432 0.02123 0.36533 0.0
H1290 H 0.17909 0.99424 0.36493 0.0
H1291 H 0.24425 0.03344 0.38643 0.0
H1292 H 0.34317 0.96919 0.35256 0.0
H1293 H 0.3077 0.99563 0.35366 0.0
C1294 C 0.81342 0.06607 0.09793 0.0
C1295 C 0.83191 0.04998 0.10374 0.0
C1296 C 0.7923 0.05493 0.09244 0.0
C1297 C 0.76211 0.99429 0.07873 0.0
H1298 H 0.71503 0.01741 0.11475 0.0
C1299 C 0.68378 0.9301 0.09944 0.0
C1300 C 0.66343 0.94221 0.10608 0.0
C1301 C 0.7031 0.94523 0.09443 0.0
C1302 C 0.72757 0.01108 0.10413 0.0
H1303 H 0.84356 0.00983 0.10729 0.0
H1304 H 0.80672 0.99027 0.09727 0.0
H1305 H 0.7515 0.04089 0.11275 0.0
H1306 H 0.64693 0.97955 0.11207 0.0
H1307 H 0.67977 0.00601 0.10192 0.0
H1308 H 0.73821 0.96435 0.07013 0.0
C1309 C 0.80857 0.01144 0.09693 0.0
C1310 C 0.74856 0.02456 0.10307 0.0
C1311 C 0.82958 0.0226 0.10268 0.0
C1312 C 0.66232 0.96969 0.10678 0.0
C1313 C 0.68134 0.98484 0.10126 0.0
C1314 C 0.74084 0.98104 0.07949 0.0
C1315 C 0.78954 0.02754 0.09243 0.0
C1316 C 0.76621 0.01587 0.09076 0.0
C1317 C 0.70224 0.97283 0.09558 0.0
C1318 C 0.72355 0.98883 0.09262 0.0
H1319 H 0.81501 0.08726 0.09839 0.0
H1320 H 0.77782 0.06768 0.08896 0.0
H1321 H 0.77554 0.98733 0.0691 0.0
H1322 H 0.68494 0.90891 0.09853 0.0
H1323 H 0.71892 0.93518 0.09037 0.0
C1324 C 0.64442 0.01943 0.62682 0.0
C1325 C 0.64398 0.04626 0.62222 0.0
C1326 C 0.66457 0.00477 0.62378 0.0
C1327 C 0.72539 0.01299 0.62708 0.0
H1328 H 0.73233 0.94744 0.59936 0.0
C1329 C 0.81341 0.96171 0.62438 0.0
C1330 C 0.81382 0.93421 0.62527 0.0
C1331 C 0.79261 0.97497 0.62134 0.0
C1332 C 0.73059 0.96555 0.60737 0.0
H1333 H 0.66339 0.07859 0.60991 0.0
H1334 H 0.69905 0.05311 0.60529 0.0
H1335 H 0.69522 0.97094 0.59832 0.0
H1336 H 0.79299 0.89888 0.62342 0.0
H1337 H 0.75619 0.92208 0.61944 0.0
H1338 H 0.75991 0.00729 0.63718 0.0
C1339 C 0.68378 0.04346 0.61105 0.0
C1340 C 0.70945 0.97901 0.60661 0.0
C1341 C 0.66353 0.05798 0.61378 0.0
C1342 C 0.79305 0.92015 0.62298 0.0
C1343 C 0.77205 0.93345 0.6204 0.0
C1344 C 0.74628 -0.00066 0.62819 0.0
C1345 C 0.68455 0.01692 0.6164 0.0
C1346 C 0.70683 0.00287 0.61639 0.0
C1347 C 0.77157 0.96108 0.61974 0.0
C1348 C 0.74923 0.97551 0.61827 0.0
H1349 H 0.62957 0.0101 0.63353 0.0
H1350 H 0.66497 0.98435 0.62817 0.0
H1351 H 0.72351 0.03116 0.63503 0.0
H1352 H 0.82914 0.97307 0.62638 0.0
H1353 H 0.79306 -0.00381 0.62047 0.0
C1354 C 0.30135 0.06541 0.90054 0.0
C1355 C 0.31004 0.07345 0.88268 0.0
C1356 C 0.28613 0.04413 0.9017 0.0
C1357 C 0.27112 0.98433 0.87553 0.0
H1358 H 0.21426 0.98548 0.90535 0.0
C1359 C 0.19331 0.91819 0.86075 0.0
C1360 C 0.17837 0.91155 0.87586 0.0
C1361 C 0.21307 0.93322 0.86427 0.0
C1362 C 0.23038 0.98455 0.89735 0.0
H1363 H 0.30926 0.06684 0.85202 0.0
H1364 H 0.28227 0.02978 0.85393 0.0
H1365 H 0.24004 0.02344 0.90587 0.0
H1366 H 0.17304 0.91298 0.90658 0.0
H1367 H 0.20792 0.93918 0.9129 0.0
H1368 H 0.26127 0.94568 0.86667 0.0
C1369 C 0.28743 0.03961 0.86704 0.0
C1370 C 0.24502 0.00638 0.89754 0.0
C1371 C 0.30253 0.06095 0.8659 0.0
C1372 C 0.1844 0.91811 0.89475 0.0
C1373 C 0.2042 0.93317 0.89831 0.0
C1374 C 0.25657 0.96244 0.87541 0.0
C1375 C 0.27959 0.0306 0.88499 0.0
C1376 C 0.26515 0.00672 0.8862 0.0
C1377 C 0.21815 0.94183 0.88299 0.0
C1378 C 0.23572 0.96263 0.8859 0.0
H1379 H 0.30718 0.07483 0.91363 0.0
H1380 H 0.2803 0.03755 0.91569 0.0
H1381 H 0.28688 0.98391 0.86701 0.0
H1382 H 0.1888 0.91351 0.84604 0.0
H1383 H 0.22331 0.93977 0.85213 0.0
C1384 C 0.78928 0.41436 0.38739 0.0
C1385 C 0.80026 0.40807 0.37007 0.0
C1386 C 0.7695 0.43018 0.38737 0.0
C1387 C 0.72477 0.45967 0.35544 0.0
H1388 H 0.72442 0.51441 0.39411 0.0
C1389 C 0.65084 0.53513 0.361 0.0
C1390 C 0.65677 0.56093 0.36601 0.0
C1391 C 0.66743 0.51528 0.36171 0.0
C1392 C 0.7244 0.4994 0.3831 0.0
H1393 H 0.7993 0.4122 0.33918 0.0
H1394 H 0.76506 0.44032 0.33901 0.0
H1395 H 0.75413 0.48057 0.39516 0.0
H1396 H 0.68454 0.58669 0.37514 0.0
H1397 H 0.71406 0.55214 0.37564 0.0
H1398 H 0.69579 0.4793 0.34279 0.0
C1399 C 0.7712 0.43273 0.35262 0.0
C1400 C 0.74117 0.47971 0.38391 0.0
C1401 C 0.79082 0.41673 0.35267 0.0
C1402 C 0.67969 0.56685 0.3712 0.0
C1403 C 0.69642 0.54703 0.37171 0.0
C1404 C 0.70815 0.47953 0.35451 0.0
C1405 C 0.76064 0.44013 0.37 0.0
C1406 C 0.74165 0.45973 0.37 0.0
C1407 C 0.69039 0.52097 0.36717 0.0
C1408 C 0.70788 0.49971 0.36826 0.0
H1409 H 0.79644 0.40771 0.40094 0.0
H1410 H 0.7615 0.43514 0.40096 0.0
H1411 H 0.72451 0.4444 0.34462 0.0
H1412 H 0.63325 0.53023 0.35674 0.0
H1413 H 0.66213 0.49541 0.35833 0.0
C1414 C 0.30671 0.56632 0.10653 0.0
C1415 C 0.32551 0.55911 0.11817 0.0
C1416 C 0.28657 0.55101 0.10638 0.0
C1417 C 0.25338 0.50701 0.13668 0.0
H1418 H 0.22416 0.48315 0.08961 0.0
C1419 C 0.17824 0.42938 0.11384 0.0
C1420 C 0.15988 0.43847 0.12523 0.0
C1421 C 0.19845 0.44436 0.112 0.0
C1422 C 0.23223 0.48968 0.10282 0.0
H1423 H 0.33854 0.5308 0.13869 0.0
H1424 H 0.30314 0.5041 0.13866 0.0
H1425 H 0.2601 0.50903 0.08802 0.0
H1426 H 0.1477 0.46976 0.14365 0.0
H1427 H 0.18324 0.49592 0.1407 0.0
H1428 H 0.22553 0.48793 0.1515 0.0
C1429 C 0.30395 0.5214 0.12962 0.0
C1430 C 0.2526 0.50455 0.10191 0.0
C1431 C 0.32413 0.53651 0.12959 0.0
C1432 C 0.16178 0.46258 0.13476 0.0
C1433 C 0.18204 0.47739 0.13313 0.0
C1434 C 0.2329 0.4925 0.13758 0.0
C1435 C 0.28499 0.52861 0.11809 0.0
C1436 C 0.26335 0.51319 0.11886 0.0
C1437 C 0.20054 0.46836 0.12179 0.0
C1438 C 0.22221 0.48368 0.12067 0.0
H1439 H 0.30761 0.5838 0.09769 0.0
H1440 H 0.27206 0.55699 0.0975 0.0
H1441 H 0.26132 0.51366 0.14992 0.0
H1442 H 0.17694 0.41074 0.10643 0.0
H1443 H 0.21261 0.43698 0.1033 0.0
C1444 C 0.32389 0.46897 0.61801 0.0
C1445 C 0.32334 0.44164 0.61568 0.0
C1446 C 0.30451 0.48411 0.61347 0.0
C1447 C 0.2468 0.48139 0.58906 0.0
H1448 H 0.23375 0.54016 0.62275 0.0
C1449 C 0.15686 0.52707 0.60426 0.0
C1450 C 0.1556 0.55456 0.60509 0.0
C1451 C 0.17808 0.51471 0.60087 0.0
C1452 C 0.2374 0.52409 0.61303 0.0
H1453 H 0.30231 0.40854 0.60684 0.0
H1454 H 0.26776 0.43472 0.60013 0.0
H1455 H 0.26936 0.51537 0.62701 0.0
H1456 H 0.17489 0.59081 0.60175 0.0
H1457 H 0.21235 0.56909 0.5965 0.0
H1458 H 0.21373 0.48938 0.57604 0.0
C1459 C 0.28341 0.44469 0.60474 0.0
C1460 C 0.25785 0.50986 0.6154 0.0
C1461 C 0.30303 0.42961 0.60889 0.0
C1462 C 0.17558 0.56955 0.60142 0.0
C1463 C 0.19688 0.5572 0.59834 0.0
C1464 C 0.22607 0.49537 0.58695 0.0
C1465 C 0.2839 0.47216 0.60702 0.0
C1466 C 0.26273 0.48817 0.60358 0.0
C1467 C 0.19836 0.5297 0.59855 0.0
C1468 C 0.22119 0.51667 0.59903 0.0
H1469 H 0.33931 0.47866 0.62344 0.0
H1470 H 0.30573 0.50521 0.61509 0.0
H1471 H 0.25018 0.46513 0.57946 0.0
H1472 H 0.14174 0.51508 0.60731 0.0
H1473 H 0.1789 0.49346 0.60132 0.0
C1474 C 0.68745 0.40955 0.8833 0.0
C1475 C 0.66803 0.42256 0.87569 0.0
C1476 C 0.70817 0.42325 0.88631 0.0
C1477 C 0.73141 0.48777 0.89577 0.0
H1478 H 0.78545 0.46763 0.86601 0.0
C1479 C 0.8058 0.55959 0.88019 0.0
C1480 C 0.8283 0.54971 0.87765 0.0
C1481 C 0.7872 0.54247 0.88312 0.0
C1482 C 0.77079 0.47323 0.87483 0.0
H1483 H 0.65489 0.45957 0.86486 0.0
H1484 H 0.69084 0.48376 0.87081 0.0
H1485 H 0.75111 0.43967 0.86589 0.0
H1486 H 0.84924 0.51438 0.87642 0.0
H1487 H 0.81714 0.48459 0.88273 0.0
H1488 H 0.75088 0.52125 0.90485 0.0
C1489 C 0.69001 0.46309 0.87448 0.0
C1490 C 0.75114 0.45723 0.87466 0.0
C1491 C 0.66955 0.44932 0.8711 0.0
C1492 C 0.83207 0.52253 0.87863 0.0
C1493 C 0.8136 0.50544 0.88195 0.0
C1494 C 0.75121 0.50354 0.89625 0.0
C1495 C 0.70943 0.45016 0.88209 0.0
C1496 C 0.73117 0.46479 0.88471 0.0
C1497 C 0.79087 0.51515 0.88385 0.0
C1498 C 0.7709 0.49685 0.88534 0.0
H1499 H 0.68654 0.38891 0.887 0.0
H1500 H 0.72309 0.41298 0.8921 0.0
H1501 H 0.71611 0.49377 0.9037 0.0
H1502 H 0.80254 0.58053 0.87959 0.0
H1503 H 0.76989 0.55066 0.8842 0.0
C1504 C 0.0574 0.19139 0.38565 0.0
C1505 C 0.05353 0.16489 0.39039 0.0
C1506 C 0.04287 0.21096 0.393 0.0
C1507 C 0.98293 0.21717 0.40216 0.0
H1508 H -0.00353 0.28648 0.42215 0.0
C1509 C 0.91322 0.29551 0.39705 0.0
C1510 C 0.92105 0.32031 0.3912 0.0
C1511 C 0.92886 0.27723 0.40454 0.0
C1512 C -0.00763 0.26728 0.41643 0.0
H1513 H 0.03262 0.13853 0.40783 0.0
H1514 H 0.00716 0.17258 0.42022 0.0
H1515 H 0.02721 0.25336 0.42098 0.0
H1516 H 0.95086 0.34619 0.3895 0.0
H1517 H 0.97841 0.31392 0.40107 0.0
H1518 H 0.94908 0.23107 0.39574 0.0
C1519 C 0.02145 0.17813 0.41092 0.0
C1520 C 0.00995 0.24832 0.41595 0.0
C1521 C 0.03604 0.15866 0.40376 0.0
C1522 C 0.94443 0.32712 0.39394 0.0
C1523 C 0.96021 0.30858 0.40078 0.0
C1524 C 0.9656 0.23619 0.40215 0.0
C1525 C 0.02421 0.20426 0.40504 0.0
C1526 C 0.00541 0.22331 0.40846 0.0
C1527 C 0.9528 0.28301 0.40552 0.0
C1528 C 0.97017 0.26177 0.40883 0.0
H1529 H 0.07085 0.19687 0.37553 0.0
H1530 H 0.04518 0.23102 0.38817 0.0
H1531 H 0.97913 0.19807 0.39606 0.0
H1532 H 0.89514 0.29004 0.39536 0.0
H1533 H 0.92225 0.25817 0.40874 0.0
C1534 C 0.43114 0.80132 0.39026 0.0
C1535 C 0.43158 0.82812 0.39496 0.0
C1536 C 0.44648 0.78391 0.39914 0.0
C1537 C 0.47984 0.74919 0.42092 0.0
H1538 H 0.54159 0.77907 0.41583 0.0
C1539 C 0.5566 0.68128 0.41193 0.0
C1540 C 0.56829 0.68674 0.39465 0.0
C1541 C 0.54305 0.70048 0.42077 0.0
C1542 C 0.52449 0.77049 0.41761 0.0
H1543 H 0.44654 0.85704 0.41426 0.0
H1544 H 0.473 0.82659 0.42985 0.0
H1545 H 0.50787 0.80782 0.41564 0.0
H1546 H 0.57722 0.71738 0.37432 0.0
H1547 H 0.55329 0.75075 0.38947 0.0
H1548 H 0.49632 0.7117 0.42118 0.0
C1549 C 0.4612 0.81918 0.41902 0.0
C1550 C 0.50513 0.78696 0.4177 0.0
C1551 C 0.44595 0.8366 0.41009 0.0
C1552 C 0.56827 0.71252 0.38754 0.0
C1553 C 0.55461 0.73171 0.39633 0.0
C1554 C 0.49919 0.73272 0.42081 0.0
C1555 C 0.46244 0.79295 0.41296 0.0
C1556 C 0.48255 0.77635 0.41834 0.0
C1557 C 0.5409 0.72546 0.41244 0.0
C1558 C 0.52163 0.74312 0.41813 0.0
H1559 H 0.42018 0.7941 0.37877 0.0
H1560 H 0.44706 0.76383 0.39404 0.0
H1561 H 0.46267 0.74052 0.42175 0.0
H1562 H 0.55676 0.66172 0.41802 0.0
H1563 H 0.53309 0.69527 0.43341 0.0
C1564 C 0.57054 0.80587 0.10439 0.0
C1565 C 0.55983 0.83025 0.10749 0.0
C1566 C 0.55778 0.78482 0.097 0.0
C1567 C 0.49916 0.76674 0.077 0.0
H1568 H 0.51124 0.70163 0.10406 0.0
C1569 C 0.43088 0.69168 0.10177 0.0
C1570 C 0.43665 0.66488 0.10113 0.0
C1571 C 0.44663 0.71056 0.09523 0.0
C1572 C 0.5079 0.71948 0.09604 0.0
H1573 H 0.52764 0.85205 0.10466 0.0
H1574 H 0.50518 0.8153 0.09283 0.0
H1575 H 0.53876 0.73743 0.10658 0.0
H1576 H 0.4626 0.63677 0.09159 0.0
H1577 H 0.4902 0.66985 0.08061 0.0
H1578 H 0.46711 0.74907 0.06794 0.0
C1579 C 0.52355 0.81238 0.09538 0.0
C1580 C 0.52376 0.74007 0.09741 0.0
C1581 C 0.53641 0.8335 0.10238 0.0
C1582 C 0.45767 0.65726 0.09245 0.0
C1583 C 0.4735 0.67614 0.08614 0.0
C1584 C 0.48304 0.74624 0.07596 0.0
C1585 C 0.53392 0.78758 0.09297 0.0
C1586 C 0.51926 0.7643 0.08843 0.0
C1587 C 0.46845 0.70294 0.08813 0.0
C1588 C 0.48702 0.72273 0.08592 0.0
H1589 H 0.58869 0.80294 0.10793 0.0
H1590 H 0.56652 0.76622 0.09491 0.0
H1591 H 0.49539 0.78484 0.06947 0.0
H1592 H 0.41474 0.69817 0.10821 0.0
H1593 H 0.44241 0.73114 0.09702 0.0
C1594 C 0.96102 0.15281 0.10947 0.0
C1595 C 0.93766 0.1542 0.11517 0.0
C1596 C 0.97287 0.17544 0.10378 0.0
C1597 C -0.00554 0.22453 0.08753 0.0
H1598 H 0.97946 0.28657 0.11726 0.0
C1599 C 0.02841 0.33701 0.10387 0.0
C1600 C 0.05043 0.33129 0.11158 0.0
C1601 C 0.01371 0.31675 0.09798 0.0
C1602 C 0.98358 0.26958 0.10854 0.0
H1603 H 0.90782 0.17982 0.11804 0.0
H1604 H 0.92807 0.21912 0.10719 0.0
H1605 H 0.9547 0.24825 0.11952 0.0
H1606 H 0.07519 0.30014 0.11735 0.0
H1607 H 0.04954 0.2648 0.1068 0.0
H1608 H 0.02461 0.24567 0.07793 0.0
C1609 C 0.93765 0.20085 0.10791 0.0
C1610 C 0.96931 0.24753 0.10976 0.0
C1611 C 0.92597 0.17832 0.11405 0.0
C1612 C 0.05823 0.30514 0.11166 0.0
C1613 C 0.04364 0.28493 0.10549 0.0
C1614 C 0.00903 0.24649 0.08664 0.0
C1615 C 0.96146 0.19989 0.10325 0.0
C1616 C 0.97484 0.22445 0.09964 0.0
C1617 C 0.02093 0.29051 0.09936 0.0
C1618 C 0.00392 0.26897 0.09746 0.0
H1619 H 0.97045 0.13443 0.11019 0.0
H1620 H -0.00877 0.17383 0.10065 0.0
H1621 H -0.001 0.20738 0.07915 0.0
H1622 H 0.02193 0.35698 0.1035 0.0
H1623 H -0.00372 0.32148 0.09322 0.0
C1624 C 0.94847 0.83763 0.60818 0.0
C1625 C 0.92698 0.8324 0.61702 0.0
C1626 C 0.96297 0.81706 0.60262 0.0
C1627 C -0.00614 0.77026 0.6133 0.0
H1628 H 0.9782 0.70907 0.58287 0.0
C1629 C 0.02087 0.65468 0.60864 0.0
C1630 C 0.04446 0.65708 0.61343 0.0
C1631 C 0.00768 0.67695 0.60447 0.0
C1632 C 0.9828 0.7259 0.59156 0.0
H1633 H 0.90304 0.80162 0.6256 0.0
H1634 H 0.92837 0.76559 0.6155 0.0
H1635 H 0.95153 0.74641 0.58389 0.0
H1636 H 0.07329 0.68417 0.61614 0.0
H1637 H 0.05071 0.72293 0.60772 0.0
H1638 H 0.024 0.74953 0.62236 0.0
C1639 C 0.93394 0.78564 0.61306 0.0
C1640 C 0.96759 0.7473 0.59197 0.0
C1641 C 0.91957 0.80622 0.61894 0.0
C1642 C 0.05501 0.68189 0.6128 0.0
C1643 C 0.04198 0.7041 0.6081 0.0
C1644 C 0.00876 0.74872 0.61327 0.0
C1645 C 0.95604 0.79095 0.60546 0.0
C1646 C 0.97294 0.76948 0.60303 0.0
C1647 C 0.01794 0.70206 0.60453 0.0
C1648 C 0.0033 0.72603 0.60265 0.0
H1649 H 0.95471 0.85757 0.60654 0.0
H1650 H 0.97998 0.82152 0.59679 0.0
H1651 H -0.00185 0.78707 0.62216 0.0
H1652 H 0.01231 0.63573 0.60909 0.0
H1653 H 0.98922 0.67445 0.60212 0.0
C1654 C 0.42096 0.30369 0.60557 0.0
C1655 C 0.42752 0.33015 0.60358 0.0
C1656 C 0.43536 0.28375 0.59861 0.0
C1657 C 0.49604 0.27257 0.59617 0.0
H1658 H 0.47995 0.2062 0.57248 0.0
C1659 C 0.55591 0.18481 0.60682 0.0
C1660 C 0.54443 0.16128 0.61132 0.0
C1661 C 0.54377 0.20553 0.59831 0.0
C1662 C 0.48474 0.22457 0.57921 0.0
H1663 H 0.45324 0.35644 0.59114 0.0
H1664 H 0.47844 0.3216 0.57946 0.0
H1665 H 0.45252 0.24279 0.57115 0.0
H1666 H 0.51164 0.14038 0.6095 0.0
H1667 H 0.49023 0.17671 0.59592 0.0
H1668 H 0.52702 0.25425 0.60593 0.0
C1669 C 0.4622 0.31637 0.58637 0.0
C1670 C 0.46909 0.24553 0.57827 0.0
C1671 C 0.44774 0.33628 0.59311 0.0
C1672 C 0.52096 0.15833 0.60624 0.0
C1673 C 0.50871 0.17921 0.5982 0.0
C1674 C 0.5114 0.25154 0.59752 0.0
C1675 C 0.45658 0.28999 0.58972 0.0
C1676 C 0.47439 0.26944 0.58722 0.0
C1677 C 0.51975 0.20339 0.59464 0.0
C1678 C 0.50563 0.22694 0.58964 0.0
H1679 H 0.4054 0.29831 0.61339 0.0
H1680 H 0.43075 0.26349 0.60148 0.0
H1681 H 0.50041 0.29076 0.6034 0.0
H1682 H 0.57412 0.18741 0.61027 0.0
H1683 H 0.55307 0.22354 0.59526 0.0
C1684 C 0.42387 0.18398 0.9184 0.0
C1685 C 0.41051 0.18968 0.90202 0.0
C1686 C 0.43931 0.20254 0.92576 0.0
C1687 C 0.46044 0.27135 0.92004 0.0
H1688 H 0.52115 0.23826 0.92118 0.0
C1689 C 0.55437 0.29701 0.88929 0.0
C1690 C 0.55561 0.32369 0.89423 0.0
C1691 C 0.53815 0.28064 0.89821 0.0
C1692 C 0.50433 0.24781 0.92112 0.0
H1693 H 0.40088 0.22025 0.88185 0.0
H1694 H 0.42805 0.25244 0.89439 0.0
H1695 H 0.48638 0.21122 0.92281 0.0
H1696 H 0.54264 0.35348 0.91379 0.0
H1697 H 0.51458 0.32481 0.92944 0.0
H1698 H 0.4784 0.30774 0.9167 0.0
C1699 C 0.42659 0.23372 0.90169 0.0
C1700 C 0.48436 0.23235 0.92229 0.0
C1701 C 0.41106 0.21519 0.8944 0.0
C1702 C 0.5418 0.3331 0.90941 0.0
C1703 C 0.52569 0.31671 0.91838 0.0
C1704 C 0.48042 0.28679 0.91882 0.0
C1705 C 0.44171 0.22711 0.91683 0.0
C1706 C 0.4622 0.24388 0.92083 0.0
C1707 C 0.52301 0.29062 0.91231 0.0
C1708 C 0.50254 0.27504 0.91842 0.0
H1709 H 0.42339 0.16468 0.92489 0.0
H1710 H 0.45036 0.19711 0.93771 0.0
H1711 H 0.44361 0.28079 0.91917 0.0
H1712 H 0.56484 0.28915 0.87772 0.0
H1713 H 0.53642 0.26067 0.89308 0.0
C1714 C 0.91512 0.69558 0.87648 0.0
C1715 C 0.92619 0.67132 0.87929 0.0
C1716 C 0.92614 0.7189 0.88185 0.0
C1717 C 0.97999 0.74502 0.9059 0.0
H1718 H 0.97494 0.79836 0.86637 0.0
C1719 C 0.05376 0.8098 0.8766 0.0
C1720 C 0.04952 0.83684 0.87492 0.0
C1721 C 0.03623 0.79296 0.88297 0.0
C1722 C 0.97621 0.78388 0.87773 0.0
H1723 H 0.95687 0.65228 0.89084 0.0
H1724 H 0.97656 0.69262 0.89916 0.0
H1725 H 0.94734 0.76232 0.86693 0.0
H1726 H 0.02397 0.86767 0.87915 0.0
H1727 H -0.007 0.83787 0.8895 0.0
H1728 H 0.01042 0.76568 0.91537 0.0
C1729 C 0.95911 0.69396 0.89344 0.0
C1730 C 0.9603 0.76323 0.87817 0.0
C1731 C 0.9479 0.67069 0.88846 0.0
C1732 C 0.02771 0.84688 0.88032 0.0
C1733 C 0.01003 0.82995 0.88626 0.0
C1734 C -0.00376 0.76538 0.90514 0.0
C1735 C 0.94868 0.71843 0.88973 0.0
C1736 C 0.96247 0.74299 0.89184 0.0
C1737 C 0.01411 0.80286 0.88738 0.0
C1738 C -0.0052 0.78448 0.8907 0.0
H1739 H 0.89817 0.6966 0.86974 0.0
H1740 H 0.91729 0.73731 0.87923 0.0
H1741 H 0.98183 0.73026 0.91698 0.0
H1742 H 0.07045 0.80159 0.87265 0.0
H1743 H 0.0396 0.77204 0.88353 0.0
loop_
_geom_bond_atom_site_label_1
_geom_bond_atom_site_label_2
_geom_bond_distance
_geom_bond_site_symmetry_2
_ccdc_geom_bond_type
Co0 O3 1.970 . S
Co0 N17 1.989 . S
Co0 O25 1.967 . S
Co0 O32 1.920 . S
Co1 O4 1.966 . S
Co1 N10 2.022 . S
Co1 N18 1.993 . S
Co1 O26 1.941 . S
C2 O3 1.258 . S
C2 O4 1.263 . S
O3 Co0 1.970 . S
O3 C2 1.258 . S
O4 Co1 1.966 . S
O4 C2 1.263 . S
C5 O6 1.235 . S
C5 O32 1.289 . S
O6 C5 1.235 . S
C7 C9 1.400 . S
C7 N10 1.351 . S
C7 C12 1.501 . S
C8 C9 1.387 . S
C8 N11 1.341 . S
C9 C7 1.400 . S
C9 C8 1.387 . S
N10 Co1 2.022 . S
N10 C7 1.351 . S
N10 N11 1.365 . S
N11 C8 1.341 . S
N11 N10 1.365 . S
N11 H31 0.862 . S
C12 C7 1.501 . S
C12 H13 0.961 . S
C12 H14 0.961 . S
C12 H15 0.960 . S
H13 C12 0.961 . S
H14 C12 0.961 . S
H15 C12 0.960 . S
C16 N17 1.342 . S
C16 C20 1.401 . S
C16 C21 1.499 . S
N17 Co0 1.989 . S
N17 C16 1.342 . S
N17 N18 1.388 . S
N18 Co1 1.993 . S
N18 N17 1.388 . S
N18 C19 1.346 . S
C19 N18 1.346 . S
C19 C20 1.396 . S
C19 C29 1.510 . S
C20 C16 1.401 . S
C20 C19 1.396 . S
C21 C16 1.499 . S
C21 H22 0.959 . S
C21 H23 0.960 . S
C21 H24 0.961 . S
H22 C21 0.959 . S
H23 C21 0.960 . S
H24 C21 0.961 . S
O25 Co0 1.967 . S
O25 C33 1.258 . S
O26 Co1 1.941 . S
O26 C33 1.266 . S
H27 C29 0.959 . S
H28 C29 0.961 . S
C29 C19 1.510 . S
C29 H27 0.959 . S
C29 H28 0.961 . S
C29 H30 0.960 . S
H30 C29 0.960 . S
H31 N11 0.862 . S
O32 Co0 1.920 . S
O32 C5 1.289 . S
C33 O25 1.258 . S
C33 O26 1.266 . S
Co34 O37 1.970 . S
Co34 N51 1.989 . S
Co34 O59 1.967 . S
Co34 O66 1.920 . S
Co35 O38 1.966 . S
Co35 N44 2.022 . S
Co35 N52 1.993 . S
Co35 O60 1.941 . S
C36 O37 1.258 . S
C36 O38 1.263 . S
O37 Co34 1.970 . S
O37 C36 1.258 . S
O38 Co35 1.966 . S
O38 C36 1.263 . S
C39 O40 1.235 . S
C39 O66 1.289 . S
O40 C39 1.235 . S
C41 C43 1.400 . S
C41 N44 1.351 . S
C41 C46 1.501 . S
C42 C43 1.387 . S
C42 N45 1.341 . S
C43 C41 1.400 . S
C43 C42 1.387 . S
N44 Co35 2.022 . S
N44 C41 1.351 . S
N44 N45 1.365 . S
N45 C42 1.341 . S
N45 N44 1.365 . S
N45 H65 0.862 . S
C46 C41 1.501 . S
C46 H47 0.961 . S
C46 H48 0.961 . S
C46 H49 0.960 . S
H47 C46 0.961 . S
H48 C46 0.961 . S
H49 C46 0.960 . S
C50 N51 1.342 . S
C50 C54 1.401 . S
C50 C55 1.499 . S
N51 Co34 1.989 . S
N51 C50 1.342 . S
N51 N52 1.388 . S
N52 Co35 1.993 . S
N52 N51 1.388 . S
N52 C53 1.346 . S
C53 N52 1.346 . S
C53 C54 1.396 . S
C53 C63 1.510 . S
C54 C50 1.401 . S
C54 C53 1.396 . S
C55 C50 1.499 . S
C55 H56 0.959 . S
C55 H57 0.960 . S
C55 H58 0.961 . S
H56 C55 0.959 . S
H57 C55 0.960 . S
H58 C55 0.961 . S
O59 Co34 1.967 . S
O59 C67 1.258 . S
O60 Co35 1.941 . S
O60 C67 1.266 . S
H61 C63 0.959 . S
H62 C63 0.961 . S
C63 C53 1.510 . S
C63 H61 0.959 . S
C63 H62 0.961 . S
C63 H64 0.960 . S
H64 C63 0.960 . S
H65 N45 0.862 . S
O66 Co34 1.920 . S
O66 C39 1.289 . S
C67 O59 1.258 . S
C67 O60 1.266 . S
Co68 O71 1.970 . S
Co68 N85 1.989 . S
Co68 O93 1.967 . S
Co68 O100 1.920 . S
Co69 O72 1.966 . S
Co69 N78 2.022 . S
Co69 N86 1.993 . S
Co69 O94 1.941 . S
C70 O71 1.258 . S
C70 O72 1.263 . S
O71 Co68 1.970 . S
O71 C70 1.258 . S
O72 Co69 1.966 . S
O72 C70 1.263 . S
C73 O74 1.235 . S
C73 O100 1.289 . S
O74 C73 1.235 . S
C75 C77 1.400 . S
C75 N78 1.351 . S
C75 C80 1.501 . S
C76 C77 1.387 . S
C76 N79 1.341 . S
C77 C75 1.400 . S
C77 C76 1.387 . S
N78 Co69 2.022 . S
N78 C75 1.351 . S
N78 N79 1.365 . S
N79 C76 1.341 . S
N79 N78 1.365 . S
N79 H99 0.862 . S
C80 C75 1.501 . S
C80 H81 0.961 . S
C80 H82 0.961 . S
C80 H83 0.960 . S
H81 C80 0.961 . S
H82 C80 0.961 . S
H83 C80 0.960 . S
C84 N85 1.342 . S
C84 C88 1.401 . S
C84 C89 1.499 . S
N85 Co68 1.989 . S
N85 C84 1.342 . S
N85 N86 1.388 . S
N86 Co69 1.993 . S
N86 N85 1.388 . S
N86 C87 1.346 . S
C87 N86 1.346 . S
C87 C88 1.396 . S
C87 C97 1.510 . S
C88 C84 1.401 . S
C88 C87 1.396 . S
C89 C84 1.499 . S
C89 H90 0.959 . S
C89 H91 0.960 . S
C89 H92 0.961 . S
H90 C89 0.959 . S
H91 C89 0.960 . S
H92 C89 0.961 . S
O93 Co68 1.967 . S
O93 C101 1.258 . S
O94 Co69 1.941 . S
O94 C101 1.266 . S
H95 C97 0.959 . S
H96 C97 0.961 . S
C97 C87 1.510 . S
C97 H95 0.959 . S
C97 H96 0.961 . S
C97 H98 0.960 . S
H98 C97 0.960 . S
H99 N79 0.862 . S
O100 Co68 1.920 . S
O100 C73 1.289 . S
C101 O93 1.258 . S
C101 O94 1.266 . S
Co102 O105 1.970 . S
Co102 N119 1.989 . S
Co102 O127 1.967 . S
Co102 O134 1.920 . S
Co103 O106 1.966 . S
Co103 N112 2.022 . S
Co103 N120 1.993 . S
Co103 O128 1.941 . S
C104 O105 1.258 . S
C104 O106 1.263 . S
O105 Co102 1.970 . S
O105 C104 1.258 . S
O106 Co103 1.966 . S
O106 C104 1.263 . S
C107 O108 1.235 . S
C107 O134 1.289 . S
O108 C107 1.235 . S
C109 C111 1.400 . S
C109 N112 1.351 . S
C109 C114 1.501 . S
C110 C111 1.387 . S
C110 N113 1.341 . S
C111 C109 1.400 . S
C111 C110 1.387 . S
N112 Co103 2.022 . S
N112 C109 1.351 . S
N112 N113 1.365 . S
N113 C110 1.341 . S
N113 N112 1.365 . S
N113 H133 0.862 . S
C114 C109 1.501 . S
C114 H115 0.961 . S
C114 H116 0.961 . S
C114 H117 0.960 . S
H115 C114 0.961 . S
H116 C114 0.961 . S
H117 C114 0.960 . S
C118 N119 1.342 . S
C118 C122 1.401 . S
C118 C123 1.499 . S
N119 Co102 1.989 . S
N119 C118 1.342 . S
N119 N120 1.388 . S
N120 Co103 1.993 . S
N120 N119 1.388 . S
N120 C121 1.346 . S
C121 N120 1.346 . S
C121 C122 1.396 . S
C121 C131 1.510 . S
C122 C118 1.401 . S
C122 C121 1.396 . S
C123 C118 1.499 . S
C123 H124 0.959 . S
C123 H125 0.960 . S
C123 H126 0.961 . S
H124 C123 0.959 . S
H125 C123 0.960 . S
H126 C123 0.961 . S
O127 Co102 1.967 . S
O127 C135 1.258 . S
O128 Co103 1.941 . S
O128 C135 1.266 . S
H129 C131 0.959 . S
H130 C131 0.961 . S
C131 C121 1.510 . S
C131 H129 0.959 . S
C131 H130 0.961 . S
C131 H132 0.960 . S
H132 C131 0.960 . S
H133 N113 0.862 . S
O134 Co102 1.920 . S
O134 C107 1.289 . S
C135 O127 1.258 . S
C135 O128 1.266 . S
Co136 O139 1.970 . S
Co136 N153 1.989 . S
Co136 O161 1.967 . S
Co136 O168 1.920 . S
Co137 O140 1.966 . S
Co137 N146 2.022 . S
Co137 N154 1.993 . S
Co137 O162 1.941 . S
C138 O139 1.258 . S
C138 O140 1.263 . S
O139 Co136 1.970 . S
O139 C138 1.258 . S
O140 Co137 1.966 . S
O140 C138 1.263 . S
C141 O142 1.235 . S
C141 O168 1.289 . S
O142 C141 1.235 . S
C143 C145 1.400 . S
C143 N146 1.351 . S
C143 C148 1.501 . S
C144 C145 1.387 . S
C144 N147 1.341 . S
C145 C143 1.400 . S
C145 C144 1.387 . S
N146 Co137 2.022 . S
N146 C143 1.351 . S
N146 N147 1.365 . S
N147 C144 1.341 . S
N147 N146 1.365 . S
N147 H167 0.862 . S
C148 C143 1.501 . S
C148 H149 0.961 . S
C148 H150 0.961 . S
C148 H151 0.960 . S
H149 C148 0.961 . S
H150 C148 0.961 . S
H151 C148 0.960 . S
C152 N153 1.342 . S
C152 C156 1.401 . S
C152 C157 1.499 . S
N153 Co136 1.989 . S
N153 C152 1.342 . S
N153 N154 1.388 . S
N154 Co137 1.993 . S
N154 N153 1.388 . S
N154 C155 1.346 . S
C155 N154 1.346 . S
C155 C156 1.396 . S
C155 C165 1.510 . S
C156 C152 1.401 . S
C156 C155 1.396 . S
C157 C152 1.499 . S
C157 H158 0.959 . S
C157 H159 0.960 . S
C157 H160 0.961 . S
H158 C157 0.959 . S
H159 C157 0.960 . S
H160 C157 0.961 . S
O161 Co136 1.967 . S
O161 C169 1.258 . S
O162 Co137 1.941 . S
O162 C169 1.266 . S
H163 C165 0.959 . S
H164 C165 0.961 . S
C165 C155 1.510 . S
C165 H163 0.959 . S
C165 H164 0.961 . S
C165 H166 0.960 . S
H166 C165 0.960 . S
H167 N147 0.862 . S
O168 Co136 1.920 . S
O168 C141 1.289 . S
C169 O161 1.258 . S
C169 O162 1.266 . S
Co170 O173 1.970 . S
Co170 N187 1.989 . S
Co170 O195 1.967 . S
Co170 O202 1.920 . S
Co171 O174 1.966 . S
Co171 N180 2.022 . S
Co171 N188 1.993 . S
Co171 O196 1.941 . S
C172 O173 1.258 . S
C172 O174 1.263 . S
O173 Co170 1.970 . S
O173 C172 1.258 . S
O174 Co171 1.966 . S
O174 C172 1.263 . S
C175 O176 1.235 . S
C175 O202 1.289 . S
O176 C175 1.235 . S
C177 C179 1.400 . S
C177 N180 1.351 . S
C177 C182 1.501 . S
C178 C179 1.387 . S
C178 N181 1.341 . S
C179 C177 1.400 . S
C179 C178 1.387 . S
N180 Co171 2.022 . S
N180 C177 1.351 . S
N180 N181 1.365 . S
N181 C178 1.341 . S
N181 N180 1.365 . S
N181 H201 0.862 . S
C182 C177 1.501 . S
C182 H183 0.961 . S
C182 H184 0.961 . S
C182 H185 0.960 . S
H183 C182 0.961 . S
H184 C182 0.961 . S
H185 C182 0.960 . S
C186 N187 1.342 . S
C186 C190 1.401 . S
C186 C191 1.499 . S
N187 Co170 1.989 . S
N187 C186 1.342 . S
N187 N188 1.388 . S
N188 Co171 1.993 . S
N188 N187 1.388 . S
N188 C189 1.346 . S
C189 N188 1.346 . S
C189 C190 1.396 . S
C189 C199 1.510 . S
C190 C186 1.401 . S
C190 C189 1.396 . S
C191 C186 1.499 . S
C191 H192 0.959 . S
C191 H193 0.960 . S
C191 H194 0.961 . S
H192 C191 0.959 . S
H193 C191 0.960 . S
H194 C191 0.961 . S
O195 Co170 1.967 . S
O195 C203 1.258 . S
O196 Co171 1.941 . S
O196 C203 1.266 . S
H197 C199 0.959 . S
H198 C199 0.961 . S
C199 C189 1.510 . S
C199 H197 0.959 . S
C199 H198 0.961 . S
C199 H200 0.960 . S
H200 C199 0.960 . S
H201 N181 0.862 . S
O202 Co170 1.920 . S
O202 C175 1.289 . S
C203 O195 1.258 . S
C203 O196 1.266 . S
Co204 O207 1.970 . S
Co204 N221 1.989 . S
Co204 O229 1.967 . S
Co204 O236 1.920 . S
Co205 O208 1.966 . S
Co205 N214 2.022 . S
Co205 N222 1.993 . S
Co205 O230 1.941 . S
C206 O207 1.258 . S
C206 O208 1.263 . S
O207 Co204 1.970 . S
O207 C206 1.258 . S
O208 Co205 1.966 . S
O208 C206 1.263 . S
C209 O210 1.235 . S
C209 O236 1.289 . S
O210 C209 1.235 . S
C211 C213 1.400 . S
C211 N214 1.351 . S
C211 C216 1.501 . S
C212 C213 1.387 . S
C212 N215 1.341 . S
C213 C211 1.400 . S
C213 C212 1.387 . S
N214 Co205 2.022 . S
N214 C211 1.351 . S
N214 N215 1.365 . S
N215 C212 1.341 . S
N215 N214 1.365 . S
N215 H235 0.862 . S
C216 C211 1.501 . S
C216 H217 0.961 . S
C216 H218 0.961 . S
C216 H219 0.960 . S
H217 C216 0.961 . S
H218 C216 0.961 . S
H219 C216 0.960 . S
C220 N221 1.342 . S
C220 C224 1.401 . S
C220 C225 1.499 . S
N221 Co204 1.989 . S
N221 C220 1.342 . S
N221 N222 1.388 . S
N222 Co205 1.993 . S
N222 N221 1.388 . S
N222 C223 1.346 . S
C223 N222 1.346 . S
C223 C224 1.396 . S
C223 C233 1.510 . S
C224 C220 1.401 . S
C224 C223 1.396 . S
C225 C220 1.499 . S
C225 H226 0.959 . S
C225 H227 0.960 . S
C225 H228 0.961 . S
H226 C225 0.959 . S
H227 C225 0.960 . S
H228 C225 0.961 . S
O229 Co204 1.967 . S
O229 C237 1.258 . S
O230 Co205 1.941 . S
O230 C237 1.266 . S
H231 C233 0.959 . S
H232 C233 0.961 . S
C233 C223 1.510 . S
C233 H231 0.959 . S
C233 H232 0.961 . S
C233 H234 0.960 . S
H234 C233 0.960 . S
H235 N215 0.862 . S
O236 Co204 1.920 . S
O236 C209 1.289 . S
C237 O229 1.258 . S
C237 O230 1.266 . S
Co238 O241 1.970 . S
Co238 N255 1.989 . S
Co238 O263 1.967 . S
Co238 O270 1.920 . S
Co239 O242 1.966 . S
Co239 N248 2.022 . S
Co239 N256 1.993 . S
Co239 O264 1.941 . S
C240 O241 1.258 . S
C240 O242 1.263 . S
O241 Co238 1.970 . S
O241 C240 1.258 . S
O242 Co239 1.966 . S
O242 C240 1.263 . S
C243 O244 1.235 . S
C243 O270 1.289 . S
O244 C243 1.235 . S
C245 C247 1.400 . S
C245 N248 1.351 . S
C245 C250 1.501 . S
C246 C247 1.387 . S
C246 N249 1.341 . S
C247 C245 1.400 . S
C247 C246 1.387 . S
N248 Co239 2.022 . S
N248 C245 1.351 . S
N248 N249 1.365 . S
N249 C246 1.341 . S
N249 N248 1.365 . S
N249 H269 0.862 . S
C250 C245 1.501 . S
C250 H251 0.961 . S
C250 H252 0.961 . S
C250 H253 0.960 . S
H251 C250 0.961 . S
H252 C250 0.961 . S
H253 C250 0.960 . S
C254 N255 1.342 . S
C254 C258 1.401 . S
C254 C259 1.499 . S
N255 Co238 1.989 . S
N255 C254 1.342 . S
N255 N256 1.388 . S
N256 Co239 1.993 . S
N256 N255 1.388 . S
N256 C257 1.346 . S
C257 N256 1.346 . S
C257 C258 1.396 . S
C257 C267 1.510 . S
C258 C254 1.401 . S
C258 C257 1.396 . S
C259 C254 1.499 . S
C259 H260 0.959 . S
C259 H261 0.960 . S
C259 H262 0.961 . S
H260 C259 0.959 . S
H261 C259 0.960 . S
H262 C259 0.961 . S
O263 Co238 1.967 . S
O263 C271 1.258 . S
O264 Co239 1.941 . S
O264 C271 1.266 . S
H265 C267 0.959 . S
H266 C267 0.961 . S
C267 C257 1.510 . S
C267 H265 0.959 . S
C267 H266 0.961 . S
C267 H268 0.960 . S
H268 C267 0.960 . S
H269 N249 0.862 . S
O270 Co238 1.920 . S
O270 C243 1.289 . S
C271 O263 1.258 . S
C271 O264 1.266 . S
Co272 O275 1.970 . S
Co272 N289 1.989 . S
Co272 O297 1.967 . S
Co272 O304 1.920 . S
Co273 O276 1.966 . S
Co273 N282 2.022 . S
Co273 N290 1.993 . S
Co273 O298 1.941 . S
C274 O275 1.258 . S
C274 O276 1.263 . S
O275 Co272 1.970 . S
O275 C274 1.258 . S
O276 Co273 1.966 . S
O276 C274 1.263 . S
C277 O278 1.235 . S
C277 O304 1.289 . S
O278 C277 1.235 . S
C279 C281 1.400 . S
C279 N282 1.351 . S
C279 C284 1.501 . S
C280 C281 1.387 . S
C280 N283 1.341 . S
C281 C279 1.400 . S
C281 C280 1.387 . S
N282 Co273 2.022 . S
N282 C279 1.351 . S
N282 N283 1.365 . S
N283 C280 1.341 . S
N283 N282 1.365 . S
N283 H303 0.862 . S
C284 C279 1.501 . S
C284 H285 0.961 . S
C284 H286 0.961 . S
C284 H287 0.960 . S
H285 C284 0.961 . S
H286 C284 0.961 . S
H287 C284 0.960 . S
C288 N289 1.342 . S
C288 C292 1.401 . S
C288 C293 1.499 . S
N289 Co272 1.989 . S
N289 C288 1.342 . S
N289 N290 1.388 . S
N290 Co273 1.993 . S
N290 N289 1.388 . S
N290 C291 1.346 . S
C291 N290 1.346 . S
C291 C292 1.396 . S
C291 C301 1.510 . S
C292 C288 1.401 . S
C292 C291 1.396 . S
C293 C288 1.499 . S
C293 H294 0.959 . S
C293 H295 0.960 . S
C293 H296 0.961 . S
H294 C293 0.959 . S
H295 C293 0.960 . S
H296 C293 0.961 . S
O297 Co272 1.967 . S
O297 C305 1.258 . S
O298 Co273 1.941 . S
O298 C305 1.266 . S
H299 C301 0.959 . S
H300 C301 0.961 . S
C301 C291 1.510 . S
C301 H299 0.959 . S
C301 H300 0.961 . S
C301 H302 0.960 . S
H302 C301 0.960 . S
H303 N283 0.862 . S
O304 Co272 1.920 . S
O304 C277 1.289 . S
C305 O297 1.258 . S
C305 O298 1.266 . S
Co306 O309 1.970 . S
Co306 N323 1.989 . S
Co306 O331 1.967 . S
Co306 O338 1.920 . S
Co307 O310 1.966 . S
Co307 N316 2.022 . S
Co307 N324 1.993 . S
Co307 O332 1.941 . S
C308 O309 1.258 . S
C308 O310 1.263 . S
O309 Co306 1.970 . S
O309 C308 1.258 . S
O310 Co307 1.966 . S
O310 C308 1.263 . S
C311 O312 1.235 . S
C311 O338 1.289 . S
O312 C311 1.235 . S
C313 C315 1.400 . S
C313 N316 1.351 . S
C313 C318 1.501 . S
C314 C315 1.387 . S
C314 N317 1.341 . S
C315 C313 1.400 . S
C315 C314 1.387 . S
N316 Co307 2.022 . S
N316 C313 1.351 . S
N316 N317 1.365 . S
N317 C314 1.341 . S
N317 N316 1.365 . S
N317 H337 0.862 . S
C318 C313 1.501 . S
C318 H319 0.961 . S
C318 H320 0.961 . S
C318 H321 0.960 . S
H319 C318 0.961 . S
H320 C318 0.961 . S
H321 C318 0.960 . S
C322 N323 1.342 . S
C322 C326 1.401 . S
C322 C327 1.499 . S
N323 Co306 1.989 . S
N323 C322 1.342 . S
N323 N324 1.388 . S
N324 Co307 1.993 . S
N324 N323 1.388 . S
N324 C325 1.346 . S
C325 N324 1.346 . S
C325 C326 1.396 . S
C325 C335 1.510 . S
C326 C322 1.401 . S
C326 C325 1.396 . S
C327 C322 1.499 . S
C327 H328 0.959 . S
C327 H329 0.960 . S
C327 H330 0.961 . S
H328 C327 0.959 . S
H329 C327 0.960 . S
H330 C327 0.961 . S
O331 Co306 1.967 . S
O331 C339 1.258 . S
O332 Co307 1.941 . S
O332 C339 1.266 . S
H333 C335 0.959 . S
H334 C335 0.961 . S
C335 C325 1.510 . S
C335 H333 0.959 . S
C335 H334 0.961 . S
C335 H336 0.960 . S
H336 C335 0.960 . S
H337 N317 0.862 . S
O338 Co306 1.920 . S
O338 C311 1.289 . S
C339 O331 1.258 . S
C339 O332 1.266 . S
Co340 O343 1.970 . S
Co340 N357 1.989 . S
Co340 O365 1.967 . S
Co340 O372 1.920 . S
Co341 O344 1.966 . S
Co341 N350 2.022 . S
Co341 N358 1.993 . S
Co341 O366 1.941 . S
C342 O343 1.258 . S
C342 O344 1.263 . S
O343 Co340 1.970 . S
O343 C342 1.258 . S
O344 Co341 1.966 . S
O344 C342 1.263 . S
C345 O346 1.235 . S
C345 O372 1.289 . S
O346 C345 1.235 . S
C347 C349 1.400 . S
C347 N350 1.351 . S
C347 C352 1.501 . S
C348 C349 1.387 . S
C348 N351 1.341 . S
C349 C347 1.400 . S
C349 C348 1.387 . S
N350 Co341 2.022 . S
N350 C347 1.351 . S
N350 N351 1.365 . S
N351 C348 1.341 . S
N351 N350 1.365 . S
N351 H371 0.862 . S
C352 C347 1.501 . S
C352 H353 0.961 . S
C352 H354 0.961 . S
C352 H355 0.960 . S
H353 C352 0.961 . S
H354 C352 0.961 . S
H355 C352 0.960 . S
C356 N357 1.342 . S
C356 C360 1.401 . S
C356 C361 1.499 . S
N357 Co340 1.989 . S
N357 C356 1.342 . S
N357 N358 1.388 . S
N358 Co341 1.993 . S
N358 N357 1.388 . S
N358 C359 1.346 . S
C359 N358 1.346 . S
C359 C360 1.396 . S
C359 C369 1.510 . S
C360 C356 1.401 . S
C360 C359 1.396 . S
C361 C356 1.499 . S
C361 H362 0.959 . S
C361 H363 0.960 . S
C361 H364 0.961 . S
H362 C361 0.959 . S
H363 C361 0.960 . S
H364 C361 0.961 . S
O365 Co340 1.967 . S
O365 C373 1.258 . S
O366 Co341 1.941 . S
O366 C373 1.266 . S
H367 C369 0.959 . S
H368 C369 0.961 . S
C369 C359 1.510 . S
C369 H367 0.959 . S
C369 H368 0.961 . S
C369 H370 0.960 . S
H370 C369 0.960 . S
H371 N351 0.862 . S
O372 Co340 1.920 . S
O372 C345 1.289 . S
C373 O365 1.258 . S
C373 O366 1.266 . S
Co374 O377 1.970 . S
Co374 N391 1.989 . S
Co374 O399 1.967 . S
Co374 O406 1.920 . S
Co375 O378 1.966 . S
Co375 N384 2.022 . S
Co375 N392 1.993 . S
Co375 O400 1.941 . S
C376 O377 1.258 . S
C376 O378 1.263 . S
O377 Co374 1.970 . S
O377 C376 1.258 . S
O378 Co375 1.966 . S
O378 C376 1.263 . S
C379 O380 1.235 . S
C379 O406 1.289 . S
O380 C379 1.235 . S
C381 C383 1.400 . S
C381 N384 1.351 . S
C381 C386 1.501 . S
C382 C383 1.387 . S
C382 N385 1.341 . S
C383 C381 1.400 . S
C383 C382 1.387 . S
N384 Co375 2.022 . S
N384 C381 1.351 . S
N384 N385 1.365 . S
N385 C382 1.341 . S
N385 N384 1.365 . S
N385 H405 0.862 . S
C386 C381 1.501 . S
C386 H387 0.961 . S
C386 H388 0.961 . S
C386 H389 0.960 . S
H387 C386 0.961 . S
H388 C386 0.961 . S
H389 C386 0.960 . S
C390 N391 1.342 . S
C390 C394 1.401 . S
C390 C395 1.499 . S
N391 Co374 1.989 . S
N391 C390 1.342 . S
N391 N392 1.388 . S
N392 Co375 1.993 . S
N392 N391 1.388 . S
N392 C393 1.346 . S
C393 N392 1.346 . S
C393 C394 1.396 . S
C393 C403 1.510 . S
C394 C390 1.401 . S
C394 C393 1.396 . S
C395 C390 1.499 . S
C395 H396 0.959 . S
C395 H397 0.960 . S
C395 H398 0.961 . S
H396 C395 0.959 . S
H397 C395 0.960 . S
H398 C395 0.961 . S
O399 Co374 1.967 . S
O399 C407 1.258 . S
O400 Co375 1.941 . S
O400 C407 1.266 . S
H401 C403 0.959 . S
H402 C403 0.961 . S
C403 C393 1.510 . S
C403 H401 0.959 . S
C403 H402 0.961 . S
C403 H404 0.960 . S
H404 C403 0.960 . S
H405 N385 0.862 . S
O406 Co374 1.920 . S
O406 C379 1.289 . S
C407 O399 1.258 . S
C407 O400 1.266 . S
Co408 O411 1.970 . S
Co408 N425 1.989 . S
Co408 O433 1.967 . S
Co408 O440 1.920 . S
Co409 O412 1.966 . S
Co409 N418 2.022 . S
Co409 N426 1.993 . S
Co409 O434 1.941 . S
C410 O411 1.258 . S
C410 O412 1.263 . S
O411 Co408 1.970 . S
O411 C410 1.258 . S
O412 Co409 1.966 . S
O412 C410 1.263 . S
C413 O414 1.235 . S
C413 O440 1.289 . S
O414 C413 1.235 . S
C415 C417 1.400 . S
C415 N418 1.351 . S
C415 C420 1.501 . S
C416 C417 1.387 . S
C416 N419 1.341 . S
C417 C415 1.400 . S
C417 C416 1.387 . S
N418 Co409 2.022 . S
N418 C415 1.351 . S
N418 N419 1.365 . S
N419 C416 1.341 . S
N419 N418 1.365 . S
N419 H439 0.862 . S
C420 C415 1.501 . S
C420 H421 0.961 . S
C420 H422 0.961 . S
C420 H423 0.960 . S
H421 C420 0.961 . S
H422 C420 0.961 . S
H423 C420 0.960 . S
C424 N425 1.342 . S
C424 C428 1.401 . S
C424 C429 1.499 . S
N425 Co408 1.989 . S
N425 C424 1.342 . S
N425 N426 1.388 . S
N426 Co409 1.993 . S
N426 N425 1.388 . S
N426 C427 1.346 . S
C427 N426 1.346 . S
C427 C428 1.396 . S
C427 C437 1.510 . S
C428 C424 1.401 . S
C428 C427 1.396 . S
C429 C424 1.499 . S
C429 H430 0.959 . S
C429 H431 0.960 . S
C429 H432 0.961 . S
H430 C429 0.959 . S
H431 C429 0.960 . S
H432 C429 0.961 . S
O433 Co408 1.967 . S
O433 C441 1.258 . S
O434 Co409 1.941 . S
O434 C441 1.266 . S
H435 C437 0.959 . S
H436 C437 0.961 . S
C437 C427 1.510 . S
C437 H435 0.959 . S
C437 H436 0.961 . S
C437 H438 0.960 . S
H438 C437 0.960 . S
H439 N419 0.862 . S
O440 Co408 1.920 . S
O440 C413 1.289 . S
C441 O433 1.258 . S
C441 O434 1.266 . S
Co442 O445 1.970 . S
Co442 N459 1.989 . S
Co442 O467 1.967 . S
Co442 O474 1.920 . S
Co443 O446 1.966 . S
Co443 N452 2.022 . S
Co443 N460 1.993 . S
Co443 O468 1.941 . S
C444 O445 1.258 . S
C444 O446 1.263 . S
O445 Co442 1.970 . S
O445 C444 1.258 . S
O446 Co443 1.966 . S
O446 C444 1.263 . S
C447 O448 1.235 . S
C447 O474 1.289 . S
O448 C447 1.235 . S
C449 C451 1.400 . S
C449 N452 1.351 . S
C449 C454 1.501 . S
C450 C451 1.387 . S
C450 N453 1.341 . S
C451 C449 1.400 . S
C451 C450 1.387 . S
N452 Co443 2.022 . S
N452 C449 1.351 . S
N452 N453 1.365 . S
N453 C450 1.341 . S
N453 N452 1.365 . S
N453 H473 0.862 . S
C454 C449 1.501 . S
C454 H455 0.961 . S
C454 H456 0.961 . S
C454 H457 0.960 . S
H455 C454 0.961 . S
H456 C454 0.961 . S
H457 C454 0.960 . S
C458 N459 1.342 . S
C458 C462 1.401 . S
C458 C463 1.499 . S
N459 Co442 1.989 . S
N459 C458 1.342 . S
N459 N460 1.388 . S
N460 Co443 1.993 . S
N460 N459 1.388 . S
N460 C461 1.346 . S
C461 N460 1.346 . S
C461 C462 1.396 . S
C461 C471 1.510 . S
C462 C458 1.401 . S
C462 C461 1.396 . S
C463 C458 1.499 . S
C463 H464 0.959 . S
C463 H465 0.960 . S
C463 H466 0.961 . S
H464 C463 0.959 . S
H465 C463 0.960 . S
H466 C463 0.961 . S
O467 Co442 1.967 . S
O467 C475 1.258 . S
O468 Co443 1.941 . S
O468 C475 1.266 . S
H469 C471 0.959 . S
H470 C471 0.961 . S
C471 C461 1.510 . S
C471 H469 0.959 . S
C471 H470 0.961 . S
C471 H472 0.960 . S
H472 C471 0.960 . S
H473 N453 0.862 . S
O474 Co442 1.920 . S
O474 C447 1.289 . S
C475 O467 1.258 . S
C475 O468 1.266 . S
Co476 O479 1.970 . S
Co476 N493 1.989 . S
Co476 O501 1.967 . S
Co476 O508 1.920 . S
Co477 O480 1.966 . S
Co477 N486 2.022 . S
Co477 N494 1.993 . S
Co477 O502 1.941 . S
C478 O479 1.258 . S
C478 O480 1.263 . S
O479 Co476 1.970 . S
O479 C478 1.258 . S
O480 Co477 1.966 . S
O480 C478 1.263 . S
C481 O482 1.235 . S
C481 O508 1.289 . S
O482 C481 1.235 . S
C483 C485 1.400 . S
C483 N486 1.351 . S
C483 C488 1.501 . S
C484 C485 1.387 . S
C484 N487 1.341 . S
C485 C483 1.400 . S
C485 C484 1.387 . S
N486 Co477 2.022 . S
N486 C483 1.351 . S
N486 N487 1.365 . S
N487 C484 1.341 . S
N487 N486 1.365 . S
N487 H507 0.862 . S
C488 C483 1.501 . S
C488 H489 0.961 . S
C488 H490 0.961 . S
C488 H491 0.960 . S
H489 C488 0.961 . S
H490 C488 0.961 . S
H491 C488 0.960 . S
C492 N493 1.342 . S
C492 C496 1.401 . S
C492 C497 1.499 . S
N493 Co476 1.989 . S
N493 C492 1.342 . S
N493 N494 1.388 . S
N494 Co477 1.993 . S
N494 N493 1.388 . S
N494 C495 1.346 . S
C495 N494 1.346 . S
C495 C496 1.396 . S
C495 C505 1.510 . S
C496 C492 1.401 . S
C496 C495 1.396 . S
C497 C492 1.499 . S
C497 H498 0.959 . S
C497 H499 0.960 . S
C497 H500 0.961 . S
H498 C497 0.959 . S
H499 C497 0.960 . S
H500 C497 0.961 . S
O501 Co476 1.967 . S
O501 C509 1.258 . S
O502 Co477 1.941 . S
O502 C509 1.266 . S
H503 C505 0.959 . S
H504 C505 0.961 . S
C505 C495 1.510 . S
C505 H503 0.959 . S
C505 H504 0.961 . S
C505 H506 0.960 . S
H506 C505 0.960 . S
H507 N487 0.862 . S
O508 Co476 1.920 . S
O508 C481 1.289 . S
C509 O501 1.258 . S
C509 O502 1.266 . S
Co510 O513 1.970 . S
Co510 N527 1.989 . S
Co510 O535 1.967 . S
Co510 O542 1.920 . S
Co511 O514 1.966 . S
Co511 N520 2.022 . S
Co511 N528 1.993 . S
Co511 O536 1.941 . S
C512 O513 1.258 . S
C512 O514 1.263 . S
O513 Co510 1.970 . S
O513 C512 1.258 . S
O514 Co511 1.966 . S
O514 C512 1.263 . S
C515 O516 1.235 . S
C515 O542 1.289 . S
O516 C515 1.235 . S
C517 C519 1.400 . S
C517 N520 1.351 . S
C517 C522 1.501 . S
C518 C519 1.387 . S
C518 N521 1.341 . S
C519 C517 1.400 . S
C519 C518 1.387 . S
N520 Co511 2.022 . S
N520 C517 1.351 . S
N520 N521 1.365 . S
N521 C518 1.341 . S
N521 N520 1.365 . S
N521 H541 0.862 . S
C522 C517 1.501 . S
C522 H523 0.961 . S
C522 H524 0.961 . S
C522 H525 0.960 . S
H523 C522 0.961 . S
H524 C522 0.961 . S
H525 C522 0.960 . S
C526 N527 1.342 . S
C526 C530 1.401 . S
C526 C531 1.499 . S
N527 Co510 1.989 . S
N527 C526 1.342 . S
N527 N528 1.388 . S
N528 Co511 1.993 . S
N528 N527 1.388 . S
N528 C529 1.346 . S
C529 N528 1.346 . S
C529 C530 1.396 . S
C529 C539 1.510 . S
C530 C526 1.401 . S
C530 C529 1.396 . S
C531 C526 1.499 . S
C531 H532 0.959 . S
C531 H533 0.960 . S
C531 H534 0.961 . S
H532 C531 0.959 . S
H533 C531 0.960 . S
H534 C531 0.961 . S
O535 Co510 1.967 . S
O535 C543 1.258 . S
O536 Co511 1.941 . S
O536 C543 1.266 . S
H537 C539 0.959 . S
H538 C539 0.961 . S
C539 C529 1.510 . S
C539 H537 0.959 . S
C539 H538 0.961 . S
C539 H540 0.960 . S
H540 C539 0.960 . S
H541 N521 0.862 . S
O542 Co510 1.920 . S
O542 C515 1.289 . S
C543 O535 1.258 . S
C543 O536 1.266 . S
C544 C545 1.349 . S
C544 C546 1.327 . S
C544 H569 0.950 . S
C545 C544 1.349 . S
C545 C561 1.349 . S
C546 C544 1.327 . S
C546 C565 1.429 . S
C546 H570 0.950 . S
C547 C564 1.574 . S
C547 C566 1.368 . S
C547 H571 0.949 . S
H548 C552 0.949 . S
C549 C550 1.349 . S
C549 C551 1.327 . S
C549 H572 0.950 . S
C550 C549 1.349 . S
C550 C562 1.349 . S
C551 C549 1.327 . S
C551 C567 1.429 . S
C551 H573 0.950 . S
C552 H548 0.949 . S
C552 C560 1.574 . S
C552 C568 1.368 . S
H553 C561 0.950 . S
H554 C559 0.950 . S
H555 C560 0.949 . S
H556 C562 0.950 . S
H557 C563 0.950 . S
H558 C564 0.949 . S
C559 H554 0.950 . S
C559 C561 1.327 . S
C559 C565 1.429 . S
C560 C552 1.574 . S
C560 H555 0.949 . S
C560 C566 1.368 1_455 S
C561 C545 1.349 . S
C561 H553 0.950 . S
C561 C559 1.327 . S
C562 C550 1.349 . S
C562 H556 0.950 . S
C562 C563 1.327 . S
C563 H557 0.950 . S
C563 C562 1.327 . S
C563 C567 1.429 . S
C564 C547 1.574 . S
C564 H558 0.949 . S
C564 C568 1.368 1_655 S
C565 C546 1.429 . S
C565 C559 1.429 . S
C565 C566 1.523 . S
C566 C547 1.368 . S
C566 C560 1.368 1_655 S
C566 C565 1.523 . S
C567 C551 1.429 . S
C567 C563 1.429 . S
C567 C568 1.523 . S
C568 C552 1.368 . S
C568 C564 1.368 1_455 S
C568 C567 1.523 . S
H569 C544 0.950 . S
H570 C546 0.950 . S
H571 C547 0.949 . S
H572 C549 0.950 . S
H573 C551 0.950 . S
C574 C575 1.349 . S
C574 C576 1.327 . S
C574 H599 0.950 . S
C575 C574 1.349 . S
C575 C591 1.349 . S
C576 C574 1.327 . S
C576 C595 1.429 . S
C576 H600 0.950 . S
C577 C594 1.574 . S
C577 C596 1.368 . S
C577 H601 0.949 . S
H578 C582 0.949 . S
C579 C580 1.349 . S
C579 C581 1.327 . S
C579 H602 0.950 . S
C580 C579 1.349 . S
C580 C592 1.349 . S
C581 C579 1.327 . S
C581 C597 1.429 . S
C581 H603 0.950 . S
C582 H578 0.949 . S
C582 C590 1.574 . S
C582 C598 1.368 . S
H583 C591 0.950 . S
H584 C589 0.950 . S
H585 C590 0.949 . S
H586 C592 0.950 . S
H587 C593 0.950 . S
H588 C594 0.949 . S
C589 H584 0.950 . S
C589 C591 1.327 . S
C589 C595 1.429 . S
C590 C582 1.574 . S
C590 H585 0.949 . S
C590 C596 1.368 . S
C591 C575 1.349 . S
C591 H583 0.950 . S
C591 C589 1.327 . S
C592 C580 1.349 . S
C592 H586 0.950 . S
C592 C593 1.327 . S
C593 H587 0.950 . S
C593 C592 1.327 . S
C593 C597 1.429 . S
C594 C577 1.574 . S
C594 H588 0.949 . S
C594 C598 1.368 . S
C595 C576 1.429 . S
C595 C589 1.429 . S
C595 C596 1.523 . S
C596 C577 1.368 . S
C596 C590 1.368 . S
C596 C595 1.523 . S
C597 C581 1.429 . S
C597 C593 1.429 . S
C597 C598 1.523 . S
C598 C582 1.368 . S
C598 C594 1.368 . S
C598 C597 1.523 . S
H599 C574 0.950 . S
H600 C576 0.950 . S
H601 C577 0.949 . S
H602 C579 0.950 . S
H603 C581 0.950 . S
C604 C605 1.349 . S
C604 C606 1.327 . S
C604 H629 0.950 . S
C605 C604 1.349 . S
C605 C621 1.349 . S
C606 C604 1.327 . S
C606 C625 1.429 . S
C606 H630 0.950 . S
C607 C624 1.574 . S
C607 C626 1.368 1_455 S
C607 H631 0.949 . S
H608 C612 0.949 . S
C609 C610 1.349 . S
C609 C611 1.327 . S
C609 H632 0.950 . S
C610 C609 1.349 . S
C610 C622 1.349 . S
C611 C609 1.327 . S
C611 C627 1.429 . S
C611 H633 0.950 . S
C612 H608 0.949 . S
C612 C620 1.574 . S
C612 C628 1.368 1_655 S
H613 C621 0.950 . S
H614 C619 0.950 . S
H615 C620 0.949 . S
H616 C622 0.950 . S
H617 C623 0.950 . S
H618 C624 0.949 . S
C619 H614 0.950 . S
C619 C621 1.327 . S
C619 C625 1.429 . S
C620 C612 1.574 . S
C620 H615 0.949 . S
C620 C626 1.368 . S
C621 C605 1.349 . S
C621 H613 0.950 . S
C621 C619 1.327 . S
C622 C610 1.349 . S
C622 H616 0.950 . S
C622 C623 1.327 . S
C623 H617 0.950 . S
C623 C622 1.327 . S
C623 C627 1.429 . S
C624 C607 1.574 . S
C624 H618 0.949 . S
C624 C628 1.368 . S
C625 C606 1.429 . S
C625 C619 1.429 . S
C625 C626 1.523 . S
C626 C607 1.368 1_655 S
C626 C620 1.368 . S
C626 C625 1.523 . S
C627 C611 1.429 . S
C627 C623 1.429 . S
C627 C628 1.523 . S
C628 C612 1.368 1_455 S
C628 C624 1.368 . S
C628 C627 1.523 . S
H629 C604 0.950 . S
H630 C606 0.950 . S
H631 C607 0.949 . S
H632 C609 0.950 . S
H633 C611 0.950 . S
C634 C635 1.349 . S
C634 C636 1.327 . S
C634 H659 0.950 . S
C635 C634 1.349 . S
C635 C651 1.349 . S
C636 C634 1.327 . S
C636 C655 1.429 . S
C636 H660 0.950 . S
C637 C654 1.574 . S
C637 C656 1.368 . S
C637 H661 0.949 . S
H638 C642 0.949 . S
C639 C640 1.349 . S
C639 C641 1.327 . S
C639 H662 0.950 . S
C640 C639 1.349 . S
C640 C652 1.349 . S
C641 C639 1.327 . S
C641 C657 1.429 . S
C641 H663 0.950 . S
C642 H638 0.949 . S
C642 C650 1.574 . S
C642 C658 1.368 . S
H643 C651 0.950 . S
H644 C649 0.950 . S
H645 C650 0.949 . S
H646 C652 0.950 . S
H647 C653 0.950 . S
H648 C654 0.949 . S
C649 H644 0.950 . S
C649 C651 1.327 . S
C649 C655 1.429 . S
C650 C642 1.574 . S
C650 H645 0.949 . S
C650 C656 1.368 . S
C651 C635 1.349 . S
C651 H643 0.950 . S
C651 C649 1.327 . S
C652 C640 1.349 . S
C652 H646 0.950 . S
C652 C653 1.327 . S
C653 H647 0.950 . S
C653 C652 1.327 . S
C653 C657 1.429 . S
C654 C637 1.574 . S
C654 H648 0.949 . S
C654 C658 1.368 . S
C655 C636 1.429 . S
C655 C649 1.429 . S
C655 C656 1.523 . S
C656 C637 1.368 . S
C656 C650 1.368 . S
C656 C655 1.523 . S
C657 C641 1.429 . S
C657 C653 1.429 . S
C657 C658 1.523 . S
C658 C642 1.368 . S
C658 C654 1.368 . S
C658 C657 1.523 . S
H659 C634 0.950 . S
H660 C636 0.950 . S
H661 C637 0.949 . S
H662 C639 0.950 . S
H663 C641 0.950 . S
C664 C665 1.349 . S
C664 C666 1.327 . S
C664 H689 0.950 . S
C665 C664 1.349 . S
C665 C681 1.349 . S
C666 C664 1.327 . S
C666 C685 1.429 . S
C666 H690 0.950 . S
C667 C684 1.574 . S
C667 C686 1.368 . S
C667 H691 0.949 . S
H668 C672 0.949 . S
C669 C670 1.349 . S
C669 C671 1.327 . S
C669 H692 0.950 . S
C670 C669 1.349 . S
C670 C682 1.349 . S
C671 C669 1.327 . S
C671 C687 1.429 . S
C671 H693 0.950 . S
C672 H668 0.949 . S
C672 C680 1.574 . S
C672 C688 1.368 . S
H673 C681 0.950 . S
H674 C679 0.950 . S
H675 C680 0.949 . S
H676 C682 0.950 . S
H677 C683 0.950 . S
H678 C684 0.949 . S
C679 H674 0.950 . S
C679 C681 1.327 . S
C679 C685 1.429 . S
C680 C672 1.574 . S
C680 H675 0.949 . S
C680 C686 1.368 . S
C681 C665 1.349 . S
C681 H673 0.950 . S
C681 C679 1.327 . S
C682 C670 1.349 . S
C682 H676 0.950 . S
C682 C683 1.327 . S
C683 H677 0.950 . S
C683 C682 1.327 . S
C683 C687 1.429 . S
C684 C667 1.574 . S
C684 H678 0.949 . S
C684 C688 1.368 . S
C685 C666 1.429 . S
C685 C679 1.429 . S
C685 C686 1.523 . S
C686 C667 1.368 . S
C686 C680 1.368 . S
C686 C685 1.523 . S
C687 C671 1.429 . S
C687 C683 1.429 . S
C687 C688 1.523 . S
C688 C672 1.368 . S
C688 C684 1.368 . S
C688 C687 1.523 . S
H689 C664 0.950 . S
H690 C666 0.950 . S
H691 C667 0.949 . S
H692 C669 0.950 . S
H693 C671 0.950 . S
C694 C695 1.349 . S
C694 C696 1.327 . S
C694 H719 0.950 . S
C695 C694 1.349 . S
C695 C711 1.349 . S
C696 C694 1.327 . S
C696 C715 1.429 . S
C696 H720 0.950 . S
C697 C714 1.574 . S
C697 C716 1.368 1_455 S
C697 H721 0.949 . S
H698 C702 0.949 . S
C699 C700 1.349 . S
C699 C701 1.327 . S
C699 H722 0.950 . S
C700 C699 1.349 . S
C700 C712 1.349 . S
C701 C699 1.327 . S
C701 C717 1.429 . S
C701 H723 0.950 . S
C702 H698 0.949 . S
C702 C710 1.574 . S
C702 C718 1.368 1_655 S
H703 C711 0.950 . S
H704 C709 0.950 . S
H705 C710 0.949 . S
H706 C712 0.950 . S
H707 C713 0.950 . S
H708 C714 0.949 . S
C709 H704 0.950 . S
C709 C711 1.327 . S
C709 C715 1.429 . S
C710 C702 1.574 . S
C710 H705 0.949 . S
C710 C716 1.368 . S
C711 C695 1.349 . S
C711 H703 0.950 . S
C711 C709 1.327 . S
C712 C700 1.349 . S
C712 H706 0.950 . S
C712 C713 1.327 . S
C713 H707 0.950 . S
C713 C712 1.327 . S
C713 C717 1.429 . S
C714 C697 1.574 . S
C714 H708 0.949 . S
C714 C718 1.368 . S
C715 C696 1.429 . S
C715 C709 1.429 . S
C715 C716 1.523 . S
C716 C697 1.368 1_655 S
C716 C710 1.368 . S
C716 C715 1.523 . S
C717 C701 1.429 . S
C717 C713 1.429 . S
C717 C718 1.523 . S
C718 C702 1.368 1_455 S
C718 C714 1.368 . S
C718 C717 1.523 . S
H719 C694 0.950 . S
H720 C696 0.950 . S
H721 C697 0.949 . S
H722 C699 0.950 . S
H723 C701 0.950 . S
C724 C725 1.349 . S
C724 C726 1.327 . S
C724 H749 0.950 . S
C725 C724 1.349 . S
C725 C741 1.349 . S
C726 C724 1.327 . S
C726 C745 1.429 . S
C726 H750 0.950 . S
C727 C744 1.574 . S
C727 C746 1.368 . S
C727 H751 0.949 . S
H728 C732 0.949 . S
C729 C730 1.349 . S
C729 C731 1.327 . S
C729 H752 0.950 . S
C730 C729 1.349 . S
C730 C742 1.349 . S
C731 C729 1.327 . S
C731 C747 1.429 . S
C731 H753 0.950 . S
C732 H728 0.949 . S
C732 C740 1.574 . S
C732 C748 1.368 . S
H733 C741 0.950 . S
H734 C739 0.950 . S
H735 C740 0.949 . S
H736 C742 0.950 . S
H737 C743 0.950 . S
H738 C744 0.949 . S
C739 H734 0.950 . S
C739 C741 1.327 . S
C739 C745 1.429 . S
C740 C732 1.574 . S
C740 H735 0.949 . S
C740 C746 1.368 . S
C741 C725 1.349 . S
C741 H733 0.950 . S
C741 C739 1.327 . S
C742 C730 1.349 . S
C742 H736 0.950 . S
C742 C743 1.327 . S
C743 H737 0.950 . S
C743 C742 1.327 . S
C743 C747 1.429 . S
C744 C727 1.574 . S
C744 H738 0.949 . S
C744 C748 1.368 . S
C745 C726 1.429 . S
C745 C739 1.429 . S
C745 C746 1.523 . S
C746 C727 1.368 . S
C746 C740 1.368 . S
C746 C745 1.523 . S
C747 C731 1.429 . S
C747 C743 1.429 . S
C747 C748 1.523 . S
C748 C732 1.368 . S
C748 C744 1.368 . S
C748 C747 1.523 . S
H749 C724 0.950 . S
H750 C726 0.950 . S
H751 C727 0.949 . S
H752 C729 0.950 . S
H753 C731 0.950 . S
C754 C755 1.349 . S
C754 C756 1.327 . S
C754 H779 0.950 . S
C755 C754 1.349 . S
C755 C771 1.349 . S
C756 C754 1.327 . S
C756 C775 1.429 . S
C756 H780 0.950 . S
C757 C774 1.574 . S
C757 C776 1.368 . S
C757 H781 0.949 . S
H758 C762 0.949 . S
C759 C760 1.349 . S
C759 C761 1.327 . S
C759 H782 0.950 . S
C760 C759 1.349 . S
C760 C772 1.349 . S
C761 C759 1.327 . S
C761 C777 1.429 . S
C761 H783 0.950 . S
C762 H758 0.949 . S
C762 C770 1.574 . S
C762 C778 1.368 . S
H763 C771 0.950 . S
H764 C769 0.950 . S
H765 C770 0.949 . S
H766 C772 0.950 . S
H767 C773 0.950 . S
H768 C774 0.949 . S
C769 H764 0.950 . S
C769 C771 1.327 . S
C769 C775 1.429 . S
C770 C762 1.574 . S
C770 H765 0.949 . S
C770 C776 1.368 1_455 S
C771 C755 1.349 . S
C771 H763 0.950 . S
C771 C769 1.327 . S
C772 C760 1.349 . S
C772 H766 0.950 . S
C772 C773 1.327 . S
C773 H767 0.950 . S
C773 C772 1.327 . S
C773 C777 1.429 . S
C774 C757 1.574 . S
C774 H768 0.949 . S
C774 C778 1.368 1_655 S
C775 C756 1.429 . S
C775 C769 1.429 . S
C775 C776 1.523 . S
C776 C757 1.368 . S
C776 C770 1.368 1_655 S
C776 C775 1.523 . S
C777 C761 1.429 . S
C777 C773 1.429 . S
C777 C778 1.523 . S
C778 C762 1.368 . S
C778 C774 1.368 1_455 S
C778 C777 1.523 . S
H779 C754 0.950 . S
H780 C756 0.950 . S
H781 C757 0.949 . S
H782 C759 0.950 . S
H783 C761 0.950 . S
C784 C785 1.349 . S
C784 C786 1.327 . S
C784 H809 0.950 . S
C785 C784 1.349 . S
C785 C801 1.349 . S
C786 C784 1.327 . S
C786 C805 1.429 . S
C786 H810 0.950 . S
C787 C804 1.574 . S
C787 C806 1.368 . S
C787 H811 0.949 . S
H788 C792 0.949 . S
C789 C790 1.349 . S
C789 C791 1.327 . S
C789 H812 0.950 . S
C790 C789 1.349 . S
C790 C802 1.349 . S
C791 C789 1.327 . S
C791 C807 1.429 . S
C791 H813 0.950 . S
C792 H788 0.949 . S
C792 C800 1.574 . S
C792 C808 1.368 . S
H793 C801 0.950 . S
H794 C799 0.950 . S
H795 C800 0.949 . S
H796 C802 0.950 . S
H797 C803 0.950 . S
H798 C804 0.949 . S
C799 H794 0.950 . S
C799 C801 1.327 . S
C799 C805 1.429 . S
C800 C792 1.574 . S
C800 H795 0.949 . S
C800 C806 1.368 . S
C801 C785 1.349 . S
C801 H793 0.950 . S
C801 C799 1.327 . S
C802 C790 1.349 . S
C802 H796 0.950 . S
C802 C803 1.327 . S
C803 H797 0.950 . S
C803 C802 1.327 . S
C803 C807 1.429 . S
C804 C787 1.574 . S
C804 H798 0.949 . S
C804 C808 1.368 . S
C805 C786 1.429 . S
C805 C799 1.429 . S
C805 C806 1.523 . S
C806 C787 1.368 . S
C806 C800 1.368 . S
C806 C805 1.523 . S
C807 C791 1.429 . S
C807 C803 1.429 . S
C807 C808 1.523 . S
C808 C792 1.368 . S
C808 C804 1.368 . S
C808 C807 1.523 . S
H809 C784 0.950 . S
H810 C786 0.950 . S
H811 C787 0.949 . S
H812 C789 0.950 . S
H813 C791 0.950 . S
C814 C815 1.349 . S
C814 C816 1.327 . S
C814 H839 0.950 . S
C815 C814 1.349 . S
C815 C831 1.349 . S
C816 C814 1.327 . S
C816 C835 1.429 . S
C816 H840 0.950 . S
C817 C834 1.574 . S
C817 C836 1.368 . S
C817 H841 0.949 . S
H818 C822 0.949 . S
C819 C820 1.349 . S
C819 C821 1.327 . S
C819 H842 0.950 . S
C820 C819 1.349 . S
C820 C832 1.349 . S
C821 C819 1.327 . S
C821 C837 1.429 . S
C821 H843 0.950 . S
C822 H818 0.949 . S
C822 C830 1.574 . S
C822 C838 1.368 . S
H823 C831 0.950 . S
H824 C829 0.950 . S
H825 C830 0.949 . S
H826 C832 0.950 . S
H827 C833 0.950 . S
H828 C834 0.949 . S
C829 H824 0.950 . S
C829 C831 1.327 . S
C829 C835 1.429 . S
C830 C822 1.574 . S
C830 H825 0.949 . S
C830 C836 1.368 . S
C831 C815 1.349 . S
C831 H823 0.950 . S
C831 C829 1.327 . S
C832 C820 1.349 . S
C832 H826 0.950 . S
C832 C833 1.327 . S
C833 H827 0.950 . S
C833 C832 1.327 . S
C833 C837 1.429 . S
C834 C817 1.574 . S
C834 H828 0.949 . S
C834 C838 1.368 . S
C835 C816 1.429 . S
C835 C829 1.429 . S
C835 C836 1.523 . S
C836 C817 1.368 . S
C836 C830 1.368 . S
C836 C835 1.523 . S
C837 C821 1.429 . S
C837 C833 1.429 . S
C837 C838 1.523 . S
C838 C822 1.368 . S
C838 C834 1.368 . S
C838 C837 1.523 . S
H839 C814 0.950 . S
H840 C816 0.950 . S
H841 C817 0.949 . S
H842 C819 0.950 . S
H843 C821 0.950 . S
C844 C845 1.349 . S
C844 C846 1.327 . S
C844 H869 0.950 . S
C845 C844 1.349 . S
C845 C861 1.349 . S
C846 C844 1.327 . S
C846 C865 1.429 . S
C846 H870 0.950 . S
C847 C864 1.574 . S
C847 C866 1.368 . S
C847 H871 0.949 . S
H848 C852 0.949 . S
C849 C850 1.349 . S
C849 C851 1.327 . S
C849 H872 0.950 . S
C850 C849 1.349 . S
C850 C862 1.349 . S
C851 C849 1.327 . S
C851 C867 1.429 . S
C851 H873 0.950 . S
C852 H848 0.949 . S
C852 C860 1.574 . S
C852 C868 1.368 . S
H853 C861 0.950 . S
H854 C859 0.950 . S
H855 C860 0.949 . S
H856 C862 0.950 . S
H857 C863 0.950 . S
H858 C864 0.949 . S
C859 H854 0.950 . S
C859 C861 1.327 . S
C859 C865 1.429 . S
C860 C852 1.574 . S
C860 H855 0.949 . S
C860 C866 1.368 . S
C861 C845 1.349 . S
C861 H853 0.950 . S
C861 C859 1.327 . S
C862 C850 1.349 . S
C862 H856 0.950 . S
C862 C863 1.327 . S
C863 H857 0.950 . S
C863 C862 1.327 . S
C863 C867 1.429 . S
C864 C847 1.574 . S
C864 H858 0.949 . S
C864 C868 1.368 . S
C865 C846 1.429 . S
C865 C859 1.429 . S
C865 C866 1.523 . S
C866 C847 1.368 . S
C866 C860 1.368 . S
C866 C865 1.523 . S
C867 C851 1.429 . S
C867 C863 1.429 . S
C867 C868 1.523 . S
C868 C852 1.368 . S
C868 C864 1.368 . S
C868 C867 1.523 . S
H869 C844 0.950 . S
H870 C846 0.950 . S
H871 C847 0.949 . S
H872 C849 0.950 . S
H873 C851 0.950 . S
C874 C875 1.349 . S
C874 C876 1.327 . S
C874 H899 0.950 . S
C875 C874 1.349 . S
C875 C891 1.349 . S
C876 C874 1.327 . S
C876 C895 1.429 . S
C876 H900 0.950 . S
C877 C894 1.574 . S
C877 C896 1.368 . S
C877 H901 0.949 . S
H878 C882 0.949 . S
C879 C880 1.349 . S
C879 C881 1.327 . S
C879 H902 0.950 . S
C880 C879 1.349 . S
C880 C892 1.349 . S
C881 C879 1.327 . S
C881 C897 1.429 . S
C881 H903 0.950 . S
C882 H878 0.949 . S
C882 C890 1.574 . S
C882 C898 1.368 . S
H883 C891 0.950 . S
H884 C889 0.950 . S
H885 C890 0.949 . S
H886 C892 0.950 . S
H887 C893 0.950 . S
H888 C894 0.949 . S
C889 H884 0.950 . S
C889 C891 1.327 . S
C889 C895 1.429 . S
C890 C882 1.574 . S
C890 H885 0.949 . S
C890 C896 1.368 . S
C891 C875 1.349 . S
C891 H883 0.950 . S
C891 C889 1.327 . S
C892 C880 1.349 . S
C892 H886 0.950 . S
C892 C893 1.327 . S
C893 H887 0.950 . S
C893 C892 1.327 . S
C893 C897 1.429 . S
C894 C877 1.574 . S
C894 H888 0.949 . S
C894 C898 1.368 . S
C895 C876 1.429 . S
C895 C889 1.429 . S
C895 C896 1.523 . S
C896 C877 1.368 . S
C896 C890 1.368 . S
C896 C895 1.523 . S
C897 C881 1.429 . S
C897 C893 1.429 . S
C897 C898 1.523 . S
C898 C882 1.368 . S
C898 C894 1.368 . S
C898 C897 1.523 . S
H899 C874 0.950 . S
H900 C876 0.950 . S
H901 C877 0.949 . S
H902 C879 0.950 . S
H903 C881 0.950 . S
C904 C905 1.349 . S
C904 C906 1.327 . S
C904 H929 0.950 . S
C905 C904 1.349 . S
C905 C921 1.349 . S
C906 C904 1.327 . S
C906 C925 1.429 . S
C906 H930 0.950 . S
C907 C924 1.574 . S
C907 C926 1.368 . S
C907 H931 0.949 . S
H908 C912 0.949 . S
C909 C910 1.349 . S
C909 C911 1.327 . S
C909 H932 0.950 . S
C910 C909 1.349 . S
C910 C922 1.349 . S
C911 C909 1.327 . S
C911 C927 1.429 . S
C911 H933 0.950 . S
C912 H908 0.949 . S
C912 C920 1.574 . S
C912 C928 1.368 . S
H913 C921 0.950 . S
H914 C919 0.950 . S
H915 C920 0.949 . S
H916 C922 0.950 . S
H917 C923 0.950 . S
H918 C924 0.949 . S
C919 H914 0.950 . S
C919 C921 1.327 . S
C919 C925 1.429 . S
C920 C912 1.574 . S
C920 H915 0.949 . S
C920 C926 1.368 . S
C921 C905 1.349 . S
C921 H913 0.950 . S
C921 C919 1.327 . S
C922 C910 1.349 . S
C922 H916 0.950 . S
C922 C923 1.327 . S
C923 H917 0.950 . S
C923 C922 1.327 . S
C923 C927 1.429 . S
C924 C907 1.574 . S
C924 H918 0.949 . S
C924 C928 1.368 . S
C925 C906 1.429 . S
C925 C919 1.429 . S
C925 C926 1.523 . S
C926 C907 1.368 . S
C926 C920 1.368 . S
C926 C925 1.523 . S
C927 C911 1.429 . S
C927 C923 1.429 . S
C927 C928 1.523 . S
C928 C912 1.368 . S
C928 C924 1.368 . S
C928 C927 1.523 . S
H929 C904 0.950 . S
H930 C906 0.950 . S
H931 C907 0.949 . S
H932 C909 0.950 . S
H933 C911 0.950 . S
C934 C935 1.349 . S
C934 C936 1.327 . S
C934 H959 0.950 . S
C935 C934 1.349 . S
C935 C951 1.349 . S
C936 C934 1.327 . S
C936 C955 1.429 . S
C936 H960 0.950 . S
C937 C954 1.574 . S
C937 C956 1.368 . S
C937 H961 0.949 . S
H938 C942 0.949 . S
C939 C940 1.349 . S
C939 C941 1.327 . S
C939 H962 0.950 . S
C940 C939 1.349 . S
C940 C952 1.349 . S
C941 C939 1.327 . S
C941 C957 1.429 . S
C941 H963 0.950 . S
C942 H938 0.949 . S
C942 C950 1.574 . S
C942 C958 1.368 . S
H943 C951 0.950 . S
H944 C949 0.950 . S
H945 C950 0.949 . S
H946 C952 0.950 . S
H947 C953 0.950 . S
H948 C954 0.949 . S
C949 H944 0.950 . S
C949 C951 1.327 . S
C949 C955 1.429 . S
C950 C942 1.574 . S
C950 H945 0.949 . S
C950 C956 1.368 . S
C951 C935 1.349 . S
C951 H943 0.950 . S
C951 C949 1.327 . S
C952 C940 1.349 . S
C952 H946 0.950 . S
C952 C953 1.327 . S
C953 H947 0.950 . S
C953 C952 1.327 . S
C953 C957 1.429 . S
C954 C937 1.574 . S
C954 H948 0.949 . S
C954 C958 1.368 . S
C955 C936 1.429 . S
C955 C949 1.429 . S
C955 C956 1.523 . S
C956 C937 1.368 . S
C956 C950 1.368 . S
C956 C955 1.523 . S
C957 C941 1.429 . S
C957 C953 1.429 . S
C957 C958 1.523 . S
C958 C942 1.368 . S
C958 C954 1.368 . S
C958 C957 1.523 . S
H959 C934 0.950 . S
H960 C936 0.950 . S
H961 C937 0.949 . S
H962 C939 0.950 . S
H963 C941 0.950 . S
C964 C965 1.349 . S
C964 C966 1.327 . S
C964 H989 0.950 . S
C965 C964 1.349 . S
C965 C981 1.349 . S
C966 C964 1.327 . S
C966 C985 1.429 . S
C966 H990 0.950 . S
C967 C984 1.574 . S
C967 C986 1.368 . S
C967 H991 0.949 . S
H968 C972 0.949 . S
C969 C970 1.349 . S
C969 C971 1.327 . S
C969 H992 0.950 . S
C970 C969 1.349 . S
C970 C982 1.349 . S
C971 C969 1.327 . S
C971 C987 1.429 . S
C971 H993 0.950 . S
C972 H968 0.949 . S
C972 C980 1.574 . S
C972 C988 1.368 . S
H973 C981 0.950 . S
H974 C979 0.950 . S
H975 C980 0.949 . S
H976 C982 0.950 . S
H977 C983 0.950 . S
H978 C984 0.949 . S
C979 H974 0.950 . S
C979 C981 1.327 . S
C979 C985 1.429 . S
C980 C972 1.574 . S
C980 H975 0.949 . S
C980 C986 1.368 . S
C981 C965 1.349 . S
C981 H973 0.950 . S
C981 C979 1.327 . S
C982 C970 1.349 . S
C982 H976 0.950 . S
C982 C983 1.327 . S
C983 H977 0.950 . S
C983 C982 1.327 . S
C983 C987 1.429 . S
C984 C967 1.574 . S
C984 H978 0.949 . S
C984 C988 1.368 . S
C985 C966 1.429 . S
C985 C979 1.429 . S
C985 C986 1.523 . S
C986 C967 1.368 . S
C986 C980 1.368 . S
C986 C985 1.523 . S
C987 C971 1.429 . S
C987 C983 1.429 . S
C987 C988 1.523 . S
C988 C972 1.368 . S
C988 C984 1.368 . S
C988 C987 1.523 . S
H989 C964 0.950 . S
H990 C966 0.950 . S
H991 C967 0.949 . S
H992 C969 0.950 . S
H993 C971 0.950 . S
C994 C995 1.349 . S
C994 C996 1.327 . S
C994 H1019 0.950 . S
C995 C994 1.349 . S
C995 C1011 1.349 . S
C996 C994 1.327 . S
C996 C1015 1.429 . S
C996 H1020 0.950 . S
C997 C1014 1.574 . S
C997 C1016 1.368 . S
C997 H1021 0.949 . S
H998 C1002 0.949 . S
C999 C1000 1.349 . S
C999 C1001 1.327 . S
C999 H1022 0.950 . S
C1000 C999 1.349 . S
C1000 C1012 1.349 . S
C1001 C999 1.327 . S
C1001 C1017 1.429 . S
C1001 H1023 0.950 . S
C1002 H998 0.949 . S
C1002 C1010 1.574 . S
C1002 C1018 1.368 . S
H1003 C1011 0.950 . S
H1004 C1009 0.950 . S
H1005 C1010 0.949 . S
H1006 C1012 0.950 . S
H1007 C1013 0.950 . S
H1008 C1014 0.949 . S
C1009 H1004 0.950 . S
C1009 C1011 1.327 . S
C1009 C1015 1.429 . S
C1010 C1002 1.574 . S
C1010 H1005 0.949 . S
C1010 C1016 1.368 . S
C1011 C995 1.349 . S
C1011 H1003 0.950 . S
C1011 C1009 1.327 . S
C1012 C1000 1.349 . S
C1012 H1006 0.950 . S
C1012 C1013 1.327 . S
C1013 H1007 0.950 . S
C1013 C1012 1.327 . S
C1013 C1017 1.429 . S
C1014 C997 1.574 . S
C1014 H1008 0.949 . S
C1014 C1018 1.368 . S
C1015 C996 1.429 . S
C1015 C1009 1.429 . S
C1015 C1016 1.523 . S
C1016 C997 1.368 . S
C1016 C1010 1.368 . S
C1016 C1015 1.523 . S
C1017 C1001 1.429 . S
C1017 C1013 1.429 . S
C1017 C1018 1.523 . S
C1018 C1002 1.368 . S
C1018 C1014 1.368 . S
C1018 C1017 1.523 . S
H1019 C994 0.950 . S
H1020 C996 0.950 . S
H1021 C997 0.949 . S
H1022 C999 0.950 . S
H1023 C1001 0.950 . S
C1024 C1025 1.349 . S
C1024 C1026 1.327 . S
C1024 H1049 0.950 . S
C1025 C1024 1.349 . S
C1025 C1041 1.349 . S
C1026 C1024 1.327 . S
C1026 C1045 1.429 . S
C1026 H1050 0.950 . S
C1027 C1044 1.564 1_545 S
C1027 C1046 1.368 . S
C1027 H1051 0.949 . S
H1028 C1032 0.949 . S
C1029 C1030 1.349 . S
C1029 C1031 1.327 . S
C1029 H1052 0.950 . S
C1030 C1029 1.349 . S
C1030 C1042 1.349 . S
C1031 C1029 1.327 . S
C1031 C1047 1.429 . S
C1031 H1053 0.950 . S
C1032 H1028 0.949 . S
C1032 C1040 1.564 1_565 S
C1032 C1048 1.368 . S
H1033 C1041 0.950 . S
H1034 C1039 0.950 . S
H1035 C1040 0.950 . S
H1036 C1042 0.950 . S
H1037 C1043 0.950 . S
H1038 C1044 0.950 . S
C1039 H1034 0.950 . S
C1039 C1041 1.327 . S
C1039 C1045 1.429 . S
C1040 C1032 1.564 1_545 S
C1040 H1035 0.950 . S
C1040 C1046 1.377 1_655 S
C1041 C1025 1.349 . S
C1041 H1033 0.950 . S
C1041 C1039 1.327 . S
C1042 C1030 1.349 . S
C1042 H1036 0.950 . S
C1042 C1043 1.327 . S
C1043 H1037 0.950 . S
C1043 C1042 1.327 . S
C1043 C1047 1.429 . S
C1044 C1027 1.564 1_565 S
C1044 H1038 0.950 . S
C1044 C1048 1.377 1_455 S
C1045 C1026 1.429 . S
C1045 C1039 1.429 . S
C1045 C1046 1.523 . S
C1046 C1027 1.368 . S
C1046 C1040 1.377 1_455 S
C1046 C1045 1.523 . S
C1047 C1031 1.429 . S
C1047 C1043 1.429 . S
C1047 C1048 1.523 . S
C1048 C1032 1.368 . S
C1048 C1044 1.377 1_655 S
C1048 C1047 1.523 . S
H1049 C1024 0.950 . S
H1050 C1026 0.950 . S
H1051 C1027 0.949 . S
H1052 C1029 0.950 . S
H1053 C1031 0.950 . S
C1054 C1055 1.349 . S
C1054 C1056 1.327 . S
C1054 H1079 0.950 . S
C1055 C1054 1.349 . S
C1055 C1071 1.349 . S
C1056 C1054 1.327 . S
C1056 C1075 1.429 . S
C1056 H1080 0.950 . S
C1057 C1074 1.574 . S
C1057 C1076 1.368 1_545 S
C1057 H1081 0.949 . S
H1058 C1062 0.949 . S
C1059 C1060 1.349 . S
C1059 C1061 1.327 . S
C1059 H1082 0.950 . S
C1060 C1059 1.349 . S
C1060 C1072 1.349 . S
C1061 C1059 1.327 . S
C1061 C1077 1.429 . S
C1061 H1083 0.950 . S
C1062 H1058 0.949 . S
C1062 C1070 1.574 . S
C1062 C1078 1.368 1_565 S
H1063 C1071 0.950 . S
H1064 C1069 0.950 1_545 S
H1065 C1070 0.949 . S
H1066 C1072 0.950 . S
H1067 C1073 0.950 1_565 S
H1068 C1074 0.949 . S
C1069 H1064 0.950 1_565 S
C1069 C1071 1.327 . S
C1069 C1075 1.429 . S
C1070 C1062 1.574 . S
C1070 H1065 0.949 . S
C1070 C1076 1.368 . S
C1071 C1055 1.349 . S
C1071 H1063 0.950 . S
C1071 C1069 1.327 . S
C1072 C1060 1.349 . S
C1072 H1066 0.950 . S
C1072 C1073 1.327 . S
C1073 H1067 0.950 1_545 S
C1073 C1072 1.327 . S
C1073 C1077 1.429 . S
C1074 C1057 1.574 . S
C1074 H1068 0.949 . S
C1074 C1078 1.368 . S
C1075 C1056 1.429 . S
C1075 C1069 1.429 . S
C1075 C1076 1.523 . S
C1076 C1057 1.368 1_565 S
C1076 C1070 1.368 . S
C1076 C1075 1.523 . S
C1077 C1061 1.429 . S
C1077 C1073 1.429 . S
C1077 C1078 1.523 . S
C1078 C1062 1.368 1_545 S
C1078 C1074 1.368 . S
C1078 C1077 1.523 . S
H1079 C1054 0.950 . S
H1080 C1056 0.950 . S
H1081 C1057 0.949 . S
H1082 C1059 0.950 . S
H1083 C1061 0.950 . S
C1084 C1085 1.349 . S
C1084 C1086 1.327 . S
C1084 H1109 0.950 . S
C1085 C1084 1.349 . S
C1085 C1101 1.349 . S
C1086 C1084 1.327 . S
C1086 C1105 1.429 . S
C1086 H1110 0.950 1_545 S
C1087 C1104 1.574 . S
C1087 C1106 1.368 1_554 S
C1087 H1111 0.949 . S
H1088 C1092 0.949 . S
C1089 C1090 1.349 . S
C1089 C1091 1.327 . S
C1089 H1112 0.950 . S
C1090 C1089 1.349 . S
C1090 C1102 1.349 . S
C1091 C1089 1.327 . S
C1091 C1107 1.429 . S
C1091 H1113 0.950 1_565 S
C1092 H1088 0.949 . S
C1092 C1100 1.574 . S
C1092 C1108 1.368 1_556 S
H1093 C1101 0.950 . S
H1094 C1099 0.950 . S
H1095 C1100 0.949 . S
H1096 C1102 0.950 . S
H1097 C1103 0.950 . S
H1098 C1104 0.949 . S
C1099 H1094 0.950 . S
C1099 C1101 1.327 . S
C1099 C1105 1.429 . S
C1100 C1092 1.574 . S
C1100 H1095 0.949 . S
C1100 C1106 1.368 1_565 S
C1101 C1085 1.349 . S
C1101 H1093 0.950 . S
C1101 C1099 1.327 . S
C1102 C1090 1.349 . S
C1102 H1096 0.950 . S
C1102 C1103 1.327 . S
C1103 H1097 0.950 . S
C1103 C1102 1.327 . S
C1103 C1107 1.429 . S
C1104 C1087 1.574 . S
C1104 H1098 0.949 . S
C1104 C1108 1.368 1_545 S
C1105 C1086 1.429 . S
C1105 C1099 1.429 . S
C1105 C1106 1.523 . S
C1106 C1087 1.368 1_556 S
C1106 C1100 1.368 1_545 S
C1106 C1105 1.523 . S
C1107 C1091 1.429 . S
C1107 C1103 1.429 . S
C1107 C1108 1.523 . S
C1108 C1092 1.368 1_554 S
C1108 C1104 1.368 1_565 S
C1108 C1107 1.523 . S
H1109 C1084 0.950 . S
H1110 C1086 0.950 1_565 S
H1111 C1087 0.949 . S
H1112 C1089 0.950 . S
H1113 C1091 0.950 1_545 S
C1114 C1115 1.349 . S
C1114 C1116 1.327 . S
C1114 H1139 0.950 . S
C1115 C1114 1.349 . S
C1115 C1131 1.349 . S
C1116 C1114 1.327 . S
C1116 C1135 1.429 . S
C1116 H1140 0.950 1_545 S
C1117 C1134 1.574 1_654 S
C1117 C1136 1.368 . S
C1117 H1141 0.949 . S
H1118 C1122 0.949 . S
C1119 C1120 1.349 . S
C1119 C1121 1.327 . S
C1119 H1142 0.950 . S
C1120 C1119 1.349 . S
C1120 C1132 1.349 . S
C1121 C1119 1.327 . S
C1121 C1137 1.429 . S
C1121 H1143 0.950 1_565 S
C1122 H1118 0.949 . S
C1122 C1130 1.574 1_456 S
C1122 C1138 1.368 . S
H1123 C1131 0.950 . S
H1124 C1129 0.950 . S
H1125 C1130 0.949 . S
H1126 C1132 0.950 . S
H1127 C1133 0.950 . S
H1128 C1134 0.949 . S
C1129 H1124 0.950 . S
C1129 C1131 1.327 . S
C1129 C1135 1.429 . S
C1130 C1122 1.574 1_654 S
C1130 H1125 0.949 . S
C1130 C1136 1.368 1_565 S
C1131 C1115 1.349 . S
C1131 H1123 0.950 . S
C1131 C1129 1.327 . S
C1132 C1120 1.349 . S
C1132 H1126 0.950 . S
C1132 C1133 1.327 . S
C1133 H1127 0.950 . S
C1133 C1132 1.327 . S
C1133 C1137 1.429 . S
C1134 C1117 1.574 1_456 S
C1134 H1128 0.949 . S
C1134 C1138 1.368 1_545 S
C1135 C1116 1.429 . S
C1135 C1129 1.429 . S
C1135 C1136 1.523 . S
C1136 C1117 1.368 . S
C1136 C1130 1.368 1_545 S
C1136 C1135 1.523 . S
C1137 C1121 1.429 . S
C1137 C1133 1.429 . S
C1137 C1138 1.523 . S
C1138 C1122 1.368 . S
C1138 C1134 1.368 1_565 S
C1138 C1137 1.523 . S
H1139 C1114 0.950 . S
H1140 C1116 0.950 1_565 S
H1141 C1117 0.949 . S
H1142 C1119 0.950 . S
H1143 C1121 0.950 1_545 S
C1144 C1145 1.349 . S
C1144 C1146 1.327 . S
C1144 H1169 0.950 . S
C1145 C1144 1.349 . S
C1145 C1161 1.349 . S
C1146 C1144 1.327 . S
C1146 C1165 1.429 . S
C1146 H1170 0.950 . S
C1147 C1164 1.574 . S
C1147 C1166 1.368 . S
C1147 H1171 0.949 . S
H1148 C1152 0.949 . S
C1149 C1150 1.349 . S
C1149 C1151 1.327 . S
C1149 H1172 0.950 . S
C1150 C1149 1.349 . S
C1150 C1162 1.349 . S
C1151 C1149 1.327 . S
C1151 C1167 1.429 . S
C1151 H1173 0.950 . S
C1152 H1148 0.949 . S
C1152 C1160 1.574 . S
C1152 C1168 1.368 . S
H1153 C1161 0.950 . S
H1154 C1159 0.950 . S
H1155 C1160 0.949 . S
H1156 C1162 0.950 . S
H1157 C1163 0.950 . S
H1158 C1164 0.949 . S
C1159 H1154 0.950 . S
C1159 C1161 1.327 . S
C1159 C1165 1.429 . S
C1160 C1152 1.574 . S
C1160 H1155 0.949 . S
C1160 C1166 1.368 . S
C1161 C1145 1.349 . S
C1161 H1153 0.950 . S
C1161 C1159 1.327 . S
C1162 C1150 1.349 . S
C1162 H1156 0.950 . S
C1162 C1163 1.327 . S
C1163 H1157 0.950 . S
C1163 C1162 1.327 . S
C1163 C1167 1.429 . S
C1164 C1147 1.574 . S
C1164 H1158 0.949 . S
C1164 C1168 1.368 . S
C1165 C1146 1.429 . S
C1165 C1159 1.429 . S
C1165 C1166 1.523 . S
C1166 C1147 1.368 . S
C1166 C1160 1.368 . S
C1166 C1165 1.523 . S
C1167 C1151 1.429 . S
C1167 C1163 1.429 . S
C1167 C1168 1.523 . S
C1168 C1152 1.368 . S
C1168 C1164 1.368 . S
C1168 C1167 1.523 . S
H1169 C1144 0.950 . S
H1170 C1146 0.950 . S
H1171 C1147 0.949 . S
H1172 C1149 0.950 . S
H1173 C1151 0.950 . S
C1174 C1175 1.349 . S
C1174 C1176 1.327 . S
C1174 H1199 0.950 . S
C1175 C1174 1.349 . S
C1175 C1191 1.349 . S
C1176 C1174 1.327 . S
C1176 C1195 1.429 . S
C1176 H1200 0.950 . S
C1177 C1194 1.574 . S
C1177 C1196 1.368 1_655 S
C1177 H1201 0.949 . S
H1178 C1182 0.949 . S
C1179 C1180 1.349 . S
C1179 C1181 1.327 . S
C1179 H1202 0.950 . S
C1180 C1179 1.349 . S
C1180 C1192 1.349 . S
C1181 C1179 1.327 . S
C1181 C1197 1.429 . S
C1181 H1203 0.950 . S
C1182 H1178 0.949 . S
C1182 C1190 1.574 . S
C1182 C1198 1.368 1_455 S
H1183 C1191 0.950 . S
H1184 C1189 0.950 . S
H1185 C1190 0.949 . S
H1186 C1192 0.950 . S
H1187 C1193 0.950 . S
H1188 C1194 0.949 . S
C1189 H1184 0.950 . S
C1189 C1191 1.327 . S
C1189 C1195 1.429 . S
C1190 C1182 1.574 . S
C1190 H1185 0.949 . S
C1190 C1196 1.368 . S
C1191 C1175 1.349 . S
C1191 H1183 0.950 . S
C1191 C1189 1.327 . S
C1192 C1180 1.349 . S
C1192 H1186 0.950 . S
C1192 C1193 1.327 . S
C1193 H1187 0.950 . S
C1193 C1192 1.327 . S
C1193 C1197 1.429 . S
C1194 C1177 1.574 . S
C1194 H1188 0.949 . S
C1194 C1198 1.368 . S
C1195 C1176 1.429 . S
C1195 C1189 1.429 . S
C1195 C1196 1.523 . S
C1196 C1177 1.368 1_455 S
C1196 C1190 1.368 . S
C1196 C1195 1.523 . S
C1197 C1181 1.429 . S
C1197 C1193 1.429 . S
C1197 C1198 1.523 . S
C1198 C1182 1.368 1_655 S
C1198 C1194 1.368 . S
C1198 C1197 1.523 . S
H1199 C1174 0.950 . S
H1200 C1176 0.950 . S
H1201 C1177 0.949 . S
H1202 C1179 0.950 . S
H1203 C1181 0.950 . S
C1204 C1205 1.349 . S
C1204 C1206 1.327 . S
C1204 H1229 0.950 . S
C1205 C1204 1.349 . S
C1205 C1221 1.349 . S
C1206 C1204 1.327 . S
C1206 C1225 1.429 . S
C1206 H1230 0.950 . S
C1207 C1224 1.574 1_554 S
C1207 C1226 1.368 . S
C1207 H1231 0.949 . S
H1208 C1212 0.949 . S
C1209 C1210 1.349 . S
C1209 C1211 1.327 . S
C1209 H1232 0.950 . S
C1210 C1209 1.349 . S
C1210 C1222 1.349 . S
C1211 C1209 1.327 . S
C1211 C1227 1.429 . S
C1211 H1233 0.950 . S
C1212 H1208 0.949 . S
C1212 C1220 1.574 1_556 S
C1212 C1228 1.368 . S
H1213 C1221 0.950 . S
H1214 C1219 0.950 . S
H1215 C1220 0.949 . S
H1216 C1222 0.950 . S
H1217 C1223 0.950 . S
H1218 C1224 0.949 . S
C1219 H1214 0.950 . S
C1219 C1221 1.327 . S
C1219 C1225 1.429 . S
C1220 C1212 1.574 1_554 S
C1220 H1215 0.949 . S
C1220 C1226 1.368 1_655 S
C1221 C1205 1.349 . S
C1221 H1213 0.950 . S
C1221 C1219 1.327 . S
C1222 C1210 1.349 . S
C1222 H1216 0.950 . S
C1222 C1223 1.327 . S
C1223 H1217 0.950 . S
C1223 C1222 1.327 . S
C1223 C1227 1.429 . S
C1224 C1207 1.574 1_556 S
C1224 H1218 0.949 . S
C1224 C1228 1.368 1_455 S
C1225 C1206 1.429 . S
C1225 C1219 1.429 . S
C1225 C1226 1.523 . S
C1226 C1207 1.368 . S
C1226 C1220 1.368 1_455 S
C1226 C1225 1.523 . S
C1227 C1211 1.429 . S
C1227 C1223 1.429 . S
C1227 C1228 1.523 . S
C1228 C1212 1.368 . S
C1228 C1224 1.368 1_655 S
C1228 C1227 1.523 . S
H1229 C1204 0.950 . S
H1230 C1206 0.950 . S
H1231 C1207 0.949 . S
H1232 C1209 0.950 . S
H1233 C1211 0.950 . S
C1234 C1235 1.349 . S
C1234 C1236 1.327 . S
C1234 H1259 0.950 . S
C1235 C1234 1.349 . S
C1235 C1251 1.349 . S
C1236 C1234 1.327 . S
C1236 C1255 1.429 . S
C1236 H1260 0.950 . S
C1237 C1254 1.574 . S
C1237 C1256 1.368 1_554 S
C1237 H1261 0.949 . S
H1238 C1242 0.949 . S
C1239 C1240 1.349 . S
C1239 C1241 1.327 . S
C1239 H1262 0.950 . S
C1240 C1239 1.349 . S
C1240 C1252 1.349 . S
C1241 C1239 1.327 . S
C1241 C1257 1.429 . S
C1241 H1263 0.950 . S
C1242 H1238 0.949 . S
C1242 C1250 1.574 . S
C1242 C1258 1.368 1_556 S
H1243 C1251 0.950 . S
H1244 C1249 0.950 . S
H1245 C1250 0.949 . S
H1246 C1252 0.950 . S
H1247 C1253 0.950 . S
H1248 C1254 0.949 . S
C1249 H1244 0.950 . S
C1249 C1251 1.327 . S
C1249 C1255 1.429 . S
C1250 C1242 1.574 . S
C1250 H1245 0.949 . S
C1250 C1256 1.368 . S
C1251 C1235 1.349 . S
C1251 H1243 0.950 . S
C1251 C1249 1.327 . S
C1252 C1240 1.349 . S
C1252 H1246 0.950 . S
C1252 C1253 1.327 . S
C1253 H1247 0.950 . S
C1253 C1252 1.327 . S
C1253 C1257 1.429 . S
C1254 C1237 1.574 . S
C1254 H1248 0.949 . S
C1254 C1258 1.368 . S
C1255 C1236 1.429 . S
C1255 C1249 1.429 . S
C1255 C1256 1.523 . S
C1256 C1237 1.368 1_556 S
C1256 C1250 1.368 . S
C1256 C1255 1.523 . S
C1257 C1241 1.429 . S
C1257 C1253 1.429 . S
C1257 C1258 1.523 . S
C1258 C1242 1.368 1_554 S
C1258 C1254 1.368 . S
C1258 C1257 1.523 . S
H1259 C1234 0.950 . S
H1260 C1236 0.950 . S
H1261 C1237 0.949 . S
H1262 C1239 0.950 . S
H1263 C1241 0.950 . S
C1264 C1265 1.349 . S
C1264 C1266 1.327 . S
C1264 H1289 0.950 . S
C1265 C1264 1.349 . S
C1265 C1281 1.349 . S
C1266 C1264 1.327 . S
C1266 C1285 1.429 . S
C1266 H1290 0.950 . S
C1267 C1284 1.574 . S
C1267 C1286 1.368 . S
C1267 H1291 0.949 . S
H1268 C1272 0.949 . S
C1269 C1270 1.349 . S
C1269 C1271 1.327 . S
C1269 H1292 0.950 . S
C1270 C1269 1.349 . S
C1270 C1282 1.349 . S
C1271 C1269 1.327 . S
C1271 C1287 1.429 . S
C1271 H1293 0.950 . S
C1272 H1268 0.949 . S
C1272 C1280 1.574 . S
C1272 C1288 1.368 . S
H1273 C1281 0.950 . S
H1274 C1279 0.950 . S
H1275 C1280 0.949 . S
H1276 C1282 0.950 . S
H1277 C1283 0.950 . S
H1278 C1284 0.949 . S
C1279 H1274 0.950 . S
C1279 C1281 1.327 . S
C1279 C1285 1.429 . S
C1280 C1272 1.574 . S
C1280 H1275 0.949 . S
C1280 C1286 1.368 1_565 S
C1281 C1265 1.349 . S
C1281 H1273 0.950 . S
C1281 C1279 1.327 . S
C1282 C1270 1.349 . S
C1282 H1276 0.950 . S
C1282 C1283 1.327 . S
C1283 H1277 0.950 . S
C1283 C1282 1.327 . S
C1283 C1287 1.429 . S
C1284 C1267 1.574 . S
C1284 H1278 0.949 . S
C1284 C1288 1.368 1_545 S
C1285 C1266 1.429 . S
C1285 C1279 1.429 . S
C1285 C1286 1.523 . S
C1286 C1267 1.368 . S
C1286 C1280 1.368 1_545 S
C1286 C1285 1.523 . S
C1287 C1271 1.429 . S
C1287 C1283 1.429 . S
C1287 C1288 1.523 . S
C1288 C1272 1.368 . S
C1288 C1284 1.368 1_565 S
C1288 C1287 1.523 . S
H1289 C1264 0.950 . S
H1290 C1266 0.950 . S
H1291 C1267 0.949 . S
H1292 C1269 0.950 . S
H1293 C1271 0.950 . S
C1294 C1295 1.349 . S
C1294 C1296 1.327 . S
C1294 H1319 0.950 . S
C1295 C1294 1.349 . S
C1295 C1311 1.349 . S
C1296 C1294 1.327 . S
C1296 C1315 1.429 . S
C1296 H1320 0.950 . S
C1297 C1314 1.574 . S
C1297 C1316 1.368 1_565 S
C1297 H1321 0.949 . S
H1298 C1302 0.949 . S
C1299 C1300 1.349 . S
C1299 C1301 1.327 . S
C1299 H1322 0.950 . S
C1300 C1299 1.349 . S
C1300 C1312 1.349 . S
C1301 C1299 1.327 . S
C1301 C1317 1.429 . S
C1301 H1323 0.950 . S
C1302 H1298 0.949 . S
C1302 C1310 1.574 . S
C1302 C1318 1.368 1_545 S
H1303 C1311 0.950 . S
H1304 C1309 0.950 . S
H1305 C1310 0.949 . S
H1306 C1312 0.950 . S
H1307 C1313 0.950 . S
H1308 C1314 0.949 . S
C1309 H1304 0.950 . S
C1309 C1311 1.327 . S
C1309 C1315 1.429 . S
C1310 C1302 1.574 . S
C1310 H1305 0.949 . S
C1310 C1316 1.368 . S
C1311 C1295 1.349 . S
C1311 H1303 0.950 . S
C1311 C1309 1.327 . S
C1312 C1300 1.349 . S
C1312 H1306 0.950 . S
C1312 C1313 1.327 . S
C1313 H1307 0.950 . S
C1313 C1312 1.327 . S
C1313 C1317 1.429 . S
C1314 C1297 1.574 . S
C1314 H1308 0.949 . S
C1314 C1318 1.368 . S
C1315 C1296 1.429 . S
C1315 C1309 1.429 . S
C1315 C1316 1.523 . S
C1316 C1297 1.368 1_545 S
C1316 C1310 1.368 . S
C1316 C1315 1.523 . S
C1317 C1301 1.429 . S
C1317 C1313 1.429 . S
C1317 C1318 1.523 . S
C1318 C1302 1.368 1_565 S
C1318 C1314 1.368 . S
C1318 C1317 1.523 . S
H1319 C1294 0.950 . S
H1320 C1296 0.950 . S
H1321 C1297 0.949 . S
H1322 C1299 0.950 . S
H1323 C1301 0.950 . S
C1324 C1325 1.349 . S
C1324 C1326 1.327 . S
C1324 H1349 0.950 . S
C1325 C1324 1.349 . S
C1325 C1341 1.349 . S
C1326 C1324 1.327 . S
C1326 C1345 1.429 . S
C1326 H1350 0.950 . S
C1327 C1344 1.574 . S
C1327 C1346 1.368 . S
C1327 H1351 0.949 . S
H1328 C1332 0.949 . S
C1329 C1330 1.349 . S
C1329 C1331 1.327 . S
C1329 H1352 0.950 . S
C1330 C1329 1.349 . S
C1330 C1342 1.349 . S
C1331 C1329 1.327 . S
C1331 C1347 1.429 . S
C1331 H1353 0.950 . S
C1332 H1328 0.949 . S
C1332 C1340 1.574 . S
C1332 C1348 1.368 . S
H1333 C1341 0.950 . S
H1334 C1339 0.950 . S
H1335 C1340 0.949 . S
H1336 C1342 0.950 . S
H1337 C1343 0.950 . S
H1338 C1344 0.949 . S
C1339 H1334 0.950 . S
C1339 C1341 1.327 . S
C1339 C1345 1.429 . S
C1340 C1332 1.574 . S
C1340 H1335 0.949 . S
C1340 C1346 1.368 1_565 S
C1341 C1325 1.349 . S
C1341 H1333 0.950 . S
C1341 C1339 1.327 . S
C1342 C1330 1.349 . S
C1342 H1336 0.950 . S
C1342 C1343 1.327 . S
C1343 H1337 0.950 . S
C1343 C1342 1.327 . S
C1343 C1347 1.429 . S
C1344 C1327 1.574 . S
C1344 H1338 0.949 . S
C1344 C1348 1.368 1_545 S
C1345 C1326 1.429 . S
C1345 C1339 1.429 . S
C1345 C1346 1.523 . S
C1346 C1327 1.368 . S
C1346 C1340 1.368 1_545 S
C1346 C1345 1.523 . S
C1347 C1331 1.429 . S
C1347 C1343 1.429 . S
C1347 C1348 1.523 . S
C1348 C1332 1.368 . S
C1348 C1344 1.368 1_565 S
C1348 C1347 1.523 . S
H1349 C1324 0.950 . S
H1350 C1326 0.950 . S
H1351 C1327 0.949 . S
H1352 C1329 0.950 . S
H1353 C1331 0.950 . S
C1354 C1355 1.349 . S
C1354 C1356 1.327 . S
C1354 H1379 0.950 . S
C1355 C1354 1.349 . S
C1355 C1371 1.349 . S
C1356 C1354 1.327 . S
C1356 C1375 1.429 . S
C1356 H1380 0.950 . S
C1357 C1374 1.574 . S
C1357 C1376 1.368 1_565 S
C1357 H1381 0.949 . S
H1358 C1362 0.949 . S
C1359 C1360 1.349 . S
C1359 C1361 1.327 . S
C1359 H1382 0.950 . S
C1360 C1359 1.349 . S
C1360 C1372 1.349 . S
C1361 C1359 1.327 . S
C1361 C1377 1.429 . S
C1361 H1383 0.950 . S
C1362 H1358 0.949 . S
C1362 C1370 1.574 . S
C1362 C1378 1.368 1_545 S
H1363 C1371 0.950 . S
H1364 C1369 0.950 . S
H1365 C1370 0.949 . S
H1366 C1372 0.950 . S
H1367 C1373 0.950 . S
H1368 C1374 0.949 . S
C1369 H1364 0.950 . S
C1369 C1371 1.327 . S
C1369 C1375 1.429 . S
C1370 C1362 1.574 . S
C1370 H1365 0.949 . S
C1370 C1376 1.368 . S
C1371 C1355 1.349 . S
C1371 H1363 0.950 . S
C1371 C1369 1.327 . S
C1372 C1360 1.349 . S
C1372 H1366 0.950 . S
C1372 C1373 1.327 . S
C1373 H1367 0.950 . S
C1373 C1372 1.327 . S
C1373 C1377 1.429 . S
C1374 C1357 1.574 . S
C1374 H1368 0.949 . S
C1374 C1378 1.368 . S
C1375 C1356 1.429 . S
C1375 C1369 1.429 . S
C1375 C1376 1.523 . S
C1376 C1357 1.368 1_545 S
C1376 C1370 1.368 . S
C1376 C1375 1.523 . S
C1377 C1361 1.429 . S
C1377 C1373 1.429 . S
C1377 C1378 1.523 . S
C1378 C1362 1.368 1_565 S
C1378 C1374 1.368 . S
C1378 C1377 1.523 . S
H1379 C1354 0.950 . S
H1380 C1356 0.950 . S
H1381 C1357 0.949 . S
H1382 C1359 0.950 . S
H1383 C1361 0.950 . S
C1384 C1385 1.349 . S
C1384 C1386 1.327 . S
C1384 H1409 0.950 . S
C1385 C1384 1.349 . S
C1385 C1401 1.349 . S
C1386 C1384 1.327 . S
C1386 C1405 1.429 . S
C1386 H1410 0.950 . S
C1387 C1404 1.574 . S
C1387 C1406 1.368 . S
C1387 H1411 0.949 . S
H1388 C1392 0.949 . S
C1389 C1390 1.349 . S
C1389 C1391 1.327 . S
C1389 H1412 0.950 . S
C1390 C1389 1.349 . S
C1390 C1402 1.349 . S
C1391 C1389 1.327 . S
C1391 C1407 1.429 . S
C1391 H1413 0.950 . S
C1392 H1388 0.949 . S
C1392 C1400 1.574 . S
C1392 C1408 1.368 . S
H1393 C1401 0.950 . S
H1394 C1399 0.950 . S
H1395 C1400 0.949 . S
H1396 C1402 0.950 . S
H1397 C1403 0.950 . S
H1398 C1404 0.949 . S
C1399 H1394 0.950 . S
C1399 C1401 1.327 . S
C1399 C1405 1.429 . S
C1400 C1392 1.574 . S
C1400 H1395 0.949 . S
C1400 C1406 1.368 . S
C1401 C1385 1.349 . S
C1401 H1393 0.950 . S
C1401 C1399 1.327 . S
C1402 C1390 1.349 . S
C1402 H1396 0.950 . S
C1402 C1403 1.327 . S
C1403 H1397 0.950 . S
C1403 C1402 1.327 . S
C1403 C1407 1.429 . S
C1404 C1387 1.574 . S
C1404 H1398 0.949 . S
C1404 C1408 1.368 . S
C1405 C1386 1.429 . S
C1405 C1399 1.429 . S
C1405 C1406 1.523 . S
C1406 C1387 1.368 . S
C1406 C1400 1.368 . S
C1406 C1405 1.523 . S
C1407 C1391 1.429 . S
C1407 C1403 1.429 . S
C1407 C1408 1.523 . S
C1408 C1392 1.368 . S
C1408 C1404 1.368 . S
C1408 C1407 1.523 . S
H1409 C1384 0.950 . S
H1410 C1386 0.950 . S
H1411 C1387 0.949 . S
H1412 C1389 0.950 . S
H1413 C1391 0.950 . S
C1414 C1415 1.349 . S
C1414 C1416 1.327 . S
C1414 H1439 0.950 . S
C1415 C1414 1.349 . S
C1415 C1431 1.349 . S
C1416 C1414 1.327 . S
C1416 C1435 1.429 . S
C1416 H1440 0.950 . S
C1417 C1434 1.574 . S
C1417 C1436 1.368 . S
C1417 H1441 0.949 . S
H1418 C1422 0.949 . S
C1419 C1420 1.349 . S
C1419 C1421 1.327 . S
C1419 H1442 0.950 . S
C1420 C1419 1.349 . S
C1420 C1432 1.349 . S
C1421 C1419 1.327 . S
C1421 C1437 1.429 . S
C1421 H1443 0.950 . S
C1422 H1418 0.949 . S
C1422 C1430 1.574 . S
C1422 C1438 1.368 . S
H1423 C1431 0.950 . S
H1424 C1429 0.950 . S
H1425 C1430 0.949 . S
H1426 C1432 0.950 . S
H1427 C1433 0.950 . S
H1428 C1434 0.949 . S
C1429 H1424 0.950 . S
C1429 C1431 1.327 . S
C1429 C1435 1.429 . S
C1430 C1422 1.574 . S
C1430 H1425 0.949 . S
C1430 C1436 1.368 . S
C1431 C1415 1.349 . S
C1431 H1423 0.950 . S
C1431 C1429 1.327 . S
C1432 C1420 1.349 . S
C1432 H1426 0.950 . S
C1432 C1433 1.327 . S
C1433 H1427 0.950 . S
C1433 C1432 1.327 . S
C1433 C1437 1.429 . S
C1434 C1417 1.574 . S
C1434 H1428 0.949 . S
C1434 C1438 1.368 . S
C1435 C1416 1.429 . S
C1435 C1429 1.429 . S
C1435 C1436 1.523 . S
C1436 C1417 1.368 . S
C1436 C1430 1.368 . S
C1436 C1435 1.523 . S
C1437 C1421 1.429 . S
C1437 C1433 1.429 . S
C1437 C1438 1.523 . S
C1438 C1422 1.368 . S
C1438 C1434 1.368 . S
C1438 C1437 1.523 . S
H1439 C1414 0.950 . S
H1440 C1416 0.950 . S
H1441 C1417 0.949 . S
H1442 C1419 0.950 . S
H1443 C1421 0.950 . S
C1444 C1445 1.349 . S
C1444 C1446 1.327 . S
C1444 H1469 0.950 . S
C1445 C1444 1.349 . S
C1445 C1461 1.349 . S
C1446 C1444 1.327 . S
C1446 C1465 1.429 . S
C1446 H1470 0.950 . S
C1447 C1464 1.574 . S
C1447 C1466 1.368 . S
C1447 H1471 0.949 . S
H1448 C1452 0.949 . S
C1449 C1450 1.349 . S
C1449 C1451 1.327 . S
C1449 H1472 0.950 . S
C1450 C1449 1.349 . S
C1450 C1462 1.349 . S
C1451 C1449 1.327 . S
C1451 C1467 1.429 . S
C1451 H1473 0.950 . S
C1452 H1448 0.949 . S
C1452 C1460 1.574 . S
C1452 C1468 1.368 . S
H1453 C1461 0.950 . S
H1454 C1459 0.950 . S
H1455 C1460 0.949 . S
H1456 C1462 0.950 . S
H1457 C1463 0.950 . S
H1458 C1464 0.949 . S
C1459 H1454 0.950 . S
C1459 C1461 1.327 . S
C1459 C1465 1.429 . S
C1460 C1452 1.574 . S
C1460 H1455 0.949 . S
C1460 C1466 1.368 . S
C1461 C1445 1.349 . S
C1461 H1453 0.950 . S
C1461 C1459 1.327 . S
C1462 C1450 1.349 . S
C1462 H1456 0.950 . S
C1462 C1463 1.327 . S
C1463 H1457 0.950 . S
C1463 C1462 1.327 . S
C1463 C1467 1.429 . S
C1464 C1447 1.574 . S
C1464 H1458 0.949 . S
C1464 C1468 1.368 . S
C1465 C1446 1.429 . S
C1465 C1459 1.429 . S
C1465 C1466 1.523 . S
C1466 C1447 1.368 . S
C1466 C1460 1.368 . S
C1466 C1465 1.523 . S
C1467 C1451 1.429 . S
C1467 C1463 1.429 . S
C1467 C1468 1.523 . S
C1468 C1452 1.368 . S
C1468 C1464 1.368 . S
C1468 C1467 1.523 . S
H1469 C1444 0.950 . S
H1470 C1446 0.950 . S
H1471 C1447 0.949 . S
H1472 C1449 0.950 . S
H1473 C1451 0.950 . S
C1474 C1475 1.349 . S
C1474 C1476 1.327 . S
C1474 H1499 0.950 . S
C1475 C1474 1.349 . S
C1475 C1491 1.349 . S
C1476 C1474 1.327 . S
C1476 C1495 1.429 . S
C1476 H1500 0.950 . S
C1477 C1494 1.574 . S
C1477 C1496 1.368 . S
C1477 H1501 0.949 . S
H1478 C1482 0.949 . S
C1479 C1480 1.349 . S
C1479 C1481 1.327 . S
C1479 H1502 0.950 . S
C1480 C1479 1.349 . S
C1480 C1492 1.349 . S
C1481 C1479 1.327 . S
C1481 C1497 1.429 . S
C1481 H1503 0.950 . S
C1482 H1478 0.949 . S
C1482 C1490 1.574 . S
C1482 C1498 1.368 . S
H1483 C1491 0.950 . S
H1484 C1489 0.950 . S
H1485 C1490 0.949 . S
H1486 C1492 0.950 . S
H1487 C1493 0.950 . S
H1488 C1494 0.949 . S
C1489 H1484 0.950 . S
C1489 C1491 1.327 . S
C1489 C1495 1.429 . S
C1490 C1482 1.574 . S
C1490 H1485 0.949 . S
C1490 C1496 1.368 . S
C1491 C1475 1.349 . S
C1491 H1483 0.950 . S
C1491 C1489 1.327 . S
C1492 C1480 1.349 . S
C1492 H1486 0.950 . S
C1492 C1493 1.327 . S
C1493 H1487 0.950 . S
C1493 C1492 1.327 . S
C1493 C1497 1.429 . S
C1494 C1477 1.574 . S
C1494 H1488 0.949 . S
C1494 C1498 1.368 . S
C1495 C1476 1.429 . S
C1495 C1489 1.429 . S
C1495 C1496 1.523 . S
C1496 C1477 1.368 . S
C1496 C1490 1.368 . S
C1496 C1495 1.523 . S
C1497 C1481 1.429 . S
C1497 C1493 1.429 . S
C1497 C1498 1.523 . S
C1498 C1482 1.368 . S
C1498 C1494 1.368 . S
C1498 C1497 1.523 . S
H1499 C1474 0.950 . S
H1500 C1476 0.950 . S
H1501 C1477 0.949 . S
H1502 C1479 0.950 . S
H1503 C1481 0.950 . S
C1504 C1505 1.349 . S
C1504 C1506 1.327 . S
C1504 H1529 0.950 . S
C1505 C1504 1.349 . S
C1505 C1521 1.349 . S
C1506 C1504 1.327 . S
C1506 C1525 1.429 . S
C1506 H1530 0.950 . S
C1507 C1524 1.600 . S
C1507 C1526 1.342 1_655 S
C1507 H1531 0.949 . S
H1508 C1512 0.949 . S
C1509 C1510 1.349 . S
C1509 C1511 1.327 . S
C1509 H1532 0.950 . S
C1510 C1509 1.349 . S
C1510 C1522 1.349 . S
C1511 C1509 1.327 . S
C1511 C1527 1.429 . S
C1511 H1533 0.950 . S
C1512 H1508 0.949 . S
C1512 C1520 1.600 . S
C1512 C1528 1.342 1_455 S
H1513 C1521 0.950 . S
H1514 C1519 0.950 . S
H1515 C1520 0.949 . S
H1516 C1522 0.950 . S
H1517 C1523 0.950 . S
H1518 C1524 0.949 . S
C1519 H1514 0.950 . S
C1519 C1521 1.327 . S
C1519 C1525 1.429 . S
C1520 C1512 1.600 . S
C1520 H1515 0.949 . S
C1520 C1526 1.368 . S
C1521 C1505 1.349 . S
C1521 H1513 0.950 . S
C1521 C1519 1.327 . S
C1522 C1510 1.349 . S
C1522 H1516 0.950 . S
C1522 C1523 1.327 . S
C1523 H1517 0.950 . S
C1523 C1522 1.327 . S
C1523 C1527 1.429 . S
C1524 C1507 1.600 . S
C1524 H1518 0.949 . S
C1524 C1528 1.368 . S
C1525 C1506 1.429 . S
C1525 C1519 1.429 . S
C1525 C1526 1.523 . S
C1526 C1507 1.342 1_455 S
C1526 C1520 1.368 . S
C1526 C1525 1.523 . S
C1527 C1511 1.429 . S
C1527 C1523 1.429 . S
C1527 C1528 1.523 . S
C1528 C1512 1.342 1_655 S
C1528 C1524 1.368 . S
C1528 C1527 1.523 . S
H1529 C1504 0.950 . S
H1530 C1506 0.950 . S
H1531 C1507 0.949 . S
H1532 C1509 0.950 . S
H1533 C1511 0.950 . S
C1534 C1535 1.349 . S
C1534 C1536 1.327 . S
C1534 H1559 0.950 . S
C1535 C1534 1.349 . S
C1535 C1551 1.349 . S
C1536 C1534 1.327 . S
C1536 C1555 1.429 . S
C1536 H1560 0.950 . S
C1537 C1554 1.574 . S
C1537 C1556 1.368 . S
C1537 H1561 0.949 . S
H1538 C1542 0.949 . S
C1539 C1540 1.349 . S
C1539 C1541 1.327 . S
C1539 H1562 0.950 . S
C1540 C1539 1.349 . S
C1540 C1552 1.349 . S
C1541 C1539 1.327 . S
C1541 C1557 1.429 . S
C1541 H1563 0.950 . S
C1542 H1538 0.949 . S
C1542 C1550 1.574 . S
C1542 C1558 1.368 . S
H1543 C1551 0.950 . S
H1544 C1549 0.950 . S
H1545 C1550 0.949 . S
H1546 C1552 0.950 . S
H1547 C1553 0.950 . S
H1548 C1554 0.949 . S
C1549 H1544 0.950 . S
C1549 C1551 1.327 . S
C1549 C1555 1.429 . S
C1550 C1542 1.574 . S
C1550 H1545 0.949 . S
C1550 C1556 1.368 . S
C1551 C1535 1.349 . S
C1551 H1543 0.950 . S
C1551 C1549 1.327 . S
C1552 C1540 1.349 . S
C1552 H1546 0.950 . S
C1552 C1553 1.327 . S
C1553 H1547 0.950 . S
C1553 C1552 1.327 . S
C1553 C1557 1.429 . S
C1554 C1537 1.574 . S
C1554 H1548 0.949 . S
C1554 C1558 1.368 . S
C1555 C1536 1.429 . S
C1555 C1549 1.429 . S
C1555 C1556 1.523 . S
C1556 C1537 1.368 . S
C1556 C1550 1.368 . S
C1556 C1555 1.523 . S
C1557 C1541 1.429 . S
C1557 C1553 1.429 . S
C1557 C1558 1.523 . S
C1558 C1542 1.368 . S
C1558 C1554 1.368 . S
C1558 C1557 1.523 . S
H1559 C1534 0.950 . S
H1560 C1536 0.950 . S
H1561 C1537 0.949 . S
H1562 C1539 0.950 . S
H1563 C1541 0.950 . S
C1564 C1565 1.349 . S
C1564 C1566 1.327 . S
C1564 H1589 0.950 . S
C1565 C1564 1.349 . S
C1565 C1581 1.349 . S
C1566 C1564 1.327 . S
C1566 C1585 1.429 . S
C1566 H1590 0.950 . S
C1567 C1584 1.574 . S
C1567 C1586 1.368 . S
C1567 H1591 0.949 . S
H1568 C1572 0.949 . S
C1569 C1570 1.349 . S
C1569 C1571 1.327 . S
C1569 H1592 0.950 . S
C1570 C1569 1.349 . S
C1570 C1582 1.349 . S
C1571 C1569 1.327 . S
C1571 C1587 1.429 . S
C1571 H1593 0.950 . S
C1572 H1568 0.949 . S
C1572 C1580 1.574 . S
C1572 C1588 1.368 . S
H1573 C1581 0.950 . S
H1574 C1579 0.950 . S
H1575 C1580 0.949 . S
H1576 C1582 0.950 . S
H1577 C1583 0.950 . S
H1578 C1584 0.949 . S
C1579 H1574 0.950 . S
C1579 C1581 1.327 . S
C1579 C1585 1.429 . S
C1580 C1572 1.574 . S
C1580 H1575 0.949 . S
C1580 C1586 1.368 . S
C1581 C1565 1.349 . S
C1581 H1573 0.950 . S
C1581 C1579 1.327 . S
C1582 C1570 1.349 . S
C1582 H1576 0.950 . S
C1582 C1583 1.327 . S
C1583 H1577 0.950 . S
C1583 C1582 1.327 . S
C1583 C1587 1.429 . S
C1584 C1567 1.574 . S
C1584 H1578 0.949 . S
C1584 C1588 1.368 . S
C1585 C1566 1.429 . S
C1585 C1579 1.429 . S
C1585 C1586 1.523 . S
C1586 C1567 1.368 . S
C1586 C1580 1.368 . S
C1586 C1585 1.523 . S
C1587 C1571 1.429 . S
C1587 C1583 1.429 . S
C1587 C1588 1.523 . S
C1588 C1572 1.368 . S
C1588 C1584 1.368 . S
C1588 C1587 1.523 . S
H1589 C1564 0.950 . S
H1590 C1566 0.950 . S
H1591 C1567 0.949 . S
H1592 C1569 0.950 . S
H1593 C1571 0.950 . S
C1594 C1595 1.349 . S
C1594 C1596 1.327 . S
C1594 H1619 0.950 . S
C1595 C1594 1.349 . S
C1595 C1611 1.349 . S
C1596 C1594 1.327 . S
C1596 C1615 1.429 . S
C1596 H1620 0.950 . S
C1597 C1614 1.600 . S
C1597 C1616 1.368 . S
C1597 H1621 0.949 . S
H1598 C1602 0.949 . S
C1599 C1600 1.349 . S
C1599 C1601 1.327 . S
C1599 H1622 0.950 . S
C1600 C1599 1.349 . S
C1600 C1612 1.349 . S
C1601 C1599 1.327 . S
C1601 C1617 1.429 . S
C1601 H1623 0.950 . S
C1602 H1598 0.949 . S
C1602 C1610 1.600 . S
C1602 C1618 1.368 . S
H1603 C1611 0.950 . S
H1604 C1609 0.950 . S
H1605 C1610 0.949 . S
H1606 C1612 0.950 . S
H1607 C1613 0.950 . S
H1608 C1614 0.949 . S
C1609 H1604 0.950 . S
C1609 C1611 1.327 . S
C1609 C1615 1.429 . S
C1610 C1602 1.600 . S
C1610 H1605 0.949 . S
C1610 C1616 1.342 1_455 S
C1611 C1595 1.349 . S
C1611 H1603 0.950 . S
C1611 C1609 1.327 . S
C1612 C1600 1.349 . S
C1612 H1606 0.950 . S
C1612 C1613 1.327 . S
C1613 H1607 0.950 . S
C1613 C1612 1.327 . S
C1613 C1617 1.429 . S
C1614 C1597 1.600 . S
C1614 H1608 0.949 . S
C1614 C1618 1.342 1_655 S
C1615 C1596 1.429 . S
C1615 C1609 1.429 . S
C1615 C1616 1.523 . S
C1616 C1597 1.368 . S
C1616 C1610 1.342 1_655 S
C1616 C1615 1.523 . S
C1617 C1601 1.429 . S
C1617 C1613 1.429 . S
C1617 C1618 1.523 . S
C1618 C1602 1.368 . S
C1618 C1614 1.342 1_455 S
C1618 C1617 1.523 . S
H1619 C1594 0.950 . S
H1620 C1596 0.950 . S
H1621 C1597 0.949 . S
H1622 C1599 0.950 . S
H1623 C1601 0.950 . S
C1624 C1625 1.349 . S
C1624 C1626 1.327 . S
C1624 H1649 0.950 . S
C1625 C1624 1.349 . S
C1625 C1641 1.349 . S
C1626 C1624 1.327 . S
C1626 C1645 1.429 . S
C1626 H1650 0.950 . S
C1627 C1644 1.600 . S
C1627 C1646 1.368 . S
C1627 H1651 0.949 . S
H1628 C1632 0.949 . S
C1629 C1630 1.349 . S
C1629 C1631 1.327 . S
C1629 H1652 0.950 . S
C1630 C1629 1.349 . S
C1630 C1642 1.349 . S
C1631 C1629 1.327 . S
C1631 C1647 1.429 . S
C1631 H1653 0.950 . S
C1632 H1628 0.949 . S
C1632 C1640 1.600 . S
C1632 C1648 1.368 . S
H1633 C1641 0.950 . S
H1634 C1639 0.950 . S
H1635 C1640 0.949 . S
H1636 C1642 0.950 . S
H1637 C1643 0.950 . S
H1638 C1644 0.949 . S
C1639 H1634 0.950 . S
C1639 C1641 1.327 . S
C1639 C1645 1.429 . S
C1640 C1632 1.600 . S
C1640 H1635 0.949 . S
C1640 C1646 1.342 1_455 S
C1641 C1625 1.349 . S
C1641 H1633 0.950 . S
C1641 C1639 1.327 . S
C1642 C1630 1.349 . S
C1642 H1636 0.950 . S
C1642 C1643 1.327 . S
C1643 H1637 0.950 . S
C1643 C1642 1.327 . S
C1643 C1647 1.429 . S
C1644 C1627 1.600 . S
C1644 H1638 0.949 . S
C1644 C1648 1.342 1_655 S
C1645 C1626 1.429 . S
C1645 C1639 1.429 . S
C1645 C1646 1.523 . S
C1646 C1627 1.368 . S
C1646 C1640 1.342 1_655 S
C1646 C1645 1.523 . S
C1647 C1631 1.429 . S
C1647 C1643 1.429 . S
C1647 C1648 1.523 . S
C1648 C1632 1.368 . S
C1648 C1644 1.342 1_455 S
C1648 C1647 1.523 . S
H1649 C1624 0.950 . S
H1650 C1626 0.950 . S
H1651 C1627 0.949 . S
H1652 C1629 0.950 . S
H1653 C1631 0.950 . S
C1654 C1655 1.349 . S
C1654 C1656 1.327 . S
C1654 H1679 0.950 . S
C1655 C1654 1.349 . S
C1655 C1671 1.349 . S
C1656 C1654 1.327 . S
C1656 C1675 1.429 . S
C1656 H1680 0.950 . S
C1657 C1674 1.574 . S
C1657 C1676 1.368 . S
C1657 H1681 0.949 . S
H1658 C1662 0.949 . S
C1659 C1660 1.349 . S
C1659 C1661 1.327 . S
C1659 H1682 0.950 . S
C1660 C1659 1.349 . S
C1660 C1672 1.349 . S
C1661 C1659 1.327 . S
C1661 C1677 1.429 . S
C1661 H1683 0.950 . S
C1662 H1658 0.949 . S
C1662 C1670 1.574 . S
C1662 C1678 1.368 . S
H1663 C1671 0.950 . S
H1664 C1669 0.950 . S
H1665 C1670 0.949 . S
H1666 C1672 0.950 . S
H1667 C1673 0.950 . S
H1668 C1674 0.949 . S
C1669 H1664 0.950 . S
C1669 C1671 1.327 . S
C1669 C1675 1.429 . S
C1670 C1662 1.574 . S
C1670 H1665 0.949 . S
C1670 C1676 1.368 . S
C1671 C1655 1.349 . S
C1671 H1663 0.950 . S
C1671 C1669 1.327 . S
C1672 C1660 1.349 . S
C1672 H1666 0.950 . S
C1672 C1673 1.327 . S
C1673 H1667 0.950 . S
C1673 C1672 1.327 . S
C1673 C1677 1.429 . S
C1674 C1657 1.574 . S
C1674 H1668 0.949 . S
C1674 C1678 1.368 . S
C1675 C1656 1.429 . S
C1675 C1669 1.429 . S
C1675 C1676 1.523 . S
C1676 C1657 1.368 . S
C1676 C1670 1.368 . S
C1676 C1675 1.523 . S
C1677 C1661 1.429 . S
C1677 C1673 1.429 . S
C1677 C1678 1.523 . S
C1678 C1662 1.368 . S
C1678 C1674 1.368 . S
C1678 C1677 1.523 . S
H1679 C1654 0.950 . S
H1680 C1656 0.950 . S
H1681 C1657 0.949 . S
H1682 C1659 0.950 . S
H1683 C1661 0.950 . S
C1684 C1685 1.349 . S
C1684 C1686 1.327 . S
C1684 H1709 0.950 . S
C1685 C1684 1.349 . S
C1685 C1701 1.349 . S
C1686 C1684 1.327 . S
C1686 C1705 1.429 . S
C1686 H1710 0.950 . S
C1687 C1704 1.574 . S
C1687 C1706 1.368 . S
C1687 H1711 0.949 . S
H1688 C1692 0.949 . S
C1689 C1690 1.349 . S
C1689 C1691 1.327 . S
C1689 H1712 0.950 . S
C1690 C1689 1.349 . S
C1690 C1702 1.349 . S
C1691 C1689 1.327 . S
C1691 C1707 1.429 . S
C1691 H1713 0.950 . S
C1692 H1688 0.949 . S
C1692 C1700 1.574 . S
C1692 C1708 1.368 . S
H1693 C1701 0.950 . S
H1694 C1699 0.950 . S
H1695 C1700 0.949 . S
H1696 C1702 0.950 . S
H1697 C1703 0.950 . S
H1698 C1704 0.949 . S
C1699 H1694 0.950 . S
C1699 C1701 1.327 . S
C1699 C1705 1.429 . S
C1700 C1692 1.574 . S
C1700 H1695 0.949 . S
C1700 C1706 1.368 . S
C1701 C1685 1.349 . S
C1701 H1693 0.950 . S
C1701 C1699 1.327 . S
C1702 C1690 1.349 . S
C1702 H1696 0.950 . S
C1702 C1703 1.327 . S
C1703 H1697 0.950 . S
C1703 C1702 1.327 . S
C1703 C1707 1.429 . S
C1704 C1687 1.574 . S
C1704 H1698 0.949 . S
C1704 C1708 1.368 . S
C1705 C1686 1.429 . S
C1705 C1699 1.429 . S
C1705 C1706 1.523 . S
C1706 C1687 1.368 . S
C1706 C1700 1.368 . S
C1706 C1705 1.523 . S
C1707 C1691 1.429 . S
C1707 C1703 1.429 . S
C1707 C1708 1.523 . S
C1708 C1692 1.368 . S
C1708 C1704 1.368 . S
C1708 C1707 1.523 . S
H1709 C1684 0.950 . S
H1710 C1686 0.950 . S
H1711 C1687 0.949 . S
H1712 C1689 0.950 . S
H1713 C1691 0.950 . S
C1714 C1715 1.349 . S
C1714 C1716 1.327 . S
C1714 H1739 0.950 . S
C1715 C1714 1.349 . S
C1715 C1731 1.349 . S
C1716 C1714 1.327 . S
C1716 C1735 1.429 . S
C1716 H1740 0.950 . S
C1717 C1734 1.600 . S
C1717 C1736 1.342 1_455 S
C1717 H1741 0.949 . S
H1718 C1722 0.949 . S
C1719 C1720 1.349 . S
C1719 C1721 1.327 . S
C1719 H1742 0.950 . S
C1720 C1719 1.349 . S
C1720 C1732 1.349 . S
C1721 C1719 1.327 . S
C1721 C1737 1.429 . S
C1721 H1743 0.950 . S
C1722 H1718 0.949 . S
C1722 C1730 1.600 . S
C1722 C1738 1.342 1_655 S
H1723 C1731 0.950 . S
H1724 C1729 0.950 . S
H1725 C1730 0.949 . S
H1726 C1732 0.950 . S
H1727 C1733 0.950 . S
H1728 C1734 0.949 . S
C1729 H1724 0.950 . S
C1729 C1731 1.327 . S
C1729 C1735 1.429 . S
C1730 C1722 1.600 . S
C1730 H1725 0.949 . S
C1730 C1736 1.368 . S
C1731 C1715 1.349 . S
C1731 H1723 0.950 . S
C1731 C1729 1.327 . S
C1732 C1720 1.349 . S
C1732 H1726 0.950 . S
C1732 C1733 1.327 . S
C1733 H1727 0.950 . S
C1733 C1732 1.327 . S
C1733 C1737 1.429 . S
C1734 C1717 1.600 . S
C1734 H1728 0.949 . S
C1734 C1738 1.368 . S
C1735 C1716 1.429 . S
C1735 C1729 1.429 . S
C1735 C1736 1.523 . S
C1736 C1717 1.342 1_655 S
C1736 C1730 1.368 . S
C1736 C1735 1.523 . S
C1737 C1721 1.429 . S
C1737 C1733 1.429 . S
C1737 C1738 1.523 . S
C1738 C1722 1.342 1_455 S
C1738 C1734 1.368 . S
C1738 C1737 1.523 . S
H1739 C1714 0.950 . S
H1740 C1716 0.950 . S
H1741 C1717 0.949 . S
H1742 C1719 0.950 . S
H1743 C1721 0.950 . S
C545 C135 0.885 . S
C550 C33 0.885 . S
C575 C101 0.885 . S
C580 C67 0.885 . S
C605 C169 0.885 . S
C610 C271 0.885 . S
C635 C203 0.885 . S
C640 C237 0.885 . S
C665 C305 0.885 . S
C670 C407 0.885 . S
C695 C339 0.885 . S
C700 C373 0.885 . S
C725 C543 0.885 . S
C730 C441 0.885 . S
C755 C509 0.885 . S
C760 C475 0.885 . S
C785 C5 0.667 . S
C790 C345 0.667 . S
C815 C379 0.667 . S
C820 C39 0.667 . S
C845 C277 0.667 . S
C850 C73 0.667 . S
C875 C311 0.667 . S
C880 C107 0.667 . S
C905 C481 0.667 . S
C910 C141 0.667 . S
C935 C515 0.667 . S
C940 C175 0.667 . S
C965 C413 0.667 . S
C970 C209 0.667 . S
C995 C447 0.667 . S
C1000 C243 0.667 . S
C1025 C9 1.735 . S
C1030 C145 1.735 . S
C1055 C43 1.735 . S
C1060 C179 1.735 . S
C1085 C213 1.735 . S
C1090 C77 1.735 . S
C1115 C111 1.735 . S
C1120 C247 1.735 . S
C1145 C281 1.735 . S
C1150 C417 1.735 . S
C1175 C451 1.735 . S
C1180 C315 1.735 . S
C1205 C349 1.735 . S
C1210 C485 1.735 . S
C1235 C519 1.735 . S
C1240 C383 1.735 . S
C1265 C20 1.338 . S
C1270 C54 1.338 . S
C1295 C122 1.338 . S
C1300 C88 1.338 . S
C1325 C190 1.338 . S
C1330 C156 1.338 . S
C1355 C224 1.338 . S
C1360 C258 1.338 . S
C1385 C326 1.338 . S
C1390 C292 1.338 . S
C1415 C394 1.338 . S
C1420 C360 1.338 . S
C1445 C428 1.338 . S
C1450 C462 1.338 . S
C1475 C530 1.338 . S
C1480 C496 1.338 . S
C1505 C2 0.715 . S
C1510 C308 0.715 . S
C1535 C36 0.715 . S
C1540 C274 0.715 . S
C1565 C70 0.715 . S
C1570 C376 0.715 . S
C1595 C104 0.715 . S
C1600 C342 0.715 . S
C1625 C138 0.715 . S
C1630 C444 0.715 . S
C1655 C410 0.715 . S
C1660 C172 0.715 . S
C1685 C206 0.715 . S
C1690 C512 0.715 . S
C1715 C478 0.715 . S
C1720 C240 0.715 . S
