# Generated by pormake.
# Topology wfy, (7)-cn, num edge types: 1
# Building blocks:
#     Node 0, Type 0, BuildingBlock: HICVOG_clean_sbu_0, # of connection points: 7
#     Node 1, Type 0, BuildingBlock: HICVOG_clean_sbu_0, # of connection points: 7
#     Node 2, Type 0, BuildingBlock: HICVOG_clean_sbu_0, # of connection points: 7
#     Node 3, Type 0, BuildingBlock: HICVOG_clean_sbu_0, # of connection points: 7
#     Node 4, Type 0, BuildingBlock: HICVOG_clean_sbu_0, # of connection points: 7
#     Node 5, Type 0, BuildingBlock: HICVOG_clean_sbu_0, # of connection points: 7
#     Node 6, Type 0, BuildingBlock: HICVOG_clean_sbu_0, # of connection points: 7
#     Node 7, Type 0, BuildingBlock: HICVOG_clean_sbu_0, # of connection points: 7
#     Edge 8, Type (0, 0), BuildingBlock: UVAHIK_clean_linker_0, # of connection points: 2
#     Edge 9, Type (0, 0), BuildingBlock: UVAHIK_clean_linker_0, # of connection points: 2
#     Edge 10, Type (0, 0), BuildingBlock: UVAHIK_clean_linker_0, # of connection points: 2
#     Edge 11, Type (0, 0), BuildingBlock: UVAHIK_clean_linker_0, # of connection points: 2
#     Edge 12, Type (0, 0), BuildingBlock: UVAHIK_clean_linker_0, # of connection points: 2
#     Edge 13, Type (0, 0), BuildingBlock: UVAHIK_clean_linker_0, # of connection points: 2
#     Edge 14, Type (0, 0), BuildingBlock: UVAHIK_clean_linker_0, # of connection points: 2
#     Edge 15, Type (0, 0), BuildingBlock: UVAHIK_clean_linker_0, # of connection points: 2
#     Edge 16, Type (0, 0), BuildingBlock: UVAHIK_clean_linker_0, # of connection points: 2
#     Edge 17, Type (0, 0), BuildingBlock: UVAHIK_clean_linker_0, # of connection points: 2
#     Edge 18, Type (0, 0), BuildingBlock: UVAHIK_clean_linker_0, # of connection points: 2
#     Edge 19, Type (0, 0), BuildingBlock: UVAHIK_clean_linker_0, # of connection points: 2
#     Edge 20, Type (0, 0), BuildingBlock: UVAHIK_clean_linker_0, # of connection points: 2
#     Edge 21, Type (0, 0), BuildingBlock: UVAHIK_clean_linker_0, # of connection points: 2
#     Edge 22, Type (0, 0), BuildingBlock: UVAHIK_clean_linker_0, # of connection points: 2
#     Edge 23, Type (0, 0), BuildingBlock: UVAHIK_clean_linker_0, # of connection points: 2
#     Edge 24, Type (0, 0), BuildingBlock: UVAHIK_clean_linker_0, # of connection points: 2
#     Edge 25, Type (0, 0), BuildingBlock: UVAHIK_clean_linker_0, # of connection points: 2
#     Edge 26, Type (0, 0), BuildingBlock: UVAHIK_clean_linker_0, # of connection points: 2
#     Edge 27, Type (0, 0), BuildingBlock: UVAHIK_clean_linker_0, # of connection points: 2
#     Edge 28, Type (0, 0), BuildingBlock: UVAHIK_clean_linker_0, # of connection points: 2
#     Edge 29, Type (0, 0), BuildingBlock: UVAHIK_clean_linker_0, # of connection points: 2
#     Edge 30, Type (0, 0), BuildingBlock: UVAHIK_clean_linker_0, # of connection points: 2
#     Edge 31, Type (0, 0), BuildingBlock: UVAHIK_clean_linker_0, # of connection points: 2
#     Edge 32, Type (0, 0), BuildingBlock: UVAHIK_clean_linker_0, # of connection points: 2
#     Edge 33, Type (0, 0), BuildingBlock: UVAHIK_clean_linker_0, # of connection points: 2
#     Edge 34, Type (0, 0), BuildingBlock: UVAHIK_clean_linker_0, # of connection points: 2
#     Edge 35, Type (0, 0), BuildingBlock: UVAHIK_clean_linker_0, # of connection points: 2
# Relax obj value: 0.128
# Max RMSD: 0.241
# Mean RMSD: 0.241
data_MOF--net-wfy--node1-HICVOG_clean_sbu_0--edge1-UVAHIK_clean_linker_0
_symmetry_space_group_name_H-M    P1
_symmetry_Int_Tables_number       1
_symmetry_cell_setting            triclinic
loop_
_symmetry_equiv_pos_as_xyz
'x, y, z'
_cell_length_a     48.726272
_cell_length_b     48.707506
_cell_length_c     31.40077
_cell_angle_alpha  89.98818
_cell_angle_beta   89.947204
_cell_angle_gamma 90.024562
loop_
_atom_site_label
_atom_site_type_symbol
_atom_site_fract_x
_atom_site_fract_y
_atom_site_fract_z
_atom_type_partial_charge
Zn0 Zn 0.3159 0.08291 0.05363 0.0
C1 C 0.29933 0.1634 0.06048 0.0
N2 N 0.32524 0.16452 0.0754 0.0
C3 C 0.33413 0.1387 0.07027 0.0
N4 N 0.31467 0.12238 0.05367 0.0
N5 N 0.29279 0.13783 0.04682 0.0
C6 C 0.20978 0.14076 0.03025 0.0
O7 O 0.21218 0.11679 0.04909 0.0
O8 O 0.35512 0.06847 0.05162 0.0
Zn9 Zn 0.26531 0.12771 0.00475 0.0
N10 N 0.30027 0.07182 0.10727 0.0
C11 C 0.2653 0.07737 0.15935 0.0
C12 C 0.27583 0.0829 0.11899 0.0
C13 C 0.31444 0.05497 0.13386 0.0
N14 N 0.27974 0.06112 0.18638 0.0
C15 C 0.30412 0.04963 0.1748 0.0
O16 O 0.25448 0.08674 0.00513 0.0
C17 C 0.2682 0.06453 1.00124 0.0
O18 O 0.29389 0.06371 0.00844 0.0
H19 H 0.26495 0.09637 0.09745 0.0
H20 H 0.33415 0.04701 0.12389 0.0
C21 C 0.27442 0.15412 0.92095 0.0
C22 C 0.29104 0.15977 0.88511 0.0
C23 C 0.32334 0.12679 0.90922 0.0
C24 C 0.30703 0.12141 0.94462 0.0
N25 N 0.28305 0.13521 0.95016 0.0
N26 N 0.31511 0.1459 0.88059 0.0
H27 H 0.2555 0.16524 0.92626 0.0
C28 C 0.37388 0.07651 0.02632 0.0
O29 O 0.36833 0.09588 0.99851 0.0
O30 O 0.23034 0.15045 0.01014 0.0
H31 H 0.31377 0.10676 0.96819 0.0
H32 H 0.24599 0.08623 0.16937 0.0
H33 H 0.34259 0.11612 0.90478 0.0
Zn34 Zn 0.12968 0.74108 1.00273 0.0
C35 C 0.14755 0.67436 0.93426 0.0
N36 N 0.17148 0.68703 0.92643 0.0
C37 C 0.16765 0.7121 0.94353 0.0
N38 N 0.14214 0.71471 0.96024 0.0
N39 N 0.12956 0.69095 0.95386 0.0
C40 C 0.07359 0.63476 0.99016 0.0
O41 O 0.08033 0.64691 0.02598 0.0
O42 O 0.15074 0.7771 0.99923 0.0
Zn43 Zn 0.09091 0.6862 0.94348 0.0
N44 N 0.13671 0.72343 0.05729 0.0
C45 C 0.1265 0.68388 0.09891 0.0
C46 C 0.12187 0.70013 0.06319 0.0
C47 C 0.15586 0.73157 0.08644 0.0
N48 N 0.14583 0.69161 0.12755 0.0
C49 C 0.16066 0.71509 0.12269 0.0
O50 O 0.0666 0.71419 0.97113 0.0
C51 C 0.06626 0.73732 0.98999 0.0
O52 O 0.08838 0.74956 1.00083 0.0
H53 H 0.10687 0.69404 0.03967 0.0
H54 H 0.1677 0.75002 0.08084 0.0
C55 C 0.06818 0.67595 0.86093 0.0
C56 C 0.06599 0.67914 0.81656 0.0
C57 C 0.10103 0.71303 0.81882 0.0
C58 C 0.10273 0.71012 0.86285 0.0
N59 N 0.08653 0.69146 0.88294 0.0
N60 N 0.08275 0.69755 0.79676 0.0
H61 H 0.05575 0.66113 0.87785 0.0
C62 C 0.14374 0.79562 0.97277 0.0
O63 O 0.12336 0.79068 0.94649 0.0
O64 O 0.07691 0.64743 0.95511 0.0
H65 H 0.1171 0.72234 0.88084 0.0
H66 H 0.11501 0.66513 0.10368 0.0
H67 H 0.11403 0.72755 0.80229 0.0
Zn68 Zn 0.6901 0.92076 0.05242 0.0
C69 C 0.71052 0.84135 0.05599 0.0
N70 N 0.68473 0.83938 0.07123 0.0
C71 C 0.67469 0.8647 0.06527 0.0
N72 N 0.69349 0.8816 0.04824 0.0
N73 N 0.716 0.86703 0.04163 0.0
C74 C 0.79979 0.86537 0.02938 0.0
O75 O 0.79722 0.88904 0.04902 0.0
O76 O 0.65074 0.93293 0.04073 0.0
Zn77 Zn 0.7447 0.87897 1.00274 0.0
N78 N 0.69773 0.92937 0.11092 0.0
C79 C 0.72592 0.92385 0.17197 0.0
C80 C 0.72045 0.91842 0.12927 0.0
C81 C 0.68035 0.94578 0.13322 0.0
N82 N 0.70869 0.94039 0.19425 0.0
C83 C 0.68598 0.95177 0.17612 0.0
O84 O 0.75547 0.91983 0.00739 0.0
C85 C 0.74236 0.94253 0.00891 0.0
O86 O 0.71716 0.94368 0.01951 0.0
H87 H 0.73397 0.90536 0.11092 0.0
H88 H 0.66221 0.95355 0.11766 0.0
C89 C 0.73651 0.85468 0.91709 0.0
C90 C 0.72473 0.85494 0.876 0.0
C91 C 0.69928 0.8947 0.89469 0.0
C92 C 0.71086 0.89436 0.93513 0.0
N93 N 0.72956 0.87478 0.9455 0.0
N94 N 0.70657 0.87517 0.86612 0.0
H95 H 0.75132 0.83915 0.92601 0.0
C96 C 0.64564 0.95724 0.02812 0.0
O97 O 0.66623 0.97382 0.01988 0.0
O98 O 0.77948 0.85605 0.00833 0.0
H99 H 0.70505 0.90973 0.95817 0.0
H100 H 0.7438 0.91513 0.18725 0.0
H101 H 0.6846 0.91038 0.886 0.0
Zn102 Zn 0.91848 0.31996 0.94386 0.0
C103 C 0.8414 0.29436 0.94621 0.0
N104 N 0.83755 0.31909 0.92805 0.0
C105 C 0.86168 0.3317 0.93427 0.0
N106 N 0.87977 0.31535 0.95419 0.0
N107 N 0.86712 0.2918 0.96212 0.0
C108 C 0.86425 0.21175 0.9759 0.0
O109 O 0.88303 0.21717 0.94704 0.0
O110 O 0.93268 0.35827 0.95742 0.0
Zn111 Zn 0.87978 0.26602 0.00551 0.0
N112 N 0.92251 0.31589 0.88308 0.0
C113 C 0.90741 0.29559 0.81837 0.0
C114 C 0.90622 0.29753 0.86257 0.0
C115 C 0.94037 0.33212 0.8613 0.0
N116 N 0.92524 0.31175 0.79655 0.0
C117 C 0.94203 0.32993 0.81672 0.0
O118 O 0.921 0.25709 0.00303 0.0
C119 C 0.94306 0.26871 0.99041 0.0
O120 O 0.94265 0.29145 0.97047 0.0
H121 H 0.89213 0.28481 0.88038 0.0
H122 H 0.95278 0.34677 0.87858 0.0
C123 C 0.85411 0.27653 0.08917 0.0
C124 C 0.8492 0.29337 0.125 0.0
C125 C 0.88289 0.32471 0.09985 0.0
C126 C 0.88759 0.30812 0.06451 0.0
N127 N 0.87305 0.28453 0.05954 0.0
N128 N 0.86378 0.31708 0.12897 0.0
H129 H 0.84246 0.25788 0.08423 0.0
C130 C 0.94621 0.36607 0.98985 0.0
O131 O 0.95112 0.34848 0.02063 0.0
O132 O 0.8587 0.22986 0.00385 0.0
H133 H 0.90236 0.31423 0.04058 0.0
H134 H 0.89435 0.2813 0.80151 0.0
H135 H 0.89416 0.34367 0.10392 0.0
Zn136 Zn 0.81974 0.58933 0.56237 0.0
C137 C 0.795 0.66641 0.55906 0.0
N138 N 0.81994 0.67008 0.57668 0.0
C139 C 0.8323 0.64586 0.57006 0.0
N140 N 0.81563 0.62788 0.55066 0.0
N141 N 0.79214 0.64069 0.54316 0.0
C142 C 0.71185 0.64343 0.5288 0.0
O143 O 0.71695 0.62477 0.55794 0.0
O144 O 0.85876 0.57537 0.5537 0.0
Zn145 Zn 0.76646 0.62808 0.4996 0.0
N146 N 0.81211 0.58564 0.62238 0.0
C147 C 0.78597 0.59999 0.68228 0.0
C148 C 0.79183 0.60146 0.63899 0.0
C149 C 0.82666 0.56799 0.6472 0.0
N150 N 0.80032 0.58231 0.70708 0.0
C151 C 0.8206 0.56608 0.69095 0.0
O152 O 0.75806 0.58663 0.50122 0.0
C153 C 0.77005 0.56452 0.51275 0.0
O154 O 0.79269 0.5649 0.53293 0.0
H155 H 0.7803 0.61506 0.61869 0.0
H156 H 0.84214 0.5552 0.63255 0.0
C157 C 0.77679 0.6542 0.41612 0.0
C158 C 0.7937 0.65944 0.38045 0.0
C159 C 0.82545 0.62623 0.40568 0.0
C160 C 0.80879 0.6212 0.44083 0.0
N161 N 0.78498 0.63535 0.44572 0.0
N162 N 0.81765 0.64527 0.37659 0.0
H163 H 0.75794 0.66552 0.42095 0.0
C164 C 0.87002 0.56831 0.51883 0.0
O165 O 0.85607 0.57043 0.48322 0.0
O166 O 0.7302 0.64887 0.50116 0.0
H167 H 0.81497 0.60646 0.46471 0.0
H168 H 0.76995 0.61256 0.69602 0.0
H169 H 0.84459 0.61528 0.40171 0.0
Zn170 Zn 0.62876 0.24203 0.50388 0.0
C171 C 0.64059 0.17477 0.43353 0.0
N172 N 0.66573 0.18491 0.42636 0.0
C173 C 0.66451 0.20997 0.44445 0.0
N174 N 0.6394 0.215 0.46143 0.0
N175 N 0.62451 0.19279 0.454 0.0
C176 C 0.55813 0.1412 0.49247 0.0
O177 O 0.55017 0.15905 0.52129 0.0
O178 O 0.65144 0.27712 0.49933 0.0
Zn179 Zn 0.58535 0.18905 0.45345 0.0
N180 N 0.63507 0.22404 0.55858 0.0
C181 C 0.62044 0.18693 0.60229 0.0
C182 C 0.61789 0.20253 0.5655 0.0
C183 C 0.65514 0.23056 0.58726 0.0
N184 N 0.6403 0.19328 0.63079 0.0
C185 C 0.65795 0.21463 0.62477 0.0
O186 O 0.56363 0.21457 0.49071 0.0
C187 C 0.56507 0.23947 0.50278 0.0
O188 O 0.58774 0.25269 0.50332 0.0
H189 H 0.60249 0.1973 0.54215 0.0
H190 H 0.66895 0.24736 0.58034 0.0
C191 C 0.55917 0.18151 0.37277 0.0
C192 C 0.55223 0.18883 0.3308 0.0
C193 C 0.57684 0.23067 0.33945 0.0
C194 C 0.58345 0.22333 0.38103 0.0
N195 N 0.57458 0.1989 0.39669 0.0
N196 N 0.56146 0.21335 0.31545 0.0
H197 H 0.55317 0.16201 0.38624 0.0
C198 C 0.6418 0.2975 0.47877 0.0
O199 O 0.61803 0.29482 0.45951 0.0
O200 O 0.57374 0.14918 0.46242 0.0
H201 H 0.59578 0.23679 0.40064 0.0
H202 H 0.60689 0.16973 0.60807 0.0
H203 H 0.58385 0.24997 0.32631 0.0
Zn204 Zn 0.18878 0.41977 0.55948 0.0
C205 C 0.20931 0.34124 0.56124 0.0
N206 N 0.18396 0.33937 0.57815 0.0
C207 C 0.17336 0.36427 0.57069 0.0
N208 N 0.19141 0.38088 0.55127 0.0
N209 N 0.21416 0.36657 0.54492 0.0
C210 C 0.29605 0.36341 0.53227 0.0
O211 O 0.2918 0.3849 0.55667 0.0
O212 O 0.15004 0.43423 0.5503 0.0
Zn213 Zn 0.24155 0.3776 0.50289 0.0
N214 N 0.19638 0.42476 0.6191 0.0
C215 C 0.22082 0.41123 0.68114 0.0
C216 C 0.21657 0.40954 0.63735 0.0
C217 C 0.18053 0.44196 0.64265 0.0
N218 N 0.20498 0.42838 0.70475 0.0
C219 C 0.18497 0.44405 0.68672 0.0
O220 O 0.2516 0.41864 0.50332 0.0
C221 C 0.23964 0.44153 0.51038 0.0
O222 O 0.2161 0.44288 0.52783 0.0
H223 H 0.22892 0.3959 0.61815 0.0
H224 H 0.16434 0.45342 0.62721 0.0
C225 C 0.2322 0.35158 0.41906 0.0
C226 C 0.21587 0.34685 0.38265 0.0
C227 C 0.18463 0.381 0.40637 0.0
C228 C 0.20072 0.38555 0.44225 0.0
N229 N 0.22398 0.37068 0.44825 0.0
N230 N 0.19244 0.36172 0.37767 0.0
H231 H 0.25062 0.33972 0.42473 0.0
C232 C 0.13927 0.44251 0.51575 0.0
O233 O 0.15362 0.4414 0.48036 0.0
O234 O 0.27702 0.35559 0.50727 0.0
H235 H 0.19448 0.40052 0.46577 0.0
H236 H 0.2366 0.39904 0.69626 0.0
H237 H 0.16591 0.39252 0.40151 0.0
Zn238 Zn 0.37989 0.76284 0.50105 0.0
C239 C 0.36335 0.83371 0.44304 0.0
N240 N 0.33815 0.82329 0.43741 0.0
C241 C 0.34091 0.79707 0.45042 0.0
N242 N 0.36695 0.79177 0.46321 0.0
N243 N 0.38096 0.81478 0.45771 0.0
C244 C 0.4316 0.87203 0.48946 0.0
O245 O 0.41774 0.86322 0.52268 0.0
O246 O 0.35729 0.72769 0.49736 0.0
Zn247 Zn 0.41969 0.81775 0.44758 0.0
N248 N 0.37685 0.77777 0.55858 0.0
C249 C 0.39822 0.80667 0.6099 0.0
C250 C 0.3974 0.79531 0.5693 0.0
C251 C 0.35635 0.77171 0.58681 0.0
N252 N 0.37825 0.80026 0.63828 0.0
C253 C 0.35711 0.78322 0.62809 0.0
O254 O 0.44391 0.79026 0.47709 0.0
C255 C 0.44318 0.76536 0.48944 0.0
O256 O 0.4206 0.75234 0.49413 0.0
H257 H 0.41315 0.80039 0.5464 0.0
H258 H 0.34009 0.75779 0.57757 0.0
C259 C 0.44183 0.82664 0.36491 0.0
C260 C 0.44595 0.82134 0.32133 0.0
C261 C 0.41396 0.78453 0.32594 0.0
C262 C 0.41058 0.78951 0.36931 0.0
N263 N 0.42451 0.8105 0.3878 0.0
N264 N 0.43159 0.80038 0.30313 0.0
H265 H 0.45202 0.84343 0.38083 0.0
C266 C 0.36315 0.70905 0.47041 0.0
O267 O 0.38309 0.71341 0.44302 0.0
O268 O 0.43414 0.85652 0.45713 0.0
H269 H 0.39691 0.77689 0.38809 0.0
H270 H 0.41463 0.82047 0.61887 0.0
H271 H 0.4029 0.76802 0.31057 0.0
C272 C 0.33405 0.0092 0.19266 0.0
C273 C 0.3193 0.0325 0.20581 0.0
C274 C 0.34662 0.99214 0.22265 0.0
C275 C 0.34012 0.97286 0.33568 0.0
H276 H 0.40485 0.92935 0.31107 0.0
C277 C 0.36928 0.88431 0.44522 0.0
C278 C 0.37161 0.85954 0.42291 0.0
C279 C 0.37124 0.90931 0.42351 0.0
C280 C 0.38688 0.94153 0.31852 0.0
H281 H 0.30729 0.05692 0.26039 0.0
H282 H 0.32974 0.02757 0.31265 0.0
H283 H 0.3919 0.96673 0.26316 0.0
H284 H 0.37836 0.84095 0.36128 0.0
H285 H 0.38205 0.88442 0.32325 0.0
H286 H 0.33456 0.94724 0.39018 0.0
C287 C 0.33106 0.02204 0.27931 0.0
C288 C 0.37935 0.96282 0.29098 0.0
C289 C 0.31822 0.0389 0.24937 0.0
C290 C 0.37729 0.85992 0.37919 0.0
C291 C 0.37937 0.88483 0.35749 0.0
C292 C 0.34774 0.95177 0.36328 0.0
C293 C 0.34491 0.9981 0.26644 0.0
C294 C 0.35539 0.97821 0.29856 0.0
C295 C 0.37524 0.90977 0.37911 0.0
C296 C 0.37072 0.93533 0.35436 0.0
H297 H 0.33495 1.00348 0.15937 0.0
H298 H 0.35665 0.97365 0.21154 0.0
H299 H 0.32133 0.98391 0.34233 0.0
H300 H 0.36457 0.8843 0.47895 0.0
H301 H 0.3682 0.92822 0.44104 0.0
C302 C 0.05096 0.65737 0.7484 0.0
C303 C 0.04537 0.66397 0.79108 0.0
C304 C 0.03055 0.64619 0.72242 0.0
C305 C 0.95946 0.61717 0.72322 0.0
H306 H 0.95443 0.65374 0.61381 0.0
C307 C 0.85819 0.63875 0.63699 0.0
C308 C 0.85748 0.63799 0.59242 0.0
C309 C 0.88264 0.63362 0.65863 0.0
C310 C 0.95578 0.64281 0.64378 0.0
H311 H 0.01401 0.6634 0.84022 0.0
H312 H 0.97841 0.64443 0.79493 0.0
H313 H 0.99517 0.65986 0.65715 0.0
H314 H 0.88106 0.63087 0.53513 0.0
H315 H 0.92426 0.62207 0.57301 0.0
H316 H 0.9192 0.6014 0.71048 0.0
C317 C 0.99874 0.64717 0.78164 0.0
C318 C 0.97921 0.6463 0.66873 0.0
C319 C 0.01922 0.65813 0.80772 0.0
C320 C 0.88131 0.63142 0.56963 0.0
C321 C 0.9059 0.62647 0.59126 0.0
C322 C 0.93591 0.61382 0.69831 0.0
C323 C 0.00394 0.6417 0.73838 0.0
C324 C 0.98102 0.6342 0.70932 0.0
C325 C 0.90692 0.62808 0.63598 0.0
C326 C 0.93352 0.62728 0.65889 0.0
H327 H 0.071 0.6614 0.73479 0.0
H328 H 0.03542 0.64176 0.68947 0.0
H329 H 0.9604 0.6071 0.75393 0.0
H330 H 0.83992 0.64388 0.65502 0.0
H331 H 0.88281 0.63538 0.69302 0.0
C332 C 0.63396 0.12436 0.42758 0.0
C333 C 0.63037 0.1507 0.41068 0.0
C334 C 0.62919 0.10125 0.4022 0.0
C335 C 0.63293 0.08408 0.2888 0.0
H336 H 0.61492 0.01087 0.32844 0.0
C337 C 0.65325 0.99177 0.18198 0.0
C338 C 0.66864 0.97081 0.20154 0.0
C339 C 0.63985 0.01154 0.20653 0.0
C340 C 0.61988 0.03124 0.31691 0.0
H341 H 0.61844 0.17404 0.35518 0.0
H342 H 0.60835 0.13391 0.31158 0.0
H343 H 0.60574 0.05048 0.37431 0.0
H344 H 0.68059 0.95351 0.26246 0.0
H345 H 0.65784 0.98847 0.30514 0.0
H346 H 0.64792 0.06508 0.23227 0.0
C347 C 0.61532 0.13081 0.34397 0.0
C348 C 0.61467 0.05389 0.34316 0.0
C349 C 0.62065 0.1538 0.36905 0.0
C350 C 0.66913 0.96945 0.24628 0.0
C351 C 0.65579 0.98931 0.27083 0.0
C352 C 0.63796 0.06157 0.26264 0.0
C353 C 0.62079 0.10427 0.35952 0.0
C354 C 0.62182 0.08053 0.3298 0.0
C355 C 0.64171 0.01104 0.25118 0.0
C356 C 0.63218 0.03483 0.27675 0.0
H357 H 0.64185 0.1217 0.45956 0.0
H358 H 0.63391 0.08121 0.41515 0.0
H359 H 0.63931 0.10413 0.27764 0.0
H360 H 0.65257 0.99396 0.14772 0.0
H361 H 0.62892 0.02789 0.19047 0.0
C362 C 0.98824 0.35222 0.80755 0.0
C363 C 0.96209 0.34596 0.79132 0.0
C364 C 0.00824 0.36399 0.78136 0.0
C365 C 0.02701 0.3659 0.6684 0.0
H366 H 0.08624 0.412 0.70943 0.0
C367 C 0.12469 0.37977 0.5691 0.0
C368 C 0.1485 0.37389 0.5923 0.0
C369 C 0.10009 0.38538 0.59042 0.0
C370 C 0.06975 0.39925 0.69743 0.0
H371 H 0.93594 0.34871 0.73568 0.0
H372 H 0.97072 0.36963 0.69015 0.0
H373 H 0.04531 0.40547 0.75335 0.0
H374 H 0.16607 0.37004 0.65522 0.0
H375 H 0.12324 0.3796 0.69265 0.0
H376 H 0.05177 0.35873 0.61339 0.0
C377 C 0.97594 0.36496 0.72288 0.0
C378 C 0.04635 0.39545 0.7226 0.0
C379 C 0.95599 0.35302 0.74898 0.0
C380 C 0.14783 0.37469 0.63687 0.0
C381 C 0.12337 0.38041 0.65818 0.0
C382 C 0.05031 0.36977 0.64324 0.0
C383 C 1.00256 0.36983 0.73839 0.0
C384 C 0.02511 0.37796 0.70899 0.0
C385 C 0.09903 0.38501 0.63523 0.0
C386 C 0.07235 0.38571 0.65809 0.0
H387 H 0.99386 0.34664 0.83975 0.0
H388 H 0.02863 0.36703 0.79425 0.0
H389 H 0.01127 0.35202 0.65705 0.0
H390 H 0.12491 0.3791 0.53462 0.0
H391 H 0.08173 0.38912 0.57189 0.0
C392 C 0.81983 0.5359 0.75503 0.0
C393 C 0.83417 0.54583 0.71937 0.0
C394 C 0.83129 0.51587 0.78119 0.0
C395 C 0.88078 0.45943 0.77896 0.0
H396 H 0.86193 0.45639 0.89886 0.0
C397 C 0.86441 0.35853 0.86742 0.0
C398 C 0.86914 0.35688 0.91133 0.0
C399 C 0.86894 0.38306 0.84565 0.0
C400 C 0.86801 0.45703 0.86571 0.0
H401 H 0.87285 0.54354 0.68499 0.0
H402 H 0.89276 0.50821 0.73067 0.0
H403 H 0.85393 0.49836 0.85902 0.0
H404 H 0.88236 0.37907 0.96725 0.0
H405 H 0.89093 0.42217 0.92911 0.0
H406 H 0.89461 0.41795 0.78561 0.0
C407 C 0.87234 0.51571 0.73775 0.0
C408 C 0.86305 0.48103 0.84268 0.0
C409 C 0.86082 0.53585 0.71141 0.0
C410 C 0.87905 0.3799 0.93316 0.0
C411 C 0.88368 0.40454 0.91138 0.0
C412 C 0.88594 0.43545 0.80209 0.0
C413 C 0.85756 0.50528 0.77269 0.0
C414 C 0.86821 0.4821 0.79865 0.0
C415 C 0.87809 0.40658 0.86748 0.0
C416 C 0.87847 0.43357 0.8453 0.0
H417 H 0.79925 0.54297 0.76212 0.0
H418 H 0.81905 0.50796 0.80726 0.0
H419 H 0.88507 0.45955 0.74512 0.0
H420 H 0.85662 0.34095 0.85007 0.0
H421 H 0.8639 0.38389 0.8121 0.0
C422 C 0.51635 0.15187 0.32026 0.0
C423 C 0.53489 0.17113 0.3031 0.0
C424 C 0.49817 0.13768 0.29383 0.0
C425 C 0.48016 0.1239 0.18005 0.0
H426 H 0.40575 0.12758 0.22333 0.0
C427 C 0.38485 0.13971 0.07623 0.0
C428 C 0.35964 0.12907 0.08989 0.0
C429 C 0.40866 0.13473 0.09973 0.0
C430 C 0.4264 0.12564 0.21092 0.0
H431 H 0.54959 0.18931 0.24421 0.0
H432 H 0.51733 0.16537 0.1986 0.0
H433 H 0.44371 0.13756 0.27042 0.0
H434 H 0.33913 0.10537 0.13846 0.0
H435 H 0.38076 0.09563 0.17893 0.0
H436 H 0.46239 0.11342 0.11971 0.0
C437 C 0.51719 0.1608 0.23235 0.0
C438 C 0.44828 0.13141 0.23805 0.0
C439 C 0.53549 0.17485 0.25869 0.0
C440 C 0.35859 0.11262 0.1264 0.0
C441 C 0.38235 0.10754 0.14989 0.0
C442 C 0.45819 0.11818 0.15278 0.0
C443 C 0.49781 0.14258 0.24971 0.0
C444 C 0.47537 0.1315 0.22265 0.0
C445 C 0.40747 0.11943 0.13771 0.0
C446 C 0.43102 0.11987 0.16765 0.0
H447 H 0.51479 0.14851 0.3542 0.0
H448 H 0.48372 0.12353 0.3082 0.0
H449 H 0.50084 0.1233 0.16739 0.0
H450 H 0.3859 0.15285 0.04842 0.0
H451 H 0.42756 0.14453 0.08976 0.0
C452 C 0.16379 0.45692 0.75643 0.0
C453 C 0.16918 0.46337 0.71363 0.0
C454 C 0.15171 0.47626 0.78343 0.0
C455 C 0.1184 0.54551 0.78535 0.0
H456 H 0.15694 0.55225 0.89282 0.0
C457 C 0.1402 0.64751 0.86835 0.0
C458 C 0.13978 0.6488 0.91289 0.0
C459 C 0.13488 0.62278 0.84759 0.0
C460 C 0.14546 0.55035 0.86344 0.0
H461 H 0.16559 0.49508 0.66537 0.0
H462 H 0.14517 0.52886 0.71238 0.0
H463 H 0.16394 0.51176 0.84913 0.0
H464 H 0.13341 0.62592 0.97106 0.0
H465 H 0.12444 0.58215 0.93468 0.0
H466 H 0.10139 0.58517 0.79877 0.0
C467 C 0.14946 0.50863 0.72502 0.0
C468 C 0.14944 0.52707 0.8383 0.0
C469 C 0.16129 0.48921 0.69796 0.0
C470 C 0.13354 0.62523 0.93657 0.0
C471 C 0.1285 0.60033 0.91582 0.0
C472 C 0.11461 0.56893 0.81037 0.0
C473 C 0.14511 0.50264 0.76834 0.0
C474 C 0.13672 0.52479 0.79824 0.0
C475 C 0.12962 0.59879 0.87111 0.0
C476 C 0.12885 0.57197 0.84897 0.0
H477 H 0.16942 0.43706 0.76928 0.0
H478 H 0.14822 0.47078 0.81642 0.0
H479 H 0.1078 0.54414 0.75513 0.0
H480 H 0.14518 0.66553 0.84964 0.0
H481 H 0.13632 0.62216 0.81317 0.0
C482 C 0.4886 0.85056 0.31417 0.0
C483 C 0.46621 0.83692 0.29526 0.0
C484 C 0.50909 0.86236 0.28907 0.0
C485 C 0.52895 0.88157 0.17848 0.0
H486 H 0.60121 0.85987 0.21744 0.0
C487 C 0.62399 0.86995 0.06936 0.0
C488 C 0.64994 0.874 0.08745 0.0
C489 C 0.60034 0.87347 0.09409 0.0
C490 C 0.58133 0.86679 0.20638 0.0
H491 H 0.44747 0.82632 0.23475 0.0
H492 H 0.48373 0.84619 0.19112 0.0
H493 H 0.56178 0.85135 0.26218 0.0
H494 H 0.67191 0.88503 0.14467 0.0
H495 H 0.63087 0.89307 0.18708 0.0
H496 H 0.54881 0.89623 0.12181 0.0
C497 C 0.48509 0.84814 0.22541 0.0
C498 C 0.55862 0.86182 0.23215 0.0
C499 C 0.46444 0.83646 0.25052 0.0
C500 C 0.65203 0.88279 0.12973 0.0
C501 C 0.62851 0.88684 0.15418 0.0
C502 C 0.55184 0.88664 0.15257 0.0
C503 C 0.50802 0.86055 0.24446 0.0
C504 C 0.53211 0.86875 0.21834 0.0
C505 C 0.60242 0.881 0.13728 0.0
C506 C 0.57826 0.87891 0.16603 0.0
H507 H 0.49129 0.85114 0.34831 0.0
H508 H 0.52635 0.87209 0.30473 0.0
H509 H 0.50879 0.88735 0.16712 0.0
H510 H 0.6221 0.86265 0.03691 0.0
H511 H 0.58063 0.86852 0.08016 0.0
C512 C 0.42362 0.07571 0.00527 0.0
C513 C 0.40176 0.06429 0.02856 0.0
C514 C 0.44979 0.06391 0.00678 0.0
C515 C 0.48546 0.99868 0.0285 0.0
H516 H 0.55 0.0448 0.03782 0.0
C517 C 0.59543 0.95359 0.04651 0.0
C518 C 0.61705 0.96774 0.02649 0.0
C519 C 0.56892 0.96481 0.04753 0.0
C520 C 0.53226 0.03157 0.03458 0.0
H521 H 0.39046 0.03167 0.07226 0.0
H522 H 0.4361 0.01096 0.07454 0.0
H523 H 0.50459 0.06566 0.03858 0.0
H524 H 0.62754 0.00435 0.99071 0.0
H525 H 0.58145 0.02341 0.99131 0.0
H526 H 0.51308 0.96461 0.02374 0.0
C527 C 0.43292 0.02896 0.0549 0.0
C528 C 0.50618 0.04359 0.03517 0.0
C529 C 0.40679 0.04092 0.05374 0.0
C530 C 0.61142 0.99298 0.00667 0.0
C531 C 0.58496 0.00405 0.00736 0.0
C532 C 0.51158 0.98665 0.02757 0.0
C533 C 0.45472 0.04026 0.03134 0.0
C534 C 0.48245 0.02732 0.03192 0.0
C535 C 0.56337 0.99036 0.02829 0.0
C536 C 0.53539 1.00295 0.03032 0.0
H537 H 0.42052 0.09377 0.98574 0.0
H538 H 0.46609 0.07302 0.98801 0.0
H539 H 0.4676 0.98558 0.02549 0.0
H540 H 0.59912 0.93421 0.06241 0.0
H541 H 0.55297 0.95374 0.06435 0.0
C542 C 0.95702 0.41127 0.95503 0.0
C543 C 0.95795 0.39425 0.99121 0.0
C544 C 0.96932 0.43725 0.95541 0.0
C545 C 0.02117 0.47887 0.01447 0.0
H546 H 0.98888 0.53912 0.9513 0.0
C547 C 0.05929 0.5916 0.02836 0.0
C548 C 0.06153 0.6067 0.99032 0.0
C549 C 0.04713 0.56552 0.02856 0.0
C550 C 0.99829 0.52244 0.9688 0.0
H551 H 0.97207 0.39159 0.0565 0.0
H552 H 0.99287 0.43712 0.05761 0.0
H553 H 0.966 0.49462 0.95238 0.0
H554 H 0.05311 0.60586 0.92246 0.0
H555 H 0.03174 0.56054 0.92298 0.0
H556 H 0.05322 0.50701 0.03141 0.0
C557 C 0.98322 0.43017 0.0285 0.0
C558 C 0.9852 0.49683 0.96937 0.0
C559 C 0.97108 0.40408 0.02801 0.0
C560 C 0.0516 0.59492 0.95242 0.0
C561 C 0.03922 0.56897 0.95271 0.0
C562 C 0.03412 0.50456 0.01421 0.0
C563 C 0.98275 0.44707 0.99207 0.0
C564 C 0.99648 0.4746 0.99209 0.0
C565 C 0.03669 0.554 0.99082 0.0
C566 C 0.0229 0.52664 0.99125 0.0
H567 H 0.94727 0.40431 0.92598 0.0
H568 H 0.96881 0.44935 0.92649 0.0
H569 H 0.03084 0.46222 0.03167 0.0
H570 H 0.06677 0.6 0.0581 0.0
H571 H 0.04536 0.55461 0.0585 0.0
C572 C 0.91213 0.55166 0.55729 0.0
C573 C 0.89829 0.55678 0.51878 0.0
C574 C 0.93826 0.53966 0.55731 0.0
C575 C 0.99925 0.52749 0.48974 0.0
H576 H 0.01403 0.46809 0.56865 0.0
C577 C 0.09857 0.46286 0.47796 0.0
C578 C 0.11117 0.45443 0.51602 0.0
C579 C 0.07253 0.47504 0.47846 0.0
C580 C 0.01046 0.48489 0.54676 0.0
H581 H 0.90147 0.55382 0.45004 0.0
H582 H 0.94706 0.53307 0.4501 0.0
H583 H 0.96945 0.4908 0.56976 0.0
H584 H 0.10598 0.45197 0.58457 0.0
H585 H 0.06098 0.47364 0.58556 0.0
H586 H 0.04029 0.52196 0.46707 0.0
C587 C 0.93769 0.53834 0.4803 0.0
C588 C 0.98482 0.49789 0.54738 0.0
C589 C 0.91148 0.55013 0.48029 0.0
C590 C 0.09691 0.45817 0.55458 0.0
C591 C 0.07094 0.47049 0.55512 0.0
C592 C 0.02496 0.51465 0.48933 0.0
C593 C 0.95132 0.53271 0.51881 0.0
C594 C 0.97884 0.51928 0.51877 0.0
C595 C 0.05841 0.47928 0.51708 0.0
C596 C 0.03094 0.49306 0.5177 0.0
H597 H 0.90267 0.55664 0.58756 0.0
H598 H 0.94831 0.53594 0.58751 0.0
H599 H 0.99547 0.54414 0.46766 0.0
H600 H 0.10885 0.46014 0.44766 0.0
H601 H 0.06341 0.48099 0.44842 0.0
C602 C 0.55226 0.09447 0.4592 0.0
C603 C 0.54718 0.11268 0.4931 0.0
C604 C 0.54032 0.06827 0.45867 0.0
C605 C 0.48239 0.02872 0.50621 0.0
H606 H 0.52163 0.96561 0.46213 0.0
C607 C 0.44137 0.91754 0.52433 0.0
C608 C 0.44438 0.89978 0.48935 0.0
C609 C 0.45385 0.94348 0.52435 0.0
C610 C 0.51026 0.98308 0.47416 0.0
H611 H 0.52619 0.11716 0.55363 0.0
H612 H 0.50594 0.07149 0.55316 0.0
H613 H 0.54403 0.01041 0.4634 0.0
H614 H 0.46264 0.89567 0.42659 0.0
H615 H 0.48429 0.94081 0.42666 0.0
H616 H 0.44871 1.00133 0.51724 0.0
C617 C 0.5186 0.0776 0.52642 0.0
C618 C 0.52312 0.00883 0.47485 0.0
C619 C 0.53043 0.10379 0.52687 0.0
C620 C 0.45999 0.90871 0.45423 0.0
C621 C 0.47256 0.93458 0.45434 0.0
C622 C 0.4696 1.00298 0.50568 0.0
C623 C 0.52306 0.05956 0.49209 0.0
C624 C 0.5094 0.03203 0.491 0.0
C625 C 0.46973 0.95229 0.48944 0.0
C626 C 0.48336 0.97978 0.48971 0.0
H627 H 0.56499 0.10066 0.43256 0.0
H628 H 0.54408 0.05512 0.43149 0.0
H629 H 0.4709 0.04614 0.51806 0.0
H630 H 0.42949 0.91138 0.5519 0.0
H631 H 0.45143 0.95646 0.55209 0.0
C632 C 0.22231 0.29305 0.57315 0.0
C633 C 0.23013 0.32081 0.57376 0.0
C634 C 0.23344 0.27449 0.60233 0.0
C635 C 0.28529 0.25709 0.67988 0.0
H636 H 0.22457 0.23833 0.75447 0.0
C637 C 0.30393 0.1988 0.83774 0.0
C638 C 0.28377 0.18049 0.85243 0.0
C639 C 0.29867 0.21639 0.80349 0.0
C640 C 0.24178 0.24278 0.73379 0.0
H641 H 0.25753 0.3503 0.60286 0.0
H642 H 0.2782 0.31738 0.65239 0.0
H643 H 0.21631 0.2656 0.69088 0.0
H644 H 0.24226 0.1661 0.84273 0.0
H645 H 0.23325 0.19579 0.78176 0.0
H646 H 0.31071 0.23343 0.72142 0.0
C647 C 0.26327 0.31013 0.62946 0.0
C648 C 0.23701 0.25862 0.6974 0.0
C649 C 0.2518 0.32888 0.60053 0.0
C650 C 0.25801 0.18037 0.83253 0.0
C651 C 0.25292 0.19752 0.7975 0.0
C652 C 0.29003 0.24065 0.71585 0.0
C653 C 0.25293 0.28323 0.63225 0.0
C654 C 0.25867 0.26594 0.67013 0.0
C655 C 0.27329 0.21565 0.78207 0.0
C656 C 0.26834 0.23327 0.74354 0.0
H657 H 0.20532 0.2864 0.55342 0.0
H658 H 0.22525 0.25382 0.60373 0.0
H659 H 0.30231 0.26248 0.65929 0.0
H660 H 0.32398 0.19936 0.85263 0.0
H661 H 0.3147 0.23045 0.79378 0.0
C662 C 0.18265 0.74833 0.17372 0.0
C663 C 0.18139 0.72204 0.15559 0.0
C664 C 0.19987 0.75348 0.20862 0.0
C665 C 0.24032 0.71652 0.29347 0.0
H666 H 0.26942 0.7894 0.31355 0.0
C667 C 0.3297 0.75571 0.4072 0.0
C668 C 0.32092 0.77652 0.4351 0.0
C669 C 0.3114 0.74422 0.37763 0.0
C670 C 0.26133 0.76896 0.30832 0.0
H671 H 0.19788 0.68084 0.15853 0.0
H672 H 0.22908 0.69008 0.21723 0.0
H673 H 0.24212 0.78076 0.25007 0.0
H674 H 0.28577 0.80005 0.45609 0.0
H675 H 0.25399 0.7802 0.40437 0.0
H676 H 0.26099 0.70481 0.3513 0.0
C677 C 0.21604 0.70658 0.20618 0.0
C678 C 0.24544 0.76397 0.27204 0.0
C679 C 0.19837 0.70131 0.17203 0.0
C680 C 0.29298 0.78368 0.43557 0.0
C681 C 0.27486 0.77257 0.40567 0.0
C682 C 0.25678 0.72144 0.32934 0.0
C683 C 0.2167 0.7326 0.22573 0.0
C684 C 0.23441 0.73772 0.26409 0.0
C685 C 0.28422 0.75372 0.3752 0.0
C686 C 0.26714 0.74778 0.33724 0.0
H687 H 0.16942 0.76458 0.16218 0.0
H688 H 0.19921 0.77368 0.22292 0.0
H689 H 0.23191 0.69614 0.28931 0.0
H690 H 0.35126 0.75065 0.40474 0.0
H691 H 0.31913 0.72987 0.35415 0.0
C692 C 0.75414 0.67461 0.60394 0.0
C693 C 0.7724 0.68448 0.57283 0.0
C694 C 0.74241 0.69259 0.63362 0.0
C695 C 0.73032 0.76482 0.66364 0.0
H696 H 0.75661 0.74291 0.77515 0.0
C697 C 0.73551 0.84305 0.8007 0.0
C698 C 0.73124 0.83429 0.84277 0.0
C699 C 0.73815 0.82407 0.76758 0.0
C700 C 0.74854 0.74927 0.7446 0.0
H701 H 0.79035 0.72108 0.54559 0.0
H702 H 0.76865 0.75269 0.59578 0.0
H703 H 0.76057 0.71137 0.71533 0.0
H704 H 0.7264 0.79868 0.88328 0.0
H705 H 0.73003 0.76533 0.82535 0.0
H706 H 0.71782 0.80247 0.69257 0.0
C707 C 0.76371 0.73104 0.59773 0.0
C708 C 0.75086 0.7311 0.71021 0.0
C709 C 0.77588 0.71297 0.56861 0.0
C710 C 0.73015 0.806 0.85122 0.0
C711 C 0.73221 0.78691 0.81784 0.0
C712 C 0.72748 0.78281 0.69818 0.0
C713 C 0.74828 0.72083 0.63211 0.0
C714 C 0.74221 0.73884 0.66922 0.0
C715 C 0.73586 0.79568 0.77532 0.0
C716 C 0.73713 0.7756 0.73909 0.0
H717 H 0.75153 0.65279 0.60867 0.0
H718 H 0.73038 0.6842 0.65957 0.0
H719 H 0.72341 0.77129 0.63243 0.0
H720 H 0.73653 0.86476 0.79329 0.0
H721 H 0.74186 0.83184 0.73579 0.0
C722 C 0.82688 0.26018 0.17599 0.0
C723 C 0.82857 0.28658 0.15827 0.0
C724 C 0.80947 0.25501 0.21072 0.0
C725 C 0.76864 0.29166 0.29574 0.0
H726 H 0.73864 0.21888 0.31337 0.0
C727 C 0.67816 0.25332 0.40817 0.0
C728 C 0.68557 0.23052 0.43311 0.0
C729 C 0.69719 0.26505 0.37981 0.0
C730 C 0.74699 0.2393 0.30887 0.0
H731 H 0.81267 0.328 0.16197 0.0
H732 H 0.7812 0.31877 0.2204 0.0
H733 H 0.7666 0.22792 0.25073 0.0
H734 H 0.71919 0.20397 0.45111 0.0
H735 H 0.75222 0.22436 0.40192 0.0
H736 H 0.74754 0.30297 0.35346 0.0
C737 C 0.79403 0.30217 0.20911 0.0
C738 C 0.76327 0.2445 0.27305 0.0
C739 C 0.81189 0.30745 0.17512 0.0
C740 C 0.71305 0.22178 0.43276 0.0
C741 C 0.73187 0.2332 0.40421 0.0
C742 C 0.75178 0.28653 0.33117 0.0
C743 C 0.79284 0.27598 0.22809 0.0
C744 C 0.77467 0.2707 0.26598 0.0
C745 C 0.7237 0.25391 0.37588 0.0
C746 C 0.7411 0.2602 0.33827 0.0
H747 H 0.83985 0.2438 0.16419 0.0
H748 H 0.80976 0.23469 0.2246 0.0
H749 H 0.77729 0.312 0.29224 0.0
H750 H 0.65695 0.25992 0.40673 0.0
H751 H 0.6904 0.28096 0.35814 0.0
C752 C 0.76046 0.68098 0.32889 0.0
C753 C 0.78671 0.67996 0.34718 0.0
C754 C 0.75523 0.69822 0.294 0.0
C755 C 0.79184 0.73965 0.20962 0.0
H756 H 0.71861 0.76778 0.18979 0.0
C757 C 0.75313 0.82873 0.09523 0.0
C758 C 0.73096 0.8207 0.0694 0.0
C759 C 0.76472 0.81011 0.1243 0.0
C760 C 0.73916 0.75995 0.19491 0.0
H761 H 0.82774 0.6969 0.34441 0.0
H762 H 0.81836 0.72808 0.28571 0.0
H763 H 0.72757 0.74028 0.25292 0.0
H764 H 0.70539 0.78641 0.05085 0.0
H765 H 0.7255 0.75411 0.10142 0.0
H766 H 0.80332 0.76081 0.15204 0.0
C767 C 0.80196 0.71485 0.29666 0.0
C768 C 0.74433 0.74394 0.23101 0.0
C769 C 0.80732 0.69717 0.3308 0.0
C770 C 0.7227 0.79305 0.0699 0.0
C771 C 0.73396 0.77464 0.0992 0.0
C772 C 0.78674 0.75625 0.17392 0.0
C773 C 0.77597 0.71533 0.27704 0.0
C774 C 0.77069 0.73322 0.23887 0.0
C775 C 0.75405 0.78339 0.12814 0.0
C776 C 0.76026 0.76625 0.16603 0.0
H777 H 0.7443 0.6676 0.34034 0.0
H778 H 0.73508 0.69739 0.27964 0.0
H779 H 0.81232 0.73151 0.21372 0.0
H780 H 0.75932 0.85007 0.09661 0.0
H781 H 0.78015 0.81734 0.14645 0.0
C782 C 0.83268 0.25371 0.90133 0.0
C783 C 0.82333 0.2716 0.93326 0.0
C784 C 0.8142 0.24208 0.87227 0.0
C785 C 0.74779 0.26178 0.82507 0.0
H786 H 0.75653 0.19499 0.75955 0.0
C787 C 0.69067 0.24588 0.66524 0.0
C788 C 0.67933 0.21971 0.65797 0.0
C789 C 0.70888 0.25024 0.69924 0.0
C790 C 0.75364 0.21368 0.77766 0.0
H791 H 0.78721 0.28898 0.96272 0.0
H792 H 0.75479 0.26755 0.91379 0.0
H793 H 0.78477 0.20244 0.82268 0.0
H794 H 0.67914 0.17753 0.68046 0.0
H795 H 0.71023 0.18525 0.73945 0.0
H796 H 0.71649 0.27292 0.78057 0.0
C797 C 0.77644 0.26313 0.91009 0.0
C798 C 0.77 0.21802 0.81379 0.0
C799 C 0.79495 0.27491 0.93884 0.0
C800 C 0.68727 0.19802 0.68499 0.0
C801 C 0.70539 0.20237 0.71879 0.0
C802 C 0.73146 0.25744 0.78907 0.0
C803 C 0.78597 0.24812 0.87473 0.0
C804 C 0.76732 0.24216 0.83803 0.0
C805 C 0.71621 0.22859 0.72681 0.0
C806 C 0.73418 0.23339 0.76472 0.0
H807 H 0.85446 0.25149 0.89538 0.0
H808 H 0.82241 0.23065 0.84559 0.0
H809 H 0.74546 0.28093 0.84221 0.0
H810 H 0.68492 0.26322 0.64566 0.0
H811 H 0.71706 0.27067 0.70408 0.0
C812 C 0.20222 0.3095 0.33249 0.0
C813 C 0.22295 0.3262 0.34968 0.0
C814 C 0.20773 0.29182 0.29842 0.0
C815 C 0.26568 0.26169 0.23465 0.0
H816 H 0.20767 0.24677 0.15319 0.0
C817 C 0.28918 0.21214 0.07476 0.0
C818 C 0.27965 0.18492 0.07338 0.0
C819 C 0.27798 0.23091 0.10355 0.0
C820 C 0.22398 0.25079 0.17577 0.0
H821 H 0.2657 0.33766 0.34445 0.0
H822 H 0.27523 0.30786 0.28387 0.0
H823 H 0.19835 0.27598 0.21486 0.0
H824 H 0.24916 0.1568 0.09822 0.0
H825 H 0.22856 0.1902 0.14719 0.0
H826 H 0.29148 0.23738 0.19421 0.0
C827 C 0.25485 0.30743 0.29753 0.0
C828 C 0.21868 0.26733 0.21145 0.0
C829 C 0.24945 0.32466 0.33234 0.0
C830 C 0.25641 0.17781 0.0976 0.0
C831 C 0.24491 0.19681 0.12616 0.0
C832 C 0.27106 0.24573 0.19859 0.0
C833 C 0.234 0.29085 0.27972 0.0
C834 C 0.23947 0.27304 0.24159 0.0
C835 C 0.25673 0.22296 0.13107 0.0
C836 C 0.25032 0.24015 0.16881 0.0
H837 H 0.1816 0.3102 0.34537 0.0
H838 H 0.19123 0.27899 0.28677 0.0
H839 H 0.28213 0.2648 0.25727 0.0
H840 H 0.30726 0.21808 0.05685 0.0
H841 H 0.28731 0.25102 0.10657 0.0
C842 C 0.17508 0.75286 0.89806 0.0
C843 C 0.18532 0.73486 0.92919 0.0
C844 C 0.19285 0.76497 0.86836 0.0
C845 C 0.26497 0.77867 0.83898 0.0
H846 H 0.24421 0.75215 0.72708 0.0
C847 C 0.3444 0.77354 0.70351 0.0
C848 C 0.33606 0.77751 0.66117 0.0
C849 C 0.32512 0.77115 0.73627 0.0
C850 C 0.25024 0.76029 0.75775 0.0
H851 H 0.22224 0.71765 0.95639 0.0
H852 H 0.25342 0.74004 0.90626 0.0
H853 H 0.21232 0.74766 0.78643 0.0
H854 H 0.30082 0.78213 0.61989 0.0
H855 H 0.26695 0.77889 0.67719 0.0
H856 H 0.30266 0.7917 0.81065 0.0
C857 C 0.23168 0.7445 0.90427 0.0
C858 C 0.23187 0.75768 0.79187 0.0
C859 C 0.21386 0.73193 0.93335 0.0
C860 C 0.30785 0.77863 0.65215 0.0
C861 C 0.28845 0.77679 0.68517 0.0
C862 C 0.28316 0.78179 0.80472 0.0
C863 C 0.22121 0.75975 0.86994 0.0
C864 C 0.23923 0.76635 0.83302 0.0
C865 C 0.29681 0.77334 0.7279 0.0
C866 C 0.27639 0.77202 0.7637 0.0
H867 H 0.15319 0.75505 0.89348 0.0
H868 H 0.18424 0.77684 0.84244 0.0
H869 H 0.27115 0.78563 0.8703 0.0
H870 H 0.36602 0.77244 0.71141 0.0
H871 H 0.33257 0.7676 0.76825 0.0
C872 C 0.26947 0.01547 0.97747 0.0
C873 C 0.25409 0.03827 0.99108 0.0
C874 C 0.25715 0.98976 0.97249 0.0
C875 C 0.23182 0.93473 0.99253 0.0
H876 H 0.15722 0.92529 0.95253 0.0
C877 C 0.1755 0.8304 0.00562 0.0
C878 C 0.15736 0.82293 0.97282 0.0
C879 C 0.18718 0.85668 0.00671 0.0
C880 C 0.1782 0.92746 0.96337 0.0
H881 H 0.21337 0.05197 0.00895 0.0
H882 H 0.19187 0.00691 1.00105 0.0
H883 H 0.17742 0.97106 0.95423 0.0
H884 H 0.13786 0.83711 0.9148 0.0
H885 H 0.15871 0.88257 0.91606 0.0
H886 H 0.23296 0.89115 1.00054 0.0
C887 C 0.21346 0.009 0.99357 0.0
C888 C 0.18967 0.95385 0.96489 0.0
C889 C 0.22579 0.03489 0.99817 0.0
C890 C 0.15159 0.84222 0.94072 0.0
C891 C 0.16341 0.86842 0.94163 0.0
C892 C 0.22042 0.90838 0.9908 0.0
C893 C 0.22911 0.98594 0.98144 0.0
C894 C 0.21668 0.95787 0.97946 0.0
C895 C 0.18122 0.87614 0.97482 0.0
C896 C 0.19342 0.90433 0.97627 0.0
H897 H 0.29126 0.01735 0.97127 0.0
H898 H 0.26977 0.97277 0.96197 0.0
H899 H 0.25249 0.93692 0.00466 0.0
H900 H 0.18029 0.81611 0.03099 0.0
H901 H 0.20046 0.86188 0.03313 0.0
C902 C 0.0368 0.77626 0.01752 0.0
C903 C 0.0391 0.75042 0.99777 0.0
C904 C 0.01099 0.78855 0.0232 0.0
C905 C 0.94031 0.78705 0.98002 0.0
H906 H 0.92045 0.82381 0.08505 0.0
C907 C 0.82968 0.82514 0.00987 0.0
C908 C 0.82658 0.85083 0.02966 0.0
C909 C 0.85544 0.8124 0.00807 0.0
C910 C 0.92574 0.81388 0.05531 0.0
H911 H 0.01572 0.71715 0.96927 0.0
H912 H 0.97121 0.73842 0.9793 0.0
H913 H 0.96602 0.80345 0.07764 0.0
H914 H 0.84814 0.88299 0.06384 0.0
H915 H 0.89291 0.86108 0.06008 0.0
H916 H 0.90031 0.79764 0.95737 0.0
C917 C 0.98929 0.74939 0.98991 0.0
C918 C 0.9519 0.80221 0.05109 0.0
C919 C 0.01493 0.73711 0.9844 0.0
C920 C 0.84972 0.86317 0.0484 0.0
C921 C 0.87546 0.85051 0.04645 0.0
C922 C 0.91425 0.79878 0.98415 0.0
C923 C 0.98694 0.77535 0.00904 0.0
C924 C 0.95945 0.78852 0.01345 0.0
C925 C 0.87876 0.82508 0.02586 0.0
C926 C 0.90652 0.81228 0.0219 0.0
H927 H 0.05493 0.78712 0.02821 0.0
H928 H 0.00991 0.80865 0.03785 0.0
H929 H 0.94559 0.77708 0.95029 0.0
H930 H 0.81227 0.81496 0.99538 0.0
H931 H 0.85706 0.79259 0.99264 0.0
C932 C 0.74137 0.99199 0.98725 0.0
C933 C 0.75664 0.96885 0.9998 0.0
C934 C 0.75404 0.01751 0.98176 0.0
C935 C 0.81211 0.05837 0.01873 0.0
H936 H 0.79568 0.10482 0.92166 0.0
C937 C 0.8378 0.17477 0.01401 0.0
C938 C 0.85091 0.18432 0.97694 0.0
C939 C 0.82685 0.14817 0.01568 0.0
C940 C 0.80054 0.09206 0.94888 0.0
H941 H 0.79739 0.9544 0.01591 0.0
H942 H 0.81955 0.99932 0.00702 0.0
H943 H 0.77662 0.05838 0.92524 0.0
H944 H 0.86204 0.17367 0.91214 0.0
H945 H 0.84242 0.12751 0.91481 0.0
H946 H 0.83564 0.09225 0.04271 0.0
C947 C 0.79771 0.99752 1.00125 0.0
C948 C 0.78954 0.06552 0.95102 0.0
C949 C 0.78507 0.97178 0.00603 0.0
C950 C 0.85218 0.16692 0.94125 0.0
C951 C 0.84085 0.14051 0.9427 0.0
C952 C 0.82277 0.08508 0.0169 0.0
C953 C 0.78227 0.0207 0.98931 0.0
C954 C 0.79514 0.04838 0.986 0.0
C955 C 0.82834 0.13069 0.98008 0.0
C956 C 0.81707 0.10226 0.98199 0.0
H957 H 0.71945 0.99047 0.98203 0.0
H958 H 0.74155 0.03497 0.97284 0.0
H959 H 0.8166 0.04575 0.04626 0.0
H960 H 0.83651 0.18763 0.04209 0.0
H961 H 0.81708 0.1413 0.04479 0.0
C962 C 0.97255 0.22983 0.0181 0.0
C963 C 0.97022 0.25549 0.99782 0.0
C964 C 0.99836 0.21751 0.02367 0.0
C965 C 0.06913 0.21875 0.98 0.0
H966 H 0.08883 0.18218 0.08522 0.0
C967 C 0.17982 0.18092 0.01051 0.0
C968 C 0.18292 0.15522 0.0303 0.0
C969 C 0.15403 0.19359 0.0085 0.0
C970 C 0.0836 0.19206 0.05543 0.0
H971 H 0.99356 0.28844 0.96825 0.0
H972 H 0.03806 0.26715 0.97815 0.0
H973 H 0.04329 0.20253 0.07769 0.0
H974 H 0.16129 0.123 0.06429 0.0
H975 H 0.11647 0.14481 0.06025 0.0
H976 H 0.1092 0.20817 0.95748 0.0
C977 C 0.02001 0.25629 0.98921 0.0
C978 C 0.05743 0.20372 0.05113 0.0
C979 C 0.99437 0.26859 0.98376 0.0
C980 C 0.15972 0.14281 0.04884 0.0
C981 C 0.13395 0.15542 0.04673 0.0
C982 C 0.0952 0.20705 0.98424 0.0
C983 C 0.0224 0.23051 0.00891 0.0
C984 C 0.04991 0.21734 0.01341 0.0
C985 C 0.13066 0.18086 0.02614 0.0
C986 C 0.10288 0.19362 0.02205 0.0
H987 H 0.95445 0.21913 0.02933 0.0
H988 H 0.99944 0.19754 0.03875 0.0
H989 H 0.0639 0.22864 0.95019 0.0
H990 H 0.19727 0.19115 0.99614 0.0
H991 H 0.15242 0.2134 0.99305 0.0
C992 C 0.6436 0.34751 0.4598 0.0
C993 C 0.65621 0.32441 0.47823 0.0
C994 C 0.65627 0.37329 0.46112 0.0
C995 C 0.70907 0.41237 0.52087 0.0
H996 H 0.70283 0.46378 0.42702 0.0
C997 C 0.77065 0.51313 0.51747 0.0
C998 C 0.7571 0.53729 0.50463 0.0
C999 C 0.75836 0.48744 0.51234 0.0
C1000 C 0.70452 0.44977 0.45366 0.0
H1001 H 0.69253 0.31023 0.51141 0.0
H1002 H 0.7149 0.35509 0.51307 0.0
H1003 H 0.68229 0.41818 0.42104 0.0
H1004 H 0.72003 0.55302 0.4753 0.0
H1005 H 0.69849 0.50792 0.46633 0.0
H1006 H 0.73139 0.44385 0.5534 0.0
C1007 C 0.69489 0.35341 0.49835 0.0
C1008 C 0.69274 0.42358 0.45027 0.0
C1009 C 0.68214 0.32761 0.49718 0.0
C1010 C 0.73108 0.53491 0.48556 0.0
C1011 C 0.71877 0.50904 0.48029 0.0
C1012 C 0.72091 0.43845 0.52417 0.0
C1013 C 0.68199 0.37669 0.48075 0.0
C1014 C 0.69489 0.40449 0.48383 0.0
C1015 C 0.73215 0.48501 0.49416 0.0
C1016 C 0.71889 0.45748 0.49059 0.0
H1017 H 0.6236 0.34586 0.44501 0.0
H1018 H 0.6455 0.39069 0.4477 0.0
H1019 H 0.71066 0.39855 0.54776 0.0
H1020 H 0.79079 0.51396 0.53199 0.0
H1021 H 0.76951 0.46938 0.52263 0.0
C1022 C 0.33056 0.33108 0.50001 0.0
C1023 C 0.32323 0.34956 0.53244 0.0
C1024 C 0.35685 0.31944 0.49889 0.0
C1025 C 0.42777 0.32887 0.54203 0.0
H1026 H 0.43753 0.25483 0.49973 0.0
C1027 C 0.51598 0.23782 0.52597 0.0
C1028 C 0.53887 0.25348 0.51348 0.0
C1029 C 0.49027 0.25003 0.53125 0.0
C1030 C 0.43527 0.27543 0.5122 0.0
H1031 H 0.33759 0.36962 0.58989 0.0
H1032 H 0.38297 0.34872 0.58877 0.0
H1033 H 0.39174 0.27409 0.50416 0.0
H1034 H 0.55276 0.29452 0.49791 0.0
H1035 H 0.50763 0.31586 0.50606 0.0
H1036 H 0.47131 0.32979 0.55144 0.0
C1037 C 0.36879 0.34378 0.56338 0.0
C1038 C 0.40889 0.28669 0.51407 0.0
C1039 C 0.34261 0.35562 0.56424 0.0
C1040 C 0.53558 0.28191 0.50783 0.0
C1041 C 0.50965 0.29414 0.51258 0.0
C1042 C 0.45419 0.3175 0.54051 0.0
C1043 C 0.37644 0.32571 0.53045 0.0
C1044 C 0.40469 0.31362 0.52891 0.0
C1045 C 0.48649 0.27824 0.52355 0.0
C1046 C 0.45835 0.29058 0.52558 0.0
H1047 H 0.31621 0.32609 0.47485 0.0
H1048 H 0.36197 0.30597 0.47264 0.0
H1049 H 0.42554 0.34981 0.55308 0.0
H1050 H 0.51785 0.2159 0.53109 0.0
H1051 H 0.47325 0.23717 0.54099 0.0
C1052 C 0.2823 0.47016 0.50079 0.0
C1053 C 0.25355 0.46777 0.49973 0.0
C1054 C 0.29493 0.49579 0.49485 0.0
C1055 C 0.28514 0.56434 0.44851 0.0
H1056 H 0.33512 0.58997 0.53601 0.0
C1057 C 0.34981 0.66462 0.43573 0.0
C1058 C 0.34903 0.68206 0.47141 0.0
C1059 C 0.33802 0.63841 0.43739 0.0
C1060 C 0.32119 0.58307 0.51136 0.0
H1061 H 0.21562 0.49016 0.48984 0.0
H1062 H 0.23768 0.53454 0.47821 0.0
H1063 H 0.31592 0.54353 0.54045 0.0
H1064 H 0.33505 0.6857 0.53672 0.0
H1065 H 0.31497 0.63963 0.53987 0.0
H1066 H 0.29057 0.60382 0.41926 0.0
C1067 C 0.25043 0.51673 0.48416 0.0
C1068 C 0.31042 0.55644 0.51369 0.0
C1069 C 0.23781 0.49132 0.491 0.0
C1070 C 0.33591 0.67281 0.50865 0.0
C1071 C 0.3246 0.64638 0.51057 0.0
C1072 C 0.29634 0.59078 0.44573 0.0
C1073 C 0.27907 0.51936 0.48672 0.0
C1074 C 0.29205 0.54689 0.48253 0.0
C1075 C 0.32565 0.62885 0.47503 0.0
C1076 C 0.31424 0.60054 0.47739 0.0
H1077 H 0.29496 0.45243 0.50768 0.0
H1078 H 0.31707 0.49724 0.4968 0.0
H1079 H 0.27107 0.55751 0.42402 0.0
H1080 H 0.3597 0.67117 0.40653 0.0
H1081 H 0.33919 0.62533 0.40955 0.0
C1082 C 0.66697 0.65634 0.56258 0.0
C1083 C 0.68447 0.65676 0.52694 0.0
C1084 C 0.64062 0.66774 0.56037 0.0
C1085 C 0.58538 0.68383 0.48529 0.0
H1086 H 0.55932 0.73381 0.57253 0.0
C1087 C 0.47237 0.72271 0.49485 0.0
C1088 C 0.46975 0.7514 0.49789 0.0
C1089 C 0.49808 0.71013 0.50008 0.0
C1090 C 0.5663 0.71981 0.54801 0.0
H1091 H 0.68803 0.66962 0.46106 0.0
H1092 H 0.64178 0.68907 0.45701 0.0
H1093 H 0.60556 0.71441 0.57775 0.0
H1094 H 0.49192 0.78922 0.51023 0.0
H1095 H 0.53638 0.76723 0.52032 0.0
H1096 H 0.54606 0.68917 0.45564 0.0
C1097 C 0.64854 0.67998 0.48668 0.0
C1098 C 0.5927 0.70863 0.55109 0.0
C1099 C 0.67509 0.66902 0.48911 0.0
C1100 C 0.49321 0.76708 0.50748 0.0
C1101 C 0.51869 0.75449 0.5135 0.0
C1102 C 0.55879 0.69464 0.48261 0.0
C1103 C 0.63098 0.67939 0.52225 0.0
C1104 C 0.60266 0.69074 0.51953 0.0
C1105 C 0.52152 0.72593 0.50938 0.0
C1106 C 0.54906 0.71298 0.5137 0.0
H1107 H 0.67361 0.64713 0.59223 0.0
H1108 H 0.62754 0.6669 0.58825 0.0
H1109 H 0.59241 0.66991 0.46069 0.0
H1110 H 0.45474 0.71007 0.48735 0.0
H1111 H 0.49964 0.68804 0.49694 0.0
loop_
_geom_bond_atom_site_label_1
_geom_bond_atom_site_label_2
_geom_bond_distance
_geom_bond_site_symmetry_2
_ccdc_geom_bond_type
Zn0 N4 2.020 . S
Zn0 O8 2.019 . S
Zn0 N10 2.119 . S
Zn0 O18 1.975 . S
C1 N2 1.334 . S
C1 N5 1.336 . S
N2 C1 1.334 . S
N2 C3 1.334 . S
C3 N2 1.334 . S
C3 N4 1.336 . S
N4 Zn0 2.020 . S
N4 C3 1.336 . S
N4 N5 1.354 . S
N5 C1 1.336 . S
N5 N4 1.354 . S
N5 Zn9 2.020 . S
C6 O7 1.244 . S
C6 O30 1.257 . S
O7 C6 1.244 . S
O8 Zn0 2.019 . S
O8 C28 1.257 . S
Zn9 N5 2.020 . S
Zn9 O16 1.975 . S
Zn9 N25 2.119 1_554 S
Zn9 O30 2.019 . S
N10 Zn0 2.119 . S
N10 C12 1.334 . S
N10 C13 1.328 . S
C11 C12 1.391 . S
C11 N14 1.329 . S
C11 H32 0.930 . S
C12 N10 1.334 . S
C12 C11 1.391 . S
C12 H19 0.930 . S
C13 N10 1.328 . S
C13 C15 1.392 . S
C13 H20 0.930 . S
N14 C11 1.329 . S
N14 C15 1.331 . S
C15 C13 1.392 . S
C15 N14 1.331 . S
O16 Zn9 1.975 . S
O16 C17 1.252 . S
C17 O16 1.252 . S
C17 O18 1.252 . S
O18 Zn0 1.975 . S
O18 C17 1.252 . S
H19 C12 0.930 . S
H20 C13 0.930 . S
C21 C22 1.392 . S
C21 N25 1.328 . S
C21 H27 0.930 . S
C22 C21 1.392 . S
C22 N26 1.331 . S
C23 C24 1.391 . S
C23 N26 1.329 . S
C23 H33 0.930 . S
C24 C23 1.391 . S
C24 N25 1.334 . S
C24 H31 0.930 . S
N25 Zn9 2.119 1_556 S
N25 C21 1.328 . S
N25 C24 1.334 . S
N26 C22 1.331 . S
N26 C23 1.329 . S
H27 C21 0.930 . S
C28 O8 1.257 . S
C28 O29 1.244 . S
O29 C28 1.244 . S
O30 C6 1.257 . S
O30 Zn9 2.019 . S
H31 C24 0.930 . S
H32 C11 0.930 . S
H33 C23 0.930 . S
Zn34 N38 2.020 . S
Zn34 O42 2.019 . S
Zn34 N44 2.119 1_556 S
Zn34 O52 1.975 . S
C35 N36 1.334 . S
C35 N39 1.336 . S
N36 C35 1.334 . S
N36 C37 1.334 . S
C37 N36 1.334 . S
C37 N38 1.336 . S
N38 Zn34 2.020 . S
N38 C37 1.336 . S
N38 N39 1.354 . S
N39 C35 1.336 . S
N39 N38 1.354 . S
N39 Zn43 2.020 . S
C40 O41 1.244 . S
C40 O64 1.257 . S
O41 C40 1.244 . S
O42 Zn34 2.019 . S
O42 C62 1.257 . S
Zn43 N39 2.020 . S
Zn43 O50 1.975 . S
Zn43 N59 2.119 . S
Zn43 O64 2.019 . S
N44 Zn34 2.119 1_554 S
N44 C46 1.334 . S
N44 C47 1.328 . S
C45 C46 1.391 . S
C45 N48 1.329 . S
C45 H66 0.930 . S
C46 N44 1.334 . S
C46 C45 1.391 . S
C46 H53 0.930 . S
C47 N44 1.328 . S
C47 C49 1.392 . S
C47 H54 0.930 . S
N48 C45 1.329 . S
N48 C49 1.331 . S
C49 C47 1.392 . S
C49 N48 1.331 . S
O50 Zn43 1.975 . S
O50 C51 1.252 . S
C51 O50 1.252 . S
C51 O52 1.252 . S
O52 Zn34 1.975 . S
O52 C51 1.252 . S
H53 C46 0.930 . S
H54 C47 0.930 . S
C55 C56 1.392 . S
C55 N59 1.328 . S
C55 H61 0.930 . S
C56 C55 1.392 . S
C56 N60 1.331 . S
C57 C58 1.391 . S
C57 N60 1.329 . S
C57 H67 0.930 . S
C58 C57 1.391 . S
C58 N59 1.334 . S
C58 H65 0.930 . S
N59 Zn43 2.119 . S
N59 C55 1.328 . S
N59 C58 1.334 . S
N60 C56 1.331 . S
N60 C57 1.329 . S
H61 C55 0.930 . S
C62 O42 1.257 . S
C62 O63 1.244 . S
O63 C62 1.244 . S
O64 C40 1.257 . S
O64 Zn43 2.019 . S
H65 C58 0.930 . S
H66 C45 0.930 . S
H67 C57 0.930 . S
Zn68 N72 2.020 . S
Zn68 O76 2.019 . S
Zn68 N78 2.119 . S
Zn68 O86 1.975 . S
C69 N70 1.334 . S
C69 N73 1.336 . S
N70 C69 1.334 . S
N70 C71 1.334 . S
C71 N70 1.334 . S
C71 N72 1.336 . S
N72 Zn68 2.020 . S
N72 C71 1.336 . S
N72 N73 1.354 . S
N73 C69 1.336 . S
N73 N72 1.354 . S
N73 Zn77 2.020 . S
C74 O75 1.244 . S
C74 O98 1.257 . S
O75 C74 1.244 . S
O76 Zn68 2.019 . S
O76 C96 1.257 . S
Zn77 N73 2.020 . S
Zn77 O84 1.975 . S
Zn77 N93 2.119 1_554 S
Zn77 O98 2.019 . S
N78 Zn68 2.119 . S
N78 C80 1.334 . S
N78 C81 1.328 . S
C79 C80 1.391 . S
C79 N82 1.329 . S
C79 H100 0.930 . S
C80 N78 1.334 . S
C80 C79 1.391 . S
C80 H87 0.930 . S
C81 N78 1.328 . S
C81 C83 1.392 . S
C81 H88 0.930 . S
N82 C79 1.329 . S
N82 C83 1.331 . S
C83 C81 1.392 . S
C83 N82 1.331 . S
O84 Zn77 1.975 . S
O84 C85 1.252 . S
C85 O84 1.252 . S
C85 O86 1.252 . S
O86 Zn68 1.975 . S
O86 C85 1.252 . S
H87 C80 0.930 . S
H88 C81 0.930 . S
C89 C90 1.392 . S
C89 N93 1.328 . S
C89 H95 0.930 . S
C90 C89 1.392 . S
C90 N94 1.331 . S
C91 C92 1.391 . S
C91 N94 1.329 . S
C91 H101 0.930 . S
C92 C91 1.391 . S
C92 N93 1.334 . S
C92 H99 0.930 . S
N93 Zn77 2.119 1_556 S
N93 C89 1.328 . S
N93 C92 1.334 . S
N94 C90 1.331 . S
N94 C91 1.329 . S
H95 C89 0.930 . S
C96 O76 1.257 . S
C96 O97 1.244 . S
O97 C96 1.244 . S
O98 C74 1.257 . S
O98 Zn77 2.019 . S
H99 C92 0.930 . S
H100 C79 0.930 . S
H101 C91 0.930 . S
Zn102 N106 2.020 . S
Zn102 O110 2.019 . S
Zn102 N112 2.119 . S
Zn102 O120 1.975 . S
C103 N104 1.334 . S
C103 N107 1.336 . S
N104 C103 1.334 . S
N104 C105 1.334 . S
C105 N104 1.334 . S
C105 N106 1.336 . S
N106 Zn102 2.020 . S
N106 C105 1.336 . S
N106 N107 1.354 . S
N107 C103 1.336 . S
N107 N106 1.354 . S
N107 Zn111 2.020 . S
C108 O109 1.244 . S
C108 O132 1.257 . S
O109 C108 1.244 . S
O110 Zn102 2.019 . S
O110 C130 1.257 . S
Zn111 N107 2.020 . S
Zn111 O118 1.975 . S
Zn111 N127 2.119 1_556 S
Zn111 O132 2.019 . S
N112 Zn102 2.119 . S
N112 C114 1.334 . S
N112 C115 1.328 . S
C113 C114 1.391 . S
C113 N116 1.329 . S
C113 H134 0.930 . S
C114 N112 1.334 . S
C114 C113 1.391 . S
C114 H121 0.930 . S
C115 N112 1.328 . S
C115 C117 1.392 . S
C115 H122 0.930 . S
N116 C113 1.329 . S
N116 C117 1.331 . S
C117 C115 1.392 . S
C117 N116 1.331 . S
O118 Zn111 1.975 . S
O118 C119 1.252 . S
C119 O118 1.252 . S
C119 O120 1.252 . S
O120 Zn102 1.975 . S
O120 C119 1.252 . S
H121 C114 0.930 . S
H122 C115 0.930 . S
C123 C124 1.392 . S
C123 N127 1.328 . S
C123 H129 0.930 . S
C124 C123 1.392 . S
C124 N128 1.331 . S
C125 C126 1.391 . S
C125 N128 1.329 . S
C125 H135 0.930 . S
C126 C125 1.391 . S
C126 N127 1.334 . S
C126 H133 0.930 . S
N127 Zn111 2.119 1_554 S
N127 C123 1.328 . S
N127 C126 1.334 . S
N128 C124 1.331 . S
N128 C125 1.329 . S
H129 C123 0.930 . S
C130 O110 1.257 . S
C130 O131 1.244 . S
O131 C130 1.244 . S
O132 C108 1.257 . S
O132 Zn111 2.019 . S
H133 C126 0.930 . S
H134 C113 0.930 . S
H135 C125 0.930 . S
Zn136 N140 2.020 . S
Zn136 O144 2.019 . S
Zn136 N146 2.119 . S
Zn136 O154 1.975 . S
C137 N138 1.334 . S
C137 N141 1.336 . S
N138 C137 1.334 . S
N138 C139 1.334 . S
C139 N138 1.334 . S
C139 N140 1.336 . S
N140 Zn136 2.020 . S
N140 C139 1.336 . S
N140 N141 1.354 . S
N141 C137 1.336 . S
N141 N140 1.354 . S
N141 Zn145 2.020 . S
C142 O143 1.244 . S
C142 O166 1.257 . S
O143 C142 1.244 . S
O144 Zn136 2.019 . S
O144 C164 1.257 . S
Zn145 N141 2.020 . S
Zn145 O152 1.975 . S
Zn145 N161 2.119 . S
Zn145 O166 2.019 . S
N146 Zn136 2.119 . S
N146 C148 1.334 . S
N146 C149 1.328 . S
C147 C148 1.391 . S
C147 N150 1.329 . S
C147 H168 0.930 . S
C148 N146 1.334 . S
C148 C147 1.391 . S
C148 H155 0.930 . S
C149 N146 1.328 . S
C149 C151 1.392 . S
C149 H156 0.930 . S
N150 C147 1.329 . S
N150 C151 1.331 . S
C151 C149 1.392 . S
C151 N150 1.331 . S
O152 Zn145 1.975 . S
O152 C153 1.252 . S
C153 O152 1.252 . S
C153 O154 1.252 . S
O154 Zn136 1.975 . S
O154 C153 1.252 . S
H155 C148 0.930 . S
H156 C149 0.930 . S
C157 C158 1.392 . S
C157 N161 1.328 . S
C157 H163 0.930 . S
C158 C157 1.392 . S
C158 N162 1.331 . S
C159 C160 1.391 . S
C159 N162 1.329 . S
C159 H169 0.930 . S
C160 C159 1.391 . S
C160 N161 1.334 . S
C160 H167 0.930 . S
N161 Zn145 2.119 . S
N161 C157 1.328 . S
N161 C160 1.334 . S
N162 C158 1.331 . S
N162 C159 1.329 . S
H163 C157 0.930 . S
C164 O144 1.257 . S
C164 O165 1.244 . S
O165 C164 1.244 . S
O166 C142 1.257 . S
O166 Zn145 2.019 . S
H167 C160 0.930 . S
H168 C147 0.930 . S
H169 C159 0.930 . S
Zn170 N174 2.020 . S
Zn170 O178 2.019 . S
Zn170 N180 2.119 . S
Zn170 O188 1.975 . S
C171 N172 1.334 . S
C171 N175 1.336 . S
N172 C171 1.334 . S
N172 C173 1.334 . S
C173 N172 1.334 . S
C173 N174 1.336 . S
N174 Zn170 2.020 . S
N174 C173 1.336 . S
N174 N175 1.354 . S
N175 C171 1.336 . S
N175 N174 1.354 . S
N175 Zn179 2.020 . S
C176 O177 1.244 . S
C176 O200 1.257 . S
O177 C176 1.244 . S
O178 Zn170 2.019 . S
O178 C198 1.257 . S
Zn179 N175 2.020 . S
Zn179 O186 1.975 . S
Zn179 N195 2.119 . S
Zn179 O200 2.019 . S
N180 Zn170 2.119 . S
N180 C182 1.334 . S
N180 C183 1.328 . S
C181 C182 1.391 . S
C181 N184 1.329 . S
C181 H202 0.930 . S
C182 N180 1.334 . S
C182 C181 1.391 . S
C182 H189 0.930 . S
C183 N180 1.328 . S
C183 C185 1.392 . S
C183 H190 0.930 . S
N184 C181 1.329 . S
N184 C185 1.331 . S
C185 C183 1.392 . S
C185 N184 1.331 . S
O186 Zn179 1.975 . S
O186 C187 1.252 . S
C187 O186 1.252 . S
C187 O188 1.252 . S
O188 Zn170 1.975 . S
O188 C187 1.252 . S
H189 C182 0.930 . S
H190 C183 0.930 . S
C191 C192 1.392 . S
C191 N195 1.328 . S
C191 H197 0.930 . S
C192 C191 1.392 . S
C192 N196 1.331 . S
C193 C194 1.391 . S
C193 N196 1.329 . S
C193 H203 0.930 . S
C194 C193 1.391 . S
C194 N195 1.334 . S
C194 H201 0.930 . S
N195 Zn179 2.119 . S
N195 C191 1.328 . S
N195 C194 1.334 . S
N196 C192 1.331 . S
N196 C193 1.329 . S
H197 C191 0.930 . S
C198 O178 1.257 . S
C198 O199 1.244 . S
O199 C198 1.244 . S
O200 C176 1.257 . S
O200 Zn179 2.019 . S
H201 C194 0.930 . S
H202 C181 0.930 . S
H203 C193 0.930 . S
Zn204 N208 2.020 . S
Zn204 O212 2.019 . S
Zn204 N214 2.119 . S
Zn204 O222 1.975 . S
C205 N206 1.334 . S
C205 N209 1.336 . S
N206 C205 1.334 . S
N206 C207 1.334 . S
C207 N206 1.334 . S
C207 N208 1.336 . S
N208 Zn204 2.020 . S
N208 C207 1.336 . S
N208 N209 1.354 . S
N209 C205 1.336 . S
N209 N208 1.354 . S
N209 Zn213 2.020 . S
C210 O211 1.244 . S
C210 O234 1.257 . S
O211 C210 1.244 . S
O212 Zn204 2.019 . S
O212 C232 1.257 . S
Zn213 N209 2.020 . S
Zn213 O220 1.975 . S
Zn213 N229 2.119 . S
Zn213 O234 2.019 . S
N214 Zn204 2.119 . S
N214 C216 1.334 . S
N214 C217 1.328 . S
C215 C216 1.391 . S
C215 N218 1.329 . S
C215 H236 0.930 . S
C216 N214 1.334 . S
C216 C215 1.391 . S
C216 H223 0.930 . S
C217 N214 1.328 . S
C217 C219 1.392 . S
C217 H224 0.930 . S
N218 C215 1.329 . S
N218 C219 1.331 . S
C219 C217 1.392 . S
C219 N218 1.331 . S
O220 Zn213 1.975 . S
O220 C221 1.252 . S
C221 O220 1.252 . S
C221 O222 1.252 . S
O222 Zn204 1.975 . S
O222 C221 1.252 . S
H223 C216 0.930 . S
H224 C217 0.930 . S
C225 C226 1.392 . S
C225 N229 1.328 . S
C225 H231 0.930 . S
C226 C225 1.392 . S
C226 N230 1.331 . S
C227 C228 1.391 . S
C227 N230 1.329 . S
C227 H237 0.930 . S
C228 C227 1.391 . S
C228 N229 1.334 . S
C228 H235 0.930 . S
N229 Zn213 2.119 . S
N229 C225 1.328 . S
N229 C228 1.334 . S
N230 C226 1.331 . S
N230 C227 1.329 . S
H231 C225 0.930 . S
C232 O212 1.257 . S
C232 O233 1.244 . S
O233 C232 1.244 . S
O234 C210 1.257 . S
O234 Zn213 2.019 . S
H235 C228 0.930 . S
H236 C215 0.930 . S
H237 C227 0.930 . S
Zn238 N242 2.020 . S
Zn238 O246 2.019 . S
Zn238 N248 2.119 . S
Zn238 O256 1.975 . S
C239 N240 1.334 . S
C239 N243 1.336 . S
N240 C239 1.334 . S
N240 C241 1.334 . S
C241 N240 1.334 . S
C241 N242 1.336 . S
N242 Zn238 2.020 . S
N242 C241 1.336 . S
N242 N243 1.354 . S
N243 C239 1.336 . S
N243 N242 1.354 . S
N243 Zn247 2.020 . S
C244 O245 1.244 . S
C244 O268 1.257 . S
O245 C244 1.244 . S
O246 Zn238 2.019 . S
O246 C266 1.257 . S
Zn247 N243 2.020 . S
Zn247 O254 1.975 . S
Zn247 N263 2.119 . S
Zn247 O268 2.019 . S
N248 Zn238 2.119 . S
N248 C250 1.334 . S
N248 C251 1.328 . S
C249 C250 1.391 . S
C249 N252 1.329 . S
C249 H270 0.930 . S
C250 N248 1.334 . S
C250 C249 1.391 . S
C250 H257 0.930 . S
C251 N248 1.328 . S
C251 C253 1.392 . S
C251 H258 0.930 . S
N252 C249 1.329 . S
N252 C253 1.331 . S
C253 C251 1.392 . S
C253 N252 1.331 . S
O254 Zn247 1.975 . S
O254 C255 1.252 . S
C255 O254 1.252 . S
C255 O256 1.252 . S
O256 Zn238 1.975 . S
O256 C255 1.252 . S
H257 C250 0.930 . S
H258 C251 0.930 . S
C259 C260 1.392 . S
C259 N263 1.328 . S
C259 H265 0.930 . S
C260 C259 1.392 . S
C260 N264 1.331 . S
C261 C262 1.391 . S
C261 N264 1.329 . S
C261 H271 0.930 . S
C262 C261 1.391 . S
C262 N263 1.334 . S
C262 H269 0.930 . S
N263 Zn247 2.119 . S
N263 C259 1.328 . S
N263 C262 1.334 . S
N264 C260 1.331 . S
N264 C261 1.329 . S
H265 C259 0.930 . S
C266 O246 1.257 . S
C266 O267 1.244 . S
O267 C266 1.244 . S
O268 C244 1.257 . S
O268 Zn247 2.019 . S
H269 C262 0.930 . S
H270 C249 0.930 . S
H271 C261 0.930 . S
C272 C273 1.349 . S
C272 C274 1.327 . S
C272 H297 0.950 . S
C273 C272 1.349 . S
C273 C289 1.349 . S
C274 C272 1.327 . S
C274 C293 1.429 . S
C274 H298 0.950 . S
C275 C292 1.574 . S
C275 C294 1.368 . S
C275 H299 0.949 . S
H276 C280 0.949 . S
C277 C278 1.349 . S
C277 C279 1.327 . S
C277 H300 0.950 . S
C278 C277 1.349 . S
C278 C290 1.349 . S
C279 C277 1.327 . S
C279 C295 1.429 . S
C279 H301 0.950 . S
C280 H276 0.949 . S
C280 C288 1.574 . S
C280 C296 1.368 . S
H281 C289 0.953 1_545 S
H282 C287 0.950 . S
H283 C288 0.949 . S
H284 C290 0.950 . S
H285 C291 0.950 . S
H286 C292 0.949 . S
C287 H282 0.950 . S
C287 C289 1.324 . S
C287 C293 1.429 . S
C288 C280 1.574 . S
C288 H283 0.949 . S
C288 C294 1.368 . S
C289 C273 1.349 . S
C289 H281 0.953 1_565 S
C289 C287 1.324 . S
C290 C278 1.349 . S
C290 H284 0.950 . S
C290 C291 1.327 . S
C291 H285 0.950 . S
C291 C290 1.327 . S
C291 C295 1.429 . S
C292 C275 1.574 . S
C292 H286 0.949 . S
C292 C296 1.368 . S
C293 C274 1.429 . S
C293 C287 1.429 . S
C293 C294 1.523 . S
C294 C275 1.368 . S
C294 C288 1.368 . S
C294 C293 1.523 . S
C295 C279 1.429 . S
C295 C291 1.429 . S
C295 C296 1.523 . S
C296 C280 1.368 . S
C296 C292 1.368 . S
C296 C295 1.523 . S
H297 C272 0.950 . S
H298 C274 0.950 . S
H299 C275 0.949 . S
H300 C277 0.950 . S
H301 C279 0.950 . S
C302 C303 1.349 1_455 S
C302 C304 1.327 1_455 S
C302 H327 0.950 . S
C303 C302 1.349 1_655 S
C303 C319 1.349 . S
C304 C302 1.327 1_655 S
C304 C323 1.429 . S
C304 H328 0.950 . S
C305 C322 1.574 . S
C305 C324 1.368 . S
C305 H329 0.949 . S
H306 C310 0.949 . S
C307 C308 1.349 . S
C307 C309 1.327 . S
C307 H330 0.950 . S
C308 C307 1.349 . S
C308 C320 1.349 . S
C309 C307 1.327 . S
C309 C325 1.429 . S
C309 H331 0.950 . S
C310 H306 0.949 . S
C310 C318 1.574 . S
C310 C326 1.368 . S
H311 C319 0.950 . S
H312 C317 0.950 . S
H313 C318 0.949 . S
H314 C320 0.950 . S
H315 C321 0.950 . S
H316 C322 0.949 . S
C317 H312 0.950 . S
C317 C319 1.327 . S
C317 C323 1.429 . S
C318 C310 1.574 . S
C318 H313 0.949 . S
C318 C324 1.368 . S
C319 C303 1.349 . S
C319 H311 0.950 . S
C319 C317 1.327 . S
C320 C308 1.349 . S
C320 H314 0.950 . S
C320 C321 1.327 . S
C321 H315 0.950 . S
C321 C320 1.327 . S
C321 C325 1.429 . S
C322 C305 1.574 . S
C322 H316 0.949 . S
C322 C326 1.368 . S
C323 C304 1.429 . S
C323 C317 1.429 . S
C323 C324 1.523 . S
C324 C305 1.368 . S
C324 C318 1.368 . S
C324 C323 1.523 . S
C325 C309 1.429 . S
C325 C321 1.429 . S
C325 C326 1.523 . S
C326 C310 1.368 . S
C326 C322 1.368 . S
C326 C325 1.523 . S
H327 C302 0.950 . S
H328 C304 0.950 . S
H329 C305 0.949 . S
H330 C307 0.950 . S
H331 C309 0.950 . S
C332 C333 1.349 . S
C332 C334 1.327 . S
C332 H357 0.950 . S
C333 C332 1.349 . S
C333 C349 1.349 . S
C334 C332 1.327 . S
C334 C353 1.429 . S
C334 H358 0.950 . S
C335 C352 1.574 . S
C335 C354 1.368 . S
C335 H359 0.949 . S
H336 C340 0.949 . S
C337 C338 1.349 . S
C337 C339 1.327 . S
C337 H360 0.950 . S
C338 C337 1.349 . S
C338 C350 1.349 1_545 S
C339 C337 1.327 . S
C339 C355 1.429 . S
C339 H361 0.950 . S
C340 H336 0.949 . S
C340 C348 1.574 . S
C340 C356 1.368 . S
H341 C349 0.950 . S
H342 C347 0.950 . S
H343 C348 0.949 . S
H344 C350 0.950 . S
H345 C351 0.950 . S
H346 C352 0.949 . S
C347 H342 0.950 . S
C347 C349 1.327 . S
C347 C353 1.429 . S
C348 C340 1.574 . S
C348 H343 0.949 . S
C348 C354 1.368 . S
C349 C333 1.349 . S
C349 H341 0.950 . S
C349 C347 1.327 . S
C350 C338 1.349 1_565 S
C350 H344 0.950 . S
C350 C351 1.327 1_565 S
C351 H345 0.950 . S
C351 C350 1.327 1_545 S
C351 C355 1.429 . S
C352 C335 1.574 . S
C352 H346 0.949 . S
C352 C356 1.368 . S
C353 C334 1.429 . S
C353 C347 1.429 . S
C353 C354 1.523 . S
C354 C335 1.368 . S
C354 C348 1.368 . S
C354 C353 1.523 . S
C355 C339 1.429 . S
C355 C351 1.429 . S
C355 C356 1.523 . S
C356 C340 1.368 . S
C356 C352 1.368 . S
C356 C355 1.523 . S
H357 C332 0.950 . S
H358 C334 0.950 . S
H359 C335 0.949 . S
H360 C337 0.950 . S
H361 C339 0.950 . S
C362 C363 1.349 . S
C362 C364 1.327 . S
C362 H387 0.950 . S
C363 C362 1.349 . S
C363 C379 1.349 . S
C364 C362 1.327 . S
C364 C383 1.429 . S
C364 H388 0.950 . S
C365 C382 1.574 . S
C365 C384 1.368 . S
C365 H389 0.949 . S
H366 C370 0.949 . S
C367 C368 1.349 . S
C367 C369 1.327 . S
C367 H390 0.950 . S
C368 C367 1.349 . S
C368 C380 1.349 . S
C369 C367 1.327 . S
C369 C385 1.429 . S
C369 H391 0.950 . S
C370 H366 0.949 . S
C370 C378 1.574 . S
C370 C386 1.368 . S
H371 C379 0.950 . S
H372 C377 0.950 . S
H373 C378 0.949 . S
H374 C380 0.950 . S
H375 C381 0.950 . S
H376 C382 0.949 . S
C377 H372 0.950 . S
C377 C379 1.327 . S
C377 C383 1.429 . S
C378 C370 1.574 . S
C378 H373 0.949 . S
C378 C384 1.368 . S
C379 C363 1.349 . S
C379 H371 0.950 . S
C379 C377 1.327 . S
C380 C368 1.349 . S
C380 H374 0.950 . S
C380 C381 1.327 . S
C381 H375 0.950 . S
C381 C380 1.327 . S
C381 C385 1.429 . S
C382 C365 1.574 . S
C382 H376 0.949 . S
C382 C386 1.368 . S
C383 C364 1.429 . S
C383 C377 1.429 . S
C383 C384 1.523 . S
C384 C365 1.368 . S
C384 C378 1.368 . S
C384 C383 1.523 . S
C385 C369 1.429 . S
C385 C381 1.429 . S
C385 C386 1.523 . S
C386 C370 1.368 . S
C386 C382 1.368 . S
C386 C385 1.523 . S
H387 C362 0.950 . S
H388 C364 0.950 . S
H389 C365 0.949 . S
H390 C367 0.950 . S
H391 C369 0.950 . S
C392 C393 1.349 . S
C392 C394 1.327 . S
C392 H417 0.950 . S
C393 C392 1.349 . S
C393 C409 1.349 . S
C394 C392 1.327 . S
C394 C413 1.429 . S
C394 H418 0.950 . S
C395 C412 1.574 . S
C395 C414 1.368 . S
C395 H419 0.949 . S
H396 C400 0.949 . S
C397 C398 1.349 . S
C397 C399 1.327 . S
C397 H420 0.950 . S
C398 C397 1.349 . S
C398 C410 1.349 . S
C399 C397 1.327 . S
C399 C415 1.429 . S
C399 H421 0.950 . S
C400 H396 0.949 . S
C400 C408 1.574 . S
C400 C416 1.368 . S
H401 C409 0.950 . S
H402 C407 0.950 . S
H403 C408 0.949 . S
H404 C410 0.950 . S
H405 C411 0.950 . S
H406 C412 0.949 . S
C407 H402 0.950 . S
C407 C409 1.327 . S
C407 C413 1.429 . S
C408 C400 1.574 . S
C408 H403 0.949 . S
C408 C414 1.368 . S
C409 C393 1.349 . S
C409 H401 0.950 . S
C409 C407 1.327 . S
C410 C398 1.349 . S
C410 H404 0.950 . S
C410 C411 1.327 . S
C411 H405 0.950 . S
C411 C410 1.327 . S
C411 C415 1.429 . S
C412 C395 1.574 . S
C412 H406 0.949 . S
C412 C416 1.368 . S
C413 C394 1.429 . S
C413 C407 1.429 . S
C413 C414 1.523 . S
C414 C395 1.368 . S
C414 C408 1.368 . S
C414 C413 1.523 . S
C415 C399 1.429 . S
C415 C411 1.429 . S
C415 C416 1.523 . S
C416 C400 1.368 . S
C416 C412 1.368 . S
C416 C415 1.523 . S
H417 C392 0.950 . S
H418 C394 0.950 . S
H419 C395 0.949 . S
H420 C397 0.950 . S
H421 C399 0.950 . S
C422 C423 1.349 . S
C422 C424 1.327 . S
C422 H447 0.950 . S
C423 C422 1.349 . S
C423 C439 1.349 . S
C424 C422 1.327 . S
C424 C443 1.429 . S
C424 H448 0.950 . S
C425 C442 1.574 . S
C425 C444 1.368 . S
C425 H449 0.949 . S
H426 C430 0.949 . S
C427 C428 1.349 . S
C427 C429 1.327 . S
C427 H450 0.950 . S
C428 C427 1.349 . S
C428 C440 1.349 . S
C429 C427 1.327 . S
C429 C445 1.429 . S
C429 H451 0.950 . S
C430 H426 0.949 . S
C430 C438 1.574 . S
C430 C446 1.368 . S
H431 C439 0.950 . S
H432 C437 0.950 . S
H433 C438 0.949 . S
H434 C440 0.950 . S
H435 C441 0.950 . S
H436 C442 0.949 . S
C437 H432 0.950 . S
C437 C439 1.327 . S
C437 C443 1.429 . S
C438 C430 1.574 . S
C438 H433 0.949 . S
C438 C444 1.368 . S
C439 C423 1.349 . S
C439 H431 0.950 . S
C439 C437 1.327 . S
C440 C428 1.349 . S
C440 H434 0.950 . S
C440 C441 1.327 . S
C441 H435 0.950 . S
C441 C440 1.327 . S
C441 C445 1.429 . S
C442 C425 1.574 . S
C442 H436 0.949 . S
C442 C446 1.368 . S
C443 C424 1.429 . S
C443 C437 1.429 . S
C443 C444 1.523 . S
C444 C425 1.368 . S
C444 C438 1.368 . S
C444 C443 1.523 . S
C445 C429 1.429 . S
C445 C441 1.429 . S
C445 C446 1.523 . S
C446 C430 1.368 . S
C446 C442 1.368 . S
C446 C445 1.523 . S
H447 C422 0.950 . S
H448 C424 0.950 . S
H449 C425 0.949 . S
H450 C427 0.950 . S
H451 C429 0.950 . S
C452 C453 1.349 . S
C452 C454 1.327 . S
C452 H477 0.950 . S
C453 C452 1.349 . S
C453 C469 1.349 . S
C454 C452 1.327 . S
C454 C473 1.429 . S
C454 H478 0.950 . S
C455 C472 1.574 . S
C455 C474 1.368 . S
C455 H479 0.949 . S
H456 C460 0.949 . S
C457 C458 1.349 . S
C457 C459 1.327 . S
C457 H480 0.950 . S
C458 C457 1.349 . S
C458 C470 1.349 . S
C459 C457 1.327 . S
C459 C475 1.429 . S
C459 H481 0.950 . S
C460 H456 0.949 . S
C460 C468 1.574 . S
C460 C476 1.368 . S
H461 C469 0.950 . S
H462 C467 0.950 . S
H463 C468 0.949 . S
H464 C470 0.950 . S
H465 C471 0.950 . S
H466 C472 0.949 . S
C467 H462 0.950 . S
C467 C469 1.327 . S
C467 C473 1.429 . S
C468 C460 1.574 . S
C468 H463 0.949 . S
C468 C474 1.368 . S
C469 C453 1.349 . S
C469 H461 0.950 . S
C469 C467 1.327 . S
C470 C458 1.349 . S
C470 H464 0.950 . S
C470 C471 1.327 . S
C471 H465 0.950 . S
C471 C470 1.327 . S
C471 C475 1.429 . S
C472 C455 1.574 . S
C472 H466 0.949 . S
C472 C476 1.368 . S
C473 C454 1.429 . S
C473 C467 1.429 . S
C473 C474 1.523 . S
C474 C455 1.368 . S
C474 C468 1.368 . S
C474 C473 1.523 . S
C475 C459 1.429 . S
C475 C471 1.429 . S
C475 C476 1.523 . S
C476 C460 1.368 . S
C476 C472 1.368 . S
C476 C475 1.523 . S
H477 C452 0.950 . S
H478 C454 0.950 . S
H479 C455 0.949 . S
H480 C457 0.950 . S
H481 C459 0.950 . S
C482 C483 1.349 . S
C482 C484 1.327 . S
C482 H507 0.950 . S
C483 C482 1.349 . S
C483 C499 1.349 . S
C484 C482 1.327 . S
C484 C503 1.429 . S
C484 H508 0.950 . S
C485 C502 1.574 . S
C485 C504 1.368 . S
C485 H509 0.949 . S
H486 C490 0.949 . S
C487 C488 1.349 . S
C487 C489 1.327 . S
C487 H510 0.950 . S
C488 C487 1.349 . S
C488 C500 1.349 . S
C489 C487 1.327 . S
C489 C505 1.429 . S
C489 H511 0.950 . S
C490 H486 0.949 . S
C490 C498 1.574 . S
C490 C506 1.368 . S
H491 C499 0.950 . S
H492 C497 0.950 . S
H493 C498 0.949 . S
H494 C500 0.950 . S
H495 C501 0.950 . S
H496 C502 0.949 . S
C497 H492 0.950 . S
C497 C499 1.327 . S
C497 C503 1.429 . S
C498 C490 1.574 . S
C498 H493 0.949 . S
C498 C504 1.368 . S
C499 C483 1.349 . S
C499 H491 0.950 . S
C499 C497 1.327 . S
C500 C488 1.349 . S
C500 H494 0.950 . S
C500 C501 1.327 . S
C501 H495 0.950 . S
C501 C500 1.327 . S
C501 C505 1.429 . S
C502 C485 1.574 . S
C502 H496 0.949 . S
C502 C506 1.368 . S
C503 C484 1.429 . S
C503 C497 1.429 . S
C503 C504 1.523 . S
C504 C485 1.368 . S
C504 C498 1.368 . S
C504 C503 1.523 . S
C505 C489 1.429 . S
C505 C501 1.429 . S
C505 C506 1.523 . S
C506 C490 1.368 . S
C506 C502 1.368 . S
C506 C505 1.523 . S
H507 C482 0.950 . S
H508 C484 0.950 . S
H509 C485 0.949 . S
H510 C487 0.950 . S
H511 C489 0.950 . S
C512 C513 1.349 . S
C512 C514 1.327 . S
C512 H537 0.950 1_554 S
C513 C512 1.349 . S
C513 C529 1.349 . S
C514 C512 1.327 . S
C514 C533 1.429 . S
C514 H538 0.950 1_554 S
C515 C532 1.574 . S
C515 C534 1.368 1_565 S
C515 H539 0.949 . S
H516 C520 0.949 1_556 S
C517 C518 1.349 . S
C517 C519 1.327 . S
C517 H540 0.950 . S
C518 C517 1.349 . S
C518 C530 1.349 . S
C519 C517 1.327 . S
C519 C535 1.429 . S
C519 H541 0.950 . S
C520 H516 0.949 1_554 S
C520 C528 1.574 . S
C520 C536 1.368 1_545 S
H521 C529 0.950 . S
H522 C527 0.950 1_565 S
H523 C528 0.949 1_556 S
H524 C530 0.950 1_556 S
H525 C531 0.950 1_546 S
H526 C532 0.949 . S
C527 H522 0.950 1_545 S
C527 C529 1.327 . S
C527 C533 1.429 . S
C528 C520 1.574 . S
C528 H523 0.949 1_554 S
C528 C534 1.368 . S
C529 C513 1.349 . S
C529 H521 0.950 . S
C529 C527 1.327 . S
C530 C518 1.349 . S
C530 H524 0.950 1_554 S
C530 C531 1.327 . S
C531 H525 0.950 1_564 S
C531 C530 1.327 . S
C531 C535 1.429 . S
C532 C515 1.574 . S
C532 H526 0.949 . S
C532 C536 1.368 . S
C533 C514 1.429 . S
C533 C527 1.429 . S
C533 C534 1.523 . S
C534 C515 1.368 1_545 S
C534 C528 1.368 . S
C534 C533 1.523 . S
C535 C519 1.429 . S
C535 C531 1.429 . S
C535 C536 1.523 . S
C536 C520 1.368 1_565 S
C536 C532 1.368 . S
C536 C535 1.523 . S
H537 C512 0.950 1_556 S
H538 C514 0.950 1_556 S
H539 C515 0.949 . S
H540 C517 0.950 . S
H541 C519 0.950 . S
C542 C543 1.349 . S
C542 C544 1.327 . S
C542 H567 0.950 . S
C543 C542 1.349 . S
C543 C559 1.349 . S
C544 C542 1.327 . S
C544 C563 1.429 . S
C544 H568 0.950 . S
C545 C562 1.574 . S
C545 C564 1.368 1_455 S
C545 H569 0.949 1_556 S
H546 C550 0.949 . S
C547 C548 1.349 . S
C547 C549 1.327 . S
C547 H570 0.950 1_556 S
C548 C547 1.349 . S
C548 C560 1.349 . S
C549 C547 1.327 . S
C549 C565 1.429 . S
C549 H571 0.950 1_556 S
C550 H546 0.949 . S
C550 C558 1.574 . S
C550 C566 1.368 1_655 S
H551 C559 0.950 1_554 S
H552 C557 0.950 1_454 S
H553 C558 0.949 . S
H554 C560 0.950 . S
H555 C561 0.950 1_655 S
H556 C562 0.949 1_554 S
C557 H552 0.950 1_656 S
C557 C559 1.327 . S
C557 C563 1.429 . S
C558 C550 1.574 . S
C558 H553 0.949 . S
C558 C564 1.368 . S
C559 C543 1.349 . S
C559 H551 0.950 1_556 S
C559 C557 1.327 . S
C560 C548 1.349 . S
C560 H554 0.950 . S
C560 C561 1.327 . S
C561 H555 0.950 1_455 S
C561 C560 1.327 . S
C561 C565 1.429 . S
C562 C545 1.574 . S
C562 H556 0.949 1_556 S
C562 C566 1.368 . S
C563 C544 1.429 . S
C563 C557 1.429 . S
C563 C564 1.523 . S
C564 C545 1.368 1_655 S
C564 C558 1.368 . S
C564 C563 1.523 . S
C565 C549 1.429 . S
C565 C561 1.429 . S
C565 C566 1.523 . S
C566 C550 1.368 1_455 S
C566 C562 1.368 . S
C566 C565 1.523 . S
H567 C542 0.950 . S
H568 C544 0.950 . S
H569 C545 0.949 1_554 S
H570 C547 0.950 1_554 S
H571 C549 0.950 1_554 S
C572 C573 1.349 . S
C572 C574 1.327 . S
C572 H597 0.950 . S
C573 C572 1.349 . S
C573 C589 1.349 . S
C574 C572 1.327 . S
C574 C593 1.429 . S
C574 H598 0.950 . S
C575 C592 1.574 1_655 S
C575 C594 1.368 . S
C575 H599 0.949 . S
H576 C580 0.949 . S
C577 C578 1.349 . S
C577 C579 1.327 . S
C577 H600 0.950 . S
C578 C577 1.349 . S
C578 C590 1.349 . S
C579 C577 1.327 . S
C579 C595 1.429 . S
C579 H601 0.950 . S
C580 H576 0.949 . S
C580 C588 1.574 1_455 S
C580 C596 1.368 . S
H581 C589 0.950 . S
H582 C587 0.950 . S
H583 C588 0.949 . S
H584 C590 0.950 . S
H585 C591 0.950 . S
H586 C592 0.949 . S
C587 H582 0.950 . S
C587 C589 1.327 . S
C587 C593 1.429 . S
C588 C580 1.574 1_655 S
C588 H583 0.949 . S
C588 C594 1.368 . S
C589 C573 1.349 . S
C589 H581 0.950 . S
C589 C587 1.327 . S
C590 C578 1.349 . S
C590 H584 0.950 . S
C590 C591 1.327 . S
C591 H585 0.950 . S
C591 C590 1.327 . S
C591 C595 1.429 . S
C592 C575 1.574 1_455 S
C592 H586 0.949 . S
C592 C596 1.368 . S
C593 C574 1.429 . S
C593 C587 1.429 . S
C593 C594 1.523 . S
C594 C575 1.368 . S
C594 C588 1.368 . S
C594 C593 1.523 . S
C595 C579 1.429 . S
C595 C591 1.429 . S
C595 C596 1.523 . S
C596 C580 1.368 . S
C596 C592 1.368 . S
C596 C595 1.523 . S
H597 C572 0.950 . S
H598 C574 0.950 . S
H599 C575 0.949 . S
H600 C577 0.950 . S
H601 C579 0.950 . S
C602 C603 1.349 . S
C602 C604 1.327 . S
C602 H627 0.950 . S
C603 C602 1.349 . S
C603 C619 1.349 . S
C604 C602 1.327 . S
C604 C623 1.429 . S
C604 H628 0.950 . S
C605 C622 1.574 1_545 S
C605 C624 1.368 . S
C605 H629 0.949 . S
H606 C610 0.949 . S
C607 C608 1.349 . S
C607 C609 1.327 . S
C607 H630 0.950 . S
C608 C607 1.349 . S
C608 C620 1.349 . S
C609 C607 1.327 . S
C609 C625 1.429 . S
C609 H631 0.950 . S
C610 H606 0.949 . S
C610 C618 1.574 1_565 S
C610 C626 1.368 . S
H611 C619 0.950 . S
H612 C617 0.950 . S
H613 C618 0.949 . S
H614 C620 0.950 . S
H615 C621 0.950 . S
H616 C622 0.949 . S
C617 H612 0.950 . S
C617 C619 1.327 . S
C617 C623 1.429 . S
C618 C610 1.574 1_545 S
C618 H613 0.949 . S
C618 C624 1.368 . S
C619 C603 1.349 . S
C619 H611 0.950 . S
C619 C617 1.327 . S
C620 C608 1.349 . S
C620 H614 0.950 . S
C620 C621 1.327 . S
C621 H615 0.950 . S
C621 C620 1.327 . S
C621 C625 1.429 . S
C622 C605 1.574 1_565 S
C622 H616 0.949 . S
C622 C626 1.368 . S
C623 C604 1.429 . S
C623 C617 1.429 . S
C623 C624 1.523 . S
C624 C605 1.368 . S
C624 C618 1.368 . S
C624 C623 1.523 . S
C625 C609 1.429 . S
C625 C621 1.429 . S
C625 C626 1.523 . S
C626 C610 1.368 . S
C626 C622 1.368 . S
C626 C625 1.523 . S
H627 C602 0.950 . S
H628 C604 0.950 . S
H629 C605 0.949 . S
H630 C607 0.950 . S
H631 C609 0.950 . S
C632 C633 1.349 . S
C632 C634 1.327 . S
C632 H657 0.950 . S
C633 C632 1.349 . S
C633 C649 1.349 . S
C634 C632 1.327 . S
C634 C653 1.429 . S
C634 H658 0.950 . S
C635 C652 1.574 . S
C635 C654 1.368 . S
C635 H659 0.949 . S
H636 C640 0.949 . S
C637 C638 1.349 . S
C637 C639 1.327 . S
C637 H660 0.950 . S
C638 C637 1.349 . S
C638 C650 1.349 . S
C639 C637 1.327 . S
C639 C655 1.429 . S
C639 H661 0.950 . S
C640 H636 0.949 . S
C640 C648 1.574 . S
C640 C656 1.368 . S
H641 C649 0.950 . S
H642 C647 0.950 . S
H643 C648 0.949 . S
H644 C650 0.950 . S
H645 C651 0.950 . S
H646 C652 0.949 . S
C647 H642 0.950 . S
C647 C649 1.327 . S
C647 C653 1.429 . S
C648 C640 1.574 . S
C648 H643 0.949 . S
C648 C654 1.368 . S
C649 C633 1.349 . S
C649 H641 0.950 . S
C649 C647 1.327 . S
C650 C638 1.349 . S
C650 H644 0.950 . S
C650 C651 1.327 . S
C651 H645 0.950 . S
C651 C650 1.327 . S
C651 C655 1.429 . S
C652 C635 1.574 . S
C652 H646 0.949 . S
C652 C656 1.368 . S
C653 C634 1.429 . S
C653 C647 1.429 . S
C653 C654 1.523 . S
C654 C635 1.368 . S
C654 C648 1.368 . S
C654 C653 1.523 . S
C655 C639 1.429 . S
C655 C651 1.429 . S
C655 C656 1.523 . S
C656 C640 1.368 . S
C656 C652 1.368 . S
C656 C655 1.523 . S
H657 C632 0.950 . S
H658 C634 0.950 . S
H659 C635 0.949 . S
H660 C637 0.950 . S
H661 C639 0.950 . S
C662 C663 1.349 . S
C662 C664 1.327 . S
C662 H687 0.950 . S
C663 C662 1.349 . S
C663 C679 1.349 . S
C664 C662 1.327 . S
C664 C683 1.429 . S
C664 H688 0.950 . S
C665 C682 1.574 . S
C665 C684 1.368 . S
C665 H689 0.949 . S
H666 C670 0.949 . S
C667 C668 1.349 . S
C667 C669 1.327 . S
C667 H690 0.950 . S
C668 C667 1.349 . S
C668 C680 1.349 . S
C669 C667 1.327 . S
C669 C685 1.429 . S
C669 H691 0.950 . S
C670 H666 0.949 . S
C670 C678 1.574 . S
C670 C686 1.368 . S
H671 C679 0.950 . S
H672 C677 0.950 . S
H673 C678 0.949 . S
H674 C680 0.950 . S
H675 C681 0.950 . S
H676 C682 0.949 . S
C677 H672 0.950 . S
C677 C679 1.327 . S
C677 C683 1.429 . S
C678 C670 1.574 . S
C678 H673 0.949 . S
C678 C684 1.368 . S
C679 C663 1.349 . S
C679 H671 0.950 . S
C679 C677 1.327 . S
C680 C668 1.349 . S
C680 H674 0.950 . S
C680 C681 1.327 . S
C681 H675 0.950 . S
C681 C680 1.327 . S
C681 C685 1.429 . S
C682 C665 1.574 . S
C682 H676 0.949 . S
C682 C686 1.368 . S
C683 C664 1.429 . S
C683 C677 1.429 . S
C683 C684 1.523 . S
C684 C665 1.368 . S
C684 C678 1.368 . S
C684 C683 1.523 . S
C685 C669 1.429 . S
C685 C681 1.429 . S
C685 C686 1.523 . S
C686 C670 1.368 . S
C686 C682 1.368 . S
C686 C685 1.523 . S
H687 C662 0.950 . S
H688 C664 0.950 . S
H689 C665 0.949 . S
H690 C667 0.950 . S
H691 C669 0.950 . S
C692 C693 1.349 . S
C692 C694 1.327 . S
C692 H717 0.950 . S
C693 C692 1.349 . S
C693 C709 1.349 . S
C694 C692 1.327 . S
C694 C713 1.429 . S
C694 H718 0.950 . S
C695 C712 1.574 . S
C695 C714 1.368 . S
C695 H719 0.949 . S
H696 C700 0.949 . S
C697 C698 1.349 . S
C697 C699 1.327 . S
C697 H720 0.950 . S
C698 C697 1.349 . S
C698 C710 1.349 . S
C699 C697 1.327 . S
C699 C715 1.429 . S
C699 H721 0.950 . S
C700 H696 0.949 . S
C700 C708 1.574 . S
C700 C716 1.368 . S
H701 C709 0.950 . S
H702 C707 0.950 . S
H703 C708 0.949 . S
H704 C710 0.950 . S
H705 C711 0.950 . S
H706 C712 0.949 . S
C707 H702 0.950 . S
C707 C709 1.327 . S
C707 C713 1.429 . S
C708 C700 1.574 . S
C708 H703 0.949 . S
C708 C714 1.368 . S
C709 C693 1.349 . S
C709 H701 0.950 . S
C709 C707 1.327 . S
C710 C698 1.349 . S
C710 H704 0.950 . S
C710 C711 1.327 . S
C711 H705 0.950 . S
C711 C710 1.327 . S
C711 C715 1.429 . S
C712 C695 1.574 . S
C712 H706 0.949 . S
C712 C716 1.368 . S
C713 C694 1.429 . S
C713 C707 1.429 . S
C713 C714 1.523 . S
C714 C695 1.368 . S
C714 C708 1.368 . S
C714 C713 1.523 . S
C715 C699 1.429 . S
C715 C711 1.429 . S
C715 C716 1.523 . S
C716 C700 1.368 . S
C716 C712 1.368 . S
C716 C715 1.523 . S
H717 C692 0.950 . S
H718 C694 0.950 . S
H719 C695 0.949 . S
H720 C697 0.950 . S
H721 C699 0.950 . S
C722 C723 1.349 . S
C722 C724 1.327 . S
C722 H747 0.950 . S
C723 C722 1.349 . S
C723 C739 1.349 . S
C724 C722 1.327 . S
C724 C743 1.429 . S
C724 H748 0.950 . S
C725 C742 1.574 . S
C725 C744 1.368 . S
C725 H749 0.949 . S
H726 C730 0.949 . S
C727 C728 1.349 . S
C727 C729 1.327 . S
C727 H750 0.950 . S
C728 C727 1.349 . S
C728 C740 1.349 . S
C729 C727 1.327 . S
C729 C745 1.429 . S
C729 H751 0.950 . S
C730 H726 0.949 . S
C730 C738 1.574 . S
C730 C746 1.368 . S
H731 C739 0.950 . S
H732 C737 0.950 . S
H733 C738 0.949 . S
H734 C740 0.950 . S
H735 C741 0.950 . S
H736 C742 0.949 . S
C737 H732 0.950 . S
C737 C739 1.327 . S
C737 C743 1.429 . S
C738 C730 1.574 . S
C738 H733 0.949 . S
C738 C744 1.368 . S
C739 C723 1.349 . S
C739 H731 0.950 . S
C739 C737 1.327 . S
C740 C728 1.349 . S
C740 H734 0.950 . S
C740 C741 1.327 . S
C741 H735 0.950 . S
C741 C740 1.327 . S
C741 C745 1.429 . S
C742 C725 1.574 . S
C742 H736 0.949 . S
C742 C746 1.368 . S
C743 C724 1.429 . S
C743 C737 1.429 . S
C743 C744 1.523 . S
C744 C725 1.368 . S
C744 C738 1.368 . S
C744 C743 1.523 . S
C745 C729 1.429 . S
C745 C741 1.429 . S
C745 C746 1.523 . S
C746 C730 1.368 . S
C746 C742 1.368 . S
C746 C745 1.523 . S
H747 C722 0.950 . S
H748 C724 0.950 . S
H749 C725 0.949 . S
H750 C727 0.950 . S
H751 C729 0.950 . S
C752 C753 1.349 . S
C752 C754 1.327 . S
C752 H777 0.950 . S
C753 C752 1.349 . S
C753 C769 1.349 . S
C754 C752 1.327 . S
C754 C773 1.429 . S
C754 H778 0.950 . S
C755 C772 1.574 . S
C755 C774 1.368 . S
C755 H779 0.949 . S
H756 C760 0.949 . S
C757 C758 1.349 . S
C757 C759 1.327 . S
C757 H780 0.950 . S
C758 C757 1.349 . S
C758 C770 1.349 . S
C759 C757 1.327 . S
C759 C775 1.429 . S
C759 H781 0.950 . S
C760 H756 0.949 . S
C760 C768 1.574 . S
C760 C776 1.368 . S
H761 C769 0.950 . S
H762 C767 0.950 . S
H763 C768 0.949 . S
H764 C770 0.950 . S
H765 C771 0.950 . S
H766 C772 0.949 . S
C767 H762 0.950 . S
C767 C769 1.327 . S
C767 C773 1.429 . S
C768 C760 1.574 . S
C768 H763 0.949 . S
C768 C774 1.368 . S
C769 C753 1.349 . S
C769 H761 0.950 . S
C769 C767 1.327 . S
C770 C758 1.349 . S
C770 H764 0.950 . S
C770 C771 1.327 . S
C771 H765 0.950 . S
C771 C770 1.327 . S
C771 C775 1.429 . S
C772 C755 1.574 . S
C772 H766 0.949 . S
C772 C776 1.368 . S
C773 C754 1.429 . S
C773 C767 1.429 . S
C773 C774 1.523 . S
C774 C755 1.368 . S
C774 C768 1.368 . S
C774 C773 1.523 . S
C775 C759 1.429 . S
C775 C771 1.429 . S
C775 C776 1.523 . S
C776 C760 1.368 . S
C776 C772 1.368 . S
C776 C775 1.523 . S
H777 C752 0.950 . S
H778 C754 0.950 . S
H779 C755 0.949 . S
H780 C757 0.950 . S
H781 C759 0.950 . S
C782 C783 1.349 . S
C782 C784 1.327 . S
C782 H807 0.950 . S
C783 C782 1.349 . S
C783 C799 1.349 . S
C784 C782 1.327 . S
C784 C803 1.429 . S
C784 H808 0.950 . S
C785 C802 1.574 . S
C785 C804 1.368 . S
C785 H809 0.949 . S
H786 C790 0.949 . S
C787 C788 1.349 . S
C787 C789 1.327 . S
C787 H810 0.950 . S
C788 C787 1.349 . S
C788 C800 1.349 . S
C789 C787 1.327 . S
C789 C805 1.429 . S
C789 H811 0.950 . S
C790 H786 0.949 . S
C790 C798 1.574 . S
C790 C806 1.368 . S
H791 C799 0.950 . S
H792 C797 0.950 . S
H793 C798 0.949 . S
H794 C800 0.950 . S
H795 C801 0.950 . S
H796 C802 0.949 . S
C797 H792 0.950 . S
C797 C799 1.327 . S
C797 C803 1.429 . S
C798 C790 1.574 . S
C798 H793 0.949 . S
C798 C804 1.368 . S
C799 C783 1.349 . S
C799 H791 0.950 . S
C799 C797 1.327 . S
C800 C788 1.349 . S
C800 H794 0.950 . S
C800 C801 1.327 . S
C801 H795 0.950 . S
C801 C800 1.327 . S
C801 C805 1.429 . S
C802 C785 1.574 . S
C802 H796 0.949 . S
C802 C806 1.368 . S
C803 C784 1.429 . S
C803 C797 1.429 . S
C803 C804 1.523 . S
C804 C785 1.368 . S
C804 C798 1.368 . S
C804 C803 1.523 . S
C805 C789 1.429 . S
C805 C801 1.429 . S
C805 C806 1.523 . S
C806 C790 1.368 . S
C806 C802 1.368 . S
C806 C805 1.523 . S
H807 C782 0.950 . S
H808 C784 0.950 . S
H809 C785 0.949 . S
H810 C787 0.950 . S
H811 C789 0.950 . S
C812 C813 1.349 . S
C812 C814 1.327 . S
C812 H837 0.950 . S
C813 C812 1.349 . S
C813 C829 1.349 . S
C814 C812 1.327 . S
C814 C833 1.429 . S
C814 H838 0.950 . S
C815 C832 1.574 . S
C815 C834 1.368 . S
C815 H839 0.949 . S
H816 C820 0.949 . S
C817 C818 1.349 . S
C817 C819 1.327 . S
C817 H840 0.950 . S
C818 C817 1.349 . S
C818 C830 1.349 . S
C819 C817 1.327 . S
C819 C835 1.429 . S
C819 H841 0.950 . S
C820 H816 0.949 . S
C820 C828 1.574 . S
C820 C836 1.368 . S
H821 C829 0.950 . S
H822 C827 0.950 . S
H823 C828 0.949 . S
H824 C830 0.950 . S
H825 C831 0.950 . S
H826 C832 0.949 . S
C827 H822 0.950 . S
C827 C829 1.327 . S
C827 C833 1.429 . S
C828 C820 1.574 . S
C828 H823 0.949 . S
C828 C834 1.368 . S
C829 C813 1.349 . S
C829 H821 0.950 . S
C829 C827 1.327 . S
C830 C818 1.349 . S
C830 H824 0.950 . S
C830 C831 1.327 . S
C831 H825 0.950 . S
C831 C830 1.327 . S
C831 C835 1.429 . S
C832 C815 1.574 . S
C832 H826 0.949 . S
C832 C836 1.368 . S
C833 C814 1.429 . S
C833 C827 1.429 . S
C833 C834 1.523 . S
C834 C815 1.368 . S
C834 C828 1.368 . S
C834 C833 1.523 . S
C835 C819 1.429 . S
C835 C831 1.429 . S
C835 C836 1.523 . S
C836 C820 1.368 . S
C836 C832 1.368 . S
C836 C835 1.523 . S
H837 C812 0.950 . S
H838 C814 0.950 . S
H839 C815 0.949 . S
H840 C817 0.950 . S
H841 C819 0.950 . S
C842 C843 1.349 . S
C842 C844 1.327 . S
C842 H867 0.950 . S
C843 C842 1.349 . S
C843 C859 1.349 . S
C844 C842 1.327 . S
C844 C863 1.429 . S
C844 H868 0.950 . S
C845 C862 1.574 . S
C845 C864 1.368 . S
C845 H869 0.949 . S
H846 C850 0.949 . S
C847 C848 1.349 . S
C847 C849 1.327 . S
C847 H870 0.950 . S
C848 C847 1.349 . S
C848 C860 1.349 . S
C849 C847 1.327 . S
C849 C865 1.429 . S
C849 H871 0.950 . S
C850 H846 0.949 . S
C850 C858 1.574 . S
C850 C866 1.368 . S
H851 C859 0.950 . S
H852 C857 0.950 . S
H853 C858 0.949 . S
H854 C860 0.950 . S
H855 C861 0.950 . S
H856 C862 0.949 . S
C857 H852 0.950 . S
C857 C859 1.327 . S
C857 C863 1.429 . S
C858 C850 1.574 . S
C858 H853 0.949 . S
C858 C864 1.368 . S
C859 C843 1.349 . S
C859 H851 0.950 . S
C859 C857 1.327 . S
C860 C848 1.349 . S
C860 H854 0.950 . S
C860 C861 1.327 . S
C861 H855 0.950 . S
C861 C860 1.327 . S
C861 C865 1.429 . S
C862 C845 1.574 . S
C862 H856 0.949 . S
C862 C866 1.368 . S
C863 C844 1.429 . S
C863 C857 1.429 . S
C863 C864 1.523 . S
C864 C845 1.368 . S
C864 C858 1.368 . S
C864 C863 1.523 . S
C865 C849 1.429 . S
C865 C861 1.429 . S
C865 C866 1.523 . S
C866 C850 1.368 . S
C866 C862 1.368 . S
C866 C865 1.523 . S
H867 C842 0.950 . S
H868 C844 0.950 . S
H869 C845 0.949 . S
H870 C847 0.950 . S
H871 C849 0.950 . S
C872 C873 1.349 . S
C872 C874 1.327 1_545 S
C872 H897 0.950 . S
C873 C872 1.349 . S
C873 C889 1.349 1_556 S
C874 C872 1.327 1_565 S
C874 C893 1.429 . S
C874 H898 0.950 . S
C875 C892 1.574 . S
C875 C894 1.368 1_554 S
C875 H899 0.949 . S
H876 C880 0.949 . S
C877 C878 1.349 . S
C877 C879 1.327 . S
C877 H900 0.950 1_556 S
C878 C877 1.349 . S
C878 C890 1.349 . S
C879 C877 1.327 . S
C879 C895 1.429 . S
C879 H901 0.950 1_556 S
C880 H876 0.949 . S
C880 C888 1.574 . S
C880 C896 1.368 . S
H881 C889 0.950 . S
H882 C887 0.950 . S
H883 C888 0.949 . S
H884 C890 0.950 . S
H885 C891 0.950 . S
H886 C892 0.949 . S
C887 H882 0.950 . S
C887 C889 1.327 1_565 S
C887 C893 1.429 1_554 S
C888 C880 1.574 . S
C888 H883 0.949 . S
C888 C894 1.368 . S
C889 C873 1.349 1_554 S
C889 H881 0.950 . S
C889 C887 1.327 1_545 S
C890 C878 1.349 . S
C890 H884 0.950 . S
C890 C891 1.327 . S
C891 H885 0.950 . S
C891 C890 1.327 . S
C891 C895 1.429 . S
C892 C875 1.574 . S
C892 H886 0.949 . S
C892 C896 1.368 1_554 S
C893 C874 1.429 . S
C893 C887 1.429 1_556 S
C893 C894 1.523 . S
C894 C875 1.368 1_556 S
C894 C888 1.368 . S
C894 C893 1.523 . S
C895 C879 1.429 . S
C895 C891 1.429 . S
C895 C896 1.523 . S
C896 C880 1.368 . S
C896 C892 1.368 1_556 S
C896 C895 1.523 . S
H897 C872 0.950 . S
H898 C874 0.950 . S
H899 C875 0.949 . S
H900 C877 0.950 1_554 S
H901 C879 0.950 1_554 S
C902 C903 1.349 . S
C902 C904 1.303 1_455 S
C902 H927 0.950 . S
C903 C902 1.349 . S
C903 C919 1.349 1_554 S
C904 C902 1.303 1_655 S
C904 C923 1.452 . S
C904 H928 0.952 . S
C905 C922 1.570 1_556 S
C905 C924 1.368 1_556 S
C905 H929 0.949 . S
H906 C910 0.949 . S
C907 C908 1.349 . S
C907 C909 1.327 . S
C907 H930 0.950 . S
C908 C907 1.349 . S
C908 C920 1.349 . S
C909 C907 1.327 . S
C909 C925 1.429 . S
C909 H931 0.950 1_554 S
C910 H906 0.949 . S
C910 C918 1.574 . S
C910 C926 1.368 . S
H911 C919 0.950 . S
H912 C917 0.950 . S
H913 C918 0.949 . S
H914 C920 0.950 . S
H915 C921 0.950 . S
H916 C922 0.934 1_556 S
C917 H912 0.950 . S
C917 C919 1.327 1_655 S
C917 C923 1.429 1_556 S
C918 C910 1.574 . S
C918 H913 0.949 . S
C918 C924 1.368 . S
C919 C903 1.349 1_556 S
C919 H911 0.950 . S
C919 C917 1.327 1_455 S
C920 C908 1.349 . S
C920 H914 0.950 . S
C920 C921 1.327 . S
C921 H915 0.950 . S
C921 C920 1.327 . S
C921 C925 1.429 . S
C922 C905 1.570 1_554 S
C922 H916 0.934 1_554 S
C922 C926 1.389 . S
C923 C904 1.452 . S
C923 C917 1.429 1_554 S
C923 C924 1.523 . S
C924 C905 1.368 1_554 S
C924 C918 1.368 . S
C924 C923 1.523 . S
C925 C909 1.429 . S
C925 C921 1.429 . S
C925 C926 1.523 . S
C926 C910 1.368 . S
C926 C922 1.389 . S
C926 C925 1.523 . S
H927 C902 0.950 . S
H928 C904 0.952 . S
H929 C905 0.949 . S
H930 C907 0.950 . S
H931 C909 0.950 1_556 S
C932 C933 1.349 . S
C932 C934 1.327 1_565 S
C932 H957 0.950 . S
C933 C932 1.349 . S
C933 C949 1.349 1_556 S
C934 C932 1.327 1_545 S
C934 C953 1.429 . S
C934 H958 0.950 . S
C935 C952 1.574 1_554 S
C935 C954 1.368 1_554 S
C935 H959 0.949 . S
H936 C940 0.949 . S
C937 C938 1.349 . S
C937 C939 1.327 . S
C937 H960 0.950 . S
C938 C937 1.349 . S
C938 C950 1.349 . S
C939 C937 1.327 . S
C939 C955 1.429 . S
C939 H961 0.950 . S
C940 H936 0.949 . S
C940 C948 1.574 . S
C940 C956 1.368 . S
H941 C949 0.950 . S
H942 C947 0.950 . S
H943 C948 0.949 . S
H944 C950 0.950 . S
H945 C951 0.950 . S
H946 C952 0.949 1_554 S
C947 H942 0.950 . S
C947 C949 1.327 1_545 S
C947 C953 1.429 1_554 S
C948 C940 1.574 . S
C948 H943 0.949 . S
C948 C954 1.368 . S
C949 C933 1.349 1_554 S
C949 H941 0.950 . S
C949 C947 1.327 1_565 S
C950 C938 1.349 . S
C950 H944 0.950 . S
C950 C951 1.327 . S
C951 H945 0.950 . S
C951 C950 1.327 . S
C951 C955 1.429 . S
C952 C935 1.574 1_556 S
C952 H946 0.949 1_556 S
C952 C956 1.368 . S
C953 C934 1.429 . S
C953 C947 1.429 1_556 S
C953 C954 1.523 . S
C954 C935 1.368 1_556 S
C954 C948 1.368 . S
C954 C953 1.523 . S
C955 C939 1.429 . S
C955 C951 1.429 . S
C955 C956 1.523 . S
C956 C940 1.368 . S
C956 C952 1.368 . S
C956 C955 1.523 . S
H957 C932 0.950 . S
H958 C934 0.950 . S
H959 C935 0.949 . S
H960 C937 0.950 . S
H961 C939 0.950 . S
C962 C963 1.349 . S
C962 C964 1.327 1_655 S
C962 H987 0.950 . S
C963 C962 1.349 . S
C963 C979 1.349 1_554 S
C964 C962 1.327 1_455 S
C964 C983 1.429 . S
C964 H988 0.950 . S
C965 C982 1.574 . S
C965 C984 1.368 1_556 S
C965 H989 0.949 . S
H966 C970 0.949 . S
C967 C968 1.349 . S
C967 C969 1.327 . S
C967 H990 0.964 . S
C968 C967 1.349 . S
C968 C980 1.349 . S
C969 C967 1.327 . S
C969 C985 1.429 . S
C969 H991 0.950 1_554 S
C970 H966 0.949 . S
C970 C978 1.574 . S
C970 C986 1.368 . S
H971 C979 0.950 . S
H972 C977 0.950 . S
H973 C978 0.949 . S
H974 C980 0.950 . S
H975 C981 0.950 . S
H976 C982 0.949 . S
C977 H972 0.950 . S
C977 C979 1.327 1_455 S
C977 C983 1.429 1_556 S
C978 C970 1.574 . S
C978 H973 0.949 . S
C978 C984 1.368 . S
C979 C963 1.349 1_556 S
C979 H971 0.950 . S
C979 C977 1.327 1_655 S
C980 C968 1.349 . S
C980 H974 0.950 . S
C980 C981 1.327 . S
C981 H975 0.950 . S
C981 C980 1.327 . S
C981 C985 1.429 . S
C982 C965 1.574 . S
C982 H976 0.949 . S
C982 C986 1.368 1_556 S
C983 C964 1.429 . S
C983 C977 1.429 1_554 S
C983 C984 1.523 . S
C984 C965 1.368 1_554 S
C984 C978 1.368 . S
C984 C983 1.523 . S
C985 C969 1.429 . S
C985 C981 1.429 . S
C985 C986 1.523 . S
C986 C970 1.368 . S
C986 C982 1.368 1_554 S
C986 C985 1.523 . S
H987 C962 0.950 . S
H988 C964 0.950 . S
H989 C965 0.949 . S
H990 C967 0.964 . S
H991 C969 0.950 1_556 S
C992 C993 1.349 . S
C992 C994 1.327 . S
C992 H1017 0.950 . S
C993 C992 1.349 . S
C993 C1009 1.349 . S
C994 C992 1.327 . S
C994 C1013 1.429 . S
C994 H1018 0.950 . S
C995 C1012 1.574 . S
C995 C1014 1.368 . S
C995 H1019 0.949 . S
H996 C1000 0.949 . S
C997 C998 1.349 . S
C997 C999 1.327 . S
C997 H1020 0.950 . S
C998 C997 1.349 . S
C998 C1010 1.349 . S
C999 C997 1.327 . S
C999 C1015 1.429 . S
C999 H1021 0.950 . S
C1000 H996 0.949 . S
C1000 C1008 1.574 . S
C1000 C1016 1.368 . S
H1001 C1009 0.950 . S
H1002 C1007 0.950 . S
H1003 C1008 0.949 . S
H1004 C1010 0.950 . S
H1005 C1011 0.950 . S
H1006 C1012 0.949 . S
C1007 H1002 0.950 . S
C1007 C1009 1.327 . S
C1007 C1013 1.429 . S
C1008 C1000 1.574 . S
C1008 H1003 0.949 . S
C1008 C1014 1.368 . S
C1009 C993 1.349 . S
C1009 H1001 0.950 . S
C1009 C1007 1.327 . S
C1010 C998 1.349 . S
C1010 H1004 0.950 . S
C1010 C1011 1.327 . S
C1011 H1005 0.950 . S
C1011 C1010 1.327 . S
C1011 C1015 1.429 . S
C1012 C995 1.574 . S
C1012 H1006 0.949 . S
C1012 C1016 1.368 . S
C1013 C994 1.429 . S
C1013 C1007 1.429 . S
C1013 C1014 1.523 . S
C1014 C995 1.368 . S
C1014 C1008 1.368 . S
C1014 C1013 1.523 . S
C1015 C999 1.429 . S
C1015 C1011 1.429 . S
C1015 C1016 1.523 . S
C1016 C1000 1.368 . S
C1016 C1012 1.368 . S
C1016 C1015 1.523 . S
H1017 C992 0.950 . S
H1018 C994 0.950 . S
H1019 C995 0.949 . S
H1020 C997 0.950 . S
H1021 C999 0.950 . S
C1022 C1023 1.349 . S
C1022 C1024 1.327 . S
C1022 H1047 0.950 . S
C1023 C1022 1.349 . S
C1023 C1039 1.349 . S
C1024 C1022 1.327 . S
C1024 C1043 1.429 . S
C1024 H1048 0.950 . S
C1025 C1042 1.574 . S
C1025 C1044 1.368 . S
C1025 H1049 0.949 . S
H1026 C1030 0.949 . S
C1027 C1028 1.349 . S
C1027 C1029 1.327 . S
C1027 H1050 0.950 . S
C1028 C1027 1.349 . S
C1028 C1040 1.349 . S
C1029 C1027 1.327 . S
C1029 C1045 1.429 . S
C1029 H1051 0.950 . S
C1030 H1026 0.949 . S
C1030 C1038 1.574 . S
C1030 C1046 1.368 . S
H1031 C1039 0.950 . S
H1032 C1037 0.950 . S
H1033 C1038 0.949 . S
H1034 C1040 0.950 . S
H1035 C1041 0.950 . S
H1036 C1042 0.949 . S
C1037 H1032 0.950 . S
C1037 C1039 1.327 . S
C1037 C1043 1.429 . S
C1038 C1030 1.574 . S
C1038 H1033 0.949 . S
C1038 C1044 1.368 . S
C1039 C1023 1.349 . S
C1039 H1031 0.950 . S
C1039 C1037 1.327 . S
C1040 C1028 1.349 . S
C1040 H1034 0.950 . S
C1040 C1041 1.327 . S
C1041 H1035 0.950 . S
C1041 C1040 1.327 . S
C1041 C1045 1.429 . S
C1042 C1025 1.574 . S
C1042 H1036 0.949 . S
C1042 C1046 1.368 . S
C1043 C1024 1.429 . S
C1043 C1037 1.429 . S
C1043 C1044 1.523 . S
C1044 C1025 1.368 . S
C1044 C1038 1.368 . S
C1044 C1043 1.523 . S
C1045 C1029 1.429 . S
C1045 C1041 1.429 . S
C1045 C1046 1.523 . S
C1046 C1030 1.368 . S
C1046 C1042 1.368 . S
C1046 C1045 1.523 . S
H1047 C1022 0.950 . S
H1048 C1024 0.950 . S
H1049 C1025 0.949 . S
H1050 C1027 0.950 . S
H1051 C1029 0.950 . S
C1052 C1053 1.349 . S
C1052 C1054 1.327 . S
C1052 H1077 0.950 . S
C1053 C1052 1.349 . S
C1053 C1069 1.349 . S
C1054 C1052 1.327 . S
C1054 C1073 1.429 . S
C1054 H1078 0.950 . S
C1055 C1072 1.574 . S
C1055 C1074 1.368 . S
C1055 H1079 0.949 . S
H1056 C1060 0.949 . S
C1057 C1058 1.349 . S
C1057 C1059 1.327 . S
C1057 H1080 0.950 . S
C1058 C1057 1.349 . S
C1058 C1070 1.349 . S
C1059 C1057 1.327 . S
C1059 C1075 1.429 . S
C1059 H1081 0.950 . S
C1060 H1056 0.949 . S
C1060 C1068 1.574 . S
C1060 C1076 1.368 . S
H1061 C1069 0.950 . S
H1062 C1067 0.950 . S
H1063 C1068 0.949 . S
H1064 C1070 0.950 . S
H1065 C1071 0.950 . S
H1066 C1072 0.949 . S
C1067 H1062 0.950 . S
C1067 C1069 1.327 . S
C1067 C1073 1.429 . S
C1068 C1060 1.574 . S
C1068 H1063 0.949 . S
C1068 C1074 1.368 . S
C1069 C1053 1.349 . S
C1069 H1061 0.950 . S
C1069 C1067 1.327 . S
C1070 C1058 1.349 . S
C1070 H1064 0.950 . S
C1070 C1071 1.327 . S
C1071 H1065 0.950 . S
C1071 C1070 1.327 . S
C1071 C1075 1.429 . S
C1072 C1055 1.574 . S
C1072 H1066 0.949 . S
C1072 C1076 1.368 . S
C1073 C1054 1.429 . S
C1073 C1067 1.429 . S
C1073 C1074 1.523 . S
C1074 C1055 1.368 . S
C1074 C1068 1.368 . S
C1074 C1073 1.523 . S
C1075 C1059 1.429 . S
C1075 C1071 1.429 . S
C1075 C1076 1.523 . S
C1076 C1060 1.368 . S
C1076 C1072 1.368 . S
C1076 C1075 1.523 . S
H1077 C1052 0.950 . S
H1078 C1054 0.950 . S
H1079 C1055 0.949 . S
H1080 C1057 0.950 . S
H1081 C1059 0.950 . S
C1082 C1083 1.349 . S
C1082 C1084 1.327 . S
C1082 H1107 0.950 . S
C1083 C1082 1.349 . S
C1083 C1099 1.349 . S
C1084 C1082 1.327 . S
C1084 C1103 1.429 . S
C1084 H1108 0.950 . S
C1085 C1102 1.574 . S
C1085 C1104 1.368 . S
C1085 H1109 0.949 . S
H1086 C1090 0.949 . S
C1087 C1088 1.349 . S
C1087 C1089 1.327 . S
C1087 H1110 0.950 . S
C1088 C1087 1.349 . S
C1088 C1100 1.349 . S
C1089 C1087 1.327 . S
C1089 C1105 1.429 . S
C1089 H1111 0.950 . S
C1090 H1086 0.949 . S
C1090 C1098 1.574 . S
C1090 C1106 1.368 . S
H1091 C1099 0.950 . S
H1092 C1097 0.950 . S
H1093 C1098 0.949 . S
H1094 C1100 0.950 . S
H1095 C1101 0.950 . S
H1096 C1102 0.949 . S
C1097 H1092 0.950 . S
C1097 C1099 1.327 . S
C1097 C1103 1.429 . S
C1098 C1090 1.574 . S
C1098 H1093 0.949 . S
C1098 C1104 1.368 . S
C1099 C1083 1.349 . S
C1099 H1091 0.950 . S
C1099 C1097 1.327 . S
C1100 C1088 1.349 . S
C1100 H1094 0.950 . S
C1100 C1101 1.327 . S
C1101 H1095 0.950 . S
C1101 C1100 1.327 . S
C1101 C1105 1.429 . S
C1102 C1085 1.574 . S
C1102 H1096 0.949 . S
C1102 C1106 1.368 . S
C1103 C1084 1.429 . S
C1103 C1097 1.429 . S
C1103 C1104 1.523 . S
C1104 C1085 1.368 . S
C1104 C1098 1.368 . S
C1104 C1103 1.523 . S
C1105 C1089 1.429 . S
C1105 C1101 1.429 . S
C1105 C1106 1.523 . S
C1106 C1090 1.368 . S
C1106 C1102 1.368 . S
C1106 C1105 1.523 . S
H1107 C1082 0.950 . S
H1108 C1084 0.950 . S
H1109 C1085 0.949 . S
H1110 C1087 0.950 . S
H1111 C1089 0.950 . S
C273 C15 0.405 1_565 S
C278 C239 0.553 . S
C303 C56 0.406 1_655 S
C308 C139 0.553 . S
C333 C171 0.553 . S
C338 C83 0.405 1_545 S
C363 C117 0.406 1_455 S
C368 C207 0.553 . S
C393 C151 0.405 . S
C398 C105 0.553 . S
C423 C192 0.406 . S
C428 C3 0.553 . S
C453 C219 0.405 . S
C458 C35 0.553 . S
C483 C260 0.406 . S
C488 C71 0.553 . S
C513 C28 1.597 . S
C518 C96 1.597 . S
C543 C130 1.597 . S
C548 C40 1.597 . S
C573 C164 1.597 . S
C578 C232 1.597 . S
C603 C176 1.597 . S
C608 C244 1.597 . S
C633 C205 1.591 . S
C638 C22 1.741 . S
C663 C49 1.740 . S
C668 C241 1.590 . S
C693 C137 1.591 . S
C698 C90 1.741 . S
C723 C124 1.740 . S
C728 C173 1.590 . S
C753 C158 1.741 . S
C758 C69 1.591 . S
C783 C103 1.590 . S
C788 C185 1.740 . S
C813 C226 1.741 . S
C818 C1 1.591 . S
C843 C37 1.590 . S
C848 C253 1.740 . S
C873 C17 1.890 1_556 S
C878 C62 1.912 . S
C903 C51 1.890 1_554 S
C908 C74 1.912 . S
C933 C85 1.890 1_556 S
C938 C108 1.912 . S
C963 C119 1.890 1_554 S
C968 C6 1.912 . S
C993 C198 1.912 . S
C998 C153 1.890 . S
C1023 C210 1.912 . S
C1028 C187 1.890 . S
C1053 C221 1.890 . S
C1058 C266 1.912 . S
C1083 C142 1.912 . S
C1088 C255 1.890 . S
