# Generated by pormake.
# Topology wjd, (6)-cn, num edge types: 1
# Building blocks:
#     Node 0, Type 0, BuildingBlock: KUMBUR_clean_sbu_0, # of connection points: 6
#     Node 1, Type 0, BuildingBlock: KUMBUR_clean_sbu_0, # of connection points: 6
#     Node 2, Type 0, BuildingBlock: KUMBUR_clean_sbu_0, # of connection points: 6
#     Node 3, Type 0, BuildingBlock: KUMBUR_clean_sbu_0, # of connection points: 6
#     Node 4, Type 0, BuildingBlock: KUMBUR_clean_sbu_0, # of connection points: 6
#     Node 5, Type 0, BuildingBlock: KUMBUR_clean_sbu_0, # of connection points: 6
#     Node 6, Type 0, BuildingBlock: KUMBUR_clean_sbu_0, # of connection points: 6
#     Node 7, Type 0, BuildingBlock: KUMBUR_clean_sbu_0, # of connection points: 6
#     Node 8, Type 0, BuildingBlock: KUMBUR_clean_sbu_0, # of connection points: 6
#     Node 9, Type 0, BuildingBlock: KUMBUR_clean_sbu_0, # of connection points: 6
#     Node 10, Type 0, BuildingBlock: KUMBUR_clean_sbu_0, # of connection points: 6
#     Node 11, Type 0, BuildingBlock: KUMBUR_clean_sbu_0, # of connection points: 6
#     Edge 12, Type (0, 0), None
#     Edge 13, Type (0, 0), None
#     Edge 14, Type (0, 0), None
#     Edge 15, Type (0, 0), None
#     Edge 16, Type (0, 0), None
#     Edge 17, Type (0, 0), None
#     Edge 18, Type (0, 0), None
#     Edge 19, Type (0, 0), None
#     Edge 20, Type (0, 0), None
#     Edge 21, Type (0, 0), None
#     Edge 22, Type (0, 0), None
#     Edge 23, Type (0, 0), None
#     Edge 24, Type (0, 0), None
#     Edge 25, Type (0, 0), None
#     Edge 26, Type (0, 0), None
#     Edge 27, Type (0, 0), None
#     Edge 28, Type (0, 0), None
#     Edge 29, Type (0, 0), None
#     Edge 30, Type (0, 0), None
#     Edge 31, Type (0, 0), None
#     Edge 32, Type (0, 0), None
#     Edge 33, Type (0, 0), None
#     Edge 34, Type (0, 0), None
#     Edge 35, Type (0, 0), None
#     Edge 36, Type (0, 0), None
#     Edge 37, Type (0, 0), None
#     Edge 38, Type (0, 0), None
#     Edge 39, Type (0, 0), None
#     Edge 40, Type (0, 0), None
#     Edge 41, Type (0, 0), None
#     Edge 42, Type (0, 0), None
#     Edge 43, Type (0, 0), None
#     Edge 44, Type (0, 0), None
#     Edge 45, Type (0, 0), None
#     Edge 46, Type (0, 0), None
#     Edge 47, Type (0, 0), None
# Relax obj value: 0.090
# Max RMSD: 0.254
# Mean RMSD: 0.254
data_MOF--net-wjd--node1-KUMBUR_clean_sbu_0--edge1-none
_symmetry_space_group_name_H-M    P1
_symmetry_Int_Tables_number       1
_symmetry_cell_setting            triclinic
loop_
_symmetry_equiv_pos_as_xyz
'x, y, z'
_cell_length_a     22.43793
_cell_length_b     22.424047
_cell_length_c     24.703842
_cell_angle_alpha  89.936121
_cell_angle_beta   90.029149
_cell_angle_gamma 120.00983
loop_
_atom_site_label
_atom_site_type_symbol
_atom_site_fract_x
_atom_site_fract_y
_atom_site_fract_z
_atom_type_partial_charge
Tb0 Tb 0.40123 0.21975 0.05864 0.0
C1 C 0.32585 0.9535 0.17407 0.0
C2 C 0.45914 1.00677 0.15563 0.0
C3 C 0.45344 0.94574 0.25456 0.0
C4 C 0.38752 0.9956 0.14386 0.0
C5 C 0.32482 0.88441 0.26086 0.0
C6 C 0.49123 0.99624 0.20729 0.0
C7 C 0.20889 0.9238 0.29181 0.0
N8 N 0.27282 0.98228 0.17658 0.0
C9 C 0.21902 0.97249 0.22673 0.0
C10 C 0.26187 0.88113 0.30994 0.0
Tb11 Tb 0.28761 0.0419 0.09573 0.0
N12 N 0.37004 1.00597 0.09447 0.0
C13 C 0.4072 1.00264 0.05193 0.0
C14 C 0.4816 0.98755 0.11017 0.0
C15 C 0.45854 0.98705 0.05859 0.0
H16 H 0.18576 0.99356 0.21994 0.0
H17 H 0.48162 0.97661 0.02404 0.0
H18 H 0.54633 0.0164 0.20625 0.0
H19 H 0.23251 0.89977 0.30755 0.0
H20 H 0.40593 0.02128 0.01414 0.0
H21 H 0.25151 0.29259 0.16627 0.0
H22 H 0.50184 0.95466 0.11701 0.0
H23 H 0.46703 0.33271 0.90266 0.0
H24 H 0.33833 0.27213 0.1496 0.0
H25 H 0.45094 0.37033 0.8266 0.0
H26 H 0.49256 0.94783 0.28201 0.0
H27 H 0.19866 0.32602 0.09874 0.0
H28 H 0.21276 0.40753 0.02053 0.0
H29 H 0.26383 0.85436 0.34974 0.0
H30 H 0.35773 0.45691 0.92588 0.0
N31 N 0.33529 0.26376 0.0632 0.0
C32 C 0.31285 0.27182 0.11332 0.0
C33 C 0.22748 0.30248 0.08596 0.0
C34 C 0.24382 0.30646 0.03263 0.0
C35 C 0.26132 0.2869 0.12429 0.0
C36 C 0.31867 0.28138 0.01535 0.0
H37 H 0.41471 0.46414 0.82888 0.0
N38 N 0.36599 0.30289 -0.0155 0.0
C39 C 0.43035 0.38241 0.86203 0.0
C40 C 0.40039 0.3487 0.94852 0.0
C41 C 0.42302 0.34654 0.92535 0.0
C42 C 0.41488 0.43501 0.86362 0.0
C43 C 0.39219 0.43554 0.91685 0.0
O44 O 0.51413 0.25935 0.05069 0.0
O45 O 0.39227 0.11971 0.06598 0.0
O46 O 0.31295 0.096 0.17229 0.0
O47 O 0.38806 0.21203 0.15218 0.0
O48 O 0.45936 0.19511 0.11638 0.0
O49 O 0.47873 0.30559 0.10606 0.0
O50 O 0.18867 1.00832 0.11843 0.0
O51 O 0.30031 0.1445 0.08673 0.0
O52 O 0.35937 0.12044 -0.00534 0.0
O53 O 0.29405 1.00362 0.02197 0.0
O54 O 0.23167 0.07115 0.03834 0.0
O55 O 0.20486 0.94712 0.06263 0.0
C56 C 0.44802 0.1388 0.09404 0.0
C57 C 0.58777 0.38193 0.05823 0.0
C58 C 0.65876 0.51103 0.05527 0.0
C59 C 0.61763 0.44764 0.08484 0.0
C60 C 0.66292 0.50645 -0.00132 0.0
C61 C 0.60622 0.38257 0.0033 0.0
C62 C 0.63894 0.44324 0.97354 0.0
C63 C 0.35298 0.16071 0.18821 0.0
C64 C 0.53404 0.31183 0.08295 0.0
C65 C 0.31719 0.45476 0.94774 0.0
C66 C 0.24119 0.38769 -0.00105 0.0
C67 C 0.24836 0.13025 0.05711 0.0
C68 C 0.09121 0.90663 0.10158 0.0
C69 C 0.03156 0.87796 0.06872 0.0
C70 C 0.96866 0.82752 0.09167 0.0
C71 C 0.9658 0.81649 0.14786 0.0
C72 C 0.08642 0.88232 0.15388 0.0
C73 C 0.02483 0.83752 0.17706 0.0
C74 C 0.3235 0.04863 -0.0175 0.0
C75 C 0.15916 0.96013 0.08345 0.0
H76 H 0.61135 0.44948 0.12813 0.0
H77 H 0.69257 0.55179 0.97421 0.0
H78 H 0.59031 0.33517 -0.01866 0.0
H79 H 0.64786 0.44133 0.93065 0.0
H80 H 0.03518 0.89117 0.02629 0.0
H81 H 0.91848 0.78527 0.16842 0.0
H82 H 0.13079 0.89018 0.17339 0.0
H83 H 0.02356 0.81545 0.21622 0.0
Tb84 Tb 0.77306 0.74473 0.32934 0.0
C85 C 0.97526 0.64152 0.49483 0.0
C86 C 0.09759 0.80074 0.42006 0.0
C87 C 0.16435 0.72364 0.51167 0.0
C88 C 0.99718 0.72555 0.42976 0.0
C89 C 0.0656 0.64547 0.53315 0.0
C90 C 0.17882 0.80253 0.46005 0.0
C91 C 0.96433 0.57292 0.56601 0.0
N92 N 0.96886 0.67707 0.4571 0.0
C93 C 0.94737 0.61305 0.51266 0.0
C94 C 0.03358 0.59518 0.573 0.0
Tb95 Tb 0.85667 0.64797 0.37442 0.0
N96 N 0.96676 0.71243 0.38062 0.0
C97 C 1.00289 0.72993 0.33292 0.0
C98 C 0.11326 0.81821 0.36894 0.0
C99 C 0.07153 0.77968 0.32677 0.0
H100 H 0.88613 0.56681 0.52914 0.0
H101 H 0.09326 0.78807 0.28656 0.0
H102 H 0.22988 0.83409 0.44356 0.0
H103 H 0.92574 0.53371 0.59218 0.0
H104 H 0.97813 0.70507 0.29596 0.0
H105 H 0.53929 0.58997 0.45338 0.0
H106 H 0.16546 0.84727 0.36673 0.0
H107 H 0.70456 0.86087 0.20377 0.0
H108 H 0.65606 0.62501 0.42878 0.0
H109 H 0.61366 0.83697 0.14839 0.0
H110 H 0.12279 0.68062 0.5294 0.0
H111 H 0.46756 0.61979 0.39776 0.0
H112 H 0.43302 0.65733 0.31135 0.0
H113 H 0.05626 0.58096 0.60529 0.0
H114 H 0.4318 0.66313 0.20248 0.0
N115 N 0.65533 0.66657 0.35114 0.0
C116 C 0.6266 0.63488 0.39984 0.0
C117 C 0.51834 0.63325 0.3843 0.0
C118 C 0.53603 0.65291 0.33146 0.0
C119 C 0.55935 0.61638 0.41544 0.0
C120 C 0.60836 0.64987 0.31181 0.0
H121 H 0.5136 0.72287 0.12498 0.0
N122 N 0.68761 0.72855 0.2474 0.0
C123 C 0.61217 0.79242 0.16675 0.0
C124 C 0.63104 0.6543 0.24444 0.0
C125 C 0.67239 0.80459 0.20471 0.0
C126 C 0.55235 0.72361 0.1516 0.0
C127 C 0.53693 0.65841 0.1814 0.0
O128 O 0.85053 0.84246 0.3092 0.0
O129 O 0.87051 0.7372 0.33454 0.0
O130 O 0.8005 0.69808 0.43884 0.0
O131 O 0.73696 0.74904 0.40419 0.0
O132 O 0.86972 0.81024 0.37588 0.0
O133 O 0.78716 0.83628 0.37364 0.0
O134 O 0.79258 0.53512 0.36583 0.0
O135 O 0.75893 0.64872 0.36878 0.0
O136 O 0.78598 0.70221 0.25676 0.0
O137 O 0.86761 0.67047 0.27989 0.0
O138 O 0.76583 0.5747 0.32915 0.0
O139 O 0.88655 0.58451 0.32547 0.0
C140 C 0.91236 0.7922 0.35937 0.0
C141 C 0.8653 0.94978 0.33207 0.0
C142 C 0.88664 0.06756 0.34272 0.0
C143 C 0.87943 1.00627 0.36688 0.0
C144 C 0.87717 0.06816 0.28673 0.0
C145 C 0.86893 0.96217 0.27657 0.0
C146 C 0.85858 1.01213 0.25598 0.0
C147 C 0.76165 0.73369 0.44555 0.0
C148 C 0.84487 0.87748 0.34849 0.0
C149 C 0.47214 0.65714 0.22129 0.0
C150 C 0.47575 0.65771 0.29079 0.0
C151 C 0.72066 0.58988 0.34493 0.0
C152 C 0.84575 0.46493 0.36232 0.0
C153 C 0.87939 0.43029 0.3379 0.0
C154 C 0.89292 0.38273 0.36901 0.0
C155 C 0.87323 0.37342 0.4236 0.0
C156 C 0.81594 0.43935 0.4135 0.0
C157 C 0.83033 0.39611 0.44342 0.0
C158 C 0.82618 0.67761 0.24263 0.0
C159 C 0.83493 0.5237 0.33829 0.0
H160 H 0.88219 1.00198 0.41036 0.0
H161 H 0.88725 0.11247 0.26475 0.0
H162 H 0.87753 0.93233 0.24828 0.0
H163 H 0.84297 1.01082 0.21482 0.0
H164 H 0.89338 0.43887 0.29552 0.0
H165 H 0.87867 0.33636 0.44811 0.0
H166 H 0.78222 0.45442 0.43249 0.0
H167 H 0.80385 0.37642 0.48132 0.0
Tb168 Tb 0.80923 0.18075 0.0619 0.0
C169 C 0.08116 0.37582 0.16841 0.0
C170 C 0.03126 0.45964 0.15367 0.0
C171 C 0.10052 0.51565 0.24993 0.0
C172 C 0.0382 0.39697 0.14036 0.0
C173 C 0.1583 0.44449 0.25229 0.0
C174 C 0.04695 0.50355 0.20528 0.0
C175 C 0.11586 0.28875 0.2842 0.0
N176 N 0.04971 0.29338 0.17179 0.0
C177 C 0.06084 0.24948 0.22136 0.0
C178 C 0.16342 0.38485 0.3003 0.0
Tb179 Tb 0.9875 0.24994 0.09077 0.0
N180 N 0.02177 0.36807 0.09082 0.0
C181 C 0.02176 0.40844 0.04919 0.0
C182 C 0.0528 0.50151 0.10822 0.0
C183 C 0.04499 0.47703 0.05606 0.0
H184 H 0.02747 0.19549 0.21877 0.0
H185 H 0.05666 0.51064 0.02139 0.0
H186 H 0.02848 0.53994 0.20555 0.0
H187 H 0.14348 0.33667 0.29888 0.0
H188 H 0.99746 0.3875 0.01227 0.0
H189 H 0.7418 0.95736 0.16264 0.0
H190 H 0.09247 0.55349 0.11445 0.0
H191 H 0.69759 0.13952 0.90498 0.0
H192 H 0.75934 0.06502 0.14839 0.0
H193 H 0.66102 0.08749 0.8274 0.0
H194 H 0.10221 0.55431 0.27797 0.0
H195 H 0.7152 0.87283 0.09371 0.0
H196 H 0.62546 0.80747 0.0155 0.0
H197 H 0.19574 0.41484 0.33797 0.0
H198 H 0.57507 0.90512 0.92366 0.0
N199 N 0.76708 0.07152 0.06249 0.0
C200 C 0.75781 0.03924 0.11177 0.0
C201 C 0.73325 0.92522 0.08151 0.0
C202 C 0.72639 0.93915 0.02877 0.0
C203 C 0.74523 0.97291 0.12101 0.0
C204 C 0.75047 0.03954 0.01392 0.0
H205 H 0.56622 0.95848 0.82843 0.0
N206 N 0.72838 0.06616 -0.0158 0.0
C207 C 0.64968 0.05401 0.86228 0.0
C208 C 0.68221 0.0555 0.94884 0.0
C209 C 0.68434 0.08104 0.9262 0.0
C210 C 0.59621 0.98631 0.86328 0.0
C211 C 0.59589 0.96124 0.91599 0.0
O212 O 0.76439 0.25033 0.06121 0.0
O213 O 0.90796 0.27449 0.06162 0.0
O214 O 0.93752 0.21876 0.1691 0.0
O215 O 0.82053 0.17697 0.15484 0.0
O216 O 0.83591 0.26843 0.11464 0.0
O217 O 0.72225 0.16456 0.1118 0.0
O218 O 0.08037 0.25665 0.11107 0.0
O219 O 0.88579 0.15666 0.09206 0.0
O220 O 0.90904 0.2396 -0.00112 0.0
O221 O 0.02543 0.30025 0.01833 0.0
O222 O 0.95628 0.15771 0.04194 0.0
O223 O 0.03067 0.20492 0.03849 0.0
C224 C 0.88961 0.31213 0.0888 0.0
C225 C 0.64205 0.19754 0.06905 0.0
C226 C 0.5134 0.14517 0.06812 0.0
C227 C 0.57699 0.16609 0.09712 0.0
C228 C 0.51729 0.14978 0.01108 0.0
C229 C 0.64068 0.21556 0.01425 0.0
C230 C 0.57992 0.18731 -0.01494 0.0
C231 C 0.87482 0.19754 0.18827 0.0
C232 C 0.71269 0.21346 0.09254 0.0
C233 C 0.57749 0.86606 0.9444 0.0
C234 C 0.64516 0.85614 -0.00557 0.0
C235 C 0.89933 0.11688 0.06434 0.0
C236 C 0.09982 0.16641 0.08298 0.0
C237 C 0.14873 0.15734 0.05293 0.0
C238 C 0.18956 0.13471 0.0806 0.0
C239 C 0.17178 0.1123 0.13399 0.0
C240 C 0.08134 0.13555 0.13325 0.0
C241 C 0.10931 0.09833 0.1541 0.0
C242 C 0.9774 0.27743 -0.02201 0.0
C243 C 0.08169 0.22037 0.0704 0.0
H244 H 0.57598 0.16013 0.14063 0.0
H245 H 0.47229 0.13426 -0.01345 0.0
H246 H 0.68753 0.24747 -0.00822 0.0
H247 H 0.58126 0.19707 0.94198 0.0
H248 H 0.16154 0.1777 0.01273 0.0
H249 H 0.20525 0.10441 0.16068 0.0
H250 H 0.05122 0.14665 0.15934 0.0
H251 H 0.09194 0.07244 0.19237 0.0
Tb252 Tb 0.30192 0.0464 0.33548 0.0
C253 C 0.40255 0.34991 0.50034 0.0
C254 C 0.24403 0.31059 0.42319 0.0
C255 C 0.31655 0.45353 0.51549 0.0
C256 C 0.3208 0.28757 0.43398 0.0
C257 C 0.39565 0.43465 0.53836 0.0
C258 C 0.23956 0.38855 0.46274 0.0
C259 C 0.46815 0.40642 0.57295 0.0
N260 N 0.36876 0.3083 0.4622 0.0
C261 C 0.43068 0.35042 0.51883 0.0
C262 C 0.44446 0.45235 0.57948 0.0
Tb263 Tb 0.40029 0.22605 0.38155 0.0
N264 N 0.33707 0.27384 0.38487 0.0
C265 C 0.32311 0.29711 0.33775 0.0
C266 C 0.22558 0.30692 0.37173 0.0
C267 C 0.26961 0.31133 0.33077 0.0
H268 H 0.47676 0.33575 0.53605 0.0
H269 H 0.26079 0.32433 0.29045 0.0
H270 H 0.20783 0.4073 0.44522 0.0
H271 H 0.50614 0.40613 0.59977 0.0
H272 H 0.35124 0.30084 0.30151 0.0
H273 H 0.46042 0.97117 0.45942 0.0
H274 H 0.18827 0.32079 0.36691 0.0
H275 H 0.17826 0.85004 0.22253 0.0
H276 H 0.42204 0.05026 0.4349 0.0
H277 H 0.19914 0.78362 0.16563 0.0
H278 H 0.35962 0.45559 0.5339 0.0
H279 H 0.43407 0.87116 0.40408 0.0
H280 H 0.39323 0.79615 0.32008 0.0
H281 H 0.45622 0.48735 0.61276 0.0
H282 H 0.37891 0.78281 0.21213 0.0
N283 N 0.38006 1.00699 0.35743 0.0
C284 C 0.4129 1.01128 0.40592 0.0
C285 C 0.41873 0.90714 0.39064 0.0
C286 C 0.39718 0.90362 0.33833 0.0
C287 C 0.43396 0.96447 0.42147 0.0
C288 C 0.39713 0.97738 0.31767 0.0
H289 H 0.31196 0.79827 0.13732 0.0
N290 N 0.3125 0.97298 0.25571 0.0
C291 C 0.24465 0.82841 0.18104 0.0
C292 C 0.38672 0.99155 0.24988 0.0
C293 C 0.23449 0.87794 0.21851 0.0
C294 C 0.31254 0.83765 0.16305 0.0
C295 C 0.3795 0.89008 0.18916 0.0
O296 O 0.20959 0.03527 0.30832 0.0
O297 O 0.31269 0.15079 0.3445 0.0
O298 O 0.34898 0.11776 0.44469 0.0
O299 O 0.29595 1.0029 0.4085 0.0
O300 O 0.23634 0.07576 0.38401 0.0
O301 O 0.20442 0.97623 0.37836 0.0
O302 O 0.51276 0.27384 0.37508 0.0
O303 O 0.39903 0.12777 0.37437 0.0
O304 O 0.35271 0.102 0.26433 0.0
O305 O 0.3714 0.21103 0.28778 0.0
O306 O 0.47209 0.20884 0.33374 0.0
O307 O 0.46479 0.31821 0.33188 0.0
C308 C 0.25852 0.13818 0.36981 0.0
C309 C 0.09489 0.95231 0.33156 0.0
C310 C 0.97724 0.84972 0.33331 0.0
C311 C 0.04049 0.89566 0.3607 0.0
C312 C 0.97102 0.86579 0.27964 0.0
C313 C 0.07656 0.97269 0.28385 0.0
C314 C 1.01615 0.92977 0.25805 0.0
C315 C 0.31206 0.0427 0.45011 0.0
C316 C 0.16968 0.99601 0.34746 0.0
C317 C 0.38547 0.82992 0.22986 0.0
C318 C 0.39055 0.83702 0.29895 0.0
C319 C 0.45762 0.14866 0.34987 0.0
C320 C 0.58332 0.3963 0.36882 0.0
C321 C 0.61487 0.46365 0.34354 0.0
C322 C 0.6644 0.52523 0.37247 0.0
C323 C 0.68096 0.51646 0.42547 0.0
C324 C 0.61172 0.39314 0.41905 0.0
C325 C 0.65927 0.45148 0.44622 0.0
C326 C 0.36673 0.16386 0.24961 0.0
C327 C 0.52485 0.32672 0.34594 0.0
H328 H 0.04777 0.88641 0.40248 0.0
H329 H 0.92781 0.83056 0.25516 0.0
H330 H 0.11101 0.02061 0.2639 0.0
H331 H 1.00791 0.94482 0.21897 0.0
H332 H 0.60266 0.46799 0.30184 0.0
H333 H 0.72007 0.55981 0.44785 0.0
H334 H 0.59652 0.34482 0.43902 0.0
H335 H 0.68185 0.44586 0.48316 0.0
Tb336 Tb 0.84649 0.62741 0.05284 0.0
C337 C 0.65372 0.70907 0.16571 0.0
C338 C 0.57147 0.57464 0.15342 0.0
C339 C 0.51841 0.58962 0.25087 0.0
C340 C 0.63212 0.64471 0.13834 0.0
C341 C 0.58778 0.71858 0.25054 0.0
C342 C 0.52925 0.54742 0.20607 0.0
C343 C 0.74326 0.83466 0.27877 0.0
N344 N 0.73582 0.76078 0.16703 0.0
C345 C 0.78119 0.81804 0.21544 0.0
C346 C 0.64804 0.78512 0.29692 0.0
Tb347 Tb 0.77753 0.73583 0.08778 0.0
N348 N 0.65957 0.65713 0.08852 0.0
C349 C 0.61977 0.61603 0.04728 0.0
C350 C 0.53002 0.54786 0.10814 0.0
C351 C 0.55289 0.56521 0.05558 0.0
H352 H 0.8357 0.84082 0.21244 0.0
H353 H 0.51929 0.53907 0.02164 0.0
H354 H 0.49345 0.49246 0.20763 0.0
H355 H 0.6959 0.814 0.29449 0.0
H356 H 0.64081 0.61532 0.00975 0.0
H357 H 0.07786 0.75171 0.15096 0.0
H358 H 0.47704 0.52932 0.11445 0.0
H359 H 0.88133 0.55942 0.89094 0.0
H360 H 0.96469 0.6717 0.13501 0.0
H361 H 0.93357 0.57621 0.8122 0.0
H362 H 0.48134 0.55319 0.28003 0.0
H363 H 0.15823 0.82257 0.0841 0.0
H364 H 0.21795 0.8012 0.00409 0.0
H365 H 0.61897 0.78776 0.33513 0.0
H366 H 0.114 0.66012 0.90893 0.0
N367 N 0.95569 0.6906 0.05185 0.0
C368 C 0.98982 0.70326 0.10049 0.0
C369 C 0.10487 0.79243 0.07223 0.0
C370 C 0.08889 0.77961 0.01886 0.0
C371 C 0.05884 0.74967 0.11027 0.0
C372 C 0.98646 0.70772 0.00296 0.0
H373 H 0.06569 0.61863 0.81109 0.0
N374 N 0.95764 0.66023 0.97202 0.0
C375 C 0.96725 0.59979 0.84666 0.0
C376 C 0.96632 0.62501 0.93497 0.0
C377 C 0.94058 0.60325 0.91207 0.0
C378 C 0.03517 0.61456 0.84622 0.0
C379 C 0.05818 0.62951 0.90065 0.0
O380 O 0.7762 0.51363 0.05265 0.0
O381 O 0.75352 0.63306 0.05526 0.0
O382 O 0.77703 0.68561 0.16169 0.0
O383 O 0.86151 0.65749 0.14536 0.0
O384 O 0.75914 0.56357 0.10489 0.0
O385 O 0.86287 0.55709 0.10197 0.0
O386 O 0.84275 0.82561 0.12229 0.0
O387 O 0.86642 0.7225 0.08458 0.0
O388 O 0.78837 0.67071 -0.00782 0.0
O389 O 0.732 0.73131 0.01434 0.0
O390 O 0.87014 0.79726 0.03788 0.0
O391 O 0.78491 0.82948 0.0531 0.0
C392 C 0.71547 0.57644 0.08205 0.0
C393 C 0.82743 0.4434 0.06007 0.0
C394 C 0.87863 0.36668 0.0605 0.0
C395 C 0.85915 0.41061 0.08855 0.0
C396 C 0.86861 0.36012 0.00394 0.0
C397 C 0.80734 0.4223 0.00593 0.0
C398 C 0.83136 0.38533 -0.02235 0.0
C399 C 0.82144 0.6686 0.18053 0.0
C400 C 0.81345 0.49897 0.08318 0.0
C401 C 0.15327 0.699 0.93066 0.0
C402 C 0.16906 0.77674 -0.01701 0.0
C403 C 0.90809 0.77702 0.06021 0.0
C404 C 0.88015 0.94 0.09486 0.0
C405 C 0.87843 0.99278 0.06432 0.0
C406 C 0.89932 0.05713 0.08976 0.0
C407 C 0.92844 0.06842 0.14094 0.0
C408 C 0.92272 0.95949 0.14027 0.0
C409 C 0.94597 0.02275 0.16346 0.0
C410 C 0.75154 0.70325 0.97328 0.0
C411 C 0.83473 0.86442 0.08762 0.0
H412 H 0.86751 0.41814 0.13176 0.0
H413 H 0.8822 0.32851 -0.01977 0.0
H414 H 0.7758 0.4377 -0.01652 0.0
H415 H 0.8191 0.37422 0.93512 0.0
H416 H 0.85639 0.98222 0.02427 0.0
H417 H 0.9419 0.11482 0.16277 0.0
H418 H 0.93197 0.92315 0.16137 0.0
H419 H 0.97387 0.035 0.20128 0.0
Tb420 Tb 0.998 0.26539 0.33396 0.0
C421 C 0.69199 0.06437 0.49905 0.0
C422 C 0.7298 0.94591 0.4191 0.0
C423 C 0.58773 0.87443 0.51213 0.0
C424 C 0.75381 0.04591 0.43162 0.0
C425 C 0.60699 0.9721 0.53632 0.0
C426 C 0.65224 0.86303 0.45863 0.0
C427 C 0.63472 0.0722 0.57172 0.0
N428 N 0.73344 0.07274 0.46062 0.0
C429 C 0.6915 0.09166 0.5179 0.0
C430 C 0.58862 1.00248 0.57747 0.0
Tb431 Tb 0.81812 0.18936 0.3822 0.0
N432 N 0.76788 0.07762 0.3831 0.0
C433 C 0.74285 0.04181 0.33559 0.0
C434 C 0.72915 0.93161 0.36652 0.0
C435 C 0.72591 0.9736 0.32708 0.0
H436 H 0.70649 0.1521 0.53612 0.0
H437 H 0.71029 0.95256 0.28673 0.0
H438 H 0.63343 0.81257 0.44102 0.0
H439 H 0.63398 0.10962 0.59911 0.0
H440 H 0.7372 0.06687 0.30051 0.0
H441 H 0.08185 0.50435 0.45274 0.0
H442 H 0.71089 0.87985 0.35946 0.0
H443 H 0.18069 0.32413 0.20873 0.0
H444 H 0.99938 0.38727 0.43139 0.0
H445 H 0.25039 0.41531 0.15392 0.0
H446 H 0.58578 0.91519 0.53107 0.0
H447 H 0.18283 0.57331 0.3952 0.0
H448 H 0.25453 0.60195 0.30878 0.0
H449 H 0.55281 0.97868 0.61022 0.0
H450 H 0.25992 0.5982 0.20013 0.0
N451 N 0.04068 0.38357 0.35414 0.0
C452 C 0.03841 0.4148 0.40176 0.0
C453 C 0.14519 0.52179 0.38333 0.0
C454 C 0.14674 0.50082 0.33136 0.0
C455 C 0.08764 0.48263 0.41545 0.0
C456 C 0.0706 0.42832 0.31342 0.0
H457 H 0.23621 0.51345 0.1257 0.0
N458 N 0.06735 0.34532 0.25082 0.0
C459 C 0.2061 0.41627 0.17003 0.0
C460 C 0.051 0.40261 0.24634 0.0
C461 C 0.15744 0.35732 0.20876 0.0
C462 C 0.19775 0.47569 0.15269 0.0
C463 C 0.14907 0.49305 0.18156 0.0
O464 O 1.00995 0.18101 0.31189 0.0
O465 O 0.89281 0.17553 0.34584 0.0
O466 O 0.92545 0.24474 0.44521 0.0
O467 O 0.03979 0.30323 0.40819 0.0
O468 O 0.96763 0.17109 0.3831 0.0
O469 O 0.06967 0.24294 0.37735 0.0
O470 O 0.77424 0.25759 0.38065 0.0
O471 O 0.91805 0.28487 0.37119 0.0
O472 O 0.94118 0.25557 0.26197 0.0
O473 O 0.82944 0.17301 0.28864 0.0
O474 O 0.83663 0.27609 0.33025 0.0
O475 O 0.72799 0.16841 0.33279 0.0
C476 C 0.9045 0.1331 0.37048 0.0
C477 C 0.10356 0.16439 0.33472 0.0
C478 C 0.20751 0.15342 0.34328 0.0
C479 C 0.15111 0.15618 0.36862 0.0
C480 C 0.21649 0.16532 0.28734 0.0
C481 C 0.10858 0.15602 0.2795 0.0
C482 C 0.171 0.17409 0.25736 0.0
C483 C 1.00024 0.28148 0.45022 0.0
C484 C 0.05145 0.18547 0.35097 0.0
C485 C 0.21366 0.55899 0.21985 0.0
C486 C 0.21162 0.55851 0.28931 0.0
C487 C 0.89757 0.32195 0.34483 0.0
C488 C 0.6519 0.20838 0.37278 0.0
C489 C 0.58469 0.17169 0.34759 0.0
C490 C 0.52269 0.15719 0.37698 0.0
C491 C 0.53092 0.17981 0.43081 0.0
C492 C 0.65446 0.23762 0.42389 0.0
C493 C 0.59561 0.22329 0.45203 0.0
C494 C 0.87677 0.2116 0.24935 0.0
C495 C 0.72148 0.22022 0.34978 0.0
H496 H 0.14632 0.15491 0.41227 0.0
H497 H 0.25717 0.16607 0.26489 0.0
H498 H 0.06615 0.14098 0.25306 0.0
H499 H 0.1831 0.19087 0.21626 0.0
H500 H 0.58076 0.15648 0.30558 0.0
H501 H 0.4872 0.17378 0.45374 0.0
H502 H 0.70269 0.27099 0.44394 0.0
H503 H 0.60058 0.24955 0.48981 0.0
Tb504 Tb 0.04964 0.28981 0.61871 0.0
C505 C 0.35515 0.39729 0.4521 0.0
C506 C 0.31644 0.23694 0.52667 0.0
C507 C 0.46213 0.31508 0.43698 0.0
C508 C 0.29191 0.31301 0.51671 0.0
C509 C 0.4419 0.3933 0.41492 0.0
C510 C 0.39675 0.23578 0.48801 0.0
C511 C 0.41278 0.46513 0.38066 0.0
N512 N 0.31265 0.36178 0.48947 0.0
C513 C 0.35565 0.42564 0.43395 0.0
C514 C 0.46004 0.4431 0.37454 0.0
Tb515 Tb 0.22943 0.39143 0.57135 0.0
N516 N 0.27685 0.32754 0.56605 0.0
C517 C 0.29978 0.31254 0.61287 0.0
C518 C 0.31073 0.21603 0.57756 0.0
C519 C 0.31389 0.25879 0.61915 0.0
H520 H 0.34062 0.47166 0.41705 0.0
H521 H 0.32608 0.24903 0.65942 0.0
H522 H 0.41626 0.20467 0.50551 0.0
H523 H 0.41261 0.50332 0.35385 0.0
H524 H 0.30295 0.33978 0.64948 0.0
H525 H 0.96974 0.44719 0.49732 0.0
H526 H 0.32479 0.17857 0.58202 0.0
H527 H 0.86159 0.16399 0.74062 0.0
H528 H 0.05089 0.41164 0.52014 0.0
H529 H 0.7899 0.18497 0.79322 0.0
H530 H 0.46379 0.35811 0.41901 0.0
H531 H 0.86602 0.41275 0.55184 0.0
H532 H 0.79036 0.36738 0.63585 0.0
H533 H 0.4965 0.45667 0.34208 0.0
H534 H 0.78127 0.35794 0.74447 0.0
N535 N 1.00687 0.365 0.59668 0.0
C536 C 1.01079 0.3993 0.54899 0.0
C537 C 0.90297 0.3984 0.56444 0.0
C538 C 0.89914 0.37465 0.61626 0.0
C539 C 0.96212 0.41818 0.53411 0.0
C540 C 0.97486 0.37876 0.63634 0.0
H541 H 0.8028 0.29705 0.82038 0.0
N542 N 0.97626 0.299 0.69987 0.0
C543 C 0.83468 0.23038 0.77776 0.0
C544 C 0.99219 0.37267 0.70399 0.0
C545 C 0.88476 0.22044 0.7405 0.0
C546 C 0.84222 0.29802 0.79444 0.0
C547 C 0.89177 0.36431 0.7661 0.0
O548 O 0.03866 0.19514 0.6443 0.0
O549 O 0.15472 0.30304 0.60869 0.0
O550 O 0.12212 0.34158 0.508 0.0
O551 O 1.00735 0.28477 0.54453 0.0
O552 O 0.07989 0.22627 0.56899 0.0
O553 O 0.98134 0.19468 0.57575 0.0
O554 O 0.27671 0.50414 0.57876 0.0
O555 O 0.1301 0.38825 0.57999 0.0
O556 O 0.10465 0.33837 0.69053 0.0
O557 O 0.21523 0.36246 0.66507 0.0
O558 O 0.21141 0.46302 0.61884 0.0
O559 O 0.32169 0.45602 0.62085 0.0
C560 C 0.14226 0.24902 0.58331 0.0
C561 C 0.948 0.08376 0.61993 0.0
C562 C 0.84325 0.97058 0.6093 0.0
C563 C 0.90092 0.02937 0.58511 0.0
C564 C 0.83262 0.97299 0.66503 0.0
C565 C 0.94187 0.06938 0.67496 0.0
C566 C 0.87821 0.02607 0.6959 0.0
C567 C 0.0472 0.30367 0.50261 0.0
C568 C 0.99935 0.15701 0.60453 0.0
C569 C 0.82825 0.36525 0.72597 0.0
C570 C 0.83264 0.36694 0.65654 0.0
C571 C 0.1504 0.44713 0.604 0.0
C572 C 0.40001 0.57481 0.58299 0.0
C573 C 0.46829 0.60776 0.60723 0.0
C574 C 0.52949 0.65606 0.57674 0.0
C575 C 0.51923 0.66891 0.52298 0.0
C576 C 0.3959 0.60152 0.53222 0.0
C577 C 0.4537 0.64654 0.50311 0.0
C578 C 0.16774 0.35543 0.70392 0.0
C579 C 0.3304 0.51632 0.60693 0.0
H580 H 0.90683 0.03387 0.54155 0.0
H581 H 0.79015 0.93404 0.68652 0.0
H582 H 0.98412 0.09609 0.70188 0.0
H583 H 0.86435 0.03113 0.73639 0.0
H584 H 0.47363 0.5976 0.64927 0.0
H585 H 0.56189 0.70694 0.49918 0.0
H586 H 0.34707 0.58648 0.51316 0.0
H587 H 0.44722 0.66733 0.46556 0.0
Tb588 Tb 0.19244 0.79961 0.88595 0.0
C589 C 0.38191 0.07451 0.78254 0.0
C590 C 0.46643 0.0248 0.79563 0.0
C591 C 0.52169 0.09599 0.69982 0.0
C592 C 0.40397 0.0319 0.81 0.0
C593 C 0.44967 0.15276 0.69907 0.0
C594 C 0.51044 0.04201 0.74386 0.0
C595 C 0.29371 0.1097 0.66784 0.0
N596 N 0.29942 0.0423 0.77936 0.0
C597 C 0.25502 0.05374 0.73046 0.0
C598 C 0.38968 0.1581 0.65158 0.0
Tb599 Tb 0.25628 0.97884 0.85926 0.0
N600 N 0.37527 0.01497 0.8595 0.0
C601 C 0.41602 0.01516 0.90086 0.0
C602 C 0.50742 0.03997 0.84119 0.0
C603 C 0.48355 0.03341 0.89328 0.0
H604 H 0.20113 0.02055 0.73385 0.0
H605 H 0.51688 0.04131 0.92752 0.0
H606 H 0.54713 0.02395 0.74271 0.0
H607 H 0.3415 0.13788 0.65308 0.0
H608 H 0.39585 0.99336 0.93819 0.0
H609 H 0.97713 0.73985 0.77182 0.0
H610 H 0.56065 0.07432 0.8356 0.0
H611 H 0.13738 0.67798 0.03425 0.0
H612 H 0.08228 0.75465 0.78946 0.0
H613 H 0.08126 0.63696 0.1084 0.0
H614 H 0.56044 0.09861 0.67139 0.0
H615 H 0.88884 0.70507 0.83758 0.0
H616 H 0.81375 0.62355 0.91796 0.0
H617 H 0.41959 0.1916 0.61433 0.0
H618 H 0.90247 0.56332 0.01167 0.0
N619 N 0.08306 0.7556 0.87597 0.0
C620 C 0.05564 0.75307 0.82553 0.0
C621 C 0.93977 0.72507 0.85163 0.0
C622 C 0.94874 0.71664 0.90503 0.0
C623 C 0.99044 0.74159 0.81403 0.0
C624 C 0.04595 0.73512 0.92224 0.0
H625 H 0.9552 0.54062 0.1041 0.0
N626 N 0.06887 0.71053 0.95299 0.0
C627 C 0.05083 0.62199 0.07163 0.0
C628 C 0.05548 0.66438 -0.01193 0.0
C629 C 0.08046 0.665 0.01104 0.0
C630 C 0.98268 0.57107 0.06951 0.0
C631 C 0.9584 0.58063 0.01959 0.0
O632 O 0.26455 0.76099 0.89727 0.0
O633 O 0.28409 0.90021 0.88415 0.0
O634 O 0.21566 0.9265 0.78184 0.0
O635 O 0.1931 0.81396 0.79391 0.0
O636 O 0.27701 0.82981 0.82872 0.0
O637 O 0.19104 0.71842 0.83453 0.0
O638 O 0.21112 0.02223 0.91137 0.0
O639 O 0.16518 0.87624 0.86286 0.0
O640 O 0.24714 0.89662 0.95256 0.0
O641 O 0.3052 0.01489 0.9315 0.0
O642 O 0.16897 0.9469 0.91423 0.0
O643 O 0.26205 0.07135 0.83866 0.0
C644 C 0.32129 0.88309 0.85502 0.0
C645 C 0.22324 0.6413 0.88241 0.0
C646 C 0.16032 0.51188 0.88446 0.0
C647 C 0.18578 0.57596 0.85501 0.0
C648 C 0.16653 0.51623 0.94146 0.0
C649 C 0.23935 0.6391 0.93759 0.0
C650 C 0.20749 0.57849 0.96706 0.0
C651 C 0.20165 0.86591 0.76165 0.0
C652 C 0.23926 0.71262 0.86038 0.0
C653 C 0.86495 0.56831 -0.00956 0.0
C654 C 0.86175 0.63912 0.93893 0.0
C655 C 0.12743 0.88808 0.89484 0.0
C656 C 0.17275 0.09172 0.86723 0.0
C657 C 0.16565 0.14153 0.89749 0.0
C658 C 0.14257 0.18234 0.87066 0.0
C659 C 0.11384 0.1621 0.81969 0.0
C660 C 0.14015 0.07281 0.81755 0.0
C661 C 0.10279 0.10112 0.7978 0.0
C662 C 0.28265 0.96686 0.96894 0.0
C663 C 0.22629 0.07304 0.87936 0.0
H664 H 0.17836 0.57488 0.81166 0.0
H665 H 0.14902 0.47103 0.96632 0.0
H666 H 0.2713 0.68563 0.96036 0.0
H667 H 0.21658 0.57952 0.01022 0.0
H668 H 0.18726 0.15455 0.93729 0.0
H669 H 0.09725 0.19197 0.79717 0.0
H670 H 0.14781 0.04036 0.79146 0.0
H671 H 0.07498 0.08307 0.76017 0.0
Tb672 Tb 0.75174 0.77169 0.61551 0.0
C673 C 0.64419 0.97052 0.44985 0.0
C674 C 0.805 0.09042 0.52445 0.0
C675 C 0.72681 0.15984 0.43666 0.0
C676 C 0.72859 0.98998 0.5138 0.0
C677 C 0.64853 0.06216 0.41394 0.0
C678 C 0.80618 0.17276 0.48705 0.0
C679 C 0.57785 0.96234 0.37797 0.0
N680 N 0.67979 0.96261 0.48678 0.0
C681 C 0.61594 0.94315 0.43142 0.0
C682 C 0.59966 0.03179 0.37284 0.0
Tb683 Tb 0.64968 0.8491 0.56817 0.0
N684 N 0.71372 0.9602 0.56313 0.0
C685 C 0.72824 0.99783 0.61002 0.0
C686 C 0.82593 0.10482 0.57533 0.0
C687 C 0.78229 0.06544 0.61664 0.0
H688 H 0.56965 0.8825 0.41404 0.0
H689 H 0.79168 0.08713 0.65695 0.0
H690 H 0.83726 0.22319 0.50486 0.0
H691 H 0.54071 0.92446 0.35045 0.0
H692 H 0.70039 0.9736 0.64642 0.0
H693 H 0.59556 0.5357 0.49159 0.0
H694 H 0.86398 0.15611 0.57996 0.0
H695 H 0.87228 0.70454 0.74034 0.0
H696 H 0.6316 0.65333 0.51495 0.0
H697 H 0.8467 0.60924 0.79236 0.0
H698 H 0.6839 0.11909 0.4183 0.0
H699 H 0.62696 0.46507 0.54667 0.0
H700 H 0.67116 0.43367 0.63088 0.0
H701 H 0.58692 0.05593 0.34069 0.0
H702 H 0.67487 0.43157 0.73965 0.0
N703 N 0.67813 0.65495 0.59095 0.0
C704 C 0.64411 0.62511 0.54318 0.0
C705 C 0.64321 0.51704 0.55884 0.0
C706 C 0.66716 0.53688 0.61055 0.0
C707 C 0.62456 0.55721 0.52831 0.0
C708 C 0.66351 0.6089 0.63024 0.0
H709 H 0.73281 0.51163 0.81683 0.0
N710 N 0.7405 0.68798 0.69613 0.0
C711 C 0.80284 0.61071 0.77599 0.0
C712 C 0.66655 0.63114 0.69792 0.0
C713 C 0.81594 0.67244 0.73906 0.0
C714 C 0.73388 0.55114 0.79086 0.0
C715 C 0.66939 0.5364 0.76054 0.0
O716 O 0.84545 0.85428 0.64344 0.0
O717 O 0.73821 0.86333 0.60604 0.0
O718 O 0.70045 0.79344 0.50429 0.0
O719 O 0.75894 0.73698 0.54045 0.0
O720 O 0.81571 0.86612 0.56655 0.0
O721 O 0.84773 0.7989 0.57452 0.0
O722 O 0.53687 0.78318 0.57452 0.0
O723 O 0.65301 0.75294 0.57718 0.0
O724 O 0.70257 0.77716 0.68723 0.0
O725 O 0.67677 0.8627 0.66209 0.0
O726 O 0.57911 0.76032 0.61702 0.0
O727 O 0.58439 0.87568 0.61764 0.0
C728 C 0.79281 0.90535 0.5815 0.0
C729 C 0.9575 0.87597 0.61994 0.0
C730 C 0.07066 0.88438 0.60939 0.0
C731 C 1.01199 0.88333 0.5852 0.0
C732 C 0.06857 0.87238 0.66521 0.0
C733 C 0.97157 0.88464 0.67506 0.0
C734 C 1.01642 0.86655 0.69635 0.0
C735 C 0.73978 0.75795 0.49858 0.0
C736 C 0.8845 0.8539 0.60409 0.0
C737 C 0.66944 0.47224 0.72073 0.0
C738 C 0.67161 0.47652 0.65133 0.0
C739 C 0.59474 0.71501 0.6023 0.0
C740 C 0.46576 0.83547 0.58012 0.0
C741 C 0.43268 0.87002 0.60548 0.0
C742 C 0.38414 0.88343 0.5759 0.0
C743 C 0.371 0.86132 0.52193 0.0
C744 C 0.43881 0.80551 0.52922 0.0
C745 C 0.39295 0.81819 0.50119 0.0
C746 C 0.68381 0.82192 0.70068 0.0
C747 C 0.52437 0.82409 0.60328 0.0
H748 H 1.00753 0.88463 0.54163 0.0
H749 H 0.10781 0.86968 0.68679 0.0
H750 H 0.94378 0.89896 0.70197 0.0
H751 H 1.01266 0.84941 0.7371 0.0
H752 H 0.44306 0.88467 0.64765 0.0
H753 H 0.33331 0.86696 0.49856 0.0
H754 H 0.45416 0.77245 0.50932 0.0
H755 H 0.37208 0.79187 0.46327 0.0
Tb756 Tb 0.22921 0.39557 0.89193 0.0
C757 C 0.95943 0.31528 0.78169 0.0
C758 C 1.00859 0.44929 0.79619 0.0
C759 C 0.94227 0.43566 0.69805 0.0
C760 C 1.00085 0.37943 0.8104 0.0
C761 C 0.88518 0.30678 0.69591 0.0
C762 C 0.99385 0.47724 0.7438 0.0
C763 C 0.92911 0.19383 0.66665 0.0
N764 N 0.99128 0.26463 0.77977 0.0
C765 C 0.98179 0.2096 0.73088 0.0
C766 C 0.88189 0.24216 0.64856 0.0
Tb767 Tb 0.05184 0.2838 0.8612 0.0
N768 N 1.01683 0.36725 0.86028 0.0
C769 C 1.0173 0.40829 0.90155 0.0
C770 C 0.99136 0.47369 0.84167 0.0
C771 C 0.9986 0.45716 0.89381 0.0
H772 H 1.01402 0.18807 0.73553 0.0
H773 H 0.98963 0.48189 0.92797 0.0
H774 H 1.01197 0.53195 0.74286 0.0
H775 H 0.90189 0.21398 0.65089 0.0
H776 H 0.03933 0.41 0.93907 0.0
H777 H 0.29995 0.24629 0.78348 0.0
H778 H 0.95426 0.48936 0.83628 0.0
H779 H 0.34058 0.45933 0.04902 0.0
H780 H 0.28274 0.33558 0.80094 0.0
H781 H 0.37742 0.44079 0.12538 0.0
H782 H 0.94141 0.47261 0.66932 0.0
H783 H 0.33008 0.19015 0.85105 0.0
H784 H 0.41224 0.20368 0.9293 0.0
H785 H 0.85052 0.23947 0.61014 0.0
H786 H 0.4627 0.3479 0.02508 0.0
N787 N 0.27271 0.33006 0.88707 0.0
C788 C 0.28125 0.30856 0.8368 0.0
C789 C 0.30853 0.2207 0.86382 0.0
C790 C 0.3131 0.23712 0.91721 0.0
C791 C 0.29454 0.25594 0.82553 0.0
C792 C 0.28927 0.31263 0.93491 0.0
H793 H 0.47086 0.40475 0.12244 0.0
N794 N 0.31113 0.35974 0.96627 0.0
C795 C 0.3886 0.41994 0.08965 0.0
C796 C 0.35664 0.39323 0.00246 0.0
C797 C 0.35424 0.41543 0.02597 0.0
C798 C 0.4416 0.40507 0.08786 0.0
C799 C 0.44215 0.38303 0.03433 0.0
O800 O 0.27187 0.50892 0.89699 0.0
O801 O 0.12997 0.38959 0.88843 0.0
O802 O 0.10495 0.29883 0.78364 0.0
O803 O 0.21908 0.38232 0.79919 0.0
O804 O 0.20285 0.45233 0.83404 0.0
O805 O 0.31506 0.46948 0.84284 0.0
O806 O 1.00812 0.19555 0.91352 0.0
O807 O 0.15382 0.29373 0.86408 0.0
O808 O 0.12958 0.35436 0.9548 0.0
O809 O 1.01315 0.29586 0.93319 0.0
O810 O 0.08204 0.22483 0.91382 0.0
O811 O 0.95888 0.1972 0.84079 0.0
C812 C 0.14926 0.4444 0.85898 0.0
C813 C 0.39341 0.58089 0.8865 0.0
C814 C 0.52191 0.65433 0.88565 0.0
C815 C 0.45776 0.61193 0.85771 0.0
C816 C 0.51909 0.6585 0.94255 0.0
C817 C 0.39573 0.60088 0.94114 0.0
C818 C 0.45714 0.63473 0.9693 0.0
C819 C 0.1676 0.34277 0.7651 0.0
C820 C 0.32289 0.52629 0.86402 0.0
C821 C 0.46007 0.30723 0.00299 0.0
C822 C 0.3929 0.23244 0.95106 0.0
C823 C 0.1404 0.24185 0.89373 0.0
C824 C 0.93895 0.08766 0.87029 0.0
C825 C 0.8887 0.02957 0.89975 0.0
C826 C 0.84927 0.96662 0.87132 0.0
C827 C 0.8713 0.95998 0.82053 0.0
C828 C 0.96017 0.07538 0.82114 0.0
C829 C 0.93328 1.0103 0.8006 0.0
C830 C 0.06044 0.32129 0.97416 0.0
C831 C 0.95693 0.15985 0.88195 0.0
H832 H 0.45788 0.60485 0.81439 0.0
H833 H 0.56464 0.68761 0.9665 0.0
H834 H 0.34926 0.58541 0.96427 0.0
H835 H 0.4568 0.64435 0.01224 0.0
H836 H 0.87458 0.03552 0.94033 0.0
H837 H 0.84225 0.91443 0.79674 0.0
H838 H 0.99183 0.11633 0.7954 0.0
H839 H 0.95279 1.00162 0.76334 0.0
Tb840 Tb 0.26974 0.99063 0.61773 0.0
C841 C 0.07057 0.68842 0.44737 0.0
C842 C 0.95094 0.72863 0.52275 0.0
C843 C 0.88112 0.5855 0.43072 0.0
C844 C 0.05077 0.75128 0.51287 0.0
C845 C 0.97927 0.60411 0.40869 0.0
C846 C 0.86885 0.65043 0.48318 0.0
C847 C 0.08033 0.63092 0.37573 0.0
N848 N 0.07807 0.73029 0.48536 0.0
C849 C 0.09838 0.68744 0.4295 0.0
C850 C 1.01075 0.58566 0.36846 0.0
Tb851 Tb 0.19124 0.81179 0.56761 0.0
N852 N 0.08017 0.76505 0.56222 0.0
C853 C 0.04203 0.74162 0.60884 0.0
C854 C 0.93566 0.73327 0.57376 0.0
C855 C 0.97459 0.7284 0.61514 0.0
H856 H 0.15923 0.70134 0.41321 0.0
H857 H 0.95246 0.71538 0.65529 0.0
H858 H 0.81844 0.63134 0.50089 0.0
H859 H 0.11852 0.62966 0.34957 0.0
H860 H 0.06548 0.73695 0.64528 0.0
H861 H 0.51033 0.07747 0.49893 0.0
H862 H 0.88422 0.71943 0.57812 0.0
H863 H 0.32884 0.17352 0.74383 0.0
H864 H 0.39256 0.99313 0.5203 0.0
H865 H 0.42071 0.24361 0.79824 0.0
H866 H 0.92231 0.58335 0.41274 0.0
H867 H 0.57787 0.17834 0.55571 0.0
H868 H 0.60617 0.25072 0.64175 0.0
H869 H 0.98794 0.55011 0.33544 0.0
H870 H 0.60334 0.25492 0.75063 0.0
N871 N 0.38837 0.03478 0.59704 0.0
C872 C 0.41988 0.03274 0.54955 0.0
C873 C 0.52631 0.14081 0.56744 0.0
C874 C 0.50529 0.14245 0.61921 0.0
C875 C 0.48768 0.08278 0.53578 0.0
C876 C 0.43339 0.06566 0.6373 0.0
H877 H 0.51903 0.22962 0.8257 0.0
N878 N 0.35094 0.06127 0.70022 0.0
C879 C 0.42154 0.19936 0.78191 0.0
C880 C 0.40864 0.04541 0.7042 0.0
C881 C 0.36238 0.15073 0.74323 0.0
C882 C 0.48131 0.19124 0.79868 0.0
C883 C 0.499 0.1431 0.76916 0.0
O884 O 0.18622 1.00227 0.64196 0.0
O885 O 0.17754 0.8858 0.6063 0.0
O886 O 0.24955 0.92022 0.50601 0.0
O887 O 0.30797 0.0341 0.5442 0.0
O888 O 0.17601 0.96166 0.56812 0.0
O889 O 0.24564 0.06146 0.57521 0.0
O890 O 0.2561 0.76401 0.57374 0.0
O891 O 0.28786 0.91085 0.57806 0.0
O892 O 0.26122 0.93348 0.68906 0.0
O893 O 0.1758 0.82339 0.66117 0.0
O894 O 0.27977 0.82803 0.61585 0.0
O895 O 0.16317 0.7191 0.61659 0.0
C896 C 0.13599 0.89901 0.5817 0.0
C897 C 0.16732 0.09418 0.61894 0.0
C898 C 0.15737 0.19824 0.61009 0.0
C899 C 0.15973 0.14177 0.58489 0.0
C900 C 0.16937 0.20731 0.66601 0.0
C901 C 0.15867 0.09894 0.67411 0.0
C902 C 0.17775 0.16171 0.69608 0.0
C903 C 0.287 0.9952 0.50186 0.0
C904 C 0.18904 0.04296 0.60275 0.0
C905 C 0.56428 0.20866 0.73083 0.0
C906 C 0.56313 0.20739 0.66127 0.0
C907 C 0.32545 0.88946 0.6023 0.0
C908 C 0.20336 0.64079 0.57955 0.0
C909 C 0.16894 0.57346 0.60534 0.0
C910 C 0.15718 0.51167 0.5766 0.0
C911 C 0.18054 0.52032 0.52296 0.0
C912 C 0.23358 0.64377 0.52876 0.0
C913 C 0.22222 0.58528 0.50144 0.0
C914 C 0.21584 0.8694 0.70083 0.0
C915 C 0.21481 0.71064 0.60253 0.0
H916 H 0.15872 0.137 0.54124 0.0
H917 H 0.17077 0.2482 0.68836 0.0
H918 H 0.14338 0.05621 0.70041 0.0
H919 H 0.1954 0.17439 0.73697 0.0
H920 H 0.15344 0.5694 0.64729 0.0
H921 H 0.17637 0.47711 0.50038 0.0
H922 H 0.26626 0.69214 0.50854 0.0
H923 H 0.2493 0.59081 0.46399 0.0
Tb924 Tb 0.63712 0.83971 0.88773 0.0
C925 C 0.71973 0.65289 0.7774 0.0
C926 C 0.58459 0.57063 0.78656 0.0
C927 C 0.60227 0.51847 0.69016 0.0
C928 C 0.65443 0.6306 0.80386 0.0
C929 C 0.73116 0.58832 0.69215 0.0
C930 C 0.55894 0.52937 0.73346 0.0
C931 C 0.84732 0.74574 0.66607 0.0
N932 N 0.77146 0.73518 0.77713 0.0
C933 C 0.82919 0.78145 0.7299 0.0
C934 C 0.79868 0.65042 0.64664 0.0
Tb935 Tb 0.74897 0.77368 0.85911 0.0
N936 N 0.66518 0.65534 0.85472 0.0
C937 C 0.62336 0.61182 0.89448 0.0
C938 C 0.55381 0.5276 0.83011 0.0
C939 C 0.57174 0.54619 0.88336 0.0
H940 H 0.85182 0.83523 0.7353 0.0
H941 H 0.54444 0.51071 0.91605 0.0
H942 H 0.50393 0.49429 0.73035 0.0
H943 H 0.82739 0.69865 0.64973 0.0
H944 H 0.62212 0.62891 0.93357 0.0
H945 H 0.78727 0.06226 0.78197 0.0
H946 H 0.52805 0.47468 0.82102 0.0
H947 H 0.57244 0.88098 0.04582 0.0
H948 H 0.69849 0.95457 0.79802 0.0
H949 H 0.5838 0.93242 0.12217 0.0
H950 H 0.56675 0.48156 0.66082 0.0
H951 H 0.84005 0.14772 0.85054 0.0
H952 H 0.82731 0.21383 0.93176 0.0
H953 H 0.8029 0.62229 0.60854 0.0
H954 H 0.6834 0.11591 0.02717 0.0
N955 N 0.70221 0.94877 0.88414 0.0
C956 C 0.72448 0.97983 0.83426 0.0
C957 C 0.81052 0.09512 0.86276 0.0
C958 C 0.79394 0.08173 0.91611 0.0
C959 C 0.77678 0.04633 0.82386 0.0
C960 C 0.71917 0.98163 0.93242 0.0
H961 H 0.62055 0.06179 0.12258 0.0
N962 N 0.67199 0.95492 0.96411 0.0
C963 C 0.60719 0.96629 0.08767 0.0
C964 C 0.63887 0.96537 0.00114 0.0
C965 C 0.61608 0.93954 0.0241 0.0
C966 C 0.62299 0.03441 0.08757 0.0
C967 C 0.64825 0.05967 0.03536 0.0
O968 O 0.52358 0.76948 0.88995 0.0
O969 O 0.64327 0.74662 0.88617 0.0
O970 O 0.73676 0.81324 0.78147 0.0
O971 O 0.65306 0.84404 0.79537 0.0
O972 O 0.57894 0.75426 0.83206 0.0
O973 O 0.56544 0.8548 0.83836 0.0
O974 O 0.83502 0.81754 0.91381 0.0
O975 O 0.73914 0.86599 0.86164 0.0
O976 O 0.67789 0.7795 0.94862 0.0
O977 O 0.73334 0.71925 0.92978 0.0
O978 O 0.80682 0.86228 0.91241 0.0
O979 O 0.83581 0.7675 0.84168 0.0
C980 C 0.58793 0.70979 0.85798 0.0
C981 C 0.45286 0.82024 0.88103 0.0
C982 C 0.37823 0.87384 0.8816 0.0
C983 C 0.42089 0.85313 0.85288 0.0
C984 C 0.37586 0.86742 0.93869 0.0
C985 C 0.43283 0.8013 0.93557 0.0
C986 C 0.40001 0.82909 0.96468 0.0
C987 C 0.6934 0.83225 0.76215 0.0
C988 C 0.50776 0.80518 0.858 0.0
C989 C 0.72379 0.15511 0.00551 0.0
C990 C 0.79827 0.16483 0.95233 0.0
C991 C 0.78976 0.90374 0.89251 0.0
C992 C 0.94413 0.85598 0.87359 0.0
C993 C 1.00167 0.86186 0.90279 0.0
C994 C 0.06491 0.88638 0.87454 0.0
C995 C 0.07285 0.91898 0.82529 0.0
C996 C 0.95701 0.89134 0.82529 0.0
C997 C 0.02212 0.93011 0.80532 0.0
C998 C 0.70853 0.7425 0.97032 0.0
C999 C 0.87163 0.80165 0.88377 0.0
H1000 H 0.42732 0.86059 0.80954 0.0
H1001 H 0.34577 0.88218 0.96318 0.0
H1002 H 0.44778 0.76932 0.95798 0.0
H1003 H 0.39068 0.81843 0.00758 0.0
H1004 H 0.99491 0.83893 0.94244 0.0
H1005 H 0.11908 0.93693 0.80216 0.0
H1006 H 0.91636 0.88287 0.79954 0.0
H1007 H 0.03065 0.95881 0.76832 0.0
loop_
_geom_bond_atom_site_label_1
_geom_bond_atom_site_label_2
_geom_bond_distance
_geom_bond_site_symmetry_2
_ccdc_geom_bond_type
Tb0 N31 2.660 . S
Tb0 N38 2.600 1_554 S
Tb0 O44 2.546 1_554 S
Tb0 O45 2.610 . S
Tb0 O47 2.320 . S
Tb0 O48 2.552 . S
Tb0 O49 2.413 . S
Tb0 O51 2.362 . S
Tb0 O52 2.421 1_554 S
Tb0 C64 2.833 . S
C1 C4 1.432 . S
C1 C5 1.414 . S
C1 N8 1.359 1_565 S
C2 C4 1.417 . S
C2 C6 1.432 . S
C2 C14 1.410 . S
C3 C5 1.444 . S
C3 C6 1.317 . S
C3 H26 0.929 . S
C4 C1 1.432 . S
C4 C2 1.417 . S
C4 N12 1.360 . S
C5 C1 1.414 . S
C5 C3 1.444 . S
C5 C10 1.385 . S
C6 C2 1.432 . S
C6 C3 1.317 . S
C6 H18 0.930 . S
C7 C9 1.392 1_565 S
C7 C10 1.370 . S
C7 H19 0.931 . S
N8 C1 1.359 1_545 S
N8 C9 1.327 . S
N8 Tb11 2.600 . S
C9 C7 1.392 1_545 S
C9 N8 1.327 . S
C9 H16 0.930 . S
C10 C5 1.385 . S
C10 C7 1.370 . S
C10 H29 0.930 . S
Tb11 N8 2.600 . S
Tb11 N12 2.660 1_545 S
Tb11 O45 2.362 . S
Tb11 O46 2.421 . S
Tb11 O50 2.546 1_545 S
Tb11 O51 2.610 . S
Tb11 O53 2.320 . S
Tb11 O54 2.552 . S
Tb11 O55 2.413 1_545 S
Tb11 C75 2.833 1_545 S
N12 C4 1.360 . S
N12 Tb11 2.660 1_565 S
N12 C13 1.305 . S
C13 N12 1.305 . S
C13 C15 1.407 . S
C13 H20 0.930 1_565 S
C14 C2 1.410 . S
C14 C15 1.345 . S
C14 H22 0.930 . S
C15 C13 1.407 . S
C15 C14 1.345 . S
C15 H17 0.930 . S
H16 C9 0.930 . S
H17 C15 0.930 . S
H18 C6 0.930 . S
H19 C7 0.931 . S
H20 C13 0.930 1_545 S
H21 C35 0.930 . S
H22 C14 0.930 . S
H23 C41 0.930 . S
H24 C32 0.930 . S
H25 C39 0.931 . S
H26 C3 0.929 . S
H27 C33 0.930 . S
H28 C66 0.930 . S
H29 C10 0.930 . S
H30 C65 0.929 . S
N31 Tb0 2.660 . S
N31 C32 1.305 . S
N31 C36 1.360 . S
C32 H24 0.930 . S
C32 N31 1.305 . S
C32 C35 1.407 . S
C33 H27 0.930 . S
C33 C34 1.410 . S
C33 C35 1.345 . S
C34 C33 1.410 . S
C34 C36 1.417 . S
C34 C66 1.432 . S
C35 H21 0.930 . S
C35 C32 1.407 . S
C35 C33 1.345 . S
C36 N31 1.360 . S
C36 C34 1.417 . S
C36 C40 1.432 1_554 S
H37 C42 0.930 . S
N38 Tb0 2.600 1_556 S
N38 C40 1.359 . S
N38 C41 1.327 . S
C39 H25 0.931 . S
C39 C41 1.392 . S
C39 C42 1.370 . S
C40 C36 1.432 1_556 S
C40 N38 1.359 . S
C40 C43 1.414 . S
C41 H23 0.930 . S
C41 N38 1.327 . S
C41 C39 1.392 . S
C42 H37 0.930 . S
C42 C39 1.370 . S
C42 C43 1.385 . S
C43 C40 1.414 . S
C43 C42 1.385 . S
C43 C65 1.444 . S
O44 Tb0 2.546 1_556 S
O44 C64 1.251 1_556 S
O45 Tb0 2.610 . S
O45 Tb11 2.362 . S
O45 C56 1.283 . S
O46 Tb11 2.421 . S
O46 C63 1.262 . S
O47 Tb0 2.320 . S
O47 C63 1.260 . S
O48 Tb0 2.552 . S
O48 C56 1.243 . S
O49 Tb0 2.413 . S
O49 C64 1.256 . S
O50 Tb11 2.546 1_565 S
O50 C75 1.251 . S
O51 Tb0 2.362 . S
O51 Tb11 2.610 . S
O51 C67 1.283 . S
O52 Tb0 2.421 1_556 S
O52 C74 1.262 . S
O53 Tb11 2.320 . S
O53 C74 1.260 1_554 S
O54 Tb11 2.552 . S
O54 C67 1.243 . S
O55 Tb11 2.413 1_565 S
O55 C75 1.256 . S
C56 O45 1.283 . S
C56 O48 1.243 . S
C57 C59 1.382 . S
C57 C61 1.393 1_554 S
C57 C64 1.500 . S
C58 C59 1.400 . S
C58 C60 1.384 . S
C59 C57 1.382 . S
C59 C58 1.400 . S
C59 H76 0.930 . S
C60 C58 1.384 . S
C60 C62 1.392 1_554 S
C60 H77 0.931 . S
C61 C57 1.393 1_556 S
C61 C62 1.401 . S
C61 H78 0.930 . S
C62 C60 1.392 1_556 S
C62 C61 1.401 . S
C62 H79 0.930 . S
C63 O46 1.262 . S
C63 O47 1.260 . S
C64 Tb0 2.833 . S
C64 O44 1.251 1_554 S
C64 O49 1.256 . S
C64 C57 1.500 . S
C65 H30 0.929 . S
C65 C43 1.444 . S
C65 C66 1.317 1_556 S
C66 H28 0.930 . S
C66 C34 1.432 . S
C66 C65 1.317 1_554 S
C67 O51 1.283 . S
C67 O54 1.243 . S
C68 C69 1.382 . S
C68 C72 1.393 . S
C68 C75 1.500 . S
C69 C68 1.382 . S
C69 C70 1.400 1_455 S
C69 H80 0.930 . S
C70 C69 1.400 1_655 S
C70 C71 1.384 . S
C71 C70 1.384 . S
C71 C73 1.392 1_655 S
C71 H81 0.931 . S
C72 C68 1.393 . S
C72 C73 1.401 . S
C72 H82 0.930 . S
C73 C71 1.392 1_455 S
C73 C72 1.401 . S
C73 H83 0.930 1_455 S
C74 O52 1.262 . S
C74 O53 1.260 1_556 S
C75 Tb11 2.833 1_565 S
C75 O50 1.251 . S
C75 O55 1.256 . S
C75 C68 1.500 . S
H76 C59 0.930 . S
H77 C60 0.931 . S
H78 C61 0.930 . S
H79 C62 0.930 . S
H80 C69 0.930 . S
H81 C71 0.931 . S
H82 C72 0.930 . S
H83 C73 0.930 1_655 S
Tb84 N115 2.660 . S
Tb84 N122 2.600 . S
Tb84 O128 2.546 . S
Tb84 O129 2.610 . S
Tb84 O131 2.320 . S
Tb84 O132 2.552 . S
Tb84 O133 2.413 . S
Tb84 O135 2.362 . S
Tb84 O136 2.421 . S
Tb84 C148 2.833 . S
C85 C88 1.432 . S
C85 C89 1.414 . S
C85 N92 1.359 1_455 S
C86 C88 1.417 . S
C86 C90 1.432 . S
C86 C98 1.410 . S
C87 C89 1.444 . S
C87 C90 1.317 . S
C87 H110 0.929 . S
C88 C85 1.432 . S
C88 C86 1.417 . S
C88 N96 1.360 1_455 S
C89 C85 1.414 . S
C89 C87 1.444 . S
C89 C94 1.385 . S
C90 C86 1.432 . S
C90 C87 1.317 . S
C90 H102 0.930 . S
C91 C93 1.392 . S
C91 C94 1.370 1_655 S
C91 H103 0.931 . S
N92 C85 1.359 1_655 S
N92 C93 1.327 . S
N92 Tb95 2.600 . S
C93 C91 1.392 . S
C93 N92 1.327 . S
C93 H100 0.930 . S
C94 C89 1.385 . S
C94 C91 1.370 1_455 S
C94 H113 0.930 . S
Tb95 N92 2.600 . S
Tb95 N96 2.660 . S
Tb95 O129 2.362 . S
Tb95 O130 2.421 . S
Tb95 O134 2.546 . S
Tb95 O135 2.610 . S
Tb95 O137 2.320 . S
Tb95 O138 2.552 . S
Tb95 O139 2.413 . S
Tb95 C159 2.833 . S
N96 C88 1.360 1_655 S
N96 Tb95 2.660 . S
N96 C97 1.305 1_655 S
C97 N96 1.305 1_455 S
C97 C99 1.407 . S
C97 H104 0.930 1_455 S
C98 C86 1.410 . S
C98 C99 1.345 . S
C98 H106 0.930 . S
C99 C97 1.407 . S
C99 C98 1.345 . S
C99 H101 0.930 . S
H100 C93 0.930 . S
H101 C99 0.930 . S
H102 C90 0.930 . S
H103 C91 0.931 . S
H104 C97 0.930 1_655 S
H105 C119 0.930 . S
H106 C98 0.930 . S
H107 C125 0.930 . S
H108 C116 0.930 . S
H109 C123 0.931 . S
H110 C87 0.929 . S
H111 C117 0.930 . S
H112 C150 0.930 . S
H113 C94 0.930 . S
H114 C149 0.929 . S
N115 Tb84 2.660 . S
N115 C116 1.305 . S
N115 C120 1.360 . S
C116 H108 0.930 . S
C116 N115 1.305 . S
C116 C119 1.407 . S
C117 H111 0.930 . S
C117 C118 1.410 . S
C117 C119 1.345 . S
C118 C117 1.410 . S
C118 C120 1.417 . S
C118 C150 1.432 . S
C119 H105 0.930 . S
C119 C116 1.407 . S
C119 C117 1.345 . S
C120 N115 1.360 . S
C120 C118 1.417 . S
C120 C124 1.432 . S
H121 C126 0.930 . S
N122 Tb84 2.600 . S
N122 C124 1.359 . S
N122 C125 1.327 . S
C123 H109 0.931 . S
C123 C125 1.392 . S
C123 C126 1.370 . S
C124 C120 1.432 . S
C124 N122 1.359 . S
C124 C127 1.414 . S
C125 H107 0.930 . S
C125 N122 1.327 . S
C125 C123 1.392 . S
C126 H121 0.930 . S
C126 C123 1.370 . S
C126 C127 1.385 . S
C127 C124 1.414 . S
C127 C126 1.385 . S
C127 C149 1.444 . S
O128 Tb84 2.546 . S
O128 C148 1.251 . S
O129 Tb84 2.610 . S
O129 Tb95 2.362 . S
O129 C140 1.283 . S
O130 Tb95 2.421 . S
O130 C147 1.262 . S
O131 Tb84 2.320 . S
O131 C147 1.260 . S
O132 Tb84 2.552 . S
O132 C140 1.243 . S
O133 Tb84 2.413 . S
O133 C148 1.256 . S
O134 Tb95 2.546 . S
O134 C159 1.251 . S
O135 Tb84 2.362 . S
O135 Tb95 2.610 . S
O135 C151 1.283 . S
O136 Tb84 2.421 . S
O136 C158 1.262 . S
O137 Tb95 2.320 . S
O137 C158 1.260 . S
O138 Tb95 2.552 . S
O138 C151 1.243 . S
O139 Tb95 2.413 . S
O139 C159 1.256 . S
C140 O129 1.283 . S
C140 O132 1.243 . S
C141 C143 1.382 . S
C141 C145 1.393 . S
C141 C148 1.500 . S
C142 C143 1.400 1_545 S
C142 C144 1.384 . S
C143 C141 1.382 . S
C143 C142 1.400 1_565 S
C143 H160 0.930 . S
C144 C142 1.384 . S
C144 C146 1.392 1_545 S
C144 H161 0.931 . S
C145 C141 1.393 . S
C145 C146 1.401 . S
C145 H162 0.930 . S
C146 C144 1.392 1_565 S
C146 C145 1.401 . S
C146 H163 0.930 1_565 S
C147 O130 1.262 . S
C147 O131 1.260 . S
C148 Tb84 2.833 . S
C148 O128 1.251 . S
C148 O133 1.256 . S
C148 C141 1.500 . S
C149 H114 0.929 . S
C149 C127 1.444 . S
C149 C150 1.317 . S
C150 H112 0.930 . S
C150 C118 1.432 . S
C150 C149 1.317 . S
C151 O135 1.283 . S
C151 O138 1.243 . S
C152 C153 1.382 . S
C152 C156 1.393 . S
C152 C159 1.500 . S
C153 C152 1.382 . S
C153 C154 1.400 . S
C153 H164 0.930 . S
C154 C153 1.400 . S
C154 C155 1.384 . S
C155 C154 1.384 . S
C155 C157 1.392 . S
C155 H165 0.931 . S
C156 C152 1.393 . S
C156 C157 1.401 . S
C156 H166 0.930 . S
C157 C155 1.392 . S
C157 C156 1.401 . S
C157 H167 0.930 . S
C158 O136 1.262 . S
C158 O137 1.260 . S
C159 Tb95 2.833 . S
C159 O134 1.251 . S
C159 O139 1.256 . S
C159 C152 1.500 . S
H160 C143 0.930 . S
H161 C144 0.931 . S
H162 C145 0.930 . S
H163 C146 0.930 1_545 S
H164 C153 0.930 . S
H165 C155 0.931 . S
H166 C156 0.930 . S
H167 C157 0.930 . S
Tb168 N199 2.660 . S
Tb168 N206 2.600 1_554 S
Tb168 O212 2.546 1_554 S
Tb168 O213 2.610 . S
Tb168 O215 2.320 . S
Tb168 O216 2.552 . S
Tb168 O217 2.413 . S
Tb168 O219 2.362 . S
Tb168 O220 2.421 1_554 S
Tb168 C232 2.833 . S
C169 C172 1.432 . S
C169 C173 1.414 . S
C169 N176 1.359 1_455 S
C170 C172 1.417 . S
C170 C174 1.432 . S
C170 C182 1.410 . S
C171 C173 1.444 . S
C171 C174 1.317 . S
C171 H194 0.929 . S
C172 C169 1.432 . S
C172 C170 1.417 . S
C172 N180 1.360 . S
C173 C169 1.414 . S
C173 C171 1.444 . S
C173 C178 1.385 . S
C174 C170 1.432 . S
C174 C171 1.317 . S
C174 H186 0.930 . S
C175 C177 1.392 1_455 S
C175 C178 1.370 . S
C175 H187 0.931 . S
N176 C169 1.359 1_655 S
N176 C177 1.327 . S
N176 Tb179 2.600 . S
C177 C175 1.392 1_655 S
C177 N176 1.327 . S
C177 H184 0.930 . S
C178 C173 1.385 . S
C178 C175 1.370 . S
C178 H197 0.930 . S
Tb179 N176 2.600 . S
Tb179 N180 2.660 1_655 S
Tb179 O213 2.362 . S
Tb179 O214 2.421 . S
Tb179 O218 2.546 1_655 S
Tb179 O219 2.610 . S
Tb179 O221 2.320 . S
Tb179 O222 2.552 . S
Tb179 O223 2.413 1_655 S
Tb179 C243 2.833 1_655 S
N180 C172 1.360 . S
N180 Tb179 2.660 1_455 S
N180 C181 1.305 . S
C181 N180 1.305 . S
C181 C183 1.407 . S
C181 H188 0.930 1_455 S
C182 C170 1.410 . S
C182 C183 1.345 . S
C182 H190 0.930 . S
C183 C181 1.407 . S
C183 C182 1.345 . S
C183 H185 0.930 . S
H184 C177 0.930 . S
H185 C183 0.930 . S
H186 C174 0.930 . S
H187 C175 0.931 . S
H188 C181 0.930 1_655 S
H189 C203 0.930 . S
H190 C182 0.930 . S
H191 C209 0.930 . S
H192 C200 0.930 1_545 S
H193 C207 0.931 . S
H194 C171 0.929 . S
H195 C201 0.930 . S
H196 C234 0.930 . S
H197 C178 0.930 . S
H198 C233 0.929 . S
N199 Tb168 2.660 . S
N199 C200 1.305 1_545 S
N199 C204 1.360 1_545 S
C200 H192 0.930 1_565 S
C200 N199 1.305 1_565 S
C200 C203 1.407 . S
C201 H195 0.930 . S
C201 C202 1.410 . S
C201 C203 1.345 . S
C202 C201 1.410 . S
C202 C204 1.417 . S
C202 C234 1.432 . S
C203 H189 0.930 . S
C203 C200 1.407 . S
C203 C201 1.345 . S
C204 N199 1.360 1_565 S
C204 C202 1.417 . S
C204 C208 1.432 1_554 S
H205 C210 0.930 . S
N206 Tb168 2.600 1_556 S
N206 C208 1.359 1_545 S
N206 C209 1.327 . S
C207 H193 0.931 . S
C207 C209 1.392 . S
C207 C210 1.370 1_545 S
C208 C204 1.432 1_556 S
C208 N206 1.359 1_565 S
C208 C211 1.414 . S
C209 H191 0.930 . S
C209 N206 1.327 . S
C209 C207 1.392 . S
C210 H205 0.930 . S
C210 C207 1.370 1_565 S
C210 C211 1.385 . S
C211 C208 1.414 . S
C211 C210 1.385 . S
C211 C233 1.444 . S
O212 Tb168 2.546 1_556 S
O212 C232 1.251 1_556 S
O213 Tb168 2.610 . S
O213 Tb179 2.362 . S
O213 C224 1.283 . S
O214 Tb179 2.421 . S
O214 C231 1.262 . S
O215 Tb168 2.320 . S
O215 C231 1.260 . S
O216 Tb168 2.552 . S
O216 C224 1.243 . S
O217 Tb168 2.413 . S
O217 C232 1.256 . S
O218 Tb179 2.546 1_455 S
O218 C243 1.251 . S
O219 Tb168 2.362 . S
O219 Tb179 2.610 . S
O219 C235 1.283 . S
O220 Tb168 2.421 1_556 S
O220 C242 1.262 . S
O221 Tb179 2.320 . S
O221 C242 1.260 1_554 S
O222 Tb179 2.552 . S
O222 C235 1.243 . S
O223 Tb179 2.413 1_455 S
O223 C243 1.256 . S
C224 O213 1.283 . S
C224 O216 1.243 . S
C225 C227 1.382 . S
C225 C229 1.393 1_554 S
C225 C232 1.500 . S
C226 C227 1.400 . S
C226 C228 1.384 . S
C227 C225 1.382 . S
C227 C226 1.400 . S
C227 H244 0.930 . S
C228 C226 1.384 . S
C228 C230 1.392 1_554 S
C228 H245 0.931 . S
C229 C225 1.393 1_556 S
C229 C230 1.401 . S
C229 H246 0.930 . S
C230 C228 1.392 1_556 S
C230 C229 1.401 . S
C230 H247 0.930 . S
C231 O214 1.262 . S
C231 O215 1.260 . S
C232 Tb168 2.833 . S
C232 O212 1.251 1_554 S
C232 O217 1.256 . S
C232 C225 1.500 . S
C233 H198 0.929 . S
C233 C211 1.444 . S
C233 C234 1.317 1_556 S
C234 H196 0.930 . S
C234 C202 1.432 . S
C234 C233 1.317 1_554 S
C235 O219 1.283 . S
C235 O222 1.243 . S
C236 C237 1.382 . S
C236 C240 1.393 . S
C236 C243 1.500 . S
C237 C236 1.382 . S
C237 C238 1.400 . S
C237 H248 0.930 . S
C238 C237 1.400 . S
C238 C239 1.384 . S
C239 C238 1.384 . S
C239 C241 1.392 . S
C239 H249 0.931 . S
C240 C236 1.393 . S
C240 C241 1.401 . S
C240 H250 0.930 . S
C241 C239 1.392 . S
C241 C240 1.401 . S
C241 H251 0.930 . S
C242 O220 1.262 . S
C242 O221 1.260 1_556 S
C243 Tb179 2.833 1_455 S
C243 O218 1.251 . S
C243 O223 1.256 . S
C243 C236 1.500 . S
H244 C227 0.930 . S
H245 C228 0.931 . S
H246 C229 0.930 . S
H247 C230 0.930 . S
H248 C237 0.930 . S
H249 C239 0.931 . S
H250 C240 0.930 . S
H251 C241 0.930 . S
Tb252 N283 2.660 1_545 S
Tb252 N290 2.600 . S
Tb252 O296 2.546 1_545 S
Tb252 O297 2.610 . S
Tb252 O299 2.320 . S
Tb252 O300 2.552 . S
Tb252 O301 2.413 1_545 S
Tb252 O303 2.362 . S
Tb252 O304 2.421 . S
Tb252 C316 2.833 1_545 S
C253 C256 1.432 . S
C253 C257 1.414 . S
C253 N260 1.359 . S
C254 C256 1.417 . S
C254 C258 1.432 . S
C254 C266 1.410 . S
C255 C257 1.444 . S
C255 C258 1.317 . S
C255 H278 0.929 . S
C256 C253 1.432 . S
C256 C254 1.417 . S
C256 N264 1.360 . S
C257 C253 1.414 . S
C257 C255 1.444 . S
C257 C262 1.385 . S
C258 C254 1.432 . S
C258 C255 1.317 . S
C258 H270 0.930 . S
C259 C261 1.392 . S
C259 C262 1.370 . S
C259 H271 0.931 . S
N260 C253 1.359 . S
N260 C261 1.327 . S
N260 Tb263 2.600 . S
C261 C259 1.392 . S
C261 N260 1.327 . S
C261 H268 0.930 . S
C262 C257 1.385 . S
C262 C259 1.370 . S
C262 H281 0.930 . S
Tb263 N260 2.600 . S
Tb263 N264 2.660 . S
Tb263 O297 2.362 . S
Tb263 O298 2.421 . S
Tb263 O302 2.546 . S
Tb263 O303 2.610 . S
Tb263 O305 2.320 . S
Tb263 O306 2.552 . S
Tb263 O307 2.413 . S
Tb263 C327 2.833 . S
N264 C256 1.360 . S
N264 Tb263 2.660 . S
N264 C265 1.305 . S
C265 N264 1.305 . S
C265 C267 1.407 . S
C265 H272 0.930 . S
C266 C254 1.410 . S
C266 C267 1.345 . S
C266 H274 0.930 . S
C267 C265 1.407 . S
C267 C266 1.345 . S
C267 H269 0.930 . S
H268 C261 0.930 . S
H269 C267 0.930 . S
H270 C258 0.930 . S
H271 C259 0.931 . S
H272 C265 0.930 . S
H273 C287 0.930 . S
H274 C266 0.930 . S
H275 C293 0.930 . S
H276 C284 0.930 1_545 S
H277 C291 0.931 . S
H278 C255 0.929 . S
H279 C285 0.930 . S
H280 C318 0.930 . S
H281 C262 0.930 . S
H282 C317 0.929 . S
N283 Tb252 2.660 1_565 S
N283 C284 1.305 . S
N283 C288 1.360 . S
C284 H276 0.930 1_565 S
C284 N283 1.305 . S
C284 C287 1.407 . S
C285 H279 0.930 . S
C285 C286 1.410 . S
C285 C287 1.345 . S
C286 C285 1.410 . S
C286 C288 1.417 . S
C286 C318 1.432 . S
C287 H273 0.930 . S
C287 C284 1.407 . S
C287 C285 1.345 . S
C288 N283 1.360 . S
C288 C286 1.417 . S
C288 C292 1.432 . S
H289 C294 0.930 . S
N290 Tb252 2.600 . S
N290 C292 1.359 1_545 S
N290 C293 1.327 . S
C291 H277 0.931 . S
C291 C293 1.392 1_565 S
C291 C294 1.370 . S
C292 C288 1.432 . S
C292 N290 1.359 1_565 S
C292 C295 1.414 . S
C293 H275 0.930 . S
C293 N290 1.327 . S
C293 C291 1.392 1_545 S
C294 H289 0.930 . S
C294 C291 1.370 . S
C294 C295 1.385 . S
C295 C292 1.414 . S
C295 C294 1.385 . S
C295 C317 1.444 . S
O296 Tb252 2.546 1_565 S
O296 C316 1.251 . S
O297 Tb252 2.610 . S
O297 Tb263 2.362 . S
O297 C308 1.283 . S
O298 Tb263 2.421 . S
O298 C315 1.262 . S
O299 Tb252 2.320 . S
O299 C315 1.260 . S
O300 Tb252 2.552 . S
O300 C308 1.243 . S
O301 Tb252 2.413 1_565 S
O301 C316 1.256 . S
O302 Tb263 2.546 . S
O302 C327 1.251 . S
O303 Tb252 2.362 . S
O303 Tb263 2.610 . S
O303 C319 1.283 . S
O304 Tb252 2.421 . S
O304 C326 1.262 . S
O305 Tb263 2.320 . S
O305 C326 1.260 . S
O306 Tb263 2.552 . S
O306 C319 1.243 . S
O307 Tb263 2.413 . S
O307 C327 1.256 . S
C308 O297 1.283 . S
C308 O300 1.243 . S
C309 C311 1.382 . S
C309 C313 1.393 . S
C309 C316 1.500 . S
C310 C311 1.400 1_655 S
C310 C312 1.384 . S
C311 C309 1.382 . S
C311 C310 1.400 1_455 S
C311 H328 0.930 . S
C312 C310 1.384 . S
C312 C314 1.392 1_655 S
C312 H329 0.931 . S
C313 C309 1.393 . S
C313 C314 1.401 . S
C313 H330 0.930 . S
C314 C312 1.392 1_455 S
C314 C313 1.401 . S
C314 H331 0.930 1_455 S
C315 O298 1.262 . S
C315 O299 1.260 . S
C316 Tb252 2.833 1_565 S
C316 O296 1.251 . S
C316 O301 1.256 . S
C316 C309 1.500 . S
C317 H282 0.929 . S
C317 C295 1.444 . S
C317 C318 1.317 . S
C318 H280 0.930 . S
C318 C286 1.432 . S
C318 C317 1.317 . S
C319 O303 1.283 . S
C319 O306 1.243 . S
C320 C321 1.382 . S
C320 C324 1.393 . S
C320 C327 1.500 . S
C321 C320 1.382 . S
C321 C322 1.400 . S
C321 H332 0.930 . S
C322 C321 1.400 . S
C322 C323 1.384 . S
C323 C322 1.384 . S
C323 C325 1.392 . S
C323 H333 0.931 . S
C324 C320 1.393 . S
C324 C325 1.401 . S
C324 H334 0.930 . S
C325 C323 1.392 . S
C325 C324 1.401 . S
C325 H335 0.930 . S
C326 O304 1.262 . S
C326 O305 1.260 . S
C327 Tb263 2.833 . S
C327 O302 1.251 . S
C327 O307 1.256 . S
C327 C320 1.500 . S
H328 C311 0.930 . S
H329 C312 0.931 . S
H330 C313 0.930 . S
H331 C314 0.930 1_655 S
H332 C321 0.930 . S
H333 C323 0.931 . S
H334 C324 0.930 . S
H335 C325 0.930 . S
Tb336 N367 2.660 . S
Tb336 N374 2.600 1_554 S
Tb336 O380 2.546 1_554 S
Tb336 O381 2.610 . S
Tb336 O383 2.320 . S
Tb336 O384 2.552 . S
Tb336 O385 2.413 . S
Tb336 O387 2.362 . S
Tb336 O388 2.421 1_554 S
Tb336 C400 2.833 . S
C337 C340 1.432 . S
C337 C341 1.414 . S
C337 N344 1.359 . S
C338 C340 1.417 . S
C338 C342 1.432 . S
C338 C350 1.410 . S
C339 C341 1.444 . S
C339 C342 1.317 . S
C339 H362 0.929 . S
C340 C337 1.432 . S
C340 C338 1.417 . S
C340 N348 1.360 . S
C341 C337 1.414 . S
C341 C339 1.444 . S
C341 C346 1.385 . S
C342 C338 1.432 . S
C342 C339 1.317 . S
C342 H354 0.930 . S
C343 C345 1.392 . S
C343 C346 1.370 . S
C343 H355 0.931 . S
N344 C337 1.359 . S
N344 C345 1.327 . S
N344 Tb347 2.600 . S
C345 C343 1.392 . S
C345 N344 1.327 . S
C345 H352 0.930 . S
C346 C341 1.385 . S
C346 C343 1.370 . S
C346 H365 0.930 . S
Tb347 N344 2.600 . S
Tb347 N348 2.660 . S
Tb347 O381 2.362 . S
Tb347 O382 2.421 . S
Tb347 O386 2.546 . S
Tb347 O387 2.610 . S
Tb347 O389 2.320 . S
Tb347 O390 2.552 . S
Tb347 O391 2.413 . S
Tb347 C411 2.833 . S
N348 C340 1.360 . S
N348 Tb347 2.660 . S
N348 C349 1.305 . S
C349 N348 1.305 . S
C349 C351 1.407 . S
C349 H356 0.930 . S
C350 C338 1.410 . S
C350 C351 1.345 . S
C350 H358 0.930 . S
C351 C349 1.407 . S
C351 C350 1.345 . S
C351 H353 0.930 . S
H352 C345 0.930 . S
H353 C351 0.930 . S
H354 C342 0.930 . S
H355 C343 0.931 . S
H356 C349 0.930 . S
H357 C371 0.930 . S
H358 C350 0.930 . S
H359 C377 0.930 . S
H360 C368 0.930 1_655 S
H361 C375 0.931 . S
H362 C339 0.929 . S
H363 C369 0.930 . S
H364 C402 0.930 . S
H365 C346 0.930 . S
H366 C401 0.929 . S
N367 Tb336 2.660 . S
N367 C368 1.305 1_655 S
N367 C372 1.360 1_655 S
C368 H360 0.930 1_455 S
C368 N367 1.305 1_455 S
C368 C371 1.407 . S
C369 H363 0.930 . S
C369 C370 1.410 . S
C369 C371 1.345 . S
C370 C369 1.410 . S
C370 C372 1.417 . S
C370 C402 1.432 . S
C371 H357 0.930 . S
C371 C368 1.407 . S
C371 C369 1.345 . S
C372 N367 1.360 1_455 S
C372 C370 1.417 . S
C372 C376 1.432 1_554 S
H373 C378 0.930 . S
N374 Tb336 2.600 1_556 S
N374 C376 1.359 1_655 S
N374 C377 1.327 . S
C375 H361 0.931 . S
C375 C377 1.392 . S
C375 C378 1.370 1_655 S
C376 C372 1.432 1_556 S
C376 N374 1.359 1_455 S
C376 C379 1.414 . S
C377 H359 0.930 . S
C377 N374 1.327 . S
C377 C375 1.392 . S
C378 H373 0.930 . S
C378 C375 1.370 1_455 S
C378 C379 1.385 . S
C379 C376 1.414 . S
C379 C378 1.385 . S
C379 C401 1.444 . S
O380 Tb336 2.546 1_556 S
O380 C400 1.251 1_556 S
O381 Tb336 2.610 . S
O381 Tb347 2.362 . S
O381 C392 1.283 . S
O382 Tb347 2.421 . S
O382 C399 1.262 . S
O383 Tb336 2.320 . S
O383 C399 1.260 . S
O384 Tb336 2.552 . S
O384 C392 1.243 . S
O385 Tb336 2.413 . S
O385 C400 1.256 . S
O386 Tb347 2.546 . S
O386 C411 1.251 . S
O387 Tb336 2.362 . S
O387 Tb347 2.610 . S
O387 C403 1.283 . S
O388 Tb336 2.421 1_556 S
O388 C410 1.262 . S
O389 Tb347 2.320 . S
O389 C410 1.260 1_554 S
O390 Tb347 2.552 . S
O390 C403 1.243 . S
O391 Tb347 2.413 . S
O391 C411 1.256 . S
C392 O381 1.283 . S
C392 O384 1.243 . S
C393 C395 1.382 . S
C393 C397 1.393 1_554 S
C393 C400 1.500 . S
C394 C395 1.400 . S
C394 C396 1.384 . S
C395 C393 1.382 . S
C395 C394 1.400 . S
C395 H412 0.930 . S
C396 C394 1.384 . S
C396 C398 1.392 1_554 S
C396 H413 0.931 . S
C397 C393 1.393 1_556 S
C397 C398 1.401 . S
C397 H414 0.930 . S
C398 C396 1.392 1_556 S
C398 C397 1.401 . S
C398 H415 0.930 . S
C399 O382 1.262 . S
C399 O383 1.260 . S
C400 Tb336 2.833 . S
C400 O380 1.251 1_554 S
C400 O385 1.256 . S
C400 C393 1.500 . S
C401 H366 0.929 . S
C401 C379 1.444 . S
C401 C402 1.317 1_556 S
C402 H364 0.930 . S
C402 C370 1.432 . S
C402 C401 1.317 1_554 S
C403 O387 1.283 . S
C403 O390 1.243 . S
C404 C405 1.382 . S
C404 C408 1.393 . S
C404 C411 1.500 . S
C405 C404 1.382 . S
C405 C406 1.400 1_565 S
C405 H416 0.930 . S
C406 C405 1.400 1_545 S
C406 C407 1.384 . S
C407 C406 1.384 . S
C407 C409 1.392 1_545 S
C407 H417 0.931 . S
C408 C404 1.393 . S
C408 C409 1.401 . S
C408 H418 0.930 . S
C409 C407 1.392 1_565 S
C409 C408 1.401 . S
C409 H419 0.930 1_565 S
C410 O388 1.262 . S
C410 O389 1.260 1_556 S
C411 Tb347 2.833 . S
C411 O386 1.251 . S
C411 O391 1.256 . S
C411 C404 1.500 . S
H412 C395 0.930 . S
H413 C396 0.931 . S
H414 C397 0.930 . S
H415 C398 0.930 . S
H416 C405 0.930 . S
H417 C407 0.931 . S
H418 C408 0.930 . S
H419 C409 0.930 1_545 S
Tb420 N451 2.660 1_655 S
Tb420 N458 2.600 . S
Tb420 O464 2.546 1_655 S
Tb420 O465 2.610 . S
Tb420 O467 2.320 . S
Tb420 O468 2.552 . S
Tb420 O469 2.413 1_655 S
Tb420 O471 2.362 . S
Tb420 O472 2.421 . S
Tb420 C484 2.833 1_655 S
C421 C424 1.432 . S
C421 C425 1.414 . S
C421 N428 1.359 1_565 S
C422 C424 1.417 . S
C422 C426 1.432 . S
C422 C434 1.410 . S
C423 C425 1.444 . S
C423 C426 1.317 . S
C423 H446 0.929 . S
C424 C421 1.432 . S
C424 C422 1.417 . S
C424 N432 1.360 1_565 S
C425 C421 1.414 . S
C425 C423 1.444 . S
C425 C430 1.385 . S
C426 C422 1.432 . S
C426 C423 1.317 . S
C426 H438 0.930 . S
C427 C429 1.392 . S
C427 C430 1.370 1_545 S
C427 H439 0.931 . S
N428 C421 1.359 1_545 S
N428 C429 1.327 . S
N428 Tb431 2.600 . S
C429 C427 1.392 . S
C429 N428 1.327 . S
C429 H436 0.930 . S
C430 C425 1.385 . S
C430 C427 1.370 1_565 S
C430 H449 0.930 . S
Tb431 N428 2.600 . S
Tb431 N432 2.660 . S
Tb431 O465 2.362 . S
Tb431 O466 2.421 . S
Tb431 O470 2.546 . S
Tb431 O471 2.610 . S
Tb431 O473 2.320 . S
Tb431 O474 2.552 . S
Tb431 O475 2.413 . S
Tb431 C495 2.833 . S
N432 C424 1.360 1_545 S
N432 Tb431 2.660 . S
N432 C433 1.305 1_545 S
C433 N432 1.305 1_565 S
C433 C435 1.407 . S
C433 H440 0.930 1_565 S
C434 C422 1.410 . S
C434 C435 1.345 . S
C434 H442 0.930 . S
C435 C433 1.407 . S
C435 C434 1.345 . S
C435 H437 0.930 . S
H436 C429 0.930 . S
H437 C435 0.930 . S
H438 C426 0.930 . S
H439 C427 0.931 . S
H440 C433 0.930 1_545 S
H441 C455 0.930 . S
H442 C434 0.930 . S
H443 C461 0.930 . S
H444 C452 0.930 1_655 S
H445 C459 0.931 . S
H446 C423 0.929 . S
H447 C453 0.930 . S
H448 C486 0.930 . S
H449 C430 0.930 . S
H450 C485 0.929 . S
N451 Tb420 2.660 1_455 S
N451 C452 1.305 . S
N451 C456 1.360 . S
C452 H444 0.930 1_455 S
C452 N451 1.305 . S
C452 C455 1.407 . S
C453 H447 0.930 . S
C453 C454 1.410 . S
C453 C455 1.345 . S
C454 C453 1.410 . S
C454 C456 1.417 . S
C454 C486 1.432 . S
C455 H441 0.930 . S
C455 C452 1.407 . S
C455 C453 1.345 . S
C456 N451 1.360 . S
C456 C454 1.417 . S
C456 C460 1.432 . S
H457 C462 0.930 . S
N458 Tb420 2.600 . S
N458 C460 1.359 1_655 S
N458 C461 1.327 . S
C459 H445 0.931 . S
C459 C461 1.392 1_455 S
C459 C462 1.370 . S
C460 C456 1.432 . S
C460 N458 1.359 1_455 S
C460 C463 1.414 . S
C461 H443 0.930 . S
C461 N458 1.327 . S
C461 C459 1.392 1_655 S
C462 H457 0.930 . S
C462 C459 1.370 . S
C462 C463 1.385 . S
C463 C460 1.414 . S
C463 C462 1.385 . S
C463 C485 1.444 . S
O464 Tb420 2.546 1_455 S
O464 C484 1.251 . S
O465 Tb420 2.610 . S
O465 Tb431 2.362 . S
O465 C476 1.283 . S
O466 Tb431 2.421 . S
O466 C483 1.262 . S
O467 Tb420 2.320 . S
O467 C483 1.260 . S
O468 Tb420 2.552 . S
O468 C476 1.243 . S
O469 Tb420 2.413 1_455 S
O469 C484 1.256 . S
O470 Tb431 2.546 . S
O470 C495 1.251 . S
O471 Tb420 2.362 . S
O471 Tb431 2.610 . S
O471 C487 1.283 . S
O472 Tb420 2.421 . S
O472 C494 1.262 . S
O473 Tb431 2.320 . S
O473 C494 1.260 . S
O474 Tb431 2.552 . S
O474 C487 1.243 . S
O475 Tb431 2.413 . S
O475 C495 1.256 . S
C476 O465 1.283 . S
C476 O468 1.243 . S
C477 C479 1.382 . S
C477 C481 1.393 . S
C477 C484 1.500 . S
C478 C479 1.400 . S
C478 C480 1.384 . S
C479 C477 1.382 . S
C479 C478 1.400 . S
C479 H496 0.930 . S
C480 C478 1.384 . S
C480 C482 1.392 . S
C480 H497 0.931 . S
C481 C477 1.393 . S
C481 C482 1.401 . S
C481 H498 0.930 . S
C482 C480 1.392 . S
C482 C481 1.401 . S
C482 H499 0.930 . S
C483 O466 1.262 . S
C483 O467 1.260 . S
C484 Tb420 2.833 1_455 S
C484 O464 1.251 . S
C484 O469 1.256 . S
C484 C477 1.500 . S
C485 H450 0.929 . S
C485 C463 1.444 . S
C485 C486 1.317 . S
C486 H448 0.930 . S
C486 C454 1.432 . S
C486 C485 1.317 . S
C487 O471 1.283 . S
C487 O474 1.243 . S
C488 C489 1.382 . S
C488 C492 1.393 . S
C488 C495 1.500 . S
C489 C488 1.382 . S
C489 C490 1.400 . S
C489 H500 0.930 . S
C490 C489 1.400 . S
C490 C491 1.384 . S
C491 C490 1.384 . S
C491 C493 1.392 . S
C491 H501 0.931 . S
C492 C488 1.393 . S
C492 C493 1.401 . S
C492 H502 0.930 . S
C493 C491 1.392 . S
C493 C492 1.401 . S
C493 H503 0.930 . S
C494 O472 1.262 . S
C494 O473 1.260 . S
C495 Tb431 2.833 . S
C495 O470 1.251 . S
C495 O475 1.256 . S
C495 C488 1.500 . S
H496 C479 0.930 . S
H497 C480 0.931 . S
H498 C481 0.930 . S
H499 C482 0.930 . S
H500 C489 0.930 . S
H501 C491 0.931 . S
H502 C492 0.930 . S
H503 C493 0.930 . S
Tb504 N535 2.660 1_455 S
Tb504 N542 2.600 . S
Tb504 O548 2.546 1_455 S
Tb504 O549 2.610 . S
Tb504 O551 2.320 . S
Tb504 O552 2.552 . S
Tb504 O553 2.413 1_455 S
Tb504 O555 2.362 . S
Tb504 O556 2.421 . S
Tb504 C568 2.833 1_455 S
C505 C508 1.432 . S
C505 C509 1.414 . S
C505 N512 1.359 . S
C506 C508 1.417 . S
C506 C510 1.432 . S
C506 C518 1.410 . S
C507 C509 1.444 . S
C507 C510 1.317 . S
C507 H530 0.929 . S
C508 C505 1.432 . S
C508 C506 1.417 . S
C508 N516 1.360 . S
C509 C505 1.414 . S
C509 C507 1.444 . S
C509 C514 1.385 . S
C510 C506 1.432 . S
C510 C507 1.317 . S
C510 H522 0.930 . S
C511 C513 1.392 . S
C511 C514 1.370 . S
C511 H523 0.931 . S
N512 C505 1.359 . S
N512 C513 1.327 . S
N512 Tb515 2.600 . S
C513 C511 1.392 . S
C513 N512 1.327 . S
C513 H520 0.930 . S
C514 C509 1.385 . S
C514 C511 1.370 . S
C514 H533 0.930 . S
Tb515 N512 2.600 . S
Tb515 N516 2.660 . S
Tb515 O549 2.362 . S
Tb515 O550 2.421 . S
Tb515 O554 2.546 . S
Tb515 O555 2.610 . S
Tb515 O557 2.320 . S
Tb515 O558 2.552 . S
Tb515 O559 2.413 . S
Tb515 C579 2.833 . S
N516 C508 1.360 . S
N516 Tb515 2.660 . S
N516 C517 1.305 . S
C517 N516 1.305 . S
C517 C519 1.407 . S
C517 H524 0.930 . S
C518 C506 1.410 . S
C518 C519 1.345 . S
C518 H526 0.930 . S
C519 C517 1.407 . S
C519 C518 1.345 . S
C519 H521 0.930 . S
H520 C513 0.930 . S
H521 C519 0.930 . S
H522 C510 0.930 . S
H523 C511 0.931 . S
H524 C517 0.930 . S
H525 C539 0.930 . S
H526 C518 0.930 . S
H527 C545 0.930 . S
H528 C536 0.930 1_455 S
H529 C543 0.931 . S
H530 C507 0.929 . S
H531 C537 0.930 . S
H532 C570 0.930 . S
H533 C514 0.930 . S
H534 C569 0.929 . S
N535 Tb504 2.660 1_655 S
N535 C536 1.305 . S
N535 C540 1.360 . S
C536 H528 0.930 1_655 S
C536 N535 1.305 . S
C536 C539 1.407 . S
C537 H531 0.930 . S
C537 C538 1.410 . S
C537 C539 1.345 . S
C538 C537 1.410 . S
C538 C540 1.417 . S
C538 C570 1.432 . S
C539 H525 0.930 . S
C539 C536 1.407 . S
C539 C537 1.345 . S
C540 N535 1.360 . S
C540 C538 1.417 . S
C540 C544 1.432 . S
H541 C546 0.930 . S
N542 Tb504 2.600 . S
N542 C544 1.359 1_455 S
N542 C545 1.327 . S
C543 H529 0.931 . S
C543 C545 1.392 1_655 S
C543 C546 1.370 . S
C544 C540 1.432 . S
C544 N542 1.359 1_655 S
C544 C547 1.414 . S
C545 H527 0.930 . S
C545 N542 1.327 . S
C545 C543 1.392 1_455 S
C546 H541 0.930 . S
C546 C543 1.370 . S
C546 C547 1.385 . S
C547 C544 1.414 . S
C547 C546 1.385 . S
C547 C569 1.444 . S
O548 Tb504 2.546 1_655 S
O548 C568 1.251 . S
O549 Tb504 2.610 . S
O549 Tb515 2.362 . S
O549 C560 1.283 . S
O550 Tb515 2.421 . S
O550 C567 1.262 . S
O551 Tb504 2.320 . S
O551 C567 1.260 . S
O552 Tb504 2.552 . S
O552 C560 1.243 . S
O553 Tb504 2.413 1_655 S
O553 C568 1.256 . S
O554 Tb515 2.546 . S
O554 C579 1.251 . S
O555 Tb504 2.362 . S
O555 Tb515 2.610 . S
O555 C571 1.283 . S
O556 Tb504 2.421 . S
O556 C578 1.262 . S
O557 Tb515 2.320 . S
O557 C578 1.260 . S
O558 Tb515 2.552 . S
O558 C571 1.243 . S
O559 Tb515 2.413 . S
O559 C579 1.256 . S
C560 O549 1.283 . S
C560 O552 1.243 . S
C561 C563 1.382 . S
C561 C565 1.393 . S
C561 C568 1.500 . S
C562 C563 1.400 1_565 S
C562 C564 1.384 . S
C563 C561 1.382 . S
C563 C562 1.400 1_545 S
C563 H580 0.930 . S
C564 C562 1.384 . S
C564 C566 1.392 1_565 S
C564 H581 0.931 . S
C565 C561 1.393 . S
C565 C566 1.401 . S
C565 H582 0.930 . S
C566 C564 1.392 1_545 S
C566 C565 1.401 . S
C566 H583 0.930 1_545 S
C567 O550 1.262 . S
C567 O551 1.260 . S
C568 Tb504 2.833 1_655 S
C568 O548 1.251 . S
C568 O553 1.256 . S
C568 C561 1.500 . S
C569 H534 0.929 . S
C569 C547 1.444 . S
C569 C570 1.317 . S
C570 H532 0.930 . S
C570 C538 1.432 . S
C570 C569 1.317 . S
C571 O555 1.283 . S
C571 O558 1.243 . S
C572 C573 1.382 . S
C572 C576 1.393 . S
C572 C579 1.500 . S
C573 C572 1.382 . S
C573 C574 1.400 . S
C573 H584 0.930 . S
C574 C573 1.400 . S
C574 C575 1.384 . S
C575 C574 1.384 . S
C575 C577 1.392 . S
C575 H585 0.931 . S
C576 C572 1.393 . S
C576 C577 1.401 . S
C576 H586 0.930 . S
C577 C575 1.392 . S
C577 C576 1.401 . S
C577 H587 0.930 . S
C578 O556 1.262 . S
C578 O557 1.260 . S
C579 Tb515 2.833 . S
C579 O554 1.251 . S
C579 O559 1.256 . S
C579 C572 1.500 . S
H580 C563 0.930 . S
H581 C564 0.931 . S
H582 C565 0.930 . S
H583 C566 0.930 1_565 S
H584 C573 0.930 . S
H585 C575 0.931 . S
H586 C576 0.930 . S
H587 C577 0.930 . S
Tb588 N619 2.660 . S
Tb588 N626 2.600 1_556 S
Tb588 O632 2.546 1_556 S
Tb588 O633 2.610 . S
Tb588 O635 2.320 . S
Tb588 O636 2.552 . S
Tb588 O637 2.413 . S
Tb588 O639 2.362 . S
Tb588 O640 2.421 1_556 S
Tb588 C652 2.833 . S
C589 C592 1.432 . S
C589 C593 1.414 . S
C589 N596 1.359 1_545 S
C590 C592 1.417 . S
C590 C594 1.432 . S
C590 C602 1.410 . S
C591 C593 1.444 . S
C591 C594 1.317 . S
C591 H614 0.929 . S
C592 C589 1.432 . S
C592 C590 1.417 . S
C592 N600 1.360 . S
C593 C589 1.414 . S
C593 C591 1.444 . S
C593 C598 1.385 . S
C594 C590 1.432 . S
C594 C591 1.317 . S
C594 H606 0.930 . S
C595 C597 1.392 1_545 S
C595 C598 1.370 . S
C595 H607 0.931 . S
N596 C589 1.359 1_565 S
N596 C597 1.327 . S
N596 Tb599 2.600 . S
C597 C595 1.392 1_565 S
C597 N596 1.327 . S
C597 H604 0.930 . S
C598 C593 1.385 . S
C598 C595 1.370 . S
C598 H617 0.930 . S
Tb599 N596 2.600 . S
Tb599 N600 2.660 1_565 S
Tb599 O633 2.362 . S
Tb599 O634 2.421 . S
Tb599 O638 2.546 1_565 S
Tb599 O639 2.610 . S
Tb599 O641 2.320 . S
Tb599 O642 2.552 . S
Tb599 O643 2.413 1_565 S
Tb599 C663 2.833 1_565 S
N600 C592 1.360 . S
N600 Tb599 2.660 1_545 S
N600 C601 1.305 . S
C601 N600 1.305 . S
C601 C603 1.407 . S
C601 H608 0.930 1_545 S
C602 C590 1.410 . S
C602 C603 1.345 . S
C602 H610 0.930 . S
C603 C601 1.407 . S
C603 C602 1.345 . S
C603 H605 0.930 . S
H604 C597 0.930 . S
H605 C603 0.930 . S
H606 C594 0.930 . S
H607 C595 0.931 . S
H608 C601 0.930 1_565 S
H609 C623 0.930 . S
H610 C602 0.930 . S
H611 C629 0.930 . S
H612 C620 0.930 1_455 S
H613 C627 0.931 . S
H614 C591 0.929 . S
H615 C621 0.930 . S
H616 C654 0.930 . S
H617 C598 0.930 . S
H618 C653 0.929 . S
N619 Tb588 2.660 . S
N619 C620 1.305 1_455 S
N619 C624 1.360 1_455 S
C620 H612 0.930 1_655 S
C620 N619 1.305 1_655 S
C620 C623 1.407 . S
C621 H615 0.930 . S
C621 C622 1.410 . S
C621 C623 1.345 . S
C622 C621 1.410 . S
C622 C624 1.417 . S
C622 C654 1.432 . S
C623 H609 0.930 . S
C623 C620 1.407 . S
C623 C621 1.345 . S
C624 N619 1.360 1_655 S
C624 C622 1.417 . S
C624 C628 1.432 1_556 S
H625 C630 0.930 . S
N626 Tb588 2.600 1_554 S
N626 C628 1.359 1_455 S
N626 C629 1.327 . S
C627 H613 0.931 . S
C627 C629 1.392 . S
C627 C630 1.370 1_455 S
C628 C624 1.432 1_554 S
C628 N626 1.359 1_655 S
C628 C631 1.414 . S
C629 H611 0.930 . S
C629 N626 1.327 . S
C629 C627 1.392 . S
C630 H625 0.930 . S
C630 C627 1.370 1_655 S
C630 C631 1.385 . S
C631 C628 1.414 . S
C631 C630 1.385 . S
C631 C653 1.444 . S
O632 Tb588 2.546 1_554 S
O632 C652 1.251 1_554 S
O633 Tb588 2.610 . S
O633 Tb599 2.362 . S
O633 C644 1.283 . S
O634 Tb599 2.421 . S
O634 C651 1.262 . S
O635 Tb588 2.320 . S
O635 C651 1.260 . S
O636 Tb588 2.552 . S
O636 C644 1.243 . S
O637 Tb588 2.413 . S
O637 C652 1.256 . S
O638 Tb599 2.546 1_545 S
O638 C663 1.251 . S
O639 Tb588 2.362 . S
O639 Tb599 2.610 . S
O639 C655 1.283 . S
O640 Tb588 2.421 1_554 S
O640 C662 1.262 . S
O641 Tb599 2.320 . S
O641 C662 1.260 1_556 S
O642 Tb599 2.552 . S
O642 C655 1.243 . S
O643 Tb599 2.413 1_545 S
O643 C663 1.256 . S
C644 O633 1.283 . S
C644 O636 1.243 . S
C645 C647 1.382 . S
C645 C649 1.393 1_556 S
C645 C652 1.500 . S
C646 C647 1.400 . S
C646 C648 1.384 . S
C647 C645 1.382 . S
C647 C646 1.400 . S
C647 H664 0.930 . S
C648 C646 1.384 . S
C648 C650 1.392 1_556 S
C648 H665 0.931 . S
C649 C645 1.393 1_554 S
C649 C650 1.401 . S
C649 H666 0.930 . S
C650 C648 1.392 1_554 S
C650 C649 1.401 . S
C650 H667 0.930 . S
C651 O634 1.262 . S
C651 O635 1.260 . S
C652 Tb588 2.833 . S
C652 O632 1.251 1_556 S
C652 O637 1.256 . S
C652 C645 1.500 . S
C653 H618 0.929 . S
C653 C631 1.444 . S
C653 C654 1.317 1_554 S
C654 H616 0.930 . S
C654 C622 1.432 . S
C654 C653 1.317 1_556 S
C655 O639 1.283 . S
C655 O642 1.243 . S
C656 C657 1.382 . S
C656 C660 1.393 . S
C656 C663 1.500 . S
C657 C656 1.382 . S
C657 C658 1.400 . S
C657 H668 0.930 . S
C658 C657 1.400 . S
C658 C659 1.384 . S
C659 C658 1.384 . S
C659 C661 1.392 . S
C659 H669 0.931 . S
C660 C656 1.393 . S
C660 C661 1.401 . S
C660 H670 0.930 . S
C661 C659 1.392 . S
C661 C660 1.401 . S
C661 H671 0.930 . S
C662 O640 1.262 . S
C662 O641 1.260 1_554 S
C663 Tb599 2.833 1_545 S
C663 O638 1.251 . S
C663 O643 1.256 . S
C663 C656 1.500 . S
H664 C647 0.930 . S
H665 C648 0.931 . S
H666 C649 0.930 . S
H667 C650 0.930 . S
H668 C657 0.930 . S
H669 C659 0.931 . S
H670 C660 0.930 . S
H671 C661 0.930 . S
Tb672 N703 2.660 . S
Tb672 N710 2.600 . S
Tb672 O716 2.546 . S
Tb672 O717 2.610 . S
Tb672 O719 2.320 . S
Tb672 O720 2.552 . S
Tb672 O721 2.413 . S
Tb672 O723 2.362 . S
Tb672 O724 2.421 . S
Tb672 C736 2.833 . S
C673 C676 1.432 . S
C673 C677 1.414 . S
C673 N680 1.359 1_545 S
C674 C676 1.417 . S
C674 C678 1.432 . S
C674 C686 1.410 . S
C675 C677 1.444 . S
C675 C678 1.317 . S
C675 H698 0.929 . S
C676 C673 1.432 . S
C676 C674 1.417 . S
C676 N684 1.360 1_545 S
C677 C673 1.414 . S
C677 C675 1.444 . S
C677 C682 1.385 . S
C678 C674 1.432 . S
C678 C675 1.317 . S
C678 H690 0.930 . S
C679 C681 1.392 . S
C679 C682 1.370 1_565 S
C679 H691 0.931 . S
N680 C673 1.359 1_565 S
N680 C681 1.327 . S
N680 Tb683 2.600 . S
C681 C679 1.392 . S
C681 N680 1.327 . S
C681 H688 0.930 . S
C682 C677 1.385 . S
C682 C679 1.370 1_545 S
C682 H701 0.930 . S
Tb683 N680 2.600 . S
Tb683 N684 2.660 . S
Tb683 O717 2.362 . S
Tb683 O718 2.421 . S
Tb683 O722 2.546 . S
Tb683 O723 2.610 . S
Tb683 O725 2.320 . S
Tb683 O726 2.552 . S
Tb683 O727 2.413 . S
Tb683 C747 2.833 . S
N684 C676 1.360 1_565 S
N684 Tb683 2.660 . S
N684 C685 1.305 1_565 S
C685 N684 1.305 1_545 S
C685 C687 1.407 . S
C685 H692 0.930 1_545 S
C686 C674 1.410 . S
C686 C687 1.345 . S
C686 H694 0.930 . S
C687 C685 1.407 . S
C687 C686 1.345 . S
C687 H689 0.930 . S
H688 C681 0.930 . S
H689 C687 0.930 . S
H690 C678 0.930 . S
H691 C679 0.931 . S
H692 C685 0.930 1_565 S
H693 C707 0.930 . S
H694 C686 0.930 . S
H695 C713 0.930 . S
H696 C704 0.930 . S
H697 C711 0.931 . S
H698 C675 0.929 . S
H699 C705 0.930 . S
H700 C738 0.930 . S
H701 C682 0.930 . S
H702 C737 0.929 . S
N703 Tb672 2.660 . S
N703 C704 1.305 . S
N703 C708 1.360 . S
C704 H696 0.930 . S
C704 N703 1.305 . S
C704 C707 1.407 . S
C705 H699 0.930 . S
C705 C706 1.410 . S
C705 C707 1.345 . S
C706 C705 1.410 . S
C706 C708 1.417 . S
C706 C738 1.432 . S
C707 H693 0.930 . S
C707 C704 1.407 . S
C707 C705 1.345 . S
C708 N703 1.360 . S
C708 C706 1.417 . S
C708 C712 1.432 . S
H709 C714 0.930 . S
N710 Tb672 2.600 . S
N710 C712 1.359 . S
N710 C713 1.327 . S
C711 H697 0.931 . S
C711 C713 1.392 . S
C711 C714 1.370 . S
C712 C708 1.432 . S
C712 N710 1.359 . S
C712 C715 1.414 . S
C713 H695 0.930 . S
C713 N710 1.327 . S
C713 C711 1.392 . S
C714 H709 0.930 . S
C714 C711 1.370 . S
C714 C715 1.385 . S
C715 C712 1.414 . S
C715 C714 1.385 . S
C715 C737 1.444 . S
O716 Tb672 2.546 . S
O716 C736 1.251 . S
O717 Tb672 2.610 . S
O717 Tb683 2.362 . S
O717 C728 1.283 . S
O718 Tb683 2.421 . S
O718 C735 1.262 . S
O719 Tb672 2.320 . S
O719 C735 1.260 . S
O720 Tb672 2.552 . S
O720 C728 1.243 . S
O721 Tb672 2.413 . S
O721 C736 1.256 . S
O722 Tb683 2.546 . S
O722 C747 1.251 . S
O723 Tb672 2.362 . S
O723 Tb683 2.610 . S
O723 C739 1.283 . S
O724 Tb672 2.421 . S
O724 C746 1.262 . S
O725 Tb683 2.320 . S
O725 C746 1.260 . S
O726 Tb683 2.552 . S
O726 C739 1.243 . S
O727 Tb683 2.413 . S
O727 C747 1.256 . S
C728 O717 1.283 . S
C728 O720 1.243 . S
C729 C731 1.382 . S
C729 C733 1.393 . S
C729 C736 1.500 . S
C730 C731 1.400 1_455 S
C730 C732 1.384 . S
C731 C729 1.382 . S
C731 C730 1.400 1_655 S
C731 H748 0.930 . S
C732 C730 1.384 . S
C732 C734 1.392 1_455 S
C732 H749 0.931 . S
C733 C729 1.393 . S
C733 C734 1.401 . S
C733 H750 0.930 . S
C734 C732 1.392 1_655 S
C734 C733 1.401 . S
C734 H751 0.930 1_655 S
C735 O718 1.262 . S
C735 O719 1.260 . S
C736 Tb672 2.833 . S
C736 O716 1.251 . S
C736 O721 1.256 . S
C736 C729 1.500 . S
C737 H702 0.929 . S
C737 C715 1.444 . S
C737 C738 1.317 . S
C738 H700 0.930 . S
C738 C706 1.432 . S
C738 C737 1.317 . S
C739 O723 1.283 . S
C739 O726 1.243 . S
C740 C741 1.382 . S
C740 C744 1.393 . S
C740 C747 1.500 . S
C741 C740 1.382 . S
C741 C742 1.400 . S
C741 H752 0.930 . S
C742 C741 1.400 . S
C742 C743 1.384 . S
C743 C742 1.384 . S
C743 C745 1.392 . S
C743 H753 0.931 . S
C744 C740 1.393 . S
C744 C745 1.401 . S
C744 H754 0.930 . S
C745 C743 1.392 . S
C745 C744 1.401 . S
C745 H755 0.930 . S
C746 O724 1.262 . S
C746 O725 1.260 . S
C747 Tb683 2.833 . S
C747 O722 1.251 . S
C747 O727 1.256 . S
C747 C740 1.500 . S
H748 C731 0.930 . S
H749 C732 0.931 . S
H750 C733 0.930 . S
H751 C734 0.930 1_455 S
H752 C741 0.930 . S
H753 C743 0.931 . S
H754 C744 0.930 . S
H755 C745 0.930 . S
Tb756 N787 2.660 . S
Tb756 N794 2.600 1_556 S
Tb756 O800 2.546 1_556 S
Tb756 O801 2.610 . S
Tb756 O803 2.320 . S
Tb756 O804 2.552 . S
Tb756 O805 2.413 . S
Tb756 O807 2.362 . S
Tb756 O808 2.421 1_556 S
Tb756 C820 2.833 . S
C757 C760 1.432 . S
C757 C761 1.414 . S
C757 N764 1.359 1_655 S
C758 C760 1.417 . S
C758 C762 1.432 . S
C758 C770 1.410 . S
C759 C761 1.444 . S
C759 C762 1.317 . S
C759 H782 0.929 . S
C760 C757 1.432 . S
C760 C758 1.417 . S
C760 N768 1.360 . S
C761 C757 1.414 . S
C761 C759 1.444 . S
C761 C766 1.385 . S
C762 C758 1.432 . S
C762 C759 1.317 . S
C762 H774 0.930 . S
C763 C765 1.392 1_655 S
C763 C766 1.370 . S
C763 H775 0.931 . S
N764 C757 1.359 1_455 S
N764 C765 1.327 . S
N764 Tb767 2.600 . S
C765 C763 1.392 1_455 S
C765 N764 1.327 . S
C765 H772 0.930 . S
C766 C761 1.385 . S
C766 C763 1.370 . S
C766 H785 0.930 . S
Tb767 N764 2.600 . S
Tb767 N768 2.660 1_455 S
Tb767 O801 2.362 . S
Tb767 O802 2.421 . S
Tb767 O806 2.546 1_455 S
Tb767 O807 2.610 . S
Tb767 O809 2.320 . S
Tb767 O810 2.552 . S
Tb767 O811 2.413 1_455 S
Tb767 C831 2.833 1_455 S
N768 C760 1.360 . S
N768 Tb767 2.660 1_655 S
N768 C769 1.305 . S
C769 N768 1.305 . S
C769 C771 1.407 . S
C769 H776 0.930 1_655 S
C770 C758 1.410 . S
C770 C771 1.345 . S
C770 H778 0.930 . S
C771 C769 1.407 . S
C771 C770 1.345 . S
C771 H773 0.930 . S
H772 C765 0.930 . S
H773 C771 0.930 . S
H774 C762 0.930 . S
H775 C763 0.931 . S
H776 C769 0.930 1_455 S
H777 C791 0.930 . S
H778 C770 0.930 . S
H779 C797 0.930 . S
H780 C788 0.930 . S
H781 C795 0.931 . S
H782 C759 0.929 . S
H783 C789 0.930 . S
H784 C822 0.930 . S
H785 C766 0.930 . S
H786 C821 0.929 . S
N787 Tb756 2.660 . S
N787 C788 1.305 . S
N787 C792 1.360 . S
C788 H780 0.930 . S
C788 N787 1.305 . S
C788 C791 1.407 . S
C789 H783 0.930 . S
C789 C790 1.410 . S
C789 C791 1.345 . S
C790 C789 1.410 . S
C790 C792 1.417 . S
C790 C822 1.432 . S
C791 H777 0.930 . S
C791 C788 1.407 . S
C791 C789 1.345 . S
C792 N787 1.360 . S
C792 C790 1.417 . S
C792 C796 1.432 1_556 S
H793 C798 0.930 . S
N794 Tb756 2.600 1_554 S
N794 C796 1.359 . S
N794 C797 1.327 . S
C795 H781 0.931 . S
C795 C797 1.392 . S
C795 C798 1.370 . S
C796 C792 1.432 1_554 S
C796 N794 1.359 . S
C796 C799 1.414 . S
C797 H779 0.930 . S
C797 N794 1.327 . S
C797 C795 1.392 . S
C798 H793 0.930 . S
C798 C795 1.370 . S
C798 C799 1.385 . S
C799 C796 1.414 . S
C799 C798 1.385 . S
C799 C821 1.444 . S
O800 Tb756 2.546 1_554 S
O800 C820 1.251 1_554 S
O801 Tb756 2.610 . S
O801 Tb767 2.362 . S
O801 C812 1.283 . S
O802 Tb767 2.421 . S
O802 C819 1.262 . S
O803 Tb756 2.320 . S
O803 C819 1.260 . S
O804 Tb756 2.552 . S
O804 C812 1.243 . S
O805 Tb756 2.413 . S
O805 C820 1.256 . S
O806 Tb767 2.546 1_655 S
O806 C831 1.251 . S
O807 Tb756 2.362 . S
O807 Tb767 2.610 . S
O807 C823 1.283 . S
O808 Tb756 2.421 1_554 S
O808 C830 1.262 . S
O809 Tb767 2.320 . S
O809 C830 1.260 1_556 S
O810 Tb767 2.552 . S
O810 C823 1.243 . S
O811 Tb767 2.413 1_655 S
O811 C831 1.256 . S
C812 O801 1.283 . S
C812 O804 1.243 . S
C813 C815 1.382 . S
C813 C817 1.393 1_556 S
C813 C820 1.500 . S
C814 C815 1.400 . S
C814 C816 1.384 . S
C815 C813 1.382 . S
C815 C814 1.400 . S
C815 H832 0.930 . S
C816 C814 1.384 . S
C816 C818 1.392 1_556 S
C816 H833 0.931 . S
C817 C813 1.393 1_554 S
C817 C818 1.401 . S
C817 H834 0.930 . S
C818 C816 1.392 1_554 S
C818 C817 1.401 . S
C818 H835 0.930 . S
C819 O802 1.262 . S
C819 O803 1.260 . S
C820 Tb756 2.833 . S
C820 O800 1.251 1_556 S
C820 O805 1.256 . S
C820 C813 1.500 . S
C821 H786 0.929 . S
C821 C799 1.444 . S
C821 C822 1.317 1_554 S
C822 H784 0.930 . S
C822 C790 1.432 . S
C822 C821 1.317 1_556 S
C823 O807 1.283 . S
C823 O810 1.243 . S
C824 C825 1.382 . S
C824 C828 1.393 . S
C824 C831 1.500 . S
C825 C824 1.382 . S
C825 C826 1.400 1_545 S
C825 H836 0.930 . S
C826 C825 1.400 1_565 S
C826 C827 1.384 . S
C827 C826 1.384 . S
C827 C829 1.392 1_565 S
C827 H837 0.931 . S
C828 C824 1.393 . S
C828 C829 1.401 . S
C828 H838 0.930 . S
C829 C827 1.392 1_545 S
C829 C828 1.401 . S
C829 H839 0.930 1_545 S
C830 O808 1.262 . S
C830 O809 1.260 1_554 S
C831 Tb767 2.833 1_655 S
C831 O806 1.251 . S
C831 O811 1.256 . S
C831 C824 1.500 . S
H832 C815 0.930 . S
H833 C816 0.931 . S
H834 C817 0.930 . S
H835 C818 0.930 . S
H836 C825 0.930 . S
H837 C827 0.931 . S
H838 C828 0.930 . S
H839 C829 0.930 1_565 S
Tb840 N871 2.660 1_565 S
Tb840 N878 2.600 . S
Tb840 O884 2.546 1_565 S
Tb840 O885 2.610 . S
Tb840 O887 2.320 . S
Tb840 O888 2.552 . S
Tb840 O889 2.413 1_565 S
Tb840 O891 2.362 . S
Tb840 O892 2.421 . S
Tb840 C904 2.833 1_565 S
C841 C844 1.432 . S
C841 C845 1.414 . S
C841 N848 1.359 1_655 S
C842 C844 1.417 . S
C842 C846 1.432 . S
C842 C854 1.410 . S
C843 C845 1.444 . S
C843 C846 1.317 . S
C843 H866 0.929 . S
C844 C841 1.432 . S
C844 C842 1.417 . S
C844 N852 1.360 1_655 S
C845 C841 1.414 . S
C845 C843 1.444 . S
C845 C850 1.385 . S
C846 C842 1.432 . S
C846 C843 1.317 . S
C846 H858 0.930 . S
C847 C849 1.392 . S
C847 C850 1.370 1_455 S
C847 H859 0.931 . S
N848 C841 1.359 1_455 S
N848 C849 1.327 . S
N848 Tb851 2.600 . S
C849 C847 1.392 . S
C849 N848 1.327 . S
C849 H856 0.930 . S
C850 C845 1.385 . S
C850 C847 1.370 1_655 S
C850 H869 0.930 . S
Tb851 N848 2.600 . S
Tb851 N852 2.660 . S
Tb851 O885 2.362 . S
Tb851 O886 2.421 . S
Tb851 O890 2.546 . S
Tb851 O891 2.610 . S
Tb851 O893 2.320 . S
Tb851 O894 2.552 . S
Tb851 O895 2.413 . S
Tb851 C915 2.833 . S
N852 C844 1.360 1_455 S
N852 Tb851 2.660 . S
N852 C853 1.305 1_455 S
C853 N852 1.305 1_655 S
C853 C855 1.407 . S
C853 H860 0.930 1_655 S
C854 C842 1.410 . S
C854 C855 1.345 . S
C854 H862 0.930 . S
C855 C853 1.407 . S
C855 C854 1.345 . S
C855 H857 0.930 . S
H856 C849 0.930 . S
H857 C855 0.930 . S
H858 C846 0.930 . S
H859 C847 0.931 . S
H860 C853 0.930 1_455 S
H861 C875 0.930 . S
H862 C854 0.930 . S
H863 C881 0.930 . S
H864 C872 0.930 1_565 S
H865 C879 0.931 . S
H866 C843 0.929 . S
H867 C873 0.930 . S
H868 C906 0.930 . S
H869 C850 0.930 . S
H870 C905 0.929 . S
N871 Tb840 2.660 1_545 S
N871 C872 1.305 . S
N871 C876 1.360 . S
C872 H864 0.930 1_545 S
C872 N871 1.305 . S
C872 C875 1.407 . S
C873 H867 0.930 . S
C873 C874 1.410 . S
C873 C875 1.345 . S
C874 C873 1.410 . S
C874 C876 1.417 . S
C874 C906 1.432 . S
C875 H861 0.930 . S
C875 C872 1.407 . S
C875 C873 1.345 . S
C876 N871 1.360 . S
C876 C874 1.417 . S
C876 C880 1.432 . S
H877 C882 0.930 . S
N878 Tb840 2.600 . S
N878 C880 1.359 1_565 S
N878 C881 1.327 . S
C879 H865 0.931 . S
C879 C881 1.392 1_545 S
C879 C882 1.370 . S
C880 C876 1.432 . S
C880 N878 1.359 1_545 S
C880 C883 1.414 . S
C881 H863 0.930 . S
C881 N878 1.327 . S
C881 C879 1.392 1_565 S
C882 H877 0.930 . S
C882 C879 1.370 . S
C882 C883 1.385 . S
C883 C880 1.414 . S
C883 C882 1.385 . S
C883 C905 1.444 . S
O884 Tb840 2.546 1_545 S
O884 C904 1.251 . S
O885 Tb840 2.610 . S
O885 Tb851 2.362 . S
O885 C896 1.283 . S
O886 Tb851 2.421 . S
O886 C903 1.262 . S
O887 Tb840 2.320 . S
O887 C903 1.260 . S
O888 Tb840 2.552 . S
O888 C896 1.243 . S
O889 Tb840 2.413 1_545 S
O889 C904 1.256 . S
O890 Tb851 2.546 . S
O890 C915 1.251 . S
O891 Tb840 2.362 . S
O891 Tb851 2.610 . S
O891 C907 1.283 . S
O892 Tb840 2.421 . S
O892 C914 1.262 . S
O893 Tb851 2.320 . S
O893 C914 1.260 . S
O894 Tb851 2.552 . S
O894 C907 1.243 . S
O895 Tb851 2.413 . S
O895 C915 1.256 . S
C896 O885 1.283 . S
C896 O888 1.243 . S
C897 C899 1.382 . S
C897 C901 1.393 . S
C897 C904 1.500 . S
C898 C899 1.400 . S
C898 C900 1.384 . S
C899 C897 1.382 . S
C899 C898 1.400 . S
C899 H916 0.930 . S
C900 C898 1.384 . S
C900 C902 1.392 . S
C900 H917 0.931 . S
C901 C897 1.393 . S
C901 C902 1.401 . S
C901 H918 0.930 . S
C902 C900 1.392 . S
C902 C901 1.401 . S
C902 H919 0.930 . S
C903 O886 1.262 . S
C903 O887 1.260 . S
C904 Tb840 2.833 1_545 S
C904 O884 1.251 . S
C904 O889 1.256 . S
C904 C897 1.500 . S
C905 H870 0.929 . S
C905 C883 1.444 . S
C905 C906 1.317 . S
C906 H868 0.930 . S
C906 C874 1.432 . S
C906 C905 1.317 . S
C907 O891 1.283 . S
C907 O894 1.243 . S
C908 C909 1.382 . S
C908 C912 1.393 . S
C908 C915 1.500 . S
C909 C908 1.382 . S
C909 C910 1.400 . S
C909 H920 0.930 . S
C910 C909 1.400 . S
C910 C911 1.384 . S
C911 C910 1.384 . S
C911 C913 1.392 . S
C911 H921 0.931 . S
C912 C908 1.393 . S
C912 C913 1.401 . S
C912 H922 0.930 . S
C913 C911 1.392 . S
C913 C912 1.401 . S
C913 H923 0.930 . S
C914 O892 1.262 . S
C914 O893 1.260 . S
C915 Tb851 2.833 . S
C915 O890 1.251 . S
C915 O895 1.256 . S
C915 C908 1.500 . S
H916 C899 0.930 . S
H917 C900 0.931 . S
H918 C901 0.930 . S
H919 C902 0.930 . S
H920 C909 0.930 . S
H921 C911 0.931 . S
H922 C912 0.930 . S
H923 C913 0.930 . S
Tb924 N955 2.660 . S
Tb924 N962 2.600 1_556 S
Tb924 O968 2.546 1_556 S
Tb924 O969 2.610 . S
Tb924 O971 2.320 . S
Tb924 O972 2.552 . S
Tb924 O973 2.413 . S
Tb924 O975 2.362 . S
Tb924 O976 2.421 1_556 S
Tb924 C988 2.833 . S
C925 C928 1.432 . S
C925 C929 1.414 . S
C925 N932 1.359 . S
C926 C928 1.417 . S
C926 C930 1.432 . S
C926 C938 1.410 . S
C927 C929 1.444 . S
C927 C930 1.317 . S
C927 H950 0.929 . S
C928 C925 1.432 . S
C928 C926 1.417 . S
C928 N936 1.360 . S
C929 C925 1.414 . S
C929 C927 1.444 . S
C929 C934 1.385 . S
C930 C926 1.432 . S
C930 C927 1.317 . S
C930 H942 0.930 . S
C931 C933 1.392 . S
C931 C934 1.370 . S
C931 H943 0.931 . S
N932 C925 1.359 . S
N932 C933 1.327 . S
N932 Tb935 2.600 . S
C933 C931 1.392 . S
C933 N932 1.327 . S
C933 H940 0.930 . S
C934 C929 1.385 . S
C934 C931 1.370 . S
C934 H953 0.930 . S
Tb935 N932 2.600 . S
Tb935 N936 2.660 . S
Tb935 O969 2.362 . S
Tb935 O970 2.421 . S
Tb935 O974 2.546 . S
Tb935 O975 2.610 . S
Tb935 O977 2.320 . S
Tb935 O978 2.552 . S
Tb935 O979 2.413 . S
Tb935 C999 2.833 . S
N936 C928 1.360 . S
N936 Tb935 2.660 . S
N936 C937 1.305 . S
C937 N936 1.305 . S
C937 C939 1.407 . S
C937 H944 0.930 . S
C938 C926 1.410 . S
C938 C939 1.345 . S
C938 H946 0.930 . S
C939 C937 1.407 . S
C939 C938 1.345 . S
C939 H941 0.930 . S
H940 C933 0.930 . S
H941 C939 0.930 . S
H942 C930 0.930 . S
H943 C931 0.931 . S
H944 C937 0.930 . S
H945 C959 0.930 . S
H946 C938 0.930 . S
H947 C965 0.930 . S
H948 C956 0.930 1_565 S
H949 C963 0.931 . S
H950 C927 0.929 . S
H951 C957 0.930 . S
H952 C990 0.930 . S
H953 C934 0.930 . S
H954 C989 0.929 . S
N955 Tb924 2.660 . S
N955 C956 1.305 1_565 S
N955 C960 1.360 1_565 S
C956 H948 0.930 1_545 S
C956 N955 1.305 1_545 S
C956 C959 1.407 . S
C957 H951 0.930 . S
C957 C958 1.410 . S
C957 C959 1.345 . S
C958 C957 1.410 . S
C958 C960 1.417 . S
C958 C990 1.432 . S
C959 H945 0.930 . S
C959 C956 1.407 . S
C959 C957 1.345 . S
C960 N955 1.360 1_545 S
C960 C958 1.417 . S
C960 C964 1.432 1_556 S
H961 C966 0.930 . S
N962 Tb924 2.600 1_554 S
N962 C964 1.359 1_565 S
N962 C965 1.327 . S
C963 H949 0.931 . S
C963 C965 1.392 . S
C963 C966 1.370 1_565 S
C964 C960 1.432 1_554 S
C964 N962 1.359 1_545 S
C964 C967 1.414 . S
C965 H947 0.930 . S
C965 N962 1.327 . S
C965 C963 1.392 . S
C966 H961 0.930 . S
C966 C963 1.370 1_545 S
C966 C967 1.385 . S
C967 C964 1.414 . S
C967 C966 1.385 . S
C967 C989 1.444 . S
O968 Tb924 2.546 1_554 S
O968 C988 1.251 1_554 S
O969 Tb924 2.610 . S
O969 Tb935 2.362 . S
O969 C980 1.283 . S
O970 Tb935 2.421 . S
O970 C987 1.262 . S
O971 Tb924 2.320 . S
O971 C987 1.260 . S
O972 Tb924 2.552 . S
O972 C980 1.243 . S
O973 Tb924 2.413 . S
O973 C988 1.256 . S
O974 Tb935 2.546 . S
O974 C999 1.251 . S
O975 Tb924 2.362 . S
O975 Tb935 2.610 . S
O975 C991 1.283 . S
O976 Tb924 2.421 1_554 S
O976 C998 1.262 . S
O977 Tb935 2.320 . S
O977 C998 1.260 1_556 S
O978 Tb935 2.552 . S
O978 C991 1.243 . S
O979 Tb935 2.413 . S
O979 C999 1.256 . S
C980 O969 1.283 . S
C980 O972 1.243 . S
C981 C983 1.382 . S
C981 C985 1.393 1_556 S
C981 C988 1.500 . S
C982 C983 1.400 . S
C982 C984 1.384 . S
C983 C981 1.382 . S
C983 C982 1.400 . S
C983 H1000 0.930 . S
C984 C982 1.384 . S
C984 C986 1.392 1_556 S
C984 H1001 0.931 . S
C985 C981 1.393 1_554 S
C985 C986 1.401 . S
C985 H1002 0.930 . S
C986 C984 1.392 1_554 S
C986 C985 1.401 . S
C986 H1003 0.930 . S
C987 O970 1.262 . S
C987 O971 1.260 . S
C988 Tb924 2.833 . S
C988 O968 1.251 1_556 S
C988 O973 1.256 . S
C988 C981 1.500 . S
C989 H954 0.929 . S
C989 C967 1.444 . S
C989 C990 1.317 1_554 S
C990 H952 0.930 . S
C990 C958 1.432 . S
C990 C989 1.317 1_556 S
C991 O975 1.283 . S
C991 O978 1.243 . S
C992 C993 1.382 . S
C992 C996 1.393 . S
C992 C999 1.500 . S
C993 C992 1.382 . S
C993 C994 1.400 1_655 S
C993 H1004 0.930 . S
C994 C993 1.400 1_455 S
C994 C995 1.384 . S
C995 C994 1.384 . S
C995 C997 1.392 1_455 S
C995 H1005 0.931 . S
C996 C992 1.393 . S
C996 C997 1.401 . S
C996 H1006 0.930 . S
C997 C995 1.392 1_655 S
C997 C996 1.401 . S
C997 H1007 0.930 1_655 S
C998 O976 1.262 . S
C998 O977 1.260 1_554 S
C999 Tb935 2.833 . S
C999 O974 1.251 . S
C999 O979 1.256 . S
C999 C992 1.500 . S
H1000 C983 0.930 . S
H1001 C984 0.931 . S
H1002 C985 0.930 . S
H1003 C986 0.930 . S
H1004 C993 0.930 . S
H1005 C995 0.931 . S
H1006 C996 0.930 . S
H1007 C997 0.930 1_455 S
C238 C67 1.872 . S
C310 C140 1.872 . S
C235 C406 1.871 . S
C308 C478 1.871 . S
C70 C403 1.872 . S
C142 C476 1.871 . S
C898 C560 1.871 . S
C655 C994 1.871 . S
C728 C562 1.872 . S
C823 C658 1.871 . S
C896 C730 1.871 . S
C826 C991 1.872 . S
C326 C63 2.154 . S
C158 C399 2.155 . S
C231 C494 2.154 . S
C578 C819 2.154 . S
C651 C914 2.154 . S
C746 C987 2.155 . S
C662 C74 3.676 1_564 S
C147 C735 3.675 . S
C830 C242 3.676 1_454 S
C315 C903 3.676 1_545 S
C410 C998 3.676 1_556 S
C567 C483 3.676 1_455 S
C226 C56 1.283 . S
C151 C322 1.284 . S
C224 C394 1.284 . S
C319 C490 1.284 . S
C58 C392 1.284 . S
C154 C487 1.284 . S
C910 C571 1.284 . S
C644 C982 1.284 . S
C739 C574 1.284 . S
C646 C812 1.284 . S
C907 C742 1.284 . S
C980 C814 1.284 . S
