# Generated by pormake.
# Topology uod, (4)-cn, num edge types: 1
# Building blocks:
#     Node 0, Type 0, BuildingBlock: CEKHIL_clean_sbu_0, # of connection points: 4
#     Node 1, Type 0, BuildingBlock: CEKHIL_clean_sbu_0, # of connection points: 4
#     Node 2, Type 0, BuildingBlock: CEKHIL_clean_sbu_0, # of connection points: 4
#     Node 3, Type 0, BuildingBlock: CEKHIL_clean_sbu_0, # of connection points: 4
#     Node 4, Type 0, BuildingBlock: CEKHIL_clean_sbu_0, # of connection points: 4
#     Node 5, Type 0, BuildingBlock: CEKHIL_clean_sbu_0, # of connection points: 4
#     Node 6, Type 0, BuildingBlock: CEKHIL_clean_sbu_0, # of connection points: 4
#     Node 7, Type 0, BuildingBlock: CEKHIL_clean_sbu_0, # of connection points: 4
#     Node 8, Type 0, BuildingBlock: CEKHIL_clean_sbu_0, # of connection points: 4
#     Node 9, Type 0, BuildingBlock: CEKHIL_clean_sbu_0, # of connection points: 4
#     Node 10, Type 0, BuildingBlock: CEKHIL_clean_sbu_0, # of connection points: 4
#     Node 11, Type 0, BuildingBlock: CEKHIL_clean_sbu_0, # of connection points: 4
#     Node 12, Type 0, BuildingBlock: CEKHIL_clean_sbu_0, # of connection points: 4
#     Node 13, Type 0, BuildingBlock: CEKHIL_clean_sbu_0, # of connection points: 4
#     Node 14, Type 0, BuildingBlock: CEKHIL_clean_sbu_0, # of connection points: 4
#     Node 15, Type 0, BuildingBlock: CEKHIL_clean_sbu_0, # of connection points: 4
#     Node 16, Type 0, BuildingBlock: CEKHIL_clean_sbu_0, # of connection points: 4
#     Node 17, Type 0, BuildingBlock: CEKHIL_clean_sbu_0, # of connection points: 4
#     Node 18, Type 0, BuildingBlock: CEKHIL_clean_sbu_0, # of connection points: 4
#     Node 19, Type 0, BuildingBlock: CEKHIL_clean_sbu_0, # of connection points: 4
#     Node 20, Type 0, BuildingBlock: CEKHIL_clean_sbu_0, # of connection points: 4
#     Node 21, Type 0, BuildingBlock: CEKHIL_clean_sbu_0, # of connection points: 4
#     Node 22, Type 0, BuildingBlock: CEKHIL_clean_sbu_0, # of connection points: 4
#     Node 23, Type 0, BuildingBlock: CEKHIL_clean_sbu_0, # of connection points: 4
#     Node 24, Type 0, BuildingBlock: CEKHIL_clean_sbu_0, # of connection points: 4
#     Node 25, Type 0, BuildingBlock: CEKHIL_clean_sbu_0, # of connection points: 4
#     Node 26, Type 0, BuildingBlock: CEKHIL_clean_sbu_0, # of connection points: 4
#     Node 27, Type 0, BuildingBlock: CEKHIL_clean_sbu_0, # of connection points: 4
#     Node 28, Type 0, BuildingBlock: CEKHIL_clean_sbu_0, # of connection points: 4
#     Node 29, Type 0, BuildingBlock: CEKHIL_clean_sbu_0, # of connection points: 4
#     Node 30, Type 0, BuildingBlock: CEKHIL_clean_sbu_0, # of connection points: 4
#     Node 31, Type 0, BuildingBlock: CEKHIL_clean_sbu_0, # of connection points: 4
#     Edge 32, Type (0, 0), BuildingBlock: OJICUG_clean_linker_0, # of connection points: 2
#     Edge 33, Type (0, 0), BuildingBlock: OJICUG_clean_linker_0, # of connection points: 2
#     Edge 34, Type (0, 0), BuildingBlock: OJICUG_clean_linker_0, # of connection points: 2
#     Edge 35, Type (0, 0), BuildingBlock: OJICUG_clean_linker_0, # of connection points: 2
#     Edge 36, Type (0, 0), BuildingBlock: OJICUG_clean_linker_0, # of connection points: 2
#     Edge 37, Type (0, 0), BuildingBlock: OJICUG_clean_linker_0, # of connection points: 2
#     Edge 38, Type (0, 0), BuildingBlock: OJICUG_clean_linker_0, # of connection points: 2
#     Edge 39, Type (0, 0), BuildingBlock: OJICUG_clean_linker_0, # of connection points: 2
#     Edge 40, Type (0, 0), BuildingBlock: OJICUG_clean_linker_0, # of connection points: 2
#     Edge 41, Type (0, 0), BuildingBlock: OJICUG_clean_linker_0, # of connection points: 2
#     Edge 42, Type (0, 0), BuildingBlock: OJICUG_clean_linker_0, # of connection points: 2
#     Edge 43, Type (0, 0), BuildingBlock: OJICUG_clean_linker_0, # of connection points: 2
#     Edge 44, Type (0, 0), BuildingBlock: OJICUG_clean_linker_0, # of connection points: 2
#     Edge 45, Type (0, 0), BuildingBlock: OJICUG_clean_linker_0, # of connection points: 2
#     Edge 46, Type (0, 0), BuildingBlock: OJICUG_clean_linker_0, # of connection points: 2
#     Edge 47, Type (0, 0), BuildingBlock: OJICUG_clean_linker_0, # of connection points: 2
#     Edge 48, Type (0, 0), BuildingBlock: OJICUG_clean_linker_0, # of connection points: 2
#     Edge 49, Type (0, 0), BuildingBlock: OJICUG_clean_linker_0, # of connection points: 2
#     Edge 50, Type (0, 0), BuildingBlock: OJICUG_clean_linker_0, # of connection points: 2
#     Edge 51, Type (0, 0), BuildingBlock: OJICUG_clean_linker_0, # of connection points: 2
#     Edge 52, Type (0, 0), BuildingBlock: OJICUG_clean_linker_0, # of connection points: 2
#     Edge 53, Type (0, 0), BuildingBlock: OJICUG_clean_linker_0, # of connection points: 2
#     Edge 54, Type (0, 0), BuildingBlock: OJICUG_clean_linker_0, # of connection points: 2
#     Edge 55, Type (0, 0), BuildingBlock: OJICUG_clean_linker_0, # of connection points: 2
#     Edge 56, Type (0, 0), BuildingBlock: OJICUG_clean_linker_0, # of connection points: 2
#     Edge 57, Type (0, 0), BuildingBlock: OJICUG_clean_linker_0, # of connection points: 2
#     Edge 58, Type (0, 0), BuildingBlock: OJICUG_clean_linker_0, # of connection points: 2
#     Edge 59, Type (0, 0), BuildingBlock: OJICUG_clean_linker_0, # of connection points: 2
#     Edge 60, Type (0, 0), BuildingBlock: OJICUG_clean_linker_0, # of connection points: 2
#     Edge 61, Type (0, 0), BuildingBlock: OJICUG_clean_linker_0, # of connection points: 2
#     Edge 62, Type (0, 0), BuildingBlock: OJICUG_clean_linker_0, # of connection points: 2
#     Edge 63, Type (0, 0), BuildingBlock: OJICUG_clean_linker_0, # of connection points: 2
#     Edge 64, Type (0, 0), BuildingBlock: OJICUG_clean_linker_0, # of connection points: 2
#     Edge 65, Type (0, 0), BuildingBlock: OJICUG_clean_linker_0, # of connection points: 2
#     Edge 66, Type (0, 0), BuildingBlock: OJICUG_clean_linker_0, # of connection points: 2
#     Edge 67, Type (0, 0), BuildingBlock: OJICUG_clean_linker_0, # of connection points: 2
#     Edge 68, Type (0, 0), BuildingBlock: OJICUG_clean_linker_0, # of connection points: 2
#     Edge 69, Type (0, 0), BuildingBlock: OJICUG_clean_linker_0, # of connection points: 2
#     Edge 70, Type (0, 0), BuildingBlock: OJICUG_clean_linker_0, # of connection points: 2
#     Edge 71, Type (0, 0), BuildingBlock: OJICUG_clean_linker_0, # of connection points: 2
#     Edge 72, Type (0, 0), BuildingBlock: OJICUG_clean_linker_0, # of connection points: 2
#     Edge 73, Type (0, 0), BuildingBlock: OJICUG_clean_linker_0, # of connection points: 2
#     Edge 74, Type (0, 0), BuildingBlock: OJICUG_clean_linker_0, # of connection points: 2
#     Edge 75, Type (0, 0), BuildingBlock: OJICUG_clean_linker_0, # of connection points: 2
#     Edge 76, Type (0, 0), BuildingBlock: OJICUG_clean_linker_0, # of connection points: 2
#     Edge 77, Type (0, 0), BuildingBlock: OJICUG_clean_linker_0, # of connection points: 2
#     Edge 78, Type (0, 0), BuildingBlock: OJICUG_clean_linker_0, # of connection points: 2
#     Edge 79, Type (0, 0), BuildingBlock: OJICUG_clean_linker_0, # of connection points: 2
#     Edge 80, Type (0, 0), BuildingBlock: OJICUG_clean_linker_0, # of connection points: 2
#     Edge 81, Type (0, 0), BuildingBlock: OJICUG_clean_linker_0, # of connection points: 2
#     Edge 82, Type (0, 0), BuildingBlock: OJICUG_clean_linker_0, # of connection points: 2
#     Edge 83, Type (0, 0), BuildingBlock: OJICUG_clean_linker_0, # of connection points: 2
#     Edge 84, Type (0, 0), BuildingBlock: OJICUG_clean_linker_0, # of connection points: 2
#     Edge 85, Type (0, 0), BuildingBlock: OJICUG_clean_linker_0, # of connection points: 2
#     Edge 86, Type (0, 0), BuildingBlock: OJICUG_clean_linker_0, # of connection points: 2
#     Edge 87, Type (0, 0), BuildingBlock: OJICUG_clean_linker_0, # of connection points: 2
#     Edge 88, Type (0, 0), BuildingBlock: OJICUG_clean_linker_0, # of connection points: 2
#     Edge 89, Type (0, 0), BuildingBlock: OJICUG_clean_linker_0, # of connection points: 2
#     Edge 90, Type (0, 0), BuildingBlock: OJICUG_clean_linker_0, # of connection points: 2
#     Edge 91, Type (0, 0), BuildingBlock: OJICUG_clean_linker_0, # of connection points: 2
#     Edge 92, Type (0, 0), BuildingBlock: OJICUG_clean_linker_0, # of connection points: 2
#     Edge 93, Type (0, 0), BuildingBlock: OJICUG_clean_linker_0, # of connection points: 2
#     Edge 94, Type (0, 0), BuildingBlock: OJICUG_clean_linker_0, # of connection points: 2
#     Edge 95, Type (0, 0), BuildingBlock: OJICUG_clean_linker_0, # of connection points: 2
# Relax obj value: 0.163
# Max RMSD: 0.161
# Mean RMSD: 0.161
data_MOF--net-uod--node1-CEKHIL_clean_sbu_0--edge1-OJICUG_clean_linker_0
_symmetry_space_group_name_H-M    P1
_symmetry_Int_Tables_number       1
_symmetry_cell_setting            triclinic
loop_
_symmetry_equiv_pos_as_xyz
'x, y, z'
_cell_length_a     65.582343
_cell_length_b     19.418985
_cell_length_c     43.441924
_cell_angle_alpha  90.008125
_cell_angle_beta   90.004641
_cell_angle_gamma 89.990077
loop_
_atom_site_label
_atom_site_type_symbol
_atom_site_fract_x
_atom_site_fract_y
_atom_site_fract_z
_atom_type_partial_charge
Co0 Co 0.06286 0.34999 0.09167 0.0
O1 O 0.03666 0.357 0.07174 0.0
O2 O 0.06546 0.39686 0.05228 0.0
C3 C 0.0606 0.24097 0.10799 0.0
O4 O 0.09268 0.35102 0.10683 0.0
Co5 Co 0.06251 0.33189 0.16286 0.0
O6 O 0.09259 0.3267 0.15766 0.0
C7 C 0.04971 0.46162 0.13568 0.0
C8 C 0.04564 0.39258 0.05043 0.0
C9 C 0.10205 0.33963 0.13263 0.0
O10 O 0.05782 0.44121 0.11058 0.0
O11 O 0.04827 0.42349 0.1596 0.0
O12 O 0.06592 0.25352 0.07963 0.0
O13 O 0.05432 0.29342 0.12353 0.0
Co14 Co 0.23373 0.86962 0.09171 0.0
O15 O 0.25989 0.86211 0.07168 0.0
O16 O 0.23103 0.82209 0.05248 0.0
C17 C 0.23609 0.97887 0.10778 0.0
O18 O 0.20395 0.86894 0.10705 0.0
Co19 Co 0.2343 0.88838 0.16286 0.0
O20 O 0.20419 0.89338 0.15787 0.0
C21 C 0.24709 0.75856 0.1358 0.0
C22 C 0.25086 0.82607 0.05057 0.0
C23 C 0.19466 0.8804 0.13291 0.0
O24 O 0.23877 0.77864 0.11081 0.0
O25 O 0.24863 0.79691 0.15964 0.0
O26 O 0.23071 0.96602 0.07948 0.0
O27 O 0.24237 0.92655 0.1234 0.0
Co28 Co 0.06632 0.86368 0.18037 0.0
O29 O 0.03985 0.85613 0.1993 0.0
O30 O 0.06842 0.81874 0.22039 0.0
C31 C 0.06348 0.97181 0.16306 0.0
O32 O 0.09634 0.86425 0.16601 0.0
Co33 Co 0.06628 0.87799 0.109 0.0
O34 O 0.09629 0.88461 0.11479 0.0
C35 C 0.05285 0.75103 0.13796 0.0
C36 C 0.04854 0.82225 0.22137 0.0
C37 C 0.10573 0.87445 0.1401 0.0
O38 O 0.06211 0.77131 0.16216 0.0
O39 O 0.05095 0.78869 0.11396 0.0
O40 O 0.06858 0.96087 0.19164 0.0
O41 O 0.05783 0.91817 0.14782 0.0
Co42 Co 0.2303 0.35665 0.17989 0.0
O43 O 0.2567 0.36452 0.199 0.0
O44 O 0.22802 0.40164 0.21986 0.0
C45 C 0.23325 0.24852 0.16257 0.0
O46 O 0.20033 0.35584 0.16539 0.0
Co47 Co 0.23047 0.34253 0.10855 0.0
O48 O 0.20043 0.33581 0.11414 0.0
C49 C 0.24389 0.46932 0.13766 0.0
C50 C 0.2479 0.39841 0.22098 0.0
C51 C 0.19097 0.34575 0.13945 0.0
O52 O 0.23448 0.44905 0.16172 0.0
O53 O 0.24586 0.43171 0.11366 0.0
O54 O 0.22809 0.25946 0.19112 0.0
O55 O 0.23891 0.3022 0.14736 0.0
Co56 Co 0.98041 0.61416 0.92989 0.0
O57 O 1.00658 0.60584 0.9497 0.0
O58 O 0.97762 0.56854 0.9696 0.0
C59 C 0.98345 0.72252 0.91292 0.0
O60 O 0.95061 0.61522 0.91474 0.0
Co61 Co 0.98114 0.62961 0.85859 0.0
O62 O 0.95108 0.63685 0.86365 0.0
C63 C 0.99392 0.50153 0.88724 0.0
C64 C 0.99748 0.57154 0.97128 0.0
C65 C 0.94144 0.62619 0.88875 0.0
O66 O 0.9848 0.52202 0.91151 0.0
O67 O 0.99597 0.53931 0.86331 0.0
O68 O 0.97805 0.7112 0.94135 0.0
O69 O 0.98933 0.6691 0.8977 0.0
Co70 Co 0.8138 0.1063 0.92854 0.0
O71 O 0.78738 0.11348 0.94767 0.0
O72 O 0.81603 0.15092 0.96855 0.0
C73 C 0.81116 -0.00173 0.91115 0.0
O74 O 0.84378 0.10615 0.91416 0.0
Co75 Co 0.81387 0.09206 0.85718 0.0
O76 O 0.84387 0.08498 0.86302 0.0
C77 C 0.80074 0.21973 0.8859 0.0
C78 C 0.79617 0.14722 0.96972 0.0
C79 C 0.85324 0.09555 0.88836 0.0
O80 O 0.80943 0.19874 0.91046 0.0
O81 O 0.79904 0.18235 0.86178 0.0
O82 O 0.81624 0.00924 0.93973 0.0
O83 O 0.80534 0.05177 0.89594 0.0
Co84 Co 0.98132 0.10077 0.84124 0.0
O85 O 1.00749 0.10865 0.8213 0.0
O86 O 0.97856 0.14756 0.80186 0.0
C87 C 0.98399 -0.00816 0.85766 0.0
O88 O 0.95153 0.10094 0.85636 0.0
Co89 Co 0.9817 0.08297 0.91244 0.0
O90 O 0.95161 0.07777 0.9073 0.0
C91 C 0.99475 0.21201 0.88491 0.0
C92 C 0.9984 0.14406 0.80003 0.0
C93 C 0.94215 0.09 0.88219 0.0
O94 O 0.98611 0.19214 0.86013 0.0
O95 O 0.9964 0.17368 0.90874 0.0
O96 O 0.9786 0.00404 0.8293 0.0
O97 O 0.99004 0.04464 0.87315 0.0
Co98 Co 0.81363 0.62018 0.83968 0.0
O99 O 0.78753 0.61213 0.81963 0.0
O100 O 0.81651 0.57298 0.80042 0.0
C101 C 0.8109 0.72918 0.85586 0.0
O102 O 0.84337 0.62026 0.85507 0.0
Co103 Co 0.8129 0.63866 0.91087 0.0
O104 O 0.843 0.64406 0.90595 0.0
C105 C 0.80004 0.50934 0.88343 0.0
C106 C 0.79667 0.57647 0.79849 0.0
C107 C 0.85259 0.6316 0.88099 0.0
O108 O 0.8088 0.529 0.85872 0.0
O109 O 0.79825 0.54788 0.90717 0.0
O110 O 0.81639 0.71678 0.82757 0.0
O111 O 0.8048 0.67652 0.87138 0.0
Co112 Co 0.06929 0.85671 0.59267 0.0
O113 O 0.0431 0.86602 0.57304 0.0
O114 O 0.07214 0.90165 0.55281 0.0
C115 C 0.06567 0.74871 0.60992 0.0
O116 O 0.09911 0.85444 0.60762 0.0
Co117 Co 0.06869 0.84225 0.664 0.0
O118 O 0.09875 0.83461 0.65886 0.0
C119 C 0.05561 0.96926 0.63469 0.0
C120 C 0.05227 0.89953 0.55128 0.0
C121 C 0.10833 0.84412 0.63363 0.0
O122 O 0.06535 0.94922 0.61088 0.0
O123 O 0.05334 0.93142 0.65856 0.0
O124 O 0.07113 0.75935 0.58147 0.0
O125 O 0.06019 0.80272 0.62504 0.0
Co126 Co 0.23055 0.3628 0.59272 0.0
O127 O 0.25681 0.35388 0.57331 0.0
O128 O 0.22788 0.31788 0.55282 0.0
C129 C 0.234 0.47079 0.60996 0.0
O130 O 0.20066 0.36475 0.60747 0.0
Co131 Co 0.23095 0.3774 0.66406 0.0
O132 O 0.20091 0.38495 0.65869 0.0
C133 C 0.24413 0.25032 0.6349 0.0
C134 C 0.24776 0.32036 0.55144 0.0
C135 C 0.19138 0.37521 0.63343 0.0
O136 O 0.23453 0.27033 0.61096 0.0
O137 O 0.2463 0.28819 0.65878 0.0
O138 O 0.22863 0.46009 0.58148 0.0
O139 O 0.23949 0.41687 0.62513 0.0
Co140 Co 0.06334 0.37043 0.68113 0.0
O141 O 0.03718 0.36266 0.70108 0.0
O142 O 0.06607 0.32305 0.72036 0.0
C143 C 0.06098 0.47964 0.66502 0.0
O144 O 0.09315 0.37003 0.66599 0.0
Co145 Co 0.06297 0.38927 0.60997 0.0
O146 O 0.09304 0.39492 0.61522 0.0
C147 C 0.05069 0.25857 0.63672 0.0
C148 C 0.04624 0.32682 0.72224 0.0
C149 C 0.1025 0.38183 0.64023 0.0
O150 O 0.05846 0.27931 0.66202 0.0
O151 O 0.04927 0.29671 0.61281 0.0
O152 O 0.06627 0.46684 0.69336 0.0
O153 O 0.05473 0.4273 0.64937 0.0
Co154 Co 0.23638 0.84869 0.68142 0.0
O155 O 0.26256 0.85594 0.70134 0.0
O156 O 0.23372 0.8956 0.72077 0.0
C157 C 0.23865 0.73965 0.66514 0.0
O158 O 0.20657 0.84945 0.66631 0.0
Co159 Co 0.23671 0.83034 0.61022 0.0
O160 O 0.20666 0.82453 0.61554 0.0
C161 C 0.24901 0.96091 0.63715 0.0
C162 C 0.25354 0.89146 0.72264 0.0
C163 C 0.1972 0.83764 0.64055 0.0
O164 O 0.24133 0.93996 0.66247 0.0
O165 O 0.25037 0.92293 0.61317 0.0
O166 O 0.23337 0.75229 0.6935 0.0
O167 O 0.24494 0.79203 0.64956 0.0
Co168 Co 0.98726 0.12187 0.43075 0.0
O169 O 1.01346 0.11457 0.45067 0.0
O170 O 0.98462 0.07482 0.47006 0.0
C171 C 0.98947 0.23097 0.41456 0.0
O172 O 0.95744 0.12109 0.41564 0.0
Co173 Co 0.98759 0.1406 0.35956 0.0
O174 O 0.95755 0.14645 0.36492 0.0
C175 C 0.99968 0.00959 0.38627 0.0
C176 C 1.00444 0.07896 0.47194 0.0
C177 C 0.94809 0.13307 0.38989 0.0
O178 O 0.99222 0.03069 0.41172 0.0
O179 O 1.001 0.04757 0.36229 0.0
O180 O 0.98422 0.21824 0.44292 0.0
O181 O 0.9958 0.17868 0.39895 0.0
Co182 Co 0.8132 0.59941 0.42884 0.0
O183 O 0.78703 0.60633 0.44886 0.0
O184 O 0.81583 0.64663 0.46813 0.0
C185 C 0.81112 0.49018 0.41276 0.0
O186 O 0.84301 0.60064 0.41363 0.0
Co187 Co 0.81289 0.58073 0.35771 0.0
O188 O 0.84297 0.57547 0.36289 0.0
C189 C 0.80048 0.7114 0.38444 0.0
C190 C 0.79602 0.64213 0.47009 0.0
C191 C 0.85241 0.58889 0.38788 0.0
O192 O 0.80806 0.69047 0.40982 0.0
O193 O 0.79923 0.67343 0.36044 0.0
O194 O 0.8164 0.50321 0.44108 0.0
O195 O 0.80471 0.54228 0.39707 0.0
Co196 Co 0.9809 0.60723 0.34159 0.0
O197 O 1.00743 0.61551 0.32293 0.0
O198 O 0.97886 0.65163 0.30143 0.0
C199 C 0.98412 0.49939 0.35916 0.0
O200 O 0.95083 0.60576 0.35564 0.0
Co201 Co 0.98066 0.59351 0.413 0.0
O202 O 0.95069 0.58624 0.40693 0.0
C203 C 0.99413 0.72016 0.38377 0.0
C204 C 0.99875 0.64875 0.30066 0.0
C205 C 0.94135 0.59576 0.38149 0.0
O206 O 0.98474 0.69991 0.35969 0.0
O207 O 0.99609 0.68252 0.40777 0.0
O208 O 0.97905 0.50978 0.33053 0.0
O209 O 0.98945 0.55348 0.37433 0.0
Co210 Co 0.82033 0.11253 0.34128 0.0
O211 O 0.79418 0.10316 0.32159 0.0
O212 O 0.82325 0.06737 0.30146 0.0
C213 C 0.81663 0.2206 0.35836 0.0
O214 O 0.85011 0.11498 0.3564 0.0
Co215 Co 0.81948 0.12701 0.41256 0.0
O216 O 0.84956 0.1346 0.40766 0.0
C217 C 0.8063 0.0004 0.38306 0.0
C218 C 0.80337 0.06954 0.29989 0.0
C219 C 0.85924 0.12526 0.38248 0.0
O220 O 0.81638 0.0201 0.35954 0.0
O221 O 0.80389 0.03833 0.40688 0.0
O222 O 0.82217 0.20979 0.32996 0.0
O223 O 0.81114 0.16667 0.37353 0.0
Co224 Co 0.56476 0.35532 0.5914 0.0
O225 O 0.53855 0.36367 0.5717 0.0
O226 O 0.5675 0.40064 0.55163 0.0
C227 C 0.56171 0.2471 0.60847 0.0
O228 O 0.5946 0.35415 0.60637 0.0
Co229 Co 0.56427 0.34 0.66272 0.0
O230 O 0.59431 0.3325 0.65746 0.0
C231 C 0.55149 0.46817 0.63413 0.0
C232 C 0.54764 0.39769 0.55001 0.0
C233 C 0.60386 0.34312 0.63228 0.0
O234 O 0.56045 0.44756 0.60973 0.0
O235 O 0.54953 0.43044 0.65809 0.0
O236 O 0.56705 0.25825 0.58001 0.0
O237 O 0.55589 0.3006 0.62369 0.0
Co238 Co 0.73095 0.8624 0.59136 0.0
O239 O 0.75712 0.85404 0.57155 0.0
O240 O 0.72813 0.81706 0.55159 0.0
C241 C 0.73403 0.97063 0.60844 0.0
O242 O 0.70114 0.86358 0.60643 0.0
Co243 Co 0.73154 0.87767 0.66268 0.0
O244 O 0.70149 0.8852 0.65753 0.0
C245 C 0.74431 0.74955 0.634 0.0
C246 C 0.74799 0.82 0.5499 0.0
C247 C 0.69191 0.87461 0.63238 0.0
O248 O 0.73529 0.77015 0.60966 0.0
O249 O 0.74631 0.78728 0.65796 0.0
O250 O 0.72863 0.95946 0.58 0.0
O251 O 0.73987 0.91713 0.62362 0.0
Co252 Co 0.56391 0.86926 0.68036 0.0
O253 O 0.53774 0.86116 0.70023 0.0
O254 O 0.56669 0.82253 0.71973 0.0
C255 C 0.56116 0.97811 0.66394 0.0
O256 O 0.59371 0.86938 0.66525 0.0
Co257 Co 0.56346 0.88708 0.60914 0.0
O258 O 0.59354 0.8927 0.61433 0.0
C259 C 0.55062 0.75783 0.63667 0.0
C260 C 0.54684 0.82585 0.72151 0.0
C261 C 0.60304 0.88051 0.63941 0.0
O262 O 0.55922 0.77783 0.66147 0.0
O263 O 0.54891 0.79614 0.61285 0.0
O264 O 0.56656 0.966 0.69231 0.0
O265 O 0.55516 0.92526 0.64846 0.0
Co266 Co 0.73186 0.34871 0.68017 0.0
O267 O 0.75802 0.35687 0.70004 0.0
O268 O 0.72908 0.39564 0.71951 0.0
C269 C 0.7346 0.23978 0.66382 0.0
O270 O 0.70206 0.34856 0.66505 0.0
Co271 Co 0.73231 0.33067 0.60896 0.0
O272 O 0.70223 0.32518 0.61413 0.0
C273 C 0.7452 0.45995 0.63644 0.0
C274 C 0.74893 0.39232 0.72129 0.0
C275 C 0.69274 0.33741 0.6392 0.0
O276 O 0.73656 0.44007 0.66122 0.0
O277 O 0.74691 0.42156 0.61264 0.0
O278 O 0.72921 0.25201 0.69218 0.0
O279 O 0.74061 0.29258 0.64831 0.0
Co280 Co 0.48245 0.61808 0.42893 0.0
O281 O 0.50862 0.61074 0.44887 0.0
O282 O 0.47976 0.57159 0.4684 0.0
C283 C 0.48495 0.72694 0.41247 0.0
O284 O 0.45264 0.61761 0.41374 0.0
Co285 Co 0.4829 0.63542 0.35772 0.0
O286 O 0.45282 0.64105 0.36282 0.0
C287 C 0.49588 0.50639 0.38537 0.0
C288 C 0.49959 0.57556 0.47026 0.0
C289 C 0.44331 0.62881 0.38788 0.0
O290 O 0.48735 0.52661 0.41018 0.0
O291 O 0.49749 0.54448 0.36146 0.0
O292 O 0.47957 0.71468 0.44083 0.0
O293 O 0.49111 0.67424 0.39699 0.0
Co294 Co 0.31335 0.10148 0.43043 0.0
O295 O 0.28712 0.1085 0.45019 0.0
O296 O 0.31592 0.14742 0.47005 0.0
C297 C 0.31089 -0.00711 0.41366 0.0
O298 O 0.34318 0.10213 0.41542 0.0
Co299 Co 0.31297 0.08478 0.35914 0.0
O300 O 0.34301 0.0786 0.3645 0.0
C301 C 0.3002 0.21389 0.38697 0.0
C302 C 0.29608 0.14336 0.47175 0.0
C303 C 0.35251 0.09083 0.38958 0.0
O304 O 0.30852 0.1932 0.41187 0.0
O305 O 0.2986 0.17603 0.36298 0.0
O306 O 0.3162 0.00473 0.44208 0.0
O307 O 0.30476 0.04578 0.39832 0.0
Co308 Co 0.48027 0.105 0.34084 0.0
O309 O 0.50636 0.11303 0.32082 0.0
O310 O 0.47734 0.15074 0.30122 0.0
C311 C 0.48331 -0.00342 0.35768 0.0
O312 O 0.45054 0.10434 0.35619 0.0
Co313 Co 0.48113 0.08937 0.41209 0.0
O314 O 0.45102 0.08318 0.40731 0.0
C315 C 0.49421 0.21702 0.38338 0.0
C316 C 0.49718 0.14753 0.29936 0.0
C317 C 0.44138 0.09387 0.38223 0.0
O318 O 0.48483 0.197 0.35925 0.0
O319 O 0.49627 0.17907 0.40726 0.0
O320 O 0.47778 0.00806 0.32932 0.0
O321 O 0.48925 0.04988 0.37292 0.0
Co322 Co 0.31492 0.61584 0.341 0.0
O323 O 0.2885 0.60835 0.32189 0.0
O324 O 0.31712 0.57031 0.30116 0.0
C325 C 0.31224 0.72421 0.35804 0.0
O326 O 0.34492 0.61601 0.35543 0.0
Co327 Co 0.31499 0.63162 0.41235 0.0
O328 O 0.345 0.63781 0.40653 0.0
C329 C 0.30172 0.50362 0.38409 0.0
C330 C 0.29725 0.57399 0.3 0.0
C331 C 0.35437 0.62668 0.38124 0.0
O332 O 0.31051 0.52383 0.35949 0.0
O333 O 0.30002 0.54156 0.40804 0.0
O334 O 0.31736 0.71287 0.3295 0.0
O335 O 0.30647 0.67088 0.37338 0.0
Co336 Co 0.57081 0.85666 0.09161 0.0
O337 O 0.54449 0.86537 0.07247 0.0
O338 O 0.57331 0.90086 0.05149 0.0
C339 C 0.56722 0.74895 0.10912 0.0
O340 O 0.60073 0.85455 0.10621 0.0
Co341 Co 0.57045 0.84353 0.16296 0.0
O342 O 0.60048 0.83586 0.15756 0.0
C343 C 0.55705 0.96957 0.13316 0.0
C344 C 0.55342 0.89831 0.05035 0.0
C345 C 0.61001 0.84473 0.13222 0.0
O346 O 0.567 0.94948 0.10957 0.0
O347 O 0.55478 0.932 0.15711 0.0
O348 O 0.57257 0.75924 0.08061 0.0
O349 O 0.56189 0.80317 0.12422 0.0
Co350 Co 0.72959 0.36161 0.09139 0.0
O351 O 0.75597 0.35285 0.07238 0.0
O352 O 0.72718 0.31749 0.05123 0.0
C353 C 0.73316 0.46929 0.10897 0.0
O354 O 0.69962 0.36374 0.10581 0.0
Co355 Co 0.72975 0.37493 0.16277 0.0
O356 O 0.69975 0.38264 0.15715 0.0
C357 C 0.74312 0.24862 0.13312 0.0
C358 C 0.74707 0.32001 0.05018 0.0
C359 C 0.69028 0.37364 0.13177 0.0
O360 O 0.73336 0.26878 0.10936 0.0
O361 O 0.74531 0.28623 0.15708 0.0
O362 O 0.72787 0.45908 0.08042 0.0
O363 O 0.73844 0.41504 0.12406 0.0
Co364 Co 0.56224 0.37064 0.17939 0.0
O365 O 0.53608 0.36354 0.19939 0.0
O366 O 0.56491 0.32301 0.21854 0.0
C367 C 0.5602 0.47998 0.16355 0.0
O368 O 0.59203 0.36954 0.16418 0.0
Co369 Co 0.5619 0.39009 0.1083 0.0
O370 O 0.59196 0.39579 0.11356 0.0
C371 C 0.54992 0.25855 0.13458 0.0
C372 C 0.54509 0.32747 0.22051 0.0
C373 C 0.60141 0.38187 0.13849 0.0
O374 O 0.55712 0.27976 0.16017 0.0
O375 O 0.54876 0.29654 0.11058 0.0
O376 O 0.56546 0.46665 0.19185 0.0
O377 O 0.55374 0.4281 0.14776 0.0
Co378 Co 0.73813 0.84711 0.1798 0.0
O379 O 0.76435 0.85414 0.19965 0.0
O380 O 0.73557 0.89448 0.21903 0.0
C381 C 0.74015 0.73786 0.1638 0.0
O382 O 0.70829 0.84824 0.16475 0.0
Co383 Co 0.73832 0.82788 0.10866 0.0
O384 O 0.70829 0.82215 0.1141 0.0
C385 C 0.75024 0.95947 0.13499 0.0
C386 C 0.75539 0.89003 0.22088 0.0
C387 C 0.69888 0.836 0.13907 0.0
O388 O 0.74317 0.9381 0.16064 0.0
O389 O 0.75137 0.92155 0.11097 0.0
O390 O 0.73496 0.751 0.19216 0.0
O391 O 0.74656 0.78984 0.14806 0.0
Co392 Co 0.48653 0.11255 0.92921 0.0
O393 O 0.51299 0.10601 0.94832 0.0
O394 O 0.48442 0.06734 0.96904 0.0
C395 C 0.4887 0.2209 0.91212 0.0
O396 O 0.45652 0.11168 0.91497 0.0
Co397 Co 0.48615 0.12792 0.8579 0.0
O398 O 0.45617 0.13425 0.86397 0.0
C399 C 0.4991 -0.00089 0.88579 0.0
C400 C 0.50427 0.07164 0.97025 0.0
C401 C 0.44693 0.12259 0.88931 0.0
O402 O 0.49117 0.02048 0.91086 0.0
O403 O 0.50042 0.03645 0.86161 0.0
O404 O 0.48375 0.20929 0.9407 0.0
O405 O 0.49474 0.16793 0.89672 0.0
Co406 Co 0.31593 0.59905 0.93196 0.0
O407 O 0.28979 0.60738 0.9519 0.0
O408 O 0.31874 0.64613 0.97131 0.0
C409 C 0.31322 0.49008 0.91564 0.0
O410 O 0.34571 0.59846 0.91665 0.0
Co411 Co 0.31512 0.58123 0.86074 0.0
O412 O 0.3452 0.57488 0.86573 0.0
C413 C 0.30271 0.7109 0.88828 0.0
C414 C 0.29889 0.64284 0.97314 0.0
C415 C 0.35486 0.58687 0.89068 0.0
O416 O 0.31126 0.69048 0.91303 0.0
O417 O 0.30086 0.67273 0.86443 0.0
O418 O 0.3186 0.50241 0.94399 0.0
O419 O 0.30711 0.54281 0.90016 0.0
Co420 Co 0.48247 0.59862 0.84059 0.0
O421 O 0.50852 0.60736 0.82048 0.0
O422 O 0.47943 0.64521 0.80117 0.0
C423 C 0.48572 0.48995 0.85701 0.0
O424 O 0.45277 0.59746 0.85614 0.0
Co425 Co 0.48356 0.58134 0.91181 0.0
O426 O 0.45344 0.57495 0.90715 0.0
C427 C 0.49653 0.70955 0.88351 0.0
C428 C 0.49928 0.64233 0.79924 0.0
C429 C 0.4437 0.58633 0.8822 0.0
O430 O 0.48701 0.69021 0.85939 0.0
O431 O 0.4987 0.67105 0.90719 0.0
O432 O 0.48008 0.50172 0.82873 0.0
O433 O 0.49159 0.54313 0.87237 0.0
Co434 Co 0.31872 0.1125 0.8433 0.0
O435 O 0.2925 0.10452 0.8236 0.0
O436 O 0.32142 0.06716 0.80355 0.0
C437 C 0.31571 0.22081 0.8604 0.0
O438 O 0.34857 0.11293 0.85815 0.0
Co439 Co 0.31851 0.1279 0.91459 0.0
O440 O 0.34859 0.13398 0.90928 0.0
C441 C 0.30514 0.00037 0.88597 0.0
C442 C 0.30156 0.0703 0.80194 0.0
C443 C 0.35799 0.12318 0.88399 0.0
O444 O 0.31428 0.02038 0.86163 0.0
O445 O 0.30331 0.03829 0.9099 0.0
O446 O 0.32109 0.20962 0.83196 0.0
O447 O 0.30994 0.16731 0.87563 0.0
C448 C 0.0456 0.64159 0.16546 0.0
C449 C 0.04635 0.6787 0.13758 0.0
H450 H 0.04588 0.54241 0.18683 0.0
C451 C 0.04338 0.64398 0.10973 0.0
H452 H 0.0472 0.66746 0.18743 0.0
C453 C 0.04235 0.57241 0.10952 0.0
C454 C 0.04439 0.53491 0.13714 0.0
H455 H 0.04344 0.67137 0.08801 0.0
H456 H 0.04151 0.54633 0.0875 0.0
C457 C 0.04466 0.57001 0.16524 0.0
C458 C 0.2521 0.65009 0.16529 0.0
C459 C 0.2525 0.68535 0.13724 0.0
H460 H 0.24941 0.55251 0.18731 0.0
C461 C 0.25466 0.64803 0.1096 0.0
H462 H 0.25077 0.67758 0.1869 0.0
C463 C 0.2536 0.57646 0.10969 0.0
C464 C 0.25047 0.54159 0.13745 0.0
H465 H 0.25561 0.67427 0.08762 0.0
H466 H 0.25362 0.54921 0.08793 0.0
C467 C 0.25112 0.57851 0.16539 0.0
C468 C 1.00251 0.32214 0.85847 0.0
C469 C 1.00057 0.28487 0.88616 0.0
H470 H 1.00199 0.42118 0.83699 0.0
C471 C 1.00109 0.31995 0.91426 0.0
H472 H 1.00277 0.296 0.83643 0.0
C473 C 1.00083 0.39159 0.9145 0.0
C474 C 0.99998 0.42877 0.88665 0.0
H475 H 0.99998 0.29246 0.9359 0.0
H476 H 0.99981 0.41763 0.93651 0.0
C477 C 1.00218 0.39378 0.85871 0.0
C478 C 0.79231 0.39915 0.85705 0.0
C479 C 0.79422 0.4365 0.88472 0.0
H480 H 0.79282 0.30007 0.83561 0.0
C481 C 0.79366 0.40153 0.91284 0.0
H482 H 0.79208 0.42523 0.83499 0.0
C483 C 0.79391 0.32988 0.91312 0.0
C484 C 0.79478 0.29259 0.88529 0.0
H485 H 0.79475 0.4291 0.93446 0.0
H486 H 0.79489 0.30393 0.93515 0.0
C487 C 0.79263 0.32752 0.85732 0.0
C488 C 0.04511 0.07585 0.66248 0.0
C489 C 0.04885 0.04134 0.63479 0.0
H490 H 0.04214 0.17336 0.68458 0.0
C491 C 0.0484 0.07837 0.60688 0.0
H492 H 0.04493 0.04847 0.6842 0.0
C493 C 0.04692 0.14985 0.60701 0.0
C494 C 0.04584 0.18494 0.63507 0.0
H495 H 0.05058 0.0526 0.58499 0.0
H496 H 0.04837 0.17752 0.58547 0.0
C497 C 0.04357 0.14732 0.66261 0.0
C498 C 0.25594 0.0723 0.66308 0.0
C499 C 0.25382 0.03459 0.63554 0.0
H500 H 0.25449 0.17123 0.6846 0.0
C501 C 0.25291 0.06961 0.60745 0.0
H502 H 0.25724 0.04634 0.68508 0.0
C503 C 0.25146 0.14109 0.60724 0.0
C504 C 0.25086 0.17821 0.63513 0.0
H505 H 0.25159 0.04187 0.5859 0.0
H506 H 0.24942 0.16679 0.58532 0.0
C507 C 0.25442 0.14378 0.66289 0.0
C508 C 1.00641 0.89785 0.41201 0.0
C509 C 1.00427 0.93576 0.38453 0.0
H510 H 1.00482 0.79889 0.43344 0.0
C511 C 1.00307 0.90091 0.35641 0.0
H512 H 1.00791 0.92366 0.43402 0.0
C513 C 1.00142 0.82948 0.35615 0.0
C514 C 1.00089 0.79223 0.384 0.0
H515 H 1.00171 0.92879 0.33491 0.0
H516 H 0.99919 0.80398 0.33422 0.0
C517 C 1.00469 0.82644 0.41176 0.0
C518 C 0.7933 0.8226 0.41037 0.0
C519 C 0.79572 0.78513 0.38281 0.0
H520 H 0.79482 0.92121 0.4322 0.0
C521 C 0.79718 0.82045 0.35485 0.0
H522 H 0.79158 0.7964 0.43225 0.0
C523 C 0.79892 0.89186 0.3549 0.0
C524 C 0.79926 0.92861 0.3829 0.0
H525 H 0.79875 0.79292 0.33329 0.0
H526 H 0.80141 0.91772 0.33312 0.0
C527 C 0.79511 0.89402 0.41043 0.0
C528 C 0.54305 0.6475 0.66307 0.0
C529 C 0.54489 0.68488 0.6354 0.0
H530 H 0.54362 0.54838 0.68448 0.0
C531 C 0.54433 0.64991 0.60728 0.0
H532 H 0.54283 0.67355 0.68514 0.0
C533 C 0.5446 0.57827 0.60698 0.0
C534 C 0.54551 0.54098 0.6348 0.0
H535 H 0.54537 0.67748 0.58566 0.0
H536 H 0.54556 0.55232 0.58494 0.0
C537 C 0.54338 0.57586 0.66278 0.0
C538 C 0.75117 0.6395 0.60678 0.0
C539 C 0.75032 0.67676 0.63461 0.0
H540 H 0.75035 0.54031 0.58542 0.0
C541 C 0.75253 0.64185 0.66257 0.0
H542 H 0.75014 0.66548 0.58475 0.0
C543 C 0.75288 0.57021 0.66283 0.0
C544 C 0.75096 0.53286 0.63516 0.0
H545 H 0.75234 0.66931 0.68428 0.0
H546 H 0.75314 0.54413 0.68489 0.0
C547 C 0.75145 0.56786 0.60705 0.0
C548 C 0.50344 0.3962 0.41192 0.0
C549 C 0.50158 0.43338 0.38419 0.0
H550 H 0.50262 0.29729 0.43353 0.0
C551 C 0.502 0.39811 0.35614 0.0
H552 H 0.50378 0.42246 0.43394 0.0
C553 C 0.50152 0.32647 0.35599 0.0
C554 C 0.50055 0.2895 0.38389 0.0
H555 H 0.50095 0.42549 0.33447 0.0
H556 H 0.5004 0.30033 0.33401 0.0
C557 C 0.50289 0.32456 0.41178 0.0
C558 C 0.29373 0.39631 0.41307 0.0
C559 C 0.2956 0.43097 0.38499 0.0
H560 H 0.29322 0.29883 0.43557 0.0
C561 C 0.29431 0.39354 0.35725 0.0
H562 H 0.29428 0.42394 0.43472 0.0
C563 C 0.29389 0.32192 0.35764 0.0
C564 C 0.2947 0.28708 0.38579 0.0
H565 H 0.29507 0.41935 0.33516 0.0
H566 H 0.29462 0.29422 0.33602 0.0
C567 C 0.29324 0.32469 0.41346 0.0
C568 C 0.54763 0.14943 0.10484 0.0
C569 C 0.54558 0.18456 0.13276 0.0
H570 H 0.55265 0.05251 0.08315 0.0
C571 C 0.54304 0.14685 0.16022 0.0
H572 H 0.54933 0.17713 0.08335 0.0
C573 C 0.54524 0.07556 0.16029 0.0
C574 C 0.54991 0.04127 0.13286 0.0
H575 H 0.54089 0.17286 0.18206 0.0
H576 H 0.54478 0.04829 0.18203 0.0
C577 C 0.54976 0.07813 0.10488 0.0
C578 C 0.75252 0.06845 0.10515 0.0
C579 C 0.75448 0.03353 0.13315 0.0
H580 H 0.74761 0.1652 0.08328 0.0
C581 C 0.75689 0.07144 0.16058 0.0
H582 H 0.75091 0.04059 0.08368 0.0
C583 C 0.7547 0.14273 0.16052 0.0
C584 C 0.75017 0.17682 0.13299 0.0
H585 H 0.75896 0.04561 0.18248 0.0
H586 H 0.75509 0.17017 0.18222 0.0
C587 C 0.7504 0.13975 0.10508 0.0
C588 C 0.50515 0.81669 0.91221 0.0
C589 C 0.50299 0.78185 0.88423 0.0
H590 H 0.50613 0.9144 0.9345 0.0
C591 C 0.50428 0.81891 0.8564 0.0
H592 H 0.50461 0.78929 0.93392 0.0
C593 C 0.50496 0.89051 0.85663 0.0
C594 C 0.50441 0.92571 0.88471 0.0
H595 H 0.5033 0.79287 0.83439 0.0
H596 H 0.50422 0.91798 0.83496 0.0
C597 C 0.5059 0.88831 0.91245 0.0
C598 C 0.29568 0.82154 0.91478 0.0
C599 C 0.29729 0.78414 0.88707 0.0
H600 H 0.29688 0.92052 0.93628 0.0
C601 C 0.29686 0.81925 0.85898 0.0
H602 H 0.29537 0.79543 0.93683 0.0
C603 C 0.29756 0.89087 0.85875 0.0
C604 C 0.29874 0.92797 0.8866 0.0
H605 H 0.29772 0.7917 0.83734 0.0
H606 H 0.29863 0.91685 0.83673 0.0
C607 C 0.29644 0.89314 0.91456 0.0
C608 C 1.00018 0.47898 0.01181 0.0
C609 C 1.00962 0.5283 0.99294 0.0
H610 H 1.0041 0.39659 0.0441 0.0
C611 C 0.0311 0.53068 0.99228 0.0
H612 H 0.98372 0.47484 0.01255 0.0
C613 C 0.04283 0.48514 1.01002 0.0
C614 C 0.03341 0.43581 0.02889 0.0
H615 H 0.03894 0.56748 0.97776 0.0
H616 H 0.05929 0.48927 1.00925 0.0
C617 C 1.01192 0.4334 0.02958 0.0
C618 C 0.29623 0.73749 0.0127 0.0
C619 C 0.28677 0.68718 0.99437 0.0
H620 H 0.29238 0.82163 0.04411 0.0
C621 C 0.26528 0.68489 0.99377 0.0
H622 H 0.31269 0.7416 0.01337 0.0
C623 C 0.25358 0.73147 0.01105 0.0
C624 C 0.26304 0.78178 0.02938 0.0
H625 H 0.25741 0.64736 0.97966 0.0
H626 H 0.23712 0.72736 1.01036 0.0
C627 C 0.28453 0.78409 0.02999 0.0
C628 C 1.01446 0.78297 0.24134 0.0
C629 C 0.03594 0.78035 0.24295 0.0
H630 H 0.9859 0.74303 0.25765 0.0
C631 C 0.04495 0.73217 0.26283 0.0
H632 H 1.00695 0.81892 0.22602 0.0
C633 C 0.03282 0.68797 0.28067 0.0
C634 C 1.01134 0.6906 0.27906 0.0
H635 H 0.06138 0.72789 0.26434 0.0
H636 H 0.04034 0.65202 0.29598 0.0
C637 C 1.00233 0.73875 0.25916 0.0
C638 C 0.25124 0.48955 0.26205 0.0
C639 C 0.26037 0.44082 0.24254 0.0
H640 H 0.25567 0.57066 0.29481 0.0
C641 C 0.28185 0.43819 0.24122 0.0
H642 H 0.2348 0.49387 0.26331 0.0
C643 C 0.29387 0.48291 0.25896 0.0
C644 C 0.28474 0.53162 0.27848 0.0
H645 H 0.28945 0.40184 0.2262 0.0
H646 H 0.31031 0.4786 0.25767 0.0
C647 C 0.26327 0.53428 0.27979 0.0
C648 C 0.76222 0.18648 0.99023 0.0
C649 C 0.78371 0.18883 0.99156 0.0
H650 H 0.73381 0.22654 1.00709 0.0
C651 C 0.79289 0.23654 0.01149 0.0
H652 H 0.75458 0.15087 0.97489 0.0
C653 C 0.78093 0.28059 0.02962 0.0
C654 C 0.75945 0.27827 0.02829 0.0
H655 H 0.80934 0.24058 0.0128 0.0
H656 H 0.78859 0.3162 0.04494 0.0
C657 C 0.75025 0.23055 1.00837 0.0
C658 C 0.03199 0.18608 0.77931 0.0
C659 C 1.0105 0.1882 0.77871 0.0
H660 H 0.0601 0.22864 0.76261 0.0
C661 C 1.00098 0.2382 0.76028 0.0
H662 H 0.03989 0.14879 0.79351 0.0
C663 C 1.01263 0.28471 0.74289 0.0
C664 C 0.03412 0.2826 0.7435 0.0
H665 H 0.98452 0.24215 0.75961 0.0
H666 H 1.00474 0.32202 0.7287 0.0
C667 C 0.04363 0.23258 0.76193 0.0
C668 C 0.75148 0.48708 0.76072 0.0
C669 C 0.76102 0.43682 0.74246 0.0
H670 H 0.75519 0.57146 0.79199 0.0
C671 C 0.7825 0.43484 0.74183 0.0
H672 H 0.73501 0.49094 0.7614 0.0
C673 C 0.79413 0.48172 0.75903 0.0
C674 C 0.78459 0.53198 0.7773 0.0
H675 H 0.79041 0.39735 0.72775 0.0
H676 H 0.8106 0.47787 0.75836 0.0
C677 C 0.76311 0.53397 0.77792 0.0
C678 C 1.0071 -0.01323 0.51252 0.0
C679 C 1.01661 0.03559 0.49349 0.0
H680 H 1.01083 0.90474 0.54496 0.0
C681 C 0.0381 0.03737 0.49271 0.0
H682 H 0.99063 0.98315 0.51338 0.0
C683 C 0.04976 -0.00835 0.51053 0.0
C684 C 0.04022 0.94285 0.52956 0.0
H685 H 0.04599 0.07378 0.47806 0.0
H686 H 0.06623 -0.00471 0.50972 0.0
C687 C 1.01874 0.94111 0.53032 0.0
C688 C 0.26234 0.18377 0.49255 0.0
C689 C 0.28382 0.18602 0.49344 0.0
H690 H 0.23409 0.22492 0.50954 0.0
C691 C 0.29321 0.2347 0.51269 0.0
H692 H 0.25455 0.14743 0.47774 0.0
C693 C 0.28143 0.27979 0.53059 0.0
C694 C 0.25995 0.27758 0.5297 0.0
H695 H 0.30967 0.23869 0.51364 0.0
H696 H 0.28923 0.31611 0.5454 0.0
C697 C 0.25055 0.22889 0.51046 0.0
C698 C 0.2872 0.93247 0.74352 0.0
C699 C 0.26572 0.93471 0.74421 0.0
H700 H 0.31537 0.97404 0.76056 0.0
C701 C 0.25625 0.98388 0.76314 0.0
H702 H 0.29506 0.89579 0.72895 0.0
C703 C 0.26795 0.02942 0.78094 0.0
C704 C 0.28943 0.02718 0.78026 0.0
H705 H 0.23979 -0.01213 0.76392 0.0
H706 H 0.26009 0.06607 0.79552 0.0
C707 C 0.2989 0.97805 0.76132 0.0
C708 C 0.79327 0.73437 0.51066 0.0
C709 C 0.78382 0.68518 0.49174 0.0
H710 H 0.78943 0.8163 0.54316 0.0
C711 C 0.76233 0.68266 0.49118 0.0
H712 H 0.80973 0.73858 0.51135 0.0
C713 C 0.75062 0.72795 0.50912 0.0
C714 C 0.76009 0.77709 0.52807 0.0
H715 H 0.75449 0.64595 0.47661 0.0
H716 H 0.73416 0.72373 0.50848 0.0
C717 C 0.78157 0.77962 0.5286 0.0
C718 C 0.7891 0.93115 0.24163 0.0
C719 C 0.76761 0.93338 0.24235 0.0
H720 H 0.81727 0.97293 0.25863 0.0
C721 C 0.75815 0.98265 0.2612 0.0
H722 H 0.79695 0.89436 0.22711 0.0
C723 C 0.76984 0.02834 0.2789 0.0
C724 C 0.79132 0.02617 0.27822 0.0
H725 H 0.74168 -0.01339 0.26201 0.0
H726 H 0.76196 0.06508 0.29341 0.0
C727 C 0.80081 0.9769 0.25936 0.0
C728 C 0.53326 0.53485 0.49127 0.0
C729 C 0.51177 0.53255 0.49193 0.0
H730 H 0.56144 0.49359 0.50845 0.0
C731 C 0.50232 0.48357 0.51096 0.0
H732 H 0.54111 0.57138 0.47663 0.0
C733 C 0.51403 0.43829 0.52888 0.0
C734 C 0.53551 0.4406 0.52823 0.0
H735 H 0.48586 0.47952 0.51172 0.0
H736 H 0.50617 0.40176 0.54351 0.0
C737 C 0.54497 0.48954 0.50919 0.0
C738 C 0.51328 0.78333 0.74215 0.0
C739 C 0.53477 0.78153 0.74277 0.0
H740 H 0.48521 0.7403 0.75885 0.0
C741 C 0.54435 0.7316 0.76116 0.0
H742 H 0.50534 0.82057 0.72798 0.0
C743 C 0.53276 0.68487 0.77848 0.0
C744 C 0.51127 0.68668 0.77788 0.0
H745 H 0.56082 0.72788 0.76184 0.0
H746 H 0.54072 0.64764 0.79263 0.0
C747 C 0.50168 0.7366 0.7595 0.0
C748 C 0.49975 0.24069 0.25914 0.0
C749 C 0.50924 0.19091 0.27772 0.0
H750 H 0.50358 0.32374 0.22717 0.0
C751 C 0.53072 0.18829 0.27816 0.0
H752 H 0.48329 0.24499 0.25859 0.0
C753 C 0.5424 0.23411 0.26051 0.0
C754 C 0.53292 0.28392 0.24195 0.0
H755 H 0.5386 0.15113 0.29245 0.0
H756 H 0.55886 0.22982 0.26111 0.0
C757 C 0.51144 0.28654 0.24147 0.0
C758 C 0.53826 0.03253 0.9907 0.0
C759 C 0.51679 0.02991 0.99196 0.0
H760 H 0.5667 -0.00748 1.00755 0.0
C761 C 0.50762 0.98179 0.0117 0.0
H762 H 0.54588 0.06846 0.9755 0.0
C763 C 0.51959 0.93759 0.02972 0.0
C764 C 0.54107 0.94018 0.02849 0.0
H765 H 0.49117 0.97755 0.01296 0.0
H766 H 0.51194 0.90168 0.0449 0.0
C767 C 0.55025 -0.0117 1.00875 0.0
C768 C 0.15809 0.34817 0.10934 0.0
C769 C 0.16819 0.34581 0.13806 0.0
H770 H 0.12961 0.34851 0.08496 0.0
C771 C 0.15626 0.34252 0.16484 0.0
H772 H 0.16668 0.3512 0.08809 0.0
C773 C 0.13491 0.34051 0.16293 0.0
C774 C 0.12481 0.34238 0.13419 0.0
H775 H 0.16341 0.34062 0.1873 0.0
H776 H 0.12631 0.33756 0.18417 0.0
C777 C 0.13674 0.34678 0.10744 0.0
C778 C 0.14049 0.87784 0.1654 0.0
C779 C 0.12852 0.87423 0.13867 0.0
H780 H 0.17049 0.88308 0.18459 0.0
C781 C 0.13857 0.87153 0.10992 0.0
H782 H 0.13339 0.88002 0.18789 0.0
C783 C 0.15991 0.87293 0.10793 0.0
C784 C 0.17189 0.87766 0.13461 0.0
H785 H 0.12994 0.86823 0.08872 0.0
H786 H 0.16699 0.87092 0.08542 0.0
C787 C 0.16185 0.87985 0.1634 0.0
C788 C 0.88529 0.63016 0.91161 0.0
C789 C 0.87534 0.62924 0.88276 0.0
H790 H 0.91366 0.6294 0.93628 0.0
C791 C 0.88739 0.6261 0.85609 0.0
H792 H 0.87659 0.63215 0.93278 0.0
C793 C 0.90873 0.62491 0.8582 0.0
C794 C 0.91868 0.62621 0.88705 0.0
H795 H 0.88037 0.62516 0.83353 0.0
H796 H 0.91744 0.62282 0.83704 0.0
C797 C 0.90663 0.62834 0.91373 0.0
C798 C 0.90754 0.09628 0.85676 0.0
C799 C 0.91939 0.0925 0.88362 0.0
H800 H 0.87767 0.10014 0.83718 0.0
C801 C 0.90922 0.09115 0.91229 0.0
H802 H 0.91474 0.09762 0.83432 0.0
C803 C 0.88785 0.09307 0.91403 0.0
C804 C 0.87602 0.09575 0.88714 0.0
H805 H 0.91776 0.08869 0.9336 0.0
H806 H 0.88064 0.09159 0.93645 0.0
C807 C 0.8862 0.09758 0.85849 0.0
C808 C 0.16437 0.83875 0.61027 0.0
C809 C 0.17445 0.84021 0.63902 0.0
H810 H 0.13591 0.83931 0.58587 0.0
C811 C 0.16252 0.84406 0.66579 0.0
H812 H 0.17298 0.83621 0.58903 0.0
C813 C 0.14117 0.84544 0.66388 0.0
C814 C 0.1311 0.84364 0.63514 0.0
H815 H 0.16964 0.84543 0.68827 0.0
H816 H 0.13256 0.84812 0.68512 0.0
C817 C 0.14303 0.84075 0.60835 0.0
C818 C 0.13535 0.3808 0.60996 0.0
C819 C 0.12526 0.37923 0.6387 0.0
H820 H 0.16384 0.38026 0.5856 0.0
C821 C 0.13718 0.37517 0.66547 0.0
H822 H 0.12675 0.3835 0.58871 0.0
C823 C 0.15852 0.3737 0.66359 0.0
C824 C 0.16861 0.37563 0.63486 0.0
H825 H 0.13005 0.37369 0.68795 0.0
H826 H 0.16712 0.37087 0.68483 0.0
C827 C 0.15669 0.3787 0.60807 0.0
C828 C 0.89201 0.12403 0.41294 0.0
C829 C 0.882 0.12606 0.38414 0.0
H830 H 0.92043 0.12419 0.43748 0.0
C831 C 0.89399 0.12957 0.35743 0.0
H832 H 0.88334 0.12089 0.43411 0.0
C833 C 0.91532 0.13195 0.35947 0.0
C834 C 0.92533 0.13024 0.38827 0.0
H835 H 0.88691 0.13124 0.33492 0.0
H836 H 0.92397 0.13497 0.33828 0.0
C837 C 0.91335 0.12578 0.41496 0.0
C838 C 0.90838 0.59854 0.41135 0.0
C839 C 0.91855 0.59558 0.3827 0.0
H840 H 0.87987 0.59918 0.43559 0.0
C841 C 0.90669 0.59151 0.35587 0.0
H842 H 0.91692 0.6022 0.43263 0.0
C843 C 0.88533 0.58932 0.35768 0.0
C844 C 0.87517 0.59179 0.38637 0.0
H845 H 0.91389 0.58914 0.33346 0.0
H846 H 0.87677 0.58574 0.33642 0.0
C847 C 0.88704 0.59696 0.41315 0.0
C848 C 0.63669 0.34432 0.66252 0.0
C849 C 0.62663 0.34299 0.63377 0.0
H850 H 0.66516 0.34405 0.68693 0.0
C851 C 0.63856 0.34071 0.60698 0.0
H852 H 0.62808 0.34653 0.68377 0.0
C853 C 0.65991 0.3388 0.60889 0.0
C854 C 0.66998 0.33977 0.63765 0.0
H855 H 0.63144 0.33962 0.5845 0.0
H856 H 0.66852 0.33672 0.58765 0.0
C857 C 0.65804 0.34305 0.66443 0.0
C858 C 0.63775 0.87481 0.66461 0.0
C859 C 0.6258 0.87814 0.63785 0.0
H860 H 0.66773 0.87122 0.68391 0.0
C861 C 0.63585 0.87912 0.60908 0.0
H862 H 0.63065 0.87379 0.68711 0.0
C863 C 0.65719 0.87716 0.60714 0.0
C864 C 0.66915 0.87481 0.63391 0.0
H865 H 0.62723 0.88126 0.58784 0.0
H866 H 0.6643 0.87828 0.58464 0.0
C867 C 0.6591 0.87348 0.66268 0.0
C868 C 0.41043 0.62819 0.3576 0.0
C869 C 0.42054 0.62692 0.38634 0.0
H870 H 0.38191 0.6286 0.33328 0.0
C871 C 0.40862 0.62419 0.41314 0.0
H872 H 0.41903 0.62987 0.33634 0.0
C873 C 0.38727 0.62386 0.41129 0.0
C874 C 0.37715 0.62564 0.38257 0.0
H875 H 0.41576 0.623 0.43562 0.0
H876 H 0.37868 0.62211 0.43257 0.0
C877 C 0.38907 0.62724 0.35574 0.0
C878 C 0.40863 0.09644 0.4127 0.0
C879 C 0.41862 0.0945 0.3839 0.0
H880 H 0.3802 0.0973 0.43723 0.0
C881 C 0.40662 0.09244 0.35718 0.0
H882 H 0.41731 0.09853 0.43389 0.0
C883 C 0.38528 0.09128 0.35919 0.0
C884 C 0.37527 0.09278 0.38799 0.0
H885 H 0.41368 0.0909 0.33465 0.0
H886 H 0.37663 0.08928 0.33798 0.0
C887 C 0.38727 0.0959 0.41471 0.0
C888 C 0.66602 0.83635 0.10882 0.0
C889 C 0.67612 0.83911 0.13754 0.0
H890 H 0.63753 0.83646 0.08446 0.0
C891 C 0.66423 0.84496 0.16426 0.0
H892 H 0.6746 0.83224 0.0876 0.0
C893 C 0.64288 0.84701 0.16236 0.0
C894 C 0.63278 0.84388 0.13366 0.0
H895 H 0.67137 0.84742 0.18672 0.0
H896 H 0.63429 0.85123 0.18357 0.0
C897 C 0.64468 0.83902 0.10691 0.0
C898 C 0.65739 0.3709 0.16179 0.0
C899 C 0.66751 0.37434 0.13312 0.0
H900 H 0.6289 0.37013 0.1861 0.0
C901 C 0.65562 0.37937 0.10635 0.0
H902 H 0.66596 0.36652 0.18301 0.0
C903 C 0.63427 0.38193 0.10823 0.0
C904 C 0.62416 0.37886 0.13693 0.0
H905 H 0.66279 0.38218 0.08392 0.0
H906 H 0.6257 0.3862 0.08701 0.0
C907 C 0.63605 0.37283 0.16366 0.0
C908 C 0.41387 0.12034 0.85972 0.0
C909 C 0.42416 0.12124 0.88829 0.0
H910 H 0.38523 0.11983 0.83582 0.0
C911 C 0.41242 0.12161 0.91531 0.0
H912 H 0.42231 0.11954 0.8383 0.0
C913 C 0.39105 0.12221 0.91379 0.0
C914 C 0.38077 0.12182 0.88519 0.0
H915 H 0.41973 0.12225 0.93767 0.0
H916 H 0.38259 0.1229 0.93519 0.0
C917 C 0.39251 0.12034 0.8582 0.0
C918 C 0.40878 0.58915 0.85759 0.0
C919 C 0.42094 0.58746 0.88416 0.0
H920 H 0.37866 0.59011 0.83878 0.0
C921 C 0.41111 0.58667 0.9131 0.0
H922 H 0.41571 0.58991 0.83496 0.0
C923 C 0.38977 0.58726 0.9154 0.0
C924 C 0.37761 0.58797 0.88881 0.0
H925 H 0.4199 0.58575 0.9342 0.0
H926 H 0.38282 0.58638 0.93801 0.0
C927 C 0.38745 0.58909 0.85988 0.0
C928 C 0.0639 0.04788 0.11682 0.0
C929 C 0.06376 0.04068 0.149 0.0
H930 H 0.06333 0.11744 0.07852 0.0
C931 C 0.06327 0.09972 0.16755 0.0
H932 H 0.06439 0.00308 0.10199 0.0
C933 C 0.06228 0.16492 0.15413 0.0
C934 C 0.06221 0.17216 0.12195 0.0
H935 H 0.06315 0.09549 0.19242 0.0
H936 H 0.06155 0.2096 0.169 0.0
C937 C 0.06334 0.1132 0.10339 0.0
C938 C 0.23429 0.0553 0.1538 0.0
C939 C 0.23453 0.04785 0.12163 0.0
H940 H 0.23329 0.12495 0.192 0.0
C941 C 0.23362 0.10674 0.10299 0.0
H942 H 0.23484 0.0107 0.16872 0.0
C943 C 0.23309 0.17217 0.11635 0.0
C944 C 0.23302 0.17957 0.14853 0.0
H945 H 0.23377 0.10234 0.07813 0.0
H946 H 0.23275 0.21691 0.10148 0.0
C947 C 0.23332 0.1206 0.16714 0.0
C948 C 0.98289 0.79844 0.86658 0.0
C949 C 0.98272 0.79133 0.89878 0.0
H950 H 0.98305 0.86794 0.82823 0.0
C951 C 0.98227 0.85047 0.91727 0.0
H952 H 0.98311 0.75359 0.85177 0.0
C953 C 0.98261 0.91572 0.90381 0.0
C954 C 0.98296 0.92288 0.87162 0.0
H955 H 0.98212 0.84636 0.94214 0.0
H956 H 0.98261 0.96053 0.91864 0.0
C957 C 0.98278 0.86375 0.8531 0.0
C958 C 0.81199 0.92255 0.86474 0.0
C959 C 0.81202 0.9296 0.89694 0.0
H960 H 0.81199 0.85305 0.82638 0.0
C961 C 0.81243 0.87047 0.91543 0.0
H962 H 0.81181 0.96744 0.84995 0.0
C963 C 0.81216 0.80527 0.90196 0.0
C964 C 0.81192 0.79814 0.86978 0.0
H965 H 0.81247 0.87455 0.9403 0.0
H966 H 0.81212 0.76049 0.9168 0.0
C967 C 0.81217 0.85725 0.85125 0.0
C968 C 0.06511 0.67263 0.65618 0.0
C969 C 0.0654 0.67981 0.62399 0.0
H970 H 0.06381 0.60317 0.69448 0.0
C971 C 0.06478 0.62075 0.60545 0.0
H972 H 0.06568 0.71742 0.67101 0.0
C973 C 0.06331 0.55562 0.61887 0.0
C974 C 0.06288 0.54841 0.65105 0.0
H975 H 0.06496 0.62494 0.58059 0.0
H976 H 0.06254 0.51097 0.604 0.0
C977 C 0.06409 0.60737 0.66962 0.0
C978 C 0.23428 0.54684 0.65621 0.0
C979 C 0.23422 0.53968 0.62402 0.0
H980 H 0.23541 0.61625 0.69452 0.0
C981 C 0.23503 0.5987 0.60548 0.0
H982 H 0.23355 0.50206 0.67102 0.0
C983 C 0.23651 0.6638 0.61893 0.0
C984 C 0.23673 0.67097 0.65112 0.0
H985 H 0.23504 0.59449 0.58062 0.0
H986 H 0.23745 0.70844 0.60407 0.0
C987 C 0.23531 0.61206 0.66966 0.0
C988 C 0.98435 0.42357 0.40548 0.0
C989 C 0.98442 0.43059 0.37328 0.0
H990 H 0.9856 0.35436 0.44385 0.0
C991 C 0.98555 0.37155 0.3548 0.0
H992 H 0.98338 0.46838 0.42024 0.0
C993 C 0.98722 0.30658 0.3683 0.0
C994 C 0.98734 0.29953 0.4005 0.0
H995 H 0.98566 0.37565 0.32993 0.0
H996 H 0.98841 0.26195 0.35348 0.0
C997 C 0.98559 0.35845 0.41898 0.0
C998 C 0.8158 0.29727 0.4044 0.0
C999 C 0.81612 0.28967 0.37224 0.0
H1000 H 0.81428 0.3672 0.4425 0.0
C1001 C 0.81529 0.34844 0.35353 0.0
H1002 H 0.81653 0.25271 0.41935 0.0
C1003 C 0.81359 0.4137 0.36677 0.0
C1004 C 0.81316 0.42132 0.39893 0.0
H1005 H 0.81547 0.3439 0.32868 0.0
H1006 H 0.81267 0.45814 0.35179 0.0
C1007 C 0.81456 0.36267 0.41765 0.0
C1008 C 0.56236 0.10618 0.66842 0.0
C1009 C 0.56221 0.04699 0.64994 0.0
H1010 H 0.56202 0.21633 0.66965 0.0
C1011 C 0.56258 0.05399 0.61775 0.0
H1012 H 0.56208 0.10209 0.69329 0.0
C1013 C 0.56292 0.11917 0.60423 0.0
C1014 C 0.56244 0.17838 0.62268 0.0
H1015 H 0.5626 0.00913 0.60295 0.0
H1016 H 0.56309 0.12317 0.57936 0.0
C1017 C 0.56226 0.17142 0.65488 0.0
C1018 C 0.73305 0.16376 0.61767 0.0
C1019 C 0.73356 0.17085 0.64986 0.0
H1020 H 0.73242 0.0945 0.57931 0.0
C1021 C 0.73355 0.1117 0.66836 0.0
H1022 H 0.73291 0.20859 0.60286 0.0
C1023 C 0.73366 0.04642 0.65484 0.0
C1024 C 0.73332 0.03938 0.62264 0.0
H1025 H 0.73395 0.11585 0.69322 0.0
H1026 H 0.73401 0.00154 0.66962 0.0
C1027 C 0.73271 0.09855 0.60418 0.0
C1028 C 0.48325 0.85483 0.41719 0.0
C1029 C 0.48371 0.79587 0.39856 0.0
H1030 H 0.48305 0.96496 0.41872 0.0
C1031 C 0.48335 0.80326 0.36639 0.0
H1032 H 0.48351 0.85046 0.44205 0.0
C1033 C 0.4827 0.86862 0.35304 0.0
C1034 C 0.48285 0.92761 0.37166 0.0
H1035 H 0.48357 0.75857 0.35149 0.0
H1036 H 0.48255 0.87297 0.32818 0.0
C1037 C 0.48305 0.92023 0.40384 0.0
C1038 C 0.31275 0.85221 0.35372 0.0
C1039 C 0.31295 0.79298 0.37216 0.0
H1040 H 0.31164 0.96222 0.35253 0.0
C1041 C 0.31323 0.79988 0.40436 0.0
H1042 H 0.31254 0.8482 0.32885 0.0
C1043 C 0.31307 0.86505 0.41792 0.0
C1044 C 0.3122 0.92423 0.3995 0.0
H1045 H 0.31352 0.75495 0.41911 0.0
H1046 H 0.31314 0.86903 0.4428 0.0
C1047 C 0.31216 0.91734 0.36729 0.0
C1048 C 0.5647 0.60714 0.16844 0.0
C1049 C 0.56259 0.54869 0.14973 0.0
H1050 H 0.56764 0.71689 0.1701 0.0
C1051 C 0.56273 0.55633 0.11757 0.0
H1052 H 0.56468 0.60259 0.19329 0.0
C1053 C 0.56485 0.6214 0.10432 0.0
C1054 C 0.56639 0.68 0.12302 0.0
H1055 H 0.56125 0.51208 0.10258 0.0
H1056 H 0.56477 0.62597 0.07946 0.0
C1057 C 0.56637 0.67241 0.15518 0.0
C1058 C 0.73536 0.59692 0.10435 0.0
C1059 C 0.73392 0.53816 0.12297 0.0
H1060 H 0.73887 0.70628 0.10279 0.0
C1061 C 0.73402 0.5455 0.15514 0.0
H1062 H 0.73537 0.59255 0.07949 0.0
C1063 C 0.73568 0.61066 0.1685 0.0
C1064 C 0.73771 0.66927 0.14988 0.0
H1065 H 0.73283 0.5009 0.17 0.0
H1066 H 0.73578 0.61501 0.19336 0.0
C1067 C 0.73746 0.66189 0.11771 0.0
C1068 C 0.48677 0.2966 0.86578 0.0
C1069 C 0.4871 0.28949 0.89798 0.0
H1070 H 0.48566 0.36611 0.82748 0.0
C1071 C 0.48619 0.3485 0.91652 0.0
H1072 H 0.48731 0.25181 0.85096 0.0
C1073 C 0.48559 0.41372 0.90309 0.0
C1074 C 0.48547 0.42092 0.87091 0.0
H1075 H 0.48639 0.34437 0.94138 0.0
H1076 H 0.48527 0.45848 0.91794 0.0
C1077 C 0.48574 0.36185 0.85234 0.0
C1078 C 0.31583 0.34886 0.85596 0.0
C1079 C 0.31602 0.28974 0.87448 0.0
H1080 H 0.31445 0.45884 0.85458 0.0
C1081 C 0.31592 0.29689 0.90667 0.0
H1082 H 0.31589 0.34469 0.83109 0.0
C1083 C 0.31546 0.36219 0.92014 0.0
C1084 C 0.31465 0.42125 0.90161 0.0
H1085 H 0.31617 0.25206 0.92148 0.0
H1086 H 0.31529 0.36636 0.945 0.0
C1087 C 0.31493 0.41408 0.86942 0.0
loop_
_geom_bond_atom_site_label_1
_geom_bond_atom_site_label_2
_geom_bond_distance
_geom_bond_site_symmetry_2
_ccdc_geom_bond_type
Co0 O1 2.216 . S
Co0 O2 2.091 . S
Co0 O4 2.004 . S
Co0 O10 2.021 . S
Co0 O12 2.137 . S
Co0 O13 2.244 . S
O1 Co0 2.216 . S
O1 C8 1.247 . S
O2 Co0 2.091 . S
O2 C8 1.261 . S
C3 O12 1.247 . S
C3 O13 1.272 . S
O4 Co0 2.004 . S
O4 C9 1.259 . S
Co5 O6 2.061 . S
Co5 O11 2.052 . S
Co5 O13 2.135 . S
O6 Co5 2.061 . S
O6 C9 1.235 . S
C7 O10 1.238 . S
C7 O11 1.241 . S
C8 O1 1.247 . S
C8 O2 1.261 . S
C9 O4 1.259 . S
C9 O6 1.235 . S
O10 Co0 2.021 . S
O10 C7 1.238 . S
O11 Co5 2.052 . S
O11 C7 1.241 . S
O12 Co0 2.137 . S
O12 C3 1.247 . S
O13 Co0 2.244 . S
O13 C3 1.272 . S
O13 Co5 2.135 . S
Co14 O15 2.216 . S
Co14 O16 2.091 . S
Co14 O18 2.004 . S
Co14 O24 2.021 . S
Co14 O26 2.137 . S
Co14 O27 2.244 . S
O15 Co14 2.216 . S
O15 C22 1.247 . S
O16 Co14 2.091 . S
O16 C22 1.261 . S
C17 O26 1.247 . S
C17 O27 1.272 . S
O18 Co14 2.004 . S
O18 C23 1.259 . S
Co19 O20 2.061 . S
Co19 O25 2.052 . S
Co19 O27 2.135 . S
O20 Co19 2.061 . S
O20 C23 1.235 . S
C21 O24 1.238 . S
C21 O25 1.241 . S
C22 O15 1.247 . S
C22 O16 1.261 . S
C23 O18 1.259 . S
C23 O20 1.235 . S
O24 Co14 2.021 . S
O24 C21 1.238 . S
O25 Co19 2.052 . S
O25 C21 1.241 . S
O26 Co14 2.137 . S
O26 C17 1.247 . S
O27 Co14 2.244 . S
O27 C17 1.272 . S
O27 Co19 2.135 . S
Co28 O29 2.216 . S
Co28 O30 2.091 . S
Co28 O32 2.004 . S
Co28 O38 2.021 . S
Co28 O40 2.137 . S
Co28 O41 2.244 . S
O29 Co28 2.216 . S
O29 C36 1.247 . S
O30 Co28 2.091 . S
O30 C36 1.261 . S
C31 O40 1.247 . S
C31 O41 1.272 . S
O32 Co28 2.004 . S
O32 C37 1.259 . S
Co33 O34 2.061 . S
Co33 O39 2.052 . S
Co33 O41 2.135 . S
O34 Co33 2.061 . S
O34 C37 1.235 . S
C35 O38 1.238 . S
C35 O39 1.241 . S
C36 O29 1.247 . S
C36 O30 1.261 . S
C37 O32 1.259 . S
C37 O34 1.235 . S
O38 Co28 2.021 . S
O38 C35 1.238 . S
O39 Co33 2.052 . S
O39 C35 1.241 . S
O40 Co28 2.137 . S
O40 C31 1.247 . S
O41 Co28 2.244 . S
O41 C31 1.272 . S
O41 Co33 2.135 . S
Co42 O43 2.216 . S
Co42 O44 2.091 . S
Co42 O46 2.004 . S
Co42 O52 2.021 . S
Co42 O54 2.137 . S
Co42 O55 2.244 . S
O43 Co42 2.216 . S
O43 C50 1.247 . S
O44 Co42 2.091 . S
O44 C50 1.261 . S
C45 O54 1.247 . S
C45 O55 1.272 . S
O46 Co42 2.004 . S
O46 C51 1.259 . S
Co47 O48 2.061 . S
Co47 O53 2.052 . S
Co47 O55 2.135 . S
O48 Co47 2.061 . S
O48 C51 1.235 . S
C49 O52 1.238 . S
C49 O53 1.241 . S
C50 O43 1.247 . S
C50 O44 1.261 . S
C51 O46 1.259 . S
C51 O48 1.235 . S
O52 Co42 2.021 . S
O52 C49 1.238 . S
O53 Co47 2.052 . S
O53 C49 1.241 . S
O54 Co42 2.137 . S
O54 C45 1.247 . S
O55 Co42 2.244 . S
O55 C45 1.272 . S
O55 Co47 2.135 . S
Co56 O57 2.216 . S
Co56 O58 2.091 . S
Co56 O60 2.004 . S
Co56 O66 2.021 . S
Co56 O68 2.137 . S
Co56 O69 2.244 . S
O57 Co56 2.216 . S
O57 C64 1.247 . S
O58 Co56 2.091 . S
O58 C64 1.261 . S
C59 O68 1.247 . S
C59 O69 1.272 . S
O60 Co56 2.004 . S
O60 C65 1.259 . S
Co61 O62 2.061 . S
Co61 O67 2.052 . S
Co61 O69 2.135 . S
O62 Co61 2.061 . S
O62 C65 1.235 . S
C63 O66 1.238 . S
C63 O67 1.241 . S
C64 O57 1.247 . S
C64 O58 1.261 . S
C65 O60 1.259 . S
C65 O62 1.235 . S
O66 Co56 2.021 . S
O66 C63 1.238 . S
O67 Co61 2.052 . S
O67 C63 1.241 . S
O68 Co56 2.137 . S
O68 C59 1.247 . S
O69 Co56 2.244 . S
O69 C59 1.272 . S
O69 Co61 2.135 . S
Co70 O71 2.216 . S
Co70 O72 2.091 . S
Co70 O74 2.004 . S
Co70 O80 2.021 . S
Co70 O82 2.137 . S
Co70 O83 2.244 . S
O71 Co70 2.216 . S
O71 C78 1.247 . S
O72 Co70 2.091 . S
O72 C78 1.261 . S
C73 O82 1.247 . S
C73 O83 1.272 . S
O74 Co70 2.004 . S
O74 C79 1.259 . S
Co75 O76 2.061 . S
Co75 O81 2.052 . S
Co75 O83 2.135 . S
O76 Co75 2.061 . S
O76 C79 1.235 . S
C77 O80 1.238 . S
C77 O81 1.241 . S
C78 O71 1.247 . S
C78 O72 1.261 . S
C79 O74 1.259 . S
C79 O76 1.235 . S
O80 Co70 2.021 . S
O80 C77 1.238 . S
O81 Co75 2.052 . S
O81 C77 1.241 . S
O82 Co70 2.137 . S
O82 C73 1.247 . S
O83 Co70 2.244 . S
O83 C73 1.272 . S
O83 Co75 2.135 . S
Co84 O85 2.216 . S
Co84 O86 2.091 . S
Co84 O88 2.004 . S
Co84 O94 2.021 . S
Co84 O96 2.137 . S
Co84 O97 2.244 . S
O85 Co84 2.216 . S
O85 C92 1.247 . S
O86 Co84 2.091 . S
O86 C92 1.261 . S
C87 O96 1.247 . S
C87 O97 1.272 . S
O88 Co84 2.004 . S
O88 C93 1.259 . S
Co89 O90 2.061 . S
Co89 O95 2.052 . S
Co89 O97 2.135 . S
O90 Co89 2.061 . S
O90 C93 1.235 . S
C91 O94 1.238 . S
C91 O95 1.241 . S
C92 O85 1.247 . S
C92 O86 1.261 . S
C93 O88 1.259 . S
C93 O90 1.235 . S
O94 Co84 2.021 . S
O94 C91 1.238 . S
O95 Co89 2.052 . S
O95 C91 1.241 . S
O96 Co84 2.137 . S
O96 C87 1.247 . S
O97 Co84 2.244 . S
O97 C87 1.272 . S
O97 Co89 2.135 . S
Co98 O99 2.216 . S
Co98 O100 2.091 . S
Co98 O102 2.004 . S
Co98 O108 2.021 . S
Co98 O110 2.137 . S
Co98 O111 2.244 . S
O99 Co98 2.216 . S
O99 C106 1.247 . S
O100 Co98 2.091 . S
O100 C106 1.261 . S
C101 O110 1.247 . S
C101 O111 1.272 . S
O102 Co98 2.004 . S
O102 C107 1.259 . S
Co103 O104 2.061 . S
Co103 O109 2.052 . S
Co103 O111 2.135 . S
O104 Co103 2.061 . S
O104 C107 1.235 . S
C105 O108 1.238 . S
C105 O109 1.241 . S
C106 O99 1.247 . S
C106 O100 1.261 . S
C107 O102 1.259 . S
C107 O104 1.235 . S
O108 Co98 2.021 . S
O108 C105 1.238 . S
O109 Co103 2.052 . S
O109 C105 1.241 . S
O110 Co98 2.137 . S
O110 C101 1.247 . S
O111 Co98 2.244 . S
O111 C101 1.272 . S
O111 Co103 2.135 . S
Co112 O113 2.216 . S
Co112 O114 2.091 . S
Co112 O116 2.004 . S
Co112 O122 2.021 . S
Co112 O124 2.137 . S
Co112 O125 2.244 . S
O113 Co112 2.216 . S
O113 C120 1.247 . S
O114 Co112 2.091 . S
O114 C120 1.261 . S
C115 O124 1.247 . S
C115 O125 1.272 . S
O116 Co112 2.004 . S
O116 C121 1.259 . S
Co117 O118 2.061 . S
Co117 O123 2.052 . S
Co117 O125 2.135 . S
O118 Co117 2.061 . S
O118 C121 1.235 . S
C119 O122 1.238 1_545 S
C119 O123 1.241 1_545 S
C120 O113 1.247 . S
C120 O114 1.261 . S
C121 O116 1.259 . S
C121 O118 1.235 . S
O122 Co112 2.021 . S
O122 C119 1.238 1_565 S
O123 Co117 2.052 . S
O123 C119 1.241 1_565 S
O124 Co112 2.137 . S
O124 C115 1.247 . S
O125 Co112 2.244 . S
O125 C115 1.272 . S
O125 Co117 2.135 . S
Co126 O127 2.216 . S
Co126 O128 2.091 . S
Co126 O130 2.004 . S
Co126 O136 2.021 . S
Co126 O138 2.137 . S
Co126 O139 2.244 . S
O127 Co126 2.216 . S
O127 C134 1.247 . S
O128 Co126 2.091 . S
O128 C134 1.261 . S
C129 O138 1.247 . S
C129 O139 1.272 . S
O130 Co126 2.004 . S
O130 C135 1.259 . S
Co131 O132 2.061 . S
Co131 O137 2.052 . S
Co131 O139 2.135 . S
O132 Co131 2.061 . S
O132 C135 1.235 . S
C133 O136 1.238 . S
C133 O137 1.241 . S
C134 O127 1.247 . S
C134 O128 1.261 . S
C135 O130 1.259 . S
C135 O132 1.235 . S
O136 Co126 2.021 . S
O136 C133 1.238 . S
O137 Co131 2.052 . S
O137 C133 1.241 . S
O138 Co126 2.137 . S
O138 C129 1.247 . S
O139 Co126 2.244 . S
O139 C129 1.272 . S
O139 Co131 2.135 . S
Co140 O141 2.216 . S
Co140 O142 2.091 . S
Co140 O144 2.004 . S
Co140 O150 2.021 . S
Co140 O152 2.137 . S
Co140 O153 2.244 . S
O141 Co140 2.216 . S
O141 C148 1.247 . S
O142 Co140 2.091 . S
O142 C148 1.261 . S
C143 O152 1.247 . S
C143 O153 1.272 . S
O144 Co140 2.004 . S
O144 C149 1.259 . S
Co145 O146 2.061 . S
Co145 O151 2.052 . S
Co145 O153 2.135 . S
O146 Co145 2.061 . S
O146 C149 1.235 . S
C147 O150 1.238 . S
C147 O151 1.241 . S
C148 O141 1.247 . S
C148 O142 1.261 . S
C149 O144 1.259 . S
C149 O146 1.235 . S
O150 Co140 2.021 . S
O150 C147 1.238 . S
O151 Co145 2.052 . S
O151 C147 1.241 . S
O152 Co140 2.137 . S
O152 C143 1.247 . S
O153 Co140 2.244 . S
O153 C143 1.272 . S
O153 Co145 2.135 . S
Co154 O155 2.216 . S
Co154 O156 2.091 . S
Co154 O158 2.004 . S
Co154 O164 2.021 . S
Co154 O166 2.137 . S
Co154 O167 2.244 . S
O155 Co154 2.216 . S
O155 C162 1.247 . S
O156 Co154 2.091 . S
O156 C162 1.261 . S
C157 O166 1.247 . S
C157 O167 1.272 . S
O158 Co154 2.004 . S
O158 C163 1.259 . S
Co159 O160 2.061 . S
Co159 O165 2.052 . S
Co159 O167 2.135 . S
O160 Co159 2.061 . S
O160 C163 1.235 . S
C161 O164 1.238 1_545 S
C161 O165 1.241 1_545 S
C162 O155 1.247 . S
C162 O156 1.261 . S
C163 O158 1.259 . S
C163 O160 1.235 . S
O164 Co154 2.021 . S
O164 C161 1.238 1_565 S
O165 Co159 2.052 . S
O165 C161 1.241 1_565 S
O166 Co154 2.137 . S
O166 C157 1.247 . S
O167 Co154 2.244 . S
O167 C157 1.272 . S
O167 Co159 2.135 . S
Co168 O169 2.216 . S
Co168 O170 2.091 . S
Co168 O172 2.004 . S
Co168 O178 2.021 . S
Co168 O180 2.137 . S
Co168 O181 2.244 . S
O169 Co168 2.216 . S
O169 C176 1.247 . S
O170 Co168 2.091 . S
O170 C176 1.261 . S
C171 O180 1.247 . S
C171 O181 1.272 . S
O172 Co168 2.004 . S
O172 C177 1.259 . S
Co173 O174 2.061 . S
Co173 O179 2.052 . S
Co173 O181 2.135 . S
O174 Co173 2.061 . S
O174 C177 1.235 . S
C175 O178 1.238 1_565 S
C175 O179 1.241 1_565 S
C176 O169 1.247 . S
C176 O170 1.261 . S
C177 O172 1.259 . S
C177 O174 1.235 . S
O178 Co168 2.021 . S
O178 C175 1.238 1_545 S
O179 Co173 2.052 . S
O179 C175 1.241 1_545 S
O180 Co168 2.137 . S
O180 C171 1.247 . S
O181 Co168 2.244 . S
O181 C171 1.272 . S
O181 Co173 2.135 . S
Co182 O183 2.216 . S
Co182 O184 2.091 . S
Co182 O186 2.004 . S
Co182 O192 2.021 . S
Co182 O194 2.137 . S
Co182 O195 2.244 . S
O183 Co182 2.216 . S
O183 C190 1.247 . S
O184 Co182 2.091 . S
O184 C190 1.261 . S
C185 O194 1.247 . S
C185 O195 1.272 . S
O186 Co182 2.004 . S
O186 C191 1.259 . S
Co187 O188 2.061 . S
Co187 O193 2.052 . S
Co187 O195 2.135 . S
O188 Co187 2.061 . S
O188 C191 1.235 . S
C189 O192 1.238 . S
C189 O193 1.241 . S
C190 O183 1.247 . S
C190 O184 1.261 . S
C191 O186 1.259 . S
C191 O188 1.235 . S
O192 Co182 2.021 . S
O192 C189 1.238 . S
O193 Co187 2.052 . S
O193 C189 1.241 . S
O194 Co182 2.137 . S
O194 C185 1.247 . S
O195 Co182 2.244 . S
O195 C185 1.272 . S
O195 Co187 2.135 . S
Co196 O197 2.216 . S
Co196 O198 2.091 . S
Co196 O200 2.004 . S
Co196 O206 2.021 . S
Co196 O208 2.137 . S
Co196 O209 2.244 . S
O197 Co196 2.216 . S
O197 C204 1.247 . S
O198 Co196 2.091 . S
O198 C204 1.261 . S
C199 O208 1.247 . S
C199 O209 1.272 . S
O200 Co196 2.004 . S
O200 C205 1.259 . S
Co201 O202 2.061 . S
Co201 O207 2.052 . S
Co201 O209 2.135 . S
O202 Co201 2.061 . S
O202 C205 1.235 . S
C203 O206 1.238 . S
C203 O207 1.241 . S
C204 O197 1.247 . S
C204 O198 1.261 . S
C205 O200 1.259 . S
C205 O202 1.235 . S
O206 Co196 2.021 . S
O206 C203 1.238 . S
O207 Co201 2.052 . S
O207 C203 1.241 . S
O208 Co196 2.137 . S
O208 C199 1.247 . S
O209 Co196 2.244 . S
O209 C199 1.272 . S
O209 Co201 2.135 . S
Co210 O211 2.216 . S
Co210 O212 2.091 . S
Co210 O214 2.004 . S
Co210 O220 2.021 . S
Co210 O222 2.137 . S
Co210 O223 2.244 . S
O211 Co210 2.216 . S
O211 C218 1.247 . S
O212 Co210 2.091 . S
O212 C218 1.261 . S
C213 O222 1.247 . S
C213 O223 1.272 . S
O214 Co210 2.004 . S
O214 C219 1.259 . S
Co215 O216 2.061 . S
Co215 O221 2.052 . S
Co215 O223 2.135 . S
O216 Co215 2.061 . S
O216 C219 1.235 . S
C217 O220 1.238 1_565 S
C217 O221 1.241 1_565 S
C218 O211 1.247 . S
C218 O212 1.261 . S
C219 O214 1.259 . S
C219 O216 1.235 . S
O220 Co210 2.021 . S
O220 C217 1.238 1_545 S
O221 Co215 2.052 . S
O221 C217 1.241 1_545 S
O222 Co210 2.137 . S
O222 C213 1.247 . S
O223 Co210 2.244 . S
O223 C213 1.272 . S
O223 Co215 2.135 . S
Co224 O225 2.216 . S
Co224 O226 2.091 . S
Co224 O228 2.004 . S
Co224 O234 2.021 . S
Co224 O236 2.137 . S
Co224 O237 2.244 . S
O225 Co224 2.216 . S
O225 C232 1.247 . S
O226 Co224 2.091 . S
O226 C232 1.261 . S
C227 O236 1.247 . S
C227 O237 1.272 . S
O228 Co224 2.004 . S
O228 C233 1.259 . S
Co229 O230 2.061 . S
Co229 O235 2.052 . S
Co229 O237 2.135 . S
O230 Co229 2.061 . S
O230 C233 1.235 . S
C231 O234 1.238 . S
C231 O235 1.241 . S
C232 O225 1.247 . S
C232 O226 1.261 . S
C233 O228 1.259 . S
C233 O230 1.235 . S
O234 Co224 2.021 . S
O234 C231 1.238 . S
O235 Co229 2.052 . S
O235 C231 1.241 . S
O236 Co224 2.137 . S
O236 C227 1.247 . S
O237 Co224 2.244 . S
O237 C227 1.272 . S
O237 Co229 2.135 . S
Co238 O239 2.216 . S
Co238 O240 2.091 . S
Co238 O242 2.004 . S
Co238 O248 2.021 . S
Co238 O250 2.137 . S
Co238 O251 2.244 . S
O239 Co238 2.216 . S
O239 C246 1.247 . S
O240 Co238 2.091 . S
O240 C246 1.261 . S
C241 O250 1.247 . S
C241 O251 1.272 . S
O242 Co238 2.004 . S
O242 C247 1.259 . S
Co243 O244 2.061 . S
Co243 O249 2.052 . S
Co243 O251 2.135 . S
O244 Co243 2.061 . S
O244 C247 1.235 . S
C245 O248 1.238 . S
C245 O249 1.241 . S
C246 O239 1.247 . S
C246 O240 1.261 . S
C247 O242 1.259 . S
C247 O244 1.235 . S
O248 Co238 2.021 . S
O248 C245 1.238 . S
O249 Co243 2.052 . S
O249 C245 1.241 . S
O250 Co238 2.137 . S
O250 C241 1.247 . S
O251 Co238 2.244 . S
O251 C241 1.272 . S
O251 Co243 2.135 . S
Co252 O253 2.216 . S
Co252 O254 2.091 . S
Co252 O256 2.004 . S
Co252 O262 2.021 . S
Co252 O264 2.137 . S
Co252 O265 2.244 . S
O253 Co252 2.216 . S
O253 C260 1.247 . S
O254 Co252 2.091 . S
O254 C260 1.261 . S
C255 O264 1.247 . S
C255 O265 1.272 . S
O256 Co252 2.004 . S
O256 C261 1.259 . S
Co257 O258 2.061 . S
Co257 O263 2.052 . S
Co257 O265 2.135 . S
O258 Co257 2.061 . S
O258 C261 1.235 . S
C259 O262 1.238 . S
C259 O263 1.241 . S
C260 O253 1.247 . S
C260 O254 1.261 . S
C261 O256 1.259 . S
C261 O258 1.235 . S
O262 Co252 2.021 . S
O262 C259 1.238 . S
O263 Co257 2.052 . S
O263 C259 1.241 . S
O264 Co252 2.137 . S
O264 C255 1.247 . S
O265 Co252 2.244 . S
O265 C255 1.272 . S
O265 Co257 2.135 . S
Co266 O267 2.216 . S
Co266 O268 2.091 . S
Co266 O270 2.004 . S
Co266 O276 2.021 . S
Co266 O278 2.137 . S
Co266 O279 2.244 . S
O267 Co266 2.216 . S
O267 C274 1.247 . S
O268 Co266 2.091 . S
O268 C274 1.261 . S
C269 O278 1.247 . S
C269 O279 1.272 . S
O270 Co266 2.004 . S
O270 C275 1.259 . S
Co271 O272 2.061 . S
Co271 O277 2.052 . S
Co271 O279 2.135 . S
O272 Co271 2.061 . S
O272 C275 1.235 . S
C273 O276 1.238 . S
C273 O277 1.241 . S
C274 O267 1.247 . S
C274 O268 1.261 . S
C275 O270 1.259 . S
C275 O272 1.235 . S
O276 Co266 2.021 . S
O276 C273 1.238 . S
O277 Co271 2.052 . S
O277 C273 1.241 . S
O278 Co266 2.137 . S
O278 C269 1.247 . S
O279 Co266 2.244 . S
O279 C269 1.272 . S
O279 Co271 2.135 . S
Co280 O281 2.216 . S
Co280 O282 2.091 . S
Co280 O284 2.004 . S
Co280 O290 2.021 . S
Co280 O292 2.137 . S
Co280 O293 2.244 . S
O281 Co280 2.216 . S
O281 C288 1.247 . S
O282 Co280 2.091 . S
O282 C288 1.261 . S
C283 O292 1.247 . S
C283 O293 1.272 . S
O284 Co280 2.004 . S
O284 C289 1.259 . S
Co285 O286 2.061 . S
Co285 O291 2.052 . S
Co285 O293 2.135 . S
O286 Co285 2.061 . S
O286 C289 1.235 . S
C287 O290 1.238 . S
C287 O291 1.241 . S
C288 O281 1.247 . S
C288 O282 1.261 . S
C289 O284 1.259 . S
C289 O286 1.235 . S
O290 Co280 2.021 . S
O290 C287 1.238 . S
O291 Co285 2.052 . S
O291 C287 1.241 . S
O292 Co280 2.137 . S
O292 C283 1.247 . S
O293 Co280 2.244 . S
O293 C283 1.272 . S
O293 Co285 2.135 . S
Co294 O295 2.216 . S
Co294 O296 2.091 . S
Co294 O298 2.004 . S
Co294 O304 2.021 . S
Co294 O306 2.137 . S
Co294 O307 2.244 . S
O295 Co294 2.216 . S
O295 C302 1.247 . S
O296 Co294 2.091 . S
O296 C302 1.261 . S
C297 O306 1.247 . S
C297 O307 1.272 . S
O298 Co294 2.004 . S
O298 C303 1.259 . S
Co299 O300 2.061 . S
Co299 O305 2.052 . S
Co299 O307 2.135 . S
O300 Co299 2.061 . S
O300 C303 1.235 . S
C301 O304 1.238 . S
C301 O305 1.241 . S
C302 O295 1.247 . S
C302 O296 1.261 . S
C303 O298 1.259 . S
C303 O300 1.235 . S
O304 Co294 2.021 . S
O304 C301 1.238 . S
O305 Co299 2.052 . S
O305 C301 1.241 . S
O306 Co294 2.137 . S
O306 C297 1.247 . S
O307 Co294 2.244 . S
O307 C297 1.272 . S
O307 Co299 2.135 . S
Co308 O309 2.216 . S
Co308 O310 2.091 . S
Co308 O312 2.004 . S
Co308 O318 2.021 . S
Co308 O320 2.137 . S
Co308 O321 2.244 . S
O309 Co308 2.216 . S
O309 C316 1.247 . S
O310 Co308 2.091 . S
O310 C316 1.261 . S
C311 O320 1.247 . S
C311 O321 1.272 . S
O312 Co308 2.004 . S
O312 C317 1.259 . S
Co313 O314 2.061 . S
Co313 O319 2.052 . S
Co313 O321 2.135 . S
O314 Co313 2.061 . S
O314 C317 1.235 . S
C315 O318 1.238 . S
C315 O319 1.241 . S
C316 O309 1.247 . S
C316 O310 1.261 . S
C317 O312 1.259 . S
C317 O314 1.235 . S
O318 Co308 2.021 . S
O318 C315 1.238 . S
O319 Co313 2.052 . S
O319 C315 1.241 . S
O320 Co308 2.137 . S
O320 C311 1.247 . S
O321 Co308 2.244 . S
O321 C311 1.272 . S
O321 Co313 2.135 . S
Co322 O323 2.216 . S
Co322 O324 2.091 . S
Co322 O326 2.004 . S
Co322 O332 2.021 . S
Co322 O334 2.137 . S
Co322 O335 2.244 . S
O323 Co322 2.216 . S
O323 C330 1.247 . S
O324 Co322 2.091 . S
O324 C330 1.261 . S
C325 O334 1.247 . S
C325 O335 1.272 . S
O326 Co322 2.004 . S
O326 C331 1.259 . S
Co327 O328 2.061 . S
Co327 O333 2.052 . S
Co327 O335 2.135 . S
O328 Co327 2.061 . S
O328 C331 1.235 . S
C329 O332 1.238 . S
C329 O333 1.241 . S
C330 O323 1.247 . S
C330 O324 1.261 . S
C331 O326 1.259 . S
C331 O328 1.235 . S
O332 Co322 2.021 . S
O332 C329 1.238 . S
O333 Co327 2.052 . S
O333 C329 1.241 . S
O334 Co322 2.137 . S
O334 C325 1.247 . S
O335 Co322 2.244 . S
O335 C325 1.272 . S
O335 Co327 2.135 . S
Co336 O337 2.216 . S
Co336 O338 2.091 . S
Co336 O340 2.004 . S
Co336 O346 2.021 . S
Co336 O348 2.137 . S
Co336 O349 2.244 . S
O337 Co336 2.216 . S
O337 C344 1.247 . S
O338 Co336 2.091 . S
O338 C344 1.261 . S
C339 O348 1.247 . S
C339 O349 1.272 . S
O340 Co336 2.004 . S
O340 C345 1.259 . S
Co341 O342 2.061 . S
Co341 O347 2.052 . S
Co341 O349 2.135 . S
O342 Co341 2.061 . S
O342 C345 1.235 . S
C343 O346 1.238 1_545 S
C343 O347 1.241 1_545 S
C344 O337 1.247 . S
C344 O338 1.261 . S
C345 O340 1.259 . S
C345 O342 1.235 . S
O346 Co336 2.021 . S
O346 C343 1.238 1_565 S
O347 Co341 2.052 . S
O347 C343 1.241 1_565 S
O348 Co336 2.137 . S
O348 C339 1.247 . S
O349 Co336 2.244 . S
O349 C339 1.272 . S
O349 Co341 2.135 . S
Co350 O351 2.216 . S
Co350 O352 2.091 . S
Co350 O354 2.004 . S
Co350 O360 2.021 . S
Co350 O362 2.137 . S
Co350 O363 2.244 . S
O351 Co350 2.216 . S
O351 C358 1.247 . S
O352 Co350 2.091 . S
O352 C358 1.261 . S
C353 O362 1.247 . S
C353 O363 1.272 . S
O354 Co350 2.004 . S
O354 C359 1.259 . S
Co355 O356 2.061 . S
Co355 O361 2.052 . S
Co355 O363 2.135 . S
O356 Co355 2.061 . S
O356 C359 1.235 . S
C357 O360 1.238 . S
C357 O361 1.241 . S
C358 O351 1.247 . S
C358 O352 1.261 . S
C359 O354 1.259 . S
C359 O356 1.235 . S
O360 Co350 2.021 . S
O360 C357 1.238 . S
O361 Co355 2.052 . S
O361 C357 1.241 . S
O362 Co350 2.137 . S
O362 C353 1.247 . S
O363 Co350 2.244 . S
O363 C353 1.272 . S
O363 Co355 2.135 . S
Co364 O365 2.216 . S
Co364 O366 2.091 . S
Co364 O368 2.004 . S
Co364 O374 2.021 . S
Co364 O376 2.137 . S
Co364 O377 2.244 . S
O365 Co364 2.216 . S
O365 C372 1.247 . S
O366 Co364 2.091 . S
O366 C372 1.261 . S
C367 O376 1.247 . S
C367 O377 1.272 . S
O368 Co364 2.004 . S
O368 C373 1.259 . S
Co369 O370 2.061 . S
Co369 O375 2.052 . S
Co369 O377 2.135 . S
O370 Co369 2.061 . S
O370 C373 1.235 . S
C371 O374 1.238 . S
C371 O375 1.241 . S
C372 O365 1.247 . S
C372 O366 1.261 . S
C373 O368 1.259 . S
C373 O370 1.235 . S
O374 Co364 2.021 . S
O374 C371 1.238 . S
O375 Co369 2.052 . S
O375 C371 1.241 . S
O376 Co364 2.137 . S
O376 C367 1.247 . S
O377 Co364 2.244 . S
O377 C367 1.272 . S
O377 Co369 2.135 . S
Co378 O379 2.216 . S
Co378 O380 2.091 . S
Co378 O382 2.004 . S
Co378 O388 2.021 . S
Co378 O390 2.137 . S
Co378 O391 2.244 . S
O379 Co378 2.216 . S
O379 C386 1.247 . S
O380 Co378 2.091 . S
O380 C386 1.261 . S
C381 O390 1.247 . S
C381 O391 1.272 . S
O382 Co378 2.004 . S
O382 C387 1.259 . S
Co383 O384 2.061 . S
Co383 O389 2.052 . S
Co383 O391 2.135 . S
O384 Co383 2.061 . S
O384 C387 1.235 . S
C385 O388 1.238 1_545 S
C385 O389 1.241 1_545 S
C386 O379 1.247 . S
C386 O380 1.261 . S
C387 O382 1.259 . S
C387 O384 1.235 . S
O388 Co378 2.021 . S
O388 C385 1.238 1_565 S
O389 Co383 2.052 . S
O389 C385 1.241 1_565 S
O390 Co378 2.137 . S
O390 C381 1.247 . S
O391 Co378 2.244 . S
O391 C381 1.272 . S
O391 Co383 2.135 . S
Co392 O393 2.216 . S
Co392 O394 2.091 . S
Co392 O396 2.004 . S
Co392 O402 2.021 . S
Co392 O404 2.137 . S
Co392 O405 2.244 . S
O393 Co392 2.216 . S
O393 C400 1.247 . S
O394 Co392 2.091 . S
O394 C400 1.261 . S
C395 O404 1.247 . S
C395 O405 1.272 . S
O396 Co392 2.004 . S
O396 C401 1.259 . S
Co397 O398 2.061 . S
Co397 O403 2.052 . S
Co397 O405 2.135 . S
O398 Co397 2.061 . S
O398 C401 1.235 . S
C399 O402 1.238 1_565 S
C399 O403 1.241 1_565 S
C400 O393 1.247 . S
C400 O394 1.261 . S
C401 O396 1.259 . S
C401 O398 1.235 . S
O402 Co392 2.021 . S
O402 C399 1.238 1_545 S
O403 Co397 2.052 . S
O403 C399 1.241 1_545 S
O404 Co392 2.137 . S
O404 C395 1.247 . S
O405 Co392 2.244 . S
O405 C395 1.272 . S
O405 Co397 2.135 . S
Co406 O407 2.216 . S
Co406 O408 2.091 . S
Co406 O410 2.004 . S
Co406 O416 2.021 . S
Co406 O418 2.137 . S
Co406 O419 2.244 . S
O407 Co406 2.216 . S
O407 C414 1.247 . S
O408 Co406 2.091 . S
O408 C414 1.261 . S
C409 O418 1.247 . S
C409 O419 1.272 . S
O410 Co406 2.004 . S
O410 C415 1.259 . S
Co411 O412 2.061 . S
Co411 O417 2.052 . S
Co411 O419 2.135 . S
O412 Co411 2.061 . S
O412 C415 1.235 . S
C413 O416 1.238 . S
C413 O417 1.241 . S
C414 O407 1.247 . S
C414 O408 1.261 . S
C415 O410 1.259 . S
C415 O412 1.235 . S
O416 Co406 2.021 . S
O416 C413 1.238 . S
O417 Co411 2.052 . S
O417 C413 1.241 . S
O418 Co406 2.137 . S
O418 C409 1.247 . S
O419 Co406 2.244 . S
O419 C409 1.272 . S
O419 Co411 2.135 . S
Co420 O421 2.216 . S
Co420 O422 2.091 . S
Co420 O424 2.004 . S
Co420 O430 2.021 . S
Co420 O432 2.137 . S
Co420 O433 2.244 . S
O421 Co420 2.216 . S
O421 C428 1.247 . S
O422 Co420 2.091 . S
O422 C428 1.261 . S
C423 O432 1.247 . S
C423 O433 1.272 . S
O424 Co420 2.004 . S
O424 C429 1.259 . S
Co425 O426 2.061 . S
Co425 O431 2.052 . S
Co425 O433 2.135 . S
O426 Co425 2.061 . S
O426 C429 1.235 . S
C427 O430 1.238 . S
C427 O431 1.241 . S
C428 O421 1.247 . S
C428 O422 1.261 . S
C429 O424 1.259 . S
C429 O426 1.235 . S
O430 Co420 2.021 . S
O430 C427 1.238 . S
O431 Co425 2.052 . S
O431 C427 1.241 . S
O432 Co420 2.137 . S
O432 C423 1.247 . S
O433 Co420 2.244 . S
O433 C423 1.272 . S
O433 Co425 2.135 . S
Co434 O435 2.216 . S
Co434 O436 2.091 . S
Co434 O438 2.004 . S
Co434 O444 2.021 . S
Co434 O446 2.137 . S
Co434 O447 2.244 . S
O435 Co434 2.216 . S
O435 C442 1.247 . S
O436 Co434 2.091 . S
O436 C442 1.261 . S
C437 O446 1.247 . S
C437 O447 1.272 . S
O438 Co434 2.004 . S
O438 C443 1.259 . S
Co439 O440 2.061 . S
Co439 O445 2.052 . S
Co439 O447 2.135 . S
O440 Co439 2.061 . S
O440 C443 1.235 . S
C441 O444 1.238 1_565 S
C441 O445 1.241 1_565 S
C442 O435 1.247 . S
C442 O436 1.261 . S
C443 O438 1.259 . S
C443 O440 1.235 . S
O444 Co434 2.021 . S
O444 C441 1.238 1_545 S
O445 Co439 2.052 . S
O445 C441 1.241 1_545 S
O446 Co434 2.137 . S
O446 C437 1.247 . S
O447 Co434 2.244 . S
O447 C437 1.272 . S
O447 Co439 2.135 . S
C448 C449 1.387 . S
C448 H452 0.950 . S
C448 C457 1.390 . S
C449 C448 1.387 . S
C449 C451 1.387 . S
H450 C457 0.950 . S
C451 C449 1.387 . S
C451 C453 1.390 . S
C451 H455 0.950 . S
H452 C448 0.950 . S
C453 C451 1.390 . S
C453 C454 1.387 . S
C453 H456 0.950 . S
C454 C453 1.387 . S
C454 C457 1.387 . S
H455 C451 0.950 . S
H456 C453 0.950 . S
C457 C448 1.390 . S
C457 H450 0.950 . S
C457 C454 1.387 . S
C458 C459 1.387 . S
C458 H462 0.950 . S
C458 C467 1.390 . S
C459 C458 1.387 . S
C459 C461 1.387 . S
H460 C467 0.950 . S
C461 C459 1.387 . S
C461 C463 1.390 . S
C461 H465 0.950 . S
H462 C458 0.950 . S
C463 C461 1.390 . S
C463 C464 1.387 . S
C463 H466 0.950 . S
C464 C463 1.387 . S
C464 C467 1.387 . S
H465 C461 0.950 . S
H466 C463 0.950 . S
C467 C458 1.390 . S
C467 H460 0.950 . S
C467 C464 1.387 . S
C468 C469 1.387 . S
C468 H472 0.950 . S
C468 C477 1.390 . S
C469 C468 1.387 . S
C469 C471 1.387 . S
H470 C477 0.950 . S
C471 C469 1.387 . S
C471 C473 1.390 . S
C471 H475 0.950 . S
H472 C468 0.950 . S
C473 C471 1.390 . S
C473 C474 1.387 . S
C473 H476 0.950 . S
C474 C473 1.387 . S
C474 C477 1.387 . S
H475 C471 0.950 . S
H476 C473 0.950 . S
C477 C468 1.390 . S
C477 H470 0.950 . S
C477 C474 1.387 . S
C478 C479 1.387 . S
C478 H482 0.950 . S
C478 C487 1.390 . S
C479 C478 1.387 . S
C479 C481 1.387 . S
H480 C487 0.950 . S
C481 C479 1.387 . S
C481 C483 1.390 . S
C481 H485 0.950 . S
H482 C478 0.950 . S
C483 C481 1.390 . S
C483 C484 1.387 . S
C483 H486 0.950 . S
C484 C483 1.387 . S
C484 C487 1.387 . S
H485 C481 0.950 . S
H486 C483 0.950 . S
C487 C478 1.390 . S
C487 H480 0.950 . S
C487 C484 1.387 . S
C488 C489 1.387 . S
C488 H492 0.950 . S
C488 C497 1.390 . S
C489 C488 1.387 . S
C489 C491 1.387 . S
H490 C497 0.950 . S
C491 C489 1.387 . S
C491 C493 1.390 . S
C491 H495 0.950 . S
H492 C488 0.950 . S
C493 C491 1.390 . S
C493 C494 1.387 . S
C493 H496 0.950 . S
C494 C493 1.387 . S
C494 C497 1.387 . S
H495 C491 0.950 . S
H496 C493 0.950 . S
C497 C488 1.390 . S
C497 H490 0.950 . S
C497 C494 1.387 . S
C498 C499 1.387 . S
C498 H502 0.950 . S
C498 C507 1.390 . S
C499 C498 1.387 . S
C499 C501 1.387 . S
H500 C507 0.950 . S
C501 C499 1.387 . S
C501 C503 1.390 . S
C501 H505 0.950 . S
H502 C498 0.950 . S
C503 C501 1.390 . S
C503 C504 1.387 . S
C503 H506 0.950 . S
C504 C503 1.387 . S
C504 C507 1.387 . S
H505 C501 0.950 . S
H506 C503 0.950 . S
C507 C498 1.390 . S
C507 H500 0.950 . S
C507 C504 1.387 . S
C508 C509 1.387 . S
C508 H512 0.950 . S
C508 C517 1.390 . S
C509 C508 1.387 . S
C509 C511 1.387 . S
H510 C517 0.950 . S
C511 C509 1.387 . S
C511 C513 1.390 . S
C511 H515 0.950 . S
H512 C508 0.950 . S
C513 C511 1.390 . S
C513 C514 1.387 . S
C513 H516 0.950 . S
C514 C513 1.387 . S
C514 C517 1.387 . S
H515 C511 0.950 . S
H516 C513 0.950 . S
C517 C508 1.390 . S
C517 H510 0.950 . S
C517 C514 1.387 . S
C518 C519 1.387 . S
C518 H522 0.950 . S
C518 C527 1.390 . S
C519 C518 1.387 . S
C519 C521 1.387 . S
H520 C527 0.950 . S
C521 C519 1.387 . S
C521 C523 1.390 . S
C521 H525 0.950 . S
H522 C518 0.950 . S
C523 C521 1.390 . S
C523 C524 1.387 . S
C523 H526 0.950 . S
C524 C523 1.387 . S
C524 C527 1.387 . S
H525 C521 0.950 . S
H526 C523 0.950 . S
C527 C518 1.390 . S
C527 H520 0.950 . S
C527 C524 1.387 . S
C528 C529 1.387 . S
C528 H532 0.950 . S
C528 C537 1.390 . S
C529 C528 1.387 . S
C529 C531 1.387 . S
H530 C537 0.950 . S
C531 C529 1.387 . S
C531 C533 1.390 . S
C531 H535 0.950 . S
H532 C528 0.950 . S
C533 C531 1.390 . S
C533 C534 1.387 . S
C533 H536 0.950 . S
C534 C533 1.387 . S
C534 C537 1.387 . S
H535 C531 0.950 . S
H536 C533 0.950 . S
C537 C528 1.390 . S
C537 H530 0.950 . S
C537 C534 1.387 . S
C538 C539 1.387 . S
C538 H542 0.950 . S
C538 C547 1.390 . S
C539 C538 1.387 . S
C539 C541 1.387 . S
H540 C547 0.950 . S
C541 C539 1.387 . S
C541 C543 1.390 . S
C541 H545 0.950 . S
H542 C538 0.950 . S
C543 C541 1.390 . S
C543 C544 1.387 . S
C543 H546 0.950 . S
C544 C543 1.387 . S
C544 C547 1.387 . S
H545 C541 0.950 . S
H546 C543 0.950 . S
C547 C538 1.390 . S
C547 H540 0.950 . S
C547 C544 1.387 . S
C548 C549 1.387 . S
C548 H552 0.950 . S
C548 C557 1.390 . S
C549 C548 1.387 . S
C549 C551 1.387 . S
H550 C557 0.950 . S
C551 C549 1.387 . S
C551 C553 1.390 . S
C551 H555 0.950 . S
H552 C548 0.950 . S
C553 C551 1.390 . S
C553 C554 1.387 . S
C553 H556 0.950 . S
C554 C553 1.387 . S
C554 C557 1.387 . S
H555 C551 0.950 . S
H556 C553 0.950 . S
C557 C548 1.390 . S
C557 H550 0.950 . S
C557 C554 1.387 . S
C558 C559 1.387 . S
C558 H562 0.950 . S
C558 C567 1.390 . S
C559 C558 1.387 . S
C559 C561 1.387 . S
H560 C567 0.950 . S
C561 C559 1.387 . S
C561 C563 1.390 . S
C561 H565 0.950 . S
H562 C558 0.950 . S
C563 C561 1.390 . S
C563 C564 1.387 . S
C563 H566 0.950 . S
C564 C563 1.387 . S
C564 C567 1.387 . S
H565 C561 0.950 . S
H566 C563 0.950 . S
C567 C558 1.390 . S
C567 H560 0.950 . S
C567 C564 1.387 . S
C568 C569 1.387 . S
C568 H572 0.950 . S
C568 C577 1.390 . S
C569 C568 1.387 . S
C569 C571 1.387 . S
H570 C577 0.950 . S
C571 C569 1.387 . S
C571 C573 1.390 . S
C571 H575 0.950 . S
H572 C568 0.950 . S
C573 C571 1.390 . S
C573 C574 1.387 . S
C573 H576 0.950 . S
C574 C573 1.387 . S
C574 C577 1.387 . S
H575 C571 0.950 . S
H576 C573 0.950 . S
C577 C568 1.390 . S
C577 H570 0.950 . S
C577 C574 1.387 . S
C578 C579 1.387 . S
C578 H582 0.950 . S
C578 C587 1.390 . S
C579 C578 1.387 . S
C579 C581 1.387 . S
H580 C587 0.950 . S
C581 C579 1.387 . S
C581 C583 1.390 . S
C581 H585 0.950 . S
H582 C578 0.950 . S
C583 C581 1.390 . S
C583 C584 1.387 . S
C583 H586 0.950 . S
C584 C583 1.387 . S
C584 C587 1.387 . S
H585 C581 0.950 . S
H586 C583 0.950 . S
C587 C578 1.390 . S
C587 H580 0.950 . S
C587 C584 1.387 . S
C588 C589 1.387 . S
C588 H592 0.950 . S
C588 C597 1.390 . S
C589 C588 1.387 . S
C589 C591 1.387 . S
H590 C597 0.950 . S
C591 C589 1.387 . S
C591 C593 1.390 . S
C591 H595 0.950 . S
H592 C588 0.950 . S
C593 C591 1.390 . S
C593 C594 1.387 . S
C593 H596 0.950 . S
C594 C593 1.387 . S
C594 C597 1.387 . S
H595 C591 0.950 . S
H596 C593 0.950 . S
C597 C588 1.390 . S
C597 H590 0.950 . S
C597 C594 1.387 . S
C598 C599 1.387 . S
C598 H602 0.950 . S
C598 C607 1.390 . S
C599 C598 1.387 . S
C599 C601 1.387 . S
H600 C607 0.950 . S
C601 C599 1.387 . S
C601 C603 1.390 . S
C601 H605 0.950 . S
H602 C598 0.950 . S
C603 C601 1.390 . S
C603 C604 1.387 . S
C603 H606 0.950 . S
C604 C603 1.387 . S
C604 C607 1.387 . S
H605 C601 0.950 . S
H606 C603 0.950 . S
C607 C598 1.390 . S
C607 H600 0.950 . S
C607 C604 1.387 . S
C608 C609 1.387 1_554 S
C608 H612 0.950 . S
C608 C617 1.390 1_655 S
C609 C608 1.387 1_556 S
C609 C611 1.387 . S
H610 C617 0.950 . S
C611 C609 1.387 . S
C611 C613 1.390 1_655 S
C611 H615 0.950 . S
H612 C608 0.950 . S
C613 C611 1.390 1_455 S
C613 C614 1.387 1_556 S
C613 H616 0.950 . S
C614 C613 1.387 1_554 S
C614 C617 1.387 . S
H615 C611 0.950 . S
H616 C613 0.950 . S
C617 C608 1.390 1_455 S
C617 H610 0.950 . S
C617 C614 1.387 . S
C618 C619 1.387 . S
C618 H622 0.950 . S
C618 C627 1.390 . S
C619 C618 1.387 . S
C619 C621 1.387 1_556 S
H620 C627 0.950 . S
C621 C619 1.387 1_554 S
C621 C623 1.390 . S
C621 H625 0.950 . S
H622 C618 0.950 . S
C623 C621 1.390 . S
C623 C624 1.387 . S
C623 H626 0.950 . S
C624 C623 1.387 . S
C624 C627 1.387 1_554 S
H625 C621 0.950 . S
H626 C623 0.950 . S
C627 C618 1.390 . S
C627 H620 0.950 . S
C627 C624 1.387 1_556 S
C628 C629 1.387 . S
C628 H632 0.950 . S
C628 C637 1.390 1_455 S
C629 C628 1.387 . S
C629 C631 1.387 . S
H630 C637 0.950 . S
C631 C629 1.387 . S
C631 C633 1.390 1_455 S
C631 H635 0.950 . S
H632 C628 0.950 . S
C633 C631 1.390 1_655 S
C633 C634 1.387 . S
C633 H636 0.950 . S
C634 C633 1.387 . S
C634 C637 1.387 . S
H635 C631 0.950 . S
H636 C633 0.950 . S
C637 C628 1.390 1_655 S
C637 H630 0.950 . S
C637 C634 1.387 . S
C638 C639 1.387 . S
C638 H642 0.950 . S
C638 C647 1.390 . S
C639 C638 1.387 . S
C639 C641 1.387 . S
H640 C647 0.950 . S
C641 C639 1.387 . S
C641 C643 1.390 . S
C641 H645 0.950 . S
H642 C638 0.950 . S
C643 C641 1.390 . S
C643 C644 1.387 . S
C643 H646 0.950 . S
C644 C643 1.387 . S
C644 C647 1.387 . S
H645 C641 0.950 . S
H646 C643 0.950 . S
C647 C638 1.390 . S
C647 H640 0.950 . S
C647 C644 1.387 . S
C648 C649 1.387 . S
C648 H652 0.950 . S
C648 C657 1.390 . S
C649 C648 1.387 . S
C649 C651 1.387 1_556 S
H650 C657 0.950 . S
C651 C649 1.387 1_554 S
C651 C653 1.390 . S
C651 H655 0.950 . S
H652 C648 0.950 . S
C653 C651 1.390 . S
C653 C654 1.387 . S
C653 H656 0.950 . S
C654 C653 1.387 . S
C654 C657 1.387 1_554 S
H655 C651 0.950 . S
H656 C653 0.950 . S
C657 C648 1.390 . S
C657 H650 0.950 . S
C657 C654 1.387 1_556 S
C658 C659 1.388 1_455 S
C658 H662 0.950 . S
C658 C667 1.390 . S
C659 C658 1.388 1_655 S
C659 C661 1.387 . S
H660 C667 0.950 . S
C661 C659 1.387 . S
C661 C663 1.390 . S
C661 H665 0.950 . S
H662 C658 0.950 . S
C663 C661 1.390 . S
C663 C664 1.388 1_655 S
C663 H666 0.950 . S
C664 C663 1.388 1_455 S
C664 C667 1.387 . S
H665 C661 0.950 . S
H666 C663 0.950 . S
C667 C658 1.390 . S
C667 H660 0.950 . S
C667 C664 1.387 . S
C668 C669 1.387 . S
C668 H672 0.950 . S
C668 C677 1.390 . S
C669 C668 1.387 . S
C669 C671 1.387 . S
H670 C677 0.950 . S
C671 C669 1.387 . S
C671 C673 1.390 . S
C671 H675 0.950 . S
H672 C668 0.950 . S
C673 C671 1.390 . S
C673 C674 1.387 . S
C673 H676 0.950 . S
C674 C673 1.387 . S
C674 C677 1.387 . S
H675 C671 0.950 . S
H676 C673 0.950 . S
C677 C668 1.390 . S
C677 H670 0.950 . S
C677 C674 1.387 . S
C678 C679 1.387 . S
C678 H682 0.950 . S
C678 C687 1.390 1_545 S
C679 C678 1.387 . S
C679 C681 1.387 1_655 S
H680 C687 0.950 . S
C681 C679 1.387 1_455 S
C681 C683 1.390 1_545 S
C681 H685 0.950 . S
H682 C678 0.950 . S
C683 C681 1.390 1_565 S
C683 C684 1.387 . S
C683 H686 0.950 . S
C684 C683 1.387 . S
C684 C687 1.387 1_455 S
H685 C681 0.950 . S
H686 C683 0.950 . S
C687 C678 1.390 1_565 S
C687 H680 0.950 . S
C687 C684 1.387 1_655 S
C688 C689 1.387 . S
C688 H692 0.950 . S
C688 C697 1.390 . S
C689 C688 1.387 . S
C689 C691 1.387 . S
H690 C697 0.950 . S
C691 C689 1.387 . S
C691 C693 1.390 . S
C691 H695 0.950 . S
H692 C688 0.950 . S
C693 C691 1.390 . S
C693 C694 1.387 . S
C693 H696 0.950 . S
C694 C693 1.387 . S
C694 C697 1.387 . S
H695 C691 0.950 . S
H696 C693 0.950 . S
C697 C688 1.390 . S
C697 H690 0.950 . S
C697 C694 1.387 . S
C698 C699 1.387 1_545 S
C698 H702 0.950 . S
C698 C707 1.390 . S
C699 C698 1.387 1_565 S
C699 C701 1.387 . S
H700 C707 0.950 . S
C701 C699 1.387 . S
C701 C703 1.390 . S
C701 H705 0.950 . S
H702 C698 0.950 . S
C703 C701 1.390 . S
C703 C704 1.387 1_565 S
C703 H706 0.950 . S
C704 C703 1.387 1_545 S
C704 C707 1.387 . S
H705 C701 0.950 . S
H706 C703 0.950 . S
C707 C698 1.390 . S
C707 H700 0.950 . S
C707 C704 1.387 . S
C708 C709 1.387 . S
C708 H712 0.950 . S
C708 C717 1.390 . S
C709 C708 1.387 . S
C709 C711 1.387 . S
H710 C717 0.950 . S
C711 C709 1.387 . S
C711 C713 1.390 . S
C711 H715 0.950 . S
H712 C708 0.950 . S
C713 C711 1.390 . S
C713 C714 1.387 . S
C713 H716 0.950 . S
C714 C713 1.387 . S
C714 C717 1.387 . S
H715 C711 0.950 . S
H716 C713 0.950 . S
C717 C708 1.390 . S
C717 H710 0.950 . S
C717 C714 1.387 . S
C718 C719 1.387 1_545 S
C718 H722 0.950 . S
C718 C727 1.390 . S
C719 C718 1.387 1_565 S
C719 C721 1.387 . S
H720 C727 0.950 . S
C721 C719 1.387 . S
C721 C723 1.390 . S
C721 H725 0.950 . S
H722 C718 0.950 . S
C723 C721 1.390 . S
C723 C724 1.387 1_565 S
C723 H726 0.950 . S
C724 C723 1.387 1_545 S
C724 C727 1.387 . S
H725 C721 0.950 . S
H726 C723 0.950 . S
C727 C718 1.390 . S
C727 H720 0.950 . S
C727 C724 1.387 . S
C728 C729 1.387 . S
C728 H732 0.950 . S
C728 C737 1.390 . S
C729 C728 1.387 . S
C729 C731 1.387 . S
H730 C737 0.950 . S
C731 C729 1.387 . S
C731 C733 1.390 . S
C731 H735 0.950 . S
H732 C728 0.950 . S
C733 C731 1.390 . S
C733 C734 1.387 . S
C733 H736 0.950 . S
C734 C733 1.387 . S
C734 C737 1.387 . S
H735 C731 0.950 . S
H736 C733 0.950 . S
C737 C728 1.390 . S
C737 H730 0.950 . S
C737 C734 1.387 . S
C738 C739 1.387 . S
C738 H742 0.950 . S
C738 C747 1.390 . S
C739 C738 1.387 . S
C739 C741 1.387 . S
H740 C747 0.950 . S
C741 C739 1.387 . S
C741 C743 1.390 . S
C741 H745 0.950 . S
H742 C738 0.950 . S
C743 C741 1.390 . S
C743 C744 1.387 . S
C743 H746 0.950 . S
C744 C743 1.387 . S
C744 C747 1.387 . S
H745 C741 0.950 . S
H746 C743 0.950 . S
C747 C738 1.390 . S
C747 H740 0.950 . S
C747 C744 1.387 . S
C748 C749 1.387 . S
C748 H752 0.950 . S
C748 C757 1.390 . S
C749 C748 1.387 . S
C749 C751 1.387 . S
H750 C757 0.950 . S
C751 C749 1.387 . S
C751 C753 1.390 . S
C751 H755 0.950 . S
H752 C748 0.950 . S
C753 C751 1.390 . S
C753 C754 1.387 . S
C753 H756 0.950 . S
C754 C753 1.387 . S
C754 C757 1.387 . S
H755 C751 0.950 . S
H756 C753 0.950 . S
C757 C748 1.390 . S
C757 H750 0.950 . S
C757 C754 1.387 . S
C758 C759 1.387 1_565 S
C758 H762 0.950 . S
C758 C767 1.390 . S
C759 C758 1.387 1_545 S
C759 C761 1.387 1_556 S
H760 C767 0.950 . S
C761 C759 1.387 1_554 S
C761 C763 1.390 . S
C761 H765 0.950 . S
H762 C758 0.950 . S
C763 C761 1.390 . S
C763 C764 1.387 1_545 S
C763 H766 0.950 . S
C764 C763 1.387 1_565 S
C764 C767 1.387 1_554 S
H765 C761 0.950 . S
H766 C763 0.950 . S
C767 C758 1.390 . S
C767 H760 0.950 . S
C767 C764 1.387 1_556 S
C768 C769 1.387 . S
C768 H772 0.950 . S
C768 C777 1.390 . S
C769 C768 1.387 . S
C769 C771 1.387 . S
H770 C777 0.950 . S
C771 C769 1.387 . S
C771 C773 1.390 . S
C771 H775 0.950 . S
H772 C768 0.950 . S
C773 C771 1.390 . S
C773 C774 1.387 . S
C773 H776 0.950 . S
C774 C773 1.387 . S
C774 C777 1.387 . S
H775 C771 0.950 . S
H776 C773 0.950 . S
C777 C768 1.390 . S
C777 H770 0.950 . S
C777 C774 1.387 . S
C778 C779 1.387 . S
C778 H782 0.950 . S
C778 C787 1.390 . S
C779 C778 1.387 . S
C779 C781 1.387 . S
H780 C787 0.950 . S
C781 C779 1.387 . S
C781 C783 1.390 . S
C781 H785 0.950 . S
H782 C778 0.950 . S
C783 C781 1.390 . S
C783 C784 1.387 . S
C783 H786 0.950 . S
C784 C783 1.387 . S
C784 C787 1.387 . S
H785 C781 0.950 . S
H786 C783 0.950 . S
C787 C778 1.390 . S
C787 H780 0.950 . S
C787 C784 1.387 . S
C788 C789 1.387 . S
C788 H792 0.950 . S
C788 C797 1.390 . S
C789 C788 1.387 . S
C789 C791 1.387 . S
H790 C797 0.950 . S
C791 C789 1.387 . S
C791 C793 1.390 . S
C791 H795 0.950 . S
H792 C788 0.950 . S
C793 C791 1.390 . S
C793 C794 1.387 . S
C793 H796 0.950 . S
C794 C793 1.387 . S
C794 C797 1.387 . S
H795 C791 0.950 . S
H796 C793 0.950 . S
C797 C788 1.390 . S
C797 H790 0.950 . S
C797 C794 1.387 . S
C798 C799 1.387 . S
C798 H802 0.950 . S
C798 C807 1.390 . S
C799 C798 1.387 . S
C799 C801 1.387 . S
H800 C807 0.950 . S
C801 C799 1.387 . S
C801 C803 1.390 . S
C801 H805 0.950 . S
H802 C798 0.950 . S
C803 C801 1.390 . S
C803 C804 1.387 . S
C803 H806 0.950 . S
C804 C803 1.387 . S
C804 C807 1.387 . S
H805 C801 0.950 . S
H806 C803 0.950 . S
C807 C798 1.390 . S
C807 H800 0.950 . S
C807 C804 1.387 . S
C808 C809 1.387 . S
C808 H812 0.950 . S
C808 C817 1.390 . S
C809 C808 1.387 . S
C809 C811 1.387 . S
H810 C817 0.950 . S
C811 C809 1.387 . S
C811 C813 1.390 . S
C811 H815 0.950 . S
H812 C808 0.950 . S
C813 C811 1.390 . S
C813 C814 1.387 . S
C813 H816 0.950 . S
C814 C813 1.387 . S
C814 C817 1.387 . S
H815 C811 0.950 . S
H816 C813 0.950 . S
C817 C808 1.390 . S
C817 H810 0.950 . S
C817 C814 1.387 . S
C818 C819 1.387 . S
C818 H822 0.950 . S
C818 C827 1.390 . S
C819 C818 1.387 . S
C819 C821 1.387 . S
H820 C827 0.950 . S
C821 C819 1.387 . S
C821 C823 1.390 . S
C821 H825 0.950 . S
H822 C818 0.950 . S
C823 C821 1.390 . S
C823 C824 1.387 . S
C823 H826 0.950 . S
C824 C823 1.387 . S
C824 C827 1.387 . S
H825 C821 0.950 . S
H826 C823 0.950 . S
C827 C818 1.390 . S
C827 H820 0.950 . S
C827 C824 1.387 . S
C828 C829 1.387 . S
C828 H832 0.950 . S
C828 C837 1.390 . S
C829 C828 1.387 . S
C829 C831 1.387 . S
H830 C837 0.950 . S
C831 C829 1.387 . S
C831 C833 1.390 . S
C831 H835 0.950 . S
H832 C828 0.950 . S
C833 C831 1.390 . S
C833 C834 1.387 . S
C833 H836 0.950 . S
C834 C833 1.387 . S
C834 C837 1.387 . S
H835 C831 0.950 . S
H836 C833 0.950 . S
C837 C828 1.390 . S
C837 H830 0.950 . S
C837 C834 1.387 . S
C838 C839 1.387 . S
C838 H842 0.950 . S
C838 C847 1.390 . S
C839 C838 1.387 . S
C839 C841 1.387 . S
H840 C847 0.950 . S
C841 C839 1.387 . S
C841 C843 1.390 . S
C841 H845 0.950 . S
H842 C838 0.950 . S
C843 C841 1.390 . S
C843 C844 1.387 . S
C843 H846 0.950 . S
C844 C843 1.387 . S
C844 C847 1.387 . S
H845 C841 0.950 . S
H846 C843 0.950 . S
C847 C838 1.390 . S
C847 H840 0.950 . S
C847 C844 1.387 . S
C848 C849 1.387 . S
C848 H852 0.950 . S
C848 C857 1.390 . S
C849 C848 1.387 . S
C849 C851 1.387 . S
H850 C857 0.950 . S
C851 C849 1.387 . S
C851 C853 1.390 . S
C851 H855 0.950 . S
H852 C848 0.950 . S
C853 C851 1.390 . S
C853 C854 1.387 . S
C853 H856 0.950 . S
C854 C853 1.387 . S
C854 C857 1.387 . S
H855 C851 0.950 . S
H856 C853 0.950 . S
C857 C848 1.390 . S
C857 H850 0.950 . S
C857 C854 1.387 . S
C858 C859 1.387 . S
C858 H862 0.950 . S
C858 C867 1.390 . S
C859 C858 1.387 . S
C859 C861 1.387 . S
H860 C867 0.950 . S
C861 C859 1.387 . S
C861 C863 1.390 . S
C861 H865 0.950 . S
H862 C858 0.950 . S
C863 C861 1.390 . S
C863 C864 1.387 . S
C863 H866 0.950 . S
C864 C863 1.387 . S
C864 C867 1.387 . S
H865 C861 0.950 . S
H866 C863 0.950 . S
C867 C858 1.390 . S
C867 H860 0.950 . S
C867 C864 1.387 . S
C868 C869 1.387 . S
C868 H872 0.950 . S
C868 C877 1.390 . S
C869 C868 1.387 . S
C869 C871 1.387 . S
H870 C877 0.950 . S
C871 C869 1.387 . S
C871 C873 1.390 . S
C871 H875 0.950 . S
H872 C868 0.950 . S
C873 C871 1.390 . S
C873 C874 1.387 . S
C873 H876 0.950 . S
C874 C873 1.387 . S
C874 C877 1.387 . S
H875 C871 0.950 . S
H876 C873 0.950 . S
C877 C868 1.390 . S
C877 H870 0.950 . S
C877 C874 1.387 . S
C878 C879 1.387 . S
C878 H882 0.950 . S
C878 C887 1.390 . S
C879 C878 1.387 . S
C879 C881 1.387 . S
H880 C887 0.950 . S
C881 C879 1.387 . S
C881 C883 1.390 . S
C881 H885 0.950 . S
H882 C878 0.950 . S
C883 C881 1.390 . S
C883 C884 1.387 . S
C883 H886 0.950 . S
C884 C883 1.387 . S
C884 C887 1.387 . S
H885 C881 0.950 . S
H886 C883 0.950 . S
C887 C878 1.390 . S
C887 H880 0.950 . S
C887 C884 1.387 . S
C888 C889 1.387 . S
C888 H892 0.950 . S
C888 C897 1.390 . S
C889 C888 1.387 . S
C889 C891 1.387 . S
H890 C897 0.950 . S
C891 C889 1.387 . S
C891 C893 1.390 . S
C891 H895 0.950 . S
H892 C888 0.950 . S
C893 C891 1.390 . S
C893 C894 1.387 . S
C893 H896 0.950 . S
C894 C893 1.387 . S
C894 C897 1.387 . S
H895 C891 0.950 . S
H896 C893 0.950 . S
C897 C888 1.390 . S
C897 H890 0.950 . S
C897 C894 1.387 . S
C898 C899 1.387 . S
C898 H902 0.950 . S
C898 C907 1.390 . S
C899 C898 1.387 . S
C899 C901 1.387 . S
H900 C907 0.950 . S
C901 C899 1.387 . S
C901 C903 1.390 . S
C901 H905 0.950 . S
H902 C898 0.950 . S
C903 C901 1.390 . S
C903 C904 1.387 . S
C903 H906 0.950 . S
C904 C903 1.387 . S
C904 C907 1.387 . S
H905 C901 0.950 . S
H906 C903 0.950 . S
C907 C898 1.390 . S
C907 H900 0.950 . S
C907 C904 1.387 . S
C908 C909 1.387 . S
C908 H912 0.950 . S
C908 C917 1.390 . S
C909 C908 1.387 . S
C909 C911 1.387 . S
H910 C917 0.950 . S
C911 C909 1.387 . S
C911 C913 1.390 . S
C911 H915 0.950 . S
H912 C908 0.950 . S
C913 C911 1.390 . S
C913 C914 1.387 . S
C913 H916 0.950 . S
C914 C913 1.387 . S
C914 C917 1.387 . S
H915 C911 0.950 . S
H916 C913 0.950 . S
C917 C908 1.390 . S
C917 H910 0.950 . S
C917 C914 1.387 . S
C918 C919 1.387 . S
C918 H922 0.950 . S
C918 C927 1.390 . S
C919 C918 1.387 . S
C919 C921 1.387 . S
H920 C927 0.950 . S
C921 C919 1.387 . S
C921 C923 1.390 . S
C921 H925 0.950 . S
H922 C918 0.950 . S
C923 C921 1.390 . S
C923 C924 1.387 . S
C923 H926 0.950 . S
C924 C923 1.387 . S
C924 C927 1.387 . S
H925 C921 0.950 . S
H926 C923 0.950 . S
C927 C918 1.390 . S
C927 H920 0.950 . S
C927 C924 1.387 . S
C928 C929 1.387 . S
C928 H932 0.950 . S
C928 C937 1.390 . S
C929 C928 1.387 . S
C929 C931 1.387 . S
H930 C937 0.950 . S
C931 C929 1.387 . S
C931 C933 1.390 . S
C931 H935 0.950 . S
H932 C928 0.950 . S
C933 C931 1.390 . S
C933 C934 1.387 . S
C933 H936 0.950 . S
C934 C933 1.387 . S
C934 C937 1.387 . S
H935 C931 0.950 . S
H936 C933 0.950 . S
C937 C928 1.390 . S
C937 H930 0.950 . S
C937 C934 1.387 . S
C938 C939 1.387 . S
C938 H942 0.950 . S
C938 C947 1.390 . S
C939 C938 1.387 . S
C939 C941 1.387 . S
H940 C947 0.950 . S
C941 C939 1.387 . S
C941 C943 1.390 . S
C941 H945 0.950 . S
H942 C938 0.950 . S
C943 C941 1.390 . S
C943 C944 1.387 . S
C943 H946 0.950 . S
C944 C943 1.387 . S
C944 C947 1.387 . S
H945 C941 0.950 . S
H946 C943 0.950 . S
C947 C938 1.390 . S
C947 H940 0.950 . S
C947 C944 1.387 . S
C948 C949 1.387 . S
C948 H952 0.950 . S
C948 C957 1.390 . S
C949 C948 1.387 . S
C949 C951 1.387 . S
H950 C957 0.950 . S
C951 C949 1.387 . S
C951 C953 1.390 . S
C951 H955 0.950 . S
H952 C948 0.950 . S
C953 C951 1.390 . S
C953 C954 1.387 . S
C953 H956 0.950 . S
C954 C953 1.387 . S
C954 C957 1.387 . S
H955 C951 0.950 . S
H956 C953 0.950 . S
C957 C948 1.390 . S
C957 H950 0.950 . S
C957 C954 1.387 . S
C958 C959 1.387 . S
C958 H962 0.950 . S
C958 C967 1.390 . S
C959 C958 1.387 . S
C959 C961 1.387 . S
H960 C967 0.950 . S
C961 C959 1.387 . S
C961 C963 1.390 . S
C961 H965 0.950 . S
H962 C958 0.950 . S
C963 C961 1.390 . S
C963 C964 1.387 . S
C963 H966 0.950 . S
C964 C963 1.387 . S
C964 C967 1.387 . S
H965 C961 0.950 . S
H966 C963 0.950 . S
C967 C958 1.390 . S
C967 H960 0.950 . S
C967 C964 1.387 . S
C968 C969 1.387 . S
C968 H972 0.950 . S
C968 C977 1.390 . S
C969 C968 1.387 . S
C969 C971 1.387 . S
H970 C977 0.950 . S
C971 C969 1.387 . S
C971 C973 1.390 . S
C971 H975 0.950 . S
H972 C968 0.950 . S
C973 C971 1.390 . S
C973 C974 1.387 . S
C973 H976 0.950 . S
C974 C973 1.387 . S
C974 C977 1.387 . S
H975 C971 0.950 . S
H976 C973 0.950 . S
C977 C968 1.390 . S
C977 H970 0.950 . S
C977 C974 1.387 . S
C978 C979 1.387 . S
C978 H982 0.950 . S
C978 C987 1.390 . S
C979 C978 1.387 . S
C979 C981 1.387 . S
H980 C987 0.950 . S
C981 C979 1.387 . S
C981 C983 1.390 . S
C981 H985 0.950 . S
H982 C978 0.950 . S
C983 C981 1.390 . S
C983 C984 1.387 . S
C983 H986 0.950 . S
C984 C983 1.387 . S
C984 C987 1.387 . S
H985 C981 0.950 . S
H986 C983 0.950 . S
C987 C978 1.390 . S
C987 H980 0.950 . S
C987 C984 1.387 . S
C988 C989 1.387 . S
C988 H992 0.950 . S
C988 C997 1.390 . S
C989 C988 1.387 . S
C989 C991 1.387 . S
H990 C997 0.950 . S
C991 C989 1.387 . S
C991 C993 1.390 . S
C991 H995 0.950 . S
H992 C988 0.950 . S
C993 C991 1.390 . S
C993 C994 1.387 . S
C993 H996 0.950 . S
C994 C993 1.387 . S
C994 C997 1.387 . S
H995 C991 0.950 . S
H996 C993 0.950 . S
C997 C988 1.390 . S
C997 H990 0.950 . S
C997 C994 1.387 . S
C998 C999 1.387 . S
C998 H1002 0.950 . S
C998 C1007 1.390 . S
C999 C998 1.387 . S
C999 C1001 1.387 . S
H1000 C1007 0.950 . S
C1001 C999 1.387 . S
C1001 C1003 1.390 . S
C1001 H1005 0.950 . S
H1002 C998 0.950 . S
C1003 C1001 1.390 . S
C1003 C1004 1.387 . S
C1003 H1006 0.950 . S
C1004 C1003 1.387 . S
C1004 C1007 1.387 . S
H1005 C1001 0.950 . S
H1006 C1003 0.950 . S
C1007 C998 1.390 . S
C1007 H1000 0.950 . S
C1007 C1004 1.387 . S
C1008 C1009 1.387 . S
C1008 H1012 0.950 . S
C1008 C1017 1.390 . S
C1009 C1008 1.387 . S
C1009 C1011 1.387 . S
H1010 C1017 0.950 . S
C1011 C1009 1.387 . S
C1011 C1013 1.390 . S
C1011 H1015 0.950 . S
H1012 C1008 0.950 . S
C1013 C1011 1.390 . S
C1013 C1014 1.387 . S
C1013 H1016 0.950 . S
C1014 C1013 1.387 . S
C1014 C1017 1.387 . S
H1015 C1011 0.950 . S
H1016 C1013 0.950 . S
C1017 C1008 1.390 . S
C1017 H1010 0.950 . S
C1017 C1014 1.387 . S
C1018 C1019 1.387 . S
C1018 H1022 0.950 . S
C1018 C1027 1.390 . S
C1019 C1018 1.387 . S
C1019 C1021 1.387 . S
H1020 C1027 0.950 . S
C1021 C1019 1.387 . S
C1021 C1023 1.390 . S
C1021 H1025 0.950 . S
H1022 C1018 0.950 . S
C1023 C1021 1.390 . S
C1023 C1024 1.387 . S
C1023 H1026 0.950 . S
C1024 C1023 1.387 . S
C1024 C1027 1.387 . S
H1025 C1021 0.950 . S
H1026 C1023 0.950 . S
C1027 C1018 1.390 . S
C1027 H1020 0.950 . S
C1027 C1024 1.387 . S
C1028 C1029 1.387 . S
C1028 H1032 0.950 . S
C1028 C1037 1.390 . S
C1029 C1028 1.387 . S
C1029 C1031 1.387 . S
H1030 C1037 0.950 . S
C1031 C1029 1.387 . S
C1031 C1033 1.390 . S
C1031 H1035 0.950 . S
H1032 C1028 0.950 . S
C1033 C1031 1.390 . S
C1033 C1034 1.387 . S
C1033 H1036 0.950 . S
C1034 C1033 1.387 . S
C1034 C1037 1.387 . S
H1035 C1031 0.950 . S
H1036 C1033 0.950 . S
C1037 C1028 1.390 . S
C1037 H1030 0.950 . S
C1037 C1034 1.387 . S
C1038 C1039 1.387 . S
C1038 H1042 0.950 . S
C1038 C1047 1.390 . S
C1039 C1038 1.387 . S
C1039 C1041 1.387 . S
H1040 C1047 0.950 . S
C1041 C1039 1.387 . S
C1041 C1043 1.390 . S
C1041 H1045 0.950 . S
H1042 C1038 0.950 . S
C1043 C1041 1.390 . S
C1043 C1044 1.387 . S
C1043 H1046 0.950 . S
C1044 C1043 1.387 . S
C1044 C1047 1.387 . S
H1045 C1041 0.950 . S
H1046 C1043 0.950 . S
C1047 C1038 1.390 . S
C1047 H1040 0.950 . S
C1047 C1044 1.387 . S
C1048 C1049 1.387 . S
C1048 H1052 0.950 . S
C1048 C1057 1.390 . S
C1049 C1048 1.387 . S
C1049 C1051 1.387 . S
H1050 C1057 0.950 . S
C1051 C1049 1.387 . S
C1051 C1053 1.390 . S
C1051 H1055 0.950 . S
H1052 C1048 0.950 . S
C1053 C1051 1.390 . S
C1053 C1054 1.387 . S
C1053 H1056 0.950 . S
C1054 C1053 1.387 . S
C1054 C1057 1.387 . S
H1055 C1051 0.950 . S
H1056 C1053 0.950 . S
C1057 C1048 1.390 . S
C1057 H1050 0.950 . S
C1057 C1054 1.387 . S
C1058 C1059 1.387 . S
C1058 H1062 0.950 . S
C1058 C1067 1.390 . S
C1059 C1058 1.387 . S
C1059 C1061 1.387 . S
H1060 C1067 0.950 . S
C1061 C1059 1.387 . S
C1061 C1063 1.390 . S
C1061 H1065 0.950 . S
H1062 C1058 0.950 . S
C1063 C1061 1.390 . S
C1063 C1064 1.387 . S
C1063 H1066 0.950 . S
C1064 C1063 1.387 . S
C1064 C1067 1.387 . S
H1065 C1061 0.950 . S
H1066 C1063 0.950 . S
C1067 C1058 1.390 . S
C1067 H1060 0.950 . S
C1067 C1064 1.387 . S
C1068 C1069 1.387 . S
C1068 H1072 0.950 . S
C1068 C1077 1.390 . S
C1069 C1068 1.387 . S
C1069 C1071 1.387 . S
H1070 C1077 0.950 . S
C1071 C1069 1.387 . S
C1071 C1073 1.390 . S
C1071 H1075 0.950 . S
H1072 C1068 0.950 . S
C1073 C1071 1.390 . S
C1073 C1074 1.387 . S
C1073 H1076 0.950 . S
C1074 C1073 1.387 . S
C1074 C1077 1.387 . S
H1075 C1071 0.950 . S
H1076 C1073 0.950 . S
C1077 C1068 1.390 . S
C1077 H1070 0.950 . S
C1077 C1074 1.387 . S
C1078 C1079 1.387 . S
C1078 H1082 0.950 . S
C1078 C1087 1.390 . S
C1079 C1078 1.387 . S
C1079 C1081 1.387 . S
H1080 C1087 0.950 . S
C1081 C1079 1.387 . S
C1081 C1083 1.390 . S
C1081 H1085 0.950 . S
H1082 C1078 0.950 . S
C1083 C1081 1.390 . S
C1083 C1084 1.387 . S
C1083 H1086 0.950 . S
C1084 C1083 1.387 . S
C1084 C1087 1.387 . S
H1085 C1081 0.950 . S
H1086 C1083 0.950 . S
C1087 C1078 1.390 . S
C1087 H1080 0.950 . S
C1087 C1084 1.387 . S
C449 C35 0.832 . S
C454 C7 0.832 . S
C459 C21 0.832 . S
C464 C49 0.832 . S
C469 C91 0.832 . S
C474 C63 0.832 . S
C479 C105 0.832 . S
C484 C77 0.832 . S
C489 C119 0.828 . S
C494 C147 0.828 . S
C499 C161 0.828 . S
C504 C133 0.828 . S
C509 C175 0.832 . S
C514 C203 0.832 . S
C519 C189 0.832 . S
C524 C217 0.832 . S
C529 C259 0.828 . S
C534 C231 0.828 . S
C539 C245 0.832 . S
C544 C273 0.832 . S
C549 C287 0.832 . S
C554 C315 0.832 . S
C559 C329 0.828 . S
C564 C301 0.828 . S
C569 C371 0.832 . S
C574 C343 0.832 . S
C579 C385 0.832 . S
C584 C357 0.832 . S
C589 C427 0.828 . S
C594 C399 0.828 . S
C599 C413 0.832 . S
C604 C441 0.832 . S
C609 C64 1.636 . S
C614 C8 1.636 . S
C619 C414 1.635 . S
C624 C22 1.635 . S
C629 C36 1.636 . S
C634 C204 1.636 . S
C639 C50 1.634 . S
C644 C330 1.634 . S
C649 C78 1.635 . S
C654 C358 1.635 . S
C659 C92 1.636 . S
C664 C148 1.636 . S
C669 C274 1.635 . S
C674 C106 1.635 . S
C679 C176 1.636 . S
C684 C120 1.636 . S
C689 C302 1.634 . S
C694 C134 1.634 . S
C699 C162 1.636 . S
C704 C442 1.636 . S
C709 C190 1.635 . S
C714 C246 1.635 . S
C719 C386 1.636 . S
C724 C218 1.636 . S
C729 C288 1.636 . S
C734 C232 1.636 . S
C739 C260 1.635 . S
C744 C428 1.635 . S
C749 C316 1.636 . S
C754 C372 1.636 . S
C759 C400 1.634 . S
C764 C344 1.634 . S
C769 C51 1.487 . S
C774 C9 1.487 . S
C779 C37 1.485 . S
C784 C23 1.485 . S
C789 C107 1.487 . S
C794 C65 1.487 . S
C799 C93 1.485 . S
C804 C79 1.485 . S
C809 C163 1.484 . S
C814 C121 1.484 . S
C819 C149 1.485 . S
C824 C135 1.485 . S
C829 C219 1.484 . S
C834 C177 1.484 . S
C839 C205 1.485 . S
C844 C191 1.485 . S
C849 C233 1.487 . S
C854 C275 1.487 . S
C859 C261 1.487 . S
C864 C247 1.487 . S
C869 C289 1.487 . S
C874 C331 1.487 . S
C879 C317 1.485 . S
C884 C303 1.485 . S
C889 C387 1.484 . S
C894 C345 1.484 . S
C899 C359 1.487 . S
C904 C373 1.487 . S
C909 C401 1.484 . S
C914 C443 1.484 . S
C919 C429 1.485 . S
C924 C415 1.485 . S
C929 C31 1.519 1_545 S
C934 C3 1.519 . S
C939 C17 1.519 1_545 S
C944 C45 1.519 . S
C949 C59 1.519 . S
C954 C87 1.519 1_565 S
C959 C73 1.519 1_565 S
C964 C101 1.519 . S
C969 C115 1.520 . S
C974 C143 1.520 . S
C979 C129 1.519 . S
C984 C157 1.519 . S
C989 C199 1.520 . S
C994 C171 1.520 . S
C999 C213 1.519 . S
C1004 C185 1.519 . S
C1009 C255 1.520 1_545 S
C1014 C227 1.520 . S
C1019 C269 1.519 . S
C1024 C241 1.519 1_545 S
C1029 C283 1.519 . S
C1034 C311 1.519 1_565 S
C1039 C325 1.519 . S
C1044 C297 1.519 1_565 S
C1049 C367 1.519 . S
C1054 C339 1.519 . S
C1059 C353 1.520 . S
C1064 C381 1.520 . S
C1069 C395 1.519 . S
C1074 C423 1.519 . S
C1079 C437 1.520 . S
C1084 C409 1.520 . S
