# Generated by pormake.
# Topology crb, (4)-cn, num edge types: 1
# Building blocks:
#     Node 0, Type 0, BuildingBlock: NAHDIM_clean_sbu_0, # of connection points: 4
#     Node 1, Type 0, BuildingBlock: NAHDIM_clean_sbu_0, # of connection points: 4
#     Node 2, Type 0, BuildingBlock: NAHDIM_clean_sbu_0, # of connection points: 4
#     Node 3, Type 0, BuildingBlock: NAHDIM_clean_sbu_0, # of connection points: 4
#     Node 4, Type 0, BuildingBlock: NAHDIM_clean_sbu_0, # of connection points: 4
#     Node 5, Type 0, BuildingBlock: NAHDIM_clean_sbu_0, # of connection points: 4
#     Node 6, Type 0, BuildingBlock: NAHDIM_clean_sbu_0, # of connection points: 4
#     Node 7, Type 0, BuildingBlock: NAHDIM_clean_sbu_0, # of connection points: 4
#     Edge 8, Type (0, 0), BuildingBlock: ZUJKAS_clean_linker_0, # of connection points: 2
#     Edge 9, Type (0, 0), BuildingBlock: ZUJKAS_clean_linker_0, # of connection points: 2
#     Edge 10, Type (0, 0), BuildingBlock: ZUJKAS_clean_linker_0, # of connection points: 2
#     Edge 11, Type (0, 0), BuildingBlock: ZUJKAS_clean_linker_0, # of connection points: 2
#     Edge 12, Type (0, 0), BuildingBlock: ZUJKAS_clean_linker_0, # of connection points: 2
#     Edge 13, Type (0, 0), BuildingBlock: ZUJKAS_clean_linker_0, # of connection points: 2
#     Edge 14, Type (0, 0), BuildingBlock: ZUJKAS_clean_linker_0, # of connection points: 2
#     Edge 15, Type (0, 0), BuildingBlock: ZUJKAS_clean_linker_0, # of connection points: 2
#     Edge 16, Type (0, 0), BuildingBlock: ZUJKAS_clean_linker_0, # of connection points: 2
#     Edge 17, Type (0, 0), BuildingBlock: ZUJKAS_clean_linker_0, # of connection points: 2
#     Edge 18, Type (0, 0), BuildingBlock: ZUJKAS_clean_linker_0, # of connection points: 2
#     Edge 19, Type (0, 0), BuildingBlock: ZUJKAS_clean_linker_0, # of connection points: 2
#     Edge 20, Type (0, 0), BuildingBlock: ZUJKAS_clean_linker_0, # of connection points: 2
#     Edge 21, Type (0, 0), BuildingBlock: ZUJKAS_clean_linker_0, # of connection points: 2
#     Edge 22, Type (0, 0), BuildingBlock: ZUJKAS_clean_linker_0, # of connection points: 2
#     Edge 23, Type (0, 0), BuildingBlock: ZUJKAS_clean_linker_0, # of connection points: 2
# Relax obj value: 0.033
# Max RMSD: 0.065
# Mean RMSD: 0.065
data_MOF--net-crb--node1-NAHDIM_clean_sbu_0--edge1-ZUJKAS_clean_linker_0
_symmetry_space_group_name_H-M    P1
_symmetry_Int_Tables_number       1
_symmetry_cell_setting            triclinic
loop_
_symmetry_equiv_pos_as_xyz
'x, y, z'
_cell_length_a     54.430201
_cell_length_b     56.783772
_cell_length_c     31.865282
_cell_angle_alpha  89.95828
_cell_angle_beta   89.954343
_cell_angle_gamma 90.018761
loop_
_atom_site_label
_atom_site_type_symbol
_atom_site_fract_x
_atom_site_fract_y
_atom_site_fract_z
_atom_type_partial_charge
C0 C 0.28597 0.3066 0.12429 0.0
O1 O 0.27304 0.309 0.08975 0.0
O2 O 0.36066 0.31554 0.07306 0.0
Zn3 Zn 0.32466 0.32402 0.07127 0.0
O4 O 0.30874 0.30825 0.02141 0.0
C5 C 0.3369 0.37172 0.04855 0.0
O6 O 0.3558 0.36118 0.03114 0.0
O7 O 0.30857 0.31223 0.12403 0.0
C8 C 0.3032 0.31915 0.98787 0.0
O9 O 0.30761 0.34183 0.98507 0.0
C10 C 0.37206 0.30887 0.04031 0.0
O11 O 0.36006 0.30722 0.00469 0.0
O12 O 0.32095 0.35938 0.06775 0.0
C13 C 0.68605 0.31091 0.93752 0.0
O14 O 0.663 0.3176 0.93489 0.0
O15 O 0.64514 0.32242 0.01983 0.0
Zn16 Zn 0.68149 0.32877 0.02183 0.0
O17 O 0.69594 0.31416 0.07361 0.0
C18 C 0.67078 0.37717 0.03841 0.0
O19 O 0.65066 0.36769 0.05372 0.0
O20 O 0.69774 0.31432 0.97147 0.0
C21 C 0.68549 0.31587 0.10915 0.0
O22 O 0.66491 0.32782 0.1123 0.0
C23 C 0.63525 0.30343 0.03249 0.0
O24 O 0.64918 0.28645 0.04726 0.0
O25 O 0.68715 0.36385 0.02273 0.0
C26 C 0.69243 0.71269 0.12297 0.0
O27 O 0.6836 0.72568 0.09236 0.0
O28 O 0.63962 0.68079 0.07065 0.0
Zn29 Zn 0.67628 0.67619 0.06844 0.0
O30 O 0.69051 0.69173 0.01713 0.0
C31 C 0.67213 0.62904 0.03939 0.0
O32 O 0.65699 0.6394 0.01311 0.0
O33 O 0.69142 0.6904 0.11986 0.0
C34 C 0.70964 0.68364 -0.00059 0.0
O35 O 0.72034 0.66486 0.01508 0.0
C36 C 0.62736 0.68961 0.04056 0.0
O37 O 0.63891 0.69664 0.00658 0.0
O38 O 0.68309 0.64143 0.06677 0.0
C39 C 0.3093 0.68589 0.93219 0.0
O40 O 0.33161 0.67746 0.92743 0.0
O41 O 0.35153 0.67818 0.0179 0.0
Zn42 Zn 0.31545 0.6707 0.01842 0.0
O43 O 0.30024 0.68528 0.06962 0.0
C44 C 0.32579 0.62243 -0.00111 0.0
O45 O 0.34328 0.63226 0.97646 0.0
O46 O 0.299 0.68459 0.96789 0.0
C47 C 0.29347 0.67345 0.10144 0.0
O48 O 0.29645 0.65049 0.10156 0.0
C49 C 0.36442 0.67194 0.0492 0.0
O50 O 0.35366 0.66124 0.08083 0.0
O51 O 0.31107 0.6355 0.01925 0.0
C52 C 0.80929 0.79159 0.62867 0.0
O53 O 0.82428 0.7795 0.60459 0.0
O54 O 0.85662 0.81799 0.56926 0.0
Zn55 Zn 0.82063 0.82636 0.56782 0.0
O56 O 0.80482 0.812 0.51655 0.0
C57 C 0.83171 0.87387 0.54463 0.0
O58 O 0.84846 0.86297 0.52221 0.0
O59 O 0.80454 0.81285 0.61919 0.0
C60 C 0.79464 0.8241 0.48785 0.0
O61 O 0.79379 0.84712 0.49141 0.0
C62 C 0.86828 0.81157 0.53664 0.0
O63 O 0.85659 0.81015 0.50068 0.0
O64 O 0.81723 0.86177 0.56737 0.0
C65 C 0.19372 0.79085 0.46229 0.0
O66 O 0.18791 0.77832 0.49551 0.0
O67 O 0.14171 0.82295 0.51943 0.0
Zn68 Zn 0.1784 0.82751 0.51683 0.0
O69 O 0.19509 0.81165 0.56545 0.0
C70 C 0.17241 0.87574 0.53979 0.0
O71 O 0.15373 0.86671 0.56042 0.0
O72 O 0.19117 0.81309 0.46357 0.0
C73 C 0.1873 0.81271 0.60298 0.0
O74 O 0.16736 0.82487 0.6113 0.0
C75 C 0.13131 0.80475 0.53442 0.0
O76 O 0.14484 0.78747 0.54914 0.0
O77 O 0.18602 0.8622 0.51818 0.0
C78 C 0.21472 0.19701 0.6236 0.0
O79 O 0.22824 0.19669 0.58943 0.0
O80 O 0.1426 0.17707 0.57175 0.0
Zn81 Zn 0.17939 0.17432 0.56979 0.0
O82 O 0.19285 0.19157 0.51954 0.0
C83 C 0.17375 0.12637 0.54555 0.0
O84 O 0.15408 0.13534 0.52784 0.0
O85 O 0.19328 0.18817 0.62264 0.0
C86 C 0.18236 0.19079 0.48395 0.0
O87 O 0.16209 0.17847 0.47969 0.0
C88 C 0.13063 0.19539 0.56154 0.0
O89 O 0.14257 0.21437 0.54962 0.0
O90 O 0.18812 0.13988 0.56575 0.0
C91 C 0.78189 0.19124 0.4648 0.0
O92 O 0.76811 0.18753 0.49803 0.0
O93 O 0.85497 0.17983 0.52147 0.0
Zn94 Zn 0.81868 0.17325 0.51982 0.0
O95 O 0.80255 0.18977 0.56814 0.0
C96 C 0.82401 0.12485 0.49803 0.0
O97 O 0.83861 0.13416 0.46965 0.0
O98 O 0.80457 0.18601 0.46629 0.0
C99 C 0.80121 0.18099 0.60473 0.0
O100 O 0.81078 0.16013 0.61187 0.0
C101 C 0.86892 0.16769 0.545 0.0
O102 O 0.85932 0.15083 0.56804 0.0
O103 O 0.81279 0.13836 0.52336 0.0
H104 H 0.36665 0.40244 0.00658 0.0
H105 H 0.36147 0.44495 -0.00113 0.0
H106 H 0.29509 0.44196 0.07261 0.0
H107 H 0.30016 0.39933 0.0808 0.0
H108 H 0.32005 0.46906 0.96345 0.0
H109 H 0.33709 0.49376 0.1299 0.0
H110 H 0.34583 0.46548 0.10874 0.0
H111 H 0.31426 0.47141 0.12117 0.0
C112 C 0.35098 0.41079 0.02134 0.0
C113 C 0.33385 0.3975 0.04444 0.0
C114 C 0.34805 0.43507 0.01682 0.0
C115 C 0.32805 0.44657 0.03551 0.0
C116 C 0.31085 0.43342 0.05848 0.0
H117 H 0.29231 0.59642 0.04333 0.0
H118 H 0.29071 0.55353 0.05059 0.0
C119 C 0.31373 0.40907 0.06297 0.0
C120 C 0.32513 0.47229 0.03019 0.0
H121 H 0.32674 0.52444 0.08326 0.0
C122 C 0.32144 0.4812 0.98962 0.0
C123 C 0.32682 0.48798 0.06448 0.0
C124 C 0.3314 0.4793 0.10855 0.0
C125 C 0.3195 0.50549 0.98233 0.0
C126 C 0.32182 0.52125 0.01646 0.0
C127 C 0.32498 0.51229 0.05718 0.0
C128 C 0.32206 0.5471 0.01043 0.0
C129 C 0.3148 0.51405 0.93822 0.0
C130 C 0.3403 0.55767 0.98562 0.0
C131 C 0.34123 0.58213 0.98129 0.0
C132 C 0.32406 0.5965 0.00204 0.0
C133 C 0.30576 0.58585 0.02683 0.0
C134 C 0.30483 0.56136 0.03107 0.0
H135 H 0.30629 0.50011 0.91856 0.0
H136 H 0.30261 0.52973 0.93813 0.0
H137 H 0.33252 0.51905 0.92347 0.0
H138 H 0.35411 0.54702 0.97019 0.0
H139 H 0.35566 0.58976 0.9622 0.0
H140 H 0.40209 0.30806 0.10917 0.0
H141 H 0.4468 0.3037 0.11027 0.0
H142 H 0.4474 0.29665 0.97552 0.0
H143 H 0.40271 0.30043 0.97415 0.0
H144 H 0.47856 0.26526 0.0144 0.0
H145 H 0.49314 0.35612 0.07393 0.0
H146 H 0.47392 0.33817 0.10676 0.0
H147 H 0.46377 0.34602 0.05492 0.0
C148 C 0.41172 0.30545 0.07978 0.0
C149 C 0.39888 0.30481 0.04152 0.0
C150 C 0.43727 0.30307 0.08047 0.0
C151 C 0.45043 0.30031 0.0429 0.0
C152 C 0.43759 0.29887 0.00484 0.0
H153 H 0.60204 0.33268 0.99538 0.0
H154 H 0.55732 0.33013 -0.00214 0.0
C155 C 0.41204 0.30109 0.00414 0.0
C156 C 0.47762 0.29962 0.0429 0.0
H157 H 0.52837 0.33219 0.06693 0.0
C158 C 0.4895 0.27985 0.02595 0.0
C159 C 0.49178 0.31883 0.0575 0.0
C160 C 0.48006 0.34109 0.07395 0.0
C161 C 0.51522 0.27879 0.02309 0.0
C162 C 0.52937 0.29785 0.03835 0.0
C163 C 0.51747 0.31754 0.0555 0.0
C164 C 0.55652 0.29832 0.0353 0.0
C165 C 0.52695 0.25764 0.00262 0.0
C166 C 0.57094 0.28122 0.05543 0.0
C167 C 0.59658 0.28251 0.05377 0.0
C168 C 0.6082 0.30113 0.03244 0.0
C169 C 0.59368 0.31814 0.01215 0.0
C170 C 0.56811 0.31673 0.01356 0.0
H171 H 0.51359 0.24762 0.98326 0.0
H172 H 0.54262 0.26298 0.98239 0.0
H173 H 0.53403 0.24566 0.02732 0.0
H174 H 0.56237 0.26714 0.07314 0.0
H175 H 0.60727 0.26925 0.06999 0.0
H176 H 0.71124 0.40263 0.01442 0.0
H177 H 0.71628 0.4455 0.01601 0.0
H178 H 0.64268 0.45289 0.06449 0.0
H179 H 0.63765 0.41023 0.06382 0.0
H180 H 0.69021 0.47949 0.97489 0.0
H181 H 0.68209 0.49219 0.1465 0.0
H182 H 0.68686 0.46361 0.12313 0.0
H183 H 0.65653 0.4762 0.12529 0.0
C184 C 0.69619 0.41339 0.02567 0.0
C185 C 0.6741 0.40301 0.03925 0.0
C186 C 0.6991 0.43786 0.02654 0.0
C187 C 0.68002 0.45233 0.04111 0.0
C188 C 0.65787 0.44202 0.05417 0.0
H189 H 0.64742 0.59714 0.99124 0.0
H190 H 0.65217 0.55441 0.99083 0.0
C191 C 0.65498 0.41761 0.05349 0.0
C192 C 0.68278 0.47828 0.04127 0.0
H193 H 0.67678 0.52665 0.10388 0.0
C194 C 0.68757 0.48982 0.00317 0.0
C195 C 0.67978 0.49169 0.07832 0.0
C196 C 0.67629 0.48027 0.12069 0.0
C197 C 0.68837 0.51449 0.00079 0.0
C198 C 0.68373 0.52791 0.03734 0.0
C199 C 0.68002 0.51635 0.07577 0.0
C200 C 0.68172 0.55393 0.03626 0.0
C201 C 0.69419 0.52589 0.95917 0.0
C202 C 0.69635 0.56785 0.06269 0.0
C203 C 0.69345 0.5923 0.06344 0.0
C204 C 0.67581 0.60326 0.03778 0.0
C205 C 0.6613 0.58928 0.01115 0.0
C206 C 0.66412 0.56484 0.01063 0.0
H207 H 0.70487 0.51386 0.93859 0.0
H208 H 0.67677 0.53017 0.94279 0.0
H209 H 0.70479 0.54243 0.96341 0.0
H210 H 0.70993 0.55977 0.08294 0.0
H211 H 0.70492 0.60259 0.08429 0.0
H212 H 0.39276 0.69141 0.98719 0.0
H213 H 0.43747 0.69607 0.98663 0.0
H214 H 0.44148 0.66622 0.1109 0.0
H215 H 0.39689 0.66122 0.11163 0.0
H216 H 0.46861 0.72098 0.04241 0.0
H217 H 0.48863 0.62508 0.04183 0.0
H218 H 0.45857 0.63678 0.0301 0.0
H219 H 0.46876 0.63449 0.08359 0.0
C220 C 0.40314 0.68586 0.01444 0.0
C221 C 0.3913 0.67577 0.04934 0.0
C222 C 0.42867 0.68857 0.01406 0.0
C223 C 0.44276 0.68114 0.04844 0.0
C224 C 0.43095 0.67163 0.08373 0.0
H225 H 0.5979 0.67529 0.10524 0.0
H226 H 0.55303 0.67494 0.10749 0.0
C227 C 0.40545 0.66889 0.08414 0.0
C228 C 0.46985 0.68318 0.04734 0.0
H229 H 0.52254 0.65072 0.05113 0.0
C230 C 0.48045 0.70565 0.04414 0.0
C231 C 0.48516 0.66311 0.04952 0.0
C232 C 0.47476 0.63847 0.05107 0.0
C233 C 0.50606 0.70861 0.04399 0.0
C234 C 0.52135 0.68853 0.04647 0.0
C235 C 0.51073 0.66608 0.04945 0.0
C236 C 0.54847 0.69028 0.04584 0.0
C237 C 0.51655 0.73318 0.04208 0.0
C238 C 0.56075 0.69905 0.01039 0.0
C239 C 0.58641 0.69929 0.00896 0.0
C240 C 0.60023 0.69062 0.0429 0.0
C241 C 0.58783 0.68211 0.07857 0.0
C242 C 0.56219 0.68188 0.07993 0.0
H243 H 0.50267 0.74668 0.05071 0.0
H244 H 0.53261 0.73494 0.06333 0.0
H245 H 0.52283 0.73689 0.0096 0.0
H246 H 0.55048 0.7052 0.98342 0.0
H247 H 0.59539 0.70587 0.98097 0.0
H248 H 0.85847 0.9041 0.49622 0.0
H249 H 0.85386 0.94675 0.4903 0.0
H250 H 0.79451 0.945 0.57993 0.0
H251 H 0.79903 0.90221 0.58632 0.0
H252 H 0.80993 0.97175 0.46597 0.0
H253 H 0.84267 0.99581 0.62578 0.0
H254 H 0.84895 0.96747 0.60241 0.0
H255 H 0.81896 0.9738 0.62292 0.0
C256 C 0.84449 0.91275 0.51486 0.0
C257 C 0.82915 0.89976 0.54184 0.0
C258 C 0.84187 0.93712 0.51135 0.0
C259 C 0.82401 0.94899 0.53493 0.0
C260 C 0.80863 0.93615 0.56191 0.0
H261 H 0.79476 0.09994 0.55212 0.0
H262 H 0.79238 0.05712 0.56013 0.0
C263 C 0.81119 0.91172 0.56539 0.0
C264 C 0.82129 0.97477 0.53043 0.0
H265 H 0.8295 0.0268 0.58206 0.0
C266 C 0.81411 0.98382 0.49135 0.0
C267 C 0.82661 0.99038 0.56374 0.0
C268 C 0.8349 0.9815 0.60606 0.0
C269 C 0.81227 0.00816 0.48454 0.0
C270 C 0.8183 0.02382 0.51747 0.0
C271 C 0.82492 0.01474 0.55687 0.0
C272 C 0.81887 0.04967 0.51125 0.0
C273 C 0.8037 0.01685 0.44225 0.0
C274 C 0.83465 0.05965 0.48127 0.0
C275 C 0.83598 0.08407 0.47647 0.0
C276 C 0.82174 0.09898 0.50192 0.0
C277 C 0.80593 0.08893 0.53195 0.0
C278 C 0.80456 0.06449 0.53661 0.0
H279 H 0.7928 0.00324 0.42553 0.0
H280 H 0.79235 0.03301 0.44535 0.0
H281 H 0.81994 0.02109 0.42258 0.0
H282 H 0.8463 0.04857 0.46207 0.0
H283 H 0.84848 0.09123 0.45328 0.0
H284 H 0.09829 0.83621 0.50257 0.0
H285 H 0.05355 0.83441 0.50642 0.0
H286 H 0.05806 0.76884 0.57434 0.0
H287 H 0.10296 0.77023 0.56998 0.0
H288 H 0.0231 0.76798 0.51167 0.0
H289 H 0.01231 0.8476 0.61033 0.0
H290 H 0.02965 0.85307 0.56342 0.0
H291 H 0.04158 0.83333 0.60262 0.0
C292 C 0.08981 0.82139 0.51839 0.0
C293 C 0.1042 0.80342 0.5362 0.0
C294 C 0.06423 0.82048 0.52076 0.0
C295 C 0.05253 0.80174 0.54138 0.0
C296 C 0.06678 0.78354 0.55854 0.0
H297 H 0.89717 0.80915 0.60663 0.0
H298 H 0.94173 0.80403 0.60964 0.0
C299 C 0.09241 0.78438 0.55604 0.0
C300 C 0.0254 0.80107 0.54444 0.0
H301 H 0.97596 0.83296 0.57753 0.0
C302 C 0.01276 0.78207 0.52638 0.0
C303 C 0.012 0.81925 0.56432 0.0
C304 C 0.02457 0.83934 0.58666 0.0
C305 C 0.98698 0.78118 0.52638 0.0
C306 C 0.97357 0.80005 0.54419 0.0
C307 C 0.98626 0.81863 0.5635 0.0
C308 C 0.9464 0.80125 0.54237 0.0
C309 C 0.9744 0.76001 0.50755 0.0
C310 C 0.93424 0.80137 0.50355 0.0
C311 C 0.90876 0.80414 0.50173 0.0
C312 C 0.89502 0.8072 0.5387 0.0
C313 C 0.90723 0.80688 0.57757 0.0
C314 C 0.93269 0.80394 0.57936 0.0
H315 H 0.98665 0.74436 0.5075 0.0
H316 H 0.95733 0.75554 0.52491 0.0
H317 H 0.96946 0.76393 0.4745 0.0
H318 H 0.94451 0.79992 0.47454 0.0
H319 H 0.89994 0.80447 0.47128 0.0
H320 H 0.21307 0.10173 0.57678 0.0
H321 H 0.2198 0.05908 0.57389 0.0
H322 H 0.15151 0.05059 0.50698 0.0
H323 H 0.14489 0.093 0.50898 0.0
H324 H 0.19126 0.02437 0.60718 0.0
H325 H 0.19822 0.01231 0.43546 0.0
H326 H 0.20045 0.04088 0.46002 0.0
H327 H 0.17084 0.02795 0.44972 0.0
C328 C 0.19963 0.09079 0.56108 0.0
C329 C 0.17849 0.10076 0.54297 0.0
C330 C 0.2035 0.06644 0.55946 0.0
C331 C 0.18638 0.05173 0.53953 0.0
C332 C 0.16529 0.06167 0.52152 0.0
H333 H 0.14516 0.90934 0.57944 0.0
H334 H 0.15222 0.95173 0.58057 0.0
C335 C 0.16145 0.08593 0.52299 0.0
C336 C 0.18959 0.02583 0.53967 0.0
H337 H 0.18812 0.97767 0.47576 0.0
C338 C 0.19098 0.01415 0.57843 0.0
C339 C 0.18967 0.01253 0.50214 0.0
C340 C 0.18999 0.02409 0.45949 0.0
C341 C 0.19104 0.98948 0.58072 0.0
C342 C 0.18916 0.97621 0.54331 0.0
C343 C 0.1892 0.98787 0.50447 0.0
C344 C 0.18564 0.95034 0.54381 0.0
C345 C 0.19288 0.9779 0.62323 0.0
C346 C 0.20175 0.93551 0.52181 0.0
C347 C 0.19761 0.91121 0.52069 0.0
C348 C 0.17721 0.90136 0.5414 0.0
C349 C 0.16114 0.91631 0.56338 0.0
C350 C 0.16525 0.94055 0.56436 0.0
H351 H 0.20221 0.98956 0.64624 0.0
H352 H 0.17412 0.97426 0.63523 0.0
H353 H 0.20306 0.96099 0.62145 0.0
H354 H 0.21748 0.94275 0.50543 0.0
H355 H 0.21032 0.90017 0.50343 0.0
H356 H 0.90415 0.14215 0.58553 0.0
H357 H 0.94842 0.14947 0.58682 0.0
H358 H 0.93855 0.21066 0.50846 0.0
H359 H 0.89418 0.20352 0.5069 0.0
H360 H 0.98004 0.15339 0.51172 0.0
H361 H 0.97999 0.23352 0.61244 0.0
H362 H 0.95464 0.21297 0.61171 0.0
H363 H 0.95901 0.233 0.56881 0.0
C364 C 0.91134 0.15724 0.56871 0.0
C365 C 0.89565 0.17228 0.54617 0.0
C366 C 0.93663 0.16136 0.56947 0.0
C367 C 0.94662 0.18071 0.54809 0.0
C368 C 0.93107 0.1958 0.52559 0.0
H369 H 0.09896 0.22857 0.53025 0.0
H370 H 0.05412 0.22576 0.52514 0.0
C371 C 0.90577 0.19163 0.52459 0.0
C372 C 0.97345 0.18457 0.54837 0.0
H373 H 0.01831 0.22063 0.58661 0.0
C374 C 0.98846 0.16809 0.528 0.0
C375 C 0.98421 0.20391 0.5693 0.0
C376 C 0.96874 0.22186 0.5921 0.0
C377 C 0.0141 0.17037 0.52819 0.0
C378 C 0.02497 0.18931 0.55028 0.0
C379 C 0.00991 0.20609 0.56988 0.0
C380 C 0.05195 0.19146 0.55457 0.0
C381 C 0.02928 0.1526 0.50436 0.0
C382 C 0.06544 0.17339 0.57374 0.0
C383 C 0.09096 0.17487 0.57651 0.0
C384 C 0.10349 0.19463 0.56062 0.0
C385 C 0.08986 0.21311 0.5427 0.0
C386 C 0.06427 0.21153 0.53973 0.0
H387 H 0.01836 0.14385 0.47936 0.0
H388 H 0.04562 0.16098 0.48977 0.0
H389 H 0.03571 0.13876 0.52635 0.0
H390 H 0.05622 0.15803 0.58638 0.0
H391 H 0.10087 0.16043 0.59089 0.0
H392 H 0.16337 0.19462 0.40485 0.0
H393 H 0.1811 0.21551 0.34483 0.0
H394 H 0.24256 0.23701 0.42103 0.0
H395 H 0.22509 0.21611 0.48122 0.0
H396 H 0.19435 0.26495 0.33966 0.0
H397 H 0.2739 0.20487 0.31659 0.0
H398 H 0.24718 0.1966 0.34684 0.0
H399 H 0.2698 0.21597 0.36896 0.0
C400 C 0.18068 0.20375 0.40887 0.0
C401 C 0.19289 0.20361 0.44775 0.0
C402 C 0.19074 0.2157 0.37457 0.0
C403 C 0.21323 0.22753 0.37848 0.0
C404 C 0.22534 0.22766 0.4173 0.0
H405 H 0.30647 0.30236 0.20225 0.0
H406 H 0.28815 0.28455 0.26476 0.0
C407 C 0.21528 0.21579 0.45166 0.0
C408 C 0.22395 0.23987 0.34196 0.0
H409 H 0.27266 0.23913 0.27455 0.0
C410 C 0.21145 0.25933 0.3253 0.0
C411 C 0.24628 0.23247 0.32356 0.0
C412 C 0.26005 0.21123 0.33958 0.0
C413 C 0.22088 0.27185 0.29088 0.0
C414 C 0.24311 0.26432 0.27217 0.0
C415 C 0.25564 0.24488 0.289 0.0
C416 C 0.25361 0.2761 0.23475 0.0
C417 C 0.20721 0.29329 0.27544 0.0
C418 C 0.24028 0.27717 0.19712 0.0
C419 C 0.25063 0.28746 0.1614 0.0
C420 C 0.27464 0.29659 0.16255 0.0
C421 C 0.28794 0.29549 0.20032 0.0
C422 C 0.27752 0.28532 0.23606 0.0
H423 H 0.19488 0.30056 0.30003 0.0
H424 H 0.22013 0.30732 0.26528 0.0
H425 H 0.19568 0.28829 0.24816 0.0
H426 H 0.22203 0.26966 0.19513 0.0
H427 H 0.23997 0.28786 0.13273 0.0
H428 H 0.66533 0.31175 0.18744 0.0
H429 H 0.68204 0.29033 0.24771 0.0
H430 H 0.74543 0.27063 0.17453 0.0
H431 H 0.72897 0.29199 0.11414 0.0
H432 H 0.69539 0.24044 0.24877 0.0
H433 H 0.77376 0.30003 0.28442 0.0
H434 H 0.74769 0.30925 0.25343 0.0
H435 H 0.77096 0.29085 0.23064 0.0
C436 C 0.6829 0.303 0.18423 0.0
C437 C 0.69586 0.30361 0.14604 0.0
C438 C 0.69237 0.29075 0.21864 0.0
C439 C 0.71504 0.27914 0.21555 0.0
C440 C 0.72806 0.27977 0.17761 0.0
H441 H 0.80432 0.19855 0.38906 0.0
H442 H 0.78743 0.21868 0.32765 0.0
C443 C 0.71857 0.29191 0.14313 0.0
C444 C 0.72476 0.26578 0.25168 0.0
H445 H 0.77173 0.2643 0.32239 0.0
C446 C 0.71203 0.24565 0.26505 0.0
C447 C 0.74653 0.27262 0.27247 0.0
C448 C 0.7605 0.29447 0.25985 0.0
C449 C 0.72073 0.2319 0.29848 0.0
C450 C 0.7424 0.23886 0.3196 0.0
C451 C 0.75514 0.259 0.3061 0.0
C452 C 0.75208 0.2257 0.35614 0.0
C453 C 0.70693 0.2098 0.31021 0.0
C454 C 0.73781 0.22304 0.39252 0.0
C455 C 0.74734 0.21141 0.42755 0.0
C456 C 0.77144 0.20251 0.427 0.0
C457 C 0.78568 0.20519 0.39047 0.0
C458 C 0.77608 0.2167 0.35538 0.0
H459 H 0.69532 0.2034 0.28392 0.0
H460 H 0.71974 0.19551 0.31952 0.0
H461 H 0.69466 0.2136 0.33719 0.0
H462 H 0.71946 0.23034 0.39414 0.0
H463 H 0.73596 0.20981 0.4553 0.0
H464 H 0.79043 0.77682 0.47305 0.0
H465 H 0.77362 0.75762 0.4106 0.0
H466 H 0.75851 0.82552 0.35577 0.0
H467 H 0.77534 0.84491 0.41792 0.0
H468 H 0.72515 0.76318 0.37607 0.0
H469 H 0.79859 0.79011 0.26467 0.0
H470 H 0.80252 0.79113 0.32092 0.0
H471 H 0.78525 0.81368 0.29461 0.0
C472 C 0.78359 0.78768 0.44768 0.0
C473 C 0.78428 0.8124 0.45039 0.0
C474 C 0.77398 0.77668 0.41208 0.0
C475 C 0.76515 0.79018 0.37847 0.0
C476 C 0.76562 0.81482 0.38116 0.0
H477 H 0.6985 0.75968 0.13828 0.0
H478 H 0.71591 0.77807 0.20096 0.0
C479 C 0.77512 0.82585 0.4168 0.0
C480 C 0.75493 0.77849 0.34091 0.0
H481 H 0.76343 0.77171 0.23548 0.0
C482 C 0.73355 0.76491 0.34534 0.0
C483 C 0.76597 0.78088 0.30097 0.0
C484 C 0.78947 0.79457 0.29485 0.0
C485 C 0.7226 0.75399 0.31059 0.0
C486 C 0.73361 0.75642 0.2706 0.0
C487 C 0.75504 0.76994 0.26622 0.0
C488 C 0.7231 0.74515 0.23284 0.0
C489 C 0.69902 0.74042 0.31674 0.0
C490 C 0.7217 0.72054 0.22989 0.0
C491 C 0.71177 0.70996 0.19415 0.0
C492 C 0.70317 0.72384 0.16066 0.0
C493 C 0.70487 0.74849 0.16357 0.0
C494 C 0.71484 0.75904 0.19931 0.0
H495 H 0.68991 0.74498 0.34687 0.0
H496 H 0.68599 0.74385 0.29065 0.0
H497 H 0.70315 0.72129 0.31715 0.0
H498 H 0.72841 0.70951 0.25515 0.0
H499 H 0.71083 0.69093 0.19282 0.0
H500 H 0.20114 0.74383 0.45003 0.0
H501 H 0.21774 0.7245 0.38767 0.0
H502 H 0.22437 0.79183 0.32599 0.0
H503 H 0.20801 0.81141 0.38843 0.0
H504 H 0.19941 0.72541 0.30465 0.0
H505 H 0.29352 0.76297 0.31516 0.0
H506 H 0.27213 0.76375 0.35847 0.0
H507 H 0.2691 0.78424 0.3158 0.0
C508 C 0.20617 0.75457 0.42327 0.0
C509 C 0.20339 0.77918 0.42427 0.0
C510 C 0.21561 0.74347 0.38767 0.0
C511 C 0.22257 0.75678 0.35255 0.0
C512 C 0.21951 0.78131 0.35313 0.0
H513 H 0.2852 0.72059 0.11108 0.0
H514 H 0.26709 0.74058 0.17152 0.0
C515 C 0.21005 0.79244 0.38874 0.0
C516 C 0.23278 0.74488 0.31517 0.0
H517 H 0.28432 0.74051 0.25463 0.0
C518 C 0.21798 0.72864 0.29371 0.0
C519 C 0.25701 0.74921 0.3011 0.0
C520 C 0.27399 0.76583 0.32396 0.0
C521 C 0.22669 0.71677 0.25808 0.0
C522 C 0.25095 0.72102 0.24413 0.0
C523 C 0.26571 0.73734 0.26549 0.0
C524 C 0.26145 0.70869 0.20742 0.0
C525 C 0.20972 0.70013 0.23524 0.0
C526 C 0.26447 0.68415 0.20784 0.0
C527 C 0.27481 0.67264 0.17335 0.0
C528 C 0.28242 0.68552 0.13795 0.0
C529 C 0.27949 0.71014 0.1378 0.0
C530 C 0.26916 0.72161 0.17229 0.0
H531 H 0.19016 0.70331 0.24345 0.0
H532 H 0.21192 0.70186 0.20072 0.0
H533 H 0.2143 0.68175 0.2441 0.0
H534 H 0.25905 0.67394 0.23504 0.0
H535 H 0.27692 0.65369 0.17454 0.0
H536 H 0.17381 0.80817 0.68534 0.0
H537 H 0.19513 0.78609 0.74039 0.0
H538 H 0.25104 0.76569 0.65165 0.0
H539 H 0.23 0.78772 0.59647 0.0
H540 H 0.20743 0.73632 0.7385 0.0
H541 H 0.28952 0.79413 0.75237 0.0
H542 H 0.26128 0.80382 0.72817 0.0
H543 H 0.28189 0.78483 0.70006 0.0
C544 C 0.19071 0.7991 0.67757 0.0
C545 C 0.20026 0.79978 0.63658 0.0
C546 C 0.20282 0.78647 0.70902 0.0
C547 C 0.22475 0.77453 0.70008 0.0
C548 C 0.23431 0.77512 0.65925 0.0
H549 H 0.32548 0.69137 0.85137 0.0
H550 H 0.30452 0.71167 0.79381 0.0
C551 C 0.2222 0.78764 0.62776 0.0
C552 C 0.23735 0.76094 0.73323 0.0
H553 H 0.29012 0.75847 0.79076 0.0
C554 C 0.22548 0.74116 0.75008 0.0
C555 C 0.26094 0.76728 0.74789 0.0
C556 C 0.27416 0.78877 0.73151 0.0
C557 C 0.23672 0.72733 0.78109 0.0
C558 C 0.2602 0.73382 0.79616 0.0
C559 C 0.27213 0.75353 0.77906 0.0
C560 C 0.27245 0.72081 0.83051 0.0
C561 C 0.22353 0.70568 0.79689 0.0
C562 C 0.26141 0.71939 0.8702 0.0
C563 C 0.27326 0.70777 0.90304 0.0
C564 C 0.29651 0.69753 0.89691 0.0
C565 C 0.30757 0.69902 0.85709 0.0
C566 C 0.29564 0.71062 0.8242 0.0
H567 H 0.2095 0.69946 0.77414 0.0
H568 H 0.23664 0.6911 0.80307 0.0
H569 H 0.21398 0.70997 0.82669 0.0
H570 H 0.24377 0.72761 0.87598 0.0
H571 H 0.26429 0.70709 0.93337 0.0
H572 H 0.29234 0.33641 0.90998 0.0
H573 H 0.27645 0.31465 0.84968 0.0
H574 H 0.27461 0.251 0.92352 0.0
H575 H 0.29086 0.27251 0.98389 0.0
H576 H 0.29612 0.24484 0.84566 0.0
H577 H 0.20656 0.29072 0.83108 0.0
H578 H 0.23252 0.31023 0.83131 0.0
H579 H 0.2256 0.29306 0.87726 0.0
C580 C 0.28841 0.31781 0.91352 0.0
C581 C 0.2928 0.3062 0.95177 0.0
C582 C 0.27921 0.30544 0.87907 0.0
C583 C 0.27403 0.28131 0.88235 0.0
C584 C 0.27839 0.26965 0.92045 0.0
H585 H 0.19187 0.19951 0.69991 0.0
H586 H 0.20675 0.21883 0.76352 0.0
C587 C 0.28765 0.28199 0.9549 0.0
C588 C 0.26483 0.26804 0.84562 0.0
H589 H 0.2181 0.26574 0.77442 0.0
C590 C 0.279 0.2493 0.83018 0.0
C591 C 0.24235 0.27375 0.82587 0.0
C592 C 0.22573 0.29288 0.84242 0.0
C593 C 0.27153 0.23639 0.7949 0.0
C594 C 0.24952 0.24269 0.77419 0.0
C595 C 0.2351 0.26111 0.79015 0.0
C596 C 0.24104 0.23037 0.73593 0.0
C597 C 0.2871 0.21596 0.78047 0.0
C598 C 0.25536 0.23057 0.69929 0.0
C599 C 0.24696 0.21948 0.6629 0.0
C600 C 0.22398 0.20816 0.66243 0.0
C601 C 0.20967 0.20803 0.69921 0.0
C602 C 0.21812 0.21908 0.73559 0.0
H603 H 0.29938 0.20952 0.80583 0.0
H604 H 0.27547 0.2011 0.76959 0.0
H605 H 0.29881 0.22172 0.75385 0.0
H606 H 0.27287 0.23962 0.69866 0.0
H607 H 0.25835 0.22003 0.63504 0.0
H608 H 0.73366 0.29585 0.93219 0.0
H609 H 0.75294 0.27434 0.87451 0.0
H610 H 0.68501 0.27656 0.80511 0.0
H611 H 0.66543 0.29795 0.86278 0.0
H612 H 0.70724 0.23146 0.80911 0.0
H613 H 0.7731 0.30067 0.75868 0.0
H614 H 0.77397 0.29383 0.81372 0.0
H615 H 0.74685 0.30688 0.79155 0.0
C616 C 0.72283 0.29191 0.90457 0.0
C617 C 0.69801 0.29867 0.90202 0.0
C618 C 0.73392 0.27971 0.87159 0.0
C619 C 0.72045 0.27414 0.83544 0.0
C620 C 0.69571 0.28082 0.83274 0.0
H621 H 0.77781 0.22338 0.5989 0.0
H622 H 0.75765 0.24538 0.65501 0.0
C623 C 0.68459 0.29308 0.86567 0.0
C624 C 0.732 0.26069 0.80098 0.0
H625 H 0.77821 0.26272 0.72867 0.0
C626 C 0.72271 0.23828 0.79138 0.0
C627 C 0.752 0.2698 0.77776 0.0
C628 C 0.76198 0.2942 0.78558 0.0
C629 C 0.73315 0.22454 0.75945 0.0
C630 C 0.75361 0.23337 0.73704 0.0
C631 C 0.76266 0.25593 0.74623 0.0
C632 C 0.76562 0.2197 0.70328 0.0
C633 C 0.72198 0.20087 0.74954 0.0
C634 C 0.77696 0.19805 0.71198 0.0
C635 C 0.78847 0.18537 0.67995 0.0
C636 C 0.78898 0.19424 0.63875 0.0
C637 C 0.77775 0.21603 0.63028 0.0
C638 C 0.76622 0.22866 0.66229 0.0
H639 H 0.703 0.19928 0.76211 0.0
H640 H 0.72151 0.19777 0.71515 0.0
H641 H 0.7333 0.18682 0.76408 0.0
H642 H 0.7771 0.19107 0.74363 0.0
H643 H 0.79708 0.16871 0.68754 0.0
H644 H 0.74721 0.66841 0.94938 0.0
H645 H 0.7635 0.68747 0.8863 0.0
H646 H 0.711 0.74376 0.90028 0.0
H647 H 0.69453 0.72488 0.96337 0.0
H648 H 0.73495 0.70055 0.81114 0.0
H649 H 0.77995 0.77655 0.89009 0.0
H650 H 0.77198 0.7498 0.91767 0.0
H651 H 0.74855 0.77073 0.90441 0.0
C652 C 0.73917 0.68489 0.93915 0.0
C653 C 0.71963 0.69518 0.96145 0.0
C654 C 0.74848 0.69571 0.9031 0.0
C655 C 0.73858 0.71709 0.88903 0.0
C656 C 0.71905 0.72739 0.91106 0.0
H657 H 0.77523 0.81052 0.68216 0.0
H658 H 0.75716 0.79214 0.74444 0.0
C659 C 0.70963 0.71653 0.94697 0.0
C660 C 0.7484 0.72838 0.85075 0.0
H661 H 0.78009 0.77643 0.81599 0.0
C662 C 0.74487 0.71711 0.81208 0.0
C663 C 0.76115 0.75003 0.8523 0.0
C664 C 0.76586 0.7625 0.89331 0.0
C665 C 0.75358 0.7271 0.77464 0.0
C666 C 0.76668 0.74861 0.77619 0.0
C667 C 0.77005 0.75994 0.81491 0.0
C668 C 0.77736 0.75952 0.73809 0.0
C669 C 0.74826 0.71474 0.73372 0.0
C670 C 0.7949 0.74736 0.7142 0.0
C671 C 0.80516 0.75775 0.67852 0.0
C672 C 0.79826 0.78061 0.66634 0.0
C673 C 0.78089 0.79287 0.69064 0.0
C674 C 0.77056 0.78241 0.72624 0.0
H675 H 0.73233 0.7026 0.73658 0.0
H676 H 0.74442 0.72759 0.70828 0.0
H677 H 0.7645 0.70413 0.72449 0.0
H678 H 0.80085 0.7299 0.72337 0.0
H679 H 0.81863 0.7479 0.6607 0.0
loop_
_geom_bond_atom_site_label_1
_geom_bond_atom_site_label_2
_geom_bond_distance
_geom_bond_site_symmetry_2
_ccdc_geom_bond_type
C0 O1 1.160 . S
C0 O7 1.185 . S
O1 C0 1.160 . S
O2 Zn3 1.899 . S
O2 C10 1.284 . S
Zn3 O2 1.899 . S
Zn3 O4 2.032 . S
Zn3 O7 2.086 . S
Zn3 O12 1.977 . S
O4 Zn3 2.032 . S
O4 C8 1.278 1_554 S
C5 O6 1.203 . S
C5 O12 1.267 . S
O6 C5 1.203 . S
O7 C0 1.185 . S
O7 Zn3 2.086 . S
C8 O4 1.278 1_556 S
C8 O9 1.211 . S
O9 C8 1.211 . S
C10 O2 1.284 . S
C10 O11 1.273 . S
O11 C10 1.273 . S
O12 Zn3 1.977 . S
O12 C5 1.267 . S
C13 O14 1.160 . S
C13 O20 1.185 . S
O14 C13 1.160 . S
O15 Zn16 1.899 . S
O15 C23 1.284 . S
Zn16 O15 1.899 . S
Zn16 O17 2.032 . S
Zn16 O20 2.086 1_554 S
Zn16 O25 1.977 . S
O17 Zn16 2.032 . S
O17 C21 1.278 . S
C18 O19 1.203 . S
C18 O25 1.267 . S
O19 C18 1.203 . S
O20 C13 1.185 . S
O20 Zn16 2.086 1_556 S
C21 O17 1.278 . S
C21 O22 1.211 . S
O22 C21 1.211 . S
C23 O15 1.284 . S
C23 O24 1.273 . S
O24 C23 1.273 . S
O25 Zn16 1.977 . S
O25 C18 1.267 . S
C26 O27 1.160 . S
C26 O33 1.185 . S
O27 C26 1.160 . S
O28 Zn29 1.899 . S
O28 C36 1.284 . S
Zn29 O28 1.899 . S
Zn29 O30 2.032 . S
Zn29 O33 2.086 . S
Zn29 O38 1.977 . S
O30 Zn29 2.032 . S
O30 C34 1.278 1_554 S
C31 O32 1.203 . S
C31 O38 1.267 . S
O32 C31 1.203 . S
O33 C26 1.185 . S
O33 Zn29 2.086 . S
C34 O30 1.278 1_556 S
C34 O35 1.211 . S
O35 C34 1.211 . S
C36 O28 1.284 . S
C36 O37 1.273 . S
O37 C36 1.273 . S
O38 Zn29 1.977 . S
O38 C31 1.267 . S
C39 O40 1.160 . S
C39 O46 1.185 . S
O40 C39 1.160 . S
O41 Zn42 1.899 . S
O41 C49 1.284 . S
Zn42 O41 1.899 . S
Zn42 O43 2.032 . S
Zn42 O46 2.086 1_554 S
Zn42 O51 1.977 . S
O43 Zn42 2.032 . S
O43 C47 1.278 . S
C44 O45 1.203 . S
C44 O51 1.267 . S
O45 C44 1.203 . S
O46 C39 1.185 . S
O46 Zn42 2.086 1_556 S
C47 O43 1.278 . S
C47 O48 1.211 . S
O48 C47 1.211 . S
C49 O41 1.284 . S
C49 O50 1.273 . S
O50 C49 1.273 . S
O51 Zn42 1.977 . S
O51 C44 1.267 . S
C52 O53 1.160 . S
C52 O59 1.185 . S
O53 C52 1.160 . S
O54 Zn55 1.899 . S
O54 C62 1.284 . S
Zn55 O54 1.899 . S
Zn55 O56 2.032 . S
Zn55 O59 2.086 . S
Zn55 O64 1.977 . S
O56 Zn55 2.032 . S
O56 C60 1.278 . S
C57 O58 1.203 . S
C57 O64 1.267 . S
O58 C57 1.203 . S
O59 C52 1.185 . S
O59 Zn55 2.086 . S
C60 O56 1.278 . S
C60 O61 1.211 . S
O61 C60 1.211 . S
C62 O54 1.284 . S
C62 O63 1.273 . S
O63 C62 1.273 . S
O64 Zn55 1.977 . S
O64 C57 1.267 . S
C65 O66 1.160 . S
C65 O72 1.185 . S
O66 C65 1.160 . S
O67 Zn68 1.899 . S
O67 C75 1.284 . S
Zn68 O67 1.899 . S
Zn68 O69 2.032 . S
Zn68 O72 2.086 . S
Zn68 O77 1.977 . S
O69 Zn68 2.032 . S
O69 C73 1.278 . S
C70 O71 1.203 . S
C70 O77 1.267 . S
O71 C70 1.203 . S
O72 C65 1.185 . S
O72 Zn68 2.086 . S
C73 O69 1.278 . S
C73 O74 1.211 . S
O74 C73 1.211 . S
C75 O67 1.284 . S
C75 O76 1.273 . S
O76 C75 1.273 . S
O77 Zn68 1.977 . S
O77 C70 1.267 . S
C78 O79 1.160 . S
C78 O85 1.185 . S
O79 C78 1.160 . S
O80 Zn81 1.899 . S
O80 C88 1.284 . S
Zn81 O80 1.899 . S
Zn81 O82 2.032 . S
Zn81 O85 2.086 . S
Zn81 O90 1.977 . S
O82 Zn81 2.032 . S
O82 C86 1.278 . S
C83 O84 1.203 . S
C83 O90 1.267 . S
O84 C83 1.203 . S
O85 C78 1.185 . S
O85 Zn81 2.086 . S
C86 O82 1.278 . S
C86 O87 1.211 . S
O87 C86 1.211 . S
C88 O80 1.284 . S
C88 O89 1.273 . S
O89 C88 1.273 . S
O90 Zn81 1.977 . S
O90 C83 1.267 . S
C91 O92 1.160 . S
C91 O98 1.185 . S
O92 C91 1.160 . S
O93 Zn94 1.899 . S
O93 C101 1.284 . S
Zn94 O93 1.899 . S
Zn94 O95 2.032 . S
Zn94 O98 2.086 . S
Zn94 O103 1.977 . S
O95 Zn94 2.032 . S
O95 C99 1.278 . S
C96 O97 1.203 . S
C96 O103 1.267 . S
O97 C96 1.203 . S
O98 C91 1.185 . S
O98 Zn94 2.086 . S
C99 O95 1.278 . S
C99 O100 1.211 . S
O100 C99 1.211 . S
C101 O93 1.284 . S
C101 O102 1.273 . S
O102 C101 1.273 . S
O103 Zn94 1.977 . S
O103 C96 1.267 . S
H104 C112 0.929 . S
H105 C114 0.930 . S
H106 C116 0.930 . S
H107 C119 0.929 . S
H108 C122 0.930 1_556 S
H109 C124 0.960 . S
H110 C124 0.960 . S
H111 C124 0.960 . S
C112 H104 0.929 . S
C112 C113 1.377 . S
C112 C114 1.384 . S
C113 C112 1.377 . S
C113 C119 1.390 . S
C114 H105 0.930 . S
C114 C112 1.384 . S
C114 C115 1.372 . S
C115 C114 1.372 . S
C115 C116 1.400 . S
C115 C120 1.490 . S
C116 H106 0.930 . S
C116 C115 1.400 . S
C116 C119 1.386 . S
H117 C133 0.930 . S
H118 C134 0.931 . S
C119 H107 0.929 . S
C119 C113 1.390 . S
C119 C116 1.386 . S
C120 C115 1.490 . S
C120 C122 1.395 . S
C120 C123 1.403 . S
H121 C127 0.930 . S
C122 H108 0.930 1_554 S
C122 C120 1.395 . S
C122 C125 1.403 1_554 S
C123 C120 1.403 . S
C123 C124 1.524 . S
C123 C127 1.400 . S
C124 H109 0.960 . S
C124 H110 0.960 . S
C124 H111 0.960 . S
C124 C123 1.524 . S
C125 C122 1.403 1_556 S
C125 C126 1.392 1_556 S
C125 C129 1.495 . S
C126 C125 1.392 1_554 S
C126 C127 1.385 . S
C126 C128 1.478 . S
C127 H121 0.930 . S
C127 C123 1.400 . S
C127 C126 1.385 . S
C128 C126 1.478 . S
C128 C130 1.381 . S
C128 C134 1.383 . S
C129 C125 1.495 . S
C129 H135 0.959 . S
C129 H136 0.961 . S
C129 H137 0.960 . S
C130 C128 1.381 . S
C130 C131 1.394 . S
C130 H138 0.930 . S
C131 C130 1.394 . S
C131 C132 1.383 . S
C131 H139 0.929 . S
C132 C131 1.383 . S
C132 C133 1.377 . S
C133 H117 0.930 . S
C133 C132 1.377 . S
C133 C134 1.379 . S
C134 H118 0.931 . S
C134 C128 1.383 . S
C134 C133 1.379 . S
H135 C129 0.959 . S
H136 C129 0.961 . S
H137 C129 0.960 . S
H138 C130 0.930 . S
H139 C131 0.929 . S
H140 C148 0.929 . S
H141 C150 0.930 . S
H142 C152 0.930 . S
H143 C155 0.929 . S
H144 C158 0.930 . S
H145 C160 0.960 . S
H146 C160 0.960 . S
H147 C160 0.960 . S
C148 H140 0.929 . S
C148 C149 1.377 . S
C148 C150 1.384 . S
C149 C148 1.377 . S
C149 C155 1.390 . S
C150 H141 0.930 . S
C150 C148 1.384 . S
C150 C151 1.372 . S
C151 C150 1.372 . S
C151 C152 1.400 . S
C151 C156 1.490 . S
C152 H142 0.930 . S
C152 C151 1.400 . S
C152 C155 1.386 . S
H153 C169 0.930 1_556 S
H154 C170 0.931 1_556 S
C155 H143 0.929 . S
C155 C149 1.390 . S
C155 C152 1.386 . S
C156 C151 1.490 . S
C156 C158 1.395 . S
C156 C159 1.403 . S
H157 C163 0.930 . S
C158 H144 0.930 . S
C158 C156 1.395 . S
C158 C161 1.403 . S
C159 C156 1.403 . S
C159 C160 1.524 . S
C159 C163 1.400 . S
C160 H145 0.960 . S
C160 H146 0.960 . S
C160 H147 0.960 . S
C160 C159 1.524 . S
C161 C158 1.403 . S
C161 C162 1.392 . S
C161 C165 1.495 . S
C162 C161 1.392 . S
C162 C163 1.385 . S
C162 C164 1.478 . S
C163 H157 0.930 . S
C163 C159 1.400 . S
C163 C162 1.385 . S
C164 C162 1.478 . S
C164 C166 1.381 . S
C164 C170 1.383 . S
C165 C161 1.495 . S
C165 H171 0.959 . S
C165 H172 0.961 1_554 S
C165 H173 0.960 . S
C166 C164 1.381 . S
C166 C167 1.394 . S
C166 H174 0.930 . S
C167 C166 1.394 . S
C167 C168 1.383 . S
C167 H175 0.929 . S
C168 C167 1.383 . S
C168 C169 1.377 . S
C169 H153 0.930 1_554 S
C169 C168 1.377 . S
C169 C170 1.379 . S
C170 H154 0.931 1_554 S
C170 C164 1.383 . S
C170 C169 1.379 . S
H171 C165 0.959 . S
H172 C165 0.961 1_556 S
H173 C165 0.960 . S
H174 C166 0.930 . S
H175 C167 0.929 . S
H176 C184 0.944 . S
H177 C186 0.930 . S
H178 C188 0.930 . S
H179 C191 0.929 . S
H180 C194 0.930 1_556 S
H181 C196 0.960 . S
H182 C196 0.960 . S
H183 C196 0.960 . S
C184 H176 0.944 . S
C184 C185 1.377 . S
C184 C186 1.384 . S
C185 C184 1.377 . S
C185 C191 1.390 . S
C186 H177 0.930 . S
C186 C184 1.384 . S
C186 C187 1.372 . S
C187 C186 1.372 . S
C187 C188 1.400 . S
C187 C192 1.490 . S
C188 H178 0.930 . S
C188 C187 1.400 . S
C188 C191 1.386 . S
H189 C205 0.930 . S
H190 C206 0.931 . S
C191 H179 0.929 . S
C191 C185 1.390 . S
C191 C188 1.386 . S
C192 C187 1.490 . S
C192 C194 1.395 . S
C192 C195 1.403 . S
H193 C199 0.930 . S
C194 H180 0.930 1_554 S
C194 C192 1.395 . S
C194 C197 1.403 1_554 S
C195 C192 1.403 . S
C195 C196 1.524 . S
C195 C199 1.400 . S
C196 H181 0.960 . S
C196 H182 0.960 . S
C196 H183 0.960 . S
C196 C195 1.524 . S
C197 C194 1.403 1_556 S
C197 C198 1.392 1_556 S
C197 C201 1.495 . S
C198 C197 1.392 1_554 S
C198 C199 1.385 . S
C198 C200 1.478 . S
C199 H193 0.930 . S
C199 C195 1.400 . S
C199 C198 1.385 . S
C200 C198 1.478 . S
C200 C202 1.381 . S
C200 C206 1.383 . S
C201 C197 1.495 . S
C201 H207 0.959 . S
C201 H208 0.961 . S
C201 H209 0.960 . S
C202 C200 1.381 . S
C202 C203 1.394 . S
C202 H210 0.930 . S
C203 C202 1.394 . S
C203 C204 1.383 . S
C203 H211 0.929 . S
C204 C203 1.383 . S
C204 C205 1.377 . S
C205 H189 0.930 . S
C205 C204 1.377 . S
C205 C206 1.379 . S
C206 H190 0.931 . S
C206 C200 1.383 . S
C206 C205 1.379 . S
H207 C201 0.959 . S
H208 C201 0.961 . S
H209 C201 0.960 . S
H210 C202 0.930 . S
H211 C203 0.929 . S
H212 C220 0.933 . S
H213 C222 0.930 1_556 S
H214 C224 0.930 . S
H215 C227 0.929 . S
H216 C230 0.930 . S
H217 C232 0.960 . S
H218 C232 0.960 . S
H219 C232 0.960 . S
C220 H212 0.933 . S
C220 C221 1.374 1_556 S
C220 C222 1.384 1_556 S
C221 C220 1.374 1_554 S
C221 C227 1.390 . S
C222 H213 0.930 1_554 S
C222 C220 1.384 1_554 S
C222 C223 1.372 . S
C223 C222 1.372 . S
C223 C224 1.400 . S
C223 C228 1.490 . S
C224 H214 0.930 . S
C224 C223 1.400 . S
C224 C227 1.386 . S
H225 C241 0.930 . S
H226 C242 0.931 . S
C227 H215 0.929 . S
C227 C221 1.390 . S
C227 C224 1.386 . S
C228 C223 1.490 . S
C228 C230 1.395 . S
C228 C231 1.403 . S
H229 C235 0.930 . S
C230 H216 0.930 . S
C230 C228 1.395 . S
C230 C233 1.403 . S
C231 C228 1.403 . S
C231 C232 1.524 . S
C231 C235 1.400 . S
C232 H217 0.960 . S
C232 H218 0.960 . S
C232 H219 0.960 . S
C232 C231 1.524 . S
C233 C230 1.403 . S
C233 C234 1.392 . S
C233 C237 1.495 . S
C234 C233 1.392 . S
C234 C235 1.385 . S
C234 C236 1.478 . S
C235 H229 0.930 . S
C235 C231 1.400 . S
C235 C234 1.385 . S
C236 C234 1.478 . S
C236 C238 1.381 . S
C236 C242 1.383 . S
C237 C233 1.495 . S
C237 H243 0.959 . S
C237 H244 0.961 . S
C237 H245 0.960 . S
C238 C236 1.381 . S
C238 C239 1.394 . S
C238 H246 0.930 1_554 S
C239 C238 1.394 . S
C239 C240 1.383 . S
C239 H247 0.929 1_554 S
C240 C239 1.383 . S
C240 C241 1.377 . S
C241 H225 0.930 . S
C241 C240 1.377 . S
C241 C242 1.379 . S
C242 H226 0.931 . S
C242 C236 1.383 . S
C242 C241 1.379 . S
H243 C237 0.959 . S
H244 C237 0.961 . S
H245 C237 0.960 . S
H246 C238 0.930 1_556 S
H247 C239 0.929 1_556 S
H248 C256 0.929 . S
H249 C258 0.930 . S
H250 C260 0.930 . S
H251 C263 0.929 . S
H252 C266 0.930 . S
H253 C268 0.960 . S
H254 C268 0.960 . S
H255 C268 0.960 . S
C256 H248 0.929 . S
C256 C257 1.377 . S
C256 C258 1.384 . S
C257 C256 1.377 . S
C257 C263 1.390 . S
C258 H249 0.930 . S
C258 C256 1.384 . S
C258 C259 1.372 . S
C259 C258 1.372 . S
C259 C260 1.400 . S
C259 C264 1.490 . S
C260 H250 0.930 . S
C260 C259 1.400 . S
C260 C263 1.386 . S
H261 C277 0.930 . S
H262 C278 0.931 . S
C263 H251 0.929 . S
C263 C257 1.390 . S
C263 C260 1.386 . S
C264 C259 1.490 . S
C264 C266 1.395 . S
C264 C267 1.403 . S
H265 C271 0.930 . S
C266 H252 0.930 . S
C266 C264 1.395 . S
C266 C269 1.403 1_565 S
C267 C264 1.403 . S
C267 C268 1.524 . S
C267 C271 1.400 1_565 S
C268 H253 0.960 . S
C268 H254 0.960 . S
C268 H255 0.960 . S
C268 C267 1.524 . S
C269 C266 1.403 1_545 S
C269 C270 1.392 . S
C269 C273 1.495 . S
C270 C269 1.392 . S
C270 C271 1.385 . S
C270 C272 1.478 . S
C271 H265 0.930 . S
C271 C267 1.400 1_545 S
C271 C270 1.385 . S
C272 C270 1.478 . S
C272 C274 1.381 . S
C272 C278 1.383 . S
C273 C269 1.495 . S
C273 H279 0.959 . S
C273 H280 0.961 . S
C273 H281 0.960 . S
C274 C272 1.381 . S
C274 C275 1.394 . S
C274 H282 0.930 . S
C275 C274 1.394 . S
C275 C276 1.383 . S
C275 H283 0.929 . S
C276 C275 1.383 . S
C276 C277 1.377 . S
C277 H261 0.930 . S
C277 C276 1.377 . S
C277 C278 1.379 . S
C278 H262 0.931 . S
C278 C272 1.383 . S
C278 C277 1.379 . S
H279 C273 0.959 . S
H280 C273 0.961 . S
H281 C273 0.960 . S
H282 C274 0.930 . S
H283 C275 0.929 . S
H284 C292 0.929 . S
H285 C294 0.930 . S
H286 C296 0.930 . S
H287 C299 0.929 . S
H288 C302 0.930 . S
H289 C304 0.960 . S
H290 C304 0.960 . S
H291 C304 0.960 . S
C292 H284 0.929 . S
C292 C293 1.377 . S
C292 C294 1.384 . S
C293 C292 1.377 . S
C293 C299 1.390 . S
C294 H285 0.930 . S
C294 C292 1.384 . S
C294 C295 1.372 . S
C295 C294 1.372 . S
C295 C296 1.400 . S
C295 C300 1.490 . S
C296 H286 0.930 . S
C296 C295 1.400 . S
C296 C299 1.386 . S
H297 C313 0.930 . S
H298 C314 0.931 . S
C299 H287 0.929 . S
C299 C293 1.390 . S
C299 C296 1.386 . S
C300 C295 1.490 . S
C300 C302 1.395 . S
C300 C303 1.403 . S
H301 C307 0.930 . S
C302 H288 0.930 . S
C302 C300 1.395 . S
C302 C305 1.403 1_455 S
C303 C300 1.403 . S
C303 C304 1.524 . S
C303 C307 1.400 1_455 S
C304 H289 0.960 . S
C304 H290 0.960 . S
C304 H291 0.960 . S
C304 C303 1.524 . S
C305 C302 1.403 1_655 S
C305 C306 1.392 . S
C305 C309 1.495 . S
C306 C305 1.392 . S
C306 C307 1.385 . S
C306 C308 1.478 . S
C307 H301 0.930 . S
C307 C303 1.400 1_655 S
C307 C306 1.385 . S
C308 C306 1.478 . S
C308 C310 1.381 . S
C308 C314 1.383 . S
C309 C305 1.495 . S
C309 H315 0.959 . S
C309 H316 0.961 . S
C309 H317 0.960 . S
C310 C308 1.381 . S
C310 C311 1.394 . S
C310 H318 0.930 . S
C311 C310 1.394 . S
C311 C312 1.383 . S
C311 H319 0.929 . S
C312 C311 1.383 . S
C312 C313 1.377 . S
C313 H297 0.930 . S
C313 C312 1.377 . S
C313 C314 1.379 . S
C314 H298 0.931 . S
C314 C308 1.383 . S
C314 C313 1.379 . S
H315 C309 0.959 . S
H316 C309 0.961 . S
H317 C309 0.960 . S
H318 C310 0.930 . S
H319 C311 0.929 . S
H320 C328 0.929 . S
H321 C330 0.930 . S
H322 C332 0.930 . S
H323 C335 0.929 . S
H324 C338 0.930 . S
H325 C340 0.960 . S
H326 C340 0.960 . S
H327 C340 0.960 . S
C328 H320 0.929 . S
C328 C329 1.377 . S
C328 C330 1.384 . S
C329 C328 1.377 . S
C329 C335 1.390 . S
C330 H321 0.930 . S
C330 C328 1.384 . S
C330 C331 1.372 . S
C331 C330 1.372 . S
C331 C332 1.400 . S
C331 C336 1.490 . S
C332 H322 0.930 . S
C332 C331 1.400 . S
C332 C335 1.386 . S
H333 C349 0.930 . S
H334 C350 0.931 . S
C335 H323 0.929 . S
C335 C329 1.390 . S
C335 C332 1.386 . S
C336 C331 1.490 . S
C336 C338 1.395 . S
C336 C339 1.403 . S
H337 C343 0.930 . S
C338 H324 0.930 . S
C338 C336 1.395 . S
C338 C341 1.403 1_545 S
C339 C336 1.403 . S
C339 C340 1.524 . S
C339 C343 1.400 1_545 S
C340 H325 0.960 . S
C340 H326 0.960 . S
C340 H327 0.960 . S
C340 C339 1.524 . S
C341 C338 1.403 1_565 S
C341 C342 1.392 . S
C341 C345 1.495 . S
C342 C341 1.392 . S
C342 C343 1.385 . S
C342 C344 1.478 . S
C343 H337 0.930 . S
C343 C339 1.400 1_565 S
C343 C342 1.385 . S
C344 C342 1.478 . S
C344 C346 1.381 . S
C344 C350 1.383 . S
C345 C341 1.495 . S
C345 H351 0.959 . S
C345 H352 0.961 . S
C345 H353 0.960 . S
C346 C344 1.381 . S
C346 C347 1.394 . S
C346 H354 0.930 . S
C347 C346 1.394 . S
C347 C348 1.383 . S
C347 H355 0.929 . S
C348 C347 1.383 . S
C348 C349 1.377 . S
C349 H333 0.930 . S
C349 C348 1.377 . S
C349 C350 1.379 . S
C350 H334 0.931 . S
C350 C344 1.383 . S
C350 C349 1.379 . S
H351 C345 0.959 . S
H352 C345 0.961 . S
H353 C345 0.960 . S
H354 C346 0.930 . S
H355 C347 0.929 . S
H356 C364 0.929 . S
H357 C366 0.930 . S
H358 C368 0.930 . S
H359 C371 0.929 . S
H360 C374 0.930 . S
H361 C376 0.960 . S
H362 C376 0.960 . S
H363 C376 0.960 . S
C364 H356 0.929 . S
C364 C365 1.377 . S
C364 C366 1.384 . S
C365 C364 1.377 . S
C365 C371 1.390 . S
C366 H357 0.930 . S
C366 C364 1.384 . S
C366 C367 1.372 . S
C367 C366 1.372 . S
C367 C368 1.400 . S
C367 C372 1.490 . S
C368 H358 0.930 . S
C368 C367 1.400 . S
C368 C371 1.386 . S
H369 C385 0.930 . S
H370 C386 0.931 . S
C371 H359 0.929 . S
C371 C365 1.390 . S
C371 C368 1.386 . S
C372 C367 1.490 . S
C372 C374 1.395 . S
C372 C375 1.403 . S
H373 C379 0.930 . S
C374 H360 0.930 . S
C374 C372 1.395 . S
C374 C377 1.403 1_655 S
C375 C372 1.403 . S
C375 C376 1.524 . S
C375 C379 1.400 1_655 S
C376 H361 0.960 . S
C376 H362 0.960 . S
C376 H363 0.960 . S
C376 C375 1.524 . S
C377 C374 1.403 1_455 S
C377 C378 1.392 . S
C377 C381 1.495 . S
C378 C377 1.392 . S
C378 C379 1.385 . S
C378 C380 1.478 . S
C379 H373 0.930 . S
C379 C375 1.400 1_455 S
C379 C378 1.385 . S
C380 C378 1.478 . S
C380 C382 1.381 . S
C380 C386 1.383 . S
C381 C377 1.495 . S
C381 H387 0.959 . S
C381 H388 0.961 . S
C381 H389 0.960 . S
C382 C380 1.381 . S
C382 C383 1.394 . S
C382 H390 0.930 . S
C383 C382 1.394 . S
C383 C384 1.383 . S
C383 H391 0.929 . S
C384 C383 1.383 . S
C384 C385 1.377 . S
C385 H369 0.930 . S
C385 C384 1.377 . S
C385 C386 1.379 . S
C386 H370 0.931 . S
C386 C380 1.383 . S
C386 C385 1.379 . S
H387 C381 0.959 . S
H388 C381 0.961 . S
H389 C381 0.960 . S
H390 C382 0.930 . S
H391 C383 0.929 . S
H392 C400 0.929 . S
H393 C402 0.930 . S
H394 C404 0.930 . S
H395 C407 0.929 . S
H396 C410 0.930 . S
H397 C412 0.960 . S
H398 C412 0.960 . S
H399 C412 0.960 . S
C400 H392 0.929 . S
C400 C401 1.377 . S
C400 C402 1.384 . S
C401 C400 1.377 . S
C401 C407 1.390 . S
C402 H393 0.930 . S
C402 C400 1.384 . S
C402 C403 1.372 . S
C403 C402 1.372 . S
C403 C404 1.400 . S
C403 C408 1.490 . S
C404 H394 0.930 . S
C404 C403 1.400 . S
C404 C407 1.386 . S
H405 C421 0.930 . S
H406 C422 0.931 . S
C407 H395 0.929 . S
C407 C401 1.390 . S
C407 C404 1.386 . S
C408 C403 1.490 . S
C408 C410 1.395 . S
C408 C411 1.403 . S
H409 C415 0.930 . S
C410 H396 0.930 . S
C410 C408 1.395 . S
C410 C413 1.403 . S
C411 C408 1.403 . S
C411 C412 1.524 . S
C411 C415 1.400 . S
C412 H397 0.960 . S
C412 H398 0.960 . S
C412 H399 0.960 . S
C412 C411 1.524 . S
C413 C410 1.403 . S
C413 C414 1.392 . S
C413 C417 1.495 . S
C414 C413 1.392 . S
C414 C415 1.385 . S
C414 C416 1.478 . S
C415 H409 0.930 . S
C415 C411 1.400 . S
C415 C414 1.385 . S
C416 C414 1.478 . S
C416 C418 1.381 . S
C416 C422 1.383 . S
C417 C413 1.495 . S
C417 H423 0.959 . S
C417 H424 0.961 . S
C417 H425 0.960 . S
C418 C416 1.381 . S
C418 C419 1.394 . S
C418 H426 0.930 . S
C419 C418 1.394 . S
C419 C420 1.383 . S
C419 H427 0.929 . S
C420 C419 1.383 . S
C420 C421 1.377 . S
C421 H405 0.930 . S
C421 C420 1.377 . S
C421 C422 1.379 . S
C422 H406 0.931 . S
C422 C416 1.383 . S
C422 C421 1.379 . S
H423 C417 0.959 . S
H424 C417 0.961 . S
H425 C417 0.960 . S
H426 C418 0.930 . S
H427 C419 0.929 . S
H428 C436 0.929 . S
H429 C438 0.930 . S
H430 C440 0.930 . S
H431 C443 0.929 . S
H432 C446 0.930 . S
H433 C448 0.960 . S
H434 C448 0.960 . S
H435 C448 0.960 . S
C436 H428 0.929 . S
C436 C437 1.377 . S
C436 C438 1.384 . S
C437 C436 1.377 . S
C437 C443 1.390 . S
C438 H429 0.930 . S
C438 C436 1.384 . S
C438 C439 1.372 . S
C439 C438 1.372 . S
C439 C440 1.400 . S
C439 C444 1.490 . S
C440 H430 0.930 . S
C440 C439 1.400 . S
C440 C443 1.386 . S
H441 C457 0.930 . S
H442 C458 0.931 . S
C443 H431 0.929 . S
C443 C437 1.390 . S
C443 C440 1.386 . S
C444 C439 1.490 . S
C444 C446 1.395 . S
C444 C447 1.403 . S
H445 C451 0.930 . S
C446 H432 0.930 . S
C446 C444 1.395 . S
C446 C449 1.403 . S
C447 C444 1.403 . S
C447 C448 1.524 . S
C447 C451 1.400 . S
C448 H433 0.960 . S
C448 H434 0.960 . S
C448 H435 0.960 . S
C448 C447 1.524 . S
C449 C446 1.403 . S
C449 C450 1.392 . S
C449 C453 1.495 . S
C450 C449 1.392 . S
C450 C451 1.385 . S
C450 C452 1.478 . S
C451 H445 0.930 . S
C451 C447 1.400 . S
C451 C450 1.385 . S
C452 C450 1.478 . S
C452 C454 1.381 . S
C452 C458 1.383 . S
C453 C449 1.495 . S
C453 H459 0.959 . S
C453 H460 0.961 . S
C453 H461 0.960 . S
C454 C452 1.381 . S
C454 C455 1.394 . S
C454 H462 0.930 . S
C455 C454 1.394 . S
C455 C456 1.383 . S
C455 H463 0.929 . S
C456 C455 1.383 . S
C456 C457 1.377 . S
C457 H441 0.930 . S
C457 C456 1.377 . S
C457 C458 1.379 . S
C458 H442 0.931 . S
C458 C452 1.383 . S
C458 C457 1.379 . S
H459 C453 0.959 . S
H460 C453 0.961 . S
H461 C453 0.960 . S
H462 C454 0.930 . S
H463 C455 0.929 . S
H464 C472 0.929 . S
H465 C474 0.930 . S
H466 C476 0.930 . S
H467 C479 0.929 . S
H468 C482 0.930 . S
H469 C484 0.960 . S
H470 C484 0.960 . S
H471 C484 0.960 . S
C472 H464 0.929 . S
C472 C473 1.377 . S
C472 C474 1.384 . S
C473 C472 1.377 . S
C473 C479 1.390 . S
C474 H465 0.930 . S
C474 C472 1.384 . S
C474 C475 1.372 . S
C475 C474 1.372 . S
C475 C476 1.400 . S
C475 C480 1.490 . S
C476 H466 0.930 . S
C476 C475 1.400 . S
C476 C479 1.386 . S
H477 C493 0.930 . S
H478 C494 0.931 . S
C479 H467 0.929 . S
C479 C473 1.390 . S
C479 C476 1.386 . S
C480 C475 1.490 . S
C480 C482 1.395 . S
C480 C483 1.403 . S
H481 C487 0.930 . S
C482 H468 0.930 . S
C482 C480 1.395 . S
C482 C485 1.403 . S
C483 C480 1.403 . S
C483 C484 1.524 . S
C483 C487 1.400 . S
C484 H469 0.960 . S
C484 H470 0.960 . S
C484 H471 0.960 . S
C484 C483 1.524 . S
C485 C482 1.403 . S
C485 C486 1.392 . S
C485 C489 1.495 . S
C486 C485 1.392 . S
C486 C487 1.385 . S
C486 C488 1.478 . S
C487 H481 0.930 . S
C487 C483 1.400 . S
C487 C486 1.385 . S
C488 C486 1.478 . S
C488 C490 1.381 . S
C488 C494 1.383 . S
C489 C485 1.495 . S
C489 H495 0.959 . S
C489 H496 0.961 . S
C489 H497 0.960 . S
C490 C488 1.381 . S
C490 C491 1.394 . S
C490 H498 0.930 . S
C491 C490 1.394 . S
C491 C492 1.383 . S
C491 H499 0.929 . S
C492 C491 1.383 . S
C492 C493 1.377 . S
C493 H477 0.930 . S
C493 C492 1.377 . S
C493 C494 1.379 . S
C494 H478 0.931 . S
C494 C488 1.383 . S
C494 C493 1.379 . S
H495 C489 0.959 . S
H496 C489 0.961 . S
H497 C489 0.960 . S
H498 C490 0.930 . S
H499 C491 0.929 . S
H500 C508 0.929 . S
H501 C510 0.930 . S
H502 C512 0.930 . S
H503 C515 0.929 . S
H504 C518 0.930 . S
H505 C520 0.960 . S
H506 C520 0.960 . S
H507 C520 0.960 . S
C508 H500 0.929 . S
C508 C509 1.377 . S
C508 C510 1.384 . S
C509 C508 1.377 . S
C509 C515 1.390 . S
C510 H501 0.930 . S
C510 C508 1.384 . S
C510 C511 1.372 . S
C511 C510 1.372 . S
C511 C512 1.400 . S
C511 C516 1.490 . S
C512 H502 0.930 . S
C512 C511 1.400 . S
C512 C515 1.386 . S
H513 C529 0.930 . S
H514 C530 0.931 . S
C515 H503 0.929 . S
C515 C509 1.390 . S
C515 C512 1.386 . S
C516 C511 1.490 . S
C516 C518 1.395 . S
C516 C519 1.403 . S
H517 C523 0.930 . S
C518 H504 0.930 . S
C518 C516 1.395 . S
C518 C521 1.403 . S
C519 C516 1.403 . S
C519 C520 1.524 . S
C519 C523 1.400 . S
C520 H505 0.960 . S
C520 H506 0.960 . S
C520 H507 0.960 . S
C520 C519 1.524 . S
C521 C518 1.403 . S
C521 C522 1.392 . S
C521 C525 1.495 . S
C522 C521 1.392 . S
C522 C523 1.385 . S
C522 C524 1.478 . S
C523 H517 0.930 . S
C523 C519 1.400 . S
C523 C522 1.385 . S
C524 C522 1.478 . S
C524 C526 1.381 . S
C524 C530 1.383 . S
C525 C521 1.495 . S
C525 H531 0.959 . S
C525 H532 0.961 . S
C525 H533 0.960 . S
C526 C524 1.381 . S
C526 C527 1.394 . S
C526 H534 0.930 . S
C527 C526 1.394 . S
C527 C528 1.383 . S
C527 H535 0.929 . S
C528 C527 1.383 . S
C528 C529 1.377 . S
C529 H513 0.930 . S
C529 C528 1.377 . S
C529 C530 1.379 . S
C530 H514 0.931 . S
C530 C524 1.383 . S
C530 C529 1.379 . S
H531 C525 0.959 . S
H532 C525 0.961 . S
H533 C525 0.960 . S
H534 C526 0.930 . S
H535 C527 0.929 . S
H536 C544 0.929 . S
H537 C546 0.930 . S
H538 C548 0.930 . S
H539 C551 0.929 . S
H540 C554 0.930 . S
H541 C556 0.960 . S
H542 C556 0.960 . S
H543 C556 0.960 . S
C544 H536 0.929 . S
C544 C545 1.377 . S
C544 C546 1.384 . S
C545 C544 1.377 . S
C545 C551 1.390 . S
C546 H537 0.930 . S
C546 C544 1.384 . S
C546 C547 1.372 . S
C547 C546 1.372 . S
C547 C548 1.400 . S
C547 C552 1.490 . S
C548 H538 0.930 . S
C548 C547 1.400 . S
C548 C551 1.386 . S
H549 C565 0.930 . S
H550 C566 0.931 . S
C551 H539 0.929 . S
C551 C545 1.390 . S
C551 C548 1.386 . S
C552 C547 1.490 . S
C552 C554 1.395 . S
C552 C555 1.403 . S
H553 C559 0.930 . S
C554 H540 0.930 . S
C554 C552 1.395 . S
C554 C557 1.403 . S
C555 C552 1.403 . S
C555 C556 1.524 . S
C555 C559 1.400 . S
C556 H541 0.960 . S
C556 H542 0.960 . S
C556 H543 0.960 . S
C556 C555 1.524 . S
C557 C554 1.403 . S
C557 C558 1.392 . S
C557 C561 1.495 . S
C558 C557 1.392 . S
C558 C559 1.385 . S
C558 C560 1.478 . S
C559 H553 0.930 . S
C559 C555 1.400 . S
C559 C558 1.385 . S
C560 C558 1.478 . S
C560 C562 1.381 . S
C560 C566 1.383 . S
C561 C557 1.495 . S
C561 H567 0.959 . S
C561 H568 0.961 . S
C561 H569 0.960 . S
C562 C560 1.381 . S
C562 C563 1.394 . S
C562 H570 0.930 . S
C563 C562 1.394 . S
C563 C564 1.383 . S
C563 H571 0.929 . S
C564 C563 1.383 . S
C564 C565 1.377 . S
C565 H549 0.930 . S
C565 C564 1.377 . S
C565 C566 1.379 . S
C566 H550 0.931 . S
C566 C560 1.383 . S
C566 C565 1.379 . S
H567 C561 0.959 . S
H568 C561 0.961 . S
H569 C561 0.960 . S
H570 C562 0.930 . S
H571 C563 0.929 . S
H572 C580 0.929 . S
H573 C582 0.930 . S
H574 C584 0.930 . S
H575 C587 0.929 . S
H576 C590 0.930 . S
H577 C592 0.960 . S
H578 C592 0.960 . S
H579 C592 0.960 . S
C580 H572 0.929 . S
C580 C581 1.377 . S
C580 C582 1.384 . S
C581 C580 1.377 . S
C581 C587 1.390 . S
C582 H573 0.930 . S
C582 C580 1.384 . S
C582 C583 1.372 . S
C583 C582 1.372 . S
C583 C584 1.400 . S
C583 C588 1.490 . S
C584 H574 0.930 . S
C584 C583 1.400 . S
C584 C587 1.386 . S
H585 C601 0.930 . S
H586 C602 0.931 . S
C587 H575 0.929 . S
C587 C581 1.390 . S
C587 C584 1.386 . S
C588 C583 1.490 . S
C588 C590 1.395 . S
C588 C591 1.403 . S
H589 C595 0.930 . S
C590 H576 0.930 . S
C590 C588 1.395 . S
C590 C593 1.403 . S
C591 C588 1.403 . S
C591 C592 1.524 . S
C591 C595 1.400 . S
C592 H577 0.960 . S
C592 H578 0.960 . S
C592 H579 0.960 . S
C592 C591 1.524 . S
C593 C590 1.403 . S
C593 C594 1.392 . S
C593 C597 1.495 . S
C594 C593 1.392 . S
C594 C595 1.385 . S
C594 C596 1.478 . S
C595 H589 0.930 . S
C595 C591 1.400 . S
C595 C594 1.385 . S
C596 C594 1.478 . S
C596 C598 1.381 . S
C596 C602 1.383 . S
C597 C593 1.495 . S
C597 H603 0.959 . S
C597 H604 0.961 . S
C597 H605 0.960 . S
C598 C596 1.381 . S
C598 C599 1.394 . S
C598 H606 0.930 . S
C599 C598 1.394 . S
C599 C600 1.383 . S
C599 H607 0.929 . S
C600 C599 1.383 . S
C600 C601 1.377 . S
C601 H585 0.930 . S
C601 C600 1.377 . S
C601 C602 1.379 . S
C602 H586 0.931 . S
C602 C596 1.383 . S
C602 C601 1.379 . S
H603 C597 0.959 . S
H604 C597 0.961 . S
H605 C597 0.960 . S
H606 C598 0.930 . S
H607 C599 0.929 . S
H608 C616 0.929 . S
H609 C618 0.930 . S
H610 C620 0.930 . S
H611 C623 0.929 . S
H612 C626 0.930 . S
H613 C628 0.960 . S
H614 C628 0.960 . S
H615 C628 0.960 . S
C616 H608 0.929 . S
C616 C617 1.377 . S
C616 C618 1.384 . S
C617 C616 1.377 . S
C617 C623 1.390 . S
C618 H609 0.930 . S
C618 C616 1.384 . S
C618 C619 1.372 . S
C619 C618 1.372 . S
C619 C620 1.400 . S
C619 C624 1.490 . S
C620 H610 0.930 . S
C620 C619 1.400 . S
C620 C623 1.386 . S
H621 C637 0.930 . S
H622 C638 0.931 . S
C623 H611 0.929 . S
C623 C617 1.390 . S
C623 C620 1.386 . S
C624 C619 1.490 . S
C624 C626 1.395 . S
C624 C627 1.403 . S
H625 C631 0.930 . S
C626 H612 0.930 . S
C626 C624 1.395 . S
C626 C629 1.403 . S
C627 C624 1.403 . S
C627 C628 1.524 . S
C627 C631 1.400 . S
C628 H613 0.960 . S
C628 H614 0.960 . S
C628 H615 0.960 . S
C628 C627 1.524 . S
C629 C626 1.403 . S
C629 C630 1.392 . S
C629 C633 1.495 . S
C630 C629 1.392 . S
C630 C631 1.385 . S
C630 C632 1.478 . S
C631 H625 0.930 . S
C631 C627 1.400 . S
C631 C630 1.385 . S
C632 C630 1.478 . S
C632 C634 1.381 . S
C632 C638 1.383 . S
C633 C629 1.495 . S
C633 H639 0.959 . S
C633 H640 0.961 . S
C633 H641 0.960 . S
C634 C632 1.381 . S
C634 C635 1.394 . S
C634 H642 0.930 . S
C635 C634 1.394 . S
C635 C636 1.383 . S
C635 H643 0.929 . S
C636 C635 1.383 . S
C636 C637 1.377 . S
C637 H621 0.930 . S
C637 C636 1.377 . S
C637 C638 1.379 . S
C638 H622 0.931 . S
C638 C632 1.383 . S
C638 C637 1.379 . S
H639 C633 0.959 . S
H640 C633 0.961 . S
H641 C633 0.960 . S
H642 C634 0.930 . S
H643 C635 0.929 . S
H644 C652 0.929 . S
H645 C654 0.930 . S
H646 C656 0.930 . S
H647 C659 0.929 . S
H648 C662 0.930 . S
H649 C664 0.960 . S
H650 C664 0.960 . S
H651 C664 0.960 . S
C652 H644 0.929 . S
C652 C653 1.377 . S
C652 C654 1.384 . S
C653 C652 1.377 . S
C653 C659 1.390 . S
C654 H645 0.930 . S
C654 C652 1.384 . S
C654 C655 1.372 . S
C655 C654 1.372 . S
C655 C656 1.400 . S
C655 C660 1.490 . S
C656 H646 0.930 . S
C656 C655 1.400 . S
C656 C659 1.386 . S
H657 C673 0.930 . S
H658 C674 0.931 . S
C659 H647 0.929 . S
C659 C653 1.390 . S
C659 C656 1.386 . S
C660 C655 1.490 . S
C660 C662 1.395 . S
C660 C663 1.403 . S
H661 C667 0.930 . S
C662 H648 0.930 . S
C662 C660 1.395 . S
C662 C665 1.403 . S
C663 C660 1.403 . S
C663 C664 1.524 . S
C663 C667 1.400 . S
C664 H649 0.960 . S
C664 H650 0.960 . S
C664 H651 0.960 . S
C664 C663 1.524 . S
C665 C662 1.403 . S
C665 C666 1.392 . S
C665 C669 1.495 . S
C666 C665 1.392 . S
C666 C667 1.385 . S
C666 C668 1.478 . S
C667 H661 0.930 . S
C667 C663 1.400 . S
C667 C666 1.385 . S
C668 C666 1.478 . S
C668 C670 1.381 . S
C668 C674 1.383 . S
C669 C665 1.495 . S
C669 H675 0.959 . S
C669 H676 0.961 . S
C669 H677 0.960 . S
C670 C668 1.381 . S
C670 C671 1.394 . S
C670 H678 0.930 . S
C671 C670 1.394 . S
C671 C672 1.383 . S
C671 H679 0.929 . S
C672 C671 1.383 . S
C672 C673 1.377 . S
C673 H657 0.930 . S
C673 C672 1.377 . S
C673 C674 1.379 . S
C674 H658 0.931 . S
C674 C668 1.383 . S
C674 C673 1.379 . S
H675 C669 0.959 . S
H676 C669 0.961 . S
H677 C669 0.960 . S
H678 C670 0.930 . S
H679 C671 0.929 . S
C113 C5 1.414 . S
C132 C44 1.424 . S
C149 C10 1.448 . S
C168 C23 1.447 . S
C185 C18 1.422 . S
C204 C31 1.402 . S
C221 C49 1.448 . S
C240 C36 1.443 . S
C257 C57 1.414 . S
C276 C96 1.427 . S
C293 C75 1.445 . S
C312 C62 1.429 . S
C329 C83 1.419 . S
C348 C70 1.419 . S
C365 C101 1.442 . S
C384 C88 1.437 . S
C401 C86 1.377 . S
C420 C0 1.395 . S
C437 C21 1.377 . S
C456 C91 1.395 . S
C473 C60 1.386 . S
C492 C26 1.358 . S
C509 C65 1.383 . S
C528 C47 1.380 . S
C545 C73 1.377 . S
C564 C39 1.393 . S
C581 C8 1.377 . S
C600 C78 1.393 . S
C617 C13 1.385 . S
C636 C99 1.358 . S
C653 C34 1.381 . S
C672 C52 1.390 . S
