# Generated by pormake.
# Topology bcu, (8)-cn, num edge types: 1
# Building blocks:
#     Node 0, Type 0, BuildingBlock: TAGTUT_clean_sbu_1, # of connection points: 8
#     Node 1, Type 0, BuildingBlock: TAGTUT_clean_sbu_1, # of connection points: 8
#     Edge 2, Type (0, 0), BuildingBlock: UVAHIK_clean_linker_0, # of connection points: 2
#     Edge 3, Type (0, 0), BuildingBlock: UVAHIK_clean_linker_0, # of connection points: 2
#     Edge 4, Type (0, 0), BuildingBlock: UVAHIK_clean_linker_0, # of connection points: 2
#     Edge 5, Type (0, 0), BuildingBlock: UVAHIK_clean_linker_0, # of connection points: 2
#     Edge 6, Type (0, 0), BuildingBlock: UVAHIK_clean_linker_0, # of connection points: 2
#     Edge 7, Type (0, 0), BuildingBlock: UVAHIK_clean_linker_0, # of connection points: 2
#     Edge 8, Type (0, 0), BuildingBlock: UVAHIK_clean_linker_0, # of connection points: 2
#     Edge 9, Type (0, 0), BuildingBlock: UVAHIK_clean_linker_0, # of connection points: 2
# Relax obj value: 0.021
# Max RMSD: 0.083
# Mean RMSD: 0.083
data_MOF--net-bcu--node1-TAGTUT_clean_sbu_1--edge1-UVAHIK_clean_linker_0
_symmetry_space_group_name_H-M    P1
_symmetry_Int_Tables_number       1
_symmetry_cell_setting            triclinic
loop_
_symmetry_equiv_pos_as_xyz
'x, y, z'
_cell_length_a     24.319402
_cell_length_b     23.1988
_cell_length_c     28.156912
_cell_angle_alpha  90.54655
_cell_angle_beta   92.199096
_cell_angle_gamma 105.12539
loop_
_atom_site_label
_atom_site_type_symbol
_atom_site_fract_x
_atom_site_fract_y
_atom_site_fract_z
_atom_type_partial_charge
C0 C 0.88864 0.13047 0.01111 0.0
C1 C 0.93473 0.1093 0.86652 0.0
C2 C 0.92065 0.88048 0.9138 0.0
Mg3 Mg 1.00141 0.1301 -0.03741 0.0
O4 O 0.97465 0.04947 -0.02207 0.0
Mg5 Mg 0.89729 0.00574 0.95191 0.0
Mg6 Mg 0.019 -0.0075 -0.04024 0.0
O7 O 0.06324 0.93548 0.94157 0.0
Mg8 Mg 0.0364 0.85478 0.95678 0.0
Mg9 Mg 0.1406 0.97912 -0.03247 0.0
C10 C 0.11726 0.10454 0.0056 0.0
C11 C 0.10724 0.05377 0.8794 0.0
O12 O 0.86546 0.07791 -0.00659 0.0
O13 O 0.94056 0.15834 0.00419 0.0
O14 O 0.9036 0.06231 0.88471 0.0
O15 O 0.97919 0.1412 0.88881 0.0
O16 O 0.08874 0.1413 -0.00859 0.0
O17 O 0.097 0.04757 0.00164 0.0
C18 C 0.93071 0.9312 0.04011 0.0
O19 O 0.98135 0.93821 0.02547 0.0
O20 O 0.89377 0.95244 0.01808 0.0
O21 O 0.17233 0.90693 0.92594 0.0
O22 O 0.09718 0.82656 0.91511 0.0
O23 O 0.13424 0.92251 0.03469 0.0
C24 C 0.14912 0.8544 0.9082 0.0
O25 O 0.05873 0.84351 0.03053 0.0
O26 O 0.94905 0.84357 0.92792 0.0
C27 C 0.10315 0.87547 0.05285 0.0
O28 O 0.94108 0.9374 0.91795 0.0
O29 O 0.05662 0.04679 0.89406 0.0
O30 O 0.14416 0.03248 0.9014 0.0
C31 C 0.38869 0.63037 0.51116 0.0
C32 C 0.43468 0.60914 0.36654 0.0
C33 C 0.4207 0.3804 0.41379 0.0
Mg34 Mg 0.50143 0.63002 0.46259 0.0
O35 O 0.4747 0.54938 0.47794 0.0
Mg36 Mg 0.39734 0.50563 0.45196 0.0
Mg37 Mg 0.51906 0.49242 0.45979 0.0
O38 O 0.5633 0.4354 0.44159 0.0
Mg39 Mg 0.53642 0.3547 0.45677 0.0
Mg40 Mg 0.64065 0.47901 0.46761 0.0
C41 C 0.6173 0.60445 0.50562 0.0
C42 C 0.60736 0.55371 0.37947 0.0
O43 O 0.3655 0.57781 0.49346 0.0
O44 O 0.44061 0.65824 0.50423 0.0
O45 O 0.40362 0.56212 0.38474 0.0
O46 O 0.4791 0.64113 0.38882 0.0
O47 O 0.58878 0.6412 0.4914 0.0
O48 O 0.59704 0.54748 0.50169 0.0
C49 C 0.43079 0.43112 0.54015 0.0
O50 O 0.48142 0.43813 0.52549 0.0
O51 O 0.39384 0.45236 0.51814 0.0
O52 O 0.67239 0.40683 0.42602 0.0
O53 O 0.59725 0.32646 0.41516 0.0
O54 O 0.63422 0.42231 0.53475 0.0
C55 C 0.64919 0.35431 0.40827 0.0
O56 O 0.55861 0.34344 0.53054 0.0
O57 O 0.44909 0.34348 0.42788 0.0
C58 C 0.60306 0.37529 0.55288 0.0
O59 O 0.44113 0.43732 0.41798 0.0
O60 O 0.55672 0.54672 0.3941 0.0
O61 O 0.64426 0.53241 0.40149 0.0
C62 C 0.18043 0.09466 0.0751 0.0
C63 C 0.16753 0.12915 0.0376 0.0
C64 C 0.21222 0.12254 0.11524 0.0
C65 C 0.23338 0.26499 0.17891 0.0
H66 H 0.33375 0.20375 0.2629 0.0
C67 C 0.35784 0.39074 0.34422 0.0
C68 C 0.37046 0.35608 0.38171 0.0
C69 C 0.32611 0.36305 0.30398 0.0
C70 C 0.30492 0.22078 0.24014 0.0
H71 H 0.18505 0.21841 0.00926 0.0
H72 H 0.24181 0.26676 0.07871 0.0
H73 H 0.30432 0.15614 0.18519 0.0
H74 H 0.35252 0.26674 0.40992 0.0
H75 H 0.2959 0.21872 0.3403 0.0
H76 H 0.23401 0.32965 0.23386 0.0
C77 C 0.22542 0.21861 0.07802 0.0
C78 C 0.28854 0.1938 0.1955 0.0
C79 C 0.19346 0.19084 0.03807 0.0
C80 C 0.34431 0.29443 0.38113 0.0
C81 C 0.31243 0.26685 0.34108 0.0
C82 C 0.24978 0.29198 0.22355 0.0
C83 C 0.23199 0.18515 0.11814 0.0
C84 C 0.25267 0.21568 0.16437 0.0
C85 C 0.30616 0.30046 0.30098 0.0
C86 C 0.2856 0.27007 0.25469 0.0
H87 H 0.1612 0.04698 0.07575 0.0
H88 H 0.21692 0.09546 0.14548 0.0
H89 H 0.20454 0.28202 0.15616 0.0
H90 H 0.37725 0.43839 0.34365 0.0
H91 H 0.32162 0.39023 0.27376 0.0
C92 C 0.80708 0.12226 0.06495 0.0
C93 C 0.85718 0.157 0.0456 0.0
C94 C 0.78317 0.14408 0.10338 0.0
C95 C 0.78486 0.2817 0.17231 0.0
H96 H 0.74141 0.17206 0.27575 0.0
C97 C 0.73074 0.36254 0.35443 0.0
C98 C 0.68064 0.32779 0.37377 0.0
C99 C 0.75465 0.34072 0.31599 0.0
C100 C 0.75297 0.20311 0.24706 0.0
H101 H 0.91931 0.24342 0.04971 0.0
H102 H 0.87775 0.28114 0.1165 0.0
H103 H 0.77344 0.13714 0.20244 0.0
H104 H 0.61851 0.24137 0.36965 0.0
H105 H 0.66007 0.20367 0.30285 0.0
H106 H 0.76439 0.34768 0.21693 0.0
C107 C 0.85686 0.2371 0.10205 0.0
C108 C 0.77105 0.18303 0.20495 0.0
C109 C 0.88082 0.21529 0.06378 0.0
C110 C 0.65699 0.26951 0.35558 0.0
C111 C 0.68096 0.24771 0.31731 0.0
C112 C 0.76679 0.30179 0.21442 0.0
C113 C 0.80866 0.20118 0.12312 0.0
C114 C 0.7872 0.22208 0.16707 0.0
C115 C 0.72916 0.28363 0.29624 0.0
C116 C 0.75064 0.26273 0.2523 0.0
H117 H 0.78768 0.0772 0.05186 0.0
H118 H 0.74538 0.11573 0.11831 0.0
H119 H 0.79643 0.31275 0.14362 0.0
H120 H 0.75014 0.40759 0.36753 0.0
H121 H 0.79244 0.36908 0.30107 0.0
C122 C 0.87758 0.91948 0.11372 0.0
C123 C 0.91191 0.89755 0.08307 0.0
C124 C 0.84657 0.88284 0.14757 0.0
C125 C 0.82575 0.73929 0.20891 0.0
H126 H 0.66862 0.74849 0.21048 0.0
C127 C 0.66056 0.5655 0.30589 0.0
C128 C 0.6262 0.5874 0.33653 0.0
C129 C 0.69159 0.60216 0.27207 0.0
C130 C 0.71241 0.74574 0.21076 0.0
H131 H 0.94392 0.82169 0.0654 0.0
H132 H 0.88908 0.75668 0.12486 0.0
H133 H 0.73581 0.8162 0.16115 0.0
H134 H 0.59417 0.66324 0.35421 0.0
H135 H 0.64905 0.7283 0.29479 0.0
H136 H 0.80235 0.66882 0.25852 0.0
C137 C 0.88655 0.80252 0.12291 0.0
C138 C 0.75103 0.7846 0.18264 0.0
C139 C 0.91818 0.83965 0.0891 0.0
C140 C 0.61993 0.6453 0.33052 0.0
C141 C 0.65159 0.68246 0.29673 0.0
C142 C 0.78713 0.70042 0.23704 0.0
C143 C 0.84863 0.82315 0.15111 0.0
C144 C 0.80818 0.78193 0.1815 0.0
C145 C 0.68952 0.66186 0.26855 0.0
C146 C 0.72998 0.70309 0.23817 0.0
H147 H 0.8724 0.96423 0.1098 0.0
H148 H 0.81909 0.9006 0.16966 0.0
H149 H 0.86954 0.73653 0.20919 0.0
H150 H 0.66574 0.52074 0.30979 0.0
H151 H 0.71908 0.58442 0.24998 0.0
C152 C 0.1749 0.88727 0.12069 0.0
C153 C 0.12655 0.85173 0.09561 0.0
C154 C 0.20716 0.86144 0.15195 0.0
C155 C 0.21019 0.72299 0.21604 0.0
H156 H 0.37276 0.77661 0.19732 0.0
C157 C 0.36289 0.59722 0.29871 0.0
C158 C 0.41125 0.6328 0.32375 0.0
C159 C 0.33061 0.623 0.26743 0.0
C160 C 0.32757 0.7614 0.20324 0.0
H161 H 0.0713 0.76192 0.08729 0.0
H162 H 0.12752 0.71693 0.14188 0.0
H163 H 0.30802 0.82529 0.15565 0.0
H164 H 0.4665 0.72263 0.33198 0.0
H165 H 0.41025 0.76753 0.27736 0.0
H166 H 0.22974 0.65911 0.26363 0.0
C167 C 0.14067 0.76479 0.13722 0.0
C168 C 0.2904 0.7895 0.17955 0.0
C169 C 0.10826 0.79067 0.10596 0.0
C170 C 0.42954 0.69384 0.31334 0.0
C171 C 0.39711 0.71968 0.28206 0.0
C172 C 0.24735 0.69489 0.23973 0.0
C173 C 0.19185 0.79949 0.15896 0.0
C174 C 0.23124 0.77073 0.18571 0.0
C175 C 0.34592 0.68495 0.26036 0.0
C176 C 0.30652 0.71368 0.23358 0.0
H177 H 0.18988 0.93462 0.11405 0.0
H178 H 0.24543 0.88973 0.1692 0.0
H179 H 0.16499 0.70778 0.22195 0.0
H180 H 0.34792 0.54989 0.3054 0.0
H181 H 0.29234 0.59469 0.2502 0.0
C182 C 0.2307 0.86257 0.85439 0.0
C183 C 0.18055 0.82787 0.87369 0.0
C184 C 0.25462 0.84073 0.81596 0.0
C185 C 0.25282 0.70309 0.74701 0.0
H186 H 0.29661 0.81276 0.64364 0.0
C187 C 0.30709 0.62221 0.56495 0.0
C188 C 0.35724 0.65691 0.54565 0.0
C189 C 0.28316 0.64405 0.60337 0.0
C190 C 0.28495 0.7817 0.67231 0.0
H191 H 0.11833 0.74151 0.8695 0.0
H192 H 0.15989 0.70377 0.80272 0.0
H193 H 0.26453 0.84772 0.71692 0.0
H194 H 0.41945 0.74328 0.54983 0.0
H195 H 0.37787 0.78102 0.6166 0.0
H196 H 0.27324 0.63707 0.70241 0.0
C197 C 0.18082 0.74779 0.8172 0.0
C198 C 0.26685 0.8018 0.71441 0.0
C199 C 0.15685 0.76961 0.85546 0.0
C200 C 0.38093 0.71518 0.56387 0.0
C201 C 0.35695 0.737 0.60212 0.0
C202 C 0.27092 0.68299 0.70492 0.0
C203 C 0.22908 0.78366 0.79618 0.0
C204 C 0.25058 0.76274 0.75226 0.0
C205 C 0.30869 0.70112 0.62314 0.0
C206 C 0.28719 0.72205 0.66706 0.0
H207 H 0.25014 0.9076 0.86752 0.0
H208 H 0.29245 0.86905 0.80108 0.0
H209 H 0.24116 0.67203 0.77568 0.0
H210 H 0.28765 0.57717 0.55183 0.0
H211 H 0.24533 0.61573 0.61825 0.0
C212 C 0.37777 0.41945 0.61382 0.0
C213 C 0.41202 0.39747 0.58312 0.0
C214 C 0.34674 0.38282 0.64765 0.0
C215 C 0.32568 0.23915 0.70886 0.0
H216 H 0.16865 0.24867 0.7105 0.0
C217 C 0.1603 0.06549 0.80575 0.0
C218 C 0.12604 0.08745 0.83645 0.0
C219 C 0.19135 0.10213 0.77193 0.0
C220 C 0.21241 0.24582 0.71075 0.0
H221 H 0.44386 0.32153 0.56536 0.0
H222 H 0.38899 0.25654 0.6248 0.0
H223 H 0.23593 0.31635 0.66122 0.0
H224 H 0.09419 0.16338 0.85422 0.0
H225 H 0.14909 0.22841 0.79481 0.0
H226 H 0.30217 0.16862 0.7584 0.0
C227 C 0.38654 0.3024 0.6229 0.0
C228 C 0.25108 0.28468 0.68266 0.0
C229 C 0.41819 0.33953 0.58909 0.0
C230 C 0.11987 0.14539 0.83049 0.0
C231 C 0.15154 0.18254 0.7967 0.0
C232 C 0.28701 0.2003 0.73695 0.0
C233 C 0.3487 0.32309 0.65113 0.0
C234 C 0.3082 0.28189 0.68151 0.0
C235 C 0.18939 0.16187 0.76847 0.0
C236 C 0.2299 0.20308 0.73811 0.0
H237 H 0.37267 0.46424 0.60993 0.0
H238 H 0.31933 0.40061 0.66978 0.0
H239 H 0.36945 0.2363 0.70911 0.0
H240 H 0.16541 0.0207 0.80962 0.0
H241 H 0.21877 0.08436 0.7498 0.0
C242 C 0.93078 0.19388 0.81277 0.0
C243 C 0.91139 0.1331 0.82373 0.0
C244 C 0.89877 0.22019 0.78149 0.0
C245 C 0.77682 0.18834 0.69254 0.0
H246 H 0.7549 0.33746 0.74109 0.0
C247 C 0.60694 0.29062 0.60656 0.0
C248 C 0.62635 0.35142 0.59565 0.0
C249 C 0.63891 0.26427 0.63785 0.0
C250 C 0.76079 0.29604 0.72688 0.0
H251 H 0.84623 0.05112 0.80655 0.0
H252 H 0.79082 0.09684 0.7522 0.0
H253 H 0.82186 0.29132 0.78247 0.0
H254 H 0.6915 0.43337 0.61294 0.0
H255 H 0.74684 0.38758 0.66729 0.0
H256 H 0.71576 0.19307 0.63694 0.0
C257 C 0.8304 0.12442 0.76793 0.0
C258 C 0.7995 0.26976 0.75041 0.0
C259 C 0.86226 0.09817 0.79924 0.0
C260 C 0.67546 0.38631 0.6202 0.0
C261 C 0.70727 0.36001 0.65151 0.0
C262 C 0.73812 0.21463 0.66901 0.0
C263 C 0.84697 0.18622 0.76026 0.0
C264 C 0.80804 0.21559 0.73352 0.0
C265 C 0.69069 0.2982 0.65913 0.0
C266 C 0.72957 0.2688 0.68589 0.0
H267 H 0.96852 0.22213 0.83078 0.0
H268 H 0.91344 0.26766 0.77539 0.0
H269 H 0.78271 0.14692 0.67833 0.0
H270 H 0.56922 0.2624 0.5885 0.0
H271 H 0.62422 0.21678 0.6439 0.0
C272 C 0.68046 0.59461 0.57513 0.0
C273 C 0.66756 0.62909 0.53763 0.0
C274 C 0.71224 0.62251 0.61528 0.0
C275 C 0.73333 0.76494 0.67894 0.0
H276 H 0.83374 0.70377 0.76294 0.0
C277 C 0.85775 0.89077 0.84424 0.0
C278 C 0.8704 0.85613 0.88173 0.0
C279 C 0.82603 0.86305 0.80401 0.0
C280 C 0.8049 0.72078 0.74018 0.0
H281 H 0.68504 0.71835 0.50929 0.0
H282 H 0.74176 0.76672 0.57875 0.0
H283 H 0.80433 0.65615 0.68523 0.0
H284 H 0.85252 0.76679 0.90995 0.0
H285 H 0.7959 0.71873 0.84034 0.0
H286 H 0.73393 0.82959 0.7339 0.0
C287 C 0.7254 0.71857 0.57806 0.0
C288 C 0.78853 0.6938 0.69554 0.0
C289 C 0.69346 0.69079 0.5381 0.0
C290 C 0.84429 0.79447 0.88116 0.0
C291 C 0.81241 0.76687 0.84111 0.0
C292 C 0.74972 0.79194 0.72359 0.0
C293 C 0.73197 0.68511 0.61818 0.0
C294 C 0.75265 0.71565 0.66441 0.0
C295 C 0.80611 0.80046 0.80101 0.0
C296 C 0.78555 0.77005 0.75473 0.0
H297 H 0.66126 0.54693 0.57578 0.0
H298 H 0.71695 0.59543 0.64551 0.0
H299 H 0.70448 0.78195 0.65619 0.0
H300 H 0.87714 0.93842 0.84367 0.0
H301 H 0.82151 0.89022 0.77378 0.0
loop_
_geom_bond_atom_site_label_1
_geom_bond_atom_site_label_2
_geom_bond_distance
_geom_bond_site_symmetry_2
_ccdc_geom_bond_type
C0 O12 1.241 . S
C0 O13 1.280 . S
C1 O14 1.277 . S
C1 O15 1.245 . S
C2 O26 1.247 . S
C2 O28 1.289 . S
Mg3 O4 1.926 . S
Mg3 O13 1.984 . S
Mg3 O15 1.988 1_554 S
Mg3 O16 2.061 1_655 S
O4 Mg3 1.926 . S
O4 Mg5 1.986 1_554 S
O4 Mg6 1.917 1_655 S
Mg5 O4 1.986 1_556 S
Mg5 O12 2.042 1_556 S
Mg5 O14 2.041 . S
Mg5 O20 2.038 1_546 S
Mg5 O28 2.238 1_545 S
Mg6 O4 1.917 1_455 S
Mg6 O7 1.917 1_544 S
Mg6 O17 2.106 . S
Mg6 O19 2.079 1_445 S
Mg6 O28 2.106 1_444 S
Mg6 O29 2.079 1_554 S
O7 Mg6 1.917 1_566 S
O7 Mg8 1.926 . S
O7 Mg9 1.986 1_556 S
Mg8 O7 1.926 . S
Mg8 O22 1.984 . S
Mg8 O25 1.988 1_556 S
Mg8 O26 2.061 1_455 S
Mg9 O7 1.986 1_554 S
Mg9 O17 2.238 1_565 S
Mg9 O21 2.042 1_554 S
Mg9 O23 2.041 . S
Mg9 O30 2.038 1_564 S
C10 O16 1.247 . S
C10 O17 1.289 . S
C11 O29 1.245 . S
C11 O30 1.274 . S
O12 C0 1.241 . S
O12 Mg5 2.042 1_554 S
O13 C0 1.280 . S
O13 Mg3 1.984 . S
O14 C1 1.277 . S
O14 Mg5 2.041 . S
O15 C1 1.245 . S
O15 Mg3 1.988 1_556 S
O16 Mg3 2.061 1_455 S
O16 C10 1.247 . S
O17 Mg6 2.106 . S
O17 Mg9 2.238 1_545 S
O17 C10 1.289 . S
C18 O19 1.245 . S
C18 O20 1.274 . S
O19 Mg6 2.079 1_665 S
O19 C18 1.245 . S
O20 Mg5 2.038 1_564 S
O20 C18 1.274 . S
O21 Mg9 2.042 1_556 S
O21 C24 1.241 . S
O22 Mg8 1.984 . S
O22 C24 1.280 . S
O23 Mg9 2.041 . S
O23 C27 1.277 . S
C24 O21 1.241 . S
C24 O22 1.280 . S
O25 Mg8 1.988 1_554 S
O25 C27 1.245 . S
O26 C2 1.247 . S
O26 Mg8 2.061 1_655 S
C27 O23 1.277 . S
C27 O25 1.245 . S
O28 C2 1.289 . S
O28 Mg5 2.238 1_565 S
O28 Mg6 2.106 1_666 S
O29 Mg6 2.079 1_556 S
O29 C11 1.245 . S
O30 Mg9 2.038 1_546 S
O30 C11 1.274 . S
C31 O43 1.241 . S
C31 O44 1.280 . S
C32 O45 1.277 . S
C32 O46 1.245 . S
C33 O57 1.247 . S
C33 O59 1.289 . S
Mg34 O35 1.926 . S
Mg34 O44 1.984 . S
Mg34 O46 1.988 . S
Mg34 O47 2.061 . S
O35 Mg34 1.926 . S
O35 Mg36 1.986 . S
O35 Mg37 1.917 . S
Mg36 O35 1.986 . S
Mg36 O43 2.042 . S
Mg36 O45 2.041 . S
Mg36 O51 2.038 . S
Mg36 O59 2.238 . S
Mg37 O35 1.917 . S
Mg37 O38 1.917 . S
Mg37 O48 2.106 . S
Mg37 O50 2.079 . S
Mg37 O59 2.106 . S
Mg37 O60 2.079 . S
O38 Mg37 1.917 . S
O38 Mg39 1.926 . S
O38 Mg40 1.986 . S
Mg39 O38 1.926 . S
Mg39 O53 1.984 . S
Mg39 O56 1.988 . S
Mg39 O57 2.061 . S
Mg40 O38 1.986 . S
Mg40 O48 2.238 . S
Mg40 O52 2.042 . S
Mg40 O54 2.041 . S
Mg40 O61 2.038 . S
C41 O47 1.247 . S
C41 O48 1.289 . S
C42 O60 1.245 . S
C42 O61 1.274 . S
O43 C31 1.241 . S
O43 Mg36 2.042 . S
O44 C31 1.280 . S
O44 Mg34 1.984 . S
O45 C32 1.277 . S
O45 Mg36 2.041 . S
O46 C32 1.245 . S
O46 Mg34 1.988 . S
O47 Mg34 2.061 . S
O47 C41 1.247 . S
O48 Mg37 2.106 . S
O48 Mg40 2.238 . S
O48 C41 1.289 . S
C49 O50 1.245 . S
C49 O51 1.274 . S
O50 Mg37 2.079 . S
O50 C49 1.245 . S
O51 Mg36 2.038 . S
O51 C49 1.274 . S
O52 Mg40 2.042 . S
O52 C55 1.241 . S
O53 Mg39 1.984 . S
O53 C55 1.280 . S
O54 Mg40 2.041 . S
O54 C58 1.277 . S
C55 O52 1.241 . S
C55 O53 1.280 . S
O56 Mg39 1.988 . S
O56 C58 1.245 . S
O57 C33 1.247 . S
O57 Mg39 2.061 . S
C58 O54 1.277 . S
C58 O56 1.245 . S
O59 C33 1.289 . S
O59 Mg36 2.238 . S
O59 Mg37 2.106 . S
O60 Mg37 2.079 . S
O60 C42 1.245 . S
O61 Mg40 2.038 . S
O61 C42 1.274 . S
C62 C63 1.349 . S
C62 C64 1.327 . S
C62 H87 0.950 . S
C63 C62 1.349 . S
C63 C79 1.349 . S
C64 C62 1.327 . S
C64 C83 1.429 . S
C64 H88 0.950 . S
C65 C82 1.574 . S
C65 C84 1.368 . S
C65 H89 0.949 . S
H66 C70 0.949 . S
C67 C68 1.349 . S
C67 C69 1.327 . S
C67 H90 0.950 . S
C68 C67 1.349 . S
C68 C80 1.349 . S
C69 C67 1.327 . S
C69 C85 1.429 . S
C69 H91 0.950 . S
C70 H66 0.949 . S
C70 C78 1.574 . S
C70 C86 1.368 . S
H71 C79 0.950 . S
H72 C77 0.950 . S
H73 C78 0.949 . S
H74 C80 0.950 . S
H75 C81 0.950 . S
H76 C82 0.949 . S
C77 H72 0.950 . S
C77 C79 1.327 . S
C77 C83 1.429 . S
C78 C70 1.574 . S
C78 H73 0.949 . S
C78 C84 1.368 . S
C79 C63 1.349 . S
C79 H71 0.950 . S
C79 C77 1.327 . S
C80 C68 1.349 . S
C80 H74 0.950 . S
C80 C81 1.327 . S
C81 H75 0.950 . S
C81 C80 1.327 . S
C81 C85 1.429 . S
C82 C65 1.574 . S
C82 H76 0.949 . S
C82 C86 1.368 . S
C83 C64 1.429 . S
C83 C77 1.429 . S
C83 C84 1.523 . S
C84 C65 1.368 . S
C84 C78 1.368 . S
C84 C83 1.523 . S
C85 C69 1.429 . S
C85 C81 1.429 . S
C85 C86 1.523 . S
C86 C70 1.368 . S
C86 C82 1.368 . S
C86 C85 1.523 . S
H87 C62 0.950 . S
H88 C64 0.950 . S
H89 C65 0.949 . S
H90 C67 0.950 . S
H91 C69 0.950 . S
C92 C93 1.349 . S
C92 C94 1.327 . S
C92 H117 0.950 . S
C93 C92 1.349 . S
C93 C109 1.349 . S
C94 C92 1.327 . S
C94 C113 1.429 . S
C94 H118 0.950 . S
C95 C112 1.574 . S
C95 C114 1.368 . S
C95 H119 0.949 . S
H96 C100 0.949 . S
C97 C98 1.349 . S
C97 C99 1.327 . S
C97 H120 0.950 . S
C98 C97 1.349 . S
C98 C110 1.349 . S
C99 C97 1.327 . S
C99 C115 1.429 . S
C99 H121 0.950 . S
C100 H96 0.949 . S
C100 C108 1.574 . S
C100 C116 1.368 . S
H101 C109 0.950 . S
H102 C107 0.950 . S
H103 C108 0.949 . S
H104 C110 0.950 . S
H105 C111 0.950 . S
H106 C112 0.949 . S
C107 H102 0.950 . S
C107 C109 1.327 . S
C107 C113 1.429 . S
C108 C100 1.574 . S
C108 H103 0.949 . S
C108 C114 1.368 . S
C109 C93 1.349 . S
C109 H101 0.950 . S
C109 C107 1.327 . S
C110 C98 1.349 . S
C110 H104 0.950 . S
C110 C111 1.327 . S
C111 H105 0.950 . S
C111 C110 1.327 . S
C111 C115 1.429 . S
C112 C95 1.574 . S
C112 H106 0.949 . S
C112 C116 1.368 . S
C113 C94 1.429 . S
C113 C107 1.429 . S
C113 C114 1.523 . S
C114 C95 1.368 . S
C114 C108 1.368 . S
C114 C113 1.523 . S
C115 C99 1.429 . S
C115 C111 1.429 . S
C115 C116 1.523 . S
C116 C100 1.368 . S
C116 C112 1.368 . S
C116 C115 1.523 . S
H117 C92 0.950 . S
H118 C94 0.950 . S
H119 C95 0.949 . S
H120 C97 0.950 . S
H121 C99 0.950 . S
C122 C123 1.349 . S
C122 C124 1.327 . S
C122 H147 0.950 . S
C123 C122 1.349 . S
C123 C139 1.349 . S
C124 C122 1.327 . S
C124 C143 1.429 . S
C124 H148 0.950 . S
C125 C142 1.574 . S
C125 C144 1.368 . S
C125 H149 0.949 . S
H126 C130 0.949 . S
C127 C128 1.349 . S
C127 C129 1.327 . S
C127 H150 0.950 . S
C128 C127 1.349 . S
C128 C140 1.349 . S
C129 C127 1.327 . S
C129 C145 1.429 . S
C129 H151 0.950 . S
C130 H126 0.949 . S
C130 C138 1.574 . S
C130 C146 1.368 . S
H131 C139 0.950 . S
H132 C137 0.950 . S
H133 C138 0.949 . S
H134 C140 0.950 . S
H135 C141 0.950 . S
H136 C142 0.949 . S
C137 H132 0.950 . S
C137 C139 1.327 . S
C137 C143 1.429 . S
C138 C130 1.574 . S
C138 H133 0.949 . S
C138 C144 1.368 . S
C139 C123 1.349 . S
C139 H131 0.950 . S
C139 C137 1.327 . S
C140 C128 1.349 . S
C140 H134 0.950 . S
C140 C141 1.327 . S
C141 H135 0.950 . S
C141 C140 1.327 . S
C141 C145 1.429 . S
C142 C125 1.574 . S
C142 H136 0.949 . S
C142 C146 1.368 . S
C143 C124 1.429 . S
C143 C137 1.429 . S
C143 C144 1.523 . S
C144 C125 1.368 . S
C144 C138 1.368 . S
C144 C143 1.523 . S
C145 C129 1.429 . S
C145 C141 1.429 . S
C145 C146 1.523 . S
C146 C130 1.368 . S
C146 C142 1.368 . S
C146 C145 1.523 . S
H147 C122 0.950 . S
H148 C124 0.950 . S
H149 C125 0.949 . S
H150 C127 0.950 . S
H151 C129 0.950 . S
C152 C153 1.349 . S
C152 C154 1.327 . S
C152 H177 0.950 . S
C153 C152 1.349 . S
C153 C169 1.349 . S
C154 C152 1.327 . S
C154 C173 1.429 . S
C154 H178 0.950 . S
C155 C172 1.574 . S
C155 C174 1.368 . S
C155 H179 0.949 . S
H156 C160 0.949 . S
C157 C158 1.349 . S
C157 C159 1.327 . S
C157 H180 0.950 . S
C158 C157 1.349 . S
C158 C170 1.349 . S
C159 C157 1.327 . S
C159 C175 1.429 . S
C159 H181 0.950 . S
C160 H156 0.949 . S
C160 C168 1.574 . S
C160 C176 1.368 . S
H161 C169 0.950 . S
H162 C167 0.950 . S
H163 C168 0.949 . S
H164 C170 0.950 . S
H165 C171 0.950 . S
H166 C172 0.949 . S
C167 H162 0.950 . S
C167 C169 1.327 . S
C167 C173 1.429 . S
C168 C160 1.574 . S
C168 H163 0.949 . S
C168 C174 1.368 . S
C169 C153 1.349 . S
C169 H161 0.950 . S
C169 C167 1.327 . S
C170 C158 1.349 . S
C170 H164 0.950 . S
C170 C171 1.327 . S
C171 H165 0.950 . S
C171 C170 1.327 . S
C171 C175 1.429 . S
C172 C155 1.574 . S
C172 H166 0.949 . S
C172 C176 1.368 . S
C173 C154 1.429 . S
C173 C167 1.429 . S
C173 C174 1.523 . S
C174 C155 1.368 . S
C174 C168 1.368 . S
C174 C173 1.523 . S
C175 C159 1.429 . S
C175 C171 1.429 . S
C175 C176 1.523 . S
C176 C160 1.368 . S
C176 C172 1.368 . S
C176 C175 1.523 . S
H177 C152 0.950 . S
H178 C154 0.950 . S
H179 C155 0.949 . S
H180 C157 0.950 . S
H181 C159 0.950 . S
C182 C183 1.349 . S
C182 C184 1.327 . S
C182 H207 0.950 . S
C183 C182 1.349 . S
C183 C199 1.349 . S
C184 C182 1.327 . S
C184 C203 1.429 . S
C184 H208 0.950 . S
C185 C202 1.574 . S
C185 C204 1.368 . S
C185 H209 0.949 . S
H186 C190 0.949 . S
C187 C188 1.349 . S
C187 C189 1.327 . S
C187 H210 0.950 . S
C188 C187 1.349 . S
C188 C200 1.349 . S
C189 C187 1.327 . S
C189 C205 1.429 . S
C189 H211 0.950 . S
C190 H186 0.949 . S
C190 C198 1.574 . S
C190 C206 1.368 . S
H191 C199 0.950 . S
H192 C197 0.950 . S
H193 C198 0.949 . S
H194 C200 0.950 . S
H195 C201 0.950 . S
H196 C202 0.949 . S
C197 H192 0.950 . S
C197 C199 1.327 . S
C197 C203 1.429 . S
C198 C190 1.574 . S
C198 H193 0.949 . S
C198 C204 1.368 . S
C199 C183 1.349 . S
C199 H191 0.950 . S
C199 C197 1.327 . S
C200 C188 1.349 . S
C200 H194 0.950 . S
C200 C201 1.327 . S
C201 H195 0.950 . S
C201 C200 1.327 . S
C201 C205 1.429 . S
C202 C185 1.574 . S
C202 H196 0.949 . S
C202 C206 1.368 . S
C203 C184 1.429 . S
C203 C197 1.429 . S
C203 C204 1.523 . S
C204 C185 1.368 . S
C204 C198 1.368 . S
C204 C203 1.523 . S
C205 C189 1.429 . S
C205 C201 1.429 . S
C205 C206 1.523 . S
C206 C190 1.368 . S
C206 C202 1.368 . S
C206 C205 1.523 . S
H207 C182 0.950 . S
H208 C184 0.950 . S
H209 C185 0.949 . S
H210 C187 0.950 . S
H211 C189 0.950 . S
C212 C213 1.349 . S
C212 C214 1.327 . S
C212 H237 0.950 . S
C213 C212 1.349 . S
C213 C229 1.349 . S
C214 C212 1.327 . S
C214 C233 1.429 . S
C214 H238 0.950 . S
C215 C232 1.574 . S
C215 C234 1.368 . S
C215 H239 0.949 . S
H216 C220 0.949 . S
C217 C218 1.349 . S
C217 C219 1.327 . S
C217 H240 0.950 . S
C218 C217 1.349 . S
C218 C230 1.349 . S
C219 C217 1.327 . S
C219 C235 1.429 . S
C219 H241 0.950 . S
C220 H216 0.949 . S
C220 C228 1.574 . S
C220 C236 1.368 . S
H221 C229 0.950 . S
H222 C227 0.950 . S
H223 C228 0.949 . S
H224 C230 0.950 . S
H225 C231 0.950 . S
H226 C232 0.949 . S
C227 H222 0.950 . S
C227 C229 1.327 . S
C227 C233 1.429 . S
C228 C220 1.574 . S
C228 H223 0.949 . S
C228 C234 1.368 . S
C229 C213 1.349 . S
C229 H221 0.950 . S
C229 C227 1.327 . S
C230 C218 1.349 . S
C230 H224 0.950 . S
C230 C231 1.327 . S
C231 H225 0.950 . S
C231 C230 1.327 . S
C231 C235 1.429 . S
C232 C215 1.574 . S
C232 H226 0.949 . S
C232 C236 1.368 . S
C233 C214 1.429 . S
C233 C227 1.429 . S
C233 C234 1.523 . S
C234 C215 1.368 . S
C234 C228 1.368 . S
C234 C233 1.523 . S
C235 C219 1.429 . S
C235 C231 1.429 . S
C235 C236 1.523 . S
C236 C220 1.368 . S
C236 C232 1.368 . S
C236 C235 1.523 . S
H237 C212 0.950 . S
H238 C214 0.950 . S
H239 C215 0.949 . S
H240 C217 0.950 . S
H241 C219 0.950 . S
C242 C243 1.349 . S
C242 C244 1.327 . S
C242 H267 0.950 . S
C243 C242 1.349 . S
C243 C259 1.349 . S
C244 C242 1.327 . S
C244 C263 1.429 . S
C244 H268 0.950 . S
C245 C262 1.574 . S
C245 C264 1.368 . S
C245 H269 0.949 . S
H246 C250 0.949 . S
C247 C248 1.349 . S
C247 C249 1.327 . S
C247 H270 0.950 . S
C248 C247 1.349 . S
C248 C260 1.349 . S
C249 C247 1.327 . S
C249 C265 1.429 . S
C249 H271 0.950 . S
C250 H246 0.949 . S
C250 C258 1.574 . S
C250 C266 1.368 . S
H251 C259 0.950 . S
H252 C257 0.950 . S
H253 C258 0.949 . S
H254 C260 0.950 . S
H255 C261 0.950 . S
H256 C262 0.949 . S
C257 H252 0.950 . S
C257 C259 1.327 . S
C257 C263 1.429 . S
C258 C250 1.574 . S
C258 H253 0.949 . S
C258 C264 1.368 . S
C259 C243 1.349 . S
C259 H251 0.950 . S
C259 C257 1.327 . S
C260 C248 1.349 . S
C260 H254 0.950 . S
C260 C261 1.327 . S
C261 H255 0.950 . S
C261 C260 1.327 . S
C261 C265 1.429 . S
C262 C245 1.574 . S
C262 H256 0.949 . S
C262 C266 1.368 . S
C263 C244 1.429 . S
C263 C257 1.429 . S
C263 C264 1.523 . S
C264 C245 1.368 . S
C264 C258 1.368 . S
C264 C263 1.523 . S
C265 C249 1.429 . S
C265 C261 1.429 . S
C265 C266 1.523 . S
C266 C250 1.368 . S
C266 C262 1.368 . S
C266 C265 1.523 . S
H267 C242 0.950 . S
H268 C244 0.950 . S
H269 C245 0.949 . S
H270 C247 0.950 . S
H271 C249 0.950 . S
C272 C273 1.349 . S
C272 C274 1.327 . S
C272 H297 0.950 . S
C273 C272 1.349 . S
C273 C289 1.349 . S
C274 C272 1.327 . S
C274 C293 1.429 . S
C274 H298 0.950 . S
C275 C292 1.574 . S
C275 C294 1.368 . S
C275 H299 0.949 . S
H276 C280 0.949 . S
C277 C278 1.349 . S
C277 C279 1.327 . S
C277 H300 0.950 . S
C278 C277 1.349 . S
C278 C290 1.349 . S
C279 C277 1.327 . S
C279 C295 1.429 . S
C279 H301 0.950 . S
C280 H276 0.949 . S
C280 C288 1.574 . S
C280 C296 1.368 . S
H281 C289 0.950 . S
H282 C287 0.950 . S
H283 C288 0.949 . S
H284 C290 0.950 . S
H285 C291 0.950 . S
H286 C292 0.949 . S
C287 H282 0.950 . S
C287 C289 1.327 . S
C287 C293 1.429 . S
C288 C280 1.574 . S
C288 H283 0.949 . S
C288 C294 1.368 . S
C289 C273 1.349 . S
C289 H281 0.950 . S
C289 C287 1.327 . S
C290 C278 1.349 . S
C290 H284 0.950 . S
C290 C291 1.327 . S
C291 H285 0.950 . S
C291 C290 1.327 . S
C291 C295 1.429 . S
C292 C275 1.574 . S
C292 H286 0.949 . S
C292 C296 1.368 . S
C293 C274 1.429 . S
C293 C287 1.429 . S
C293 C294 1.523 . S
C294 C275 1.368 . S
C294 C288 1.368 . S
C294 C293 1.523 . S
C295 C279 1.429 . S
C295 C291 1.429 . S
C295 C296 1.523 . S
C296 C280 1.368 . S
C296 C292 1.368 . S
C296 C295 1.523 . S
H297 C272 0.950 . S
H298 C274 0.950 . S
H299 C275 0.949 . S
H300 C277 0.950 . S
H301 C279 0.950 . S
C63 C10 0.716 . S
C68 C33 0.713 . S
C93 C0 1.651 . S
C98 C55 1.650 . S
C123 C18 1.503 . S
C128 C42 1.503 . S
C153 C27 1.819 . S
C158 C32 1.817 . S
C183 C24 1.651 . S
C188 C31 1.653 . S
C213 C49 1.503 . S
C218 C11 1.504 . S
C243 C1 1.819 . S
C248 C58 1.821 . S
C273 C41 0.716 . S
C278 C2 0.719 . S
