# Generated by pormake.
# Topology twt, (3)-cn, num edge types: 1
# Building blocks:
#     Node 0, Type 0, BuildingBlock: WUSLED_clean_sbu_0, # of connection points: 3
#     Node 1, Type 0, BuildingBlock: WUSLED_clean_sbu_0, # of connection points: 3
#     Node 2, Type 0, BuildingBlock: WUSLED_clean_sbu_0, # of connection points: 3
#     Node 3, Type 0, BuildingBlock: WUSLED_clean_sbu_0, # of connection points: 3
#     Node 4, Type 0, BuildingBlock: WUSLED_clean_sbu_0, # of connection points: 3
#     Node 5, Type 0, BuildingBlock: WUSLED_clean_sbu_0, # of connection points: 3
#     Edge 6, Type (0, 0), BuildingBlock: FUNLAD_clean_linker_1, # of connection points: 2
#     Edge 7, Type (0, 0), BuildingBlock: FUNLAD_clean_linker_1, # of connection points: 2
#     Edge 8, Type (0, 0), BuildingBlock: FUNLAD_clean_linker_1, # of connection points: 2
#     Edge 9, Type (0, 0), BuildingBlock: FUNLAD_clean_linker_1, # of connection points: 2
#     Edge 10, Type (0, 0), BuildingBlock: FUNLAD_clean_linker_1, # of connection points: 2
#     Edge 11, Type (0, 0), BuildingBlock: FUNLAD_clean_linker_1, # of connection points: 2
#     Edge 12, Type (0, 0), BuildingBlock: FUNLAD_clean_linker_1, # of connection points: 2
#     Edge 13, Type (0, 0), BuildingBlock: FUNLAD_clean_linker_1, # of connection points: 2
#     Edge 14, Type (0, 0), BuildingBlock: FUNLAD_clean_linker_1, # of connection points: 2
# Relax obj value: 0.000
# Max RMSD: 0.005
# Mean RMSD: 0.004
data_MOF--net-twt--node1-WUSLED_clean_sbu_0--edge1-FUNLAD_clean_linker_1
_symmetry_space_group_name_H-M    P1
_symmetry_Int_Tables_number       1
_symmetry_cell_setting            triclinic
loop_
_symmetry_equiv_pos_as_xyz
'x, y, z'
_cell_length_a     68.773493
_cell_length_b     68.975131
_cell_length_c     18.307778
_cell_angle_alpha  90.181407
_cell_angle_beta   90.00982
_cell_angle_gamma 119.55443
loop_
_atom_site_label
_atom_site_type_symbol
_atom_site_fract_x
_atom_site_fract_y
_atom_site_fract_z
_atom_type_partial_charge
C0 C 0.65314 0.29002 0.30901 0.0
C1 C 0.67234 0.3035 0.35048 0.0
C2 C 0.66277 0.33325 0.35347 0.0
C3 C 0.67708 0.32488 0.37244 0.0
C4 C 0.64374 0.31973 0.31057 0.0
C5 C 0.63899 0.29834 0.28893 0.0
U6 U 0.66868 0.24472 0.26675 0.0
O7 O 0.65079 0.20901 0.29458 0.0
O8 O 0.6564 0.21932 0.17977 0.0
C9 C 0.64672 0.20266 0.2259 0.0
C10 C 0.64743 0.26723 0.2867 0.0
C11 C 0.62351 0.1856 0.2086 0.0
C12 C 0.58557 0.17479 0.17094 0.0
C13 C 0.60737 0.1914 0.18848 0.0
C14 C 0.59572 0.14642 0.19469 0.0
C15 C 0.57949 0.15209 0.17297 0.0
C16 C 0.61749 0.16302 0.21198 0.0
C17 C 0.73 0.25847 0.28379 0.0
C18 C 0.74496 0.23542 0.23727 0.0
C19 C 0.76747 0.26651 0.3176 0.0
C20 C 0.75003 0.27141 0.32188 0.0
C21 C 0.76528 0.24857 0.27439 0.0
C22 C 0.72749 0.24032 0.24181 0.0
C23 C 0.71212 0.26436 0.2883 0.0
O24 O 0.65516 0.26541 0.22291 0.0
O25 O 0.64939 0.25486 0.33746 0.0
O26 O 0.69741 0.25466 0.34066 0.0
O27 O 0.703 0.26505 0.22595 0.0
H28 H 0.6836 0.29747 0.36616 0.0
H29 H 0.69195 0.33488 0.40478 0.0
H30 H 0.63246 0.32546 0.2928 0.0
H31 H 0.62418 0.28824 0.25641 0.0
H32 H 0.57345 0.17972 0.15523 0.0
H33 H 0.61163 0.20875 0.18607 0.0
H34 H 0.59178 0.12925 0.19943 0.0
H35 H 0.62967 0.15821 0.22812 0.0
H36 H 0.74263 0.22138 0.20421 0.0
H37 H 0.78242 0.27671 0.34905 0.0
H38 H 0.75219 0.28536 0.35515 0.0
H39 H 0.71208 0.23 0.21235 0.0
C40 C 0.60895 0.55914 0.6493 0.0
C41 C 0.6149 0.57983 0.68144 0.0
C42 C 0.57552 0.56862 0.6986 0.0
C43 C 0.59832 0.58446 0.70615 0.0
C44 C 0.5697 0.54788 0.66625 0.0
C45 C 0.58628 0.54327 0.64176 0.0
U46 U 0.66944 0.57493 0.60172 0.0
O47 O 0.68778 0.55702 0.62629 0.0
O48 O 0.6821 0.56278 0.5125 0.0
C49 C 0.68961 0.55306 0.5571 0.0
C50 C 0.62605 0.55359 0.62478 0.0
C51 C 0.6835 0.52992 0.53856 0.0
C52 C 0.65585 0.4916 0.50967 0.0
C53 C 0.66112 0.51332 0.52934 0.0
C54 C 0.69522 0.50282 0.50889 0.0
C55 C 0.67279 0.48602 0.49951 0.0
C56 C 0.70045 0.5245 0.52839 0.0
C57 C 0.71626 0.63613 0.61708 0.0
C58 C 0.75621 0.64926 0.62179 0.0
C59 C 0.74305 0.67542 0.59936 0.0
C60 C 0.72094 0.65799 0.60345 0.0
C61 C 0.76105 0.67134 0.60947 0.0
C62 C 0.73406 0.63182 0.62556 0.0
C63 C 0.69276 0.61825 0.62295 0.0
O64 O 0.63502 0.56143 0.56064 0.0
O65 O 0.64081 0.55564 0.67425 0.0
O66 O 0.68826 0.60356 0.67504 0.0
O67 O 0.68262 0.6092 0.56103 0.0
H68 H 0.63234 0.59231 0.68789 0.0
H69 H 0.60335 0.6005 0.73125 0.0
H70 H 0.55245 0.53492 0.66114 0.0
H71 H 0.58138 0.52713 0.6176 0.0
H72 H 0.63845 0.47911 0.50233 0.0
H73 H 0.64778 0.5172 0.53679 0.0
H74 H 0.70887 0.49957 0.4996 0.0
H75 H 0.71784 0.53716 0.53469 0.0
H76 H 0.76962 0.64548 0.6291 0.0
H77 H 0.74574 0.69191 0.58773 0.0
H78 H 0.70743 0.66162 0.59608 0.0
H79 H 0.73085 0.61502 0.63553 0.0
C80 C 0.29443 0.51378 0.98599 0.0
C81 C 0.27632 0.51778 0.98342 0.0
C82 C 0.25114 0.4801 0.0274 0.0
C83 C 0.25492 0.5011 0.00397 0.0
C84 C 0.26954 0.47638 0.03104 0.0
C85 C 0.29089 0.49305 0.0103 0.0
U86 U 0.33891 0.57421 0.94219 0.0
O87 O 0.3749 0.59202 0.96875 0.0
O88 O 0.3639 0.58709 0.85438 0.0
C89 C 0.38088 0.5941 0.89978 0.0
C90 C 0.31706 0.53087 0.96343 0.0
C91 C 0.39806 0.588 0.88113 0.0
C92 C 0.40902 0.56188 0.83292 0.0
C93 C 0.39231 0.56676 0.85404 0.0
C94 C 0.43741 0.59919 0.86713 0.0
C95 C 0.43177 0.57799 0.83921 0.0
C96 C 0.4207 0.60407 0.88793 0.0
C97 C 0.32441 0.6213 0.95779 0.0
C98 C 0.35138 0.66096 0.95909 0.0
C99 C 0.31199 0.64859 0.94419 0.0
C100 C 0.30722 0.6264 0.94806 0.0
C101 C 0.33417 0.66624 0.9506 0.0
C102 C 0.34658 0.63873 0.96268 0.0
C103 C 0.31877 0.59776 0.96311 0.0
O104 O 0.31857 0.54012 0.89946 0.0
O105 O 0.32931 0.54531 0.01406 0.0
O106 O 0.3288 0.59299 0.01548 0.0
O107 O 0.31793 0.58778 0.90099 0.0
H108 H 0.27873 0.53375 0.96526 0.0
H109 H 0.24121 0.50459 0.00104 0.0
H110 H 0.26777 0.46082 0.05037 0.0
H111 H 0.30472 0.48973 0.01328 0.0
H112 H 0.40413 0.54547 0.81124 0.0
H113 H 0.37492 0.55408 0.84828 0.0
H114 H 0.45462 0.61233 0.8711 0.0
H115 H 0.42548 0.62062 0.90817 0.0
H116 H 0.36863 0.6741 0.96348 0.0
H117 H 0.29819 0.65163 0.93548 0.0
H118 H 0.29002 0.61317 0.94346 0.0
H119 H 0.36014 0.63517 0.96962 0.0
C120 C 1.02704 0.19982 0.30538 0.0
C121 C 1.00547 0.18438 0.32903 0.0
C122 C 1.01699 0.15645 0.34823 0.0
C123 C 1.0005 0.1629 0.35006 0.0
C124 C 0.03856 0.172 0.32353 0.0
C125 C 0.04349 0.19346 0.30259 0.0
U126 U 1.01102 0.24462 0.26333 0.0
O127 O 1.02864 0.28037 0.29071 0.0
O128 O 1.02295 0.26976 0.17598 0.0
C129 C 1.0325 0.28657 0.22198 0.0
C130 C 1.0327 0.22253 0.28323 0.0
C131 C 0.05558 0.30369 0.20423 0.0
C132 C 0.09554 0.31693 0.20023 0.0
C133 C 0.07376 0.30028 0.21745 0.0
C134 C 0.08114 0.34045 0.1559 0.0
C135 C 0.09957 0.33732 0.16989 0.0
C136 C 0.05943 0.32382 0.17318 0.0
C137 C 0.94953 0.23023 0.28048 0.0
C138 C 0.93663 0.25731 0.27832 0.0
C139 C 0.90973 0.21785 0.27717 0.0
C140 C 0.92725 0.21302 0.27888 0.0
C141 C 0.91421 0.24012 0.27669 0.0
C142 C 0.95415 0.25244 0.2798 0.0
C143 C 0.96758 0.22458 0.28459 0.0
O144 O 1.02483 0.22416 0.2195 0.0
O145 O 1.03057 0.23484 0.33413 0.0
O146 O 0.98236 0.23444 0.33696 0.0
O147 O 0.97665 0.22399 0.22206 0.0
H148 H 0.9925 0.18895 0.33122 0.0
H149 H 0.98371 0.1513 0.36818 0.0
H150 H 0.05165 0.16772 0.31898 0.0
H151 H 0.0602 0.2051 0.28384 0.0
H152 H 0.10931 0.31391 0.21103 0.0
H153 H 0.07111 0.28478 0.24104 0.0
H154 H 0.08322 0.35548 0.13054 0.0
H155 H 0.04556 0.32666 0.16193 0.0
H156 H 0.94061 0.2746 0.27854 0.0
H157 H 0.8928 0.20406 0.27817 0.0
H158 H 0.92336 0.19577 0.27992 0.0
H159 H 0.97126 0.26598 0.28109 0.0
C160 C 0.06989 0.93087 0.64912 0.0
C161 C 0.06396 0.91009 0.67997 0.0
C162 C 0.10335 0.92135 0.69763 0.0
C163 C 0.08055 0.90544 0.70429 0.0
C164 C 0.10914 0.94219 0.66659 0.0
C165 C 0.09255 0.94682 0.64248 0.0
U166 U 1.00933 0.91516 0.60246 0.0
O167 O 0.9911 0.93313 0.62813 0.0
O168 O 0.99652 0.9273 0.51399 0.0
C169 C 0.9892 0.93713 0.55912 0.0
C170 C 0.05278 0.93645 0.62507 0.0
C171 C 0.9954 0.96032 0.54137 0.0
C172 C 1.02282 0.99812 0.50674 0.0
C173 C 1.01752 0.97634 0.52506 0.0
C174 C 0.98404 0.98821 0.52208 0.0
C175 C 1.00615 1.00432 0.50418 0.0
C176 C 0.97878 0.96646 0.54018 0.0
C177 C 0.96255 0.85399 0.61804 0.0
C178 C 0.92269 0.84128 0.61558 0.0
C179 C 0.93559 0.8144 0.60959 0.0
C180 C 0.95773 0.83179 0.61297 0.0
C181 C 0.91767 0.81889 0.61156 0.0
C182 C 0.94488 0.85867 0.61876 0.0
C183 C 0.98605 0.87186 0.62343 0.0
O184 O 0.04366 0.92854 0.56094 0.0
O185 O 0.03814 0.93448 0.67481 0.0
O186 O 0.99066 0.88665 0.67564 0.0
O187 O 0.99595 0.88083 0.56135 0.0
H188 H 0.04653 0.89756 0.68572 0.0
H189 H 0.07554 0.88932 0.72838 0.0
H190 H 0.12638 0.95521 0.66222 0.0
H191 H 0.09744 0.96303 0.61934 0.0
H192 H 0.04001 1.01013 0.49394 0.0
H193 H 1.03064 0.97198 0.52614 0.0
H194 H 0.9707 0.9922 0.52309 0.0
H195 H 0.96163 0.95436 0.55328 0.0
H196 H 0.90937 0.84537 0.61682 0.0
H197 H 0.93285 0.79762 0.60537 0.0
H198 H 0.97117 0.82786 0.61192 0.0
H199 H 0.94824 0.87573 0.62226 0.0
C200 C 0.3849 0.9766 0.97699 0.0
C201 C 0.40068 0.97083 0.00165 0.0
C202 C 0.42836 1.01017 0.01769 0.0
C203 C 0.42222 0.98748 0.0216 0.0
C204 C 0.41245 1.0158 0.99203 0.0
C205 C 0.39095 0.99915 0.97218 0.0
U206 U 0.33999 0.91585 0.93974 0.0
O207 O 0.30415 0.89852 0.96775 0.0
O208 O 0.31454 0.90197 0.85306 0.0
C209 C 0.2978 0.8956 0.89899 0.0
C210 C 0.36212 0.95943 0.95589 0.0
C211 C 0.28065 0.90165 0.87951 0.0
C212 C 0.2698 0.92784 0.8319 0.0
C213 C 0.28646 0.92292 0.85322 0.0
C214 C 0.24134 0.89044 0.86414 0.0
C215 C 0.24703 0.91171 0.83718 0.0
C216 C 0.25801 0.88554 0.88515 0.0
C217 C 0.35432 0.86888 0.96184 0.0
C218 C 0.32754 0.82966 0.9426 0.0
C219 C 0.36567 0.84083 0.97674 0.0
C220 C 0.37074 0.86314 0.97817 0.0
C221 C 0.34398 0.82376 0.95841 0.0
C222 C 0.33266 0.85201 0.94402 0.0
C223 C 0.36012 0.89248 0.96431 0.0
O224 O 0.36034 0.94936 0.89315 0.0
O225 O 0.35002 0.94565 0.00788 0.0
O226 O 0.35029 0.89789 0.0157 0.0
O227 O 0.36062 0.90163 0.90097 0.0
H228 H 0.39634 0.95348 0.00541 0.0
H229 H 0.43411 0.98259 0.04043 0.0
H230 H 0.41651 0.03297 0.98587 0.0
H231 H 0.37903 1.00392 0.95265 0.0
H232 H 0.27472 0.9443 0.81095 0.0
H233 H 0.30386 0.93563 0.84838 0.0
H234 H 0.22412 0.87729 0.86728 0.0
H235 H 0.25319 0.86897 0.90479 0.0
H236 H 0.31066 0.81692 0.92895 0.0
H237 H 0.37871 0.83714 0.99147 0.0
H238 H 0.38752 0.87594 0.99262 0.0
H239 H 0.31973 0.85612 0.93146 0.0
H240 H 0.68488 0.36628 0.40395 0.0
C241 C 0.66859 0.35615 0.37863 0.0
H242 H 0.63807 0.35519 0.35248 0.0
H243 H 0.64825 0.42939 0.57446 0.0
H244 H 0.61815 0.39626 0.62942 0.0
H245 H 0.60754 0.3589 0.58122 0.0
H246 H 0.62707 0.35444 0.478 0.0
C247 C 0.65495 0.36496 0.37329 0.0
C248 C 0.66156 0.38774 0.40183 0.0
C249 C 0.64974 0.39014 0.46155 0.0
C250 C 0.65567 0.41175 0.48884 0.0
C251 C 0.64409 0.41349 0.55022 0.0
C252 C 0.62685 0.39458 0.58268 0.0
C253 C 0.6209 0.37354 0.55559 0.0
C254 C 0.6322 0.37124 0.49604 0.0
H255 H 0.64993 0.45264 0.45264 0.0
C256 C 0.66646 0.46286 0.47625 0.0
H257 H 0.6963 0.46324 0.50796 0.0
H258 H 0.6863 0.38946 0.28203 0.0
H259 H 0.71648 0.4226 0.22754 0.0
H260 H 0.72734 0.45991 0.2767 0.0
H261 H 0.70791 0.46432 0.38034 0.0
C262 C 0.6798 0.45379 0.4839 0.0
C263 C 0.67322 0.43101 0.45566 0.0
C264 C 0.68507 0.42861 0.39606 0.0
C265 C 0.67908 0.40702 0.36855 0.0
C266 C 0.69057 0.40532 0.3068 0.0
C267 C 0.70785 0.42425 0.27452 0.0
C268 C 0.71394 0.44526 0.30213 0.0
C269 C 0.70268 0.44753 0.36187 0.0
H270 H 0.56395 0.58751 0.76725 0.0
C271 C 0.55844 0.57402 0.72763 0.0
H272 H 0.53065 0.55022 0.66646 0.0
H273 H 0.45749 0.54404 0.88793 0.0
H274 H 0.45572 0.50851 0.90787 0.0
H275 H 0.48326 0.5001 0.85116 0.0
H276 H 0.51287 0.52728 0.77462 0.0
C277 C 0.53683 0.56358 0.70648 0.0
C278 C 0.52014 0.56888 0.73979 0.0
C279 C 0.5026 0.55265 0.7832 0.0
C280 C 0.48643 0.55734 0.81488 0.0
C281 C 0.46975 0.54114 0.86057 0.0
C282 C 0.46865 0.52071 0.87299 0.0
C283 C 0.48417 0.51599 0.84115 0.0
C284 C 0.50104 0.53173 0.79708 0.0
H285 H 0.44362 0.55862 0.77443 0.0
C286 C 0.44898 0.57244 0.81266 0.0
H287 H 0.47657 0.59698 0.87265 0.0
H288 H 0.55037 0.60309 0.65447 0.0
H289 H 0.55216 0.63864 0.63461 0.0
H290 H 0.52453 0.64698 0.69085 0.0
H291 H 0.49482 0.61976 0.76692 0.0
C292 C 0.47058 0.58329 0.83392 0.0
C293 C 0.48751 0.57813 0.80176 0.0
C294 C 0.5051 0.59439 0.75854 0.0
C295 C 0.52129 0.58971 0.72697 0.0
C296 C 0.53804 0.60595 0.68159 0.0
C297 C 0.53918 0.6264 0.66924 0.0
C298 C 0.5236 0.63109 0.70084 0.0
C299 C 0.50667 0.61531 0.74465 0.0
H300 H 0.21549 0.46813 0.0535 0.0
C301 C 0.22793 0.46282 0.04814 0.0
H302 H 0.23279 0.43474 0.05374 0.0
H303 H 0.15029 0.37954 0.26234 0.0
H304 H 0.18087 0.39143 0.34851 0.0
H305 H 0.21947 0.41852 0.3127 0.0
H306 H 0.22771 0.43401 0.19051 0.0
C307 C 0.22122 0.44106 0.05844 0.0
C308 C 0.19775 0.42469 0.07947 0.0
C309 C 0.19322 0.4154 0.15061 0.0
C310 C 0.17096 0.3995 0.17098 0.0
C311 C 0.1669 0.39121 0.2433 0.0
C312 C 0.1843 0.398 0.29352 0.0
C313 C 0.20603 0.41326 0.27337 0.0
C314 C 0.21053 0.42198 0.20297 0.0
H315 H 0.13549 0.34917 0.14894 0.0
C316 C 0.12303 0.3545 0.15175 0.0
H317 H 0.11806 0.38244 0.1435 0.0
H318 H 0.20072 0.43783 0.93693 0.0
H319 H 0.17016 0.42593 0.8507 0.0
H320 H 0.13157 0.39876 0.88636 0.0
H321 H 0.12333 0.38321 0.00842 0.0
C322 C 0.12977 0.37623 0.14051 0.0
C323 C 0.15327 0.39259 0.11967 0.0
C324 C 0.15781 0.40187 0.04851 0.0
C325 C 0.18006 0.41778 0.02818 0.0
C326 C 0.18412 0.42612 0.95591 0.0
C327 C 0.16673 0.41933 0.90566 0.0
C328 C 0.14501 0.40402 0.92572 0.0
C329 C 0.1405 0.39528 -0.00392 0.0
H330 H 1.03038 0.03991 0.48263 0.0
C331 C 1.01264 0.02773 0.48377 0.0
H332 H 0.98019 0.02315 0.46416 0.0
H333 H 1.00865 0.1245 0.51582 0.0
H334 H 0.98967 0.10855 0.62988 0.0
H335 H 0.97765 0.06946 0.66074 0.0
H336 H 0.98469 0.04611 0.57786 0.0
C337 C 0.99804 0.03455 0.46451 0.0
C338 C 1.00558 0.05825 0.44539 0.0
C339 C 1.00096 0.0716 0.49363 0.0
C340 C 1.0076 0.09408 0.47529 0.0
C341 C 1.00348 0.10719 0.52596 0.0
C342 C 0.99271 0.09828 0.59191 0.0
C343 C 0.98596 0.07628 0.60932 0.0
C344 C 0.99006 0.06304 0.56113 0.0
H345 H 0.99311 0.12113 0.37446 0.0
C346 C 1.01081 0.13329 0.37059 0.0
H347 H 0.04353 0.13818 0.38582 0.0
H348 H 1.01576 0.03695 0.3381 0.0
H349 H 0.03474 0.05288 0.22403 0.0
H350 H 0.04658 0.09191 0.19283 0.0
H351 H 0.03941 0.11523 0.27539 0.0
C352 C 1.0257 0.1267 0.38812 0.0
C353 C 1.01851 0.10311 0.40795 0.0
C354 C 1.0232 0.08978 0.35982 0.0
C355 C 1.01659 0.0673 0.37823 0.0
C356 C 1.02082 0.05422 0.32777 0.0
C357 C 1.03161 0.06313 0.26184 0.0
C358 C 0.03826 0.0851 0.24425 0.0
C359 C 0.03409 0.09832 0.29228 0.0
H360 H 0.11491 0.90226 0.76485 0.0
C361 C 0.12043 0.91591 0.72618 0.0
H362 H 0.14829 0.94003 0.66662 0.0
H363 H 0.22121 0.94544 0.88795 0.0
H364 H 0.22284 0.98084 0.91056 0.0
H365 H 0.19532 0.9894 0.85473 0.0
H366 H 0.16586 0.96252 0.77637 0.0
C367 C 0.14208 0.9265 0.70568 0.0
C368 C 0.15876 0.92111 0.73846 0.0
C369 C 0.17621 0.93718 0.78297 0.0
C370 C 0.19236 0.93239 0.81418 0.0
C371 C 0.20895 0.94842 0.86094 0.0
C372 C 0.20998 0.96877 0.87488 0.0
C373 C 0.19447 0.97358 0.84352 0.0
C374 C 0.17769 0.958 0.79841 0.0
H375 H 0.23529 0.93125 0.77333 0.0
C376 C 0.22986 0.91732 0.81078 0.0
H377 H 0.20218 0.89262 0.86935 0.0
H378 H 0.12874 0.88725 0.65073 0.0
H379 H 0.12708 0.85184 0.62822 0.0
H380 H 0.15467 0.84333 0.68371 0.0
H381 H 0.18421 0.87026 0.76166 0.0
C382 C 0.20823 0.90642 0.83139 0.0
C383 C 0.19136 0.91169 0.79955 0.0
C384 C 0.17386 0.8956 0.75521 0.0
C385 C 0.1577 0.90037 0.72408 0.0
C386 C 0.14104 0.88431 0.67757 0.0
C387 C 0.13998 0.86394 0.6637 0.0
C388 C 0.15554 0.85916 0.69488 0.0
C389 C 0.17237 0.87476 0.73978 0.0
H390 H 0.46406 0.02203 0.04303 0.0
C391 C 0.45161 0.02734 0.03851 0.0
H392 H 0.44591 0.05458 0.05457 0.0
H393 H 0.52903 0.10916 0.2608 0.0
H394 H 0.49852 0.09665 0.34709 0.0
H395 H 0.45992 0.06974 0.31011 0.0
H396 H 0.45162 0.05504 0.18664 0.0
C397 C 0.45802 0.04885 0.05332 0.0
C398 C 0.48148 0.06524 0.07491 0.0
C399 C 0.48605 0.07408 0.14691 0.0
C400 C 0.50832 0.08989 0.16796 0.0
C401 C 0.51242 0.09765 0.24113 0.0
C402 C 0.49506 0.09048 0.29147 0.0
C403 C 0.47333 0.07531 0.27068 0.0
C404 C 0.46879 0.06707 0.19948 0.0
H405 H 0.54366 0.14036 0.15042 0.0
C406 C 0.55606 0.13497 0.15364 0.0
H407 H 0.56152 0.10765 0.13565 0.0
H408 H 0.47842 0.05325 0.93068 0.0
H409 H 0.50891 0.0658 0.8443 0.0
H410 H 0.5475 0.09279 0.88113 0.0
H411 H 0.55581 0.10751 0.00455 0.0
C412 C 0.54949 0.11346 0.13812 0.0
C413 C 0.52598 0.09721 0.11652 0.0
C414 C 0.52139 0.08841 0.04446 0.0
C415 C 0.49914 0.07258 0.02345 0.0
C416 C 0.49503 0.0648 0.9503 0.0
C417 C 0.51237 0.07199 0.8999 0.0
C418 C 0.5341 0.0872 0.92062 0.0
C419 C 0.53864 0.09545 0.9918 0.0
H420 H 0.90032 0.26263 0.29709 0.0
C421 C 0.89605 0.24604 0.27803 0.0
H422 H 0.86994 0.21564 0.23583 0.0
H423 H 0.79218 0.22508 0.38488 0.0
H424 H 0.79175 0.19541 0.45638 0.0
H425 H 0.82099 0.18493 0.44045 0.0
H426 H 0.85094 0.20422 0.35327 0.0
C427 C 0.87487 0.23222 0.25612 0.0
C428 C 0.85694 0.23837 0.26343 0.0
C429 C 0.83919 0.22659 0.31341 0.0
C430 C 0.82207 0.23238 0.32166 0.0
C431 C 0.8052 0.22097 0.37454 0.0
C432 C 0.80484 0.20399 0.41646 0.0
C433 C 0.82131 0.19811 0.40756 0.0
C434 C 0.83838 0.20928 0.35707 0.0
H435 H 0.77903 0.22648 0.2447 0.0
C436 C 0.78341 0.24266 0.26798 0.0
H437 H 0.81038 0.27308 0.30662 0.0
H438 H 0.88721 0.26288 0.15744 0.0
H439 H 0.88754 0.29243 0.08527 0.0
H440 H 0.85818 0.30276 0.10052 0.0
H441 H 0.82821 0.2835 0.18775 0.0
C442 C 0.80486 0.25624 0.28783 0.0
C443 C 0.82243 0.24965 0.27866 0.0
C444 C 0.84009 0.26131 0.22827 0.0
C445 C 0.85724 0.25555 0.22017 0.0
C446 C 0.87414 0.26695 0.16741 0.0
C447 C 0.87444 0.28386 0.12516 0.0
C448 C 0.8579 0.28966 0.1337 0.0
C449 C 0.84083 0.27851 0.18425 0.0
H450 H 0.79767 0.68433 0.60582 0.0
C451 C 0.78497 0.68937 0.60682 0.0
H452 H 0.78002 0.71734 0.61308 0.0
H453 H 0.87453 0.78454 0.74183 0.0
H454 H 0.85054 0.77915 0.8456 0.0
H455 H 0.81062 0.75064 0.84245 0.0
H456 H 0.79446 0.72726 0.7356 0.0
C457 C 0.79187 0.71139 0.60759 0.0
C458 C 0.81612 0.7286 0.60865 0.0
C459 C 0.8253 0.74241 0.67117 0.0
C460 C 0.84832 0.75902 0.67278 0.0
C461 C 0.8571 0.77202 0.73692 0.0
C462 C 0.84354 0.76902 0.79713 0.0
C463 C 0.82106 0.75296 0.79537 0.0
C464 C 0.81198 0.7397 0.73348 0.0
H465 H 0.8811 0.80618 0.6067 0.0
C466 C 0.89365 0.80098 0.60972 0.0
H467 H 0.89803 0.77258 0.61558 0.0
H468 H 0.80363 0.70668 0.47709 0.0
H469 H 0.8277 0.712 0.37366 0.0
H470 H 0.86777 0.74007 0.37784 0.0
H471 H 0.88396 0.76317 0.4854 0.0
C472 C 0.88645 0.77892 0.61337 0.0
C473 C 0.86214 0.762 0.6115 0.0
C474 C 0.85298 0.74824 0.54897 0.0
C475 C 0.82992 0.73172 0.54712 0.0
C476 C 0.82112 0.71897 0.48254 0.0
C477 C 0.83473 0.72196 0.42245 0.0
C478 C 0.85728 0.73779 0.42476 0.0
C479 C 0.86637 0.75089 0.48696 0.0
H480 H 0.35777 0.70256 0.94212 0.0
C481 C 0.34017 0.69022 0.94757 0.0
H482 H 0.3078 0.68611 0.96328 0.0
H483 H 0.33943 0.78221 0.08789 0.0
H484 H 0.32401 0.75961 0.19606 0.0
H485 H 0.31231 0.71957 0.19459 0.0
H486 H 0.31607 0.70191 0.08498 0.0
C487 C 0.32533 0.69758 0.95308 0.0
C488 C 0.3325 0.72188 0.95306 0.0
C489 C 0.32984 0.73193 0.01724 0.0
C490 C 0.33635 0.75501 0.01784 0.0
C491 C 0.33424 0.76468 0.08362 0.0
C492 C 0.32555 0.75192 0.14637 0.0
C493 C 0.31897 0.72939 0.14556 0.0
C494 C 0.32115 0.71944 0.08209 0.0
H495 H 0.31996 0.78743 0.95985 0.0
C496 C 0.33766 0.7997 0.95795 0.0
H497 H 0.37017 0.80383 0.94696 0.0
H498 H 0.338 0.70763 0.81865 0.0
H499 H 0.35352 0.73027 0.71061 0.0
H500 H 0.3655 0.77038 0.71246 0.0
H501 H 0.36185 0.78804 0.82235 0.0
C502 C 0.35249 0.7923 0.95422 0.0
C503 C 0.34522 0.76799 0.95385 0.0
C504 C 0.34789 0.75795 0.8897 0.0
C505 C 0.34132 0.73486 0.889 0.0
C506 C 0.34332 0.72518 0.82309 0.0
C507 C 0.35206 0.73796 0.7604 0.0
C508 C 0.35878 0.76054 0.76141 0.0
C509 C 0.35666 0.77048 0.82499 0.0
loop_
_geom_bond_atom_site_label_1
_geom_bond_atom_site_label_2
_geom_bond_distance
_geom_bond_site_symmetry_2
_ccdc_geom_bond_type
C0 C1 1.264 . S
C0 C5 1.479 . S
C0 C10 1.465 . S
C1 C0 1.264 . S
C1 C3 1.339 . S
C1 H28 0.931 . S
C2 C3 1.395 . S
C2 C4 1.320 . S
C3 C1 1.339 . S
C3 C2 1.395 . S
C3 H29 0.929 . S
C4 C2 1.320 . S
C4 C5 1.405 . S
C4 H30 0.930 . S
C5 C0 1.479 . S
C5 C4 1.405 . S
C5 H31 0.931 . S
U6 O7 2.454 . S
U6 O8 2.458 . S
U6 C9 2.984 . S
U6 C10 2.847 . S
U6 C23 2.882 . S
U6 O24 2.441 . S
U6 O25 2.420 . S
U6 O26 2.455 . S
U6 O27 2.449 . S
O7 U6 2.454 . S
O7 C9 1.353 . S
O8 U6 2.458 . S
O8 C9 1.286 . S
C9 U6 2.984 . S
C9 O7 1.353 . S
C9 O8 1.286 . S
C9 C11 1.363 . S
C10 C0 1.465 . S
C10 U6 2.847 . S
C10 O24 1.249 . S
C10 O25 1.202 . S
C11 C9 1.363 . S
C11 C13 1.408 . S
C11 C16 1.342 . S
C12 C13 1.310 . S
C12 C15 1.461 . S
C12 H32 0.932 . S
C13 C11 1.408 . S
C13 C12 1.310 . S
C13 H33 0.930 . S
C14 C15 1.474 . S
C14 C16 1.285 . S
C14 H34 0.929 . S
C15 C12 1.461 . S
C15 C14 1.474 . S
C16 C11 1.342 . S
C16 C14 1.285 . S
C16 H35 0.930 . S
C17 C20 1.424 . S
C17 C22 1.245 . S
C17 C23 1.428 . S
C18 C21 1.260 . S
C18 C22 1.477 . S
C18 H36 0.932 . S
C19 C20 1.384 . S
C19 C21 1.479 . S
C19 H37 0.929 . S
C20 C17 1.424 . S
C20 C19 1.384 . S
C20 H38 0.928 . S
C21 C18 1.260 . S
C21 C19 1.479 . S
C22 C17 1.245 . S
C22 C18 1.477 . S
C22 H39 0.932 . S
C23 U6 2.882 . S
C23 C17 1.428 . S
C23 O26 1.301 . S
C23 O27 1.282 . S
O24 U6 2.441 . S
O24 C10 1.249 . S
O25 U6 2.420 . S
O25 C10 1.202 . S
O26 U6 2.455 . S
O26 C23 1.301 . S
O27 U6 2.449 . S
O27 C23 1.282 . S
H28 C1 0.931 . S
H29 C3 0.929 . S
H30 C4 0.930 . S
H31 C5 0.931 . S
H32 C12 0.932 . S
H33 C13 0.930 . S
H34 C14 0.929 . S
H35 C16 0.930 . S
H36 C18 0.932 . S
H37 C19 0.929 . S
H38 C20 0.928 . S
H39 C22 0.932 . S
C40 C41 1.264 . S
C40 C45 1.479 . S
C40 C50 1.465 . S
C41 C40 1.264 . S
C41 C43 1.339 . S
C41 H68 0.931 . S
C42 C43 1.395 . S
C42 C44 1.320 . S
C43 C41 1.339 . S
C43 C42 1.395 . S
C43 H69 0.929 . S
C44 C42 1.320 . S
C44 C45 1.405 . S
C44 H70 0.930 . S
C45 C40 1.479 . S
C45 C44 1.405 . S
C45 H71 0.931 . S
U46 O47 2.454 . S
U46 O48 2.458 . S
U46 C49 2.984 . S
U46 C50 2.847 . S
U46 C63 2.882 . S
U46 O64 2.441 . S
U46 O65 2.420 . S
U46 O66 2.455 . S
U46 O67 2.449 . S
O47 U46 2.454 . S
O47 C49 1.353 . S
O48 U46 2.458 . S
O48 C49 1.286 . S
C49 U46 2.984 . S
C49 O47 1.353 . S
C49 O48 1.286 . S
C49 C51 1.363 . S
C50 C40 1.465 . S
C50 U46 2.847 . S
C50 O64 1.249 . S
C50 O65 1.202 . S
C51 C49 1.363 . S
C51 C53 1.408 . S
C51 C56 1.342 . S
C52 C53 1.310 . S
C52 C55 1.461 . S
C52 H72 0.932 . S
C53 C51 1.408 . S
C53 C52 1.310 . S
C53 H73 0.930 . S
C54 C55 1.474 . S
C54 C56 1.285 . S
C54 H74 0.929 . S
C55 C52 1.461 . S
C55 C54 1.474 . S
C56 C51 1.342 . S
C56 C54 1.285 . S
C56 H75 0.930 . S
C57 C60 1.424 . S
C57 C62 1.245 . S
C57 C63 1.428 . S
C58 C61 1.260 . S
C58 C62 1.477 . S
C58 H76 0.932 . S
C59 C60 1.384 . S
C59 C61 1.479 . S
C59 H77 0.929 . S
C60 C57 1.424 . S
C60 C59 1.384 . S
C60 H78 0.928 . S
C61 C58 1.260 . S
C61 C59 1.479 . S
C62 C57 1.245 . S
C62 C58 1.477 . S
C62 H79 0.932 . S
C63 U46 2.882 . S
C63 C57 1.428 . S
C63 O66 1.301 . S
C63 O67 1.282 . S
O64 U46 2.441 . S
O64 C50 1.249 . S
O65 U46 2.420 . S
O65 C50 1.202 . S
O66 U46 2.455 . S
O66 C63 1.301 . S
O67 U46 2.449 . S
O67 C63 1.282 . S
H68 C41 0.931 . S
H69 C43 0.929 . S
H70 C44 0.930 . S
H71 C45 0.931 . S
H72 C52 0.932 . S
H73 C53 0.930 . S
H74 C54 0.929 . S
H75 C56 0.930 . S
H76 C58 0.932 . S
H77 C59 0.929 . S
H78 C60 0.928 . S
H79 C62 0.932 . S
C80 C81 1.264 . S
C80 C85 1.479 . S
C80 C90 1.465 . S
C81 C80 1.264 . S
C81 C83 1.339 . S
C81 H108 0.931 . S
C82 C83 1.395 . S
C82 C84 1.320 . S
C83 C81 1.339 . S
C83 C82 1.395 . S
C83 H109 0.929 . S
C84 C82 1.320 . S
C84 C85 1.405 . S
C84 H110 0.930 . S
C85 C80 1.479 . S
C85 C84 1.405 . S
C85 H111 0.931 . S
U86 O87 2.454 1_554 S
U86 O88 2.458 1_554 S
U86 C89 2.984 1_554 S
U86 C90 2.847 . S
U86 C103 2.882 . S
U86 O104 2.441 . S
U86 O105 2.420 . S
U86 O106 2.455 1_554 S
U86 O107 2.449 . S
O87 U86 2.454 1_556 S
O87 C89 1.353 . S
O88 U86 2.458 1_556 S
O88 C89 1.286 . S
C89 U86 2.984 1_556 S
C89 O87 1.353 . S
C89 O88 1.286 . S
C89 C91 1.363 . S
C90 C80 1.465 . S
C90 U86 2.847 . S
C90 O104 1.249 . S
C90 O105 1.202 . S
C91 C89 1.363 . S
C91 C93 1.408 . S
C91 C96 1.342 . S
C92 C93 1.310 . S
C92 C95 1.461 . S
C92 H112 0.932 . S
C93 C91 1.408 . S
C93 C92 1.310 . S
C93 H113 0.930 . S
C94 C95 1.474 . S
C94 C96 1.285 . S
C94 H114 0.929 . S
C95 C92 1.461 . S
C95 C94 1.474 . S
C96 C91 1.342 . S
C96 C94 1.285 . S
C96 H115 0.930 . S
C97 C100 1.424 . S
C97 C102 1.245 1_554 S
C97 C103 1.428 . S
C98 C101 1.260 . S
C98 C102 1.477 . S
C98 H116 0.932 . S
C99 C100 1.384 . S
C99 C101 1.479 1_554 S
C99 H117 0.929 . S
C100 C97 1.424 . S
C100 C99 1.384 . S
C100 H118 0.928 . S
C101 C98 1.260 . S
C101 C99 1.479 1_556 S
C102 C97 1.245 1_556 S
C102 C98 1.477 . S
C102 H119 0.932 . S
C103 U86 2.882 . S
C103 C97 1.428 . S
C103 O106 1.300 1_554 S
C103 O107 1.282 . S
O104 U86 2.441 . S
O104 C90 1.249 . S
O105 U86 2.420 . S
O105 C90 1.202 . S
O106 U86 2.455 1_556 S
O106 C103 1.300 1_556 S
O107 U86 2.449 . S
O107 C103 1.282 . S
H108 C81 0.931 . S
H109 C83 0.929 . S
H110 C84 0.930 . S
H111 C85 0.931 . S
H112 C92 0.932 . S
H113 C93 0.930 . S
H114 C94 0.929 . S
H115 C96 0.930 . S
H116 C98 0.932 . S
H117 C99 0.929 . S
H118 C100 0.928 . S
H119 C102 0.932 . S
C120 C121 1.264 . S
C120 C125 1.479 . S
C120 C130 1.465 . S
C121 C120 1.264 . S
C121 C123 1.339 . S
C121 H148 0.931 . S
C122 C123 1.395 . S
C122 C124 1.320 . S
C123 C121 1.339 . S
C123 C122 1.395 . S
C123 H149 0.929 . S
C124 C122 1.320 . S
C124 C125 1.405 . S
C124 H150 0.930 1_655 S
C125 C120 1.479 . S
C125 C124 1.405 . S
C125 H151 0.931 1_655 S
U126 O127 2.454 1_655 S
U126 O128 2.458 . S
U126 C129 2.984 1_655 S
U126 C130 2.847 . S
U126 C143 2.882 . S
U126 O144 2.441 . S
U126 O145 2.420 . S
U126 O146 2.455 . S
U126 O147 2.449 . S
O127 U126 2.454 1_455 S
O127 C129 1.353 . S
O128 U126 2.458 . S
O128 C129 1.286 1_655 S
C129 U126 2.984 1_455 S
C129 O127 1.353 . S
C129 O128 1.286 1_455 S
C129 C131 1.363 . S
C130 C120 1.465 . S
C130 U126 2.847 . S
C130 O144 1.249 . S
C130 O145 1.202 . S
C131 C129 1.363 . S
C131 C133 1.408 . S
C131 C136 1.342 . S
C132 C133 1.310 . S
C132 C135 1.461 . S
C132 H152 0.932 . S
C133 C131 1.408 . S
C133 C132 1.310 . S
C133 H153 0.930 . S
C134 C135 1.474 . S
C134 C136 1.285 . S
C134 H154 0.929 . S
C135 C132 1.461 . S
C135 C134 1.474 . S
C136 C131 1.342 . S
C136 C134 1.285 . S
C136 H155 0.930 . S
C137 C140 1.424 . S
C137 C142 1.245 . S
C137 C143 1.428 . S
C138 C141 1.260 . S
C138 C142 1.477 . S
C138 H156 0.932 . S
C139 C140 1.384 . S
C139 C141 1.479 . S
C139 H157 0.929 . S
C140 C137 1.424 . S
C140 C139 1.384 . S
C140 H158 0.928 . S
C141 C138 1.260 . S
C141 C139 1.479 . S
C142 C137 1.245 . S
C142 C138 1.477 . S
C142 H159 0.932 . S
C143 U126 2.882 . S
C143 C137 1.428 . S
C143 O146 1.301 . S
C143 O147 1.282 . S
O144 U126 2.441 . S
O144 C130 1.249 . S
O145 U126 2.420 . S
O145 C130 1.202 . S
O146 U126 2.455 . S
O146 C143 1.301 . S
O147 U126 2.449 . S
O147 C143 1.282 . S
H148 C121 0.931 . S
H149 C123 0.929 . S
H150 C124 0.930 1_455 S
H151 C125 0.931 1_455 S
H152 C132 0.932 . S
H153 C133 0.930 . S
H154 C134 0.929 . S
H155 C136 0.930 . S
H156 C138 0.932 . S
H157 C139 0.929 . S
H158 C140 0.928 . S
H159 C142 0.932 . S
C160 C161 1.264 . S
C160 C165 1.479 . S
C160 C170 1.465 . S
C161 C160 1.264 . S
C161 C163 1.339 . S
C161 H188 0.931 . S
C162 C163 1.395 . S
C162 C164 1.320 . S
C163 C161 1.339 . S
C163 C162 1.395 . S
C163 H189 0.929 . S
C164 C162 1.320 . S
C164 C165 1.405 . S
C164 H190 0.930 . S
C165 C160 1.479 . S
C165 C164 1.405 . S
C165 H191 0.931 . S
U166 O167 2.454 . S
U166 O168 2.458 . S
U166 C169 2.984 . S
U166 C170 2.847 1_655 S
U166 C183 2.882 . S
U166 O184 2.441 1_655 S
U166 O185 2.420 . S
U166 O186 2.455 . S
U166 O187 2.449 . S
O167 U166 2.454 . S
O167 C169 1.353 . S
O168 U166 2.458 . S
O168 C169 1.286 . S
C169 U166 2.984 . S
C169 O167 1.353 . S
C169 O168 1.286 . S
C169 C171 1.363 . S
C170 C160 1.465 . S
C170 U166 2.847 1_455 S
C170 O184 1.249 . S
C170 O185 1.202 1_455 S
C171 C169 1.363 . S
C171 C173 1.408 . S
C171 C176 1.342 . S
C172 C173 1.310 . S
C172 C175 1.461 . S
C172 H192 0.932 1_665 S
C173 C171 1.408 . S
C173 C172 1.310 . S
C173 H193 0.930 1_655 S
C174 C175 1.474 . S
C174 C176 1.285 . S
C174 H194 0.929 . S
C175 C172 1.461 . S
C175 C174 1.474 . S
C176 C171 1.342 . S
C176 C174 1.285 . S
C176 H195 0.930 . S
C177 C180 1.424 . S
C177 C182 1.245 . S
C177 C183 1.428 . S
C178 C181 1.260 . S
C178 C182 1.477 . S
C178 H196 0.932 . S
C179 C180 1.384 . S
C179 C181 1.479 . S
C179 H197 0.929 . S
C180 C177 1.424 . S
C180 C179 1.384 . S
C180 H198 0.928 . S
C181 C178 1.260 . S
C181 C179 1.479 . S
C182 C177 1.245 . S
C182 C178 1.477 . S
C182 H199 0.932 . S
C183 U166 2.882 . S
C183 C177 1.428 . S
C183 O186 1.301 . S
C183 O187 1.282 . S
O184 U166 2.441 1_455 S
O184 C170 1.249 . S
O185 U166 2.420 . S
O185 C170 1.202 1_655 S
O186 U166 2.455 . S
O186 C183 1.301 . S
O187 U166 2.449 . S
O187 C183 1.282 . S
H188 C161 0.931 . S
H189 C163 0.929 . S
H190 C164 0.930 . S
H191 C165 0.931 . S
H192 C172 0.932 1_445 S
H193 C173 0.930 1_455 S
H194 C174 0.929 . S
H195 C176 0.930 . S
H196 C178 0.932 . S
H197 C179 0.929 . S
H198 C180 0.928 . S
H199 C182 0.932 . S
C200 C201 1.264 . S
C200 C205 1.479 . S
C200 C210 1.465 . S
C201 C200 1.264 . S
C201 C203 1.339 . S
C201 H228 0.931 . S
C202 C203 1.395 . S
C202 C204 1.320 . S
C203 C201 1.339 . S
C203 C202 1.395 . S
C203 H229 0.929 . S
C204 C202 1.320 . S
C204 C205 1.405 . S
C204 H230 0.929 . S
C205 C200 1.479 . S
C205 C204 1.405 . S
C205 H231 0.931 . S
U206 O207 2.454 1_554 S
U206 O208 2.458 1_554 S
U206 C209 2.984 1_554 S
U206 C210 2.847 . S
U206 C223 2.882 . S
U206 O224 2.441 . S
U206 O225 2.420 . S
U206 O226 2.455 . S
U206 O227 2.449 . S
O207 U206 2.454 1_556 S
O207 C209 1.353 . S
O208 U206 2.458 1_556 S
O208 C209 1.286 . S
C209 U206 2.984 1_556 S
C209 O207 1.353 . S
C209 O208 1.286 . S
C209 C211 1.363 . S
C210 C200 1.465 . S
C210 U206 2.847 . S
C210 O224 1.249 . S
C210 O225 1.202 . S
C211 C209 1.363 . S
C211 C213 1.408 . S
C211 C216 1.342 . S
C212 C213 1.310 . S
C212 C215 1.461 . S
C212 H232 0.932 . S
C213 C211 1.408 . S
C213 C212 1.310 . S
C213 H233 0.930 . S
C214 C215 1.474 . S
C214 C216 1.285 . S
C214 H234 0.929 . S
C215 C212 1.461 . S
C215 C214 1.474 . S
C216 C211 1.342 . S
C216 C214 1.285 . S
C216 H235 0.930 . S
C217 C220 1.424 . S
C217 C222 1.245 1_554 S
C217 C223 1.428 . S
C218 C221 1.260 . S
C218 C222 1.477 . S
C218 H236 0.932 . S
C219 C220 1.384 . S
C219 C221 1.479 1_554 S
C219 H237 0.929 . S
C220 C217 1.424 . S
C220 C219 1.384 . S
C220 H238 0.928 . S
C221 C218 1.260 . S
C221 C219 1.479 1_556 S
C222 C217 1.245 1_556 S
C222 C218 1.477 . S
C222 H239 0.932 . S
C223 U206 2.882 . S
C223 C217 1.428 . S
C223 O226 1.301 . S
C223 O227 1.282 . S
O224 U206 2.441 . S
O224 C210 1.249 . S
O225 U206 2.420 . S
O225 C210 1.202 . S
O226 U206 2.455 . S
O226 C223 1.301 . S
O227 U206 2.449 . S
O227 C223 1.282 . S
H228 C201 0.931 . S
H229 C203 0.929 . S
H230 C204 0.929 . S
H231 C205 0.931 . S
H232 C212 0.932 . S
H233 C213 0.930 . S
H234 C214 0.929 . S
H235 C216 0.930 . S
H236 C218 0.932 . S
H237 C219 0.929 . S
H238 C220 0.928 . S
H239 C222 0.932 . S
H240 C241 0.951 . S
C241 H240 0.951 . S
C241 C247 1.265 . S
H242 C247 0.950 . S
H243 C251 0.949 . S
H244 C252 0.950 . S
H245 C253 0.951 . S
H246 C254 0.951 . S
C247 C241 1.265 . S
C247 H242 0.950 . S
C247 C248 1.478 . S
C248 C247 1.478 . S
C248 C249 1.397 . S
C248 C265 1.394 . S
C249 C248 1.397 . S
C249 C250 1.438 . S
C249 C254 1.429 . S
C250 C249 1.438 . S
C250 C251 1.428 . S
C250 C263 1.394 . S
C251 H243 0.949 . S
C251 C250 1.428 . S
C251 C252 1.345 . S
C252 H244 0.950 . S
C252 C251 1.345 . S
C252 C253 1.424 . S
C253 H245 0.951 . S
C253 C252 1.424 . S
C253 C254 1.347 . S
C254 H246 0.951 . S
C254 C249 1.429 . S
C254 C253 1.347 . S
H255 C256 0.951 . S
C256 H255 0.951 . S
C256 C262 1.265 . S
H257 C262 0.950 . S
H258 C266 0.949 . S
H259 C267 0.950 . S
H260 C268 0.951 . S
H261 C269 0.951 . S
C262 C256 1.265 . S
C262 H257 0.950 . S
C262 C263 1.478 . S
C263 C250 1.394 . S
C263 C262 1.478 . S
C263 C264 1.397 . S
C264 C263 1.397 . S
C264 C265 1.438 . S
C264 C269 1.429 . S
C265 C248 1.394 . S
C265 C264 1.438 . S
C265 C266 1.428 . S
C266 H258 0.949 . S
C266 C265 1.428 . S
C266 C267 1.345 . S
C267 H259 0.950 . S
C267 C266 1.345 . S
C267 C268 1.424 . S
C268 H260 0.951 . S
C268 C267 1.424 . S
C268 C269 1.347 . S
C269 H261 0.951 . S
C269 C264 1.429 . S
C269 C268 1.347 . S
H270 C271 0.951 . S
C271 H270 0.951 . S
C271 C277 1.265 . S
H272 C277 0.950 . S
H273 C281 0.949 . S
H274 C282 0.950 . S
H275 C283 0.951 . S
H276 C284 0.951 . S
C277 C271 1.265 . S
C277 H272 0.950 . S
C277 C278 1.478 . S
C278 C277 1.478 . S
C278 C279 1.397 . S
C278 C295 1.394 . S
C279 C278 1.397 . S
C279 C280 1.438 . S
C279 C284 1.429 . S
C280 C279 1.438 . S
C280 C281 1.428 . S
C280 C293 1.394 . S
C281 H273 0.949 . S
C281 C280 1.428 . S
C281 C282 1.345 . S
C282 H274 0.950 . S
C282 C281 1.345 . S
C282 C283 1.424 . S
C283 H275 0.951 . S
C283 C282 1.424 . S
C283 C284 1.347 . S
C284 H276 0.951 . S
C284 C279 1.429 . S
C284 C283 1.347 . S
H285 C286 0.951 . S
C286 H285 0.951 . S
C286 C292 1.265 . S
H287 C292 0.950 . S
H288 C296 0.949 . S
H289 C297 0.950 . S
H290 C298 0.951 . S
H291 C299 0.951 . S
C292 C286 1.265 . S
C292 H287 0.950 . S
C292 C293 1.478 . S
C293 C280 1.394 . S
C293 C292 1.478 . S
C293 C294 1.397 . S
C294 C293 1.397 . S
C294 C295 1.438 . S
C294 C299 1.429 . S
C295 C278 1.394 . S
C295 C294 1.438 . S
C295 C296 1.428 . S
C296 H288 0.949 . S
C296 C295 1.428 . S
C296 C297 1.345 . S
C297 H289 0.950 . S
C297 C296 1.345 . S
C297 C298 1.424 . S
C298 H290 0.951 . S
C298 C297 1.424 . S
C298 C299 1.347 . S
C299 H291 0.951 . S
C299 C294 1.429 . S
C299 C298 1.347 . S
H300 C301 0.951 . S
C301 H300 0.951 . S
C301 C307 1.265 . S
H302 C307 0.950 . S
H303 C311 0.949 . S
H304 C312 0.950 . S
H305 C313 0.951 . S
H306 C314 0.951 . S
C307 C301 1.265 . S
C307 H302 0.950 . S
C307 C308 1.478 . S
C308 C307 1.478 . S
C308 C309 1.397 . S
C308 C325 1.394 . S
C309 C308 1.397 . S
C309 C310 1.438 . S
C309 C314 1.429 . S
C310 C309 1.438 . S
C310 C311 1.428 . S
C310 C323 1.394 . S
C311 H303 0.949 . S
C311 C310 1.428 . S
C311 C312 1.345 . S
C312 H304 0.950 . S
C312 C311 1.345 . S
C312 C313 1.424 . S
C313 H305 0.951 . S
C313 C312 1.424 . S
C313 C314 1.347 . S
C314 H306 0.951 . S
C314 C309 1.429 . S
C314 C313 1.347 . S
H315 C316 0.951 . S
C316 H315 0.951 . S
C316 C322 1.265 . S
H317 C322 0.950 . S
H318 C326 0.949 . S
H319 C327 0.950 . S
H320 C328 0.951 . S
H321 C329 0.951 . S
C322 C316 1.265 . S
C322 H317 0.950 . S
C322 C323 1.478 . S
C323 C310 1.394 . S
C323 C322 1.478 . S
C323 C324 1.397 . S
C324 C323 1.397 . S
C324 C325 1.438 . S
C324 C329 1.429 1_554 S
C325 C308 1.394 . S
C325 C324 1.438 . S
C325 C326 1.428 1_554 S
C326 H318 0.949 . S
C326 C325 1.428 1_556 S
C326 C327 1.345 . S
C327 H319 0.950 . S
C327 C326 1.345 . S
C327 C328 1.424 . S
C328 H320 0.951 . S
C328 C327 1.424 . S
C328 C329 1.347 . S
C329 H321 0.951 . S
C329 C324 1.429 1_556 S
C329 C328 1.347 . S
H330 C331 0.951 . S
C331 H330 0.951 . S
C331 C337 1.265 . S
H332 C337 0.950 . S
H333 C341 0.949 . S
H334 C342 0.950 . S
H335 C343 0.951 . S
H336 C344 0.951 . S
C337 C331 1.265 . S
C337 H332 0.950 . S
C337 C338 1.478 . S
C338 C337 1.478 . S
C338 C339 1.397 . S
C338 C355 1.394 . S
C339 C338 1.397 . S
C339 C340 1.438 . S
C339 C344 1.429 . S
C340 C339 1.438 . S
C340 C341 1.428 . S
C340 C353 1.394 . S
C341 H333 0.949 . S
C341 C340 1.428 . S
C341 C342 1.345 . S
C342 H334 0.950 . S
C342 C341 1.345 . S
C342 C343 1.424 . S
C343 H335 0.951 . S
C343 C342 1.424 . S
C343 C344 1.347 . S
C344 H336 0.951 . S
C344 C339 1.429 . S
C344 C343 1.347 . S
H345 C346 0.951 . S
C346 H345 0.951 . S
C346 C352 1.265 . S
H347 C352 0.950 . S
H348 C356 0.949 . S
H349 C357 0.950 . S
H350 C358 0.951 . S
H351 C359 0.951 . S
C352 C346 1.265 . S
C352 H347 0.950 . S
C352 C353 1.478 . S
C353 C340 1.394 . S
C353 C352 1.478 . S
C353 C354 1.397 . S
C354 C353 1.397 . S
C354 C355 1.438 . S
C354 C359 1.429 . S
C355 C338 1.394 . S
C355 C354 1.438 . S
C355 C356 1.428 . S
C356 H348 0.949 . S
C356 C355 1.428 . S
C356 C357 1.345 . S
C357 H349 0.950 . S
C357 C356 1.345 . S
C357 C358 1.424 . S
C358 H350 0.951 . S
C358 C357 1.424 . S
C358 C359 1.347 . S
C359 H351 0.951 . S
C359 C354 1.429 . S
C359 C358 1.347 . S
H360 C361 0.951 . S
C361 H360 0.951 . S
C361 C367 1.265 . S
H362 C367 0.950 . S
H363 C371 0.949 . S
H364 C372 0.950 . S
H365 C373 0.951 . S
H366 C374 0.951 . S
C367 C361 1.265 . S
C367 H362 0.950 . S
C367 C368 1.478 . S
C368 C367 1.478 . S
C368 C369 1.397 . S
C368 C385 1.394 . S
C369 C368 1.397 . S
C369 C370 1.438 . S
C369 C374 1.429 . S
C370 C369 1.438 . S
C370 C371 1.428 . S
C370 C383 1.394 . S
C371 H363 0.949 . S
C371 C370 1.428 . S
C371 C372 1.345 . S
C372 H364 0.950 . S
C372 C371 1.345 . S
C372 C373 1.424 . S
C373 H365 0.951 . S
C373 C372 1.424 . S
C373 C374 1.347 . S
C374 H366 0.951 . S
C374 C369 1.429 . S
C374 C373 1.347 . S
H375 C376 0.951 . S
C376 H375 0.951 . S
C376 C382 1.265 . S
H377 C382 0.950 . S
H378 C386 0.949 . S
H379 C387 0.950 . S
H380 C388 0.951 . S
H381 C389 0.951 . S
C382 C376 1.265 . S
C382 H377 0.950 . S
C382 C383 1.478 . S
C383 C370 1.394 . S
C383 C382 1.478 . S
C383 C384 1.397 . S
C384 C383 1.397 . S
C384 C385 1.438 . S
C384 C389 1.429 . S
C385 C368 1.394 . S
C385 C384 1.438 . S
C385 C386 1.428 . S
C386 H378 0.949 . S
C386 C385 1.428 . S
C386 C387 1.345 . S
C387 H379 0.950 . S
C387 C386 1.345 . S
C387 C388 1.424 . S
C388 H380 0.951 . S
C388 C387 1.424 . S
C388 C389 1.347 . S
C389 H381 0.951 . S
C389 C384 1.429 . S
C389 C388 1.347 . S
H390 C391 0.951 1_565 S
C391 H390 0.951 1_545 S
C391 C397 1.265 . S
H392 C397 0.950 . S
H393 C401 0.949 . S
H394 C402 0.950 . S
H395 C403 0.951 . S
H396 C404 0.951 . S
C397 C391 1.265 . S
C397 H392 0.950 . S
C397 C398 1.478 . S
C398 C397 1.478 . S
C398 C399 1.397 . S
C398 C415 1.394 . S
C399 C398 1.397 . S
C399 C400 1.438 . S
C399 C404 1.429 . S
C400 C399 1.438 . S
C400 C401 1.428 . S
C400 C413 1.394 . S
C401 H393 0.949 . S
C401 C400 1.428 . S
C401 C402 1.345 . S
C402 H394 0.950 . S
C402 C401 1.345 . S
C402 C403 1.424 . S
C403 H395 0.951 . S
C403 C402 1.424 . S
C403 C404 1.347 . S
C404 H396 0.951 . S
C404 C399 1.429 . S
C404 C403 1.347 . S
H405 C406 0.951 . S
C406 H405 0.951 . S
C406 C412 1.265 . S
H407 C412 0.950 . S
H408 C416 0.949 . S
H409 C417 0.950 . S
H410 C418 0.951 . S
H411 C419 0.951 . S
C412 C406 1.265 . S
C412 H407 0.950 . S
C412 C413 1.478 . S
C413 C400 1.394 . S
C413 C412 1.478 . S
C413 C414 1.397 . S
C414 C413 1.397 . S
C414 C415 1.438 . S
C414 C419 1.429 1_554 S
C415 C398 1.394 . S
C415 C414 1.438 . S
C415 C416 1.428 1_554 S
C416 H408 0.949 . S
C416 C415 1.428 1_556 S
C416 C417 1.345 . S
C417 H409 0.950 . S
C417 C416 1.345 . S
C417 C418 1.424 . S
C418 H410 0.951 . S
C418 C417 1.424 . S
C418 C419 1.347 . S
C419 H411 0.951 . S
C419 C414 1.429 1_556 S
C419 C418 1.347 . S
H420 C421 0.951 . S
C421 H420 0.951 . S
C421 C427 1.265 . S
H422 C427 0.950 . S
H423 C431 0.949 . S
H424 C432 0.950 . S
H425 C433 0.951 . S
H426 C434 0.951 . S
C427 C421 1.265 . S
C427 H422 0.950 . S
C427 C428 1.478 . S
C428 C427 1.478 . S
C428 C429 1.397 . S
C428 C445 1.394 . S
C429 C428 1.397 . S
C429 C430 1.438 . S
C429 C434 1.429 . S
C430 C429 1.438 . S
C430 C431 1.428 . S
C430 C443 1.394 . S
C431 H423 0.949 . S
C431 C430 1.428 . S
C431 C432 1.345 . S
C432 H424 0.950 . S
C432 C431 1.345 . S
C432 C433 1.424 . S
C433 H425 0.951 . S
C433 C432 1.424 . S
C433 C434 1.347 . S
C434 H426 0.951 . S
C434 C429 1.429 . S
C434 C433 1.347 . S
H435 C436 0.951 . S
C436 H435 0.951 . S
C436 C442 1.265 . S
H437 C442 0.950 . S
H438 C446 0.949 . S
H439 C447 0.950 . S
H440 C448 0.951 . S
H441 C449 0.951 . S
C442 C436 1.265 . S
C442 H437 0.950 . S
C442 C443 1.478 . S
C443 C430 1.394 . S
C443 C442 1.478 . S
C443 C444 1.397 . S
C444 C443 1.397 . S
C444 C445 1.438 . S
C444 C449 1.429 . S
C445 C428 1.394 . S
C445 C444 1.438 . S
C445 C446 1.428 . S
C446 H438 0.949 . S
C446 C445 1.428 . S
C446 C447 1.345 . S
C447 H439 0.950 . S
C447 C446 1.345 . S
C447 C448 1.424 . S
C448 H440 0.951 . S
C448 C447 1.424 . S
C448 C449 1.347 . S
C449 H441 0.951 . S
C449 C444 1.429 . S
C449 C448 1.347 . S
H450 C451 0.951 . S
C451 H450 0.951 . S
C451 C457 1.265 . S
H452 C457 0.950 . S
H453 C461 0.949 . S
H454 C462 0.950 . S
H455 C463 0.951 . S
H456 C464 0.951 . S
C457 C451 1.265 . S
C457 H452 0.950 . S
C457 C458 1.478 . S
C458 C457 1.478 . S
C458 C459 1.397 . S
C458 C475 1.394 . S
C459 C458 1.397 . S
C459 C460 1.438 . S
C459 C464 1.429 . S
C460 C459 1.438 . S
C460 C461 1.428 . S
C460 C473 1.394 . S
C461 H453 0.949 . S
C461 C460 1.428 . S
C461 C462 1.345 . S
C462 H454 0.950 . S
C462 C461 1.345 . S
C462 C463 1.424 . S
C463 H455 0.951 . S
C463 C462 1.424 . S
C463 C464 1.347 . S
C464 H456 0.951 . S
C464 C459 1.429 . S
C464 C463 1.347 . S
H465 C466 0.951 . S
C466 H465 0.951 . S
C466 C472 1.265 . S
H467 C472 0.950 . S
H468 C476 0.949 . S
H469 C477 0.950 . S
H470 C478 0.951 . S
H471 C479 0.951 . S
C472 C466 1.265 . S
C472 H467 0.950 . S
C472 C473 1.478 . S
C473 C460 1.394 . S
C473 C472 1.478 . S
C473 C474 1.397 . S
C474 C473 1.397 . S
C474 C475 1.438 . S
C474 C479 1.429 . S
C475 C458 1.394 . S
C475 C474 1.438 . S
C475 C476 1.428 . S
C476 H468 0.949 . S
C476 C475 1.428 . S
C476 C477 1.345 . S
C477 H469 0.950 . S
C477 C476 1.345 . S
C477 C478 1.424 . S
C478 H470 0.951 . S
C478 C477 1.424 . S
C478 C479 1.347 . S
C479 H471 0.951 . S
C479 C474 1.429 . S
C479 C478 1.347 . S
H480 C481 0.951 . S
C481 H480 0.951 . S
C481 C487 1.265 . S
H482 C487 0.950 . S
H483 C491 0.949 . S
H484 C492 0.950 . S
H485 C493 0.951 . S
H486 C494 0.951 . S
C487 C481 1.265 . S
C487 H482 0.950 . S
C487 C488 1.478 . S
C488 C487 1.478 . S
C488 C489 1.397 1_556 S
C488 C505 1.394 . S
C489 C488 1.397 1_554 S
C489 C490 1.438 . S
C489 C494 1.429 . S
C490 C489 1.438 . S
C490 C491 1.428 . S
C490 C503 1.394 1_554 S
C491 H483 0.949 . S
C491 C490 1.428 . S
C491 C492 1.345 . S
C492 H484 0.950 . S
C492 C491 1.345 . S
C492 C493 1.424 . S
C493 H485 0.951 . S
C493 C492 1.424 . S
C493 C494 1.347 . S
C494 H486 0.951 . S
C494 C489 1.429 . S
C494 C493 1.347 . S
H495 C496 0.951 . S
C496 H495 0.951 . S
C496 C502 1.265 . S
H497 C502 0.950 . S
H498 C506 0.949 . S
H499 C507 0.950 . S
H500 C508 0.951 . S
H501 C509 0.951 . S
C502 C496 1.265 . S
C502 H497 0.950 . S
C502 C503 1.478 . S
C503 C490 1.394 1_556 S
C503 C502 1.478 . S
C503 C504 1.397 . S
C504 C503 1.397 . S
C504 C505 1.438 . S
C504 C509 1.429 . S
C505 C488 1.394 . S
C505 C504 1.438 . S
C505 C506 1.428 . S
C506 H498 0.949 . S
C506 C505 1.428 . S
C506 C507 1.345 . S
C507 H499 0.950 . S
C507 C506 1.345 . S
C507 C508 1.424 . S
C508 H500 0.951 . S
C508 C507 1.424 . S
C508 C509 1.347 . S
C509 H501 0.951 . S
C509 C504 1.429 . S
C509 C508 1.347 . S
C241 C2 1.464 . S
C256 C55 1.492 . S
C271 C42 1.459 . S
C286 C95 1.491 . S
C301 C82 1.507 . S
C316 C135 1.497 . S
C331 C175 1.491 1_545 S
C346 C122 1.485 . S
C361 C162 1.459 . S
C376 C215 1.491 . S
C391 C202 1.504 1_545 S
C406 C15 1.498 . S
C421 C141 1.458 . S
C436 C21 1.494 . S
C451 C61 1.472 . S
C466 C181 1.472 . S
C481 C101 1.488 . S
C496 C221 1.485 . S
