# Generated by pormake.
# Topology crr, (4)-cn, num edge types: 1
# Building blocks:
#     Node 0, Type 0, BuildingBlock: NAWXER_clean_sbu_0, # of connection points: 4
#     Node 1, Type 0, BuildingBlock: NAWXER_clean_sbu_0, # of connection points: 4
#     Node 2, Type 0, BuildingBlock: NAWXER_clean_sbu_0, # of connection points: 4
#     Node 3, Type 0, BuildingBlock: NAWXER_clean_sbu_0, # of connection points: 4
#     Node 4, Type 0, BuildingBlock: NAWXER_clean_sbu_0, # of connection points: 4
#     Node 5, Type 0, BuildingBlock: NAWXER_clean_sbu_0, # of connection points: 4
#     Node 6, Type 0, BuildingBlock: NAWXER_clean_sbu_0, # of connection points: 4
#     Node 7, Type 0, BuildingBlock: NAWXER_clean_sbu_0, # of connection points: 4
#     Node 8, Type 0, BuildingBlock: NAWXER_clean_sbu_0, # of connection points: 4
#     Node 9, Type 0, BuildingBlock: NAWXER_clean_sbu_0, # of connection points: 4
#     Node 10, Type 0, BuildingBlock: NAWXER_clean_sbu_0, # of connection points: 4
#     Node 11, Type 0, BuildingBlock: NAWXER_clean_sbu_0, # of connection points: 4
#     Edge 12, Type (0, 0), BuildingBlock: CIFDUS_clean_linker_0, # of connection points: 2
#     Edge 13, Type (0, 0), BuildingBlock: CIFDUS_clean_linker_0, # of connection points: 2
#     Edge 14, Type (0, 0), BuildingBlock: CIFDUS_clean_linker_0, # of connection points: 2
#     Edge 15, Type (0, 0), BuildingBlock: CIFDUS_clean_linker_0, # of connection points: 2
#     Edge 16, Type (0, 0), BuildingBlock: CIFDUS_clean_linker_0, # of connection points: 2
#     Edge 17, Type (0, 0), BuildingBlock: CIFDUS_clean_linker_0, # of connection points: 2
#     Edge 18, Type (0, 0), BuildingBlock: CIFDUS_clean_linker_0, # of connection points: 2
#     Edge 19, Type (0, 0), BuildingBlock: CIFDUS_clean_linker_0, # of connection points: 2
#     Edge 20, Type (0, 0), BuildingBlock: CIFDUS_clean_linker_0, # of connection points: 2
#     Edge 21, Type (0, 0), BuildingBlock: CIFDUS_clean_linker_0, # of connection points: 2
#     Edge 22, Type (0, 0), BuildingBlock: CIFDUS_clean_linker_0, # of connection points: 2
#     Edge 23, Type (0, 0), BuildingBlock: CIFDUS_clean_linker_0, # of connection points: 2
#     Edge 24, Type (0, 0), BuildingBlock: CIFDUS_clean_linker_0, # of connection points: 2
#     Edge 25, Type (0, 0), BuildingBlock: CIFDUS_clean_linker_0, # of connection points: 2
#     Edge 26, Type (0, 0), BuildingBlock: CIFDUS_clean_linker_0, # of connection points: 2
#     Edge 27, Type (0, 0), BuildingBlock: CIFDUS_clean_linker_0, # of connection points: 2
#     Edge 28, Type (0, 0), BuildingBlock: CIFDUS_clean_linker_0, # of connection points: 2
#     Edge 29, Type (0, 0), BuildingBlock: CIFDUS_clean_linker_0, # of connection points: 2
#     Edge 30, Type (0, 0), BuildingBlock: CIFDUS_clean_linker_0, # of connection points: 2
#     Edge 31, Type (0, 0), BuildingBlock: CIFDUS_clean_linker_0, # of connection points: 2
#     Edge 32, Type (0, 0), BuildingBlock: CIFDUS_clean_linker_0, # of connection points: 2
#     Edge 33, Type (0, 0), BuildingBlock: CIFDUS_clean_linker_0, # of connection points: 2
#     Edge 34, Type (0, 0), BuildingBlock: CIFDUS_clean_linker_0, # of connection points: 2
#     Edge 35, Type (0, 0), BuildingBlock: CIFDUS_clean_linker_0, # of connection points: 2
# Relax obj value: 0.065
# Max RMSD: 0.110
# Mean RMSD: 0.110
data_MOF--net-crr--node1-NAWXER_clean_sbu_0--edge1-CIFDUS_clean_linker_0
_symmetry_space_group_name_H-M    P1
_symmetry_Int_Tables_number       1
_symmetry_cell_setting            triclinic
loop_
_symmetry_equiv_pos_as_xyz
'x, y, z'
_cell_length_a     34.688966
_cell_length_b     35.307152
_cell_length_c     35.159499
_cell_angle_alpha  89.489552
_cell_angle_beta   90.256302
_cell_angle_gamma 89.72551
loop_
_atom_site_label
_atom_site_type_symbol
_atom_site_fract_x
_atom_site_fract_y
_atom_site_fract_z
_atom_type_partial_charge
C0 C 0.11353 0.36466 0.45005 0.0
C1 C 0.1674 0.37153 0.32141 0.0
O2 O 0.13642 0.38943 0.43676 0.0
Zn3 Zn 0.14084 0.36889 0.38593 0.0
O4 O 0.10195 0.33777 0.42866 0.0
Zn5 Zn 0.10916 0.31998 0.37091 0.0
O6 O 0.13172 0.27046 0.3776 0.0
O7 O 0.17114 0.31623 0.39449 0.0
O8 O 0.14429 0.34355 0.32582 0.0
O9 O 0.17331 0.39378 0.34907 0.0
O10 O 0.08442 0.37955 0.36333 0.0
O11 O 0.0568 0.32464 0.35116 0.0
C12 C 0.16444 0.28085 0.39009 0.0
C13 C 0.05538 0.36059 0.35166 0.0
C14 C 0.36345 0.87622 0.72183 0.0
C15 C 0.34039 0.95372 0.60776 0.0
O16 O 0.34118 0.90499 0.72008 0.0
Zn17 Zn 0.35093 0.91796 0.66676 0.0
O18 O 0.38239 0.86631 0.69241 0.0
Zn19 Zn 0.3909 0.88192 0.6352 0.0
O20 O 0.44561 0.89628 0.63487 0.0
O21 O 0.40882 0.93576 0.66701 0.0
O22 O 0.3641 0.92621 0.60348 0.0
O23 O 0.32612 0.96045 0.64037 0.0
O24 O 0.32581 0.87148 0.63851 0.0
O25 O 0.37013 0.83753 0.60918 0.0
C26 C 0.44203 0.92624 0.65451 0.0
C27 C 0.33491 0.84323 0.61781 0.0
C28 C 0.89707 0.5179 0.35005 0.0
C29 C 0.85149 0.64739 0.37425 0.0
O30 O 0.91132 0.54308 0.32772 0.0
Zn31 Zn 0.90822 0.60314 0.31794 0.0
O32 O 0.87229 0.52768 0.37478 0.0
Zn33 Zn 0.87289 0.58159 0.36317 0.0
O34 O 0.8451 0.5846 0.30895 0.0
O35 O 0.88614 0.60699 0.26676 0.0
O36 O 0.84253 0.61742 0.39246 0.0
O37 O 0.87546 0.64524 0.34675 0.0
O38 O 0.96159 0.6179 0.32924 0.0
O39 O 0.93089 0.59409 0.37888 0.0
C40 C 0.85258 0.59486 0.27474 0.0
C41 C 0.96165 0.60728 0.36395 0.0
C42 C 0.62351 0.16489 0.67069 0.0
C43 C 0.66462 0.08357 0.56792 0.0
O44 O 0.64808 0.13951 0.68105 0.0
Zn45 Zn 0.68246 0.09583 0.65614 0.0
O46 O 0.61394 0.16819 0.63585 0.0
Zn47 Zn 0.64581 0.1273 0.61757 0.0
O48 O 0.62061 0.07884 0.6448 0.0
O49 O 0.66393 0.05026 0.68178 0.0
O50 O 0.64334 0.11285 0.56467 0.0
O51 O 0.68077 0.07548 0.59974 0.0
O52 O 0.73509 0.11373 0.6631 0.0
O53 O 0.70185 0.15009 0.62359 0.0
C54 C 0.63008 0.0518 0.66762 0.0
C55 C 0.7332 0.14284 0.64159 0.0
C56 C 0.1479 0.63137 0.66906 0.0
C57 C 0.10021 0.64059 0.53664 0.0
O58 O 0.15843 0.61038 0.64162 0.0
Zn59 Zn 0.12569 0.63371 0.6023 0.0
O60 O 0.12271 0.65745 0.663 0.0
Zn61 Zn 0.08893 0.68082 0.61718 0.0
O62 O 0.03602 0.67105 0.6335 0.0
O63 O 0.07003 0.6192 0.62228 0.0
O64 O 0.08641 0.6655 0.55907 0.0
O65 O 0.12372 0.61576 0.54951 0.0
O66 O 0.15184 0.68803 0.59782 0.0
O67 O 0.10938 0.73167 0.61417 0.0
C68 C 0.0387 0.63512 0.63286 0.0
C69 C 0.14322 0.72287 0.60329 0.0
C70 C 0.64938 0.94799 0.33243 0.0
C71 C 0.74261 0.84569 0.36044 0.0
O72 O 0.63633 0.92013 0.35192 0.0
Zn73 Zn 0.65502 0.86804 0.37701 0.0
O74 O 0.68428 0.94783 0.32116 0.0
Zn75 Zn 0.69759 0.89853 0.34428 0.0
O76 O 0.66261 0.86014 0.31273 0.0
O77 O 0.62173 0.83254 0.35211 0.0
O78 O 0.74907 0.87568 0.34118 0.0
O79 O 0.70919 0.8406 0.37477 0.0
O80 O 0.64849 0.87928 0.43042 0.0
O81 O 0.69201 0.91497 0.40171 0.0
C82 C 0.63498 0.83685 0.31867 0.0
C83 C 0.67216 0.90668 0.43116 0.0
C84 C 0.8873 0.36485 0.73419 0.0
C85 C 0.98291 0.35036 0.63293 0.0
O86 O 0.8775 0.37956 0.70212 0.0
Zn87 Zn 0.89862 0.3855 0.64556 0.0
O88 O 0.91955 0.3477 0.73745 0.0
Zn89 Zn 0.93573 0.35549 0.68472 0.0
O90 O 0.94318 0.416 0.68156 0.0
O91 O 0.90132 0.44006 0.64026 0.0
O92 O 0.98501 0.33611 0.66624 0.0
O93 O 0.95274 0.3688 0.62257 0.0
O94 O 0.86096 0.3567 0.61676 0.0
O95 O 0.89486 0.32088 0.65626 0.0
C96 C 0.92868 0.4448 0.66397 0.0
C97 C 0.86788 0.32432 0.63148 0.0
C98 C 0.46199 0.07211 0.35664 0.0
C99 C 0.35573 0.15757 0.39305 0.0
O100 O 0.46553 0.10101 0.37779 0.0
Zn101 Zn 0.41067 0.11633 0.37781 0.0
O102 O 0.42852 0.06301 0.34446 0.0
Zn103 Zn 0.37062 0.08113 0.3461 0.0
O104 O 0.36009 0.0932 0.29295 0.0
O105 O 0.40165 0.13178 0.32014 0.0
O106 O 0.34623 0.12905 0.37294 0.0
O107 O 0.39097 0.16234 0.40235 0.0
O108 O 0.38211 0.07363 0.41028 0.0
O109 O 0.34481 0.04001 0.37225 0.0
C110 C 0.38229 0.12177 0.29087 0.0
C111 C 0.35775 0.04691 0.40538 0.0
C112 C 0.36952 0.41388 0.07773 0.0
C113 C 0.38872 0.29769 0.15061 0.0
O114 O 0.39022 0.41012 0.10747 0.0
Zn115 Zn 0.37805 0.35746 0.11714 0.0
O116 O 0.34823 0.38662 0.06652 0.0
Zn117 Zn 0.33583 0.32958 0.08215 0.0
O118 O 0.28215 0.33031 0.09973 0.0
O119 O 0.32138 0.35946 0.13912 0.0
O120 O 0.3631 0.29472 0.12443 0.0
O121 O 0.40514 0.32936 0.15605 0.0
O122 O 0.39958 0.33124 0.0672 0.0
O123 O 0.35183 0.30519 0.03489 0.0
C124 C 0.28746 0.34817 0.13061 0.0
C125 C 0.38756 0.31287 0.0383 0.0
C126 C 0.28498 0.62666 0.85168 0.0
C127 C 0.35994 0.67041 0.96224 0.0
O128 O 0.27148 0.64178 0.88158 0.0
Zn129 Zn 0.3204 0.64982 0.90866 0.0
O130 O 0.32137 0.62132 0.84903 0.0
Zn131 Zn 0.37228 0.63083 0.88099 0.0
O132 O 0.39194 0.58011 0.89089 0.0
O133 O 0.33998 0.5945 0.92417 0.0
O134 O 0.37987 0.65609 0.93539 0.0
O135 O 0.32339 0.67298 0.95918 0.0
O136 O 0.34805 0.69131 0.87369 0.0
O137 O 0.40019 0.66551 0.84886 0.0
C138 C 0.36737 0.5715 0.91624 0.0
C139 C 0.37796 0.69401 0.85259 0.0
C140 C 0.61059 0.7069 0.13848 0.0
C141 C 0.62351 0.60184 0.05052 0.0
O142 O 0.59652 0.67571 0.15094 0.0
Zn143 Zn 0.58926 0.61868 0.13304 0.0
O144 O 0.62542 0.70831 0.10545 0.0
Zn145 Zn 0.61671 0.6557 0.09309 0.0
O146 O 0.55519 0.65394 0.08882 0.0
O147 O 0.53337 0.61315 0.13128 0.0
O148 O 0.63268 0.63609 0.04408 0.0
O149 O 0.60783 0.59247 0.08209 0.0
O150 O 0.61978 0.59198 0.17101 0.0
O151 O 0.65508 0.62788 0.13323 0.0
C152 C 0.52682 0.63692 0.10461 0.0
C153 C 0.65267 0.60473 0.16147 0.0
C154 C 0.593 0.33915 0.805 0.0
C155 C 0.61116 0.44448 0.89145 0.0
O156 O 0.58045 0.37281 0.80077 0.0
Zn157 Zn 0.60112 0.39176 0.8481 0.0
O158 O 0.61289 0.33022 0.83461 0.0
Zn159 Zn 0.63458 0.35659 0.88492 0.0
O160 O 0.6104 0.32786 0.92471 0.0
O161 O 0.56848 0.36085 0.8904 0.0
O162 O 0.62769 0.41395 0.90321 0.0
O163 O 0.59216 0.44427 0.86048 0.0
O164 O 0.66221 0.39059 0.83719 0.0
O165 O 0.68987 0.35164 0.87858 0.0
C166 C 0.57573 0.33745 0.91771 0.0
C167 C 0.69265 0.37433 0.85048 0.0
H168 H 0.24001 0.29452 0.40701 0.0
H169 H 0.15898 0.20387 0.3886 0.0
H170 H 0.2112 0.15761 0.39301 0.0
H171 H 0.27981 0.1434 0.39581 0.0
H172 H 0.36224 0.23314 0.4112 0.0
H173 H 0.30927 0.27934 0.41522 0.0
C174 C 0.23368 0.26461 0.40443 0.0
C175 C 0.19559 0.25274 0.39705 0.0
C176 C 0.26404 0.23808 0.40641 0.0
C177 C 0.18797 0.21385 0.39393 0.0
C178 C 0.21783 0.18736 0.39646 0.0
C179 C 0.28631 0.17305 0.40045 0.0
C180 C 0.32493 0.18495 0.40269 0.0
C181 C 0.25598 0.19925 0.40172 0.0
C182 C 0.33277 0.22329 0.40938 0.0
C183 C 0.30249 0.24969 0.41135 0.0
H184 H 0.2587 0.85829 0.61838 0.0
H185 H 0.34064 0.77042 0.59085 0.0
H186 H 0.28746 0.72617 0.58014 0.0
H187 H 0.21843 0.71128 0.58498 0.0
H188 H 0.13735 0.79917 0.61521 0.0
H189 H 0.18984 0.84488 0.61831 0.0
C190 C 0.26507 0.82951 0.60977 0.0
C191 C 0.30364 0.81746 0.60597 0.0
C192 C 0.23457 0.80429 0.60439 0.0
C193 C 0.31125 0.78033 0.5941 0.0
C194 C 0.28086 0.75503 0.58818 0.0
C195 C 0.21208 0.74054 0.59181 0.0
C196 C 0.17395 0.75169 0.60026 0.0
C197 C 0.24249 0.7665 0.59421 0.0
C198 C 0.16635 0.78976 0.6088 0.0
C199 C 0.19638 0.81588 0.61067 0.0
H200 H 0.73915 0.78382 0.40655 0.0
H201 H 0.81093 0.83756 0.32205 0.0
H202 H 0.85319 0.78182 0.32169 0.0
H203 H 0.86585 0.71572 0.34079 0.0
H204 H 0.79277 0.66169 0.42407 0.0
H205 H 0.75505 0.71997 0.42967 0.0
C206 C 0.76428 0.78362 0.3883 0.0
C207 C 0.77159 0.81476 0.36401 0.0
C208 C 0.78804 0.75133 0.38785 0.0
C209 C 0.80454 0.81404 0.34095 0.0
C210 C 0.8286 0.78207 0.34061 0.0
C211 C 0.84196 0.71674 0.36054 0.0
C212 C 0.83196 0.6841 0.38171 0.0
C213 C 0.82005 0.75021 0.36323 0.0
C214 C 0.80108 0.6862 0.40734 0.0
C215 C 0.77939 0.71952 0.41045 0.0
H216 H 0.87332 0.25374 0.66258 0.0
H217 H 0.80562 0.32077 0.58332 0.0
H218 H 0.75977 0.26881 0.57713 0.0
H219 H 0.73615 0.2069 0.59841 0.0
H220 H 0.80249 0.14083 0.67957 0.0
H221 H 0.85191 0.18999 0.68057 0.0
C222 C 0.84881 0.25693 0.64355 0.0
C223 C 0.84282 0.29134 0.62363 0.0
C224 C 0.8222 0.22723 0.64069 0.0
C225 C 0.81092 0.29475 0.59906 0.0
C226 C 0.78461 0.26507 0.59562 0.0
C227 C 0.76158 0.20296 0.61609 0.0
C228 C 0.7654 0.17026 0.63916 0.0
C229 C 0.78952 0.23157 0.61697 0.0
C230 C 0.7987 0.16569 0.66165 0.0
C231 C 0.82693 0.19386 0.6623 0.0
H232 H 0.35183 0.23006 0.15138 0.0
H233 H 0.44412 0.29129 0.20582 0.0
H234 H 0.4533 0.23911 0.25101 0.0
H235 H 0.4312 0.17962 0.27842 0.0
H236 H 0.33633 0.11975 0.22697 0.0
H237 H 0.33268 0.1678 0.17638 0.0
C238 C 0.37426 0.23188 0.17285 0.0
C239 C 0.39701 0.26474 0.17551 0.0
C240 C 0.37887 0.20213 0.19917 0.0
C241 C 0.42602 0.26651 0.20339 0.0
C242 C 0.43128 0.23669 0.2292 0.0
C243 C 0.4099 0.17672 0.25596 0.0
C244 C 0.38369 0.1464 0.25674 0.0
C245 C 0.40725 0.20488 0.22787 0.0
C246 C 0.35673 0.14288 0.2271 0.0
C247 C 0.35449 0.17047 0.19835 0.0
H248 H 0.21174 0.65188 0.83612 0.0
H249 H 0.30314 0.5821 0.79154 0.0
H250 H 0.26751 0.57442 0.73225 0.0
H251 H 0.2131 0.59232 0.69046 0.0
H252 H 0.12265 0.6637 0.73446 0.0
H253 H 0.15486 0.66558 0.79608 0.0
C254 C 0.22353 0.63446 0.8137 0.0
C255 C 0.26021 0.61787 0.81832 0.0
C256 C 0.20317 0.63068 0.77916 0.0
C257 C 0.2751 0.59551 0.78877 0.0
C258 C 0.25476 0.59111 0.7547 0.0
C259 C 0.20016 0.60781 0.71368 0.0
C260 C 0.16566 0.62808 0.70754 0.0
C261 C 0.21918 0.60932 0.74916 0.0
C262 C 0.14938 0.64807 0.73809 0.0
C263 C 0.16779 0.64922 0.77349 0.0
H264 H 0.57437 0.71374 0.20592 0.0
H265 H 0.65144 0.77277 0.12994 0.0
H266 H 0.66275 0.82073 0.1785 0.0
H267 H 0.65634 0.84139 0.24461 0.0
H268 H 0.58126 0.78044 0.32112 0.0
H269 H 0.56344 0.7376 0.26991 0.0
C270 C 0.59333 0.73732 0.19972 0.0
C271 C 0.61251 0.7394 0.16457 0.0
C272 C 0.60034 0.76414 0.22795 0.0
C273 C 0.63647 0.77044 0.15683 0.0
C274 C 0.64312 0.79771 0.18466 0.0
C275 C 0.63578 0.81897 0.25006 0.0
C276 C 0.62059 0.81376 0.28683 0.0
C277 C 0.62612 0.79413 0.22068 0.0
C278 C 0.59363 0.78487 0.29321 0.0
C279 C 0.58347 0.76034 0.26397 0.0
H280 H 0.7599 0.33343 0.85761 0.0
H281 H 0.7095 0.43077 0.80064 0.0
H282 H 0.76769 0.43892 0.7633 0.0
H283 H 0.82965 0.41511 0.7421 0.0
H284 H 0.88075 0.31672 0.79596 0.0
H285 H 0.82599 0.31279 0.83985 0.0
C286 C 0.76193 0.35671 0.8374 0.0
C287 C 0.73011 0.38113 0.8316 0.0
C288 C 0.79554 0.36101 0.8154 0.0
C289 C 0.73326 0.41123 0.80537 0.0
C290 C 0.76658 0.41599 0.78398 0.0
C291 C 0.82913 0.39303 0.76375 0.0
C292 C 0.85894 0.36598 0.7655 0.0
C293 C 0.79739 0.39051 0.78805 0.0
C294 C 0.85813 0.33792 0.79407 0.0
C295 C 0.82666 0.3355 0.81892 0.0
H296 H 0.41857 0.82446 0.73756 0.0
H297 H 0.31251 0.87084 0.78136 0.0
H298 H 0.30995 0.81972 0.82893 0.0
H299 H 0.3336 0.75779 0.85206 0.0
H300 H 0.43787 0.71029 0.80507 0.0
H301 H 0.44528 0.76615 0.76446 0.0
C302 C 0.39509 0.82376 0.75783 0.0
C303 C 0.36543 0.85107 0.7556 0.0
C304 C 0.39323 0.79382 0.78406 0.0
C305 C 0.33564 0.85013 0.78247 0.0
C306 C 0.33401 0.82072 0.8094 0.0
C307 C 0.35821 0.75978 0.83325 0.0
C308 C 0.38487 0.72959 0.83121 0.0
C309 C 0.36195 0.79172 0.80952 0.0
C310 C 0.41674 0.73288 0.80694 0.0
C311 C 0.421 0.76481 0.78372 0.0
H312 H 0.72692 0.62593 0.14736 0.0
H313 H 0.65752 0.56208 0.22667 0.0
H314 H 0.71402 0.55115 0.26697 0.0
H315 H 0.7818 0.56327 0.28196 0.0
H316 H 0.85157 0.6276 0.20349 0.0
H317 H 0.79627 0.63436 0.16038 0.0
C318 C 0.72415 0.60934 0.1733 0.0
C319 C 0.68779 0.59511 0.18405 0.0
C320 C 0.75681 0.60331 0.19655 0.0
C321 C 0.68497 0.57349 0.21768 0.0
C322 C 0.7173 0.56728 0.24082 0.0
C323 C 0.78513 0.57852 0.25527 0.0
C324 C 0.82083 0.59517 0.24617 0.0
C325 C 0.75317 0.5826 0.23087 0.0
C326 C 0.82453 0.6145 0.21127 0.0
C327 C 0.79282 0.61853 0.18668 0.0
H328 H 0.59608 0.23683 0.65977 0.0
H329 H 0.61867 0.15208 0.74641 0.0
H330 H 0.60589 0.19815 0.79589 0.0
H331 H 0.59683 0.26368 0.81447 0.0
H332 H 0.57687 0.35014 0.72914 0.0
H333 H 0.57934 0.30216 0.67918 0.0
C334 C 0.59736 0.22837 0.68948 0.0
C335 C 0.60885 0.19132 0.69949 0.0
C336 C 0.59084 0.25534 0.71797 0.0
C337 C 0.61045 0.18062 0.73805 0.0
C338 C 0.60317 0.20692 0.76637 0.0
C339 C 0.59253 0.27201 0.78496 0.0
C340 C 0.58737 0.31037 0.77537 0.0
C341 C 0.59476 0.24458 0.75664 0.0
C342 C 0.58108 0.32071 0.73716 0.0
C343 C 0.58272 0.29333 0.70862 0.0
H344 H 0.28603 0.39787 0.1887 0.0
H345 H 0.2195 0.30893 0.13713 0.0
H346 H 0.17459 0.3101 0.19075 0.0
H347 H 0.15815 0.33224 0.25525 0.0
H348 H 0.22566 0.42105 0.30617 0.0
H349 H 0.26615 0.42407 0.24976 0.0
C350 C 0.26142 0.37902 0.18888 0.0
C351 C 0.25637 0.35307 0.15907 0.0
C352 C 0.2361 0.37957 0.21992 0.0
C353 C 0.22406 0.32922 0.15961 0.0
C354 C 0.19854 0.32969 0.19044 0.0
C355 C 0.18148 0.35253 0.25388 0.0
C356 C 0.18905 0.37609 0.28525 0.0
C357 C 0.20488 0.35407 0.22124 0.0
C358 C 0.21919 0.40245 0.28269 0.0
C359 C 0.24247 0.40416 0.2504 0.0
H360 H 0.01842 0.40671 0.59534 0.0
H361 H 0.01697 0.28533 0.60844 0.0
H362 H 0.06028 0.27887 0.55378 0.0
H363 H 0.09249 0.30796 0.49818 0.0
H364 H 0.09674 0.42966 0.48765 0.0
H365 H 0.05886 0.43601 0.54579 0.0
C366 C 0.02835 0.37893 0.58661 0.0
C367 C 0.01459 0.34649 0.60549 0.0
C368 C 0.05344 0.37559 0.55558 0.0
C369 C 0.02753 0.31061 0.59432 0.0
C370 C 0.05199 0.30696 0.56296 0.0
C371 C 0.08566 0.33584 0.50907 0.0
C372 C 0.09699 0.36832 0.48852 0.0
C373 C 0.06425 0.33924 0.54275 0.0
C374 C 0.08841 0.40429 0.50303 0.0
C375 C 0.06654 0.40791 0.53612 0.0
H376 H 0.34741 0.0732 0.47633 0.0
H377 H 0.3394 0.9719 0.40916 0.0
H378 H 0.32763 0.93431 0.46686 0.0
H379 H 0.32821 0.92965 0.53666 0.0
H380 H 0.33521 0.03087 0.60391 0.0
H381 H 0.33789 0.0696 0.54569 0.0
C382 C 0.34263 0.04292 0.47437 0.0
C383 C 0.34502 0.02503 0.43884 0.0
C384 C 0.33568 0.02173 0.50752 0.0
C385 C 0.33792 0.98608 0.43632 0.0
C386 C 0.33133 0.96466 0.46925 0.0
C387 C 0.3294 0.9603 0.53845 0.0
C388 C 0.33191 0.97757 0.57425 0.0
C389 C 0.33134 0.98207 0.50503 0.0
C390 C 0.33307 0.01715 0.57655 0.0
C391 C 0.33503 0.03915 0.54331 0.0
H392 H 0.08229 0.57906 0.49393 0.0
H393 H 0.08296 0.7011 0.49183 0.0
H394 H 0.04497 0.70174 0.43317 0.0
H395 H 1.00292 0.6678 0.38819 0.0
H396 H 0.99708 0.54613 0.39424 0.0
H397 H 0.04577 0.54488 0.4448 0.0
C398 C 0.0751 0.60568 0.4799 0.0
C399 C 0.08541 0.63995 0.4971 0.0
C400 C 0.05178 0.60585 0.44696 0.0
C401 C 0.07527 0.67432 0.47908 0.0
C402 C 0.05338 0.67473 0.44562 0.0
C403 C 0.01336 0.64108 0.39983 0.0
C404 C 0.99696 0.6071 0.38742 0.0
C405 C 0.04019 0.64073 0.43008 0.0
C406 C 0.00976 0.57259 0.40328 0.0
C407 C 0.03738 0.57189 0.43234 0.0
H408 H 0.66681 0.00821 0.57699 0.0
H409 H 0.66587 0.09628 0.49109 0.0
H410 H 0.66959 0.04823 0.44119 0.0
H411 H 0.67301 0.98168 0.4227 0.0
H412 H 0.66804 0.89335 0.50804 0.0
H413 H 0.66671 0.94139 0.55824 0.0
C414 C 0.66779 0.01686 0.5473 0.0
C415 C 0.66684 0.05557 0.53744 0.0
C416 C 0.66884 0.98921 0.51911 0.0
C417 C 0.66691 0.06658 0.49908 0.0
C418 C 0.66905 0.0392 0.47073 0.0
C419 C 0.67204 0.97297 0.45237 0.0
C420 C 0.67147 0.93424 0.46206 0.0
C421 C 0.67014 0.00053 0.48053 0.0
C422 C 0.6689 0.92309 0.50027 0.0
C423 C 0.66814 0.95047 0.52875 0.0
H424 H 0.54016 0.08459 0.36707 0.0
H425 H 0.45863 0.00548 0.31961 0.0
H426 H 0.51065 0.96377 0.3014 0.0
H427 H 0.57821 0.94589 0.3044 0.0
H428 H 0.66145 0.02169 0.35274 0.0
H429 H 0.61043 0.06882 0.36405 0.0
C430 C 0.53391 0.05832 0.35263 0.0
C431 C 0.4953 0.04818 0.34529 0.0
C432 C 0.56436 0.03394 0.34189 0.0
C433 C 0.48784 0.01414 0.32605 0.0
C434 C 0.51764 0.99012 0.31538 0.0
C435 C 0.58532 0.97335 0.31614 0.0
C436 C 0.62337 0.98068 0.32718 0.0
C437 C 0.55584 -0.00063 0.3237 0.0
C438 C 0.63238 0.01592 0.34309 0.0
C439 C 0.60307 0.04251 0.35022 0.0
H440 H 0.04075 0.58123 0.68624 0.0
H441 H 0.96661 0.63211 0.60147 0.0
H442 H 0.92227 0.5782 0.60644 0.0
H443 H 0.91081 0.51208 0.62798 0.0
H444 H 0.9869 0.46229 0.7125 0.0
H445 H 0.02394 0.52036 0.71489 0.0
C446 C 0.01415 0.581 0.66984 0.0
C447 C 0.00665 0.61031 0.64368 0.0
C448 C 0.98958 0.54976 0.6723 0.0
C449 C 0.97248 0.60992 0.6222 0.0
C450 C 0.9475 0.57889 0.62471 0.0
C451 C 0.93506 0.51421 0.64739 0.0
C452 C 0.94647 0.48248 0.66939 0.0
C453 C 0.95665 0.54789 0.64855 0.0
C454 C 0.97773 0.48593 0.69475 0.0
C455 C 0.99903 0.51919 0.69621 0.0
H456 H 0.55514 0.06199 0.68019 0.0
H457 H 0.64107 0.9748 0.66708 0.0
H458 H 0.5902 0.92676 0.66203 0.0
H459 H 0.52028 0.91108 0.65543 0.0
H460 H 0.43629 0.00061 0.66949 0.0
H461 H 0.48723 0.04605 0.67977 0.0
C462 C 0.5627 0.0323 0.6771 0.0
C463 C 0.60152 0.02177 0.67413 0.0
C464 C 0.53355 0.00534 0.67365 0.0
C465 C 0.61121 0.98336 0.67004 0.0
C466 C 0.58213 0.95605 0.66661 0.0
C467 C 0.51332 0.94051 0.66084 0.0
C468 C 0.47449 0.95238 0.66137 0.0
C469 C 0.54305 0.9669 0.66729 0.0
C470 C 0.46584 0.99056 0.66893 0.0
C471 C 0.49496 0.01672 0.67485 0.0
H472 H 0.94364 0.48772 0.29663 0.0
H473 H 0.89047 0.46198 0.40447 0.0
H474 H 0.93142 0.40568 0.41142 0.0
H475 H 0.98985 0.37032 0.39175 0.0
H476 H 0.04547 0.39994 0.28644 0.0
H477 H 0.99596 0.44794 0.27327 0.0
C478 C 0.94038 0.46941 0.32134 0.0
C479 C 0.91442 0.47942 0.35027 0.0
C480 C 0.9648 0.43788 0.32566 0.0
C481 C 0.91029 0.45507 0.38183 0.0
C482 C 0.93394 0.42299 0.38595 0.0
C483 C 0.99014 0.38648 0.36536 0.0
C484 C 0.02068 0.38153 0.33973 0.0
C485 C 0.96235 0.41501 0.35878 0.0
C486 C 0.02174 0.40311 0.30613 0.0
C487 C 0.99367 0.4307 0.29881 0.0
H488 H 0.38036 0.41494 0.00235 0.0
H489 H 0.36528 0.48785 0.09891 0.0
H490 H 0.3638 0.54347 0.05652 0.0
H491 H 0.36359 0.57038 0.99192 0.0
H492 H 0.38361 0.49848 0.89559 0.0
H493 H 0.38692 0.44281 0.93807 0.0
C494 C 0.37703 0.44314 0.01399 0.0
C495 C 0.37236 0.44767 0.0534 0.0
C496 C 0.37715 0.47473 0.98961 0.0
C497 C 0.36881 0.48403 0.06859 0.0
C498 C 0.3679 0.51564 0.0444 0.0
C499 C 0.36885 0.54248 0.98035 0.0
C500 C 0.37272 0.53809 0.94087 0.0
C501 C 0.37149 0.51119 0.0049 0.0
C502 C 0.38036 0.50219 0.92596 0.0
C503 C 0.38213 0.47055 0.95018 0.0
H504 H 0.36371 0.62884 0.02681 0.0
H505 H 0.40623 0.73037 0.97326 0.0
H506 H 0.46069 0.73156 0.0176 0.0
H507 H 0.50218 0.69692 0.0625 0.0
H508 H 0.46265 0.59246 0.11316 0.0
H509 H 0.40112 0.59908 0.07931 0.0
C510 C 0.38406 0.65204 0.02608 0.0
C511 C 0.38085 0.6798 0.99729 0.0
C512 C 0.41648 0.65123 0.05032 0.0
C513 C 0.40778 0.70927 0.99581 0.0
C514 C 0.43926 0.70952 0.0207 0.0
C515 C 0.47989 0.67585 0.06661 0.0
C516 C 0.4873 0.64383 0.08972 0.0
C517 C 0.44494 0.67954 0.04662 0.0
C518 C 0.45784 0.6172 0.09529 0.0
C519 C 0.42267 0.62092 0.07582 0.0
H520 H 0.6434 0.45086 0.96117 0.0
H521 H 0.58546 0.51625 0.87358 0.0
H522 H 0.58839 0.57264 0.91354 0.0
H523 H 0.6036 0.60216 0.97559 0.0
H524 H 0.65717 0.53435 0.0638 0.0
H525 H 0.66048 0.48024 0.02115 0.0
C526 C 0.6316 0.47746 0.95059 0.0
C527 C 0.61404 0.47924 0.91451 0.0
C528 C 0.63282 0.50941 0.97384 0.0
C529 C 0.59892 0.51402 0.90136 0.0
C530 C 0.60065 0.5463 0.92417 0.0
C531 C 0.61669 0.5757 0.98497 0.0
C532 C 0.63045 0.57206 0.02246 0.0
C533 C 0.61709 0.54421 0.9607 0.0
C534 C 0.6466 0.53759 0.03489 0.0
C535 C 0.64831 0.50668 0.01063 0.0
H536 H 0.461 0.29046 0.04722 0.0
H537 H 0.37736 0.3223 0.96169 0.0
H538 H 0.42904 0.33031 0.91492 0.0
H539 H 0.49868 0.33713 0.90161 0.0
H540 H 0.58168 0.30534 0.98817 0.0
H541 H 0.52959 0.28837 0.03132 0.0
C542 C 0.45405 0.29801 0.01797 0.0
C543 C 0.4156 0.30583 0.00778 0.0
C544 C 0.48387 0.30338 0.99175 0.0
C545 C 0.40675 0.31565 0.96997 0.0
C546 C 0.43636 0.32079 0.94345 0.0
C547 C 0.50533 0.32611 0.92978 0.0
C548 C 0.54403 0.32318 0.94191 0.0
C549 C 0.47514 0.31623 0.9545 0.0
C550 C 0.5522 0.30818 0.97822 0.0
C551 C 0.52242 0.29847 0.00295 0.0
loop_
_geom_bond_atom_site_label_1
_geom_bond_atom_site_label_2
_geom_bond_distance
_geom_bond_site_symmetry_2
_ccdc_geom_bond_type
C0 O2 1.247 . S
C0 O4 1.258 . S
C1 O8 1.247 . S
C1 O9 1.258 . S
O2 C0 1.247 . S
O2 Zn3 2.028 . S
Zn3 O2 2.028 . S
Zn3 O7 2.035 . S
Zn3 O9 2.035 . S
Zn3 O10 2.028 . S
O4 C0 1.258 . S
O4 Zn5 2.035 . S
Zn5 O4 2.035 . S
Zn5 O6 2.028 . S
Zn5 O8 2.028 . S
Zn5 O11 2.035 . S
O6 Zn5 2.028 . S
O6 C12 1.247 . S
O7 Zn3 2.035 . S
O7 C12 1.258 . S
O8 C1 1.247 . S
O8 Zn5 2.028 . S
O9 C1 1.258 . S
O9 Zn3 2.035 . S
O10 Zn3 2.028 . S
O10 C13 1.247 . S
O11 Zn5 2.035 . S
O11 C13 1.258 . S
C12 O6 1.247 . S
C12 O7 1.258 . S
C13 O10 1.247 . S
C13 O11 1.258 . S
C14 O16 1.247 . S
C14 O18 1.258 . S
C15 O22 1.247 . S
C15 O23 1.258 . S
O16 C14 1.247 . S
O16 Zn17 2.028 . S
Zn17 O16 2.028 . S
Zn17 O21 2.035 . S
Zn17 O23 2.035 . S
Zn17 O24 2.028 . S
O18 C14 1.258 . S
O18 Zn19 2.035 . S
Zn19 O18 2.035 . S
Zn19 O20 2.028 . S
Zn19 O22 2.028 . S
Zn19 O25 2.035 . S
O20 Zn19 2.028 . S
O20 C26 1.247 . S
O21 Zn17 2.035 . S
O21 C26 1.258 . S
O22 C15 1.247 . S
O22 Zn19 2.028 . S
O23 C15 1.258 . S
O23 Zn17 2.035 . S
O24 Zn17 2.028 . S
O24 C27 1.247 . S
O25 Zn19 2.035 . S
O25 C27 1.258 . S
C26 O20 1.247 . S
C26 O21 1.258 . S
C27 O24 1.247 . S
C27 O25 1.258 . S
C28 O30 1.247 . S
C28 O32 1.258 . S
C29 O36 1.247 . S
C29 O37 1.258 . S
O30 C28 1.247 . S
O30 Zn31 2.028 . S
Zn31 O30 2.028 . S
Zn31 O35 2.035 . S
Zn31 O37 2.035 . S
Zn31 O38 2.028 . S
O32 C28 1.258 . S
O32 Zn33 2.035 . S
Zn33 O32 2.035 . S
Zn33 O34 2.028 . S
Zn33 O36 2.028 . S
Zn33 O39 2.035 . S
O34 Zn33 2.028 . S
O34 C40 1.247 . S
O35 Zn31 2.035 . S
O35 C40 1.258 . S
O36 C29 1.247 . S
O36 Zn33 2.028 . S
O37 C29 1.258 . S
O37 Zn31 2.035 . S
O38 Zn31 2.028 . S
O38 C41 1.247 . S
O39 Zn33 2.035 . S
O39 C41 1.258 . S
C40 O34 1.247 . S
C40 O35 1.258 . S
C41 O38 1.247 . S
C41 O39 1.258 . S
C42 O44 1.247 . S
C42 O46 1.258 . S
C43 O50 1.247 . S
C43 O51 1.258 . S
O44 C42 1.247 . S
O44 Zn45 2.028 . S
Zn45 O44 2.028 . S
Zn45 O49 2.035 . S
Zn45 O51 2.035 . S
Zn45 O52 2.028 . S
O46 C42 1.258 . S
O46 Zn47 2.035 . S
Zn47 O46 2.035 . S
Zn47 O48 2.028 . S
Zn47 O50 2.028 . S
Zn47 O53 2.035 . S
O48 Zn47 2.028 . S
O48 C54 1.247 . S
O49 Zn45 2.035 . S
O49 C54 1.258 . S
O50 C43 1.247 . S
O50 Zn47 2.028 . S
O51 C43 1.258 . S
O51 Zn45 2.035 . S
O52 Zn45 2.028 . S
O52 C55 1.247 . S
O53 Zn47 2.035 . S
O53 C55 1.258 . S
C54 O48 1.247 . S
C54 O49 1.258 . S
C55 O52 1.247 . S
C55 O53 1.258 . S
C56 O58 1.247 . S
C56 O60 1.258 . S
C57 O64 1.247 . S
C57 O65 1.258 . S
O58 C56 1.247 . S
O58 Zn59 2.028 . S
Zn59 O58 2.028 . S
Zn59 O63 2.035 . S
Zn59 O65 2.035 . S
Zn59 O66 2.028 . S
O60 C56 1.258 . S
O60 Zn61 2.035 . S
Zn61 O60 2.035 . S
Zn61 O62 2.028 . S
Zn61 O64 2.028 . S
Zn61 O67 2.035 . S
O62 Zn61 2.028 . S
O62 C68 1.247 . S
O63 Zn59 2.035 . S
O63 C68 1.258 . S
O64 C57 1.247 . S
O64 Zn61 2.028 . S
O65 C57 1.258 . S
O65 Zn59 2.035 . S
O66 Zn59 2.028 . S
O66 C69 1.247 . S
O67 Zn61 2.035 . S
O67 C69 1.258 . S
C68 O62 1.247 . S
C68 O63 1.258 . S
C69 O66 1.247 . S
C69 O67 1.258 . S
C70 O72 1.247 . S
C70 O74 1.258 . S
C71 O78 1.247 . S
C71 O79 1.258 . S
O72 C70 1.247 . S
O72 Zn73 2.028 . S
Zn73 O72 2.028 . S
Zn73 O77 2.035 . S
Zn73 O79 2.035 . S
Zn73 O80 2.028 . S
O74 C70 1.258 . S
O74 Zn75 2.035 . S
Zn75 O74 2.035 . S
Zn75 O76 2.028 . S
Zn75 O78 2.028 . S
Zn75 O81 2.035 . S
O76 Zn75 2.028 . S
O76 C82 1.247 . S
O77 Zn73 2.035 . S
O77 C82 1.258 . S
O78 C71 1.247 . S
O78 Zn75 2.028 . S
O79 C71 1.258 . S
O79 Zn73 2.035 . S
O80 Zn73 2.028 . S
O80 C83 1.247 . S
O81 Zn75 2.035 . S
O81 C83 1.258 . S
C82 O76 1.247 . S
C82 O77 1.258 . S
C83 O80 1.247 . S
C83 O81 1.258 . S
C84 O86 1.247 . S
C84 O88 1.258 . S
C85 O92 1.247 . S
C85 O93 1.258 . S
O86 C84 1.247 . S
O86 Zn87 2.028 . S
Zn87 O86 2.028 . S
Zn87 O91 2.035 . S
Zn87 O93 2.035 . S
Zn87 O94 2.028 . S
O88 C84 1.258 . S
O88 Zn89 2.035 . S
Zn89 O88 2.035 . S
Zn89 O90 2.028 . S
Zn89 O92 2.028 . S
Zn89 O95 2.035 . S
O90 Zn89 2.028 . S
O90 C96 1.247 . S
O91 Zn87 2.035 . S
O91 C96 1.258 . S
O92 C85 1.247 . S
O92 Zn89 2.028 . S
O93 C85 1.258 . S
O93 Zn87 2.035 . S
O94 Zn87 2.028 . S
O94 C97 1.247 . S
O95 Zn89 2.035 . S
O95 C97 1.258 . S
C96 O90 1.247 . S
C96 O91 1.258 . S
C97 O94 1.247 . S
C97 O95 1.258 . S
C98 O100 1.247 . S
C98 O102 1.258 . S
C99 O106 1.247 . S
C99 O107 1.258 . S
O100 C98 1.247 . S
O100 Zn101 2.028 . S
Zn101 O100 2.028 . S
Zn101 O105 2.035 . S
Zn101 O107 2.035 . S
Zn101 O108 2.028 . S
O102 C98 1.258 . S
O102 Zn103 2.035 . S
Zn103 O102 2.035 . S
Zn103 O104 2.028 . S
Zn103 O106 2.028 . S
Zn103 O109 2.035 . S
O104 Zn103 2.028 . S
O104 C110 1.247 . S
O105 Zn101 2.035 . S
O105 C110 1.258 . S
O106 C99 1.247 . S
O106 Zn103 2.028 . S
O107 C99 1.258 . S
O107 Zn101 2.035 . S
O108 Zn101 2.028 . S
O108 C111 1.247 . S
O109 Zn103 2.035 . S
O109 C111 1.258 . S
C110 O104 1.247 . S
C110 O105 1.258 . S
C111 O108 1.247 . S
C111 O109 1.258 . S
C112 O114 1.247 . S
C112 O116 1.258 . S
C113 O120 1.247 . S
C113 O121 1.258 . S
O114 C112 1.247 . S
O114 Zn115 2.028 . S
Zn115 O114 2.028 . S
Zn115 O119 2.035 . S
Zn115 O121 2.035 . S
Zn115 O122 2.028 . S
O116 C112 1.258 . S
O116 Zn117 2.035 . S
Zn117 O116 2.035 . S
Zn117 O118 2.028 . S
Zn117 O120 2.028 . S
Zn117 O123 2.035 . S
O118 Zn117 2.028 . S
O118 C124 1.247 . S
O119 Zn115 2.035 . S
O119 C124 1.258 . S
O120 C113 1.247 . S
O120 Zn117 2.028 . S
O121 C113 1.258 . S
O121 Zn115 2.035 . S
O122 Zn115 2.028 . S
O122 C125 1.247 . S
O123 Zn117 2.035 . S
O123 C125 1.258 . S
C124 O118 1.247 . S
C124 O119 1.258 . S
C125 O122 1.247 . S
C125 O123 1.258 . S
C126 O128 1.247 . S
C126 O130 1.258 . S
C127 O134 1.247 . S
C127 O135 1.258 . S
O128 C126 1.247 . S
O128 Zn129 2.028 . S
Zn129 O128 2.028 . S
Zn129 O133 2.035 . S
Zn129 O135 2.035 . S
Zn129 O136 2.028 . S
O130 C126 1.258 . S
O130 Zn131 2.035 . S
Zn131 O130 2.035 . S
Zn131 O132 2.028 . S
Zn131 O134 2.028 . S
Zn131 O137 2.035 . S
O132 Zn131 2.028 . S
O132 C138 1.247 . S
O133 Zn129 2.035 . S
O133 C138 1.258 . S
O134 C127 1.247 . S
O134 Zn131 2.028 . S
O135 C127 1.258 . S
O135 Zn129 2.035 . S
O136 Zn129 2.028 . S
O136 C139 1.247 . S
O137 Zn131 2.035 . S
O137 C139 1.258 . S
C138 O132 1.247 . S
C138 O133 1.258 . S
C139 O136 1.247 . S
C139 O137 1.258 . S
C140 O142 1.247 . S
C140 O144 1.258 . S
C141 O148 1.247 . S
C141 O149 1.258 . S
O142 C140 1.247 . S
O142 Zn143 2.028 . S
Zn143 O142 2.028 . S
Zn143 O147 2.035 . S
Zn143 O149 2.035 . S
Zn143 O150 2.028 . S
O144 C140 1.258 . S
O144 Zn145 2.035 . S
Zn145 O144 2.035 . S
Zn145 O146 2.028 . S
Zn145 O148 2.028 . S
Zn145 O151 2.035 . S
O146 Zn145 2.028 . S
O146 C152 1.247 . S
O147 Zn143 2.035 . S
O147 C152 1.258 . S
O148 C141 1.247 . S
O148 Zn145 2.028 . S
O149 C141 1.258 . S
O149 Zn143 2.035 . S
O150 Zn143 2.028 . S
O150 C153 1.247 . S
O151 Zn145 2.035 . S
O151 C153 1.258 . S
C152 O146 1.247 . S
C152 O147 1.258 . S
C153 O150 1.247 . S
C153 O151 1.258 . S
C154 O156 1.247 . S
C154 O158 1.258 . S
C155 O162 1.247 . S
C155 O163 1.258 . S
O156 C154 1.247 . S
O156 Zn157 2.028 . S
Zn157 O156 2.028 . S
Zn157 O161 2.035 . S
Zn157 O163 2.035 . S
Zn157 O164 2.028 . S
O158 C154 1.258 . S
O158 Zn159 2.035 . S
Zn159 O158 2.035 . S
Zn159 O160 2.028 . S
Zn159 O162 2.028 . S
Zn159 O165 2.035 . S
O160 Zn159 2.028 . S
O160 C166 1.247 . S
O161 Zn157 2.035 . S
O161 C166 1.258 . S
O162 C155 1.247 . S
O162 Zn159 2.028 . S
O163 C155 1.258 . S
O163 Zn157 2.035 . S
O164 Zn157 2.028 . S
O164 C167 1.247 . S
O165 Zn159 2.035 . S
O165 C167 1.258 . S
C166 O160 1.247 . S
C166 O161 1.258 . S
C167 O164 1.247 . S
C167 O165 1.258 . S
H168 C174 0.930 . S
H169 C177 0.930 . S
H170 C178 0.930 . S
H171 C179 0.930 . S
H172 C182 0.930 . S
H173 C183 0.930 . S
C174 H168 0.930 . S
C174 C175 1.355 . S
C174 C176 1.415 . S
C175 C174 1.355 . S
C175 C177 1.419 . S
C176 C174 1.415 . S
C176 C181 1.425 . S
C176 C183 1.409 . S
C177 H169 0.930 . S
C177 C175 1.419 . S
C177 C178 1.362 . S
C178 H170 0.930 . S
C178 C177 1.362 . S
C178 C181 1.409 . S
C179 H171 0.930 . S
C179 C180 1.355 . S
C179 C181 1.415 . S
C180 C179 1.355 . S
C180 C182 1.419 . S
C181 C176 1.425 . S
C181 C178 1.409 . S
C181 C179 1.415 . S
C182 H172 0.930 . S
C182 C180 1.419 . S
C182 C183 1.362 . S
C183 H173 0.930 . S
C183 C176 1.409 . S
C183 C182 1.362 . S
H184 C190 0.930 . S
H185 C193 0.930 . S
H186 C194 0.930 . S
H187 C195 0.930 . S
H188 C198 0.930 . S
H189 C199 0.930 . S
C190 H184 0.930 . S
C190 C191 1.355 . S
C190 C192 1.415 . S
C191 C190 1.355 . S
C191 C193 1.419 . S
C192 C190 1.415 . S
C192 C197 1.425 . S
C192 C199 1.409 . S
C193 H185 0.930 . S
C193 C191 1.419 . S
C193 C194 1.362 . S
C194 H186 0.930 . S
C194 C193 1.362 . S
C194 C197 1.409 . S
C195 H187 0.930 . S
C195 C196 1.355 . S
C195 C197 1.415 . S
C196 C195 1.355 . S
C196 C198 1.419 . S
C197 C192 1.425 . S
C197 C194 1.409 . S
C197 C195 1.415 . S
C198 H188 0.930 . S
C198 C196 1.419 . S
C198 C199 1.362 . S
C199 H189 0.930 . S
C199 C192 1.409 . S
C199 C198 1.362 . S
H200 C206 0.930 . S
H201 C209 0.930 . S
H202 C210 0.930 . S
H203 C211 0.930 . S
H204 C214 0.930 . S
H205 C215 0.930 . S
C206 H200 0.930 . S
C206 C207 1.355 . S
C206 C208 1.415 . S
C207 C206 1.355 . S
C207 C209 1.419 . S
C208 C206 1.415 . S
C208 C213 1.425 . S
C208 C215 1.409 . S
C209 H201 0.930 . S
C209 C207 1.419 . S
C209 C210 1.362 . S
C210 H202 0.930 . S
C210 C209 1.362 . S
C210 C213 1.409 . S
C211 H203 0.930 . S
C211 C212 1.355 . S
C211 C213 1.415 . S
C212 C211 1.355 . S
C212 C214 1.419 . S
C213 C208 1.425 . S
C213 C210 1.409 . S
C213 C211 1.415 . S
C214 H204 0.930 . S
C214 C212 1.419 . S
C214 C215 1.362 . S
C215 H205 0.930 . S
C215 C208 1.409 . S
C215 C214 1.362 . S
H216 C222 0.930 . S
H217 C225 0.930 . S
H218 C226 0.930 . S
H219 C227 0.930 . S
H220 C230 0.930 . S
H221 C231 0.930 . S
C222 H216 0.930 . S
C222 C223 1.355 . S
C222 C224 1.415 . S
C223 C222 1.355 . S
C223 C225 1.419 . S
C224 C222 1.415 . S
C224 C229 1.425 . S
C224 C231 1.409 . S
C225 H217 0.930 . S
C225 C223 1.419 . S
C225 C226 1.362 . S
C226 H218 0.930 . S
C226 C225 1.362 . S
C226 C229 1.409 . S
C227 H219 0.930 . S
C227 C228 1.355 . S
C227 C229 1.415 . S
C228 C227 1.355 . S
C228 C230 1.419 . S
C229 C224 1.425 . S
C229 C226 1.409 . S
C229 C227 1.415 . S
C230 H220 0.930 . S
C230 C228 1.419 . S
C230 C231 1.362 . S
C231 H221 0.930 . S
C231 C224 1.409 . S
C231 C230 1.362 . S
H232 C238 0.930 . S
H233 C241 0.930 . S
H234 C242 0.930 . S
H235 C243 0.930 . S
H236 C246 0.930 . S
H237 C247 0.930 . S
C238 H232 0.930 . S
C238 C239 1.355 . S
C238 C240 1.415 . S
C239 C238 1.355 . S
C239 C241 1.419 . S
C240 C238 1.415 . S
C240 C245 1.425 . S
C240 C247 1.409 . S
C241 H233 0.930 . S
C241 C239 1.419 . S
C241 C242 1.362 . S
C242 H234 0.930 . S
C242 C241 1.362 . S
C242 C245 1.409 . S
C243 H235 0.930 . S
C243 C244 1.355 . S
C243 C245 1.415 . S
C244 C243 1.355 . S
C244 C246 1.419 . S
C245 C240 1.425 . S
C245 C242 1.409 . S
C245 C243 1.415 . S
C246 H236 0.930 . S
C246 C244 1.419 . S
C246 C247 1.362 . S
C247 H237 0.930 . S
C247 C240 1.409 . S
C247 C246 1.362 . S
H248 C254 0.930 . S
H249 C257 0.930 . S
H250 C258 0.930 . S
H251 C259 0.930 . S
H252 C262 0.930 . S
H253 C263 0.930 . S
C254 H248 0.930 . S
C254 C255 1.355 . S
C254 C256 1.415 . S
C255 C254 1.355 . S
C255 C257 1.419 . S
C256 C254 1.415 . S
C256 C261 1.425 . S
C256 C263 1.409 . S
C257 H249 0.930 . S
C257 C255 1.419 . S
C257 C258 1.362 . S
C258 H250 0.930 . S
C258 C257 1.362 . S
C258 C261 1.409 . S
C259 H251 0.930 . S
C259 C260 1.355 . S
C259 C261 1.415 . S
C260 C259 1.355 . S
C260 C262 1.419 . S
C261 C256 1.425 . S
C261 C258 1.409 . S
C261 C259 1.415 . S
C262 H252 0.930 . S
C262 C260 1.419 . S
C262 C263 1.362 . S
C263 H253 0.930 . S
C263 C256 1.409 . S
C263 C262 1.362 . S
H264 C270 0.930 . S
H265 C273 0.930 . S
H266 C274 0.930 . S
H267 C275 0.930 . S
H268 C278 0.930 . S
H269 C279 0.930 . S
C270 H264 0.930 . S
C270 C271 1.355 . S
C270 C272 1.415 . S
C271 C270 1.355 . S
C271 C273 1.419 . S
C272 C270 1.415 . S
C272 C277 1.425 . S
C272 C279 1.409 . S
C273 H265 0.930 . S
C273 C271 1.419 . S
C273 C274 1.362 . S
C274 H266 0.930 . S
C274 C273 1.362 . S
C274 C277 1.409 . S
C275 H267 0.930 . S
C275 C276 1.355 . S
C275 C277 1.415 . S
C276 C275 1.355 . S
C276 C278 1.419 . S
C277 C272 1.425 . S
C277 C274 1.409 . S
C277 C275 1.415 . S
C278 H268 0.930 . S
C278 C276 1.419 . S
C278 C279 1.362 . S
C279 H269 0.930 . S
C279 C272 1.409 . S
C279 C278 1.362 . S
H280 C286 0.930 . S
H281 C289 0.930 . S
H282 C290 0.930 . S
H283 C291 0.930 . S
H284 C294 0.930 . S
H285 C295 0.930 . S
C286 H280 0.930 . S
C286 C287 1.355 . S
C286 C288 1.415 . S
C287 C286 1.355 . S
C287 C289 1.419 . S
C288 C286 1.415 . S
C288 C293 1.425 . S
C288 C295 1.409 . S
C289 H281 0.930 . S
C289 C287 1.419 . S
C289 C290 1.362 . S
C290 H282 0.930 . S
C290 C289 1.362 . S
C290 C293 1.409 . S
C291 H283 0.930 . S
C291 C292 1.355 . S
C291 C293 1.415 . S
C292 C291 1.355 . S
C292 C294 1.419 . S
C293 C288 1.425 . S
C293 C290 1.409 . S
C293 C291 1.415 . S
C294 H284 0.930 . S
C294 C292 1.419 . S
C294 C295 1.362 . S
C295 H285 0.930 . S
C295 C288 1.409 . S
C295 C294 1.362 . S
H296 C302 0.930 . S
H297 C305 0.930 . S
H298 C306 0.930 . S
H299 C307 0.930 . S
H300 C310 0.930 . S
H301 C311 0.930 . S
C302 H296 0.930 . S
C302 C303 1.355 . S
C302 C304 1.415 . S
C303 C302 1.355 . S
C303 C305 1.419 . S
C304 C302 1.415 . S
C304 C309 1.425 . S
C304 C311 1.409 . S
C305 H297 0.930 . S
C305 C303 1.419 . S
C305 C306 1.362 . S
C306 H298 0.930 . S
C306 C305 1.362 . S
C306 C309 1.409 . S
C307 H299 0.930 . S
C307 C308 1.355 . S
C307 C309 1.415 . S
C308 C307 1.355 . S
C308 C310 1.419 . S
C309 C304 1.425 . S
C309 C306 1.409 . S
C309 C307 1.415 . S
C310 H300 0.930 . S
C310 C308 1.419 . S
C310 C311 1.362 . S
C311 H301 0.930 . S
C311 C304 1.409 . S
C311 C310 1.362 . S
H312 C318 0.930 . S
H313 C321 0.930 . S
H314 C322 0.930 . S
H315 C323 0.930 . S
H316 C326 0.930 . S
H317 C327 0.930 . S
C318 H312 0.930 . S
C318 C319 1.355 . S
C318 C320 1.415 . S
C319 C318 1.355 . S
C319 C321 1.419 . S
C320 C318 1.415 . S
C320 C325 1.425 . S
C320 C327 1.409 . S
C321 H313 0.930 . S
C321 C319 1.419 . S
C321 C322 1.362 . S
C322 H314 0.930 . S
C322 C321 1.362 . S
C322 C325 1.409 . S
C323 H315 0.930 . S
C323 C324 1.355 . S
C323 C325 1.415 . S
C324 C323 1.355 . S
C324 C326 1.419 . S
C325 C320 1.425 . S
C325 C322 1.409 . S
C325 C323 1.415 . S
C326 H316 0.930 . S
C326 C324 1.419 . S
C326 C327 1.362 . S
C327 H317 0.930 . S
C327 C320 1.409 . S
C327 C326 1.362 . S
H328 C334 0.930 . S
H329 C337 0.930 . S
H330 C338 0.930 . S
H331 C339 0.930 . S
H332 C342 0.930 . S
H333 C343 0.930 . S
C334 H328 0.930 . S
C334 C335 1.355 . S
C334 C336 1.415 . S
C335 C334 1.355 . S
C335 C337 1.419 . S
C336 C334 1.415 . S
C336 C341 1.425 . S
C336 C343 1.409 . S
C337 H329 0.930 . S
C337 C335 1.419 . S
C337 C338 1.362 . S
C338 H330 0.930 . S
C338 C337 1.362 . S
C338 C341 1.409 . S
C339 H331 0.930 . S
C339 C340 1.355 . S
C339 C341 1.415 . S
C340 C339 1.355 . S
C340 C342 1.419 . S
C341 C336 1.425 . S
C341 C338 1.409 . S
C341 C339 1.415 . S
C342 H332 0.930 . S
C342 C340 1.419 . S
C342 C343 1.362 . S
C343 H333 0.930 . S
C343 C336 1.409 . S
C343 C342 1.362 . S
H344 C350 0.930 . S
H345 C353 0.930 . S
H346 C354 0.930 . S
H347 C355 0.930 . S
H348 C358 0.930 . S
H349 C359 0.930 . S
C350 H344 0.930 . S
C350 C351 1.355 . S
C350 C352 1.415 . S
C351 C350 1.355 . S
C351 C353 1.419 . S
C352 C350 1.415 . S
C352 C357 1.425 . S
C352 C359 1.409 . S
C353 H345 0.930 . S
C353 C351 1.419 . S
C353 C354 1.362 . S
C354 H346 0.930 . S
C354 C353 1.362 . S
C354 C357 1.409 . S
C355 H347 0.930 . S
C355 C356 1.355 . S
C355 C357 1.415 . S
C356 C355 1.355 . S
C356 C358 1.419 . S
C357 C352 1.425 . S
C357 C354 1.409 . S
C357 C355 1.415 . S
C358 H348 0.930 . S
C358 C356 1.419 . S
C358 C359 1.362 . S
C359 H349 0.930 . S
C359 C352 1.409 . S
C359 C358 1.362 . S
H360 C366 0.930 . S
H361 C369 0.930 . S
H362 C370 0.930 . S
H363 C371 0.930 . S
H364 C374 0.930 . S
H365 C375 0.930 . S
C366 H360 0.930 . S
C366 C367 1.355 1_455 S
C366 C368 1.415 . S
C367 C366 1.355 1_655 S
C367 C369 1.419 . S
C368 C366 1.415 . S
C368 C373 1.425 1_455 S
C368 C375 1.409 . S
C369 H361 0.930 . S
C369 C367 1.419 . S
C369 C370 1.362 . S
C370 H362 0.930 . S
C370 C369 1.362 . S
C370 C373 1.409 . S
C371 H363 0.930 . S
C371 C372 1.355 1_655 S
C371 C373 1.415 . S
C372 C371 1.355 1_455 S
C372 C374 1.419 . S
C373 C368 1.425 1_655 S
C373 C370 1.409 . S
C373 C371 1.415 . S
C374 H364 0.930 . S
C374 C372 1.419 . S
C374 C375 1.362 . S
C375 H365 0.930 . S
C375 C368 1.409 . S
C375 C374 1.362 . S
H376 C382 0.930 . S
H377 C385 0.930 . S
H378 C386 0.930 . S
H379 C387 0.930 . S
H380 C390 0.930 . S
H381 C391 0.930 . S
C382 H376 0.930 . S
C382 C383 1.355 . S
C382 C384 1.415 . S
C383 C382 1.355 . S
C383 C385 1.418 1_545 S
C384 C382 1.415 . S
C384 C389 1.425 1_545 S
C384 C391 1.409 . S
C385 H377 0.930 . S
C385 C383 1.418 1_565 S
C385 C386 1.363 . S
C386 H378 0.930 . S
C386 C385 1.363 . S
C386 C389 1.409 . S
C387 H379 0.930 . S
C387 C388 1.355 . S
C387 C389 1.415 . S
C388 C387 1.355 . S
C388 C390 1.418 1_565 S
C389 C384 1.425 1_565 S
C389 C386 1.409 . S
C389 C387 1.415 . S
C390 H380 0.930 . S
C390 C388 1.418 1_545 S
C390 C391 1.363 . S
C391 H381 0.930 . S
C391 C384 1.409 . S
C391 C390 1.363 . S
H392 C398 0.930 . S
H393 C401 0.930 . S
H394 C402 0.930 . S
H395 C403 0.930 . S
H396 C406 0.930 . S
H397 C407 0.930 . S
C398 H392 0.930 . S
C398 C399 1.355 1_655 S
C398 C400 1.415 . S
C399 C398 1.355 1_455 S
C399 C401 1.419 . S
C400 C398 1.415 . S
C400 C405 1.425 1_655 S
C400 C407 1.409 . S
C401 H393 0.930 . S
C401 C399 1.419 . S
C401 C402 1.362 . S
C402 H394 0.930 . S
C402 C401 1.362 . S
C402 C405 1.409 . S
C403 H395 0.930 . S
C403 C404 1.355 1_455 S
C403 C405 1.415 . S
C404 C403 1.355 1_655 S
C404 C406 1.419 . S
C405 C400 1.425 1_455 S
C405 C402 1.409 . S
C405 C403 1.415 . S
C406 H396 0.930 . S
C406 C404 1.419 . S
C406 C407 1.362 . S
C407 H397 0.930 . S
C407 C400 1.409 . S
C407 C406 1.362 . S
H408 C414 0.930 . S
H409 C417 0.930 . S
H410 C418 0.930 . S
H411 C419 0.930 . S
H412 C422 0.930 . S
H413 C423 0.930 . S
C414 H408 0.930 . S
C414 C415 1.355 1_565 S
C414 C416 1.415 . S
C415 C414 1.355 1_545 S
C415 C417 1.419 . S
C416 C414 1.415 . S
C416 C421 1.425 1_565 S
C416 C423 1.409 . S
C417 H409 0.930 . S
C417 C415 1.419 . S
C417 C418 1.362 . S
C418 H410 0.930 . S
C418 C417 1.362 . S
C418 C421 1.409 . S
C419 H411 0.930 . S
C419 C420 1.355 1_545 S
C419 C421 1.415 . S
C420 C419 1.355 1_565 S
C420 C422 1.419 . S
C421 C416 1.425 1_545 S
C421 C418 1.409 . S
C421 C419 1.415 . S
C422 H412 0.930 . S
C422 C420 1.419 . S
C422 C423 1.362 . S
C423 H413 0.930 . S
C423 C416 1.409 . S
C423 C422 1.362 . S
H424 C430 0.930 . S
H425 C433 0.930 . S
H426 C434 0.930 . S
H427 C435 0.930 . S
H428 C438 0.930 . S
H429 C439 0.930 . S
C430 H424 0.930 . S
C430 C431 1.355 . S
C430 C432 1.415 . S
C431 C430 1.355 . S
C431 C433 1.419 . S
C432 C430 1.415 . S
C432 C437 1.425 1_545 S
C432 C439 1.409 1_545 S
C433 H425 0.930 . S
C433 C431 1.419 . S
C433 C434 1.362 . S
C434 H426 0.930 . S
C434 C433 1.362 . S
C434 C437 1.409 1_545 S
C435 H427 0.930 . S
C435 C436 1.355 . S
C435 C437 1.415 . S
C436 C435 1.355 . S
C436 C438 1.419 . S
C437 C432 1.425 1_565 S
C437 C434 1.409 1_565 S
C437 C435 1.415 . S
C438 H428 0.930 . S
C438 C436 1.419 . S
C438 C439 1.362 . S
C439 H429 0.930 . S
C439 C432 1.409 1_565 S
C439 C438 1.362 . S
H440 C446 0.930 . S
H441 C449 0.930 . S
H442 C450 0.930 . S
H443 C451 0.930 . S
H444 C454 0.930 . S
H445 C455 0.930 . S
C446 H440 0.930 . S
C446 C447 1.355 . S
C446 C448 1.415 . S
C447 C446 1.355 . S
C447 C449 1.419 1_455 S
C448 C446 1.415 . S
C448 C453 1.425 1_455 S
C448 C455 1.409 . S
C449 H441 0.930 . S
C449 C447 1.419 1_655 S
C449 C450 1.362 . S
C450 H442 0.930 . S
C450 C449 1.362 . S
C450 C453 1.409 . S
C451 H443 0.930 . S
C451 C452 1.355 . S
C451 C453 1.415 . S
C452 C451 1.355 . S
C452 C454 1.419 1_655 S
C453 C448 1.425 1_655 S
C453 C450 1.409 . S
C453 C451 1.415 . S
C454 H444 0.930 . S
C454 C452 1.419 1_455 S
C454 C455 1.362 . S
C455 H445 0.930 . S
C455 C448 1.409 . S
C455 C454 1.362 . S
H456 C462 0.930 . S
H457 C465 0.930 . S
H458 C466 0.930 . S
H459 C467 0.930 . S
H460 C470 0.930 . S
H461 C471 0.930 . S
C462 H456 0.930 . S
C462 C463 1.355 . S
C462 C464 1.415 . S
C463 C462 1.355 . S
C463 C465 1.419 1_545 S
C464 C462 1.415 . S
C464 C469 1.425 1_545 S
C464 C471 1.409 . S
C465 H457 0.930 . S
C465 C463 1.419 1_565 S
C465 C466 1.362 . S
C466 H458 0.930 . S
C466 C465 1.362 . S
C466 C469 1.409 . S
C467 H459 0.930 . S
C467 C468 1.355 . S
C467 C469 1.415 . S
C468 C467 1.355 . S
C468 C470 1.419 1_565 S
C469 C464 1.425 1_565 S
C469 C466 1.409 . S
C469 C467 1.415 . S
C470 H460 0.930 . S
C470 C468 1.419 1_545 S
C470 C471 1.362 . S
C471 H461 0.930 . S
C471 C464 1.409 . S
C471 C470 1.362 . S
H472 C478 0.930 . S
H473 C481 0.930 . S
H474 C482 0.930 . S
H475 C483 0.930 . S
H476 C486 0.930 . S
H477 C487 0.930 . S
C478 H472 0.930 . S
C478 C479 1.355 1_455 S
C478 C480 1.415 . S
C479 C478 1.355 1_655 S
C479 C481 1.419 . S
C480 C478 1.415 . S
C480 C485 1.425 1_455 S
C480 C487 1.409 . S
C481 H473 0.930 . S
C481 C479 1.419 . S
C481 C482 1.362 . S
C482 H474 0.930 . S
C482 C481 1.362 . S
C482 C485 1.409 . S
C483 H475 0.930 . S
C483 C484 1.355 1_655 S
C483 C485 1.415 . S
C484 C483 1.355 1_455 S
C484 C486 1.419 . S
C485 C480 1.425 1_655 S
C485 C482 1.409 . S
C485 C483 1.415 . S
C486 H476 0.930 . S
C486 C484 1.419 . S
C486 C487 1.362 . S
C487 H477 0.930 . S
C487 C480 1.409 . S
C487 C486 1.362 . S
H488 C494 0.930 . S
H489 C497 0.930 . S
H490 C498 0.930 . S
H491 C499 0.930 . S
H492 C502 0.930 . S
H493 C503 0.930 . S
C494 H488 0.930 . S
C494 C495 1.355 . S
C494 C496 1.415 . S
C495 C494 1.355 . S
C495 C497 1.419 1_554 S
C496 C494 1.415 . S
C496 C501 1.425 1_554 S
C496 C503 1.409 . S
C497 H489 0.930 . S
C497 C495 1.419 1_556 S
C497 C498 1.362 . S
C498 H490 0.930 . S
C498 C497 1.362 . S
C498 C501 1.409 . S
C499 H491 0.930 . S
C499 C500 1.355 . S
C499 C501 1.415 . S
C500 C499 1.355 . S
C500 C502 1.419 1_556 S
C501 C496 1.425 1_556 S
C501 C498 1.409 . S
C501 C499 1.415 . S
C502 H492 0.930 . S
C502 C500 1.419 1_554 S
C502 C503 1.362 . S
C503 H493 0.930 . S
C503 C496 1.409 . S
C503 C502 1.362 . S
H504 C510 0.930 . S
H505 C513 0.930 . S
H506 C514 0.930 . S
H507 C515 0.930 . S
H508 C518 0.930 . S
H509 C519 0.930 . S
C510 H504 0.930 . S
C510 C511 1.355 1_554 S
C510 C512 1.415 . S
C511 C510 1.355 1_556 S
C511 C513 1.419 . S
C512 C510 1.415 . S
C512 C517 1.425 1_554 S
C512 C519 1.409 . S
C513 H505 0.930 . S
C513 C511 1.419 . S
C513 C514 1.362 . S
C514 H506 0.930 . S
C514 C513 1.362 . S
C514 C517 1.409 . S
C515 H507 0.930 . S
C515 C516 1.355 1_556 S
C515 C517 1.415 . S
C516 C515 1.355 1_554 S
C516 C518 1.419 . S
C517 C512 1.425 1_556 S
C517 C514 1.409 . S
C517 C515 1.415 . S
C518 H508 0.930 . S
C518 C516 1.419 . S
C518 C519 1.362 . S
C519 H509 0.930 . S
C519 C512 1.409 . S
C519 C518 1.362 . S
H520 C526 0.930 . S
H521 C529 0.930 . S
H522 C530 0.930 . S
H523 C531 0.930 . S
H524 C534 0.930 . S
H525 C535 0.930 . S
C526 H520 0.930 . S
C526 C527 1.355 1_554 S
C526 C528 1.415 . S
C527 C526 1.355 1_556 S
C527 C529 1.419 . S
C528 C526 1.415 . S
C528 C533 1.425 1_554 S
C528 C535 1.409 . S
C529 H521 0.930 . S
C529 C527 1.419 . S
C529 C530 1.362 . S
C530 H522 0.930 . S
C530 C529 1.362 . S
C530 C533 1.409 . S
C531 H523 0.930 . S
C531 C532 1.355 1_556 S
C531 C533 1.415 . S
C532 C531 1.355 1_554 S
C532 C534 1.419 . S
C533 C528 1.425 1_556 S
C533 C530 1.409 . S
C533 C531 1.415 . S
C534 H524 0.930 . S
C534 C532 1.419 . S
C534 C535 1.362 . S
C535 H525 0.930 . S
C535 C528 1.409 . S
C535 C534 1.362 . S
H536 C542 0.930 . S
H537 C545 0.930 . S
H538 C546 0.930 . S
H539 C547 0.930 . S
H540 C550 0.930 . S
H541 C551 0.930 . S
C542 H536 0.930 . S
C542 C543 1.355 . S
C542 C544 1.415 . S
C543 C542 1.355 . S
C543 C545 1.419 1_554 S
C544 C542 1.415 . S
C544 C549 1.425 1_554 S
C544 C551 1.409 . S
C545 H537 0.930 . S
C545 C543 1.419 1_556 S
C545 C546 1.362 . S
C546 H538 0.930 . S
C546 C545 1.362 . S
C546 C549 1.409 . S
C547 H539 0.930 . S
C547 C548 1.355 . S
C547 C549 1.415 . S
C548 C547 1.355 . S
C548 C550 1.419 1_556 S
C549 C544 1.425 1_556 S
C549 C546 1.409 . S
C549 C547 1.415 . S
C550 H540 0.930 . S
C550 C548 1.419 1_554 S
C550 C551 1.362 . S
C551 H541 0.930 . S
C551 C544 1.409 . S
C551 C550 1.362 . S
C175 C12 1.477 . S
C180 C99 1.447 . S
C191 C27 1.448 . S
C196 C69 1.476 . S
C207 C71 1.477 . S
C212 C29 1.445 . S
C223 C97 1.445 . S
C228 C55 1.477 . S
C239 C113 1.447 . S
C244 C110 1.477 . S
C255 C126 1.470 . S
C260 C56 1.453 . S
C271 C140 1.475 . S
C276 C82 1.449 . S
C287 C167 1.449 . S
C292 C84 1.474 . S
C303 C14 1.472 . S
C308 C139 1.452 . S
C319 C153 1.448 . S
C324 C40 1.475 . S
C335 C42 1.477 . S
C340 C154 1.445 . S
C351 C124 1.477 . S
C356 C1 1.447 . S
C367 C85 1.689 . S
C372 C0 1.686 . S
C383 C111 1.709 . S
C388 C15 1.707 . S
C399 C57 1.692 . S
C404 C41 1.694 . S
C415 C43 1.692 . S
C420 C83 1.693 . S
C431 C98 1.702 . S
C436 C70 1.703 . S
C447 C68 1.733 . S
C452 C96 1.732 . S
C463 C54 1.726 . S
C468 C26 1.728 . S
C479 C28 1.691 . S
C484 C13 1.690 . S
C495 C112 1.710 . S
C500 C138 1.712 . S
C511 C127 1.702 . S
C516 C152 1.706 . S
C527 C155 1.692 . S
C532 C141 1.691 . S
C543 C125 1.733 . S
C548 C166 1.735 . S
