# Generated by pormake.
# Topology qdl, (4)-cn, num edge types: 1
# Building blocks:
#     Node 0, Type 0, BuildingBlock: NAWXER_clean_sbu_0, # of connection points: 4
#     Node 1, Type 0, BuildingBlock: NAWXER_clean_sbu_0, # of connection points: 4
#     Node 2, Type 0, BuildingBlock: NAWXER_clean_sbu_0, # of connection points: 4
#     Node 3, Type 0, BuildingBlock: NAWXER_clean_sbu_0, # of connection points: 4
#     Node 4, Type 0, BuildingBlock: NAWXER_clean_sbu_0, # of connection points: 4
#     Node 5, Type 0, BuildingBlock: NAWXER_clean_sbu_0, # of connection points: 4
#     Edge 6, Type (0, 0), BuildingBlock: UVAHIK_clean_linker_0, # of connection points: 2
#     Edge 7, Type (0, 0), BuildingBlock: UVAHIK_clean_linker_0, # of connection points: 2
#     Edge 8, Type (0, 0), BuildingBlock: UVAHIK_clean_linker_0, # of connection points: 2
#     Edge 9, Type (0, 0), BuildingBlock: UVAHIK_clean_linker_0, # of connection points: 2
#     Edge 10, Type (0, 0), BuildingBlock: UVAHIK_clean_linker_0, # of connection points: 2
#     Edge 11, Type (0, 0), BuildingBlock: UVAHIK_clean_linker_0, # of connection points: 2
#     Edge 12, Type (0, 0), BuildingBlock: UVAHIK_clean_linker_0, # of connection points: 2
#     Edge 13, Type (0, 0), BuildingBlock: UVAHIK_clean_linker_0, # of connection points: 2
#     Edge 14, Type (0, 0), BuildingBlock: UVAHIK_clean_linker_0, # of connection points: 2
#     Edge 15, Type (0, 0), BuildingBlock: UVAHIK_clean_linker_0, # of connection points: 2
#     Edge 16, Type (0, 0), BuildingBlock: UVAHIK_clean_linker_0, # of connection points: 2
#     Edge 17, Type (0, 0), BuildingBlock: UVAHIK_clean_linker_0, # of connection points: 2
# Relax obj value: 0.000
# Max RMSD: 0.022
# Mean RMSD: 0.019
data_MOF--net-qdl--node1-NAWXER_clean_sbu_0--edge1-UVAHIK_clean_linker_0
_symmetry_space_group_name_H-M    P1
_symmetry_Int_Tables_number       1
_symmetry_cell_setting            triclinic
loop_
_symmetry_equiv_pos_as_xyz
'x, y, z'
_cell_length_a     19.226235
_cell_length_b     19.226493
_cell_length_c     114.80738
_cell_angle_alpha  95.097519
_cell_angle_beta   94.785825
_cell_angle_gamma 119.96277
loop_
_atom_site_label
_atom_site_type_symbol
_atom_site_fract_x
_atom_site_fract_y
_atom_site_fract_z
_atom_type_partial_charge
C0 C 0.95305 0.95266 0.08253 0.0
C1 C 0.95452 0.20873 0.08603 0.0
O2 O 0.02476 0.0153 0.08479 0.0
Zn3 Zn 0.08113 0.14516 0.08774 0.0
O4 O 0.89208 0.96215 0.08142 0.0
Zn5 Zn 0.95228 0.07998 0.08441 0.0
O6 O 0.01205 0.11234 0.06903 0.0
O7 O 0.14428 0.1759 0.07492 0.0
O8 O 0.89317 0.13714 0.08428 0.0
O9 O 0.02611 0.21891 0.08748 0.0
O10 O 0.13768 0.17348 0.10371 0.0
O11 O 1.00445 0.10394 0.10266 0.0
C12 C 0.08491 0.14854 0.06662 0.0
C13 C 0.07527 0.13947 0.10883 0.0
C14 C 0.31911 0.24883 0.42631 0.0
C15 C 0.06537 0.25106 0.42395 0.0
O16 O 0.25603 0.17725 0.42425 0.0
Zn17 Zn 0.12606 0.12242 0.42212 0.0
O18 O 0.31042 0.31023 0.42776 0.0
Zn19 Zn 0.19308 0.25126 0.42533 0.0
O20 O 0.16409 0.19318 0.44085 0.0
O21 O 0.09559 0.06071 0.4351 0.0
O22 O 0.13725 0.3119 0.42584 0.0
O23 O 0.05436 0.17917 0.42245 0.0
O24 O 0.09291 0.06418 0.40624 0.0
O25 O 0.16477 0.19732 0.40701 0.0
C26 C 0.12665 0.12074 0.44338 0.0
C27 C 0.12641 0.12581 0.40097 0.0
C28 C 0.04216 0.01342 0.77352 0.0
C29 C 1.00461 0.98188 0.73043 0.0
O30 O 1.00719 0.03972 0.76686 0.0
Zn31 Zn 0.02318 0.9983 0.75201 0.0
O32 O 0.07306 0.97381 0.76889 0.0
Zn33 Zn 0.08544 0.93314 0.75146 0.0
O34 O 0.20217 0.99018 0.75175 0.0
O35 O 0.15199 0.07125 0.75252 0.0
O36 O 0.04246 0.94787 0.73448 0.0
O37 O 0.98218 0.01851 0.73757 0.0
O38 O 0.94836 0.86902 0.75141 0.0
O39 O 0.02736 0.81648 0.75082 0.0
C40 C 0.21312 0.06137 0.75235 0.0
C41 C 0.95713 0.80695 0.75103 0.0
C42 C 0.01114 0.06927 0.6076 0.0
C43 C 0.02449 0.0887 0.56568 0.0
O44 O 0.04796 0.14312 0.60563 0.0
Zn45 Zn 0.08189 0.20678 0.59062 0.0
O46 O 0.98409 0.01168 0.599 0.0
Zn47 Zn 0.01652 0.07819 0.58663 0.0
O48 O 0.14628 0.13416 0.58976 0.0
O49 O 0.19957 0.26671 0.59381 0.0
O50 O 0.98968 0.02492 0.57046 0.0
O51 O 0.05971 0.15854 0.57217 0.0
O52 O 0.02506 0.26615 0.59118 0.0
O53 O 0.94302 0.13333 0.58729 0.0
C54 C 0.20894 0.20573 0.59236 0.0
C55 C 0.9534 0.20495 0.58914 0.0
C56 C 0.17207 0.16237 0.94365 0.0
C57 C 0.14066 0.11928 0.90057 0.0
O58 O 0.13639 0.1847 0.93638 0.0
Zn59 Zn 0.15712 0.14228 0.92208 0.0
O60 O 0.2062 0.12406 0.93976 0.0
Zn61 Zn 0.22208 0.07998 0.92287 0.0
O62 O 0.33875 0.13824 0.92348 0.0
O63 O 0.28613 0.21699 0.92264 0.0
O64 O 0.18023 0.0889 0.90533 0.0
O65 O 0.11563 0.15634 0.90714 0.0
O66 O 0.08425 0.01348 0.92182 0.0
O67 O 0.16553 0.96357 0.92284 0.0
C68 C 0.34823 0.20829 0.92312 0.0
C69 C 0.09429 0.95252 0.92217 0.0
C70 C 0.06034 0.05296 0.27403 0.0
C71 C 0.06116 0.04805 0.23149 0.0
O72 O 0.9884 0.01416 0.26816 0.0
Zn73 Zn 0.93277 0.98388 0.24992 0.0
O74 O 0.12123 0.08547 0.26857 0.0
Zn75 Zn 0.06155 0.05078 0.2528 0.0
O76 O 1.0049 0.12259 0.25257 0.0
O77 O 0.8722 0.03976 0.24951 0.0
O78 O 0.12183 0.07977 0.23964 0.0
O79 O 0.98916 0.01109 0.23421 0.0
O80 O 0.87373 0.86652 0.2477 0.0
O81 O 1.00669 0.92082 0.25088 0.0
C82 C 0.93305 0.11164 0.25123 0.0
C83 C 0.9351 0.85778 0.24901 0.0
C84 C 0.86576 0.80014 0.0804 0.0
C85 C 0.9429 0.87057 0.08159 0.0
C86 C 0.85803 0.72342 0.08001 0.0
C87 C 0.97117 0.61734 0.0743 0.0
H88 H 0.82975 0.46375 0.09339 0.0
C89 C 0.01383 0.35829 0.08674 0.0
C90 C 0.94479 0.28042 0.08576 0.0
C91 C 1.00599 0.42584 0.08569 0.0
C92 C 0.8687 0.50559 0.0879 0.0
H93 H 0.07222 0.9153 0.08319 0.0
H94 H 0.05876 0.78276 0.08258 0.0
H95 H 0.82892 0.58983 0.09212 0.0
H96 H 0.81311 0.21299 0.08324 0.0
H97 H 0.79951 0.33191 0.08147 0.0
H98 H 0.01234 0.53444 0.07028 0.0
C99 C 1.00408 0.78623 0.0818 0.0
C100 C 0.86814 0.57769 0.08715 0.0
C101 C 0.0118 0.86249 0.08223 0.0
C102 C 0.86752 0.27211 0.08402 0.0
C103 C 0.85969 0.34015 0.08304 0.0
C104 C 0.97192 0.54572 0.07508 0.0
C105 C 0.92724 0.71571 0.0807 0.0
C106 C 0.92074 0.63518 0.08054 0.0
C107 C 0.92894 0.41754 0.08367 0.0
C108 C 0.92205 0.48984 0.08209 0.0
H109 H 0.81148 0.80429 0.0799 0.0
H110 H 0.79794 0.67017 0.07908 0.0
H111 H 0.01106 0.6594 0.06891 0.0
H112 H 0.07433 0.3672 0.08813 0.0
H113 H 0.06054 0.48486 0.08645 0.0
C114 C 0.40805 0.19 0.42384 0.0
C115 C 0.40073 0.2587 0.42642 0.0
C116 C 0.48392 0.19825 0.42327 0.0
C117 C 0.70269 0.33351 0.43286 0.0
H118 H 0.71771 0.19919 0.40708 0.0
C119 C 1.00252 0.33851 0.42623 0.0
C120 C 0.9939 0.26148 0.42361 0.0
C121 C 0.93384 0.34648 0.42612 0.0
C122 C 0.7145 0.23683 0.41437 0.0
H123 H 0.468 0.39011 0.4307 0.0
H124 H 0.60133 0.40442 0.42976 0.0
H125 H 0.59099 0.19776 0.40799 0.0
H126 H 0.90629 0.13259 0.41877 0.0
H127 H 0.78771 0.14648 0.41864 0.0
H128 H 0.82611 0.37118 0.43935 0.0
C129 C 0.54787 0.34419 0.42817 0.0
C130 C 0.64188 0.23599 0.41489 0.0
C131 C 0.47155 0.33597 0.42868 0.0
C132 C 0.91539 0.19293 0.4208 0.0
C133 C 0.84717 0.20091 0.42065 0.0
C134 C 0.77561 0.33421 0.43235 0.0
C135 C 0.55462 0.27538 0.4253 0.0
C136 C 0.63451 0.28286 0.42427 0.0
C137 C 0.85539 0.27765 0.42329 0.0
C138 C 0.78163 0.2844 0.42323 0.0
H139 H 0.35497 0.1295 0.42211 0.0
H140 H 0.48723 0.14394 0.42126 0.0
H141 H 0.69872 0.37009 0.44022 0.0
H142 H 0.06217 0.3925 0.42845 0.0
H143 H 0.9421 0.40648 0.42814 0.0
C144 C 0.80998 0.71794 0.75237 0.0
C145 C 0.88568 0.72569 0.75124 0.0
C146 C 0.74271 0.64256 0.75305 0.0
C147 C 0.65635 0.42254 0.7459 0.0
H148 H 0.51575 0.41568 0.76867 0.0
C149 C 0.36362 0.12547 0.75197 0.0
C150 C 0.29521 0.13329 0.75285 0.0
C151 C 0.44053 0.19449 0.75238 0.0
C152 C 0.55413 0.41658 0.76222 0.0
H153 H 0.94955 0.65962 0.74973 0.0
H154 H 0.83114 0.52714 0.75088 0.0
H155 H 0.64118 0.54208 0.76812 0.0
H156 H 0.25419 0.21986 0.7548 0.0
H157 H 0.38711 0.339 0.75543 0.0
H158 H 0.56796 0.297 0.73985 0.0
C159 C 0.82433 0.57987 0.75123 0.0
C160 C 0.626 0.48902 0.76191 0.0
C161 C 0.89211 0.65573 0.75061 0.0
C162 C 0.30543 0.21138 0.75414 0.0
C163 C 0.38191 0.27996 0.75459 0.0
C164 C 0.58407 0.34978 0.74619 0.0
C165 C 0.74913 0.57276 0.75259 0.0
C166 C 0.67704 0.49338 0.75357 0.0
C167 C 0.45046 0.27253 0.75375 0.0
C168 C 0.5313 0.3466 0.75419 0.0
H169 H 0.80256 0.77034 0.75284 0.0
H170 H 0.68528 0.6389 0.75387 0.0
H171 H 0.69434 0.42413 0.73935 0.0
H172 H 0.35777 0.06616 0.75096 0.0
H173 H 0.4923 0.18687 0.75176 0.0
C174 C 0.36156 0.29302 0.59494 0.0
C175 C 0.29094 0.21575 0.59334 0.0
C176 C 0.4383 0.30075 0.59541 0.0
C177 C 0.54292 0.18595 0.60061 0.0
H178 H 0.70049 0.33213 0.5824 0.0
C179 C 0.8037 0.1456 0.58818 0.0
C180 C 0.88179 0.21471 0.58949 0.0
C181 C 0.73607 0.15333 0.58926 0.0
C182 C 0.65752 0.29183 0.58765 0.0
H183 H 0.24585 0.08617 0.59105 0.0
H184 H 0.37844 0.09966 0.59179 0.0
H185 H 0.57415 0.33269 0.58358 0.0
H186 H 0.94958 0.34646 0.59265 0.0
H187 H 0.83052 0.35987 0.59446 0.0
H188 H 0.62497 0.14375 0.60448 0.0
C189 C 0.37508 0.15441 0.59284 0.0
C190 C 0.58527 0.29223 0.58835 0.0
C191 C 0.29881 0.14669 0.59233 0.0
C192 C 0.89028 0.292 0.59161 0.0
C193 C 0.82218 0.29973 0.59262 0.0
C194 C 0.6147 0.18539 0.59989 0.0
C195 C 0.4458 0.23139 0.59437 0.0
C196 C 0.52637 0.23794 0.59463 0.0
C197 C 0.74452 0.23033 0.59163 0.0
C198 C 0.67202 0.23699 0.59319 0.0
H199 H 0.35758 0.34743 0.59573 0.0
H200 H 0.49171 0.36093 0.59667 0.0
H201 H 0.49971 0.1447 0.60575 0.0
H202 H 0.79466 0.0851 0.5865 0.0
H203 H 0.67687 0.09871 0.58822 0.0
C204 C 0.43726 0.35514 0.92162 0.0
C205 C 0.42952 0.27965 0.92289 0.0
C206 C 0.51275 0.4224 0.92099 0.0
C207 C 0.73246 0.50938 0.92855 0.0
H208 H 0.74143 0.64913 0.90563 0.0
C209 C 0.03032 0.80224 0.92271 0.0
C210 C 0.02243 0.87047 0.92173 0.0
C211 C 0.96134 0.72528 0.92228 0.0
C212 C 0.73993 0.61098 0.91212 0.0
H213 H 0.49568 0.21611 0.92469 0.0
H214 H 0.62836 0.33448 0.92362 0.0
H215 H 0.61488 0.52352 0.90603 0.0
H216 H 0.93577 0.91117 0.91958 0.0
H217 H 0.81667 0.77816 0.91891 0.0
H218 H 0.85755 0.59817 0.93477 0.0
C219 C 0.57553 0.34115 0.92312 0.0
C220 C 0.66741 0.53901 0.91235 0.0
C221 C 0.49956 0.27339 0.9237 0.0
C222 C 0.9443 0.86006 0.92032 0.0
C223 C 0.87576 0.78353 0.91985 0.0
C224 C 0.80531 0.58174 0.92833 0.0
C225 C 0.58268 0.41616 0.92164 0.0
C226 C 0.66226 0.48829 0.92074 0.0
C227 C 0.88327 0.71514 0.92078 0.0
C228 C 0.80921 0.63421 0.92028 0.0
H229 H 0.38478 0.36242 0.92101 0.0
H230 H 0.51642 0.47968 0.92006 0.0
H231 H 0.73025 0.47165 0.93514 0.0
H232 H 0.08966 0.80823 0.92381 0.0
H233 H 0.969 0.67362 0.92298 0.0
C234 C 0.8456 0.17451 0.24916 0.0
C235 C 0.92269 0.18315 0.25159 0.0
C236 C 0.83764 0.24322 0.24931 0.0
C237 C 0.94806 0.4631 0.26088 0.0
H238 H 0.81277 0.47749 0.23532 0.0
C239 C 0.99396 0.76886 0.25136 0.0
C240 C 0.92522 0.77618 0.24893 0.0
C241 C 0.98576 0.69304 0.25194 0.0
C242 C 0.84992 0.47391 0.2426 0.0
H243 H 0.05171 0.27082 0.25611 0.0
H244 H 0.03782 0.38944 0.2563 0.0
H245 H 0.81175 0.35013 0.23614 0.0
H246 H 0.79375 0.70893 0.24495 0.0
H247 H 0.77952 0.57569 0.24592 0.0
H248 H 0.98761 0.58695 0.26721 0.0
C249 C 0.98335 0.32995 0.25442 0.0
C250 C 0.84927 0.40102 0.24308 0.0
C251 C 0.99132 0.26171 0.25423 0.0
C252 C 0.84793 0.70539 0.24685 0.0
C253 C 0.83975 0.62912 0.24737 0.0
C254 C 0.94885 0.53569 0.26038 0.0
C255 C 0.90655 0.32171 0.25198 0.0
C256 C 0.8998 0.39548 0.25209 0.0
C257 C 0.90863 0.62238 0.25008 0.0
C258 C 0.90123 0.54255 0.2511 0.0
H259 H 0.79154 0.11482 0.24708 0.0
H260 H 0.7776 0.23494 0.24745 0.0
H261 H 0.98628 0.46027 0.26808 0.0
H262 H 0.05447 0.82192 0.25296 0.0
H263 H 0.0401 0.68973 0.25383 0.0
C264 C 1.00425 0.01753 0.21007 0.0
C265 C 0.07229 0.0554 0.21895 0.0
C266 C 0.01323 0.02647 0.19827 0.0
C267 C 0.15071 0.16085 0.17932 0.0
H268 H 0.0122 0.97779 0.15479 0.0
C269 C 0.15947 0.17322 0.12877 0.0
C270 C 0.08301 0.13615 0.12169 0.0
C271 C 0.16557 0.16505 0.14077 0.0
C272 C 0.05103 0.02961 0.16153 0.0
H273 H 0.20349 0.1319 0.22234 0.0
H274 H 0.2192 0.14716 0.20162 0.0
H275 H 0.01059 0.95828 0.17544 0.0
H276 H 0.95306 0.0631 0.12178 0.0
H277 H 0.96385 0.04925 0.14256 0.0
H278 H 0.19042 0.23221 0.1653 0.0
C279 C 0.15881 0.11103 0.20386 0.0
C280 C 0.0501 0.01845 0.17337 0.0
C281 C 0.14982 0.10188 0.21572 0.0
C282 C 0.01298 0.09221 0.12693 0.0
C283 C 0.01912 0.08371 0.13884 0.0
C284 C 0.15183 0.17198 0.16743 0.0
C285 C 0.09049 0.07349 0.19501 0.0
C286 C 0.09848 0.08424 0.18243 0.0
C287 C 0.09538 0.11911 0.14587 0.0
C288 C 0.10056 0.10678 0.15843 0.0
H289 H 0.94358 0.98149 0.21223 0.0
H290 H 0.95918 0.99783 0.19172 0.0
H291 H 0.18834 0.2129 0.18609 0.0
H292 H 0.2146 0.2075 0.12501 0.0
H293 H 0.22518 0.19292 0.14597 0.0
C294 C 0.07332 0.15491 0.54792 0.0
C295 C 0.02894 0.08355 0.55283 0.0
C296 C 0.08278 0.15107 0.53601 0.0
C297 C 0.99685 0.02237 0.507 0.0
H298 H 0.21121 0.16654 0.49941 0.0
C299 C 0.07142 0.03027 0.45888 0.0
C300 C 0.11804 0.10836 0.45585 0.0
C301 C 0.06117 0.02008 0.47068 0.0
C302 C 0.15085 0.12626 0.50136 0.0
H303 H 0.95784 0.95202 0.54894 0.0
H304 H 0.97418 0.94546 0.52801 0.0
H305 H 0.18998 0.16201 0.52 0.0
H306 H 0.19097 0.23679 0.46288 0.0
H307 H 0.17269 0.21909 0.48328 0.0
H308 H 0.95751 0.98789 0.4883 0.0
C309 C 1.0016 1.00434 0.53346 0.0
C310 C 0.1387 0.12367 0.51317 0.0
C311 C 0.99243 0.00814 0.54544 0.0
C312 C 0.15487 0.17572 0.46487 0.0
C313 C 0.14481 0.16554 0.47661 0.0
C314 C 0.00898 0.02514 0.49515 0.0
C315 C 0.04794 0.07582 0.52867 0.0
C316 C 0.06129 0.07295 0.51612 0.0
C317 C 0.09769 0.08772 0.47967 0.0
C318 C 0.08585 0.07838 0.4922 0.0
H319 H 0.10201 0.21408 0.55332 0.0
H320 H 0.11754 0.2073 0.53254 0.0
H321 H 0.93644 0.98291 0.50901 0.0
H322 H 0.04219 0.9771 0.45214 0.0
H323 H 0.02501 0.95927 0.47276 0.0
C324 C 0.08242 0.99387 0.79369 0.0
C325 C 0.04663 0.02669 0.78655 0.0
C326 C 0.08574 1.00434 0.80594 0.0
C327 C 0.07953 0.13313 0.83103 0.0
H328 H 0.03768 0.9503 0.84721 0.0
C329 C 0.08374 0.14511 0.88198 0.0
C330 C 0.12418 0.11006 0.88751 0.0
C331 C 0.06819 0.13528 0.86962 0.0
C332 C 0.05005 1.00211 0.84284 0.0
H333 H 0.98691 0.09716 0.78674 0.0
H334 H 0.99271 0.1154 0.80825 0.0
H335 H 0.02134 0.93273 0.82571 0.0
H336 H 0.18042 0.0377 0.88437 0.0
H337 H 0.1538 0.02111 0.86296 0.0
H338 H 0.10928 0.2027 0.84824 0.0
C339 C 0.01847 0.0818 0.8043 0.0
C340 C 0.04069 0.99204 0.83051 0.0
C341 C 0.01488 0.07106 0.79199 0.0
C342 C 0.14887 0.06531 0.88043 0.0
C343 C 0.13311 0.05529 0.86813 0.0
C344 C 0.08892 0.14323 0.8434 0.0
C345 C 0.05343 0.04797 0.8114 0.0
C346 C 0.05685 0.05775 0.82446 0.0
C347 C 0.09232 0.08979 0.86256 0.0
C348 C 0.0758 0.07815 0.84944 0.0
H349 H 0.10782 0.95965 0.78982 0.0
H350 H 0.11443 0.97877 0.81116 0.0
H351 H 0.09287 0.18504 0.82662 0.0
H352 H 0.06394 0.17998 0.88718 0.0
H353 H 0.03625 0.16225 0.86559 0.0
C354 C 0.03751 0.15361 0.04598 0.0
C355 C 0.09867 0.15896 0.05426 0.0
C356 C 0.04906 0.1622 0.03423 0.0
C357 C 0.20824 0.2314 0.0144 0.0
H358 H 0.02195 0.09912 0.99011 0.0
C359 C 0.22576 0.16988 0.96463 0.0
C360 C 0.17103 0.17623 0.9565 0.0
C361 C 0.22096 0.17652 0.97672 0.0
C362 C 0.0743 0.13707 0.99681 0.0
H363 H 0.22013 0.17777 0.05674 0.0
H364 H 0.23931 0.18937 0.0361 0.0
H365 H 1.00573 0.09111 0.01082 0.0
H366 H 0.06943 0.19622 0.9547 0.0
H367 H 0.06003 0.20611 0.97585 0.0
H368 H 0.27712 0.27436 1.00018 0.0
C369 C 0.1831 0.18085 0.03873 0.0
C370 C 0.06511 0.13283 0.0087 0.0
C371 C 0.17201 0.17365 0.05056 0.0
C372 C 0.11255 0.19122 0.96075 0.0
C373 C 0.10688 0.19647 0.97283 0.0
C374 C 0.21762 0.23459 1.00246 0.0
C375 C 0.12156 0.17485 0.03038 0.0
C376 C 0.13187 0.18004 0.01769 0.0
C377 C 0.16049 0.18831 0.9809 0.0
C378 C 0.15067 0.18755 0.99356 0.0
H379 H 0.9807 0.14347 0.04859 0.0
H380 H 1.00102 0.15928 0.02819 0.0
H381 H 0.26081 0.26971 0.02102 0.0
H382 H 0.27169 0.15862 0.96163 0.0
H383 H 0.26271 0.16952 0.98275 0.0
C384 C 0.1445 0.11929 0.294 0.0
C385 C 0.07143 0.05893 0.28706 0.0
C386 C 0.1534 0.12582 0.30634 0.0
C387 C 0.07833 0.01072 0.33066 0.0
H388 H 0.14727 0.21902 0.34916 0.0
C389 C 0.06282 0.04376 0.38079 0.0
C390 C 0.12245 0.11607 0.38796 0.0
C391 C 0.05849 0.03604 0.36848 0.0
C392 C 0.12938 0.16064 0.34418 0.0
H393 H 0.95122 0.95691 0.28758 0.0
H394 H 0.96761 0.96745 0.3091 0.0
H395 H 0.13931 0.20708 0.32772 0.0
H396 H 0.22588 0.23607 0.38788 0.0
H397 H 0.22057 0.22165 0.36654 0.0
H398 H 0.07011 0.96427 0.34705 0.0
C399 C 0.01759 0.00997 0.305 0.0
C400 C 0.12453 0.1539 0.33189 0.0
C401 C 1.00813 1.00433 0.29269 0.0
C402 C 0.17855 0.17988 0.38259 0.0
C403 C 0.17511 0.17173 0.37031 0.0
C404 C 0.08441 0.01765 0.34298 0.0
C405 C 0.09001 0.07115 0.31194 0.0
C406 C 0.09841 0.0788 0.32501 0.0
C407 C 0.11455 0.10003 0.36306 0.0
C408 C 0.10951 0.09264 0.34992 0.0
H409 H 0.19427 0.16228 0.28991 0.0
H410 H 0.21001 0.1733 0.31151 0.0
H411 H 0.05867 0.95222 0.32554 0.0
H412 H 0.01848 0.99368 0.38468 0.0
H413 H 0.01015 0.98038 0.36322 0.0
C414 C 0.98289 0.97659 0.62289 0.0
C415 C 1.00009 0.05218 0.61983 0.0
C416 C 0.97507 0.96209 0.63458 0.0
C417 C 0.92867 0.0273 0.66235 0.0
H418 H 0.06143 0.95209 0.67749 0.0
C419 C 0.97758 0.03952 0.71303 0.0
C420 C 0.99052 0.98072 0.71754 0.0
C421 C 0.97118 0.04219 0.70087 0.0
C422 C 0.02252 0.97149 0.67339 0.0
H423 H 0.02039 0.17098 0.62653 0.0
H424 H 1.00522 0.14495 0.64686 0.0
H425 H 0.06221 0.96568 0.65662 0.0
H426 H 1.00287 0.87613 0.71282 0.0
H427 H 0.98824 0.87841 0.69163 0.0
H428 H 0.88776 0.03206 0.679 0.0
C429 C 0.99834 0.09725 0.64024 0.0
C430 C 0.02339 0.97958 0.66142 0.0
C431 C 1.00756 0.11225 0.62862 0.0
C432 C 0.99386 0.9228 0.70962 0.0
C433 C 0.98608 0.92456 0.69746 0.0
C434 C 0.92675 0.01801 0.67429 0.0
C435 C 0.98275 0.02234 0.64336 0.0
C436 C 0.97728 0.00851 0.65583 0.0
C437 C 0.97625 0.98524 0.69291 0.0
C438 C 0.97446 0.99092 0.68002 0.0
H439 H 0.97687 0.92917 0.61631 0.0
H440 H 0.96274 0.90369 0.63677 0.0
H441 H 0.89194 0.04903 0.65821 0.0
H442 H 0.97525 0.08528 0.71893 0.0
H443 H 0.96485 0.09058 0.69777 0.0
loop_
_geom_bond_atom_site_label_1
_geom_bond_atom_site_label_2
_geom_bond_distance
_geom_bond_site_symmetry_2
_ccdc_geom_bond_type
C0 O2 1.247 . S
C0 O4 1.258 . S
C1 O8 1.247 . S
C1 O9 1.258 . S
O2 C0 1.247 . S
O2 Zn3 2.028 . S
Zn3 O2 2.028 . S
Zn3 O7 2.035 . S
Zn3 O9 2.035 . S
Zn3 O10 2.028 . S
O4 C0 1.258 . S
O4 Zn5 2.035 . S
Zn5 O4 2.035 . S
Zn5 O6 2.028 . S
Zn5 O8 2.028 . S
Zn5 O11 2.035 . S
O6 Zn5 2.028 . S
O6 C12 1.247 . S
O7 Zn3 2.035 . S
O7 C12 1.258 . S
O8 C1 1.247 . S
O8 Zn5 2.028 . S
O9 C1 1.258 . S
O9 Zn3 2.035 . S
O10 Zn3 2.028 . S
O10 C13 1.247 . S
O11 Zn5 2.035 . S
O11 C13 1.258 . S
C12 O6 1.247 . S
C12 O7 1.258 . S
C13 O10 1.247 . S
C13 O11 1.258 . S
C14 O16 1.247 1_545 S
C14 O18 1.258 . S
C15 O22 1.247 . S
C15 O23 1.258 1_545 S
O16 C14 1.247 1_565 S
O16 Zn17 2.028 . S
Zn17 O16 2.028 . S
Zn17 O21 2.035 . S
Zn17 O23 2.035 1_455 S
Zn17 O24 2.028 . S
O18 C14 1.258 . S
O18 Zn19 2.035 . S
Zn19 O18 2.035 . S
Zn19 O20 2.028 . S
Zn19 O22 2.028 1_455 S
Zn19 O25 2.035 . S
O20 Zn19 2.028 . S
O20 C26 1.247 . S
O21 Zn17 2.035 . S
O21 C26 1.258 1_565 S
O22 C15 1.247 . S
O22 Zn19 2.028 1_655 S
O23 C15 1.258 1_565 S
O23 Zn17 2.035 1_655 S
O24 Zn17 2.028 . S
O24 C27 1.247 1_565 S
O25 Zn19 2.035 . S
O25 C27 1.258 . S
C26 O20 1.247 . S
C26 O21 1.258 1_545 S
C27 O24 1.247 1_545 S
C27 O25 1.258 . S
C28 O30 1.247 1_455 S
C28 O32 1.258 . S
C29 O36 1.247 1_655 S
C29 O37 1.258 . S
O30 C28 1.247 1_655 S
O30 Zn31 2.028 . S
Zn31 O30 2.028 . S
Zn31 O35 2.035 1_655 S
Zn31 O37 2.035 . S
Zn31 O38 2.028 . S
O32 C28 1.258 . S
O32 Zn33 2.035 . S
Zn33 O32 2.035 . S
Zn33 O34 2.028 . S
Zn33 O36 2.028 . S
Zn33 O39 2.035 1_445 S
O34 Zn33 2.028 . S
O34 C40 1.247 . S
O35 Zn31 2.035 1_455 S
O35 C40 1.258 . S
O36 C29 1.247 1_455 S
O36 Zn33 2.028 . S
O37 C29 1.258 . S
O37 Zn31 2.035 . S
O38 Zn31 2.028 . S
O38 C41 1.247 1_545 S
O39 Zn33 2.035 1_665 S
O39 C41 1.258 . S
C40 O34 1.247 . S
C40 O35 1.258 . S
C41 O38 1.247 1_565 S
C41 O39 1.258 . S
C42 O44 1.247 . S
C42 O46 1.258 1_445 S
C43 O50 1.247 1_455 S
C43 O51 1.258 1_565 S
O44 C42 1.247 . S
O44 Zn45 2.028 . S
Zn45 O44 2.028 . S
Zn45 O49 2.035 . S
Zn45 O51 2.035 . S
Zn45 O52 2.028 1_455 S
O46 C42 1.258 1_665 S
O46 Zn47 2.035 . S
Zn47 O46 2.035 . S
Zn47 O48 2.028 1_655 S
Zn47 O50 2.028 . S
Zn47 O53 2.035 . S
O48 Zn47 2.028 1_455 S
O48 C54 1.247 1_565 S
O49 Zn45 2.035 . S
O49 C54 1.258 . S
O50 C43 1.247 1_655 S
O50 Zn47 2.028 . S
O51 C43 1.258 1_545 S
O51 Zn45 2.035 . S
O52 Zn45 2.028 1_655 S
O52 C55 1.247 . S
O53 Zn47 2.035 . S
O53 C55 1.258 1_565 S
C54 O48 1.247 1_545 S
C54 O49 1.258 . S
C55 O52 1.247 . S
C55 O53 1.258 1_545 S
C56 O58 1.247 . S
C56 O60 1.258 . S
C57 O64 1.247 . S
C57 O65 1.258 . S
O58 C56 1.247 . S
O58 Zn59 2.028 . S
Zn59 O58 2.028 . S
Zn59 O63 2.035 . S
Zn59 O65 2.035 . S
Zn59 O66 2.028 1_455 S
O60 C56 1.258 . S
O60 Zn61 2.035 . S
Zn61 O60 2.035 . S
Zn61 O62 2.028 . S
Zn61 O64 2.028 . S
Zn61 O67 2.030 1_445 S
O62 Zn61 2.028 . S
O62 C68 1.247 . S
O63 Zn59 2.035 . S
O63 C68 1.258 . S
O64 C57 1.247 . S
O64 Zn61 2.028 . S
O65 C57 1.258 . S
O65 Zn59 2.035 . S
O66 Zn59 2.028 1_655 S
O66 C69 1.247 . S
O67 Zn61 2.030 1_665 S
O67 C69 1.251 1_565 S
C68 O62 1.247 . S
C68 O63 1.258 . S
C69 O66 1.247 . S
C69 O67 1.251 1_545 S
C70 O72 1.247 . S
C70 O74 1.258 . S
C71 O78 1.247 . S
C71 O79 1.258 . S
O72 C70 1.247 . S
O72 Zn73 2.028 . S
Zn73 O72 2.028 . S
Zn73 O77 2.035 . S
Zn73 O79 2.035 . S
Zn73 O80 2.028 1_545 S
O74 C70 1.258 . S
O74 Zn75 2.035 . S
Zn75 O74 2.035 . S
Zn75 O76 2.028 . S
Zn75 O78 2.028 . S
Zn75 O81 2.035 . S
O76 Zn75 2.028 . S
O76 C82 1.247 . S
O77 Zn73 2.035 . S
O77 C82 1.258 . S
O78 C71 1.247 . S
O78 Zn75 2.028 . S
O79 C71 1.258 . S
O79 Zn73 2.035 . S
O80 Zn73 2.028 1_565 S
O80 C83 1.247 . S
O81 Zn75 2.035 . S
O81 C83 1.258 1_545 S
C82 O76 1.247 . S
C82 O77 1.258 . S
C83 O80 1.247 . S
C83 O81 1.258 1_565 S
C84 C85 1.349 . S
C84 C86 1.327 . S
C84 H109 0.950 . S
C85 C84 1.349 . S
C85 C101 1.349 . S
C86 C84 1.327 . S
C86 C105 1.429 . S
C86 H110 0.950 . S
C87 C104 1.574 . S
C87 C106 1.368 . S
C87 H111 0.949 . S
H88 C92 0.949 . S
C89 C90 1.349 . S
C89 C91 1.327 . S
C89 H112 0.950 . S
C90 C89 1.349 . S
C90 C102 1.349 . S
C91 C89 1.327 . S
C91 C107 1.429 . S
C91 H113 0.950 . S
C92 H88 0.949 . S
C92 C100 1.574 . S
C92 C108 1.368 . S
H93 C101 0.950 . S
H94 C99 0.950 . S
H95 C100 0.949 . S
H96 C102 0.950 . S
H97 C103 0.950 . S
H98 C104 0.949 . S
C99 H94 0.950 . S
C99 C101 1.327 . S
C99 C105 1.429 . S
C100 C92 1.574 . S
C100 H95 0.949 . S
C100 C106 1.368 . S
C101 C85 1.349 . S
C101 H93 0.950 . S
C101 C99 1.327 . S
C102 C90 1.349 . S
C102 H96 0.950 . S
C102 C103 1.327 . S
C103 H97 0.950 . S
C103 C102 1.327 . S
C103 C107 1.429 . S
C104 C87 1.574 . S
C104 H98 0.949 . S
C104 C108 1.368 . S
C105 C86 1.429 . S
C105 C99 1.429 . S
C105 C106 1.523 . S
C106 C87 1.368 . S
C106 C100 1.368 . S
C106 C105 1.523 . S
C107 C91 1.429 . S
C107 C103 1.429 . S
C107 C108 1.523 . S
C108 C92 1.368 . S
C108 C104 1.368 . S
C108 C107 1.523 . S
H109 C84 0.950 . S
H110 C86 0.950 . S
H111 C87 0.949 . S
H112 C89 0.950 . S
H113 C91 0.950 . S
C114 C115 1.349 1_565 S
C114 C116 1.327 . S
C114 H139 0.950 . S
C115 C114 1.349 1_545 S
C115 C131 1.349 . S
C116 C114 1.327 . S
C116 C135 1.429 1_565 S
C116 H140 0.950 . S
C117 C134 1.574 . S
C117 C136 1.368 . S
C117 H141 0.949 . S
H118 C122 0.949 . S
C119 C120 1.349 . S
C119 C121 1.327 . S
C119 H142 0.950 . S
C120 C119 1.349 . S
C120 C132 1.349 1_545 S
C121 C119 1.327 . S
C121 C137 1.429 . S
C121 H143 0.950 . S
C122 H118 0.949 . S
C122 C130 1.574 . S
C122 C138 1.368 1_565 S
H123 C131 0.950 . S
H124 C129 0.950 . S
H125 C130 0.949 . S
H126 C132 0.950 . S
H127 C133 0.950 . S
H128 C134 0.949 . S
C129 H124 0.950 . S
C129 C131 1.327 . S
C129 C135 1.429 . S
C130 C122 1.574 . S
C130 H125 0.949 . S
C130 C136 1.368 1_565 S
C131 C115 1.349 . S
C131 H123 0.950 . S
C131 C129 1.327 . S
C132 C120 1.349 1_565 S
C132 H126 0.950 . S
C132 C133 1.327 . S
C133 H127 0.950 . S
C133 C132 1.327 . S
C133 C137 1.429 1_565 S
C134 C117 1.574 . S
C134 H128 0.949 . S
C134 C138 1.368 . S
C135 C116 1.429 1_545 S
C135 C129 1.429 . S
C135 C136 1.523 . S
C136 C117 1.368 . S
C136 C130 1.368 1_545 S
C136 C135 1.523 . S
C137 C121 1.429 . S
C137 C133 1.429 1_545 S
C137 C138 1.523 . S
C138 C122 1.368 1_545 S
C138 C134 1.368 . S
C138 C137 1.523 . S
H139 C114 0.950 . S
H140 C116 0.950 . S
H141 C117 0.949 . S
H142 C119 0.950 . S
H143 C121 0.950 . S
C144 C145 1.349 . S
C144 C146 1.327 . S
C144 H169 0.950 . S
C145 C144 1.349 . S
C145 C161 1.349 . S
C146 C144 1.327 . S
C146 C165 1.429 . S
C146 H170 0.950 . S
C147 C164 1.574 . S
C147 C166 1.368 . S
C147 H171 0.949 . S
H148 C152 0.949 . S
C149 C150 1.349 . S
C149 C151 1.327 . S
C149 H172 0.950 . S
C150 C149 1.349 . S
C150 C162 1.349 . S
C151 C149 1.327 . S
C151 C167 1.429 . S
C151 H173 0.950 . S
C152 H148 0.949 . S
C152 C160 1.574 . S
C152 C168 1.368 . S
H153 C161 0.950 . S
H154 C159 0.950 . S
H155 C160 0.949 . S
H156 C162 0.950 . S
H157 C163 0.950 . S
H158 C164 0.949 . S
C159 H154 0.950 . S
C159 C161 1.327 . S
C159 C165 1.429 . S
C160 C152 1.574 . S
C160 H155 0.949 . S
C160 C166 1.368 . S
C161 C145 1.349 . S
C161 H153 0.950 . S
C161 C159 1.327 . S
C162 C150 1.349 . S
C162 H156 0.950 . S
C162 C163 1.327 . S
C163 H157 0.950 . S
C163 C162 1.327 . S
C163 C167 1.429 . S
C164 C147 1.574 . S
C164 H158 0.949 . S
C164 C168 1.368 . S
C165 C146 1.429 . S
C165 C159 1.429 . S
C165 C166 1.523 . S
C166 C147 1.368 . S
C166 C160 1.368 . S
C166 C165 1.523 . S
C167 C151 1.429 . S
C167 C163 1.429 . S
C167 C168 1.523 . S
C168 C152 1.368 . S
C168 C164 1.368 . S
C168 C167 1.523 . S
H169 C144 0.950 . S
H170 C146 0.950 . S
H171 C147 0.949 . S
H172 C149 0.950 . S
H173 C151 0.950 . S
C174 C175 1.349 . S
C174 C176 1.327 . S
C174 H199 0.950 . S
C175 C174 1.349 . S
C175 C191 1.349 1_545 S
C176 C174 1.327 . S
C176 C195 1.429 . S
C176 H200 0.950 . S
C177 C194 1.574 . S
C177 C196 1.368 1_565 S
C177 H201 0.949 . S
H178 C182 0.949 . S
C179 C180 1.349 1_565 S
C179 C181 1.327 . S
C179 H202 0.950 . S
C180 C179 1.349 1_545 S
C180 C192 1.349 . S
C181 C179 1.327 . S
C181 C197 1.429 1_565 S
C181 H203 0.950 . S
C182 H178 0.949 . S
C182 C190 1.574 . S
C182 C198 1.368 . S
H183 C191 0.950 . S
H184 C189 0.950 . S
H185 C190 0.949 . S
H186 C192 0.950 . S
H187 C193 0.950 . S
H188 C194 0.949 . S
C189 H184 0.950 . S
C189 C191 1.327 . S
C189 C195 1.429 1_565 S
C190 C182 1.574 . S
C190 H185 0.949 . S
C190 C196 1.368 . S
C191 C175 1.349 1_565 S
C191 H183 0.950 . S
C191 C189 1.327 . S
C192 C180 1.349 . S
C192 H186 0.950 . S
C192 C193 1.327 . S
C193 H187 0.950 . S
C193 C192 1.327 . S
C193 C197 1.429 . S
C194 C177 1.574 . S
C194 H188 0.949 . S
C194 C198 1.368 1_565 S
C195 C176 1.429 . S
C195 C189 1.429 1_545 S
C195 C196 1.523 . S
C196 C177 1.368 1_545 S
C196 C190 1.368 . S
C196 C195 1.523 . S
C197 C181 1.429 1_545 S
C197 C193 1.429 . S
C197 C198 1.523 . S
C198 C182 1.368 . S
C198 C194 1.368 1_545 S
C198 C197 1.523 . S
H199 C174 0.950 . S
H200 C176 0.950 . S
H201 C177 0.949 . S
H202 C179 0.950 . S
H203 C181 0.950 . S
C204 C205 1.349 . S
C204 C206 1.327 . S
C204 H229 0.950 . S
C205 C204 1.349 . S
C205 C221 1.349 . S
C206 C204 1.327 . S
C206 C225 1.429 . S
C206 H230 0.950 . S
C207 C224 1.574 . S
C207 C226 1.368 . S
C207 H231 0.949 . S
H208 C212 0.949 . S
C209 C210 1.349 . S
C209 C211 1.327 . S
C209 H232 0.950 . S
C210 C209 1.349 . S
C210 C222 1.349 . S
C211 C209 1.327 . S
C211 C227 1.429 . S
C211 H233 0.950 . S
C212 H208 0.949 . S
C212 C220 1.574 . S
C212 C228 1.368 . S
H213 C221 0.950 . S
H214 C219 0.950 . S
H215 C220 0.949 . S
H216 C222 0.950 . S
H217 C223 0.950 . S
H218 C224 0.949 . S
C219 H214 0.950 . S
C219 C221 1.327 . S
C219 C225 1.429 . S
C220 C212 1.574 . S
C220 H215 0.949 . S
C220 C226 1.368 . S
C221 C205 1.349 . S
C221 H213 0.950 . S
C221 C219 1.327 . S
C222 C210 1.349 . S
C222 H216 0.950 . S
C222 C223 1.327 . S
C223 H217 0.950 . S
C223 C222 1.327 . S
C223 C227 1.429 . S
C224 C207 1.574 . S
C224 H218 0.949 . S
C224 C228 1.368 . S
C225 C206 1.429 . S
C225 C219 1.429 . S
C225 C226 1.523 . S
C226 C207 1.368 . S
C226 C220 1.368 . S
C226 C225 1.523 . S
C227 C211 1.429 . S
C227 C223 1.429 . S
C227 C228 1.523 . S
C228 C212 1.368 . S
C228 C224 1.368 . S
C228 C227 1.523 . S
H229 C204 0.950 . S
H230 C206 0.950 . S
H231 C207 0.949 . S
H232 C209 0.950 . S
H233 C211 0.950 . S
C234 C235 1.349 . S
C234 C236 1.327 . S
C234 H259 0.950 . S
C235 C234 1.349 . S
C235 C251 1.349 . S
C236 C234 1.327 . S
C236 C255 1.429 . S
C236 H260 0.950 . S
C237 C254 1.574 . S
C237 C256 1.368 . S
C237 H261 0.949 . S
H238 C242 0.949 . S
C239 C240 1.349 . S
C239 C241 1.327 . S
C239 H262 0.950 . S
C240 C239 1.349 . S
C240 C252 1.349 . S
C241 C239 1.327 . S
C241 C257 1.429 . S
C241 H263 0.950 . S
C242 H238 0.949 . S
C242 C250 1.574 . S
C242 C258 1.368 . S
H243 C251 0.950 . S
H244 C249 0.950 . S
H245 C250 0.949 . S
H246 C252 0.950 . S
H247 C253 0.950 . S
H248 C254 0.949 . S
C249 H244 0.950 . S
C249 C251 1.327 . S
C249 C255 1.429 . S
C250 C242 1.574 . S
C250 H245 0.949 . S
C250 C256 1.368 . S
C251 C235 1.349 . S
C251 H243 0.950 . S
C251 C249 1.327 . S
C252 C240 1.349 . S
C252 H246 0.950 . S
C252 C253 1.327 . S
C253 H247 0.950 . S
C253 C252 1.327 . S
C253 C257 1.429 . S
C254 C237 1.574 . S
C254 H248 0.949 . S
C254 C258 1.368 . S
C255 C236 1.429 . S
C255 C249 1.429 . S
C255 C256 1.523 . S
C256 C237 1.368 . S
C256 C250 1.368 . S
C256 C255 1.523 . S
C257 C241 1.429 . S
C257 C253 1.429 . S
C257 C258 1.523 . S
C258 C242 1.368 . S
C258 C254 1.368 . S
C258 C257 1.523 . S
H259 C234 0.950 . S
H260 C236 0.950 . S
H261 C237 0.949 . S
H262 C239 0.950 . S
H263 C241 0.950 . S
C264 C265 1.349 . S
C264 C266 1.327 . S
C264 H289 0.950 . S
C265 C264 1.349 . S
C265 C281 1.349 . S
C266 C264 1.327 . S
C266 C285 1.429 . S
C266 H290 0.950 . S
C267 C284 1.574 . S
C267 C286 1.368 . S
C267 H291 0.949 . S
H268 C272 0.949 . S
C269 C270 1.349 . S
C269 C271 1.327 . S
C269 H292 0.950 . S
C270 C269 1.349 . S
C270 C282 1.349 . S
C271 C269 1.327 . S
C271 C287 1.429 . S
C271 H293 0.950 . S
C272 H268 0.949 . S
C272 C280 1.574 . S
C272 C288 1.368 . S
H273 C281 0.950 . S
H274 C279 0.950 . S
H275 C280 0.949 . S
H276 C282 0.950 . S
H277 C283 0.950 . S
H278 C284 0.949 . S
C279 H274 0.950 . S
C279 C281 1.327 . S
C279 C285 1.429 . S
C280 C272 1.574 . S
C280 H275 0.949 . S
C280 C286 1.368 . S
C281 C265 1.349 . S
C281 H273 0.950 . S
C281 C279 1.327 . S
C282 C270 1.349 . S
C282 H276 0.950 . S
C282 C283 1.327 . S
C283 H277 0.950 . S
C283 C282 1.327 . S
C283 C287 1.429 . S
C284 C267 1.574 . S
C284 H278 0.949 . S
C284 C288 1.368 . S
C285 C266 1.429 . S
C285 C279 1.429 . S
C285 C286 1.523 . S
C286 C267 1.368 . S
C286 C280 1.368 . S
C286 C285 1.523 . S
C287 C271 1.429 . S
C287 C283 1.429 . S
C287 C288 1.523 . S
C288 C272 1.368 . S
C288 C284 1.368 . S
C288 C287 1.523 . S
H289 C264 0.950 . S
H290 C266 0.950 . S
H291 C267 0.949 . S
H292 C269 0.950 . S
H293 C271 0.950 . S
C294 C295 1.349 1_545 S
C294 C296 1.327 . S
C294 H319 0.950 . S
C295 C294 1.349 1_565 S
C295 C311 1.349 1_455 S
C296 C294 1.327 . S
C296 C315 1.429 1_545 S
C296 H320 0.950 . S
C297 C314 1.574 . S
C297 C316 1.368 1_655 S
C297 H321 0.949 . S
H298 C302 0.949 . S
C299 C300 1.349 1_665 S
C299 C301 1.327 . S
C299 H322 0.950 . S
C300 C299 1.349 1_445 S
C300 C312 1.349 . S
C301 C299 1.327 . S
C301 C317 1.429 1_665 S
C301 H323 0.950 . S
C302 H298 0.949 . S
C302 C310 1.574 . S
C302 C318 1.369 . S
H303 C311 0.950 . S
H304 C309 0.950 . S
H305 C310 0.949 . S
H306 C312 0.950 . S
H307 C313 0.950 . S
H308 C314 0.949 . S
C309 H304 0.950 . S
C309 C311 1.327 . S
C309 C315 1.429 1_655 S
C310 C302 1.574 . S
C310 H305 0.949 . S
C310 C316 1.368 1_545 S
C311 C295 1.349 1_655 S
C311 H303 0.950 . S
C311 C309 1.327 . S
C312 C300 1.349 . S
C312 H306 0.950 . S
C312 C313 1.327 . S
C313 H307 0.950 . S
C313 C312 1.327 . S
C313 C317 1.429 . S
C314 C297 1.574 . S
C314 H308 0.949 . S
C314 C318 1.367 1_665 S
C315 C296 1.429 1_565 S
C315 C309 1.429 1_455 S
C315 C316 1.523 . S
C316 C297 1.368 1_455 S
C316 C310 1.368 1_565 S
C316 C315 1.523 . S
C317 C301 1.429 1_445 S
C317 C313 1.429 . S
C317 C318 1.523 . S
C318 C302 1.369 . S
C318 C314 1.367 1_445 S
C318 C317 1.523 . S
H319 C294 0.950 . S
H320 C296 0.950 . S
H321 C297 0.949 . S
H322 C299 0.950 . S
H323 C301 0.950 . S
C324 C325 1.349 . S
C324 C326 1.327 . S
C324 H349 0.950 . S
C325 C324 1.349 . S
C325 C341 1.349 . S
C326 C324 1.327 . S
C326 C345 1.429 . S
C326 H350 0.950 . S
C327 C344 1.574 . S
C327 C346 1.368 . S
C327 H351 0.949 . S
H328 C332 0.949 . S
C329 C330 1.349 . S
C329 C331 1.327 . S
C329 H352 0.950 . S
C330 C329 1.349 . S
C330 C342 1.349 . S
C331 C329 1.327 . S
C331 C347 1.429 . S
C331 H353 0.950 . S
C332 H328 0.949 . S
C332 C340 1.574 . S
C332 C348 1.368 . S
H333 C341 0.946 1_655 S
H334 C339 0.950 . S
H335 C340 0.949 . S
H336 C342 0.950 . S
H337 C343 0.950 . S
H338 C344 0.949 . S
C339 H334 0.950 . S
C339 C341 1.327 . S
C339 C345 1.429 . S
C340 C332 1.574 . S
C340 H335 0.949 . S
C340 C346 1.368 . S
C341 C325 1.349 . S
C341 H333 0.946 1_455 S
C341 C339 1.327 . S
C342 C330 1.349 . S
C342 H336 0.950 . S
C342 C343 1.327 . S
C343 H337 0.950 . S
C343 C342 1.327 . S
C343 C347 1.429 . S
C344 C327 1.574 . S
C344 H338 0.949 . S
C344 C348 1.368 . S
C345 C326 1.429 . S
C345 C339 1.429 . S
C345 C346 1.523 . S
C346 C327 1.368 . S
C346 C340 1.368 . S
C346 C345 1.523 . S
C347 C331 1.429 . S
C347 C343 1.429 . S
C347 C348 1.523 . S
C348 C332 1.368 . S
C348 C344 1.368 . S
C348 C347 1.523 . S
H349 C324 0.950 . S
H350 C326 0.950 . S
H351 C327 0.949 . S
H352 C329 0.950 . S
H353 C331 0.950 . S
C354 C355 1.349 . S
C354 C356 1.327 . S
C354 H379 0.950 . S
C355 C354 1.349 . S
C355 C371 1.349 . S
C356 C354 1.327 . S
C356 C375 1.429 . S
C356 H380 0.950 . S
C357 C374 1.574 1_554 S
C357 C376 1.368 . S
C357 H381 0.949 . S
H358 C362 0.949 1_655 S
C359 C360 1.349 . S
C359 C361 1.327 . S
C359 H382 0.950 . S
C360 C359 1.349 . S
C360 C372 1.349 . S
C361 C359 1.327 . S
C361 C377 1.429 . S
C361 H383 0.950 . S
C362 H358 0.949 1_455 S
C362 C370 1.574 1_556 S
C362 C378 1.368 . S
H363 C371 0.950 . S
H364 C369 0.950 . S
H365 C370 0.949 1_655 S
H366 C372 0.950 1_655 S
H367 C373 0.950 1_655 S
H368 C374 0.949 . S
C369 H364 0.950 . S
C369 C371 1.327 . S
C369 C375 1.429 . S
C370 C362 1.574 1_554 S
C370 H365 0.949 1_455 S
C370 C376 1.368 . S
C371 C355 1.349 . S
C371 H363 0.950 . S
C371 C369 1.327 . S
C372 C360 1.349 . S
C372 H366 0.950 1_455 S
C372 C373 1.327 . S
C373 H367 0.950 1_455 S
C373 C372 1.327 . S
C373 C377 1.429 . S
C374 C357 1.574 1_556 S
C374 H368 0.949 . S
C374 C378 1.368 . S
C375 C356 1.429 . S
C375 C369 1.429 . S
C375 C376 1.523 . S
C376 C357 1.368 . S
C376 C370 1.368 . S
C376 C375 1.523 . S
C377 C361 1.429 . S
C377 C373 1.429 . S
C377 C378 1.523 . S
C378 C362 1.368 . S
C378 C374 1.368 . S
C378 C377 1.523 . S
H379 C354 0.950 . S
H380 C356 0.950 . S
H381 C357 0.949 . S
H382 C359 0.950 . S
H383 C361 0.950 . S
C384 C385 1.349 . S
C384 C386 1.327 . S
C384 H409 0.950 . S
C385 C384 1.349 . S
C385 C401 1.349 . S
C386 C384 1.327 . S
C386 C405 1.429 . S
C386 H410 0.950 . S
C387 C404 1.574 . S
C387 C406 1.365 1_565 S
C387 H411 0.952 . S
H388 C392 0.949 . S
C389 C390 1.349 1_565 S
C389 C391 1.327 . S
C389 H412 0.950 . S
C390 C389 1.349 1_545 S
C390 C402 1.349 . S
C391 C389 1.327 . S
C391 C407 1.429 1_565 S
C391 H413 0.950 . S
C392 H388 0.949 . S
C392 C400 1.574 . S
C392 C408 1.368 . S
H393 C401 0.950 1_565 S
H394 C399 0.950 1_565 S
H395 C400 0.949 . S
H396 C402 0.950 . S
H397 C403 0.950 . S
H398 C404 0.949 . S
C399 H394 0.950 1_545 S
C399 C401 1.327 . S
C399 C405 1.429 . S
C400 C392 1.574 . S
C400 H395 0.949 . S
C400 C406 1.368 . S
C401 C385 1.349 . S
C401 H393 0.950 1_545 S
C401 C399 1.327 . S
C402 C390 1.349 . S
C402 H396 0.950 . S
C402 C403 1.327 . S
C403 H397 0.950 . S
C403 C402 1.327 . S
C403 C407 1.429 . S
C404 C387 1.574 . S
C404 H398 0.949 . S
C404 C408 1.368 1_565 S
C405 C386 1.429 . S
C405 C399 1.429 . S
C405 C406 1.523 . S
C406 C387 1.365 1_545 S
C406 C400 1.368 . S
C406 C405 1.523 . S
C407 C391 1.429 1_545 S
C407 C403 1.429 . S
C407 C408 1.523 . S
C408 C392 1.368 . S
C408 C404 1.368 1_545 S
C408 C407 1.523 . S
H409 C384 0.950 . S
H410 C386 0.950 . S
H411 C387 0.952 . S
H412 C389 0.950 . S
H413 C391 0.950 . S
C414 C415 1.352 1_565 S
C414 C416 1.327 . S
C414 H439 0.950 . S
C415 C414 1.352 1_545 S
C415 C431 1.345 1_455 S
C416 C414 1.327 . S
C416 C435 1.433 1_565 S
C416 H440 0.950 . S
C417 C434 1.574 . S
C417 C436 1.364 1_655 S
C417 H441 0.949 . S
H418 C422 0.949 . S
C419 C420 1.345 1_655 S
C419 C421 1.327 . S
C419 H442 0.950 . S
C420 C419 1.345 1_455 S
C420 C432 1.354 . S
C421 C419 1.327 . S
C421 C437 1.424 1_655 S
C421 H443 0.950 . S
C422 H418 0.949 . S
C422 C430 1.574 . S
C422 C438 1.373 1_565 S
H423 C431 0.950 . S
H424 C429 0.950 . S
H425 C430 0.949 . S
H426 C432 0.950 1_565 S
H427 C433 0.950 1_565 S
H428 C434 0.949 . S
C429 H424 0.950 . S
C429 C431 1.327 . S
C429 C435 1.426 1_655 S
C430 C422 1.574 . S
C430 H425 0.949 . S
C430 C436 1.372 1_565 S
C431 C415 1.345 1_655 S
C431 H423 0.950 . S
C431 C429 1.327 . S
C432 C420 1.354 . S
C432 H426 0.950 1_545 S
C432 C433 1.327 . S
C433 H427 0.950 1_545 S
C433 C432 1.327 . S
C433 C437 1.432 . S
C434 C417 1.574 . S
C434 H428 0.949 . S
C434 C438 1.364 1_655 S
C435 C416 1.433 1_545 S
C435 C429 1.426 1_455 S
C435 C436 1.523 . S
C436 C417 1.364 1_455 S
C436 C430 1.372 1_545 S
C436 C435 1.523 . S
C437 C421 1.424 1_455 S
C437 C433 1.432 . S
C437 C438 1.523 . S
C438 C422 1.373 1_545 S
C438 C434 1.364 1_455 S
C438 C437 1.523 . S
H439 C414 0.950 . S
H440 C416 0.950 . S
H441 C417 0.949 . S
H442 C419 0.950 . S
H443 C421 0.950 . S
C85 C0 1.498 1_565 S
C90 C1 1.498 . S
C115 C14 1.498 . S
C120 C15 1.498 . S
C145 C41 1.498 . S
C150 C40 1.498 . S
C175 C54 1.498 . S
C180 C55 1.498 . S
C205 C68 1.498 . S
C210 C69 1.498 1_565 S
C235 C82 1.498 . S
C240 C83 1.498 . S
C265 C71 1.506 . S
C270 C13 1.506 . S
C295 C43 1.506 . S
C300 C26 1.506 . S
C325 C28 1.506 . S
C330 C57 1.506 . S
C355 C12 1.504 . S
C360 C56 1.504 . S
C385 C70 1.506 . S
C390 C27 1.507 . S
C415 C42 1.510 . S
C420 C29 1.507 1_455 S
