# Generated by pormake.
# Topology uon, (4)-cn, num edge types: 1
# Building blocks:
#     Node 0, Type 0, BuildingBlock: KOZSID_clean_sbu_0, # of connection points: 4
#     Node 1, Type 0, BuildingBlock: KOZSID_clean_sbu_0, # of connection points: 4
#     Node 2, Type 0, BuildingBlock: KOZSID_clean_sbu_0, # of connection points: 4
#     Node 3, Type 0, BuildingBlock: KOZSID_clean_sbu_0, # of connection points: 4
#     Node 4, Type 0, BuildingBlock: KOZSID_clean_sbu_0, # of connection points: 4
#     Node 5, Type 0, BuildingBlock: KOZSID_clean_sbu_0, # of connection points: 4
#     Edge 6, Type (0, 0), BuildingBlock: TEMPAE_clean_linker_10, # of connection points: 2
#     Edge 7, Type (0, 0), BuildingBlock: TEMPAE_clean_linker_10, # of connection points: 2
#     Edge 8, Type (0, 0), BuildingBlock: TEMPAE_clean_linker_10, # of connection points: 2
#     Edge 9, Type (0, 0), BuildingBlock: TEMPAE_clean_linker_10, # of connection points: 2
#     Edge 10, Type (0, 0), BuildingBlock: TEMPAE_clean_linker_10, # of connection points: 2
#     Edge 11, Type (0, 0), BuildingBlock: TEMPAE_clean_linker_10, # of connection points: 2
#     Edge 12, Type (0, 0), BuildingBlock: TEMPAE_clean_linker_10, # of connection points: 2
#     Edge 13, Type (0, 0), BuildingBlock: TEMPAE_clean_linker_10, # of connection points: 2
#     Edge 14, Type (0, 0), BuildingBlock: TEMPAE_clean_linker_10, # of connection points: 2
#     Edge 15, Type (0, 0), BuildingBlock: TEMPAE_clean_linker_10, # of connection points: 2
#     Edge 16, Type (0, 0), BuildingBlock: TEMPAE_clean_linker_10, # of connection points: 2
#     Edge 17, Type (0, 0), BuildingBlock: TEMPAE_clean_linker_10, # of connection points: 2
# Relax obj value: 0.068
# Max RMSD: 0.128
# Mean RMSD: 0.128
data_MOF--net-uon--node1-KOZSID_clean_sbu_0--edge1-TEMPAE_clean_linker_10
_symmetry_space_group_name_H-M    P1
_symmetry_Int_Tables_number       1
_symmetry_cell_setting            triclinic
loop_
_symmetry_equiv_pos_as_xyz
'x, y, z'
_cell_length_a     38.533897
_cell_length_b     38.511546
_cell_length_c     34.033618
_cell_angle_alpha  90.006024
_cell_angle_beta   89.931362
_cell_angle_gamma 120.00685
loop_
_atom_site_label
_atom_site_type_symbol
_atom_site_fract_x
_atom_site_fract_y
_atom_site_fract_z
_atom_type_partial_charge
C0 C 0.14617 0.36098 0.03048 0.0
C1 C 0.10683 0.34265 0.0174 0.0
C2 C 0.10767 0.35917 0.98169 0.0
C3 C 0.14729 0.38641 0.97504 0.0
N4 N 0.17192 0.38774 0.00397 0.0
Co5 Co 0.23149 0.42399 0.00699 0.0
N6 N 0.23178 0.45406 0.9587 0.0
C7 C 0.19951 0.44763 0.93733 0.0
C8 C 0.20881 0.47226 0.90532 0.0
C9 C 0.24947 0.49581 0.90613 0.0
C10 C 0.26278 0.48429 0.9389 0.0
N11 N 0.2913 0.45924 0.00918 0.0
C12 C 0.31685 0.48829 0.98412 0.0
C13 C 0.35642 0.50441 0.99599 0.0
C14 C 0.35595 0.48429 0.02917 0.0
C15 C 0.31631 0.45723 0.03579 0.0
N16 N 0.23071 0.39497 0.05633 0.0
C17 C 0.26261 0.40163 0.07841 0.0
C18 C 0.25243 0.37975 0.11254 0.0
C19 C 0.21151 0.3586 0.11281 0.0
C20 C 0.19914 0.36878 0.07864 0.0
N21 N 0.23938 0.3856 0.9739 0.0
C22 C 0.2595 0.34009 0.92299 0.0
C23 C 0.27488 0.34957 0.96111 0.0
C24 C 0.26434 0.37185 0.98585 0.0
C25 C 0.23223 0.35212 0.91157 0.0
C26 C 0.22252 0.37441 0.93728 0.0
N27 N 0.22399 0.46238 0.03998 0.0
C28 C 0.24408 0.50769 0.09542 0.0
C29 C 0.21108 0.51299 0.09049 0.0
C30 C 0.18487 0.49298 0.05944 0.0
C31 C 0.19211 0.46838 0.03439 0.0
C32 C 0.2498 0.48235 0.07025 0.0
H33 H 0.17138 0.45423 0.01088 0.0
H34 H 0.27506 0.479 0.07627 0.0
H35 H 0.27764 0.37831 0.01419 0.0
H36 H 0.20185 0.38282 0.92652 0.0
C37 C 0.16141 0.41549 0.9456 0.0
C38 C 0.15718 0.35457 0.06959 0.0
C39 C 0.3052 0.50142 0.94868 0.0
C40 C 0.30151 0.43047 0.06742 0.0
H41 H 0.08019 0.32092 0.03289 0.0
H42 H 0.08219 0.35377 0.96389 0.0
H43 H 0.18858 0.47206 0.88317 0.0
H44 H 0.26725 0.51807 0.88426 0.0
H45 H 0.38295 0.52819 0.98205 0.0
H46 H 0.38148 0.48889 0.04645 0.0
H47 H 0.27235 0.38028 0.13523 0.0
H48 H 0.19281 0.33881 0.13599 0.0
H49 H 0.29611 0.34107 0.97159 0.0
H50 H 0.21853 0.34462 0.88275 0.0
H51 H 0.26504 0.52236 0.11925 0.0
H52 H 0.15913 0.4966 0.05426 0.0
C53 C 0.78538 0.1418 0.36516 0.0
C54 C 0.76406 0.10215 0.35301 0.0
C55 C 0.75222 0.10268 0.31509 0.0
C56 C 0.76701 0.14249 0.30634 0.0
N57 N 0.78751 0.16688 0.33632 0.0
Co58 Co 0.81296 0.22607 0.33726 0.0
N59 N 0.7793 0.22562 0.29295 0.0
C60 C 0.75766 0.1945 0.26863 0.0
C61 C 0.73659 0.20252 0.24119 0.0
C62 C 0.74611 0.24131 0.24815 0.0
C63 C 0.77301 0.25507 0.27932 0.0
N64 N 0.83929 0.2855 0.3379 0.0
C65 C 0.82926 0.31035 0.31924 0.0
C66 C 0.8578 0.35021 0.32606 0.0
C67 C 0.88681 0.35014 0.34925 0.0
C68 C 0.8746 0.31044 0.35531 0.0
N69 N 0.84583 0.22578 0.38193 0.0
C70 C 0.88039 0.25691 0.3947 0.0
C71 C 0.89511 0.24751 0.42733 0.0
C72 C 0.86793 0.20802 0.43549 0.0
C73 C 0.83819 0.19564 0.40726 0.0
N74 N 0.85398 0.23049 0.29993 0.0
C75 C 0.91798 0.24429 0.25025 0.0
C76 C 0.90708 0.21752 0.28198 0.0
C77 C 0.87471 0.2107 0.30619 0.0
C78 C 0.89537 0.26296 0.24341 0.0
C79 C 0.86382 0.25579 0.26843 0.0
N80 N 0.77251 0.22232 0.37466 0.0
C81 C 0.75597 0.24697 0.43264 0.0
C82 C 0.71553 0.21795 0.42871 0.0
C83 C 0.70412 0.19085 0.39737 0.0
C84 C 0.733 0.19384 0.3704 0.0
C85 C 0.78396 0.24835 0.40567 0.0
H86 H 0.72335 0.17316 0.34609 0.0
H87 H 0.81495 0.27058 0.41 0.0
H88 H 0.86702 0.1901 0.33049 0.0
H89 H 0.84824 0.27185 0.26268 0.0
C90 C 0.7544 0.15708 0.27514 0.0
C91 C 0.80384 0.15498 0.40382 0.0
C92 C 0.79631 0.29755 0.29084 0.0
C93 C 0.893 0.29556 0.38046 0.0
H94 H 0.75718 0.07569 0.36999 0.0
H95 H 0.73292 0.07699 0.29711 0.0
H96 H 0.7163 0.18244 0.21909 0.0
H97 H 0.73555 0.25801 0.23128 0.0
H98 H 0.85828 0.37663 0.31452 0.0
H99 H 0.91343 0.37598 0.3606 0.0
H100 H 0.92123 0.26748 0.44446 0.0
H101 H 0.86959 0.19051 0.45951 0.0
H102 H 0.92349 0.20209 0.28811 0.0
H103 H 0.90287 0.28423 0.2196 0.0
H104 H 0.76598 0.26823 0.45669 0.0
H105 H 0.67302 0.16809 0.39329 0.0
C106 C 0.6411 0.77376 0.68487 0.0
C107 C 0.65826 0.75233 0.66989 0.0
C108 C 0.64519 0.74289 0.6318 0.0
C109 C 0.62082 0.75897 0.62579 0.0
N110 N 0.61799 0.77803 0.65764 0.0
Co111 Co 0.58492 0.80397 0.66296 0.0
N112 N 0.55081 0.7734 0.61771 0.0
C113 C 0.55962 0.75324 0.59081 0.0
C114 C 0.53008 0.7342 0.56326 0.0
C115 C 0.50124 0.74358 0.57293 0.0
C116 C 0.51507 0.76836 0.60574 0.0
N117 N 0.55225 0.83046 0.66835 0.0
C118 C 0.51713 0.82186 0.65105 0.0
C119 C 0.50619 0.84998 0.66141 0.0
C120 C 0.53578 0.87733 0.68542 0.0
C121 C 0.56314 0.86458 0.68844 0.0
N122 N 0.61922 0.83408 0.70817 0.0
C123 C 0.62351 0.8681 0.72363 0.0
C124 C 0.64833 0.88072 0.75589 0.0
C125 C 0.66016 0.85271 0.76089 0.0
C126 C 0.64175 0.82458 0.73137 0.0
N127 N 0.62115 0.84707 0.62717 0.0
C128 C 0.67143 0.9134 0.58001 0.0
C129 C 0.68741 0.90006 0.60951 0.0
C130 C 0.66181 0.86658 0.63246 0.0
C131 C 0.62995 0.89217 0.57408 0.0
C132 C 0.60552 0.85942 0.59787 0.0
N133 N 0.54874 0.7614 0.69895 0.0
C134 C 0.51428 0.74199 0.76112 0.0
C135 C 0.49953 0.70149 0.75249 0.0
C136 C 0.50957 0.69147 0.71631 0.0
C137 C 0.53456 0.7219 0.69012 0.0
C138 C 0.53834 0.77134 0.73386 0.0
H139 H 0.54262 0.71346 0.66289 0.0
H140 H 0.5488 0.8022 0.74126 0.0
H141 H 0.67483 0.85695 0.65502 0.0
H142 H 0.57376 0.84483 0.59297 0.0
C143 C 0.59336 0.74884 0.59509 0.0
C144 C 0.64732 0.79014 0.72468 0.0
C145 C 0.49646 0.79111 0.62065 0.0
C146 C 0.59721 0.88155 0.71262 0.0
H147 H 0.67748 0.74372 0.68503 0.0
H148 H 0.65066 0.72425 0.61187 0.0
H149 H 0.52926 0.71525 0.53938 0.0
H150 H 0.47378 0.73434 0.55682 0.0
H151 H 0.48021 0.85139 0.65161 0.0
H152 H 0.53705 0.90329 0.69916 0.0
H153 H 0.65516 0.90588 0.77487 0.0
H154 H 0.67969 0.8527 0.78372 0.0
H155 H 0.71939 0.91536 0.61483 0.0
H156 H 0.61616 0.90156 0.55195 0.0
H157 H 0.50679 0.75091 0.78859 0.0
H158 H 0.49875 0.66043 0.70863 0.0
C159 C 0.85895 0.6386 0.02766 0.0
C160 C 0.89774 0.65357 0.01376 0.0
C161 C 0.89472 0.63435 0.97917 0.0
C162 C 0.85446 0.60892 0.9739 0.0
N163 N 0.83154 0.61123 0.00271 0.0
Co164 Co 0.77165 0.57915 0.00688 0.0
N165 N 0.76792 0.54518 0.96069 0.0
C166 C 0.79889 0.54654 0.94067 0.0
C167 C 0.78735 0.51829 0.91162 0.0
C168 C 0.7465 0.49784 0.91291 0.0
C169 C 0.73544 0.51528 0.94249 0.0
N170 N 0.71153 0.54867 0.00948 0.0
C171 C 0.68424 0.52062 0.98475 0.0
C172 C 0.64537 0.51029 0.99511 0.0
C173 C 0.64818 0.53253 0.02744 0.0
C174 C 0.68842 0.5554 0.03478 0.0
N175 N 0.77583 0.61138 0.05479 0.0
C176 C 0.74519 0.60807 0.07697 0.0
C177 C 0.75733 0.63106 0.11037 0.0
C178 C 0.7982 0.64935 0.11006 0.0
C179 C 0.80856 0.63648 0.07629 0.0
N180 N 0.76772 0.61841 0.97162 0.0
C181 C 0.7512 0.66489 0.91861 0.0
C182 C 0.74007 0.66151 0.95811 0.0
C183 C 0.74872 0.63859 0.98385 0.0
C184 C 0.77274 0.64633 0.90662 0.0
C185 C 0.78091 0.62373 0.93343 0.0
N186 N 0.7751 0.53986 0.04216 0.0
C187 C 0.74996 0.49503 0.098 0.0
C188 C 0.78217 0.48814 0.09605 0.0
C189 C 0.81055 0.50705 0.06629 0.0
C190 C 0.80619 0.53221 0.03948 0.0
C191 C 0.74717 0.52096 0.07123 0.0
H192 H 0.82848 0.5454 0.01702 0.0
H193 H 0.72237 0.52565 0.07505 0.0
H194 H 0.73868 0.63691 0.01327 0.0
H195 H 0.79727 0.61021 0.92235 0.0
C196 C 0.83805 0.57751 0.9469 0.0
C197 C 0.84978 0.648 0.06642 0.0
C198 C 0.69384 0.50399 0.95052 0.0
C199 C 0.70543 0.58245 0.06588 0.0
H200 H 0.92545 0.67464 0.02808 0.0
H201 H 0.91911 0.63661 0.96143 0.0
H202 H 0.80632 0.51398 0.89106 0.0
H203 H 0.72707 0.47357 0.89351 0.0
H204 H 0.61781 0.48923 0.98057 0.0
H205 H 0.62379 0.53227 0.0435 0.0
H206 H 0.73867 0.63346 0.13276 0.0
H207 H 0.81816 0.66932 0.13242 0.0
H208 H 0.72337 0.67526 0.96902 0.0
H209 H 0.78302 0.64891 0.87656 0.0
H210 H 0.72738 0.48113 0.12073 0.0
H211 H 0.83575 0.5021 0.06347 0.0
C212 C 0.21456 0.85947 0.36777 0.0
C213 C 0.23757 0.89872 0.35477 0.0
C214 C 0.25403 0.89704 0.31979 0.0
C215 C 0.24003 0.85703 0.31341 0.0
N216 N 0.21509 0.83305 0.34187 0.0
Co217 Co 0.18823 0.77314 0.34447 0.0
N218 N 0.21912 0.7713 0.29788 0.0
C219 C 0.2483 0.80313 0.27834 0.0
C220 C 0.26565 0.79287 0.24881 0.0
C221 C 0.24621 0.75199 0.2493 0.0
C222 C 0.2176 0.73961 0.27892 0.0
N223 N 0.15957 0.71298 0.34556 0.0
C224 C 0.16147 0.68662 0.32033 0.0
C225 C 0.13351 0.64728 0.32985 0.0
C226 C 0.11329 0.64882 0.36216 0.0
C227 C 0.12966 0.68883 0.37033 0.0
N228 N 0.15952 0.77546 0.3928 0.0
C229 C 0.13237 0.74398 0.41426 0.0
C230 C 0.12098 0.7549 0.44814 0.0
C231 C 0.14301 0.79583 0.44891 0.0
C232 C 0.16642 0.80745 0.41523 0.0
N233 N 0.14484 0.76924 0.30953 0.0
C234 C 0.08178 0.75347 0.25695 0.0
C235 C 0.07406 0.74141 0.29621 0.0
C236 C 0.10564 0.74966 0.32173 0.0
C237 C 0.12185 0.77543 0.24499 0.0
C238 C 0.15265 0.78322 0.2716 0.0
N239 N 0.23114 0.77659 0.37939 0.0
C240 C 0.25136 0.7506 0.43405 0.0
C241 C 0.29025 0.78325 0.43251 0.0
C242 C 0.29933 0.81235 0.40361 0.0
C243 C 0.26966 0.80819 0.37713 0.0
C244 C 0.22245 0.74803 0.40769 0.0
H245 H 0.27846 0.83099 0.35524 0.0
H246 H 0.19311 0.72286 0.41117 0.0
H247 H 0.09728 0.7389 0.35095 0.0
H248 H 0.18249 0.8 0.26052 0.0
C249 C 0.25559 0.84186 0.28564 0.0
C250 C 0.19594 0.84904 0.40646 0.0
C251 C 0.18837 0.69752 0.28648 0.0
C252 C 0.11894 0.70464 0.40202 0.0
H253 H 0.24338 0.92581 0.36996 0.0
H254 H 0.27576 0.92214 0.30248 0.0
H255 H 0.28878 0.81268 0.22853 0.0
H256 H 0.25182 0.73341 0.2294 0.0
H257 H 0.12798 0.62023 0.31482 0.0
H258 H 0.0894 0.62374 0.37776 0.0
H259 H 0.09997 0.73539 0.47015 0.0
H260 H 0.14256 0.81497 0.47197 0.0
H261 H 0.0436 0.72431 0.30706 0.0
H262 H 0.1295 0.78636 0.21512 0.0
H263 H 0.24301 0.72747 0.45612 0.0
H264 H 0.32931 0.83793 0.40114 0.0
C265 C 0.36638 0.23108 0.6876 0.0
C266 C 0.3479 0.25186 0.67436 0.0
C267 C 0.35917 0.26148 0.63579 0.0
C268 C 0.38378 0.24604 0.62777 0.0
N269 N 0.38838 0.22717 0.65883 0.0
Co270 Co 0.42236 0.20206 0.66136 0.0
N271 N 0.45456 0.23335 0.6154 0.0
C272 C 0.44445 0.2536 0.58989 0.0
C273 C 0.47296 0.27334 0.56151 0.0
C274 C 0.50248 0.26435 0.56913 0.0
C275 C 0.49005 0.23902 0.6016 0.0
N276 N 0.45568 0.17606 0.66374 0.0
C277 C 0.49019 0.18516 0.64474 0.0
C278 C 0.5016 0.15694 0.6531 0.0
C279 C 0.473 0.12913 0.67766 0.0
C280 C 0.44568 0.14165 0.68295 0.0
N281 N 0.39024 0.17154 0.70756 0.0
C282 C 0.38702 0.13766 0.72214 0.0
C283 C 0.36378 0.1248 0.75555 0.0
C284 C 0.35188 0.15253 0.76226 0.0
C285 C 0.36862 0.18072 0.7325 0.0
N286 N 0.3851 0.15905 0.62619 0.0
C287 C 0.33349 0.09303 0.57947 0.0
C288 C 0.31844 0.10577 0.61043 0.0
C289 C 0.34469 0.13906 0.63319 0.0
C290 C 0.37471 0.11472 0.57192 0.0
C291 C 0.39981 0.14734 0.59548 0.0
N292 N 0.45949 0.24458 0.69671 0.0
C293 C 0.49882 0.26409 0.75598 0.0
C294 C 0.50843 0.30394 0.75067 0.0
C295 C 0.49346 0.31364 0.71753 0.0
C296 C 0.46948 0.28362 0.69064 0.0
C297 C 0.47412 0.23491 0.72893 0.0
H298 H 0.45858 0.29191 0.66523 0.0
H299 H 0.46632 0.20433 0.73453 0.0
H300 H 0.3324 0.14818 0.65692 0.0
H301 H 0.43136 0.16237 0.5892 0.0
C302 C 0.41035 0.25708 0.59607 0.0
C303 C 0.36251 0.21502 0.72729 0.0
C304 C 0.50976 0.21665 0.61468 0.0
C305 C 0.41284 0.12441 0.70878 0.0
H306 H 0.32905 0.25995 0.69104 0.0
H307 H 0.35248 0.27995 0.61685 0.0
H308 H 0.47266 0.29248 0.53838 0.0
H309 H 0.52947 0.27429 0.55194 0.0
H310 H 0.52719 0.15574 0.64169 0.0
H311 H 0.4724 0.10307 0.69035 0.0
H312 H 0.35806 0.09964 0.77408 0.0
H313 H 0.33341 0.1523 0.78636 0.0
H314 H 0.28669 0.09014 0.61706 0.0
H315 H 0.38784 0.1058 0.54867 0.0
H316 H 0.50961 0.25536 0.78137 0.0
H317 H 0.50055 0.34424 0.71225 0.0
C318 C 0.27968 0.28838 0.9082 0.0
C319 C 0.27289 0.31908 0.8951 0.0
C320 C 0.29403 0.26972 0.88256 0.0
C321 C 0.30167 0.28182 0.84271 0.0
C322 C 0.29444 0.31241 0.82915 0.0
C323 C 0.28027 0.33068 0.85545 0.0
C324 C 0.30128 0.23721 0.89819 0.0
C325 C 0.30213 0.3262 0.78689 0.0
C326 C 0.37354 0.2628 0.78168 0.0
C327 C 0.34696 0.22946 0.75947 0.0
C328 C 0.35927 0.27955 0.80965 0.0
C329 C 0.31738 0.26269 0.81512 0.0
C330 C 0.2905 0.22844 0.79306 0.0
C331 C 0.30566 0.2122 0.76548 0.0
C332 C 0.38901 0.31589 0.8326 0.0
C333 C 0.24571 0.20969 0.79773 0.0
H334 H 0.2736 0.27876 0.93859 0.0
H335 H 0.2758 0.35477 0.84507 0.0
H336 H 0.28307 0.20904 0.88152 0.0
H337 H 0.33321 0.246 0.89403 0.0
H338 H 0.29375 0.23112 0.92989 0.0
H339 H 0.29411 0.34966 0.78074 0.0
H340 H 0.33425 0.33842 0.77968 0.0
H341 H 0.28458 0.30042 0.767 0.0
H342 H 0.4055 0.27623 0.77656 0.0
H343 H 0.28527 0.18663 0.74781 0.0
H344 H 0.38312 0.31048 0.86457 0.0
H345 H 0.38555 0.34197 0.82485 0.0
H346 H 0.42049 0.32379 0.82667 0.0
H347 H 0.2371 0.20197 0.82899 0.0
H348 H 0.22895 0.18214 0.77971 0.0
H349 H 0.23634 0.2315 0.78887 0.0
C350 C 0.95135 0.25787 0.18422 0.0
C351 C 0.95354 0.25447 0.22509 0.0
C352 C 0.98558 0.27204 0.16039 0.0
C353 C 0.02314 0.28328 0.17775 0.0
C354 C 0.02534 0.27854 0.21882 0.0
C355 C 0.99049 0.26407 0.24198 0.0
C356 C 0.98174 0.27619 0.11671 0.0
C357 C 0.06476 0.29023 0.23848 0.0
C358 C 0.10598 0.2954 0.10792 0.0
C359 C 0.12585 0.33668 0.10057 0.0
C360 C 0.07326 0.27767 0.13402 0.0
C361 C 0.06022 0.30192 0.15303 0.0
C362 C 0.08118 0.34392 0.14641 0.0
C363 C 0.11367 0.36075 0.1201 0.0
C364 C 0.05174 0.23286 0.14009 0.0
C365 C 0.06845 0.37093 0.16604 0.0
H366 H 0.92281 0.25003 0.1709 0.0
H367 H 0.99251 0.26189 0.27356 0.0
H368 H 0.999 0.30829 0.10825 0.0
H369 H 0.99456 0.26037 0.10021 0.0
H370 H 0.95009 0.26397 0.10749 0.0
H371 H 0.06103 0.282 0.27012 0.0
H372 H 0.07969 0.27555 0.22363 0.0
H373 H 0.08504 0.3231 0.23589 0.0
H374 H 0.11538 0.27691 0.09238 0.0
H375 H 0.12903 0.39267 0.11399 0.0
H376 H 0.02093 0.21927 0.12807 0.0
H377 H 0.04898 0.22572 0.17192 0.0
H378 H 0.06737 0.2187 0.12551 0.0
H379 H 0.03817 0.36329 0.15562 0.0
H380 H 0.08946 0.40316 0.15982 0.0
H381 H 0.06651 0.36628 0.19832 0.0
C382 C 0.81172 0.10414 0.44262 0.0
C383 C 0.79143 0.12528 0.43619 0.0
C384 C 0.79611 0.07117 0.46842 0.0
C385 C 0.75937 0.0592 0.48812 0.0
C386 C 0.73977 0.08173 0.48281 0.0
C387 C 0.75592 0.11433 0.45663 0.0
C388 C 0.81782 0.04789 0.47295 0.0
C389 C 0.70073 0.07027 0.50332 0.0
C390 C 0.69102 0.94969 0.51546 0.0
C391 C 0.6971 0.94989 0.55612 0.0
C392 C 0.71196 0.98477 0.49293 0.0
C393 C 0.73956 0.02122 0.51147 0.0
C394 C 0.74675 0.02142 0.55232 0.0
C395 C 0.72556 0.98571 0.57414 0.0
C396 C 0.70371 0.98302 0.44938 0.0
C397 C 0.77575 0.05963 0.57322 0.0
H398 H 0.83884 0.11234 0.42613 0.0
H399 H 0.74008 0.13051 0.45108 0.0
H400 H 0.82152 0.04326 0.50449 0.0
H401 H 0.79979 0.01782 0.45944 0.0
H402 H 0.84782 0.06326 0.45876 0.0
H403 H 0.69132 0.09298 0.49897 0.0
H404 H 0.6768 0.04108 0.49183 0.0
H405 H 0.70338 0.06651 0.5353 0.0
H406 H 0.66942 0.92201 0.50127 0.0
H407 H 0.73012 0.98618 0.6056 0.0
H408 H 0.73213 0.99527 0.43258 0.0
H409 H 0.69022 0.00188 0.44243 0.0
H410 H 0.68301 0.95199 0.4391 0.0
H411 H 0.80534 0.07399 0.55833 0.0
H412 H 0.7799 0.05435 0.60451 0.0
H413 H 0.76456 0.08114 0.57197 0.0
C414 C 0.73952 0.72173 0.90078 0.0
C415 C 0.73892 0.6862 0.89008 0.0
C416 C 0.72561 0.74066 0.87505 0.0
C417 C 0.71075 0.72378 0.83759 0.0
C418 C 0.71066 0.68831 0.82633 0.0
C419 C 0.72469 0.66998 0.85266 0.0
C420 C 0.72641 0.77852 0.88812 0.0
C421 C 0.69509 0.66932 0.78667 0.0
C422 C 0.63885 0.74785 0.78334 0.0
C423 C 0.66426 0.77581 0.75558 0.0
C424 C 0.65372 0.73124 0.81078 0.0
C425 C 0.69496 0.74293 0.81023 0.0
C426 C 0.72084 0.77203 0.78268 0.0
C427 C 0.70515 0.7882 0.7557 0.0
C428 C 0.62511 0.7005 0.83972 0.0
C429 C 0.7649 0.7853 0.78103 0.0
H430 H 0.75092 0.73482 0.92939 0.0
H431 H 0.72351 0.64225 0.84429 0.0
H432 H 0.74421 0.80318 0.86711 0.0
H433 H 0.69554 0.77377 0.88825 0.0
H434 H 0.73941 0.78816 0.91794 0.0
H435 H 0.69798 0.64233 0.78197 0.0
H436 H 0.66305 0.66053 0.78383 0.0
H437 H 0.71165 0.69126 0.76297 0.0
H438 H 0.60718 0.73835 0.78297 0.0
H439 H 0.7246 0.80988 0.73402 0.0
H440 H 0.63605 0.70991 0.87016 0.0
H441 H 0.62367 0.67136 0.83455 0.0
H442 H 0.59434 0.69594 0.83738 0.0
H443 H 0.77885 0.79637 0.81023 0.0
H444 H 0.78125 0.80936 0.75897 0.0
H445 H 0.76874 0.75939 0.77346 0.0
C446 C 0.88548 0.64069 0.12417 0.0
C447 C 0.88182 0.66566 0.09667 0.0
C448 C 0.91761 0.65612 0.15082 0.0
C449 C 0.94671 0.69751 0.14982 0.0
C450 C 0.94248 0.72295 0.12251 0.0
C451 C 0.90999 0.70666 0.09623 0.0
C452 C 0.9209 0.62794 0.17943 0.0
C453 C 0.97277 0.76715 0.12042 0.0
C454 C 0.01328 0.7421 0.23983 0.0
C455 C 0.04816 0.74169 0.2286 0.0
C456 C 0.9803 0.72839 0.21434 0.0
C457 C 0.98212 0.71388 0.1766 0.0
C458 C 0.01752 0.71416 0.16475 0.0
C459 C 0.05005 0.72803 0.19084 0.0
C460 C 0.94324 0.72884 0.22803 0.0
C461 C 0.02071 0.69892 0.1248 0.0
H462 H 0.86363 0.60891 0.12416 0.0
H463 H 0.90702 0.72575 0.07469 0.0
H464 H 0.94898 0.62736 0.17387 0.0
H465 H 0.9224 0.63872 0.20995 0.0
H466 H 0.8952 0.59684 0.17717 0.0
H467 H 0.96429 0.7831 0.09865 0.0
H468 H 0.97604 0.78122 0.14964 0.0
H469 H 0.00253 0.7714 0.1122 0.0
H470 H 0.0117 0.75309 0.26871 0.0
H471 H 0.07659 0.72705 0.18204 0.0
H472 H 0.91739 0.6978 0.22867 0.0
H473 H 0.93572 0.74618 0.20712 0.0
H474 H 0.94699 0.74213 0.25778 0.0
H475 H 0.99789 0.66669 0.12206 0.0
H476 H 0.05078 0.70249 0.11948 0.0
H477 H 0.01452 0.71518 0.10144 0.0
C478 C 0.27896 0.02082 0.57405 0.0
C479 C 0.30715 0.05664 0.55575 0.0
C480 C 0.25716 0.9852 0.5523 0.0
C481 C 0.26356 0.98544 0.51126 0.0
C482 C 0.29085 0.02187 0.49247 0.0
C483 C 0.31229 0.05691 0.5149 0.0
C484 C 0.2284 0.94702 0.57345 0.0
C485 C 0.29834 0.02362 0.44875 0.0
C486 C 0.24592 0.89161 0.45702 0.0
C487 C 0.21003 0.88048 0.43731 0.0
C488 C 0.26281 0.92473 0.4825 0.0
C489 C 0.24342 0.94744 0.48805 0.0
C490 C 0.20635 0.93536 0.46905 0.0
C491 C 0.1901 0.90196 0.44381 0.0
C492 C 0.30225 0.93639 0.50216 0.0
C493 C 0.18478 0.95872 0.47404 0.0
H494 H 0.27507 0.02026 0.60564 0.0
H495 H 0.3336 0.08459 0.50046 0.0
H496 H 0.19863 0.93264 0.55899 0.0
H497 H 0.23957 0.9255 0.57189 0.0
H498 H 0.22462 0.95234 0.60485 0.0
H499 H 0.31891 0.05465 0.43831 0.0
H500 H 0.31163 0.00471 0.44124 0.0
H501 H 0.26964 0.01144 0.43251 0.0
H502 H 0.26136 0.87502 0.45153 0.0
H503 H 0.16252 0.8934 0.42807 0.0
H504 H 0.30005 0.93999 0.53425 0.0
H505 H 0.32586 0.96571 0.49053 0.0
H506 H 0.31181 0.91388 0.49725 0.0
H507 H 0.18126 0.9632 0.50567 0.0
H508 H 0.15471 0.94348 0.46007 0.0
H509 H 0.2028 0.98886 0.46062 0.0
C510 C 0.1741 0.66646 0.21951 0.0
C511 C 0.18544 0.6663 0.25858 0.0
C512 C 0.17535 0.64019 0.19164 0.0
C513 C 0.1878 0.61278 0.20328 0.0
C514 C 0.19776 0.61151 0.24315 0.0
C515 C 0.19677 0.63855 0.27028 0.0
C516 C 0.16491 0.64289 0.14944 0.0
C517 C 0.21073 0.58248 0.2569 0.0
C518 C 0.16679 0.52531 0.13573 0.0
C519 C 0.20428 0.53908 0.11792 0.0
C520 C 0.16087 0.54891 0.16356 0.0
C521 C 0.19305 0.58742 0.17333 0.0
C522 C 0.2307 0.60175 0.15473 0.0
C523 C 0.23592 0.57732 0.12751 0.0
C524 C 0.12044 0.53236 0.18306 0.0
C525 C 0.26564 0.64283 0.1638 0.0
H526 H 0.16542 0.68808 0.21058 0.0
H527 H 0.20576 0.63869 0.30048 0.0
H528 H 0.19187 0.65304 0.13071 0.0
H529 H 0.14187 0.61295 0.13864 0.0
H530 H 0.15354 0.66411 0.14564 0.0
H531 H 0.21414 0.58291 0.28934 0.0
H532 H 0.18861 0.55153 0.24761 0.0
H533 H 0.23983 0.59018 0.24315 0.0
H534 H 0.14238 0.49559 0.1287 0.0
H535 H 0.26484 0.58819 0.11354 0.0
H536 H 0.10834 0.55275 0.17799 0.0
H537 H 0.12359 0.53058 0.2153 0.0
H538 H 0.09843 0.50204 0.17201 0.0
H539 H 0.25718 0.66604 0.15837 0.0
H540 H 0.29251 0.65004 0.14583 0.0
H541 H 0.27373 0.64465 0.1953 0.0
C542 C 0.53044 0.20169 0.54996 0.0
C543 C 0.5405 0.21577 0.58861 0.0
C544 C 0.55892 0.20138 0.52445 0.0
C545 C 0.59815 0.21422 0.5383 0.0
C546 C 0.60805 0.22714 0.57782 0.0
C547 C 0.57915 0.22811 0.60244 0.0
C548 C 0.54721 0.18804 0.48246 0.0
C549 C 0.6492 0.2401 0.594 0.0
C550 C 0.66044 0.18168 0.47792 0.0
C551 C 0.6855 0.21673 0.45685 0.0
C552 C 0.63257 0.18069 0.50532 0.0
C553 C 0.62901 0.21527 0.51096 0.0
C554 C 0.65412 0.25061 0.48941 0.0
C555 C 0.68237 0.25105 0.463 0.0
C556 C 0.60701 0.14271 0.52829 0.0
C557 C 0.65069 0.2878 0.49378 0.0
H558 H 0.50025 0.19141 0.53955 0.0
H559 H 0.58666 0.23844 0.63251 0.0
H560 H 0.56688 0.21265 0.46213 0.0
H561 H 0.55143 0.16219 0.47587 0.0
H562 H 0.51554 0.17922 0.47628 0.0
H563 H 0.65142 0.2471 0.62588 0.0
H564 H 0.65677 0.21614 0.5893 0.0
H565 H 0.67196 0.26711 0.57811 0.0
H566 H 0.66317 0.15527 0.47342 0.0
H567 H 0.70164 0.27809 0.44652 0.0
H568 H 0.57495 0.13064 0.52103 0.0
H569 H 0.61044 0.14923 0.56026 0.0
H570 H 0.61494 0.1192 0.52205 0.0
H571 H 0.61985 0.28084 0.48621 0.0
H572 H 0.67223 0.31273 0.47469 0.0
H573 H 0.65615 0.29814 0.52474 0.0
C574 C 0.48563 0.67199 0.82015 0.0
C575 C 0.47331 0.67012 0.78108 0.0
C576 C 0.46024 0.64385 0.84814 0.0
C577 C 0.42124 0.61366 0.83699 0.0
C578 C 0.40891 0.61137 0.79738 0.0
C579 C 0.43527 0.63938 0.76981 0.0
C580 C 0.47495 0.64681 0.88978 0.0
C581 C 0.3674 0.58008 0.78439 0.0
C582 C 0.36133 0.52074 0.90053 0.0
C583 C 0.33649 0.53102 0.92157 0.0
C584 C 0.38971 0.54766 0.87354 0.0
C585 C 0.39277 0.58545 0.86699 0.0
C586 C 0.36795 0.59603 0.88861 0.0
C587 C 0.34043 0.56884 0.91596 0.0
C588 C 0.4161 0.53551 0.85174 0.0
C589 C 0.36984 0.63574 0.88224 0.0
H590 H 0.51521 0.69559 0.82879 0.0
H591 H 0.42565 0.63812 0.73966 0.0
H592 H 0.45694 0.65428 0.90987 0.0
H593 H 0.47101 0.61751 0.89938 0.0
H594 H 0.50702 0.67004 0.89298 0.0
H595 H 0.36268 0.58186 0.75242 0.0
H596 H 0.36208 0.54963 0.79118 0.0
H597 H 0.34467 0.58396 0.80081 0.0
H598 H 0.35821 0.49143 0.90498 0.0
H599 H 0.32126 0.57673 0.93244 0.0
H600 H 0.44809 0.55847 0.85584 0.0
H601 H 0.40976 0.53371 0.81979 0.0
H602 H 0.4115 0.50603 0.86173 0.0
H603 H 0.40056 0.66074 0.88818 0.0
H604 H 0.34849 0.63937 0.90137 0.0
H605 H 0.3629 0.63838 0.85112 0.0
C606 C 0.75319 0.42311 0.13249 0.0
C607 C 0.78586 0.46139 0.12507 0.0
C608 C 0.75581 0.3976 0.16031 0.0
C609 C 0.79174 0.41097 0.18181 0.0
C610 C 0.82472 0.44981 0.17472 0.0
C611 C 0.82151 0.47443 0.14612 0.0
C612 C 0.72024 0.35614 0.16637 0.0
C613 C 0.8633 0.46541 0.19744 0.0
C614 C 0.78306 0.35388 0.27624 0.0
C615 C 0.79664 0.32811 0.26377 0.0
C616 C 0.78236 0.3819 0.25019 0.0
C617 C 0.79506 0.38366 0.21072 0.0
C618 C 0.8095 0.35807 0.19836 0.0
C619 C 0.81058 0.33099 0.22518 0.0
C620 C 0.76751 0.4092 0.26468 0.0
C621 C 0.82284 0.35854 0.15653 0.0
H622 H 0.72568 0.41293 0.11605 0.0
H623 H 0.84663 0.50422 0.14073 0.0
H624 H 0.72895 0.33323 0.16019 0.0
H625 H 0.71022 0.35227 0.19743 0.0
H626 H 0.69457 0.35027 0.14718 0.0
H627 H 0.88551 0.49688 0.1896 0.0
H628 H 0.85715 0.46387 0.22945 0.0
H629 H 0.8768 0.44635 0.19167 0.0
H630 H 0.77274 0.35182 0.30625 0.0
H631 H 0.82161 0.31134 0.21583 0.0
H632 H 0.73968 0.40248 0.24887 0.0
H633 H 0.79007 0.44092 0.25838 0.0
H634 H 0.76116 0.40587 0.29673 0.0
H635 H 0.79748 0.35067 0.13619 0.0
H636 H 0.83385 0.33714 0.15184 0.0
H637 H 0.8471 0.38907 0.14853 0.0
C638 C 0.3428 0.8214 0.48338 0.0
C639 C 0.32092 0.78654 0.46094 0.0
C640 C 0.37085 0.82411 0.51143 0.0
C641 C 0.37776 0.79152 0.51645 0.0
C642 C 0.35594 0.75643 0.49352 0.0
C643 C 0.32751 0.75423 0.46636 0.0
C644 C 0.39295 0.86173 0.53578 0.0
C645 C 0.36299 0.72137 0.49731 0.0
C646 C 0.47723 0.81018 0.5576 0.0
C647 C 0.46628 0.79367 0.59535 0.0
C648 C 0.44887 0.81028 0.53189 0.0
C649 C 0.40875 0.79441 0.54462 0.0
C650 C 0.39799 0.77942 0.58347 0.0
C651 C 0.42691 0.77896 0.60836 0.0
C652 C 0.46157 0.82604 0.49063 0.0
C653 C 0.35576 0.76308 0.59843 0.0
H654 H 0.33736 0.84622 0.47951 0.0
H655 H 0.31074 0.72735 0.44884 0.0
H656 H 0.38838 0.85406 0.5675 0.0
H657 H 0.4256 0.87629 0.52997 0.0
H658 H 0.38293 0.88365 0.52947 0.0
H659 H 0.34376 0.6964 0.47712 0.0
H660 H 0.39484 0.73123 0.49085 0.0
H661 H 0.35693 0.70984 0.52788 0.0
H662 H 0.50792 0.82203 0.54785 0.0
H663 H 0.41871 0.7666 0.63774 0.0
H664 H 0.45419 0.84986 0.48436 0.0
H665 H 0.44486 0.80152 0.46919 0.0
H666 H 0.49419 0.83842 0.48575 0.0
H667 H 0.34575 0.78519 0.59345 0.0
H668 H 0.35306 0.75567 0.63024 0.0
H669 H 0.3351 0.73554 0.58192 0.0
C670 C 0.52112 0.35962 0.79714 0.0
C671 C 0.534 0.33501 0.77971 0.0
C672 C 0.54447 0.38795 0.82594 0.0
C673 C 0.58194 0.39233 0.83686 0.0
C674 C 0.59527 0.3679 0.8188 0.0
C675 C 0.57095 0.33928 0.79077 0.0
C676 C 0.52884 0.41284 0.845 0.0
C677 C 0.63529 0.37204 0.82904 0.0
C678 C 0.66293 0.48871 0.88356 0.0
C679 C 0.66194 0.4768 0.92263 0.0
C680 C 0.63626 0.46191 0.85553 0.0
C681 C 0.60751 0.42241 0.86704 0.0
C682 C 0.60527 0.41089 0.90695 0.0
C683 C 0.63283 0.43814 0.93422 0.0
C684 C 0.64011 0.47529 0.81328 0.0
C685 C 0.57467 0.36934 0.92058 0.0
H686 H 0.49234 0.35602 0.78886 0.0
H687 H 0.58101 0.32041 0.77712 0.0
H688 H 0.52708 0.40837 0.87731 0.0
H689 H 0.5498 0.44513 0.83944 0.0
H690 H 0.49869 0.40509 0.83395 0.0
H691 H 0.64174 0.35156 0.81154 0.0
H692 H 0.65962 0.40333 0.82388 0.0
H693 H 0.63598 0.36545 0.86066 0.0
H694 H 0.6856 0.51867 0.87471 0.0
H695 H 0.63233 0.42893 0.96442 0.0
H696 H 0.61074 0.46965 0.802 0.0
H697 H 0.64949 0.45763 0.79486 0.0
H698 H 0.66237 0.50764 0.80958 0.0
H699 H 0.54431 0.36168 0.91044 0.0
H700 H 0.57418 0.36643 0.95308 0.0
H701 H 0.58156 0.34705 0.90758 0.0
loop_
_geom_bond_atom_site_label_1
_geom_bond_atom_site_label_2
_geom_bond_distance
_geom_bond_site_symmetry_2
_ccdc_geom_bond_type
C0 C1 1.443 . S
C0 N4 1.376 . S
C0 C38 1.389 . S
C1 C0 1.443 . S
C1 C2 1.340 1_554 S
C1 H41 0.951 . S
C2 C1 1.340 1_556 S
C2 C3 1.439 . S
C2 H42 0.950 . S
C3 C2 1.439 . S
C3 N4 1.374 1_556 S
C3 C37 1.395 . S
N4 C0 1.376 . S
N4 C3 1.374 1_554 S
N4 Co5 2.008 . S
Co5 N4 2.008 . S
Co5 N6 1.995 1_554 S
Co5 N11 2.008 . S
Co5 N16 1.995 . S
Co5 N21 2.282 1_554 S
Co5 N27 2.282 . S
N6 Co5 1.995 1_556 S
N6 C7 1.376 . S
N6 C10 1.383 . S
C7 N6 1.376 . S
C7 C8 1.446 . S
C7 C37 1.391 . S
C8 C7 1.446 . S
C8 C9 1.339 . S
C8 H43 0.949 . S
C9 C8 1.339 . S
C9 C10 1.439 . S
C9 H44 0.950 . S
C10 N6 1.383 . S
C10 C9 1.439 . S
C10 C39 1.392 . S
N11 Co5 2.008 . S
N11 C12 1.376 1_554 S
N11 C15 1.374 . S
C12 N11 1.376 1_556 S
C12 C13 1.443 . S
C12 C39 1.389 . S
C13 C12 1.443 . S
C13 C14 1.340 1_556 S
C13 H45 0.951 . S
C14 C13 1.340 1_554 S
C14 C15 1.439 . S
C14 H46 0.950 . S
C15 N11 1.374 . S
C15 C14 1.439 . S
C15 C40 1.395 . S
N16 Co5 1.995 . S
N16 C17 1.376 . S
N16 C20 1.383 . S
C17 N16 1.376 . S
C17 C18 1.446 . S
C17 C40 1.391 . S
C18 C17 1.446 . S
C18 C19 1.339 . S
C18 H47 0.949 . S
C19 C18 1.339 . S
C19 C20 1.439 . S
C19 H48 0.950 . S
C20 N16 1.383 . S
C20 C19 1.439 . S
C20 C38 1.392 . S
N21 Co5 2.282 1_556 S
N21 C24 1.332 . S
N21 C26 1.332 . S
C22 C23 1.386 . S
C22 C25 1.388 . S
C23 C22 1.386 . S
C23 C24 1.382 . S
C23 H49 0.950 . S
C24 N21 1.332 . S
C24 C23 1.382 . S
C24 H35 0.952 1_556 S
C25 C22 1.388 . S
C25 C26 1.382 . S
C25 H50 0.950 . S
C26 N21 1.332 . S
C26 C25 1.382 . S
C26 H36 0.948 . S
N27 Co5 2.282 . S
N27 C31 1.332 . S
N27 C32 1.332 . S
C28 C29 1.388 . S
C28 C32 1.382 . S
C28 H51 0.950 . S
C29 C28 1.388 . S
C29 C30 1.386 . S
C30 C29 1.386 . S
C30 C31 1.382 . S
C30 H52 0.950 . S
C31 N27 1.332 . S
C31 C30 1.382 . S
C31 H33 0.952 . S
C32 N27 1.332 . S
C32 C28 1.382 . S
C32 H34 0.948 . S
H33 C31 0.952 . S
H34 C32 0.948 . S
H35 C24 0.952 1_554 S
H36 C26 0.948 . S
C37 C3 1.395 . S
C37 C7 1.391 . S
C38 C0 1.389 . S
C38 C20 1.392 . S
C39 C10 1.392 . S
C39 C12 1.389 . S
C40 C15 1.395 . S
C40 C17 1.391 . S
H41 C1 0.951 . S
H42 C2 0.950 . S
H43 C8 0.949 . S
H44 C9 0.950 . S
H45 C13 0.951 . S
H46 C14 0.950 . S
H47 C18 0.949 . S
H48 C19 0.950 . S
H49 C23 0.950 . S
H50 C25 0.950 . S
H51 C28 0.950 . S
H52 C30 0.950 . S
C53 C54 1.443 . S
C53 N57 1.376 . S
C53 C91 1.389 . S
C54 C53 1.443 . S
C54 C55 1.340 . S
C54 H94 0.951 . S
C55 C54 1.340 . S
C55 C56 1.439 . S
C55 H95 0.950 . S
C56 C55 1.439 . S
C56 N57 1.374 . S
C56 C90 1.395 . S
N57 C53 1.376 . S
N57 C56 1.374 . S
N57 Co58 2.008 . S
Co58 N57 2.008 . S
Co58 N59 1.995 . S
Co58 N64 2.008 . S
Co58 N69 1.995 . S
Co58 N74 2.282 . S
Co58 N80 2.282 . S
N59 Co58 1.995 . S
N59 C60 1.376 . S
N59 C63 1.383 . S
C60 N59 1.376 . S
C60 C61 1.446 . S
C60 C90 1.391 . S
C61 C60 1.446 . S
C61 C62 1.339 . S
C61 H96 0.949 . S
C62 C61 1.339 . S
C62 C63 1.439 . S
C62 H97 0.950 . S
C63 N59 1.383 . S
C63 C62 1.439 . S
C63 C92 1.392 . S
N64 Co58 2.008 . S
N64 C65 1.376 . S
N64 C68 1.374 . S
C65 N64 1.376 . S
C65 C66 1.443 . S
C65 C92 1.389 . S
C66 C65 1.443 . S
C66 C67 1.340 . S
C66 H98 0.951 . S
C67 C66 1.340 . S
C67 C68 1.439 . S
C67 H99 0.950 . S
C68 N64 1.374 . S
C68 C67 1.439 . S
C68 C93 1.395 . S
N69 Co58 1.995 . S
N69 C70 1.376 . S
N69 C73 1.383 . S
C70 N69 1.376 . S
C70 C71 1.446 . S
C70 C93 1.391 . S
C71 C70 1.446 . S
C71 C72 1.339 . S
C71 H100 0.949 . S
C72 C71 1.339 . S
C72 C73 1.439 . S
C72 H101 0.950 . S
C73 N69 1.383 . S
C73 C72 1.439 . S
C73 C91 1.392 . S
N74 Co58 2.282 . S
N74 C77 1.332 . S
N74 C79 1.332 . S
C75 C76 1.386 . S
C75 C78 1.388 . S
C76 C75 1.386 . S
C76 C77 1.382 . S
C76 H102 0.950 . S
C77 N74 1.332 . S
C77 C76 1.382 . S
C77 H88 0.952 . S
C78 C75 1.388 . S
C78 C79 1.382 . S
C78 H103 0.950 . S
C79 N74 1.332 . S
C79 C78 1.382 . S
C79 H89 0.948 . S
N80 Co58 2.282 . S
N80 C84 1.332 . S
N80 C85 1.332 . S
C81 C82 1.388 . S
C81 C85 1.382 . S
C81 H104 0.950 . S
C82 C81 1.388 . S
C82 C83 1.386 . S
C83 C82 1.386 . S
C83 C84 1.382 . S
C83 H105 0.950 . S
C84 N80 1.332 . S
C84 C83 1.382 . S
C84 H86 0.952 . S
C85 N80 1.332 . S
C85 C81 1.382 . S
C85 H87 0.948 . S
H86 C84 0.952 . S
H87 C85 0.948 . S
H88 C77 0.952 . S
H89 C79 0.948 . S
C90 C56 1.395 . S
C90 C60 1.391 . S
C91 C53 1.389 . S
C91 C73 1.392 . S
C92 C63 1.392 . S
C92 C65 1.389 . S
C93 C68 1.395 . S
C93 C70 1.391 . S
H94 C54 0.951 . S
H95 C55 0.950 . S
H96 C61 0.949 . S
H97 C62 0.950 . S
H98 C66 0.951 . S
H99 C67 0.950 . S
H100 C71 0.949 . S
H101 C72 0.950 . S
H102 C76 0.950 . S
H103 C78 0.950 . S
H104 C81 0.950 . S
H105 C83 0.950 . S
C106 C107 1.443 . S
C106 N110 1.376 . S
C106 C144 1.389 . S
C107 C106 1.443 . S
C107 C108 1.340 . S
C107 H147 0.951 . S
C108 C107 1.340 . S
C108 C109 1.439 . S
C108 H148 0.950 . S
C109 C108 1.439 . S
C109 N110 1.374 . S
C109 C143 1.395 . S
N110 C106 1.376 . S
N110 C109 1.374 . S
N110 Co111 2.008 . S
Co111 N110 2.008 . S
Co111 N112 1.995 . S
Co111 N117 2.008 . S
Co111 N122 1.995 . S
Co111 N127 2.282 . S
Co111 N133 2.282 . S
N112 Co111 1.995 . S
N112 C113 1.376 . S
N112 C116 1.383 . S
C113 N112 1.376 . S
C113 C114 1.446 . S
C113 C143 1.391 . S
C114 C113 1.446 . S
C114 C115 1.339 . S
C114 H149 0.949 . S
C115 C114 1.339 . S
C115 C116 1.439 . S
C115 H150 0.950 . S
C116 N112 1.383 . S
C116 C115 1.439 . S
C116 C145 1.392 . S
N117 Co111 2.008 . S
N117 C118 1.376 . S
N117 C121 1.374 . S
C118 N117 1.376 . S
C118 C119 1.443 . S
C118 C145 1.389 . S
C119 C118 1.443 . S
C119 C120 1.340 . S
C119 H151 0.951 . S
C120 C119 1.340 . S
C120 C121 1.439 . S
C120 H152 0.950 . S
C121 N117 1.374 . S
C121 C120 1.439 . S
C121 C146 1.395 . S
N122 Co111 1.995 . S
N122 C123 1.376 . S
N122 C126 1.383 . S
C123 N122 1.376 . S
C123 C124 1.446 . S
C123 C146 1.391 . S
C124 C123 1.446 . S
C124 C125 1.339 . S
C124 H153 0.949 . S
C125 C124 1.339 . S
C125 C126 1.439 . S
C125 H154 0.950 . S
C126 N122 1.383 . S
C126 C125 1.439 . S
C126 C144 1.392 . S
N127 Co111 2.282 . S
N127 C130 1.332 . S
N127 C132 1.332 . S
C128 C129 1.386 . S
C128 C131 1.388 . S
C129 C128 1.386 . S
C129 C130 1.382 . S
C129 H155 0.950 . S
C130 N127 1.332 . S
C130 C129 1.382 . S
C130 H141 0.952 . S
C131 C128 1.388 . S
C131 C132 1.382 . S
C131 H156 0.950 . S
C132 N127 1.332 . S
C132 C131 1.382 . S
C132 H142 0.948 . S
N133 Co111 2.282 . S
N133 C137 1.332 . S
N133 C138 1.332 . S
C134 C135 1.388 . S
C134 C138 1.382 . S
C134 H157 0.950 . S
C135 C134 1.388 . S
C135 C136 1.386 . S
C136 C135 1.386 . S
C136 C137 1.382 . S
C136 H158 0.950 . S
C137 N133 1.332 . S
C137 C136 1.382 . S
C137 H139 0.952 . S
C138 N133 1.332 . S
C138 C134 1.382 . S
C138 H140 0.948 . S
H139 C137 0.952 . S
H140 C138 0.948 . S
H141 C130 0.952 . S
H142 C132 0.948 . S
C143 C109 1.395 . S
C143 C113 1.391 . S
C144 C106 1.389 . S
C144 C126 1.392 . S
C145 C116 1.392 . S
C145 C118 1.389 . S
C146 C121 1.395 . S
C146 C123 1.391 . S
H147 C107 0.951 . S
H148 C108 0.950 . S
H149 C114 0.949 . S
H150 C115 0.950 . S
H151 C119 0.951 . S
H152 C120 0.950 . S
H153 C124 0.949 . S
H154 C125 0.950 . S
H155 C129 0.950 . S
H156 C131 0.950 . S
H157 C134 0.950 . S
H158 C136 0.950 . S
C159 C160 1.443 . S
C159 N163 1.376 . S
C159 C197 1.389 . S
C160 C159 1.443 . S
C160 C161 1.340 1_554 S
C160 H200 0.951 . S
C161 C160 1.340 1_556 S
C161 C162 1.439 . S
C161 H201 0.950 . S
C162 C161 1.439 . S
C162 N163 1.374 1_556 S
C162 C196 1.395 . S
N163 C159 1.376 . S
N163 C162 1.374 1_554 S
N163 Co164 2.008 . S
Co164 N163 2.008 . S
Co164 N165 1.995 1_554 S
Co164 N170 2.008 . S
Co164 N175 1.995 . S
Co164 N180 2.282 1_554 S
Co164 N186 2.282 . S
N165 Co164 1.995 1_556 S
N165 C166 1.376 . S
N165 C169 1.383 . S
C166 N165 1.376 . S
C166 C167 1.446 . S
C166 C196 1.391 . S
C167 C166 1.446 . S
C167 C168 1.339 . S
C167 H202 0.949 . S
C168 C167 1.339 . S
C168 C169 1.439 . S
C168 H203 0.950 . S
C169 N165 1.383 . S
C169 C168 1.439 . S
C169 C198 1.392 . S
N170 Co164 2.008 . S
N170 C171 1.376 1_554 S
N170 C174 1.374 . S
C171 N170 1.376 1_556 S
C171 C172 1.443 . S
C171 C198 1.389 . S
C172 C171 1.443 . S
C172 C173 1.340 1_556 S
C172 H204 0.951 . S
C173 C172 1.340 1_554 S
C173 C174 1.439 . S
C173 H205 0.950 . S
C174 N170 1.374 . S
C174 C173 1.439 . S
C174 C199 1.395 . S
N175 Co164 1.995 . S
N175 C176 1.376 . S
N175 C179 1.383 . S
C176 N175 1.376 . S
C176 C177 1.446 . S
C176 C199 1.391 . S
C177 C176 1.446 . S
C177 C178 1.339 . S
C177 H206 0.949 . S
C178 C177 1.339 . S
C178 C179 1.439 . S
C178 H207 0.950 . S
C179 N175 1.383 . S
C179 C178 1.439 . S
C179 C197 1.392 . S
N180 Co164 2.282 1_556 S
N180 C183 1.332 . S
N180 C185 1.332 . S
C181 C182 1.386 . S
C181 C184 1.388 . S
C182 C181 1.386 . S
C182 C183 1.382 . S
C182 H208 0.950 . S
C183 N180 1.332 . S
C183 C182 1.382 . S
C183 H194 0.952 1_556 S
C184 C181 1.388 . S
C184 C185 1.382 . S
C184 H209 0.950 . S
C185 N180 1.332 . S
C185 C184 1.382 . S
C185 H195 0.948 . S
N186 Co164 2.282 . S
N186 C190 1.332 . S
N186 C191 1.332 . S
C187 C188 1.388 . S
C187 C191 1.382 . S
C187 H210 0.950 . S
C188 C187 1.388 . S
C188 C189 1.386 . S
C189 C188 1.386 . S
C189 C190 1.382 . S
C189 H211 0.950 . S
C190 N186 1.332 . S
C190 C189 1.382 . S
C190 H192 0.952 . S
C191 N186 1.332 . S
C191 C187 1.382 . S
C191 H193 0.948 . S
H192 C190 0.952 . S
H193 C191 0.948 . S
H194 C183 0.952 1_554 S
H195 C185 0.948 . S
C196 C162 1.395 . S
C196 C166 1.391 . S
C197 C159 1.389 . S
C197 C179 1.392 . S
C198 C169 1.392 . S
C198 C171 1.389 . S
C199 C174 1.395 . S
C199 C176 1.391 . S
H200 C160 0.951 . S
H201 C161 0.950 . S
H202 C167 0.949 . S
H203 C168 0.950 . S
H204 C172 0.951 . S
H205 C173 0.950 . S
H206 C177 0.949 . S
H207 C178 0.950 . S
H208 C182 0.950 . S
H209 C184 0.950 . S
H210 C187 0.950 . S
H211 C189 0.950 . S
C212 C213 1.443 . S
C212 N216 1.376 . S
C212 C250 1.389 . S
C213 C212 1.443 . S
C213 C214 1.340 . S
C213 H253 0.951 . S
C214 C213 1.340 . S
C214 C215 1.439 . S
C214 H254 0.950 . S
C215 C214 1.439 . S
C215 N216 1.374 . S
C215 C249 1.395 . S
N216 C212 1.376 . S
N216 C215 1.374 . S
N216 Co217 2.008 . S
Co217 N216 2.008 . S
Co217 N218 1.995 . S
Co217 N223 2.008 . S
Co217 N228 1.995 . S
Co217 N233 2.282 . S
Co217 N239 2.282 . S
N218 Co217 1.995 . S
N218 C219 1.376 . S
N218 C222 1.383 . S
C219 N218 1.376 . S
C219 C220 1.446 . S
C219 C249 1.391 . S
C220 C219 1.446 . S
C220 C221 1.339 . S
C220 H255 0.949 . S
C221 C220 1.339 . S
C221 C222 1.439 . S
C221 H256 0.950 . S
C222 N218 1.383 . S
C222 C221 1.439 . S
C222 C251 1.392 . S
N223 Co217 2.008 . S
N223 C224 1.376 . S
N223 C227 1.374 . S
C224 N223 1.376 . S
C224 C225 1.443 . S
C224 C251 1.389 . S
C225 C224 1.443 . S
C225 C226 1.340 . S
C225 H257 0.951 . S
C226 C225 1.340 . S
C226 C227 1.439 . S
C226 H258 0.950 . S
C227 N223 1.374 . S
C227 C226 1.439 . S
C227 C252 1.395 . S
N228 Co217 1.995 . S
N228 C229 1.376 . S
N228 C232 1.383 . S
C229 N228 1.376 . S
C229 C230 1.446 . S
C229 C252 1.391 . S
C230 C229 1.446 . S
C230 C231 1.339 . S
C230 H259 0.949 . S
C231 C230 1.339 . S
C231 C232 1.439 . S
C231 H260 0.950 . S
C232 N228 1.383 . S
C232 C231 1.439 . S
C232 C250 1.392 . S
N233 Co217 2.282 . S
N233 C236 1.332 . S
N233 C238 1.332 . S
C234 C235 1.386 . S
C234 C237 1.388 . S
C235 C234 1.386 . S
C235 C236 1.382 . S
C235 H261 0.950 . S
C236 N233 1.332 . S
C236 C235 1.382 . S
C236 H247 0.952 . S
C237 C234 1.388 . S
C237 C238 1.382 . S
C237 H262 0.950 . S
C238 N233 1.332 . S
C238 C237 1.382 . S
C238 H248 0.948 . S
N239 Co217 2.282 . S
N239 C243 1.332 . S
N239 C244 1.332 . S
C240 C241 1.388 . S
C240 C244 1.382 . S
C240 H263 0.950 . S
C241 C240 1.388 . S
C241 C242 1.386 . S
C242 C241 1.386 . S
C242 C243 1.382 . S
C242 H264 0.950 . S
C243 N239 1.332 . S
C243 C242 1.382 . S
C243 H245 0.952 . S
C244 N239 1.332 . S
C244 C240 1.382 . S
C244 H246 0.948 . S
H245 C243 0.952 . S
H246 C244 0.948 . S
H247 C236 0.952 . S
H248 C238 0.948 . S
C249 C215 1.395 . S
C249 C219 1.391 . S
C250 C212 1.389 . S
C250 C232 1.392 . S
C251 C222 1.392 . S
C251 C224 1.389 . S
C252 C227 1.395 . S
C252 C229 1.391 . S
H253 C213 0.951 . S
H254 C214 0.950 . S
H255 C220 0.949 . S
H256 C221 0.950 . S
H257 C225 0.951 . S
H258 C226 0.950 . S
H259 C230 0.949 . S
H260 C231 0.950 . S
H261 C235 0.950 . S
H262 C237 0.950 . S
H263 C240 0.950 . S
H264 C242 0.950 . S
C265 C266 1.443 . S
C265 N269 1.376 . S
C265 C303 1.389 . S
C266 C265 1.443 . S
C266 C267 1.340 . S
C266 H306 0.951 . S
C267 C266 1.340 . S
C267 C268 1.439 . S
C267 H307 0.950 . S
C268 C267 1.439 . S
C268 N269 1.374 . S
C268 C302 1.395 . S
N269 C265 1.376 . S
N269 C268 1.374 . S
N269 Co270 2.008 . S
Co270 N269 2.008 . S
Co270 N271 1.995 . S
Co270 N276 2.008 . S
Co270 N281 1.995 . S
Co270 N286 2.282 . S
Co270 N292 2.282 . S
N271 Co270 1.995 . S
N271 C272 1.376 . S
N271 C275 1.383 . S
C272 N271 1.376 . S
C272 C273 1.446 . S
C272 C302 1.391 . S
C273 C272 1.446 . S
C273 C274 1.339 . S
C273 H308 0.949 . S
C274 C273 1.339 . S
C274 C275 1.439 . S
C274 H309 0.950 . S
C275 N271 1.383 . S
C275 C274 1.439 . S
C275 C304 1.392 . S
N276 Co270 2.008 . S
N276 C277 1.376 . S
N276 C280 1.374 . S
C277 N276 1.376 . S
C277 C278 1.443 . S
C277 C304 1.389 . S
C278 C277 1.443 . S
C278 C279 1.340 . S
C278 H310 0.951 . S
C279 C278 1.340 . S
C279 C280 1.439 . S
C279 H311 0.950 . S
C280 N276 1.374 . S
C280 C279 1.439 . S
C280 C305 1.395 . S
N281 Co270 1.995 . S
N281 C282 1.376 . S
N281 C285 1.383 . S
C282 N281 1.376 . S
C282 C283 1.446 . S
C282 C305 1.391 . S
C283 C282 1.446 . S
C283 C284 1.339 . S
C283 H312 0.949 . S
C284 C283 1.339 . S
C284 C285 1.439 . S
C284 H313 0.950 . S
C285 N281 1.383 . S
C285 C284 1.439 . S
C285 C303 1.392 . S
N286 Co270 2.282 . S
N286 C289 1.332 . S
N286 C291 1.332 . S
C287 C288 1.386 . S
C287 C290 1.388 . S
C288 C287 1.386 . S
C288 C289 1.382 . S
C288 H314 0.950 . S
C289 N286 1.332 . S
C289 C288 1.382 . S
C289 H300 0.952 . S
C290 C287 1.388 . S
C290 C291 1.382 . S
C290 H315 0.950 . S
C291 N286 1.332 . S
C291 C290 1.382 . S
C291 H301 0.948 . S
N292 Co270 2.282 . S
N292 C296 1.332 . S
N292 C297 1.332 . S
C293 C294 1.388 . S
C293 C297 1.382 . S
C293 H316 0.950 . S
C294 C293 1.388 . S
C294 C295 1.386 . S
C295 C294 1.386 . S
C295 C296 1.382 . S
C295 H317 0.950 . S
C296 N292 1.332 . S
C296 C295 1.382 . S
C296 H298 0.952 . S
C297 N292 1.332 . S
C297 C293 1.382 . S
C297 H299 0.948 . S
H298 C296 0.952 . S
H299 C297 0.948 . S
H300 C289 0.952 . S
H301 C291 0.948 . S
C302 C268 1.395 . S
C302 C272 1.391 . S
C303 C265 1.389 . S
C303 C285 1.392 . S
C304 C275 1.392 . S
C304 C277 1.389 . S
C305 C280 1.395 . S
C305 C282 1.391 . S
H306 C266 0.951 . S
H307 C267 0.950 . S
H308 C273 0.949 . S
H309 C274 0.950 . S
H310 C278 0.951 . S
H311 C279 0.950 . S
H312 C283 0.949 . S
H313 C284 0.950 . S
H314 C288 0.950 . S
H315 C290 0.950 . S
H316 C293 0.950 . S
H317 C295 0.950 . S
C318 C319 1.391 . S
C318 C320 1.394 . S
C318 H334 0.931 . S
C319 C318 1.391 . S
C319 C323 1.376 . S
C320 C318 1.394 . S
C320 C321 1.369 . S
C320 C324 1.531 . S
C321 C320 1.369 . S
C321 C322 1.410 . S
C321 C329 1.503 . S
C322 C321 1.410 . S
C322 C323 1.392 . S
C322 C325 1.511 . S
C323 C319 1.376 . S
C323 C322 1.392 . S
C323 H335 0.929 . S
C324 C320 1.531 . S
C324 H336 0.960 . S
C324 H337 0.962 . S
C324 H338 0.960 . S
C325 C322 1.511 . S
C325 H339 0.961 . S
C325 H340 0.961 . S
C325 H341 0.961 . S
C326 C327 1.370 . S
C326 C328 1.363 . S
C326 H342 0.931 . S
C327 C326 1.370 . S
C327 C331 1.408 . S
C328 C326 1.363 . S
C328 C329 1.370 . S
C328 C332 1.524 . S
C329 C321 1.503 . S
C329 C328 1.370 . S
C329 C330 1.403 . S
C330 C329 1.403 . S
C330 C331 1.404 . S
C330 C333 1.539 . S
C331 C327 1.408 . S
C331 C330 1.404 . S
C331 H343 0.930 . S
C332 C328 1.524 . S
C332 H344 0.956 . S
C332 H345 0.961 . S
C332 H346 0.961 . S
C333 C330 1.539 . S
C333 H347 0.958 . S
C333 H348 0.961 . S
C333 H349 0.960 . S
H334 C318 0.931 . S
H335 C323 0.929 . S
H336 C324 0.960 . S
H337 C324 0.962 . S
H338 C324 0.960 . S
H339 C325 0.961 . S
H340 C325 0.961 . S
H341 C325 0.961 . S
H342 C326 0.931 . S
H343 C331 0.930 . S
H344 C332 0.956 . S
H345 C332 0.961 . S
H346 C332 0.961 . S
H347 C333 0.958 . S
H348 C333 0.961 . S
H349 C333 0.960 . S
C350 C351 1.391 . S
C350 C352 1.394 . S
C350 H366 0.931 . S
C351 C350 1.391 . S
C351 C355 1.376 . S
C352 C350 1.394 . S
C352 C353 1.369 . S
C352 C356 1.531 . S
C353 C352 1.369 . S
C353 C354 1.410 1_655 S
C353 C361 1.503 1_655 S
C354 C353 1.410 1_455 S
C354 C355 1.392 1_455 S
C354 C357 1.511 . S
C355 C351 1.376 . S
C355 C354 1.392 1_655 S
C355 H367 0.929 . S
C356 C352 1.531 . S
C356 H368 0.960 . S
C356 H369 0.962 . S
C356 H370 0.960 . S
C357 C354 1.511 . S
C357 H371 0.961 . S
C357 H372 0.961 . S
C357 H373 0.961 . S
C358 C359 1.370 . S
C358 C360 1.363 . S
C358 H374 0.931 . S
C359 C358 1.370 . S
C359 C363 1.408 . S
C360 C358 1.363 . S
C360 C361 1.370 . S
C360 C364 1.524 . S
C361 C353 1.503 1_455 S
C361 C360 1.370 . S
C361 C362 1.403 . S
C362 C361 1.403 . S
C362 C363 1.404 . S
C362 C365 1.539 . S
C363 C359 1.408 . S
C363 C362 1.404 . S
C363 H375 0.930 . S
C364 C360 1.524 . S
C364 H376 0.956 . S
C364 H377 0.961 . S
C364 H378 0.961 . S
C365 C362 1.539 . S
C365 H379 0.958 1_455 S
C365 H380 0.961 . S
C365 H381 0.960 . S
H366 C350 0.931 . S
H367 C355 0.929 . S
H368 C356 0.960 . S
H369 C356 0.962 . S
H370 C356 0.960 . S
H371 C357 0.961 . S
H372 C357 0.961 . S
H373 C357 0.961 . S
H374 C358 0.931 . S
H375 C363 0.930 . S
H376 C364 0.956 . S
H377 C364 0.961 . S
H378 C364 0.961 . S
H379 C365 0.958 1_655 S
H380 C365 0.961 . S
H381 C365 0.960 . S
C382 C383 1.391 . S
C382 C384 1.394 . S
C382 H398 0.931 . S
C383 C382 1.391 . S
C383 C387 1.376 . S
C384 C382 1.394 . S
C384 C385 1.369 . S
C384 C388 1.531 . S
C385 C384 1.369 . S
C385 C386 1.410 . S
C385 C393 1.503 . S
C386 C385 1.410 . S
C386 C387 1.392 . S
C386 C389 1.511 . S
C387 C383 1.376 . S
C387 C386 1.392 . S
C387 H399 0.929 . S
C388 C384 1.531 . S
C388 H400 0.960 . S
C388 H401 0.962 . S
C388 H402 0.960 . S
C389 C386 1.511 . S
C389 H403 0.961 . S
C389 H404 0.961 1_545 S
C389 H405 0.961 . S
C390 C391 1.370 . S
C390 C392 1.363 . S
C390 H406 0.931 . S
C391 C390 1.370 . S
C391 C395 1.408 . S
C392 C390 1.363 . S
C392 C393 1.370 1_565 S
C392 C396 1.524 . S
C393 C385 1.503 . S
C393 C392 1.370 1_545 S
C393 C394 1.403 . S
C394 C393 1.403 . S
C394 C395 1.404 1_545 S
C394 C397 1.539 . S
C395 C391 1.408 . S
C395 C394 1.404 1_565 S
C395 H407 0.930 . S
C396 C392 1.524 . S
C396 H408 0.956 . S
C396 H409 0.961 . S
C396 H410 0.961 . S
C397 C394 1.539 . S
C397 H411 0.958 . S
C397 H412 0.961 . S
C397 H413 0.960 . S
H398 C382 0.931 . S
H399 C387 0.929 . S
H400 C388 0.960 . S
H401 C388 0.962 . S
H402 C388 0.960 . S
H403 C389 0.961 . S
H404 C389 0.961 1_565 S
H405 C389 0.961 . S
H406 C390 0.931 . S
H407 C395 0.930 . S
H408 C396 0.956 . S
H409 C396 0.961 . S
H410 C396 0.961 . S
H411 C397 0.958 . S
H412 C397 0.961 . S
H413 C397 0.960 . S
C414 C415 1.391 . S
C414 C416 1.394 . S
C414 H430 0.931 . S
C415 C414 1.391 . S
C415 C419 1.376 . S
C416 C414 1.394 . S
C416 C417 1.369 . S
C416 C420 1.531 . S
C417 C416 1.369 . S
C417 C418 1.410 . S
C417 C425 1.503 . S
C418 C417 1.410 . S
C418 C419 1.392 . S
C418 C421 1.511 . S
C419 C415 1.376 . S
C419 C418 1.392 . S
C419 H431 0.929 . S
C420 C416 1.531 . S
C420 H432 0.960 . S
C420 H433 0.962 . S
C420 H434 0.960 . S
C421 C418 1.511 . S
C421 H435 0.961 . S
C421 H436 0.961 . S
C421 H437 0.961 . S
C422 C423 1.370 . S
C422 C424 1.363 . S
C422 H438 0.931 . S
C423 C422 1.370 . S
C423 C427 1.408 . S
C424 C422 1.363 . S
C424 C425 1.370 . S
C424 C428 1.524 . S
C425 C417 1.503 . S
C425 C424 1.370 . S
C425 C426 1.403 . S
C426 C425 1.403 . S
C426 C427 1.404 . S
C426 C429 1.539 . S
C427 C423 1.408 . S
C427 C426 1.404 . S
C427 H439 0.930 . S
C428 C424 1.524 . S
C428 H440 0.956 . S
C428 H441 0.961 . S
C428 H442 0.961 . S
C429 C426 1.539 . S
C429 H443 0.958 . S
C429 H444 0.961 . S
C429 H445 0.960 . S
H430 C414 0.931 . S
H431 C419 0.929 . S
H432 C420 0.960 . S
H433 C420 0.962 . S
H434 C420 0.960 . S
H435 C421 0.961 . S
H436 C421 0.961 . S
H437 C421 0.961 . S
H438 C422 0.931 . S
H439 C427 0.930 . S
H440 C428 0.956 . S
H441 C428 0.961 . S
H442 C428 0.961 . S
H443 C429 0.958 . S
H444 C429 0.961 . S
H445 C429 0.960 . S
C446 C447 1.391 . S
C446 C448 1.394 . S
C446 H462 0.931 . S
C447 C446 1.391 . S
C447 C451 1.376 . S
C448 C446 1.394 . S
C448 C449 1.369 . S
C448 C452 1.531 . S
C449 C448 1.369 . S
C449 C450 1.410 . S
C449 C457 1.503 . S
C450 C449 1.410 . S
C450 C451 1.392 . S
C450 C453 1.511 1_655 S
C451 C447 1.376 . S
C451 C450 1.392 . S
C451 H463 0.929 . S
C452 C448 1.531 . S
C452 H464 0.960 . S
C452 H465 0.962 . S
C452 H466 0.960 . S
C453 C450 1.511 1_455 S
C453 H467 0.961 . S
C453 H468 0.961 . S
C453 H469 0.961 . S
C454 C455 1.370 . S
C454 C456 1.363 . S
C454 H470 0.931 . S
C455 C454 1.370 . S
C455 C459 1.408 . S
C456 C454 1.363 . S
C456 C457 1.370 1_455 S
C456 C460 1.524 . S
C457 C449 1.503 . S
C457 C456 1.370 1_655 S
C457 C458 1.403 1_655 S
C458 C457 1.403 1_455 S
C458 C459 1.404 . S
C458 C461 1.539 1_455 S
C459 C455 1.408 . S
C459 C458 1.404 . S
C459 H471 0.930 . S
C460 C456 1.524 . S
C460 H472 0.956 1_455 S
C460 H473 0.961 . S
C460 H474 0.961 . S
C461 C458 1.539 1_655 S
C461 H475 0.958 . S
C461 H476 0.961 1_655 S
C461 H477 0.960 . S
H462 C446 0.931 . S
H463 C451 0.929 . S
H464 C452 0.960 . S
H465 C452 0.962 . S
H466 C452 0.960 . S
H467 C453 0.961 . S
H468 C453 0.961 . S
H469 C453 0.961 . S
H470 C454 0.931 . S
H471 C459 0.930 . S
H472 C460 0.956 1_655 S
H473 C460 0.961 . S
H474 C460 0.961 . S
H475 C461 0.958 . S
H476 C461 0.961 1_455 S
H477 C461 0.960 . S
C478 C479 1.391 . S
C478 C480 1.394 1_545 S
C478 H494 0.931 . S
C479 C478 1.391 . S
C479 C483 1.376 . S
C480 C478 1.394 1_565 S
C480 C481 1.369 . S
C480 C484 1.531 . S
C481 C480 1.369 . S
C481 C482 1.410 1_565 S
C481 C489 1.503 . S
C482 C481 1.410 1_545 S
C482 C483 1.392 . S
C482 C485 1.511 . S
C483 C479 1.376 . S
C483 C482 1.392 . S
C483 H495 0.929 . S
C484 C480 1.531 . S
C484 H496 0.960 . S
C484 H497 0.962 . S
C484 H498 0.960 . S
C485 C482 1.511 . S
C485 H499 0.961 . S
C485 H500 0.961 . S
C485 H501 0.961 . S
C486 C487 1.370 . S
C486 C488 1.363 . S
C486 H502 0.931 . S
C487 C486 1.370 . S
C487 C491 1.408 . S
C488 C486 1.363 . S
C488 C489 1.370 . S
C488 C492 1.524 . S
C489 C481 1.503 . S
C489 C488 1.370 . S
C489 C490 1.403 . S
C490 C489 1.403 . S
C490 C491 1.404 . S
C490 C493 1.539 . S
C491 C487 1.408 . S
C491 C490 1.404 . S
C491 H503 0.930 . S
C492 C488 1.524 . S
C492 H504 0.956 . S
C492 H505 0.961 1_565 S
C492 H506 0.961 . S
C493 C490 1.539 . S
C493 H507 0.958 . S
C493 H508 0.961 . S
C493 H509 0.960 . S
H494 C478 0.931 . S
H495 C483 0.929 . S
H496 C484 0.960 . S
H497 C484 0.962 . S
H498 C484 0.960 . S
H499 C485 0.961 . S
H500 C485 0.961 . S
H501 C485 0.961 . S
H502 C486 0.931 . S
H503 C491 0.930 . S
H504 C492 0.956 . S
H505 C492 0.961 1_545 S
H506 C492 0.961 . S
H507 C493 0.958 . S
H508 C493 0.961 . S
H509 C493 0.960 . S
C510 C511 1.391 . S
C510 C512 1.394 . S
C510 H526 0.931 . S
C511 C510 1.391 . S
C511 C515 1.376 . S
C512 C510 1.394 . S
C512 C513 1.369 . S
C512 C516 1.531 . S
C513 C512 1.369 . S
C513 C514 1.410 . S
C513 C521 1.503 . S
C514 C513 1.410 . S
C514 C515 1.392 . S
C514 C517 1.511 . S
C515 C511 1.376 . S
C515 C514 1.392 . S
C515 H527 0.929 . S
C516 C512 1.531 . S
C516 H528 0.960 . S
C516 H529 0.962 . S
C516 H530 0.960 . S
C517 C514 1.511 . S
C517 H531 0.961 . S
C517 H532 0.961 . S
C517 H533 0.961 . S
C518 C519 1.370 . S
C518 C520 1.363 . S
C518 H534 0.931 . S
C519 C518 1.370 . S
C519 C523 1.408 . S
C520 C518 1.363 . S
C520 C521 1.370 . S
C520 C524 1.524 . S
C521 C513 1.503 . S
C521 C520 1.370 . S
C521 C522 1.403 . S
C522 C521 1.403 . S
C522 C523 1.404 . S
C522 C525 1.539 . S
C523 C519 1.408 . S
C523 C522 1.404 . S
C523 H535 0.930 . S
C524 C520 1.524 . S
C524 H536 0.956 . S
C524 H537 0.961 . S
C524 H538 0.961 . S
C525 C522 1.539 . S
C525 H539 0.958 . S
C525 H540 0.961 . S
C525 H541 0.960 . S
H526 C510 0.931 . S
H527 C515 0.929 . S
H528 C516 0.960 . S
H529 C516 0.962 . S
H530 C516 0.960 . S
H531 C517 0.961 . S
H532 C517 0.961 . S
H533 C517 0.961 . S
H534 C518 0.931 . S
H535 C523 0.930 . S
H536 C524 0.956 . S
H537 C524 0.961 . S
H538 C524 0.961 . S
H539 C525 0.958 . S
H540 C525 0.961 . S
H541 C525 0.960 . S
C542 C543 1.391 . S
C542 C544 1.394 . S
C542 H558 0.931 . S
C543 C542 1.391 . S
C543 C547 1.376 . S
C544 C542 1.394 . S
C544 C545 1.369 . S
C544 C548 1.531 . S
C545 C544 1.369 . S
C545 C546 1.410 . S
C545 C553 1.503 . S
C546 C545 1.410 . S
C546 C547 1.392 . S
C546 C549 1.511 . S
C547 C543 1.376 . S
C547 C546 1.392 . S
C547 H559 0.929 . S
C548 C544 1.531 . S
C548 H560 0.960 . S
C548 H561 0.962 . S
C548 H562 0.960 . S
C549 C546 1.511 . S
C549 H563 0.961 . S
C549 H564 0.961 . S
C549 H565 0.961 . S
C550 C551 1.370 . S
C550 C552 1.363 . S
C550 H566 0.931 . S
C551 C550 1.370 . S
C551 C555 1.408 . S
C552 C550 1.363 . S
C552 C553 1.370 . S
C552 C556 1.524 . S
C553 C545 1.503 . S
C553 C552 1.370 . S
C553 C554 1.403 . S
C554 C553 1.403 . S
C554 C555 1.404 . S
C554 C557 1.539 . S
C555 C551 1.408 . S
C555 C554 1.404 . S
C555 H567 0.930 . S
C556 C552 1.524 . S
C556 H568 0.956 . S
C556 H569 0.961 . S
C556 H570 0.961 . S
C557 C554 1.539 . S
C557 H571 0.958 . S
C557 H572 0.961 . S
C557 H573 0.960 . S
H558 C542 0.931 . S
H559 C547 0.929 . S
H560 C548 0.960 . S
H561 C548 0.962 . S
H562 C548 0.960 . S
H563 C549 0.961 . S
H564 C549 0.961 . S
H565 C549 0.961 . S
H566 C550 0.931 . S
H567 C555 0.930 . S
H568 C556 0.956 . S
H569 C556 0.961 . S
H570 C556 0.961 . S
H571 C557 0.958 . S
H572 C557 0.961 . S
H573 C557 0.960 . S
C574 C575 1.391 . S
C574 C576 1.394 . S
C574 H590 0.931 . S
C575 C574 1.391 . S
C575 C579 1.376 . S
C576 C574 1.394 . S
C576 C577 1.369 . S
C576 C580 1.531 . S
C577 C576 1.369 . S
C577 C578 1.410 . S
C577 C585 1.503 . S
C578 C577 1.410 . S
C578 C579 1.392 . S
C578 C581 1.511 . S
C579 C575 1.376 . S
C579 C578 1.392 . S
C579 H591 0.929 . S
C580 C576 1.531 . S
C580 H592 0.960 . S
C580 H593 0.962 . S
C580 H594 0.960 . S
C581 C578 1.511 . S
C581 H595 0.961 . S
C581 H596 0.961 . S
C581 H597 0.961 . S
C582 C583 1.370 . S
C582 C584 1.363 . S
C582 H598 0.931 . S
C583 C582 1.370 . S
C583 C587 1.408 . S
C584 C582 1.363 . S
C584 C585 1.370 . S
C584 C588 1.524 . S
C585 C577 1.503 . S
C585 C584 1.370 . S
C585 C586 1.403 . S
C586 C585 1.403 . S
C586 C587 1.404 . S
C586 C589 1.539 . S
C587 C583 1.408 . S
C587 C586 1.404 . S
C587 H599 0.930 . S
C588 C584 1.524 . S
C588 H600 0.956 . S
C588 H601 0.961 . S
C588 H602 0.961 . S
C589 C586 1.539 . S
C589 H603 0.958 . S
C589 H604 0.961 . S
C589 H605 0.960 . S
H590 C574 0.931 . S
H591 C579 0.929 . S
H592 C580 0.960 . S
H593 C580 0.962 . S
H594 C580 0.960 . S
H595 C581 0.961 . S
H596 C581 0.961 . S
H597 C581 0.961 . S
H598 C582 0.931 . S
H599 C587 0.930 . S
H600 C588 0.956 . S
H601 C588 0.961 . S
H602 C588 0.961 . S
H603 C589 0.958 . S
H604 C589 0.961 . S
H605 C589 0.960 . S
C606 C607 1.391 . S
C606 C608 1.394 . S
C606 H622 0.931 . S
C607 C606 1.391 . S
C607 C611 1.376 . S
C608 C606 1.394 . S
C608 C609 1.369 . S
C608 C612 1.531 . S
C609 C608 1.369 . S
C609 C610 1.410 . S
C609 C617 1.503 . S
C610 C609 1.410 . S
C610 C611 1.392 . S
C610 C613 1.511 . S
C611 C607 1.376 . S
C611 C610 1.392 . S
C611 H623 0.929 . S
C612 C608 1.531 . S
C612 H624 0.960 . S
C612 H625 0.962 . S
C612 H626 0.960 . S
C613 C610 1.511 . S
C613 H627 0.961 . S
C613 H628 0.961 . S
C613 H629 0.961 . S
C614 C615 1.370 . S
C614 C616 1.363 . S
C614 H630 0.931 . S
C615 C614 1.370 . S
C615 C619 1.408 . S
C616 C614 1.363 . S
C616 C617 1.370 . S
C616 C620 1.524 . S
C617 C609 1.503 . S
C617 C616 1.370 . S
C617 C618 1.403 . S
C618 C617 1.403 . S
C618 C619 1.404 . S
C618 C621 1.539 . S
C619 C615 1.408 . S
C619 C618 1.404 . S
C619 H631 0.930 . S
C620 C616 1.524 . S
C620 H632 0.956 . S
C620 H633 0.961 . S
C620 H634 0.961 . S
C621 C618 1.539 . S
C621 H635 0.958 . S
C621 H636 0.961 . S
C621 H637 0.960 . S
H622 C606 0.931 . S
H623 C611 0.929 . S
H624 C612 0.960 . S
H625 C612 0.962 . S
H626 C612 0.960 . S
H627 C613 0.961 . S
H628 C613 0.961 . S
H629 C613 0.961 . S
H630 C614 0.931 . S
H631 C619 0.930 . S
H632 C620 0.956 . S
H633 C620 0.961 . S
H634 C620 0.961 . S
H635 C621 0.958 . S
H636 C621 0.961 . S
H637 C621 0.960 . S
C638 C639 1.391 . S
C638 C640 1.394 . S
C638 H654 0.931 . S
C639 C638 1.391 . S
C639 C643 1.376 . S
C640 C638 1.394 . S
C640 C641 1.369 . S
C640 C644 1.531 . S
C641 C640 1.369 . S
C641 C642 1.410 . S
C641 C649 1.503 . S
C642 C641 1.410 . S
C642 C643 1.392 . S
C642 C645 1.511 . S
C643 C639 1.376 . S
C643 C642 1.392 . S
C643 H655 0.929 . S
C644 C640 1.531 . S
C644 H656 0.960 . S
C644 H657 0.962 . S
C644 H658 0.960 . S
C645 C642 1.511 . S
C645 H659 0.961 . S
C645 H660 0.961 . S
C645 H661 0.961 . S
C646 C647 1.370 . S
C646 C648 1.363 . S
C646 H662 0.931 . S
C647 C646 1.370 . S
C647 C651 1.408 . S
C648 C646 1.363 . S
C648 C649 1.370 . S
C648 C652 1.524 . S
C649 C641 1.503 . S
C649 C648 1.370 . S
C649 C650 1.403 . S
C650 C649 1.403 . S
C650 C651 1.404 . S
C650 C653 1.539 . S
C651 C647 1.408 . S
C651 C650 1.404 . S
C651 H663 0.930 . S
C652 C648 1.524 . S
C652 H664 0.956 . S
C652 H665 0.961 . S
C652 H666 0.961 . S
C653 C650 1.539 . S
C653 H667 0.958 . S
C653 H668 0.961 . S
C653 H669 0.960 . S
H654 C638 0.931 . S
H655 C643 0.929 . S
H656 C644 0.960 . S
H657 C644 0.962 . S
H658 C644 0.960 . S
H659 C645 0.961 . S
H660 C645 0.961 . S
H661 C645 0.961 . S
H662 C646 0.931 . S
H663 C651 0.930 . S
H664 C652 0.956 . S
H665 C652 0.961 . S
H666 C652 0.961 . S
H667 C653 0.958 . S
H668 C653 0.961 . S
H669 C653 0.960 . S
C670 C671 1.391 . S
C670 C672 1.394 . S
C670 H686 0.931 . S
C671 C670 1.391 . S
C671 C675 1.376 . S
C672 C670 1.394 . S
C672 C673 1.369 . S
C672 C676 1.531 . S
C673 C672 1.369 . S
C673 C674 1.410 . S
C673 C681 1.503 . S
C674 C673 1.410 . S
C674 C675 1.392 . S
C674 C677 1.511 . S
C675 C671 1.376 . S
C675 C674 1.392 . S
C675 H687 0.929 . S
C676 C672 1.531 . S
C676 H688 0.960 . S
C676 H689 0.962 . S
C676 H690 0.960 . S
C677 C674 1.511 . S
C677 H691 0.961 . S
C677 H692 0.961 . S
C677 H693 0.961 . S
C678 C679 1.370 . S
C678 C680 1.363 . S
C678 H694 0.931 . S
C679 C678 1.370 . S
C679 C683 1.408 . S
C680 C678 1.363 . S
C680 C681 1.370 . S
C680 C684 1.524 . S
C681 C673 1.503 . S
C681 C680 1.370 . S
C681 C682 1.403 . S
C682 C681 1.403 . S
C682 C683 1.404 . S
C682 C685 1.539 . S
C683 C679 1.408 . S
C683 C682 1.404 . S
C683 H695 0.930 . S
C684 C680 1.524 . S
C684 H696 0.956 . S
C684 H697 0.961 . S
C684 H698 0.961 . S
C685 C682 1.539 . S
C685 H699 0.958 . S
C685 H700 0.961 . S
C685 H701 0.960 . S
H686 C670 0.931 . S
H687 C675 0.929 . S
H688 C676 0.960 . S
H689 C676 0.962 . S
H690 C676 0.960 . S
H691 C677 0.961 . S
H692 C677 0.961 . S
H693 C677 0.961 . S
H694 C678 0.931 . S
H695 C683 0.930 . S
H696 C684 0.956 . S
H697 C684 0.961 . S
H698 C684 0.961 . S
H699 C685 0.958 . S
H700 C685 0.961 . S
H701 C685 0.960 . S
C319 C22 1.455 . S
C327 C303 1.455 . S
C351 C75 1.429 . S
C359 C38 1.450 . S
C383 C91 1.448 . S
C391 C128 1.442 . S
C415 C181 1.441 . S
C423 C144 1.451 . S
C447 C197 1.443 . S
C455 C234 1.441 . S
C479 C287 1.457 . S
C487 C250 1.459 . S
C511 C251 1.497 . S
C519 C29 1.497 . S
C543 C304 1.496 . S
C551 C82 1.497 . S
C575 C135 1.491 . S
C583 C39 1.502 . S
C607 C188 1.503 . S
C615 C92 1.510 . S
C639 C241 1.492 . S
C647 C145 1.503 . S
C671 C294 1.495 . S
C679 C198 1.503 . S
