# Generated by pormake.
# Topology zfp, (5)-cn, num edge types: 1
# Building blocks:
#     Node 0, Type 0, BuildingBlock: BEQFEK_clean_sbu_0, # of connection points: 5
#     Node 1, Type 0, BuildingBlock: BEQFEK_clean_sbu_0, # of connection points: 5
#     Node 2, Type 0, BuildingBlock: BEQFEK_clean_sbu_0, # of connection points: 5
#     Node 3, Type 0, BuildingBlock: BEQFEK_clean_sbu_0, # of connection points: 5
#     Node 4, Type 0, BuildingBlock: BEQFEK_clean_sbu_0, # of connection points: 5
#     Node 5, Type 0, BuildingBlock: BEQFEK_clean_sbu_0, # of connection points: 5
#     Node 6, Type 0, BuildingBlock: BEQFEK_clean_sbu_0, # of connection points: 5
#     Node 7, Type 0, BuildingBlock: BEQFEK_clean_sbu_0, # of connection points: 5
#     Node 8, Type 0, BuildingBlock: BEQFEK_clean_sbu_0, # of connection points: 5
#     Node 9, Type 0, BuildingBlock: BEQFEK_clean_sbu_0, # of connection points: 5
#     Node 10, Type 0, BuildingBlock: BEQFEK_clean_sbu_0, # of connection points: 5
#     Node 11, Type 0, BuildingBlock: BEQFEK_clean_sbu_0, # of connection points: 5
#     Node 12, Type 0, BuildingBlock: BEQFEK_clean_sbu_0, # of connection points: 5
#     Node 13, Type 0, BuildingBlock: BEQFEK_clean_sbu_0, # of connection points: 5
#     Node 14, Type 0, BuildingBlock: BEQFEK_clean_sbu_0, # of connection points: 5
#     Node 15, Type 0, BuildingBlock: BEQFEK_clean_sbu_0, # of connection points: 5
#     Edge 16, Type (0, 0), BuildingBlock: UVAHIK_clean_linker_0, # of connection points: 2
#     Edge 17, Type (0, 0), BuildingBlock: UVAHIK_clean_linker_0, # of connection points: 2
#     Edge 18, Type (0, 0), BuildingBlock: UVAHIK_clean_linker_0, # of connection points: 2
#     Edge 19, Type (0, 0), BuildingBlock: UVAHIK_clean_linker_0, # of connection points: 2
#     Edge 20, Type (0, 0), BuildingBlock: UVAHIK_clean_linker_0, # of connection points: 2
#     Edge 21, Type (0, 0), BuildingBlock: UVAHIK_clean_linker_0, # of connection points: 2
#     Edge 22, Type (0, 0), BuildingBlock: UVAHIK_clean_linker_0, # of connection points: 2
#     Edge 23, Type (0, 0), BuildingBlock: UVAHIK_clean_linker_0, # of connection points: 2
#     Edge 24, Type (0, 0), BuildingBlock: UVAHIK_clean_linker_0, # of connection points: 2
#     Edge 25, Type (0, 0), BuildingBlock: UVAHIK_clean_linker_0, # of connection points: 2
#     Edge 26, Type (0, 0), BuildingBlock: UVAHIK_clean_linker_0, # of connection points: 2
#     Edge 27, Type (0, 0), BuildingBlock: UVAHIK_clean_linker_0, # of connection points: 2
#     Edge 28, Type (0, 0), BuildingBlock: UVAHIK_clean_linker_0, # of connection points: 2
#     Edge 29, Type (0, 0), BuildingBlock: UVAHIK_clean_linker_0, # of connection points: 2
#     Edge 30, Type (0, 0), BuildingBlock: UVAHIK_clean_linker_0, # of connection points: 2
#     Edge 31, Type (0, 0), BuildingBlock: UVAHIK_clean_linker_0, # of connection points: 2
#     Edge 32, Type (0, 0), BuildingBlock: UVAHIK_clean_linker_0, # of connection points: 2
#     Edge 33, Type (0, 0), BuildingBlock: UVAHIK_clean_linker_0, # of connection points: 2
#     Edge 34, Type (0, 0), BuildingBlock: UVAHIK_clean_linker_0, # of connection points: 2
#     Edge 35, Type (0, 0), BuildingBlock: UVAHIK_clean_linker_0, # of connection points: 2
#     Edge 36, Type (0, 0), BuildingBlock: UVAHIK_clean_linker_0, # of connection points: 2
#     Edge 37, Type (0, 0), BuildingBlock: UVAHIK_clean_linker_0, # of connection points: 2
#     Edge 38, Type (0, 0), BuildingBlock: UVAHIK_clean_linker_0, # of connection points: 2
#     Edge 39, Type (0, 0), BuildingBlock: UVAHIK_clean_linker_0, # of connection points: 2
#     Edge 40, Type (0, 0), BuildingBlock: UVAHIK_clean_linker_0, # of connection points: 2
#     Edge 41, Type (0, 0), BuildingBlock: UVAHIK_clean_linker_0, # of connection points: 2
#     Edge 42, Type (0, 0), BuildingBlock: UVAHIK_clean_linker_0, # of connection points: 2
#     Edge 43, Type (0, 0), BuildingBlock: UVAHIK_clean_linker_0, # of connection points: 2
#     Edge 44, Type (0, 0), BuildingBlock: UVAHIK_clean_linker_0, # of connection points: 2
#     Edge 45, Type (0, 0), BuildingBlock: UVAHIK_clean_linker_0, # of connection points: 2
#     Edge 46, Type (0, 0), BuildingBlock: UVAHIK_clean_linker_0, # of connection points: 2
#     Edge 47, Type (0, 0), BuildingBlock: UVAHIK_clean_linker_0, # of connection points: 2
#     Edge 48, Type (0, 0), BuildingBlock: UVAHIK_clean_linker_0, # of connection points: 2
#     Edge 49, Type (0, 0), BuildingBlock: UVAHIK_clean_linker_0, # of connection points: 2
#     Edge 50, Type (0, 0), BuildingBlock: UVAHIK_clean_linker_0, # of connection points: 2
#     Edge 51, Type (0, 0), BuildingBlock: UVAHIK_clean_linker_0, # of connection points: 2
#     Edge 52, Type (0, 0), BuildingBlock: UVAHIK_clean_linker_0, # of connection points: 2
#     Edge 53, Type (0, 0), BuildingBlock: UVAHIK_clean_linker_0, # of connection points: 2
#     Edge 54, Type (0, 0), BuildingBlock: UVAHIK_clean_linker_0, # of connection points: 2
#     Edge 55, Type (0, 0), BuildingBlock: UVAHIK_clean_linker_0, # of connection points: 2
# Relax obj value: 0.116
# Max RMSD: 0.153
# Mean RMSD: 0.153
data_MOF--net-zfp--node1-BEQFEK_clean_sbu_0--edge1-UVAHIK_clean_linker_0
_symmetry_space_group_name_H-M    P1
_symmetry_Int_Tables_number       1
_symmetry_cell_setting            triclinic
loop_
_symmetry_equiv_pos_as_xyz
'x, y, z'
_cell_length_a     38.959552
_cell_length_b     38.96159
_cell_length_c     95.237958
_cell_angle_alpha  89.993843
_cell_angle_beta   89.980911
_cell_angle_gamma 89.996645
loop_
_atom_site_label
_atom_site_type_symbol
_atom_site_fract_x
_atom_site_fract_y
_atom_site_fract_z
_atom_type_partial_charge
Co0 Co 0.15174 0.30629 0.14589 0.0
Co1 Co 0.14998 0.31576 0.1134 0.0
C2 C 0.106 0.26318 0.12823 0.0
O3 O 0.11832 0.27055 0.14026 0.0
O4 O 0.11646 0.27834 0.11715 0.0
C5 C 0.15611 0.27994 0.17466 0.0
O6 O 0.14295 0.25098 0.17008 0.0
C7 C 0.15918 0.29673 0.08385 0.0
C8 C 0.16622 0.3477 0.07405 0.0
C9 C 0.16601 0.31287 0.07122 0.0
N10 N 0.15575 0.321 0.09377 0.0
N11 N 0.15947 0.35141 0.08781 0.0
C12 C 0.15844 0.25901 0.08669 0.0
H13 H 0.16564 0.2538 0.09776 0.0
H14 H 0.17598 0.24517 0.07945 0.0
H15 H 0.13198 0.24938 0.08494 0.0
C16 C 0.22622 0.2994 0.14008 0.0
N17 N 0.1935 0.30319 0.13578 0.0
N18 N 0.19311 0.30837 0.12215 0.0
C19 C 0.22569 0.30888 0.11735 0.0
C20 C 0.24787 0.30311 0.12857 0.0
C21 C 0.23621 0.29158 0.15492 0.0
H22 H 0.21892 0.27159 0.15923 0.0
H23 H 0.26307 0.28231 0.15563 0.0
H24 H 0.23326 0.31508 0.16139 0.0
O25 O 0.12929 0.35159 0.14316 0.0
O26 O 0.12906 0.35861 0.12009 0.0
H27 H 0.22066 0.34147 0.0994 0.0
H28 H 0.26306 0.32445 0.10164 0.0
C29 C 0.23536 0.3185 0.10265 0.0
H30 H 0.22878 0.29708 0.09547 0.0
H31 H 0.15847 0.37466 0.09323 0.0
O32 O 0.16138 0.30442 0.16614 0.0
C33 C 0.12177 0.36923 0.13235 0.0
Co34 Co 0.69726 0.15695 0.64625 0.0
Co35 Co 0.70134 0.15714 0.61346 0.0
C36 C 0.74696 0.11191 0.62973 0.0
O37 O 0.7333 0.12307 0.64102 0.0
O38 O 0.73831 0.12385 0.61777 0.0
C39 C 0.72351 0.17276 0.67391 0.0
O40 O 0.75255 0.1797 0.66749 0.0
C41 C 0.71952 0.16266 0.58316 0.0
C42 C 0.67179 0.1865 0.57524 0.0
C43 C 0.70402 0.17547 0.57111 0.0
N44 N 0.69737 0.16633 0.59391 0.0
N45 N 0.66885 0.18026 0.58904 0.0
C46 C 0.75538 0.14954 0.5847 0.0
H47 H 0.76562 0.15629 0.59522 0.0
H48 H 0.77233 0.1602 0.57641 0.0
H49 H 0.75514 0.12116 0.58377 0.0
C50 C 0.70106 0.23218 0.64158 0.0
N51 N 0.70226 0.1995 0.63697 0.0
N52 N 0.70659 0.19943 0.62329 0.0
C53 C 0.70986 0.23211 0.61881 0.0
C54 C 0.70601 0.25409 0.63023 0.0
C55 C 0.69128 0.2421 0.65623 0.0
H56 H 0.67392 0.22257 0.66084 0.0
H57 H 0.71478 0.24375 0.66277 0.0
H58 H 0.6782 0.26739 0.65642 0.0
O59 O 0.65303 0.13615 0.64161 0.0
O60 O 0.65717 0.13418 0.61842 0.0
H61 H 0.69382 0.2433 0.59785 0.0
H62 H 0.73073 0.26744 0.60355 0.0
C63 C 0.71795 0.24201 0.60399 0.0
H64 H 0.73508 0.22261 0.59916 0.0
H65 H 0.64757 0.18616 0.59525 0.0
O66 O 0.69778 0.16295 0.66678 0.0
C67 C 0.64096 0.1276 0.62972 0.0
Co68 Co 0.84468 0.7029 0.14841 0.0
Co69 Co 0.84981 0.69835 0.11572 0.0
C70 C 0.89274 0.74789 0.13219 0.0
O71 O 0.87978 0.73787 0.14378 0.0
O72 O 0.88259 0.73566 0.1205 0.0
C73 C 0.85616 0.70574 0.17788 0.0
O74 O 0.88854 0.70401 0.17408 0.0
C75 C 0.84464 0.72031 0.08636 0.0
C76 C 0.83945 0.67053 0.07543 0.0
C77 C 0.84022 0.70566 0.07323 0.0
N78 N 0.84626 0.69495 0.09589 0.0
N79 N 0.84355 0.66526 0.08928 0.0
C80 C 0.84487 0.75765 0.08998 0.0
H81 H 0.83565 0.76151 0.1009 0.0
H82 H 0.82866 0.77243 0.08255 0.0
H83 H 0.87157 0.7674 0.08926 0.0
C84 C 0.77097 0.71022 0.14149 0.0
N85 N 0.80412 0.70765 0.13761 0.0
N86 N 0.80586 0.70455 0.12389 0.0
C87 C 0.77375 0.70416 0.11859 0.0
C88 C 0.75045 0.70777 0.12958 0.0
C89 C 0.75948 0.71531 0.15634 0.0
H90 H 0.77615 0.73456 0.16154 0.0
H91 H 0.73248 0.72427 0.15689 0.0
H92 H 0.76196 0.69071 0.16213 0.0
O93 O 0.86641 0.65735 0.14547 0.0
O94 O 0.8705 0.65511 0.12226 0.0
H95 H 0.78075 0.67373 0.10013 0.0
H96 H 0.73815 0.69066 0.10189 0.0
C97 C 0.76572 0.69635 0.10355 0.0
H98 H 0.77324 0.71853 0.09693 0.0
H99 H 0.84374 0.64142 0.09428 0.0
O100 O 0.83305 0.7061 0.1685 0.0
C101 C 0.8758 0.64201 0.1343 0.0
Co102 Co 0.30783 0.85077 0.64315 0.0
Co103 Co 0.31367 0.85084 0.6104 0.0
C104 C 0.26349 0.89633 0.62574 0.0
O105 O 0.27205 0.88439 0.63771 0.0
O106 O 0.27714 0.88517 0.61445 0.0
C107 C 0.2828 0.84732 0.67209 0.0
O108 O 0.25318 0.85855 0.66737 0.0
C109 C 0.29342 0.84148 0.58082 0.0
C110 C 0.34405 0.83188 0.57108 0.0
C111 C 0.30929 0.83363 0.56822 0.0
N112 N 0.31781 0.84397 0.59075 0.0
N113 N 0.34802 0.83871 0.58481 0.0
C114 C 0.25578 0.84429 0.58361 0.0
H115 H 0.25012 0.83768 0.59471 0.0
H116 H 0.2411 0.82731 0.57643 0.0
H117 H 0.24757 0.87117 0.58172 0.0
C118 C 0.29977 0.77607 0.63807 0.0
N119 N 0.30329 0.80855 0.63343 0.0
N120 N 0.30659 0.80828 0.6197 0.0
C121 C 0.306 0.77549 0.61515 0.0
C122 C 0.30159 0.75388 0.62665 0.0
C123 C 0.29403 0.76679 0.65314 0.0
H124 H 0.27418 0.7839 0.65767 0.0
H125 H 0.28549 0.7398 0.65433 0.0
H126 H 0.3182 0.77072 0.65909 0.0
O127 O 0.35303 0.87257 0.63944 0.0
O128 O 0.35727 0.87159 0.61626 0.0
H129 H 0.33687 0.77819 0.59663 0.0
H130 H 0.31729 0.73706 0.59923 0.0
C131 C 0.31332 0.76509 0.60031 0.0
H132 H 0.29167 0.77314 0.5935 0.0
H133 H 0.37129 0.83881 0.59023 0.0
O134 O 0.30745 0.84253 0.66359 0.0
C135 C 0.36941 0.87938 0.62822 0.0
Co136 Co 0.6511 0.19192 0.84957 0.0
Co137 Co 0.64601 0.18924 0.88234 0.0
C138 C 0.60321 0.23809 0.86535 0.0
O139 O 0.6163 0.22732 0.8539 0.0
O140 O 0.61323 0.22658 0.87721 0.0
C141 C 0.65816 0.21776 0.82111 0.0
O142 O 0.64461 0.24633 0.82589 0.0
C143 C 0.65259 0.21135 0.91178 0.0
C144 C 0.65661 0.16125 0.92255 0.0
C145 C 0.65707 0.19634 0.92487 0.0
N146 N 0.64983 0.1862 0.90219 0.0
N147 N 0.65185 0.15634 0.90872 0.0
C148 C 0.65346 0.24872 0.90823 0.0
H149 H 0.6616 0.2524 0.89716 0.0
H150 H 0.67108 0.26268 0.91539 0.0
H151 H 0.6273 0.25955 0.90949 0.0
C152 C 0.72485 0.1999 0.85636 0.0
N153 N 0.69176 0.19711 0.86029 0.0
N154 N 0.69011 0.19466 0.87404 0.0
C155 C 0.7223 0.19489 0.8793 0.0
C156 C 0.74551 0.19824 0.86825 0.0
C157 C 0.73613 0.20512 0.84148 0.0
H158 H 0.7198 0.22494 0.83648 0.0
H159 H 0.76326 0.21357 0.84082 0.0
H160 H 0.73288 0.18079 0.83557 0.0
O161 O 0.6289 0.14689 0.85304 0.0
O162 O 0.62474 0.1458 0.87625 0.0
H163 H 0.7153 0.16629 0.89826 0.0
H164 H 0.75813 0.18239 0.89601 0.0
C165 C 0.73059 0.18832 0.89441 0.0
H166 H 0.72364 0.21124 0.90071 0.0
H167 H 0.6508 0.13259 0.90368 0.0
O168 O 0.66262 0.19261 0.8294 0.0
C169 C 0.61927 0.1322 0.86431 0.0
Co170 Co 0.81432 0.64697 0.35222 0.0
Co171 Co 0.81725 0.64894 0.38501 0.0
C172 C 0.76834 0.60267 0.37031 0.0
O173 O 0.77829 0.61365 0.35835 0.0
O174 O 0.78069 0.61471 0.3817 0.0
C175 C 0.78574 0.65752 0.32423 0.0
O176 O 0.75527 0.65675 0.33013 0.0
C177 C 0.80224 0.65498 0.41547 0.0
C178 C 0.85075 0.67863 0.42266 0.0
C179 C 0.81886 0.66771 0.42727 0.0
N180 N 0.82342 0.65851 0.4044 0.0
N181 N 0.85242 0.67235 0.40882 0.0
C182 C 0.76614 0.64219 0.41444 0.0
H183 H 0.75516 0.64881 0.40404 0.0
H184 H 0.74994 0.65323 0.4229 0.0
H185 H 0.76617 0.61382 0.41549 0.0
C186 C 0.80993 0.72252 0.35645 0.0
N187 N 0.81084 0.69005 0.36135 0.0
N188 N 0.80964 0.69065 0.37513 0.0
C189 C 0.80648 0.72346 0.37946 0.0
C190 C 0.80701 0.74494 0.36778 0.0
C191 C 0.81527 0.73181 0.34135 0.0
H192 H 0.83394 0.71397 0.33647 0.0
H193 H 0.7905 0.72957 0.33568 0.0
H194 H 0.82504 0.75841 0.34022 0.0
O195 O 0.85909 0.62549 0.35596 0.0
O196 O 0.86087 0.62681 0.37919 0.0
H197 H 0.82652 0.73535 0.39977 0.0
H198 H 0.78849 0.75924 0.39518 0.0
C199 C 0.80127 0.73386 0.39444 0.0
H200 H 0.78519 0.71459 0.39991 0.0
H201 H 0.87316 0.67812 0.40229 0.0
O202 O 0.81236 0.65345 0.33173 0.0
C203 C 0.87418 0.61864 0.36746 0.0
Co204 Co 0.33648 0.80508 0.84841 0.0
Co205 Co 0.33789 0.80922 0.88122 0.0
C206 C 0.38303 0.76021 0.86569 0.0
O207 O 0.37122 0.77028 0.8539 0.0
O208 O 0.37158 0.77224 0.87722 0.0
C209 C 0.35112 0.79922 0.81915 0.0
O210 O 0.3831 0.79811 0.8235 0.0
C211 C 0.33333 0.78979 0.91102 0.0
C212 C 0.31853 0.83925 0.92064 0.0
C213 C 0.32523 0.80516 0.92374 0.0
N214 N 0.3314 0.81376 0.9009 0.0
N215 N 0.32281 0.8433 0.90674 0.0
C216 C 0.34005 0.7526 0.90826 0.0
H217 H 0.36807 0.7478 0.90892 0.0
H218 H 0.33127 0.74561 0.89755 0.0
H219 H 0.32687 0.73624 0.91614 0.0
C220 C 0.26209 0.79786 0.85391 0.0
N221 N 0.29478 0.80041 0.8584 0.0
N222 N 0.2951 0.80209 0.87219 0.0
C223 C 0.26249 0.80073 0.87693 0.0
C224 C 0.24051 0.79809 0.86551 0.0
C225 C 0.25184 0.79834 0.83877 0.0
H226 H 0.2625 0.77534 0.83346 0.0
H227 H 0.22357 0.7988 0.83744 0.0
H228 H 0.26302 0.82133 0.83363 0.0
O229 O 0.35748 0.8506 0.85164 0.0
O230 O 0.3591 0.85271 0.8749 0.0
H231 H 0.25775 0.82808 0.89627 0.0
H232 H 0.22495 0.79594 0.89361 0.0
C233 C 0.25252 0.80203 0.89209 0.0
H234 H 0.26813 0.78336 0.89811 0.0
H235 H 0.31934 0.86611 0.90117 0.0
O236 O 0.32712 0.80144 0.82813 0.0
C237 C 0.36562 0.86591 0.86296 0.0
Co238 Co 0.19858 0.33465 0.35041 0.0
Co239 Co 0.19918 0.3352 0.38317 0.0
C240 C 0.2465 0.38016 0.36754 0.0
O241 O 0.23404 0.36873 0.35607 0.0
O242 O 0.2367 0.36838 0.37939 0.0
C243 C 0.20698 0.34969 0.32117 0.0
O244 O 0.21048 0.38154 0.32547 0.0
C245 C 0.21377 0.32975 0.41372 0.0
C246 C 0.16433 0.30794 0.42085 0.0
C247 C 0.19647 0.31787 0.42552 0.0
N248 N 0.1927 0.32665 0.4026 0.0
N249 N 0.16317 0.31388 0.40698 0.0
C250 C 0.25028 0.34135 0.41276 0.0
H251 H 0.26102 0.33488 0.4023 0.0
H252 H 0.26608 0.32935 0.42112 0.0
H253 H 0.25123 0.36964 0.41405 0.0
C254 C 0.20246 0.2599 0.35533 0.0
N255 N 0.20264 0.29253 0.35999 0.0
N256 N 0.20525 0.29264 0.37373 0.0
C257 C 0.20806 0.25995 0.37827 0.0
C258 C 0.20606 0.23797 0.36677 0.0
C259 C 0.19525 0.25023 0.3404 0.0
H260 H 0.1757 0.26777 0.33593 0.0
H261 H 0.21915 0.25288 0.33416 0.0
H262 H 0.1857 0.2235 0.33953 0.0
O263 O 0.15377 0.35593 0.35396 0.0
O264 O 0.15589 0.35813 0.3772 0.0
H265 H 0.18879 0.24941 0.39883 0.0
H266 H 0.22601 0.22443 0.39408 0.0
C267 C 0.2138 0.25008 0.39327 0.0
H268 H 0.23054 0.26925 0.39847 0.0
H269 H 0.1424 0.30862 0.40041 0.0
O270 O 0.2023 0.32605 0.33012 0.0
C271 C 0.14075 0.36476 0.36566 0.0
Co272 Co 0.83788 0.68955 0.85612 0.0
Co273 Co 0.83719 0.69414 0.88887 0.0
C274 C 0.88283 0.73935 0.87181 0.0
O275 O 0.87125 0.72679 0.86038 0.0
O276 O 0.87145 0.72948 0.88369 0.0
C277 C 0.82735 0.71232 0.8275 0.0
O278 O 0.82783 0.74358 0.83268 0.0
C279 C 0.83265 0.72007 0.91793 0.0
C280 C 0.81297 0.67402 0.92885 0.0
C281 C 0.82259 0.70785 0.931 0.0
N282 N 0.82905 0.69454 0.90854 0.0
N283 N 0.81747 0.66708 0.91515 0.0
C284 C 0.84292 0.75587 0.91413 0.0
H285 H 0.8713 0.75797 0.91455 0.0
H286 H 0.83453 0.76189 0.90327 0.0
H287 H 0.83162 0.77475 0.92153 0.0
C288 C 0.76272 0.69501 0.8605 0.0
N289 N 0.79525 0.69535 0.8653 0.0
N290 N 0.79496 0.69922 0.87901 0.0
C291 C 0.76217 0.70276 0.88334 0.0
C292 C 0.74051 0.69988 0.87177 0.0
C293 C 0.75322 0.6864 0.84568 0.0
H294 H 0.77097 0.6667 0.84147 0.0
H295 H 0.75544 0.70981 0.83911 0.0
H296 H 0.72661 0.67644 0.84495 0.0
O297 O 0.85923 0.64596 0.86166 0.0
O298 O 0.85885 0.64892 0.8849 0.0
H299 H 0.7524 0.6857 0.90429 0.0
H300 H 0.72584 0.72124 0.89878 0.0
C301 C 0.75195 0.70997 0.8982 0.0
H302 H 0.77035 0.72816 0.90301 0.0
H303 H 0.81225 0.6437 0.91026 0.0
O304 O 0.83125 0.68685 0.83566 0.0
C305 C 0.86642 0.63321 0.87359 0.0
Co306 Co 0.31204 0.83447 0.34715 0.0
Co307 Co 0.30933 0.83608 0.37992 0.0
C308 C 0.26262 0.88005 0.36343 0.0
O309 O 0.27569 0.86861 0.35205 0.0
O310 O 0.27203 0.86859 0.37536 0.0
C311 C 0.28532 0.82063 0.31931 0.0
O312 O 0.25483 0.82099 0.3252 0.0
C313 C 0.29011 0.83148 0.41 0.0
C314 C 0.33808 0.80955 0.41859 0.0
C315 C 0.30517 0.8195 0.42226 0.0
N316 N 0.31314 0.82836 0.39954 0.0
N317 N 0.34182 0.81566 0.40481 0.0
C318 C 0.25382 0.84292 0.40796 0.0
H319 H 0.24445 0.8348 0.39747 0.0
H320 H 0.23685 0.83234 0.41627 0.0
H321 H 0.25285 0.87136 0.40844 0.0
C322 C 0.3085 0.75946 0.35258 0.0
N323 N 0.30766 0.7924 0.35691 0.0
N324 N 0.30419 0.79319 0.37062 0.0
C325 C 0.30125 0.76076 0.37543 0.0
C326 C 0.30438 0.73814 0.36419 0.0
C327 C 0.31676 0.74882 0.33786 0.0
H328 H 0.3353 0.76705 0.33313 0.0
H329 H 0.29289 0.74918 0.3315 0.0
H330 H 0.32792 0.72265 0.33751 0.0
O331 O 0.35617 0.85627 0.3514 0.0
O332 O 0.35312 0.85917 0.37461 0.0
H333 H 0.31824 0.75159 0.39644 0.0
H334 H 0.28184 0.72597 0.39124 0.0
C335 C 0.2939 0.75168 0.39041 0.0
H336 H 0.27633 0.77089 0.39508 0.0
H337 H 0.36369 0.81028 0.39887 0.0
O338 O 0.31177 0.82611 0.32676 0.0
C339 C 0.36867 0.86553 0.36313 0.0
Co340 Co 0.14568 0.30894 0.85157 0.0
Co341 Co 0.15148 0.307 0.88428 0.0
C342 C 0.10354 0.26023 0.86941 0.0
O343 O 0.11316 0.27187 0.85751 0.0
O344 O 0.11694 0.27093 0.88081 0.0
C345 C 0.15656 0.28472 0.823 0.0
O346 O 0.16225 0.25438 0.82856 0.0
C347 C 0.16181 0.28694 0.91398 0.0
C348 C 0.1866 0.33412 0.92197 0.0
C349 C 0.17655 0.30139 0.92585 0.0
N350 N 0.16351 0.3101 0.90353 0.0
N351 N 0.17797 0.33832 0.90844 0.0
C352 C 0.14888 0.25106 0.91222 0.0
H353 H 0.15467 0.2417 0.90147 0.0
H354 H 0.16051 0.23359 0.9201 0.0
H355 H 0.1206 0.25096 0.91361 0.0
C356 C 0.22199 0.30547 0.85429 0.0
N357 N 0.18997 0.30464 0.8597 0.0
N358 N 0.19198 0.30113 0.8734 0.0
C359 C 0.22524 0.29805 0.87709 0.0
C360 C 0.24554 0.30129 0.86515 0.0
C361 C 0.22984 0.31375 0.83928 0.0
H362 H 0.21041 0.33177 0.83504 0.0
H363 H 0.22909 0.28977 0.83301 0.0
H364 H 0.25565 0.32547 0.83819 0.0
O365 O 0.12441 0.35287 0.85691 0.0
O366 O 0.12854 0.35129 0.88009 0.0
H367 H 0.23899 0.31456 0.89775 0.0
H368 H 0.26294 0.27796 0.89158 0.0
C369 C 0.23729 0.29034 0.89168 0.0
H370 H 0.21893 0.27289 0.89696 0.0
H371 H 0.1827 0.36019 0.90241 0.0
O372 O 0.1491 0.30986 0.83092 0.0
C373 C 0.11886 0.36619 0.86888 0.0
Co374 Co 0.69491 0.14995 0.34874 0.0
Co375 Co 0.69085 0.14715 0.38157 0.0
C376 C 0.73963 0.10243 0.36558 0.0
O377 O 0.72944 0.11482 0.3539 0.0
O378 O 0.72789 0.11347 0.37724 0.0
C379 C 0.69588 0.13602 0.31937 0.0
O380 O 0.69397 0.104 0.32365 0.0
C381 C 0.70952 0.1543 0.41152 0.0
C382 C 0.65826 0.16306 0.42083 0.0
C383 C 0.69283 0.16114 0.42407 0.0
N384 N 0.68579 0.15254 0.4013 0.0
N385 N 0.65521 0.1573 0.40698 0.0
C386 C 0.74734 0.15184 0.4091 0.0
H387 H 0.75362 0.15872 0.39809 0.0
H388 H 0.76143 0.16881 0.41648 0.0
H389 H 0.75568 0.125 0.411 0.0
C390 C 0.70418 0.22399 0.35481 0.0
N391 N 0.7004 0.19122 0.35905 0.0
N392 N 0.69776 0.19045 0.37281 0.0
C393 C 0.69896 0.22288 0.37777 0.0
C394 C 0.70315 0.24533 0.36651 0.0
C395 C 0.70947 0.23431 0.33982 0.0
H396 H 0.72779 0.21643 0.33473 0.0
H397 H 0.71964 0.26081 0.33896 0.0
H398 H 0.68465 0.23261 0.33415 0.0
O399 O 0.6492 0.12895 0.35199 0.0
O400 O 0.64746 0.1264 0.37522 0.0
H401 H 0.66904 0.21895 0.39651 0.0
H402 H 0.68872 0.26013 0.39426 0.0
C403 C 0.69248 0.23218 0.39279 0.0
H404 H 0.71441 0.22347 0.39931 0.0
H405 H 0.63229 0.15759 0.40132 0.0
O406 O 0.69749 0.15987 0.32843 0.0
C407 C 0.63403 0.12044 0.3633 0.0
Co408 Co 0.34889 0.80692 0.14342 0.0
Co409 Co 0.34663 0.80965 0.11063 0.0
C410 C 0.39277 0.76065 0.12551 0.0
O411 O 0.38187 0.77056 0.13747 0.0
O412 O 0.38078 0.7732 0.11417 0.0
C413 C 0.33664 0.77747 0.17086 0.0
O414 O 0.33437 0.74796 0.16425 0.0
C415 C 0.33998 0.78983 0.08089 0.0
C416 C 0.32139 0.83842 0.07162 0.0
C417 C 0.32967 0.80478 0.06834 0.0
N418 N 0.33778 0.81363 0.09107 0.0
N419 N 0.32689 0.84264 0.08544 0.0
C420 C 0.34896 0.75305 0.08348 0.0
H421 H 0.37717 0.74985 0.08256 0.0
H422 H 0.3412 0.74545 0.09426 0.0
H423 H 0.33626 0.73603 0.07572 0.0
C424 C 0.27333 0.80401 0.13934 0.0
N425 N 0.30572 0.80377 0.13436 0.0
N426 N 0.30487 0.80273 0.12057 0.0
C427 C 0.27189 0.80092 0.11633 0.0
C428 C 0.25067 0.80205 0.12808 0.0
C429 C 0.26441 0.81012 0.15444 0.0
H430 H 0.2832 0.82794 0.15925 0.0
H431 H 0.26534 0.78537 0.16018 0.0
H432 H 0.23836 0.82128 0.15556 0.0
O433 O 0.37052 0.85151 0.13945 0.0
O434 O 0.36879 0.8535 0.11619 0.0
H435 H 0.26212 0.82251 0.0961 0.0
H436 H 0.23461 0.78677 0.10051 0.0
C437 C 0.26106 0.79711 0.10134 0.0
H438 H 0.27874 0.77941 0.09582 0.0
H439 H 0.32274 0.8652 0.0911 0.0
O440 O 0.3429 0.80461 0.16393 0.0
C441 C 0.37716 0.86668 0.12794 0.0
Co442 Co 0.20149 0.35032 0.64773 0.0
Co443 Co 0.18639 0.35125 0.6155 0.0
C444 C 0.24056 0.39637 0.62845 0.0
O445 O 0.2354 0.38434 0.64073 0.0
O446 O 0.22387 0.38523 0.61787 0.0
C447 C 0.20309 0.36425 0.67685 0.0
O448 O 0.19372 0.39486 0.6725 0.0
C449 C 0.19891 0.3427 0.58529 0.0
C450 C 0.14601 0.33545 0.57743 0.0
C451 C 0.18003 0.3363 0.57324 0.0
N452 N 0.17696 0.3453 0.59612 0.0
N453 N 0.14538 0.34138 0.59133 0.0
C454 C 0.23709 0.34387 0.58674 0.0
H455 H 0.24478 0.33652 0.59756 0.0
H456 H 0.24949 0.32658 0.57898 0.0
H457 H 0.24603 0.37046 0.58474 0.0
C458 C 0.20815 0.27574 0.64185 0.0
N459 N 0.2032 0.30837 0.63761 0.0
N460 N 0.19602 0.30852 0.62413 0.0
C461 C 0.19542 0.27591 0.61938 0.0
C462 C 0.20322 0.25394 0.63045 0.0
C463 C 0.21802 0.26595 0.6565 0.0
H464 H 0.23787 0.28389 0.66047 0.0
H465 H 0.22818 0.23938 0.65698 0.0
H466 H 0.19518 0.26807 0.66341 0.0
O467 O 0.15531 0.37224 0.64649 0.0
O468 O 0.14505 0.3719 0.62361 0.0
H469 H 0.16009 0.28002 0.60229 0.0
H470 H 0.17867 0.23814 0.60404 0.0
C471 C 0.18393 0.266 0.60494 0.0
H472 H 0.20402 0.27327 0.59724 0.0
H473 H 0.12345 0.34191 0.59762 0.0
O474 O 0.20927 0.34105 0.66784 0.0
C475 C 0.13612 0.37942 0.63607 0.0
Co476 Co 0.6514 0.20136 0.14385 0.0
Co477 Co 0.65232 0.19625 0.11101 0.0
C478 C 0.60593 0.24555 0.12604 0.0
O479 O 0.61747 0.23672 0.13804 0.0
O480 O 0.61768 0.23239 0.11477 0.0
C481 C 0.63512 0.20145 0.17306 0.0
O482 O 0.60358 0.19774 0.16842 0.0
C483 C 0.65888 0.21624 0.0813 0.0
C484 C 0.67316 0.16667 0.07164 0.0
C485 C 0.66727 0.20094 0.06858 0.0
N486 N 0.65989 0.19205 0.09136 0.0
N487 N 0.6682 0.16247 0.0855 0.0
C488 C 0.65269 0.25347 0.08415 0.0
H489 H 0.6605 0.25992 0.09504 0.0
H490 H 0.66702 0.26977 0.0766 0.0
H491 H 0.62486 0.25893 0.08305 0.0
C492 C 0.7262 0.20786 0.13915 0.0
N493 N 0.69379 0.20569 0.1343 0.0
N494 N 0.69438 0.20385 0.12052 0.0
C495 C 0.72729 0.20484 0.11613 0.0
C496 C 0.74855 0.2073 0.12779 0.0
C497 C 0.73539 0.20698 0.1544 0.0
H498 H 0.72332 0.18421 0.15937 0.0
H499 H 0.72492 0.23018 0.15963 0.0
H500 H 0.76353 0.2058 0.15607 0.0
O501 O 0.63035 0.15588 0.1403 0.0
O502 O 0.63155 0.15249 0.11705 0.0
H503 H 0.73297 0.17716 0.09691 0.0
H504 H 0.76587 0.20909 0.09982 0.0
C505 C 0.73818 0.20323 0.10108 0.0
H506 H 0.72311 0.22194 0.09486 0.0
H507 H 0.67095 0.13949 0.09102 0.0
O508 O 0.65947 0.20452 0.16428 0.0
C509 C 0.62376 0.13987 0.12896 0.0
Co510 Co 0.8058 0.65875 0.65095 0.0
Co511 Co 0.81116 0.65603 0.61825 0.0
C512 C 0.76139 0.61189 0.63294 0.0
O513 O 0.77166 0.62385 0.64468 0.0
O514 O 0.77334 0.6231 0.62136 0.0
C515 C 0.79814 0.64351 0.67981 0.0
O516 O 0.8018 0.6119 0.67524 0.0
C517 C 0.79969 0.65904 0.58753 0.0
C518 C 0.84994 0.67941 0.58065 0.0
C519 C 0.81795 0.66957 0.57578 0.0
N520 N 0.82005 0.66275 0.59883 0.0
N521 N 0.85011 0.67458 0.59461 0.0
C522 C 0.76284 0.64844 0.58824 0.0
H523 H 0.75141 0.65663 0.59837 0.0
H524 H 0.74799 0.65958 0.5794 0.0
H525 H 0.7613 0.62004 0.58761 0.0
C526 C 0.80296 0.73329 0.64495 0.0
N527 N 0.80325 0.70028 0.64075 0.0
N528 N 0.8032 0.69911 0.62697 0.0
C529 C 0.80155 0.7314 0.62191 0.0
C530 C 0.80179 0.75431 0.63313 0.0
C531 C 0.80757 0.74414 0.65992 0.0
H532 H 0.8254 0.72633 0.66532 0.0
H533 H 0.78241 0.74303 0.66536 0.0
H534 H 0.81796 0.77057 0.66068 0.0
O535 O 0.85144 0.63781 0.64895 0.0
O536 O 0.85358 0.63421 0.62573 0.0
H537 H 0.82445 0.73963 0.6018 0.0
H538 H 0.78709 0.7658 0.60511 0.0
C539 C 0.79857 0.74001 0.60665 0.0
H540 H 0.78227 0.72076 0.60129 0.0
H541 H 0.8705 0.6801 0.60135 0.0
O542 O 0.79832 0.66802 0.67103 0.0
C543 C 0.86669 0.62855 0.63776 0.0
C544 C 0.15881 0.25875 0.19957 0.0
C545 C 0.16431 0.28493 0.18967 0.0
C546 C 0.16557 0.26452 0.21381 0.0
C547 C 0.1717 0.33467 0.23933 0.0
H548 H 0.22035 0.2689 0.26251 0.0
C549 C 0.21124 0.36714 0.29592 0.0
C550 C 0.20613 0.34144 0.30603 0.0
C551 C 0.20836 0.35952 0.28163 0.0
C552 C 0.20644 0.28738 0.2562 0.0
H553 H 0.18208 0.33738 0.18691 0.0
H554 H 0.19371 0.34727 0.21161 0.0
H555 H 0.21018 0.25614 0.23772 0.0
H556 H 0.19478 0.28737 0.3091 0.0
H557 H 0.18916 0.27431 0.28426 0.0
H558 H 0.1674 0.36571 0.25773 0.0
C559 C 0.18383 0.32247 0.20842 0.0
C560 C 0.20063 0.28004 0.24203 0.0
C561 C 0.17728 0.3167 0.19425 0.0
C562 C 0.19889 0.3078 0.30157 0.0
C563 C 0.19587 0.30023 0.28731 0.0
C564 C 0.17733 0.34192 0.25348 0.0
C565 C 0.17773 0.29662 0.21837 0.0
C566 C 0.18334 0.30372 0.23346 0.0
C567 C 0.20017 0.32608 0.27718 0.0
C568 C 0.19486 0.31843 0.26207 0.0
H569 H 0.14892 0.23399 0.19635 0.0
H570 H 0.16051 0.24419 0.22128 0.0
H571 H 0.1578 0.35315 0.23301 0.0
H572 H 0.21707 0.39324 0.29901 0.0
H573 H 0.21241 0.37989 0.27407 0.0
C574 C 0.68461 0.18436 0.80151 0.0
C575 C 0.66862 0.21457 0.80624 0.0
C576 C 0.69362 0.18057 0.78743 0.0
C577 C 0.70933 0.22803 0.75454 0.0
H578 H 0.68595 0.14108 0.73717 0.0
C579 C 0.74624 0.19257 0.69722 0.0
C580 C 0.71992 0.17749 0.68924 0.0
C581 C 0.74211 0.19747 0.71168 0.0
C582 C 0.69258 0.16552 0.74186 0.0
H583 H 0.65034 0.26486 0.79996 0.0
H584 H 0.66585 0.25805 0.77524 0.0
H585 H 0.67466 0.14972 0.76205 0.0
H586 H 0.66866 0.1557 0.69017 0.0
H587 H 0.66157 0.16421 0.71526 0.0
H588 H 0.72658 0.24397 0.73418 0.0
C589 C 0.67162 0.23744 0.7825 0.0
C590 C 0.68642 0.17036 0.75614 0.0
C591 C 0.66255 0.24125 0.79663 0.0
C592 C 0.68951 0.16731 0.696 0.0
C593 C 0.68548 0.17201 0.71041 0.0
C594 C 0.71566 0.22311 0.74022 0.0
C595 C 0.68688 0.20688 0.77774 0.0
C596 C 0.69451 0.20173 0.76263 0.0
C597 C 0.7117 0.18711 0.71841 0.0
C598 C 0.70699 0.19191 0.73372 0.0
H599 H 0.69 0.16342 0.80866 0.0
H600 H 0.70584 0.15694 0.78412 0.0
H601 H 0.7161 0.25236 0.75929 0.0
H602 H 0.76994 0.20076 0.6923 0.0
H603 H 0.76282 0.20898 0.71762 0.0
C604 C 0.7611 0.66879 0.30026 0.0
C605 C 0.78975 0.66496 0.30909 0.0
C606 C 0.7655 0.67634 0.286 0.0
C607 C 0.82898 0.71192 0.26107 0.0
H608 H 0.77844 0.66076 0.23295 0.0
C609 C 0.87186 0.70474 0.20336 0.0
C610 C 0.8465 0.70555 0.1929 0.0
C611 C 0.86268 0.70301 0.21752 0.0
C612 C 0.79238 0.67565 0.24068 0.0
H613 H 0.84548 0.66603 0.30985 0.0
H614 H 0.85302 0.67884 0.28512 0.0
H615 H 0.76587 0.65179 0.2578 0.0
H616 H 0.79154 0.70588 0.18909 0.0
H617 H 0.7756 0.70302 0.21382 0.0
H618 H 0.8559 0.73536 0.244 0.0
C619 C 0.82716 0.67647 0.2892 0.0
C620 C 0.78516 0.67051 0.2549 0.0
C621 C 0.8228 0.66882 0.30337 0.0
C622 C 0.81174 0.70517 0.1969 0.0
C623 C 0.80257 0.70335 0.21106 0.0
C624 C 0.83619 0.71705 0.24688 0.0
C625 C 0.79862 0.68042 0.28035 0.0
C626 C 0.80384 0.68814 0.26525 0.0
C627 C 0.82794 0.70202 0.22152 0.0
C628 C 0.81839 0.69855 0.23653 0.0
H629 H 0.73531 0.66602 0.30436 0.0
H630 H 0.74302 0.6794 0.27943 0.0
H631 H 0.84335 0.72638 0.26881 0.0
H632 H 0.89885 0.70495 0.20063 0.0
H633 H 0.88285 0.70159 0.22533 0.0
C634 C 0.3693 0.79757 0.79394 0.0
C635 C 0.34307 0.80037 0.80399 0.0
C636 C 0.36189 0.80076 0.77965 0.0
C637 C 0.29055 0.79901 0.75384 0.0
H638 H 0.35407 0.85208 0.73122 0.0
C639 C 0.2612 0.84415 0.69694 0.0
C640 C 0.28809 0.84039 0.68721 0.0
C641 C 0.26691 0.83819 0.71124 0.0
C642 C 0.33624 0.83695 0.73737 0.0
H643 H 0.28832 0.80796 0.80691 0.0
H644 H 0.27553 0.8141 0.78203 0.0
H645 H 0.36615 0.84291 0.75601 0.0
H646 H 0.34188 0.82685 0.68486 0.0
H647 H 0.35168 0.81658 0.70969 0.0
H648 H 0.26046 0.79351 0.73513 0.0
C649 C 0.30176 0.80897 0.78515 0.0
C650 C 0.34321 0.83158 0.75157 0.0
C651 C 0.30915 0.80564 0.79943 0.0
C652 C 0.32061 0.8302 0.69206 0.0
C653 C 0.32633 0.82445 0.70631 0.0
C654 C 0.28348 0.80455 0.73962 0.0
C655 C 0.3281 0.80697 0.7751 0.0
C656 C 0.32056 0.8124 0.75997 0.0
C657 C 0.29965 0.82861 0.71607 0.0
C658 C 0.30638 0.82341 0.73124 0.0
H659 H 0.39566 0.79329 0.7971 0.0
H660 H 0.38269 0.79845 0.77216 0.0
H661 H 0.27275 0.78382 0.75998 0.0
H662 H 0.23585 0.85191 0.69353 0.0
H663 H 0.24592 0.84176 0.71856 0.0
C664 C 0.81868 0.73382 0.80289 0.0
C665 C 0.82192 0.7063 0.81234 0.0
C666 C 0.81411 0.72763 0.78854 0.0
C667 C 0.82869 0.66096 0.76178 0.0
H668 H 0.76372 0.71326 0.73956 0.0
C669 C 0.7976 0.62392 0.70483 0.0
C670 C 0.79646 0.65081 0.69502 0.0
C671 C 0.79848 0.63096 0.7192 0.0
C672 C 0.78216 0.69864 0.74561 0.0
H673 H 0.82215 0.65073 0.81418 0.0
H674 H 0.81398 0.64008 0.78928 0.0
H675 H 0.77013 0.72568 0.76458 0.0
H676 H 0.79434 0.70619 0.6926 0.0
H677 H 0.79623 0.71841 0.71767 0.0
H678 H 0.84094 0.63406 0.74288 0.0
C679 C 0.81552 0.6664 0.79289 0.0
C680 C 0.78586 0.70579 0.75992 0.0
C681 C 0.82005 0.67255 0.80718 0.0
C682 C 0.79523 0.68486 0.69989 0.0
C683 C 0.79613 0.69189 0.71426 0.0
C684 C 0.82502 0.65385 0.74751 0.0
C685 C 0.81277 0.69383 0.78339 0.0
C686 C 0.80909 0.68691 0.76816 0.0
C687 C 0.79827 0.66503 0.72406 0.0
C688 C 0.80164 0.67251 0.73927 0.0
H689 H 0.81997 0.7601 0.80655 0.0
H690 H 0.81233 0.74929 0.78145 0.0
H691 H 0.84727 0.6464 0.76778 0.0
H692 H 0.79836 0.59741 0.70142 0.0
H693 H 0.79955 0.60968 0.72651 0.0
C694 C 0.2608 0.81024 0.29529 0.0
C695 C 0.28943 0.81328 0.30418 0.0
C696 C 0.26523 0.80418 0.28092 0.0
C697 C 0.32963 0.8147 0.25294 0.0
H698 H 0.2711 0.75296 0.23181 0.0
C699 C 0.3313 0.81197 0.19283 0.0
C700 C 0.33056 0.7798 0.18615 0.0
C701 C 0.32555 0.81467 0.20722 0.0
C702 C 0.28781 0.77006 0.23761 0.0
H703 H 0.34509 0.81117 0.30504 0.0
H704 H 0.3527 0.8003 0.28014 0.0
H705 H 0.26248 0.75948 0.25713 0.0
H706 H 0.32282 0.72523 0.18936 0.0
H707 H 0.31311 0.72996 0.21467 0.0
H708 H 0.35532 0.82497 0.23358 0.0
C709 C 0.32687 0.80328 0.28417 0.0
C710 C 0.28263 0.77409 0.25206 0.0
C711 C 0.32247 0.8094 0.29847 0.0
C712 C 0.32363 0.75037 0.1942 0.0
C713 C 0.31786 0.75309 0.20867 0.0
C714 C 0.33478 0.81071 0.23856 0.0
C715 C 0.29837 0.80101 0.27519 0.0
C716 C 0.30352 0.79647 0.25987 0.0
C717 C 0.31898 0.78529 0.21533 0.0
C718 C 0.31385 0.7885 0.23071 0.0
H719 H 0.23501 0.81305 0.29939 0.0
H720 H 0.24277 0.80282 0.27424 0.0
H721 H 0.34591 0.83245 0.25862 0.0
H722 H 0.33627 0.83523 0.18693 0.0
H723 H 0.32599 0.8399 0.21199 0.0
C724 C 0.19281 0.38059 0.7019 0.0
C725 C 0.20265 0.35578 0.69199 0.0
C726 C 0.18912 0.37179 0.71603 0.0
C727 C 0.21174 0.30674 0.74267 0.0
H728 H 0.13037 0.34131 0.7614 0.0
C729 C 0.17192 0.26421 0.79878 0.0
C730 C 0.16088 0.29062 0.80776 0.0
C731 C 0.177 0.27061 0.78446 0.0
C732 C 0.15337 0.33167 0.75636 0.0
H733 H 0.21757 0.30252 0.68922 0.0
H734 H 0.21099 0.28718 0.7139 0.0
H735 H 0.14086 0.35623 0.73696 0.0
H736 H 0.14645 0.34441 0.80875 0.0
H737 H 0.1555 0.35549 0.78396 0.0
H738 H 0.22427 0.28232 0.76216 0.0
C739 C 0.20628 0.31346 0.71074 0.0
C740 C 0.15941 0.34029 0.74237 0.0
C741 C 0.20992 0.32225 0.69659 0.0
C742 C 0.15482 0.3234 0.80213 0.0
C743 C 0.15983 0.32975 0.78787 0.0
C744 C 0.2057 0.29814 0.75671 0.0
C745 C 0.19522 0.33799 0.72057 0.0
C746 C 0.18882 0.32821 0.73539 0.0
C747 C 0.171 0.30349 0.77887 0.0
C748 C 0.17661 0.31082 0.76375 0.0
H749 H 0.18719 0.40668 0.69872 0.0
H750 H 0.18117 0.39141 0.7234 0.0
H751 H 0.23472 0.29722 0.73759 0.0
H752 H 0.17685 0.23868 0.8028 0.0
H753 H 0.18535 0.24978 0.77775 0.0
C754 C 0.69236 0.1183 0.29412 0.0
C755 C 0.69358 0.14447 0.30426 0.0
C756 C 0.68815 0.12629 0.27992 0.0
C757 C 0.65358 0.19327 0.25683 0.0
H758 H 0.70493 0.14584 0.22783 0.0
C759 C 0.61596 0.19611 0.19809 0.0
C760 C 0.64268 0.19921 0.18826 0.0
C761 C 0.62327 0.19171 0.21235 0.0
C762 C 0.69058 0.15951 0.23582 0.0
H763 H 0.69208 0.19965 0.30739 0.0
H764 H 0.68473 0.21351 0.28261 0.0
H765 H 0.7168 0.13363 0.25251 0.0
H766 H 0.69804 0.20098 0.18573 0.0
H767 H 0.71069 0.1933 0.2106 0.0
H768 H 0.6273 0.21908 0.24013 0.0
C769 C 0.68673 0.18681 0.28567 0.0
C770 C 0.69716 0.15226 0.24993 0.0
C771 C 0.69115 0.17885 0.29986 0.0
C772 C 0.67684 0.19856 0.19302 0.0
C773 C 0.68412 0.19396 0.20726 0.0
C774 C 0.64684 0.20033 0.24271 0.0
C775 C 0.68488 0.16062 0.27557 0.0
C776 C 0.67865 0.16899 0.26058 0.0
C777 C 0.65743 0.19013 0.21705 0.0
C778 C 0.6652 0.18345 0.23206 0.0
H779 H 0.69415 0.09157 0.29716 0.0
H780 H 0.68653 0.10554 0.27238 0.0
H781 H 0.63868 0.20633 0.26481 0.0
H782 H 0.58938 0.19651 0.19477 0.0
H783 H 0.60216 0.18857 0.21964 0.0
C784 C 0.14992 0.27653 0.05068 0.0
C785 C 0.17389 0.29749 0.05753 0.0
C786 C 0.15501 0.26733 0.03662 0.0
C787 C 0.19995 0.30242 0.00588 0.0
H788 H 0.16621 0.22108 0.9869 0.0
C789 C 0.21253 0.29316 0.947 0.0
C790 C 0.18166 0.28665 0.93992 0.0
C791 C 0.21574 0.28546 0.9612 0.0
C792 C 0.17579 0.24385 0.99211 0.0
H793 H 0.22313 0.32273 0.05584 0.0
H794 H 0.23307 0.30527 0.03162 0.0
H795 H 0.16509 0.22384 0.01265 0.0
H796 H 0.13058 0.26523 0.94182 0.0
H797 H 0.13593 0.25226 0.96691 0.0
H798 H 0.21007 0.32282 0.98555 0.0
C799 C 0.20965 0.29707 0.03674 0.0
C800 C 0.17509 0.2455 0.00682 0.0
C801 C 0.20416 0.30689 0.05062 0.0
C802 C 0.15476 0.27015 0.94705 0.0
C803 C 0.15786 0.26272 0.96138 0.0
C804 C 0.20087 0.30067 0.99131 0.0
C805 C 0.1844 0.27861 0.02935 0.0
C806 C 0.18705 0.27495 0.01386 0.0
C807 C 0.18791 0.27167 0.96869 0.0
C808 C 0.18871 0.2715 0.98424 0.0
H809 H 0.12633 0.26916 0.05589 0.0
H810 H 0.13497 0.25324 0.03126 0.0
H811 H 0.20831 0.32599 0.01084 0.0
H812 H 0.23374 0.30557 0.94166 0.0
H813 H 0.23944 0.29201 0.96652 0.0
C814 C 0.72809 0.143 0.44475 0.0
C815 C 0.70729 0.16748 0.43809 0.0
C816 C 0.73602 0.14644 0.45904 0.0
C817 C 0.69787 0.187 0.49023 0.0
H818 H 0.78062 0.15784 0.50946 0.0
C819 C 0.70931 0.20738 0.54874 0.0
C820 C 0.71726 0.17808 0.55664 0.0
C821 C 0.71561 0.20817 0.53435 0.0
C822 C 0.75739 0.16599 0.50418 0.0
H823 H 0.68093 0.21598 0.44052 0.0
H824 H 0.69598 0.22294 0.46515 0.0
H825 H 0.7782 0.15614 0.48367 0.0
H826 H 0.73968 0.12723 0.55592 0.0
H827 H 0.75049 0.12843 0.53053 0.0
H828 H 0.67684 0.19663 0.51051 0.0
C829 C 0.70512 0.2004 0.45965 0.0
C830 C 0.75596 0.16498 0.48946 0.0
C831 C 0.6967 0.1966 0.44553 0.0
C832 C 0.7337 0.15029 0.55007 0.0
C833 C 0.73983 0.15097 0.53556 0.0
C834 C 0.69939 0.18821 0.5048 0.0
C835 C 0.72349 0.17462 0.46676 0.0
C836 C 0.72619 0.17577 0.48233 0.0
C837 C 0.72957 0.17945 0.52751 0.0
C838 C 0.72917 0.178 0.51196 0.0
H839 H 0.73633 0.12023 0.43916 0.0
H840 H 0.75015 0.1261 0.46419 0.0
H841 H 0.67408 0.19435 0.48518 0.0
H842 H 0.69692 0.22927 0.5536 0.0
H843 H 0.70806 0.23072 0.52846 0.0
C844 C 0.84827 0.7476 0.94893 0.0
C845 C 0.8217 0.72553 0.9447 0.0
C846 C 0.84921 0.76033 0.96268 0.0
C847 C 0.79758 0.7667 0.99565 0.0
H848 H 0.88456 0.74902 0.01406 0.0
C849 C 0.80996 0.71079 0.05043 0.0
C850 C 0.83558 0.72263 0.05955 0.0
C851 C 0.80719 0.7241 0.03691 0.0
C852 C 0.8603 0.75497 0.00906 0.0
H853 H 0.77471 0.70052 0.95125 0.0
H854 H 0.77645 0.72216 0.97513 0.0
H855 H 0.88168 0.74958 0.9885 0.0
H856 H 0.87826 0.75781 0.06187 0.0
H857 H 0.87402 0.7806 0.03786 0.0
H858 H 0.77581 0.76938 0.01628 0.0
C859 C 0.79629 0.73029 0.96789 0.0
C860 C 0.85862 0.75535 0.9944 0.0
C861 C 0.79546 0.71754 0.95424 0.0
C862 C 0.858 0.74863 0.05505 0.0
C863 C 0.85568 0.76152 0.04135 0.0
C864 C 0.79922 0.76602 0.01029 0.0
C865 C 0.82357 0.7512 0.9724 0.0
C866 C 0.82691 0.75957 0.98755 0.0
C867 C 0.83045 0.74905 0.03212 0.0
C868 C 0.8303 0.75862 0.01709 0.0
H869 H 0.86923 0.75364 0.94189 0.0
H870 H 0.87053 0.77641 0.96583 0.0
H871 H 0.77292 0.77083 0.99068 0.0
H872 H 0.79242 0.69072 0.05369 0.0
H873 H 0.78786 0.71361 0.02995 0.0
C874 C 0.29722 0.78595 0.44408 0.0
C875 C 0.29051 0.81594 0.43643 0.0
C876 C 0.28919 0.78413 0.4583 0.0
C877 C 0.24568 0.82641 0.48825 0.0
H878 H 0.32589 0.79356 0.50825 0.0
C879 C 0.27438 0.85131 0.54744 0.0
C880 C 0.29385 0.82638 0.55447 0.0
C881 C 0.26609 0.84687 0.53324 0.0
C882 C 0.30288 0.80212 0.50291 0.0
H883 H 0.26849 0.86692 0.43732 0.0
H884 H 0.25505 0.8641 0.46248 0.0
H885 H 0.32493 0.79149 0.48293 0.0
H886 H 0.3172 0.77618 0.5529 0.0
H887 H 0.3014 0.76754 0.52842 0.0
H888 H 0.22406 0.83765 0.5085 0.0
C889 C 0.26592 0.84176 0.45738 0.0
C890 C 0.30238 0.80099 0.48833 0.0
C891 C 0.27363 0.84341 0.44302 0.0
C892 C 0.30246 0.79586 0.54757 0.0
C893 C 0.29361 0.7911 0.53355 0.0
C894 C 0.2461 0.82742 0.50298 0.0
C895 C 0.27492 0.81255 0.46525 0.0
C896 C 0.27383 0.813 0.48081 0.0
C897 C 0.27688 0.81726 0.52601 0.0
C898 C 0.27476 0.81516 0.51046 0.0
H899 H 0.30988 0.76429 0.43916 0.0
H900 H 0.29571 0.76099 0.46402 0.0
H901 H 0.22336 0.83592 0.4827 0.0
H902 H 0.26767 0.87513 0.55263 0.0
H903 H 0.25326 0.86754 0.52775 0.0
C904 C 0.69541 0.20397 0.0452 0.0
C905 C 0.67026 0.21634 0.05445 0.0
C906 C 0.69653 0.21525 0.03133 0.0
C907 C 0.63939 0.24614 0.00387 0.0
H908 H 0.72458 0.25071 0.98287 0.0
C909 C 0.64211 0.24001 0.94325 0.0
C910 C 0.66277 0.21271 0.93862 0.0
C911 C 0.64498 0.25208 0.95706 0.0
C912 C 0.70057 0.2499 0.9886 0.0
H913 H 0.62658 0.25047 0.05645 0.0
H914 H 0.62871 0.27056 0.03212 0.0
H915 H 0.72603 0.25163 0.00849 0.0
H916 H 0.70351 0.17767 0.94442 0.0
H917 H 0.7089 0.19892 0.96835 0.0
H918 H 0.61409 0.24282 0.98396 0.0
C919 C 0.6477 0.25223 0.03568 0.0
C920 C 0.70139 0.25032 0.00326 0.0
C921 C 0.64672 0.24101 0.04965 0.0
C922 C 0.68731 0.19877 0.94775 0.0
C923 C 0.69057 0.21114 0.96141 0.0
C924 C 0.63858 0.2459 0.98919 0.0
C925 C 0.67231 0.23903 0.02631 0.0
C926 C 0.67092 0.24682 0.01105 0.0
C927 C 0.66894 0.23738 0.96632 0.0
C928 C 0.66927 0.24621 0.98145 0.0
H929 H 0.71382 0.18487 0.04862 0.0
H930 H 0.71542 0.20403 0.02436 0.0
H931 H 0.61547 0.24321 0.00954 0.0
H932 H 0.62265 0.25084 0.93645 0.0
H933 H 0.62793 0.27227 0.9606 0.0
C934 C 0.78931 0.64488 0.55443 0.0
C935 C 0.8069 0.67193 0.56101 0.0
C936 C 0.78368 0.64559 0.5399 0.0
C937 C 0.82346 0.68329 0.50862 0.0
H938 H 0.74273 0.65155 0.48865 0.0
C939 C 0.81553 0.69975 0.44968 0.0
C940 C 0.80674 0.67052 0.44189 0.0
C941 C 0.80938 0.70098 0.46407 0.0
C942 C 0.76545 0.66031 0.49413 0.0
H943 H 0.83033 0.72174 0.55791 0.0
H944 H 0.8198 0.72346 0.53275 0.0
H945 H 0.74301 0.6519 0.51446 0.0
H946 H 0.7834 0.62011 0.44285 0.0
H947 H 0.77286 0.62207 0.46823 0.0
H948 H 0.84617 0.69144 0.48854 0.0
C949 C 0.81113 0.7013 0.53863 0.0
C950 C 0.76563 0.66049 0.50886 0.0
C951 C 0.81705 0.70041 0.55304 0.0
C952 C 0.79 0.64313 0.44861 0.0
C953 C 0.78402 0.64424 0.46311 0.0
C954 C 0.82325 0.68317 0.49403 0.0
C955 C 0.79551 0.6734 0.53181 0.0
C956 C 0.79457 0.6724 0.51623 0.0
C957 C 0.79476 0.67275 0.47103 0.0
C958 C 0.79417 0.67211 0.4866 0.0
H959 H 0.78162 0.62243 0.56035 0.0
H960 H 0.77172 0.62364 0.53492 0.0
H961 H 0.84657 0.69159 0.51396 0.0
H962 H 0.82818 0.72134 0.44471 0.0
H963 H 0.81724 0.7236 0.46984 0.0
C964 C 0.29997 0.79952 0.04537 0.0
C965 C 0.32694 0.78946 0.05421 0.0
C966 C 0.29871 0.78827 0.0315 0.0
C967 C 0.35601 0.76356 0.00316 0.0
H968 H 0.27013 0.74859 0.98351 0.0
C969 C 0.34822 0.76668 0.94268 0.0
C970 C 0.32318 0.78982 0.93788 0.0
C971 C 0.34799 0.75553 0.95665 0.0
C972 C 0.29436 0.75246 0.98886 0.0
H973 H 0.37377 0.75957 0.05551 0.0
H974 H 0.37151 0.73965 0.03115 0.0
H975 H 0.27103 0.7484 0.00914 0.0
H976 H 0.27773 0.81854 0.94366 0.0
H977 H 0.27722 0.79916 0.96795 0.0
H978 H 0.37902 0.76927 0.98289 0.0
C979 C 0.35118 0.75606 0.03504 0.0
C980 C 0.29487 0.75238 0.00351 0.0
C981 C 0.35229 0.76717 0.04901 0.0
C982 C 0.29729 0.80065 0.94711 0.0
C983 C 0.29683 0.78927 0.96098 0.0
C984 C 0.3555 0.76357 0.98849 0.0
C985 C 0.32463 0.76694 0.02608 0.0
C986 C 0.32543 0.75938 0.01081 0.0
C987 C 0.32254 0.76714 0.96599 0.0
C988 C 0.3244 0.75945 0.98121 0.0
H989 H 0.28015 0.81675 0.04912 0.0
H990 H 0.27824 0.79765 0.02483 0.0
H991 H 0.37992 0.76927 0.00847 0.0
H992 H 0.36885 0.75844 0.93585 0.0
H993 H 0.36814 0.73852 0.96025 0.0
C994 C 0.21572 0.35198 0.55231 0.0
C995 C 0.19216 0.3299 0.55884 0.0
C996 C 0.22307 0.3483 0.53798 0.0
C997 C 0.18174 0.31319 0.50631 0.0
H998 H 0.26906 0.33091 0.48811 0.0
C999 C 0.19677 0.2873 0.44831 0.0
C1000 C 0.2079 0.31529 0.44025 0.0
C1001 C 0.20156 0.28702 0.46279 0.0
C1002 C 0.24457 0.326 0.49311 0.0
H1003 H 0.15968 0.28538 0.55602 0.0
H1004 H 0.17344 0.27797 0.5313 0.0
H1005 H 0.26487 0.3336 0.51384 0.0
H1006 H 0.2343 0.36424 0.44085 0.0
H1007 H 0.24271 0.36375 0.46639 0.0
H1008 H 0.16137 0.30551 0.48578 0.0
C1009 C 0.18536 0.29892 0.53696 0.0
C1010 C 0.24212 0.3276 0.50779 0.0
C1011 C 0.17762 0.30297 0.55113 0.0
C1012 C 0.22591 0.34211 0.44681 0.0
C1013 C 0.23065 0.34188 0.4614 0.0
C1014 C 0.18427 0.31131 0.49178 0.0
C1015 C 0.20715 0.32228 0.53007 0.0
C1016 C 0.21067 0.32087 0.51455 0.0
C1017 C 0.2173 0.31489 0.46954 0.0
C1018 C 0.21569 0.31736 0.48502 0.0
H1019 H 0.22699 0.37315 0.55805 0.0
H1020 H 0.23982 0.36683 0.53299 0.0
H1021 H 0.15685 0.30903 0.51108 0.0
H1022 H 0.1831 0.26615 0.44348 0.0
H1023 H 0.19152 0.26565 0.4688 0.0
C1024 C 0.08938 0.41161 0.14715 0.0
C1025 C 0.10115 0.40093 0.13389 0.0
C1026 C 0.06642 0.43905 0.14834 0.0
C1027 C 0.02991 0.51263 0.12857 0.0
H1028 H 0.95167 0.50035 0.15328 0.0
C1029 C 0.9095 0.59501 0.12296 0.0
C1030 C 0.89698 0.61054 0.13527 0.0
C1031 C 0.93392 0.56893 0.1237 0.0
C1032 C 0.97354 0.50422 0.14644 0.0
H1033 H 0.09902 0.41164 0.11153 0.0
H1034 H 0.05887 0.45894 0.11359 0.0
H1035 H 0.99764 0.45763 0.15312 0.0
H1036 H 0.89882 0.60927 0.15805 0.0
H1037 H 0.94141 0.56327 0.15929 0.0
H1038 H 0.00545 0.55874 0.12164 0.0
C1039 C 0.06758 0.44646 0.12311 0.0
C1040 C 0.99995 0.4799 0.14638 0.0
C1041 C 0.09054 0.41916 0.12192 0.0
C1042 C 0.90796 0.59791 0.14837 0.0
C1043 C 0.93233 0.57159 0.14909 0.0
C1044 C 0.00346 0.53673 0.12855 0.0
C1045 C 0.05478 0.45637 0.1363 0.0
C1046 C 0.02821 0.4836 0.1373 0.0
C1047 C 0.94626 0.55761 0.13675 0.0
C1048 C 0.97479 0.53253 0.13733 0.0
H1049 H 0.09712 0.3982 0.1566 0.0
H1050 H 0.05744 0.44641 0.15867 0.0
H1051 H 0.05163 0.51664 0.12165 0.0
H1052 H 0.90144 0.60384 0.11269 0.0
H1053 H 0.94372 0.55808 0.11402 0.0
C1054 C 0.41874 0.90892 0.61651 0.0
C1055 C 0.40114 0.90019 0.62891 0.0
C1056 C 0.44558 0.93262 0.6168 0.0
C1057 C 0.4764 0.00562 0.63761 0.0
H1058 H 0.55787 0.99707 0.61447 0.0
C1059 C 0.59235 0.09737 0.64166 0.0
C1060 C 0.60956 0.10626 0.62919 0.0
C1061 C 0.56577 0.07336 0.64148 0.0
C1062 C 0.53502 4e-05 0.62084 0.0
H1063 H 0.39927 0.90815 0.65145 0.0
H1064 H 0.44648 0.94922 0.65196 0.0
H1065 H 0.51602 0.95055 0.61496 0.0
H1066 H 0.61104 0.09817 0.60665 0.0
H1067 H 0.56432 0.05655 0.60635 0.0
H1068 H 0.4954 0.05512 0.64349 0.0
C1069 C 0.43901 0.93816 0.64198 0.0
C1070 C 0.51114 0.97333 0.62116 0.0
C1071 C 0.41216 0.9144 0.6417 0.0
C1072 C 0.59846 0.09181 0.61645 0.0
C1073 C 0.57189 0.06774 0.61629 0.0
C1074 C 0.50029 0.03233 0.63729 0.0
C1075 C 0.45545 0.94812 0.62949 0.0
C1076 C 0.48156 0.97584 0.62954 0.0
C1077 C 0.55579 0.0577 0.62885 0.0
C1078 C 0.52984 0.02984 0.62889 0.0
H1079 H 0.41099 0.89843 0.60647 0.0
H1080 H 0.45759 0.93989 0.60699 0.0
H1081 H 0.45354 0.00861 0.64396 0.0
H1082 H 0.60019 0.10802 0.65166 0.0
H1083 H 0.55402 0.06604 0.65135 0.0
C1084 C 0.39857 0.91015 0.84935 0.0
C1085 C 0.38664 0.89755 0.86231 0.0
C1086 C 0.42252 0.93685 0.8489 0.0
C1087 C 0.46253 0.00543 0.87041 0.0
H1088 H 0.53963 0.99322 0.8451 0.0
C1089 C 0.58466 0.08613 0.87591 0.0
C1090 C 0.59749 0.1011 0.86353 0.0
C1091 C 0.5597 0.06049 0.87527 0.0
C1092 C 0.51812 0.99712 0.85213 0.0
H1093 H 0.38927 0.90437 0.88491 0.0
H1094 H 0.43107 0.95055 0.8841 0.0
H1095 H 0.49216 0.95233 0.84463 0.0
H1096 H 0.59556 0.09933 0.84076 0.0
H1097 H 0.55201 0.05441 0.83969 0.0
H1098 H 0.48868 0.04993 0.87802 0.0
C1099 C 0.42182 0.94002 0.87428 0.0
C1100 C 0.49084 0.97381 0.85183 0.0
C1101 C 0.3979 0.91338 0.87474 0.0
C1102 C 0.58622 0.0884 0.8505 0.0
C1103 C 0.56127 0.06264 0.84987 0.0
C1104 C 0.48982 0.02861 0.87074 0.0
C1105 C 0.43499 0.95155 0.86137 0.0
C1106 C 0.46286 0.97756 0.86104 0.0
C1107 C 0.54707 0.04913 0.86226 0.0
C1108 C 0.51805 0.02454 0.8617 0.0
H1109 H 0.39036 0.89863 0.83956 0.0
H1110 H 0.43171 0.94559 0.83878 0.0
H1111 H 0.44111 0.00938 0.87748 0.0
H1112 H 0.59292 0.09506 0.88613 0.0
H1113 H 0.54976 0.05002 0.88499 0.0
C1114 C 0.09496 0.3981 0.35318 0.0
C1115 C 0.10965 0.38661 0.36582 0.0
C1116 C 0.06886 0.42268 0.35331 0.0
C1117 C 0.00467 0.46514 0.37609 0.0
H1118 H 0.0141 0.54003 0.34951 0.0
C1119 C 0.92052 0.58596 0.37987 0.0
C1120 C 0.90556 0.59721 0.36724 0.0
C1121 C 0.94682 0.5616 0.37972 0.0
C1122 C 0.01096 0.51917 0.35692 0.0
H1123 H 0.10714 0.39071 0.38854 0.0
H1124 H 0.06177 0.43361 0.38872 0.0
H1125 H 0.05498 0.49264 0.34901 0.0
H1126 H 0.90786 0.59298 0.34453 0.0
H1127 H 0.95361 0.55047 0.3443 0.0
H1128 H 0.96067 0.49166 0.384 0.0
C1129 C 0.07034 0.42355 0.37872 0.0
C1130 C 0.03429 0.49196 0.35661 0.0
C1131 C 0.09645 0.39899 0.3786 0.0
C1132 C 0.91875 0.58488 0.35445 0.0
C1133 C 0.94507 0.56055 0.35431 0.0
C1134 C 0.98136 0.49235 0.37641 0.0
C1135 C 0.05681 0.43625 0.36606 0.0
C1136 C 0.03139 0.46462 0.36618 0.0
C1137 C 0.9588 0.54802 0.36696 0.0
C1138 C 0.98426 0.51969 0.36684 0.0
H1139 H 0.10438 0.38902 0.34315 0.0
H1140 H 0.05848 0.43149 0.34339 0.0
H1141 H 0.00151 0.44427 0.38349 0.0
H1142 H 0.91115 0.59504 0.38991 0.0
H1143 H 0.95737 0.55293 0.38963 0.0
C1144 C 0.90089 0.58975 0.887 0.0
C1145 C 0.88734 0.60151 0.87419 0.0
C1146 C 0.92466 0.56286 0.88724 0.0
C1147 C 0.96106 0.4924 0.86567 0.0
H1148 H 0.04204 0.50609 0.88869 0.0
C1149 C 0.08222 0.41136 0.85772 0.0
C1150 C 0.09701 0.39719 0.86988 0.0
C1151 C 0.05731 0.43697 0.85876 0.0
C1152 C 0.01945 0.50178 0.8823 0.0
H1153 H 0.88685 0.59299 0.85166 0.0
H1154 H 0.92829 0.5465 0.85208 0.0
H1155 H 0.99478 0.54714 0.88997 0.0
H1156 H 0.09861 0.40036 0.89263 0.0
H1157 H 0.05516 0.44521 0.89439 0.0
H1158 H 0.9859 0.44733 0.85785 0.0
C1159 C 0.92048 0.55784 0.86196 0.0
C1160 C 0.99231 0.52517 0.88308 0.0
C1161 C 0.89678 0.58466 0.86172 0.0
C1162 C 0.08771 0.41064 0.88305 0.0
C1163 C 0.06284 0.43638 0.88407 0.0
C1164 C 0.98821 0.46913 0.86485 0.0
C1165 C 0.93526 0.54712 0.87469 0.0
C1166 C 0.96294 0.52091 0.87466 0.0
C1167 C 0.04672 0.44911 0.87195 0.0
C1168 C 0.01784 0.47376 0.87305 0.0
H1169 H 0.89409 0.60208 0.89681 0.0
H1170 H 0.93517 0.55479 0.89724 0.0
H1171 H 0.93857 0.48806 0.85922 0.0
H1172 H 0.08889 0.40179 0.8474 0.0
H1173 H 0.04582 0.44683 0.84921 0.0
C1174 C 0.59129 0.08502 0.34996 0.0
C1175 C 0.60242 0.09942 0.36271 0.0
C1176 C 0.56502 0.06057 0.34981 0.0
C1177 C 0.52597 0.99604 0.37299 0.0
H1178 H 0.45609 0.99049 0.34412 0.0
C1179 C 0.41113 0.90252 0.37586 0.0
C1180 C 0.39961 0.88762 0.36327 0.0
C1181 C 0.43705 0.92729 0.37571 0.0
C1182 C 0.47575 0.99143 0.35215 0.0
H1183 H 0.593 0.10118 0.38517 0.0
H1184 H 0.54695 0.05902 0.38485 0.0
H1185 H 0.49678 0.0381 0.34394 0.0
H1186 H 0.40771 0.88574 0.34072 0.0
H1187 H 0.45326 0.92852 0.34052 0.0
H1188 H 0.50504 0.9494 0.3812 0.0
C1189 C 0.5591 0.06599 0.37502 0.0
C1190 C 0.49896 0.01877 0.35206 0.0
C1191 C 0.58533 0.09036 0.37518 0.0
C1192 C 0.41578 0.89683 0.35061 0.0
C1193 C 0.4417 0.92158 0.35047 0.0
C1194 C 0.5028 0.96871 0.37307 0.0
C1195 C 0.54933 0.0501 0.3624 0.0
C1196 C 0.52425 0.02144 0.36251 0.0
C1197 C 0.45207 0.93765 0.36297 0.0
C1198 C 0.47739 0.96612 0.36267 0.0
H1199 H 0.60393 0.09138 0.34016 0.0
H1200 H 0.55813 0.04872 0.33992 0.0
H1201 H 0.54561 0.99698 0.38103 0.0
H1202 H 0.39923 0.89608 0.3858 0.0
H1203 H 0.44432 0.93932 0.38552 0.0
C1204 C 0.40895 0.91252 0.14102 0.0
C1205 C 0.39844 0.89815 0.12817 0.0
C1206 C 0.43295 0.93913 0.14131 0.0
C1207 C 0.50379 0.97414 0.12042 0.0
H1208 H 0.49728 0.05179 0.14574 0.0
C1209 C 0.59347 0.09145 0.11694 0.0
C1210 C 0.6032 0.10793 0.12946 0.0
C1211 C 0.57006 0.06436 0.11717 0.0
C1212 C 0.49975 0.02996 0.13877 0.0
H1213 H 0.40365 0.90178 0.10552 0.0
H1214 H 0.44532 0.9484 0.10607 0.0
H1215 H 0.45115 0.00948 0.14512 0.0
H1216 H 0.59733 0.10754 0.15213 0.0
H1217 H 0.5569 0.05978 0.15253 0.0
H1218 H 0.55239 0.99446 0.11409 0.0
C1219 C 0.43536 0.93864 0.11591 0.0
C1220 C 0.47323 0.00585 0.13837 0.0
C1221 C 0.41126 0.91212 0.1156 0.0
C1222 C 0.59028 0.09554 0.14228 0.0
C1223 C 0.56686 0.06837 0.14251 0.0
C1224 C 0.53034 0.99817 0.12085 0.0
C1225 C 0.44702 0.95189 0.12877 0.0
C1226 C 0.47489 0.97779 0.12914 0.0
C1227 C 0.5559 0.05301 0.12993 0.0
C1228 C 0.52856 0.02646 0.12998 0.0
H1229 H 0.39957 0.90243 0.1509 0.0
H1230 H 0.44154 0.94873 0.15139 0.0
H1231 H 0.50611 0.9524 0.1134 0.0
H1232 H 0.60291 0.10029 0.10687 0.0
H1233 H 0.56198 0.05329 0.10728 0.0
C1234 C 0.08513 0.4102 0.62642 0.0
C1235 C 0.10512 0.40084 0.63811 0.0
C1236 C 0.05969 0.43514 0.62765 0.0
C1237 C 0.00373 0.48189 0.65175 0.0
H1238 H 0.00971 0.5534 0.62349 0.0
C1239 C 0.91228 0.59879 0.65188 0.0
C1240 C 0.89843 0.60778 0.63874 0.0
C1241 C 0.9397 0.57573 0.65279 0.0
C1242 C 0.00747 0.53354 0.63139 0.0
H1243 H 0.11232 0.40872 0.66048 0.0
H1244 H 0.06722 0.45218 0.66262 0.0
H1245 H 0.051 0.50651 0.62335 0.0
H1246 H 0.90343 0.60046 0.61624 0.0
H1247 H 0.95062 0.56008 0.61782 0.0
H1248 H 0.95952 0.50837 0.65956 0.0
C1249 C 0.07168 0.44027 0.65251 0.0
C1250 C 0.03114 0.50671 0.63131 0.0
C1251 C 0.09744 0.41538 0.65127 0.0
C1252 C 0.91346 0.59421 0.62653 0.0
C1253 C 0.94072 0.57111 0.62744 0.0
C1254 C 0.97975 0.50864 0.65176 0.0
C1255 C 0.0534 0.45114 0.6406 0.0
C1256 C 0.02918 0.48035 0.64134 0.0
C1257 C 0.95383 0.56115 0.64058 0.0
C1258 C 0.98104 0.53449 0.64143 0.0
H1259 H 0.09005 0.39934 0.61615 0.0
H1260 H 0.04544 0.44257 0.61837 0.0
H1261 H 0.00168 0.46184 0.65958 0.0
H1262 H 0.90138 0.60884 0.6615 0.0
H1263 H 0.94956 0.56901 0.66306 0.0
C1264 C 0.56119 0.28265 0.13742 0.0
C1265 C 0.5742 0.26649 0.12535 0.0
C1266 C 0.52768 0.29558 0.1376 0.0
C1267 C 0.45009 0.31069 0.11487 0.0
H1268 H 0.40137 0.28936 0.1493 0.0
C1269 C 0.3041 0.28537 0.11807 0.0
C1270 C 0.28592 0.30351 0.12841 0.0
C1271 C 0.33994 0.28648 0.11768 0.0
C1272 C 0.41472 0.2958 0.13968 0.0
H1273 H 0.56301 0.25361 0.10365 0.0
H1274 H 0.50467 0.27477 0.1041 0.0
H1275 H 0.46351 0.28348 0.1485 0.0
H1276 H 0.2909 0.33713 0.14643 0.0
H1277 H 0.35378 0.33773 0.14613 0.0
H1278 H 0.40061 0.32087 0.1059 0.0
C1279 C 0.52024 0.27825 0.11341 0.0
C1280 C 0.45045 0.29273 0.13921 0.0
C1281 C 0.55388 0.26589 0.11315 0.0
C1282 C 0.30429 0.32246 0.13847 0.0
C1283 C 0.34017 0.32301 0.13825 0.0
C1284 C 0.41429 0.3131 0.11528 0.0
C1285 C 0.5062 0.29213 0.12579 0.0
C1286 C 0.46866 0.2996 0.12673 0.0
C1287 C 0.35829 0.3052 0.12779 0.0
C1288 C 0.39629 0.30522 0.12763 0.0
H1289 H 0.5763 0.2839 0.14695 0.0
H1290 H 0.51822 0.30707 0.1472 0.0
H1291 H 0.46311 0.31698 0.10516 0.0
H1292 H 0.29057 0.2702 0.11031 0.0
H1293 H 0.35338 0.27215 0.10962 0.0
C1294 C 0.7209 0.31104 0.64088 0.0
C1295 C 0.70477 0.29217 0.63018 0.0
C1296 C 0.71919 0.34687 0.641 0.0
C1297 C 0.71362 0.42044 0.61835 0.0
H1298 H 0.68443 0.47019 0.65153 0.0
C1299 C 0.72712 0.56696 0.62025 0.0
C1300 C 0.74022 0.58027 0.63287 0.0
C1301 C 0.71404 0.53352 0.61971 0.0
C1302 C 0.69298 0.4568 0.64221 0.0
H1303 H 0.67366 0.2961 0.61137 0.0
H1304 H 0.6723 0.35889 0.61119 0.0
H1305 H 0.6809 0.40765 0.65111 0.0
H1306 H 0.74754 0.56967 0.65505 0.0
H1307 H 0.72621 0.51152 0.65403 0.0
H1308 H 0.72794 0.46886 0.60971 0.0
C1309 C 0.68595 0.34578 0.61952 0.0
C1310 C 0.69074 0.42098 0.64197 0.0
C1311 C 0.68703 0.30991 0.61957 0.0
C1312 C 0.73763 0.56033 0.64513 0.0
C1313 C 0.72516 0.52678 0.64454 0.0
C1314 C 0.71655 0.45618 0.61868 0.0
C1315 C 0.70188 0.36454 0.63028 0.0
C1316 C 0.70152 0.4025 0.63012 0.0
C1317 C 0.71432 0.51242 0.63172 0.0
C1318 C 0.70685 0.47489 0.63071 0.0
H1319 H 0.73516 0.29812 0.64908 0.0
H1320 H 0.73204 0.36084 0.64931 0.0
H1321 H 0.72228 0.40667 0.60912 0.0
H1322 H 0.7284 0.58179 0.61064 0.0
H1323 H 0.70496 0.52382 0.60973 0.0
C1324 C 0.44465 0.7399 0.11265 0.0
C1325 C 0.42428 0.73939 0.12483 0.0
C1326 C 0.47828 0.72754 0.11293 0.0
C1327 C 0.54776 0.71303 0.13891 0.0
H1328 H 0.59862 0.68705 0.10555 0.0
C1329 C 0.69418 0.68502 0.13833 0.0
C1330 C 0.71247 0.70596 0.12893 0.0
C1331 C 0.65835 0.68355 0.13783 0.0
C1332 C 0.58463 0.69418 0.11494 0.0
H1333 H 0.42197 0.72199 0.14643 0.0
H1334 H 0.47998 0.69862 0.14672 0.0
H1335 H 0.53606 0.68999 0.10467 0.0
H1336 H 0.70771 0.74162 0.11159 0.0
H1337 H 0.64498 0.738 0.11034 0.0
H1338 H 0.59661 0.71658 0.14916 0.0
C1339 C 0.47064 0.71016 0.13711 0.0
C1340 C 0.54879 0.69607 0.11445 0.0
C1341 C 0.43716 0.72318 0.13691 0.0
C1342 C 0.69427 0.72495 0.11885 0.0
C1343 C 0.65848 0.72291 0.11814 0.0
C1344 C 0.5835 0.71039 0.13946 0.0
C1345 C 0.49224 0.71367 0.12533 0.0
C1346 C 0.52985 0.70646 0.12633 0.0
C1347 C 0.64022 0.70239 0.12769 0.0
C1348 C 0.60227 0.70177 0.1274 0.0
H1349 H 0.43561 0.75222 0.10314 0.0
H1350 H 0.49389 0.73108 0.10364 0.0
H1351 H 0.53446 0.72176 0.14822 0.0
H1352 H 0.70759 0.66961 0.14604 0.0
H1353 H 0.64479 0.66745 0.14526 0.0
C1354 C 0.25832 0.44799 0.61465 0.0
C1355 C 0.2615 0.42792 0.62685 0.0
C1356 C 0.27104 0.48148 0.61427 0.0
C1357 C 0.2919 0.55178 0.63904 0.0
H1358 H 0.31327 0.60022 0.60456 0.0
C1359 C 0.32222 0.69771 0.63635 0.0
C1360 C 0.3016 0.71584 0.62679 0.0
C1361 C 0.32245 0.66181 0.63638 0.0
C1362 C 0.30741 0.58694 0.61426 0.0
H1363 H 0.28374 0.42613 0.64771 0.0
H1364 H 0.30738 0.48399 0.64682 0.0
H1365 H 0.30866 0.53775 0.60433 0.0
H1366 H 0.26491 0.71079 0.60984 0.0
H1367 H 0.26619 0.64795 0.60955 0.0
H1368 H 0.29109 0.60122 0.64892 0.0
C1369 C 0.29369 0.47442 0.63774 0.0
C1370 C 0.3046 0.55116 0.61415 0.0
C1371 C 0.28047 0.44104 0.6382 0.0
C1372 C 0.28138 0.69742 0.61719 0.0
C1373 C 0.28212 0.66156 0.61703 0.0
C1374 C 0.29536 0.58749 0.63918 0.0
C1375 C 0.28782 0.49564 0.62601 0.0
C1376 C 0.29589 0.53311 0.62647 0.0
C1377 C 0.30257 0.64344 0.62665 0.0
C1378 C 0.30231 0.60543 0.62673 0.0
H1379 H 0.24389 0.43878 0.60569 0.0
H1380 H 0.26565 0.49686 0.60507 0.0
H1381 H 0.28456 0.5391 0.64869 0.0
H1382 H 0.33843 0.7113 0.64373 0.0
H1383 H 0.33851 0.64839 0.64386 0.0
C1384 C 0.05245 0.23867 0.88259 0.0
C1385 C 0.0719 0.23914 0.87016 0.0
C1386 C 0.01881 0.22627 0.88259 0.0
C1387 C 0.94722 0.21201 0.85739 0.0
H1388 H 0.89971 0.18284 0.89113 0.0
C1389 C 0.80235 0.177 0.85944 0.0
C1390 C 0.78358 0.19752 0.86885 0.0
C1391 C 0.83824 0.17711 0.85967 0.0
C1392 C 0.91276 0.19088 0.88164 0.0
H1393 H 0.07245 0.2237 0.8483 0.0
H1394 H 0.01453 0.20012 0.84846 0.0
H1395 H 0.96217 0.18782 0.89128 0.0
H1396 H 0.78761 0.23381 0.886 0.0
H1397 H 0.85052 0.23282 0.8868 0.0
H1398 H 0.89753 0.21417 0.84774 0.0
C1399 C 0.02455 0.21094 0.85809 0.0
C1400 C 0.94855 0.19398 0.88171 0.0
C1401 C 0.05801 0.22406 0.85802 0.0
C1402 C 0.80141 0.21746 0.87874 0.0
C1403 C 0.83731 0.21695 0.87918 0.0
C1404 C 0.91155 0.20812 0.85725 0.0
C1405 C 0.00389 0.21329 0.87021 0.0
C1406 C 0.9663 0.20542 0.86968 0.0
C1407 C 0.85601 0.19706 0.86954 0.0
C1408 C 0.89398 0.19825 0.86945 0.0
H1409 H 0.06223 0.25019 0.89214 0.0
H1410 H 0.00397 0.22897 0.89213 0.0
H1411 H 0.95951 0.22155 0.84798 0.0
H1412 H 0.78928 0.16086 0.85189 0.0
H1413 H 0.85214 0.16144 0.85218 0.0
C1414 C 0.78702 0.80085 0.35754 0.0
C1415 C 0.80665 0.78306 0.36754 0.0
C1416 C 0.78683 0.83675 0.35729 0.0
C1417 C 0.79256 0.91083 0.37935 0.0
H1418 H 0.81604 0.96173 0.34572 0.0
C1419 C 0.77448 0.05724 0.3779 0.0
C1420 C 0.76057 0.07064 0.36544 0.0
C1421 C 0.78793 0.02391 0.37823 0.0
C1422 C 0.80899 0.94802 0.35518 0.0
H1423 H 0.84199 0.78899 0.38496 0.0
H1424 H 0.84005 0.85179 0.38501 0.0
H1425 H 0.82199 0.89938 0.34601 0.0
H1426 H 0.7518 0.06014 0.34335 0.0
H1427 H 0.77366 0.0022 0.34401 0.0
H1428 H 0.7773 0.95862 0.38832 0.0
C1429 C 0.82518 0.83781 0.37729 0.0
C1430 C 0.81265 0.91231 0.35533 0.0
C1431 C 0.82601 0.80193 0.37732 0.0
C1432 C 0.76241 0.05078 0.35314 0.0
C1433 C 0.7752 0.01733 0.35352 0.0
C1434 C 0.78812 0.94644 0.37912 0.0
C1435 C 0.80568 0.85549 0.36724 0.0
C1436 C 0.80408 0.89342 0.36736 0.0
C1437 C 0.78719 0.00295 0.36616 0.0
C1438 C 0.79578 0.96557 0.36694 0.0
H1439 H 0.77146 0.78704 0.35 0.0
H1440 H 0.77131 0.8499 0.34953 0.0
H1441 H 0.78562 0.8967 0.38873 0.0
H1442 H 0.77374 0.07198 0.38754 0.0
H1443 H 0.79787 0.01425 0.38808 0.0
C1444 C 0.92675 0.77322 0.85842 0.0
C1445 C 0.9142 0.76085 0.8713 0.0
C1446 C 0.9601 0.78626 0.8574 0.0
C1447 C 0.03808 0.8096 0.87855 0.0
H1448 H 0.08572 0.77565 0.84563 0.0
C1449 C 0.18412 0.77149 0.85957 0.0
C1450 C 0.20262 0.79853 0.8656 0.0
C1451 C 0.14825 0.77177 0.85972 0.0
C1452 C 0.07293 0.7851 0.85496 0.0
H1453 H 0.92596 0.75518 0.89346 0.0
H1454 H 0.98408 0.77677 0.89163 0.0
H1455 H 0.02395 0.76963 0.84722 0.0
H1456 H 0.19874 0.84734 0.8763 0.0
H1457 H 0.13599 0.84851 0.87628 0.0
H1458 H 0.08745 0.82295 0.88668 0.0
C1459 C 0.96824 0.777 0.8823 0.0
C1460 C 0.03725 0.78226 0.85576 0.0
C1461 C 0.93475 0.76442 0.88335 0.0
C1462 C 0.18483 0.82606 0.87169 0.0
C1463 C 0.14894 0.82659 0.87172 0.0
C1464 C 0.07386 0.81205 0.87782 0.0
C1465 C 0.98186 0.78681 0.86921 0.0
C1466 C 0.01932 0.79392 0.86768 0.0
C1467 C 0.13012 0.79937 0.86577 0.0
C1468 C 0.09184 0.79925 0.86612 0.0
H1469 H 0.91143 0.77124 0.84896 0.0
H1470 H 0.96929 0.79458 0.84723 0.0
H1471 H 0.02521 0.81938 0.8878 0.0
H1472 H 0.19744 0.74992 0.8549 0.0
H1473 H 0.13479 0.74999 0.85531 0.0
C1474 C 0.18611 0.18163 0.37667 0.0
C1475 C 0.20554 0.19987 0.36672 0.0
C1476 C 0.18532 0.14574 0.37647 0.0
C1477 C 0.19478 0.07173 0.35352 0.0
H1478 H 0.22438 0.02177 0.38655 0.0
C1479 C 0.2416 0.93219 0.35079 0.0
C1480 C 0.24132 0.91158 0.36291 0.0
C1481 C 0.22918 0.96579 0.35121 0.0
C1482 C 0.21512 0.03504 0.37732 0.0
H1483 H 0.2396 0.19483 0.34885 0.0
H1484 H 0.23711 0.13211 0.34816 0.0
H1485 H 0.21884 0.08395 0.38754 0.0
H1486 H 0.22442 0.90895 0.38457 0.0
H1487 H 0.20112 0.96699 0.38512 0.0
H1488 H 0.19051 0.02313 0.34327 0.0
C1489 C 0.2226 0.14567 0.35612 0.0
C1490 C 0.21225 0.07078 0.37789 0.0
C1491 C 0.22398 0.1815 0.35651 0.0
C1492 C 0.22538 0.92428 0.37509 0.0
C1493 C 0.21239 0.95777 0.37544 0.0
C1494 C 0.19695 0.03593 0.35301 0.0
C1495 C 0.20334 0.12747 0.36612 0.0
C1496 C 0.2029 0.08948 0.3659 0.0
C1497 C 0.21555 0.97954 0.3637 0.0
C1498 C 0.2081 0.01708 0.36479 0.0
H1499 H 0.17113 0.19509 0.3845 0.0
H1500 H 0.1702 0.13224 0.38426 0.0
H1501 H 0.18705 0.08563 0.34419 0.0
H1502 H 0.25373 0.92333 0.34122 0.0
H1503 H 0.23245 0.98156 0.34195 0.0
C1504 C 0.42708 0.72523 0.87855 0.0
C1505 C 0.41469 0.73912 0.86591 0.0
C1506 C 0.46044 0.71204 0.87936 0.0
C1507 C 0.5386 0.69188 0.85756 0.0
H1508 H 0.58657 0.71799 0.8916 0.0
C1509 C 0.68453 0.71746 0.86099 0.0
C1510 C 0.70242 0.69974 0.87154 0.0
C1511 C 0.64869 0.71657 0.8605 0.0
C1512 C 0.57339 0.71023 0.8821 0.0
H1513 H 0.42693 0.74792 0.84397 0.0
H1514 H 0.48498 0.72638 0.84547 0.0
H1515 H 0.52451 0.72458 0.89031 0.0
H1516 H 0.69677 0.66694 0.8898 0.0
H1517 H 0.6339 0.66697 0.88936 0.0
H1518 H 0.58825 0.67978 0.84913 0.0
C1519 C 0.46903 0.72476 0.85475 0.0
C1520 C 0.53772 0.7137 0.88136 0.0
C1521 C 0.43554 0.73734 0.85389 0.0
C1522 C 0.68369 0.68142 0.8817 0.0
C1523 C 0.64779 0.68116 0.88139 0.0
C1524 C 0.57435 0.68913 0.85822 0.0
C1525 C 0.48241 0.71301 0.86761 0.0
C1526 C 0.51981 0.70513 0.86898 0.0
C1527 C 0.63003 0.69854 0.87073 0.0
C1528 C 0.59206 0.69875 0.87042 0.0
H1529 H 0.41154 0.7259 0.88798 0.0
H1530 H 0.46937 0.70226 0.88935 0.0
H1531 H 0.52583 0.68419 0.84797 0.0
H1532 H 0.69825 0.7322 0.85315 0.0
H1533 H 0.63549 0.73054 0.85228 0.0
C1534 C 0.27011 0.43053 0.35448 0.0
C1535 C 0.26765 0.41183 0.36707 0.0
C1536 C 0.2826 0.4641 0.35445 0.0
C1537 C 0.29219 0.53748 0.37898 0.0
H1538 H 0.32722 0.58213 0.34552 0.0
C1539 C 0.32404 0.68306 0.37526 0.0
C1540 C 0.30557 0.70006 0.36465 0.0
C1541 C 0.32466 0.64721 0.37587 0.0
C1542 C 0.31754 0.5699 0.35494 0.0
H1543 H 0.27971 0.41266 0.38929 0.0
H1544 H 0.30319 0.47068 0.38914 0.0
H1545 H 0.3232 0.51965 0.34627 0.0
H1546 H 0.27354 0.69277 0.3463 0.0
H1547 H 0.2759 0.62998 0.34702 0.0
H1548 H 0.28727 0.58805 0.38766 0.0
C1549 C 0.29398 0.45996 0.37936 0.0
C1550 C 0.31502 0.53411 0.35538 0.0
C1551 C 0.2809 0.42646 0.37943 0.0
C1552 C 0.28835 0.68042 0.35448 0.0
C1553 C 0.28962 0.64456 0.35491 0.0
C1554 C 0.29546 0.57321 0.37864 0.0
C1555 C 0.29363 0.47979 0.36697 0.0
C1556 C 0.30137 0.51738 0.36726 0.0
C1557 C 0.30754 0.62767 0.36568 0.0
C1558 C 0.30734 0.58974 0.36649 0.0
H1559 H 0.26019 0.4202 0.34474 0.0
H1560 H 0.28146 0.47832 0.3447 0.0
H1561 H 0.28101 0.5259 0.38824 0.0
H1562 H 0.33822 0.69746 0.38306 0.0
H1563 H 0.33881 0.63472 0.38423 0.0
C1564 C 0.55718 0.27338 0.87693 0.0
C1565 C 0.57161 0.25928 0.86469 0.0
C1566 C 0.5238 0.28672 0.87677 0.0
C1567 C 0.44936 0.30674 0.85277 0.0
H1568 H 0.39619 0.28309 0.8858 0.0
C1569 C 0.30164 0.28526 0.85386 0.0
C1570 C 0.2836 0.30271 0.86446 0.0
C1571 C 0.33757 0.28579 0.85358 0.0
C1572 C 0.4108 0.29013 0.87656 0.0
H1573 H 0.563 0.25032 0.84247 0.0
H1574 H 0.50494 0.272 0.84231 0.0
H1575 H 0.45809 0.27526 0.88603 0.0
H1576 H 0.28903 0.33566 0.88267 0.0
H1577 H 0.35176 0.3351 0.88257 0.0
H1578 H 0.40121 0.31945 0.8431 0.0
C1579 C 0.51928 0.27369 0.85201 0.0
C1580 C 0.44643 0.28597 0.8767 0.0
C1581 C 0.5528 0.26101 0.85211 0.0
C1582 C 0.3022 0.3212 0.87459 0.0
C1583 C 0.33805 0.32115 0.87448 0.0
C1584 C 0.4136 0.31017 0.85255 0.0
C1585 C 0.50381 0.28567 0.86444 0.0
C1586 C 0.46628 0.2938 0.86474 0.0
C1587 C 0.35606 0.3033 0.86402 0.0
C1588 C 0.39402 0.30158 0.8644 0.0
H1589 H 0.57111 0.27277 0.88677 0.0
H1590 H 0.51331 0.29672 0.88646 0.0
H1591 H 0.46363 0.31383 0.84346 0.0
H1592 H 0.28802 0.27056 0.84599 0.0
H1593 H 0.35093 0.2716 0.84547 0.0
C1594 C 0.72426 0.30083 0.37666 0.0
C1595 C 0.70378 0.28341 0.36684 0.0
C1596 C 0.72416 0.33669 0.37722 0.0
C1597 C 0.71419 0.41233 0.35604 0.0
H1598 H 0.6962 0.46014 0.39098 0.0
C1599 C 0.73065 0.55857 0.35883 0.0
C1600 C 0.74708 0.57114 0.37092 0.0
C1601 C 0.71728 0.52523 0.35856 0.0
C1602 C 0.70166 0.4473 0.38115 0.0
H1603 H 0.6672 0.28981 0.3499 0.0
H1604 H 0.66845 0.3527 0.35042 0.0
H1605 H 0.69104 0.39776 0.39001 0.0
H1606 H 0.7602 0.55926 0.39252 0.0
H1607 H 0.73838 0.50121 0.39191 0.0
H1608 H 0.72707 0.46107 0.34731 0.0
C1609 C 0.68412 0.33846 0.35779 0.0
C1610 C 0.69849 0.41156 0.38061 0.0
C1611 C 0.68362 0.30257 0.35744 0.0
C1612 C 0.74765 0.55051 0.38302 0.0
C1613 C 0.73492 0.51701 0.38268 0.0
C1614 C 0.71812 0.44797 0.35664 0.0
C1615 C 0.7042 0.3558 0.36776 0.0
C1616 C 0.70514 0.39377 0.3681 0.0
C1617 C 0.72061 0.50342 0.37029 0.0
C1618 C 0.71242 0.46599 0.36927 0.0
H1619 H 0.74046 0.28671 0.38387 0.0
H1620 H 0.74021 0.34954 0.38488 0.0
H1621 H 0.71966 0.3991 0.34629 0.0
H1622 H 0.72945 0.57395 0.34936 0.0
H1623 H 0.70547 0.5162 0.34896 0.0
C1624 C 0.93745 0.78363 0.1201 0.0
C1625 C 0.92441 0.76893 0.13247 0.0
C1626 C 0.97095 0.7966 0.1197 0.0
C1627 C 0.04866 0.81356 0.14227 0.0
H1628 H 0.09724 0.79012 0.10804 0.0
C1629 C 0.19423 0.78451 0.13851 0.0
C1630 C 0.21262 0.80357 0.1285 0.0
C1631 C 0.15842 0.7863 0.13905 0.0
C1632 C 0.0839 0.79711 0.11761 0.0
H1633 H 0.93555 0.75842 0.15437 0.0
H1634 H 0.99384 0.77944 0.15356 0.0
H1635 H 0.03509 0.78446 0.10892 0.0
H1636 H 0.20792 0.83997 0.11138 0.0
H1637 H 0.14509 0.84152 0.11183 0.0
H1638 H 0.09827 0.8238 0.15114 0.0
C1639 C 0.97833 0.78196 0.1442 0.0
C1640 C 0.04816 0.79421 0.11812 0.0
C1641 C 0.94468 0.76969 0.14467 0.0
C1642 C 0.19443 0.82438 0.119 0.0
C1643 C 0.15857 0.82555 0.11933 0.0
C1644 C 0.08448 0.81569 0.14184 0.0
C1645 C 0.99242 0.79448 0.13158 0.0
C1646 C 0.02999 0.80185 0.13054 0.0
C1647 C 0.14031 0.80663 0.1294 0.0
C1648 C 0.10237 0.80704 0.12956 0.0
H1649 H 0.92234 0.78375 0.11056 0.0
H1650 H 0.98038 0.80704 0.1099 0.0
H1651 H 0.03573 0.82052 0.15192 0.0
H1652 H 0.20752 0.76794 0.14584 0.0
H1653 H 0.14479 0.77118 0.1468 0.0
C1654 C 0.18627 0.19702 0.64063 0.0
C1655 C 0.20369 0.2159 0.63028 0.0
C1656 C 0.18608 0.16113 0.64023 0.0
C1657 C 0.19488 0.08804 0.61641 0.0
H1658 H 0.2252 0.03731 0.64913 0.0
C1659 C 0.24307 0.94885 0.61317 0.0
C1660 C 0.24228 0.92791 0.62519 0.0
C1661 C 0.23052 0.98242 0.61367 0.0
C1662 C 0.21578 0.05081 0.63998 0.0
H1663 H 0.23492 0.2122 0.61153 0.0
H1664 H 0.23376 0.14944 0.61058 0.0
H1665 H 0.21923 0.09939 0.65045 0.0
H1666 H 0.22434 0.9246 0.6467 0.0
H1667 H 0.20101 0.9826 0.64738 0.0
H1668 H 0.19111 0.03969 0.60591 0.0
C1669 C 0.22021 0.16242 0.61898 0.0
C1670 C 0.21263 0.0865 0.64074 0.0
C1671 C 0.2209 0.19825 0.61952 0.0
C1672 C 0.22574 0.94021 0.63731 0.0
C1673 C 0.21271 0.97366 0.63774 0.0
C1674 C 0.19745 0.05228 0.6157 0.0
C1675 C 0.20281 0.14352 0.62933 0.0
C1676 C 0.20293 0.1055 0.62888 0.0
C1677 C 0.21634 0.99575 0.62613 0.0
C1678 C 0.20878 0.0332 0.62738 0.0
H1679 H 0.17238 0.21 0.64893 0.0
H1680 H 0.17238 0.14713 0.64831 0.0
H1681 H 0.18685 0.10212 0.60717 0.0
H1682 H 0.25563 0.94028 0.60365 0.0
H1683 H 0.23409 0.99851 0.60452 0.0
C1684 C 0.80419 0.17889 0.12183 0.0
C1685 C 0.78643 0.20617 0.12812 0.0
C1686 C 0.84005 0.17772 0.12221 0.0
C1687 C 0.91525 0.21517 0.1408 0.0
H1688 H 0.96509 0.18639 0.10759 0.0
C1689 C 0.06158 0.22564 0.13955 0.0
C1690 C 0.07481 0.24143 0.12742 0.0
C1691 C 0.0282 0.21242 0.13965 0.0
C1692 C 0.9516 0.19452 0.11696 0.0
H1693 H 0.79169 0.25369 0.13963 0.0
H1694 H 0.85435 0.25232 0.14006 0.0
H1695 H 0.90266 0.18331 0.10786 0.0
H1696 H 0.06441 0.25274 0.10551 0.0
H1697 H 0.00629 0.23061 0.10578 0.0
H1698 H 0.96383 0.22835 0.14961 0.0
C1699 C 0.8408 0.2313 0.13511 0.0
C1700 C 0.91575 0.1924 0.11718 0.0
C1701 C 0.80496 0.23229 0.1348 0.0
C1702 C 0.05504 0.24093 0.11507 0.0
C1703 C 0.02158 0.22805 0.11521 0.0
C1704 C 0.95101 0.21754 0.14055 0.0
C1705 C 0.85885 0.20396 0.12884 0.0
C1706 C 0.89708 0.20338 0.129 0.0
C1707 C 0.00721 0.21496 0.12767 0.0
C1708 C 0.96966 0.20787 0.12853 0.0
H1709 H 0.79028 0.15828 0.11674 0.0
H1710 H 0.85301 0.15608 0.11744 0.0
H1711 H 0.90181 0.22319 0.1502 0.0
H1712 H 0.07626 0.22516 0.1492 0.0
H1713 H 0.01833 0.20161 0.14931 0.0
C1714 C 0.78288 0.06616 0.61826 0.0
C1715 C 0.76822 0.08036 0.63044 0.0
C1716 C 0.79606 0.0327 0.61841 0.0
C1717 C 0.81422 0.95778 0.64238 0.0
H1718 H 0.78958 0.90486 0.6094 0.0
C1719 C 0.78376 0.81225 0.64194 0.0
C1720 C 0.80331 0.79236 0.63259 0.0
C1721 C 0.7856 0.84807 0.64157 0.0
C1722 C 0.79689 0.91944 0.61862 0.0
H1723 H 0.75838 0.07136 0.65258 0.0
H1724 H 0.77981 0.01331 0.65271 0.0
H1725 H 0.78404 0.96712 0.60894 0.0
H1726 H 0.84054 0.79446 0.61567 0.0
H1727 H 0.84213 0.85721 0.61451 0.0
H1728 H 0.82463 0.90938 0.65227 0.0
C1729 C 0.78199 0.02781 0.64306 0.0
C1730 C 0.79406 0.95521 0.61835 0.0
C1731 C 0.7694 0.06133 0.64297 0.0
C1732 C 0.82457 0.80906 0.6228 0.0
C1733 C 0.82578 0.8449 0.62221 0.0
C1734 C 0.81626 0.92197 0.64273 0.0
C1735 C 0.79439 0.01251 0.63067 0.0
C1736 C 0.80206 0.97492 0.63033 0.0
C1737 C 0.80645 0.86465 0.63164 0.0
C1738 C 0.80712 0.90253 0.63092 0.0
H1739 H 0.78272 0.08023 0.60845 0.0
H1740 H 0.80635 0.02228 0.60875 0.0
H1741 H 0.8215 0.97193 0.6517 0.0
H1742 H 0.76679 0.80013 0.64946 0.0
H1743 H 0.77018 0.86288 0.64885 0.0
loop_
_geom_bond_atom_site_label_1
_geom_bond_atom_site_label_2
_geom_bond_distance
_geom_bond_site_symmetry_2
_ccdc_geom_bond_type
Co0 O3 1.970 . S
Co0 N17 1.989 . S
Co0 O25 1.967 . S
Co0 O32 1.920 . S
Co1 O4 1.966 . S
Co1 N10 2.022 . S
Co1 N18 1.993 . S
Co1 O26 1.941 . S
C2 O3 1.258 . S
C2 O4 1.263 . S
O3 Co0 1.970 . S
O3 C2 1.258 . S
O4 Co1 1.966 . S
O4 C2 1.263 . S
C5 O6 1.235 . S
C5 O32 1.289 . S
O6 C5 1.235 . S
C7 C9 1.400 . S
C7 N10 1.351 . S
C7 C12 1.501 . S
C8 C9 1.387 . S
C8 N11 1.341 . S
C9 C7 1.400 . S
C9 C8 1.387 . S
N10 Co1 2.022 . S
N10 C7 1.351 . S
N10 N11 1.365 . S
N11 C8 1.341 . S
N11 N10 1.365 . S
N11 H31 0.862 . S
C12 C7 1.501 . S
C12 H13 0.961 . S
C12 H14 0.961 . S
C12 H15 0.960 . S
H13 C12 0.961 . S
H14 C12 0.961 . S
H15 C12 0.960 . S
C16 N17 1.342 . S
C16 C20 1.401 . S
C16 C21 1.499 . S
N17 Co0 1.989 . S
N17 C16 1.342 . S
N17 N18 1.388 . S
N18 Co1 1.993 . S
N18 N17 1.388 . S
N18 C19 1.346 . S
C19 N18 1.346 . S
C19 C20 1.396 . S
C19 C29 1.510 . S
C20 C16 1.401 . S
C20 C19 1.396 . S
C21 C16 1.499 . S
C21 H22 0.959 . S
C21 H23 0.960 . S
C21 H24 0.961 . S
H22 C21 0.959 . S
H23 C21 0.960 . S
H24 C21 0.961 . S
O25 Co0 1.967 . S
O25 C33 1.258 . S
O26 Co1 1.941 . S
O26 C33 1.266 . S
H27 C29 0.959 . S
H28 C29 0.961 . S
C29 C19 1.510 . S
C29 H27 0.959 . S
C29 H28 0.961 . S
C29 H30 0.960 . S
H30 C29 0.960 . S
H31 N11 0.862 . S
O32 Co0 1.920 . S
O32 C5 1.289 . S
C33 O25 1.258 . S
C33 O26 1.266 . S
Co34 O37 1.970 . S
Co34 N51 1.989 . S
Co34 O59 1.967 . S
Co34 O66 1.920 . S
Co35 O38 1.966 . S
Co35 N44 2.022 . S
Co35 N52 1.993 . S
Co35 O60 1.941 . S
C36 O37 1.258 . S
C36 O38 1.263 . S
O37 Co34 1.970 . S
O37 C36 1.258 . S
O38 Co35 1.966 . S
O38 C36 1.263 . S
C39 O40 1.235 . S
C39 O66 1.289 . S
O40 C39 1.235 . S
C41 C43 1.400 . S
C41 N44 1.351 . S
C41 C46 1.501 . S
C42 C43 1.387 . S
C42 N45 1.341 . S
C43 C41 1.400 . S
C43 C42 1.387 . S
N44 Co35 2.022 . S
N44 C41 1.351 . S
N44 N45 1.365 . S
N45 C42 1.341 . S
N45 N44 1.365 . S
N45 H65 0.862 . S
C46 C41 1.501 . S
C46 H47 0.961 . S
C46 H48 0.961 . S
C46 H49 0.960 . S
H47 C46 0.961 . S
H48 C46 0.961 . S
H49 C46 0.960 . S
C50 N51 1.342 . S
C50 C54 1.401 . S
C50 C55 1.499 . S
N51 Co34 1.989 . S
N51 C50 1.342 . S
N51 N52 1.388 . S
N52 Co35 1.993 . S
N52 N51 1.388 . S
N52 C53 1.346 . S
C53 N52 1.346 . S
C53 C54 1.396 . S
C53 C63 1.510 . S
C54 C50 1.401 . S
C54 C53 1.396 . S
C55 C50 1.499 . S
C55 H56 0.959 . S
C55 H57 0.960 . S
C55 H58 0.961 . S
H56 C55 0.959 . S
H57 C55 0.960 . S
H58 C55 0.961 . S
O59 Co34 1.967 . S
O59 C67 1.258 . S
O60 Co35 1.941 . S
O60 C67 1.266 . S
H61 C63 0.959 . S
H62 C63 0.961 . S
C63 C53 1.510 . S
C63 H61 0.959 . S
C63 H62 0.961 . S
C63 H64 0.960 . S
H64 C63 0.960 . S
H65 N45 0.862 . S
O66 Co34 1.920 . S
O66 C39 1.289 . S
C67 O59 1.258 . S
C67 O60 1.266 . S
Co68 O71 1.970 . S
Co68 N85 1.989 . S
Co68 O93 1.967 . S
Co68 O100 1.920 . S
Co69 O72 1.966 . S
Co69 N78 2.022 . S
Co69 N86 1.993 . S
Co69 O94 1.941 . S
C70 O71 1.258 . S
C70 O72 1.263 . S
O71 Co68 1.970 . S
O71 C70 1.258 . S
O72 Co69 1.966 . S
O72 C70 1.263 . S
C73 O74 1.235 . S
C73 O100 1.289 . S
O74 C73 1.235 . S
C75 C77 1.400 . S
C75 N78 1.351 . S
C75 C80 1.501 . S
C76 C77 1.387 . S
C76 N79 1.341 . S
C77 C75 1.400 . S
C77 C76 1.387 . S
N78 Co69 2.022 . S
N78 C75 1.351 . S
N78 N79 1.365 . S
N79 C76 1.341 . S
N79 N78 1.365 . S
N79 H99 0.862 . S
C80 C75 1.501 . S
C80 H81 0.961 . S
C80 H82 0.961 . S
C80 H83 0.960 . S
H81 C80 0.961 . S
H82 C80 0.961 . S
H83 C80 0.960 . S
C84 N85 1.342 . S
C84 C88 1.401 . S
C84 C89 1.499 . S
N85 Co68 1.989 . S
N85 C84 1.342 . S
N85 N86 1.388 . S
N86 Co69 1.993 . S
N86 N85 1.388 . S
N86 C87 1.346 . S
C87 N86 1.346 . S
C87 C88 1.396 . S
C87 C97 1.510 . S
C88 C84 1.401 . S
C88 C87 1.396 . S
C89 C84 1.499 . S
C89 H90 0.959 . S
C89 H91 0.960 . S
C89 H92 0.961 . S
H90 C89 0.959 . S
H91 C89 0.960 . S
H92 C89 0.961 . S
O93 Co68 1.967 . S
O93 C101 1.258 . S
O94 Co69 1.941 . S
O94 C101 1.266 . S
H95 C97 0.959 . S
H96 C97 0.961 . S
C97 C87 1.510 . S
C97 H95 0.959 . S
C97 H96 0.961 . S
C97 H98 0.960 . S
H98 C97 0.960 . S
H99 N79 0.862 . S
O100 Co68 1.920 . S
O100 C73 1.289 . S
C101 O93 1.258 . S
C101 O94 1.266 . S
Co102 O105 1.970 . S
Co102 N119 1.989 . S
Co102 O127 1.967 . S
Co102 O134 1.920 . S
Co103 O106 1.966 . S
Co103 N112 2.022 . S
Co103 N120 1.993 . S
Co103 O128 1.941 . S
C104 O105 1.258 . S
C104 O106 1.263 . S
O105 Co102 1.970 . S
O105 C104 1.258 . S
O106 Co103 1.966 . S
O106 C104 1.263 . S
C107 O108 1.235 . S
C107 O134 1.289 . S
O108 C107 1.235 . S
C109 C111 1.400 . S
C109 N112 1.351 . S
C109 C114 1.501 . S
C110 C111 1.387 . S
C110 N113 1.341 . S
C111 C109 1.400 . S
C111 C110 1.387 . S
N112 Co103 2.022 . S
N112 C109 1.351 . S
N112 N113 1.365 . S
N113 C110 1.341 . S
N113 N112 1.365 . S
N113 H133 0.862 . S
C114 C109 1.501 . S
C114 H115 0.961 . S
C114 H116 0.961 . S
C114 H117 0.960 . S
H115 C114 0.961 . S
H116 C114 0.961 . S
H117 C114 0.960 . S
C118 N119 1.342 . S
C118 C122 1.401 . S
C118 C123 1.499 . S
N119 Co102 1.989 . S
N119 C118 1.342 . S
N119 N120 1.388 . S
N120 Co103 1.993 . S
N120 N119 1.388 . S
N120 C121 1.346 . S
C121 N120 1.346 . S
C121 C122 1.396 . S
C121 C131 1.510 . S
C122 C118 1.401 . S
C122 C121 1.396 . S
C123 C118 1.499 . S
C123 H124 0.959 . S
C123 H125 0.960 . S
C123 H126 0.961 . S
H124 C123 0.959 . S
H125 C123 0.960 . S
H126 C123 0.961 . S
O127 Co102 1.967 . S
O127 C135 1.258 . S
O128 Co103 1.941 . S
O128 C135 1.266 . S
H129 C131 0.959 . S
H130 C131 0.961 . S
C131 C121 1.510 . S
C131 H129 0.959 . S
C131 H130 0.961 . S
C131 H132 0.960 . S
H132 C131 0.960 . S
H133 N113 0.862 . S
O134 Co102 1.920 . S
O134 C107 1.289 . S
C135 O127 1.258 . S
C135 O128 1.266 . S
Co136 O139 1.970 . S
Co136 N153 1.989 . S
Co136 O161 1.967 . S
Co136 O168 1.920 . S
Co137 O140 1.966 . S
Co137 N146 2.022 . S
Co137 N154 1.993 . S
Co137 O162 1.941 . S
C138 O139 1.258 . S
C138 O140 1.263 . S
O139 Co136 1.970 . S
O139 C138 1.258 . S
O140 Co137 1.966 . S
O140 C138 1.263 . S
C141 O142 1.235 . S
C141 O168 1.289 . S
O142 C141 1.235 . S
C143 C145 1.400 . S
C143 N146 1.351 . S
C143 C148 1.501 . S
C144 C145 1.387 . S
C144 N147 1.341 . S
C145 C143 1.400 . S
C145 C144 1.387 . S
N146 Co137 2.022 . S
N146 C143 1.351 . S
N146 N147 1.365 . S
N147 C144 1.341 . S
N147 N146 1.365 . S
N147 H167 0.862 . S
C148 C143 1.501 . S
C148 H149 0.961 . S
C148 H150 0.961 . S
C148 H151 0.960 . S
H149 C148 0.961 . S
H150 C148 0.961 . S
H151 C148 0.960 . S
C152 N153 1.342 . S
C152 C156 1.401 . S
C152 C157 1.499 . S
N153 Co136 1.989 . S
N153 C152 1.342 . S
N153 N154 1.388 . S
N154 Co137 1.993 . S
N154 N153 1.388 . S
N154 C155 1.346 . S
C155 N154 1.346 . S
C155 C156 1.396 . S
C155 C165 1.510 . S
C156 C152 1.401 . S
C156 C155 1.396 . S
C157 C152 1.499 . S
C157 H158 0.959 . S
C157 H159 0.960 . S
C157 H160 0.961 . S
H158 C157 0.959 . S
H159 C157 0.960 . S
H160 C157 0.961 . S
O161 Co136 1.967 . S
O161 C169 1.258 . S
O162 Co137 1.941 . S
O162 C169 1.266 . S
H163 C165 0.959 . S
H164 C165 0.961 . S
C165 C155 1.510 . S
C165 H163 0.959 . S
C165 H164 0.961 . S
C165 H166 0.960 . S
H166 C165 0.960 . S
H167 N147 0.862 . S
O168 Co136 1.920 . S
O168 C141 1.289 . S
C169 O161 1.258 . S
C169 O162 1.266 . S
Co170 O173 1.970 . S
Co170 N187 1.989 . S
Co170 O195 1.967 . S
Co170 O202 1.920 . S
Co171 O174 1.966 . S
Co171 N180 2.022 . S
Co171 N188 1.993 . S
Co171 O196 1.941 . S
C172 O173 1.258 . S
C172 O174 1.263 . S
O173 Co170 1.970 . S
O173 C172 1.258 . S
O174 Co171 1.966 . S
O174 C172 1.263 . S
C175 O176 1.235 . S
C175 O202 1.289 . S
O176 C175 1.235 . S
C177 C179 1.400 . S
C177 N180 1.351 . S
C177 C182 1.501 . S
C178 C179 1.387 . S
C178 N181 1.341 . S
C179 C177 1.400 . S
C179 C178 1.387 . S
N180 Co171 2.022 . S
N180 C177 1.351 . S
N180 N181 1.365 . S
N181 C178 1.341 . S
N181 N180 1.365 . S
N181 H201 0.862 . S
C182 C177 1.501 . S
C182 H183 0.961 . S
C182 H184 0.961 . S
C182 H185 0.960 . S
H183 C182 0.961 . S
H184 C182 0.961 . S
H185 C182 0.960 . S
C186 N187 1.342 . S
C186 C190 1.401 . S
C186 C191 1.499 . S
N187 Co170 1.989 . S
N187 C186 1.342 . S
N187 N188 1.388 . S
N188 Co171 1.993 . S
N188 N187 1.388 . S
N188 C189 1.346 . S
C189 N188 1.346 . S
C189 C190 1.396 . S
C189 C199 1.510 . S
C190 C186 1.401 . S
C190 C189 1.396 . S
C191 C186 1.499 . S
C191 H192 0.959 . S
C191 H193 0.960 . S
C191 H194 0.961 . S
H192 C191 0.959 . S
H193 C191 0.960 . S
H194 C191 0.961 . S
O195 Co170 1.967 . S
O195 C203 1.258 . S
O196 Co171 1.941 . S
O196 C203 1.266 . S
H197 C199 0.959 . S
H198 C199 0.961 . S
C199 C189 1.510 . S
C199 H197 0.959 . S
C199 H198 0.961 . S
C199 H200 0.960 . S
H200 C199 0.960 . S
H201 N181 0.862 . S
O202 Co170 1.920 . S
O202 C175 1.289 . S
C203 O195 1.258 . S
C203 O196 1.266 . S
Co204 O207 1.970 . S
Co204 N221 1.989 . S
Co204 O229 1.967 . S
Co204 O236 1.920 . S
Co205 O208 1.966 . S
Co205 N214 2.022 . S
Co205 N222 1.993 . S
Co205 O230 1.941 . S
C206 O207 1.258 . S
C206 O208 1.263 . S
O207 Co204 1.970 . S
O207 C206 1.258 . S
O208 Co205 1.966 . S
O208 C206 1.263 . S
C209 O210 1.235 . S
C209 O236 1.289 . S
O210 C209 1.235 . S
C211 C213 1.400 . S
C211 N214 1.351 . S
C211 C216 1.501 . S
C212 C213 1.387 . S
C212 N215 1.341 . S
C213 C211 1.400 . S
C213 C212 1.387 . S
N214 Co205 2.022 . S
N214 C211 1.351 . S
N214 N215 1.365 . S
N215 C212 1.341 . S
N215 N214 1.365 . S
N215 H235 0.862 . S
C216 C211 1.501 . S
C216 H217 0.961 . S
C216 H218 0.961 . S
C216 H219 0.960 . S
H217 C216 0.961 . S
H218 C216 0.961 . S
H219 C216 0.960 . S
C220 N221 1.342 . S
C220 C224 1.401 . S
C220 C225 1.499 . S
N221 Co204 1.989 . S
N221 C220 1.342 . S
N221 N222 1.388 . S
N222 Co205 1.993 . S
N222 N221 1.388 . S
N222 C223 1.346 . S
C223 N222 1.346 . S
C223 C224 1.396 . S
C223 C233 1.510 . S
C224 C220 1.401 . S
C224 C223 1.396 . S
C225 C220 1.499 . S
C225 H226 0.959 . S
C225 H227 0.960 . S
C225 H228 0.961 . S
H226 C225 0.959 . S
H227 C225 0.960 . S
H228 C225 0.961 . S
O229 Co204 1.967 . S
O229 C237 1.258 . S
O230 Co205 1.941 . S
O230 C237 1.266 . S
H231 C233 0.959 . S
H232 C233 0.961 . S
C233 C223 1.510 . S
C233 H231 0.959 . S
C233 H232 0.961 . S
C233 H234 0.960 . S
H234 C233 0.960 . S
H235 N215 0.862 . S
O236 Co204 1.920 . S
O236 C209 1.289 . S
C237 O229 1.258 . S
C237 O230 1.266 . S
Co238 O241 1.970 . S
Co238 N255 1.989 . S
Co238 O263 1.967 . S
Co238 O270 1.920 . S
Co239 O242 1.966 . S
Co239 N248 2.022 . S
Co239 N256 1.993 . S
Co239 O264 1.941 . S
C240 O241 1.258 . S
C240 O242 1.263 . S
O241 Co238 1.970 . S
O241 C240 1.258 . S
O242 Co239 1.966 . S
O242 C240 1.263 . S
C243 O244 1.235 . S
C243 O270 1.289 . S
O244 C243 1.235 . S
C245 C247 1.400 . S
C245 N248 1.351 . S
C245 C250 1.501 . S
C246 C247 1.387 . S
C246 N249 1.341 . S
C247 C245 1.400 . S
C247 C246 1.387 . S
N248 Co239 2.022 . S
N248 C245 1.351 . S
N248 N249 1.365 . S
N249 C246 1.341 . S
N249 N248 1.365 . S
N249 H269 0.862 . S
C250 C245 1.501 . S
C250 H251 0.961 . S
C250 H252 0.961 . S
C250 H253 0.960 . S
H251 C250 0.961 . S
H252 C250 0.961 . S
H253 C250 0.960 . S
C254 N255 1.342 . S
C254 C258 1.401 . S
C254 C259 1.499 . S
N255 Co238 1.989 . S
N255 C254 1.342 . S
N255 N256 1.388 . S
N256 Co239 1.993 . S
N256 N255 1.388 . S
N256 C257 1.346 . S
C257 N256 1.346 . S
C257 C258 1.396 . S
C257 C267 1.510 . S
C258 C254 1.401 . S
C258 C257 1.396 . S
C259 C254 1.499 . S
C259 H260 0.959 . S
C259 H261 0.960 . S
C259 H262 0.961 . S
H260 C259 0.959 . S
H261 C259 0.960 . S
H262 C259 0.961 . S
O263 Co238 1.967 . S
O263 C271 1.258 . S
O264 Co239 1.941 . S
O264 C271 1.266 . S
H265 C267 0.959 . S
H266 C267 0.961 . S
C267 C257 1.510 . S
C267 H265 0.959 . S
C267 H266 0.961 . S
C267 H268 0.960 . S
H268 C267 0.960 . S
H269 N249 0.862 . S
O270 Co238 1.920 . S
O270 C243 1.289 . S
C271 O263 1.258 . S
C271 O264 1.266 . S
Co272 O275 1.970 . S
Co272 N289 1.989 . S
Co272 O297 1.967 . S
Co272 O304 1.920 . S
Co273 O276 1.966 . S
Co273 N282 2.022 . S
Co273 N290 1.993 . S
Co273 O298 1.941 . S
C274 O275 1.258 . S
C274 O276 1.263 . S
O275 Co272 1.970 . S
O275 C274 1.258 . S
O276 Co273 1.966 . S
O276 C274 1.263 . S
C277 O278 1.235 . S
C277 O304 1.289 . S
O278 C277 1.235 . S
C279 C281 1.400 . S
C279 N282 1.351 . S
C279 C284 1.501 . S
C280 C281 1.387 . S
C280 N283 1.341 . S
C281 C279 1.400 . S
C281 C280 1.387 . S
N282 Co273 2.022 . S
N282 C279 1.351 . S
N282 N283 1.365 . S
N283 C280 1.341 . S
N283 N282 1.365 . S
N283 H303 0.862 . S
C284 C279 1.501 . S
C284 H285 0.961 . S
C284 H286 0.961 . S
C284 H287 0.960 . S
H285 C284 0.961 . S
H286 C284 0.961 . S
H287 C284 0.960 . S
C288 N289 1.342 . S
C288 C292 1.401 . S
C288 C293 1.499 . S
N289 Co272 1.989 . S
N289 C288 1.342 . S
N289 N290 1.388 . S
N290 Co273 1.993 . S
N290 N289 1.388 . S
N290 C291 1.346 . S
C291 N290 1.346 . S
C291 C292 1.396 . S
C291 C301 1.510 . S
C292 C288 1.401 . S
C292 C291 1.396 . S
C293 C288 1.499 . S
C293 H294 0.959 . S
C293 H295 0.960 . S
C293 H296 0.961 . S
H294 C293 0.959 . S
H295 C293 0.960 . S
H296 C293 0.961 . S
O297 Co272 1.967 . S
O297 C305 1.258 . S
O298 Co273 1.941 . S
O298 C305 1.266 . S
H299 C301 0.959 . S
H300 C301 0.961 . S
C301 C291 1.510 . S
C301 H299 0.959 . S
C301 H300 0.961 . S
C301 H302 0.960 . S
H302 C301 0.960 . S
H303 N283 0.862 . S
O304 Co272 1.920 . S
O304 C277 1.289 . S
C305 O297 1.258 . S
C305 O298 1.266 . S
Co306 O309 1.970 . S
Co306 N323 1.989 . S
Co306 O331 1.967 . S
Co306 O338 1.920 . S
Co307 O310 1.966 . S
Co307 N316 2.022 . S
Co307 N324 1.993 . S
Co307 O332 1.941 . S
C308 O309 1.258 . S
C308 O310 1.263 . S
O309 Co306 1.970 . S
O309 C308 1.258 . S
O310 Co307 1.966 . S
O310 C308 1.263 . S
C311 O312 1.235 . S
C311 O338 1.289 . S
O312 C311 1.235 . S
C313 C315 1.400 . S
C313 N316 1.351 . S
C313 C318 1.501 . S
C314 C315 1.387 . S
C314 N317 1.341 . S
C315 C313 1.400 . S
C315 C314 1.387 . S
N316 Co307 2.022 . S
N316 C313 1.351 . S
N316 N317 1.365 . S
N317 C314 1.341 . S
N317 N316 1.365 . S
N317 H337 0.862 . S
C318 C313 1.501 . S
C318 H319 0.961 . S
C318 H320 0.961 . S
C318 H321 0.960 . S
H319 C318 0.961 . S
H320 C318 0.961 . S
H321 C318 0.960 . S
C322 N323 1.342 . S
C322 C326 1.401 . S
C322 C327 1.499 . S
N323 Co306 1.989 . S
N323 C322 1.342 . S
N323 N324 1.388 . S
N324 Co307 1.993 . S
N324 N323 1.388 . S
N324 C325 1.346 . S
C325 N324 1.346 . S
C325 C326 1.396 . S
C325 C335 1.510 . S
C326 C322 1.401 . S
C326 C325 1.396 . S
C327 C322 1.499 . S
C327 H328 0.959 . S
C327 H329 0.960 . S
C327 H330 0.961 . S
H328 C327 0.959 . S
H329 C327 0.960 . S
H330 C327 0.961 . S
O331 Co306 1.967 . S
O331 C339 1.258 . S
O332 Co307 1.941 . S
O332 C339 1.266 . S
H333 C335 0.959 . S
H334 C335 0.961 . S
C335 C325 1.510 . S
C335 H333 0.959 . S
C335 H334 0.961 . S
C335 H336 0.960 . S
H336 C335 0.960 . S
H337 N317 0.862 . S
O338 Co306 1.920 . S
O338 C311 1.289 . S
C339 O331 1.258 . S
C339 O332 1.266 . S
Co340 O343 1.970 . S
Co340 N357 1.989 . S
Co340 O365 1.967 . S
Co340 O372 1.920 . S
Co341 O344 1.966 . S
Co341 N350 2.022 . S
Co341 N358 1.993 . S
Co341 O366 1.941 . S
C342 O343 1.258 . S
C342 O344 1.263 . S
O343 Co340 1.970 . S
O343 C342 1.258 . S
O344 Co341 1.966 . S
O344 C342 1.263 . S
C345 O346 1.235 . S
C345 O372 1.289 . S
O346 C345 1.235 . S
C347 C349 1.400 . S
C347 N350 1.351 . S
C347 C352 1.501 . S
C348 C349 1.387 . S
C348 N351 1.341 . S
C349 C347 1.400 . S
C349 C348 1.387 . S
N350 Co341 2.022 . S
N350 C347 1.351 . S
N350 N351 1.365 . S
N351 C348 1.341 . S
N351 N350 1.365 . S
N351 H371 0.862 . S
C352 C347 1.501 . S
C352 H353 0.961 . S
C352 H354 0.961 . S
C352 H355 0.960 . S
H353 C352 0.961 . S
H354 C352 0.961 . S
H355 C352 0.960 . S
C356 N357 1.342 . S
C356 C360 1.401 . S
C356 C361 1.499 . S
N357 Co340 1.989 . S
N357 C356 1.342 . S
N357 N358 1.388 . S
N358 Co341 1.993 . S
N358 N357 1.388 . S
N358 C359 1.346 . S
C359 N358 1.346 . S
C359 C360 1.396 . S
C359 C369 1.510 . S
C360 C356 1.401 . S
C360 C359 1.396 . S
C361 C356 1.499 . S
C361 H362 0.959 . S
C361 H363 0.960 . S
C361 H364 0.961 . S
H362 C361 0.959 . S
H363 C361 0.960 . S
H364 C361 0.961 . S
O365 Co340 1.967 . S
O365 C373 1.258 . S
O366 Co341 1.941 . S
O366 C373 1.266 . S
H367 C369 0.959 . S
H368 C369 0.961 . S
C369 C359 1.510 . S
C369 H367 0.959 . S
C369 H368 0.961 . S
C369 H370 0.960 . S
H370 C369 0.960 . S
H371 N351 0.862 . S
O372 Co340 1.920 . S
O372 C345 1.289 . S
C373 O365 1.258 . S
C373 O366 1.266 . S
Co374 O377 1.970 . S
Co374 N391 1.989 . S
Co374 O399 1.967 . S
Co374 O406 1.920 . S
Co375 O378 1.966 . S
Co375 N384 2.022 . S
Co375 N392 1.993 . S
Co375 O400 1.941 . S
C376 O377 1.258 . S
C376 O378 1.263 . S
O377 Co374 1.970 . S
O377 C376 1.258 . S
O378 Co375 1.966 . S
O378 C376 1.263 . S
C379 O380 1.235 . S
C379 O406 1.289 . S
O380 C379 1.235 . S
C381 C383 1.400 . S
C381 N384 1.351 . S
C381 C386 1.501 . S
C382 C383 1.387 . S
C382 N385 1.341 . S
C383 C381 1.400 . S
C383 C382 1.387 . S
N384 Co375 2.022 . S
N384 C381 1.351 . S
N384 N385 1.365 . S
N385 C382 1.341 . S
N385 N384 1.365 . S
N385 H405 0.862 . S
C386 C381 1.501 . S
C386 H387 0.961 . S
C386 H388 0.961 . S
C386 H389 0.960 . S
H387 C386 0.961 . S
H388 C386 0.961 . S
H389 C386 0.960 . S
C390 N391 1.342 . S
C390 C394 1.401 . S
C390 C395 1.499 . S
N391 Co374 1.989 . S
N391 C390 1.342 . S
N391 N392 1.388 . S
N392 Co375 1.993 . S
N392 N391 1.388 . S
N392 C393 1.346 . S
C393 N392 1.346 . S
C393 C394 1.396 . S
C393 C403 1.510 . S
C394 C390 1.401 . S
C394 C393 1.396 . S
C395 C390 1.499 . S
C395 H396 0.959 . S
C395 H397 0.960 . S
C395 H398 0.961 . S
H396 C395 0.959 . S
H397 C395 0.960 . S
H398 C395 0.961 . S
O399 Co374 1.967 . S
O399 C407 1.258 . S
O400 Co375 1.941 . S
O400 C407 1.266 . S
H401 C403 0.959 . S
H402 C403 0.961 . S
C403 C393 1.510 . S
C403 H401 0.959 . S
C403 H402 0.961 . S
C403 H404 0.960 . S
H404 C403 0.960 . S
H405 N385 0.862 . S
O406 Co374 1.920 . S
O406 C379 1.289 . S
C407 O399 1.258 . S
C407 O400 1.266 . S
Co408 O411 1.970 . S
Co408 N425 1.989 . S
Co408 O433 1.967 . S
Co408 O440 1.920 . S
Co409 O412 1.966 . S
Co409 N418 2.022 . S
Co409 N426 1.993 . S
Co409 O434 1.941 . S
C410 O411 1.258 . S
C410 O412 1.263 . S
O411 Co408 1.970 . S
O411 C410 1.258 . S
O412 Co409 1.966 . S
O412 C410 1.263 . S
C413 O414 1.235 . S
C413 O440 1.289 . S
O414 C413 1.235 . S
C415 C417 1.400 . S
C415 N418 1.351 . S
C415 C420 1.501 . S
C416 C417 1.387 . S
C416 N419 1.341 . S
C417 C415 1.400 . S
C417 C416 1.387 . S
N418 Co409 2.022 . S
N418 C415 1.351 . S
N418 N419 1.365 . S
N419 C416 1.341 . S
N419 N418 1.365 . S
N419 H439 0.862 . S
C420 C415 1.501 . S
C420 H421 0.961 . S
C420 H422 0.961 . S
C420 H423 0.960 . S
H421 C420 0.961 . S
H422 C420 0.961 . S
H423 C420 0.960 . S
C424 N425 1.342 . S
C424 C428 1.401 . S
C424 C429 1.499 . S
N425 Co408 1.989 . S
N425 C424 1.342 . S
N425 N426 1.388 . S
N426 Co409 1.993 . S
N426 N425 1.388 . S
N426 C427 1.346 . S
C427 N426 1.346 . S
C427 C428 1.396 . S
C427 C437 1.510 . S
C428 C424 1.401 . S
C428 C427 1.396 . S
C429 C424 1.499 . S
C429 H430 0.959 . S
C429 H431 0.960 . S
C429 H432 0.961 . S
H430 C429 0.959 . S
H431 C429 0.960 . S
H432 C429 0.961 . S
O433 Co408 1.967 . S
O433 C441 1.258 . S
O434 Co409 1.941 . S
O434 C441 1.266 . S
H435 C437 0.959 . S
H436 C437 0.961 . S
C437 C427 1.510 . S
C437 H435 0.959 . S
C437 H436 0.961 . S
C437 H438 0.960 . S
H438 C437 0.960 . S
H439 N419 0.862 . S
O440 Co408 1.920 . S
O440 C413 1.289 . S
C441 O433 1.258 . S
C441 O434 1.266 . S
Co442 O445 1.970 . S
Co442 N459 1.989 . S
Co442 O467 1.967 . S
Co442 O474 1.920 . S
Co443 O446 1.966 . S
Co443 N452 2.022 . S
Co443 N460 1.993 . S
Co443 O468 1.941 . S
C444 O445 1.258 . S
C444 O446 1.263 . S
O445 Co442 1.970 . S
O445 C444 1.258 . S
O446 Co443 1.966 . S
O446 C444 1.263 . S
C447 O448 1.235 . S
C447 O474 1.289 . S
O448 C447 1.235 . S
C449 C451 1.400 . S
C449 N452 1.351 . S
C449 C454 1.501 . S
C450 C451 1.387 . S
C450 N453 1.341 . S
C451 C449 1.400 . S
C451 C450 1.387 . S
N452 Co443 2.022 . S
N452 C449 1.351 . S
N452 N453 1.365 . S
N453 C450 1.341 . S
N453 N452 1.365 . S
N453 H473 0.862 . S
C454 C449 1.501 . S
C454 H455 0.961 . S
C454 H456 0.961 . S
C454 H457 0.960 . S
H455 C454 0.961 . S
H456 C454 0.961 . S
H457 C454 0.960 . S
C458 N459 1.342 . S
C458 C462 1.401 . S
C458 C463 1.499 . S
N459 Co442 1.989 . S
N459 C458 1.342 . S
N459 N460 1.388 . S
N460 Co443 1.993 . S
N460 N459 1.388 . S
N460 C461 1.346 . S
C461 N460 1.346 . S
C461 C462 1.396 . S
C461 C471 1.510 . S
C462 C458 1.401 . S
C462 C461 1.396 . S
C463 C458 1.499 . S
C463 H464 0.959 . S
C463 H465 0.960 . S
C463 H466 0.961 . S
H464 C463 0.959 . S
H465 C463 0.960 . S
H466 C463 0.961 . S
O467 Co442 1.967 . S
O467 C475 1.258 . S
O468 Co443 1.941 . S
O468 C475 1.266 . S
H469 C471 0.959 . S
H470 C471 0.961 . S
C471 C461 1.510 . S
C471 H469 0.959 . S
C471 H470 0.961 . S
C471 H472 0.960 . S
H472 C471 0.960 . S
H473 N453 0.862 . S
O474 Co442 1.920 . S
O474 C447 1.289 . S
C475 O467 1.258 . S
C475 O468 1.266 . S
Co476 O479 1.970 . S
Co476 N493 1.989 . S
Co476 O501 1.967 . S
Co476 O508 1.920 . S
Co477 O480 1.966 . S
Co477 N486 2.022 . S
Co477 N494 1.993 . S
Co477 O502 1.941 . S
C478 O479 1.258 . S
C478 O480 1.263 . S
O479 Co476 1.970 . S
O479 C478 1.258 . S
O480 Co477 1.966 . S
O480 C478 1.263 . S
C481 O482 1.235 . S
C481 O508 1.289 . S
O482 C481 1.235 . S
C483 C485 1.400 . S
C483 N486 1.351 . S
C483 C488 1.501 . S
C484 C485 1.387 . S
C484 N487 1.341 . S
C485 C483 1.400 . S
C485 C484 1.387 . S
N486 Co477 2.022 . S
N486 C483 1.351 . S
N486 N487 1.365 . S
N487 C484 1.341 . S
N487 N486 1.365 . S
N487 H507 0.862 . S
C488 C483 1.501 . S
C488 H489 0.961 . S
C488 H490 0.961 . S
C488 H491 0.960 . S
H489 C488 0.961 . S
H490 C488 0.961 . S
H491 C488 0.960 . S
C492 N493 1.342 . S
C492 C496 1.401 . S
C492 C497 1.499 . S
N493 Co476 1.989 . S
N493 C492 1.342 . S
N493 N494 1.388 . S
N494 Co477 1.993 . S
N494 N493 1.388 . S
N494 C495 1.346 . S
C495 N494 1.346 . S
C495 C496 1.396 . S
C495 C505 1.510 . S
C496 C492 1.401 . S
C496 C495 1.396 . S
C497 C492 1.499 . S
C497 H498 0.959 . S
C497 H499 0.960 . S
C497 H500 0.961 . S
H498 C497 0.959 . S
H499 C497 0.960 . S
H500 C497 0.961 . S
O501 Co476 1.967 . S
O501 C509 1.258 . S
O502 Co477 1.941 . S
O502 C509 1.266 . S
H503 C505 0.959 . S
H504 C505 0.961 . S
C505 C495 1.510 . S
C505 H503 0.959 . S
C505 H504 0.961 . S
C505 H506 0.960 . S
H506 C505 0.960 . S
H507 N487 0.862 . S
O508 Co476 1.920 . S
O508 C481 1.289 . S
C509 O501 1.258 . S
C509 O502 1.266 . S
Co510 O513 1.970 . S
Co510 N527 1.989 . S
Co510 O535 1.967 . S
Co510 O542 1.920 . S
Co511 O514 1.966 . S
Co511 N520 2.022 . S
Co511 N528 1.993 . S
Co511 O536 1.941 . S
C512 O513 1.258 . S
C512 O514 1.263 . S
O513 Co510 1.970 . S
O513 C512 1.258 . S
O514 Co511 1.966 . S
O514 C512 1.263 . S
C515 O516 1.235 . S
C515 O542 1.289 . S
O516 C515 1.235 . S
C517 C519 1.400 . S
C517 N520 1.351 . S
C517 C522 1.501 . S
C518 C519 1.387 . S
C518 N521 1.341 . S
C519 C517 1.400 . S
C519 C518 1.387 . S
N520 Co511 2.022 . S
N520 C517 1.351 . S
N520 N521 1.365 . S
N521 C518 1.341 . S
N521 N520 1.365 . S
N521 H541 0.862 . S
C522 C517 1.501 . S
C522 H523 0.961 . S
C522 H524 0.961 . S
C522 H525 0.960 . S
H523 C522 0.961 . S
H524 C522 0.961 . S
H525 C522 0.960 . S
C526 N527 1.342 . S
C526 C530 1.401 . S
C526 C531 1.499 . S
N527 Co510 1.989 . S
N527 C526 1.342 . S
N527 N528 1.388 . S
N528 Co511 1.993 . S
N528 N527 1.388 . S
N528 C529 1.346 . S
C529 N528 1.346 . S
C529 C530 1.396 . S
C529 C539 1.510 . S
C530 C526 1.401 . S
C530 C529 1.396 . S
C531 C526 1.499 . S
C531 H532 0.959 . S
C531 H533 0.960 . S
C531 H534 0.961 . S
H532 C531 0.959 . S
H533 C531 0.960 . S
H534 C531 0.961 . S
O535 Co510 1.967 . S
O535 C543 1.258 . S
O536 Co511 1.941 . S
O536 C543 1.266 . S
H537 C539 0.959 . S
H538 C539 0.961 . S
C539 C529 1.510 . S
C539 H537 0.959 . S
C539 H538 0.961 . S
C539 H540 0.960 . S
H540 C539 0.960 . S
H541 N521 0.862 . S
O542 Co510 1.920 . S
O542 C515 1.289 . S
C543 O535 1.258 . S
C543 O536 1.266 . S
C544 C545 1.349 . S
C544 C546 1.327 . S
C544 H569 0.950 . S
C545 C544 1.349 . S
C545 C561 1.349 . S
C546 C544 1.327 . S
C546 C565 1.429 . S
C546 H570 0.950 . S
C547 C564 1.574 . S
C547 C566 1.368 . S
C547 H571 0.949 . S
H548 C552 0.949 . S
C549 C550 1.349 . S
C549 C551 1.327 . S
C549 H572 0.950 . S
C550 C549 1.349 . S
C550 C562 1.349 . S
C551 C549 1.327 . S
C551 C567 1.429 . S
C551 H573 0.950 . S
C552 H548 0.949 . S
C552 C560 1.574 . S
C552 C568 1.368 . S
H553 C561 0.950 . S
H554 C559 0.950 . S
H555 C560 0.949 . S
H556 C562 0.950 . S
H557 C563 0.950 . S
H558 C564 0.949 . S
C559 H554 0.950 . S
C559 C561 1.327 . S
C559 C565 1.429 . S
C560 C552 1.574 . S
C560 H555 0.949 . S
C560 C566 1.368 . S
C561 C545 1.349 . S
C561 H553 0.950 . S
C561 C559 1.327 . S
C562 C550 1.349 . S
C562 H556 0.950 . S
C562 C563 1.327 . S
C563 H557 0.950 . S
C563 C562 1.327 . S
C563 C567 1.429 . S
C564 C547 1.574 . S
C564 H558 0.949 . S
C564 C568 1.368 . S
C565 C546 1.429 . S
C565 C559 1.429 . S
C565 C566 1.523 . S
C566 C547 1.368 . S
C566 C560 1.368 . S
C566 C565 1.523 . S
C567 C551 1.429 . S
C567 C563 1.429 . S
C567 C568 1.523 . S
C568 C552 1.368 . S
C568 C564 1.368 . S
C568 C567 1.523 . S
H569 C544 0.950 . S
H570 C546 0.950 . S
H571 C547 0.949 . S
H572 C549 0.950 . S
H573 C551 0.950 . S
C574 C575 1.349 . S
C574 C576 1.327 . S
C574 H599 0.950 . S
C575 C574 1.349 . S
C575 C591 1.349 . S
C576 C574 1.327 . S
C576 C595 1.429 . S
C576 H600 0.950 . S
C577 C594 1.574 . S
C577 C596 1.368 . S
C577 H601 0.949 . S
H578 C582 0.949 . S
C579 C580 1.349 . S
C579 C581 1.327 . S
C579 H602 0.950 . S
C580 C579 1.349 . S
C580 C592 1.349 . S
C581 C579 1.327 . S
C581 C597 1.429 . S
C581 H603 0.950 . S
C582 H578 0.949 . S
C582 C590 1.574 . S
C582 C598 1.368 . S
H583 C591 0.950 . S
H584 C589 0.950 . S
H585 C590 0.949 . S
H586 C592 0.950 . S
H587 C593 0.950 . S
H588 C594 0.949 . S
C589 H584 0.950 . S
C589 C591 1.327 . S
C589 C595 1.429 . S
C590 C582 1.574 . S
C590 H585 0.949 . S
C590 C596 1.368 . S
C591 C575 1.349 . S
C591 H583 0.950 . S
C591 C589 1.327 . S
C592 C580 1.349 . S
C592 H586 0.950 . S
C592 C593 1.327 . S
C593 H587 0.950 . S
C593 C592 1.327 . S
C593 C597 1.429 . S
C594 C577 1.574 . S
C594 H588 0.949 . S
C594 C598 1.368 . S
C595 C576 1.429 . S
C595 C589 1.429 . S
C595 C596 1.523 . S
C596 C577 1.368 . S
C596 C590 1.368 . S
C596 C595 1.523 . S
C597 C581 1.429 . S
C597 C593 1.429 . S
C597 C598 1.523 . S
C598 C582 1.368 . S
C598 C594 1.368 . S
C598 C597 1.523 . S
H599 C574 0.950 . S
H600 C576 0.950 . S
H601 C577 0.949 . S
H602 C579 0.950 . S
H603 C581 0.950 . S
C604 C605 1.349 . S
C604 C606 1.327 . S
C604 H629 0.950 . S
C605 C604 1.349 . S
C605 C621 1.349 . S
C606 C604 1.327 . S
C606 C625 1.429 . S
C606 H630 0.950 . S
C607 C624 1.574 . S
C607 C626 1.368 . S
C607 H631 0.949 . S
H608 C612 0.949 . S
C609 C610 1.349 . S
C609 C611 1.327 . S
C609 H632 0.950 . S
C610 C609 1.349 . S
C610 C622 1.349 . S
C611 C609 1.327 . S
C611 C627 1.429 . S
C611 H633 0.950 . S
C612 H608 0.949 . S
C612 C620 1.574 . S
C612 C628 1.368 . S
H613 C621 0.950 . S
H614 C619 0.950 . S
H615 C620 0.949 . S
H616 C622 0.950 . S
H617 C623 0.950 . S
H618 C624 0.949 . S
C619 H614 0.950 . S
C619 C621 1.327 . S
C619 C625 1.429 . S
C620 C612 1.574 . S
C620 H615 0.949 . S
C620 C626 1.368 . S
C621 C605 1.349 . S
C621 H613 0.950 . S
C621 C619 1.327 . S
C622 C610 1.349 . S
C622 H616 0.950 . S
C622 C623 1.327 . S
C623 H617 0.950 . S
C623 C622 1.327 . S
C623 C627 1.429 . S
C624 C607 1.574 . S
C624 H618 0.949 . S
C624 C628 1.368 . S
C625 C606 1.429 . S
C625 C619 1.429 . S
C625 C626 1.523 . S
C626 C607 1.368 . S
C626 C620 1.368 . S
C626 C625 1.523 . S
C627 C611 1.429 . S
C627 C623 1.429 . S
C627 C628 1.523 . S
C628 C612 1.368 . S
C628 C624 1.368 . S
C628 C627 1.523 . S
H629 C604 0.950 . S
H630 C606 0.950 . S
H631 C607 0.949 . S
H632 C609 0.950 . S
H633 C611 0.950 . S
C634 C635 1.349 . S
C634 C636 1.327 . S
C634 H659 0.950 . S
C635 C634 1.349 . S
C635 C651 1.349 . S
C636 C634 1.327 . S
C636 C655 1.429 . S
C636 H660 0.950 . S
C637 C654 1.574 . S
C637 C656 1.368 . S
C637 H661 0.949 . S
H638 C642 0.949 . S
C639 C640 1.349 . S
C639 C641 1.327 . S
C639 H662 0.950 . S
C640 C639 1.349 . S
C640 C652 1.349 . S
C641 C639 1.327 . S
C641 C657 1.429 . S
C641 H663 0.950 . S
C642 H638 0.949 . S
C642 C650 1.574 . S
C642 C658 1.368 . S
H643 C651 0.950 . S
H644 C649 0.950 . S
H645 C650 0.949 . S
H646 C652 0.950 . S
H647 C653 0.950 . S
H648 C654 0.949 . S
C649 H644 0.950 . S
C649 C651 1.327 . S
C649 C655 1.429 . S
C650 C642 1.574 . S
C650 H645 0.949 . S
C650 C656 1.368 . S
C651 C635 1.349 . S
C651 H643 0.950 . S
C651 C649 1.327 . S
C652 C640 1.349 . S
C652 H646 0.950 . S
C652 C653 1.327 . S
C653 H647 0.950 . S
C653 C652 1.327 . S
C653 C657 1.429 . S
C654 C637 1.574 . S
C654 H648 0.949 . S
C654 C658 1.368 . S
C655 C636 1.429 . S
C655 C649 1.429 . S
C655 C656 1.523 . S
C656 C637 1.368 . S
C656 C650 1.368 . S
C656 C655 1.523 . S
C657 C641 1.429 . S
C657 C653 1.429 . S
C657 C658 1.523 . S
C658 C642 1.368 . S
C658 C654 1.368 . S
C658 C657 1.523 . S
H659 C634 0.950 . S
H660 C636 0.950 . S
H661 C637 0.949 . S
H662 C639 0.950 . S
H663 C641 0.950 . S
C664 C665 1.349 . S
C664 C666 1.327 . S
C664 H689 0.950 . S
C665 C664 1.349 . S
C665 C681 1.349 . S
C666 C664 1.327 . S
C666 C685 1.429 . S
C666 H690 0.950 . S
C667 C684 1.574 . S
C667 C686 1.368 . S
C667 H691 0.949 . S
H668 C672 0.949 . S
C669 C670 1.349 . S
C669 C671 1.327 . S
C669 H692 0.950 . S
C670 C669 1.349 . S
C670 C682 1.349 . S
C671 C669 1.327 . S
C671 C687 1.429 . S
C671 H693 0.950 . S
C672 H668 0.949 . S
C672 C680 1.574 . S
C672 C688 1.368 . S
H673 C681 0.950 . S
H674 C679 0.950 . S
H675 C680 0.949 . S
H676 C682 0.950 . S
H677 C683 0.950 . S
H678 C684 0.949 . S
C679 H674 0.950 . S
C679 C681 1.327 . S
C679 C685 1.429 . S
C680 C672 1.574 . S
C680 H675 0.949 . S
C680 C686 1.368 . S
C681 C665 1.349 . S
C681 H673 0.950 . S
C681 C679 1.327 . S
C682 C670 1.349 . S
C682 H676 0.950 . S
C682 C683 1.327 . S
C683 H677 0.950 . S
C683 C682 1.327 . S
C683 C687 1.429 . S
C684 C667 1.574 . S
C684 H678 0.949 . S
C684 C688 1.368 . S
C685 C666 1.429 . S
C685 C679 1.429 . S
C685 C686 1.523 . S
C686 C667 1.368 . S
C686 C680 1.368 . S
C686 C685 1.523 . S
C687 C671 1.429 . S
C687 C683 1.429 . S
C687 C688 1.523 . S
C688 C672 1.368 . S
C688 C684 1.368 . S
C688 C687 1.523 . S
H689 C664 0.950 . S
H690 C666 0.950 . S
H691 C667 0.949 . S
H692 C669 0.950 . S
H693 C671 0.950 . S
C694 C695 1.349 . S
C694 C696 1.327 . S
C694 H719 0.950 . S
C695 C694 1.349 . S
C695 C711 1.349 . S
C696 C694 1.327 . S
C696 C715 1.429 . S
C696 H720 0.950 . S
C697 C714 1.574 . S
C697 C716 1.368 . S
C697 H721 0.949 . S
H698 C702 0.949 . S
C699 C700 1.349 . S
C699 C701 1.327 . S
C699 H722 0.950 . S
C700 C699 1.349 . S
C700 C712 1.349 . S
C701 C699 1.327 . S
C701 C717 1.429 . S
C701 H723 0.950 . S
C702 H698 0.949 . S
C702 C710 1.574 . S
C702 C718 1.368 . S
H703 C711 0.950 . S
H704 C709 0.950 . S
H705 C710 0.949 . S
H706 C712 0.950 . S
H707 C713 0.950 . S
H708 C714 0.949 . S
C709 H704 0.950 . S
C709 C711 1.327 . S
C709 C715 1.429 . S
C710 C702 1.574 . S
C710 H705 0.949 . S
C710 C716 1.368 . S
C711 C695 1.349 . S
C711 H703 0.950 . S
C711 C709 1.327 . S
C712 C700 1.349 . S
C712 H706 0.950 . S
C712 C713 1.327 . S
C713 H707 0.950 . S
C713 C712 1.327 . S
C713 C717 1.429 . S
C714 C697 1.574 . S
C714 H708 0.949 . S
C714 C718 1.368 . S
C715 C696 1.429 . S
C715 C709 1.429 . S
C715 C716 1.523 . S
C716 C697 1.368 . S
C716 C710 1.368 . S
C716 C715 1.523 . S
C717 C701 1.429 . S
C717 C713 1.429 . S
C717 C718 1.523 . S
C718 C702 1.368 . S
C718 C714 1.368 . S
C718 C717 1.523 . S
H719 C694 0.950 . S
H720 C696 0.950 . S
H721 C697 0.949 . S
H722 C699 0.950 . S
H723 C701 0.950 . S
C724 C725 1.349 . S
C724 C726 1.327 . S
C724 H749 0.950 . S
C725 C724 1.349 . S
C725 C741 1.349 . S
C726 C724 1.327 . S
C726 C745 1.429 . S
C726 H750 0.950 . S
C727 C744 1.574 . S
C727 C746 1.368 . S
C727 H751 0.949 . S
H728 C732 0.949 . S
C729 C730 1.349 . S
C729 C731 1.327 . S
C729 H752 0.950 . S
C730 C729 1.349 . S
C730 C742 1.349 . S
C731 C729 1.327 . S
C731 C747 1.429 . S
C731 H753 0.950 . S
C732 H728 0.949 . S
C732 C740 1.574 . S
C732 C748 1.368 . S
H733 C741 0.950 . S
H734 C739 0.950 . S
H735 C740 0.949 . S
H736 C742 0.950 . S
H737 C743 0.950 . S
H738 C744 0.949 . S
C739 H734 0.950 . S
C739 C741 1.327 . S
C739 C745 1.429 . S
C740 C732 1.574 . S
C740 H735 0.949 . S
C740 C746 1.368 . S
C741 C725 1.349 . S
C741 H733 0.950 . S
C741 C739 1.327 . S
C742 C730 1.349 . S
C742 H736 0.950 . S
C742 C743 1.327 . S
C743 H737 0.950 . S
C743 C742 1.327 . S
C743 C747 1.429 . S
C744 C727 1.574 . S
C744 H738 0.949 . S
C744 C748 1.368 . S
C745 C726 1.429 . S
C745 C739 1.429 . S
C745 C746 1.523 . S
C746 C727 1.368 . S
C746 C740 1.368 . S
C746 C745 1.523 . S
C747 C731 1.429 . S
C747 C743 1.429 . S
C747 C748 1.523 . S
C748 C732 1.368 . S
C748 C744 1.368 . S
C748 C747 1.523 . S
H749 C724 0.950 . S
H750 C726 0.950 . S
H751 C727 0.949 . S
H752 C729 0.950 . S
H753 C731 0.950 . S
C754 C755 1.349 . S
C754 C756 1.327 . S
C754 H779 0.950 . S
C755 C754 1.349 . S
C755 C771 1.349 . S
C756 C754 1.327 . S
C756 C775 1.429 . S
C756 H780 0.950 . S
C757 C774 1.574 . S
C757 C776 1.368 . S
C757 H781 0.949 . S
H758 C762 0.949 . S
C759 C760 1.349 . S
C759 C761 1.327 . S
C759 H782 0.950 . S
C760 C759 1.349 . S
C760 C772 1.349 . S
C761 C759 1.327 . S
C761 C777 1.429 . S
C761 H783 0.950 . S
C762 H758 0.949 . S
C762 C770 1.574 . S
C762 C778 1.368 . S
H763 C771 0.950 . S
H764 C769 0.950 . S
H765 C770 0.949 . S
H766 C772 0.950 . S
H767 C773 0.950 . S
H768 C774 0.949 . S
C769 H764 0.950 . S
C769 C771 1.327 . S
C769 C775 1.429 . S
C770 C762 1.574 . S
C770 H765 0.949 . S
C770 C776 1.368 . S
C771 C755 1.349 . S
C771 H763 0.950 . S
C771 C769 1.327 . S
C772 C760 1.349 . S
C772 H766 0.950 . S
C772 C773 1.327 . S
C773 H767 0.950 . S
C773 C772 1.327 . S
C773 C777 1.429 . S
C774 C757 1.574 . S
C774 H768 0.949 . S
C774 C778 1.368 . S
C775 C756 1.429 . S
C775 C769 1.429 . S
C775 C776 1.523 . S
C776 C757 1.368 . S
C776 C770 1.368 . S
C776 C775 1.523 . S
C777 C761 1.429 . S
C777 C773 1.429 . S
C777 C778 1.523 . S
C778 C762 1.368 . S
C778 C774 1.368 . S
C778 C777 1.523 . S
H779 C754 0.950 . S
H780 C756 0.950 . S
H781 C757 0.949 . S
H782 C759 0.950 . S
H783 C761 0.950 . S
C784 C785 1.349 . S
C784 C786 1.327 . S
C784 H809 0.950 . S
C785 C784 1.349 . S
C785 C801 1.349 . S
C786 C784 1.327 . S
C786 C805 1.429 . S
C786 H810 0.950 . S
C787 C804 1.574 1_554 S
C787 C806 1.368 . S
C787 H811 0.949 . S
H788 C792 0.949 . S
C789 C790 1.349 . S
C789 C791 1.327 . S
C789 H812 0.950 . S
C790 C789 1.349 . S
C790 C802 1.349 . S
C791 C789 1.327 . S
C791 C807 1.429 . S
C791 H813 0.950 . S
C792 H788 0.949 . S
C792 C800 1.574 1_556 S
C792 C808 1.368 . S
H793 C801 0.950 . S
H794 C799 0.950 . S
H795 C800 0.949 . S
H796 C802 0.950 . S
H797 C803 0.950 . S
H798 C804 0.949 . S
C799 H794 0.950 . S
C799 C801 1.327 . S
C799 C805 1.429 . S
C800 C792 1.574 1_554 S
C800 H795 0.949 . S
C800 C806 1.368 . S
C801 C785 1.349 . S
C801 H793 0.950 . S
C801 C799 1.327 . S
C802 C790 1.349 . S
C802 H796 0.950 . S
C802 C803 1.327 . S
C803 H797 0.950 . S
C803 C802 1.327 . S
C803 C807 1.429 . S
C804 C787 1.574 1_556 S
C804 H798 0.949 . S
C804 C808 1.368 . S
C805 C786 1.429 . S
C805 C799 1.429 . S
C805 C806 1.523 . S
C806 C787 1.368 . S
C806 C800 1.368 . S
C806 C805 1.523 . S
C807 C791 1.429 . S
C807 C803 1.429 . S
C807 C808 1.523 . S
C808 C792 1.368 . S
C808 C804 1.368 . S
C808 C807 1.523 . S
H809 C784 0.950 . S
H810 C786 0.950 . S
H811 C787 0.949 . S
H812 C789 0.950 . S
H813 C791 0.950 . S
C814 C815 1.349 . S
C814 C816 1.327 . S
C814 H839 0.950 . S
C815 C814 1.349 . S
C815 C831 1.349 . S
C816 C814 1.327 . S
C816 C835 1.429 . S
C816 H840 0.950 . S
C817 C834 1.574 . S
C817 C836 1.368 . S
C817 H841 0.949 . S
H818 C822 0.949 . S
C819 C820 1.349 . S
C819 C821 1.327 . S
C819 H842 0.950 . S
C820 C819 1.349 . S
C820 C832 1.349 . S
C821 C819 1.327 . S
C821 C837 1.429 . S
C821 H843 0.950 . S
C822 H818 0.949 . S
C822 C830 1.574 . S
C822 C838 1.368 . S
H823 C831 0.950 . S
H824 C829 0.950 . S
H825 C830 0.949 . S
H826 C832 0.950 . S
H827 C833 0.950 . S
H828 C834 0.949 . S
C829 H824 0.950 . S
C829 C831 1.327 . S
C829 C835 1.429 . S
C830 C822 1.574 . S
C830 H825 0.949 . S
C830 C836 1.368 . S
C831 C815 1.349 . S
C831 H823 0.950 . S
C831 C829 1.327 . S
C832 C820 1.349 . S
C832 H826 0.950 . S
C832 C833 1.327 . S
C833 H827 0.950 . S
C833 C832 1.327 . S
C833 C837 1.429 . S
C834 C817 1.574 . S
C834 H828 0.949 . S
C834 C838 1.368 . S
C835 C816 1.429 . S
C835 C829 1.429 . S
C835 C836 1.523 . S
C836 C817 1.368 . S
C836 C830 1.368 . S
C836 C835 1.523 . S
C837 C821 1.429 . S
C837 C833 1.429 . S
C837 C838 1.523 . S
C838 C822 1.368 . S
C838 C834 1.368 . S
C838 C837 1.523 . S
H839 C814 0.950 . S
H840 C816 0.950 . S
H841 C817 0.949 . S
H842 C819 0.950 . S
H843 C821 0.950 . S
C844 C845 1.349 . S
C844 C846 1.327 . S
C844 H869 0.950 . S
C845 C844 1.349 . S
C845 C861 1.349 . S
C846 C844 1.327 . S
C846 C865 1.429 . S
C846 H870 0.950 . S
C847 C864 1.574 1_556 S
C847 C866 1.368 . S
C847 H871 0.949 . S
H848 C852 0.949 . S
C849 C850 1.349 . S
C849 C851 1.327 . S
C849 H872 0.950 . S
C850 C849 1.349 . S
C850 C862 1.349 . S
C851 C849 1.327 . S
C851 C867 1.429 . S
C851 H873 0.950 . S
C852 H848 0.949 . S
C852 C860 1.574 1_554 S
C852 C868 1.368 . S
H853 C861 0.950 . S
H854 C859 0.950 . S
H855 C860 0.949 . S
H856 C862 0.950 . S
H857 C863 0.950 . S
H858 C864 0.949 . S
C859 H854 0.950 . S
C859 C861 1.327 . S
C859 C865 1.429 . S
C860 C852 1.574 1_556 S
C860 H855 0.949 . S
C860 C866 1.368 . S
C861 C845 1.349 . S
C861 H853 0.950 . S
C861 C859 1.327 . S
C862 C850 1.349 . S
C862 H856 0.950 . S
C862 C863 1.327 . S
C863 H857 0.950 . S
C863 C862 1.327 . S
C863 C867 1.429 . S
C864 C847 1.574 1_554 S
C864 H858 0.949 . S
C864 C868 1.368 . S
C865 C846 1.429 . S
C865 C859 1.429 . S
C865 C866 1.523 . S
C866 C847 1.368 . S
C866 C860 1.368 . S
C866 C865 1.523 . S
C867 C851 1.429 . S
C867 C863 1.429 . S
C867 C868 1.523 . S
C868 C852 1.368 . S
C868 C864 1.368 . S
C868 C867 1.523 . S
H869 C844 0.950 . S
H870 C846 0.950 . S
H871 C847 0.949 . S
H872 C849 0.950 . S
H873 C851 0.950 . S
C874 C875 1.349 . S
C874 C876 1.327 . S
C874 H899 0.950 . S
C875 C874 1.349 . S
C875 C891 1.349 . S
C876 C874 1.327 . S
C876 C895 1.429 . S
C876 H900 0.950 . S
C877 C894 1.574 . S
C877 C896 1.368 . S
C877 H901 0.949 . S
H878 C882 0.949 . S
C879 C880 1.349 . S
C879 C881 1.327 . S
C879 H902 0.950 . S
C880 C879 1.349 . S
C880 C892 1.349 . S
C881 C879 1.327 . S
C881 C897 1.429 . S
C881 H903 0.950 . S
C882 H878 0.949 . S
C882 C890 1.574 . S
C882 C898 1.368 . S
H883 C891 0.950 . S
H884 C889 0.950 . S
H885 C890 0.949 . S
H886 C892 0.950 . S
H887 C893 0.950 . S
H888 C894 0.949 . S
C889 H884 0.950 . S
C889 C891 1.327 . S
C889 C895 1.429 . S
C890 C882 1.574 . S
C890 H885 0.949 . S
C890 C896 1.368 . S
C891 C875 1.349 . S
C891 H883 0.950 . S
C891 C889 1.327 . S
C892 C880 1.349 . S
C892 H886 0.950 . S
C892 C893 1.327 . S
C893 H887 0.950 . S
C893 C892 1.327 . S
C893 C897 1.429 . S
C894 C877 1.574 . S
C894 H888 0.949 . S
C894 C898 1.368 . S
C895 C876 1.429 . S
C895 C889 1.429 . S
C895 C896 1.523 . S
C896 C877 1.368 . S
C896 C890 1.368 . S
C896 C895 1.523 . S
C897 C881 1.429 . S
C897 C893 1.429 . S
C897 C898 1.523 . S
C898 C882 1.368 . S
C898 C894 1.368 . S
C898 C897 1.523 . S
H899 C874 0.950 . S
H900 C876 0.950 . S
H901 C877 0.949 . S
H902 C879 0.950 . S
H903 C881 0.950 . S
C904 C905 1.349 . S
C904 C906 1.327 . S
C904 H929 0.950 . S
C905 C904 1.349 . S
C905 C921 1.349 . S
C906 C904 1.327 . S
C906 C925 1.429 . S
C906 H930 0.950 . S
C907 C924 1.574 1_554 S
C907 C926 1.368 . S
C907 H931 0.949 . S
H908 C912 0.949 . S
C909 C910 1.349 . S
C909 C911 1.327 . S
C909 H932 0.950 . S
C910 C909 1.349 . S
C910 C922 1.349 . S
C911 C909 1.327 . S
C911 C927 1.429 . S
C911 H933 0.950 . S
C912 H908 0.949 . S
C912 C920 1.574 1_556 S
C912 C928 1.368 . S
H913 C921 0.950 . S
H914 C919 0.950 . S
H915 C920 0.949 . S
H916 C922 0.950 . S
H917 C923 0.950 . S
H918 C924 0.949 . S
C919 H914 0.950 . S
C919 C921 1.327 . S
C919 C925 1.429 . S
C920 C912 1.574 1_554 S
C920 H915 0.949 . S
C920 C926 1.368 . S
C921 C905 1.349 . S
C921 H913 0.950 . S
C921 C919 1.327 . S
C922 C910 1.349 . S
C922 H916 0.950 . S
C922 C923 1.327 . S
C923 H917 0.950 . S
C923 C922 1.327 . S
C923 C927 1.429 . S
C924 C907 1.574 1_556 S
C924 H918 0.949 . S
C924 C928 1.368 . S
C925 C906 1.429 . S
C925 C919 1.429 . S
C925 C926 1.523 . S
C926 C907 1.368 . S
C926 C920 1.368 . S
C926 C925 1.523 . S
C927 C911 1.429 . S
C927 C923 1.429 . S
C927 C928 1.523 . S
C928 C912 1.368 . S
C928 C924 1.368 . S
C928 C927 1.523 . S
H929 C904 0.950 . S
H930 C906 0.950 . S
H931 C907 0.949 . S
H932 C909 0.950 . S
H933 C911 0.950 . S
C934 C935 1.349 . S
C934 C936 1.327 . S
C934 H959 0.950 . S
C935 C934 1.349 . S
C935 C951 1.349 . S
C936 C934 1.327 . S
C936 C955 1.429 . S
C936 H960 0.950 . S
C937 C954 1.574 . S
C937 C956 1.368 . S
C937 H961 0.949 . S
H938 C942 0.949 . S
C939 C940 1.349 . S
C939 C941 1.327 . S
C939 H962 0.950 . S
C940 C939 1.349 . S
C940 C952 1.349 . S
C941 C939 1.327 . S
C941 C957 1.429 . S
C941 H963 0.950 . S
C942 H938 0.949 . S
C942 C950 1.574 . S
C942 C958 1.368 . S
H943 C951 0.950 . S
H944 C949 0.950 . S
H945 C950 0.949 . S
H946 C952 0.950 . S
H947 C953 0.950 . S
H948 C954 0.949 . S
C949 H944 0.950 . S
C949 C951 1.327 . S
C949 C955 1.429 . S
C950 C942 1.574 . S
C950 H945 0.949 . S
C950 C956 1.368 . S
C951 C935 1.349 . S
C951 H943 0.950 . S
C951 C949 1.327 . S
C952 C940 1.349 . S
C952 H946 0.950 . S
C952 C953 1.327 . S
C953 H947 0.950 . S
C953 C952 1.327 . S
C953 C957 1.429 . S
C954 C937 1.574 . S
C954 H948 0.949 . S
C954 C958 1.368 . S
C955 C936 1.429 . S
C955 C949 1.429 . S
C955 C956 1.523 . S
C956 C937 1.368 . S
C956 C950 1.368 . S
C956 C955 1.523 . S
C957 C941 1.429 . S
C957 C953 1.429 . S
C957 C958 1.523 . S
C958 C942 1.368 . S
C958 C954 1.368 . S
C958 C957 1.523 . S
H959 C934 0.950 . S
H960 C936 0.950 . S
H961 C937 0.949 . S
H962 C939 0.950 . S
H963 C941 0.950 . S
C964 C965 1.349 . S
C964 C966 1.327 . S
C964 H989 0.950 . S
C965 C964 1.349 . S
C965 C981 1.349 . S
C966 C964 1.327 . S
C966 C985 1.429 . S
C966 H990 0.950 . S
C967 C984 1.574 1_554 S
C967 C986 1.368 . S
C967 H991 0.949 . S
H968 C972 0.949 . S
C969 C970 1.349 . S
C969 C971 1.327 . S
C969 H992 0.950 . S
C970 C969 1.349 . S
C970 C982 1.349 . S
C971 C969 1.327 . S
C971 C987 1.429 . S
C971 H993 0.950 . S
C972 H968 0.949 . S
C972 C980 1.574 1_556 S
C972 C988 1.368 . S
H973 C981 0.950 . S
H974 C979 0.950 . S
H975 C980 0.949 . S
H976 C982 0.950 . S
H977 C983 0.950 . S
H978 C984 0.949 . S
C979 H974 0.950 . S
C979 C981 1.327 . S
C979 C985 1.429 . S
C980 C972 1.574 1_554 S
C980 H975 0.949 . S
C980 C986 1.368 . S
C981 C965 1.349 . S
C981 H973 0.950 . S
C981 C979 1.327 . S
C982 C970 1.349 . S
C982 H976 0.950 . S
C982 C983 1.327 . S
C983 H977 0.950 . S
C983 C982 1.327 . S
C983 C987 1.429 . S
C984 C967 1.574 1_556 S
C984 H978 0.949 . S
C984 C988 1.368 . S
C985 C966 1.429 . S
C985 C979 1.429 . S
C985 C986 1.523 . S
C986 C967 1.368 . S
C986 C980 1.368 . S
C986 C985 1.523 . S
C987 C971 1.429 . S
C987 C983 1.429 . S
C987 C988 1.523 . S
C988 C972 1.368 . S
C988 C984 1.368 . S
C988 C987 1.523 . S
H989 C964 0.950 . S
H990 C966 0.950 . S
H991 C967 0.949 . S
H992 C969 0.950 . S
H993 C971 0.950 . S
C994 C995 1.349 . S
C994 C996 1.327 . S
C994 H1019 0.950 . S
C995 C994 1.349 . S
C995 C1011 1.349 . S
C996 C994 1.327 . S
C996 C1015 1.429 . S
C996 H1020 0.950 . S
C997 C1014 1.574 . S
C997 C1016 1.368 . S
C997 H1021 0.949 . S
H998 C1002 0.949 . S
C999 C1000 1.349 . S
C999 C1001 1.327 . S
C999 H1022 0.950 . S
C1000 C999 1.349 . S
C1000 C1012 1.349 . S
C1001 C999 1.327 . S
C1001 C1017 1.429 . S
C1001 H1023 0.950 . S
C1002 H998 0.949 . S
C1002 C1010 1.574 . S
C1002 C1018 1.368 . S
H1003 C1011 0.950 . S
H1004 C1009 0.950 . S
H1005 C1010 0.949 . S
H1006 C1012 0.950 . S
H1007 C1013 0.950 . S
H1008 C1014 0.949 . S
C1009 H1004 0.950 . S
C1009 C1011 1.327 . S
C1009 C1015 1.429 . S
C1010 C1002 1.574 . S
C1010 H1005 0.949 . S
C1010 C1016 1.368 . S
C1011 C995 1.349 . S
C1011 H1003 0.950 . S
C1011 C1009 1.327 . S
C1012 C1000 1.349 . S
C1012 H1006 0.950 . S
C1012 C1013 1.327 . S
C1013 H1007 0.950 . S
C1013 C1012 1.327 . S
C1013 C1017 1.429 . S
C1014 C997 1.574 . S
C1014 H1008 0.949 . S
C1014 C1018 1.368 . S
C1015 C996 1.429 . S
C1015 C1009 1.429 . S
C1015 C1016 1.523 . S
C1016 C997 1.368 . S
C1016 C1010 1.368 . S
C1016 C1015 1.523 . S
C1017 C1001 1.429 . S
C1017 C1013 1.429 . S
C1017 C1018 1.523 . S
C1018 C1002 1.368 . S
C1018 C1014 1.368 . S
C1018 C1017 1.523 . S
H1019 C994 0.950 . S
H1020 C996 0.950 . S
H1021 C997 0.949 . S
H1022 C999 0.950 . S
H1023 C1001 0.950 . S
C1024 C1025 1.349 . S
C1024 C1026 1.327 . S
C1024 H1049 0.950 . S
C1025 C1024 1.349 . S
C1025 C1041 1.349 . S
C1026 C1024 1.327 . S
C1026 C1045 1.429 . S
C1026 H1050 0.950 . S
C1027 C1044 1.574 . S
C1027 C1046 1.368 1_655 S
C1027 H1051 0.949 . S
H1028 C1032 0.949 . S
C1029 C1030 1.349 . S
C1029 C1031 1.327 . S
C1029 H1052 0.950 . S
C1030 C1029 1.349 . S
C1030 C1042 1.349 . S
C1031 C1029 1.327 . S
C1031 C1047 1.429 . S
C1031 H1053 0.950 . S
C1032 H1028 0.949 . S
C1032 C1040 1.574 . S
C1032 C1048 1.368 1_455 S
H1033 C1041 0.950 . S
H1034 C1039 0.950 . S
H1035 C1040 0.949 . S
H1036 C1042 0.950 . S
H1037 C1043 0.950 . S
H1038 C1044 0.949 . S
C1039 H1034 0.950 . S
C1039 C1041 1.327 . S
C1039 C1045 1.429 . S
C1040 C1032 1.574 . S
C1040 H1035 0.949 . S
C1040 C1046 1.368 . S
C1041 C1025 1.349 . S
C1041 H1033 0.950 . S
C1041 C1039 1.327 . S
C1042 C1030 1.349 . S
C1042 H1036 0.950 . S
C1042 C1043 1.327 . S
C1043 H1037 0.950 . S
C1043 C1042 1.327 . S
C1043 C1047 1.429 . S
C1044 C1027 1.574 . S
C1044 H1038 0.949 . S
C1044 C1048 1.368 . S
C1045 C1026 1.429 . S
C1045 C1039 1.429 . S
C1045 C1046 1.523 . S
C1046 C1027 1.368 1_455 S
C1046 C1040 1.368 . S
C1046 C1045 1.523 . S
C1047 C1031 1.429 . S
C1047 C1043 1.429 . S
C1047 C1048 1.523 . S
C1048 C1032 1.368 1_655 S
C1048 C1044 1.368 . S
C1048 C1047 1.523 . S
H1049 C1024 0.950 . S
H1050 C1026 0.950 . S
H1051 C1027 0.949 . S
H1052 C1029 0.950 . S
H1053 C1031 0.950 . S
C1054 C1055 1.349 . S
C1054 C1056 1.327 . S
C1054 H1079 0.950 . S
C1055 C1054 1.349 . S
C1055 C1071 1.349 . S
C1056 C1054 1.327 . S
C1056 C1075 1.429 . S
C1056 H1080 0.950 . S
C1057 C1074 1.574 . S
C1057 C1076 1.368 . S
C1057 H1081 0.949 . S
H1058 C1062 0.949 . S
C1059 C1060 1.349 . S
C1059 C1061 1.327 . S
C1059 H1082 0.950 . S
C1060 C1059 1.349 . S
C1060 C1072 1.349 . S
C1061 C1059 1.327 . S
C1061 C1077 1.429 . S
C1061 H1083 0.950 . S
C1062 H1058 0.949 . S
C1062 C1070 1.574 . S
C1062 C1078 1.368 . S
H1063 C1071 0.950 . S
H1064 C1069 0.950 . S
H1065 C1070 0.949 . S
H1066 C1072 0.950 . S
H1067 C1073 0.950 . S
H1068 C1074 0.949 . S
C1069 H1064 0.950 . S
C1069 C1071 1.327 . S
C1069 C1075 1.429 . S
C1070 C1062 1.574 . S
C1070 H1065 0.949 . S
C1070 C1076 1.368 1_545 S
C1071 C1055 1.349 . S
C1071 H1063 0.950 . S
C1071 C1069 1.327 . S
C1072 C1060 1.349 . S
C1072 H1066 0.950 . S
C1072 C1073 1.327 . S
C1073 H1067 0.950 . S
C1073 C1072 1.327 . S
C1073 C1077 1.429 . S
C1074 C1057 1.574 . S
C1074 H1068 0.949 . S
C1074 C1078 1.368 1_565 S
C1075 C1056 1.429 . S
C1075 C1069 1.429 . S
C1075 C1076 1.523 . S
C1076 C1057 1.368 . S
C1076 C1070 1.368 1_565 S
C1076 C1075 1.523 . S
C1077 C1061 1.429 . S
C1077 C1073 1.429 . S
C1077 C1078 1.523 . S
C1078 C1062 1.368 . S
C1078 C1074 1.368 1_545 S
C1078 C1077 1.523 . S
H1079 C1054 0.950 . S
H1080 C1056 0.950 . S
H1081 C1057 0.949 . S
H1082 C1059 0.950 . S
H1083 C1061 0.950 . S
C1084 C1085 1.349 . S
C1084 C1086 1.327 . S
C1084 H1109 0.950 . S
C1085 C1084 1.349 . S
C1085 C1101 1.349 . S
C1086 C1084 1.327 . S
C1086 C1105 1.429 . S
C1086 H1110 0.950 . S
C1087 C1104 1.574 1_565 S
C1087 C1106 1.368 . S
C1087 H1111 0.949 . S
H1088 C1092 0.949 . S
C1089 C1090 1.349 . S
C1089 C1091 1.327 . S
C1089 H1112 0.950 . S
C1090 C1089 1.349 . S
C1090 C1102 1.349 . S
C1091 C1089 1.327 . S
C1091 C1107 1.429 . S
C1091 H1113 0.950 . S
C1092 H1088 0.949 . S
C1092 C1100 1.574 1_545 S
C1092 C1108 1.368 . S
H1093 C1101 0.950 . S
H1094 C1099 0.950 . S
H1095 C1100 0.949 . S
H1096 C1102 0.950 . S
H1097 C1103 0.950 . S
H1098 C1104 0.949 . S
C1099 H1094 0.950 . S
C1099 C1101 1.327 . S
C1099 C1105 1.429 . S
C1100 C1092 1.574 1_565 S
C1100 H1095 0.949 . S
C1100 C1106 1.368 . S
C1101 C1085 1.349 . S
C1101 H1093 0.950 . S
C1101 C1099 1.327 . S
C1102 C1090 1.349 . S
C1102 H1096 0.950 . S
C1102 C1103 1.327 . S
C1103 H1097 0.950 . S
C1103 C1102 1.327 . S
C1103 C1107 1.429 . S
C1104 C1087 1.574 1_545 S
C1104 H1098 0.949 . S
C1104 C1108 1.368 . S
C1105 C1086 1.429 . S
C1105 C1099 1.429 . S
C1105 C1106 1.523 . S
C1106 C1087 1.368 . S
C1106 C1100 1.368 . S
C1106 C1105 1.523 . S
C1107 C1091 1.429 . S
C1107 C1103 1.429 . S
C1107 C1108 1.523 . S
C1108 C1092 1.368 . S
C1108 C1104 1.368 . S
C1108 C1107 1.523 . S
H1109 C1084 0.950 . S
H1110 C1086 0.950 . S
H1111 C1087 0.949 . S
H1112 C1089 0.950 . S
H1113 C1091 0.950 . S
C1114 C1115 1.349 . S
C1114 C1116 1.327 . S
C1114 H1139 0.950 . S
C1115 C1114 1.349 . S
C1115 C1131 1.349 . S
C1116 C1114 1.327 . S
C1116 C1135 1.429 . S
C1116 H1140 0.950 . S
C1117 C1134 1.574 1_455 S
C1117 C1136 1.368 . S
C1117 H1141 0.949 . S
H1118 C1122 0.949 . S
C1119 C1120 1.349 . S
C1119 C1121 1.327 . S
C1119 H1142 0.950 . S
C1120 C1119 1.349 . S
C1120 C1132 1.349 . S
C1121 C1119 1.327 . S
C1121 C1137 1.429 . S
C1121 H1143 0.950 . S
C1122 H1118 0.949 . S
C1122 C1130 1.574 1_655 S
C1122 C1138 1.368 . S
H1123 C1131 0.950 . S
H1124 C1129 0.950 . S
H1125 C1130 0.949 . S
H1126 C1132 0.950 . S
H1127 C1133 0.950 . S
H1128 C1134 0.949 . S
C1129 H1124 0.950 . S
C1129 C1131 1.327 . S
C1129 C1135 1.429 . S
C1130 C1122 1.574 1_455 S
C1130 H1125 0.949 . S
C1130 C1136 1.368 . S
C1131 C1115 1.349 . S
C1131 H1123 0.950 . S
C1131 C1129 1.327 . S
C1132 C1120 1.349 . S
C1132 H1126 0.950 . S
C1132 C1133 1.327 . S
C1133 H1127 0.950 . S
C1133 C1132 1.327 . S
C1133 C1137 1.429 . S
C1134 C1117 1.574 1_655 S
C1134 H1128 0.949 . S
C1134 C1138 1.368 . S
C1135 C1116 1.429 . S
C1135 C1129 1.429 . S
C1135 C1136 1.523 . S
C1136 C1117 1.368 . S
C1136 C1130 1.368 . S
C1136 C1135 1.523 . S
C1137 C1121 1.429 . S
C1137 C1133 1.429 . S
C1137 C1138 1.523 . S
C1138 C1122 1.368 . S
C1138 C1134 1.368 . S
C1138 C1137 1.523 . S
H1139 C1114 0.950 . S
H1140 C1116 0.950 . S
H1141 C1117 0.949 . S
H1142 C1119 0.950 . S
H1143 C1121 0.950 . S
C1144 C1145 1.349 . S
C1144 C1146 1.327 . S
C1144 H1169 0.950 . S
C1145 C1144 1.349 . S
C1145 C1161 1.349 . S
C1146 C1144 1.327 . S
C1146 C1165 1.429 . S
C1146 H1170 0.950 . S
C1147 C1164 1.574 . S
C1147 C1166 1.368 1_455 S
C1147 H1171 0.949 . S
H1148 C1152 0.949 . S
C1149 C1150 1.349 . S
C1149 C1151 1.327 . S
C1149 H1172 0.950 . S
C1150 C1149 1.349 . S
C1150 C1162 1.349 . S
C1151 C1149 1.327 . S
C1151 C1167 1.429 . S
C1151 H1173 0.950 . S
C1152 H1148 0.949 . S
C1152 C1160 1.574 . S
C1152 C1168 1.368 1_655 S
H1153 C1161 0.950 . S
H1154 C1159 0.950 . S
H1155 C1160 0.949 . S
H1156 C1162 0.950 . S
H1157 C1163 0.950 . S
H1158 C1164 0.949 . S
C1159 H1154 0.950 . S
C1159 C1161 1.327 . S
C1159 C1165 1.429 . S
C1160 C1152 1.574 . S
C1160 H1155 0.949 . S
C1160 C1166 1.368 . S
C1161 C1145 1.349 . S
C1161 H1153 0.950 . S
C1161 C1159 1.327 . S
C1162 C1150 1.349 . S
C1162 H1156 0.950 . S
C1162 C1163 1.327 . S
C1163 H1157 0.950 . S
C1163 C1162 1.327 . S
C1163 C1167 1.429 . S
C1164 C1147 1.574 . S
C1164 H1158 0.949 . S
C1164 C1168 1.368 . S
C1165 C1146 1.429 . S
C1165 C1159 1.429 . S
C1165 C1166 1.523 . S
C1166 C1147 1.368 1_655 S
C1166 C1160 1.368 . S
C1166 C1165 1.523 . S
C1167 C1151 1.429 . S
C1167 C1163 1.429 . S
C1167 C1168 1.523 . S
C1168 C1152 1.368 1_455 S
C1168 C1164 1.368 . S
C1168 C1167 1.523 . S
H1169 C1144 0.950 . S
H1170 C1146 0.950 . S
H1171 C1147 0.949 . S
H1172 C1149 0.950 . S
H1173 C1151 0.950 . S
C1174 C1175 1.349 . S
C1174 C1176 1.327 . S
C1174 H1199 0.950 . S
C1175 C1174 1.349 . S
C1175 C1191 1.349 . S
C1176 C1174 1.327 . S
C1176 C1195 1.429 . S
C1176 H1200 0.950 . S
C1177 C1194 1.574 . S
C1177 C1196 1.368 . S
C1177 H1201 0.949 . S
H1178 C1182 0.949 . S
C1179 C1180 1.349 . S
C1179 C1181 1.327 . S
C1179 H1202 0.950 . S
C1180 C1179 1.349 . S
C1180 C1192 1.349 . S
C1181 C1179 1.327 . S
C1181 C1197 1.429 . S
C1181 H1203 0.950 . S
C1182 H1178 0.949 . S
C1182 C1190 1.574 . S
C1182 C1198 1.368 . S
H1183 C1191 0.950 . S
H1184 C1189 0.950 . S
H1185 C1190 0.949 . S
H1186 C1192 0.950 . S
H1187 C1193 0.950 . S
H1188 C1194 0.949 . S
C1189 H1184 0.950 . S
C1189 C1191 1.327 . S
C1189 C1195 1.429 . S
C1190 C1182 1.574 . S
C1190 H1185 0.949 . S
C1190 C1196 1.368 1_565 S
C1191 C1175 1.349 . S
C1191 H1183 0.950 . S
C1191 C1189 1.327 . S
C1192 C1180 1.349 . S
C1192 H1186 0.950 . S
C1192 C1193 1.327 . S
C1193 H1187 0.950 . S
C1193 C1192 1.327 . S
C1193 C1197 1.429 . S
C1194 C1177 1.574 . S
C1194 H1188 0.949 . S
C1194 C1198 1.368 1_545 S
C1195 C1176 1.429 . S
C1195 C1189 1.429 . S
C1195 C1196 1.523 . S
C1196 C1177 1.368 . S
C1196 C1190 1.368 1_545 S
C1196 C1195 1.523 . S
C1197 C1181 1.429 . S
C1197 C1193 1.429 . S
C1197 C1198 1.523 . S
C1198 C1182 1.368 . S
C1198 C1194 1.368 1_565 S
C1198 C1197 1.523 . S
H1199 C1174 0.950 . S
H1200 C1176 0.950 . S
H1201 C1177 0.949 . S
H1202 C1179 0.950 . S
H1203 C1181 0.950 . S
C1204 C1205 1.349 . S
C1204 C1206 1.327 . S
C1204 H1229 0.950 . S
C1205 C1204 1.349 . S
C1205 C1221 1.349 . S
C1206 C1204 1.327 . S
C1206 C1225 1.429 . S
C1206 H1230 0.950 . S
C1207 C1224 1.574 1_565 S
C1207 C1226 1.368 . S
C1207 H1231 0.949 . S
H1208 C1212 0.949 . S
C1209 C1210 1.349 . S
C1209 C1211 1.327 . S
C1209 H1232 0.950 . S
C1210 C1209 1.349 . S
C1210 C1222 1.349 . S
C1211 C1209 1.327 . S
C1211 C1227 1.429 . S
C1211 H1233 0.950 . S
C1212 H1208 0.949 . S
C1212 C1220 1.574 1_545 S
C1212 C1228 1.368 . S
H1213 C1221 0.950 . S
H1214 C1219 0.950 . S
H1215 C1220 0.949 . S
H1216 C1222 0.950 . S
H1217 C1223 0.950 . S
H1218 C1224 0.949 . S
C1219 H1214 0.950 . S
C1219 C1221 1.327 . S
C1219 C1225 1.429 . S
C1220 C1212 1.574 1_565 S
C1220 H1215 0.949 . S
C1220 C1226 1.368 . S
C1221 C1205 1.349 . S
C1221 H1213 0.950 . S
C1221 C1219 1.327 . S
C1222 C1210 1.349 . S
C1222 H1216 0.950 . S
C1222 C1223 1.327 . S
C1223 H1217 0.950 . S
C1223 C1222 1.327 . S
C1223 C1227 1.429 . S
C1224 C1207 1.574 1_545 S
C1224 H1218 0.949 . S
C1224 C1228 1.368 . S
C1225 C1206 1.429 . S
C1225 C1219 1.429 . S
C1225 C1226 1.523 . S
C1226 C1207 1.368 . S
C1226 C1220 1.368 . S
C1226 C1225 1.523 . S
C1227 C1211 1.429 . S
C1227 C1223 1.429 . S
C1227 C1228 1.523 . S
C1228 C1212 1.368 . S
C1228 C1224 1.368 . S
C1228 C1227 1.523 . S
H1229 C1204 0.950 . S
H1230 C1206 0.950 . S
H1231 C1207 0.949 . S
H1232 C1209 0.950 . S
H1233 C1211 0.950 . S
C1234 C1235 1.349 . S
C1234 C1236 1.327 . S
C1234 H1259 0.950 . S
C1235 C1234 1.349 . S
C1235 C1251 1.349 . S
C1236 C1234 1.327 . S
C1236 C1255 1.429 . S
C1236 H1260 0.950 . S
C1237 C1254 1.574 1_455 S
C1237 C1256 1.368 . S
C1237 H1261 0.949 . S
H1238 C1242 0.949 . S
C1239 C1240 1.349 . S
C1239 C1241 1.327 . S
C1239 H1262 0.950 . S
C1240 C1239 1.349 . S
C1240 C1252 1.349 . S
C1241 C1239 1.327 . S
C1241 C1257 1.429 . S
C1241 H1263 0.950 . S
C1242 H1238 0.949 . S
C1242 C1250 1.574 1_655 S
C1242 C1258 1.368 . S
H1243 C1251 0.950 . S
H1244 C1249 0.950 . S
H1245 C1250 0.949 . S
H1246 C1252 0.950 . S
H1247 C1253 0.950 . S
H1248 C1254 0.949 . S
C1249 H1244 0.950 . S
C1249 C1251 1.327 . S
C1249 C1255 1.429 . S
C1250 C1242 1.574 1_455 S
C1250 H1245 0.949 . S
C1250 C1256 1.368 . S
C1251 C1235 1.349 . S
C1251 H1243 0.950 . S
C1251 C1249 1.327 . S
C1252 C1240 1.349 . S
C1252 H1246 0.950 . S
C1252 C1253 1.327 . S
C1253 H1247 0.950 . S
C1253 C1252 1.327 . S
C1253 C1257 1.429 . S
C1254 C1237 1.574 1_655 S
C1254 H1248 0.949 . S
C1254 C1258 1.368 . S
C1255 C1236 1.429 . S
C1255 C1249 1.429 . S
C1255 C1256 1.523 . S
C1256 C1237 1.368 . S
C1256 C1250 1.368 . S
C1256 C1255 1.523 . S
C1257 C1241 1.429 . S
C1257 C1253 1.429 . S
C1257 C1258 1.523 . S
C1258 C1242 1.368 . S
C1258 C1254 1.368 . S
C1258 C1257 1.523 . S
H1259 C1234 0.950 . S
H1260 C1236 0.950 . S
H1261 C1237 0.949 . S
H1262 C1239 0.950 . S
H1263 C1241 0.950 . S
C1264 C1265 1.349 . S
C1264 C1266 1.327 . S
C1264 H1289 0.950 . S
C1265 C1264 1.349 . S
C1265 C1281 1.349 . S
C1266 C1264 1.327 . S
C1266 C1285 1.429 . S
C1266 H1290 0.950 . S
C1267 C1284 1.574 . S
C1267 C1286 1.368 . S
C1267 H1291 0.949 . S
H1268 C1272 0.949 . S
C1269 C1270 1.349 . S
C1269 C1271 1.327 . S
C1269 H1292 0.950 . S
C1270 C1269 1.349 . S
C1270 C1282 1.349 . S
C1271 C1269 1.327 . S
C1271 C1287 1.429 . S
C1271 H1293 0.950 . S
C1272 H1268 0.949 . S
C1272 C1280 1.574 . S
C1272 C1288 1.368 . S
H1273 C1281 0.950 . S
H1274 C1279 0.950 . S
H1275 C1280 0.949 . S
H1276 C1282 0.950 . S
H1277 C1283 0.950 . S
H1278 C1284 0.949 . S
C1279 H1274 0.950 . S
C1279 C1281 1.327 . S
C1279 C1285 1.429 . S
C1280 C1272 1.574 . S
C1280 H1275 0.949 . S
C1280 C1286 1.368 . S
C1281 C1265 1.349 . S
C1281 H1273 0.950 . S
C1281 C1279 1.327 . S
C1282 C1270 1.349 . S
C1282 H1276 0.950 . S
C1282 C1283 1.327 . S
C1283 H1277 0.950 . S
C1283 C1282 1.327 . S
C1283 C1287 1.429 . S
C1284 C1267 1.574 . S
C1284 H1278 0.949 . S
C1284 C1288 1.368 . S
C1285 C1266 1.429 . S
C1285 C1279 1.429 . S
C1285 C1286 1.523 . S
C1286 C1267 1.368 . S
C1286 C1280 1.368 . S
C1286 C1285 1.523 . S
C1287 C1271 1.429 . S
C1287 C1283 1.429 . S
C1287 C1288 1.523 . S
C1288 C1272 1.368 . S
C1288 C1284 1.368 . S
C1288 C1287 1.523 . S
H1289 C1264 0.950 . S
H1290 C1266 0.950 . S
H1291 C1267 0.949 . S
H1292 C1269 0.950 . S
H1293 C1271 0.950 . S
C1294 C1295 1.349 . S
C1294 C1296 1.327 . S
C1294 H1319 0.950 . S
C1295 C1294 1.349 . S
C1295 C1311 1.349 . S
C1296 C1294 1.327 . S
C1296 C1315 1.429 . S
C1296 H1320 0.950 . S
C1297 C1314 1.574 . S
C1297 C1316 1.368 . S
C1297 H1321 0.949 . S
H1298 C1302 0.949 . S
C1299 C1300 1.349 . S
C1299 C1301 1.327 . S
C1299 H1322 0.950 . S
C1300 C1299 1.349 . S
C1300 C1312 1.349 . S
C1301 C1299 1.327 . S
C1301 C1317 1.429 . S
C1301 H1323 0.950 . S
C1302 H1298 0.949 . S
C1302 C1310 1.574 . S
C1302 C1318 1.368 . S
H1303 C1311 0.950 . S
H1304 C1309 0.950 . S
H1305 C1310 0.949 . S
H1306 C1312 0.950 . S
H1307 C1313 0.950 . S
H1308 C1314 0.949 . S
C1309 H1304 0.950 . S
C1309 C1311 1.327 . S
C1309 C1315 1.429 . S
C1310 C1302 1.574 . S
C1310 H1305 0.949 . S
C1310 C1316 1.368 . S
C1311 C1295 1.349 . S
C1311 H1303 0.950 . S
C1311 C1309 1.327 . S
C1312 C1300 1.349 . S
C1312 H1306 0.950 . S
C1312 C1313 1.327 . S
C1313 H1307 0.950 . S
C1313 C1312 1.327 . S
C1313 C1317 1.429 . S
C1314 C1297 1.574 . S
C1314 H1308 0.949 . S
C1314 C1318 1.368 . S
C1315 C1296 1.429 . S
C1315 C1309 1.429 . S
C1315 C1316 1.523 . S
C1316 C1297 1.368 . S
C1316 C1310 1.368 . S
C1316 C1315 1.523 . S
C1317 C1301 1.429 . S
C1317 C1313 1.429 . S
C1317 C1318 1.523 . S
C1318 C1302 1.368 . S
C1318 C1314 1.368 . S
C1318 C1317 1.523 . S
H1319 C1294 0.950 . S
H1320 C1296 0.950 . S
H1321 C1297 0.949 . S
H1322 C1299 0.950 . S
H1323 C1301 0.950 . S
C1324 C1325 1.349 . S
C1324 C1326 1.327 . S
C1324 H1349 0.950 . S
C1325 C1324 1.349 . S
C1325 C1341 1.349 . S
C1326 C1324 1.327 . S
C1326 C1345 1.429 . S
C1326 H1350 0.950 . S
C1327 C1344 1.574 . S
C1327 C1346 1.368 . S
C1327 H1351 0.949 . S
H1328 C1332 0.949 . S
C1329 C1330 1.349 . S
C1329 C1331 1.327 . S
C1329 H1352 0.950 . S
C1330 C1329 1.349 . S
C1330 C1342 1.349 . S
C1331 C1329 1.327 . S
C1331 C1347 1.429 . S
C1331 H1353 0.950 . S
C1332 H1328 0.949 . S
C1332 C1340 1.574 . S
C1332 C1348 1.368 . S
H1333 C1341 0.950 . S
H1334 C1339 0.950 . S
H1335 C1340 0.949 . S
H1336 C1342 0.950 . S
H1337 C1343 0.950 . S
H1338 C1344 0.949 . S
C1339 H1334 0.950 . S
C1339 C1341 1.327 . S
C1339 C1345 1.429 . S
C1340 C1332 1.574 . S
C1340 H1335 0.949 . S
C1340 C1346 1.368 . S
C1341 C1325 1.349 . S
C1341 H1333 0.950 . S
C1341 C1339 1.327 . S
C1342 C1330 1.349 . S
C1342 H1336 0.950 . S
C1342 C1343 1.327 . S
C1343 H1337 0.950 . S
C1343 C1342 1.327 . S
C1343 C1347 1.429 . S
C1344 C1327 1.574 . S
C1344 H1338 0.949 . S
C1344 C1348 1.368 . S
C1345 C1326 1.429 . S
C1345 C1339 1.429 . S
C1345 C1346 1.523 . S
C1346 C1327 1.368 . S
C1346 C1340 1.368 . S
C1346 C1345 1.523 . S
C1347 C1331 1.429 . S
C1347 C1343 1.429 . S
C1347 C1348 1.523 . S
C1348 C1332 1.368 . S
C1348 C1344 1.368 . S
C1348 C1347 1.523 . S
H1349 C1324 0.950 . S
H1350 C1326 0.950 . S
H1351 C1327 0.949 . S
H1352 C1329 0.950 . S
H1353 C1331 0.950 . S
C1354 C1355 1.349 . S
C1354 C1356 1.327 . S
C1354 H1379 0.950 . S
C1355 C1354 1.349 . S
C1355 C1371 1.349 . S
C1356 C1354 1.327 . S
C1356 C1375 1.429 . S
C1356 H1380 0.950 . S
C1357 C1374 1.574 . S
C1357 C1376 1.368 . S
C1357 H1381 0.949 . S
H1358 C1362 0.949 . S
C1359 C1360 1.349 . S
C1359 C1361 1.327 . S
C1359 H1382 0.950 . S
C1360 C1359 1.349 . S
C1360 C1372 1.349 . S
C1361 C1359 1.327 . S
C1361 C1377 1.429 . S
C1361 H1383 0.950 . S
C1362 H1358 0.949 . S
C1362 C1370 1.574 . S
C1362 C1378 1.368 . S
H1363 C1371 0.950 . S
H1364 C1369 0.950 . S
H1365 C1370 0.949 . S
H1366 C1372 0.950 . S
H1367 C1373 0.950 . S
H1368 C1374 0.949 . S
C1369 H1364 0.950 . S
C1369 C1371 1.327 . S
C1369 C1375 1.429 . S
C1370 C1362 1.574 . S
C1370 H1365 0.949 . S
C1370 C1376 1.368 . S
C1371 C1355 1.349 . S
C1371 H1363 0.950 . S
C1371 C1369 1.327 . S
C1372 C1360 1.349 . S
C1372 H1366 0.950 . S
C1372 C1373 1.327 . S
C1373 H1367 0.950 . S
C1373 C1372 1.327 . S
C1373 C1377 1.429 . S
C1374 C1357 1.574 . S
C1374 H1368 0.949 . S
C1374 C1378 1.368 . S
C1375 C1356 1.429 . S
C1375 C1369 1.429 . S
C1375 C1376 1.523 . S
C1376 C1357 1.368 . S
C1376 C1370 1.368 . S
C1376 C1375 1.523 . S
C1377 C1361 1.429 . S
C1377 C1373 1.429 . S
C1377 C1378 1.523 . S
C1378 C1362 1.368 . S
C1378 C1374 1.368 . S
C1378 C1377 1.523 . S
H1379 C1354 0.950 . S
H1380 C1356 0.950 . S
H1381 C1357 0.949 . S
H1382 C1359 0.950 . S
H1383 C1361 0.950 . S
C1384 C1385 1.349 . S
C1384 C1386 1.327 1_455 S
C1384 H1409 0.950 . S
C1385 C1384 1.349 . S
C1385 C1401 1.349 . S
C1386 C1384 1.327 1_655 S
C1386 C1405 1.429 . S
C1386 H1410 0.950 . S
C1387 C1404 1.574 . S
C1387 C1406 1.368 . S
C1387 H1411 0.949 . S
H1388 C1392 0.949 . S
C1389 C1390 1.349 . S
C1389 C1391 1.327 . S
C1389 H1412 0.950 . S
C1390 C1389 1.349 . S
C1390 C1402 1.349 . S
C1391 C1389 1.327 . S
C1391 C1407 1.429 . S
C1391 H1413 0.950 . S
C1392 H1388 0.949 . S
C1392 C1400 1.574 . S
C1392 C1408 1.368 . S
H1393 C1401 0.950 . S
H1394 C1399 0.950 . S
H1395 C1400 0.949 . S
H1396 C1402 0.950 . S
H1397 C1403 0.950 . S
H1398 C1404 0.949 . S
C1399 H1394 0.950 . S
C1399 C1401 1.327 1_655 S
C1399 C1405 1.429 . S
C1400 C1392 1.574 . S
C1400 H1395 0.949 . S
C1400 C1406 1.368 . S
C1401 C1385 1.349 . S
C1401 H1393 0.950 . S
C1401 C1399 1.327 1_455 S
C1402 C1390 1.349 . S
C1402 H1396 0.950 . S
C1402 C1403 1.327 . S
C1403 H1397 0.950 . S
C1403 C1402 1.327 . S
C1403 C1407 1.429 . S
C1404 C1387 1.574 . S
C1404 H1398 0.949 . S
C1404 C1408 1.368 . S
C1405 C1386 1.429 . S
C1405 C1399 1.429 . S
C1405 C1406 1.523 . S
C1406 C1387 1.368 . S
C1406 C1400 1.368 . S
C1406 C1405 1.523 . S
C1407 C1391 1.429 . S
C1407 C1403 1.429 . S
C1407 C1408 1.523 . S
C1408 C1392 1.368 . S
C1408 C1404 1.368 . S
C1408 C1407 1.523 . S
H1409 C1384 0.950 . S
H1410 C1386 0.950 . S
H1411 C1387 0.949 . S
H1412 C1389 0.950 . S
H1413 C1391 0.950 . S
C1414 C1415 1.349 . S
C1414 C1416 1.327 . S
C1414 H1439 0.950 . S
C1415 C1414 1.349 . S
C1415 C1431 1.349 . S
C1416 C1414 1.327 . S
C1416 C1435 1.429 . S
C1416 H1440 0.950 . S
C1417 C1434 1.574 . S
C1417 C1436 1.368 . S
C1417 H1441 0.949 . S
H1418 C1422 0.949 . S
C1419 C1420 1.349 . S
C1419 C1421 1.327 1_545 S
C1419 H1442 0.950 . S
C1420 C1419 1.349 . S
C1420 C1432 1.365 . S
C1421 C1419 1.327 1_565 S
C1421 C1437 1.429 . S
C1421 H1443 0.950 . S
C1422 H1418 0.949 . S
C1422 C1430 1.574 . S
C1422 C1438 1.368 . S
H1423 C1431 0.950 . S
H1424 C1429 0.950 . S
H1425 C1430 0.949 . S
H1426 C1432 0.960 . S
H1427 C1433 0.950 . S
H1428 C1434 0.949 . S
C1429 H1424 0.950 . S
C1429 C1431 1.327 . S
C1429 C1435 1.429 . S
C1430 C1422 1.574 . S
C1430 H1425 0.949 . S
C1430 C1436 1.368 . S
C1431 C1415 1.349 . S
C1431 H1423 0.950 . S
C1431 C1429 1.327 . S
C1432 C1420 1.365 . S
C1432 H1426 0.960 . S
C1432 C1433 1.301 1_545 S
C1433 H1427 0.950 . S
C1433 C1432 1.301 1_565 S
C1433 C1437 1.429 . S
C1434 C1417 1.574 . S
C1434 H1428 0.949 . S
C1434 C1438 1.368 . S
C1435 C1416 1.429 . S
C1435 C1429 1.429 . S
C1435 C1436 1.523 . S
C1436 C1417 1.368 . S
C1436 C1430 1.368 . S
C1436 C1435 1.523 . S
C1437 C1421 1.429 . S
C1437 C1433 1.429 . S
C1437 C1438 1.523 . S
C1438 C1422 1.368 . S
C1438 C1434 1.368 . S
C1438 C1437 1.523 . S
H1439 C1414 0.950 . S
H1440 C1416 0.950 . S
H1441 C1417 0.949 . S
H1442 C1419 0.950 . S
H1443 C1421 0.950 . S
C1444 C1445 1.349 . S
C1444 C1446 1.327 1_655 S
C1444 H1469 0.950 . S
C1445 C1444 1.349 . S
C1445 C1461 1.349 . S
C1446 C1444 1.327 1_455 S
C1446 C1465 1.429 . S
C1446 H1470 0.950 . S
C1447 C1464 1.574 . S
C1447 C1466 1.368 . S
C1447 H1471 0.949 . S
H1448 C1452 0.949 . S
C1449 C1450 1.349 . S
C1449 C1451 1.327 . S
C1449 H1472 0.950 . S
C1450 C1449 1.349 . S
C1450 C1462 1.349 . S
C1451 C1449 1.327 . S
C1451 C1467 1.429 . S
C1451 H1473 0.950 . S
C1452 H1448 0.949 . S
C1452 C1460 1.574 . S
C1452 C1468 1.368 . S
H1453 C1461 0.950 . S
H1454 C1459 0.950 . S
H1455 C1460 0.949 . S
H1456 C1462 0.950 . S
H1457 C1463 0.950 . S
H1458 C1464 0.949 . S
C1459 H1454 0.950 . S
C1459 C1461 1.327 1_455 S
C1459 C1465 1.429 . S
C1460 C1452 1.574 . S
C1460 H1455 0.949 . S
C1460 C1466 1.368 . S
C1461 C1445 1.349 . S
C1461 H1453 0.950 . S
C1461 C1459 1.327 1_655 S
C1462 C1450 1.349 . S
C1462 H1456 0.950 . S
C1462 C1463 1.327 . S
C1463 H1457 0.950 . S
C1463 C1462 1.327 . S
C1463 C1467 1.429 . S
C1464 C1447 1.574 . S
C1464 H1458 0.949 . S
C1464 C1468 1.368 . S
C1465 C1446 1.429 . S
C1465 C1459 1.429 . S
C1465 C1466 1.523 . S
C1466 C1447 1.368 . S
C1466 C1460 1.368 . S
C1466 C1465 1.523 . S
C1467 C1451 1.429 . S
C1467 C1463 1.429 . S
C1467 C1468 1.523 . S
C1468 C1452 1.368 . S
C1468 C1464 1.368 . S
C1468 C1467 1.523 . S
H1469 C1444 0.950 . S
H1470 C1446 0.950 . S
H1471 C1447 0.949 . S
H1472 C1449 0.950 . S
H1473 C1451 0.950 . S
C1474 C1475 1.349 . S
C1474 C1476 1.327 . S
C1474 H1499 0.950 . S
C1475 C1474 1.349 . S
C1475 C1491 1.349 . S
C1476 C1474 1.327 . S
C1476 C1495 1.429 . S
C1476 H1500 0.950 . S
C1477 C1494 1.574 . S
C1477 C1496 1.368 . S
C1477 H1501 0.949 . S
H1478 C1482 0.949 . S
C1479 C1480 1.363 . S
C1479 C1481 1.304 1_565 S
C1479 H1502 0.959 . S
C1480 C1479 1.363 . S
C1480 C1492 1.349 . S
C1481 C1479 1.304 1_545 S
C1481 C1497 1.429 . S
C1481 H1503 0.950 . S
C1482 H1478 0.949 . S
C1482 C1490 1.574 . S
C1482 C1498 1.368 . S
H1483 C1491 0.950 . S
H1484 C1489 0.950 . S
H1485 C1490 0.949 . S
H1486 C1492 0.950 . S
H1487 C1493 0.950 . S
H1488 C1494 0.949 . S
C1489 H1484 0.950 . S
C1489 C1491 1.327 . S
C1489 C1495 1.429 . S
C1490 C1482 1.574 . S
C1490 H1485 0.949 . S
C1490 C1496 1.368 . S
C1491 C1475 1.349 . S
C1491 H1483 0.950 . S
C1491 C1489 1.327 . S
C1492 C1480 1.349 . S
C1492 H1486 0.950 . S
C1492 C1493 1.327 1_565 S
C1493 H1487 0.950 . S
C1493 C1492 1.327 1_545 S
C1493 C1497 1.429 . S
C1494 C1477 1.574 . S
C1494 H1488 0.949 . S
C1494 C1498 1.368 . S
C1495 C1476 1.429 . S
C1495 C1489 1.429 . S
C1495 C1496 1.523 . S
C1496 C1477 1.368 . S
C1496 C1490 1.368 . S
C1496 C1495 1.523 . S
C1497 C1481 1.429 . S
C1497 C1493 1.429 . S
C1497 C1498 1.523 . S
C1498 C1482 1.368 . S
C1498 C1494 1.368 . S
C1498 C1497 1.523 . S
H1499 C1474 0.950 . S
H1500 C1476 0.950 . S
H1501 C1477 0.949 . S
H1502 C1479 0.959 . S
H1503 C1481 0.950 . S
C1504 C1505 1.349 . S
C1504 C1506 1.327 . S
C1504 H1529 0.950 . S
C1505 C1504 1.349 . S
C1505 C1521 1.349 . S
C1506 C1504 1.327 . S
C1506 C1525 1.429 . S
C1506 H1530 0.950 . S
C1507 C1524 1.574 . S
C1507 C1526 1.368 . S
C1507 H1531 0.949 . S
H1508 C1512 0.949 . S
C1509 C1510 1.349 . S
C1509 C1511 1.327 . S
C1509 H1532 0.950 . S
C1510 C1509 1.349 . S
C1510 C1522 1.349 . S
C1511 C1509 1.327 . S
C1511 C1527 1.429 . S
C1511 H1533 0.950 . S
C1512 H1508 0.949 . S
C1512 C1520 1.574 . S
C1512 C1528 1.368 . S
H1513 C1521 0.950 . S
H1514 C1519 0.950 . S
H1515 C1520 0.949 . S
H1516 C1522 0.950 . S
H1517 C1523 0.950 . S
H1518 C1524 0.949 . S
C1519 H1514 0.950 . S
C1519 C1521 1.327 . S
C1519 C1525 1.429 . S
C1520 C1512 1.574 . S
C1520 H1515 0.949 . S
C1520 C1526 1.368 . S
C1521 C1505 1.349 . S
C1521 H1513 0.950 . S
C1521 C1519 1.327 . S
C1522 C1510 1.349 . S
C1522 H1516 0.950 . S
C1522 C1523 1.327 . S
C1523 H1517 0.950 . S
C1523 C1522 1.327 . S
C1523 C1527 1.429 . S
C1524 C1507 1.574 . S
C1524 H1518 0.949 . S
C1524 C1528 1.368 . S
C1525 C1506 1.429 . S
C1525 C1519 1.429 . S
C1525 C1526 1.523 . S
C1526 C1507 1.368 . S
C1526 C1520 1.368 . S
C1526 C1525 1.523 . S
C1527 C1511 1.429 . S
C1527 C1523 1.429 . S
C1527 C1528 1.523 . S
C1528 C1512 1.368 . S
C1528 C1524 1.368 . S
C1528 C1527 1.523 . S
H1529 C1504 0.950 . S
H1530 C1506 0.950 . S
H1531 C1507 0.949 . S
H1532 C1509 0.950 . S
H1533 C1511 0.950 . S
C1534 C1535 1.349 . S
C1534 C1536 1.327 . S
C1534 H1559 0.950 . S
C1535 C1534 1.349 . S
C1535 C1551 1.349 . S
C1536 C1534 1.327 . S
C1536 C1555 1.429 . S
C1536 H1560 0.950 . S
C1537 C1554 1.574 . S
C1537 C1556 1.368 . S
C1537 H1561 0.949 . S
H1538 C1542 0.949 . S
C1539 C1540 1.349 . S
C1539 C1541 1.327 . S
C1539 H1562 0.950 . S
C1540 C1539 1.349 . S
C1540 C1552 1.349 . S
C1541 C1539 1.327 . S
C1541 C1557 1.429 . S
C1541 H1563 0.950 . S
C1542 H1538 0.949 . S
C1542 C1550 1.574 . S
C1542 C1558 1.368 . S
H1543 C1551 0.950 . S
H1544 C1549 0.950 . S
H1545 C1550 0.949 . S
H1546 C1552 0.950 . S
H1547 C1553 0.950 . S
H1548 C1554 0.949 . S
C1549 H1544 0.950 . S
C1549 C1551 1.327 . S
C1549 C1555 1.429 . S
C1550 C1542 1.574 . S
C1550 H1545 0.949 . S
C1550 C1556 1.368 . S
C1551 C1535 1.349 . S
C1551 H1543 0.950 . S
C1551 C1549 1.327 . S
C1552 C1540 1.349 . S
C1552 H1546 0.950 . S
C1552 C1553 1.327 . S
C1553 H1547 0.950 . S
C1553 C1552 1.327 . S
C1553 C1557 1.429 . S
C1554 C1537 1.574 . S
C1554 H1548 0.949 . S
C1554 C1558 1.368 . S
C1555 C1536 1.429 . S
C1555 C1549 1.429 . S
C1555 C1556 1.523 . S
C1556 C1537 1.368 . S
C1556 C1550 1.368 . S
C1556 C1555 1.523 . S
C1557 C1541 1.429 . S
C1557 C1553 1.429 . S
C1557 C1558 1.523 . S
C1558 C1542 1.368 . S
C1558 C1554 1.368 . S
C1558 C1557 1.523 . S
H1559 C1534 0.950 . S
H1560 C1536 0.950 . S
H1561 C1537 0.949 . S
H1562 C1539 0.950 . S
H1563 C1541 0.950 . S
C1564 C1565 1.349 . S
C1564 C1566 1.327 . S
C1564 H1589 0.950 . S
C1565 C1564 1.349 . S
C1565 C1581 1.349 . S
C1566 C1564 1.327 . S
C1566 C1585 1.429 . S
C1566 H1590 0.950 . S
C1567 C1584 1.574 . S
C1567 C1586 1.368 . S
C1567 H1591 0.949 . S
H1568 C1572 0.949 . S
C1569 C1570 1.349 . S
C1569 C1571 1.327 . S
C1569 H1592 0.950 . S
C1570 C1569 1.349 . S
C1570 C1582 1.349 . S
C1571 C1569 1.327 . S
C1571 C1587 1.429 . S
C1571 H1593 0.950 . S
C1572 H1568 0.949 . S
C1572 C1580 1.574 . S
C1572 C1588 1.368 . S
H1573 C1581 0.950 . S
H1574 C1579 0.950 . S
H1575 C1580 0.949 . S
H1576 C1582 0.950 . S
H1577 C1583 0.950 . S
H1578 C1584 0.949 . S
C1579 H1574 0.950 . S
C1579 C1581 1.327 . S
C1579 C1585 1.429 . S
C1580 C1572 1.574 . S
C1580 H1575 0.949 . S
C1580 C1586 1.368 . S
C1581 C1565 1.349 . S
C1581 H1573 0.950 . S
C1581 C1579 1.327 . S
C1582 C1570 1.349 . S
C1582 H1576 0.950 . S
C1582 C1583 1.327 . S
C1583 H1577 0.950 . S
C1583 C1582 1.327 . S
C1583 C1587 1.429 . S
C1584 C1567 1.574 . S
C1584 H1578 0.949 . S
C1584 C1588 1.368 . S
C1585 C1566 1.429 . S
C1585 C1579 1.429 . S
C1585 C1586 1.523 . S
C1586 C1567 1.368 . S
C1586 C1580 1.368 . S
C1586 C1585 1.523 . S
C1587 C1571 1.429 . S
C1587 C1583 1.429 . S
C1587 C1588 1.523 . S
C1588 C1572 1.368 . S
C1588 C1584 1.368 . S
C1588 C1587 1.523 . S
H1589 C1564 0.950 . S
H1590 C1566 0.950 . S
H1591 C1567 0.949 . S
H1592 C1569 0.950 . S
H1593 C1571 0.950 . S
C1594 C1595 1.349 . S
C1594 C1596 1.327 . S
C1594 H1619 0.950 . S
C1595 C1594 1.349 . S
C1595 C1611 1.349 . S
C1596 C1594 1.327 . S
C1596 C1615 1.429 . S
C1596 H1620 0.950 . S
C1597 C1614 1.574 . S
C1597 C1616 1.368 . S
C1597 H1621 0.949 . S
H1598 C1602 0.949 . S
C1599 C1600 1.349 . S
C1599 C1601 1.327 . S
C1599 H1622 0.950 . S
C1600 C1599 1.349 . S
C1600 C1612 1.349 . S
C1601 C1599 1.327 . S
C1601 C1617 1.429 . S
C1601 H1623 0.950 . S
C1602 H1598 0.949 . S
C1602 C1610 1.574 . S
C1602 C1618 1.368 . S
H1603 C1611 0.950 . S
H1604 C1609 0.950 . S
H1605 C1610 0.949 . S
H1606 C1612 0.950 . S
H1607 C1613 0.950 . S
H1608 C1614 0.949 . S
C1609 H1604 0.950 . S
C1609 C1611 1.327 . S
C1609 C1615 1.429 . S
C1610 C1602 1.574 . S
C1610 H1605 0.949 . S
C1610 C1616 1.368 . S
C1611 C1595 1.349 . S
C1611 H1603 0.950 . S
C1611 C1609 1.327 . S
C1612 C1600 1.349 . S
C1612 H1606 0.950 . S
C1612 C1613 1.327 . S
C1613 H1607 0.950 . S
C1613 C1612 1.327 . S
C1613 C1617 1.429 . S
C1614 C1597 1.574 . S
C1614 H1608 0.949 . S
C1614 C1618 1.368 . S
C1615 C1596 1.429 . S
C1615 C1609 1.429 . S
C1615 C1616 1.523 . S
C1616 C1597 1.368 . S
C1616 C1610 1.368 . S
C1616 C1615 1.523 . S
C1617 C1601 1.429 . S
C1617 C1613 1.429 . S
C1617 C1618 1.523 . S
C1618 C1602 1.368 . S
C1618 C1614 1.368 . S
C1618 C1617 1.523 . S
H1619 C1594 0.950 . S
H1620 C1596 0.950 . S
H1621 C1597 0.949 . S
H1622 C1599 0.950 . S
H1623 C1601 0.950 . S
C1624 C1625 1.349 . S
C1624 C1626 1.327 1_655 S
C1624 H1649 0.950 . S
C1625 C1624 1.349 . S
C1625 C1641 1.349 . S
C1626 C1624 1.327 1_455 S
C1626 C1645 1.429 . S
C1626 H1650 0.950 . S
C1627 C1644 1.574 . S
C1627 C1646 1.368 . S
C1627 H1651 0.949 . S
H1628 C1632 0.949 . S
C1629 C1630 1.349 . S
C1629 C1631 1.327 . S
C1629 H1652 0.950 . S
C1630 C1629 1.349 . S
C1630 C1642 1.349 . S
C1631 C1629 1.327 . S
C1631 C1647 1.429 . S
C1631 H1653 0.950 . S
C1632 H1628 0.949 . S
C1632 C1640 1.574 . S
C1632 C1648 1.368 . S
H1633 C1641 0.950 . S
H1634 C1639 0.950 . S
H1635 C1640 0.949 . S
H1636 C1642 0.950 . S
H1637 C1643 0.950 . S
H1638 C1644 0.949 . S
C1639 H1634 0.950 . S
C1639 C1641 1.327 1_455 S
C1639 C1645 1.429 . S
C1640 C1632 1.574 . S
C1640 H1635 0.949 . S
C1640 C1646 1.368 . S
C1641 C1625 1.349 . S
C1641 H1633 0.950 . S
C1641 C1639 1.327 1_655 S
C1642 C1630 1.349 . S
C1642 H1636 0.950 . S
C1642 C1643 1.327 . S
C1643 H1637 0.950 . S
C1643 C1642 1.327 . S
C1643 C1647 1.429 . S
C1644 C1627 1.574 . S
C1644 H1638 0.949 . S
C1644 C1648 1.368 . S
C1645 C1626 1.429 . S
C1645 C1639 1.429 . S
C1645 C1646 1.523 . S
C1646 C1627 1.368 . S
C1646 C1640 1.368 . S
C1646 C1645 1.523 . S
C1647 C1631 1.429 . S
C1647 C1643 1.429 . S
C1647 C1648 1.523 . S
C1648 C1632 1.368 . S
C1648 C1644 1.368 . S
C1648 C1647 1.523 . S
H1649 C1624 0.950 . S
H1650 C1626 0.950 . S
H1651 C1627 0.949 . S
H1652 C1629 0.950 . S
H1653 C1631 0.950 . S
C1654 C1655 1.349 . S
C1654 C1656 1.327 . S
C1654 H1679 0.950 . S
C1655 C1654 1.349 . S
C1655 C1671 1.349 . S
C1656 C1654 1.327 . S
C1656 C1675 1.429 . S
C1656 H1680 0.950 . S
C1657 C1674 1.574 . S
C1657 C1676 1.368 . S
C1657 H1681 0.949 . S
H1658 C1662 0.949 . S
C1659 C1660 1.349 . S
C1659 C1661 1.327 1_565 S
C1659 H1682 0.950 . S
C1660 C1659 1.349 . S
C1660 C1672 1.349 . S
C1661 C1659 1.327 1_545 S
C1661 C1677 1.429 . S
C1661 H1683 0.950 . S
C1662 H1658 0.949 . S
C1662 C1670 1.574 . S
C1662 C1678 1.368 . S
H1663 C1671 0.950 . S
H1664 C1669 0.950 . S
H1665 C1670 0.949 . S
H1666 C1672 0.950 . S
H1667 C1673 0.950 . S
H1668 C1674 0.949 . S
C1669 H1664 0.950 . S
C1669 C1671 1.327 . S
C1669 C1675 1.429 . S
C1670 C1662 1.574 . S
C1670 H1665 0.949 . S
C1670 C1676 1.368 . S
C1671 C1655 1.349 . S
C1671 H1663 0.950 . S
C1671 C1669 1.327 . S
C1672 C1660 1.349 . S
C1672 H1666 0.950 . S
C1672 C1673 1.327 1_565 S
C1673 H1667 0.950 . S
C1673 C1672 1.327 1_545 S
C1673 C1677 1.429 . S
C1674 C1657 1.574 . S
C1674 H1668 0.949 . S
C1674 C1678 1.368 . S
C1675 C1656 1.429 . S
C1675 C1669 1.429 . S
C1675 C1676 1.523 . S
C1676 C1657 1.368 . S
C1676 C1670 1.368 . S
C1676 C1675 1.523 . S
C1677 C1661 1.429 . S
C1677 C1673 1.429 . S
C1677 C1678 1.523 . S
C1678 C1662 1.368 . S
C1678 C1674 1.368 . S
C1678 C1677 1.523 . S
H1679 C1654 0.950 . S
H1680 C1656 0.950 . S
H1681 C1657 0.949 . S
H1682 C1659 0.950 . S
H1683 C1661 0.950 . S
C1684 C1685 1.349 . S
C1684 C1686 1.327 . S
C1684 H1709 0.950 . S
C1685 C1684 1.349 . S
C1685 C1701 1.349 . S
C1686 C1684 1.327 . S
C1686 C1705 1.429 . S
C1686 H1710 0.950 . S
C1687 C1704 1.574 . S
C1687 C1706 1.368 . S
C1687 H1711 0.949 . S
H1688 C1692 0.949 . S
C1689 C1690 1.347 1_655 S
C1689 C1691 1.330 . S
C1689 H1712 0.949 1_655 S
C1690 C1689 1.347 1_455 S
C1690 C1702 1.349 . S
C1691 C1689 1.330 . S
C1691 C1707 1.429 . S
C1691 H1713 0.950 . S
C1692 H1688 0.949 . S
C1692 C1700 1.574 . S
C1692 C1708 1.368 . S
H1693 C1701 0.950 . S
H1694 C1699 0.950 . S
H1695 C1700 0.949 . S
H1696 C1702 0.950 . S
H1697 C1703 0.950 . S
H1698 C1704 0.949 . S
C1699 H1694 0.950 . S
C1699 C1701 1.327 . S
C1699 C1705 1.429 . S
C1700 C1692 1.574 . S
C1700 H1695 0.949 . S
C1700 C1706 1.368 . S
C1701 C1685 1.349 . S
C1701 H1693 0.950 . S
C1701 C1699 1.327 . S
C1702 C1690 1.349 . S
C1702 H1696 0.950 . S
C1702 C1703 1.327 1_455 S
C1703 H1697 0.950 . S
C1703 C1702 1.327 1_655 S
C1703 C1707 1.429 . S
C1704 C1687 1.574 . S
C1704 H1698 0.949 . S
C1704 C1708 1.368 . S
C1705 C1686 1.429 . S
C1705 C1699 1.429 . S
C1705 C1706 1.523 . S
C1706 C1687 1.368 . S
C1706 C1700 1.368 . S
C1706 C1705 1.523 . S
C1707 C1691 1.429 . S
C1707 C1703 1.429 . S
C1707 C1708 1.523 . S
C1708 C1692 1.368 . S
C1708 C1704 1.368 . S
C1708 C1707 1.523 . S
H1709 C1684 0.950 . S
H1710 C1686 0.950 . S
H1711 C1687 0.949 . S
H1712 C1689 0.949 1_455 S
H1713 C1691 0.950 . S
C1714 C1715 1.349 . S
C1714 C1716 1.327 1_545 S
C1714 H1739 0.950 . S
C1715 C1714 1.349 . S
C1715 C1731 1.363 . S
C1716 C1714 1.327 1_565 S
C1716 C1735 1.429 . S
C1716 H1740 0.950 . S
C1717 C1734 1.574 . S
C1717 C1736 1.368 . S
C1717 H1741 0.949 . S
H1718 C1722 0.949 . S
C1719 C1720 1.349 . S
C1719 C1721 1.327 . S
C1719 H1742 0.950 . S
C1720 C1719 1.349 . S
C1720 C1732 1.349 . S
C1721 C1719 1.327 . S
C1721 C1737 1.429 . S
C1721 H1743 0.950 . S
C1722 H1718 0.949 . S
C1722 C1730 1.574 . S
C1722 C1738 1.368 . S
H1723 C1731 0.960 . S
H1724 C1729 0.950 . S
H1725 C1730 0.949 . S
H1726 C1732 0.950 . S
H1727 C1733 0.950 . S
H1728 C1734 0.949 . S
C1729 H1724 0.950 . S
C1729 C1731 1.303 1_565 S
C1729 C1735 1.429 . S
C1730 C1722 1.574 . S
C1730 H1725 0.949 . S
C1730 C1736 1.368 . S
C1731 C1715 1.363 . S
C1731 H1723 0.960 . S
C1731 C1729 1.303 1_545 S
C1732 C1720 1.349 . S
C1732 H1726 0.950 . S
C1732 C1733 1.327 . S
C1733 H1727 0.950 . S
C1733 C1732 1.327 . S
C1733 C1737 1.429 . S
C1734 C1717 1.574 . S
C1734 H1728 0.949 . S
C1734 C1738 1.368 . S
C1735 C1716 1.429 . S
C1735 C1729 1.429 . S
C1735 C1736 1.523 . S
C1736 C1717 1.368 . S
C1736 C1730 1.368 . S
C1736 C1735 1.523 . S
C1737 C1721 1.429 . S
C1737 C1733 1.429 . S
C1737 C1738 1.523 . S
C1738 C1722 1.368 . S
C1738 C1734 1.368 . S
C1738 C1737 1.523 . S
H1739 C1714 0.950 . S
H1740 C1716 0.950 . S
H1741 C1717 0.949 . S
H1742 C1719 0.950 . S
H1743 C1721 0.950 . S
C545 C5 1.683 . S
C550 C243 1.683 . S
C575 C141 1.683 . S
C580 C39 1.683 . S
C605 C175 1.683 . S
C610 C73 1.683 . S
C635 C209 1.683 . S
C640 C107 1.683 . S
C665 C277 1.683 . S
C670 C515 1.683 . S
C695 C311 1.683 . S
C700 C413 1.683 . S
C725 C447 1.683 . S
C730 C345 1.683 . S
C755 C379 1.683 . S
C760 C481 1.683 . S
C785 C9 1.487 . S
C790 C349 1.487 . S
C815 C383 1.487 . S
C820 C43 1.487 . S
C845 C281 1.487 . S
C850 C77 1.487 . S
C875 C315 1.487 . S
C880 C111 1.487 . S
C905 C485 1.487 . S
C910 C145 1.487 . S
C935 C519 1.487 . S
C940 C179 1.487 . S
C965 C417 1.487 . S
C970 C213 1.487 . S
C995 C451 1.487 . S
C1000 C247 1.487 . S
C1025 C33 0.473 . S
C1030 C101 0.473 . S
C1055 C135 0.473 . S
C1060 C67 0.473 . S
C1085 C237 0.473 . S
C1090 C169 0.473 . S
C1115 C271 0.473 . S
C1120 C203 0.473 . S
C1145 C305 0.473 . S
C1150 C373 0.473 . S
C1175 C407 0.473 . S
C1180 C339 0.473 . S
C1205 C441 0.473 . S
C1210 C509 0.473 . S
C1235 C475 0.473 . S
C1240 C543 0.473 . S
C1265 C478 1.347 . S
C1270 C20 1.357 . S
C1295 C54 1.357 . S
C1300 C512 1.347 . S
C1325 C410 1.347 . S
C1330 C88 1.357 . S
C1355 C444 1.347 . S
C1360 C122 1.357 . S
C1385 C342 1.347 . S
C1390 C156 1.357 . S
C1415 C190 1.357 . S
C1420 C376 1.347 . S
C1445 C274 1.347 . S
C1450 C224 1.357 . S
C1475 C258 1.357 . S
C1480 C308 1.347 . S
C1505 C206 1.347 . S
C1510 C292 1.357 . S
C1535 C240 1.347 . S
C1540 C326 1.357 . S
C1565 C138 1.347 . S
C1570 C360 1.357 . S
C1595 C394 1.357 . S
C1600 C172 1.347 . S
C1625 C70 1.347 . S
C1630 C428 1.357 . S
C1655 C462 1.357 . S
C1660 C104 1.347 . S
C1685 C496 1.357 . S
C1690 C2 1.347 . S
C1715 C36 1.347 . S
C1720 C530 1.357 . S
