# Generated by pormake.
# Topology ukj, (4)-cn, num edge types: 1
# Building blocks:
#     Node 0, Type 0, BuildingBlock: NAWXER_clean_sbu_0, # of connection points: 4
#     Node 1, Type 0, BuildingBlock: NAWXER_clean_sbu_0, # of connection points: 4
#     Node 2, Type 0, BuildingBlock: NAWXER_clean_sbu_0, # of connection points: 4
#     Node 3, Type 0, BuildingBlock: NAWXER_clean_sbu_0, # of connection points: 4
#     Node 4, Type 0, BuildingBlock: NAWXER_clean_sbu_0, # of connection points: 4
#     Node 5, Type 0, BuildingBlock: NAWXER_clean_sbu_0, # of connection points: 4
#     Node 6, Type 0, BuildingBlock: NAWXER_clean_sbu_0, # of connection points: 4
#     Node 7, Type 0, BuildingBlock: NAWXER_clean_sbu_0, # of connection points: 4
#     Node 8, Type 0, BuildingBlock: NAWXER_clean_sbu_0, # of connection points: 4
#     Node 9, Type 0, BuildingBlock: NAWXER_clean_sbu_0, # of connection points: 4
#     Node 10, Type 0, BuildingBlock: NAWXER_clean_sbu_0, # of connection points: 4
#     Node 11, Type 0, BuildingBlock: NAWXER_clean_sbu_0, # of connection points: 4
#     Node 12, Type 0, BuildingBlock: NAWXER_clean_sbu_0, # of connection points: 4
#     Node 13, Type 0, BuildingBlock: NAWXER_clean_sbu_0, # of connection points: 4
#     Node 14, Type 0, BuildingBlock: NAWXER_clean_sbu_0, # of connection points: 4
#     Node 15, Type 0, BuildingBlock: NAWXER_clean_sbu_0, # of connection points: 4
#     Node 16, Type 0, BuildingBlock: NAWXER_clean_sbu_0, # of connection points: 4
#     Node 17, Type 0, BuildingBlock: NAWXER_clean_sbu_0, # of connection points: 4
#     Node 18, Type 0, BuildingBlock: NAWXER_clean_sbu_0, # of connection points: 4
#     Node 19, Type 0, BuildingBlock: NAWXER_clean_sbu_0, # of connection points: 4
#     Node 20, Type 0, BuildingBlock: NAWXER_clean_sbu_0, # of connection points: 4
#     Node 21, Type 0, BuildingBlock: NAWXER_clean_sbu_0, # of connection points: 4
#     Node 22, Type 0, BuildingBlock: NAWXER_clean_sbu_0, # of connection points: 4
#     Node 23, Type 0, BuildingBlock: NAWXER_clean_sbu_0, # of connection points: 4
#     Node 24, Type 0, BuildingBlock: NAWXER_clean_sbu_0, # of connection points: 4
#     Node 25, Type 0, BuildingBlock: NAWXER_clean_sbu_0, # of connection points: 4
#     Node 26, Type 0, BuildingBlock: NAWXER_clean_sbu_0, # of connection points: 4
#     Node 27, Type 0, BuildingBlock: NAWXER_clean_sbu_0, # of connection points: 4
#     Node 28, Type 0, BuildingBlock: NAWXER_clean_sbu_0, # of connection points: 4
#     Node 29, Type 0, BuildingBlock: NAWXER_clean_sbu_0, # of connection points: 4
#     Node 30, Type 0, BuildingBlock: NAWXER_clean_sbu_0, # of connection points: 4
#     Node 31, Type 0, BuildingBlock: NAWXER_clean_sbu_0, # of connection points: 4
#     Edge 32, Type (0, 0), BuildingBlock: KIFKEQ_clean_linker_1, # of connection points: 2
#     Edge 33, Type (0, 0), BuildingBlock: KIFKEQ_clean_linker_1, # of connection points: 2
#     Edge 34, Type (0, 0), BuildingBlock: KIFKEQ_clean_linker_1, # of connection points: 2
#     Edge 35, Type (0, 0), BuildingBlock: KIFKEQ_clean_linker_1, # of connection points: 2
#     Edge 36, Type (0, 0), BuildingBlock: KIFKEQ_clean_linker_1, # of connection points: 2
#     Edge 37, Type (0, 0), BuildingBlock: KIFKEQ_clean_linker_1, # of connection points: 2
#     Edge 38, Type (0, 0), BuildingBlock: KIFKEQ_clean_linker_1, # of connection points: 2
#     Edge 39, Type (0, 0), BuildingBlock: KIFKEQ_clean_linker_1, # of connection points: 2
#     Edge 40, Type (0, 0), BuildingBlock: KIFKEQ_clean_linker_1, # of connection points: 2
#     Edge 41, Type (0, 0), BuildingBlock: KIFKEQ_clean_linker_1, # of connection points: 2
#     Edge 42, Type (0, 0), BuildingBlock: KIFKEQ_clean_linker_1, # of connection points: 2
#     Edge 43, Type (0, 0), BuildingBlock: KIFKEQ_clean_linker_1, # of connection points: 2
#     Edge 44, Type (0, 0), BuildingBlock: KIFKEQ_clean_linker_1, # of connection points: 2
#     Edge 45, Type (0, 0), BuildingBlock: KIFKEQ_clean_linker_1, # of connection points: 2
#     Edge 46, Type (0, 0), BuildingBlock: KIFKEQ_clean_linker_1, # of connection points: 2
#     Edge 47, Type (0, 0), BuildingBlock: KIFKEQ_clean_linker_1, # of connection points: 2
#     Edge 48, Type (0, 0), BuildingBlock: KIFKEQ_clean_linker_1, # of connection points: 2
#     Edge 49, Type (0, 0), BuildingBlock: KIFKEQ_clean_linker_1, # of connection points: 2
#     Edge 50, Type (0, 0), BuildingBlock: KIFKEQ_clean_linker_1, # of connection points: 2
#     Edge 51, Type (0, 0), BuildingBlock: KIFKEQ_clean_linker_1, # of connection points: 2
#     Edge 52, Type (0, 0), BuildingBlock: KIFKEQ_clean_linker_1, # of connection points: 2
#     Edge 53, Type (0, 0), BuildingBlock: KIFKEQ_clean_linker_1, # of connection points: 2
#     Edge 54, Type (0, 0), BuildingBlock: KIFKEQ_clean_linker_1, # of connection points: 2
#     Edge 55, Type (0, 0), BuildingBlock: KIFKEQ_clean_linker_1, # of connection points: 2
#     Edge 56, Type (0, 0), BuildingBlock: KIFKEQ_clean_linker_1, # of connection points: 2
#     Edge 57, Type (0, 0), BuildingBlock: KIFKEQ_clean_linker_1, # of connection points: 2
#     Edge 58, Type (0, 0), BuildingBlock: KIFKEQ_clean_linker_1, # of connection points: 2
#     Edge 59, Type (0, 0), BuildingBlock: KIFKEQ_clean_linker_1, # of connection points: 2
#     Edge 60, Type (0, 0), BuildingBlock: KIFKEQ_clean_linker_1, # of connection points: 2
#     Edge 61, Type (0, 0), BuildingBlock: KIFKEQ_clean_linker_1, # of connection points: 2
#     Edge 62, Type (0, 0), BuildingBlock: KIFKEQ_clean_linker_1, # of connection points: 2
#     Edge 63, Type (0, 0), BuildingBlock: KIFKEQ_clean_linker_1, # of connection points: 2
#     Edge 64, Type (0, 0), BuildingBlock: KIFKEQ_clean_linker_1, # of connection points: 2
#     Edge 65, Type (0, 0), BuildingBlock: KIFKEQ_clean_linker_1, # of connection points: 2
#     Edge 66, Type (0, 0), BuildingBlock: KIFKEQ_clean_linker_1, # of connection points: 2
#     Edge 67, Type (0, 0), BuildingBlock: KIFKEQ_clean_linker_1, # of connection points: 2
#     Edge 68, Type (0, 0), BuildingBlock: KIFKEQ_clean_linker_1, # of connection points: 2
#     Edge 69, Type (0, 0), BuildingBlock: KIFKEQ_clean_linker_1, # of connection points: 2
#     Edge 70, Type (0, 0), BuildingBlock: KIFKEQ_clean_linker_1, # of connection points: 2
#     Edge 71, Type (0, 0), BuildingBlock: KIFKEQ_clean_linker_1, # of connection points: 2
#     Edge 72, Type (0, 0), BuildingBlock: KIFKEQ_clean_linker_1, # of connection points: 2
#     Edge 73, Type (0, 0), BuildingBlock: KIFKEQ_clean_linker_1, # of connection points: 2
#     Edge 74, Type (0, 0), BuildingBlock: KIFKEQ_clean_linker_1, # of connection points: 2
#     Edge 75, Type (0, 0), BuildingBlock: KIFKEQ_clean_linker_1, # of connection points: 2
#     Edge 76, Type (0, 0), BuildingBlock: KIFKEQ_clean_linker_1, # of connection points: 2
#     Edge 77, Type (0, 0), BuildingBlock: KIFKEQ_clean_linker_1, # of connection points: 2
#     Edge 78, Type (0, 0), BuildingBlock: KIFKEQ_clean_linker_1, # of connection points: 2
#     Edge 79, Type (0, 0), BuildingBlock: KIFKEQ_clean_linker_1, # of connection points: 2
#     Edge 80, Type (0, 0), BuildingBlock: KIFKEQ_clean_linker_1, # of connection points: 2
#     Edge 81, Type (0, 0), BuildingBlock: KIFKEQ_clean_linker_1, # of connection points: 2
#     Edge 82, Type (0, 0), BuildingBlock: KIFKEQ_clean_linker_1, # of connection points: 2
#     Edge 83, Type (0, 0), BuildingBlock: KIFKEQ_clean_linker_1, # of connection points: 2
#     Edge 84, Type (0, 0), BuildingBlock: KIFKEQ_clean_linker_1, # of connection points: 2
#     Edge 85, Type (0, 0), BuildingBlock: KIFKEQ_clean_linker_1, # of connection points: 2
#     Edge 86, Type (0, 0), BuildingBlock: KIFKEQ_clean_linker_1, # of connection points: 2
#     Edge 87, Type (0, 0), BuildingBlock: KIFKEQ_clean_linker_1, # of connection points: 2
#     Edge 88, Type (0, 0), BuildingBlock: KIFKEQ_clean_linker_1, # of connection points: 2
#     Edge 89, Type (0, 0), BuildingBlock: KIFKEQ_clean_linker_1, # of connection points: 2
#     Edge 90, Type (0, 0), BuildingBlock: KIFKEQ_clean_linker_1, # of connection points: 2
#     Edge 91, Type (0, 0), BuildingBlock: KIFKEQ_clean_linker_1, # of connection points: 2
#     Edge 92, Type (0, 0), BuildingBlock: KIFKEQ_clean_linker_1, # of connection points: 2
#     Edge 93, Type (0, 0), BuildingBlock: KIFKEQ_clean_linker_1, # of connection points: 2
#     Edge 94, Type (0, 0), BuildingBlock: KIFKEQ_clean_linker_1, # of connection points: 2
#     Edge 95, Type (0, 0), BuildingBlock: KIFKEQ_clean_linker_1, # of connection points: 2
# Relax obj value: 0.006
# Max RMSD: 0.183
# Mean RMSD: 0.183
data_MOF--net-ukj--node1-NAWXER_clean_sbu_0--edge1-KIFKEQ_clean_linker_1
_symmetry_space_group_name_H-M    P1
_symmetry_Int_Tables_number       1
_symmetry_cell_setting            triclinic
loop_
_symmetry_equiv_pos_as_xyz
'x, y, z'
_cell_length_a     35.133829
_cell_length_b     55.402459
_cell_length_c     59.210847
_cell_angle_alpha  90.005934
_cell_angle_beta   89.993067
_cell_angle_gamma 89.998993
loop_
_atom_site_label
_atom_site_type_symbol
_atom_site_fract_x
_atom_site_fract_y
_atom_site_fract_z
_atom_type_partial_charge
C0 C 0.1581 0.36142 0.2952 0.0
C1 C 0.15484 0.35948 0.21312 0.0
O2 O 0.17385 0.34227 0.28734 0.0
Zn3 Zn 0.18472 0.3268 0.25447 0.0
O4 O 0.14409 0.37676 0.28163 0.0
Zn5 Zn 0.15672 0.36031 0.2541 0.0
O6 O 0.11977 0.32918 0.25453 0.0
O7 O 0.15662 0.29698 0.25552 0.0
O8 O 0.14202 0.3756 0.22633 0.0
O9 O 0.17135 0.34077 0.22132 0.0
O10 O 0.23921 0.32461 0.25354 0.0
O11 O 0.2183 0.36217 0.25358 0.0
C12 C 0.12351 0.30615 0.25505 0.0
C13 C 0.2461 0.34711 0.25336 0.0
C14 C 0.10698 0.89152 0.29639 0.0
C15 C 0.10958 0.89633 0.2143 0.0
O16 O 0.09161 0.91101 0.28908 0.0
Zn17 Zn 0.07995 0.92742 0.25693 0.0
O18 O 0.11995 0.87626 0.28236 0.0
Zn19 Zn 0.10738 0.89367 0.2552 0.0
O20 O 0.14474 0.9247 0.25641 0.0
O21 O 0.10828 0.95704 0.25886 0.0
O22 O 0.12127 0.87929 0.22687 0.0
O23 O 0.09378 0.91491 0.22328 0.0
O24 O 0.02524 0.92957 0.25669 0.0
O25 O 0.04607 0.89213 0.25427 0.0
C26 C 0.14128 0.94772 0.25779 0.0
C27 C 0.0183 0.90715 0.25505 0.0
C28 C 0.16033 0.89187 0.96423 0.0
C29 C 0.15778 0.89683 0.04628 0.0
O30 O 0.17569 0.91141 0.97146 0.0
Zn31 Zn 0.18721 0.92797 1.0036 0.0
O32 O 0.1472 0.87676 0.97833 0.0
Zn33 Zn 0.15979 0.89429 0.00541 0.0
O34 O 0.1224 0.92536 1.00433 0.0
O35 O 0.15897 0.95762 1.00166 0.0
O36 O 0.14604 0.87983 0.03368 0.0
O37 O 0.17352 0.91545 0.03732 0.0
O38 O 0.24188 0.9302 1.00382 0.0
O39 O 0.22115 0.89274 0.0063 0.0
C40 C 0.12595 0.94838 1.00292 0.0
C41 C 0.24888 0.90779 0.00548 0.0
C42 C 0.14138 0.30296 1.00401 0.0
C43 C 0.02005 0.3454 0.00575 0.0
O44 O 0.14587 0.32595 1.0038 0.0
Zn45 Zn 0.1098 0.35753 1.00464 0.0
O46 O 0.10798 0.29424 1.00455 0.0
Zn47 Zn 0.0809 0.32443 1.00466 0.0
O48 O 0.09263 0.3392 0.97154 0.0
O49 O 0.12234 0.37375 0.97705 0.0
O50 O 0.02637 0.32286 0.00499 0.0
O51 O 0.04824 0.36017 0.00587 0.0
O52 O 0.1257 0.37285 0.0321 0.0
O53 O 0.09444 0.33881 0.03771 0.0
C54 C 0.10857 0.35823 0.96356 0.0
C55 C 0.11195 0.35733 0.04559 0.0
C56 C 0.85928 0.64559 0.79576 0.0
C57 C 0.85761 0.64094 0.71361 0.0
O58 O 0.87113 0.62858 0.78319 0.0
Zn59 Zn 0.8576 0.64308 0.75485 0.0
O60 O 0.84362 0.66421 0.78676 0.0
Zn61 Zn 0.83022 0.67681 0.75304 0.0
O62 O 0.77552 0.67901 0.75311 0.0
O63 O 0.79627 0.64156 0.75564 0.0
O64 O 0.84221 0.66044 0.72088 0.0
O65 O 0.87041 0.62568 0.72768 0.0
O66 O 0.895 0.67413 0.75397 0.0
O67 O 0.85853 0.70645 0.75132 0.0
C68 C 0.76853 0.6566 0.75478 0.0
C69 C 0.89152 0.69716 0.75264 0.0
C70 C 0.87523 0.05418 0.75198 0.0
C71 C 0.99817 0.09469 0.75557 0.0
O72 O 0.90829 0.04489 0.7518 0.0
Zn73 Zn 0.93635 0.07449 0.75341 0.0
O74 O 0.8716 0.07725 0.75283 0.0
Zn75 Zn 0.90931 0.10834 0.75462 0.0
O76 O 0.89755 0.1257 0.72739 0.0
O77 O 0.92526 0.09067 0.72095 0.0
O78 O 0.97048 0.10977 0.75588 0.0
O79 O 0.99111 0.07227 0.75426 0.0
O80 O 0.92096 0.08695 0.78672 0.0
O81 O 0.89543 0.12317 0.78286 0.0
C82 C 0.91036 0.11026 0.71349 0.0
C83 C 0.9057 0.1058 0.79545 0.0
C84 C 0.85705 0.11121 0.04588 0.0
C85 C 0.86164 0.10635 0.96392 0.0
O86 O 0.86993 0.12658 0.03193 0.0
Zn87 Zn 0.85816 0.10908 1.00476 0.0
O88 O 0.84219 0.09158 0.03849 0.0
Zn89 Zn 0.83117 0.07522 0.00611 0.0
O90 O 0.85921 0.04565 0.00782 0.0
O91 O 0.89591 0.07799 0.00659 0.0
O92 O 0.84645 0.08753 0.97275 0.0
O93 O 0.87189 0.12379 0.97643 0.0
O94 O 0.79695 0.11046 1.00361 0.0
O95 O 0.77647 0.07293 0.0053 0.0
C96 C 0.89227 0.05493 0.00752 0.0
C97 C 0.76932 0.09534 1.00399 0.0
C98 C 0.90536 0.64529 0.96403 0.0
C99 C 0.90874 0.63995 0.04606 0.0
O100 O 0.89312 0.6284 0.97659 0.0
Zn101 Zn 0.90719 0.64267 0.00493 0.0
O102 O 0.92159 0.66371 0.97303 0.0
Zn103 Zn 0.93565 0.67603 0.00674 0.0
O104 O 0.9902 0.67792 0.00615 0.0
O105 O 0.96875 0.64056 1.00405 0.0
O106 O 0.92525 0.65909 0.03882 0.0
O107 O 0.89359 0.62548 0.03208 0.0
O108 O 0.87065 0.67397 0.00603 0.0
O109 O 0.90776 0.7059 0.00906 0.0
C110 C 0.99677 0.65543 1.00468 0.0
C111 C 0.87459 0.69693 0.00764 0.0
C112 C 0.12541 0.80344 0.75774 0.0
C113 C 0.24797 0.84443 0.75459 0.0
O114 O 0.12162 0.8265 0.7571 0.0
Zn115 Zn 0.15903 0.85774 0.75544 0.0
O116 O 0.15854 0.79424 0.7577 0.0
Zn117 Zn 0.1863 0.82396 0.75614 0.0
O118 O 0.17533 0.83992 0.78888 0.0
O119 O 0.14673 0.87475 0.78266 0.0
O120 O 0.24107 0.82195 0.75459 0.0
O121 O 0.22019 0.85944 0.75501 0.0
O122 O 0.14526 0.87277 0.72718 0.0
O123 O 0.17021 0.83646 0.7231 0.0
C124 C 0.16001 0.85936 0.79646 0.0
C125 C 0.155 0.85538 0.71449 0.0
C126 C 0.10963 0.39531 0.71365 0.0
C127 C 0.10669 0.38941 0.79559 0.0
O128 O 0.09518 0.41422 0.72281 0.0
Zn129 Zn 0.08087 0.42619 0.75657 0.0
O130 O 0.11964 0.37759 0.72589 0.0
Zn131 Zn 0.10711 0.39211 0.75442 0.0
O132 O 0.04591 0.39133 0.75364 0.0
O133 O 0.02615 0.42898 0.75617 0.0
O134 O 0.11921 0.37418 0.78139 0.0
O135 O 0.09199 0.4092 0.78851 0.0
O136 O 0.10975 0.45543 0.75899 0.0
O137 O 0.14556 0.42284 0.75577 0.0
C138 C 0.01858 0.40665 0.75447 0.0
C139 C 0.14254 0.44589 0.75753 0.0
C140 C 0.15502 0.39585 0.54529 0.0
C141 C 0.16072 0.3918 0.46334 0.0
O142 O 0.17017 0.4148 0.53672 0.0
Zn143 Zn 0.18636 0.42733 0.50371 0.0
O144 O 0.14541 0.37845 0.53257 0.0
Zn145 Zn 0.1593 0.39349 0.50435 0.0
O146 O 0.22049 0.39198 0.50498 0.0
O147 O 0.24107 0.42953 0.50539 0.0
O148 O 0.14744 0.37636 0.47711 0.0
O149 O 0.17578 0.4113 0.47096 0.0
O150 O 0.15846 0.45696 0.50203 0.0
O151 O 0.12166 0.42464 0.50249 0.0
C152 C 0.24816 0.40707 0.50546 0.0
C153 C 0.12537 0.44771 0.50185 0.0
C154 C 0.10627 0.85987 0.46426 0.0
C155 C 0.10843 0.85499 0.54626 0.0
O156 O 0.09134 0.84022 0.4715 0.0
Zn157 Zn 0.07972 0.82369 0.50359 0.0
O158 O 0.1186 0.87528 0.47835 0.0
Zn159 Zn 0.10608 0.85777 0.50548 0.0
O160 O 0.14435 0.82697 0.50454 0.0
O161 O 0.10854 0.79435 0.50156 0.0
O162 O 0.11854 0.87258 0.53389 0.0
O163 O 0.09394 0.83601 0.53725 0.0
O164 O 0.02494 0.82109 0.50388 0.0
O165 O 0.04493 0.8587 0.50611 0.0
C166 C 0.14132 0.80391 0.50301 0.0
C167 C 0.0175 0.84345 0.50537 0.0
C168 C 0.85532 0.14341 0.21371 0.0
C169 C 0.85944 0.14781 0.29574 0.0
O170 O 0.86839 0.12809 0.22764 0.0
Zn171 Zn 0.85643 0.14548 0.2548 0.0
O172 O 0.8401 0.16292 0.22113 0.0
Zn173 Zn 0.82873 0.17907 0.25361 0.0
O174 O 0.85658 0.20884 0.25224 0.0
O175 O 0.89357 0.17665 0.25288 0.0
O176 O 0.84315 0.16633 0.28701 0.0
O177 O 0.87128 0.13101 0.28296 0.0
O178 O 0.79507 0.14371 0.25613 0.0
O179 O 0.77409 0.18115 0.25418 0.0
C180 C 0.88972 0.19969 0.25218 0.0
C181 C 0.76724 0.15872 0.25565 0.0
C182 C 0.90746 0.60898 0.21343 0.0
C183 C 0.9026 0.60792 0.29551 0.0
O184 O 0.89175 0.62401 0.22666 0.0
Zn185 Zn 0.90499 0.60826 0.25448 0.0
O186 O 0.92443 0.59042 0.22161 0.0
Zn187 Zn 0.935 0.57545 0.25472 0.0
O188 O 0.90831 0.545 0.25426 0.0
O189 O 0.86993 0.57644 0.25345 0.0
O190 O 0.92077 0.58968 0.28762 0.0
O191 O 0.88837 0.62329 0.28204 0.0
O192 O 0.96667 0.61151 0.25581 0.0
O193 O 0.9894 0.57437 0.2555 0.0
C194 C 0.87478 0.5535 0.25358 0.0
C195 C 0.9952 0.59699 0.25598 0.0
C196 C 0.89243 0.55493 0.50505 0.0
C197 C 0.77064 0.59691 0.50393 0.0
O198 O 0.85916 0.54602 0.50587 0.0
Zn199 Zn 0.83166 0.57609 0.50508 0.0
O200 O 0.8966 0.57793 0.50443 0.0
Zn201 Zn 0.86028 0.60936 0.50425 0.0
O202 O 0.87347 0.62581 0.53178 0.0
O203 O 0.84379 0.59138 0.53775 0.0
O204 O 0.79875 0.61173 0.50337 0.0
O205 O 0.77709 0.5744 0.5051 0.0
O206 O 0.84452 0.58997 0.47164 0.0
O207 O 0.87516 0.62441 0.47648 0.0
C208 C 0.85986 0.61046 0.54548 0.0
C209 C 0.8615 0.6085 0.46335 0.0
C210 C 0.99988 0.15872 0.50427 0.0
C211 C 0.87639 0.19865 0.50715 0.0
O212 O 0.99264 0.18109 0.50604 0.0
Zn213 Zn 0.93796 0.1786 0.50631 0.0
O214 O 0.97231 0.14355 0.50346 0.0
Zn215 Zn 0.91096 0.14476 0.50448 0.0
O216 O 0.89727 0.1303 0.47618 0.0
O217 O 0.92433 0.16606 0.4726 0.0
O218 O 0.87317 0.17561 0.50571 0.0
O219 O 0.90928 0.20808 0.5083 0.0
O220 O 0.92659 0.162 0.53844 0.0
O221 O 0.89866 0.12716 0.53158 0.0
C222 C 0.90878 0.1474 0.46362 0.0
C223 C 0.91149 0.14239 0.54567 0.0
C224 C 0.65797 0.361 0.79613 0.0
C225 C 0.65703 0.35714 0.71406 0.0
O226 O 0.67359 0.34161 0.78877 0.0
Zn227 Zn 0.68565 0.32547 0.75656 0.0
O228 O 0.64483 0.37623 0.78215 0.0
Zn229 Zn 0.65794 0.35909 0.75494 0.0
O230 O 0.62075 0.32789 0.75545 0.0
O231 O 0.65757 0.29574 0.75798 0.0
O232 O 0.64468 0.37391 0.72672 0.0
O233 O 0.67268 0.33846 0.72294 0.0
O234 O 0.74028 0.32339 0.75661 0.0
O235 O 0.71933 0.36083 0.75438 0.0
C236 C 0.62449 0.30487 0.75664 0.0
C237 C 0.74715 0.34584 0.75518 0.0
C238 C 0.60956 0.89527 0.71386 0.0
C239 C 0.60807 0.89197 0.79591 0.0
O240 O 0.59393 0.91402 0.72259 0.0
Zn241 Zn 0.58025 0.92713 0.75594 0.0
O242 O 0.62135 0.87847 0.72666 0.0
Zn243 Zn 0.60803 0.8935 0.75483 0.0
O244 O 0.54669 0.89162 0.75484 0.0
O245 O 0.52554 0.92909 0.75527 0.0
O246 O 0.62146 0.8767 0.78203 0.0
O247 O 0.59215 0.91123 0.78844 0.0
O248 O 0.60828 0.95693 0.75731 0.0
O249 O 0.64509 0.92472 0.75529 0.0
C250 C 0.5188 0.90658 0.75493 0.0
C251 C 0.64137 0.94776 0.75626 0.0
C252 C 0.65567 0.89419 0.5458 0.0
C253 C 0.65722 0.88965 0.46377 0.0
O254 O 0.6715 0.91275 0.53681 0.0
Zn255 Zn 0.68493 0.92537 0.50317 0.0
O256 O 0.64352 0.87728 0.53323 0.0
Zn257 Zn 0.65715 0.89176 0.50492 0.0
O258 O 0.7185 0.88995 0.50559 0.0
O259 O 0.73959 0.92734 0.5032 0.0
O260 O 0.64415 0.87443 0.4778 0.0
O261 O 0.67284 0.90906 0.47106 0.0
O262 O 0.65694 0.95511 0.50145 0.0
O263 O 0.62005 0.92298 0.50394 0.0
C264 C 0.74638 0.90489 0.50474 0.0
C265 C 0.62382 0.946 0.50261 0.0
C266 C 0.61117 0.35709 0.546 0.0
C267 C 0.60755 0.35984 0.46391 0.0
O268 O 0.59511 0.3384 0.53748 0.0
Zn269 Zn 0.58071 0.32503 0.5045 0.0
O270 O 0.62298 0.37373 0.53302 0.0
Zn271 Zn 0.60861 0.35864 0.50493 0.0
O272 O 0.54724 0.36057 0.5054 0.0
O273 O 0.52606 0.32311 0.50562 0.0
O274 O 0.62107 0.37531 0.47755 0.0
O275 O 0.59197 0.34058 0.47167 0.0
O276 O 0.60857 0.2952 0.50364 0.0
O277 O 0.64558 0.32739 0.50364 0.0
C278 C 0.51934 0.34563 0.50572 0.0
C279 C 0.64172 0.30434 0.50337 0.0
C280 C 0.35749 0.64797 0.29577 0.0
C281 C 0.35377 0.64201 0.2138 0.0
O282 O 0.36709 0.63017 0.28352 0.0
Zn283 Zn 0.35422 0.64464 0.25502 0.0
O284 O 0.34303 0.6669 0.28665 0.0
Zn285 Zn 0.32826 0.67882 0.25291 0.0
O286 O 0.27347 0.68171 0.2535 0.0
O287 O 0.29307 0.64405 0.25614 0.0
O288 O 0.33922 0.66184 0.2209 0.0
O289 O 0.36602 0.6267 0.228 0.0
O290 O 0.39287 0.67521 0.25346 0.0
O291 O 0.35742 0.70797 0.25038 0.0
C292 C 0.2658 0.65941 0.25538 0.0
C293 C 0.39011 0.69826 0.2517 0.0
C294 C 0.37496 0.0542 0.25451 0.0
C295 C 0.49672 0.09616 0.25638 0.0
O296 O 0.40825 0.04529 0.2551 0.0
Zn297 Zn 0.43573 0.07535 0.25525 0.0
O298 O 0.37077 0.07721 0.25434 0.0
Zn299 Zn 0.40709 0.10861 0.2553 0.0
O300 O 0.39473 0.12487 0.22768 0.0
O301 O 0.42404 0.09018 0.2222 0.0
O302 O 0.46862 0.11099 0.25653 0.0
O303 O 0.49028 0.07363 0.25555 0.0
O304 O 0.42233 0.08968 0.28828 0.0
O305 O 0.39126 0.12383 0.28286 0.0
C306 C 0.40828 0.10926 0.21421 0.0
C307 C 0.40495 0.10819 0.29625 0.0
C308 C 0.35891 0.10986 0.54586 0.0
C309 C 0.36267 0.10818 0.46386 0.0
O310 O 0.37281 0.12526 0.5323 0.0
Zn311 Zn 0.36045 0.10877 0.50481 0.0
O312 O 0.34303 0.09076 0.53798 0.0
Zn313 Zn 0.3315 0.07567 0.50499 0.0
O314 O 0.35861 0.0455 0.50537 0.0
O315 O 0.39651 0.07721 0.506 0.0
O316 O 0.34509 0.08976 0.47188 0.0
O317 O 0.37648 0.1238 0.47722 0.0
O318 O 0.29888 0.11139 0.50352 0.0
O319 O 0.27699 0.0741 0.50461 0.0
C320 C 0.39201 0.05422 0.50594 0.0
C321 C 0.27068 0.09664 0.50371 0.0
C322 C 0.41199 0.64232 0.54578 0.0
C323 C 0.4071 0.64794 0.46383 0.0
O324 O 0.39938 0.62702 0.53167 0.0
Zn325 Zn 0.41102 0.64481 0.50465 0.0
O326 O 0.42672 0.66207 0.53856 0.0
Zn327 Zn 0.43773 0.67872 0.50626 0.0
O328 O 0.40953 0.70822 0.50825 0.0
O329 O 0.37308 0.67577 0.50679 0.0
O330 O 0.42224 0.66673 0.47276 0.0
O331 O 0.39717 0.63035 0.47625 0.0
O332 O 0.47221 0.64361 0.50339 0.0
O333 O 0.49245 0.68117 0.50541 0.0
C334 C 0.37654 0.69884 0.50792 0.0
C335 C 0.49974 0.6588 0.50387 0.0
C336 C 0.65843 0.85901 0.29587 0.0
C337 C 0.65683 0.85589 0.21382 0.0
O338 O 0.674 0.83966 0.28835 0.0
Zn339 Zn 0.68638 0.82402 0.25582 0.0
O340 O 0.64566 0.87452 0.28202 0.0
Zn341 Zn 0.65851 0.85761 0.25478 0.0
O342 O 0.62154 0.82635 0.2559 0.0
O343 O 0.65855 0.79417 0.25653 0.0
O344 O 0.64445 0.87248 0.22666 0.0
O345 O 0.67292 0.83726 0.22249 0.0
O346 O 0.74108 0.82215 0.25576 0.0
O347 O 0.71983 0.85954 0.25408 0.0
C348 C 0.62539 0.80331 0.25638 0.0
C349 C 0.74777 0.84463 0.25463 0.0
C350 C 0.6064 0.39041 0.2959 0.0
C351 C 0.60945 0.39473 0.21386 0.0
O352 O 0.59122 0.40993 0.28849 0.0
Zn353 Zn 0.58032 0.42634 0.25611 0.0
O354 O 0.61956 0.3751 0.28198 0.0
Zn355 Zn 0.60716 0.39241 0.25483 0.0
O356 O 0.64515 0.4232 0.25598 0.0
O357 O 0.60908 0.45573 0.258 0.0
O358 O 0.62054 0.37762 0.22652 0.0
O359 O 0.59421 0.41353 0.22272 0.0
O360 O 0.52573 0.42902 0.25517 0.0
O361 O 0.54574 0.3913 0.25453 0.0
C362 C 0.64197 0.44625 0.25718 0.0
C363 C 0.51831 0.4066 0.25462 0.0
C364 C 0.65807 0.39602 0.046 0.0
C365 C 0.66062 0.39244 0.96397 0.0
O366 O 0.67401 0.4147 0.03733 0.0
Zn367 Zn 0.68763 0.42786 1.00395 0.0
O368 O 0.64607 0.37932 0.03315 0.0
Zn369 Zn 0.66027 0.39415 0.00506 0.0
O370 O 0.72165 0.39262 0.00606 0.0
O371 O 0.7423 0.43014 1.00418 0.0
O372 O 0.648 0.37696 0.97789 0.0
O373 O 0.6758 0.41196 0.97142 0.0
O374 O 0.65941 0.45753 1.003 0.0
O375 O 0.62279 0.42517 1.00365 0.0
C376 C 0.74935 0.40771 0.00552 0.0
C377 C 0.62636 0.44823 1.00308 0.0
C378 C 0.61084 0.8567 0.04579 0.0
C379 C 0.60848 0.86064 0.96375 0.0
O380 O 0.5947 0.83817 0.03698 0.0
Zn381 Zn 0.58105 0.82523 1.00359 0.0
O382 O 0.62316 0.87341 0.03305 0.0
Zn383 Zn 0.60896 0.85878 1.00484 0.0
O384 O 0.54757 0.86068 0.00573 0.0
O385 O 0.5264 0.82328 1.0038 0.0
O386 O 0.6215 0.87598 0.97768 0.0
O387 O 0.59303 0.8412 0.97117 0.0
O388 O 0.60882 0.79541 1.00257 0.0
O389 O 0.64599 0.82751 1.00344 0.0
C390 C 0.51966 0.84574 0.00514 0.0
C391 C 0.64202 0.80447 1.00281 0.0
C392 C 0.26903 0.15667 0.75578 0.0
C393 C 0.39168 0.19749 0.75198 0.0
O394 O 0.276 0.1791 0.75439 0.0
Zn395 Zn 0.33074 0.17698 0.75355 0.0
O396 O 0.29678 0.14164 0.75617 0.0
Zn397 Zn 0.35799 0.14323 0.75492 0.0
O398 O 0.37196 0.1286 0.78321 0.0
O399 O 0.34621 0.16477 0.78694 0.0
O400 O 0.39551 0.17444 0.75296 0.0
O401 O 0.35853 0.20665 0.75175 0.0
O402 O 0.34188 0.16058 0.72118 0.0
O403 O 0.3698 0.12565 0.72782 0.0
C404 C 0.3616 0.146 0.79574 0.0
C405 C 0.35685 0.14096 0.71384 0.0
C406 C 0.40593 0.60476 0.79565 0.0
C407 C 0.40963 0.6091 0.71351 0.0
O408 O 0.39376 0.62149 0.78288 0.0
Zn409 Zn 0.40851 0.60704 0.75465 0.0
O410 O 0.42235 0.58631 0.78687 0.0
Zn411 Zn 0.43666 0.57359 0.75344 0.0
O412 O 0.49129 0.57178 0.75391 0.0
O413 O 0.46989 0.60913 0.75576 0.0
O414 O 0.42513 0.58969 0.72095 0.0
O415 O 0.39619 0.6243 0.72744 0.0
O416 O 0.37178 0.57564 0.75295 0.0
O417 O 0.40922 0.54366 0.75213 0.0
C418 C 0.49789 0.59426 0.75525 0.0
C419 C 0.37594 0.55261 0.75224 0.0
C420 C 0.35615 0.60936 0.04598 0.0
C421 C 0.35847 0.60483 0.9638 0.0
O422 O 0.36905 0.62465 0.03196 0.0
Zn423 Zn 0.35659 0.60727 1.00473 0.0
O424 O 0.34095 0.58983 0.03864 0.0
Zn425 Zn 0.32949 0.57343 0.00644 0.0
O426 O 0.35816 0.54391 0.00822 0.0
O427 O 0.39429 0.57639 0.00571 0.0
O428 O 0.34295 0.58614 0.97276 0.0
O429 O 0.37013 0.62185 0.97641 0.0
O430 O 0.29525 0.60855 1.00386 0.0
O431 O 0.27479 0.57102 0.00624 0.0
C432 C 0.39106 0.55335 0.00703 0.0
C433 C 0.26763 0.59342 1.00463 0.0
C434 C 0.40998 0.13917 0.04607 0.0
C435 C 0.40619 0.14506 0.96415 0.0
O436 O 0.39735 0.1239 0.03195 0.0
Zn437 Zn 0.40924 0.14177 0.0049 0.0
O438 O 0.4247 0.15891 0.03889 0.0
Zn439 Zn 0.43568 0.17582 0.00692 0.0
O440 O 0.40697 0.20511 0.00946 0.0
O441 O 0.37097 0.17258 0.00649 0.0
O442 O 0.42085 0.16392 0.97326 0.0
O443 O 0.39625 0.12733 0.9764 0.0
O444 O 0.47041 0.14085 1.00384 0.0
O445 O 0.49042 0.17844 0.0063 0.0
C446 C 0.37411 0.19562 0.00823 0.0
C447 C 0.49784 0.1561 1.00455 0.0
H448 H 0.09965 0.38455 0.19068 0.0
H449 H 0.19786 0.339 0.17999 0.0
H450 H 0.08849 0.38564 0.14977 0.0
H451 H 0.18716 0.34079 0.13912 0.0
H452 H 0.16785 0.38222 0.06751 0.0
H453 H 0.17881 0.38443 0.10837 0.0
H454 H 0.07871 0.34118 0.12001 0.0
H455 H 0.06817 0.33826 0.07917 0.0
C456 C 0.11912 0.37509 0.17959 0.0
C457 C 0.14959 0.36165 0.18847 0.0
C458 C 0.11263 0.37567 0.15629 0.0
C459 C 0.13707 0.36333 0.14155 0.0
C460 C 0.16811 0.35048 0.1503 0.0
C461 C 0.1741 0.34943 0.1736 0.0
C462 C 0.14803 0.37334 0.07879 0.0
C463 C 0.11719 0.36002 0.0702 0.0
C464 C 0.15439 0.37457 0.10208 0.0
C465 C 0.12949 0.36302 0.11709 0.0
C466 C 0.0981 0.35028 0.10862 0.0
C467 C 0.09221 0.34857 0.08533 0.0
H468 H 0.17366 0.93182 0.07734 0.0
H469 H 0.12876 0.85946 0.07125 0.0
H470 H 0.16182 0.93087 0.11785 0.0
H471 H 0.1166 0.85867 0.11186 0.0
H472 H 0.13897 0.85915 0.18919 0.0
H473 H 0.15129 0.85862 0.14858 0.0
H474 H 0.1056 0.93073 0.14289 0.0
H475 H 0.0936 0.93142 0.18338 0.0
C476 C 0.16136 0.91567 0.08464 0.0
C477 C 0.15207 0.89573 0.07103 0.0
C478 C 0.15435 0.91521 0.10784 0.0
C479 C 0.13804 0.89476 0.11802 0.0
C480 C 0.12942 0.87462 0.10452 0.0
C481 C 0.13625 0.87513 0.08125 0.0
C482 C 0.13142 0.87485 0.17926 0.0
C483 C 0.1154 0.89535 0.18955 0.0
C484 C 0.13834 0.87449 0.15599 0.0
C485 C 0.12963 0.89469 0.14258 0.0
C486 C 0.11315 0.91503 0.15284 0.0
C487 C 0.10604 0.91534 0.17603 0.0
H488 H 0.88774 0.60817 0.82092 0.0
H489 H 0.84337 0.68069 0.8267 0.0
H490 H 0.89938 0.60743 0.86161 0.0
H491 H 0.85471 0.6798 0.86725 0.0
H492 H 0.92208 0.68025 0.9331 0.0
H493 H 0.91065 0.6795 0.89255 0.0
H494 H 0.86408 0.60762 0.89819 0.0
H495 H 0.8758 0.60822 0.93886 0.0
C496 C 0.88027 0.62388 0.83086 0.0
C497 C 0.86473 0.64451 0.82054 0.0
C498 C 0.88679 0.62341 0.85417 0.0
C499 C 0.87817 0.64361 0.86759 0.0
C500 C 0.86217 0.66408 0.85731 0.0
C501 C 0.85544 0.66452 0.83407 0.0
C502 C 0.90956 0.66422 0.92573 0.0
C503 C 0.89977 0.64431 0.93925 0.0
C504 C 0.90278 0.66387 0.9025 0.0
C505 C 0.88623 0.64356 0.89221 0.0
C506 C 0.87709 0.62346 0.90563 0.0
C507 C 0.88366 0.62386 0.92893 0.0
H508 H 0.8846 0.06945 0.93739 0.0
H509 H 0.85439 0.14484 0.93547 0.0
H510 H 0.89698 0.07001 0.8971 0.0
H511 H 0.86338 0.14521 0.89461 0.0
H512 H 0.91283 0.14449 0.82368 0.0
H513 H 0.90383 0.14512 0.86453 0.0
H514 H 0.87046 0.06987 0.86249 0.0
H515 H 0.88286 0.06904 0.8222 0.0
C516 C 0.88002 0.08608 0.92814 0.0
C517 C 0.86847 0.10707 0.93941 0.0
C518 C 0.88674 0.08641 0.90492 0.0
C519 C 0.88076 0.10758 0.8922 0.0
C520 C 0.86902 0.12863 0.90367 0.0
C521 C 0.86351 0.12845 0.92709 0.0
C522 C 0.90376 0.12814 0.83216 0.0
C523 C 0.89887 0.10667 0.81996 0.0
C524 C 0.89824 0.12848 0.85557 0.0
C525 C 0.88655 0.1075 0.86717 0.0
C526 C 0.88065 0.08623 0.85457 0.0
C527 C 0.88738 0.08574 0.83135 0.0
H528 H 0.16161 0.89389 0.68596 0.0
H529 H 0.13088 0.81859 0.68822 0.0
H530 H 0.15149 0.89424 0.64519 0.0
H531 H 0.1174 0.81915 0.64806 0.0
H532 H 0.13075 0.81808 0.57301 0.0
H533 H 0.14335 0.81887 0.61328 0.0
H534 H 0.11033 0.89418 0.61542 0.0
H535 H 0.10107 0.89357 0.57459 0.0
C536 C 0.15212 0.87752 0.67768 0.0
C537 C 0.14738 0.85616 0.69006 0.0
C538 C 0.14596 0.87769 0.65432 0.0
C539 C 0.13377 0.85667 0.64298 0.0
C540 C 0.12796 0.83554 0.65578 0.0
C541 C 0.13532 0.8352 0.67892 0.0
C542 C 0.12627 0.83477 0.58218 0.0
C543 C 0.11485 0.85573 0.57082 0.0
C544 C 0.13314 0.83525 0.60538 0.0
C545 C 0.12749 0.85654 0.61799 0.0
C546 C 0.11574 0.87752 0.60644 0.0
C547 C 0.11006 0.87719 0.58305 0.0
H548 H 0.16176 0.35722 0.57364 0.0
H549 H 0.13107 0.43254 0.57178 0.0
H550 H 0.15197 0.35667 0.61443 0.0
H551 H 0.11791 0.43178 0.61199 0.0
H552 H 0.13178 0.43241 0.68704 0.0
H553 H 0.14406 0.43187 0.64673 0.0
H554 H 0.11102 0.35657 0.64428 0.0
H555 H 0.10209 0.35693 0.68513 0.0
C556 C 0.15234 0.37355 0.58201 0.0
C557 C 0.1475 0.39496 0.56973 0.0
C558 C 0.14637 0.37326 0.60539 0.0
C559 C 0.13428 0.39424 0.61685 0.0
C560 C 0.12838 0.41543 0.60416 0.0
C561 C 0.13555 0.41588 0.581 0.0
C562 C 0.12724 0.41577 0.6778 0.0
C563 C 0.11592 0.39474 0.68908 0.0
C564 C 0.13393 0.41544 0.65457 0.0
C565 C 0.12818 0.39423 0.64186 0.0
C566 C 0.11651 0.37318 0.65333 0.0
C567 C 0.11102 0.37336 0.67674 0.0
H568 H 0.88973 0.11059 0.32043 0.0
H569 H 0.84319 0.18248 0.32701 0.0
H570 H 0.9024 0.10975 0.36101 0.0
H571 H 0.85556 0.18149 0.36744 0.0
H572 H 0.92419 0.18257 0.43268 0.0
H573 H 0.91219 0.18178 0.3922 0.0
H574 H 0.86788 0.10933 0.39791 0.0
H575 H 0.88019 0.10997 0.43852 0.0
C576 C 0.88201 0.12614 0.33052 0.0
C577 C 0.86556 0.14663 0.32046 0.0
C578 C 0.88913 0.12561 0.35377 0.0
C579 C 0.8802 0.14562 0.36737 0.0
C580 C 0.86329 0.16594 0.35734 0.0
C581 C 0.85597 0.16643 0.33418 0.0
C582 C 0.91207 0.1664 0.42534 0.0
C583 C 0.90305 0.14636 0.43887 0.0
C584 C 0.90497 0.16602 0.40215 0.0
C585 C 0.88884 0.14556 0.3919 0.0
C586 C 0.88054 0.1253 0.40531 0.0
C587 C 0.88745 0.12572 0.42858 0.0
H588 H 0.94846 0.59068 0.32889 0.0
H589 H 0.84445 0.6305 0.31763 0.0
H590 H 0.93806 0.59307 0.36975 0.0
H591 H 0.83359 0.63214 0.35855 0.0
H592 H 0.81664 0.58933 0.43032 0.0
H593 H 0.82649 0.59152 0.38937 0.0
H594 H 0.92793 0.6339 0.3998 0.0
H595 H 0.9176 0.63244 0.44074 0.0
C596 C 0.92347 0.59997 0.33516 0.0
C597 C 0.89727 0.61043 0.32013 0.0
C598 C 0.91764 0.60139 0.35846 0.0
C599 C 0.88507 0.61276 0.36709 0.0
C600 C 0.8589 0.62329 0.35216 0.0
C601 C 0.8652 0.62241 0.32884 0.0
C602 C 0.84083 0.5993 0.42385 0.0
C603 C 0.86635 0.61074 0.43867 0.0
C604 C 0.84633 0.6006 0.4005 0.0
C605 C 0.87791 0.61286 0.39164 0.0
C606 C 0.90337 0.62437 0.40637 0.0
C607 C 0.89737 0.62359 0.4297 0.0
H608 H 0.64114 0.39458 0.57059 0.0
H609 H 0.59457 0.32271 0.57736 0.0
H610 H 0.65329 0.39564 0.61129 0.0
H611 H 0.60646 0.32391 0.61778 0.0
H612 H 0.62863 0.39475 0.68907 0.0
H613 H 0.61762 0.3958 0.6483 0.0
H614 H 0.66367 0.32382 0.64233 0.0
H615 H 0.67444 0.32262 0.68291 0.0
C616 C 0.63332 0.37909 0.58074 0.0
C617 C 0.61703 0.35853 0.57071 0.0
C618 C 0.64015 0.37974 0.60403 0.0
C619 C 0.63111 0.35977 0.61765 0.0
C620 C 0.6143 0.33942 0.60765 0.0
C621 C 0.60726 0.33882 0.58448 0.0
C622 C 0.63657 0.3792 0.67903 0.0
C623 C 0.65221 0.35855 0.68926 0.0
C624 C 0.63042 0.37987 0.65569 0.0
C625 C 0.63951 0.35982 0.64219 0.0
C626 C 0.65584 0.3394 0.65237 0.0
C627 C 0.6622 0.33878 0.67562 0.0
H628 H 0.59318 0.92983 0.68257 0.0
H629 H 0.63855 0.85763 0.68915 0.0
H630 H 0.60473 0.92855 0.64208 0.0
H631 H 0.65038 0.8565 0.64847 0.0
H632 H 0.67273 0.92904 0.5767 0.0
H633 H 0.66144 0.92827 0.61725 0.0
H634 H 0.61496 0.85636 0.61167 0.0
H635 H 0.62653 0.85697 0.57096 0.0
C636 C 0.60552 0.91364 0.67539 0.0
C637 C 0.61506 0.89386 0.68912 0.0
C638 C 0.61236 0.91299 0.65219 0.0
C639 C 0.62874 0.8925 0.64214 0.0
C640 C 0.63754 0.87248 0.65575 0.0
C641 C 0.6309 0.87318 0.67904 0.0
C642 C 0.66027 0.91299 0.58408 0.0
C643 C 0.6504 0.8931 0.57057 0.0
C644 C 0.65359 0.91263 0.60731 0.0
C645 C 0.63704 0.89233 0.61759 0.0
C646 C 0.62794 0.8722 0.6042 0.0
C647 C 0.63442 0.8726 0.5809 0.0
H648 H 0.38098 0.68505 0.32205 0.0
H649 H 0.35008 0.60979 0.32452 0.0
H650 H 0.39472 0.68453 0.3622 0.0
H651 H 0.36043 0.60948 0.36523 0.0
H652 H 0.41284 0.60951 0.43519 0.0
H653 H 0.40224 0.60922 0.3945 0.0
H654 H 0.37051 0.68473 0.3974 0.0
H655 H 0.38449 0.68519 0.43752 0.0
C656 C 0.37648 0.66847 0.3314 0.0
C657 C 0.36442 0.64748 0.3203 0.0
C658 C 0.38401 0.66816 0.35454 0.0
C659 C 0.37842 0.64701 0.36737 0.0
C660 C 0.36591 0.62602 0.35609 0.0
C661 C 0.35958 0.62618 0.33275 0.0
C662 C 0.40382 0.626 0.42694 0.0
C663 C 0.39979 0.64741 0.43934 0.0
C664 C 0.39735 0.62586 0.40361 0.0
C665 C 0.38552 0.64698 0.3923 0.0
C666 C 0.38068 0.66823 0.40509 0.0
C667 C 0.38836 0.66852 0.42821 0.0
H668 H 0.31774 0.08983 0.43051 0.0
H669 H 0.41969 0.13176 0.44171 0.0
H670 H 0.32815 0.09225 0.38964 0.0
H671 H 0.43057 0.13345 0.40082 0.0
H672 H 0.4499 0.08988 0.32958 0.0
H673 H 0.43945 0.09226 0.37045 0.0
H674 H 0.33707 0.1335 0.3593 0.0
H675 H 0.34798 0.13186 0.3184 0.0
C676 C 0.34227 0.09959 0.42423 0.0
C677 C 0.36791 0.11062 0.43924 0.0
C678 C 0.34809 0.10103 0.40093 0.0
C679 C 0.3801 0.11302 0.3923 0.0
C680 C 0.40569 0.12414 0.40721 0.0
C681 C 0.39937 0.12322 0.43051 0.0
C682 C 0.42537 0.09965 0.33587 0.0
C683 C 0.39975 0.1107 0.32087 0.0
C684 C 0.41953 0.10106 0.35917 0.0
C685 C 0.38751 0.11304 0.3678 0.0
C686 C 0.36195 0.12419 0.3529 0.0
C687 C 0.36829 0.1233 0.3296 0.0
H688 H 0.67389 0.82152 0.18247 0.0
H689 H 0.62764 0.89349 0.18914 0.0
H690 H 0.66254 0.82286 0.14196 0.0
H691 H 0.61605 0.89468 0.14842 0.0
H692 H 0.59386 0.82205 0.07685 0.0
H693 H 0.60531 0.82298 0.11735 0.0
H694 H 0.65183 0.89485 0.11148 0.0
H695 H 0.64016 0.89406 0.07076 0.0
C696 C 0.66142 0.83768 0.1753 0.0
C697 C 0.65153 0.85737 0.18907 0.0
C698 C 0.65471 0.83836 0.15209 0.0
C699 C 0.63813 0.85879 0.14207 0.0
C700 C 0.62904 0.87875 0.1557 0.0
C701 C 0.63553 0.87801 0.179 0.0
C702 C 0.60637 0.83813 0.08414 0.0
C703 C 0.61624 0.85795 0.07054 0.0
C704 C 0.61313 0.83858 0.10735 0.0
C705 C 0.62975 0.85891 0.11753 0.0
C706 C 0.63883 0.87899 0.10407 0.0
C707 C 0.63228 0.87848 0.08077 0.0
H708 H 0.67512 0.43028 0.07749 0.0
H709 H 0.62823 0.35851 0.07051 0.0
H710 H 0.66329 0.4289 0.11796 0.0
H711 H 0.6161 0.3573 0.11115 0.0
H712 H 0.63826 0.35727 0.18881 0.0
H713 H 0.65076 0.35668 0.14818 0.0
H714 H 0.60632 0.4291 0.14249 0.0
H715 H 0.59413 0.42984 0.18292 0.0
C716 C 0.6624 0.41416 0.08458 0.0
C717 C 0.65248 0.39454 0.07074 0.0
C718 C 0.65541 0.41345 0.10777 0.0
C719 C 0.63849 0.39307 0.11769 0.0
C720 C 0.62936 0.37319 0.10398 0.0
C721 C 0.63617 0.37395 0.08071 0.0
C722 C 0.63102 0.37301 0.17886 0.0
C723 C 0.61534 0.39364 0.18913 0.0
C724 C 0.63805 0.37263 0.15559 0.0
C725 C 0.62979 0.39291 0.1422 0.0
C726 C 0.61355 0.41334 0.15243 0.0
C727 C 0.60634 0.41369 0.1756 0.0
H728 H 0.38376 0.18295 0.8225 0.0
H729 H 0.35514 0.1073 0.82396 0.0
H730 H 0.39641 0.18217 0.86277 0.0
H731 H 0.36439 0.10668 0.86477 0.0
H732 H 0.41431 0.10692 0.93542 0.0
H733 H 0.40524 0.10677 0.89459 0.0
H734 H 0.37041 0.18172 0.89754 0.0
H735 H 0.38288 0.18209 0.93784 0.0
C736 C 0.37958 0.16622 0.83164 0.0
C737 C 0.36843 0.14521 0.82025 0.0
C738 C 0.38647 0.16574 0.85484 0.0
C739 C 0.38107 0.14441 0.86741 0.0
C740 C 0.36963 0.12337 0.85582 0.0
C741 C 0.36396 0.1237 0.83243 0.0
C742 C 0.40492 0.12331 0.92715 0.0
C743 C 0.3996 0.14456 0.93961 0.0
C744 C 0.39935 0.12325 0.90374 0.0
C745 C 0.38716 0.14428 0.89242 0.0
C746 C 0.38094 0.16534 0.90526 0.0
C747 C 0.38773 0.16557 0.92848 0.0
H748 H 0.37575 0.64193 0.82051 0.0
H749 H 0.42264 0.57011 0.82684 0.0
H750 H 0.36358 0.64273 0.86116 0.0
H751 H 0.41076 0.57105 0.86732 0.0
H752 H 0.34286 0.56973 0.93282 0.0
H753 H 0.35438 0.57065 0.89229 0.0
H754 H 0.39852 0.64314 0.89799 0.0
H755 H 0.3867 0.64237 0.93867 0.0
C756 C 0.38365 0.62639 0.83056 0.0
C757 C 0.40005 0.60593 0.8204 0.0
C758 C 0.37681 0.62689 0.85384 0.0
C759 C 0.38598 0.60689 0.8674 0.0
C760 C 0.40285 0.5866 0.85727 0.0
C761 C 0.40989 0.58614 0.83407 0.0
C762 C 0.35485 0.58594 0.92547 0.0
C763 C 0.36397 0.60596 0.93902 0.0
C764 C 0.36168 0.58639 0.90225 0.0
C765 C 0.37761 0.6069 0.89198 0.0
C766 C 0.386 0.62714 0.90541 0.0
C767 C 0.37938 0.62664 0.92871 0.0
H768 H 0.89364 0.24777 0.26213 0.0
H769 H 0.9628 0.18708 0.24183 0.0
H770 H 0.95004 0.27322 0.26334 0.0
H771 H 0.01906 0.21274 0.24195 0.0
H772 H 0.11847 0.25835 0.26625 0.0
H773 H 0.06198 0.23283 0.26574 0.0
H774 H 0.99534 0.29298 0.24113 0.0
H775 H 0.0514 0.31864 0.24274 0.0
C776 C 0.92087 0.23994 0.25763 0.0
C777 C 0.92377 0.21541 0.25191 0.0
C778 C 0.95327 0.25457 0.25821 0.0
C779 C 0.98932 0.24512 0.25274 0.0
C780 C 0.99201 0.2206 0.24671 0.0
C781 C 0.95968 0.20589 0.24646 0.0
C782 C 0.09169 0.26609 0.26079 0.0
C783 C 0.08937 0.29052 0.25463 0.0
C784 C 0.05929 0.25142 0.26033 0.0
C785 C 0.02389 0.26075 0.25336 0.0
C786 C 0.0218 0.2852 0.24703 0.0
C787 C 0.05406 0.29993 0.24782 0.0
H788 H 0.14669 0.99539 0.26944 0.0
H789 H 0.21344 0.93507 0.24559 0.0
H790 H 0.2033 0.02078 0.269 0.0
H791 H 0.26966 0.96063 0.24416 0.0
H792 H 0.37145 0.00618 0.26503 0.0
H793 H 0.31514 0.98058 0.26651 0.0
H794 H 0.24578 0.04064 0.24456 0.0
H795 H 0.30183 0.06641 0.24409 0.0
C796 C 0.17342 0.9876 0.26395 0.0
C797 C 0.17559 0.96322 0.2576 0.0
C798 C 0.20589 0.0022 0.26354 0.0
C799 C 0.24121 0.99284 0.25647 0.0
C800 C 0.24322 0.96841 0.25008 0.0
C801 C 0.21087 0.95375 0.25078 0.0
C802 C 0.34416 0.01388 0.26049 0.0
C803 C 0.34109 0.03833 0.2545 0.0
C804 C 0.31183 0.99916 0.26122 0.0
C805 C 0.27572 0.00848 0.25569 0.0
C806 C 0.27288 0.03291 0.24939 0.0
C807 C 0.30511 0.04767 0.24895 0.0
H808 H 0.05433 0.93618 0.01648 0.0
H809 H 0.12032 0.99585 0.99063 0.0
H810 H 0.99839 0.96191 0.01847 0.0
H811 H 0.06391 0.02142 0.99156 0.0
H812 H 0.96587 0.06777 0.01641 0.0
H813 H 0.02214 0.04209 0.01576 0.0
H814 H 0.95214 0.98123 0.99659 0.0
H815 H 0.89585 0.0067 0.99831 0.0
C816 C 0.05676 0.95475 0.01096 0.0
C817 C 0.09176 0.96397 1.00339 0.0
C818 C 0.02457 0.96952 0.01198 0.0
C819 C 0.0264 0.99383 0.00513 0.0
C820 C 0.06145 0.00296 0.99737 0.0
C821 C 0.0938 0.98825 0.99667 0.0
C822 C 0.96255 0.04887 0.01216 0.0
C823 C 0.9264 0.03926 0.00749 0.0
C824 C 0.99487 0.03415 0.01161 0.0
C825 C 0.9919 0.00951 0.00605 0.0
C826 C 0.95561 0.99997 1.00135 0.0
C827 C 0.92326 0.01462 1.00222 0.0
H828 H 0.36844 0.24307 0.02042 0.0
H829 H 0.30198 0.18303 0.99571 0.0
H830 H 0.312 0.26855 0.01974 0.0
H831 H 0.24584 0.20872 0.99406 0.0
H832 H 0.14398 0.25485 0.01428 0.0
H833 H 0.19987 0.22889 0.01603 0.0
H834 H 0.27056 0.28865 0.99488 0.0
H835 H 0.21491 0.31476 0.99411 0.0
C836 C 0.34179 0.23535 0.01471 0.0
C837 C 0.33968 0.21102 0.00815 0.0
C838 C 0.30942 0.25001 0.01415 0.0
C839 C 0.27423 0.2408 0.00673 0.0
C840 C 0.27221 0.2164 1.00022 0.0
C841 C 0.30449 0.20166 1.00105 0.0
C842 C 0.17147 0.2624 0.00996 0.0
C843 C 0.17502 0.28688 1.00412 0.0
C844 C 0.20356 0.24748 0.01086 0.0
C845 C 0.23992 0.25662 0.00566 0.0
C846 C 0.24324 0.28105 0.99947 0.0
C847 C 0.21125 0.29602 0.99885 0.0
H848 H 0.96311 0.68471 0.76604 0.0
H849 H 0.89731 0.74476 0.74078 0.0
H850 H 0.01918 0.71032 0.76818 0.0
H851 H 0.95384 0.77021 0.74188 0.0
H852 H 0.1218 0.75528 0.74812 0.0
H853 H 0.06544 0.72984 0.74633 0.0
H854 H 0.99568 0.7905 0.76636 0.0
H855 H 0.05196 0.81614 0.7671 0.0
C856 C 0.96074 0.70334 0.76068 0.0
C857 C 0.92577 0.7127 0.75323 0.0
C858 C 0.993 0.71804 0.76179 0.0
C859 C 0.99126 0.74241 0.75517 0.0
C860 C 0.95623 0.75169 0.74753 0.0
C861 C 0.92382 0.73705 0.74672 0.0
C862 C 0.09442 0.76315 0.75221 0.0
C863 C 0.09134 0.78773 0.75774 0.0
C864 C 0.06204 0.74852 0.7513 0.0
C865 C 0.02581 0.75803 0.7562 0.0
C866 C 0.02291 0.78259 0.76204 0.0
C867 C 0.05524 0.79729 0.76265 0.0
H868 H 0.71309 0.93547 0.74299 0.0
H869 H 0.64675 0.99543 0.76796 0.0
H870 H 0.76906 0.96118 0.74102 0.0
H871 H 0.70319 0.02098 0.76706 0.0
H872 H 0.80182 0.06703 0.7426 0.0
H873 H 0.74548 0.04142 0.74305 0.0
H874 H 0.81498 0.98062 0.76301 0.0
H875 H 0.87137 0.00602 0.76147 0.0
C876 C 0.71058 0.95411 0.74831 0.0
C877 C 0.67549 0.96341 0.75565 0.0
C878 C 0.74279 0.96887 0.74731 0.0
C879 C 0.74089 0.99324 0.75394 0.0
C880 C 0.70572 0.00246 0.76142 0.0
C881 C 0.67335 0.98777 0.76211 0.0
C882 C 0.80502 0.04816 0.74698 0.0
C883 C 0.84107 0.03854 0.75192 0.0
C884 C 0.77265 0.03348 0.74742 0.0
C885 C 0.77546 0.00887 0.75313 0.0
C886 C 0.81164 0.99933 0.75812 0.0
C887 C 0.84405 0.01393 0.75736 0.0
H888 H 0.6451 0.75627 0.01234 0.0
H889 H 0.71575 0.81695 0.99393 0.0
H890 H 0.70118 0.73059 0.0142 0.0
H891 H 0.77176 0.79107 0.99474 0.0
H892 H 0.86957 0.74449 0.01988 0.0
H893 H 0.8134 0.77031 0.01901 0.0
H894 H 0.74716 0.71105 0.99223 0.0
H895 H 0.80282 0.6851 0.99414 0.0
C896 C 0.6726 0.76406 0.00841 0.0
C897 C 0.67597 0.78865 1.003 0.0
C898 C 0.70482 0.74929 0.00936 0.0
C899 C 0.7412 0.75867 1.0046 0.0
C900 C 0.74442 0.78326 0.99893 0.0
C901 C 0.71223 0.79809 0.99829 0.0
C902 C 0.84294 0.737 0.01389 0.0
C903 C 0.84062 0.71273 0.00718 0.0
C904 C 0.81074 0.75185 0.01322 0.0
C905 C 0.77555 0.74285 0.00552 0.0
C906 C 0.77345 0.71856 0.99869 0.0
C907 C 0.80549 0.70366 0.99966 0.0
H908 H 0.30222 0.56497 0.74333 0.0
H909 H 0.37312 0.5043 0.76145 0.0
H910 H 0.2463 0.53906 0.74422 0.0
H911 H 0.31707 0.47856 0.76337 0.0
H912 H 0.21411 0.43335 0.74392 0.0
H913 H 0.27027 0.45896 0.7418 0.0
H914 H 0.20537 0.51857 0.76903 0.0
H915 H 0.14884 0.49318 0.77014 0.0
C916 C 0.30582 0.5461 0.74763 0.0
C917 C 0.34211 0.53669 0.75228 0.0
C918 C 0.27369 0.53124 0.74832 0.0
C919 C 0.27695 0.50665 0.754 0.0
C920 C 0.31338 0.49727 0.75858 0.0
C921 C 0.34558 0.51207 0.75759 0.0
C922 C 0.21188 0.45192 0.7495 0.0
C923 C 0.17701 0.46124 0.75717 0.0
C924 C 0.24418 0.46662 0.7484 0.0
C925 C 0.24253 0.49093 0.75522 0.0
C926 C 0.20766 0.50011 0.76319 0.0
C927 C 0.17525 0.4855 0.764 0.0
H928 H 0.89694 0.50709 0.51631 0.0
H929 H 0.96443 0.56689 0.49213 0.0
H930 H 0.95311 0.48127 0.51561 0.0
H931 H 0.02012 0.54094 0.49035 0.0
H932 H 0.12152 0.4958 0.51158 0.0
H933 H 0.06524 0.52131 0.51275 0.0
H934 H 0.9959 0.46078 0.49188 0.0
H935 H 0.05212 0.43504 0.49179 0.0
C936 C 0.92373 0.51465 0.51066 0.0
C937 C 0.92629 0.53905 0.50439 0.0
C938 C 0.95594 0.49981 0.51009 0.0
C939 C 0.99136 0.50894 0.50293 0.0
C940 C 0.99364 0.53333 0.49642 0.0
C941 C 0.9616 0.54822 0.4973 0.0
C942 C 0.09426 0.48796 0.50718 0.0
C943 C 0.09128 0.4634 0.5016 0.0
C944 C 0.06192 0.50264 0.50773 0.0
C945 C 0.02582 0.4932 0.50236 0.0
C946 C 0.02301 0.46863 0.49652 0.0
C947 C 0.05531 0.45388 0.49629 0.0
H948 H 0.3725 0.74716 0.49915 0.0
H949 H 0.30309 0.6856 0.51666 0.0
H950 H 0.31588 0.77236 0.49745 0.0
H951 H 0.24653 0.711 0.51602 0.0
H952 H 0.1481 0.75661 0.49045 0.0
H953 H 0.20496 0.73147 0.49157 0.0
H954 H 0.26891 0.79128 0.51921 0.0
H955 H 0.21249 0.81661 0.51706 0.0
C956 C 0.34516 0.73908 0.50294 0.0
C957 C 0.34228 0.71438 0.50802 0.0
C958 C 0.31263 0.75357 0.50208 0.0
C959 C 0.27643 0.7438 0.50659 0.0
C960 C 0.27373 0.71911 0.51201 0.0
C961 C 0.30623 0.70455 0.51256 0.0
C962 C 0.17437 0.76437 0.49669 0.0
C963 C 0.17584 0.78862 0.50358 0.0
C964 C 0.20697 0.74991 0.49751 0.0
C965 C 0.2417 0.75925 0.50554 0.0
C966 C 0.24297 0.78352 0.51253 0.0
C967 C 0.21052 0.79806 0.51141 0.0
H968 H 0.80164 0.56496 0.24266 0.0
H969 H 0.87216 0.50545 0.26429 0.0
H970 H 0.74606 0.53885 0.24321 0.0
H971 H 0.81623 0.47945 0.26585 0.0
H972 H 0.71433 0.43334 0.24547 0.0
H973 H 0.77062 0.45891 0.24391 0.0
H974 H 0.70404 0.5193 0.26802 0.0
H975 H 0.64748 0.49393 0.26857 0.0
C976 C 0.80522 0.5463 0.24768 0.0
C977 C 0.84131 0.53728 0.25344 0.0
C978 C 0.77325 0.53133 0.24817 0.0
C979 C 0.77642 0.50701 0.25476 0.0
C980 C 0.81266 0.49797 0.26039 0.0
C981 C 0.84477 0.5129 0.25961 0.0
C982 C 0.71176 0.45208 0.25047 0.0
C983 C 0.67642 0.46163 0.25708 0.0
C984 C 0.74412 0.46674 0.2497 0.0
C985 C 0.74204 0.49126 0.25579 0.0
C986 C 0.70669 0.50066 0.26274 0.0
C987 C 0.67424 0.48607 0.26322 0.0
H988 H 0.64562 0.25625 0.51345 0.0
H989 H 0.71493 0.31698 0.49345 0.0
H990 H 0.70213 0.23087 0.51504 0.0
H991 H 0.77126 0.29142 0.49401 0.0
H992 H 0.87042 0.24623 0.51899 0.0
H993 H 0.81364 0.27146 0.51837 0.0
H994 H 0.74809 0.21124 0.49294 0.0
H995 H 0.80448 0.18584 0.49457 0.0
C996 C 0.6729 0.2641 0.50912 0.0
C997 C 0.6758 0.28863 0.50336 0.0
C998 C 0.70535 0.24952 0.50992 0.0
C999 C 0.74146 0.25902 0.50467 0.0
C1000 C 0.74416 0.28353 0.4986 0.0
C1001 C 0.71178 0.29818 0.4981 0.0
C1002 C 0.84382 0.23839 0.51334 0.0
C1003 C 0.84193 0.21403 0.50689 0.0
C1004 C 0.81126 0.2529 0.51282 0.0
C1005 C 0.77611 0.24348 0.50554 0.0
C1006 C 0.77439 0.21907 0.49904 0.0
C1007 C 0.80682 0.2045 0.49985 0.0
H1008 H 0.46533 0.1849 0.74289 0.0
H1009 H 0.3949 0.24576 0.76109 0.0
H1010 H 0.52138 0.21078 0.74336 0.0
H1011 H 0.45099 0.27142 0.76264 0.0
H1012 H 0.55281 0.31688 0.74297 0.0
H1013 H 0.49708 0.29095 0.74082 0.0
H1014 H 0.56307 0.23153 0.76749 0.0
H1015 H 0.61924 0.25728 0.76857 0.0
C1016 C 0.46187 0.2038 0.74712 0.0
C1017 C 0.42567 0.21329 0.75188 0.0
C1018 C 0.49407 0.21864 0.74757 0.0
C1019 C 0.49093 0.24327 0.75311 0.0
C1020 C 0.45459 0.25269 0.75789 0.0
C1021 C 0.42236 0.23793 0.75712 0.0
C1022 C 0.55539 0.29827 0.74839 0.0
C1023 C 0.59044 0.28914 0.75595 0.0
C1024 C 0.52333 0.28339 0.74728 0.0
C1025 C 0.52533 0.25906 0.75403 0.0
C1026 C 0.56046 0.25001 0.76175 0.0
C1027 C 0.59268 0.26482 0.76254 0.0
H1028 H 0.39468 0.00612 0.4957 0.0
H1029 H 0.46542 0.06596 0.51627 0.0
H1030 H 0.45049 0.98009 0.49432 0.0
H1031 H 0.521 0.03977 0.5159 0.0
H1032 H 0.61916 0.99368 0.491 0.0
H1033 H 0.56305 0.01949 0.49155 0.0
H1034 H 0.49573 0.95985 0.51656 0.0
H1035 H 0.55149 0.93387 0.515 0.0
C1036 C 0.42211 0.01364 0.50019 0.0
C1037 C 0.42563 0.03811 0.50604 0.0
C1038 C 0.45416 0.99868 0.49952 0.0
C1039 C 0.49045 0.00776 0.50497 0.0
C1040 C 0.49375 0.0322 0.51114 0.0
C1041 C 0.46179 0.04722 0.51152 0.0
C1042 C 0.59233 0.9861 0.49655 0.0
C1043 C 0.58976 0.96173 0.5029 0.0
C1044 C 0.56014 1.00094 0.49703 0.0
C1045 C 0.52469 0.99185 0.50417 0.0
C1046 C 0.52228 0.96744 0.51058 0.0
C1047 C 0.55435 0.95253 0.50981 0.0
H1048 H 0.55197 0.81611 0.26545 0.0
H1049 H 0.62168 0.75508 0.24677 0.0
H1050 H 0.49561 0.79062 0.26458 0.0
H1051 H 0.56513 0.72974 0.24487 0.0
H1052 H 0.46164 0.68524 0.26491 0.0
H1053 H 0.51828 0.71043 0.26668 0.0
H1054 H 0.45402 0.77052 0.23987 0.0
H1055 H 0.39701 0.74553 0.23909 0.0
C1056 C 0.55521 0.79726 0.26101 0.0
C1057 C 0.5913 0.78761 0.25621 0.0
C1058 C 0.52281 0.78264 0.26034 0.0
C1059 C 0.5256 0.75807 0.25453 0.0
C1060 C 0.56183 0.74845 0.24976 0.0
C1061 C 0.5943 0.76301 0.25074 0.0
C1062 C 0.45965 0.70382 0.25934 0.0
C1063 C 0.42482 0.7134 0.25189 0.0
C1064 C 0.49223 0.71827 0.26025 0.0
C1065 C 0.49091 0.7426 0.25344 0.0
C1066 C 0.45606 0.75204 0.24568 0.0
C1067 C 0.42337 0.73766 0.24507 0.0
H1068 H 0.55314 0.43518 0.99363 0.0
H1069 H 0.6221 0.49639 0.01273 0.0
H1070 H 0.49658 0.46054 0.99414 0.0
H1071 H 0.5654 0.52158 0.0143 0.0
H1072 H 0.46269 0.56613 0.99396 0.0
H1073 H 0.51914 0.54082 0.99222 0.0
H1074 H 0.45418 0.48067 0.01834 0.0
H1075 H 0.39729 0.50582 0.01904 0.0
C1076 C 0.55617 0.45405 0.99808 0.0
C1077 C 0.59211 0.46379 1.00309 0.0
C1078 C 0.52366 0.46859 0.99855 0.0
C1079 C 0.5262 0.49318 1.00435 0.0
C1080 C 0.56228 0.50286 0.00937 0.0
C1081 C 0.59485 0.48839 0.00859 0.0
C1082 C 0.46049 0.5475 0.99936 0.0
C1083 C 0.42551 0.53798 0.00664 0.0
C1084 C 0.49297 0.53298 0.99849 0.0
C1085 C 0.49144 0.50862 0.00518 0.0
C1086 C 0.45641 0.49919 0.01265 0.0
C1087 C 0.42378 0.51365 0.01322 0.0
H1088 H 0.13674 0.35097 0.44154 0.0
H1089 H 0.18105 0.42258 0.42934 0.0
H1090 H 0.13472 0.34362 0.40092 0.0
H1091 H 0.17933 0.41509 0.38878 0.0
H1092 H 0.13306 0.40172 0.31745 0.0
H1093 H 0.13244 0.40896 0.3581 0.0
H1094 H 0.18027 0.33817 0.36943 0.0
H1095 H 0.1806 0.33079 0.32884 0.0
C1096 C 0.14604 0.36514 0.43022 0.0
C1097 C 0.15909 0.38735 0.4387 0.0
C1098 C 0.14506 0.36087 0.40695 0.0
C1099 C 0.15687 0.37877 0.39166 0.0
C1100 C 0.16963 0.40104 0.40013 0.0
C1101 C 0.17083 0.40526 0.42339 0.0
C1102 C 0.14333 0.38766 0.3286 0.0
C1103 C 0.15692 0.36568 0.31988 0.0
C1104 C 0.14316 0.39187 0.35188 0.0
C1105 C 0.15636 0.37415 0.36696 0.0
C1106 C 0.16955 0.35208 0.35826 0.0
C1107 C 0.16993 0.34792 0.33498 0.0
H1108 H 0.08617 0.92188 0.33055 0.0
H1109 H 0.13261 0.85089 0.31796 0.0
H1110 H 0.08794 0.91418 0.37103 0.0
H1111 H 0.13477 0.84334 0.35858 0.0
H1112 H 0.13103 0.9008 0.44281 0.0
H1113 H 0.13353 0.90838 0.4022 0.0
H1114 H 0.08893 0.837 0.38954 0.0
H1115 H 0.08682 0.82928 0.43 0.0
C1116 C 0.09694 0.90466 0.33641 0.0
C1117 C 0.10914 0.88696 0.321 0.0
C1118 C 0.09818 0.90033 0.35963 0.0
C1119 C 0.1115 0.87816 0.368 0.0
C1120 C 0.12399 0.86051 0.35262 0.0
C1121 C 0.12292 0.86488 0.32937 0.0
C1122 C 0.1219 0.88669 0.43136 0.0
C1123 C 0.10865 0.86446 0.43966 0.0
C1124 C 0.12317 0.89108 0.40811 0.0
C1125 C 0.1114 0.87329 0.39267 0.0
C1126 C 0.09861 0.85097 0.40098 0.0
C1127 C 0.09718 0.84662 0.4242 0.0
H1128 H 0.18124 0.82892 0.83056 0.0
H1129 H 0.13485 0.89995 0.81814 0.0
H1130 H 0.17986 0.83669 0.8711 0.0
H1131 H 0.13315 0.90757 0.8587 0.0
H1132 H 0.13581 0.85078 0.94296 0.0
H1133 H 0.13406 0.84279 0.90241 0.0
H1134 H 0.17945 0.9139 0.88945 0.0
H1135 H 0.18087 0.92202 0.92986 0.0
C1136 C 0.17059 0.84615 0.83646 0.0
C1137 C 0.15826 0.86385 0.82109 0.0
C1138 C 0.16959 0.85053 0.85971 0.0
C1139 C 0.15644 0.87275 0.86809 0.0
C1140 C 0.14384 0.89037 0.85274 0.0
C1141 C 0.14465 0.88595 0.8295 0.0
C1142 C 0.14529 0.86474 0.93146 0.0
C1143 C 0.1585 0.88703 0.93966 0.0
C1144 C 0.14448 0.8601 0.90824 0.0
C1145 C 0.15662 0.87772 0.89274 0.0
C1146 C 0.16948 0.90007 0.90094 0.0
C1147 C 0.1705 0.90465 0.92413 0.0
H1148 H 0.08778 0.41984 0.83003 0.0
H1149 H 0.12976 0.34788 0.81677 0.0
H1150 H 0.08964 0.41182 0.87042 0.0
H1151 H 0.13195 0.33997 0.85736 0.0
H1152 H 0.13536 0.39795 0.94124 0.0
H1153 H 0.13668 0.405 0.90062 0.0
H1154 H 0.08675 0.33481 0.88928 0.0
H1155 H 0.08575 0.32758 0.92993 0.0
C1156 C 0.09755 0.40233 0.83572 0.0
C1157 C 0.1086 0.38449 0.82015 0.0
C1158 C 0.09883 0.39779 0.8589 0.0
C1159 C 0.11102 0.37529 0.86708 0.0
C1160 C 0.12211 0.35742 0.85155 0.0
C1161 C 0.12104 0.362 0.82831 0.0
C1162 C 0.12479 0.38396 0.93011 0.0
C1163 C 0.11033 0.36223 0.93886 0.0
C1164 C 0.12538 0.38807 0.90683 0.0
C1165 C 0.1117 0.3705 0.89176 0.0
C1166 C 0.09782 0.3486 0.90046 0.0
C1167 C 0.09705 0.34453 0.92376 0.0
H1168 H 0.83844 0.67161 0.67937 0.0
H1169 H 0.88209 0.59995 0.69211 0.0
H1170 H 0.84081 0.66399 0.63889 0.0
H1171 H 0.88478 0.59245 0.65148 0.0
H1172 H 0.83823 0.57973 0.57924 0.0
H1173 H 0.83948 0.587 0.61984 0.0
H1174 H 0.88753 0.65768 0.6083 0.0
H1175 H 0.88597 0.65056 0.56764 0.0
C1176 C 0.8487 0.65426 0.67355 0.0
C1177 C 0.86 0.63637 0.689 0.0
C1178 C 0.85028 0.64996 0.65032 0.0
C1179 C 0.86302 0.62763 0.64198 0.0
C1180 C 0.87449 0.60976 0.65741 0.0
C1181 C 0.87312 0.61411 0.68067 0.0
C1182 C 0.84918 0.5968 0.58534 0.0
C1183 C 0.86188 0.6146 0.57017 0.0
C1184 C 0.85011 0.60089 0.60863 0.0
C1185 C 0.86355 0.62292 0.61728 0.0
C1186 C 0.87661 0.64063 0.60214 0.0
C1187 C 0.87589 0.63649 0.57884 0.0
H1188 H 0.93103 0.07973 0.67937 0.0
H1189 H 0.88562 0.15102 0.69184 0.0
H1190 H 0.9297 0.08748 0.63887 0.0
H1191 H 0.88392 0.15861 0.65126 0.0
H1192 H 0.93192 0.17263 0.58 0.0
H1193 H 0.93006 0.1647 0.62043 0.0
H1194 H 0.88426 0.09367 0.60758 0.0
H1195 H 0.8865 0.10146 0.56701 0.0
C1196 C 0.92059 0.09702 0.67349 0.0
C1197 C 0.90855 0.11479 0.68887 0.0
C1198 C 0.91961 0.10138 0.65025 0.0
C1199 C 0.90673 0.12365 0.64186 0.0
C1200 C 0.89439 0.14136 0.65722 0.0
C1201 C 0.8952 0.13696 0.68047 0.0
C1202 C 0.92137 0.15532 0.58576 0.0
C1203 C 0.90944 0.13765 0.57025 0.0
C1204 C 0.92009 0.15085 0.60896 0.0
C1205 C 0.90699 0.12857 0.61721 0.0
C1206 C 0.89486 0.11093 0.60173 0.0
C1207 C 0.89597 0.11544 0.57849 0.0
H1208 H 0.83434 0.1737 0.17948 0.0
H1209 H 0.88075 0.10273 0.1922 0.0
H1210 H 0.83623 0.16589 0.13899 0.0
H1211 H 0.883 0.09508 0.15164 0.0
H1212 H 0.8365 0.08076 0.08005 0.0
H1213 H 0.83746 0.08868 0.12051 0.0
H1214 H 0.88243 0.15999 0.10801 0.0
H1215 H 0.8811 0.15222 0.06743 0.0
C1216 C 0.8451 0.15647 0.17365 0.0
C1217 C 0.8573 0.13881 0.1891 0.0
C1218 C 0.8464 0.15207 0.15043 0.0
C1219 C 0.85976 0.12987 0.14212 0.0
C1220 C 0.87217 0.11226 0.15754 0.0
C1221 C 0.87105 0.1167 0.18078 0.0
C1222 C 0.84668 0.09813 0.0859 0.0
C1223 C 0.85865 0.11589 0.07049 0.0
C1224 C 0.84744 0.10259 0.10911 0.0
C1225 C 0.86002 0.12495 0.11746 0.0
C1226 C 0.8722 0.14267 0.10208 0.0
C1227 C 0.87163 0.13817 0.07884 0.0
H1228 H 0.85691 0.61282 0.06938 0.0
H1229 H 0.95879 0.65555 0.07793 0.0
H1230 H 0.85551 0.60508 0.11023 0.0
H1231 H 0.95783 0.64712 0.11853 0.0
H1232 H 0.9579 0.59216 0.18224 0.0
H1233 H 0.95765 0.59943 0.14141 0.0
H1234 H 0.8547 0.64121 0.14799 0.0
H1235 H 0.85538 0.63465 0.18899 0.0
C1236 C 0.87906 0.6204 0.07994 0.0
C1237 C 0.90792 0.63481 0.07053 0.0
C1238 C 0.87815 0.61605 0.10322 0.0
C1239 C 0.90659 0.62553 0.11729 0.0
C1240 C 0.93568 0.63964 0.10789 0.0
C1241 C 0.93611 0.64448 0.08474 0.0
C1242 C 0.93517 0.60285 0.17498 0.0
C1243 C 0.9067 0.61289 0.18877 0.0
C1244 C 0.93512 0.60701 0.1517 0.0
C1245 C 0.9061 0.62077 0.14178 0.0
C1246 C 0.87724 0.63046 0.1554 0.0
C1247 C 0.87776 0.62679 0.17877 0.0
H1248 H 0.68047 0.4231 0.92978 0.0
H1249 H 0.63517 0.35183 0.94243 0.0
H1250 H 0.67793 0.41552 0.88926 0.0
H1251 H 0.63228 0.3444 0.90186 0.0
H1252 H 0.67888 0.33061 0.83021 0.0
H1253 H 0.67783 0.3384 0.87067 0.0
H1254 H 0.63144 0.40939 0.85838 0.0
H1255 H 0.63285 0.40173 0.81776 0.0
C1256 C 0.66981 0.40586 0.92393 0.0
C1257 C 0.65815 0.38803 0.93936 0.0
C1258 C 0.66813 0.40159 0.9007 0.0
C1259 C 0.65493 0.37936 0.89237 0.0
C1260 C 0.64298 0.36161 0.90778 0.0
C1261 C 0.64448 0.36592 0.93102 0.0
C1262 C 0.66834 0.34787 0.8361 0.0
C1263 C 0.65603 0.36557 0.82074 0.0
C1264 C 0.66753 0.35227 0.85931 0.0
C1265 C 0.65455 0.37451 0.86771 0.0
C1266 C 0.64196 0.39217 0.85238 0.0
C1267 C 0.64258 0.38772 0.82914 0.0
H1268 H 0.58837 0.83002 0.92963 0.0
H1269 H 0.6332 0.90144 0.94217 0.0
H1270 H 0.58999 0.83773 0.88913 0.0
H1271 H 0.63514 0.90901 0.90157 0.0
H1272 H 0.58698 0.9224 0.83 0.0
H1273 H 0.58883 0.91477 0.87051 0.0
H1274 H 0.6362 0.84405 0.85816 0.0
H1275 H 0.63404 0.85153 0.81756 0.0
C1276 C 0.59874 0.84733 0.92376 0.0
C1277 C 0.61056 0.86514 0.93914 0.0
C1278 C 0.59988 0.85167 0.90053 0.0
C1279 C 0.61269 0.87397 0.89217 0.0
C1280 C 0.62476 0.89174 0.90753 0.0
C1281 C 0.62383 0.88735 0.93077 0.0
C1282 C 0.59789 0.90523 0.83589 0.0
C1283 C 0.61026 0.88754 0.82053 0.0
C1284 C 0.59916 0.90094 0.85913 0.0
C1285 C 0.61264 0.87881 0.86752 0.0
C1286 C 0.62529 0.86118 0.85218 0.0
C1287 C 0.62422 0.86552 0.82893 0.0
H1288 H 0.6775 0.92016 0.42967 0.0
H1289 H 0.63209 0.84888 0.44219 0.0
H1290 H 0.67579 0.91251 0.38921 0.0
H1291 H 0.63003 0.84137 0.40155 0.0
H1292 H 0.67858 0.8282 0.32984 0.0
H1293 H 0.67621 0.83553 0.37041 0.0
H1294 H 0.62967 0.90651 0.35828 0.0
H1295 H 0.63239 0.89934 0.31766 0.0
C1296 C 0.66696 0.90289 0.4238 0.0
C1297 C 0.65502 0.8851 0.43917 0.0
C1298 C 0.66576 0.89858 0.40058 0.0
C1299 C 0.65275 0.87635 0.39219 0.0
C1300 C 0.64055 0.8586 0.40753 0.0
C1301 C 0.64155 0.86295 0.43079 0.0
C1302 C 0.66774 0.84535 0.33581 0.0
C1303 C 0.65582 0.86323 0.3205 0.0
C1304 C 0.66615 0.84947 0.35906 0.0
C1305 C 0.65279 0.8716 0.36753 0.0
C1306 C 0.6405 0.88938 0.35225 0.0
C1307 C 0.6419 0.88522 0.32898 0.0
H1308 H 0.63304 0.40008 0.4418 0.0
H1309 H 0.58584 0.32911 0.43017 0.0
H1310 H 0.63448 0.40724 0.40116 0.0
H1311 H 0.58695 0.33642 0.38957 0.0
H1312 H 0.63069 0.3495 0.31752 0.0
H1313 H 0.6327 0.342 0.35814 0.0
H1314 H 0.58778 0.41336 0.37049 0.0
H1315 H 0.58609 0.42099 0.32999 0.0
C1316 C 0.62302 0.386 0.43059 0.0
C1317 C 0.60924 0.36404 0.43924 0.0
C1318 C 0.62367 0.39016 0.40732 0.0
C1319 C 0.61076 0.37242 0.39218 0.0
C1320 C 0.59746 0.35035 0.4008 0.0
C1321 C 0.59661 0.34623 0.42408 0.0
C1322 C 0.62135 0.36361 0.3289 0.0
C1323 C 0.6082 0.38584 0.32051 0.0
C1324 C 0.62233 0.35927 0.35216 0.0
C1325 C 0.61041 0.3771 0.3675 0.0
C1326 C 0.59758 0.39937 0.3591 0.0
C1327 C 0.5964 0.40367 0.33588 0.0
H1328 H 0.33436 0.6723 0.17929 0.0
H1329 H 0.37827 0.60083 0.19263 0.0
H1330 H 0.33675 0.66429 0.13887 0.0
H1331 H 0.38106 0.59296 0.15209 0.0
H1332 H 0.3351 0.57907 0.08016 0.0
H1333 H 0.33621 0.58695 0.12062 0.0
H1334 H 0.38288 0.65783 0.10816 0.0
H1335 H 0.38137 0.6501 0.06757 0.0
C1336 C 0.34468 0.6549 0.17361 0.0
C1337 C 0.35602 0.63717 0.18922 0.0
C1338 C 0.34629 0.65039 0.15042 0.0
C1339 C 0.35912 0.628 0.14227 0.0
C1340 C 0.37067 0.6103 0.15785 0.0
C1341 C 0.36923 0.61486 0.18108 0.0
C1342 C 0.34571 0.59633 0.08602 0.0
C1343 C 0.35803 0.61399 0.0706 0.0
C1344 C 0.34656 0.60077 0.10924 0.0
C1345 C 0.35962 0.62301 0.11761 0.0
C1346 C 0.37227 0.64061 0.10222 0.0
C1347 C 0.37158 0.63613 0.07897 0.0
H1348 H 0.43062 0.07831 0.18073 0.0
H1349 H 0.38171 0.14894 0.19171 0.0
H1350 H 0.42944 0.08523 0.14005 0.0
H1351 H 0.38019 0.15569 0.15103 0.0
H1352 H 0.42915 0.16979 0.08029 0.0
H1353 H 0.42717 0.16211 0.12073 0.0
H1354 H 0.38424 0.0903 0.10817 0.0
H1355 H 0.38656 0.09787 0.06752 0.0
C1356 C 0.41944 0.09526 0.17448 0.0
C1357 C 0.40641 0.11312 0.18949 0.0
C1358 C 0.41855 0.09915 0.15116 0.0
C1359 C 0.40481 0.12102 0.14234 0.0
C1360 C 0.39138 0.13876 0.15733 0.0
C1361 C 0.39208 0.13484 0.18064 0.0
C1362 C 0.41922 0.15235 0.0861 0.0
C1363 C 0.40804 0.13443 0.07065 0.0
C1364 C 0.41787 0.14802 0.10931 0.0
C1365 C 0.40546 0.12563 0.11764 0.0
C1366 C 0.39424 0.10767 0.10223 0.0
C1367 C 0.39539 0.11206 0.07897 0.0
H1368 H 0.33712 0.1715 0.67959 0.0
H1369 H 0.38051 0.09978 0.6924 0.0
H1370 H 0.33889 0.16366 0.63912 0.0
H1371 H 0.38259 0.09208 0.65181 0.0
H1372 H 0.33635 0.07927 0.57956 0.0
H1373 H 0.33709 0.08667 0.62017 0.0
H1374 H 0.38587 0.15716 0.60867 0.0
H1375 H 0.38482 0.14992 0.56805 0.0
C1376 C 0.34717 0.15408 0.67379 0.0
C1377 C 0.35864 0.13625 0.68925 0.0
C1378 C 0.34839 0.14966 0.65058 0.0
C1379 C 0.36092 0.12727 0.64228 0.0
C1380 C 0.37246 0.10943 0.65771 0.0
C1381 C 0.37145 0.1139 0.68095 0.0
C1382 C 0.34733 0.09633 0.58568 0.0
C1383 C 0.36042 0.11404 0.57054 0.0
C1384 C 0.34795 0.1005 0.60896 0.0
C1385 C 0.36148 0.12251 0.61761 0.0
C1386 C 0.37486 0.14013 0.60249 0.0
C1387 C 0.37444 0.13592 0.57922 0.0
H1388 H 0.38445 0.64983 0.69197 0.0
H1389 H 0.43138 0.57899 0.6793 0.0
H1390 H 0.38334 0.65774 0.65142 0.0
H1391 H 0.43062 0.58705 0.63884 0.0
H1392 H 0.38782 0.6011 0.56692 0.0
H1393 H 0.38545 0.59308 0.60743 0.0
H1394 H 0.42971 0.66441 0.62073 0.0
H1395 H 0.43173 0.67256 0.58031 0.0
C1396 C 0.39448 0.63594 0.68056 0.0
C1397 C 0.40806 0.61379 0.68889 0.0
C1398 C 0.39403 0.64053 0.65733 0.0
C1399 C 0.40695 0.62304 0.64193 0.0
C1400 C 0.42009 0.60079 0.65025 0.0
C1401 C 0.42072 0.59624 0.67346 0.0
C1402 C 0.39695 0.6151 0.57848 0.0
C1403 C 0.41002 0.63746 0.57036 0.0
C1404 C 0.39576 0.61045 0.60168 0.0
C1405 C 0.40741 0.62811 0.61728 0.0
C1406 C 0.42013 0.65054 0.60916 0.0
C1407 C 0.4215 0.65514 0.58597 0.0
H1408 H 0.27176 0.39213 0.2643 0.0
H1409 H 0.31024 0.32208 0.2419 0.0
H1410 H 0.33723 0.40645 0.26489 0.0
H1411 H 0.37558 0.33665 0.24136 0.0
H1412 H 0.49197 0.36157 0.26469 0.0
H1413 H 0.42642 0.34748 0.26463 0.0
H1414 H 0.38897 0.41799 0.24248 0.0
H1415 H 0.45448 0.43232 0.24367 0.0
C1416 C 0.29422 0.37986 0.25925 0.0
C1417 C 0.28584 0.35595 0.25312 0.0
C1418 C 0.33182 0.38812 0.25944 0.0
C1419 C 0.36196 0.37277 0.25316 0.0
C1420 C 0.35336 0.3489 0.24675 0.0
C1421 C 0.31581 0.34055 0.2469 0.0
C1422 C 0.4697 0.37406 0.25982 0.0
C1423 C 0.4784 0.39806 0.25421 0.0
C1424 C 0.43205 0.36594 0.25962 0.0
C1425 C 0.40214 0.38152 0.25347 0.0
C1426 C 0.41101 0.40553 0.24771 0.0
C1427 C 0.44865 0.41375 0.24824 0.0
H1428 H 0.81298 0.81999 0.26484 0.0
H1429 H 0.77218 0.88982 0.24328 0.0
H1430 H 0.87795 0.83528 0.26498 0.0
H1431 H 0.83724 0.90488 0.24243 0.0
H1432 H 0.95325 0.93173 0.26583 0.0
H1433 H 0.88819 0.91656 0.2658 0.0
H1434 H 0.92845 0.84749 0.24157 0.0
H1435 H 0.99356 0.8624 0.24259 0.0
C1436 C 0.81794 0.83855 0.2599 0.0
C1437 C 0.78741 0.8537 0.2541 0.0
C1438 C 0.85527 0.84731 0.25984 0.0
C1439 C 0.86305 0.87137 0.2537 0.0
C1440 C 0.83241 0.88641 0.24767 0.0
C1441 C 0.79506 0.87773 0.248 0.0
C1442 C 0.94816 0.91332 0.26048 0.0
C1443 C 0.97858 0.89826 0.25429 0.0
C1444 C 0.91078 0.90462 0.26032 0.0
C1445 C 0.90286 0.88073 0.2537 0.0
C1446 C 0.93339 0.86581 0.24721 0.0
C1447 C 0.97077 0.87442 0.24764 0.0
H1448 H 0.31379 0.93251 0.99471 0.0
H1449 H 0.27385 0.86303 0.01778 0.0
H1450 H 0.37891 0.91745 0.99462 0.0
H1451 H 0.33904 0.84823 0.01867 0.0
H1452 H 0.4545 0.82105 0.99498 0.0
H1453 H 0.38947 0.83621 0.99508 0.0
H1454 H 0.43001 0.90577 0.01788 0.0
H1455 H 0.49514 0.89083 0.0168 0.0
C1456 C 0.31897 0.91409 1.0 0.0
C1457 C 0.28864 0.89895 0.00618 0.0
C1458 C 0.35639 0.90546 1.00009 0.0
C1459 C 0.36443 0.88156 0.00662 0.0
C1460 C 0.334 0.86656 0.0131 0.0
C1461 C 0.29657 0.87511 0.01275 0.0
C1462 C 0.44949 0.83957 1.00003 0.0
C1463 C 0.48 0.85474 0.00582 0.0
C1464 C 0.41212 0.84826 1.00023 0.0
C1465 C 0.40428 0.87227 0.00651 0.0
C1466 C 0.43489 0.88733 0.01255 0.0
C1467 C 0.47228 0.87872 0.01207 0.0
H1468 H 0.99589 0.39081 0.01679 0.0
H1469 H 0.95476 0.32085 0.99583 0.0
H1470 H 0.9308 0.40591 0.01775 0.0
H1471 H 0.88988 0.33614 0.99576 0.0
H1472 H 0.7744 0.36306 0.01806 0.0
H1473 H 0.83961 0.34834 0.01913 0.0
H1474 H 0.8794 0.41745 0.99473 0.0
H1475 H 0.81422 0.43245 0.99469 0.0
C1476 C 0.97294 0.3787 0.01222 0.0
C1477 C 0.98049 0.35462 0.00628 0.0
C1478 C 0.93557 0.3874 0.01262 0.0
C1479 C 0.90485 0.37231 0.00681 0.0
C1480 C 0.91258 0.34822 1.00077 0.0
C1481 C 0.94989 0.33945 1.00066 0.0
C1482 C 0.79711 0.37513 0.01298 0.0
C1483 C 0.78913 0.39892 0.00627 0.0
C1484 C 0.83456 0.36664 0.01344 0.0
C1485 C 0.86499 0.38162 0.0069 0.0
C1486 C 0.8569 0.40547 1.00024 0.0
C1487 C 0.81946 0.41406 1.00007 0.0
H1488 H 0.70351 0.68124 0.74401 0.0
H1489 H 0.74368 0.6119 0.76732 0.0
H1490 H 0.63839 0.66614 0.74417 0.0
H1491 H 0.67854 0.59708 0.76845 0.0
H1492 H 0.56312 0.56962 0.74515 0.0
H1493 H 0.62806 0.58489 0.74504 0.0
H1494 H 0.58738 0.65451 0.76757 0.0
H1495 H 0.52228 0.63946 0.7667 0.0
C1496 C 0.69838 0.66284 0.7494 0.0
C1497 C 0.72878 0.64775 0.75557 0.0
C1498 C 0.66097 0.65419 0.74963 0.0
C1499 C 0.65301 0.63033 0.7563 0.0
C1500 C 0.68351 0.61538 0.76278 0.0
C1501 C 0.72092 0.62394 0.76227 0.0
C1502 C 0.56807 0.58818 0.75011 0.0
C1503 C 0.53753 0.60333 0.75589 0.0
C1504 C 0.60539 0.59693 0.75019 0.0
C1505 C 0.61318 0.62098 0.75633 0.0
C1506 C 0.58254 0.63604 0.76235 0.0
C1507 C 0.54517 0.62736 0.762 0.0
H1508 H 0.02291 0.13956 0.76764 0.0
H1509 H 0.06329 0.06985 0.74545 0.0
H1510 H 0.08805 0.1544 0.76879 0.0
H1511 H 0.1284 0.08495 0.7456 0.0
H1512 H 0.24432 0.11177 0.76785 0.0
H1513 H 0.17918 0.09688 0.76889 0.0
H1514 H 0.13887 0.16627 0.74554 0.0
H1515 H 0.20393 0.18141 0.7455 0.0
C1516 C 0.04573 0.12744 0.76286 0.0
C1517 C 0.03792 0.10352 0.75646 0.0
C1518 C 0.08314 0.13601 0.76336 0.0
C1519 C 0.1137 0.12096 0.7572 0.0
C1520 C 0.10578 0.09698 0.75083 0.0
C1521 C 0.06838 0.08833 0.75061 0.0
C1522 C 0.22151 0.12386 0.76301 0.0
C1523 C 0.2293 0.14778 0.75661 0.0
C1524 C 0.1841 0.11527 0.76345 0.0
C1525 C 0.15355 0.13029 0.75722 0.0
C1526 C 0.16147 0.15426 0.75083 0.0
C1527 C 0.19885 0.16294 0.75068 0.0
H1528 H 0.52326 0.1116 0.99181 0.0
H1529 H 0.56257 0.18111 0.01519 0.0
H1530 H 0.58858 0.09711 0.99062 0.0
H1531 H 0.62789 0.16635 0.01497 0.0
H1532 H 0.74425 0.14032 0.99243 0.0
H1533 H 0.67897 0.15499 0.99151 0.0
H1534 H 0.63924 0.08514 0.01402 0.0
H1535 H 0.70443 0.07024 0.01395 0.0
C1536 C 0.54588 0.12376 0.99685 0.0
C1537 C 0.53772 0.14751 1.0036 0.0
C1538 C 0.58339 0.11539 0.99631 0.0
C1539 C 0.6137 0.13047 1.0028 0.0
C1540 C 0.60545 0.15429 0.0095 0.0
C1541 C 0.56794 0.16276 0.00976 0.0
C1542 C 0.72154 0.12808 0.99711 0.0
C1543 C 0.72953 0.1041 1.00325 0.0
C1544 C 0.68406 0.13654 0.99674 0.0
C1545 C 0.65364 0.12132 1.00276 0.0
C1546 C 0.66175 0.0973 0.00889 0.0
C1547 C 0.6992 0.08876 0.00899 0.0
H1548 H 0.24251 0.63812 0.99229 0.0
H1549 H 0.20274 0.56856 0.01527 0.0
H1550 H 0.1773 0.65283 0.99131 0.0
H1551 H 0.13754 0.58354 0.01526 0.0
H1552 H 0.0212 0.61028 0.99303 0.0
H1553 H 0.08633 0.59527 0.99203 0.0
H1554 H 0.12693 0.66478 0.0149 0.0
H1555 H 0.06197 0.68 0.01492 0.0
C1556 C 0.21982 0.626 0.99729 0.0
C1557 C 0.22782 0.60217 1.00387 0.0
C1558 C 0.18237 0.63449 0.99688 0.0
C1559 C 0.15196 0.61946 1.00331 0.0
C1560 C 0.16005 0.59556 0.00984 0.0
C1561 C 0.1975 0.58698 0.00998 0.0
C1562 C 0.04408 0.62236 0.99778 0.0
C1563 C 0.03641 0.64635 1.00401 0.0
C1564 C 0.08147 0.61371 0.99735 0.0
C1565 C 0.11209 0.62875 1.00342 0.0
C1566 C 0.10427 0.65276 0.00971 0.0
C1567 C 0.06694 0.66148 0.00987 0.0
H1568 H 0.49395 0.86122 0.76517 0.0
H1569 H 0.45407 0.93143 0.74415 0.0
H1570 H 0.42883 0.84631 0.76535 0.0
H1571 H 0.38903 0.91629 0.74321 0.0
H1572 H 0.27303 0.8895 0.76561 0.0
H1573 H 0.33816 0.90431 0.76601 0.0
H1574 H 0.37772 0.83479 0.74245 0.0
H1575 H 0.31259 0.81971 0.74317 0.0
C1576 C 0.47126 0.87341 0.76036 0.0
C1577 C 0.47916 0.89752 0.7547 0.0
C1578 C 0.43385 0.86481 0.76031 0.0
C1579 C 0.40341 0.88002 0.75425 0.0
C1580 C 0.4115 0.90412 0.74839 0.0
C1581 C 0.44887 0.91281 0.74878 0.0
C1582 C 0.29566 0.87738 0.76051 0.0
C1583 C 0.28766 0.85342 0.75438 0.0
C1584 C 0.33309 0.88593 0.76059 0.0
C1585 C 0.36346 0.87083 0.7542 0.0
C1586 C 0.35529 0.84687 0.74788 0.0
C1587 C 0.31787 0.83822 0.74814 0.0
H1588 H 0.77194 0.3909 0.7436 0.0
H1589 H 0.81215 0.321 0.7654 0.0
H1590 H 0.83717 0.40565 0.74247 0.0
H1591 H 0.87728 0.33599 0.76522 0.0
H1592 H 0.99279 0.36217 0.74201 0.0
H1593 H 0.92742 0.34776 0.74129 0.0
H1594 H 0.88873 0.41715 0.7656 0.0
H1595 H 0.95411 0.43184 0.76536 0.0
C1596 C 0.79472 0.37872 0.74832 0.0
C1597 C 0.78686 0.35476 0.75456 0.0
C1598 C 0.83217 0.38724 0.74781 0.0
C1599 C 0.86268 0.37207 0.75378 0.0
C1600 C 0.85469 0.3481 0.7601 0.0
C1601 C 0.81727 0.33951 0.76035 0.0
C1602 C 0.9703 0.37438 0.74713 0.0
C1603 C 0.97865 0.39815 0.75376 0.0
C1604 C 0.93276 0.36605 0.74688 0.0
C1605 C 0.90262 0.3812 0.75351 0.0
C1606 C 0.91104 0.40505 0.76005 0.0
C1607 C 0.94859 0.41347 0.76004 0.0
H1608 H 0.31251 0.43214 0.51675 0.0
H1609 H 0.27364 0.36198 0.49492 0.0
H1610 H 0.37776 0.41728 0.51771 0.0
H1611 H 0.3389 0.34738 0.49477 0.0
H1612 H 0.45481 0.32084 0.51702 0.0
H1613 H 0.3897 0.33586 0.51787 0.0
H1614 H 0.42907 0.40564 0.49491 0.0
H1615 H 0.49428 0.39086 0.49516 0.0
C1616 C 0.31797 0.41359 0.51197 0.0
C1617 C 0.28791 0.39823 0.50582 0.0
C1618 C 0.35545 0.40507 0.51237 0.0
C1619 C 0.36385 0.38107 0.5063 0.0
C1620 C 0.33364 0.3658 0.5 0.0
C1621 C 0.29615 0.37422 0.49993 0.0
C1622 C 0.44951 0.3394 0.5122 0.0
C1623 C 0.47969 0.35466 0.50605 0.0
C1624 C 0.4121 0.34801 0.51254 0.0
C1625 C 0.40387 0.37201 0.50639 0.0
C1626 C 0.43421 0.38721 0.50016 0.0
C1627 C 0.47166 0.37869 0.50015 0.0
H1628 H 0.95284 0.81835 0.49468 0.0
H1629 H 0.99203 0.88811 0.51749 0.0
H1630 H 0.88754 0.8332 0.49444 0.0
H1631 H 0.92676 0.90269 0.51822 0.0
H1632 H 0.81146 0.92954 0.4943 0.0
H1633 H 0.87651 0.91442 0.49439 0.0
H1634 H 0.83618 0.84497 0.5176 0.0
H1635 H 0.77101 0.85986 0.51654 0.0
C1636 C 0.94745 0.83678 0.49988 0.0
C1637 C 0.97763 0.85207 0.50602 0.0
C1638 C 0.90995 0.84529 0.49987 0.0
C1639 C 0.9017 0.86921 0.50627 0.0
C1640 C 0.93197 0.88434 0.51274 0.0
C1641 C 0.96945 0.87592 0.51248 0.0
C1642 C 0.81651 0.91105 0.49943 0.0
C1643 C 0.78606 0.8959 0.50537 0.0
C1644 C 0.85389 0.90238 0.49963 0.0
C1645 C 0.8618 0.87843 0.50605 0.0
C1646 C 0.83124 0.86337 0.51218 0.0
C1647 C 0.79383 0.87196 0.51172 0.0
H1648 H 0.52097 0.14147 0.26759 0.0
H1649 H 0.56197 0.07157 0.24637 0.0
H1650 H 0.58605 0.15656 0.2685 0.0
H1651 H 0.62689 0.08686 0.24625 0.0
H1652 H 0.74256 0.11397 0.26823 0.0
H1653 H 0.67742 0.09911 0.26946 0.0
H1654 H 0.63709 0.16817 0.24527 0.0
H1655 H 0.70216 0.1833 0.24506 0.0
C1656 C 0.54389 0.12937 0.26295 0.0
C1657 C 0.53631 0.10531 0.25694 0.0
C1658 C 0.58126 0.13806 0.26332 0.0
C1659 C 0.61195 0.12299 0.2574 0.0
C1660 C 0.6042 0.09892 0.25133 0.0
C1661 C 0.56689 0.09015 0.25125 0.0
C1662 C 0.71974 0.12599 0.26324 0.0
C1663 C 0.72753 0.14981 0.25655 0.0
C1664 C 0.68233 0.11742 0.2638 0.0
C1665 C 0.65178 0.13235 0.25737 0.0
C1666 C 0.65969 0.15623 0.25071 0.0
C1667 C 0.69708 0.16489 0.25045 0.0
H1668 H 0.01861 0.64287 0.26606 0.0
H1669 H 0.06089 0.57263 0.24678 0.0
H1670 H 0.08358 0.65831 0.26701 0.0
H1671 H 0.12554 0.5882 0.24671 0.0
H1672 H 0.24013 0.61544 0.26925 0.0
H1673 H 0.17487 0.60097 0.27045 0.0
H1674 H 0.13579 0.66945 0.24418 0.0
H1675 H 0.20117 0.68426 0.24399 0.0
C1676 C 0.04177 0.63077 0.26187 0.0
C1677 C 0.03459 0.6065 0.25644 0.0
C1678 C 0.07906 0.63966 0.26227 0.0
C1679 C 0.11003 0.62454 0.25698 0.0
C1680 C 0.10264 0.6003 0.25136 0.0
C1681 C 0.06545 0.59137 0.25125 0.0
C1682 C 0.21759 0.62744 0.26379 0.0
C1683 C 0.22585 0.65098 0.25646 0.0
C1684 C 0.18009 0.61908 0.26433 0.0
C1685 C 0.14986 0.63391 0.25723 0.0
C1686 C 0.15817 0.65758 0.25007 0.0
C1687 C 0.19571 0.66606 0.24983 0.0
H1688 H 0.70542 0.57241 0.51421 0.0
H1689 H 0.74634 0.64213 0.49241 0.0
H1690 H 0.64048 0.58764 0.51411 0.0
H1691 H 0.68122 0.65716 0.49133 0.0
H1692 H 0.56456 0.6838 0.51434 0.0
H1693 H 0.6298 0.6689 0.51436 0.0
H1694 H 0.59026 0.59954 0.49046 0.0
H1695 H 0.525 0.61417 0.49143 0.0
C1696 C 0.70049 0.59094 0.50917 0.0
C1697 C 0.73105 0.60606 0.50336 0.0
C1698 C 0.66316 0.59967 0.50896 0.0
C1699 C 0.65537 0.62367 0.50265 0.0
C1700 C 0.68604 0.63872 0.49666 0.0
C1701 C 0.72343 0.63006 0.49714 0.0
C1702 C 0.56986 0.66539 0.50906 0.0
C1703 C 0.53959 0.65014 0.50298 0.0
C1704 C 0.60734 0.65685 0.50893 0.0
C1705 C 0.6155 0.63295 0.50246 0.0
C1706 C 0.58514 0.61788 0.496 0.0
C1707 C 0.54766 0.62632 0.49641 0.0
H1708 H 0.02513 0.1143 0.4912 0.0
H1709 H 0.06468 0.18347 0.51529 0.0
H1710 H 0.09037 0.09968 0.49002 0.0
H1711 H 0.12993 0.16856 0.5151 0.0
H1712 H 0.24655 0.14211 0.49286 0.0
H1713 H 0.18144 0.15722 0.49195 0.0
H1714 H 0.14047 0.08732 0.51351 0.0
H1715 H 0.20535 0.07202 0.51342 0.0
C1716 C 0.04779 0.12634 0.49641 0.0
C1717 C 0.03972 0.15004 0.50336 0.0
C1718 C 0.08526 0.11791 0.49588 0.0
C1719 C 0.11562 0.13284 0.50259 0.0
C1720 C 0.10746 0.15662 0.50947 0.0
C1721 C 0.06998 0.16516 0.50972 0.0
C1722 C 0.22358 0.12997 0.49734 0.0
C1723 C 0.23112 0.10585 0.50316 0.0
C1724 C 0.18621 0.13868 0.49696 0.0
C1725 C 0.15549 0.12355 0.50267 0.0
C1726 C 0.16319 0.09942 0.50858 0.0
C1727 C 0.20049 0.09065 0.50868 0.0
loop_
_geom_bond_atom_site_label_1
_geom_bond_atom_site_label_2
_geom_bond_distance
_geom_bond_site_symmetry_2
_ccdc_geom_bond_type
C0 O2 1.247 . S
C0 O4 1.258 . S
C1 O8 1.247 . S
C1 O9 1.258 . S
O2 C0 1.247 . S
O2 Zn3 2.028 . S
Zn3 O2 2.028 . S
Zn3 O7 2.035 . S
Zn3 O9 2.035 . S
Zn3 O10 2.028 . S
O4 C0 1.258 . S
O4 Zn5 2.035 . S
Zn5 O4 2.035 . S
Zn5 O6 2.028 . S
Zn5 O8 2.028 . S
Zn5 O11 2.035 . S
O6 Zn5 2.028 . S
O6 C12 1.247 . S
O7 Zn3 2.035 . S
O7 C12 1.258 . S
O8 C1 1.247 . S
O8 Zn5 2.028 . S
O9 C1 1.258 . S
O9 Zn3 2.035 . S
O10 Zn3 2.028 . S
O10 C13 1.247 . S
O11 Zn5 2.035 . S
O11 C13 1.258 . S
C12 O6 1.247 . S
C12 O7 1.258 . S
C13 O10 1.247 . S
C13 O11 1.258 . S
C14 O16 1.247 . S
C14 O18 1.258 . S
C15 O22 1.247 . S
C15 O23 1.258 . S
O16 C14 1.247 . S
O16 Zn17 2.028 . S
Zn17 O16 2.028 . S
Zn17 O21 2.035 . S
Zn17 O23 2.035 . S
Zn17 O24 2.028 . S
O18 C14 1.258 . S
O18 Zn19 2.035 . S
Zn19 O18 2.035 . S
Zn19 O20 2.028 . S
Zn19 O22 2.028 . S
Zn19 O25 2.035 . S
O20 Zn19 2.028 . S
O20 C26 1.247 . S
O21 Zn17 2.035 . S
O21 C26 1.258 . S
O22 C15 1.247 . S
O22 Zn19 2.028 . S
O23 C15 1.258 . S
O23 Zn17 2.035 . S
O24 Zn17 2.028 . S
O24 C27 1.247 . S
O25 Zn19 2.035 . S
O25 C27 1.258 . S
C26 O20 1.247 . S
C26 O21 1.258 . S
C27 O24 1.247 . S
C27 O25 1.258 . S
C28 O30 1.247 . S
C28 O32 1.258 . S
C29 O36 1.247 . S
C29 O37 1.258 . S
O30 C28 1.247 . S
O30 Zn31 2.028 . S
Zn31 O30 2.028 . S
Zn31 O35 2.035 . S
Zn31 O37 2.035 1_556 S
Zn31 O38 2.026 1_556 S
O32 C28 1.258 . S
O32 Zn33 2.035 1_556 S
Zn33 O32 2.035 1_554 S
Zn33 O34 2.028 1_554 S
Zn33 O36 2.028 . S
Zn33 O39 2.035 . S
O34 Zn33 2.028 1_556 S
O34 C40 1.247 . S
O35 Zn31 2.035 . S
O35 C40 1.258 . S
O36 C29 1.247 . S
O36 Zn33 2.028 . S
O37 C29 1.258 . S
O37 Zn31 2.035 1_554 S
O38 Zn31 2.026 1_554 S
O38 C41 1.248 . S
O39 Zn33 2.035 . S
O39 C41 1.258 . S
C40 O34 1.247 . S
C40 O35 1.258 . S
C41 O38 1.248 . S
C41 O39 1.258 . S
C42 O44 1.247 . S
C42 O46 1.258 . S
C43 O50 1.248 . S
C43 O51 1.258 . S
O44 C42 1.247 . S
O44 Zn45 2.028 1_556 S
Zn45 O44 2.028 1_554 S
Zn45 O49 2.035 1_554 S
Zn45 O51 2.035 . S
Zn45 O52 2.028 . S
O46 C42 1.258 . S
O46 Zn47 2.035 . S
Zn47 O46 2.035 . S
Zn47 O48 2.028 . S
Zn47 O50 2.026 1_556 S
Zn47 O53 2.035 1_556 S
O48 Zn47 2.028 . S
O48 C54 1.247 . S
O49 Zn45 2.035 1_556 S
O49 C54 1.258 . S
O50 C43 1.248 . S
O50 Zn47 2.026 1_554 S
O51 C43 1.258 . S
O51 Zn45 2.035 . S
O52 Zn45 2.028 . S
O52 C55 1.247 . S
O53 Zn47 2.035 1_554 S
O53 C55 1.258 . S
C54 O48 1.247 . S
C54 O49 1.258 . S
C55 O52 1.247 . S
C55 O53 1.258 . S
C56 O58 1.247 . S
C56 O60 1.258 . S
C57 O64 1.247 . S
C57 O65 1.258 . S
O58 C56 1.247 . S
O58 Zn59 2.028 . S
Zn59 O58 2.028 . S
Zn59 O63 2.035 . S
Zn59 O65 2.035 . S
Zn59 O66 2.028 . S
O60 C56 1.258 . S
O60 Zn61 2.035 . S
Zn61 O60 2.035 . S
Zn61 O62 2.028 . S
Zn61 O64 2.028 . S
Zn61 O67 2.035 . S
O62 Zn61 2.028 . S
O62 C68 1.247 . S
O63 Zn59 2.035 . S
O63 C68 1.258 . S
O64 C57 1.247 . S
O64 Zn61 2.028 . S
O65 C57 1.258 . S
O65 Zn59 2.035 . S
O66 Zn59 2.028 . S
O66 C69 1.247 . S
O67 Zn61 2.035 . S
O67 C69 1.258 . S
C68 O62 1.247 . S
C68 O63 1.258 . S
C69 O66 1.247 . S
C69 O67 1.258 . S
C70 O72 1.247 . S
C70 O74 1.258 . S
C71 O78 1.247 . S
C71 O79 1.258 . S
O72 C70 1.247 . S
O72 Zn73 2.028 . S
Zn73 O72 2.028 . S
Zn73 O77 2.035 . S
Zn73 O79 2.035 . S
Zn73 O80 2.028 . S
O74 C70 1.258 . S
O74 Zn75 2.035 . S
Zn75 O74 2.035 . S
Zn75 O76 2.028 . S
Zn75 O78 2.028 . S
Zn75 O81 2.035 . S
O76 Zn75 2.028 . S
O76 C82 1.247 . S
O77 Zn73 2.035 . S
O77 C82 1.258 . S
O78 C71 1.247 . S
O78 Zn75 2.028 . S
O79 C71 1.258 . S
O79 Zn73 2.035 . S
O80 Zn73 2.028 . S
O80 C83 1.247 . S
O81 Zn75 2.035 . S
O81 C83 1.258 . S
C82 O76 1.247 . S
C82 O77 1.258 . S
C83 O80 1.247 . S
C83 O81 1.258 . S
C84 O86 1.247 . S
C84 O88 1.258 . S
C85 O92 1.247 . S
C85 O93 1.258 . S
O86 C84 1.247 . S
O86 Zn87 2.028 1_554 S
Zn87 O86 2.028 1_556 S
Zn87 O91 2.032 1_556 S
Zn87 O93 2.035 . S
Zn87 O94 2.028 . S
O88 C84 1.258 . S
O88 Zn89 2.035 . S
Zn89 O88 2.035 . S
Zn89 O90 2.028 . S
Zn89 O92 2.028 1_554 S
Zn89 O95 2.034 1_554 S
O90 Zn89 2.028 . S
O90 C96 1.247 . S
O91 Zn87 2.032 1_554 S
O91 C96 1.261 . S
O92 C85 1.247 . S
O92 Zn89 2.028 1_556 S
O93 C85 1.258 . S
O93 Zn87 2.035 . S
O94 Zn87 2.028 . S
O94 C97 1.247 . S
O95 Zn89 2.034 1_556 S
O95 C97 1.259 . S
C96 O90 1.247 . S
C96 O91 1.261 . S
C97 O94 1.247 . S
C97 O95 1.259 . S
C98 O100 1.247 . S
C98 O102 1.258 . S
C99 O106 1.247 . S
C99 O107 1.258 . S
O100 C98 1.247 . S
O100 Zn101 2.028 . S
Zn101 O100 2.028 . S
Zn101 O105 2.035 . S
Zn101 O107 2.035 1_556 S
Zn101 O108 2.028 1_556 S
O102 C98 1.258 . S
O102 Zn103 2.035 1_556 S
Zn103 O102 2.035 1_554 S
Zn103 O104 2.026 1_554 S
Zn103 O106 2.028 . S
Zn103 O109 2.035 . S
O104 Zn103 2.026 1_556 S
O104 C110 1.248 . S
O105 Zn101 2.035 . S
O105 C110 1.258 . S
O106 C99 1.247 . S
O106 Zn103 2.028 . S
O107 C99 1.258 . S
O107 Zn101 2.035 1_554 S
O108 Zn101 2.028 1_554 S
O108 C111 1.247 . S
O109 Zn103 2.035 . S
O109 C111 1.258 . S
C110 O104 1.248 . S
C110 O105 1.258 . S
C111 O108 1.247 . S
C111 O109 1.258 . S
C112 O114 1.247 . S
C112 O116 1.258 . S
C113 O120 1.247 . S
C113 O121 1.258 . S
O114 C112 1.247 . S
O114 Zn115 2.028 . S
Zn115 O114 2.028 . S
Zn115 O119 2.035 . S
Zn115 O121 2.035 . S
Zn115 O122 2.028 . S
O116 C112 1.258 . S
O116 Zn117 2.035 . S
Zn117 O116 2.035 . S
Zn117 O118 2.028 . S
Zn117 O120 2.028 . S
Zn117 O123 2.035 . S
O118 Zn117 2.028 . S
O118 C124 1.247 . S
O119 Zn115 2.035 . S
O119 C124 1.258 . S
O120 C113 1.247 . S
O120 Zn117 2.028 . S
O121 C113 1.258 . S
O121 Zn115 2.035 . S
O122 Zn115 2.028 . S
O122 C125 1.247 . S
O123 Zn117 2.035 . S
O123 C125 1.258 . S
C124 O118 1.247 . S
C124 O119 1.258 . S
C125 O122 1.247 . S
C125 O123 1.258 . S
C126 O128 1.247 . S
C126 O130 1.258 . S
C127 O134 1.247 . S
C127 O135 1.258 . S
O128 C126 1.247 . S
O128 Zn129 2.028 . S
Zn129 O128 2.028 . S
Zn129 O133 2.035 . S
Zn129 O135 2.035 . S
Zn129 O136 2.028 . S
O130 C126 1.258 . S
O130 Zn131 2.035 . S
Zn131 O130 2.035 . S
Zn131 O132 2.028 . S
Zn131 O134 2.028 . S
Zn131 O137 2.035 . S
O132 Zn131 2.028 . S
O132 C138 1.247 . S
O133 Zn129 2.035 . S
O133 C138 1.258 . S
O134 C127 1.247 . S
O134 Zn131 2.028 . S
O135 C127 1.258 . S
O135 Zn129 2.035 . S
O136 Zn129 2.028 . S
O136 C139 1.247 . S
O137 Zn131 2.035 . S
O137 C139 1.258 . S
C138 O132 1.247 . S
C138 O133 1.258 . S
C139 O136 1.247 . S
C139 O137 1.258 . S
C140 O142 1.247 . S
C140 O144 1.258 . S
C141 O148 1.247 . S
C141 O149 1.258 . S
O142 C140 1.247 . S
O142 Zn143 2.028 . S
Zn143 O142 2.028 . S
Zn143 O147 2.035 . S
Zn143 O149 2.035 . S
Zn143 O150 2.028 . S
O144 C140 1.258 . S
O144 Zn145 2.035 . S
Zn145 O144 2.035 . S
Zn145 O146 2.028 . S
Zn145 O148 2.028 . S
Zn145 O151 2.035 . S
O146 Zn145 2.028 . S
O146 C152 1.247 . S
O147 Zn143 2.035 . S
O147 C152 1.258 . S
O148 C141 1.247 . S
O148 Zn145 2.028 . S
O149 C141 1.258 . S
O149 Zn143 2.035 . S
O150 Zn143 2.028 . S
O150 C153 1.247 . S
O151 Zn145 2.035 . S
O151 C153 1.258 . S
C152 O146 1.247 . S
C152 O147 1.258 . S
C153 O150 1.247 . S
C153 O151 1.258 . S
C154 O156 1.247 . S
C154 O158 1.258 . S
C155 O162 1.247 . S
C155 O163 1.258 . S
O156 C154 1.247 . S
O156 Zn157 2.028 . S
Zn157 O156 2.028 . S
Zn157 O161 2.035 . S
Zn157 O163 2.035 . S
Zn157 O164 2.028 . S
O158 C154 1.258 . S
O158 Zn159 2.035 . S
Zn159 O158 2.035 . S
Zn159 O160 2.028 . S
Zn159 O162 2.028 . S
Zn159 O165 2.035 . S
O160 Zn159 2.028 . S
O160 C166 1.247 . S
O161 Zn157 2.035 . S
O161 C166 1.258 . S
O162 C155 1.247 . S
O162 Zn159 2.028 . S
O163 C155 1.258 . S
O163 Zn157 2.035 . S
O164 Zn157 2.028 . S
O164 C167 1.247 . S
O165 Zn159 2.035 . S
O165 C167 1.258 . S
C166 O160 1.247 . S
C166 O161 1.258 . S
C167 O164 1.247 . S
C167 O165 1.258 . S
C168 O170 1.247 . S
C168 O172 1.258 . S
C169 O176 1.247 . S
C169 O177 1.258 . S
O170 C168 1.247 . S
O170 Zn171 2.028 . S
Zn171 O170 2.028 . S
Zn171 O175 2.035 . S
Zn171 O177 2.035 . S
Zn171 O178 2.028 . S
O172 C168 1.258 . S
O172 Zn173 2.035 . S
Zn173 O172 2.035 . S
Zn173 O174 2.028 . S
Zn173 O176 2.028 . S
Zn173 O179 2.035 . S
O174 Zn173 2.028 . S
O174 C180 1.247 . S
O175 Zn171 2.035 . S
O175 C180 1.258 . S
O176 C169 1.247 . S
O176 Zn173 2.028 . S
O177 C169 1.258 . S
O177 Zn171 2.035 . S
O178 Zn171 2.028 . S
O178 C181 1.247 . S
O179 Zn173 2.035 . S
O179 C181 1.258 . S
C180 O174 1.247 . S
C180 O175 1.258 . S
C181 O178 1.247 . S
C181 O179 1.258 . S
C182 O184 1.247 . S
C182 O186 1.258 . S
C183 O190 1.247 . S
C183 O191 1.258 . S
O184 C182 1.247 . S
O184 Zn185 2.028 . S
Zn185 O184 2.028 . S
Zn185 O189 2.035 . S
Zn185 O191 2.035 . S
Zn185 O192 2.028 . S
O186 C182 1.258 . S
O186 Zn187 2.035 . S
Zn187 O186 2.035 . S
Zn187 O188 2.028 . S
Zn187 O190 2.028 . S
Zn187 O193 2.035 . S
O188 Zn187 2.028 . S
O188 C194 1.247 . S
O189 Zn185 2.035 . S
O189 C194 1.258 . S
O190 C183 1.247 . S
O190 Zn187 2.028 . S
O191 C183 1.258 . S
O191 Zn185 2.035 . S
O192 Zn185 2.028 . S
O192 C195 1.247 . S
O193 Zn187 2.035 . S
O193 C195 1.258 . S
C194 O188 1.247 . S
C194 O189 1.258 . S
C195 O192 1.247 . S
C195 O193 1.258 . S
C196 O198 1.247 . S
C196 O200 1.258 . S
C197 O204 1.247 . S
C197 O205 1.258 . S
O198 C196 1.247 . S
O198 Zn199 2.028 . S
Zn199 O198 2.028 . S
Zn199 O203 2.035 . S
Zn199 O205 2.035 . S
Zn199 O206 2.028 . S
O200 C196 1.258 . S
O200 Zn201 2.035 . S
Zn201 O200 2.035 . S
Zn201 O202 2.028 . S
Zn201 O204 2.028 . S
Zn201 O207 2.035 . S
O202 Zn201 2.028 . S
O202 C208 1.247 . S
O203 Zn199 2.035 . S
O203 C208 1.258 . S
O204 C197 1.247 . S
O204 Zn201 2.028 . S
O205 C197 1.258 . S
O205 Zn199 2.035 . S
O206 Zn199 2.028 . S
O206 C209 1.247 . S
O207 Zn201 2.035 . S
O207 C209 1.258 . S
C208 O202 1.247 . S
C208 O203 1.258 . S
C209 O206 1.247 . S
C209 O207 1.258 . S
C210 O212 1.247 . S
C210 O214 1.258 . S
C211 O218 1.247 . S
C211 O219 1.258 . S
O212 C210 1.247 . S
O212 Zn213 2.028 . S
Zn213 O212 2.028 . S
Zn213 O217 2.035 . S
Zn213 O219 2.035 . S
Zn213 O220 2.028 . S
O214 C210 1.258 . S
O214 Zn215 2.035 . S
Zn215 O214 2.035 . S
Zn215 O216 2.028 . S
Zn215 O218 2.028 . S
Zn215 O221 2.035 . S
O216 Zn215 2.028 . S
O216 C222 1.247 . S
O217 Zn213 2.035 . S
O217 C222 1.258 . S
O218 C211 1.247 . S
O218 Zn215 2.028 . S
O219 C211 1.258 . S
O219 Zn213 2.035 . S
O220 Zn213 2.028 . S
O220 C223 1.247 . S
O221 Zn215 2.035 . S
O221 C223 1.258 . S
C222 O216 1.247 . S
C222 O217 1.258 . S
C223 O220 1.247 . S
C223 O221 1.258 . S
C224 O226 1.247 . S
C224 O228 1.258 . S
C225 O232 1.247 . S
C225 O233 1.258 . S
O226 C224 1.247 . S
O226 Zn227 2.028 . S
Zn227 O226 2.028 . S
Zn227 O231 2.035 . S
Zn227 O233 2.035 . S
Zn227 O234 2.028 . S
O228 C224 1.258 . S
O228 Zn229 2.035 . S
Zn229 O228 2.035 . S
Zn229 O230 2.028 . S
Zn229 O232 2.028 . S
Zn229 O235 2.035 . S
O230 Zn229 2.028 . S
O230 C236 1.247 . S
O231 Zn227 2.035 . S
O231 C236 1.258 . S
O232 C225 1.247 . S
O232 Zn229 2.028 . S
O233 C225 1.258 . S
O233 Zn227 2.035 . S
O234 Zn227 2.028 . S
O234 C237 1.247 . S
O235 Zn229 2.035 . S
O235 C237 1.258 . S
C236 O230 1.247 . S
C236 O231 1.258 . S
C237 O234 1.247 . S
C237 O235 1.258 . S
C238 O240 1.247 . S
C238 O242 1.258 . S
C239 O246 1.247 . S
C239 O247 1.258 . S
O240 C238 1.247 . S
O240 Zn241 2.028 . S
Zn241 O240 2.028 . S
Zn241 O245 2.035 . S
Zn241 O247 2.035 . S
Zn241 O248 2.028 . S
O242 C238 1.258 . S
O242 Zn243 2.035 . S
Zn243 O242 2.035 . S
Zn243 O244 2.028 . S
Zn243 O246 2.028 . S
Zn243 O249 2.035 . S
O244 Zn243 2.028 . S
O244 C250 1.247 . S
O245 Zn241 2.035 . S
O245 C250 1.258 . S
O246 C239 1.247 . S
O246 Zn243 2.028 . S
O247 C239 1.258 . S
O247 Zn241 2.035 . S
O248 Zn241 2.028 . S
O248 C251 1.247 . S
O249 Zn243 2.035 . S
O249 C251 1.258 . S
C250 O244 1.247 . S
C250 O245 1.258 . S
C251 O248 1.247 . S
C251 O249 1.258 . S
C252 O254 1.247 . S
C252 O256 1.258 . S
C253 O260 1.247 . S
C253 O261 1.258 . S
O254 C252 1.247 . S
O254 Zn255 2.028 . S
Zn255 O254 2.028 . S
Zn255 O259 2.035 . S
Zn255 O261 2.035 . S
Zn255 O262 2.028 . S
O256 C252 1.258 . S
O256 Zn257 2.035 . S
Zn257 O256 2.035 . S
Zn257 O258 2.028 . S
Zn257 O260 2.028 . S
Zn257 O263 2.035 . S
O258 Zn257 2.028 . S
O258 C264 1.247 . S
O259 Zn255 2.035 . S
O259 C264 1.258 . S
O260 C253 1.247 . S
O260 Zn257 2.028 . S
O261 C253 1.258 . S
O261 Zn255 2.035 . S
O262 Zn255 2.028 . S
O262 C265 1.247 . S
O263 Zn257 2.035 . S
O263 C265 1.258 . S
C264 O258 1.247 . S
C264 O259 1.258 . S
C265 O262 1.247 . S
C265 O263 1.258 . S
C266 O268 1.247 . S
C266 O270 1.258 . S
C267 O274 1.247 . S
C267 O275 1.258 . S
O268 C266 1.247 . S
O268 Zn269 2.028 . S
Zn269 O268 2.028 . S
Zn269 O273 2.035 . S
Zn269 O275 2.035 . S
Zn269 O276 2.028 . S
O270 C266 1.258 . S
O270 Zn271 2.035 . S
Zn271 O270 2.035 . S
Zn271 O272 2.028 . S
Zn271 O274 2.028 . S
Zn271 O277 2.035 . S
O272 Zn271 2.028 . S
O272 C278 1.247 . S
O273 Zn269 2.035 . S
O273 C278 1.258 . S
O274 C267 1.247 . S
O274 Zn271 2.028 . S
O275 C267 1.258 . S
O275 Zn269 2.035 . S
O276 Zn269 2.028 . S
O276 C279 1.247 . S
O277 Zn271 2.035 . S
O277 C279 1.258 . S
C278 O272 1.247 . S
C278 O273 1.258 . S
C279 O276 1.247 . S
C279 O277 1.258 . S
C280 O282 1.247 . S
C280 O284 1.258 . S
C281 O288 1.247 . S
C281 O289 1.258 . S
O282 C280 1.247 . S
O282 Zn283 2.028 . S
Zn283 O282 2.028 . S
Zn283 O287 2.035 . S
Zn283 O289 2.035 . S
Zn283 O290 2.028 . S
O284 C280 1.258 . S
O284 Zn285 2.035 . S
Zn285 O284 2.035 . S
Zn285 O286 2.028 . S
Zn285 O288 2.028 . S
Zn285 O291 2.035 . S
O286 Zn285 2.028 . S
O286 C292 1.247 . S
O287 Zn283 2.035 . S
O287 C292 1.258 . S
O288 C281 1.247 . S
O288 Zn285 2.028 . S
O289 C281 1.258 . S
O289 Zn283 2.035 . S
O290 Zn283 2.028 . S
O290 C293 1.247 . S
O291 Zn285 2.035 . S
O291 C293 1.258 . S
C292 O286 1.247 . S
C292 O287 1.258 . S
C293 O290 1.247 . S
C293 O291 1.258 . S
C294 O296 1.247 . S
C294 O298 1.258 . S
C295 O302 1.247 . S
C295 O303 1.258 . S
O296 C294 1.247 . S
O296 Zn297 2.028 . S
Zn297 O296 2.028 . S
Zn297 O301 2.035 . S
Zn297 O303 2.035 . S
Zn297 O304 2.028 . S
O298 C294 1.258 . S
O298 Zn299 2.035 . S
Zn299 O298 2.035 . S
Zn299 O300 2.028 . S
Zn299 O302 2.028 . S
Zn299 O305 2.035 . S
O300 Zn299 2.028 . S
O300 C306 1.247 . S
O301 Zn297 2.035 . S
O301 C306 1.258 . S
O302 C295 1.247 . S
O302 Zn299 2.028 . S
O303 C295 1.258 . S
O303 Zn297 2.035 . S
O304 Zn297 2.028 . S
O304 C307 1.247 . S
O305 Zn299 2.035 . S
O305 C307 1.258 . S
C306 O300 1.247 . S
C306 O301 1.258 . S
C307 O304 1.247 . S
C307 O305 1.258 . S
C308 O310 1.247 . S
C308 O312 1.258 . S
C309 O316 1.247 . S
C309 O317 1.258 . S
O310 C308 1.247 . S
O310 Zn311 2.028 . S
Zn311 O310 2.028 . S
Zn311 O315 2.035 . S
Zn311 O317 2.035 . S
Zn311 O318 2.028 . S
O312 C308 1.258 . S
O312 Zn313 2.035 . S
Zn313 O312 2.035 . S
Zn313 O314 2.028 . S
Zn313 O316 2.028 . S
Zn313 O319 2.035 . S
O314 Zn313 2.028 . S
O314 C320 1.247 . S
O315 Zn311 2.035 . S
O315 C320 1.258 . S
O316 C309 1.247 . S
O316 Zn313 2.028 . S
O317 C309 1.258 . S
O317 Zn311 2.035 . S
O318 Zn311 2.028 . S
O318 C321 1.247 . S
O319 Zn313 2.035 . S
O319 C321 1.258 . S
C320 O314 1.247 . S
C320 O315 1.258 . S
C321 O318 1.247 . S
C321 O319 1.258 . S
C322 O324 1.247 . S
C322 O326 1.258 . S
C323 O330 1.247 . S
C323 O331 1.258 . S
O324 C322 1.247 . S
O324 Zn325 2.028 . S
Zn325 O324 2.028 . S
Zn325 O329 2.035 . S
Zn325 O331 2.035 . S
Zn325 O332 2.028 . S
O326 C322 1.258 . S
O326 Zn327 2.035 . S
Zn327 O326 2.035 . S
Zn327 O328 2.028 . S
Zn327 O330 2.028 . S
Zn327 O333 2.035 . S
O328 Zn327 2.028 . S
O328 C334 1.247 . S
O329 Zn325 2.035 . S
O329 C334 1.258 . S
O330 C323 1.247 . S
O330 Zn327 2.028 . S
O331 C323 1.258 . S
O331 Zn325 2.035 . S
O332 Zn325 2.028 . S
O332 C335 1.247 . S
O333 Zn327 2.035 . S
O333 C335 1.258 . S
C334 O328 1.247 . S
C334 O329 1.258 . S
C335 O332 1.247 . S
C335 O333 1.258 . S
C336 O338 1.247 . S
C336 O340 1.258 . S
C337 O344 1.247 . S
C337 O345 1.258 . S
O338 C336 1.247 . S
O338 Zn339 2.028 . S
Zn339 O338 2.028 . S
Zn339 O343 2.035 . S
Zn339 O345 2.035 . S
Zn339 O346 2.028 . S
O340 C336 1.258 . S
O340 Zn341 2.035 . S
Zn341 O340 2.035 . S
Zn341 O342 2.028 . S
Zn341 O344 2.028 . S
Zn341 O347 2.035 . S
O342 Zn341 2.028 . S
O342 C348 1.247 . S
O343 Zn339 2.035 . S
O343 C348 1.258 . S
O344 C337 1.247 . S
O344 Zn341 2.028 . S
O345 C337 1.258 . S
O345 Zn339 2.035 . S
O346 Zn339 2.028 . S
O346 C349 1.247 . S
O347 Zn341 2.035 . S
O347 C349 1.258 . S
C348 O342 1.247 . S
C348 O343 1.258 . S
C349 O346 1.247 . S
C349 O347 1.258 . S
C350 O352 1.247 . S
C350 O354 1.258 . S
C351 O358 1.247 . S
C351 O359 1.258 . S
O352 C350 1.247 . S
O352 Zn353 2.028 . S
Zn353 O352 2.028 . S
Zn353 O357 2.035 . S
Zn353 O359 2.035 . S
Zn353 O360 2.028 . S
O354 C350 1.258 . S
O354 Zn355 2.035 . S
Zn355 O354 2.035 . S
Zn355 O356 2.028 . S
Zn355 O358 2.028 . S
Zn355 O361 2.035 . S
O356 Zn355 2.028 . S
O356 C362 1.247 . S
O357 Zn353 2.035 . S
O357 C362 1.258 . S
O358 C351 1.247 . S
O358 Zn355 2.028 . S
O359 C351 1.258 . S
O359 Zn353 2.035 . S
O360 Zn353 2.028 . S
O360 C363 1.247 . S
O361 Zn355 2.035 . S
O361 C363 1.258 . S
C362 O356 1.247 . S
C362 O357 1.258 . S
C363 O360 1.247 . S
C363 O361 1.258 . S
C364 O366 1.247 . S
C364 O368 1.258 . S
C365 O372 1.247 . S
C365 O373 1.258 . S
O366 C364 1.247 . S
O366 Zn367 2.028 1_554 S
Zn367 O366 2.028 1_556 S
Zn367 O371 2.034 1_556 S
Zn367 O373 2.035 . S
Zn367 O374 2.028 . S
O368 C364 1.258 . S
O368 Zn369 2.035 . S
Zn369 O368 2.035 . S
Zn369 O370 2.028 . S
Zn369 O372 2.028 1_554 S
Zn369 O375 2.032 1_554 S
O370 Zn369 2.028 . S
O370 C376 1.247 . S
O371 Zn367 2.034 1_554 S
O371 C376 1.259 . S
O372 C365 1.247 . S
O372 Zn369 2.028 1_556 S
O373 C365 1.258 . S
O373 Zn367 2.035 . S
O374 Zn367 2.028 . S
O374 C377 1.247 . S
O375 Zn369 2.032 1_556 S
O375 C377 1.261 . S
C376 O370 1.247 . S
C376 O371 1.259 . S
C377 O374 1.247 . S
C377 O375 1.261 . S
C378 O380 1.247 . S
C378 O382 1.258 . S
C379 O386 1.247 . S
C379 O387 1.258 . S
O380 C378 1.247 . S
O380 Zn381 2.028 1_554 S
Zn381 O380 2.028 1_556 S
Zn381 O385 2.034 1_556 S
Zn381 O387 2.035 . S
Zn381 O388 2.028 . S
O382 C378 1.258 . S
O382 Zn383 2.035 . S
Zn383 O382 2.035 . S
Zn383 O384 2.028 . S
Zn383 O386 2.028 1_554 S
Zn383 O389 2.032 1_554 S
O384 Zn383 2.028 . S
O384 C390 1.247 . S
O385 Zn381 2.034 1_554 S
O385 C390 1.259 . S
O386 C379 1.247 . S
O386 Zn383 2.028 1_556 S
O387 C379 1.258 . S
O387 Zn381 2.035 . S
O388 Zn381 2.028 . S
O388 C391 1.247 . S
O389 Zn383 2.032 1_556 S
O389 C391 1.261 . S
C390 O384 1.247 . S
C390 O385 1.259 . S
C391 O388 1.247 . S
C391 O389 1.261 . S
C392 O394 1.247 . S
C392 O396 1.258 . S
C393 O400 1.247 . S
C393 O401 1.258 . S
O394 C392 1.247 . S
O394 Zn395 2.028 . S
Zn395 O394 2.028 . S
Zn395 O399 2.035 . S
Zn395 O401 2.035 . S
Zn395 O402 2.028 . S
O396 C392 1.258 . S
O396 Zn397 2.035 . S
Zn397 O396 2.035 . S
Zn397 O398 2.028 . S
Zn397 O400 2.028 . S
Zn397 O403 2.035 . S
O398 Zn397 2.028 . S
O398 C404 1.247 . S
O399 Zn395 2.035 . S
O399 C404 1.258 . S
O400 C393 1.247 . S
O400 Zn397 2.028 . S
O401 C393 1.258 . S
O401 Zn395 2.035 . S
O402 Zn395 2.028 . S
O402 C405 1.247 . S
O403 Zn397 2.035 . S
O403 C405 1.258 . S
C404 O398 1.247 . S
C404 O399 1.258 . S
C405 O402 1.247 . S
C405 O403 1.258 . S
C406 O408 1.247 . S
C406 O410 1.258 . S
C407 O414 1.247 . S
C407 O415 1.258 . S
O408 C406 1.247 . S
O408 Zn409 2.028 . S
Zn409 O408 2.028 . S
Zn409 O413 2.035 . S
Zn409 O415 2.035 . S
Zn409 O416 2.028 . S
O410 C406 1.258 . S
O410 Zn411 2.035 . S
Zn411 O410 2.035 . S
Zn411 O412 2.028 . S
Zn411 O414 2.028 . S
Zn411 O417 2.035 . S
O412 Zn411 2.028 . S
O412 C418 1.247 . S
O413 Zn409 2.035 . S
O413 C418 1.258 . S
O414 C407 1.247 . S
O414 Zn411 2.028 . S
O415 C407 1.258 . S
O415 Zn409 2.035 . S
O416 Zn409 2.028 . S
O416 C419 1.247 . S
O417 Zn411 2.035 . S
O417 C419 1.258 . S
C418 O412 1.247 . S
C418 O413 1.258 . S
C419 O416 1.247 . S
C419 O417 1.258 . S
C420 O422 1.247 . S
C420 O424 1.258 . S
C421 O428 1.247 . S
C421 O429 1.258 . S
O422 C420 1.247 . S
O422 Zn423 2.028 1_554 S
Zn423 O422 2.028 1_556 S
Zn423 O427 2.032 1_556 S
Zn423 O429 2.035 . S
Zn423 O430 2.028 . S
O424 C420 1.258 . S
O424 Zn425 2.035 . S
Zn425 O424 2.035 . S
Zn425 O426 2.028 . S
Zn425 O428 2.028 1_554 S
Zn425 O431 2.034 1_554 S
O426 Zn425 2.028 . S
O426 C432 1.247 . S
O427 Zn423 2.032 1_554 S
O427 C432 1.261 . S
O428 C421 1.247 . S
O428 Zn425 2.028 1_556 S
O429 C421 1.258 . S
O429 Zn423 2.035 . S
O430 Zn423 2.028 . S
O430 C433 1.247 . S
O431 Zn425 2.034 1_556 S
O431 C433 1.259 . S
C432 O426 1.247 . S
C432 O427 1.261 . S
C433 O430 1.247 . S
C433 O431 1.259 . S
C434 O436 1.247 . S
C434 O438 1.258 . S
C435 O442 1.247 . S
C435 O443 1.258 . S
O436 C434 1.247 . S
O436 Zn437 2.028 1_554 S
Zn437 O436 2.028 1_556 S
Zn437 O441 2.032 1_556 S
Zn437 O443 2.035 . S
Zn437 O444 2.028 . S
O438 C434 1.258 . S
O438 Zn439 2.035 . S
Zn439 O438 2.035 . S
Zn439 O440 2.028 . S
Zn439 O442 2.028 1_554 S
Zn439 O445 2.034 1_554 S
O440 Zn439 2.028 . S
O440 C446 1.247 . S
O441 Zn437 2.032 1_554 S
O441 C446 1.261 . S
O442 C435 1.247 . S
O442 Zn439 2.028 1_556 S
O443 C435 1.258 . S
O443 Zn437 2.035 . S
O444 Zn437 2.028 . S
O444 C447 1.247 . S
O445 Zn439 2.034 1_556 S
O445 C447 1.259 . S
C446 O440 1.247 . S
C446 O441 1.261 . S
C447 O444 1.247 . S
C447 O445 1.259 . S
H448 C456 0.950 . S
H449 C461 0.950 . S
H450 C458 0.950 . S
H451 C460 0.950 . S
H452 C462 0.950 . S
H453 C464 0.950 . S
H454 C466 0.950 . S
H455 C467 0.950 . S
C456 H448 0.950 . S
C456 C457 1.386 . S
C456 C458 1.391 . S
C457 C456 1.386 . S
C457 C461 1.393 . S
C458 H450 0.950 . S
C458 C456 1.391 . S
C458 C459 1.400 . S
C459 C458 1.400 . S
C459 C460 1.398 . S
C459 C465 1.491 . S
C460 H451 0.950 . S
C460 C459 1.398 . S
C460 C461 1.391 . S
C461 H449 0.950 . S
C461 C457 1.393 . S
C461 C460 1.391 . S
C462 H452 0.950 . S
C462 C463 1.386 . S
C462 C464 1.391 . S
C463 C462 1.386 . S
C463 C467 1.393 . S
C464 H453 0.950 . S
C464 C462 1.391 . S
C464 C465 1.400 . S
C465 C459 1.491 . S
C465 C464 1.400 . S
C465 C466 1.398 . S
C466 H454 0.950 . S
C466 C465 1.398 . S
C466 C467 1.391 . S
C467 H455 0.950 . S
C467 C463 1.393 . S
C467 C466 1.391 . S
H468 C476 0.950 . S
H469 C481 0.950 . S
H470 C478 0.950 . S
H471 C480 0.950 . S
H472 C482 0.950 . S
H473 C484 0.950 . S
H474 C486 0.950 . S
H475 C487 0.950 . S
C476 H468 0.950 . S
C476 C477 1.386 . S
C476 C478 1.391 . S
C477 C476 1.386 . S
C477 C481 1.393 . S
C478 H470 0.950 . S
C478 C476 1.391 . S
C478 C479 1.400 . S
C479 C478 1.400 . S
C479 C480 1.398 . S
C479 C485 1.491 . S
C480 H471 0.950 . S
C480 C479 1.398 . S
C480 C481 1.391 . S
C481 H469 0.950 . S
C481 C477 1.393 . S
C481 C480 1.391 . S
C482 H472 0.950 . S
C482 C483 1.386 . S
C482 C484 1.391 . S
C483 C482 1.386 . S
C483 C487 1.393 . S
C484 H473 0.950 . S
C484 C482 1.391 . S
C484 C485 1.400 . S
C485 C479 1.491 . S
C485 C484 1.400 . S
C485 C486 1.398 . S
C486 H474 0.950 . S
C486 C485 1.398 . S
C486 C487 1.391 . S
C487 H475 0.950 . S
C487 C483 1.393 . S
C487 C486 1.391 . S
H488 C496 0.950 . S
H489 C501 0.950 . S
H490 C498 0.950 . S
H491 C500 0.950 . S
H492 C502 0.950 . S
H493 C504 0.950 . S
H494 C506 0.950 . S
H495 C507 0.950 . S
C496 H488 0.950 . S
C496 C497 1.386 . S
C496 C498 1.391 . S
C497 C496 1.386 . S
C497 C501 1.393 . S
C498 H490 0.950 . S
C498 C496 1.391 . S
C498 C499 1.400 . S
C499 C498 1.400 . S
C499 C500 1.398 . S
C499 C505 1.491 . S
C500 H491 0.950 . S
C500 C499 1.398 . S
C500 C501 1.391 . S
C501 H489 0.950 . S
C501 C497 1.393 . S
C501 C500 1.391 . S
C502 H492 0.950 . S
C502 C503 1.386 . S
C502 C504 1.391 . S
C503 C502 1.386 . S
C503 C507 1.393 . S
C504 H493 0.950 . S
C504 C502 1.391 . S
C504 C505 1.400 . S
C505 C499 1.491 . S
C505 C504 1.400 . S
C505 C506 1.398 . S
C506 H494 0.950 . S
C506 C505 1.398 . S
C506 C507 1.391 . S
C507 H495 0.950 . S
C507 C503 1.393 . S
C507 C506 1.391 . S
H508 C516 0.950 . S
H509 C521 0.950 . S
H510 C518 0.950 . S
H511 C520 0.950 . S
H512 C522 0.950 . S
H513 C524 0.950 . S
H514 C526 0.950 . S
H515 C527 0.950 . S
C516 H508 0.950 . S
C516 C517 1.386 . S
C516 C518 1.391 . S
C517 C516 1.386 . S
C517 C521 1.393 . S
C518 H510 0.950 . S
C518 C516 1.391 . S
C518 C519 1.400 . S
C519 C518 1.400 . S
C519 C520 1.398 . S
C519 C525 1.491 . S
C520 H511 0.950 . S
C520 C519 1.398 . S
C520 C521 1.391 . S
C521 H509 0.950 . S
C521 C517 1.393 . S
C521 C520 1.391 . S
C522 H512 0.950 . S
C522 C523 1.386 . S
C522 C524 1.391 . S
C523 C522 1.386 . S
C523 C527 1.393 . S
C524 H513 0.950 . S
C524 C522 1.391 . S
C524 C525 1.400 . S
C525 C519 1.491 . S
C525 C524 1.400 . S
C525 C526 1.398 . S
C526 H514 0.950 . S
C526 C525 1.398 . S
C526 C527 1.391 . S
C527 H515 0.950 . S
C527 C523 1.393 . S
C527 C526 1.391 . S
H528 C536 0.950 . S
H529 C541 0.950 . S
H530 C538 0.950 . S
H531 C540 0.950 . S
H532 C542 0.950 . S
H533 C544 0.950 . S
H534 C546 0.950 . S
H535 C547 0.950 . S
C536 H528 0.950 . S
C536 C537 1.386 . S
C536 C538 1.391 . S
C537 C536 1.386 . S
C537 C541 1.393 . S
C538 H530 0.950 . S
C538 C536 1.391 . S
C538 C539 1.400 . S
C539 C538 1.400 . S
C539 C540 1.398 . S
C539 C545 1.491 . S
C540 H531 0.950 . S
C540 C539 1.398 . S
C540 C541 1.391 . S
C541 H529 0.950 . S
C541 C537 1.393 . S
C541 C540 1.391 . S
C542 H532 0.950 . S
C542 C543 1.386 . S
C542 C544 1.391 . S
C543 C542 1.386 . S
C543 C547 1.393 . S
C544 H533 0.950 . S
C544 C542 1.391 . S
C544 C545 1.400 . S
C545 C539 1.491 . S
C545 C544 1.400 . S
C545 C546 1.398 . S
C546 H534 0.950 . S
C546 C545 1.398 . S
C546 C547 1.391 . S
C547 H535 0.950 . S
C547 C543 1.393 . S
C547 C546 1.391 . S
H548 C556 0.950 . S
H549 C561 0.950 . S
H550 C558 0.950 . S
H551 C560 0.950 . S
H552 C562 0.950 . S
H553 C564 0.950 . S
H554 C566 0.950 . S
H555 C567 0.950 . S
C556 H548 0.950 . S
C556 C557 1.386 . S
C556 C558 1.391 . S
C557 C556 1.386 . S
C557 C561 1.393 . S
C558 H550 0.950 . S
C558 C556 1.391 . S
C558 C559 1.400 . S
C559 C558 1.400 . S
C559 C560 1.398 . S
C559 C565 1.491 . S
C560 H551 0.950 . S
C560 C559 1.398 . S
C560 C561 1.391 . S
C561 H549 0.950 . S
C561 C557 1.393 . S
C561 C560 1.391 . S
C562 H552 0.950 . S
C562 C563 1.386 . S
C562 C564 1.391 . S
C563 C562 1.386 . S
C563 C567 1.393 . S
C564 H553 0.950 . S
C564 C562 1.391 . S
C564 C565 1.400 . S
C565 C559 1.491 . S
C565 C564 1.400 . S
C565 C566 1.398 . S
C566 H554 0.950 . S
C566 C565 1.398 . S
C566 C567 1.391 . S
C567 H555 0.950 . S
C567 C563 1.393 . S
C567 C566 1.391 . S
H568 C576 0.950 . S
H569 C581 0.950 . S
H570 C578 0.950 . S
H571 C580 0.950 . S
H572 C582 0.950 . S
H573 C584 0.950 . S
H574 C586 0.950 . S
H575 C587 0.950 . S
C576 H568 0.950 . S
C576 C577 1.386 . S
C576 C578 1.391 . S
C577 C576 1.386 . S
C577 C581 1.393 . S
C578 H570 0.950 . S
C578 C576 1.391 . S
C578 C579 1.400 . S
C579 C578 1.400 . S
C579 C580 1.398 . S
C579 C585 1.491 . S
C580 H571 0.950 . S
C580 C579 1.398 . S
C580 C581 1.391 . S
C581 H569 0.950 . S
C581 C577 1.393 . S
C581 C580 1.391 . S
C582 H572 0.950 . S
C582 C583 1.386 . S
C582 C584 1.391 . S
C583 C582 1.386 . S
C583 C587 1.393 . S
C584 H573 0.950 . S
C584 C582 1.391 . S
C584 C585 1.400 . S
C585 C579 1.491 . S
C585 C584 1.400 . S
C585 C586 1.398 . S
C586 H574 0.950 . S
C586 C585 1.398 . S
C586 C587 1.391 . S
C587 H575 0.950 . S
C587 C583 1.393 . S
C587 C586 1.391 . S
H588 C596 0.950 . S
H589 C601 0.950 . S
H590 C598 0.950 . S
H591 C600 0.950 . S
H592 C602 0.950 . S
H593 C604 0.950 . S
H594 C606 0.950 . S
H595 C607 0.950 . S
C596 H588 0.950 . S
C596 C597 1.386 . S
C596 C598 1.391 . S
C597 C596 1.386 . S
C597 C601 1.393 . S
C598 H590 0.950 . S
C598 C596 1.391 . S
C598 C599 1.400 . S
C599 C598 1.400 . S
C599 C600 1.398 . S
C599 C605 1.491 . S
C600 H591 0.950 . S
C600 C599 1.398 . S
C600 C601 1.391 . S
C601 H589 0.950 . S
C601 C597 1.393 . S
C601 C600 1.391 . S
C602 H592 0.950 . S
C602 C603 1.386 . S
C602 C604 1.391 . S
C603 C602 1.386 . S
C603 C607 1.393 . S
C604 H593 0.950 . S
C604 C602 1.391 . S
C604 C605 1.400 . S
C605 C599 1.491 . S
C605 C604 1.400 . S
C605 C606 1.398 . S
C606 H594 0.950 . S
C606 C605 1.398 . S
C606 C607 1.391 . S
C607 H595 0.950 . S
C607 C603 1.393 . S
C607 C606 1.391 . S
H608 C616 0.950 . S
H609 C621 0.950 . S
H610 C618 0.950 . S
H611 C620 0.950 . S
H612 C622 0.950 . S
H613 C624 0.950 . S
H614 C626 0.950 . S
H615 C627 0.950 . S
C616 H608 0.950 . S
C616 C617 1.386 . S
C616 C618 1.391 . S
C617 C616 1.386 . S
C617 C621 1.393 . S
C618 H610 0.950 . S
C618 C616 1.391 . S
C618 C619 1.400 . S
C619 C618 1.400 . S
C619 C620 1.398 . S
C619 C625 1.491 . S
C620 H611 0.950 . S
C620 C619 1.398 . S
C620 C621 1.391 . S
C621 H609 0.950 . S
C621 C617 1.393 . S
C621 C620 1.391 . S
C622 H612 0.950 . S
C622 C623 1.386 . S
C622 C624 1.391 . S
C623 C622 1.386 . S
C623 C627 1.393 . S
C624 H613 0.950 . S
C624 C622 1.391 . S
C624 C625 1.400 . S
C625 C619 1.491 . S
C625 C624 1.400 . S
C625 C626 1.398 . S
C626 H614 0.950 . S
C626 C625 1.398 . S
C626 C627 1.391 . S
C627 H615 0.950 . S
C627 C623 1.393 . S
C627 C626 1.391 . S
H628 C636 0.950 . S
H629 C641 0.950 . S
H630 C638 0.950 . S
H631 C640 0.950 . S
H632 C642 0.950 . S
H633 C644 0.950 . S
H634 C646 0.950 . S
H635 C647 0.950 . S
C636 H628 0.950 . S
C636 C637 1.386 . S
C636 C638 1.391 . S
C637 C636 1.386 . S
C637 C641 1.393 . S
C638 H630 0.950 . S
C638 C636 1.391 . S
C638 C639 1.400 . S
C639 C638 1.400 . S
C639 C640 1.398 . S
C639 C645 1.491 . S
C640 H631 0.950 . S
C640 C639 1.398 . S
C640 C641 1.391 . S
C641 H629 0.950 . S
C641 C637 1.393 . S
C641 C640 1.391 . S
C642 H632 0.950 . S
C642 C643 1.386 . S
C642 C644 1.391 . S
C643 C642 1.386 . S
C643 C647 1.393 . S
C644 H633 0.950 . S
C644 C642 1.391 . S
C644 C645 1.400 . S
C645 C639 1.491 . S
C645 C644 1.400 . S
C645 C646 1.398 . S
C646 H634 0.950 . S
C646 C645 1.398 . S
C646 C647 1.391 . S
C647 H635 0.950 . S
C647 C643 1.393 . S
C647 C646 1.391 . S
H648 C656 0.950 . S
H649 C661 0.950 . S
H650 C658 0.950 . S
H651 C660 0.950 . S
H652 C662 0.950 . S
H653 C664 0.950 . S
H654 C666 0.950 . S
H655 C667 0.950 . S
C656 H648 0.950 . S
C656 C657 1.386 . S
C656 C658 1.391 . S
C657 C656 1.386 . S
C657 C661 1.393 . S
C658 H650 0.950 . S
C658 C656 1.391 . S
C658 C659 1.400 . S
C659 C658 1.400 . S
C659 C660 1.398 . S
C659 C665 1.491 . S
C660 H651 0.950 . S
C660 C659 1.398 . S
C660 C661 1.391 . S
C661 H649 0.950 . S
C661 C657 1.393 . S
C661 C660 1.391 . S
C662 H652 0.950 . S
C662 C663 1.386 . S
C662 C664 1.391 . S
C663 C662 1.386 . S
C663 C667 1.393 . S
C664 H653 0.950 . S
C664 C662 1.391 . S
C664 C665 1.400 . S
C665 C659 1.491 . S
C665 C664 1.400 . S
C665 C666 1.398 . S
C666 H654 0.950 . S
C666 C665 1.398 . S
C666 C667 1.391 . S
C667 H655 0.950 . S
C667 C663 1.393 . S
C667 C666 1.391 . S
H668 C676 0.950 . S
H669 C681 0.950 . S
H670 C678 0.950 . S
H671 C680 0.950 . S
H672 C682 0.950 . S
H673 C684 0.950 . S
H674 C686 0.950 . S
H675 C687 0.950 . S
C676 H668 0.950 . S
C676 C677 1.386 . S
C676 C678 1.391 . S
C677 C676 1.386 . S
C677 C681 1.393 . S
C678 H670 0.950 . S
C678 C676 1.391 . S
C678 C679 1.400 . S
C679 C678 1.400 . S
C679 C680 1.398 . S
C679 C685 1.491 . S
C680 H671 0.950 . S
C680 C679 1.398 . S
C680 C681 1.391 . S
C681 H669 0.950 . S
C681 C677 1.393 . S
C681 C680 1.391 . S
C682 H672 0.950 . S
C682 C683 1.386 . S
C682 C684 1.391 . S
C683 C682 1.386 . S
C683 C687 1.393 . S
C684 H673 0.950 . S
C684 C682 1.391 . S
C684 C685 1.400 . S
C685 C679 1.491 . S
C685 C684 1.400 . S
C685 C686 1.398 . S
C686 H674 0.950 . S
C686 C685 1.398 . S
C686 C687 1.391 . S
C687 H675 0.950 . S
C687 C683 1.393 . S
C687 C686 1.391 . S
H688 C696 0.950 . S
H689 C701 0.950 . S
H690 C698 0.950 . S
H691 C700 0.950 . S
H692 C702 0.950 . S
H693 C704 0.950 . S
H694 C706 0.950 . S
H695 C707 0.950 . S
C696 H688 0.950 . S
C696 C697 1.386 . S
C696 C698 1.391 . S
C697 C696 1.386 . S
C697 C701 1.393 . S
C698 H690 0.950 . S
C698 C696 1.391 . S
C698 C699 1.400 . S
C699 C698 1.400 . S
C699 C700 1.398 . S
C699 C705 1.491 . S
C700 H691 0.950 . S
C700 C699 1.398 . S
C700 C701 1.391 . S
C701 H689 0.950 . S
C701 C697 1.393 . S
C701 C700 1.391 . S
C702 H692 0.950 . S
C702 C703 1.386 . S
C702 C704 1.391 . S
C703 C702 1.386 . S
C703 C707 1.393 . S
C704 H693 0.950 . S
C704 C702 1.391 . S
C704 C705 1.400 . S
C705 C699 1.491 . S
C705 C704 1.400 . S
C705 C706 1.398 . S
C706 H694 0.950 . S
C706 C705 1.398 . S
C706 C707 1.391 . S
C707 H695 0.950 . S
C707 C703 1.393 . S
C707 C706 1.391 . S
H708 C716 0.950 . S
H709 C721 0.950 . S
H710 C718 0.950 . S
H711 C720 0.950 . S
H712 C722 0.950 . S
H713 C724 0.950 . S
H714 C726 0.950 . S
H715 C727 0.950 . S
C716 H708 0.950 . S
C716 C717 1.386 . S
C716 C718 1.391 . S
C717 C716 1.386 . S
C717 C721 1.393 . S
C718 H710 0.950 . S
C718 C716 1.391 . S
C718 C719 1.400 . S
C719 C718 1.400 . S
C719 C720 1.398 . S
C719 C725 1.491 . S
C720 H711 0.950 . S
C720 C719 1.398 . S
C720 C721 1.391 . S
C721 H709 0.950 . S
C721 C717 1.393 . S
C721 C720 1.391 . S
C722 H712 0.950 . S
C722 C723 1.386 . S
C722 C724 1.391 . S
C723 C722 1.386 . S
C723 C727 1.393 . S
C724 H713 0.950 . S
C724 C722 1.391 . S
C724 C725 1.400 . S
C725 C719 1.491 . S
C725 C724 1.400 . S
C725 C726 1.398 . S
C726 H714 0.950 . S
C726 C725 1.398 . S
C726 C727 1.391 . S
C727 H715 0.950 . S
C727 C723 1.393 . S
C727 C726 1.391 . S
H728 C736 0.950 . S
H729 C741 0.950 . S
H730 C738 0.950 . S
H731 C740 0.950 . S
H732 C742 0.950 . S
H733 C744 0.950 . S
H734 C746 0.950 . S
H735 C747 0.950 . S
C736 H728 0.950 . S
C736 C737 1.386 . S
C736 C738 1.391 . S
C737 C736 1.386 . S
C737 C741 1.393 . S
C738 H730 0.950 . S
C738 C736 1.391 . S
C738 C739 1.400 . S
C739 C738 1.400 . S
C739 C740 1.398 . S
C739 C745 1.491 . S
C740 H731 0.950 . S
C740 C739 1.398 . S
C740 C741 1.391 . S
C741 H729 0.950 . S
C741 C737 1.393 . S
C741 C740 1.391 . S
C742 H732 0.950 . S
C742 C743 1.386 . S
C742 C744 1.391 . S
C743 C742 1.386 . S
C743 C747 1.393 . S
C744 H733 0.950 . S
C744 C742 1.391 . S
C744 C745 1.400 . S
C745 C739 1.491 . S
C745 C744 1.400 . S
C745 C746 1.398 . S
C746 H734 0.950 . S
C746 C745 1.398 . S
C746 C747 1.391 . S
C747 H735 0.950 . S
C747 C743 1.393 . S
C747 C746 1.391 . S
H748 C756 0.950 . S
H749 C761 0.950 . S
H750 C758 0.950 . S
H751 C760 0.950 . S
H752 C762 0.950 . S
H753 C764 0.950 . S
H754 C766 0.950 . S
H755 C767 0.950 . S
C756 H748 0.950 . S
C756 C757 1.386 . S
C756 C758 1.391 . S
C757 C756 1.386 . S
C757 C761 1.393 . S
C758 H750 0.950 . S
C758 C756 1.391 . S
C758 C759 1.400 . S
C759 C758 1.400 . S
C759 C760 1.398 . S
C759 C765 1.491 . S
C760 H751 0.950 . S
C760 C759 1.398 . S
C760 C761 1.391 . S
C761 H749 0.950 . S
C761 C757 1.393 . S
C761 C760 1.391 . S
C762 H752 0.950 . S
C762 C763 1.386 . S
C762 C764 1.391 . S
C763 C762 1.386 . S
C763 C767 1.393 . S
C764 H753 0.950 . S
C764 C762 1.391 . S
C764 C765 1.400 . S
C765 C759 1.491 . S
C765 C764 1.400 . S
C765 C766 1.398 . S
C766 H754 0.950 . S
C766 C765 1.398 . S
C766 C767 1.391 . S
C767 H755 0.950 . S
C767 C763 1.393 . S
C767 C766 1.391 . S
H768 C776 0.950 . S
H769 C781 0.950 . S
H770 C778 0.950 . S
H771 C780 0.950 1_455 S
H772 C782 0.950 . S
H773 C784 0.950 . S
H774 C786 0.950 1_655 S
H775 C787 0.950 . S
C776 H768 0.950 . S
C776 C777 1.386 . S
C776 C778 1.391 . S
C777 C776 1.386 . S
C777 C781 1.393 . S
C778 H770 0.950 . S
C778 C776 1.391 . S
C778 C779 1.400 . S
C779 C778 1.400 . S
C779 C780 1.398 . S
C779 C785 1.491 1_655 S
C780 H771 0.950 1_655 S
C780 C779 1.398 . S
C780 C781 1.391 . S
C781 H769 0.950 . S
C781 C777 1.393 . S
C781 C780 1.391 . S
C782 H772 0.950 . S
C782 C783 1.386 . S
C782 C784 1.391 . S
C783 C782 1.386 . S
C783 C787 1.393 . S
C784 H773 0.950 . S
C784 C782 1.391 . S
C784 C785 1.400 . S
C785 C779 1.491 1_455 S
C785 C784 1.400 . S
C785 C786 1.398 . S
C786 H774 0.950 1_455 S
C786 C785 1.398 . S
C786 C787 1.391 . S
C787 H775 0.950 . S
C787 C783 1.393 . S
C787 C786 1.391 . S
H788 C796 0.950 . S
H789 C801 0.950 . S
H790 C798 0.950 1_545 S
H791 C800 0.950 . S
H792 C802 0.950 . S
H793 C804 0.950 1_565 S
H794 C806 0.950 . S
H795 C807 0.950 . S
C796 H788 0.950 . S
C796 C797 1.386 . S
C796 C798 1.391 . S
C797 C796 1.386 . S
C797 C801 1.393 . S
C798 H790 0.950 1_565 S
C798 C796 1.391 . S
C798 C799 1.400 . S
C799 C798 1.400 . S
C799 C800 1.398 . S
C799 C805 1.491 1_565 S
C800 H791 0.950 . S
C800 C799 1.398 . S
C800 C801 1.391 . S
C801 H789 0.950 . S
C801 C797 1.393 . S
C801 C800 1.391 . S
C802 H792 0.950 . S
C802 C803 1.386 . S
C802 C804 1.391 . S
C803 C802 1.386 . S
C803 C807 1.393 . S
C804 H793 0.950 1_545 S
C804 C802 1.391 . S
C804 C805 1.400 . S
C805 C799 1.491 1_545 S
C805 C804 1.400 . S
C805 C806 1.398 . S
C806 H794 0.950 . S
C806 C805 1.398 . S
C806 C807 1.391 . S
C807 H795 0.950 . S
C807 C803 1.393 . S
C807 C806 1.391 . S
H808 C816 0.950 . S
H809 C821 0.950 . S
H810 C818 0.968 . S
H811 C820 0.950 . S
H812 C822 0.950 . S
H813 C824 0.968 . S
H814 C826 0.950 . S
H815 C827 0.950 . S
C816 H808 0.950 . S
C816 C817 1.390 . S
C816 C818 1.391 . S
C817 C816 1.390 . S
C817 C821 1.389 1_556 S
C818 H810 0.968 . S
C818 C816 1.391 . S
C818 C819 1.400 1_556 S
C819 C818 1.400 1_554 S
C819 C820 1.398 . S
C819 C825 1.491 1_464 S
C820 H811 0.950 . S
C820 C819 1.398 . S
C820 C821 1.391 . S
C821 H809 0.950 . S
C821 C817 1.389 1_554 S
C821 C820 1.391 . S
C822 H812 0.950 . S
C822 C823 1.391 . S
C822 C824 1.391 . S
C823 C822 1.391 . S
C823 C827 1.387 1_554 S
C824 H813 0.968 . S
C824 C822 1.391 . S
C824 C825 1.402 1_554 S
C825 C819 1.491 1_646 S
C825 C824 1.402 1_556 S
C825 C826 1.397 . S
C826 H814 0.950 . S
C826 C825 1.397 . S
C826 C827 1.391 . S
C827 H815 0.950 . S
C827 C823 1.387 1_556 S
C827 C826 1.391 . S
H828 C836 0.950 . S
H829 C841 0.950 . S
H830 C838 0.950 . S
H831 C840 0.950 . S
H832 C842 0.950 . S
H833 C844 0.950 . S
H834 C846 0.950 . S
H835 C847 0.950 . S
C836 H828 0.950 . S
C836 C837 1.397 . S
C836 C838 1.391 . S
C837 C836 1.397 . S
C837 C841 1.381 1_554 S
C838 H830 0.950 . S
C838 C836 1.391 . S
C838 C839 1.405 1_554 S
C839 C838 1.405 1_556 S
C839 C840 1.394 . S
C839 C845 1.491 1_556 S
C840 H831 0.950 . S
C840 C839 1.394 . S
C840 C841 1.391 . S
C841 H829 0.950 . S
C841 C837 1.381 1_556 S
C841 C840 1.391 . S
C842 H832 0.950 . S
C842 C843 1.395 . S
C842 C844 1.391 . S
C843 C842 1.395 . S
C843 C847 1.383 1_556 S
C844 H833 0.950 . S
C844 C842 1.391 . S
C844 C845 1.403 1_556 S
C845 C839 1.491 1_554 S
C845 C844 1.403 1_554 S
C845 C846 1.395 . S
C846 H834 0.950 . S
C846 C845 1.395 . S
C846 C847 1.391 . S
C847 H835 0.950 . S
C847 C843 1.383 1_554 S
C847 C846 1.391 . S
H848 C856 0.950 . S
H849 C861 0.950 . S
H850 C858 0.950 . S
H851 C860 0.950 . S
H852 C862 0.950 . S
H853 C864 0.950 . S
H854 C866 0.950 . S
H855 C867 0.950 . S
C856 H848 0.950 . S
C856 C857 1.386 . S
C856 C858 1.391 . S
C857 C856 1.386 . S
C857 C861 1.393 . S
C858 H850 0.950 . S
C858 C856 1.391 . S
C858 C859 1.400 . S
C859 C858 1.400 . S
C859 C860 1.398 . S
C859 C865 1.491 1_655 S
C860 H851 0.950 . S
C860 C859 1.398 . S
C860 C861 1.391 . S
C861 H849 0.950 . S
C861 C857 1.393 . S
C861 C860 1.391 . S
C862 H852 0.950 . S
C862 C863 1.386 . S
C862 C864 1.391 . S
C863 C862 1.386 . S
C863 C867 1.393 . S
C864 H853 0.950 . S
C864 C862 1.391 . S
C864 C865 1.400 . S
C865 C859 1.491 1_455 S
C865 C864 1.400 . S
C865 C866 1.398 . S
C866 H854 0.950 . S
C866 C865 1.398 . S
C866 C867 1.391 . S
C867 H855 0.950 . S
C867 C863 1.393 . S
C867 C866 1.391 . S
H868 C876 0.950 . S
H869 C881 0.950 . S
H870 C878 0.950 . S
H871 C880 0.950 1_545 S
H872 C882 0.950 . S
H873 C884 0.950 . S
H874 C886 0.950 1_565 S
H875 C887 0.950 . S
C876 H868 0.950 . S
C876 C877 1.386 . S
C876 C878 1.391 . S
C877 C876 1.386 . S
C877 C881 1.393 . S
C878 H870 0.950 . S
C878 C876 1.391 . S
C878 C879 1.400 . S
C879 C878 1.400 . S
C879 C880 1.398 . S
C879 C885 1.491 1_565 S
C880 H871 0.950 1_565 S
C880 C879 1.398 . S
C880 C881 1.391 . S
C881 H869 0.950 . S
C881 C877 1.393 . S
C881 C880 1.391 . S
C882 H872 0.950 . S
C882 C883 1.386 . S
C882 C884 1.391 . S
C883 C882 1.386 . S
C883 C887 1.393 . S
C884 H873 0.950 . S
C884 C882 1.391 . S
C884 C885 1.400 . S
C885 C879 1.491 1_545 S
C885 C884 1.400 . S
C885 C886 1.398 . S
C886 H874 0.950 1_545 S
C886 C885 1.398 . S
C886 C887 1.391 . S
C887 H875 0.950 . S
C887 C883 1.393 . S
C887 C886 1.391 . S
H888 C896 0.950 . S
H889 C901 0.950 . S
H890 C898 0.950 . S
H891 C900 0.950 . S
H892 C902 0.950 . S
H893 C904 0.950 . S
H894 C906 0.950 . S
H895 C907 0.950 . S
C896 H888 0.950 . S
C896 C897 1.386 . S
C896 C898 1.391 . S
C897 C896 1.386 . S
C897 C901 1.393 1_556 S
C898 H890 0.950 . S
C898 C896 1.391 . S
C898 C899 1.411 . S
C899 C898 1.411 . S
C899 C900 1.389 1_556 S
C899 C905 1.490 1_556 S
C900 H891 0.950 . S
C900 C899 1.389 1_554 S
C900 C901 1.391 . S
C901 H889 0.950 . S
C901 C897 1.393 1_554 S
C901 C900 1.391 . S
C902 H892 0.950 . S
C902 C903 1.386 . S
C902 C904 1.391 . S
C903 C902 1.386 . S
C903 C907 1.393 1_554 S
C904 H893 0.950 . S
C904 C902 1.391 . S
C904 C905 1.412 . S
C905 C899 1.490 1_554 S
C905 C904 1.412 . S
C905 C906 1.387 1_554 S
C906 H894 0.950 . S
C906 C905 1.387 1_556 S
C906 C907 1.391 . S
C907 H895 0.950 . S
C907 C903 1.393 1_556 S
C907 C906 1.391 . S
H908 C916 0.950 . S
H909 C921 0.950 . S
H910 C918 0.950 . S
H911 C920 0.950 . S
H912 C922 0.950 . S
H913 C924 0.950 . S
H914 C926 0.950 . S
H915 C927 0.950 . S
C916 H908 0.950 . S
C916 C917 1.386 . S
C916 C918 1.391 . S
C917 C916 1.386 . S
C917 C921 1.393 . S
C918 H910 0.950 . S
C918 C916 1.391 . S
C918 C919 1.400 . S
C919 C918 1.400 . S
C919 C920 1.398 . S
C919 C925 1.491 . S
C920 H911 0.950 . S
C920 C919 1.398 . S
C920 C921 1.391 . S
C921 H909 0.950 . S
C921 C917 1.393 . S
C921 C920 1.391 . S
C922 H912 0.950 . S
C922 C923 1.386 . S
C922 C924 1.391 . S
C923 C922 1.386 . S
C923 C927 1.393 . S
C924 H913 0.950 . S
C924 C922 1.391 . S
C924 C925 1.400 . S
C925 C919 1.491 . S
C925 C924 1.400 . S
C925 C926 1.398 . S
C926 H914 0.950 . S
C926 C925 1.398 . S
C926 C927 1.391 . S
C927 H915 0.950 . S
C927 C923 1.393 . S
C927 C926 1.391 . S
H928 C936 0.950 . S
H929 C941 0.950 . S
H930 C938 0.950 . S
H931 C940 0.950 1_455 S
H932 C942 0.950 . S
H933 C944 0.950 . S
H934 C946 0.950 1_655 S
H935 C947 0.950 . S
C936 H928 0.950 . S
C936 C937 1.386 . S
C936 C938 1.391 . S
C937 C936 1.386 . S
C937 C941 1.393 . S
C938 H930 0.950 . S
C938 C936 1.391 . S
C938 C939 1.400 . S
C939 C938 1.400 . S
C939 C940 1.398 . S
C939 C945 1.491 1_655 S
C940 H931 0.950 1_655 S
C940 C939 1.398 . S
C940 C941 1.391 . S
C941 H929 0.950 . S
C941 C937 1.393 . S
C941 C940 1.391 . S
C942 H932 0.950 . S
C942 C943 1.386 . S
C942 C944 1.391 . S
C943 C942 1.386 . S
C943 C947 1.393 . S
C944 H933 0.950 . S
C944 C942 1.391 . S
C944 C945 1.400 . S
C945 C939 1.491 1_455 S
C945 C944 1.400 . S
C945 C946 1.398 . S
C946 H934 0.950 1_455 S
C946 C945 1.398 . S
C946 C947 1.391 . S
C947 H935 0.950 . S
C947 C943 1.393 . S
C947 C946 1.391 . S
H948 C956 0.950 . S
H949 C961 0.950 . S
H950 C958 0.950 . S
H951 C960 0.950 . S
H952 C962 0.950 . S
H953 C964 0.950 . S
H954 C966 0.950 . S
H955 C967 0.950 . S
C956 H948 0.950 . S
C956 C957 1.386 . S
C956 C958 1.391 . S
C957 C956 1.386 . S
C957 C961 1.393 . S
C958 H950 0.950 . S
C958 C956 1.391 . S
C958 C959 1.400 . S
C959 C958 1.400 . S
C959 C960 1.398 . S
C959 C965 1.491 . S
C960 H951 0.950 . S
C960 C959 1.398 . S
C960 C961 1.391 . S
C961 H949 0.950 . S
C961 C957 1.393 . S
C961 C960 1.391 . S
C962 H952 0.950 . S
C962 C963 1.386 . S
C962 C964 1.391 . S
C963 C962 1.386 . S
C963 C967 1.393 . S
C964 H953 0.950 . S
C964 C962 1.391 . S
C964 C965 1.400 . S
C965 C959 1.491 . S
C965 C964 1.400 . S
C965 C966 1.398 . S
C966 H954 0.950 . S
C966 C965 1.398 . S
C966 C967 1.391 . S
C967 H955 0.950 . S
C967 C963 1.393 . S
C967 C966 1.391 . S
H968 C976 0.950 . S
H969 C981 0.950 . S
H970 C978 0.950 . S
H971 C980 0.950 . S
H972 C982 0.950 . S
H973 C984 0.950 . S
H974 C986 0.950 . S
H975 C987 0.950 . S
C976 H968 0.950 . S
C976 C977 1.386 . S
C976 C978 1.391 . S
C977 C976 1.386 . S
C977 C981 1.393 . S
C978 H970 0.950 . S
C978 C976 1.391 . S
C978 C979 1.400 . S
C979 C978 1.400 . S
C979 C980 1.398 . S
C979 C985 1.491 . S
C980 H971 0.950 . S
C980 C979 1.398 . S
C980 C981 1.391 . S
C981 H969 0.950 . S
C981 C977 1.393 . S
C981 C980 1.391 . S
C982 H972 0.950 . S
C982 C983 1.386 . S
C982 C984 1.391 . S
C983 C982 1.386 . S
C983 C987 1.393 . S
C984 H973 0.950 . S
C984 C982 1.391 . S
C984 C985 1.400 . S
C985 C979 1.491 . S
C985 C984 1.400 . S
C985 C986 1.398 . S
C986 H974 0.950 . S
C986 C985 1.398 . S
C986 C987 1.391 . S
C987 H975 0.950 . S
C987 C983 1.393 . S
C987 C986 1.391 . S
H988 C996 0.950 . S
H989 C1001 0.950 . S
H990 C998 0.950 . S
H991 C1000 0.950 . S
H992 C1002 0.950 . S
H993 C1004 0.950 . S
H994 C1006 0.950 . S
H995 C1007 0.950 . S
C996 H988 0.950 . S
C996 C997 1.386 . S
C996 C998 1.391 . S
C997 C996 1.386 . S
C997 C1001 1.393 . S
C998 H990 0.950 . S
C998 C996 1.391 . S
C998 C999 1.400 . S
C999 C998 1.400 . S
C999 C1000 1.398 . S
C999 C1005 1.491 . S
C1000 H991 0.950 . S
C1000 C999 1.398 . S
C1000 C1001 1.391 . S
C1001 H989 0.950 . S
C1001 C997 1.393 . S
C1001 C1000 1.391 . S
C1002 H992 0.950 . S
C1002 C1003 1.386 . S
C1002 C1004 1.391 . S
C1003 C1002 1.386 . S
C1003 C1007 1.393 . S
C1004 H993 0.950 . S
C1004 C1002 1.391 . S
C1004 C1005 1.400 . S
C1005 C999 1.491 . S
C1005 C1004 1.400 . S
C1005 C1006 1.398 . S
C1006 H994 0.950 . S
C1006 C1005 1.398 . S
C1006 C1007 1.391 . S
C1007 H995 0.950 . S
C1007 C1003 1.393 . S
C1007 C1006 1.391 . S
H1008 C1016 0.950 . S
H1009 C1021 0.950 . S
H1010 C1018 0.950 . S
H1011 C1020 0.950 . S
H1012 C1022 0.950 . S
H1013 C1024 0.950 . S
H1014 C1026 0.950 . S
H1015 C1027 0.950 . S
C1016 H1008 0.950 . S
C1016 C1017 1.386 . S
C1016 C1018 1.391 . S
C1017 C1016 1.386 . S
C1017 C1021 1.393 . S
C1018 H1010 0.950 . S
C1018 C1016 1.391 . S
C1018 C1019 1.400 . S
C1019 C1018 1.400 . S
C1019 C1020 1.398 . S
C1019 C1025 1.491 . S
C1020 H1011 0.950 . S
C1020 C1019 1.398 . S
C1020 C1021 1.391 . S
C1021 H1009 0.950 . S
C1021 C1017 1.393 . S
C1021 C1020 1.391 . S
C1022 H1012 0.950 . S
C1022 C1023 1.386 . S
C1022 C1024 1.391 . S
C1023 C1022 1.386 . S
C1023 C1027 1.393 . S
C1024 H1013 0.950 . S
C1024 C1022 1.391 . S
C1024 C1025 1.400 . S
C1025 C1019 1.491 . S
C1025 C1024 1.400 . S
C1025 C1026 1.398 . S
C1026 H1014 0.950 . S
C1026 C1025 1.398 . S
C1026 C1027 1.391 . S
C1027 H1015 0.950 . S
C1027 C1023 1.393 . S
C1027 C1026 1.391 . S
H1028 C1036 0.950 . S
H1029 C1041 0.950 . S
H1030 C1038 0.950 1_565 S
H1031 C1040 0.950 . S
H1032 C1042 0.950 . S
H1033 C1044 0.950 1_545 S
H1034 C1046 0.950 . S
H1035 C1047 0.950 . S
C1036 H1028 0.950 . S
C1036 C1037 1.386 . S
C1036 C1038 1.391 . S
C1037 C1036 1.386 . S
C1037 C1041 1.393 . S
C1038 H1030 0.950 1_545 S
C1038 C1036 1.391 . S
C1038 C1039 1.400 . S
C1039 C1038 1.400 . S
C1039 C1040 1.398 . S
C1039 C1045 1.491 1_545 S
C1040 H1031 0.950 . S
C1040 C1039 1.398 . S
C1040 C1041 1.391 . S
C1041 H1029 0.950 . S
C1041 C1037 1.393 . S
C1041 C1040 1.391 . S
C1042 H1032 0.950 . S
C1042 C1043 1.386 . S
C1042 C1044 1.391 . S
C1043 C1042 1.386 . S
C1043 C1047 1.393 . S
C1044 H1033 0.950 1_565 S
C1044 C1042 1.391 . S
C1044 C1045 1.400 . S
C1045 C1039 1.491 1_565 S
C1045 C1044 1.400 . S
C1045 C1046 1.398 . S
C1046 H1034 0.950 . S
C1046 C1045 1.398 . S
C1046 C1047 1.391 . S
C1047 H1035 0.950 . S
C1047 C1043 1.393 . S
C1047 C1046 1.391 . S
H1048 C1056 0.950 . S
H1049 C1061 0.950 . S
H1050 C1058 0.950 . S
H1051 C1060 0.950 . S
H1052 C1062 0.950 . S
H1053 C1064 0.950 . S
H1054 C1066 0.950 . S
H1055 C1067 0.950 . S
C1056 H1048 0.950 . S
C1056 C1057 1.386 . S
C1056 C1058 1.391 . S
C1057 C1056 1.386 . S
C1057 C1061 1.393 . S
C1058 H1050 0.950 . S
C1058 C1056 1.391 . S
C1058 C1059 1.400 . S
C1059 C1058 1.400 . S
C1059 C1060 1.398 . S
C1059 C1065 1.491 . S
C1060 H1051 0.950 . S
C1060 C1059 1.398 . S
C1060 C1061 1.391 . S
C1061 H1049 0.950 . S
C1061 C1057 1.393 . S
C1061 C1060 1.391 . S
C1062 H1052 0.950 . S
C1062 C1063 1.386 . S
C1062 C1064 1.391 . S
C1063 C1062 1.386 . S
C1063 C1067 1.393 . S
C1064 H1053 0.950 . S
C1064 C1062 1.391 . S
C1064 C1065 1.400 . S
C1065 C1059 1.491 . S
C1065 C1064 1.400 . S
C1065 C1066 1.398 . S
C1066 H1054 0.950 . S
C1066 C1065 1.398 . S
C1066 C1067 1.391 . S
C1067 H1055 0.950 . S
C1067 C1063 1.393 . S
C1067 C1066 1.391 . S
H1068 C1076 0.950 . S
H1069 C1081 0.950 . S
H1070 C1078 0.950 . S
H1071 C1080 0.950 . S
H1072 C1082 0.950 . S
H1073 C1084 0.950 . S
H1074 C1086 0.950 . S
H1075 C1087 0.950 . S
C1076 H1068 0.950 . S
C1076 C1077 1.392 . S
C1076 C1078 1.391 . S
C1077 C1076 1.392 . S
C1077 C1081 1.387 1_556 S
C1078 H1070 0.950 . S
C1078 C1076 1.391 . S
C1078 C1079 1.401 1_556 S
C1079 C1078 1.401 1_554 S
C1079 C1080 1.397 . S
C1079 C1085 1.491 1_554 S
C1080 H1071 0.950 . S
C1080 C1079 1.397 . S
C1080 C1081 1.391 . S
C1081 H1069 0.950 . S
C1081 C1077 1.387 1_554 S
C1081 C1080 1.391 . S
C1082 H1072 0.950 . S
C1082 C1083 1.393 . S
C1082 C1084 1.391 . S
C1083 C1082 1.393 . S
C1083 C1087 1.385 1_554 S
C1084 H1073 0.950 . S
C1084 C1082 1.391 . S
C1084 C1085 1.403 1_554 S
C1085 C1079 1.491 1_556 S
C1085 C1084 1.403 1_556 S
C1085 C1086 1.396 . S
C1086 H1074 0.950 . S
C1086 C1085 1.396 . S
C1086 C1087 1.391 . S
C1087 H1075 0.950 . S
C1087 C1083 1.385 1_556 S
C1087 C1086 1.391 . S
H1088 C1096 0.950 . S
H1089 C1101 0.950 . S
H1090 C1098 0.950 . S
H1091 C1100 0.950 . S
H1092 C1102 0.950 . S
H1093 C1104 0.950 . S
H1094 C1106 0.950 . S
H1095 C1107 0.950 . S
C1096 H1088 0.950 . S
C1096 C1097 1.386 . S
C1096 C1098 1.391 . S
C1097 C1096 1.386 . S
C1097 C1101 1.393 . S
C1098 H1090 0.950 . S
C1098 C1096 1.391 . S
C1098 C1099 1.400 . S
C1099 C1098 1.400 . S
C1099 C1100 1.398 . S
C1099 C1105 1.491 . S
C1100 H1091 0.950 . S
C1100 C1099 1.398 . S
C1100 C1101 1.391 . S
C1101 H1089 0.950 . S
C1101 C1097 1.393 . S
C1101 C1100 1.391 . S
C1102 H1092 0.950 . S
C1102 C1103 1.386 . S
C1102 C1104 1.391 . S
C1103 C1102 1.386 . S
C1103 C1107 1.393 . S
C1104 H1093 0.950 . S
C1104 C1102 1.391 . S
C1104 C1105 1.400 . S
C1105 C1099 1.491 . S
C1105 C1104 1.400 . S
C1105 C1106 1.398 . S
C1106 H1094 0.950 . S
C1106 C1105 1.398 . S
C1106 C1107 1.391 . S
C1107 H1095 0.950 . S
C1107 C1103 1.393 . S
C1107 C1106 1.391 . S
H1108 C1116 0.950 . S
H1109 C1121 0.950 . S
H1110 C1118 0.950 . S
H1111 C1120 0.950 . S
H1112 C1122 0.950 . S
H1113 C1124 0.950 . S
H1114 C1126 0.950 . S
H1115 C1127 0.950 . S
C1116 H1108 0.950 . S
C1116 C1117 1.386 . S
C1116 C1118 1.391 . S
C1117 C1116 1.386 . S
C1117 C1121 1.393 . S
C1118 H1110 0.950 . S
C1118 C1116 1.391 . S
C1118 C1119 1.400 . S
C1119 C1118 1.400 . S
C1119 C1120 1.398 . S
C1119 C1125 1.491 . S
C1120 H1111 0.950 . S
C1120 C1119 1.398 . S
C1120 C1121 1.391 . S
C1121 H1109 0.950 . S
C1121 C1117 1.393 . S
C1121 C1120 1.391 . S
C1122 H1112 0.950 . S
C1122 C1123 1.386 . S
C1122 C1124 1.391 . S
C1123 C1122 1.386 . S
C1123 C1127 1.393 . S
C1124 H1113 0.950 . S
C1124 C1122 1.391 . S
C1124 C1125 1.400 . S
C1125 C1119 1.491 . S
C1125 C1124 1.400 . S
C1125 C1126 1.398 . S
C1126 H1114 0.950 . S
C1126 C1125 1.398 . S
C1126 C1127 1.391 . S
C1127 H1115 0.950 . S
C1127 C1123 1.393 . S
C1127 C1126 1.391 . S
H1128 C1136 0.950 . S
H1129 C1141 0.950 . S
H1130 C1138 0.950 . S
H1131 C1140 0.950 . S
H1132 C1142 0.950 . S
H1133 C1144 0.950 . S
H1134 C1146 0.950 . S
H1135 C1147 0.950 . S
C1136 H1128 0.950 . S
C1136 C1137 1.386 . S
C1136 C1138 1.391 . S
C1137 C1136 1.386 . S
C1137 C1141 1.393 . S
C1138 H1130 0.950 . S
C1138 C1136 1.391 . S
C1138 C1139 1.400 . S
C1139 C1138 1.400 . S
C1139 C1140 1.398 . S
C1139 C1145 1.491 . S
C1140 H1131 0.950 . S
C1140 C1139 1.398 . S
C1140 C1141 1.391 . S
C1141 H1129 0.950 . S
C1141 C1137 1.393 . S
C1141 C1140 1.391 . S
C1142 H1132 0.950 . S
C1142 C1143 1.386 . S
C1142 C1144 1.391 . S
C1143 C1142 1.386 . S
C1143 C1147 1.393 . S
C1144 H1133 0.950 . S
C1144 C1142 1.391 . S
C1144 C1145 1.400 . S
C1145 C1139 1.491 . S
C1145 C1144 1.400 . S
C1145 C1146 1.398 . S
C1146 H1134 0.950 . S
C1146 C1145 1.398 . S
C1146 C1147 1.391 . S
C1147 H1135 0.950 . S
C1147 C1143 1.393 . S
C1147 C1146 1.391 . S
H1148 C1156 0.950 . S
H1149 C1161 0.950 . S
H1150 C1158 0.950 . S
H1151 C1160 0.950 . S
H1152 C1162 0.950 . S
H1153 C1164 0.950 . S
H1154 C1166 0.950 . S
H1155 C1167 0.950 . S
C1156 H1148 0.950 . S
C1156 C1157 1.386 . S
C1156 C1158 1.391 . S
C1157 C1156 1.386 . S
C1157 C1161 1.393 . S
C1158 H1150 0.950 . S
C1158 C1156 1.391 . S
C1158 C1159 1.400 . S
C1159 C1158 1.400 . S
C1159 C1160 1.398 . S
C1159 C1165 1.491 . S
C1160 H1151 0.950 . S
C1160 C1159 1.398 . S
C1160 C1161 1.391 . S
C1161 H1149 0.950 . S
C1161 C1157 1.393 . S
C1161 C1160 1.391 . S
C1162 H1152 0.950 . S
C1162 C1163 1.386 . S
C1162 C1164 1.391 . S
C1163 C1162 1.386 . S
C1163 C1167 1.393 . S
C1164 H1153 0.950 . S
C1164 C1162 1.391 . S
C1164 C1165 1.400 . S
C1165 C1159 1.491 . S
C1165 C1164 1.400 . S
C1165 C1166 1.398 . S
C1166 H1154 0.950 . S
C1166 C1165 1.398 . S
C1166 C1167 1.391 . S
C1167 H1155 0.950 . S
C1167 C1163 1.393 . S
C1167 C1166 1.391 . S
H1168 C1176 0.950 . S
H1169 C1181 0.950 . S
H1170 C1178 0.950 . S
H1171 C1180 0.950 . S
H1172 C1182 0.950 . S
H1173 C1184 0.950 . S
H1174 C1186 0.950 . S
H1175 C1187 0.950 . S
C1176 H1168 0.950 . S
C1176 C1177 1.386 . S
C1176 C1178 1.391 . S
C1177 C1176 1.386 . S
C1177 C1181 1.393 . S
C1178 H1170 0.950 . S
C1178 C1176 1.391 . S
C1178 C1179 1.400 . S
C1179 C1178 1.400 . S
C1179 C1180 1.398 . S
C1179 C1185 1.491 . S
C1180 H1171 0.950 . S
C1180 C1179 1.398 . S
C1180 C1181 1.391 . S
C1181 H1169 0.950 . S
C1181 C1177 1.393 . S
C1181 C1180 1.391 . S
C1182 H1172 0.950 . S
C1182 C1183 1.386 . S
C1182 C1184 1.391 . S
C1183 C1182 1.386 . S
C1183 C1187 1.393 . S
C1184 H1173 0.950 . S
C1184 C1182 1.391 . S
C1184 C1185 1.400 . S
C1185 C1179 1.491 . S
C1185 C1184 1.400 . S
C1185 C1186 1.398 . S
C1186 H1174 0.950 . S
C1186 C1185 1.398 . S
C1186 C1187 1.391 . S
C1187 H1175 0.950 . S
C1187 C1183 1.393 . S
C1187 C1186 1.391 . S
H1188 C1196 0.950 . S
H1189 C1201 0.950 . S
H1190 C1198 0.950 . S
H1191 C1200 0.950 . S
H1192 C1202 0.950 . S
H1193 C1204 0.950 . S
H1194 C1206 0.950 . S
H1195 C1207 0.950 . S
C1196 H1188 0.950 . S
C1196 C1197 1.386 . S
C1196 C1198 1.391 . S
C1197 C1196 1.386 . S
C1197 C1201 1.393 . S
C1198 H1190 0.950 . S
C1198 C1196 1.391 . S
C1198 C1199 1.400 . S
C1199 C1198 1.400 . S
C1199 C1200 1.398 . S
C1199 C1205 1.491 . S
C1200 H1191 0.950 . S
C1200 C1199 1.398 . S
C1200 C1201 1.391 . S
C1201 H1189 0.950 . S
C1201 C1197 1.393 . S
C1201 C1200 1.391 . S
C1202 H1192 0.950 . S
C1202 C1203 1.386 . S
C1202 C1204 1.391 . S
C1203 C1202 1.386 . S
C1203 C1207 1.393 . S
C1204 H1193 0.950 . S
C1204 C1202 1.391 . S
C1204 C1205 1.400 . S
C1205 C1199 1.491 . S
C1205 C1204 1.400 . S
C1205 C1206 1.398 . S
C1206 H1194 0.950 . S
C1206 C1205 1.398 . S
C1206 C1207 1.391 . S
C1207 H1195 0.950 . S
C1207 C1203 1.393 . S
C1207 C1206 1.391 . S
H1208 C1216 0.950 . S
H1209 C1221 0.950 . S
H1210 C1218 0.950 . S
H1211 C1220 0.950 . S
H1212 C1222 0.950 . S
H1213 C1224 0.950 . S
H1214 C1226 0.950 . S
H1215 C1227 0.950 . S
C1216 H1208 0.950 . S
C1216 C1217 1.386 . S
C1216 C1218 1.391 . S
C1217 C1216 1.386 . S
C1217 C1221 1.393 . S
C1218 H1210 0.950 . S
C1218 C1216 1.391 . S
C1218 C1219 1.400 . S
C1219 C1218 1.400 . S
C1219 C1220 1.398 . S
C1219 C1225 1.491 . S
C1220 H1211 0.950 . S
C1220 C1219 1.398 . S
C1220 C1221 1.391 . S
C1221 H1209 0.950 . S
C1221 C1217 1.393 . S
C1221 C1220 1.391 . S
C1222 H1212 0.950 . S
C1222 C1223 1.386 . S
C1222 C1224 1.391 . S
C1223 C1222 1.386 . S
C1223 C1227 1.393 . S
C1224 H1213 0.950 . S
C1224 C1222 1.391 . S
C1224 C1225 1.400 . S
C1225 C1219 1.491 . S
C1225 C1224 1.400 . S
C1225 C1226 1.398 . S
C1226 H1214 0.950 . S
C1226 C1225 1.398 . S
C1226 C1227 1.391 . S
C1227 H1215 0.950 . S
C1227 C1223 1.393 . S
C1227 C1226 1.391 . S
H1228 C1236 0.950 . S
H1229 C1241 0.950 . S
H1230 C1238 0.950 . S
H1231 C1240 0.950 . S
H1232 C1242 0.950 . S
H1233 C1244 0.950 . S
H1234 C1246 0.950 . S
H1235 C1247 0.950 . S
C1236 H1228 0.950 . S
C1236 C1237 1.386 . S
C1236 C1238 1.391 . S
C1237 C1236 1.386 . S
C1237 C1241 1.393 . S
C1238 H1230 0.950 . S
C1238 C1236 1.391 . S
C1238 C1239 1.400 . S
C1239 C1238 1.400 . S
C1239 C1240 1.398 . S
C1239 C1245 1.491 . S
C1240 H1231 0.950 . S
C1240 C1239 1.398 . S
C1240 C1241 1.391 . S
C1241 H1229 0.950 . S
C1241 C1237 1.393 . S
C1241 C1240 1.391 . S
C1242 H1232 0.950 . S
C1242 C1243 1.386 . S
C1242 C1244 1.391 . S
C1243 C1242 1.386 . S
C1243 C1247 1.393 . S
C1244 H1233 0.950 . S
C1244 C1242 1.391 . S
C1244 C1245 1.400 . S
C1245 C1239 1.491 . S
C1245 C1244 1.400 . S
C1245 C1246 1.398 . S
C1246 H1234 0.950 . S
C1246 C1245 1.398 . S
C1246 C1247 1.391 . S
C1247 H1235 0.950 . S
C1247 C1243 1.393 . S
C1247 C1246 1.391 . S
H1248 C1256 0.950 . S
H1249 C1261 0.950 . S
H1250 C1258 0.950 . S
H1251 C1260 0.950 . S
H1252 C1262 0.950 . S
H1253 C1264 0.950 . S
H1254 C1266 0.950 . S
H1255 C1267 0.950 . S
C1256 H1248 0.950 . S
C1256 C1257 1.386 . S
C1256 C1258 1.391 . S
C1257 C1256 1.386 . S
C1257 C1261 1.393 . S
C1258 H1250 0.950 . S
C1258 C1256 1.391 . S
C1258 C1259 1.400 . S
C1259 C1258 1.400 . S
C1259 C1260 1.398 . S
C1259 C1265 1.491 . S
C1260 H1251 0.950 . S
C1260 C1259 1.398 . S
C1260 C1261 1.391 . S
C1261 H1249 0.950 . S
C1261 C1257 1.393 . S
C1261 C1260 1.391 . S
C1262 H1252 0.950 . S
C1262 C1263 1.386 . S
C1262 C1264 1.391 . S
C1263 C1262 1.386 . S
C1263 C1267 1.393 . S
C1264 H1253 0.950 . S
C1264 C1262 1.391 . S
C1264 C1265 1.400 . S
C1265 C1259 1.491 . S
C1265 C1264 1.400 . S
C1265 C1266 1.398 . S
C1266 H1254 0.950 . S
C1266 C1265 1.398 . S
C1266 C1267 1.391 . S
C1267 H1255 0.950 . S
C1267 C1263 1.393 . S
C1267 C1266 1.391 . S
H1268 C1276 0.950 . S
H1269 C1281 0.950 . S
H1270 C1278 0.950 . S
H1271 C1280 0.950 . S
H1272 C1282 0.950 . S
H1273 C1284 0.950 . S
H1274 C1286 0.950 . S
H1275 C1287 0.950 . S
C1276 H1268 0.950 . S
C1276 C1277 1.386 . S
C1276 C1278 1.391 . S
C1277 C1276 1.386 . S
C1277 C1281 1.393 . S
C1278 H1270 0.950 . S
C1278 C1276 1.391 . S
C1278 C1279 1.400 . S
C1279 C1278 1.400 . S
C1279 C1280 1.398 . S
C1279 C1285 1.491 . S
C1280 H1271 0.950 . S
C1280 C1279 1.398 . S
C1280 C1281 1.391 . S
C1281 H1269 0.950 . S
C1281 C1277 1.393 . S
C1281 C1280 1.391 . S
C1282 H1272 0.950 . S
C1282 C1283 1.386 . S
C1282 C1284 1.391 . S
C1283 C1282 1.386 . S
C1283 C1287 1.393 . S
C1284 H1273 0.950 . S
C1284 C1282 1.391 . S
C1284 C1285 1.400 . S
C1285 C1279 1.491 . S
C1285 C1284 1.400 . S
C1285 C1286 1.398 . S
C1286 H1274 0.950 . S
C1286 C1285 1.398 . S
C1286 C1287 1.391 . S
C1287 H1275 0.950 . S
C1287 C1283 1.393 . S
C1287 C1286 1.391 . S
H1288 C1296 0.950 . S
H1289 C1301 0.950 . S
H1290 C1298 0.950 . S
H1291 C1300 0.950 . S
H1292 C1302 0.950 . S
H1293 C1304 0.950 . S
H1294 C1306 0.950 . S
H1295 C1307 0.950 . S
C1296 H1288 0.950 . S
C1296 C1297 1.386 . S
C1296 C1298 1.391 . S
C1297 C1296 1.386 . S
C1297 C1301 1.393 . S
C1298 H1290 0.950 . S
C1298 C1296 1.391 . S
C1298 C1299 1.400 . S
C1299 C1298 1.400 . S
C1299 C1300 1.398 . S
C1299 C1305 1.491 . S
C1300 H1291 0.950 . S
C1300 C1299 1.398 . S
C1300 C1301 1.391 . S
C1301 H1289 0.950 . S
C1301 C1297 1.393 . S
C1301 C1300 1.391 . S
C1302 H1292 0.950 . S
C1302 C1303 1.386 . S
C1302 C1304 1.391 . S
C1303 C1302 1.386 . S
C1303 C1307 1.393 . S
C1304 H1293 0.950 . S
C1304 C1302 1.391 . S
C1304 C1305 1.400 . S
C1305 C1299 1.491 . S
C1305 C1304 1.400 . S
C1305 C1306 1.398 . S
C1306 H1294 0.950 . S
C1306 C1305 1.398 . S
C1306 C1307 1.391 . S
C1307 H1295 0.950 . S
C1307 C1303 1.393 . S
C1307 C1306 1.391 . S
H1308 C1316 0.950 . S
H1309 C1321 0.950 . S
H1310 C1318 0.950 . S
H1311 C1320 0.950 . S
H1312 C1322 0.950 . S
H1313 C1324 0.950 . S
H1314 C1326 0.950 . S
H1315 C1327 0.950 . S
C1316 H1308 0.950 . S
C1316 C1317 1.386 . S
C1316 C1318 1.391 . S
C1317 C1316 1.386 . S
C1317 C1321 1.393 . S
C1318 H1310 0.950 . S
C1318 C1316 1.391 . S
C1318 C1319 1.400 . S
C1319 C1318 1.400 . S
C1319 C1320 1.398 . S
C1319 C1325 1.491 . S
C1320 H1311 0.950 . S
C1320 C1319 1.398 . S
C1320 C1321 1.391 . S
C1321 H1309 0.950 . S
C1321 C1317 1.393 . S
C1321 C1320 1.391 . S
C1322 H1312 0.950 . S
C1322 C1323 1.386 . S
C1322 C1324 1.391 . S
C1323 C1322 1.386 . S
C1323 C1327 1.393 . S
C1324 H1313 0.950 . S
C1324 C1322 1.391 . S
C1324 C1325 1.400 . S
C1325 C1319 1.491 . S
C1325 C1324 1.400 . S
C1325 C1326 1.398 . S
C1326 H1314 0.950 . S
C1326 C1325 1.398 . S
C1326 C1327 1.391 . S
C1327 H1315 0.950 . S
C1327 C1323 1.393 . S
C1327 C1326 1.391 . S
H1328 C1336 0.950 . S
H1329 C1341 0.950 . S
H1330 C1338 0.950 . S
H1331 C1340 0.950 . S
H1332 C1342 0.950 . S
H1333 C1344 0.950 . S
H1334 C1346 0.950 . S
H1335 C1347 0.950 . S
C1336 H1328 0.950 . S
C1336 C1337 1.386 . S
C1336 C1338 1.391 . S
C1337 C1336 1.386 . S
C1337 C1341 1.393 . S
C1338 H1330 0.950 . S
C1338 C1336 1.391 . S
C1338 C1339 1.400 . S
C1339 C1338 1.400 . S
C1339 C1340 1.398 . S
C1339 C1345 1.491 . S
C1340 H1331 0.950 . S
C1340 C1339 1.398 . S
C1340 C1341 1.391 . S
C1341 H1329 0.950 . S
C1341 C1337 1.393 . S
C1341 C1340 1.391 . S
C1342 H1332 0.950 . S
C1342 C1343 1.386 . S
C1342 C1344 1.391 . S
C1343 C1342 1.386 . S
C1343 C1347 1.393 . S
C1344 H1333 0.950 . S
C1344 C1342 1.391 . S
C1344 C1345 1.400 . S
C1345 C1339 1.491 . S
C1345 C1344 1.400 . S
C1345 C1346 1.398 . S
C1346 H1334 0.950 . S
C1346 C1345 1.398 . S
C1346 C1347 1.391 . S
C1347 H1335 0.950 . S
C1347 C1343 1.393 . S
C1347 C1346 1.391 . S
H1348 C1356 0.950 . S
H1349 C1361 0.950 . S
H1350 C1358 0.950 . S
H1351 C1360 0.950 . S
H1352 C1362 0.950 . S
H1353 C1364 0.950 . S
H1354 C1366 0.950 . S
H1355 C1367 0.950 . S
C1356 H1348 0.950 . S
C1356 C1357 1.386 . S
C1356 C1358 1.391 . S
C1357 C1356 1.386 . S
C1357 C1361 1.393 . S
C1358 H1350 0.950 . S
C1358 C1356 1.391 . S
C1358 C1359 1.400 . S
C1359 C1358 1.400 . S
C1359 C1360 1.398 . S
C1359 C1365 1.491 . S
C1360 H1351 0.950 . S
C1360 C1359 1.398 . S
C1360 C1361 1.391 . S
C1361 H1349 0.950 . S
C1361 C1357 1.393 . S
C1361 C1360 1.391 . S
C1362 H1352 0.950 . S
C1362 C1363 1.386 . S
C1362 C1364 1.391 . S
C1363 C1362 1.386 . S
C1363 C1367 1.393 . S
C1364 H1353 0.950 . S
C1364 C1362 1.391 . S
C1364 C1365 1.400 . S
C1365 C1359 1.491 . S
C1365 C1364 1.400 . S
C1365 C1366 1.398 . S
C1366 H1354 0.950 . S
C1366 C1365 1.398 . S
C1366 C1367 1.391 . S
C1367 H1355 0.950 . S
C1367 C1363 1.393 . S
C1367 C1366 1.391 . S
H1368 C1376 0.950 . S
H1369 C1381 0.950 . S
H1370 C1378 0.950 . S
H1371 C1380 0.950 . S
H1372 C1382 0.950 . S
H1373 C1384 0.950 . S
H1374 C1386 0.950 . S
H1375 C1387 0.950 . S
C1376 H1368 0.950 . S
C1376 C1377 1.386 . S
C1376 C1378 1.391 . S
C1377 C1376 1.386 . S
C1377 C1381 1.393 . S
C1378 H1370 0.950 . S
C1378 C1376 1.391 . S
C1378 C1379 1.400 . S
C1379 C1378 1.400 . S
C1379 C1380 1.398 . S
C1379 C1385 1.491 . S
C1380 H1371 0.950 . S
C1380 C1379 1.398 . S
C1380 C1381 1.391 . S
C1381 H1369 0.950 . S
C1381 C1377 1.393 . S
C1381 C1380 1.391 . S
C1382 H1372 0.950 . S
C1382 C1383 1.386 . S
C1382 C1384 1.391 . S
C1383 C1382 1.386 . S
C1383 C1387 1.393 . S
C1384 H1373 0.950 . S
C1384 C1382 1.391 . S
C1384 C1385 1.400 . S
C1385 C1379 1.491 . S
C1385 C1384 1.400 . S
C1385 C1386 1.398 . S
C1386 H1374 0.950 . S
C1386 C1385 1.398 . S
C1386 C1387 1.391 . S
C1387 H1375 0.950 . S
C1387 C1383 1.393 . S
C1387 C1386 1.391 . S
H1388 C1396 0.950 . S
H1389 C1401 0.950 . S
H1390 C1398 0.950 . S
H1391 C1400 0.950 . S
H1392 C1402 0.950 . S
H1393 C1404 0.950 . S
H1394 C1406 0.950 . S
H1395 C1407 0.950 . S
C1396 H1388 0.950 . S
C1396 C1397 1.386 . S
C1396 C1398 1.391 . S
C1397 C1396 1.386 . S
C1397 C1401 1.393 . S
C1398 H1390 0.950 . S
C1398 C1396 1.391 . S
C1398 C1399 1.400 . S
C1399 C1398 1.400 . S
C1399 C1400 1.398 . S
C1399 C1405 1.491 . S
C1400 H1391 0.950 . S
C1400 C1399 1.398 . S
C1400 C1401 1.391 . S
C1401 H1389 0.950 . S
C1401 C1397 1.393 . S
C1401 C1400 1.391 . S
C1402 H1392 0.950 . S
C1402 C1403 1.386 . S
C1402 C1404 1.391 . S
C1403 C1402 1.386 . S
C1403 C1407 1.393 . S
C1404 H1393 0.950 . S
C1404 C1402 1.391 . S
C1404 C1405 1.400 . S
C1405 C1399 1.491 . S
C1405 C1404 1.400 . S
C1405 C1406 1.398 . S
C1406 H1394 0.950 . S
C1406 C1405 1.398 . S
C1406 C1407 1.391 . S
C1407 H1395 0.950 . S
C1407 C1403 1.393 . S
C1407 C1406 1.391 . S
H1408 C1416 0.950 . S
H1409 C1421 0.950 . S
H1410 C1418 0.950 . S
H1411 C1420 0.950 . S
H1412 C1422 0.950 . S
H1413 C1424 0.950 . S
H1414 C1426 0.950 . S
H1415 C1427 0.950 . S
C1416 H1408 0.950 . S
C1416 C1417 1.386 . S
C1416 C1418 1.391 . S
C1417 C1416 1.386 . S
C1417 C1421 1.393 . S
C1418 H1410 0.950 . S
C1418 C1416 1.391 . S
C1418 C1419 1.400 . S
C1419 C1418 1.400 . S
C1419 C1420 1.398 . S
C1419 C1425 1.491 . S
C1420 H1411 0.950 . S
C1420 C1419 1.398 . S
C1420 C1421 1.391 . S
C1421 H1409 0.950 . S
C1421 C1417 1.393 . S
C1421 C1420 1.391 . S
C1422 H1412 0.950 . S
C1422 C1423 1.386 . S
C1422 C1424 1.391 . S
C1423 C1422 1.386 . S
C1423 C1427 1.393 . S
C1424 H1413 0.950 . S
C1424 C1422 1.391 . S
C1424 C1425 1.400 . S
C1425 C1419 1.491 . S
C1425 C1424 1.400 . S
C1425 C1426 1.398 . S
C1426 H1414 0.950 . S
C1426 C1425 1.398 . S
C1426 C1427 1.391 . S
C1427 H1415 0.950 . S
C1427 C1423 1.393 . S
C1427 C1426 1.391 . S
H1428 C1436 0.950 . S
H1429 C1441 0.950 . S
H1430 C1438 0.950 . S
H1431 C1440 0.950 . S
H1432 C1442 0.950 . S
H1433 C1444 0.950 . S
H1434 C1446 0.950 . S
H1435 C1447 0.950 . S
C1436 H1428 0.950 . S
C1436 C1437 1.386 . S
C1436 C1438 1.391 . S
C1437 C1436 1.386 . S
C1437 C1441 1.393 . S
C1438 H1430 0.950 . S
C1438 C1436 1.391 . S
C1438 C1439 1.400 . S
C1439 C1438 1.400 . S
C1439 C1440 1.398 . S
C1439 C1445 1.491 . S
C1440 H1431 0.950 . S
C1440 C1439 1.398 . S
C1440 C1441 1.391 . S
C1441 H1429 0.950 . S
C1441 C1437 1.393 . S
C1441 C1440 1.391 . S
C1442 H1432 0.950 . S
C1442 C1443 1.386 . S
C1442 C1444 1.391 . S
C1443 C1442 1.386 . S
C1443 C1447 1.393 . S
C1444 H1433 0.950 . S
C1444 C1442 1.391 . S
C1444 C1445 1.400 . S
C1445 C1439 1.491 . S
C1445 C1444 1.400 . S
C1445 C1446 1.398 . S
C1446 H1434 0.950 . S
C1446 C1445 1.398 . S
C1446 C1447 1.391 . S
C1447 H1435 0.950 . S
C1447 C1443 1.393 . S
C1447 C1446 1.391 . S
H1448 C1456 0.950 . S
H1449 C1461 0.950 . S
H1450 C1458 0.950 . S
H1451 C1460 0.950 . S
H1452 C1462 0.950 . S
H1453 C1464 0.950 . S
H1454 C1466 0.950 . S
H1455 C1467 0.950 . S
C1456 H1448 0.950 . S
C1456 C1457 1.412 . S
C1456 C1458 1.391 . S
C1457 C1456 1.412 . S
C1457 C1461 1.368 1_554 S
C1458 H1450 0.950 . S
C1458 C1456 1.391 . S
C1458 C1459 1.417 . S
C1459 C1458 1.417 . S
C1459 C1460 1.382 1_554 S
C1459 C1465 1.490 . S
C1460 H1451 0.950 . S
C1460 C1459 1.382 1_556 S
C1460 C1461 1.391 . S
C1461 H1449 0.950 . S
C1461 C1457 1.368 1_556 S
C1461 C1460 1.391 . S
C1462 H1452 0.950 . S
C1462 C1463 1.390 . S
C1462 C1464 1.391 . S
C1463 C1462 1.390 . S
C1463 C1467 1.389 1_556 S
C1464 H1453 0.950 . S
C1464 C1462 1.391 . S
C1464 C1465 1.403 1_556 S
C1465 C1459 1.490 . S
C1465 C1464 1.403 1_554 S
C1465 C1466 1.396 . S
C1466 H1454 0.950 . S
C1466 C1465 1.396 . S
C1466 C1467 1.391 . S
C1467 H1455 0.950 . S
C1467 C1463 1.389 1_554 S
C1467 C1466 1.391 . S
H1468 C1476 0.950 . S
H1469 C1481 0.950 . S
H1470 C1478 0.950 . S
H1471 C1480 0.950 . S
H1472 C1482 0.950 . S
H1473 C1484 0.950 . S
H1474 C1486 0.950 . S
H1475 C1487 0.950 . S
C1476 H1468 0.950 . S
C1476 C1477 1.392 . S
C1476 C1478 1.391 . S
C1477 C1476 1.392 . S
C1477 C1481 1.387 1_556 S
C1478 H1470 0.950 . S
C1478 C1476 1.391 . S
C1478 C1479 1.398 . S
C1479 C1478 1.398 . S
C1479 C1480 1.400 1_556 S
C1479 C1485 1.490 1_556 S
C1480 H1471 0.950 . S
C1480 C1479 1.400 1_554 S
C1480 C1481 1.391 . S
C1481 H1469 0.950 . S
C1481 C1477 1.387 1_554 S
C1481 C1480 1.391 . S
C1482 H1472 0.950 . S
C1482 C1483 1.410 . S
C1482 C1484 1.391 . S
C1483 C1482 1.410 . S
C1483 C1487 1.370 1_554 S
C1484 H1473 0.950 . S
C1484 C1482 1.391 . S
C1484 C1485 1.416 . S
C1485 C1479 1.490 1_554 S
C1485 C1484 1.416 . S
C1485 C1486 1.384 1_554 S
C1486 H1474 0.950 . S
C1486 C1485 1.384 1_556 S
C1486 C1487 1.391 . S
C1487 H1475 0.950 . S
C1487 C1483 1.370 1_556 S
C1487 C1486 1.391 . S
H1488 C1496 0.950 . S
H1489 C1501 0.950 . S
H1490 C1498 0.950 . S
H1491 C1500 0.950 . S
H1492 C1502 0.950 . S
H1493 C1504 0.950 . S
H1494 C1506 0.950 . S
H1495 C1507 0.950 . S
C1496 H1488 0.950 . S
C1496 C1497 1.386 . S
C1496 C1498 1.391 . S
C1497 C1496 1.386 . S
C1497 C1501 1.393 . S
C1498 H1490 0.950 . S
C1498 C1496 1.391 . S
C1498 C1499 1.400 . S
C1499 C1498 1.400 . S
C1499 C1500 1.398 . S
C1499 C1505 1.491 . S
C1500 H1491 0.950 . S
C1500 C1499 1.398 . S
C1500 C1501 1.391 . S
C1501 H1489 0.950 . S
C1501 C1497 1.393 . S
C1501 C1500 1.391 . S
C1502 H1492 0.950 . S
C1502 C1503 1.386 . S
C1502 C1504 1.391 . S
C1503 C1502 1.386 . S
C1503 C1507 1.393 . S
C1504 H1493 0.950 . S
C1504 C1502 1.391 . S
C1504 C1505 1.400 . S
C1505 C1499 1.491 . S
C1505 C1504 1.400 . S
C1505 C1506 1.398 . S
C1506 H1494 0.950 . S
C1506 C1505 1.398 . S
C1506 C1507 1.391 . S
C1507 H1495 0.950 . S
C1507 C1503 1.393 . S
C1507 C1506 1.391 . S
H1508 C1516 0.950 . S
H1509 C1521 0.950 . S
H1510 C1518 0.950 . S
H1511 C1520 0.950 . S
H1512 C1522 0.950 . S
H1513 C1524 0.950 . S
H1514 C1526 0.950 . S
H1515 C1527 0.950 . S
C1516 H1508 0.950 . S
C1516 C1517 1.386 . S
C1516 C1518 1.391 . S
C1517 C1516 1.386 . S
C1517 C1521 1.393 . S
C1518 H1510 0.950 . S
C1518 C1516 1.391 . S
C1518 C1519 1.400 . S
C1519 C1518 1.400 . S
C1519 C1520 1.398 . S
C1519 C1525 1.491 . S
C1520 H1511 0.950 . S
C1520 C1519 1.398 . S
C1520 C1521 1.391 . S
C1521 H1509 0.950 . S
C1521 C1517 1.393 . S
C1521 C1520 1.391 . S
C1522 H1512 0.950 . S
C1522 C1523 1.386 . S
C1522 C1524 1.391 . S
C1523 C1522 1.386 . S
C1523 C1527 1.393 . S
C1524 H1513 0.950 . S
C1524 C1522 1.391 . S
C1524 C1525 1.400 . S
C1525 C1519 1.491 . S
C1525 C1524 1.400 . S
C1525 C1526 1.398 . S
C1526 H1514 0.950 . S
C1526 C1525 1.398 . S
C1526 C1527 1.391 . S
C1527 H1515 0.950 . S
C1527 C1523 1.393 . S
C1527 C1526 1.391 . S
H1528 C1536 0.950 . S
H1529 C1541 0.950 . S
H1530 C1538 0.950 . S
H1531 C1540 0.950 . S
H1532 C1542 0.950 . S
H1533 C1544 0.950 . S
H1534 C1546 0.950 . S
H1535 C1547 0.950 . S
C1536 H1528 0.950 . S
C1536 C1537 1.386 1_554 S
C1536 C1538 1.391 . S
C1537 C1536 1.386 1_556 S
C1537 C1541 1.393 . S
C1538 H1530 0.950 . S
C1538 C1536 1.391 . S
C1538 C1539 1.389 1_554 S
C1539 C1538 1.389 1_556 S
C1539 C1540 1.412 . S
C1539 C1545 1.490 1_556 S
C1540 H1531 0.950 . S
C1540 C1539 1.412 . S
C1540 C1541 1.391 . S
C1541 H1529 0.950 . S
C1541 C1537 1.393 . S
C1541 C1540 1.391 . S
C1542 H1532 0.950 . S
C1542 C1543 1.377 1_556 S
C1542 C1544 1.391 . S
C1543 C1542 1.377 1_554 S
C1543 C1547 1.402 . S
C1544 H1533 0.950 . S
C1544 C1542 1.391 . S
C1544 C1545 1.399 1_556 S
C1545 C1539 1.490 1_554 S
C1545 C1544 1.399 1_554 S
C1545 C1546 1.399 . S
C1546 H1534 0.950 . S
C1546 C1545 1.399 . S
C1546 C1547 1.391 . S
C1547 H1535 0.950 . S
C1547 C1543 1.402 . S
C1547 C1546 1.391 . S
H1548 C1556 0.950 . S
H1549 C1561 0.950 . S
H1550 C1558 0.950 . S
H1551 C1560 0.950 . S
H1552 C1562 0.950 . S
H1553 C1564 0.950 . S
H1554 C1566 0.950 . S
H1555 C1567 0.950 . S
C1556 H1548 0.950 . S
C1556 C1557 1.386 1_554 S
C1556 C1558 1.391 . S
C1557 C1556 1.386 1_556 S
C1557 C1561 1.393 . S
C1558 H1550 0.950 . S
C1558 C1556 1.391 . S
C1558 C1559 1.395 1_554 S
C1559 C1558 1.395 1_556 S
C1559 C1560 1.405 . S
C1559 C1565 1.490 1_556 S
C1560 H1551 0.950 . S
C1560 C1559 1.405 . S
C1560 C1561 1.391 . S
C1561 H1549 0.950 . S
C1561 C1557 1.393 . S
C1561 C1560 1.391 . S
C1562 H1552 0.950 . S
C1562 C1563 1.382 1_556 S
C1562 C1564 1.391 . S
C1563 C1562 1.382 1_554 S
C1563 C1567 1.398 . S
C1564 H1553 0.950 . S
C1564 C1562 1.391 . S
C1564 C1565 1.400 1_556 S
C1565 C1559 1.490 1_554 S
C1565 C1564 1.400 1_554 S
C1565 C1566 1.399 . S
C1566 H1554 0.950 . S
C1566 C1565 1.399 . S
C1566 C1567 1.391 . S
C1567 H1555 0.950 . S
C1567 C1563 1.398 . S
C1567 C1566 1.391 . S
H1568 C1576 0.950 . S
H1569 C1581 0.950 . S
H1570 C1578 0.950 . S
H1571 C1580 0.950 . S
H1572 C1582 0.950 . S
H1573 C1584 0.950 . S
H1574 C1586 0.950 . S
H1575 C1587 0.950 . S
C1576 H1568 0.950 . S
C1576 C1577 1.386 . S
C1576 C1578 1.391 . S
C1577 C1576 1.386 . S
C1577 C1581 1.393 . S
C1578 H1570 0.950 . S
C1578 C1576 1.391 . S
C1578 C1579 1.400 . S
C1579 C1578 1.400 . S
C1579 C1580 1.398 . S
C1579 C1585 1.491 . S
C1580 H1571 0.950 . S
C1580 C1579 1.398 . S
C1580 C1581 1.391 . S
C1581 H1569 0.950 . S
C1581 C1577 1.393 . S
C1581 C1580 1.391 . S
C1582 H1572 0.950 . S
C1582 C1583 1.386 . S
C1582 C1584 1.391 . S
C1583 C1582 1.386 . S
C1583 C1587 1.393 . S
C1584 H1573 0.950 . S
C1584 C1582 1.391 . S
C1584 C1585 1.400 . S
C1585 C1579 1.491 . S
C1585 C1584 1.400 . S
C1585 C1586 1.398 . S
C1586 H1574 0.950 . S
C1586 C1585 1.398 . S
C1586 C1587 1.391 . S
C1587 H1575 0.950 . S
C1587 C1583 1.393 . S
C1587 C1586 1.391 . S
H1588 C1596 0.950 . S
H1589 C1601 0.950 . S
H1590 C1598 0.950 . S
H1591 C1600 0.950 . S
H1592 C1602 0.950 . S
H1593 C1604 0.950 . S
H1594 C1606 0.950 . S
H1595 C1607 0.950 . S
C1596 H1588 0.950 . S
C1596 C1597 1.386 . S
C1596 C1598 1.391 . S
C1597 C1596 1.386 . S
C1597 C1601 1.393 . S
C1598 H1590 0.950 . S
C1598 C1596 1.391 . S
C1598 C1599 1.400 . S
C1599 C1598 1.400 . S
C1599 C1600 1.398 . S
C1599 C1605 1.491 . S
C1600 H1591 0.950 . S
C1600 C1599 1.398 . S
C1600 C1601 1.391 . S
C1601 H1589 0.950 . S
C1601 C1597 1.393 . S
C1601 C1600 1.391 . S
C1602 H1592 0.950 . S
C1602 C1603 1.386 . S
C1602 C1604 1.391 . S
C1603 C1602 1.386 . S
C1603 C1607 1.393 . S
C1604 H1593 0.950 . S
C1604 C1602 1.391 . S
C1604 C1605 1.400 . S
C1605 C1599 1.491 . S
C1605 C1604 1.400 . S
C1605 C1606 1.398 . S
C1606 H1594 0.950 . S
C1606 C1605 1.398 . S
C1606 C1607 1.391 . S
C1607 H1595 0.950 . S
C1607 C1603 1.393 . S
C1607 C1606 1.391 . S
H1608 C1616 0.950 . S
H1609 C1621 0.950 . S
H1610 C1618 0.950 . S
H1611 C1620 0.950 . S
H1612 C1622 0.950 . S
H1613 C1624 0.950 . S
H1614 C1626 0.950 . S
H1615 C1627 0.950 . S
C1616 H1608 0.950 . S
C1616 C1617 1.386 . S
C1616 C1618 1.391 . S
C1617 C1616 1.386 . S
C1617 C1621 1.393 . S
C1618 H1610 0.950 . S
C1618 C1616 1.391 . S
C1618 C1619 1.400 . S
C1619 C1618 1.400 . S
C1619 C1620 1.398 . S
C1619 C1625 1.491 . S
C1620 H1611 0.950 . S
C1620 C1619 1.398 . S
C1620 C1621 1.391 . S
C1621 H1609 0.950 . S
C1621 C1617 1.393 . S
C1621 C1620 1.391 . S
C1622 H1612 0.950 . S
C1622 C1623 1.386 . S
C1622 C1624 1.391 . S
C1623 C1622 1.386 . S
C1623 C1627 1.393 . S
C1624 H1613 0.950 . S
C1624 C1622 1.391 . S
C1624 C1625 1.400 . S
C1625 C1619 1.491 . S
C1625 C1624 1.400 . S
C1625 C1626 1.398 . S
C1626 H1614 0.950 . S
C1626 C1625 1.398 . S
C1626 C1627 1.391 . S
C1627 H1615 0.950 . S
C1627 C1623 1.393 . S
C1627 C1626 1.391 . S
H1628 C1636 0.950 . S
H1629 C1641 0.950 . S
H1630 C1638 0.950 . S
H1631 C1640 0.950 . S
H1632 C1642 0.950 . S
H1633 C1644 0.950 . S
H1634 C1646 0.950 . S
H1635 C1647 0.950 . S
C1636 H1628 0.950 . S
C1636 C1637 1.386 . S
C1636 C1638 1.391 . S
C1637 C1636 1.386 . S
C1637 C1641 1.393 . S
C1638 H1630 0.950 . S
C1638 C1636 1.391 . S
C1638 C1639 1.400 . S
C1639 C1638 1.400 . S
C1639 C1640 1.398 . S
C1639 C1645 1.491 . S
C1640 H1631 0.950 . S
C1640 C1639 1.398 . S
C1640 C1641 1.391 . S
C1641 H1629 0.950 . S
C1641 C1637 1.393 . S
C1641 C1640 1.391 . S
C1642 H1632 0.950 . S
C1642 C1643 1.386 . S
C1642 C1644 1.391 . S
C1643 C1642 1.386 . S
C1643 C1647 1.393 . S
C1644 H1633 0.950 . S
C1644 C1642 1.391 . S
C1644 C1645 1.400 . S
C1645 C1639 1.491 . S
C1645 C1644 1.400 . S
C1645 C1646 1.398 . S
C1646 H1634 0.950 . S
C1646 C1645 1.398 . S
C1646 C1647 1.391 . S
C1647 H1635 0.950 . S
C1647 C1643 1.393 . S
C1647 C1646 1.391 . S
H1648 C1656 0.950 . S
H1649 C1661 0.950 . S
H1650 C1658 0.950 . S
H1651 C1660 0.950 . S
H1652 C1662 0.950 . S
H1653 C1664 0.950 . S
H1654 C1666 0.950 . S
H1655 C1667 0.950 . S
C1656 H1648 0.950 . S
C1656 C1657 1.386 . S
C1656 C1658 1.391 . S
C1657 C1656 1.386 . S
C1657 C1661 1.393 . S
C1658 H1650 0.950 . S
C1658 C1656 1.391 . S
C1658 C1659 1.400 . S
C1659 C1658 1.400 . S
C1659 C1660 1.398 . S
C1659 C1665 1.491 . S
C1660 H1651 0.950 . S
C1660 C1659 1.398 . S
C1660 C1661 1.391 . S
C1661 H1649 0.950 . S
C1661 C1657 1.393 . S
C1661 C1660 1.391 . S
C1662 H1652 0.950 . S
C1662 C1663 1.386 . S
C1662 C1664 1.391 . S
C1663 C1662 1.386 . S
C1663 C1667 1.393 . S
C1664 H1653 0.950 . S
C1664 C1662 1.391 . S
C1664 C1665 1.400 . S
C1665 C1659 1.491 . S
C1665 C1664 1.400 . S
C1665 C1666 1.398 . S
C1666 H1654 0.950 . S
C1666 C1665 1.398 . S
C1666 C1667 1.391 . S
C1667 H1655 0.950 . S
C1667 C1663 1.393 . S
C1667 C1666 1.391 . S
H1668 C1676 0.950 . S
H1669 C1681 0.950 . S
H1670 C1678 0.950 . S
H1671 C1680 0.950 . S
H1672 C1682 0.950 . S
H1673 C1684 0.950 . S
H1674 C1686 0.950 . S
H1675 C1687 0.950 . S
C1676 H1668 0.950 . S
C1676 C1677 1.386 . S
C1676 C1678 1.391 . S
C1677 C1676 1.386 . S
C1677 C1681 1.393 . S
C1678 H1670 0.950 . S
C1678 C1676 1.391 . S
C1678 C1679 1.400 . S
C1679 C1678 1.400 . S
C1679 C1680 1.398 . S
C1679 C1685 1.491 . S
C1680 H1671 0.950 . S
C1680 C1679 1.398 . S
C1680 C1681 1.391 . S
C1681 H1669 0.950 . S
C1681 C1677 1.393 . S
C1681 C1680 1.391 . S
C1682 H1672 0.950 . S
C1682 C1683 1.386 . S
C1682 C1684 1.391 . S
C1683 C1682 1.386 . S
C1683 C1687 1.393 . S
C1684 H1673 0.950 . S
C1684 C1682 1.391 . S
C1684 C1685 1.400 . S
C1685 C1679 1.491 . S
C1685 C1684 1.400 . S
C1685 C1686 1.398 . S
C1686 H1674 0.950 . S
C1686 C1685 1.398 . S
C1686 C1687 1.391 . S
C1687 H1675 0.950 . S
C1687 C1683 1.393 . S
C1687 C1686 1.391 . S
H1688 C1696 0.950 . S
H1689 C1701 0.950 . S
H1690 C1698 0.950 . S
H1691 C1700 0.950 . S
H1692 C1702 0.950 . S
H1693 C1704 0.950 . S
H1694 C1706 0.950 . S
H1695 C1707 0.950 . S
C1696 H1688 0.950 . S
C1696 C1697 1.386 . S
C1696 C1698 1.391 . S
C1697 C1696 1.386 . S
C1697 C1701 1.393 . S
C1698 H1690 0.950 . S
C1698 C1696 1.391 . S
C1698 C1699 1.400 . S
C1699 C1698 1.400 . S
C1699 C1700 1.398 . S
C1699 C1705 1.491 . S
C1700 H1691 0.950 . S
C1700 C1699 1.398 . S
C1700 C1701 1.391 . S
C1701 H1689 0.950 . S
C1701 C1697 1.393 . S
C1701 C1700 1.391 . S
C1702 H1692 0.950 . S
C1702 C1703 1.386 . S
C1702 C1704 1.391 . S
C1703 C1702 1.386 . S
C1703 C1707 1.393 . S
C1704 H1693 0.950 . S
C1704 C1702 1.391 . S
C1704 C1705 1.400 . S
C1705 C1699 1.491 . S
C1705 C1704 1.400 . S
C1705 C1706 1.398 . S
C1706 H1694 0.950 . S
C1706 C1705 1.398 . S
C1706 C1707 1.391 . S
C1707 H1695 0.950 . S
C1707 C1703 1.393 . S
C1707 C1706 1.391 . S
H1708 C1716 0.950 . S
H1709 C1721 0.950 . S
H1710 C1718 0.950 . S
H1711 C1720 0.950 . S
H1712 C1722 0.950 . S
H1713 C1724 0.950 . S
H1714 C1726 0.950 . S
H1715 C1727 0.950 . S
C1716 H1708 0.950 . S
C1716 C1717 1.386 . S
C1716 C1718 1.391 . S
C1717 C1716 1.386 . S
C1717 C1721 1.393 . S
C1718 H1710 0.950 . S
C1718 C1716 1.391 . S
C1718 C1719 1.400 . S
C1719 C1718 1.400 . S
C1719 C1720 1.398 . S
C1719 C1725 1.491 . S
C1720 H1711 0.950 . S
C1720 C1719 1.398 . S
C1720 C1721 1.391 . S
C1721 H1709 0.950 . S
C1721 C1717 1.393 . S
C1721 C1720 1.391 . S
C1722 H1712 0.950 . S
C1722 C1723 1.386 . S
C1722 C1724 1.391 . S
C1723 C1722 1.386 . S
C1723 C1727 1.393 . S
C1724 H1713 0.950 . S
C1724 C1722 1.391 . S
C1724 C1725 1.400 . S
C1725 C1719 1.491 . S
C1725 C1724 1.400 . S
C1725 C1726 1.398 . S
C1726 H1714 0.950 . S
C1726 C1725 1.398 . S
C1726 C1727 1.391 . S
C1727 H1715 0.950 . S
C1727 C1723 1.393 . S
C1727 C1726 1.391 . S
C457 C1 1.559 . S
C463 C55 1.568 . S
C477 C29 1.560 . S
C483 C15 1.563 . S
C497 C56 1.560 . S
C503 C98 1.564 . S
C517 C85 1.564 . S
C523 C83 1.569 . S
C537 C125 1.565 . S
C543 C155 1.567 . S
C557 C140 1.564 . S
C563 C126 1.569 . S
C577 C169 1.561 . S
C583 C222 1.563 . S
C597 C183 1.562 . S
C603 C209 1.569 . S
C617 C266 1.563 . S
C623 C225 1.569 . S
C637 C238 1.569 . S
C643 C252 1.562 . S
C657 C280 1.568 . S
C663 C323 1.564 . S
C677 C309 1.560 . S
C683 C307 1.568 . S
C697 C337 1.568 . S
C703 C378 1.561 . S
C717 C364 1.566 . S
C723 C351 1.559 . S
C737 C404 1.564 . S
C743 C435 1.568 . S
C757 C406 1.559 . S
C763 C421 1.565 . S
C777 C180 1.600 . S
C783 C12 1.601 . S
C797 C26 1.604 . S
C803 C294 1.603 . S
C817 C40 1.607 . S
C823 C96 1.606 . S
C837 C446 1.592 . S
C843 C42 1.594 . S
C857 C69 1.607 . S
C863 C112 1.607 . S
C877 C251 1.597 . S
C883 C70 1.597 . S
C897 C391 1.603 . S
C903 C111 1.605 . S
C917 C419 1.595 . S
C923 C139 1.593 . S
C937 C196 1.604 . S
C943 C153 1.604 . S
C957 C334 1.605 . S
C963 C166 1.607 . S
C977 C194 1.590 . S
C983 C362 1.592 . S
C997 C279 1.606 . S
C1003 C211 1.607 . S
C1017 C393 1.596 . S
C1023 C236 1.596 . S
C1037 C320 1.603 . S
C1043 C265 1.603 . S
C1057 C348 1.599 . S
C1063 C293 1.599 . S
C1077 C377 1.606 . S
C1083 C432 1.606 . S
C1097 C141 1.700 . S
C1103 C0 1.703 . S
C1117 C14 1.693 . S
C1123 C154 1.696 . S
C1137 C124 1.693 . S
C1143 C28 1.696 . S
C1157 C127 1.692 . S
C1163 C54 1.694 . S
C1177 C57 1.693 . S
C1183 C208 1.694 . S
C1197 C82 1.691 . S
C1203 C223 1.695 . S
C1217 C168 1.691 . S
C1223 C84 1.694 . S
C1237 C99 1.696 . S
C1243 C182 1.691 . S
C1257 C365 1.702 . S
C1263 C224 1.698 . S
C1277 C379 1.702 . S
C1283 C239 1.697 . S
C1297 C253 1.698 . S
C1303 C336 1.693 . S
C1317 C267 1.699 . S
C1323 C350 1.703 . S
C1337 C281 1.698 . S
C1343 C420 1.702 . S
C1357 C306 1.691 . S
C1363 C434 1.698 . S
C1377 C405 1.693 . S
C1383 C308 1.697 . S
C1397 C407 1.704 . S
C1403 C322 1.697 . S
C1417 C13 1.693 . S
C1423 C363 1.692 . S
C1437 C349 1.704 . S
C1443 C27 1.706 1_655 S
C1457 C41 1.706 . S
C1463 C390 1.708 1_556 S
C1477 C43 1.695 1_656 S
C1483 C376 1.697 . S
C1497 C68 1.706 . S
C1503 C418 1.704 . S
C1517 C71 1.695 1_455 S
C1523 C392 1.696 . S
C1537 C447 1.702 . S
C1543 C97 1.704 1_554 S
C1557 C433 1.700 . S
C1563 C110 1.700 1_454 S
C1577 C250 1.709 . S
C1583 C113 1.706 . S
C1597 C237 1.698 . S
C1603 C138 1.697 1_655 S
C1617 C152 1.708 . S
C1623 C278 1.709 . S
C1637 C167 1.703 1_655 S
C1643 C264 1.707 . S
C1657 C295 1.696 . S
C1663 C181 1.698 . S
C1677 C195 1.697 1_455 S
C1683 C292 1.698 . S
C1697 C197 1.708 . S
C1703 C335 1.706 . S
C1717 C210 1.692 1_455 S
C1723 C321 1.696 . S
