# Generated by pormake.
# Topology zfr, (5)-cn, num edge types: 1
# Building blocks:
#     Node 0, Type 0, BuildingBlock: XOMCOT_clean_sbu_1, # of connection points: 5
#     Node 1, Type 0, BuildingBlock: XOMCOT_clean_sbu_1, # of connection points: 5
#     Node 2, Type 0, BuildingBlock: XOMCOT_clean_sbu_1, # of connection points: 5
#     Node 3, Type 0, BuildingBlock: XOMCOT_clean_sbu_1, # of connection points: 5
#     Node 4, Type 0, BuildingBlock: XOMCOT_clean_sbu_1, # of connection points: 5
#     Node 5, Type 0, BuildingBlock: XOMCOT_clean_sbu_1, # of connection points: 5
#     Node 6, Type 0, BuildingBlock: XOMCOT_clean_sbu_1, # of connection points: 5
#     Node 7, Type 0, BuildingBlock: XOMCOT_clean_sbu_1, # of connection points: 5
#     Edge 8, Type (0, 0), BuildingBlock: CIFDUS_clean_linker_0, # of connection points: 2
#     Edge 9, Type (0, 0), BuildingBlock: CIFDUS_clean_linker_0, # of connection points: 2
#     Edge 10, Type (0, 0), BuildingBlock: CIFDUS_clean_linker_0, # of connection points: 2
#     Edge 11, Type (0, 0), BuildingBlock: CIFDUS_clean_linker_0, # of connection points: 2
#     Edge 12, Type (0, 0), BuildingBlock: CIFDUS_clean_linker_0, # of connection points: 2
#     Edge 13, Type (0, 0), BuildingBlock: CIFDUS_clean_linker_0, # of connection points: 2
#     Edge 14, Type (0, 0), BuildingBlock: CIFDUS_clean_linker_0, # of connection points: 2
#     Edge 15, Type (0, 0), BuildingBlock: CIFDUS_clean_linker_0, # of connection points: 2
#     Edge 16, Type (0, 0), BuildingBlock: CIFDUS_clean_linker_0, # of connection points: 2
#     Edge 17, Type (0, 0), BuildingBlock: CIFDUS_clean_linker_0, # of connection points: 2
#     Edge 18, Type (0, 0), BuildingBlock: CIFDUS_clean_linker_0, # of connection points: 2
#     Edge 19, Type (0, 0), BuildingBlock: CIFDUS_clean_linker_0, # of connection points: 2
#     Edge 20, Type (0, 0), BuildingBlock: CIFDUS_clean_linker_0, # of connection points: 2
#     Edge 21, Type (0, 0), BuildingBlock: CIFDUS_clean_linker_0, # of connection points: 2
#     Edge 22, Type (0, 0), BuildingBlock: CIFDUS_clean_linker_0, # of connection points: 2
#     Edge 23, Type (0, 0), BuildingBlock: CIFDUS_clean_linker_0, # of connection points: 2
#     Edge 24, Type (0, 0), BuildingBlock: CIFDUS_clean_linker_0, # of connection points: 2
#     Edge 25, Type (0, 0), BuildingBlock: CIFDUS_clean_linker_0, # of connection points: 2
#     Edge 26, Type (0, 0), BuildingBlock: CIFDUS_clean_linker_0, # of connection points: 2
#     Edge 27, Type (0, 0), BuildingBlock: CIFDUS_clean_linker_0, # of connection points: 2
# Relax obj value: 0.192
# Max RMSD: 0.177
# Mean RMSD: 0.177
data_MOF--net-zfr--node1-XOMCOT_clean_sbu_1--edge1-CIFDUS_clean_linker_0
_symmetry_space_group_name_H-M    P1
_symmetry_Int_Tables_number       1
_symmetry_cell_setting            triclinic
loop_
_symmetry_equiv_pos_as_xyz
'x, y, z'
_cell_length_a     45.603778
_cell_length_b     45.587005
_cell_length_c     15.453184
_cell_angle_alpha  89.983822
_cell_angle_beta   90.003864
_cell_angle_gamma 89.982664
loop_
_atom_site_label
_atom_site_type_symbol
_atom_site_fract_x
_atom_site_fract_y
_atom_site_fract_z
_atom_type_partial_charge
C0 C 0.16343 0.31068 0.1417 0.0
C1 C 0.16878 0.31248 0.05413 0.0
N2 N 0.14305 0.31637 0.01214 0.0
N3 N 0.13448 0.31328 0.1559 0.0
C4 C 0.12267 0.31697 0.07609 0.0
H5 H 0.17957 0.30703 0.19187 0.0
Co6 Co 0.11653 0.30997 0.26457 0.0
C7 C 0.05239 0.3065 0.21903 0.0
O8 O 0.04504 0.3225 0.2864 0.0
N9 N 0.09895 0.30601 0.37608 0.0
C10 C 0.07439 0.28624 0.4866 0.0
C11 C 0.07894 0.28549 0.39862 0.0
C12 C 0.10708 0.31805 0.45289 0.0
N13 N 0.09228 0.30659 0.52076 0.0
O14 O 0.1273 0.26903 0.26795 0.0
H15 H 0.06929 0.26983 0.35449 0.0
H16 H 0.12455 0.33381 0.46028 0.0
O17 O 0.07939 0.30027 0.20599 0.0
C18 C 0.14695 0.26273 0.32386 0.0
O19 O 0.15695 0.2836 0.37448 0.0
N20 N 0.10919 0.35063 0.2628 0.0
C21 C 0.11082 0.41207 0.26173 0.0
C22 C 0.09031 0.39674 0.21114 0.0
C23 C 0.09014 0.36598 0.21154 0.0
C24 C 0.12977 0.36521 0.30985 0.0
C25 C 0.13053 0.39574 0.31212 0.0
H26 H 0.0757 0.35491 0.16715 0.0
H27 H 0.14652 0.35296 0.34366 0.0
H28 H 0.0995 0.31987 0.06535 0.0
H29 H 0.19011 0.3103 0.0244 0.0
H30 H 0.06036 0.27167 0.52331 0.0
H31 H 0.07541 0.40831 0.16859 0.0
H32 H 0.1469 0.40638 0.35196 0.0
C33 C 0.69004 0.1707 0.3646 0.0
C34 C 0.68645 0.17354 0.27623 0.0
N35 N 0.68133 0.14667 0.24318 0.0
N36 N 0.68749 0.14218 0.38621 0.0
C37 C 0.68218 0.12821 0.31102 0.0
H38 H 0.6945 0.18819 0.41003 0.0
Co39 Co 0.69081 0.12537 0.49457 0.0
C40 C 0.69724 0.06127 0.45263 0.0
O41 O 0.67951 0.0535 0.51566 0.0
N42 N 0.69458 0.10889 0.60494 0.0
C43 C 0.71566 0.08903 0.72098 0.0
C44 C 0.71548 0.08993 0.63203 0.0
C45 C 0.68281 0.11954 0.67868 0.0
N46 N 0.69505 0.10767 0.74961 0.0
O47 O 0.73129 0.13762 0.50005 0.0
H48 H 0.73154 0.07965 0.59047 0.0
H49 H 0.66802 0.138 0.68136 0.0
O50 O 0.70298 0.08835 0.43993 0.0
C51 C 0.73676 0.15804 0.55424 0.0
O52 O 0.71519 0.16894 0.60042 0.0
N53 N 0.65019 0.11634 0.49088 0.0
C54 C 0.58866 0.11515 0.4884 0.0
C55 C 0.60506 0.09417 0.4428 0.0
C56 C 0.63579 0.09545 0.44352 0.0
C57 C 0.63449 0.13741 0.5328 0.0
C58 C 0.60391 0.13691 0.53405 0.0
H59 H 0.64747 0.08045 0.40237 0.0
H60 H 0.64582 0.15547 0.56326 0.0
H61 H 0.67974 0.10473 0.30528 0.0
H62 H 0.68755 0.1937 0.23936 0.0
H63 H 0.73154 0.07788 0.76138 0.0
H64 H 0.59429 0.07767 0.40369 0.0
H65 H 0.59237 0.15383 0.56955 0.0
C66 C 0.84224 0.66308 0.6324 0.0
C67 C 0.83911 0.66454 0.54377 0.0
N68 N 0.85512 0.68729 0.51434 0.0
N69 N 0.86063 0.68448 0.65864 0.0
C70 C 0.86706 0.69951 0.58565 0.0
H71 H 0.83309 0.64633 0.67385 0.0
Co72 Co 0.87936 0.68893 0.76579 0.0
C73 C 0.94298 0.70075 0.70536 0.0
O74 O 0.95693 0.69424 0.77718 0.0
N75 N 0.89778 0.69398 0.87438 0.0
C76 C 0.91686 0.71709 0.98842 0.0
C77 C 0.91443 0.71697 0.8995 0.0
C78 C 0.89023 0.6807 0.94952 0.0
N79 N 0.9014 0.69429 0.01981 0.0
O80 O 0.86714 0.72946 0.76864 0.0
H81 H 0.92223 0.73403 0.85667 0.0
H82 H 0.87422 0.66339 0.95398 0.0
O83 O 0.91504 0.69912 0.70217 0.0
C84 C 0.84802 0.73525 0.82649 0.0
O85 O 0.83871 0.71402 0.87697 0.0
N86 N 0.88894 0.64852 0.7652 0.0
C87 C 0.89232 0.58713 0.76396 0.0
C88 C 0.91273 0.60416 0.71804 0.0
C89 C 0.91052 0.63484 0.7188 0.0
C90 C 0.8689 0.63224 0.80951 0.0
C91 C 0.87045 0.60172 0.81111 0.0
H92 H 0.92541 0.64707 0.67869 0.0
H93 H 0.85072 0.64306 0.84112 0.0
H94 H 0.88218 0.71779 0.58392 0.0
H95 H 0.82707 0.64921 0.50382 0.0
H96 H 0.92778 0.73362 0.02697 0.0
H97 H 0.92949 0.5939 0.67872 0.0
H98 H 0.85417 0.58969 0.84771 0.0
C99 C 0.33315 0.85646 0.87986 0.0
C100 C 0.33186 0.85368 0.79112 0.0
N101 N 0.30892 0.86953 0.7621 0.0
N102 N 0.31145 0.87445 0.90629 0.0
C103 C 0.29651 0.88115 0.83347 0.0
H104 H 0.35002 0.84756 0.92146 0.0
Co105 Co 0.30685 0.89239 0.0138 0.0
C106 C 0.29889 0.95588 0.96536 0.0
O107 O 0.3127 0.96493 0.03506 0.0
N108 N 0.30138 0.91025 0.12357 0.0
C109 C 0.27779 0.93018 0.23572 0.0
C110 C 0.27814 0.92688 0.14708 0.0
C111 C 0.3145 0.90351 0.19962 0.0
N112 N 0.30074 0.91534 0.26852 0.0
O113 O 0.26709 0.87836 0.0183 0.0
H114 H 0.26131 0.93447 0.10314 0.0
H115 H 0.33193 0.88779 0.20646 0.0
O116 O 0.29479 0.92843 0.95351 0.0
C117 C 0.26368 0.85793 0.07389 0.0
O118 O 0.28632 0.84956 0.12031 0.0
N119 N 0.34682 0.90331 0.01075 0.0
C120 C 0.40813 0.90798 0.00403 0.0
C121 C 0.39024 0.92464 0.94846 0.0
C122 C 0.35968 0.92177 0.9522 0.0
C123 C 0.36392 0.88591 0.06151 0.0
C124 C 0.3943 0.8887 0.06197 0.0
H125 H 0.34679 0.93296 0.90395 0.0
H126 H 0.35405 0.86842 0.09842 0.0
H127 H 0.27802 0.89598 0.83205 0.0
H128 H 0.34741 0.84205 0.75081 0.0
H129 H 0.26117 0.9414 0.27322 0.0
H130 H 0.39968 0.93876 0.89952 0.0
H131 H 0.40671 0.8751 0.10612 0.0
C132 C 0.16371 0.6883 0.38772 0.0
C133 C 0.16631 0.68526 0.47633 0.0
N134 N 0.13997 0.67736 0.50843 0.0
N135 N 0.1358 0.68264 0.36444 0.0
C136 C 0.12209 0.67565 0.43917 0.0
H137 H 0.18068 0.69552 0.34374 0.0
Co138 Co 0.11843 0.68841 0.25656 0.0
C139 C 0.05562 0.70299 0.30969 0.0
O140 O 0.04313 0.69241 0.2397 0.0
N141 N 0.10134 0.69462 0.14724 0.0
C142 C 0.08435 0.71944 0.03368 0.0
C143 C 0.08549 0.71824 0.12259 0.0
C144 C 0.10975 0.68202 0.07189 0.0
N145 N 0.09953 0.69655 0.00215 0.0
O146 O 0.13332 0.72804 0.2544 0.0
H147 H 0.07796 0.73527 0.1659 0.0
H148 H 0.12596 0.66481 0.06755 0.0
O149 O 0.08347 0.70211 0.31729 0.0
C150 C 0.1529 0.73346 0.19761 0.0
O151 O 0.16173 0.71227 0.14628 0.0
N152 N 0.10631 0.64884 0.25637 0.0
C153 C 0.09897 0.58782 0.2511 0.0
C154 C 0.07856 0.60579 0.2938 0.0
C155 C 0.08268 0.63622 0.29615 0.0
C156 C 0.1266 0.63166 0.21625 0.0
C157 C 0.12314 0.60131 0.21138 0.0
H158 H 0.06741 0.64901 0.33323 0.0
H159 H 0.14595 0.64168 0.18864 0.0
H160 H 0.09888 0.67113 0.44372 0.0
H161 H 0.18582 0.68937 0.51428 0.0
H162 H 0.07563 0.73729 0.99526 0.0
H163 H 0.06004 0.59642 0.32784 0.0
H164 H 0.13948 0.5886 0.1771 0.0
C165 C 0.33927 0.14534 0.60894 0.0
C166 C 0.33798 0.14819 0.69764 0.0
N167 N 0.31492 0.13253 0.72665 0.0
N168 N 0.31746 0.12749 0.58252 0.0
C169 C 0.30246 0.12095 0.65533 0.0
H170 H 0.35611 0.15428 0.56738 0.0
Co171 Co 0.31223 0.10983 0.4749 0.0
C172 C 0.30281 0.04602 0.52298 0.0
O173 O 0.31506 0.0361 0.4518 0.0
N174 N 0.30625 0.0923 0.36546 0.0
C175 C 0.28254 0.07298 0.25282 0.0
C176 C 0.28277 0.07612 0.34148 0.0
C177 C 0.31967 0.09892 0.28987 0.0
N178 N 0.30579 0.08748 0.22057 0.0
O179 O 0.27211 0.12352 0.47363 0.0
H180 H 0.26576 0.06873 0.38511 0.0
H181 H 0.33752 0.11424 0.28399 0.0
O182 O 0.30059 0.07367 0.5352 0.0
C183 C 0.2661 0.14296 0.4168 0.0
O184 O 0.28676 0.15149 0.36322 0.0
N185 N 0.35242 0.09909 0.47483 0.0
C186 C 0.41377 0.09421 0.47622 0.0
C187 C 0.3963 0.07559 0.52713 0.0
C188 C 0.3657 0.07869 0.52666 0.0
C189 C 0.36919 0.11794 0.42755 0.0
C190 C 0.39966 0.11549 0.42558 0.0
H191 H 0.35322 0.06576 0.57179 0.0
H192 H 0.35889 0.13604 0.39414 0.0
H193 H 0.28378 0.10636 0.65671 0.0
H194 H 0.35352 0.15982 0.73791 0.0
H195 H 0.26581 0.06209 0.21495 0.0
H196 H 0.40619 0.05964 0.57009 0.0
H197 H 0.41202 0.13064 0.38585 0.0
C198 C 0.86235 0.34021 0.8664 0.0
C199 C 0.85965 0.33923 0.95523 0.0
N200 N 0.87495 0.31598 0.98455 0.0
N201 N 0.8798 0.318 0.84026 0.0
C202 C 0.88626 0.30315 0.91347 0.0
H203 H 0.85357 0.35704 0.82453 0.0
Co204 Co 0.89725 0.31201 0.73254 0.0
C205 C 0.9604 0.29776 0.78261 0.0
O206 O 0.97214 0.30689 0.70981 0.0
N207 N 0.9146 0.30531 0.62331 0.0
C208 C 0.93238 0.28064 0.51033 0.0
C209 C 0.92912 0.28082 0.59888 0.0
C210 C 0.90901 0.31939 0.54801 0.0
N211 N 0.91952 0.30492 0.47843 0.0
O212 O 0.88174 0.27263 0.73086 0.0
H213 H 0.93521 0.26318 0.64212 0.0
H214 H 0.89495 0.33828 0.54259 0.0
O215 O 0.93266 0.29895 0.79338 0.0
C216 C 0.8616 0.2688 0.67455 0.0
O217 O 0.85408 0.29084 0.62447 0.0
N218 N 0.90964 0.35155 0.73235 0.0
C219 C 0.91542 0.41275 0.73638 0.0
C220 C 0.93463 0.3947 0.78357 0.0
C221 C 0.93118 0.36412 0.78152 0.0
C222 C 0.89068 0.36884 0.68719 0.0
C223 C 0.89354 0.39925 0.68659 0.0
H224 H 0.94481 0.35109 0.82342 0.0
H225 H 0.87218 0.35897 0.6546 0.0
H226 H 0.90075 0.28438 0.91548 0.0
H227 H 0.8483 0.35506 0.99532 0.0
H228 H 0.94212 0.26327 0.47225 0.0
H229 H 0.95128 0.40411 0.8251 0.0
H230 H 0.87813 0.41205 0.64898 0.0
C231 C 0.69215 0.83748 0.14025 0.0
C232 C 0.68842 0.83477 0.22848 0.0
N233 N 0.67675 0.85998 0.25886 0.0
N234 N 0.68312 0.86432 0.11548 0.0
C235 C 0.67334 0.8771 0.18853 0.0
H236 H 0.70157 0.82123 0.09757 0.0
Co237 Co 0.68511 0.88194 0.00738 0.0
C238 C 0.71171 0.93463 0.09696 0.0
O239 O 0.73895 0.92588 0.08727 0.0
N240 N 0.68675 0.89901 0.89938 0.0
C241 C 0.6939 0.92632 0.78217 0.0
C242 C 0.69459 0.92597 0.87155 0.0
C243 C 0.68108 0.88366 0.82703 0.0
N244 N 0.68568 0.8995 0.75512 0.0
O245 O 0.72666 0.87417 0.00269 0.0
H246 H 0.70127 0.94389 0.91286 0.0
H247 H 0.67421 0.86095 0.82683 0.0
O248 O 0.69079 0.91966 0.06448 0.0
C249 C 0.73232 0.85146 0.95737 0.0
O250 O 0.71048 0.83643 0.92442 0.0
N251 N 0.64454 0.88705 0.00799 0.0
C252 C 0.58324 0.8873 0.00593 0.0
C253 C 0.59914 0.91331 0.02027 0.0
C254 C 0.6298 0.91283 0.01923 0.0
C255 C 0.62969 0.86179 0.99188 0.0
C256 C 0.59914 0.86144 0.98964 0.0
H257 H 0.64148 0.93321 0.02728 0.0
H258 H 0.6418 0.84175 0.98034 0.0
H259 H 0.66484 0.89909 0.19034 0.0
H260 H 0.6945 0.81591 0.26699 0.0
H261 H 0.7003 0.94429 0.74043 0.0
H262 H 0.58818 0.93389 0.0333 0.0
H263 H 0.58825 0.84097 0.97477 0.0
H264 H 0.23581 0.15976 0.27502 0.0
H265 H 0.23325 0.16139 0.55376 0.0
H266 H 0.19274 0.19672 0.54942 0.0
H267 H 0.16346 0.23245 0.46576 0.0
H268 H 0.16461 0.22944 0.18709 0.0
H269 H 0.19993 0.18889 0.19148 0.0
C270 C 0.22584 0.16735 0.33471 0.0
C271 C 0.2376 0.15834 0.41465 0.0
C272 C 0.20252 0.18751 0.3315 0.0
C273 C 0.22446 0.168 0.49161 0.0
C274 C 0.20148 0.18836 0.48904 0.0
C275 C 0.17087 0.22231 0.40614 0.0
C276 C 0.1617 0.23392 0.32617 0.0
C277 C 0.1911 0.19905 0.40938 0.0
C278 C 0.17125 0.22067 0.24926 0.0
C279 C 0.19165 0.19771 0.25185 0.0
H280 H 0.84572 0.24077 0.52837 0.0
H281 H 0.83883 0.23618 0.80612 0.0
H282 H 0.80092 0.19826 0.79325 0.0
H283 H 0.76496 0.17209 0.70186 0.0
H284 H 0.77331 0.17504 0.42427 0.0
H285 H 0.81585 0.20764 0.43766 0.0
C286 C 0.83641 0.23084 0.58599 0.0
C287 C 0.84474 0.24128 0.66808 0.0
C288 C 0.81479 0.20905 0.57787 0.0
C289 C 0.8328 0.2283 0.74242 0.0
C290 C 0.81097 0.20685 0.73495 0.0
C291 C 0.77662 0.17933 0.64452 0.0
C292 C 0.76603 0.1715 0.56216 0.0
C293 C 0.80108 0.19787 0.65295 0.0
C294 C 0.78126 0.18073 0.48818 0.0
C295 C 0.80538 0.19953 0.49591 0.0
H296 H 0.83644 0.76435 0.97435 0.0
H297 H 0.8279 0.77058 0.69727 0.0
H298 H 0.79383 0.81184 0.7137 0.0
H299 H 0.76011 0.83967 0.8082 0.0
H300 H 0.76943 0.83419 0.08503 0.0
H301 H 0.81014 0.79949 0.06801 0.0
C302 C 0.82773 0.77536 0.91764 0.0
C303 C 0.83427 0.76439 0.83474 0.0
C304 C 0.80824 0.799 0.92782 0.0
C305 C 0.82316 0.77879 0.76156 0.0
C306 C 0.80353 0.80219 0.77107 0.0
C307 C 0.7719 0.8317 0.86451 0.0
C308 C 0.76203 0.83937 0.94772 0.0
C309 C 0.79501 0.81162 0.85396 0.0
C310 C 0.77705 0.82884 0.02052 0.0
C311 C 0.80003 0.80873 0.01068 0.0
H312 H 0.16514 0.76315 0.05118 0.0
H313 H 0.17326 0.76778 0.32862 0.0
H314 H 0.20626 0.81 0.3148 0.0
H315 H 0.23805 0.84065 0.22234 0.0
H316 H 0.2284 0.83742 0.94513 0.0
H317 H 0.19021 0.79987 0.9598 0.0
C318 C 0.17366 0.7739 0.10852 0.0
C319 C 0.16717 0.76235 0.19076 0.0
C320 C 0.19238 0.79819 0.09987 0.0
C321 C 0.17797 0.77645 0.26482 0.0
C322 C 0.19697 0.8004 0.25681 0.0
C323 C 0.22697 0.83223 0.16539 0.0
C324 C 0.23604 0.84147 0.08275 0.0
C325 C 0.20509 0.81077 0.17456 0.0
C326 C 0.22157 0.83068 0.00928 0.0
C327 C 0.19998 0.80904 0.01772 0.0
H328 H 0.14409 0.31332 0.60303 0.0
H329 H 0.0507 0.31139 0.64352 0.0
H330 H 0.05802 0.3169 0.79958 0.0
H331 H 0.09077 0.31715 0.92507 0.0
H332 H 0.18461 0.31878 0.88451 0.0
H333 H 0.17712 0.31741 0.72933 0.0
C334 C 0.12539 0.31431 0.64621 0.0
C335 C 0.09689 0.31188 0.6119 0.0
C336 C 0.12977 0.31638 0.73642 0.0
C337 C 0.07283 0.31289 0.66858 0.0
C338 C 0.07702 0.31579 0.75785 0.0
C339 C 0.10977 0.31746 0.88322 0.0
C340 C 0.13833 0.31762 0.91887 0.0
C341 C 0.1054 0.31676 0.79285 0.0
C342 C 0.16232 0.31812 0.8611 0.0
C343 C 0.1581 0.31746 0.77138 0.0
H344 H 0.70525 0.17287 0.10379 0.0
H345 H 0.64973 0.10107 0.1824 0.0
H346 H 0.64888 0.08245 0.03457 0.0
H347 H 0.66617 0.08511 0.88352 0.0
H348 H 0.72059 0.15712 0.80365 0.0
H349 H 0.71967 0.17744 0.95086 0.0
C350 C 0.69255 0.15349 0.08814 0.0
C351 C 0.67791 0.13818 0.1541 0.0
C352 C 0.69222 0.14285 0.00291 0.0
C353 C 0.66169 0.11292 0.13302 0.0
C354 C 0.66111 0.10228 0.0485 0.0
C355 C 0.67761 0.10528 0.89914 0.0
C356 C 0.69355 0.1197 0.83471 0.0
C357 C 0.67675 0.11674 0.98329 0.0
C358 C 0.70831 0.14589 0.85366 0.0
C359 C 0.70774 0.1574 0.93732 0.0
H360 H 0.89708 0.73341 0.15123 0.0
H361 H 0.88814 0.64159 0.08934 0.0
H362 H 0.87179 0.63142 0.23677 0.0
H363 H 0.85995 0.64853 0.38323 0.0
H364 H 0.86935 0.74013 0.4465 0.0
H365 H 0.88593 0.75044 0.29899 0.0
C366 C 0.89196 0.71112 0.17022 0.0
C367 C 0.89382 0.6883 0.10892 0.0
C368 C 0.88249 0.70542 0.25532 0.0
C369 C 0.88661 0.65961 0.13474 0.0
C370 C 0.8773 0.65376 0.21914 0.0
C371 C 0.86516 0.67082 0.36446 0.0
C372 C 0.86307 0.69358 0.42575 0.0
C373 C 0.87491 0.67652 0.27977 0.0
C374 C 0.87075 0.72222 0.40069 0.0
C375 C 0.88024 0.72812 0.31634 0.0
H376 H 0.26163 0.90996 0.39915 0.0
H377 H 0.35387 0.90563 0.33923 0.0
H378 H 0.36458 0.89007 0.48713 0.0
H379 H 0.3477 0.8769 0.63272 0.0
H380 H 0.25565 0.88146 0.69407 0.0
H381 H 0.24483 0.89792 0.54663 0.0
C382 C 0.28409 0.90604 0.41884 0.0
C383 C 0.30693 0.90886 0.35807 0.0
C384 C 0.29007 0.89687 0.50399 0.0
C385 C 0.3359 0.9033 0.38447 0.0
C386 C 0.34203 0.89441 0.46902 0.0
C387 C 0.32524 0.88107 0.61345 0.0
C388 C 0.30245 0.87758 0.6739 0.0
C389 C 0.31927 0.89076 0.52898 0.0
C390 C 0.27353 0.88391 0.64859 0.0
C391 C 0.26736 0.89334 0.56438 0.0
H392 H 0.08005 0.66264 0.87291 0.0
H393 H 0.14533 0.72658 0.94092 0.0
H394 H 0.1653 0.72515 0.79347 0.0
H395 H 0.16264 0.70709 0.64382 0.0
H396 H 0.0967 0.64353 0.57446 0.0
H397 H 0.07838 0.64333 0.72303 0.0
C398 C 0.09871 0.67603 0.85479 0.0
C399 C 0.11135 0.69471 0.9164 0.0
C400 C 0.10981 0.67518 0.76983 0.0
C401 C 0.13544 0.71216 0.89352 0.0
C402 C 0.14678 0.71129 0.80959 0.0
C403 C 0.14461 0.69281 0.66151 0.0
C404 C 0.13109 0.67536 0.59794 0.0
C405 C 0.13401 0.69303 0.74696 0.0
C406 C 0.10734 0.65739 0.62186 0.0
C407 C 0.09688 0.65721 0.70689 0.0
H408 H 0.26692 0.09303 0.08941 0.0
H409 H 0.35909 0.09705 0.15063 0.0
H410 H 0.37007 0.11241 0.00274 0.0
H411 H 0.35346 0.12533 0.8567 0.0
H412 H 0.26148 0.121 0.79414 0.0
H413 H 0.25038 0.10489 0.94169 0.0
C414 C 0.28943 0.09684 0.07006 0.0
C415 C 0.31216 0.09399 0.13117 0.0
C416 C 0.29557 0.10585 0.98491 0.0
C417 C 0.34119 0.09942 0.10515 0.0
C418 C 0.34748 0.10817 0.0206 0.0
C419 C 0.33095 0.1213 0.87573 0.0
C420 C 0.30828 0.12473 0.8149 0.0
C421 C 0.32482 0.11181 0.96026 0.0
C422 C 0.27929 0.11858 0.83991 0.0
C423 C 0.27296 0.10936 0.92418 0.0
H424 H 0.91251 0.26649 0.34688 0.0
H425 H 0.91202 0.35874 0.40875 0.0
H426 H 0.89707 0.37041 0.26091 0.0
H427 H 0.88343 0.35433 0.11456 0.0
H428 H 0.88464 0.26224 0.05191 0.0
H429 H 0.90032 0.25052 0.19934 0.0
C430 C 0.9096 0.28917 0.32777 0.0
C431 C 0.91328 0.3117 0.38908 0.0
C432 C 0.9009 0.29571 0.24267 0.0
C433 C 0.90897 0.34097 0.3632 0.0
C434 C 0.90046 0.34766 0.27865 0.0
C435 C 0.88671 0.33169 0.13361 0.0
C436 C 0.88251 0.30914 0.07279 0.0
C437 C 0.89599 0.32519 0.21815 0.0
C438 C 0.88768 0.27994 0.0977 0.0
C439 C 0.89666 0.27326 0.18189 0.0
H440 H 0.70019 0.83481 0.40179 0.0
H441 H 0.64436 0.90606 0.31831 0.0
H442 H 0.64354 0.92553 0.46429 0.0
H443 H 0.65975 0.92328 0.61653 0.0
H444 H 0.71216 0.85027 0.70174 0.0
H445 H 0.71302 0.83036 0.55468 0.0
C446 C 0.6874 0.85429 0.41522 0.0
C447 C 0.67294 0.8691 0.34772 0.0
C448 C 0.68652 0.86521 0.50003 0.0
C449 C 0.65651 0.89445 0.36763 0.0
C450 C 0.65585 0.90564 0.45159 0.0
C451 C 0.67134 0.90308 0.60216 0.0
C452 C 0.68602 0.88827 0.66865 0.0
C453 C 0.67113 0.89148 0.51804 0.0
C454 C 0.70069 0.86188 0.65077 0.0
C455 C 0.70118 0.85055 0.567 0.0
H456 H 0.06127 0.28287 0.05821 0.0
H457 H 0.9934 0.31693 0.22528 0.0
H458 H 0.95815 0.31418 0.10687 0.0
H459 H 0.94804 0.30759 0.95224 0.0
H460 H 0.01615 0.27595 0.78276 0.0
H461 H 0.04986 0.27227 0.90578 0.0
C462 C 0.03875 0.28952 0.06908 0.0
C463 C 0.03025 0.30063 0.15045 0.0
C464 C 0.01867 0.28858 0.99993 0.0
C465 C 1.00076 0.30864 0.16329 0.0
C466 C 0.98053 0.30714 0.09543 0.0
C467 C 0.97002 0.29924 0.94235 0.0
C468 C 0.97957 0.29203 0.85832 0.0
C469 C 0.98945 0.29795 0.01289 0.0
C470 C 0.00834 0.28178 0.84669 0.0
C471 C 0.02761 0.27972 0.917 0.0
H472 H 0.74871 0.97594 0.16707 0.0
H473 H 0.65809 0.9484 0.16454 0.0
H474 H 0.64647 0.98345 0.2769 0.0
H475 H 0.66172 0.02137 0.37936 0.0
H476 H 0.75036 0.05377 0.37366 0.0
H477 H 0.76307 0.01768 0.26153 0.0
C478 C 0.72639 0.97778 0.19061 0.0
C479 C 0.70452 0.95893 0.15786 0.0
C480 C 0.7195 0.99883 0.25448 0.0
C481 C 0.67561 0.96209 0.18852 0.0
C482 C 0.66883 0.98224 0.2533 0.0
C483 C 0.68387 0.02034 0.35388 0.0
C484 C 0.70529 0.0396 0.38575 0.0
C485 C 0.69062 1.00044 0.2875 0.0
C486 C 0.73366 0.0388 0.35055 0.0
C487 C 0.74086 0.01825 0.28643 0.0
H488 H 0.99656 0.69673 0.3289 0.0
H489 H 0.07449 0.7225 0.46801 0.0
H490 H 0.04649 0.72525 0.60228 0.0
H491 H 1.00027 0.71711 0.68268 0.0
H492 H 0.92343 0.68938 0.54209 0.0
H493 H 0.95024 0.69132 0.40694 0.0
C494 C 0.00739 0.7034 0.3882 0.0
C495 C 0.03769 0.70909 0.38805 0.0
C496 C 0.99122 0.70469 0.46557 0.0
C497 C 0.05124 0.71774 0.46593 0.0
C498 C 0.03523 0.71928 0.54307 0.0
C499 C 0.98937 0.71178 0.62233 0.0
C500 C 0.95955 0.7038 0.62293 0.0
C501 C 0.0053 0.71223 0.54408 0.0
C502 C 0.94589 0.69672 0.54394 0.0
C503 C 0.96141 0.69738 0.46623 0.0
H504 H 0.29295 0.94297 0.79379 0.0
H505 H 0.29615 0.01572 0.97208 0.0
H506 H 0.29531 0.0501 0.85067 0.0
H507 H 0.29765 0.0592 0.69455 0.0
H508 H 0.29639 0.98641 0.51618 0.0
H509 H 0.29236 0.9522 0.63746 0.0
C510 C 0.29271 0.96628 0.80652 0.0
C511 C 0.29437 0.97664 0.89235 0.0
C512 C 0.29283 0.98591 0.7363 0.0
C513 C 0.29481 0.00708 0.90689 0.0
C514 C 0.29439 0.02677 0.83742 0.0
C515 C 0.29578 0.03597 0.68172 0.0
C516 C 0.29709 0.02553 0.59594 0.0
C517 C 0.29394 0.01641 0.75185 0.0
C518 C 0.2954 0.99513 0.58133 0.0
C519 C 0.29311 0.97553 0.65072 0.0
H520 H 0.06626 0.45247 0.25132 0.0
H521 H 0.16065 0.44538 0.26301 0.0
H522 H 0.165 0.49849 0.26348 0.0
H523 H 0.14244 0.54692 0.26264 0.0
H524 H 0.04842 0.55501 0.24013 0.0
H525 H 0.04362 0.50163 0.24245 0.0
C526 C 0.0878 0.46251 0.25308 0.0
C527 C 0.11303 0.44472 0.2585 0.0
C528 C 0.09028 0.49332 0.2518 0.0
C529 C 0.14074 0.45831 0.26123 0.0
C530 C 0.14333 0.48878 0.26077 0.0
C531 C 0.12087 0.53716 0.25667 0.0
C532 C 0.09587 0.5552 0.25098 0.0
C533 C 0.11828 0.50649 0.25641 0.0
C534 C 0.06809 0.54184 0.24573 0.0
C535 C 0.06531 0.51124 0.24644 0.0
H536 H 0.55057 0.06853 0.4925 0.0
H537 H 0.55298 0.16303 0.47387 0.0
H538 H 0.49968 0.16472 0.47104 0.0
H539 H 0.45238 0.13983 0.47494 0.0
H540 H 0.44898 0.0453 0.48616 0.0
H541 H 0.50256 0.04327 0.49157 0.0
C542 C 0.53945 0.08947 0.48709 0.0
C543 C 0.55595 0.11562 0.48443 0.0
C544 C 0.50855 0.09035 0.48453 0.0
C545 C 0.54102 0.14256 0.47807 0.0
C546 C 0.51045 0.14358 0.47579 0.0
C547 C 0.46324 0.11869 0.47718 0.0
C548 C 0.44648 0.09275 0.4795 0.0
C549 C 0.49401 0.11766 0.47916 0.0
C550 C 0.46119 0.06566 0.485 0.0
C551 C 0.49188 0.06447 0.48757 0.0
H552 H 0.93961 0.54969 0.76235 0.0
H553 H 0.84495 0.55084 0.75141 0.0
H554 H 0.84401 0.4976 0.74552 0.0
H555 H 0.86952 0.45075 0.74388 0.0
H556 H 0.96412 0.44839 0.74549 0.0
H557 H 0.96553 0.50198 0.7555 0.0
C558 C 0.91879 0.53831 0.75799 0.0
C559 C 0.89239 0.55445 0.75854 0.0
C560 C 0.91833 0.50743 0.75325 0.0
C561 C 0.86563 0.53917 0.75337 0.0
C562 C 0.86502 0.50864 0.74927 0.0
C563 C 0.89054 0.46185 0.74492 0.0
C564 C 0.91667 0.4454 0.74302 0.0
C565 C 0.89119 0.49257 0.74924 0.0
C566 C 0.94362 0.46037 0.74738 0.0
C567 C 0.94445 0.49106 0.75258 0.0
H568 H 0.54448 0.93144 0.96275 0.0
H569 H 0.54741 0.84218 0.05766 0.0
H570 H 0.49433 0.84031 0.05848 0.0
H571 H 0.44722 0.86347 0.03312 0.0
H572 H 0.44338 0.95497 0.96041 0.0
H573 H 0.49674 0.95621 0.94976 0.0
C574 C 0.5337 0.91167 0.98511 0.0
C575 C 0.55044 0.88686 0.0088 0.0
C576 C 0.50288 0.91102 0.98918 0.0
C577 C 0.53555 0.8614 0.03616 0.0
C578 C 0.50501 0.86035 0.03771 0.0
C579 C 0.45778 0.88404 0.01704 0.0
C580 C 0.44086 0.90913 0.99827 0.0
C581 C 0.48849 0.88501 0.0145 0.0
C582 C 0.45551 0.93509 0.97416 0.0
C583 C 0.48614 0.93593 0.96874 0.0
loop_
_geom_bond_atom_site_label_1
_geom_bond_atom_site_label_2
_geom_bond_distance
_geom_bond_site_symmetry_2
_ccdc_geom_bond_type
C0 C1 1.351 1_554 S
C0 N3 1.368 . S
C0 H5 0.931 . S
C1 C0 1.351 1_556 S
C1 N2 1.373 . S
C1 H29 0.930 . S
N2 C1 1.373 . S
N2 C4 1.340 . S
N3 C0 1.368 . S
N3 C4 1.321 1_554 S
N3 Co6 2.135 . S
C4 N2 1.340 . S
C4 N3 1.321 1_556 S
C4 H28 0.930 . S
H5 C0 0.931 . S
Co6 N3 2.135 . S
Co6 N9 2.121 . S
Co6 O14 2.055 . S
Co6 O17 2.039 . S
Co6 N20 2.140 . S
C7 O8 1.227 . S
C7 O17 1.265 . S
O8 C7 1.227 . S
N9 Co6 2.121 . S
N9 C11 1.375 . S
N9 C12 1.313 . S
C10 C11 1.338 . S
C10 N13 1.377 . S
C10 H30 0.930 . S
C11 N9 1.375 . S
C11 C10 1.338 . S
C11 H15 0.931 . S
C12 N9 1.313 . S
C12 N13 1.344 . S
C12 H16 0.930 . S
N13 C10 1.377 . S
N13 C12 1.344 . S
O14 Co6 2.055 . S
O14 C18 1.253 . S
H15 C11 0.931 . S
H16 C12 0.930 . S
O17 Co6 2.039 . S
O17 C7 1.265 . S
C18 O14 1.253 . S
C18 O19 1.227 . S
O19 C18 1.227 . S
N20 Co6 2.140 . S
N20 C23 1.346 . S
N20 C24 1.345 . S
C21 C22 1.387 . S
C21 C25 1.391 . S
C22 C21 1.387 . S
C22 C23 1.369 . S
C22 H31 0.929 . S
C23 N20 1.346 . S
C23 C22 1.369 . S
C23 H26 0.928 . S
C24 N20 1.345 . S
C24 C25 1.371 . S
C24 H27 0.931 . S
C25 C21 1.391 . S
C25 C24 1.371 . S
C25 H32 0.930 . S
H26 C23 0.928 . S
H27 C24 0.931 . S
H28 C4 0.930 . S
H29 C1 0.930 . S
H30 C10 0.930 . S
H31 C22 0.929 . S
H32 C25 0.930 . S
C33 C34 1.351 . S
C33 N36 1.368 . S
C33 H38 0.931 . S
C34 C33 1.351 . S
C34 N35 1.373 . S
C34 H62 0.930 . S
N35 C34 1.373 . S
N35 C37 1.340 . S
N36 C33 1.368 . S
N36 C37 1.321 . S
N36 Co39 2.135 . S
C37 N35 1.340 . S
C37 N36 1.321 . S
C37 H61 0.930 . S
H38 C33 0.931 . S
Co39 N36 2.135 . S
Co39 N42 2.121 . S
Co39 O47 2.055 . S
Co39 O50 2.039 . S
Co39 N53 2.140 . S
C40 O41 1.227 . S
C40 O50 1.265 . S
O41 C40 1.227 . S
N42 Co39 2.121 . S
N42 C44 1.375 . S
N42 C45 1.313 . S
C43 C44 1.338 . S
C43 N46 1.377 . S
C43 H63 0.930 . S
C44 N42 1.375 . S
C44 C43 1.338 . S
C44 H48 0.931 . S
C45 N42 1.313 . S
C45 N46 1.344 . S
C45 H49 0.930 . S
N46 C43 1.377 . S
N46 C45 1.344 . S
O47 Co39 2.055 . S
O47 C51 1.253 . S
H48 C44 0.931 . S
H49 C45 0.930 . S
O50 Co39 2.039 . S
O50 C40 1.265 . S
C51 O47 1.253 . S
C51 O52 1.227 . S
O52 C51 1.227 . S
N53 Co39 2.140 . S
N53 C56 1.346 . S
N53 C57 1.345 . S
C54 C55 1.387 . S
C54 C58 1.391 . S
C55 C54 1.387 . S
C55 C56 1.369 . S
C55 H64 0.929 . S
C56 N53 1.346 . S
C56 C55 1.369 . S
C56 H59 0.928 . S
C57 N53 1.345 . S
C57 C58 1.371 . S
C57 H60 0.931 . S
C58 C54 1.391 . S
C58 C57 1.371 . S
C58 H65 0.930 . S
H59 C56 0.928 . S
H60 C57 0.931 . S
H61 C37 0.930 . S
H62 C34 0.930 . S
H63 C43 0.930 . S
H64 C55 0.929 . S
H65 C58 0.930 . S
C66 C67 1.351 . S
C66 N69 1.368 . S
C66 H71 0.931 . S
C67 C66 1.351 . S
C67 N68 1.373 . S
C67 H95 0.930 . S
N68 C67 1.373 . S
N68 C70 1.340 . S
N69 C66 1.368 . S
N69 C70 1.321 . S
N69 Co72 2.135 . S
C70 N68 1.340 . S
C70 N69 1.321 . S
C70 H94 0.930 . S
H71 C66 0.931 . S
Co72 N69 2.135 . S
Co72 N75 2.121 . S
Co72 O80 2.055 . S
Co72 O83 2.039 . S
Co72 N86 2.140 . S
C73 O74 1.227 . S
C73 O83 1.265 . S
O74 C73 1.227 . S
N75 Co72 2.121 . S
N75 C77 1.375 . S
N75 C78 1.313 . S
C76 C77 1.338 . S
C76 N79 1.377 . S
C76 H96 0.930 . S
C77 N75 1.375 . S
C77 C76 1.338 . S
C77 H81 0.931 . S
C78 N75 1.313 . S
C78 N79 1.344 . S
C78 H82 0.930 . S
N79 C76 1.377 . S
N79 C78 1.344 . S
O80 Co72 2.055 . S
O80 C84 1.253 . S
H81 C77 0.931 . S
H82 C78 0.930 . S
O83 Co72 2.039 . S
O83 C73 1.265 . S
C84 O80 1.253 . S
C84 O85 1.227 . S
O85 C84 1.227 . S
N86 Co72 2.140 . S
N86 C89 1.346 . S
N86 C90 1.345 . S
C87 C88 1.387 . S
C87 C91 1.391 . S
C88 C87 1.387 . S
C88 C89 1.369 . S
C88 H97 0.929 . S
C89 N86 1.346 . S
C89 C88 1.369 . S
C89 H92 0.928 . S
C90 N86 1.345 . S
C90 C91 1.371 . S
C90 H93 0.931 . S
C91 C87 1.391 . S
C91 C90 1.371 . S
C91 H98 0.930 . S
H92 C89 0.928 . S
H93 C90 0.931 . S
H94 C70 0.930 . S
H95 C67 0.930 . S
H96 C76 0.930 . S
H97 C88 0.929 . S
H98 C91 0.930 . S
C99 C100 1.351 . S
C99 N102 1.368 . S
C99 H104 0.931 . S
C100 C99 1.351 . S
C100 N101 1.373 . S
C100 H128 0.930 . S
N101 C100 1.373 . S
N101 C103 1.340 . S
N102 C99 1.368 . S
N102 C103 1.321 . S
N102 Co105 2.135 . S
C103 N101 1.340 . S
C103 N102 1.321 . S
C103 H127 0.930 . S
H104 C99 0.931 . S
Co105 N102 2.135 . S
Co105 N108 2.121 1_556 S
Co105 O113 2.055 . S
Co105 O116 2.039 . S
Co105 N119 2.140 . S
C106 O107 1.227 . S
C106 O116 1.265 . S
O107 C106 1.227 . S
N108 Co105 2.121 1_554 S
N108 C110 1.375 . S
N108 C111 1.313 . S
C109 C110 1.338 . S
C109 N112 1.377 . S
C109 H129 0.930 . S
C110 N108 1.375 . S
C110 C109 1.338 . S
C110 H114 0.931 . S
C111 N108 1.313 . S
C111 N112 1.344 . S
C111 H115 0.930 . S
N112 C109 1.377 . S
N112 C111 1.344 . S
O113 Co105 2.055 . S
O113 C117 1.256 . S
H114 C110 0.931 . S
H115 C111 0.930 . S
O116 Co105 2.039 . S
O116 C106 1.265 . S
C117 O113 1.256 . S
C117 O118 1.226 1_556 S
O118 C117 1.226 1_554 S
N119 Co105 2.140 . S
N119 C122 1.346 . S
N119 C123 1.345 1_556 S
C120 C121 1.387 . S
C120 C124 1.391 1_556 S
C121 C120 1.387 . S
C121 C122 1.369 . S
C121 H130 0.929 . S
C122 N119 1.346 . S
C122 C121 1.369 . S
C122 H125 0.928 . S
C123 N119 1.345 1_554 S
C123 C124 1.371 . S
C123 H126 0.931 . S
C124 C120 1.391 1_554 S
C124 C123 1.371 . S
C124 H131 0.930 . S
H125 C122 0.928 . S
H126 C123 0.931 . S
H127 C103 0.930 . S
H128 C100 0.930 . S
H129 C109 0.930 . S
H130 C121 0.929 . S
H131 C124 0.930 . S
C132 C133 1.351 . S
C132 N135 1.368 . S
C132 H137 0.931 . S
C133 C132 1.351 . S
C133 N134 1.373 . S
C133 H161 0.930 . S
N134 C133 1.373 . S
N134 C136 1.340 . S
N135 C132 1.368 . S
N135 C136 1.321 . S
N135 Co138 2.135 . S
C136 N134 1.340 . S
C136 N135 1.321 . S
C136 H160 0.930 . S
H137 C132 0.931 . S
Co138 N135 2.135 . S
Co138 N141 2.121 . S
Co138 O146 2.055 . S
Co138 O149 2.039 . S
Co138 N152 2.140 . S
C139 O140 1.227 . S
C139 O149 1.265 . S
O140 C139 1.227 . S
N141 Co138 2.121 . S
N141 C143 1.375 . S
N141 C144 1.313 . S
C142 C143 1.338 . S
C142 N145 1.377 . S
C142 H162 0.930 . S
C143 N141 1.375 . S
C143 C142 1.338 . S
C143 H147 0.931 . S
C144 N141 1.313 . S
C144 N145 1.344 . S
C144 H148 0.930 . S
N145 C142 1.377 . S
N145 C144 1.344 . S
O146 Co138 2.055 . S
O146 C150 1.253 . S
H147 C143 0.931 . S
H148 C144 0.930 . S
O149 Co138 2.039 . S
O149 C139 1.265 . S
C150 O146 1.253 . S
C150 O151 1.227 . S
O151 C150 1.227 . S
N152 Co138 2.140 . S
N152 C155 1.346 . S
N152 C156 1.345 . S
C153 C154 1.387 . S
C153 C157 1.391 . S
C154 C153 1.387 . S
C154 C155 1.369 . S
C154 H163 0.929 . S
C155 N152 1.346 . S
C155 C154 1.369 . S
C155 H158 0.928 . S
C156 N152 1.345 . S
C156 C157 1.371 . S
C156 H159 0.931 . S
C157 C153 1.391 . S
C157 C156 1.371 . S
C157 H164 0.930 . S
H158 C155 0.928 . S
H159 C156 0.931 . S
H160 C136 0.930 . S
H161 C133 0.930 . S
H162 C142 0.930 . S
H163 C154 0.929 . S
H164 C157 0.930 . S
C165 C166 1.351 . S
C165 N168 1.368 . S
C165 H170 0.931 . S
C166 C165 1.351 . S
C166 N167 1.373 . S
C166 H194 0.930 . S
N167 C166 1.373 . S
N167 C169 1.340 . S
N168 C165 1.368 . S
N168 C169 1.321 . S
N168 Co171 2.135 . S
C169 N167 1.340 . S
C169 N168 1.321 . S
C169 H193 0.930 . S
H170 C165 0.931 . S
Co171 N168 2.135 . S
Co171 N174 2.121 . S
Co171 O179 2.055 . S
Co171 O182 2.039 . S
Co171 N185 2.140 . S
C172 O173 1.227 . S
C172 O182 1.265 . S
O173 C172 1.227 . S
N174 Co171 2.121 . S
N174 C176 1.375 . S
N174 C177 1.313 . S
C175 C176 1.338 . S
C175 N178 1.377 . S
C175 H195 0.930 . S
C176 N174 1.375 . S
C176 C175 1.338 . S
C176 H180 0.931 . S
C177 N174 1.313 . S
C177 N178 1.344 . S
C177 H181 0.930 . S
N178 C175 1.377 . S
N178 C177 1.344 . S
O179 Co171 2.055 . S
O179 C183 1.253 . S
H180 C176 0.931 . S
H181 C177 0.930 . S
O182 Co171 2.039 . S
O182 C172 1.265 . S
C183 O179 1.253 . S
C183 O184 1.227 . S
O184 C183 1.227 . S
N185 Co171 2.140 . S
N185 C188 1.346 . S
N185 C189 1.345 . S
C186 C187 1.387 . S
C186 C190 1.391 . S
C187 C186 1.387 . S
C187 C188 1.369 . S
C187 H196 0.929 . S
C188 N185 1.346 . S
C188 C187 1.369 . S
C188 H191 0.928 . S
C189 N185 1.345 . S
C189 C190 1.371 . S
C189 H192 0.931 . S
C190 C186 1.391 . S
C190 C189 1.371 . S
C190 H197 0.930 . S
H191 C188 0.928 . S
H192 C189 0.931 . S
H193 C169 0.930 . S
H194 C166 0.930 . S
H195 C175 0.930 . S
H196 C187 0.929 . S
H197 C190 0.930 . S
C198 C199 1.351 1_556 S
C198 N201 1.368 . S
C198 H203 0.931 . S
C199 C198 1.351 1_554 S
C199 N200 1.373 . S
C199 H227 0.930 . S
N200 C199 1.373 . S
N200 C202 1.340 . S
N201 C198 1.368 . S
N201 C202 1.321 1_556 S
N201 Co204 2.135 . S
C202 N200 1.340 . S
C202 N201 1.321 1_554 S
C202 H226 0.930 . S
H203 C198 0.931 . S
Co204 N201 2.135 . S
Co204 N207 2.121 . S
Co204 O212 2.055 . S
Co204 O215 2.039 . S
Co204 N218 2.140 . S
C205 O206 1.227 . S
C205 O215 1.265 . S
O206 C205 1.227 . S
N207 Co204 2.121 . S
N207 C209 1.375 . S
N207 C210 1.313 . S
C208 C209 1.338 . S
C208 N211 1.377 . S
C208 H228 0.930 . S
C209 N207 1.375 . S
C209 C208 1.338 . S
C209 H213 0.931 . S
C210 N207 1.313 . S
C210 N211 1.344 . S
C210 H214 0.930 . S
N211 C208 1.377 . S
N211 C210 1.344 . S
O212 Co204 2.055 . S
O212 C216 1.253 . S
H213 C209 0.931 . S
H214 C210 0.930 . S
O215 Co204 2.039 . S
O215 C205 1.265 . S
C216 O212 1.253 . S
C216 O217 1.227 . S
O217 C216 1.227 . S
N218 Co204 2.140 . S
N218 C221 1.346 . S
N218 C222 1.345 . S
C219 C220 1.387 . S
C219 C223 1.391 . S
C220 C219 1.387 . S
C220 C221 1.369 . S
C220 H229 0.929 . S
C221 N218 1.346 . S
C221 C220 1.369 . S
C221 H224 0.928 . S
C222 N218 1.345 . S
C222 C223 1.371 . S
C222 H225 0.931 . S
C223 C219 1.391 . S
C223 C222 1.371 . S
C223 H230 0.930 . S
H224 C221 0.928 . S
H225 C222 0.931 . S
H226 C202 0.930 . S
H227 C199 0.930 . S
H228 C208 0.930 . S
H229 C220 0.929 . S
H230 C223 0.930 . S
C231 C232 1.351 . S
C231 N234 1.368 . S
C231 H236 0.931 . S
C232 C231 1.351 . S
C232 N233 1.373 . S
C232 H260 0.930 . S
N233 C232 1.373 . S
N233 C235 1.340 . S
N234 C231 1.368 . S
N234 C235 1.321 . S
N234 Co237 2.135 . S
C235 N233 1.340 . S
C235 N234 1.321 . S
C235 H259 0.930 . S
H236 C231 0.931 . S
Co237 N234 2.135 . S
Co237 N240 2.121 1_554 S
Co237 O245 2.055 . S
Co237 O248 2.039 . S
Co237 N251 2.140 . S
C238 O239 1.227 . S
C238 O248 1.265 . S
O239 C238 1.227 . S
N240 Co237 2.121 1_556 S
N240 C242 1.375 . S
N240 C243 1.313 . S
C241 C242 1.338 . S
C241 N244 1.377 . S
C241 H261 0.930 . S
C242 N240 1.375 . S
C242 C241 1.338 . S
C242 H246 0.931 . S
C243 N240 1.313 . S
C243 N244 1.344 . S
C243 H247 0.930 . S
N244 C241 1.377 . S
N244 C243 1.344 . S
O245 Co237 2.055 . S
O245 C249 1.256 . S
H246 C242 0.931 . S
H247 C243 0.930 . S
O248 Co237 2.039 . S
O248 C238 1.265 . S
C249 O245 1.256 . S
C249 O250 1.226 1_554 S
O250 C249 1.226 1_556 S
N251 Co237 2.140 . S
N251 C254 1.346 . S
N251 C255 1.345 1_554 S
C252 C253 1.387 . S
C252 C256 1.391 1_554 S
C253 C252 1.387 . S
C253 C254 1.369 . S
C253 H262 0.929 . S
C254 N251 1.346 . S
C254 C253 1.369 . S
C254 H257 0.928 . S
C255 N251 1.345 1_556 S
C255 C256 1.371 . S
C255 H258 0.931 . S
C256 C252 1.391 1_556 S
C256 C255 1.371 . S
C256 H263 0.930 . S
H257 C254 0.928 . S
H258 C255 0.931 . S
H259 C235 0.930 . S
H260 C232 0.930 . S
H261 C241 0.930 . S
H262 C253 0.929 . S
H263 C256 0.930 . S
H264 C270 0.930 . S
H265 C273 0.930 . S
H266 C274 0.930 . S
H267 C275 0.930 . S
H268 C278 0.930 . S
H269 C279 0.930 . S
C270 H264 0.930 . S
C270 C271 1.355 . S
C270 C272 1.415 . S
C271 C270 1.355 . S
C271 C273 1.419 . S
C272 C270 1.415 . S
C272 C277 1.425 . S
C272 C279 1.409 . S
C273 H265 0.930 . S
C273 C271 1.419 . S
C273 C274 1.362 . S
C274 H266 0.930 . S
C274 C273 1.362 . S
C274 C277 1.409 . S
C275 H267 0.930 . S
C275 C276 1.355 . S
C275 C277 1.415 . S
C276 C275 1.355 . S
C276 C278 1.419 . S
C277 C272 1.425 . S
C277 C274 1.409 . S
C277 C275 1.415 . S
C278 H268 0.930 . S
C278 C276 1.419 . S
C278 C279 1.362 . S
C279 H269 0.930 . S
C279 C272 1.409 . S
C279 C278 1.362 . S
H280 C286 0.930 . S
H281 C289 0.930 . S
H282 C290 0.930 . S
H283 C291 0.930 . S
H284 C294 0.930 . S
H285 C295 0.930 . S
C286 H280 0.930 . S
C286 C287 1.355 . S
C286 C288 1.415 . S
C287 C286 1.355 . S
C287 C289 1.419 . S
C288 C286 1.415 . S
C288 C293 1.425 . S
C288 C295 1.409 . S
C289 H281 0.930 . S
C289 C287 1.419 . S
C289 C290 1.362 . S
C290 H282 0.930 . S
C290 C289 1.362 . S
C290 C293 1.409 . S
C291 H283 0.930 . S
C291 C292 1.355 . S
C291 C293 1.415 . S
C292 C291 1.355 . S
C292 C294 1.419 . S
C293 C288 1.425 . S
C293 C290 1.409 . S
C293 C291 1.415 . S
C294 H284 0.930 . S
C294 C292 1.419 . S
C294 C295 1.362 . S
C295 H285 0.930 . S
C295 C288 1.409 . S
C295 C294 1.362 . S
H296 C302 0.930 . S
H297 C305 0.930 . S
H298 C306 0.930 . S
H299 C307 0.930 . S
H300 C310 0.930 . S
H301 C311 0.930 . S
C302 H296 0.930 . S
C302 C303 1.355 . S
C302 C304 1.415 . S
C303 C302 1.355 . S
C303 C305 1.419 . S
C304 C302 1.415 . S
C304 C309 1.425 . S
C304 C311 1.409 . S
C305 H297 0.930 . S
C305 C303 1.419 . S
C305 C306 1.362 . S
C306 H298 0.930 . S
C306 C305 1.362 . S
C306 C309 1.409 . S
C307 H299 0.930 . S
C307 C308 1.355 . S
C307 C309 1.415 . S
C308 C307 1.355 . S
C308 C310 1.419 1_556 S
C309 C304 1.425 . S
C309 C306 1.409 . S
C309 C307 1.415 . S
C310 H300 0.930 . S
C310 C308 1.419 1_554 S
C310 C311 1.362 1_554 S
C311 H301 0.930 . S
C311 C304 1.409 . S
C311 C310 1.362 1_556 S
H312 C318 0.930 . S
H313 C321 0.930 . S
H314 C322 0.930 . S
H315 C323 0.930 . S
H316 C326 0.930 . S
H317 C327 0.930 . S
C318 H312 0.930 . S
C318 C319 1.355 . S
C318 C320 1.415 . S
C319 C318 1.355 . S
C319 C321 1.419 . S
C320 C318 1.415 . S
C320 C325 1.425 . S
C320 C327 1.409 . S
C321 H313 0.930 . S
C321 C319 1.419 . S
C321 C322 1.362 . S
C322 H314 0.930 . S
C322 C321 1.362 . S
C322 C325 1.409 . S
C323 H315 0.930 . S
C323 C324 1.355 . S
C323 C325 1.415 . S
C324 C323 1.355 . S
C324 C326 1.419 . S
C325 C320 1.425 . S
C325 C322 1.409 . S
C325 C323 1.415 . S
C326 H316 0.930 . S
C326 C324 1.419 . S
C326 C327 1.362 . S
C327 H317 0.930 . S
C327 C320 1.409 . S
C327 C326 1.362 . S
H328 C334 0.930 . S
H329 C337 0.930 . S
H330 C338 0.930 . S
H331 C339 0.930 . S
H332 C342 0.930 . S
H333 C343 0.930 . S
C334 H328 0.930 . S
C334 C335 1.355 . S
C334 C336 1.415 . S
C335 C334 1.355 . S
C335 C337 1.419 . S
C336 C334 1.415 . S
C336 C341 1.425 . S
C336 C343 1.409 . S
C337 H329 0.930 . S
C337 C335 1.419 . S
C337 C338 1.362 . S
C338 H330 0.930 . S
C338 C337 1.362 . S
C338 C341 1.409 . S
C339 H331 0.930 . S
C339 C340 1.355 . S
C339 C341 1.415 . S
C340 C339 1.355 . S
C340 C342 1.419 . S
C341 C336 1.425 . S
C341 C338 1.409 . S
C341 C339 1.415 . S
C342 H332 0.930 . S
C342 C340 1.419 . S
C342 C343 1.362 . S
C343 H333 0.930 . S
C343 C336 1.409 . S
C343 C342 1.362 . S
H344 C350 0.930 . S
H345 C353 0.930 . S
H346 C354 0.930 1_556 S
H347 C355 0.930 . S
H348 C358 0.930 . S
H349 C359 0.930 . S
C350 H344 0.930 . S
C350 C351 1.355 . S
C350 C352 1.415 1_554 S
C351 C350 1.355 . S
C351 C353 1.419 . S
C352 C350 1.415 1_556 S
C352 C357 1.425 . S
C352 C359 1.409 . S
C353 H345 0.930 . S
C353 C351 1.419 . S
C353 C354 1.362 . S
C354 H346 0.930 1_554 S
C354 C353 1.362 . S
C354 C357 1.409 1_554 S
C355 H347 0.930 . S
C355 C356 1.355 . S
C355 C357 1.415 . S
C356 C355 1.355 . S
C356 C358 1.419 . S
C357 C352 1.425 . S
C357 C354 1.409 1_556 S
C357 C355 1.415 . S
C358 H348 0.930 . S
C358 C356 1.419 . S
C358 C359 1.362 . S
C359 H349 0.930 . S
C359 C352 1.409 . S
C359 C358 1.362 . S
H360 C366 0.930 . S
H361 C369 0.931 . S
H362 C370 0.930 . S
H363 C371 0.930 . S
H364 C374 0.930 . S
H365 C375 0.930 . S
C366 H360 0.930 . S
C366 C367 1.355 . S
C366 C368 1.415 . S
C367 C366 1.355 . S
C367 C369 1.419 . S
C368 C366 1.415 . S
C368 C373 1.425 . S
C368 C375 1.409 . S
C369 H361 0.931 . S
C369 C367 1.419 . S
C369 C370 1.362 . S
C370 H362 0.930 . S
C370 C369 1.362 . S
C370 C373 1.409 . S
C371 H363 0.930 . S
C371 C372 1.355 . S
C371 C373 1.415 . S
C372 C371 1.355 . S
C372 C374 1.419 . S
C373 C368 1.425 . S
C373 C370 1.409 . S
C373 C371 1.415 . S
C374 H364 0.930 . S
C374 C372 1.419 . S
C374 C375 1.362 . S
C375 H365 0.930 . S
C375 C368 1.409 . S
C375 C374 1.362 . S
H376 C382 0.930 . S
H377 C385 0.930 . S
H378 C386 0.930 . S
H379 C387 0.930 . S
H380 C390 0.930 . S
H381 C391 0.930 . S
C382 H376 0.930 . S
C382 C383 1.355 . S
C382 C384 1.415 . S
C383 C382 1.355 . S
C383 C385 1.419 . S
C384 C382 1.415 . S
C384 C389 1.425 . S
C384 C391 1.409 . S
C385 H377 0.930 . S
C385 C383 1.419 . S
C385 C386 1.362 . S
C386 H378 0.930 . S
C386 C385 1.362 . S
C386 C389 1.409 . S
C387 H379 0.930 . S
C387 C388 1.355 . S
C387 C389 1.415 . S
C388 C387 1.355 . S
C388 C390 1.419 . S
C389 C384 1.425 . S
C389 C386 1.409 . S
C389 C387 1.415 . S
C390 H380 0.930 . S
C390 C388 1.419 . S
C390 C391 1.362 . S
C391 H381 0.930 . S
C391 C384 1.409 . S
C391 C390 1.362 . S
H392 C398 0.930 . S
H393 C401 0.930 . S
H394 C402 0.930 . S
H395 C403 0.930 . S
H396 C406 0.930 . S
H397 C407 0.930 . S
C398 H392 0.930 . S
C398 C399 1.355 . S
C398 C400 1.415 . S
C399 C398 1.355 . S
C399 C401 1.419 . S
C400 C398 1.415 . S
C400 C405 1.425 . S
C400 C407 1.409 . S
C401 H393 0.930 . S
C401 C399 1.419 . S
C401 C402 1.362 . S
C402 H394 0.930 . S
C402 C401 1.362 . S
C402 C405 1.409 . S
C403 H395 0.930 . S
C403 C404 1.355 . S
C403 C405 1.415 . S
C404 C403 1.355 . S
C404 C406 1.419 . S
C405 C400 1.425 . S
C405 C402 1.409 . S
C405 C403 1.415 . S
C406 H396 0.930 . S
C406 C404 1.419 . S
C406 C407 1.362 . S
C407 H397 0.930 . S
C407 C400 1.409 . S
C407 C406 1.362 . S
H408 C414 0.930 . S
H409 C417 0.930 . S
H410 C418 0.930 . S
H411 C419 0.930 . S
H412 C422 0.930 . S
H413 C423 0.930 . S
C414 H408 0.930 . S
C414 C415 1.355 . S
C414 C416 1.415 . S
C415 C414 1.355 . S
C415 C417 1.419 . S
C416 C414 1.415 . S
C416 C421 1.425 . S
C416 C423 1.409 1_554 S
C417 H409 0.930 . S
C417 C415 1.419 . S
C417 C418 1.362 . S
C418 H410 0.930 . S
C418 C417 1.362 . S
C418 C421 1.409 . S
C419 H411 0.930 . S
C419 C420 1.355 . S
C419 C421 1.415 1_556 S
C420 C419 1.355 . S
C420 C422 1.419 . S
C421 C416 1.425 . S
C421 C418 1.409 . S
C421 C419 1.415 1_554 S
C422 H412 0.930 . S
C422 C420 1.419 . S
C422 C423 1.362 . S
C423 H413 0.930 . S
C423 C416 1.409 1_556 S
C423 C422 1.362 . S
H424 C430 0.930 . S
H425 C433 0.930 . S
H426 C434 0.930 . S
H427 C435 0.930 . S
H428 C438 0.930 . S
H429 C439 0.930 . S
C430 H424 0.930 . S
C430 C431 1.355 . S
C430 C432 1.415 . S
C431 C430 1.355 . S
C431 C433 1.419 . S
C432 C430 1.415 . S
C432 C437 1.425 . S
C432 C439 1.409 . S
C433 H425 0.930 . S
C433 C431 1.419 . S
C433 C434 1.362 . S
C434 H426 0.930 . S
C434 C433 1.362 . S
C434 C437 1.409 . S
C435 H427 0.930 . S
C435 C436 1.355 . S
C435 C437 1.415 . S
C436 C435 1.355 . S
C436 C438 1.419 . S
C437 C432 1.425 . S
C437 C434 1.409 . S
C437 C435 1.415 . S
C438 H428 0.930 . S
C438 C436 1.419 . S
C438 C439 1.362 . S
C439 H429 0.930 . S
C439 C432 1.409 . S
C439 C438 1.362 . S
H440 C446 0.930 . S
H441 C449 0.930 . S
H442 C450 0.930 . S
H443 C451 0.930 . S
H444 C454 0.930 . S
H445 C455 0.930 . S
C446 H440 0.930 . S
C446 C447 1.355 . S
C446 C448 1.415 . S
C447 C446 1.355 . S
C447 C449 1.419 . S
C448 C446 1.415 . S
C448 C453 1.425 . S
C448 C455 1.409 . S
C449 H441 0.930 . S
C449 C447 1.419 . S
C449 C450 1.362 . S
C450 H442 0.930 . S
C450 C449 1.362 . S
C450 C453 1.409 . S
C451 H443 0.930 . S
C451 C452 1.355 . S
C451 C453 1.415 . S
C452 C451 1.355 . S
C452 C454 1.419 . S
C453 C448 1.425 . S
C453 C450 1.409 . S
C453 C451 1.415 . S
C454 H444 0.930 . S
C454 C452 1.419 . S
C454 C455 1.362 . S
C455 H445 0.930 . S
C455 C448 1.409 . S
C455 C454 1.362 . S
H456 C462 0.933 . S
H457 C465 0.930 . S
H458 C466 0.930 . S
H459 C467 0.933 . S
H460 C470 0.930 . S
H461 C471 0.930 . S
C462 H456 0.933 . S
C462 C463 1.355 . S
C462 C464 1.415 1_554 S
C463 C462 1.355 . S
C463 C465 1.419 . S
C464 C462 1.415 1_556 S
C464 C469 1.425 1_456 S
C464 C471 1.409 . S
C465 H457 0.930 . S
C465 C463 1.419 . S
C465 C466 1.362 1_455 S
C466 H458 0.930 . S
C466 C465 1.362 1_655 S
C466 C469 1.409 . S
C467 H459 0.933 . S
C467 C468 1.355 . S
C467 C469 1.415 1_556 S
C468 C467 1.355 . S
C468 C470 1.419 . S
C469 C464 1.425 1_654 S
C469 C466 1.409 . S
C469 C467 1.415 1_554 S
C470 H460 0.930 . S
C470 C468 1.419 . S
C470 C471 1.362 1_655 S
C471 H461 0.930 . S
C471 C464 1.409 . S
C471 C470 1.362 1_455 S
H472 C478 0.930 . S
H473 C481 0.930 . S
H474 C482 0.930 . S
H475 C483 0.930 . S
H476 C486 0.930 . S
H477 C487 0.930 . S
C478 H472 0.930 . S
C478 C479 1.355 . S
C478 C480 1.415 1_565 S
C479 C478 1.355 . S
C479 C481 1.419 . S
C480 C478 1.415 1_545 S
C480 C485 1.425 1_545 S
C480 C487 1.409 . S
C481 H473 0.930 . S
C481 C479 1.419 . S
C481 C482 1.362 . S
C482 H474 0.930 . S
C482 C481 1.362 . S
C482 C485 1.409 . S
C483 H475 0.930 . S
C483 C484 1.355 . S
C483 C485 1.415 1_545 S
C484 C483 1.355 . S
C484 C486 1.419 . S
C485 C480 1.425 1_565 S
C485 C482 1.409 . S
C485 C483 1.415 1_565 S
C486 H476 0.930 . S
C486 C484 1.419 . S
C486 C487 1.362 . S
C487 H477 0.930 . S
C487 C480 1.409 . S
C487 C486 1.362 . S
H488 C494 0.930 . S
H489 C497 0.930 . S
H490 C498 0.930 . S
H491 C499 0.930 . S
H492 C502 0.930 . S
H493 C503 0.930 . S
C494 H488 0.930 . S
C494 C495 1.355 . S
C494 C496 1.415 1_455 S
C495 C494 1.355 . S
C495 C497 1.419 . S
C496 C494 1.415 1_655 S
C496 C501 1.425 1_655 S
C496 C503 1.409 . S
C497 H489 0.930 . S
C497 C495 1.419 . S
C497 C498 1.362 . S
C498 H490 0.930 . S
C498 C497 1.362 . S
C498 C501 1.409 . S
C499 H491 0.930 . S
C499 C500 1.355 . S
C499 C501 1.415 1_655 S
C500 C499 1.355 . S
C500 C502 1.419 . S
C501 C496 1.425 1_455 S
C501 C498 1.409 . S
C501 C499 1.415 1_455 S
C502 H492 0.930 . S
C502 C500 1.419 . S
C502 C503 1.362 . S
C503 H493 0.930 . S
C503 C496 1.409 . S
C503 C502 1.362 . S
H504 C510 0.930 . S
H505 C513 0.930 . S
H506 C514 0.929 . S
H507 C515 0.930 . S
H508 C518 0.930 . S
H509 C519 0.929 . S
C510 H504 0.930 . S
C510 C511 1.355 . S
C510 C512 1.415 . S
C511 C510 1.355 . S
C511 C513 1.419 . S
C512 C510 1.415 . S
C512 C517 1.425 1_565 S
C512 C519 1.408 . S
C513 H505 0.930 . S
C513 C511 1.419 . S
C513 C514 1.365 1_565 S
C514 H506 0.929 . S
C514 C513 1.365 1_545 S
C514 C517 1.408 . S
C515 H507 0.930 . S
C515 C516 1.355 . S
C515 C517 1.415 . S
C516 C515 1.355 . S
C516 C518 1.419 . S
C517 C512 1.425 1_545 S
C517 C514 1.408 . S
C517 C515 1.415 . S
C518 H508 0.930 . S
C518 C516 1.419 . S
C518 C519 1.365 1_545 S
C519 H509 0.929 . S
C519 C512 1.408 . S
C519 C518 1.365 1_565 S
H520 C526 0.930 . S
H521 C529 0.930 . S
H522 C530 0.930 . S
H523 C531 0.930 . S
H524 C534 0.930 . S
H525 C535 0.930 . S
C526 H520 0.930 . S
C526 C527 1.355 . S
C526 C528 1.415 . S
C527 C526 1.355 . S
C527 C529 1.419 . S
C528 C526 1.415 . S
C528 C533 1.425 . S
C528 C535 1.409 . S
C529 H521 0.930 . S
C529 C527 1.419 . S
C529 C530 1.362 . S
C530 H522 0.930 . S
C530 C529 1.362 . S
C530 C533 1.409 . S
C531 H523 0.930 . S
C531 C532 1.355 . S
C531 C533 1.415 . S
C532 C531 1.355 . S
C532 C534 1.419 . S
C533 C528 1.425 . S
C533 C530 1.409 . S
C533 C531 1.415 . S
C534 H524 0.930 . S
C534 C532 1.419 . S
C534 C535 1.362 . S
C535 H525 0.930 . S
C535 C528 1.409 . S
C535 C534 1.362 . S
H536 C542 0.930 . S
H537 C545 0.930 . S
H538 C546 0.930 . S
H539 C547 0.930 . S
H540 C550 0.930 . S
H541 C551 0.930 . S
C542 H536 0.930 . S
C542 C543 1.355 . S
C542 C544 1.415 . S
C543 C542 1.355 . S
C543 C545 1.419 . S
C544 C542 1.415 . S
C544 C549 1.425 . S
C544 C551 1.409 . S
C545 H537 0.930 . S
C545 C543 1.419 . S
C545 C546 1.362 . S
C546 H538 0.930 . S
C546 C545 1.362 . S
C546 C549 1.409 . S
C547 H539 0.930 . S
C547 C548 1.355 . S
C547 C549 1.415 . S
C548 C547 1.355 . S
C548 C550 1.419 . S
C549 C544 1.425 . S
C549 C546 1.409 . S
C549 C547 1.415 . S
C550 H540 0.930 . S
C550 C548 1.419 . S
C550 C551 1.362 . S
C551 H541 0.930 . S
C551 C544 1.409 . S
C551 C550 1.362 . S
H552 C558 0.930 . S
H553 C561 0.930 . S
H554 C562 0.930 . S
H555 C563 0.930 . S
H556 C566 0.930 . S
H557 C567 0.930 . S
C558 H552 0.930 . S
C558 C559 1.355 . S
C558 C560 1.415 . S
C559 C558 1.355 . S
C559 C561 1.419 . S
C560 C558 1.415 . S
C560 C565 1.425 . S
C560 C567 1.409 . S
C561 H553 0.930 . S
C561 C559 1.419 . S
C561 C562 1.362 . S
C562 H554 0.930 . S
C562 C561 1.362 . S
C562 C565 1.409 . S
C563 H555 0.930 . S
C563 C564 1.355 . S
C563 C565 1.415 . S
C564 C563 1.355 . S
C564 C566 1.419 . S
C565 C560 1.425 . S
C565 C562 1.409 . S
C565 C563 1.415 . S
C566 H556 0.930 . S
C566 C564 1.419 . S
C566 C567 1.362 . S
C567 H557 0.930 . S
C567 C560 1.409 . S
C567 C566 1.362 . S
H568 C574 0.930 . S
H569 C577 0.930 . S
H570 C578 0.930 . S
H571 C579 0.930 . S
H572 C582 0.930 . S
H573 C583 0.930 . S
C574 H568 0.930 . S
C574 C575 1.355 . S
C574 C576 1.415 . S
C575 C574 1.355 . S
C575 C577 1.419 1_554 S
C576 C574 1.415 . S
C576 C581 1.425 1_554 S
C576 C583 1.409 . S
C577 H569 0.930 . S
C577 C575 1.419 1_556 S
C577 C578 1.362 . S
C578 H570 0.930 . S
C578 C577 1.362 . S
C578 C581 1.409 . S
C579 H571 0.930 . S
C579 C580 1.355 . S
C579 C581 1.415 . S
C580 C579 1.355 . S
C580 C582 1.419 1_556 S
C581 C576 1.425 1_556 S
C581 C578 1.409 . S
C581 C579 1.415 . S
C582 H572 0.930 . S
C582 C580 1.419 1_554 S
C582 C583 1.362 . S
C583 H573 0.930 . S
C583 C576 1.409 . S
C583 C582 1.362 . S
C271 C183 1.288 . S
C276 C18 1.290 . S
C287 C216 1.284 . S
C292 C51 1.282 . S
C303 C84 1.302 . S
C308 C249 1.297 1_556 S
C319 C150 1.297 . S
C324 C117 1.296 1_554 S
C335 N13 1.190 . S
C340 N2 1.188 . S
C351 N35 1.212 . S
C356 N46 1.211 . S
C367 N79 1.173 1_554 S
C372 N68 1.173 . S
C383 N112 1.172 . S
C388 N101 1.171 . S
C399 N145 1.202 1_556 S
C404 N134 1.203 . S
C415 N178 1.181 . S
C420 N167 1.181 . S
C431 N211 1.173 . S
C436 N200 1.172 . S
C447 N233 1.211 . S
C452 N244 1.210 . S
C463 C7 1.434 . S
C468 C205 1.471 . S
C479 C238 1.394 . S
C484 C40 1.410 . S
C495 C139 1.419 . S
C500 C73 1.393 . S
C511 C106 1.419 . S
C516 C172 1.464 . S
C527 C21 1.555 . S
C532 C153 1.536 . S
C543 C54 1.561 . S
C548 C186 1.537 . S
C559 C87 1.568 . S
C564 C219 1.546 . S
C575 C252 1.563 . S
C580 C120 1.538 . S
