# Generated by pormake.
# Topology umr, (4)-cn, num edge types: 1
# Building blocks:
#     Node 0, Type 0, BuildingBlock: QUQFOY_clean_sbu_3, # of connection points: 4
#     Node 1, Type 0, BuildingBlock: QUQFOY_clean_sbu_3, # of connection points: 4
#     Node 2, Type 0, BuildingBlock: QUQFOY_clean_sbu_3, # of connection points: 4
#     Node 3, Type 0, BuildingBlock: QUQFOY_clean_sbu_3, # of connection points: 4
#     Node 4, Type 0, BuildingBlock: QUQFOY_clean_sbu_3, # of connection points: 4
#     Node 5, Type 0, BuildingBlock: QUQFOY_clean_sbu_3, # of connection points: 4
#     Node 6, Type 0, BuildingBlock: QUQFOY_clean_sbu_3, # of connection points: 4
#     Node 7, Type 0, BuildingBlock: QUQFOY_clean_sbu_3, # of connection points: 4
#     Node 8, Type 0, BuildingBlock: QUQFOY_clean_sbu_3, # of connection points: 4
#     Node 9, Type 0, BuildingBlock: QUQFOY_clean_sbu_3, # of connection points: 4
#     Node 10, Type 0, BuildingBlock: QUQFOY_clean_sbu_3, # of connection points: 4
#     Node 11, Type 0, BuildingBlock: QUQFOY_clean_sbu_3, # of connection points: 4
#     Node 12, Type 0, BuildingBlock: QUQFOY_clean_sbu_3, # of connection points: 4
#     Node 13, Type 0, BuildingBlock: QUQFOY_clean_sbu_3, # of connection points: 4
#     Node 14, Type 0, BuildingBlock: QUQFOY_clean_sbu_3, # of connection points: 4
#     Node 15, Type 0, BuildingBlock: QUQFOY_clean_sbu_3, # of connection points: 4
#     Node 16, Type 0, BuildingBlock: QUQFOY_clean_sbu_3, # of connection points: 4
#     Node 17, Type 0, BuildingBlock: QUQFOY_clean_sbu_3, # of connection points: 4
#     Node 18, Type 0, BuildingBlock: QUQFOY_clean_sbu_3, # of connection points: 4
#     Node 19, Type 0, BuildingBlock: QUQFOY_clean_sbu_3, # of connection points: 4
#     Node 20, Type 0, BuildingBlock: QUQFOY_clean_sbu_3, # of connection points: 4
#     Node 21, Type 0, BuildingBlock: QUQFOY_clean_sbu_3, # of connection points: 4
#     Node 22, Type 0, BuildingBlock: QUQFOY_clean_sbu_3, # of connection points: 4
#     Node 23, Type 0, BuildingBlock: QUQFOY_clean_sbu_3, # of connection points: 4
#     Node 24, Type 0, BuildingBlock: QUQFOY_clean_sbu_3, # of connection points: 4
#     Node 25, Type 0, BuildingBlock: QUQFOY_clean_sbu_3, # of connection points: 4
#     Node 26, Type 0, BuildingBlock: QUQFOY_clean_sbu_3, # of connection points: 4
#     Node 27, Type 0, BuildingBlock: QUQFOY_clean_sbu_3, # of connection points: 4
#     Node 28, Type 0, BuildingBlock: QUQFOY_clean_sbu_3, # of connection points: 4
#     Node 29, Type 0, BuildingBlock: QUQFOY_clean_sbu_3, # of connection points: 4
#     Node 30, Type 0, BuildingBlock: QUQFOY_clean_sbu_3, # of connection points: 4
#     Node 31, Type 0, BuildingBlock: QUQFOY_clean_sbu_3, # of connection points: 4
#     Edge 32, Type (0, 0), BuildingBlock: XIVTED_clean_linker_0, # of connection points: 2
#     Edge 33, Type (0, 0), BuildingBlock: XIVTED_clean_linker_0, # of connection points: 2
#     Edge 34, Type (0, 0), BuildingBlock: XIVTED_clean_linker_0, # of connection points: 2
#     Edge 35, Type (0, 0), BuildingBlock: XIVTED_clean_linker_0, # of connection points: 2
#     Edge 36, Type (0, 0), BuildingBlock: XIVTED_clean_linker_0, # of connection points: 2
#     Edge 37, Type (0, 0), BuildingBlock: XIVTED_clean_linker_0, # of connection points: 2
#     Edge 38, Type (0, 0), BuildingBlock: XIVTED_clean_linker_0, # of connection points: 2
#     Edge 39, Type (0, 0), BuildingBlock: XIVTED_clean_linker_0, # of connection points: 2
#     Edge 40, Type (0, 0), BuildingBlock: XIVTED_clean_linker_0, # of connection points: 2
#     Edge 41, Type (0, 0), BuildingBlock: XIVTED_clean_linker_0, # of connection points: 2
#     Edge 42, Type (0, 0), BuildingBlock: XIVTED_clean_linker_0, # of connection points: 2
#     Edge 43, Type (0, 0), BuildingBlock: XIVTED_clean_linker_0, # of connection points: 2
#     Edge 44, Type (0, 0), BuildingBlock: XIVTED_clean_linker_0, # of connection points: 2
#     Edge 45, Type (0, 0), BuildingBlock: XIVTED_clean_linker_0, # of connection points: 2
#     Edge 46, Type (0, 0), BuildingBlock: XIVTED_clean_linker_0, # of connection points: 2
#     Edge 47, Type (0, 0), BuildingBlock: XIVTED_clean_linker_0, # of connection points: 2
#     Edge 48, Type (0, 0), BuildingBlock: XIVTED_clean_linker_0, # of connection points: 2
#     Edge 49, Type (0, 0), BuildingBlock: XIVTED_clean_linker_0, # of connection points: 2
#     Edge 50, Type (0, 0), BuildingBlock: XIVTED_clean_linker_0, # of connection points: 2
#     Edge 51, Type (0, 0), BuildingBlock: XIVTED_clean_linker_0, # of connection points: 2
#     Edge 52, Type (0, 0), BuildingBlock: XIVTED_clean_linker_0, # of connection points: 2
#     Edge 53, Type (0, 0), BuildingBlock: XIVTED_clean_linker_0, # of connection points: 2
#     Edge 54, Type (0, 0), BuildingBlock: XIVTED_clean_linker_0, # of connection points: 2
#     Edge 55, Type (0, 0), BuildingBlock: XIVTED_clean_linker_0, # of connection points: 2
#     Edge 56, Type (0, 0), BuildingBlock: XIVTED_clean_linker_0, # of connection points: 2
#     Edge 57, Type (0, 0), BuildingBlock: XIVTED_clean_linker_0, # of connection points: 2
#     Edge 58, Type (0, 0), BuildingBlock: XIVTED_clean_linker_0, # of connection points: 2
#     Edge 59, Type (0, 0), BuildingBlock: XIVTED_clean_linker_0, # of connection points: 2
#     Edge 60, Type (0, 0), BuildingBlock: XIVTED_clean_linker_0, # of connection points: 2
#     Edge 61, Type (0, 0), BuildingBlock: XIVTED_clean_linker_0, # of connection points: 2
#     Edge 62, Type (0, 0), BuildingBlock: XIVTED_clean_linker_0, # of connection points: 2
#     Edge 63, Type (0, 0), BuildingBlock: XIVTED_clean_linker_0, # of connection points: 2
#     Edge 64, Type (0, 0), BuildingBlock: XIVTED_clean_linker_0, # of connection points: 2
#     Edge 65, Type (0, 0), BuildingBlock: XIVTED_clean_linker_0, # of connection points: 2
#     Edge 66, Type (0, 0), BuildingBlock: XIVTED_clean_linker_0, # of connection points: 2
#     Edge 67, Type (0, 0), BuildingBlock: XIVTED_clean_linker_0, # of connection points: 2
#     Edge 68, Type (0, 0), BuildingBlock: XIVTED_clean_linker_0, # of connection points: 2
#     Edge 69, Type (0, 0), BuildingBlock: XIVTED_clean_linker_0, # of connection points: 2
#     Edge 70, Type (0, 0), BuildingBlock: XIVTED_clean_linker_0, # of connection points: 2
#     Edge 71, Type (0, 0), BuildingBlock: XIVTED_clean_linker_0, # of connection points: 2
#     Edge 72, Type (0, 0), BuildingBlock: XIVTED_clean_linker_0, # of connection points: 2
#     Edge 73, Type (0, 0), BuildingBlock: XIVTED_clean_linker_0, # of connection points: 2
#     Edge 74, Type (0, 0), BuildingBlock: XIVTED_clean_linker_0, # of connection points: 2
#     Edge 75, Type (0, 0), BuildingBlock: XIVTED_clean_linker_0, # of connection points: 2
#     Edge 76, Type (0, 0), BuildingBlock: XIVTED_clean_linker_0, # of connection points: 2
#     Edge 77, Type (0, 0), BuildingBlock: XIVTED_clean_linker_0, # of connection points: 2
#     Edge 78, Type (0, 0), BuildingBlock: XIVTED_clean_linker_0, # of connection points: 2
#     Edge 79, Type (0, 0), BuildingBlock: XIVTED_clean_linker_0, # of connection points: 2
#     Edge 80, Type (0, 0), BuildingBlock: XIVTED_clean_linker_0, # of connection points: 2
#     Edge 81, Type (0, 0), BuildingBlock: XIVTED_clean_linker_0, # of connection points: 2
#     Edge 82, Type (0, 0), BuildingBlock: XIVTED_clean_linker_0, # of connection points: 2
#     Edge 83, Type (0, 0), BuildingBlock: XIVTED_clean_linker_0, # of connection points: 2
#     Edge 84, Type (0, 0), BuildingBlock: XIVTED_clean_linker_0, # of connection points: 2
#     Edge 85, Type (0, 0), BuildingBlock: XIVTED_clean_linker_0, # of connection points: 2
#     Edge 86, Type (0, 0), BuildingBlock: XIVTED_clean_linker_0, # of connection points: 2
#     Edge 87, Type (0, 0), BuildingBlock: XIVTED_clean_linker_0, # of connection points: 2
#     Edge 88, Type (0, 0), BuildingBlock: XIVTED_clean_linker_0, # of connection points: 2
#     Edge 89, Type (0, 0), BuildingBlock: XIVTED_clean_linker_0, # of connection points: 2
#     Edge 90, Type (0, 0), BuildingBlock: XIVTED_clean_linker_0, # of connection points: 2
#     Edge 91, Type (0, 0), BuildingBlock: XIVTED_clean_linker_0, # of connection points: 2
#     Edge 92, Type (0, 0), BuildingBlock: XIVTED_clean_linker_0, # of connection points: 2
#     Edge 93, Type (0, 0), BuildingBlock: XIVTED_clean_linker_0, # of connection points: 2
#     Edge 94, Type (0, 0), BuildingBlock: XIVTED_clean_linker_0, # of connection points: 2
#     Edge 95, Type (0, 0), BuildingBlock: XIVTED_clean_linker_0, # of connection points: 2
# Relax obj value: 0.088
# Max RMSD: 0.108
# Mean RMSD: 0.108
data_MOF--net-umr--node1-QUQFOY_clean_sbu_3--edge1-XIVTED_clean_linker_0
_symmetry_space_group_name_H-M    P1
_symmetry_Int_Tables_number       1
_symmetry_cell_setting            triclinic
loop_
_symmetry_equiv_pos_as_xyz
'x, y, z'
_cell_length_a     85.978523
_cell_length_b     85.946995
_cell_length_c     27.007379
_cell_angle_alpha  90.047845
_cell_angle_beta   90.014025
_cell_angle_gamma 89.981808
loop_
_atom_site_label
_atom_site_type_symbol
_atom_site_fract_x
_atom_site_fract_y
_atom_site_fract_z
_atom_type_partial_charge
C0 C 0.16478 0.24409 0.09616 0.0
O1 O 0.17252 0.23739 0.13002 0.0
Cd2 Cd 0.18336 0.25183 0.19603 0.0
O3 O 0.16194 0.25867 0.0983 0.0
Cd4 Cd 0.16633 0.28137 0.15414 0.0
C5 C 0.20418 0.27746 0.12376 0.0
O6 O 0.16082 0.26573 0.22443 0.0
O7 O 0.17034 0.28814 0.24316 0.0
O8 O 0.14022 0.29012 0.13174 0.0
C9 C 0.16355 0.27581 0.25725 0.0
O10 O 0.20403 0.26537 0.1509 0.0
C11 C 0.14385 0.30442 0.12899 0.0
O12 O 0.192 0.28569 0.11882 0.0
O13 O 0.15804 0.30785 0.13603 0.0
C14 C 0.99436 0.91835 0.34198 0.0
O15 O 0.00124 0.92581 0.37617 0.0
Cd16 Cd 0.98737 0.93589 0.44466 0.0
O17 O 0.97981 0.91544 0.34466 0.0
Cd18 Cd 0.95738 0.91933 0.4019 0.0
C19 C 0.96139 0.95754 0.37597 0.0
O20 O 0.97355 0.91309 0.47037 0.0
O21 O 0.95118 0.92203 0.49189 0.0
O22 O 0.94884 0.89356 0.37598 0.0
C23 C 0.96375 0.91534 0.50432 0.0
O24 O 0.97348 0.95702 0.40311 0.0
C25 C 0.93445 0.89687 0.37547 0.0
O26 O 0.95315 0.94544 0.36937 0.0
O27 O 0.93077 0.91086 0.3852 0.0
C28 C 0.32511 0.74192 0.58391 0.0
O29 O 0.31814 0.74939 0.6179 0.0
Cd30 Cd 0.30805 0.7367 0.68858 0.0
O31 O 0.32749 0.72729 0.58773 0.0
Cd32 Cd 0.3232 0.70547 0.647 0.0
C33 C 0.28492 0.71082 0.62404 0.0
O34 O 0.33042 0.72212 0.7134 0.0
O35 O 0.32124 0.70016 0.73777 0.0
O36 O 0.34847 0.69623 0.61927 0.0
C37 C 0.32818 0.71274 0.74852 0.0
O38 O 0.28623 0.72313 0.64992 0.0
C39 C 0.34501 0.68188 0.62061 0.0
O40 O 0.29659 0.70199 0.61711 0.0
O41 O 0.3311 0.67848 0.63217 0.0
C42 C 0.49869 0.07182 0.85306 0.0
O43 O 0.49149 0.06432 0.88641 0.0
Cd44 Cd 0.50498 0.0536 0.95483 0.0
O45 O 0.5133 0.0743 0.85652 0.0
Cd46 Cd 0.53547 0.06948 0.91389 0.0
C47 C 0.53065 0.03144 0.88675 0.0
O48 O 0.51929 0.07596 0.98229 0.0
O49 O 0.54156 0.06676 0.00385 0.0
O50 O 0.54438 0.09507 0.88823 0.0
C51 C 0.52908 0.0736 0.01624 0.0
O52 O 0.51845 0.0322 0.91331 0.0
C53 C 0.55872 0.09158 0.88748 0.0
O54 O 0.5392 0.04335 0.88088 0.0
O55 O 0.56224 0.07757 0.89722 0.0
C56 C 0.15715 0.74178 0.40219 0.0
O57 O 0.16387 0.74891 0.36707 0.0
Cd58 Cd 0.17634 0.73497 0.30285 0.0
O59 O 0.15562 0.727 0.40112 0.0
Cd60 Cd 0.16107 0.70432 0.34612 0.0
C61 C 0.19812 0.71093 0.37944 0.0
O62 O 0.15629 0.71842 0.27172 0.0
O63 O 0.16861 0.69693 0.26038 0.0
O64 O 0.13488 0.69475 0.3623 0.0
C65 C 0.16146 0.70843 0.24168 0.0
O66 O 0.19721 0.72274 0.35109 0.0
C67 C 0.13895 0.68069 0.36843 0.0
O68 O 0.18656 0.70186 0.38477 0.0
O69 O 0.15342 0.67774 0.36623 0.0
C70 C 0.50377 0.90806 0.6523 0.0
O71 O 0.49642 0.91439 0.61688 0.0
Cd72 Cd 0.51005 0.9269 0.55238 0.0
O73 O 0.51857 0.90668 0.65074 0.0
Cd74 Cd 0.54098 0.91177 0.59403 0.0
C75 C 0.53424 0.94854 0.62921 0.0
O76 O 0.52635 0.90669 0.52109 0.0
O77 O 0.54757 0.91921 0.50745 0.0
O78 O 0.55071 0.8857 0.61061 0.0
C79 C 0.53602 0.91182 0.49002 0.0
O80 O 0.52224 0.94757 0.60171 0.0
C81 C 0.56486 0.88976 0.61445 0.0
O82 O 0.54359 0.93714 0.63299 0.0
O83 O 0.56779 0.9042 0.61111 0.0
C84 C 0.32973 0.25489 0.89336 0.0
O85 O 0.32367 0.24738 0.85778 0.0
Cd86 Cd 0.31117 0.26065 0.79253 0.0
O87 O 0.33049 0.26974 0.89235 0.0
Cd88 Cd 0.32426 0.29212 0.83667 0.0
C89 C 0.28749 0.28331 0.86762 0.0
O90 O 0.33126 0.27777 0.76487 0.0
O91 O 0.31807 0.2984 0.74867 0.0
O92 O 0.34939 0.30315 0.85887 0.0
C93 C 0.32638 0.28725 0.73284 0.0
O94 O 0.28929 0.27153 0.83953 0.0
C95 C 0.34464 0.31713 0.86068 0.0
O96 O 0.29842 0.29313 0.87318 0.0
O97 O 0.33022 0.31939 0.8536 0.0
C98 C 0.98641 0.08248 0.14445 0.0
O99 O 0.99398 0.07601 0.10974 0.0
Cd100 Cd 0.98116 0.06309 0.04453 0.0
O101 O 0.97159 0.08357 0.14247 0.0
Cd102 Cd 0.94961 0.07738 0.08479 0.0
C103 C 0.95728 0.04069 0.11963 0.0
O104 O 0.96478 0.0833 0.0138 0.0
O105 O 0.94398 0.07053 -0.00327 0.0
O106 O 0.93849 0.10286 0.10299 0.0
C107 C 0.95553 0.0783 0.98124 0.0
O108 O 0.96939 0.04197 0.0928 0.0
C109 C 0.92451 0.09812 0.10417 0.0
O110 O 0.94764 0.05185 0.12304 0.0
O111 O 0.92232 0.08362 0.09871 0.0
C112 C 0.82416 0.74286 0.88106 0.0
O113 O 0.81673 0.75001 0.8474 0.0
Cd114 Cd 0.80516 0.73634 0.78107 0.0
O115 O 0.82634 0.72817 0.8785 0.0
Cd116 Cd 0.82113 0.70568 0.82221 0.0
C117 C 0.7836 0.71122 0.85382 0.0
O118 O 0.82707 0.7216 0.75307 0.0
O119 O 0.8172 0.69953 0.73248 0.0
O120 O 0.84695 0.69672 0.84575 0.0
C121 C 0.82412 0.7119 0.71934 0.0
O122 O 0.78435 0.72338 0.82702 0.0
C123 C 0.84349 0.68237 0.84638 0.0
O124 O 0.79532 0.7023 0.85816 0.0
O125 O 0.82939 0.67887 0.83781 0.0
C126 C 6e-05 0.07096 0.64455 0.0
O127 O 0.99293 0.06346 0.61097 0.0
Cd128 Cd 0.00612 0.05307 0.54171 0.0
O129 O 0.01461 0.07379 0.64091 0.0
Cd130 Cd 0.03656 0.06956 0.58193 0.0
C131 C 0.03243 0.03144 0.60922 0.0
O132 O 0.01983 0.07577 0.51483 0.0
O133 O 0.042 0.06682 0.49142 0.0
O134 O 0.04564 0.09528 0.60632 0.0
C135 C 0.02933 0.07349 0.48005 0.0
O136 O 0.0201 0.032 0.58316 0.0
C137 C 0.05998 0.09176 0.60586 0.0
O138 O 0.04085 0.04348 0.61459 0.0
O139 O 0.06339 0.07769 0.59641 0.0
C140 C 0.66155 0.24644 0.37956 0.0
O141 O 0.66901 0.23947 0.34558 0.0
Cd142 Cd 0.67972 0.25331 0.27799 0.0
O143 O 0.65898 0.26106 0.37708 0.0
Cd144 Cd 0.6636 0.28349 0.32061 0.0
C145 C 0.70166 0.27881 0.3477 0.0
O146 O 0.65758 0.26789 0.25043 0.0
O147 O 0.66737 0.29014 0.23147 0.0
O148 O 0.63778 0.29264 0.34417 0.0
C149 C 0.66052 0.27784 0.21741 0.0
O150 O 0.70102 0.26674 0.32041 0.0
C151 C 0.64163 0.30687 0.34708 0.0
O152 O 0.68966 0.28721 0.35416 0.0
O153 O 0.65583 0.31011 0.33943 0.0
C154 C 0.49325 0.92506 0.15326 0.0
O155 O 0.50046 0.93293 0.12077 0.0
Cd156 Cd 0.48702 0.94389 0.05275 0.0
O157 O 0.47871 0.92232 0.14898 0.0
Cd158 Cd 0.45665 0.92703 0.09107 0.0
C159 C 0.46061 0.96485 0.12222 0.0
O160 O 0.47343 0.92137 0.02342 0.0
O161 O 0.45104 0.93007 0.00089 0.0
O162 O 0.44859 0.901 0.11508 0.0
C163 C 0.46377 0.92359 0.989 0.0
O164 O 0.47296 0.96446 0.09629 0.0
C165 C 0.4341 0.90382 0.11385 0.0
O166 O 0.45212 0.95281 0.12635 0.0
O167 O 0.43007 0.91771 0.10423 0.0
C168 C 0.82771 0.2535 0.56902 0.0
O169 O 0.82122 0.24622 0.6043 0.0
Cd170 Cd 0.8095 0.25963 0.6707 0.0
O171 O 0.82928 0.26829 0.57051 0.0
Cd172 Cd 0.82425 0.29082 0.62701 0.0
C173 C 0.78691 0.28391 0.59718 0.0
O174 O 0.83059 0.27558 0.69716 0.0
O175 O 0.81919 0.29702 0.71606 0.0
O176 O 0.84997 0.30034 0.60524 0.0
C177 C 0.82664 0.2851 0.73036 0.0
O178 O 0.78826 0.27193 0.62458 0.0
C179 C 0.84614 0.31459 0.60369 0.0
O180 O 0.79825 0.29325 0.59171 0.0
O181 O 0.83186 0.31776 0.61048 0.0
C182 C 0.48934 0.08785 0.35376 0.0
O183 O 0.49656 0.08145 0.38933 0.0
Cd184 Cd 0.48272 0.06974 0.45503 0.0
O185 O 0.47458 0.08953 0.35519 0.0
Cd186 Cd 0.45204 0.08487 0.41159 0.0
C187 C 0.45841 0.04761 0.38031 0.0
O188 O 0.46663 0.09045 0.4843 0.0
O189 O 0.44524 0.07833 0.4988 0.0
O190 O 0.44254 0.11084 0.3922 0.0
C191 C 0.45686 0.08572 0.51571 0.0
O192 O 0.47029 0.04861 0.40832 0.0
C193 C 0.4284 0.10682 0.38785 0.0
O194 O 0.44935 0.05917 0.37475 0.0
O195 O 0.42535 0.09244 0.39262 0.0
C196 C 0.6609 0.74411 0.08528 0.0
O197 O 0.6677 0.75094 0.12092 0.0
Cd198 Cd 0.6788 0.73629 0.186 0.0
O199 O 0.65875 0.72941 0.08602 0.0
Cd200 Cd 0.663 0.70646 0.14078 0.0
C201 C 0.70057 0.71186 0.11114 0.0
O202 O 0.65731 0.72087 0.21371 0.0
O203 O 0.66869 0.69903 0.22809 0.0
O204 O 0.63692 0.69742 0.11987 0.0
C205 C 0.66136 0.71072 0.24487 0.0
O206 O 0.69988 0.72364 0.13972 0.0
C207 C 0.64081 0.68326 0.11488 0.0
O208 O 0.68873 0.70324 0.10479 0.0
O209 O 0.65515 0.68005 0.11989 0.0
C210 C 0.00547 0.90714 0.84138 0.0
O211 O -0.00196 0.9137 0.87623 0.0
Cd212 Cd 0.01132 0.9262 0.9415 0.0
O213 O 0.02028 0.90584 0.84318 0.0
Cd214 Cd 0.04248 0.91167 0.90015 0.0
C215 C 0.03524 0.94853 0.86643 0.0
O216 O 0.02757 0.90577 0.97167 0.0
O217 O 0.04851 0.91845 0.988 0.0
O218 O 0.05275 0.8859 0.88243 0.0
C219 C 0.03703 0.91063 0.00383 0.0
O220 O 0.02328 0.94734 0.89396 0.0
C221 C 0.06685 0.89017 0.87968 0.0
O222 O 0.04467 0.93721 0.862 0.0
O223 O 0.06955 0.90464 0.88405 0.0
C224 C 0.67082 0.75097 0.5837 0.0
O225 O 0.67857 0.74394 0.61689 0.0
Cd226 Cd 0.69013 0.758 0.6825 0.0
O227 O 0.66843 0.76562 0.58644 0.0
Cd228 Cd 0.67362 0.78811 0.64243 0.0
C229 C 0.71104 0.78342 0.60921 0.0
O230 O 0.66802 0.77226 0.7121 0.0
O231 O 0.67792 0.79444 0.7316 0.0
O232 O 0.64753 0.79664 0.62063 0.0
C233 C 0.67089 0.78219 0.74522 0.0
O234 O 0.71062 0.77124 0.63596 0.0
C235 C 0.65074 0.81105 0.62013 0.0
O236 O 0.69913 0.7921 0.60535 0.0
O237 O 0.66485 0.81477 0.62759 0.0
C238 C 0.48851 0.41516 0.83417 0.0
O239 O 0.49623 0.42123 0.86927 0.0
Cd240 Cd 0.4835 0.4332 0.93649 0.0
O241 O 0.47369 0.41415 0.83657 0.0
Cd242 Cd 0.45196 0.41989 0.89561 0.0
C243 C 0.45963 0.45696 0.86577 0.0
O244 O 0.46722 0.41246 0.965 0.0
O245 O 0.44699 0.4259 0.98453 0.0
O246 O 0.44075 0.39478 0.87372 0.0
C247 C 0.45805 0.41714 -0.00171 0.0
O248 O 0.47176 0.45528 0.89235 0.0
C249 C 0.42674 0.39945 0.87424 0.0
O250 O 0.45003 0.44583 0.86067 0.0
O251 O 0.42451 0.41382 0.88249 0.0
C252 C 0.82309 0.24064 0.06666 0.0
O253 O 0.81589 0.24793 0.10055 0.0
Cd254 Cd 0.80485 0.23499 0.16892 0.0
O255 O 0.82536 0.22596 0.06973 0.0
Cd256 Cd 0.82023 0.20417 0.1289 0.0
C257 C 0.78243 0.20958 0.10046 0.0
O258 O 0.82696 0.22048 0.19665 0.0
O259 O 0.81633 0.19899 0.2191 0.0
O260 O 0.84555 0.19352 0.10579 0.0
C261 C 0.82381 0.21114 0.23113 0.0
O262 O 0.78333 0.22188 0.12659 0.0
C263 C 0.8412 0.1794 0.10737 0.0
O264 O 0.79419 0.20076 0.09536 0.0
O265 O 0.82694 0.17692 0.11654 0.0
C266 C 0.0029 0.56776 0.32667 0.0
O267 O -0.00218 0.5572 0.3553 0.0
Cd268 Cd 0.01166 0.54784 0.42541 0.0
O269 O 0.01625 0.57391 0.33378 0.0
Cd270 Cd 0.03798 0.57085 0.39374 0.0
C271 C 0.0417 0.53283 0.3599 0.0
O272 O 0.01972 0.57229 0.45999 0.0
O273 O 0.04308 0.56742 0.48407 0.0
O274 O 0.04499 0.59797 0.37703 0.0
C275 C 0.02934 0.5715 0.49513 0.0
O276 O 0.03032 0.52968 0.38825 0.0
C277 C 0.05956 0.59547 0.37794 0.0
O278 O 0.04618 0.5468 0.35433 0.0
O279 O 0.06391 0.5815 0.38433 0.0
C280 C 0.6563 0.23677 0.8781 0.0
O281 O 0.66281 0.24404 0.84284 0.0
Cd282 Cd 0.67437 0.23032 0.77643 0.0
O283 O 0.65479 0.22199 0.87668 0.0
Cd284 Cd 0.65999 0.19931 0.82145 0.0
C285 C 0.69739 0.20656 0.84985 0.0
O286 O 0.65356 0.21389 0.7497 0.0
O287 O 0.66515 0.19231 0.73332 0.0
O288 O 0.6344 0.18984 0.84456 0.0
C289 C 0.65766 0.20403 0.71763 0.0
O290 O 0.69599 0.21836 0.82171 0.0
C291 C 0.6384 0.17567 0.8484 0.0
O292 O 0.68602 0.19731 0.85636 0.0
O293 O 0.65268 0.17255 0.84152 0.0
C294 C 0.00486 0.41579 0.14262 0.0
O295 O 4e-05 0.42565 0.11114 0.0
Cd296 Cd 0.01497 0.43433 0.04273 0.0
O297 O 0.01838 0.40973 0.13875 0.0
Cd298 Cd 0.04094 0.41173 0.08116 0.0
C299 C 0.04387 0.44992 0.11281 0.0
O300 O 0.02403 0.40977 0.01177 0.0
O301 O 0.04752 0.41567 -0.00809 0.0
O302 O 0.048 0.38466 0.09931 0.0
C303 C 0.03414 0.41116 0.97829 0.0
O304 O 0.0329 0.45279 0.08253 0.0
C305 C 0.0625 0.38745 0.10183 0.0
O306 O 0.0484 0.43604 0.11988 0.0
O307 O 0.0667 0.4015 0.09645 0.0
C308 C 0.83337 0.75316 0.38081 0.0
O309 O 0.82681 0.74604 0.34531 0.0
Cd310 Cd 0.81585 0.75986 0.27826 0.0
O311 O 0.83541 0.76788 0.37916 0.0
Cd312 Cd 0.83114 0.79038 0.32223 0.0
C313 C 0.79352 0.78456 0.35061 0.0
O314 O 0.83724 0.77538 0.25087 0.0
O315 O 0.82577 0.79697 0.23395 0.0
O316 O 0.85698 0.79979 0.3436 0.0
C317 C 0.83318 0.78515 0.21854 0.0
O318 O 0.7945 0.77265 0.32271 0.0
C319 C 0.85304 0.81399 0.347 0.0
O320 O 0.80521 0.79339 0.357 0.0
O321 O 0.83873 0.81712 0.34095 0.0
C322 C 0.48879 0.58255 0.638 0.0
O323 O 0.49638 0.5762 0.60312 0.0
Cd324 Cd 0.48311 0.56368 0.53782 0.0
O325 O 0.47399 0.58376 0.63567 0.0
Cd326 Cd 0.45191 0.57829 0.57787 0.0
C327 C 0.45889 0.54147 0.61243 0.0
O328 O 0.46693 0.58402 0.50631 0.0
O329 O 0.44605 0.57119 0.49018 0.0
O330 O 0.44202 0.60421 0.59534 0.0
C331 C 0.45752 0.579 0.4742 0.0
O332 O 0.47101 0.54262 0.58559 0.0
C333 C 0.42785 0.60017 0.59853 0.0
O334 O 0.44942 0.55278 0.61604 0.0
O335 O 0.42491 0.58576 0.59411 0.0
C336 C 0.3205 0.24514 0.39441 0.0
O337 O 0.31275 0.25183 0.36056 0.0
Cd338 Cd 0.30253 0.23756 0.29325 0.0
O339 O 0.32366 0.23063 0.39173 0.0
Cd340 Cd 0.31996 0.2081 0.33454 0.0
C341 C 0.28194 0.21116 0.3635 0.0
O342 O 0.32561 0.22441 0.26598 0.0
O343 O 0.31691 0.20191 0.24461 0.0
O344 O 0.34601 0.19996 0.35894 0.0
C345 C 0.32344 0.21455 0.23211 0.0
O346 O 0.28202 0.22338 0.33693 0.0
C347 C 0.3429 0.18552 0.35966 0.0
O348 O 0.29422 0.20309 0.36852 0.0
O349 O 0.32893 0.18165 0.35068 0.0
C350 C 0.50403 0.57003 0.14167 0.0
O351 O 0.49937 0.5595 0.11215 0.0
Cd352 Cd 0.51397 0.55057 0.04302 0.0
O353 O 0.5173 0.57648 0.13586 0.0
Cd354 Cd 0.5395 0.57412 0.07728 0.0
C355 C 0.54374 0.53619 0.11111 0.0
O356 O 0.52183 0.5752 0.00935 0.0
O357 O 0.54549 0.57072 0.98754 0.0
O358 O 0.54622 0.60135 0.09432 0.0
C359 C 0.53179 0.57455 0.97515 0.0
O360 O 0.53267 0.53276 0.08185 0.0
C361 C 0.56079 0.59883 0.09518 0.0
O362 O 0.54786 0.55026 0.11691 0.0
O363 O 0.5652 0.58485 0.08953 0.0
C364 C 0.17232 0.75015 0.90229 0.0
O365 O 0.17907 0.74302 0.86716 0.0
Cd366 Cd 0.18909 0.75682 0.79843 0.0
O367 O 0.16993 0.7648 0.89998 0.0
Cd368 Cd 0.1737 0.78709 0.84219 0.0
C369 C 0.21187 0.78237 0.86545 0.0
O370 O 0.16663 0.7713 0.77326 0.0
O371 O 0.17631 0.79345 0.75255 0.0
O372 O 0.14813 0.79567 0.86918 0.0
C373 C 0.16907 0.78123 0.73979 0.0
O374 O 0.21079 0.77025 0.83854 0.0
C375 C 0.15137 0.81008 0.86911 0.0
O376 O 0.20006 0.79095 0.87295 0.0
O377 O 0.16531 0.81378 0.85898 0.0
C378 C 0.98964 0.41485 0.64184 0.0
O379 O -0.00291 0.42195 0.60819 0.0
Cd380 Cd 0.9839 0.4338 0.54153 0.0
O381 O 0.97492 0.41299 0.63865 0.0
Cd382 Cd 0.95304 0.41848 0.58012 0.0
C383 C 0.95864 0.45581 0.61263 0.0
O384 O 0.9689 0.41244 0.51064 0.0
O385 O 0.94763 0.42409 0.49098 0.0
O386 O 0.9435 0.39256 0.59956 0.0
C387 C 0.95949 0.41644 0.47718 0.0
O388 O 0.97091 0.45491 0.58638 0.0
C389 C 0.92921 0.39627 0.59978 0.0
O390 O 0.94962 0.44418 0.61677 0.0
O391 O 0.926 0.41055 0.59321 0.0
C392 C 0.33954 0.75572 0.0839 0.0
O393 O 0.33331 0.74814 0.119 0.0
Cd394 Cd 0.32076 0.76087 0.18524 0.0
O395 O 0.3407 0.77054 0.08596 0.0
Cd396 Cd 0.33508 0.79256 0.14412 0.0
C397 C 0.29811 0.78511 0.11175 0.0
O398 O 0.34083 0.77746 0.21541 0.0
O399 O 0.32828 0.79844 0.23199 0.0
O400 O 0.36072 0.80326 0.12704 0.0
C401 C 0.33579 0.78675 0.2478 0.0
O402 O 0.29949 0.77297 0.13847 0.0
C403 C 0.35616 0.81728 0.12369 0.0
O404 O 0.30931 0.79466 0.10745 0.0
O405 O 0.34164 0.8197 0.12762 0.0
C406 C 0.98697 0.58193 0.83323 0.0
O407 O 0.99449 0.57605 0.86907 0.0
Cd408 Cd 0.98115 0.56423 0.93561 0.0
O409 O 0.97216 0.58316 0.83506 0.0
Cd410 Cd 0.94987 0.5785 0.89257 0.0
C411 C 0.95694 0.54129 0.86263 0.0
O412 O 0.96455 0.58452 0.96471 0.0
O413 O 0.94353 0.57188 0.9801 0.0
O414 O 0.94026 0.60438 0.87313 0.0
C415 C 0.95505 0.57953 -0.00346 0.0
O416 O 0.9689 0.54274 0.8901 0.0
C417 C 0.92609 0.60041 0.8694 0.0
O418 O 0.94756 0.55259 0.85682 0.0
O419 O 0.92302 0.58604 0.87439 0.0
C420 C 0.15892 0.23672 0.59764 0.0
O421 O 0.16547 0.24384 0.63314 0.0
Cd422 Cd 0.17718 0.22961 0.69801 0.0
O423 O 0.15738 0.22193 0.59849 0.0
Cd424 Cd 0.16253 0.19908 0.653 0.0
C425 C 0.19969 0.20604 0.62231 0.0
O426 O 0.1562 0.21346 0.72529 0.0
O427 O 0.1682 0.19204 0.74074 0.0
O428 O 0.13674 0.18981 0.63093 0.0
C429 C 0.16041 0.20352 0.75686 0.0
O430 O 0.19849 0.21777 0.65087 0.0
C431 C 0.14059 0.17559 0.62754 0.0
O432 O 0.18828 0.19682 0.61633 0.0
O433 O 0.15487 0.17235 0.63378 0.0
C434 C 0.50618 0.42011 0.3285 0.0
O435 O 0.50085 0.43024 0.3583 0.0
Cd436 Cd 0.51472 0.43952 0.42837 0.0
O437 O 0.51968 0.41421 0.3349 0.0
Cd438 Cd 0.54139 0.41682 0.39523 0.0
C439 C 0.54456 0.45489 0.36221 0.0
O440 O 0.52327 0.41508 0.46152 0.0
O441 O 0.54652 0.42046 0.48557 0.0
O442 O 0.54863 0.38979 0.37772 0.0
C443 C 0.53283 0.41621 0.49672 0.0
O444 O 0.53309 0.45786 0.39044 0.0
C445 C 0.56316 0.39251 0.37748 0.0
O446 O 0.5493 0.44101 0.35673 0.0
O447 O 0.56737 0.40651 0.38405 0.0
H448 H 0.26714 0.25994 0.88866 0.0
H449 H 0.21192 0.30433 0.07399 0.0
H450 H 0.27678 0.30808 0.92286 0.0
H451 H 0.2268 0.2569 0.09725 0.0
H452 H 0.23194 0.30703 0.00937 0.0
H453 H 0.24737 0.2597 0.95333 0.0
C454 C 0.26491 0.27057 0.90905 0.0
C455 C 0.27371 0.28405 0.90042 0.0
C456 C 0.23086 0.29614 0.02921 0.0
C457 C 0.25109 0.28375 0.97469 0.0
C458 C 0.21952 0.29458 0.06608 0.0
C459 C 0.21769 0.28036 0.09109 0.0
C460 C 0.24004 0.28325 0.01652 0.0
C461 C 0.22781 0.2681 0.0792 0.0
C462 C 0.25374 0.27034 0.94633 0.0
C463 C 0.27031 0.29743 0.92845 0.0
N464 N 0.23837 0.26975 0.04225 0.0
N465 N 0.25922 0.29696 0.96445 0.0
H466 H 0.98123 0.98173 0.35959 0.0
H467 H 0.9313 0.03 0.16878 0.0
H468 H 0.93559 0.96483 0.31988 0.0
H469 H 0.9804 0.02128 0.14983 0.0
H470 H 0.93074 0.01021 0.23476 0.0
H471 H 0.97896 0.0017 0.29599 0.0
C472 C 0.97058 0.9824 0.33829 0.0
C473 C 0.95863 0.97146 0.34486 0.0
C474 C 0.94154 0.0126 0.2156 0.0
C475 C 0.95605 0.99433 0.27186 0.0
C476 C 0.94188 0.0238 0.17798 0.0
C477 C 0.95591 0.02727 0.15366 0.0
C478 C 0.95541 0.00525 0.22975 0.0
C479 C 0.9693 0.01895 0.16723 0.0
C480 C 0.96938 0.99371 0.30166 0.0
C481 C 0.94512 0.97295 0.31583 0.0
N482 N 0.96877 0.00852 0.20484 0.0
N483 N 0.94419 0.98418 0.28036 0.0
H484 H 0.21955 0.73308 0.40246 0.0
H485 H 0.27568 0.68475 0.57199 0.0
H486 H 0.2077 0.68515 0.4321 0.0
H487 H 0.26178 0.73179 0.60704 0.0
H488 H 0.25432 0.68335 0.51134 0.0
H489 H 0.23983 0.73162 0.46536 0.0
C490 C 0.22137 0.72215 0.42154 0.0
C491 C 0.21186 0.70922 0.41207 0.0
C492 C 0.25591 0.69385 0.533 0.0
C493 C 0.23508 0.70755 0.48422 0.0
C494 C 0.26802 0.69466 0.56761 0.0
C495 C 0.27058 0.70844 0.59455 0.0
C496 C 0.24667 0.70703 0.52453 0.0
C497 C 0.2603 0.72093 0.58726 0.0
C498 C 0.23284 0.7214 0.45778 0.0
C499 C 0.21475 0.6954 0.4384 0.0
N500 N 0.249 0.72002 0.55234 0.0
N501 N 0.22618 0.69489 0.47334 0.0
H502 H 0.51031 0.00778 0.86861 0.0
H503 H 0.56019 0.9585 0.68019 0.0
H504 H 0.55659 0.02361 0.83211 0.0
H505 H 0.51146 0.96852 0.65816 0.0
H506 H 0.56084 0.9782 0.74654 0.0
H507 H 0.51249 0.98784 0.80477 0.0
C508 C 0.52108 0.00688 0.84796 0.0
C509 C 0.53324 0.01751 0.85549 0.0
C510 C 0.5501 0.97611 0.72662 0.0
C511 C 0.53571 0.99468 0.78225 0.0
C512 C 0.54971 0.96496 0.68879 0.0
C513 C 0.53575 0.96189 0.6635 0.0
C514 C 0.53634 0.9838 0.73998 0.0
C515 C 0.5225 0.97054 0.67632 0.0
C516 C 0.52222 0.99559 0.8112 0.0
C517 C 0.54689 0.01573 0.82729 0.0
N518 N 0.52307 0.98091 0.71414 0.0
N519 N 0.54777 0.00452 0.79167 0.0
H520 H 0.72316 0.73318 0.09116 0.0
H521 H 0.77463 0.68498 0.90518 0.0
H522 H 0.709 0.68626 0.05573 0.0
H523 H 0.76216 0.73301 0.88005 0.0
H524 H 0.75468 0.68366 0.97058 0.0
H525 H 0.74292 0.73168 0.02658 0.0
C526 C 0.72439 0.72243 0.07056 0.0
C527 C 0.71432 0.70985 0.07872 0.0
C528 C 0.75628 0.69437 0.95014 0.0
C529 C 0.73694 0.70815 0.00466 0.0
C530 C 0.76757 0.69514 0.91284 0.0
C531 C 0.77007 0.70913 0.88706 0.0
C532 C 0.74785 0.7078 0.96248 0.0
C533 C 0.76064 0.72197 0.89867 0.0
C534 C 0.73557 0.72167 0.03337 0.0
C535 C 0.71648 0.69626 0.05046 0.0
N536 N 0.75015 0.72106 0.93604 0.0
N537 N 0.72759 0.69574 0.01452 0.0
H538 H 0.01271 0.96954 0.84297 0.0
H539 H 0.05897 0.02355 0.66083 0.0
H540 H 0.06066 0.95809 0.81202 0.0
H541 H 0.01197 0.00833 0.63179 0.0
H542 H 0.06112 0.0034 0.72527 0.0
H543 H 0.01345 0.98895 0.77732 0.0
C544 C 0.0235 0.97129 0.82308 0.0
C545 C 0.03663 0.96209 0.83292 0.0
C546 C 0.05046 0.00442 0.70411 0.0
C547 C 0.03746 0.98432 0.75756 0.0
C548 C 0.04922 0.01584 0.66733 0.0
C549 C 0.03524 0.01768 0.64093 0.0
C550 C 0.0375 0.99517 0.71525 0.0
C551 C 0.02297 0.00738 0.65103 0.0
C552 C 0.02384 0.98226 0.78526 0.0
C553 C 0.05026 0.96489 0.80549 0.0
N554 N 0.02429 -0.00322 0.68797 0.0
N555 N 0.05035 0.97581 0.76893 0.0
H556 H 0.72516 0.2584 0.36676 0.0
H557 H 0.77665 0.3095 0.54484 0.0
H558 H 0.70974 0.30505 0.40056 0.0
H559 H 0.7661 0.26123 0.57381 0.0
H560 H 0.75612 0.30974 0.48109 0.0
H561 H 0.7455 0.261 0.42912 0.0
C562 C 0.72622 0.26932 0.38652 0.0
C563 C 0.71563 0.28149 0.37861 0.0
C564 C 0.75827 0.29921 0.502 0.0
C565 C 0.73893 0.28446 0.45012 0.0
C566 C 0.7699 0.29906 0.53836 0.0
C567 C 0.7731 0.28532 0.56475 0.0
C568 C 0.75021 0.28544 0.4912 0.0
C569 C 0.76404 0.2721 0.55467 0.0
C570 C 0.73775 0.27071 0.42244 0.0
C571 C 0.71761 0.29535 0.40571 0.0
N572 N 0.75321 0.27242 0.51819 0.0
N573 N 0.72905 0.29648 0.44044 0.0
H574 H 0.43406 0.97258 0.17423 0.0
H575 H 0.48034 0.0257 0.35936 0.0
H576 H 0.4812 0.98763 0.14676 0.0
H577 H 0.43298 0.03856 0.325 0.0
H578 H 0.47937 0.00608 0.29422 0.0
H579 H 0.43193 0.99251 0.23958 0.0
C580 C 0.44385 0.9802 0.18131 0.0
C581 C 0.45785 0.9784 0.155 0.0
C582 C 0.46915 0.01311 0.30137 0.0
C583 C 0.45562 0.00062 0.23032 0.0
C584 C 0.46961 0.02421 0.33887 0.0
C585 C 0.45675 0.03389 0.3475 0.0
C586 C 0.45565 0.01142 0.27281 0.0
C587 C 0.44319 0.0314 0.31937 0.0
C588 C 0.44262 0.99148 0.21859 0.0
C589 C 0.47017 0.98856 0.16586 0.0
N590 N 0.44297 0.02036 0.2831 0.0
N591 N 0.46886 -0.00098 0.20324 0.0
H592 H 0.71943 0.80997 0.55852 0.0
H593 H 0.7709 0.76315 0.3691 0.0
H594 H 0.73264 0.76202 0.5813 0.0
H595 H 0.78487 0.80997 0.40667 0.0
H596 H 0.75116 0.76426 0.43377 0.0
H597 H 0.73911 0.81182 0.49242 0.0
C598 C 0.72659 0.79993 0.55019 0.0
C599 C 0.7244 0.78582 0.57553 0.0
C600 C 0.75845 0.77434 0.42739 0.0
C601 C 0.7463 0.78774 0.49933 0.0
C602 C 0.76962 0.7738 0.39016 0.0
C603 C 0.77967 0.78645 0.38264 0.0
C604 C 0.75707 0.7877 0.45681 0.0
C605 C 0.77743 0.79992 0.41145 0.0
C606 C 0.73773 0.801 0.51249 0.0
C607 C 0.73395 0.77316 0.56306 0.0
N608 N 0.76634 0.80021 0.44748 0.0
N609 N 0.74428 0.77435 0.52533 0.0
H610 H 0.482 0.47838 0.84404 0.0
H611 H 0.43289 0.53162 0.66314 0.0
H612 H 0.43396 0.46713 0.81403 0.0
H613 H 0.48141 0.52091 0.63974 0.0
H614 H 0.43196 0.51148 0.72783 0.0
H615 H 0.48082 0.49864 0.78098 0.0
C616 C 0.47111 0.48035 0.82491 0.0
C617 C 0.45808 0.47096 0.83419 0.0
C618 C 0.44272 0.51351 0.70802 0.0
C619 C 0.45673 0.49412 0.76174 0.0
C620 C 0.44327 0.52492 0.6711 0.0
C621 C 0.45725 0.52794 0.6459 0.0
C622 C 0.45634 0.50543 0.72055 0.0
C623 C 0.47036 0.51896 0.65789 0.0
C624 C 0.47051 0.49181 0.78855 0.0
C625 C 0.4443 0.47405 0.80787 0.0
N626 N 0.46964 0.50828 0.69479 0.0
N627 N 0.44397 0.48539 0.7727 0.0
H628 H 0.71923 0.2288 0.86798 0.0
H629 H 0.77323 0.18282 0.05244 0.0
H630 H 0.70707 0.18152 0.90575 0.0
H631 H 0.76051 0.23094 0.07457 0.0
H632 H 0.75273 0.1807 0.98909 0.0
H633 H 0.7394 0.22832 0.93138 0.0
C634 C 0.72097 0.2182 0.88888 0.0
C635 C 0.71135 0.2052 0.88168 0.0
C636 C 0.75439 0.19162 0.00843 0.0
C637 C 0.73443 0.20466 0.95447 0.0
C638 C 0.766 0.19284 0.04458 0.0
C639 C 0.76859 0.20709 0.06886 0.0
C640 C 0.7457 0.20484 -0.00428 0.0
C641 C 0.75892 0.21972 0.05707 0.0
C642 C 0.73239 0.21801 0.92542 0.0
C643 C 0.71418 0.19182 0.91027 0.0
N644 N 0.7481 0.21836 0.02079 0.0
N645 N 0.7255 0.19187 0.94556 0.0
H646 H 0.05719 0.44649 0.20382 0.0
H647 H 0.05552 0.53679 0.26989 0.0
H648 H 0.04269 0.48158 0.09922 0.0
H649 H 0.04139 0.50118 0.37314 0.0
H650 H 0.06058 0.51662 0.20788 0.0
H651 H 0.06118 0.46683 0.26595 0.0
C652 C 0.05525 0.4585 0.19343 0.0
C653 C 0.04943 0.46234 0.14635 0.0
C654 C 0.05669 0.51326 0.24449 0.0
C655 C 0.05413 0.48556 0.21718 0.0
C656 C 0.05389 0.52471 0.28004 0.0
C657 C 0.04788 0.52064 0.32665 0.0
C658 C 0.05379 0.49764 0.25603 0.0
C659 C 0.04589 0.50481 0.33754 0.0
C660 C 0.05744 0.47005 0.22904 0.0
C661 C 0.04704 0.4781 0.13517 0.0
N662 N 0.04877 0.49386 0.30234 0.0
N663 N 0.04933 0.48916 0.17048 0.0
H664 H 0.27452 0.18419 0.41333 0.0
H665 H 0.22116 0.22848 0.60258 0.0
H666 H 0.25902 0.2314 0.38964 0.0
H667 H 0.20907 0.18113 0.5651 0.0
H668 H 0.24061 0.22831 0.53693 0.0
H669 H 0.25471 0.18139 0.47864 0.0
C670 C 0.26681 0.19385 0.42123 0.0
C671 C 0.26844 0.20806 0.39599 0.0
C672 C 0.23378 0.21792 0.5435 0.0
C673 C 0.24636 0.20507 0.47131 0.0
C674 C 0.22279 0.21792 0.5813 0.0
C675 C 0.21338 0.20482 0.58923 0.0
C676 C 0.23564 0.20465 0.51392 0.0
C677 C 0.21603 0.19151 0.56006 0.0
C678 C 0.2556 0.19224 0.45848 0.0
C679 C 0.25818 0.22022 0.40788 0.0
N680 N 0.22696 0.19174 0.52353 0.0
N681 N 0.24779 0.21853 0.44526 0.0
H682 H 0.55889 0.45093 0.27301 0.0
H683 H 0.5572 0.54075 0.20141 0.0
H684 H 0.54318 0.4866 0.37394 0.0
H685 H 0.54376 0.50444 0.09945 0.0
H686 H 0.56207 0.52099 0.26474 0.0
H687 H 0.56336 0.4709 0.21005 0.0
C688 C 0.5568 0.463 0.28248 0.0
C689 C 0.55049 0.46712 0.32869 0.0
C690 C 0.55839 0.51739 0.22813 0.0
C691 C 0.55574 0.48989 0.25695 0.0
C692 C 0.55569 0.5286 0.19183 0.0
C693 C 0.5499 0.52422 0.14517 0.0
C694 C 0.55561 0.50169 0.21733 0.0
C695 C 0.54807 0.50832 0.13505 0.0
C696 C 0.55927 0.47433 0.24639 0.0
C697 C 0.54791 0.48293 0.33867 0.0
N698 N 0.55084 0.4976 0.171 0.0
N699 N 0.55047 0.49377 0.30293 0.0
H700 H 0.28723 0.81124 0.06377 0.0
H701 H 0.23579 0.762 0.87927 0.0
H702 H 0.27814 0.76222 0.08347 0.0
H703 H 0.22031 0.80804 0.9206 0.0
H704 H 0.25658 0.76392 0.9403 0.0
H705 H 0.26666 0.81209 0.00023 0.0
C706 C 0.2808 0.80074 0.05524 0.0
C707 C 0.28438 0.78664 0.07906 0.0
C708 C 0.24872 0.77366 0.93556 0.0
C709 C 0.26145 0.78748 0.00573 0.0
C710 C 0.23693 0.77266 0.9004 0.0
C711 C 0.22617 0.78483 0.89505 0.0
C712 C 0.24998 0.78701 0.96509 0.0
C713 C 0.22828 0.79834 0.92375 0.0
C714 C 0.26916 0.80124 0.01901 0.0
C715 C 0.27575 0.77336 0.06641 0.0
N716 N 0.23997 0.79907 0.95777 0.0
N717 N 0.26486 0.77406 0.03013 0.0
H718 H 0.93215 0.46507 0.66214 0.0
H719 H 0.97909 0.51939 0.84385 0.0
H720 H 0.98024 0.47749 0.63852 0.0
H721 H 0.93166 0.53151 0.80791 0.0
H722 H 0.97827 0.49901 0.78117 0.0
H723 H 0.93036 0.48563 0.72552 0.0
C724 C 0.94224 0.47222 0.66974 0.0
C725 C 0.95637 0.46955 0.64496 0.0
C726 C 0.96801 0.50606 0.78737 0.0
C727 C 0.9545 0.49252 0.71807 0.0
C728 C 0.96839 0.5176 0.82349 0.0
C729 C 0.95544 0.52727 0.83101 0.0
C730 C 0.95452 0.50392 0.75902 0.0
C731 C 0.94192 0.52437 0.80313 0.0
C732 C 0.9412 0.48388 0.70588 0.0
C733 C 0.9691 0.47913 0.65641 0.0
N734 N 0.94179 0.51291 0.76821 0.0
N735 N 0.96792 0.49001 0.69263 0.0
H736 H 0.17377 0.21462 0.07015 0.0
H737 H 0.14038 0.22429 0.79696 0.0
H738 H 0.14585 0.25337 0.02043 0.0
H739 H 0.1742 0.18938 0.83708 0.0
H740 H 0.13791 0.2315 0.88361 0.0
H741 H 0.16964 0.20189 -0.00969 0.0
C742 C 0.16656 0.22035 0.04278 0.0
C743 C 0.16036 0.23522 0.0516 0.0
C744 C 0.14579 0.22217 0.87367 0.0
C745 C 0.15565 0.22072 0.96041 0.0
C746 C 0.14724 0.21807 0.82417 0.0
C747 C 0.15776 0.20644 0.80984 0.0
C748 C 0.15503 0.21471 0.90921 0.0
C749 C 0.1661 0.19854 0.84666 0.0
C750 C 0.16426 0.21308 -0.0028 0.0
C751 C 0.15105 0.24203 0.01495 0.0
N752 N 0.16472 0.20298 0.89481 0.0
N753 N 0.14911 0.23479 0.97077 0.0
H754 H 0.0153 0.89172 0.0443 0.0
H755 H 0.02381 0.92725 0.31564 0.0
H756 H 0.05044 0.92541 0.08361 0.0
H757 H 0.98471 0.8999 0.26546 0.0
H758 H 0.03661 0.92278 0.23612 0.0
H759 H 0.00709 0.89067 0.1303 0.0
C760 C 0.02136 0.89885 0.07119 0.0
C761 C 0.03338 0.9089 0.05675 0.0
C762 C 0.02531 0.91763 0.2428 0.0
C763 C 0.02397 0.90778 0.1554 0.0
C764 C 0.018 0.92013 0.28819 0.0
C765 C 0.00306 0.91411 0.29691 0.0
C766 C 0.01764 0.909 0.20609 0.0
C767 C -0.00387 0.90493 0.26012 0.0
C768 C 0.01667 0.89822 0.12033 0.0
C769 C 0.04101 0.91764 0.09323 0.0
N770 N 0.00344 0.90276 0.21617 0.0
N771 N 0.03603 0.91703 0.141 0.0
H772 H 0.34313 0.73103 0.50804 0.0
H773 H 0.32147 0.80091 0.32705 0.0
H774 H 0.31717 0.77143 0.55536 0.0
H775 H 0.3521 0.76297 0.28843 0.0
H776 H 0.32126 0.79159 0.41289 0.0
H777 H 0.34813 0.74376 0.42909 0.0
C778 C 0.33858 0.74263 0.50197 0.0
C779 C 0.32957 0.7501 0.53811 0.0
C780 C 0.32814 0.78543 0.38564 0.0
C781 C 0.33514 0.76471 0.44763 0.0
C782 C 0.32825 0.79074 0.33674 0.0
C783 C 0.33661 0.78255 0.30056 0.0
C784 C 0.33641 0.77186 0.39804 0.0
C785 C 0.3453 0.76951 0.31503 0.0
C786 C 0.34146 0.74992 0.45689 0.0
C787 C 0.3241 0.7652 0.52839 0.0
N788 N 0.34486 0.76449 0.3625 0.0
N789 N 0.32682 0.77195 0.4838 0.0
H790 H 0.46907 0.06413 0.82468 0.0
H791 H 0.47919 0.1033 0.55913 0.0
H792 H 0.50912 0.09087 0.77926 0.0
H793 H 0.44269 0.07054 0.59317 0.0
H794 H 0.48734 0.1028 0.64531 0.0
H795 H 0.45654 0.07021 0.74576 0.0
C796 C 0.47516 0.07144 0.7984 0.0
C797 C 0.49026 0.07683 0.80826 0.0
C798 C 0.47747 0.0958 0.63414 0.0
C799 C 0.47599 0.08379 0.71816 0.0
C800 C 0.47281 0.09607 0.58491 0.0
C801 C 0.46042 0.08672 0.5689 0.0
C802 C 0.46976 0.08603 0.66769 0.0
C803 C 0.4524 0.07779 0.604 0.0
C804 C 0.468 0.07486 0.75336 0.0
C805 C 0.49756 0.0863 0.77299 0.0
N806 N 0.45734 0.07751 0.65183 0.0
N807 N 0.49039 0.08938 0.72936 0.0
H808 H 0.17574 0.79785 0.65532 0.0
H809 H 0.14108 0.73128 0.48293 0.0
H810 H 0.15078 0.75756 0.70806 0.0
H811 H 0.16495 0.77173 0.42627 0.0
H812 H 0.14036 0.7434 0.56444 0.0
H813 H 0.16843 0.79087 0.5703 0.0
C814 C 0.16865 0.78763 0.64902 0.0
C815 C 0.16411 0.7781 0.68855 0.0
C816 C 0.14555 0.74975 0.53404 0.0
C817 C 0.15564 0.77013 0.59207 0.0
C818 C 0.14592 0.74283 0.48741 0.0
C819 C 0.15339 0.75035 0.44801 0.0
C820 C 0.1529 0.76417 0.54143 0.0
C821 C 0.15926 0.76541 0.45581 0.0
C822 C 0.16443 0.78368 0.60062 0.0
C823 C 0.15478 0.76509 0.67856 0.0
N824 N 0.15917 0.77171 0.50191 0.0
N825 N 0.15097 0.76142 0.63134 0.0
H826 H 0.44701 0.92844 0.90338 0.0
H827 H 0.51505 0.89394 0.7357 0.0
H828 H 0.48887 0.90695 0.95935 0.0
H829 H 0.4736 0.91517 0.67564 0.0
H830 H 0.5032 0.89446 0.81758 0.0
H831 H 0.45447 0.92038 0.81941 0.0
C832 C 0.4577 0.92199 0.89802 0.0
C833 C 0.46746 0.91859 0.93816 0.0
C834 C 0.49659 0.89881 0.78639 0.0
C835 C 0.47595 0.90922 0.84293 0.0
C836 C 0.50334 0.89844 0.73955 0.0
C837 C 0.49545 0.90482 0.69895 0.0
C838 C 0.48193 0.90578 0.79275 0.0
C839 C 0.48021 0.91032 0.70605 0.0
C840 C 0.46192 0.91733 0.85024 0.0
C841 C 0.4811 0.91005 0.92938 0.0
N842 N 0.47405 0.91096 0.75229 0.0
N843 N 0.48498 0.90577 0.88276 0.0
H844 H 0.32456 0.22422 0.9154 0.0
H845 H 0.34135 0.23858 0.20146 0.0
H846 H 0.34403 0.26646 0.97606 0.0
H847 H 0.31586 0.19892 0.1463 0.0
H848 H 0.34724 0.24618 0.11697 0.0
H849 H 0.32645 0.21214 -0.00305 0.0
C850 C 0.32952 0.23087 0.94559 0.0
C851 C 0.33386 0.2465 0.93915 0.0
C852 C 0.34044 0.23575 0.12317 0.0
C853 C 0.33593 0.23275 0.03241 0.0
C854 C 0.33701 0.23142 0.17145 0.0
C855 C 0.32783 0.21826 0.1808 0.0
C856 C 0.33454 0.22695 0.08371 0.0
C857 C 0.32281 0.20926 0.14057 0.0
C858 C 0.33052 0.22396 -0.00783 0.0
C859 C 0.34031 0.25448 0.97949 0.0
N860 N 0.32607 0.21389 0.09354 0.0
N861 N 0.34096 0.24757 0.02456 0.0
H862 H 0.04539 0.06771 0.39374 0.0
H863 H 0.9746 0.09646 0.22753 0.0
H864 H 0.00389 0.08966 0.45067 0.0
H865 H 0.01704 0.07745 0.16689 0.0
H866 H 0.987 0.09774 0.30855 0.0
H867 H 0.0369 0.07418 0.30948 0.0
C868 C 0.03457 0.07396 0.38851 0.0
C869 C 0.02519 0.07791 0.42905 0.0
C870 C 0.99369 0.09349 0.27739 0.0
C871 C 0.01548 0.08541 0.3334 0.0
C872 C 0.98661 0.09281 0.23104 0.0
C873 C 0.99467 0.08654 0.19059 0.0
C874 C 0.00886 0.08768 0.2834 0.0
C875 C 0.01029 0.08216 0.19723 0.0
C876 C 0.02975 0.07771 0.34054 0.0
C877 C 0.01137 0.08615 0.4204 0.0
N878 N 0.01679 0.08255 0.243 0.0
N879 N 0.00688 0.0895 0.37356 0.0
H880 H 0.81723 0.77293 0.90654 0.0
H881 H 0.85125 0.76251 0.17892 0.0
H882 H 0.84225 0.73237 0.95737 0.0
H883 H 0.81983 0.79952 0.13804 0.0
H884 H 0.85243 0.75435 0.09279 0.0
H885 H 0.82246 0.78562 0.98576 0.0
C886 C 0.82402 0.76676 0.93405 0.0
C887 C 0.82911 0.75145 0.92564 0.0
C888 C 0.84537 0.76434 0.10246 0.0
C889 C 0.83508 0.76592 0.01618 0.0
C890 C 0.84466 0.769 0.15166 0.0
C891 C 0.83518 0.78153 0.16567 0.0
C892 C 0.83645 0.77219 0.06693 0.0
C893 C 0.82714 0.78969 0.12876 0.0
C894 C 0.82695 0.77402 0.97928 0.0
C895 C 0.83792 0.74409 0.96249 0.0
N896 N 0.82779 0.78474 0.08096 0.0
N897 N 0.84049 0.75135 0.00633 0.0
H898 H 0.94149 0.06437 0.90108 0.0
H899 H 0.01024 0.08943 0.72042 0.0
H900 H 0.97873 0.09559 0.94151 0.0
H901 H 0.97072 0.06229 0.67246 0.0
H902 H -0.00263 0.09381 0.79957 0.0
H903 H 0.95047 0.06527 0.81492 0.0
C904 C 0.95144 0.07151 0.89173 0.0
C905 C 0.95954 0.0797 0.92847 0.0
C906 C 0.99143 0.08702 0.77157 0.0
C907 C 0.96985 0.0808 0.83063 0.0
C908 C -0.00121 0.08452 0.72636 0.0
C909 C 0.99164 0.07532 0.69005 0.0
C910 C 0.97689 0.08013 0.78076 0.0
C911 C 0.97672 0.06936 0.69958 0.0
C912 C 0.95655 0.07204 0.84265 0.0
C913 C 0.97228 0.08889 0.91445 0.0
N914 N 0.96992 0.0717 0.74432 0.0
N915 N 0.97712 0.08906 0.86677 0.0
H916 H 0.64246 0.25608 0.45442 0.0
H917 H 0.67034 0.18903 0.63708 0.0
H918 H 0.67068 0.2172 0.40734 0.0
H919 H 0.63948 0.22654 0.67795 0.0
H920 H 0.66807 0.19703 0.55017 0.0
H921 H 0.63844 0.24328 0.53379 0.0
C922 C 0.64767 0.24476 0.46058 0.0
C923 C 0.65712 0.23782 0.42455 0.0
C924 C 0.66166 0.20337 0.57819 0.0
C925 C 0.65275 0.22317 0.51559 0.0
C926 C 0.66297 0.19882 0.62768 0.0
C927 C 0.65533 0.20733 0.66469 0.0
C928 C 0.65265 0.2165 0.56602 0.0
C929 C 0.64581 0.21982 0.65064 0.0
C930 C 0.64537 0.23744 0.50593 0.0
C931 C 0.66342 0.22305 0.4343 0.0
N932 N 0.64487 0.22411 0.60253 0.0
N933 N 0.66132 0.21631 0.47926 0.0
H934 H 0.4831 0.90488 0.22433 0.0
H935 H 0.55068 0.92696 0.41339 0.0
H936 H 0.5223 0.93369 0.18452 0.0
H937 H 0.51325 0.89507 0.44565 0.0
H938 H 0.54226 0.92753 0.32662 0.0
H939 H 0.4957 0.89899 0.30284 0.0
C940 C 0.49443 0.90986 0.23193 0.0
C941 C 0.50156 0.91996 0.19815 0.0
C942 C 0.53602 0.92028 0.35266 0.0
C943 C 0.51601 0.91339 0.28821 0.0
C944 C 0.54082 0.91996 0.40209 0.0
C945 C 0.53247 0.91117 0.43677 0.0
C946 C 0.52281 0.91177 0.33821 0.0
C947 C 0.51986 0.90222 0.42026 0.0
C948 C 0.50164 0.90648 0.27677 0.0
C949 C 0.51633 0.92594 0.20971 0.0
N950 N 0.51533 0.90287 0.3723 0.0
N951 N 0.52299 0.92273 0.25412 0.0
H952 H 0.8421 0.23487 0.26229 0.0
H953 H 0.8218 0.22294 0.54733 0.0
H954 H 0.81454 0.19657 0.31697 0.0
H955 H 0.84237 0.26457 0.48631 0.0
H956 H 0.82401 0.21046 0.46646 0.0
H957 H 0.84698 0.24309 0.34696 0.0
C958 C 0.83711 0.22814 0.29223 0.0
C959 C 0.82765 0.21518 0.28265 0.0
C960 C 0.82823 0.22224 0.47101 0.0
C961 C 0.83321 0.22458 0.37984 0.0
C962 C 0.82703 0.22938 0.51719 0.0
C963 C 0.83165 0.24495 0.52335 0.0
C964 C 0.83412 0.23072 0.43085 0.0
C965 C 0.83846 0.25265 0.48309 0.0
C966 C 0.83995 0.23283 0.34059 0.0
C967 C 0.82174 0.20674 0.32283 0.0
N968 N 0.83932 0.2455 0.43839 0.0
N969 N 0.82448 0.2117 0.36987 0.0
H970 H 0.47858 0.10285 0.27127 0.0
H971 H 0.54566 0.0676 0.10144 0.0
H972 H 0.51924 0.0798 0.32994 0.0
H973 H 0.50478 0.09123 0.04686 0.0
H974 H 0.5384 0.07523 0.18599 0.0
H975 H 0.49053 0.1027 0.18954 0.0
C976 C 0.49014 0.098 0.26715 0.0
C977 C 0.49777 0.09104 0.30727 0.0
C978 C 0.53113 0.07885 0.15535 0.0
C979 C 0.51142 0.09052 0.21361 0.0
C980 C 0.53524 0.07445 0.10723 0.0
C981 C 0.52566 0.07855 0.06731 0.0
C982 C 0.51739 0.0874 0.16322 0.0
C983 C 0.51238 0.08757 0.07665 0.0
C984 C 0.49696 0.09786 0.22039 0.0
C985 C 0.51283 0.08511 0.29987 0.0
N986 N 0.50859 0.09158 0.12359 0.0
N987 N 0.51905 0.08472 0.25369 0.0
H988 H 0.66973 0.77387 0.06214 0.0
H989 H 0.6509 0.7601 0.7773 0.0
H990 H 0.64473 0.73429 0.00396 0.0
H991 H 0.67995 0.79757 0.83004 0.0
H992 H 0.64429 0.75366 0.86218 0.0
H993 H 0.66898 0.78585 0.9802 0.0
C994 C 0.66379 0.76783 0.03243 0.0
C995 C 0.65755 0.75289 0.03962 0.0
C996 C 0.65204 0.76336 0.85539 0.0
C997 C 0.65679 0.76649 0.94596 0.0
C998 C 0.65589 0.76701 0.80689 0.0
C999 C 0.66626 0.77919 0.79676 0.0
C1000 C 0.65873 0.77183 0.89433 0.0
C1001 C 0.67208 0.78796 0.83642 0.0
C1002 C 0.66345 0.77466 0.98563 0.0
C1003 C 0.64992 0.74569 -9e-05 0.0
N1004 N 0.66839 0.78396 0.88372 0.0
N1005 N 0.64994 0.75247 0.95463 0.0
H1006 H 0.94744 0.92194 0.58958 0.0
H1007 H 0.01682 0.89201 0.75977 0.0
H1008 H 0.98849 0.89848 0.53557 0.0
H1009 H 0.97514 0.91335 0.81784 0.0
H1010 H 0.0045 0.89049 0.67868 0.0
H1011 H 0.95543 0.91573 0.67456 0.0
C1012 C 0.95805 0.9154 0.59561 0.0
C1013 C 0.96747 0.91097 0.55567 0.0
C1014 C -0.00205 0.89532 0.7093 0.0
C1015 C 0.97661 0.90377 0.65212 0.0
C1016 C 0.00498 0.89614 0.75568 0.0
C1017 C -0.00287 0.90311 0.79539 0.0
C1018 C 0.98304 0.90168 0.70247 0.0
C1019 C 0.98172 0.90808 0.78807 0.0
C1020 C 0.96258 0.91182 0.64399 0.0
C1021 C 0.98101 0.90237 0.56534 0.0
N1022 N 0.97527 0.90754 0.74222 0.0
N1023 N 0.98523 0.89918 0.61254 0.0
H1024 H 0.67855 0.72125 0.55641 0.0
H1025 H 0.64257 0.73227 0.28702 0.0
H1026 H 0.6516 0.76106 0.50981 0.0
H1027 H 0.67532 0.69597 0.32362 0.0
H1028 H 0.64135 0.73959 0.37388 0.0
H1029 H 0.67308 0.70873 0.47704 0.0
C1030 C 0.67129 0.72727 0.52982 0.0
C1031 C 0.66574 0.74235 0.53937 0.0
C1032 C 0.64872 0.72994 0.36313 0.0
C1033 C 0.65949 0.72809 0.44872 0.0
C1034 C 0.64944 0.72576 0.31351 0.0
C1035 C 0.65932 0.7137 0.2981 0.0
C1036 C 0.65804 0.7221 0.39766 0.0
C1037 C 0.66771 0.70546 0.33402 0.0
C1038 C 0.66821 0.72012 0.48451 0.0
C1039 C 0.65632 0.74954 0.50373 0.0
N1040 N 0.66705 0.70997 0.38226 0.0
N1041 N 0.65362 0.7424 0.45979 0.0
H1042 H 0.51949 0.41842 0.81288 0.0
H1043 H 0.50558 0.40329 0.52544 0.0
H1044 H 0.47609 0.4027 0.74964 0.0
H1045 H 0.54841 0.42196 0.5841 0.0
H1046 H 0.49617 0.39936 0.60916 0.0
H1047 H 0.53175 0.41582 0.73182 0.0
C1048 C 0.51258 0.41419 0.78216 0.0
C1049 C 0.49664 0.41102 0.78789 0.0
C1050 C 0.50766 0.40425 0.60395 0.0
C1051 C 0.51063 0.40814 0.69508 0.0
C1052 C 0.51304 0.40656 0.55606 0.0
C1053 C 0.52771 0.4132 0.54785 0.0
C1054 C 0.51694 0.40871 0.64418 0.0
C1055 C 0.53696 0.41695 0.58891 0.0
C1056 C 0.5196 0.41276 0.73586 0.0
C1057 C 0.48834 0.40546 0.74687 0.0
N1058 N 0.53134 0.4148 0.6355 0.0
N1059 N 0.4954 0.40437 0.70209 0.0
H1060 H 0.81488 0.29977 0.81294 0.0
H1061 H 0.84025 0.2299 0.9884 0.0
H1062 H 0.8439 0.26138 0.76694 0.0
H1063 H 0.81578 0.27056 0.04122 0.0
H1064 H 0.8441 0.2428 0.90903 0.0
H1065 H 0.81722 0.29085 0.89889 0.0
C1066 C 0.82185 0.28958 0.821 0.0
C1067 C 0.82897 0.28114 0.78283 0.0
C1068 C 0.83804 0.24899 0.93817 0.0
C1069 C 0.8317 0.27089 0.8804 0.0
C1070 C 0.83584 0.24161 0.98351 0.0
C1071 C 0.82748 0.24906 0.02121 0.0
C1072 C 0.83166 0.26385 0.9303 0.0
C1073 C 0.82217 0.2643 0.01298 0.0
C1074 C 0.82321 0.2845 0.86996 0.0
C1075 C 0.83798 0.26809 0.79519 0.0
N1076 N 0.82415 0.27112 0.96813 0.0
N1077 N 0.83896 0.26329 0.8428 0.0
H1078 H 0.0092 0.5906 0.25898 0.0
H1079 H 0.9421 0.56332 0.07402 0.0
H1080 H 0.97532 0.55528 0.29517 0.0
H1081 H 0.97695 0.59777 0.03938 0.0
H1082 H 0.95151 0.56288 0.15975 0.0
H1083 H 0.99499 0.59605 0.18288 0.0
C1084 C -0.0013 0.58407 0.25114 0.0
C1085 C 0.99358 0.5723 0.28313 0.0
C1086 C 0.95696 0.57066 0.13344 0.0
C1087 C 0.97729 0.57842 0.19588 0.0
C1088 C 0.95158 0.57093 0.08463 0.0
C1089 C 0.95895 0.58039 0.04953 0.0
C1090 C 0.96976 0.57994 0.14689 0.0
C1091 C 0.97111 0.5901 0.06514 0.0
C1092 C 0.99057 0.5872 0.20767 0.0
C1093 C 0.97979 0.56435 0.2713 0.0
N1094 N 0.97623 0.58951 0.11252 0.0
N1095 N 0.97222 0.56743 0.22831 0.0
H1096 H 0.66957 0.29389 0.13403 0.0
H1097 H 0.63939 0.22625 0.9569 0.0
H1098 H 0.64298 0.25409 0.18232 0.0
H1099 H 0.66429 0.26654 0.90377 0.0
H1100 H 0.63712 0.23858 0.03777 0.0
H1101 H 0.66478 0.28622 0.04777 0.0
C1102 C 0.66264 0.28364 0.12646 0.0
C1103 C 0.65691 0.27445 0.16522 0.0
C1104 C 0.64292 0.24484 0.00829 0.0
C1105 C 0.65134 0.26568 0.06732 0.0
C1106 C 0.64419 0.23779 0.96205 0.0
C1107 C 0.65228 0.24525 0.92383 0.0
C1108 C 0.64998 0.25935 0.01657 0.0
C1109 C 0.65809 0.26029 0.9324 0.0
C1110 C 0.65987 0.27929 0.07735 0.0
C1111 C 0.64786 0.26137 0.15355 0.0
N1112 N 0.65707 0.26675 0.97818 0.0
N1113 N 0.64547 0.25732 0.10571 0.0
H1114 H 0.98069 0.39597 0.4419 0.0
H1115 H 0.97643 0.42814 0.16624 0.0
H1116 H 0.94688 0.42988 0.39382 0.0
H1117 H 0.0113 0.39604 0.21947 0.0
H1118 H 0.96264 0.4256 0.24475 0.0
H1119 H 0.98909 0.39264 0.35669 0.0
C1120 C 0.97497 0.40268 0.41323 0.0
C1121 C 0.96327 0.41344 0.42492 0.0
C1122 C 0.9732 0.41897 0.23899 0.0
C1123 C 0.97291 0.40972 0.3271 0.0
C1124 C 0.98109 0.42039 0.19414 0.0
C1125 C 0.99521 0.4125 0.18659 0.0
C1126 C 0.97949 0.40962 0.27651 0.0
C1127 C 0.00058 0.40251 0.22387 0.0
C1128 C 0.97975 0.40073 0.36452 0.0
C1129 C 0.95605 0.42158 0.3863 0.0
N1130 N 0.9928 0.4015 0.26743 0.0
N1131 N 0.96115 0.41971 0.33898 0.0
H1132 H 0.8159 0.69607 0.63443 0.0
H1133 H 0.8492 0.76355 0.46221 0.0
H1134 H 0.84179 0.73586 0.68681 0.0
H1135 H 0.8247 0.72349 0.40519 0.0
H1136 H 0.84998 0.75128 0.54341 0.0
H1137 H 0.82181 0.70385 0.54897 0.0
C1138 C 0.82289 0.70635 0.62794 0.0
C1139 C 0.82813 0.71549 0.66759 0.0
C1140 C 0.8446 0.74506 0.51302 0.0
C1141 C 0.83501 0.72435 0.57064 0.0
C1142 C 0.8442 0.75206 0.46658 0.0
C1143 C 0.83664 0.74467 0.42709 0.0
C1144 C 0.83722 0.73064 0.52018 0.0
C1145 C 0.83051 0.7297 0.43477 0.0
C1146 C 0.8263 0.71076 0.5793 0.0
C1147 C 0.83728 0.72861 0.65732 0.0
N1148 N 0.83069 0.72328 0.48069 0.0
N1149 N 0.84032 0.7327 0.60993 0.0
H1150 H 0.54889 0.5712 0.88944 0.0
H1151 H 0.47677 0.59634 0.72094 0.0
H1152 H 0.50443 0.58688 0.94466 0.0
H1153 H 0.51934 0.57724 0.66151 0.0
H1154 H 0.4889 0.59752 0.80235 0.0
H1155 H 0.54013 0.57712 0.8049 0.0
C1156 C 0.53735 0.57593 0.88379 0.0
C1157 C 0.52729 0.57832 0.92392 0.0
C1158 C 0.49566 0.59324 0.77139 0.0
C1159 C 0.5173 0.58527 0.82809 0.0
C1160 C 0.48875 0.59263 0.72481 0.0
C1161 C 0.49693 0.5864 0.68455 0.0
C1162 C 0.51082 0.58745 0.77785 0.0
C1163 C 0.51251 0.58194 0.69169 0.0
C1164 C 0.53237 0.57935 0.83569 0.0
C1165 C 0.51251 0.58462 0.91474 0.0
N1166 N 0.51888 0.58231 0.73768 0.0
N1167 N 0.50795 0.58779 0.86786 0.0
H1168 H 0.31128 0.27453 0.42052 0.0
H1169 H 0.3462 0.26627 0.69251 0.0
H1170 H 0.33925 0.23586 0.47066 0.0
H1171 H 0.31176 0.30064 0.65284 0.0
H1172 H 0.34794 0.25843 0.60621 0.0
H1173 H 0.31552 0.28741 0.50003 0.0
C1174 C 0.3185 0.26883 0.44795 0.0
C1175 C 0.32473 0.25397 0.43926 0.0
C1176 C 0.34008 0.26777 0.61618 0.0
C1177 C 0.32958 0.26866 0.53009 0.0
C1178 C 0.33905 0.27225 0.66548 0.0
C1179 C 0.32858 0.28392 0.67988 0.0
C1180 C 0.33049 0.27493 0.58094 0.0
C1181 C 0.31984 0.29147 0.64324 0.0
C1182 C 0.32087 0.2762 0.49333 0.0
C1183 C 0.33405 0.24721 0.476 0.0
N1184 N 0.32084 0.28669 0.59533 0.0
N1185 N 0.33607 0.25456 0.51998 0.0
H1186 H 0.47801 0.599 0.43261 0.0
H1187 H 0.47628 0.5571 0.16974 0.0
H1188 H 0.44569 0.56238 0.39564 0.0
H1189 H 0.50982 0.59201 0.21274 0.0
H1190 H 0.46219 0.5617 0.24682 0.0
H1191 H 0.48683 0.59948 0.34713 0.0
C1192 C 0.47268 0.59111 0.40629 0.0
C1193 C 0.4613 0.58044 0.42128 0.0
C1194 C 0.47253 0.56846 0.23911 0.0
C1195 C 0.47145 0.58083 0.32328 0.0
C1196 C 0.4806 0.56586 0.1951 0.0
C1197 C 0.4944 0.57402 0.18511 0.0
C1198 C 0.47833 0.57929 0.27334 0.0
C1199 C 0.49935 0.58531 0.21913 0.0
C1200 C 0.47772 0.59141 0.35743 0.0
C1201 C 0.4546 0.57069 0.38555 0.0
N1202 N 0.49139 0.58749 0.26194 0.0
N1203 N 0.45994 0.57096 0.33816 0.0
H1204 H 0.17708 0.69315 0.16733 0.0
H1205 H 0.17719 0.71928 0.92282 0.0
H1206 H 0.14495 0.73081 0.1944 0.0
H1207 H 0.15804 0.7614 0.98534 0.0
H1208 H 0.17272 0.70607 0.00128 0.0
H1209 H 0.17819 0.7007 0.08027 0.0
C1210 C 0.17004 0.70282 0.15467 0.0
C1211 C 0.16106 0.71148 0.18809 0.0
C1212 C 0.16962 0.71822 -0.00186 0.0
C1213 C 0.16197 0.72005 0.0885 0.0
C1214 C 0.17202 0.72575 0.95306 0.0
C1215 C 0.16822 0.74156 0.94774 0.0
C1216 C 0.16346 0.72662 0.03822 0.0
C1217 C 0.16134 0.74928 0.98789 0.0
C1218 C 0.17058 0.70709 0.10479 0.0
C1219 C 0.15219 0.72393 0.16996 0.0
N1220 N 0.15929 0.74174 0.03147 0.0
N1221 N 0.153 0.72792 0.12155 0.0
H1222 H 0.97818 0.39839 0.72047 0.0
H1223 H 0.05047 0.419 0.8941 0.0
H1224 H 0.01993 0.42072 0.66706 0.0
H1225 H 0.00789 0.39753 0.94406 0.0
H1226 H 0.04132 0.41643 0.8083 0.0
H1227 H 0.99083 0.3943 0.80012 0.0
C1228 C 0.99007 0.40227 0.72528 0.0
C1229 C -0.0021 0.41014 0.68733 0.0
C1230 C 0.03408 0.41216 0.83813 0.0
C1231 C 0.01241 0.40569 0.77866 0.0
C1232 C 0.03929 0.41364 0.88697 0.0
C1233 C 0.0298 0.40873 0.92613 0.0
C1234 C 0.01933 0.40569 0.82879 0.0
C1235 C 0.01547 0.40174 0.91502 0.0
C1236 C -0.0027 0.39996 0.77083 0.0
C1237 C 0.01338 0.41475 0.6955 0.0
N1238 N 0.01064 0.40054 0.86748 0.0
N1239 N 0.02006 0.41266 0.74056 0.0
H1240 H 0.35279 0.76758 -0.00023 0.0
H1241 H 0.32285 0.6968 0.83528 0.0
H1242 H 0.3343 0.7251 0.06156 0.0
H1243 H 0.34451 0.73822 0.77688 0.0
H1244 H 0.32981 0.70535 0.91911 0.0
H1245 H 0.35339 0.75524 0.91854 0.0
C1246 C 0.34912 0.75557 -0.00355 0.0
C1247 C 0.3432 0.74748 0.03734 0.0
C1248 C 0.33316 0.71247 0.88782 0.0
C1249 C 0.34355 0.73335 0.94431 0.0
C1250 C 0.32913 0.70762 0.84009 0.0
C1251 C 0.33287 0.71694 0.79926 0.0
C1252 C 0.34093 0.72673 0.89445 0.0
C1253 C 0.34117 0.73078 0.80738 0.0
C1254 C 0.3494 0.74853 0.94998 0.0
C1255 C 0.33875 0.73187 0.0309 0.0
N1256 N 0.34479 0.7353 0.85401 0.0
N1257 N 0.33875 0.7254 0.98506 0.0
H1258 H 0.01775 0.57703 0.81169 0.0
H1259 H 0.00208 0.58472 0.52259 0.0
H1260 H 0.9749 0.5938 0.74748 0.0
H1261 H 0.04551 0.56796 0.58264 0.0
H1262 H 0.9934 0.59112 0.60551 0.0
H1263 H 0.02963 0.5772 0.7296 0.0
C1264 C 0.01091 0.58103 0.78052 0.0
C1265 C 0.99519 0.58513 0.78635 0.0
C1266 C 0.00486 0.58611 0.60079 0.0
C1267 C 0.0087 0.58519 0.69238 0.0
C1268 C 0.00982 0.58235 0.55336 0.0
C1269 C 0.02447 0.57557 0.5458 0.0
C1270 C 0.01454 0.58294 0.64134 0.0
C1271 C 0.03406 0.57303 0.58699 0.0
C1272 C 0.01771 0.58106 0.73363 0.0
C1273 C 0.98697 0.59033 0.7447 0.0
N1274 N 0.02886 0.57658 0.63323 0.0
N1275 N 0.99377 0.59001 0.69941 0.0
H1276 H 0.14441 0.25323 0.29115 0.0
H1277 H 0.16642 0.26679 0.57397 0.0
H1278 H 0.1732 0.29126 0.34125 0.0
H1279 H 0.14261 0.22626 0.5174 0.0
H1280 H 0.16428 0.27891 0.49246 0.0
H1281 H 0.13916 0.24631 0.37664 0.0
C1282 C 0.14961 0.26017 0.32028 0.0
C1283 C 0.15951 0.27265 0.30921 0.0
C1284 C 0.15932 0.26747 0.49817 0.0
C1285 C 0.15358 0.26472 0.40743 0.0
C1286 C 0.16047 0.26055 0.54472 0.0
C1287 C 0.15494 0.24535 0.55221 0.0
C1288 C 0.15256 0.25912 0.45905 0.0
C1289 C 0.14726 0.23788 0.51309 0.0
C1290 C 0.14655 0.25624 0.36915 0.0
C1291 C 0.16565 0.28143 0.34835 0.0
N1292 N 0.14647 0.24478 0.46804 0.0
N1293 N 0.16275 0.27716 0.39596 0.0
H1294 H 0.51427 0.40026 0.2536 0.0
H1295 H 0.474 0.3927 0.03538 0.0
H1296 H 0.47741 0.43089 0.30174 0.0
H1297 H 0.45063 0.43489 0.07958 0.0
H1298 H 0.48351 0.38946 0.11943 0.0
H1299 H 0.50068 0.39636 0.17601 0.0
C1300 C 0.50313 0.40591 0.24824 0.0
C1301 C 0.49705 0.41602 0.28408 0.0
C1302 C 0.47651 0.39956 0.11098 0.0
C1303 C 0.48107 0.41133 0.19527 0.0
C1304 C 0.47092 0.40132 0.06302 0.0
C1305 C 0.46184 0.41427 0.0505 0.0
C1306 C 0.47334 0.4111 0.14639 0.0
C1307 C 0.45778 0.42484 0.08777 0.0
C1308 C 0.49523 0.40356 0.20386 0.0
C1309 C 0.48259 0.42307 0.27499 0.0
N1310 N 0.46378 0.42315 0.13405 0.0
N1311 N 0.47519 0.42074 0.23121 0.0
H1312 H 0.14833 0.33579 0.12175 0.0
H1313 H 0.05747 0.35598 0.10802 0.0
H1314 H 0.11232 0.3008 0.11977 0.0
H1315 H 0.094 0.39044 0.10866 0.0
H1316 H 0.07723 0.33551 0.11274 0.0
H1317 H 0.12843 0.35592 0.11572 0.0
C1318 C 0.13624 0.33233 0.11969 0.0
C1319 C 0.13198 0.3166 0.12132 0.0
C1320 C 0.0809 0.34756 0.11197 0.0
C1321 C 0.10909 0.33961 0.11488 0.0
C1322 C 0.06963 0.35924 0.10948 0.0
C1323 C 0.0741 0.37493 0.10796 0.0
C1324 C 0.09673 0.35162 0.11293 0.0
C1325 C 0.09002 0.3785 0.10975 0.0
C1326 C 0.12486 0.34384 0.11642 0.0
C1327 C 0.11612 0.3128 0.11859 0.0
N1328 N 0.10074 0.36694 0.11205 0.0
N1329 N 0.10523 0.32424 0.11568 0.0
H1330 H 0.84813 0.84537 0.3553 0.0
H1331 H 0.93896 0.8658 0.35953 0.0
H1332 H 0.88459 0.81083 0.35385 0.0
H1333 H 0.90279 0.90033 0.37441 0.0
H1334 H 0.91909 0.84561 0.35362 0.0
H1335 H 0.86788 0.86577 0.36046 0.0
C1336 C 0.86028 0.84207 0.35644 0.0
C1337 C 0.86473 0.82638 0.35415 0.0
C1338 C 0.91548 0.85761 0.35803 0.0
C1339 C 0.88737 0.84965 0.35949 0.0
C1340 C 0.92683 0.86915 0.36116 0.0
C1341 C 0.92252 0.88477 0.36754 0.0
C1342 C 0.8997 0.8617 0.36125 0.0
C1343 C 0.90662 0.88843 0.36952 0.0
C1344 C 0.87155 0.85373 0.35922 0.0
C1345 C 0.88064 0.82278 0.3556 0.0
N1346 N 0.89578 0.87697 0.36651 0.0
N1347 N 0.89138 0.83433 0.35799 0.0
H1348 H 0.37584 0.68599 0.60041 0.0
H1349 H 0.39646 0.59517 0.60669 0.0
H1350 H 0.34144 0.65019 0.62413 0.0
H1351 H 0.43078 0.63178 0.60148 0.0
H1352 H 0.37594 0.61491 0.60965 0.0
H1353 H 0.3959 0.666 0.59529 0.0
C1354 C 0.37248 0.67391 0.60413 0.0
C1355 C 0.35694 0.66976 0.61283 0.0
C1356 C 0.38797 0.61861 0.60804 0.0
C1357 C 0.3799 0.64678 0.60745 0.0
C1358 C 0.39968 0.60735 0.60649 0.0
C1359 C 0.41535 0.61185 0.60389 0.0
C1360 C 0.39197 0.63445 0.60669 0.0
C1361 C 0.41886 0.62779 0.60357 0.0
C1362 C 0.38396 0.66249 0.60145 0.0
C1363 C 0.35328 0.65391 0.61741 0.0
N1364 N 0.40726 0.6385 0.60477 0.0
N1365 N 0.36469 0.64298 0.61481 0.0
H1366 H 0.60704 0.17904 0.85966 0.0
H1367 H 0.59036 0.08776 0.88434 0.0
H1368 H 0.64326 0.14425 0.85637 0.0
H1369 H 0.55446 0.12268 0.87203 0.0
H1370 H 0.61003 0.10817 0.87618 0.0
H1371 H 0.58772 0.15845 0.86802 0.0
C1372 C 0.61094 0.16706 0.86104 0.0
C1373 C 0.62678 0.16335 0.85726 0.0
C1374 C 0.59785 0.11134 0.87506 0.0
C1375 C 0.60469 0.13968 0.86645 0.0
C1376 C 0.58661 0.0997 0.87957 0.0
C1377 C 0.57075 0.10353 0.87888 0.0
C1378 C 0.59316 0.12692 0.87006 0.0
C1379 C 0.56656 0.11919 0.87273 0.0
C1380 C 0.59989 0.1553 0.86559 0.0
C1381 C 0.63116 0.14763 0.85917 0.0
N1382 N 0.57769 0.1303 0.86876 0.0
N1383 N 0.62016 0.13635 0.86355 0.0
H1384 H 0.05394 0.62675 0.36922 0.0
H1385 H 0.14422 0.64953 0.37996 0.0
H1386 H 0.09122 0.59326 0.38013 0.0
H1387 H 0.10723 0.68332 0.3689 0.0
H1388 H 0.12484 0.62879 0.38203 0.0
H1389 H 0.0732 0.64771 0.36925 0.0
C1390 C 0.06617 0.6238 0.3713 0.0
C1391 C 0.07099 0.60824 0.37464 0.0
C1392 C 0.12094 0.64075 0.37936 0.0
C1393 C 0.09305 0.63213 0.37514 0.0
C1394 C 0.13201 0.6526 0.37837 0.0
C1395 C 0.12733 0.66817 0.37417 0.0
C1396 C 0.10507 0.64449 0.37602 0.0
C1397 C 0.11135 0.67147 0.37216 0.0
C1398 C 0.07715 0.63577 0.37152 0.0
C1399 C 0.08698 0.60509 0.37745 0.0
N1400 N 0.10079 0.65971 0.37291 0.0
N1401 N 0.09743 0.61693 0.37773 0.0
H1402 H 0.65391 0.84276 0.62072 0.0
H1403 H 0.56206 0.8581 0.61755 0.0
H1404 H 0.61949 0.80636 0.60968 0.0
H1405 H 0.59624 0.89488 0.61983 0.0
H1406 H 0.58304 0.83897 0.61707 0.0
H1407 H 0.63303 0.86209 0.62071 0.0
C1408 C 0.64197 0.83884 0.61784 0.0
C1409 C 0.63843 0.82293 0.61525 0.0
C1410 C 0.58596 0.85122 0.61783 0.0
C1411 C 0.61449 0.84495 0.61582 0.0
C1412 C 0.57398 0.86216 0.61837 0.0
C1413 C 0.57741 0.87811 0.6187 0.0
C1414 C 0.6015 0.85627 0.61764 0.0
C1415 C 0.59308 0.88269 0.6196 0.0
C1416 C 0.63006 0.84988 0.61805 0.0
C1417 C 0.62276 0.81851 0.61172 0.0
N1418 N 0.60455 0.87182 0.6189 0.0
N1419 N 0.61137 0.82945 0.61233 0.0
H1420 H 0.39561 0.40557 0.88261 0.0
H1421 H 0.33834 0.34832 0.85683 0.0
H1422 H 0.42811 0.36819 0.85626 0.0
H1423 H 0.376 0.3157 0.87644 0.0
H1424 H 0.357 0.36959 0.85802 0.0
H1425 H 0.37442 0.38683 0.88237 0.0
C1426 C 0.39824 0.39342 0.87588 0.0
C1427 C 0.41365 0.38845 0.86923 0.0
C1428 C 0.36125 0.35787 0.86321 0.0
C1429 C 0.38935 0.36679 0.86815 0.0
C1430 C 0.35054 0.34567 0.86232 0.0
C1431 C 0.35561 0.33022 0.86672 0.0
C1432 C 0.37718 0.35458 0.86884 0.0
C1433 C 0.37156 0.32744 0.87306 0.0
C1434 C 0.38608 0.38266 0.87553 0.0
C1435 C 0.4164 0.37255 0.86137 0.0
N1436 N 0.38176 0.33949 0.87369 0.0
N1437 N 0.40439 0.36231 0.86125 0.0
H1438 H 0.83559 0.14828 0.11748 0.0
H1439 H 0.89344 0.09159 0.09865 0.0
H1440 H 0.87245 0.18114 0.08907 0.0
H1441 H 0.92564 0.12971 0.11608 0.0
H1442 H 0.87206 0.11005 0.09639 0.0
H1443 H 0.85462 0.12739 0.11913 0.0
C1444 C 0.84769 0.15105 0.11063 0.0
C1445 C 0.85243 0.16647 0.10293 0.0
C1446 C 0.88369 0.11447 0.10187 0.0
C1447 C 0.87444 0.14249 0.10394 0.0
C1448 C 0.89597 0.10386 0.10294 0.0
C1449 C 0.91135 0.10911 0.10782 0.0
C1450 C 0.8868 0.13048 0.10611 0.0
C1451 C 0.91396 0.12515 0.11247 0.0
C1452 C 0.85862 0.13905 0.11134 0.0
C1453 C 0.86827 0.16941 0.09495 0.0
N1454 N 0.90182 0.13525 0.11131 0.0
N1455 N 0.8787 0.15754 0.0959 0.0
H1456 H 0.87464 0.68659 0.86086 0.0
H1457 H 0.89466 0.5956 0.86181 0.0
H1458 H 0.83982 0.65069 0.84655 0.0
H1459 H 0.92927 0.63197 0.8635 0.0
H1460 H 0.87429 0.61545 0.85778 0.0
H1461 H 0.8947 0.66657 0.86534 0.0
C1462 C 0.8712 0.67448 0.85903 0.0
C1463 C 0.85553 0.67031 0.85327 0.0
C1464 C 0.88635 0.61908 0.85883 0.0
C1465 C 0.87847 0.64729 0.85794 0.0
C1466 C 0.89798 0.60775 0.86096 0.0
C1467 C 0.91369 0.61214 0.86299 0.0
C1468 C 0.89046 0.63489 0.85894 0.0
C1469 C 0.91732 0.62805 0.86194 0.0
C1470 C 0.88267 0.66305 0.86136 0.0
C1471 C 0.85176 0.65443 0.85101 0.0
N1472 N 0.9058 0.63884 0.86018 0.0
N1473 N 0.86316 0.64349 0.85323 0.0
H1474 H 0.10915 0.17914 0.61869 0.0
H1475 H 0.09159 0.08778 0.60631 0.0
H1476 H 0.1451 0.14407 0.6216 0.0
H1477 H 0.05603 0.12304 0.61886 0.0
H1478 H 0.11144 0.10812 0.60985 0.0
H1479 H 0.08958 0.15865 0.61468 0.0
C1480 C 0.11294 0.16712 0.61807 0.0
C1481 C 0.12878 0.16331 0.62054 0.0
C1482 C 0.0993 0.1114 0.61206 0.0
C1483 C 0.10641 0.13976 0.61643 0.0
C1484 C 0.08796 0.09979 0.61021 0.0
C1485 C 0.07214 0.10373 0.61229 0.0
C1486 C 0.09476 0.12705 0.61575 0.0
C1487 C 0.0681 0.11947 0.61719 0.0
C1488 C 0.10174 0.15542 0.61605 0.0
C1489 C 0.13301 0.14753 0.61974 0.0
N1490 N 0.07933 0.13056 0.61854 0.0
N1491 N 0.12188 0.13632 0.61787 0.0
H1492 H 0.59475 0.3953 0.3737 0.0
H1493 H 0.61016 0.30358 0.35843 0.0
H1494 H 0.55798 0.36112 0.36967 0.0
H1495 H 0.64651 0.33821 0.35449 0.0
H1496 H 0.59088 0.32435 0.3661 0.0
H1497 H 0.61387 0.37441 0.36881 0.0
C1498 C 0.59069 0.38339 0.37157 0.0
C1499 C 0.57474 0.37994 0.37203 0.0
C1500 C 0.60308 0.3274 0.36374 0.0
C1501 C 0.5966 0.35593 0.36677 0.0
C1502 C 0.6141 0.31555 0.35956 0.0
C1503 C 0.62996 0.31918 0.35572 0.0
C1504 C 0.60797 0.34299 0.3641 0.0
C1505 C 0.6344 0.33488 0.35729 0.0
C1506 C 0.60162 0.37145 0.36889 0.0
C1507 C 0.57016 0.3643 0.36929 0.0
N1508 N 0.62345 0.3462 0.36121 0.0
N1509 N 0.58105 0.35285 0.36686 0.0
H1510 H 0.34991 0.84844 0.11625 0.0
H1511 H 0.43962 0.87295 0.12996 0.0
H1512 H 0.38789 0.81563 0.12205 0.0
H1513 H 0.40232 0.90595 0.10935 0.0
H1514 H 0.42059 0.85192 0.13137 0.0
H1515 H 0.36874 0.86978 0.11584 0.0
C1516 C 0.36221 0.84572 0.11705 0.0
C1517 C 0.36735 0.83024 0.11917 0.0
C1518 C 0.41654 0.86376 0.12669 0.0
C1519 C 0.38892 0.85457 0.11931 0.0
C1520 C 0.42741 0.87579 0.12614 0.0
C1521 C 0.42255 0.89123 0.11944 0.0
C1522 C 0.40068 0.86717 0.12054 0.0
C1523 C 0.40657 0.89421 0.1146 0.0
C1524 C 0.37294 0.8579 0.11699 0.0
C1525 C 0.38341 0.82739 0.12031 0.0
N1526 N 0.3962 0.88228 0.1151 0.0
N1527 N 0.39362 0.83944 0.12056 0.0
H1528 H 0.93286 0.36484 0.60858 0.0
H1529 H 0.84168 0.34618 0.6016 0.0
H1530 H 0.89759 0.40046 0.59846 0.0
H1531 H 0.8776 0.31111 0.59557 0.0
H1532 H 0.86179 0.36633 0.60176 0.0
H1533 H 0.91254 0.34506 0.60739 0.0
C1534 C 0.92082 0.36851 0.60651 0.0
C1535 C 0.91691 0.38433 0.60358 0.0
C1536 C 0.86525 0.35423 0.60012 0.0
C1537 C 0.89356 0.3617 0.60172 0.0
C1538 C 0.85379 0.34272 0.59982 0.0
C1539 C 0.85797 0.32694 0.59862 0.0
C1540 C 0.88101 0.3499 0.59948 0.0
C1541 C 0.87383 0.32313 0.59651 0.0
C1542 C 0.90922 0.3572 0.60555 0.0
C1543 C 0.90112 0.3884 0.60082 0.0
N1544 N 0.88476 0.33452 0.59727 0.0
N1545 N 0.89001 0.37714 0.59986 0.0
H1546 H 0.33975 0.15385 0.36219 0.0
H1547 H 0.43139 0.13842 0.3813 0.0
H1548 H 0.37404 0.19038 0.37311 0.0
H1549 H 0.39708 0.10176 0.37942 0.0
H1550 H 0.41052 0.15761 0.37596 0.0
H1551 H 0.36055 0.13455 0.3679 0.0
C1552 C 0.35165 0.15781 0.36616 0.0
C1553 C 0.35518 0.17374 0.36715 0.0
C1554 C 0.40755 0.14537 0.37659 0.0
C1555 C 0.37904 0.15173 0.37318 0.0
C1556 C 0.41947 0.1344 0.37941 0.0
C1557 C 0.41596 0.11847 0.38083 0.0
C1558 C 0.392 0.14038 0.37515 0.0
C1559 C 0.4003 0.11393 0.37841 0.0
C1560 C 0.36352 0.14679 0.36925 0.0
C1561 C 0.37079 0.17821 0.37223 0.0
N1562 N 0.38889 0.12484 0.37578 0.0
N1563 N 0.38215 0.16726 0.37487 0.0
H1564 H 0.64582 0.65205 0.10399 0.0
H1565 H 0.55525 0.6302 0.10214 0.0
H1566 H 0.60915 0.68634 0.10967 0.0
H1567 H 0.5924 0.59643 0.09754 0.0
H1568 H 0.57466 0.65104 0.10432 0.0
H1569 H 0.62624 0.63158 0.09919 0.0
C1570 C 0.63364 0.65529 0.10382 0.0
C1571 C 0.62911 0.67092 0.10734 0.0
C1572 C 0.57855 0.63906 0.10294 0.0
C1573 C 0.60659 0.64752 0.10236 0.0
C1574 C 0.56748 0.62717 0.1019 0.0
C1575 C 0.57222 0.61157 0.0997 0.0
C1576 C 0.59445 0.63529 0.10173 0.0
C1577 C 0.58821 0.6083 0.09926 0.0
C1578 C 0.62245 0.64358 0.10127 0.0
C1579 C 0.61316 0.67443 0.10701 0.0
N1580 N 0.59874 0.62005 0.10018 0.0
N1581 N 0.60246 0.6628 0.1048 0.0
H1582 H 0.09818 0.89572 0.8738 0.0
H1583 H 0.12044 0.80536 0.88629 0.0
H1584 H 0.06449 0.8585 0.8773 0.0
H1585 H 0.15439 0.84181 0.86632 0.0
H1586 H 0.09993 0.82495 0.88843 0.0
H1587 H 0.11907 0.87637 0.87408 0.0
C1588 C 0.09518 0.88348 0.87423 0.0
C1589 C 0.07958 0.87871 0.87549 0.0
C1590 C 0.11187 0.82869 0.88379 0.0
C1591 C 0.10339 0.85655 0.87646 0.0
C1592 C 0.1236 0.81751 0.88284 0.0
C1593 C 0.13914 0.82196 0.87598 0.0
C1594 C 0.11568 0.84447 0.87785 0.0
C1595 C 0.14255 0.83787 0.87165 0.0
C1596 C 0.1071 0.87245 0.87459 0.0
C1597 C 0.07635 0.86271 0.87621 0.0
N1598 N 0.1309 0.84856 0.87247 0.0
N1599 N 0.08815 0.85221 0.87688 0.0
loop_
_geom_bond_atom_site_label_1
_geom_bond_atom_site_label_2
_geom_bond_distance
_geom_bond_site_symmetry_2
_ccdc_geom_bond_type
C0 O1 1.306 . S
C0 O3 1.160 . S
O1 C0 1.306 . S
O1 Cd2 2.228 1_556 S
Cd2 O1 2.228 1_554 S
Cd2 O6 2.273 . S
Cd2 O10 2.277 . S
O3 C0 1.160 . S
O3 Cd4 2.203 1_556 S
Cd4 O3 2.203 1_554 S
Cd4 O6 2.411 . S
Cd4 O7 2.333 . S
Cd4 O8 2.352 . S
Cd4 O12 2.277 . S
Cd4 O13 2.356 . S
C5 O10 1.209 . S
C5 O12 1.226 . S
O6 Cd2 2.273 . S
O6 Cd4 2.411 . S
O6 C9 1.320 . S
O7 Cd4 2.333 . S
O7 C9 1.214 . S
O8 Cd4 2.352 . S
O8 C11 1.258 . S
C9 O6 1.320 . S
C9 O7 1.214 . S
O10 Cd2 2.277 . S
O10 C5 1.209 . S
C11 O8 1.258 . S
C11 O13 1.282 . S
O12 Cd4 2.277 . S
O12 C5 1.226 . S
O13 Cd4 2.356 . S
O13 C11 1.282 . S
C14 O15 1.306 . S
C14 O17 1.160 . S
O15 C14 1.306 . S
O15 Cd16 2.228 . S
Cd16 O15 2.228 . S
Cd16 O20 2.273 . S
Cd16 O24 2.277 . S
O17 C14 1.160 . S
O17 Cd18 2.203 . S
Cd18 O17 2.203 . S
Cd18 O20 2.411 . S
Cd18 O21 2.333 . S
Cd18 O22 2.352 . S
Cd18 O26 2.277 . S
Cd18 O27 2.356 . S
C19 O24 1.209 . S
C19 O26 1.226 . S
O20 Cd16 2.273 . S
O20 Cd18 2.411 . S
O20 C23 1.320 . S
O21 Cd18 2.333 . S
O21 C23 1.214 . S
O22 Cd18 2.352 . S
O22 C25 1.258 . S
C23 O20 1.320 . S
C23 O21 1.214 . S
O24 Cd16 2.277 . S
O24 C19 1.209 . S
C25 O22 1.258 . S
C25 O27 1.282 . S
O26 Cd18 2.277 . S
O26 C19 1.226 . S
O27 Cd18 2.356 . S
O27 C25 1.282 . S
C28 O29 1.306 . S
C28 O31 1.160 . S
O29 C28 1.306 . S
O29 Cd30 2.228 . S
Cd30 O29 2.228 . S
Cd30 O34 2.273 . S
Cd30 O38 2.277 . S
O31 C28 1.160 . S
O31 Cd32 2.203 . S
Cd32 O31 2.203 . S
Cd32 O34 2.411 . S
Cd32 O35 2.333 . S
Cd32 O36 2.352 . S
Cd32 O40 2.277 . S
Cd32 O41 2.356 . S
C33 O38 1.209 . S
C33 O40 1.226 . S
O34 Cd30 2.273 . S
O34 Cd32 2.411 . S
O34 C37 1.320 . S
O35 Cd32 2.333 . S
O35 C37 1.214 . S
O36 Cd32 2.352 . S
O36 C39 1.258 . S
C37 O34 1.320 . S
C37 O35 1.214 . S
O38 Cd30 2.277 . S
O38 C33 1.209 . S
C39 O36 1.258 . S
C39 O41 1.282 . S
O40 Cd32 2.277 . S
O40 C33 1.226 . S
O41 Cd32 2.356 . S
O41 C39 1.282 . S
C42 O43 1.306 . S
C42 O45 1.160 . S
O43 C42 1.306 . S
O43 Cd44 2.228 . S
Cd44 O43 2.228 . S
Cd44 O48 2.273 . S
Cd44 O52 2.277 . S
O45 C42 1.160 . S
O45 Cd46 2.203 . S
Cd46 O45 2.203 . S
Cd46 O48 2.411 . S
Cd46 O49 2.333 . S
Cd46 O50 2.352 . S
Cd46 O54 2.277 . S
Cd46 O55 2.356 . S
C47 O52 1.209 . S
C47 O54 1.226 . S
O48 Cd44 2.273 . S
O48 Cd46 2.411 . S
O48 C51 1.320 . S
O49 Cd46 2.333 . S
O49 C51 1.214 . S
O50 Cd46 2.352 . S
O50 C53 1.258 . S
C51 O48 1.320 . S
C51 O49 1.214 . S
O52 Cd44 2.277 . S
O52 C47 1.209 . S
C53 O50 1.258 . S
C53 O55 1.282 . S
O54 Cd46 2.277 . S
O54 C47 1.226 . S
O55 Cd46 2.356 . S
O55 C53 1.282 . S
C56 O57 1.306 . S
C56 O59 1.160 . S
O57 C56 1.306 . S
O57 Cd58 2.228 . S
Cd58 O57 2.228 . S
Cd58 O62 2.273 . S
Cd58 O66 2.277 . S
O59 C56 1.160 . S
O59 Cd60 2.203 . S
Cd60 O59 2.203 . S
Cd60 O62 2.411 . S
Cd60 O63 2.333 . S
Cd60 O64 2.352 . S
Cd60 O68 2.277 . S
Cd60 O69 2.356 . S
C61 O66 1.209 . S
C61 O68 1.226 . S
O62 Cd58 2.273 . S
O62 Cd60 2.411 . S
O62 C65 1.320 . S
O63 Cd60 2.333 . S
O63 C65 1.214 . S
O64 Cd60 2.352 . S
O64 C67 1.258 . S
C65 O62 1.320 . S
C65 O63 1.214 . S
O66 Cd58 2.277 . S
O66 C61 1.209 . S
C67 O64 1.258 . S
C67 O69 1.282 . S
O68 Cd60 2.277 . S
O68 C61 1.226 . S
O69 Cd60 2.356 . S
O69 C67 1.282 . S
C70 O71 1.306 . S
C70 O73 1.160 . S
O71 C70 1.306 . S
O71 Cd72 2.228 . S
Cd72 O71 2.228 . S
Cd72 O76 2.273 . S
Cd72 O80 2.277 . S
O73 C70 1.160 . S
O73 Cd74 2.203 . S
Cd74 O73 2.203 . S
Cd74 O76 2.411 . S
Cd74 O77 2.333 . S
Cd74 O78 2.352 . S
Cd74 O82 2.277 . S
Cd74 O83 2.356 . S
C75 O80 1.209 . S
C75 O82 1.226 . S
O76 Cd72 2.273 . S
O76 Cd74 2.411 . S
O76 C79 1.320 . S
O77 Cd74 2.333 . S
O77 C79 1.214 . S
O78 Cd74 2.352 . S
O78 C81 1.258 . S
C79 O76 1.320 . S
C79 O77 1.214 . S
O80 Cd72 2.277 . S
O80 C75 1.209 . S
C81 O78 1.258 . S
C81 O83 1.282 . S
O82 Cd74 2.277 . S
O82 C75 1.226 . S
O83 Cd74 2.356 . S
O83 C81 1.282 . S
C84 O85 1.306 . S
C84 O87 1.160 . S
O85 C84 1.306 . S
O85 Cd86 2.228 1_554 S
Cd86 O85 2.228 1_556 S
Cd86 O90 2.273 . S
Cd86 O94 2.277 . S
O87 C84 1.160 . S
O87 Cd88 2.203 1_554 S
Cd88 O87 2.203 1_556 S
Cd88 O90 2.411 . S
Cd88 O91 2.333 . S
Cd88 O92 2.352 . S
Cd88 O96 2.277 . S
Cd88 O97 2.356 . S
C89 O94 1.209 . S
C89 O96 1.226 . S
O90 Cd86 2.273 . S
O90 Cd88 2.411 . S
O90 C93 1.320 . S
O91 Cd88 2.333 . S
O91 C93 1.214 . S
O92 Cd88 2.352 . S
O92 C95 1.258 . S
C93 O90 1.320 . S
C93 O91 1.214 . S
O94 Cd86 2.277 . S
O94 C89 1.209 . S
C95 O92 1.258 . S
C95 O97 1.282 . S
O96 Cd88 2.277 . S
O96 C89 1.226 . S
O97 Cd88 2.356 . S
O97 C95 1.282 . S
C98 O99 1.306 . S
C98 O101 1.160 . S
O99 C98 1.306 . S
O99 Cd100 2.228 . S
Cd100 O99 2.228 . S
Cd100 O104 2.273 . S
Cd100 O108 2.277 . S
O101 C98 1.160 . S
O101 Cd102 2.203 . S
Cd102 O101 2.203 . S
Cd102 O104 2.411 . S
Cd102 O105 2.333 . S
Cd102 O106 2.352 . S
Cd102 O110 2.277 . S
Cd102 O111 2.356 . S
C103 O108 1.209 . S
C103 O110 1.226 . S
O104 Cd100 2.273 . S
O104 Cd102 2.411 . S
O104 C107 1.320 . S
O105 Cd102 2.333 . S
O105 C107 1.214 . S
O106 Cd102 2.352 . S
O106 C109 1.258 . S
C107 O104 1.320 . S
C107 O105 1.214 . S
O108 Cd100 2.277 . S
O108 C103 1.209 . S
C109 O106 1.258 . S
C109 O111 1.282 . S
O110 Cd102 2.277 . S
O110 C103 1.226 . S
O111 Cd102 2.356 . S
O111 C109 1.282 . S
C112 O113 1.306 . S
C112 O115 1.160 . S
O113 C112 1.306 . S
O113 Cd114 2.228 1_554 S
Cd114 O113 2.228 1_556 S
Cd114 O118 2.273 . S
Cd114 O122 2.277 . S
O115 C112 1.160 . S
O115 Cd116 2.203 1_554 S
Cd116 O115 2.203 1_556 S
Cd116 O118 2.411 . S
Cd116 O119 2.333 . S
Cd116 O120 2.352 . S
Cd116 O124 2.277 . S
Cd116 O125 2.356 . S
C117 O122 1.209 . S
C117 O124 1.226 . S
O118 Cd114 2.273 . S
O118 Cd116 2.411 . S
O118 C121 1.320 . S
O119 Cd116 2.333 . S
O119 C121 1.214 . S
O120 Cd116 2.352 . S
O120 C123 1.258 . S
C121 O118 1.320 . S
C121 O119 1.214 . S
O122 Cd114 2.277 . S
O122 C117 1.209 . S
C123 O120 1.258 . S
C123 O125 1.282 . S
O124 Cd116 2.277 . S
O124 C117 1.226 . S
O125 Cd116 2.356 . S
O125 C123 1.282 . S
C126 O127 1.306 . S
C126 O129 1.160 . S
O127 C126 1.306 . S
O127 Cd128 2.228 . S
Cd128 O127 2.228 . S
Cd128 O132 2.273 . S
Cd128 O136 2.277 . S
O129 C126 1.160 . S
O129 Cd130 2.203 . S
Cd130 O129 2.203 . S
Cd130 O132 2.411 . S
Cd130 O133 2.333 . S
Cd130 O134 2.352 . S
Cd130 O138 2.277 . S
Cd130 O139 2.356 . S
C131 O136 1.209 . S
C131 O138 1.226 . S
O132 Cd128 2.273 . S
O132 Cd130 2.411 . S
O132 C135 1.320 . S
O133 Cd130 2.333 . S
O133 C135 1.214 . S
O134 Cd130 2.352 . S
O134 C137 1.258 . S
C135 O132 1.320 . S
C135 O133 1.214 . S
O136 Cd128 2.277 . S
O136 C131 1.209 . S
C137 O134 1.258 . S
C137 O139 1.282 . S
O138 Cd130 2.277 . S
O138 C131 1.226 . S
O139 Cd130 2.356 . S
O139 C137 1.282 . S
C140 O141 1.306 . S
C140 O143 1.160 . S
O141 C140 1.306 . S
O141 Cd142 2.228 . S
Cd142 O141 2.228 . S
Cd142 O146 2.273 . S
Cd142 O150 2.277 . S
O143 C140 1.160 . S
O143 Cd144 2.203 . S
Cd144 O143 2.203 . S
Cd144 O146 2.411 . S
Cd144 O147 2.333 . S
Cd144 O148 2.352 . S
Cd144 O152 2.277 . S
Cd144 O153 2.356 . S
C145 O150 1.209 . S
C145 O152 1.226 . S
O146 Cd142 2.273 . S
O146 Cd144 2.411 . S
O146 C149 1.320 . S
O147 Cd144 2.333 . S
O147 C149 1.214 . S
O148 Cd144 2.352 . S
O148 C151 1.258 . S
C149 O146 1.320 . S
C149 O147 1.214 . S
O150 Cd142 2.277 . S
O150 C145 1.209 . S
C151 O148 1.258 . S
C151 O153 1.282 . S
O152 Cd144 2.277 . S
O152 C145 1.226 . S
O153 Cd144 2.356 . S
O153 C151 1.282 . S
C154 O155 1.306 . S
C154 O157 1.160 . S
O155 C154 1.306 . S
O155 Cd156 2.228 . S
Cd156 O155 2.228 . S
Cd156 O160 2.273 . S
Cd156 O164 2.277 . S
O157 C154 1.160 . S
O157 Cd158 2.203 . S
Cd158 O157 2.203 . S
Cd158 O160 2.411 . S
Cd158 O161 2.333 . S
Cd158 O162 2.352 . S
Cd158 O166 2.277 . S
Cd158 O167 2.356 . S
C159 O164 1.209 . S
C159 O166 1.226 . S
O160 Cd156 2.273 . S
O160 Cd158 2.411 . S
O160 C163 1.320 . S
O161 Cd158 2.333 . S
O161 C163 1.214 . S
O162 Cd158 2.352 . S
O162 C165 1.258 . S
C163 O160 1.320 . S
C163 O161 1.214 . S
O164 Cd156 2.277 . S
O164 C159 1.209 . S
C165 O162 1.258 . S
C165 O167 1.282 . S
O166 Cd158 2.277 . S
O166 C159 1.226 . S
O167 Cd158 2.356 . S
O167 C165 1.282 . S
C168 O169 1.306 . S
C168 O171 1.160 . S
O169 C168 1.306 . S
O169 Cd170 2.228 . S
Cd170 O169 2.228 . S
Cd170 O174 2.273 . S
Cd170 O178 2.277 . S
O171 C168 1.160 . S
O171 Cd172 2.203 . S
Cd172 O171 2.203 . S
Cd172 O174 2.411 . S
Cd172 O175 2.333 . S
Cd172 O176 2.352 . S
Cd172 O180 2.277 . S
Cd172 O181 2.356 . S
C173 O178 1.209 . S
C173 O180 1.226 . S
O174 Cd170 2.273 . S
O174 Cd172 2.411 . S
O174 C177 1.320 . S
O175 Cd172 2.333 . S
O175 C177 1.214 . S
O176 Cd172 2.352 . S
O176 C179 1.258 . S
C177 O174 1.320 . S
C177 O175 1.214 . S
O178 Cd170 2.277 . S
O178 C173 1.209 . S
C179 O176 1.258 . S
C179 O181 1.282 . S
O180 Cd172 2.277 . S
O180 C173 1.226 . S
O181 Cd172 2.356 . S
O181 C179 1.282 . S
C182 O183 1.306 . S
C182 O185 1.160 . S
O183 C182 1.306 . S
O183 Cd184 2.228 . S
Cd184 O183 2.228 . S
Cd184 O188 2.273 . S
Cd184 O192 2.277 . S
O185 C182 1.160 . S
O185 Cd186 2.203 . S
Cd186 O185 2.203 . S
Cd186 O188 2.411 . S
Cd186 O189 2.333 . S
Cd186 O190 2.352 . S
Cd186 O194 2.277 . S
Cd186 O195 2.356 . S
C187 O192 1.209 . S
C187 O194 1.226 . S
O188 Cd184 2.273 . S
O188 Cd186 2.411 . S
O188 C191 1.320 . S
O189 Cd186 2.333 . S
O189 C191 1.214 . S
O190 Cd186 2.352 . S
O190 C193 1.258 . S
C191 O188 1.320 . S
C191 O189 1.214 . S
O192 Cd184 2.277 . S
O192 C187 1.209 . S
C193 O190 1.258 . S
C193 O195 1.282 . S
O194 Cd186 2.277 . S
O194 C187 1.226 . S
O195 Cd186 2.356 . S
O195 C193 1.282 . S
C196 O197 1.306 . S
C196 O199 1.160 . S
O197 C196 1.306 . S
O197 Cd198 2.228 1_556 S
Cd198 O197 2.228 1_554 S
Cd198 O202 2.273 . S
Cd198 O206 2.277 . S
O199 C196 1.160 . S
O199 Cd200 2.203 1_556 S
Cd200 O199 2.203 1_554 S
Cd200 O202 2.411 . S
Cd200 O203 2.333 . S
Cd200 O204 2.352 . S
Cd200 O208 2.277 . S
Cd200 O209 2.356 . S
C201 O206 1.209 . S
C201 O208 1.226 . S
O202 Cd198 2.273 . S
O202 Cd200 2.411 . S
O202 C205 1.320 . S
O203 Cd200 2.333 . S
O203 C205 1.214 . S
O204 Cd200 2.352 . S
O204 C207 1.258 . S
C205 O202 1.320 . S
C205 O203 1.214 . S
O206 Cd198 2.277 . S
O206 C201 1.209 . S
C207 O204 1.258 . S
C207 O209 1.282 . S
O208 Cd200 2.277 . S
O208 C201 1.226 . S
O209 Cd200 2.356 . S
O209 C207 1.282 . S
C210 O211 1.306 . S
C210 O213 1.160 . S
O211 C210 1.306 . S
O211 Cd212 2.228 . S
Cd212 O211 2.228 . S
Cd212 O216 2.273 . S
Cd212 O220 2.277 . S
O213 C210 1.160 . S
O213 Cd214 2.203 . S
Cd214 O213 2.203 . S
Cd214 O216 2.411 . S
Cd214 O217 2.333 . S
Cd214 O218 2.352 . S
Cd214 O222 2.277 . S
Cd214 O223 2.356 . S
C215 O220 1.209 . S
C215 O222 1.226 . S
O216 Cd212 2.273 . S
O216 Cd214 2.411 . S
O216 C219 1.320 . S
O217 Cd214 2.333 . S
O217 C219 1.214 . S
O218 Cd214 2.352 . S
O218 C221 1.258 . S
C219 O216 1.320 . S
C219 O217 1.214 . S
O220 Cd212 2.277 . S
O220 C215 1.209 . S
C221 O218 1.258 . S
C221 O223 1.282 . S
O222 Cd214 2.277 . S
O222 C215 1.226 . S
O223 Cd214 2.356 . S
O223 C221 1.282 . S
C224 O225 1.306 . S
C224 O227 1.160 . S
O225 C224 1.306 . S
O225 Cd226 2.228 . S
Cd226 O225 2.228 . S
Cd226 O230 2.273 . S
Cd226 O234 2.277 . S
O227 C224 1.160 . S
O227 Cd228 2.203 . S
Cd228 O227 2.203 . S
Cd228 O230 2.411 . S
Cd228 O231 2.333 . S
Cd228 O232 2.352 . S
Cd228 O236 2.277 . S
Cd228 O237 2.356 . S
C229 O234 1.209 . S
C229 O236 1.226 . S
O230 Cd226 2.273 . S
O230 Cd228 2.411 . S
O230 C233 1.320 . S
O231 Cd228 2.333 . S
O231 C233 1.214 . S
O232 Cd228 2.352 . S
O232 C235 1.258 . S
C233 O230 1.320 . S
C233 O231 1.214 . S
O234 Cd226 2.277 . S
O234 C229 1.209 . S
C235 O232 1.258 . S
C235 O237 1.282 . S
O236 Cd228 2.277 . S
O236 C229 1.226 . S
O237 Cd228 2.356 . S
O237 C235 1.282 . S
C238 O239 1.306 . S
C238 O241 1.160 . S
O239 C238 1.306 . S
O239 Cd240 2.228 . S
Cd240 O239 2.228 . S
Cd240 O244 2.273 . S
Cd240 O248 2.277 . S
O241 C238 1.160 . S
O241 Cd242 2.203 . S
Cd242 O241 2.203 . S
Cd242 O244 2.411 . S
Cd242 O245 2.333 . S
Cd242 O246 2.352 . S
Cd242 O250 2.277 . S
Cd242 O251 2.356 . S
C243 O248 1.209 . S
C243 O250 1.226 . S
O244 Cd240 2.273 . S
O244 Cd242 2.411 . S
O244 C247 1.320 . S
O245 Cd242 2.333 . S
O245 C247 1.214 . S
O246 Cd242 2.352 . S
O246 C249 1.258 . S
C247 O244 1.320 . S
C247 O245 1.214 . S
O248 Cd240 2.277 . S
O248 C243 1.209 . S
C249 O246 1.258 . S
C249 O251 1.282 . S
O250 Cd242 2.277 . S
O250 C243 1.226 . S
O251 Cd242 2.356 . S
O251 C249 1.282 . S
C252 O253 1.306 . S
C252 O255 1.160 . S
O253 C252 1.306 . S
O253 Cd254 2.228 1_556 S
Cd254 O253 2.228 1_554 S
Cd254 O258 2.273 . S
Cd254 O262 2.277 . S
O255 C252 1.160 . S
O255 Cd256 2.203 1_556 S
Cd256 O255 2.203 1_554 S
Cd256 O258 2.411 . S
Cd256 O259 2.333 . S
Cd256 O260 2.352 . S
Cd256 O264 2.277 . S
Cd256 O265 2.356 . S
C257 O262 1.209 . S
C257 O264 1.226 . S
O258 Cd254 2.273 . S
O258 Cd256 2.411 . S
O258 C261 1.320 . S
O259 Cd256 2.333 . S
O259 C261 1.214 . S
O260 Cd256 2.352 . S
O260 C263 1.258 . S
C261 O258 1.320 . S
C261 O259 1.214 . S
O262 Cd254 2.277 . S
O262 C257 1.209 . S
C263 O260 1.258 . S
C263 O265 1.282 . S
O264 Cd256 2.277 . S
O264 C257 1.226 . S
O265 Cd256 2.356 . S
O265 C263 1.282 . S
C266 O267 1.306 . S
C266 O269 1.160 . S
O267 C266 1.306 . S
O267 Cd268 2.228 . S
Cd268 O267 2.228 . S
Cd268 O272 2.273 . S
Cd268 O276 2.277 . S
O269 C266 1.160 . S
O269 Cd270 2.203 . S
Cd270 O269 2.203 . S
Cd270 O272 2.411 . S
Cd270 O273 2.333 . S
Cd270 O274 2.352 . S
Cd270 O278 2.277 . S
Cd270 O279 2.356 . S
C271 O276 1.209 . S
C271 O278 1.226 . S
O272 Cd268 2.273 . S
O272 Cd270 2.411 . S
O272 C275 1.320 . S
O273 Cd270 2.333 . S
O273 C275 1.214 . S
O274 Cd270 2.352 . S
O274 C277 1.258 . S
C275 O272 1.320 . S
C275 O273 1.214 . S
O276 Cd268 2.277 . S
O276 C271 1.209 . S
C277 O274 1.258 . S
C277 O279 1.282 . S
O278 Cd270 2.277 . S
O278 C271 1.226 . S
O279 Cd270 2.356 . S
O279 C277 1.282 . S
C280 O281 1.306 . S
C280 O283 1.160 . S
O281 C280 1.306 . S
O281 Cd282 2.228 1_554 S
Cd282 O281 2.228 1_556 S
Cd282 O286 2.273 . S
Cd282 O290 2.277 . S
O283 C280 1.160 . S
O283 Cd284 2.203 1_554 S
Cd284 O283 2.203 1_556 S
Cd284 O286 2.411 . S
Cd284 O287 2.333 . S
Cd284 O288 2.352 . S
Cd284 O292 2.277 . S
Cd284 O293 2.356 . S
C285 O290 1.209 . S
C285 O292 1.226 . S
O286 Cd282 2.273 . S
O286 Cd284 2.411 . S
O286 C289 1.320 . S
O287 Cd284 2.333 . S
O287 C289 1.214 . S
O288 Cd284 2.352 . S
O288 C291 1.258 . S
C289 O286 1.320 . S
C289 O287 1.214 . S
O290 Cd282 2.277 . S
O290 C285 1.209 . S
C291 O288 1.258 . S
C291 O293 1.282 . S
O292 Cd284 2.277 . S
O292 C285 1.226 . S
O293 Cd284 2.356 . S
O293 C291 1.282 . S
C294 O295 1.306 . S
C294 O297 1.160 . S
O295 C294 1.306 . S
O295 Cd296 2.228 . S
Cd296 O295 2.228 . S
Cd296 O300 2.273 . S
Cd296 O304 2.277 . S
O297 C294 1.160 . S
O297 Cd298 2.203 . S
Cd298 O297 2.203 . S
Cd298 O300 2.411 . S
Cd298 O301 2.333 . S
Cd298 O302 2.352 . S
Cd298 O306 2.277 . S
Cd298 O307 2.356 . S
C299 O304 1.209 . S
C299 O306 1.226 . S
O300 Cd296 2.273 . S
O300 Cd298 2.411 . S
O300 C303 1.320 . S
O301 Cd298 2.333 . S
O301 C303 1.214 . S
O302 Cd298 2.352 . S
O302 C305 1.258 . S
C303 O300 1.320 . S
C303 O301 1.214 . S
O304 Cd296 2.277 . S
O304 C299 1.209 . S
C305 O302 1.258 . S
C305 O307 1.282 . S
O306 Cd298 2.277 . S
O306 C299 1.226 . S
O307 Cd298 2.356 . S
O307 C305 1.282 . S
C308 O309 1.306 . S
C308 O311 1.160 . S
O309 C308 1.306 . S
O309 Cd310 2.228 . S
Cd310 O309 2.228 . S
Cd310 O314 2.273 . S
Cd310 O318 2.277 . S
O311 C308 1.160 . S
O311 Cd312 2.203 . S
Cd312 O311 2.203 . S
Cd312 O314 2.411 . S
Cd312 O315 2.333 . S
Cd312 O316 2.352 . S
Cd312 O320 2.277 . S
Cd312 O321 2.356 . S
C313 O318 1.209 . S
C313 O320 1.226 . S
O314 Cd310 2.273 . S
O314 Cd312 2.411 . S
O314 C317 1.320 . S
O315 Cd312 2.333 . S
O315 C317 1.214 . S
O316 Cd312 2.352 . S
O316 C319 1.258 . S
C317 O314 1.320 . S
C317 O315 1.214 . S
O318 Cd310 2.277 . S
O318 C313 1.209 . S
C319 O316 1.258 . S
C319 O321 1.282 . S
O320 Cd312 2.277 . S
O320 C313 1.226 . S
O321 Cd312 2.356 . S
O321 C319 1.282 . S
C322 O323 1.306 . S
C322 O325 1.160 . S
O323 C322 1.306 . S
O323 Cd324 2.228 . S
Cd324 O323 2.228 . S
Cd324 O328 2.273 . S
Cd324 O332 2.277 . S
O325 C322 1.160 . S
O325 Cd326 2.203 . S
Cd326 O325 2.203 . S
Cd326 O328 2.411 . S
Cd326 O329 2.333 . S
Cd326 O330 2.352 . S
Cd326 O334 2.277 . S
Cd326 O335 2.356 . S
C327 O332 1.209 . S
C327 O334 1.226 . S
O328 Cd324 2.273 . S
O328 Cd326 2.411 . S
O328 C331 1.320 . S
O329 Cd326 2.333 . S
O329 C331 1.214 . S
O330 Cd326 2.352 . S
O330 C333 1.258 . S
C331 O328 1.320 . S
C331 O329 1.214 . S
O332 Cd324 2.277 . S
O332 C327 1.209 . S
C333 O330 1.258 . S
C333 O335 1.282 . S
O334 Cd326 2.277 . S
O334 C327 1.226 . S
O335 Cd326 2.356 . S
O335 C333 1.282 . S
C336 O337 1.306 . S
C336 O339 1.160 . S
O337 C336 1.306 . S
O337 Cd338 2.228 . S
Cd338 O337 2.228 . S
Cd338 O342 2.273 . S
Cd338 O346 2.277 . S
O339 C336 1.160 . S
O339 Cd340 2.203 . S
Cd340 O339 2.203 . S
Cd340 O342 2.411 . S
Cd340 O343 2.333 . S
Cd340 O344 2.352 . S
Cd340 O348 2.277 . S
Cd340 O349 2.356 . S
C341 O346 1.209 . S
C341 O348 1.226 . S
O342 Cd338 2.273 . S
O342 Cd340 2.411 . S
O342 C345 1.320 . S
O343 Cd340 2.333 . S
O343 C345 1.214 . S
O344 Cd340 2.352 . S
O344 C347 1.258 . S
C345 O342 1.320 . S
C345 O343 1.214 . S
O346 Cd338 2.277 . S
O346 C341 1.209 . S
C347 O344 1.258 . S
C347 O349 1.282 . S
O348 Cd340 2.277 . S
O348 C341 1.226 . S
O349 Cd340 2.356 . S
O349 C347 1.282 . S
C350 O351 1.306 . S
C350 O353 1.160 . S
O351 C350 1.306 . S
O351 Cd352 2.228 . S
Cd352 O351 2.228 . S
Cd352 O356 2.273 . S
Cd352 O360 2.277 . S
O353 C350 1.160 . S
O353 Cd354 2.203 . S
Cd354 O353 2.203 . S
Cd354 O356 2.411 . S
Cd354 O357 2.333 . S
Cd354 O358 2.352 . S
Cd354 O362 2.277 . S
Cd354 O363 2.356 . S
C355 O360 1.209 . S
C355 O362 1.226 . S
O356 Cd352 2.273 . S
O356 Cd354 2.411 . S
O356 C359 1.320 . S
O357 Cd354 2.333 . S
O357 C359 1.214 . S
O358 Cd354 2.352 . S
O358 C361 1.258 . S
C359 O356 1.320 . S
C359 O357 1.214 . S
O360 Cd352 2.277 . S
O360 C355 1.209 . S
C361 O358 1.258 . S
C361 O363 1.282 . S
O362 Cd354 2.277 . S
O362 C355 1.226 . S
O363 Cd354 2.356 . S
O363 C361 1.282 . S
C364 O365 1.306 . S
C364 O367 1.160 . S
O365 C364 1.306 . S
O365 Cd366 2.228 1_554 S
Cd366 O365 2.228 1_556 S
Cd366 O370 2.273 . S
Cd366 O374 2.277 . S
O367 C364 1.160 . S
O367 Cd368 2.203 1_554 S
Cd368 O367 2.203 1_556 S
Cd368 O370 2.411 . S
Cd368 O371 2.333 . S
Cd368 O372 2.352 . S
Cd368 O376 2.277 . S
Cd368 O377 2.356 . S
C369 O374 1.209 . S
C369 O376 1.226 . S
O370 Cd366 2.273 . S
O370 Cd368 2.411 . S
O370 C373 1.320 . S
O371 Cd368 2.333 . S
O371 C373 1.214 . S
O372 Cd368 2.352 . S
O372 C375 1.258 . S
C373 O370 1.320 . S
C373 O371 1.214 . S
O374 Cd366 2.277 . S
O374 C369 1.209 . S
C375 O372 1.258 . S
C375 O377 1.282 . S
O376 Cd368 2.277 . S
O376 C369 1.226 . S
O377 Cd368 2.356 . S
O377 C375 1.282 . S
C378 O379 1.306 . S
C378 O381 1.160 . S
O379 C378 1.306 . S
O379 Cd380 2.228 . S
Cd380 O379 2.228 . S
Cd380 O384 2.273 . S
Cd380 O388 2.277 . S
O381 C378 1.160 . S
O381 Cd382 2.203 . S
Cd382 O381 2.203 . S
Cd382 O384 2.411 . S
Cd382 O385 2.333 . S
Cd382 O386 2.352 . S
Cd382 O390 2.277 . S
Cd382 O391 2.356 . S
C383 O388 1.209 . S
C383 O390 1.226 . S
O384 Cd380 2.273 . S
O384 Cd382 2.411 . S
O384 C387 1.320 . S
O385 Cd382 2.333 . S
O385 C387 1.214 . S
O386 Cd382 2.352 . S
O386 C389 1.258 . S
C387 O384 1.320 . S
C387 O385 1.214 . S
O388 Cd380 2.277 . S
O388 C383 1.209 . S
C389 O386 1.258 . S
C389 O391 1.282 . S
O390 Cd382 2.277 . S
O390 C383 1.226 . S
O391 Cd382 2.356 . S
O391 C389 1.282 . S
C392 O393 1.306 . S
C392 O395 1.160 . S
O393 C392 1.306 . S
O393 Cd394 2.228 1_556 S
Cd394 O393 2.228 1_554 S
Cd394 O398 2.273 . S
Cd394 O402 2.277 . S
O395 C392 1.160 . S
O395 Cd396 2.203 1_556 S
Cd396 O395 2.203 1_554 S
Cd396 O398 2.411 . S
Cd396 O399 2.333 . S
Cd396 O400 2.352 . S
Cd396 O404 2.277 . S
Cd396 O405 2.356 . S
C397 O402 1.209 . S
C397 O404 1.226 . S
O398 Cd394 2.273 . S
O398 Cd396 2.411 . S
O398 C401 1.320 . S
O399 Cd396 2.333 . S
O399 C401 1.214 . S
O400 Cd396 2.352 . S
O400 C403 1.258 . S
C401 O398 1.320 . S
C401 O399 1.214 . S
O402 Cd394 2.277 . S
O402 C397 1.209 . S
C403 O400 1.258 . S
C403 O405 1.282 . S
O404 Cd396 2.277 . S
O404 C397 1.226 . S
O405 Cd396 2.356 . S
O405 C403 1.282 . S
C406 O407 1.306 . S
C406 O409 1.160 . S
O407 C406 1.306 . S
O407 Cd408 2.228 . S
Cd408 O407 2.228 . S
Cd408 O412 2.273 . S
Cd408 O416 2.277 . S
O409 C406 1.160 . S
O409 Cd410 2.203 . S
Cd410 O409 2.203 . S
Cd410 O412 2.411 . S
Cd410 O413 2.333 . S
Cd410 O414 2.352 . S
Cd410 O418 2.277 . S
Cd410 O419 2.356 . S
C411 O416 1.209 . S
C411 O418 1.226 . S
O412 Cd408 2.273 . S
O412 Cd410 2.411 . S
O412 C415 1.320 . S
O413 Cd410 2.333 . S
O413 C415 1.214 . S
O414 Cd410 2.352 . S
O414 C417 1.258 . S
C415 O412 1.320 . S
C415 O413 1.214 . S
O416 Cd408 2.277 . S
O416 C411 1.209 . S
C417 O414 1.258 . S
C417 O419 1.282 . S
O418 Cd410 2.277 . S
O418 C411 1.226 . S
O419 Cd410 2.356 . S
O419 C417 1.282 . S
C420 O421 1.306 . S
C420 O423 1.160 . S
O421 C420 1.306 . S
O421 Cd422 2.228 . S
Cd422 O421 2.228 . S
Cd422 O426 2.273 . S
Cd422 O430 2.277 . S
O423 C420 1.160 . S
O423 Cd424 2.203 . S
Cd424 O423 2.203 . S
Cd424 O426 2.411 . S
Cd424 O427 2.333 . S
Cd424 O428 2.352 . S
Cd424 O432 2.277 . S
Cd424 O433 2.356 . S
C425 O430 1.209 . S
C425 O432 1.226 . S
O426 Cd422 2.273 . S
O426 Cd424 2.411 . S
O426 C429 1.320 . S
O427 Cd424 2.333 . S
O427 C429 1.214 . S
O428 Cd424 2.352 . S
O428 C431 1.258 . S
C429 O426 1.320 . S
C429 O427 1.214 . S
O430 Cd422 2.277 . S
O430 C425 1.209 . S
C431 O428 1.258 . S
C431 O433 1.282 . S
O432 Cd424 2.277 . S
O432 C425 1.226 . S
O433 Cd424 2.356 . S
O433 C431 1.282 . S
C434 O435 1.306 . S
C434 O437 1.160 . S
O435 C434 1.306 . S
O435 Cd436 2.228 . S
Cd436 O435 2.228 . S
Cd436 O440 2.273 . S
Cd436 O444 2.277 . S
O437 C434 1.160 . S
O437 Cd438 2.203 . S
Cd438 O437 2.203 . S
Cd438 O440 2.411 . S
Cd438 O441 2.333 . S
Cd438 O442 2.352 . S
Cd438 O446 2.277 . S
Cd438 O447 2.356 . S
C439 O444 1.209 . S
C439 O446 1.226 . S
O440 Cd436 2.273 . S
O440 Cd438 2.411 . S
O440 C443 1.320 . S
O441 Cd438 2.333 . S
O441 C443 1.214 . S
O442 Cd438 2.352 . S
O442 C445 1.258 . S
C443 O440 1.320 . S
C443 O441 1.214 . S
O444 Cd436 2.277 . S
O444 C439 1.209 . S
C445 O442 1.258 . S
C445 O447 1.282 . S
O446 Cd438 2.277 . S
O446 C439 1.226 . S
O447 Cd438 2.356 . S
O447 C445 1.282 . S
H448 C454 0.930 . S
H449 C458 0.930 . S
H450 C463 0.929 . S
H451 C461 0.929 . S
H452 C456 0.929 . S
H453 C462 0.929 . S
C454 H448 0.930 . S
C454 C455 1.367 . S
C454 C462 1.378 . S
C455 C454 1.367 . S
C455 C463 1.433 . S
C456 H452 0.929 . S
C456 C458 1.378 . S
C456 C460 1.350 . S
C457 C460 1.463 1_556 S
C457 C462 1.350 . S
C457 N465 1.427 . S
C458 H449 0.930 . S
C458 C456 1.378 . S
C458 C459 1.367 . S
C459 C458 1.367 . S
C459 C461 1.433 . S
C460 C456 1.350 . S
C460 C457 1.463 1_554 S
C460 N464 1.427 . S
C461 H451 0.929 . S
C461 C459 1.433 . S
C461 N464 1.384 . S
C462 H453 0.929 . S
C462 C454 1.378 . S
C462 C457 1.350 . S
C463 H450 0.929 . S
C463 C455 1.433 . S
C463 N465 1.384 . S
N464 C460 1.427 . S
N464 C461 1.384 . S
N465 C457 1.427 . S
N465 C463 1.384 . S
H466 C472 0.930 . S
H467 C476 0.930 . S
H468 C481 0.929 . S
H469 C479 0.929 . S
H470 C474 0.929 . S
H471 C480 0.929 . S
C472 H466 0.930 . S
C472 C473 1.367 . S
C472 C480 1.378 . S
C473 C472 1.367 . S
C473 C481 1.433 . S
C474 H470 0.929 . S
C474 C476 1.378 . S
C474 C478 1.350 . S
C475 C478 1.463 1_565 S
C475 C480 1.350 . S
C475 N483 1.427 . S
C476 H467 0.930 . S
C476 C474 1.378 . S
C476 C477 1.367 . S
C477 C476 1.367 . S
C477 C479 1.433 . S
C478 C474 1.350 . S
C478 C475 1.463 1_545 S
C478 N482 1.427 . S
C479 H469 0.929 . S
C479 C477 1.433 . S
C479 N482 1.384 . S
C480 H471 0.929 . S
C480 C472 1.378 . S
C480 C475 1.350 . S
C481 H468 0.929 . S
C481 C473 1.433 . S
C481 N483 1.384 . S
N482 C478 1.427 . S
N482 C479 1.384 . S
N483 C475 1.427 . S
N483 C481 1.384 . S
H484 C490 0.930 . S
H485 C494 0.930 . S
H486 C499 0.929 . S
H487 C497 0.929 . S
H488 C492 0.929 . S
H489 C498 0.929 . S
C490 H484 0.930 . S
C490 C491 1.367 . S
C490 C498 1.378 . S
C491 C490 1.367 . S
C491 C499 1.433 . S
C492 H488 0.929 . S
C492 C494 1.378 . S
C492 C496 1.350 . S
C493 C496 1.463 . S
C493 C498 1.350 . S
C493 N501 1.427 . S
C494 H485 0.930 . S
C494 C492 1.378 . S
C494 C495 1.367 . S
C495 C494 1.367 . S
C495 C497 1.433 . S
C496 C492 1.350 . S
C496 C493 1.463 . S
C496 N500 1.427 . S
C497 H487 0.929 . S
C497 C495 1.433 . S
C497 N500 1.384 . S
C498 H489 0.929 . S
C498 C490 1.378 . S
C498 C493 1.350 . S
C499 H486 0.929 . S
C499 C491 1.433 . S
C499 N501 1.384 . S
N500 C496 1.427 . S
N500 C497 1.384 . S
N501 C493 1.427 . S
N501 C499 1.384 . S
H502 C508 0.930 . S
H503 C512 0.930 . S
H504 C517 0.929 . S
H505 C515 0.929 . S
H506 C510 0.929 . S
H507 C516 0.929 . S
C508 H502 0.930 . S
C508 C509 1.367 . S
C508 C516 1.378 . S
C509 C508 1.367 . S
C509 C517 1.433 . S
C510 H506 0.929 . S
C510 C512 1.378 . S
C510 C514 1.350 . S
C511 C514 1.463 1_545 S
C511 C516 1.350 . S
C511 N519 1.427 . S
C512 H503 0.930 . S
C512 C510 1.378 . S
C512 C513 1.367 . S
C513 C512 1.367 . S
C513 C515 1.433 . S
C514 C510 1.350 . S
C514 C511 1.463 1_565 S
C514 N518 1.427 . S
C515 H505 0.929 . S
C515 C513 1.433 . S
C515 N518 1.384 . S
C516 H507 0.929 . S
C516 C508 1.378 . S
C516 C511 1.350 . S
C517 H504 0.929 . S
C517 C509 1.433 . S
C517 N519 1.384 . S
N518 C514 1.427 . S
N518 C515 1.384 . S
N519 C511 1.427 . S
N519 C517 1.384 . S
H520 C526 0.930 . S
H521 C530 0.930 . S
H522 C535 0.929 . S
H523 C533 0.929 . S
H524 C528 0.929 . S
H525 C534 0.929 . S
C526 H520 0.930 . S
C526 C527 1.367 . S
C526 C534 1.378 . S
C527 C526 1.367 . S
C527 C535 1.433 . S
C528 H524 0.929 . S
C528 C530 1.378 . S
C528 C532 1.350 . S
C529 C532 1.463 1_554 S
C529 C534 1.350 . S
C529 N537 1.427 1_554 S
C530 H521 0.930 . S
C530 C528 1.378 . S
C530 C531 1.367 . S
C531 C530 1.367 . S
C531 C533 1.433 . S
C532 C528 1.350 . S
C532 C529 1.463 1_556 S
C532 N536 1.427 1_556 S
C533 H523 0.929 . S
C533 C531 1.433 . S
C533 N536 1.384 1_556 S
C534 H525 0.929 . S
C534 C526 1.378 . S
C534 C529 1.350 . S
C535 H522 0.929 . S
C535 C527 1.433 . S
C535 N537 1.384 1_554 S
N536 C532 1.427 1_554 S
N536 C533 1.384 1_554 S
N537 C529 1.427 1_556 S
N537 C535 1.384 1_556 S
H538 C544 0.930 . S
H539 C548 0.930 . S
H540 C553 0.929 . S
H541 C551 0.929 . S
H542 C546 0.929 . S
H543 C552 0.929 . S
C544 H538 0.930 . S
C544 C545 1.367 . S
C544 C552 1.378 . S
C545 C544 1.367 . S
C545 C553 1.433 . S
C546 H542 0.929 . S
C546 C548 1.378 . S
C546 C550 1.350 . S
C547 C550 1.463 1_565 S
C547 C552 1.350 . S
C547 N555 1.427 . S
C548 H539 0.930 . S
C548 C546 1.378 . S
C548 C549 1.367 . S
C549 C548 1.367 . S
C549 C551 1.433 . S
C550 C546 1.350 . S
C550 C547 1.463 1_545 S
C550 N554 1.427 . S
C551 H541 0.929 . S
C551 C549 1.433 . S
C551 N554 1.384 . S
C552 H543 0.929 . S
C552 C544 1.378 . S
C552 C547 1.350 . S
C553 H540 0.929 . S
C553 C545 1.433 . S
C553 N555 1.384 . S
N554 C550 1.427 . S
N554 C551 1.384 . S
N555 C547 1.427 . S
N555 C553 1.384 . S
H556 C562 0.930 . S
H557 C566 0.930 . S
H558 C571 0.929 . S
H559 C569 0.929 . S
H560 C564 0.929 . S
H561 C570 0.929 . S
C562 H556 0.930 . S
C562 C563 1.367 . S
C562 C570 1.378 . S
C563 C562 1.367 . S
C563 C571 1.433 . S
C564 H560 0.929 . S
C564 C566 1.378 . S
C564 C568 1.350 . S
C565 C568 1.463 . S
C565 C570 1.350 . S
C565 N573 1.427 . S
C566 H557 0.930 . S
C566 C564 1.378 . S
C566 C567 1.367 . S
C567 C566 1.367 . S
C567 C569 1.433 . S
C568 C564 1.350 . S
C568 C565 1.463 . S
C568 N572 1.427 . S
C569 H559 0.929 . S
C569 C567 1.433 . S
C569 N572 1.384 . S
C570 H561 0.929 . S
C570 C562 1.378 . S
C570 C565 1.350 . S
C571 H558 0.929 . S
C571 C563 1.433 . S
C571 N573 1.384 . S
N572 C568 1.427 . S
N572 C569 1.384 . S
N573 C565 1.427 . S
N573 C571 1.384 . S
H574 C580 0.930 . S
H575 C584 0.930 . S
H576 C589 0.929 . S
H577 C587 0.929 . S
H578 C582 0.929 . S
H579 C588 0.929 . S
C580 H574 0.930 . S
C580 C581 1.367 . S
C580 C588 1.378 . S
C581 C580 1.367 . S
C581 C589 1.433 . S
C582 H578 0.929 . S
C582 C584 1.378 . S
C582 C586 1.350 . S
C583 C586 1.463 1_565 S
C583 C588 1.350 . S
C583 N591 1.427 . S
C584 H575 0.930 . S
C584 C582 1.378 . S
C584 C585 1.367 . S
C585 C584 1.367 . S
C585 C587 1.433 . S
C586 C582 1.350 . S
C586 C583 1.463 1_545 S
C586 N590 1.427 . S
C587 H577 0.929 . S
C587 C585 1.433 . S
C587 N590 1.384 . S
C588 H579 0.929 . S
C588 C580 1.378 . S
C588 C583 1.350 . S
C589 H576 0.929 . S
C589 C581 1.433 . S
C589 N591 1.384 . S
N590 C586 1.427 . S
N590 C587 1.384 . S
N591 C583 1.427 . S
N591 C589 1.384 . S
H592 C598 0.930 . S
H593 C602 0.930 . S
H594 C607 0.929 . S
H595 C605 0.929 . S
H596 C600 0.929 . S
H597 C606 0.929 . S
C598 H592 0.930 . S
C598 C599 1.367 . S
C598 C606 1.378 . S
C599 C598 1.367 . S
C599 C607 1.433 . S
C600 H596 0.929 . S
C600 C602 1.378 . S
C600 C604 1.350 . S
C601 C604 1.463 . S
C601 C606 1.350 . S
C601 N609 1.427 . S
C602 H593 0.930 . S
C602 C600 1.378 . S
C602 C603 1.367 . S
C603 C602 1.367 . S
C603 C605 1.433 . S
C604 C600 1.350 . S
C604 C601 1.463 . S
C604 N608 1.427 . S
C605 H595 0.929 . S
C605 C603 1.433 . S
C605 N608 1.384 . S
C606 H597 0.929 . S
C606 C598 1.378 . S
C606 C601 1.350 . S
C607 H594 0.929 . S
C607 C599 1.433 . S
C607 N609 1.384 . S
N608 C604 1.427 . S
N608 C605 1.384 . S
N609 C601 1.427 . S
N609 C607 1.384 . S
H610 C616 0.930 . S
H611 C620 0.930 . S
H612 C625 0.929 . S
H613 C623 0.929 . S
H614 C618 0.929 . S
H615 C624 0.929 . S
C616 H610 0.930 . S
C616 C617 1.367 . S
C616 C624 1.378 . S
C617 C616 1.367 . S
C617 C625 1.433 . S
C618 H614 0.929 . S
C618 C620 1.378 . S
C618 C622 1.350 . S
C619 C622 1.463 . S
C619 C624 1.350 . S
C619 N627 1.427 . S
C620 H611 0.930 . S
C620 C618 1.378 . S
C620 C621 1.367 . S
C621 C620 1.367 . S
C621 C623 1.433 . S
C622 C618 1.350 . S
C622 C619 1.463 . S
C622 N626 1.427 . S
C623 H613 0.929 . S
C623 C621 1.433 . S
C623 N626 1.384 . S
C624 H615 0.929 . S
C624 C616 1.378 . S
C624 C619 1.350 . S
C625 H612 0.929 . S
C625 C617 1.433 . S
C625 N627 1.384 . S
N626 C622 1.427 . S
N626 C623 1.384 . S
N627 C619 1.427 . S
N627 C625 1.384 . S
H628 C634 0.930 . S
H629 C638 0.930 . S
H630 C643 0.929 . S
H631 C641 0.929 . S
H632 C636 0.929 . S
H633 C642 0.929 . S
C634 H628 0.930 . S
C634 C635 1.367 1_554 S
C634 C642 1.378 . S
C635 C634 1.367 1_556 S
C635 C643 1.433 . S
C636 H632 0.929 . S
C636 C638 1.378 . S
C636 C640 1.350 1_556 S
C637 C640 1.463 1_556 S
C637 C642 1.350 1_556 S
C637 N645 1.427 . S
C638 H629 0.930 . S
C638 C636 1.378 . S
C638 C639 1.367 1_556 S
C639 C638 1.367 1_554 S
C639 C641 1.433 . S
C640 C636 1.350 1_554 S
C640 C637 1.463 1_554 S
C640 N644 1.427 . S
C641 H631 0.929 . S
C641 C639 1.433 . S
C641 N644 1.384 . S
C642 H633 0.929 . S
C642 C634 1.378 . S
C642 C637 1.350 1_554 S
C643 H630 0.929 . S
C643 C635 1.433 . S
C643 N645 1.384 . S
N644 C640 1.427 . S
N644 C641 1.384 . S
N645 C637 1.427 . S
N645 C643 1.384 . S
H646 C652 0.930 . S
H647 C656 0.930 . S
H648 C661 0.929 . S
H649 C659 0.929 . S
H650 C654 0.929 . S
H651 C660 0.929 . S
C652 H646 0.930 . S
C652 C653 1.367 . S
C652 C660 1.378 . S
C653 C652 1.367 . S
C653 C661 1.433 . S
C654 H650 0.929 . S
C654 C656 1.378 . S
C654 C658 1.350 . S
C655 C658 1.463 . S
C655 C660 1.350 . S
C655 N663 1.427 . S
C656 H647 0.930 . S
C656 C654 1.378 . S
C656 C657 1.367 . S
C657 C656 1.367 . S
C657 C659 1.433 . S
C658 C654 1.350 . S
C658 C655 1.463 . S
C658 N662 1.427 . S
C659 H649 0.929 . S
C659 C657 1.433 . S
C659 N662 1.384 . S
C660 H651 0.929 . S
C660 C652 1.378 . S
C660 C655 1.350 . S
C661 H648 0.929 . S
C661 C653 1.433 . S
C661 N663 1.384 . S
N662 C658 1.427 . S
N662 C659 1.384 . S
N663 C655 1.427 . S
N663 C661 1.384 . S
H664 C670 0.930 . S
H665 C674 0.930 . S
H666 C679 0.929 . S
H667 C677 0.929 . S
H668 C672 0.929 . S
H669 C678 0.929 . S
C670 H664 0.930 . S
C670 C671 1.367 . S
C670 C678 1.378 . S
C671 C670 1.367 . S
C671 C679 1.433 . S
C672 H668 0.929 . S
C672 C674 1.378 . S
C672 C676 1.350 . S
C673 C676 1.463 . S
C673 C678 1.350 . S
C673 N681 1.427 . S
C674 H665 0.930 . S
C674 C672 1.378 . S
C674 C675 1.367 . S
C675 C674 1.367 . S
C675 C677 1.433 . S
C676 C672 1.350 . S
C676 C673 1.463 . S
C676 N680 1.427 . S
C677 H667 0.929 . S
C677 C675 1.433 . S
C677 N680 1.384 . S
C678 H669 0.929 . S
C678 C670 1.378 . S
C678 C673 1.350 . S
C679 H666 0.929 . S
C679 C671 1.433 . S
C679 N681 1.384 . S
N680 C676 1.427 . S
N680 C677 1.384 . S
N681 C673 1.427 . S
N681 C679 1.384 . S
H682 C688 0.930 . S
H683 C692 0.930 . S
H684 C697 0.929 . S
H685 C695 0.929 . S
H686 C690 0.929 . S
H687 C696 0.929 . S
C688 H682 0.930 . S
C688 C689 1.367 . S
C688 C696 1.378 . S
C689 C688 1.367 . S
C689 C697 1.433 . S
C690 H686 0.929 . S
C690 C692 1.378 . S
C690 C694 1.350 . S
C691 C694 1.463 . S
C691 C696 1.350 . S
C691 N699 1.427 . S
C692 H683 0.930 . S
C692 C690 1.378 . S
C692 C693 1.367 . S
C693 C692 1.367 . S
C693 C695 1.433 . S
C694 C690 1.350 . S
C694 C691 1.463 . S
C694 N698 1.427 . S
C695 H685 0.929 . S
C695 C693 1.433 . S
C695 N698 1.384 . S
C696 H687 0.929 . S
C696 C688 1.378 . S
C696 C691 1.350 . S
C697 H684 0.929 . S
C697 C689 1.433 . S
C697 N699 1.384 . S
N698 C694 1.427 . S
N698 C695 1.384 . S
N699 C691 1.427 . S
N699 C697 1.384 . S
H700 C706 0.930 . S
H701 C710 0.930 . S
H702 C715 0.929 . S
H703 C713 0.929 . S
H704 C708 0.929 . S
H705 C714 0.929 . S
C706 H700 0.930 . S
C706 C707 1.367 1_556 S
C706 C714 1.378 . S
C707 C706 1.367 1_554 S
C707 C715 1.433 . S
C708 H704 0.929 . S
C708 C710 1.378 . S
C708 C712 1.350 1_554 S
C709 C712 1.463 1_554 S
C709 C714 1.350 1_554 S
C709 N717 1.427 . S
C710 H701 0.930 . S
C710 C708 1.378 . S
C710 C711 1.367 1_554 S
C711 C710 1.367 1_556 S
C711 C713 1.433 . S
C712 C708 1.350 1_556 S
C712 C709 1.463 1_556 S
C712 N716 1.427 . S
C713 H703 0.929 . S
C713 C711 1.433 . S
C713 N716 1.384 . S
C714 H705 0.929 . S
C714 C706 1.378 . S
C714 C709 1.350 1_556 S
C715 H702 0.929 . S
C715 C707 1.433 . S
C715 N717 1.384 . S
N716 C712 1.427 . S
N716 C713 1.384 . S
N717 C709 1.427 . S
N717 C715 1.384 . S
H718 C724 0.930 . S
H719 C728 0.930 . S
H720 C733 0.929 . S
H721 C731 0.929 . S
H722 C726 0.929 . S
H723 C732 0.929 . S
C724 H718 0.930 . S
C724 C725 1.367 . S
C724 C732 1.378 . S
C725 C724 1.367 . S
C725 C733 1.433 . S
C726 H722 0.929 . S
C726 C728 1.378 . S
C726 C730 1.350 . S
C727 C730 1.463 . S
C727 C732 1.350 . S
C727 N735 1.427 . S
C728 H719 0.930 . S
C728 C726 1.378 . S
C728 C729 1.367 . S
C729 C728 1.367 . S
C729 C731 1.433 . S
C730 C726 1.350 . S
C730 C727 1.463 . S
C730 N734 1.427 . S
C731 H721 0.929 . S
C731 C729 1.433 . S
C731 N734 1.384 . S
C732 H723 0.929 . S
C732 C724 1.378 . S
C732 C727 1.350 . S
C733 H720 0.929 . S
C733 C725 1.433 . S
C733 N735 1.384 . S
N734 C730 1.427 . S
N734 C731 1.384 . S
N735 C727 1.427 . S
N735 C733 1.384 . S
H736 C742 0.930 . S
H737 C746 0.930 . S
H738 C751 0.929 . S
H739 C749 0.929 . S
H740 C744 0.929 . S
H741 C750 0.929 . S
C742 H736 0.930 . S
C742 C743 1.367 . S
C742 C750 1.378 . S
C743 C742 1.367 . S
C743 C751 1.433 . S
C744 H740 0.929 . S
C744 C746 1.378 . S
C744 C748 1.350 . S
C745 C748 1.463 . S
C745 C750 1.350 . S
C745 N753 1.427 . S
C746 H737 0.930 . S
C746 C744 1.378 . S
C746 C747 1.367 . S
C747 C746 1.367 . S
C747 C749 1.433 . S
C748 C744 1.350 . S
C748 C745 1.463 . S
C748 N752 1.427 . S
C749 H739 0.929 . S
C749 C747 1.433 . S
C749 N752 1.384 . S
C750 H741 0.929 . S
C750 C742 1.378 . S
C750 C745 1.350 . S
C751 H738 0.929 . S
C751 C743 1.433 . S
C751 N753 1.384 . S
N752 C748 1.427 . S
N752 C749 1.384 . S
N753 C745 1.427 . S
N753 C751 1.384 . S
H754 C760 0.930 . S
H755 C764 0.930 . S
H756 C769 0.929 . S
H757 C767 0.929 . S
H758 C762 0.929 1_455 S
H759 C768 0.940 . S
C760 H754 0.930 . S
C760 C761 1.367 . S
C760 C768 1.370 1_456 S
C761 C760 1.367 . S
C761 C769 1.433 . S
C762 H758 0.929 1_655 S
C762 C764 1.378 . S
C762 C766 1.350 . S
C763 C766 1.463 1_455 S
C763 C768 1.347 1_455 S
C763 N771 1.427 . S
C764 H755 0.930 . S
C764 C762 1.378 . S
C764 C765 1.367 . S
C765 C764 1.367 . S
C765 C767 1.433 . S
C766 C762 1.350 . S
C766 C763 1.463 1_655 S
C766 N770 1.427 . S
C767 H757 0.929 . S
C767 C765 1.433 . S
C767 N770 1.384 . S
C768 H759 0.940 . S
C768 C760 1.370 1_654 S
C768 C763 1.347 1_655 S
C769 H756 0.929 . S
C769 C761 1.433 . S
C769 N771 1.384 1_556 S
N770 C766 1.427 . S
N770 C767 1.384 . S
N771 C763 1.427 . S
N771 C769 1.384 1_554 S
H772 C778 0.930 . S
H773 C782 0.930 . S
H774 C787 0.929 . S
H775 C785 0.929 . S
H776 C780 0.929 . S
H777 C786 0.929 . S
C778 H772 0.930 . S
C778 C779 1.367 . S
C778 C786 1.378 . S
C779 C778 1.367 . S
C779 C787 1.433 . S
C780 H776 0.929 . S
C780 C782 1.378 . S
C780 C784 1.350 . S
C781 C784 1.463 . S
C781 C786 1.350 . S
C781 N789 1.427 . S
C782 H773 0.930 . S
C782 C780 1.378 . S
C782 C783 1.367 . S
C783 C782 1.367 . S
C783 C785 1.433 . S
C784 C780 1.350 . S
C784 C781 1.463 . S
C784 N788 1.427 . S
C785 H775 0.929 . S
C785 C783 1.433 . S
C785 N788 1.384 . S
C786 H777 0.929 . S
C786 C778 1.378 . S
C786 C781 1.350 . S
C787 H774 0.929 . S
C787 C779 1.433 . S
C787 N789 1.384 . S
N788 C784 1.427 . S
N788 C785 1.384 . S
N789 C781 1.427 . S
N789 C787 1.384 . S
H790 C796 0.930 . S
H791 C800 0.930 . S
H792 C805 0.929 . S
H793 C803 0.929 . S
H794 C798 0.929 . S
H795 C804 0.929 . S
C796 H790 0.930 . S
C796 C797 1.367 . S
C796 C804 1.378 . S
C797 C796 1.367 . S
C797 C805 1.433 . S
C798 H794 0.929 . S
C798 C800 1.378 . S
C798 C802 1.350 . S
C799 C802 1.463 . S
C799 C804 1.350 . S
C799 N807 1.427 . S
C800 H791 0.930 . S
C800 C798 1.378 . S
C800 C801 1.367 . S
C801 C800 1.367 . S
C801 C803 1.433 . S
C802 C798 1.350 . S
C802 C799 1.463 . S
C802 N806 1.427 . S
C803 H793 0.929 . S
C803 C801 1.433 . S
C803 N806 1.384 . S
C804 H795 0.929 . S
C804 C796 1.378 . S
C804 C799 1.350 . S
C805 H792 0.929 . S
C805 C797 1.433 . S
C805 N807 1.384 . S
N806 C802 1.427 . S
N806 C803 1.384 . S
N807 C799 1.427 . S
N807 C805 1.384 . S
H808 C814 0.930 . S
H809 C818 0.930 . S
H810 C823 0.929 . S
H811 C821 0.929 . S
H812 C816 0.929 . S
H813 C822 0.929 . S
C814 H808 0.930 . S
C814 C815 1.367 . S
C814 C822 1.378 . S
C815 C814 1.367 . S
C815 C823 1.433 . S
C816 H812 0.929 . S
C816 C818 1.378 . S
C816 C820 1.350 . S
C817 C820 1.463 . S
C817 C822 1.350 . S
C817 N825 1.427 . S
C818 H809 0.930 . S
C818 C816 1.378 . S
C818 C819 1.367 . S
C819 C818 1.367 . S
C819 C821 1.433 . S
C820 C816 1.350 . S
C820 C817 1.463 . S
C820 N824 1.427 . S
C821 H811 0.929 . S
C821 C819 1.433 . S
C821 N824 1.384 . S
C822 H813 0.929 . S
C822 C814 1.378 . S
C822 C817 1.350 . S
C823 H810 0.929 . S
C823 C815 1.433 . S
C823 N825 1.384 . S
N824 C820 1.427 . S
N824 C821 1.384 . S
N825 C817 1.427 . S
N825 C823 1.384 . S
H826 C832 0.930 . S
H827 C836 0.930 . S
H828 C841 0.929 . S
H829 C839 0.929 . S
H830 C834 0.929 . S
H831 C840 0.929 . S
C832 H826 0.930 . S
C832 C833 1.367 . S
C832 C840 1.378 1_554 S
C833 C832 1.367 . S
C833 C841 1.433 . S
C834 H830 0.929 . S
C834 C836 1.378 . S
C834 C838 1.350 . S
C835 C838 1.463 . S
C835 C840 1.350 . S
C835 N843 1.427 1_556 S
C836 H827 0.930 . S
C836 C834 1.378 . S
C836 C837 1.367 . S
C837 C836 1.367 . S
C837 C839 1.433 . S
C838 C834 1.350 . S
C838 C835 1.463 . S
C838 N842 1.427 . S
C839 H829 0.929 . S
C839 C837 1.433 . S
C839 N842 1.384 . S
C840 H831 0.929 . S
C840 C832 1.378 1_556 S
C840 C835 1.350 . S
C841 H828 0.929 . S
C841 C833 1.433 . S
C841 N843 1.384 . S
N842 C838 1.427 . S
N842 C839 1.384 . S
N843 C835 1.427 1_554 S
N843 C841 1.384 . S
H844 C850 0.930 . S
H845 C854 0.930 . S
H846 C859 0.929 . S
H847 C857 0.929 . S
H848 C852 0.929 . S
H849 C858 0.929 . S
C850 H844 0.930 . S
C850 C851 1.367 . S
C850 C858 1.378 . S
C851 C850 1.367 . S
C851 C859 1.433 . S
C852 H848 0.929 . S
C852 C854 1.378 . S
C852 C856 1.350 . S
C853 C856 1.463 . S
C853 C858 1.350 . S
C853 N861 1.427 . S
C854 H845 0.930 . S
C854 C852 1.378 . S
C854 C855 1.367 . S
C855 C854 1.367 . S
C855 C857 1.433 . S
C856 C852 1.350 . S
C856 C853 1.463 . S
C856 N860 1.427 . S
C857 H847 0.929 . S
C857 C855 1.433 . S
C857 N860 1.384 . S
C858 H849 0.929 . S
C858 C850 1.378 . S
C858 C853 1.350 . S
C859 H846 0.929 . S
C859 C851 1.433 . S
C859 N861 1.384 . S
N860 C856 1.427 . S
N860 C857 1.384 . S
N861 C853 1.427 . S
N861 C859 1.384 . S
H862 C868 0.930 . S
H863 C872 0.930 . S
H864 C877 0.945 . S
H865 C875 0.929 1_455 S
H866 C870 0.929 . S
H867 C876 0.929 . S
C868 H862 0.930 . S
C868 C869 1.367 . S
C868 C876 1.378 . S
C869 C868 1.367 . S
C869 C877 1.405 1_455 S
C870 H866 0.929 . S
C870 C872 1.378 . S
C870 C874 1.350 . S
C871 C874 1.463 1_455 S
C871 C876 1.350 . S
C871 N879 1.427 1_455 S
C872 H863 0.930 . S
C872 C870 1.378 . S
C872 C873 1.367 . S
C873 C872 1.367 . S
C873 C875 1.433 . S
C874 C870 1.350 . S
C874 C871 1.463 1_655 S
C874 N878 1.427 1_655 S
C875 H865 0.929 1_655 S
C875 C873 1.433 . S
C875 N878 1.384 1_655 S
C876 H867 0.929 . S
C876 C868 1.378 . S
C876 C871 1.350 . S
C877 H864 0.945 . S
C877 C869 1.405 1_655 S
C877 N879 1.395 . S
N878 C874 1.427 1_455 S
N878 C875 1.384 1_455 S
N879 C871 1.427 1_655 S
N879 C877 1.395 . S
H880 C886 0.930 . S
H881 C890 0.930 . S
H882 C895 0.929 . S
H883 C893 0.929 . S
H884 C888 0.929 . S
H885 C894 0.929 . S
C886 H880 0.930 . S
C886 C887 1.367 . S
C886 C894 1.378 . S
C887 C886 1.367 . S
C887 C895 1.433 . S
C888 H884 0.929 . S
C888 C890 1.378 . S
C888 C892 1.350 . S
C889 C892 1.463 . S
C889 C894 1.350 . S
C889 N897 1.427 . S
C890 H881 0.930 . S
C890 C888 1.378 . S
C890 C891 1.367 . S
C891 C890 1.367 . S
C891 C893 1.433 . S
C892 C888 1.350 . S
C892 C889 1.463 . S
C892 N896 1.427 . S
C893 H883 0.929 . S
C893 C891 1.433 . S
C893 N896 1.384 . S
C894 H885 0.929 . S
C894 C886 1.378 . S
C894 C889 1.350 . S
C895 H882 0.929 . S
C895 C887 1.433 . S
C895 N897 1.384 . S
N896 C892 1.427 . S
N896 C893 1.384 . S
N897 C889 1.427 . S
N897 C895 1.384 . S
H898 C904 0.930 . S
H899 C908 0.930 . S
H900 C913 0.929 . S
H901 C911 0.929 . S
H902 C906 0.929 . S
H903 C912 0.929 . S
C904 H898 0.930 . S
C904 C905 1.367 . S
C904 C912 1.378 1_554 S
C905 C904 1.367 . S
C905 C913 1.433 . S
C906 H902 0.929 . S
C906 C908 1.378 . S
C906 C910 1.350 . S
C907 C910 1.463 1_655 S
C907 C912 1.350 . S
C907 N915 1.427 . S
C908 H899 0.930 . S
C908 C906 1.378 . S
C908 C909 1.367 . S
C909 C908 1.367 . S
C909 C911 1.433 . S
C910 C906 1.350 . S
C910 C907 1.463 1_455 S
C910 N914 1.427 . S
C911 H901 0.929 . S
C911 C909 1.433 . S
C911 N914 1.384 . S
C912 H903 0.929 . S
C912 C904 1.378 1_556 S
C912 C907 1.350 . S
C913 H900 0.929 . S
C913 C905 1.433 . S
C913 N915 1.384 1_554 S
N914 C910 1.427 . S
N914 C911 1.384 . S
N915 C907 1.427 . S
N915 C913 1.384 1_556 S
H916 C922 0.930 . S
H917 C926 0.930 . S
H918 C931 0.929 . S
H919 C929 0.929 . S
H920 C924 0.929 . S
H921 C930 0.929 . S
C922 H916 0.930 . S
C922 C923 1.367 . S
C922 C930 1.378 . S
C923 C922 1.367 . S
C923 C931 1.433 . S
C924 H920 0.929 . S
C924 C926 1.378 . S
C924 C928 1.350 . S
C925 C928 1.463 . S
C925 C930 1.350 . S
C925 N933 1.427 . S
C926 H917 0.930 . S
C926 C924 1.378 . S
C926 C927 1.367 . S
C927 C926 1.367 . S
C927 C929 1.433 . S
C928 C924 1.350 . S
C928 C925 1.463 . S
C928 N932 1.427 . S
C929 H919 0.929 . S
C929 C927 1.433 . S
C929 N932 1.384 . S
C930 H921 0.929 . S
C930 C922 1.378 . S
C930 C925 1.350 . S
C931 H918 0.929 . S
C931 C923 1.433 . S
C931 N933 1.384 . S
N932 C928 1.427 . S
N932 C929 1.384 . S
N933 C925 1.427 . S
N933 C931 1.384 . S
H934 C940 0.930 . S
H935 C944 0.930 . S
H936 C949 0.929 . S
H937 C947 0.929 . S
H938 C942 0.929 . S
H939 C948 0.929 . S
C940 H934 0.930 . S
C940 C941 1.367 . S
C940 C948 1.378 . S
C941 C940 1.367 . S
C941 C949 1.433 . S
C942 H938 0.929 . S
C942 C944 1.378 . S
C942 C946 1.350 . S
C943 C946 1.463 . S
C943 C948 1.350 . S
C943 N951 1.427 . S
C944 H935 0.930 . S
C944 C942 1.378 . S
C944 C945 1.367 . S
C945 C944 1.367 . S
C945 C947 1.433 . S
C946 C942 1.350 . S
C946 C943 1.463 . S
C946 N950 1.427 . S
C947 H937 0.929 . S
C947 C945 1.433 . S
C947 N950 1.384 . S
C948 H939 0.929 . S
C948 C940 1.378 . S
C948 C943 1.350 . S
C949 H936 0.929 . S
C949 C941 1.433 . S
C949 N951 1.384 . S
N950 C946 1.427 . S
N950 C947 1.384 . S
N951 C943 1.427 . S
N951 C949 1.384 . S
H952 C958 0.930 . S
H953 C962 0.930 . S
H954 C967 0.929 . S
H955 C965 0.929 . S
H956 C960 0.929 . S
H957 C966 0.929 . S
C958 H952 0.930 . S
C958 C959 1.367 . S
C958 C966 1.378 . S
C959 C958 1.367 . S
C959 C967 1.433 . S
C960 H956 0.929 . S
C960 C962 1.378 . S
C960 C964 1.350 . S
C961 C964 1.463 . S
C961 C966 1.350 . S
C961 N969 1.427 . S
C962 H953 0.930 . S
C962 C960 1.378 . S
C962 C963 1.367 . S
C963 C962 1.367 . S
C963 C965 1.433 . S
C964 C960 1.350 . S
C964 C961 1.463 . S
C964 N968 1.427 . S
C965 H955 0.929 . S
C965 C963 1.433 . S
C965 N968 1.384 . S
C966 H957 0.929 . S
C966 C958 1.378 . S
C966 C961 1.350 . S
C967 H954 0.929 . S
C967 C959 1.433 . S
C967 N969 1.384 . S
N968 C964 1.427 . S
N968 C965 1.384 . S
N969 C961 1.427 . S
N969 C967 1.384 . S
H970 C976 0.930 . S
H971 C980 0.930 . S
H972 C985 0.929 . S
H973 C983 0.929 . S
H974 C978 0.929 . S
H975 C984 0.929 . S
C976 H970 0.930 . S
C976 C977 1.367 . S
C976 C984 1.378 . S
C977 C976 1.367 . S
C977 C985 1.433 . S
C978 H974 0.929 . S
C978 C980 1.378 1_554 S
C978 C982 1.350 . S
C979 C982 1.463 . S
C979 C984 1.350 . S
C979 N987 1.427 . S
C980 H971 0.930 . S
C980 C978 1.378 1_556 S
C980 C981 1.367 . S
C981 C980 1.367 . S
C981 C983 1.433 . S
C982 C978 1.350 . S
C982 C979 1.463 . S
C982 N986 1.427 . S
C983 H973 0.929 . S
C983 C981 1.433 . S
C983 N986 1.384 1_556 S
C984 H975 0.929 . S
C984 C976 1.378 . S
C984 C979 1.350 . S
C985 H972 0.929 . S
C985 C977 1.433 . S
C985 N987 1.384 . S
N986 C982 1.427 . S
N986 C983 1.384 1_554 S
N987 C979 1.427 . S
N987 C985 1.384 . S
H988 C994 0.930 . S
H989 C998 0.930 . S
H990 C1003 0.929 . S
H991 C1001 0.929 . S
H992 C996 0.929 . S
H993 C1002 0.929 . S
C994 H988 0.930 . S
C994 C995 1.367 . S
C994 C1002 1.378 . S
C995 C994 1.367 . S
C995 C1003 1.433 . S
C996 H992 0.929 . S
C996 C998 1.378 . S
C996 C1000 1.350 . S
C997 C1000 1.463 . S
C997 C1002 1.350 . S
C997 N1005 1.427 . S
C998 H989 0.930 . S
C998 C996 1.378 . S
C998 C999 1.367 . S
C999 C998 1.367 . S
C999 C1001 1.433 . S
C1000 C996 1.350 . S
C1000 C997 1.463 . S
C1000 N1004 1.427 . S
C1001 H991 0.929 . S
C1001 C999 1.433 . S
C1001 N1004 1.384 . S
C1002 H993 0.929 . S
C1002 C994 1.378 . S
C1002 C997 1.350 . S
C1003 H990 0.929 . S
C1003 C995 1.433 . S
C1003 N1005 1.384 . S
N1004 C1000 1.427 . S
N1004 C1001 1.384 . S
N1005 C997 1.427 . S
N1005 C1003 1.384 . S
H1006 C1012 0.930 . S
H1007 C1016 0.930 . S
H1008 C1021 0.928 . S
H1009 C1019 0.929 . S
H1010 C1014 0.929 . S
H1011 C1020 0.929 . S
C1012 H1006 0.930 . S
C1012 C1013 1.367 . S
C1012 C1020 1.378 . S
C1013 C1012 1.367 . S
C1013 C1021 1.433 . S
C1014 H1010 0.929 . S
C1014 C1016 1.378 . S
C1014 C1018 1.350 . S
C1015 C1018 1.463 1_655 S
C1015 C1020 1.350 . S
C1015 N1023 1.427 1_655 S
C1016 H1007 0.930 . S
C1016 C1014 1.378 . S
C1016 C1017 1.367 . S
C1017 C1016 1.367 . S
C1017 C1019 1.433 . S
C1018 C1014 1.350 . S
C1018 C1015 1.463 1_455 S
C1018 N1022 1.427 1_455 S
C1019 H1009 0.929 . S
C1019 C1017 1.433 . S
C1019 N1022 1.384 1_455 S
C1020 H1011 0.929 . S
C1020 C1012 1.378 . S
C1020 C1015 1.350 . S
C1021 H1008 0.928 . S
C1021 C1013 1.433 . S
C1021 N1023 1.384 1_655 S
N1022 C1018 1.427 1_655 S
N1022 C1019 1.384 1_655 S
N1023 C1015 1.427 1_455 S
N1023 C1021 1.384 1_455 S
H1024 C1030 0.930 . S
H1025 C1034 0.930 . S
H1026 C1039 0.929 . S
H1027 C1037 0.929 . S
H1028 C1032 0.929 . S
H1029 C1038 0.929 . S
C1030 H1024 0.930 . S
C1030 C1031 1.367 . S
C1030 C1038 1.378 . S
C1031 C1030 1.367 . S
C1031 C1039 1.433 . S
C1032 H1028 0.929 . S
C1032 C1034 1.378 . S
C1032 C1036 1.350 . S
C1033 C1036 1.463 . S
C1033 C1038 1.350 . S
C1033 N1041 1.427 . S
C1034 H1025 0.930 . S
C1034 C1032 1.378 . S
C1034 C1035 1.367 . S
C1035 C1034 1.367 . S
C1035 C1037 1.433 . S
C1036 C1032 1.350 . S
C1036 C1033 1.463 . S
C1036 N1040 1.427 . S
C1037 H1027 0.929 . S
C1037 C1035 1.433 . S
C1037 N1040 1.384 . S
C1038 H1029 0.929 . S
C1038 C1030 1.378 . S
C1038 C1033 1.350 . S
C1039 H1026 0.929 . S
C1039 C1031 1.433 . S
C1039 N1041 1.384 . S
N1040 C1036 1.427 . S
N1040 C1037 1.384 . S
N1041 C1033 1.427 . S
N1041 C1039 1.384 . S
H1042 C1048 0.930 . S
H1043 C1052 0.930 . S
H1044 C1057 0.929 . S
H1045 C1055 0.929 . S
H1046 C1050 0.929 . S
H1047 C1056 0.929 . S
C1048 H1042 0.930 . S
C1048 C1049 1.367 . S
C1048 C1056 1.378 . S
C1049 C1048 1.367 . S
C1049 C1057 1.433 . S
C1050 H1046 0.929 . S
C1050 C1052 1.378 . S
C1050 C1054 1.350 . S
C1051 C1054 1.463 . S
C1051 C1056 1.350 . S
C1051 N1059 1.427 . S
C1052 H1043 0.930 . S
C1052 C1050 1.378 . S
C1052 C1053 1.367 . S
C1053 C1052 1.367 . S
C1053 C1055 1.433 . S
C1054 C1050 1.350 . S
C1054 C1051 1.463 . S
C1054 N1058 1.427 . S
C1055 H1045 0.929 . S
C1055 C1053 1.433 . S
C1055 N1058 1.384 . S
C1056 H1047 0.929 . S
C1056 C1048 1.378 . S
C1056 C1051 1.350 . S
C1057 H1044 0.929 . S
C1057 C1049 1.433 . S
C1057 N1059 1.384 . S
N1058 C1054 1.427 . S
N1058 C1055 1.384 . S
N1059 C1051 1.427 . S
N1059 C1057 1.384 . S
H1060 C1066 0.930 . S
H1061 C1070 0.930 . S
H1062 C1075 0.929 . S
H1063 C1073 0.929 . S
H1064 C1068 0.929 . S
H1065 C1074 0.929 . S
C1066 H1060 0.930 . S
C1066 C1067 1.367 . S
C1066 C1074 1.378 . S
C1067 C1066 1.367 . S
C1067 C1075 1.433 . S
C1068 H1064 0.929 . S
C1068 C1070 1.378 . S
C1068 C1072 1.350 . S
C1069 C1072 1.463 . S
C1069 C1074 1.350 . S
C1069 N1077 1.427 . S
C1070 H1061 0.930 . S
C1070 C1068 1.378 . S
C1070 C1071 1.367 . S
C1071 C1070 1.367 . S
C1071 C1073 1.433 . S
C1072 C1068 1.350 . S
C1072 C1069 1.463 . S
C1072 N1076 1.427 . S
C1073 H1063 0.929 . S
C1073 C1071 1.433 . S
C1073 N1076 1.384 . S
C1074 H1065 0.929 . S
C1074 C1066 1.378 . S
C1074 C1069 1.350 . S
C1075 H1062 0.929 . S
C1075 C1067 1.433 . S
C1075 N1077 1.384 . S
N1076 C1072 1.427 . S
N1076 C1073 1.384 . S
N1077 C1069 1.427 . S
N1077 C1075 1.384 . S
H1078 C1084 0.930 . S
H1079 C1088 0.930 . S
H1080 C1093 0.929 . S
H1081 C1091 0.934 . S
H1082 C1086 0.929 . S
H1083 C1092 0.929 . S
C1084 H1078 0.930 . S
C1084 C1085 1.367 . S
C1084 C1092 1.378 . S
C1085 C1084 1.367 . S
C1085 C1093 1.433 . S
C1086 H1082 0.929 . S
C1086 C1088 1.378 1_554 S
C1086 C1090 1.350 . S
C1087 C1090 1.463 1_455 S
C1087 C1092 1.350 . S
C1087 N1095 1.427 1_455 S
C1088 H1079 0.930 . S
C1088 C1086 1.378 1_556 S
C1088 C1089 1.367 . S
C1089 C1088 1.367 . S
C1089 C1091 1.433 . S
C1090 C1086 1.350 . S
C1090 C1087 1.463 1_655 S
C1090 N1094 1.427 1_654 S
C1091 H1081 0.934 . S
C1091 C1089 1.433 . S
C1091 N1094 1.384 1_655 S
C1092 H1083 0.929 . S
C1092 C1084 1.378 . S
C1092 C1087 1.350 . S
C1093 H1080 0.929 . S
C1093 C1085 1.433 . S
C1093 N1095 1.384 1_455 S
N1094 C1090 1.427 1_456 S
N1094 C1091 1.384 1_455 S
N1095 C1087 1.427 1_655 S
N1095 C1093 1.384 1_655 S
H1096 C1102 0.930 . S
H1097 C1106 0.930 . S
H1098 C1111 0.929 . S
H1099 C1109 0.929 . S
H1100 C1104 0.929 . S
H1101 C1110 0.929 . S
C1102 H1096 0.930 . S
C1102 C1103 1.367 . S
C1102 C1110 1.378 . S
C1103 C1102 1.367 . S
C1103 C1111 1.433 . S
C1104 H1100 0.929 . S
C1104 C1106 1.378 . S
C1104 C1108 1.350 . S
C1105 C1108 1.463 . S
C1105 C1110 1.350 . S
C1105 N1113 1.427 . S
C1106 H1097 0.930 . S
C1106 C1104 1.378 . S
C1106 C1107 1.367 . S
C1107 C1106 1.367 . S
C1107 C1109 1.433 . S
C1108 C1104 1.350 . S
C1108 C1105 1.463 . S
C1108 N1112 1.427 . S
C1109 H1099 0.929 . S
C1109 C1107 1.433 . S
C1109 N1112 1.384 . S
C1110 H1101 0.929 . S
C1110 C1102 1.378 . S
C1110 C1105 1.350 . S
C1111 H1098 0.929 . S
C1111 C1103 1.433 . S
C1111 N1113 1.384 . S
N1112 C1108 1.427 . S
N1112 C1109 1.384 . S
N1113 C1105 1.427 . S
N1113 C1111 1.384 . S
H1114 C1120 0.930 . S
H1115 C1124 0.930 . S
H1116 C1129 0.929 . S
H1117 C1127 0.929 . S
H1118 C1122 0.929 1_655 S
H1119 C1128 0.929 1_455 S
C1120 H1114 0.930 . S
C1120 C1121 1.367 . S
C1120 C1128 1.378 . S
C1121 C1120 1.367 . S
C1121 C1129 1.433 . S
C1122 H1118 0.929 1_455 S
C1122 C1124 1.378 . S
C1122 C1126 1.350 . S
C1123 C1126 1.463 1_655 S
C1123 C1128 1.350 . S
C1123 N1131 1.427 . S
C1124 H1115 0.930 . S
C1124 C1122 1.378 . S
C1124 C1125 1.367 . S
C1125 C1124 1.367 . S
C1125 C1127 1.433 . S
C1126 C1122 1.350 . S
C1126 C1123 1.463 1_455 S
C1126 N1130 1.427 . S
C1127 H1117 0.929 . S
C1127 C1125 1.433 . S
C1127 N1130 1.384 . S
C1128 H1119 0.929 1_655 S
C1128 C1120 1.378 . S
C1128 C1123 1.350 . S
C1129 H1116 0.929 . S
C1129 C1121 1.433 . S
C1129 N1131 1.384 . S
N1130 C1126 1.427 . S
N1130 C1127 1.384 . S
N1131 C1123 1.427 . S
N1131 C1129 1.384 . S
H1132 C1138 0.930 . S
H1133 C1142 0.930 . S
H1134 C1147 0.929 . S
H1135 C1145 0.929 . S
H1136 C1140 0.929 . S
H1137 C1146 0.929 . S
C1138 H1132 0.930 . S
C1138 C1139 1.367 . S
C1138 C1146 1.378 . S
C1139 C1138 1.367 . S
C1139 C1147 1.433 . S
C1140 H1136 0.929 . S
C1140 C1142 1.378 . S
C1140 C1144 1.350 . S
C1141 C1144 1.463 . S
C1141 C1146 1.350 . S
C1141 N1149 1.427 . S
C1142 H1133 0.930 . S
C1142 C1140 1.378 . S
C1142 C1143 1.367 . S
C1143 C1142 1.367 . S
C1143 C1145 1.433 . S
C1144 C1140 1.350 . S
C1144 C1141 1.463 . S
C1144 N1148 1.427 . S
C1145 H1135 0.929 . S
C1145 C1143 1.433 . S
C1145 N1148 1.384 . S
C1146 H1137 0.929 . S
C1146 C1138 1.378 . S
C1146 C1141 1.350 . S
C1147 H1134 0.929 . S
C1147 C1139 1.433 . S
C1147 N1149 1.384 . S
N1148 C1144 1.427 . S
N1148 C1145 1.384 . S
N1149 C1141 1.427 . S
N1149 C1147 1.384 . S
H1150 C1156 0.930 . S
H1151 C1160 0.930 . S
H1152 C1165 0.929 . S
H1153 C1163 0.929 . S
H1154 C1158 0.929 . S
H1155 C1164 0.929 . S
C1156 H1150 0.930 . S
C1156 C1157 1.367 . S
C1156 C1164 1.378 1_554 S
C1157 C1156 1.367 . S
C1157 C1165 1.433 . S
C1158 H1154 0.929 . S
C1158 C1160 1.378 . S
C1158 C1162 1.350 . S
C1159 C1162 1.463 . S
C1159 C1164 1.350 . S
C1159 N1167 1.427 . S
C1160 H1151 0.930 . S
C1160 C1158 1.378 . S
C1160 C1161 1.367 . S
C1161 C1160 1.367 . S
C1161 C1163 1.433 . S
C1162 C1158 1.350 . S
C1162 C1159 1.463 . S
C1162 N1166 1.427 . S
C1163 H1153 0.929 . S
C1163 C1161 1.433 . S
C1163 N1166 1.384 . S
C1164 H1155 0.929 . S
C1164 C1156 1.378 1_556 S
C1164 C1159 1.350 . S
C1165 H1152 0.929 . S
C1165 C1157 1.433 . S
C1165 N1167 1.384 1_554 S
N1166 C1162 1.427 . S
N1166 C1163 1.384 . S
N1167 C1159 1.427 . S
N1167 C1165 1.384 1_556 S
H1168 C1174 0.930 . S
H1169 C1178 0.930 . S
H1170 C1183 0.929 . S
H1171 C1181 0.929 . S
H1172 C1176 0.929 . S
H1173 C1182 0.929 . S
C1174 H1168 0.930 . S
C1174 C1175 1.367 . S
C1174 C1182 1.378 . S
C1175 C1174 1.367 . S
C1175 C1183 1.433 . S
C1176 H1172 0.929 . S
C1176 C1178 1.378 . S
C1176 C1180 1.350 . S
C1177 C1180 1.463 . S
C1177 C1182 1.350 . S
C1177 N1185 1.427 . S
C1178 H1169 0.930 . S
C1178 C1176 1.378 . S
C1178 C1179 1.367 . S
C1179 C1178 1.367 . S
C1179 C1181 1.433 . S
C1180 C1176 1.350 . S
C1180 C1177 1.463 . S
C1180 N1184 1.427 . S
C1181 H1171 0.929 . S
C1181 C1179 1.433 . S
C1181 N1184 1.384 . S
C1182 H1173 0.929 . S
C1182 C1174 1.378 . S
C1182 C1177 1.350 . S
C1183 H1170 0.929 . S
C1183 C1175 1.433 . S
C1183 N1185 1.384 . S
N1184 C1180 1.427 . S
N1184 C1181 1.384 . S
N1185 C1177 1.427 . S
N1185 C1183 1.384 . S
H1186 C1192 0.930 . S
H1187 C1196 0.930 . S
H1188 C1201 0.929 . S
H1189 C1199 0.929 . S
H1190 C1194 0.929 . S
H1191 C1200 0.929 . S
C1192 H1186 0.930 . S
C1192 C1193 1.367 . S
C1192 C1200 1.378 . S
C1193 C1192 1.367 . S
C1193 C1201 1.433 . S
C1194 H1190 0.929 . S
C1194 C1196 1.378 . S
C1194 C1198 1.350 . S
C1195 C1198 1.463 . S
C1195 C1200 1.350 . S
C1195 N1203 1.427 . S
C1196 H1187 0.930 . S
C1196 C1194 1.378 . S
C1196 C1197 1.367 . S
C1197 C1196 1.367 . S
C1197 C1199 1.433 . S
C1198 C1194 1.350 . S
C1198 C1195 1.463 . S
C1198 N1202 1.427 . S
C1199 H1189 0.929 . S
C1199 C1197 1.433 . S
C1199 N1202 1.384 . S
C1200 H1191 0.929 . S
C1200 C1192 1.378 . S
C1200 C1195 1.350 . S
C1201 H1188 0.929 . S
C1201 C1193 1.433 . S
C1201 N1203 1.384 . S
N1202 C1198 1.427 . S
N1202 C1199 1.384 . S
N1203 C1195 1.427 . S
N1203 C1201 1.384 . S
H1204 C1210 0.930 . S
H1205 C1214 0.930 . S
H1206 C1219 0.929 . S
H1207 C1217 0.929 . S
H1208 C1212 0.929 . S
H1209 C1218 0.929 . S
C1210 H1204 0.930 . S
C1210 C1211 1.367 . S
C1210 C1218 1.378 . S
C1211 C1210 1.367 . S
C1211 C1219 1.433 . S
C1212 H1208 0.929 . S
C1212 C1214 1.378 . S
C1212 C1216 1.350 . S
C1213 C1216 1.463 . S
C1213 C1218 1.350 . S
C1213 N1221 1.427 . S
C1214 H1205 0.930 . S
C1214 C1212 1.378 . S
C1214 C1215 1.367 . S
C1215 C1214 1.367 . S
C1215 C1217 1.433 . S
C1216 C1212 1.350 . S
C1216 C1213 1.463 . S
C1216 N1220 1.427 . S
C1217 H1207 0.929 . S
C1217 C1215 1.433 . S
C1217 N1220 1.384 . S
C1218 H1209 0.929 . S
C1218 C1210 1.378 . S
C1218 C1213 1.350 . S
C1219 H1206 0.929 . S
C1219 C1211 1.433 . S
C1219 N1221 1.384 . S
N1220 C1216 1.427 . S
N1220 C1217 1.384 . S
N1221 C1213 1.427 . S
N1221 C1219 1.384 . S
H1222 C1228 0.930 . S
H1223 C1232 0.930 . S
H1224 C1237 0.929 . S
H1225 C1235 0.929 . S
H1226 C1230 0.929 . S
H1227 C1236 0.929 . S
C1228 H1222 0.930 . S
C1228 C1229 1.367 . S
C1228 C1236 1.378 . S
C1229 C1228 1.367 . S
C1229 C1237 1.433 . S
C1230 H1226 0.929 . S
C1230 C1232 1.378 1_556 S
C1230 C1234 1.350 . S
C1231 C1234 1.463 1_655 S
C1231 C1236 1.350 . S
C1231 N1239 1.427 . S
C1232 H1223 0.930 . S
C1232 C1230 1.378 1_554 S
C1232 C1233 1.367 . S
C1233 C1232 1.367 . S
C1233 C1235 1.433 . S
C1234 C1230 1.350 . S
C1234 C1231 1.463 1_455 S
C1234 N1238 1.423 1_455 S
C1235 H1225 0.929 . S
C1235 C1233 1.433 . S
C1235 N1238 1.374 1_454 S
C1236 H1227 0.929 . S
C1236 C1228 1.378 . S
C1236 C1231 1.350 . S
C1237 H1224 0.929 . S
C1237 C1229 1.433 . S
C1237 N1239 1.384 . S
N1238 C1234 1.423 1_655 S
N1238 C1235 1.374 1_656 S
N1239 C1231 1.427 . S
N1239 C1237 1.384 . S
H1240 C1246 0.930 . S
H1241 C1250 0.930 . S
H1242 C1255 0.929 . S
H1243 C1253 0.929 . S
H1244 C1248 0.929 . S
H1245 C1254 0.929 . S
C1246 H1240 0.930 . S
C1246 C1247 1.367 . S
C1246 C1254 1.378 . S
C1247 C1246 1.367 . S
C1247 C1255 1.433 . S
C1248 H1244 0.929 . S
C1248 C1250 1.378 . S
C1248 C1252 1.350 . S
C1249 C1252 1.463 . S
C1249 C1254 1.350 . S
C1249 N1257 1.427 . S
C1250 H1241 0.930 . S
C1250 C1248 1.378 . S
C1250 C1251 1.367 . S
C1251 C1250 1.367 . S
C1251 C1253 1.433 . S
C1252 C1248 1.350 . S
C1252 C1249 1.463 . S
C1252 N1256 1.427 . S
C1253 H1243 0.929 . S
C1253 C1251 1.433 . S
C1253 N1256 1.384 . S
C1254 H1245 0.929 . S
C1254 C1246 1.378 . S
C1254 C1249 1.350 . S
C1255 H1242 0.929 . S
C1255 C1247 1.433 . S
C1255 N1257 1.384 . S
N1256 C1252 1.427 . S
N1256 C1253 1.384 . S
N1257 C1249 1.427 . S
N1257 C1255 1.384 . S
H1258 C1264 0.930 . S
H1259 C1268 0.930 . S
H1260 C1273 0.929 . S
H1261 C1271 0.929 . S
H1262 C1266 0.897 1_655 S
H1263 C1272 0.929 1_455 S
C1264 H1258 0.930 . S
C1264 C1265 1.367 . S
C1264 C1272 1.378 . S
C1265 C1264 1.367 . S
C1265 C1273 1.433 . S
C1266 H1262 0.897 1_455 S
C1266 C1268 1.405 . S
C1266 C1270 1.358 . S
C1267 C1270 1.463 1_655 S
C1267 C1272 1.350 . S
C1267 N1275 1.427 . S
C1268 H1259 0.930 . S
C1268 C1266 1.405 . S
C1268 C1269 1.367 . S
C1269 C1268 1.367 . S
C1269 C1271 1.433 . S
C1270 C1266 1.358 . S
C1270 C1267 1.463 1_455 S
C1270 N1274 1.427 . S
C1271 H1261 0.929 . S
C1271 C1269 1.433 . S
C1271 N1274 1.384 . S
C1272 H1263 0.929 1_655 S
C1272 C1264 1.378 . S
C1272 C1267 1.350 . S
C1273 H1260 0.929 . S
C1273 C1265 1.433 . S
C1273 N1275 1.384 . S
N1274 C1270 1.427 . S
N1274 C1271 1.384 . S
N1275 C1267 1.427 . S
N1275 C1273 1.384 . S
H1276 C1282 0.930 . S
H1277 C1286 0.930 . S
H1278 C1291 0.929 . S
H1279 C1289 0.929 . S
H1280 C1284 0.929 . S
H1281 C1290 0.929 . S
C1282 H1276 0.930 . S
C1282 C1283 1.367 . S
C1282 C1290 1.378 . S
C1283 C1282 1.367 . S
C1283 C1291 1.433 . S
C1284 H1280 0.929 . S
C1284 C1286 1.378 . S
C1284 C1288 1.350 . S
C1285 C1288 1.463 . S
C1285 C1290 1.350 . S
C1285 N1293 1.427 . S
C1286 H1277 0.930 . S
C1286 C1284 1.378 . S
C1286 C1287 1.367 . S
C1287 C1286 1.367 . S
C1287 C1289 1.433 . S
C1288 C1284 1.350 . S
C1288 C1285 1.463 . S
C1288 N1292 1.427 . S
C1289 H1279 0.929 . S
C1289 C1287 1.433 . S
C1289 N1292 1.384 . S
C1290 H1281 0.929 . S
C1290 C1282 1.378 . S
C1290 C1285 1.350 . S
C1291 H1278 0.929 . S
C1291 C1283 1.433 . S
C1291 N1293 1.384 . S
N1292 C1288 1.427 . S
N1292 C1289 1.384 . S
N1293 C1285 1.427 . S
N1293 C1291 1.384 . S
H1294 C1300 0.930 . S
H1295 C1304 0.930 . S
H1296 C1309 0.929 . S
H1297 C1307 0.929 . S
H1298 C1302 0.929 . S
H1299 C1308 0.929 . S
C1300 H1294 0.930 . S
C1300 C1301 1.367 . S
C1300 C1308 1.378 . S
C1301 C1300 1.367 . S
C1301 C1309 1.433 . S
C1302 H1298 0.929 . S
C1302 C1304 1.378 1_554 S
C1302 C1306 1.350 . S
C1303 C1306 1.463 . S
C1303 C1308 1.350 . S
C1303 N1311 1.427 . S
C1304 H1295 0.930 . S
C1304 C1302 1.378 1_556 S
C1304 C1305 1.367 . S
C1305 C1304 1.367 . S
C1305 C1307 1.433 . S
C1306 C1302 1.350 . S
C1306 C1303 1.463 . S
C1306 N1310 1.427 . S
C1307 H1297 0.929 . S
C1307 C1305 1.433 . S
C1307 N1310 1.384 1_556 S
C1308 H1299 0.929 . S
C1308 C1300 1.378 . S
C1308 C1303 1.350 . S
C1309 H1296 0.929 . S
C1309 C1301 1.433 . S
C1309 N1311 1.384 . S
N1310 C1306 1.427 . S
N1310 C1307 1.384 1_554 S
N1311 C1303 1.427 . S
N1311 C1309 1.384 . S
H1312 C1318 0.930 . S
H1313 C1322 0.930 . S
H1314 C1327 0.929 . S
H1315 C1325 0.929 . S
H1316 C1320 0.929 . S
H1317 C1326 0.929 . S
C1318 H1312 0.930 . S
C1318 C1319 1.367 . S
C1318 C1326 1.378 . S
C1319 C1318 1.367 . S
C1319 C1327 1.433 . S
C1320 H1316 0.929 . S
C1320 C1322 1.378 . S
C1320 C1324 1.350 . S
C1321 C1324 1.463 . S
C1321 C1326 1.350 . S
C1321 N1329 1.427 . S
C1322 H1313 0.930 . S
C1322 C1320 1.378 . S
C1322 C1323 1.367 . S
C1323 C1322 1.367 . S
C1323 C1325 1.433 . S
C1324 C1320 1.350 . S
C1324 C1321 1.463 . S
C1324 N1328 1.427 . S
C1325 H1315 0.929 . S
C1325 C1323 1.433 . S
C1325 N1328 1.384 . S
C1326 H1317 0.929 . S
C1326 C1318 1.378 . S
C1326 C1321 1.350 . S
C1327 H1314 0.929 . S
C1327 C1319 1.433 . S
C1327 N1329 1.384 . S
N1328 C1324 1.427 . S
N1328 C1325 1.384 . S
N1329 C1321 1.427 . S
N1329 C1327 1.384 . S
H1330 C1336 0.930 . S
H1331 C1340 0.930 . S
H1332 C1345 0.929 . S
H1333 C1343 0.929 . S
H1334 C1338 0.929 . S
H1335 C1344 0.929 . S
C1336 H1330 0.930 . S
C1336 C1337 1.367 . S
C1336 C1344 1.378 . S
C1337 C1336 1.367 . S
C1337 C1345 1.433 . S
C1338 H1334 0.929 . S
C1338 C1340 1.378 . S
C1338 C1342 1.350 . S
C1339 C1342 1.463 . S
C1339 C1344 1.350 . S
C1339 N1347 1.427 . S
C1340 H1331 0.930 . S
C1340 C1338 1.378 . S
C1340 C1341 1.367 . S
C1341 C1340 1.367 . S
C1341 C1343 1.433 . S
C1342 C1338 1.350 . S
C1342 C1339 1.463 . S
C1342 N1346 1.427 . S
C1343 H1333 0.929 . S
C1343 C1341 1.433 . S
C1343 N1346 1.384 . S
C1344 H1335 0.929 . S
C1344 C1336 1.378 . S
C1344 C1339 1.350 . S
C1345 H1332 0.929 . S
C1345 C1337 1.433 . S
C1345 N1347 1.384 . S
N1346 C1342 1.427 . S
N1346 C1343 1.384 . S
N1347 C1339 1.427 . S
N1347 C1345 1.384 . S
H1348 C1354 0.930 . S
H1349 C1358 0.930 . S
H1350 C1363 0.929 . S
H1351 C1361 0.929 . S
H1352 C1356 0.929 . S
H1353 C1362 0.929 . S
C1354 H1348 0.930 . S
C1354 C1355 1.367 . S
C1354 C1362 1.378 . S
C1355 C1354 1.367 . S
C1355 C1363 1.433 . S
C1356 H1352 0.929 . S
C1356 C1358 1.378 . S
C1356 C1360 1.350 . S
C1357 C1360 1.463 . S
C1357 C1362 1.350 . S
C1357 N1365 1.427 . S
C1358 H1349 0.930 . S
C1358 C1356 1.378 . S
C1358 C1359 1.367 . S
C1359 C1358 1.367 . S
C1359 C1361 1.433 . S
C1360 C1356 1.350 . S
C1360 C1357 1.463 . S
C1360 N1364 1.427 . S
C1361 H1351 0.929 . S
C1361 C1359 1.433 . S
C1361 N1364 1.384 . S
C1362 H1353 0.929 . S
C1362 C1354 1.378 . S
C1362 C1357 1.350 . S
C1363 H1350 0.929 . S
C1363 C1355 1.433 . S
C1363 N1365 1.384 . S
N1364 C1360 1.427 . S
N1364 C1361 1.384 . S
N1365 C1357 1.427 . S
N1365 C1363 1.384 . S
H1366 C1372 0.930 . S
H1367 C1376 0.930 . S
H1368 C1381 0.929 . S
H1369 C1379 0.929 . S
H1370 C1374 0.929 . S
H1371 C1380 0.929 . S
C1372 H1366 0.930 . S
C1372 C1373 1.367 . S
C1372 C1380 1.378 . S
C1373 C1372 1.367 . S
C1373 C1381 1.433 . S
C1374 H1370 0.929 . S
C1374 C1376 1.378 . S
C1374 C1378 1.350 . S
C1375 C1378 1.463 . S
C1375 C1380 1.350 . S
C1375 N1383 1.427 . S
C1376 H1367 0.930 . S
C1376 C1374 1.378 . S
C1376 C1377 1.367 . S
C1377 C1376 1.367 . S
C1377 C1379 1.433 . S
C1378 C1374 1.350 . S
C1378 C1375 1.463 . S
C1378 N1382 1.427 . S
C1379 H1369 0.929 . S
C1379 C1377 1.433 . S
C1379 N1382 1.384 . S
C1380 H1371 0.929 . S
C1380 C1372 1.378 . S
C1380 C1375 1.350 . S
C1381 H1368 0.929 . S
C1381 C1373 1.433 . S
C1381 N1383 1.384 . S
N1382 C1378 1.427 . S
N1382 C1379 1.384 . S
N1383 C1375 1.427 . S
N1383 C1381 1.384 . S
H1384 C1390 0.930 . S
H1385 C1394 0.930 . S
H1386 C1399 0.929 . S
H1387 C1397 0.929 . S
H1388 C1392 0.929 . S
H1389 C1398 0.929 . S
C1390 H1384 0.930 . S
C1390 C1391 1.367 . S
C1390 C1398 1.378 . S
C1391 C1390 1.367 . S
C1391 C1399 1.433 . S
C1392 H1388 0.929 . S
C1392 C1394 1.378 . S
C1392 C1396 1.350 . S
C1393 C1396 1.463 . S
C1393 C1398 1.350 . S
C1393 N1401 1.427 . S
C1394 H1385 0.930 . S
C1394 C1392 1.378 . S
C1394 C1395 1.367 . S
C1395 C1394 1.367 . S
C1395 C1397 1.433 . S
C1396 C1392 1.350 . S
C1396 C1393 1.463 . S
C1396 N1400 1.427 . S
C1397 H1387 0.929 . S
C1397 C1395 1.433 . S
C1397 N1400 1.384 . S
C1398 H1389 0.929 . S
C1398 C1390 1.378 . S
C1398 C1393 1.350 . S
C1399 H1386 0.929 . S
C1399 C1391 1.433 . S
C1399 N1401 1.384 . S
N1400 C1396 1.427 . S
N1400 C1397 1.384 . S
N1401 C1393 1.427 . S
N1401 C1399 1.384 . S
H1402 C1408 0.930 . S
H1403 C1412 0.930 . S
H1404 C1417 0.929 . S
H1405 C1415 0.929 . S
H1406 C1410 0.929 . S
H1407 C1416 0.929 . S
C1408 H1402 0.930 . S
C1408 C1409 1.367 . S
C1408 C1416 1.378 . S
C1409 C1408 1.367 . S
C1409 C1417 1.433 . S
C1410 H1406 0.929 . S
C1410 C1412 1.378 . S
C1410 C1414 1.350 . S
C1411 C1414 1.463 . S
C1411 C1416 1.350 . S
C1411 N1419 1.427 . S
C1412 H1403 0.930 . S
C1412 C1410 1.378 . S
C1412 C1413 1.367 . S
C1413 C1412 1.367 . S
C1413 C1415 1.433 . S
C1414 C1410 1.350 . S
C1414 C1411 1.463 . S
C1414 N1418 1.427 . S
C1415 H1405 0.929 . S
C1415 C1413 1.433 . S
C1415 N1418 1.384 . S
C1416 H1407 0.929 . S
C1416 C1408 1.378 . S
C1416 C1411 1.350 . S
C1417 H1404 0.929 . S
C1417 C1409 1.433 . S
C1417 N1419 1.384 . S
N1418 C1414 1.427 . S
N1418 C1415 1.384 . S
N1419 C1411 1.427 . S
N1419 C1417 1.384 . S
H1420 C1426 0.930 . S
H1421 C1430 0.930 . S
H1422 C1435 0.929 . S
H1423 C1433 0.929 . S
H1424 C1428 0.929 . S
H1425 C1434 0.929 . S
C1426 H1420 0.930 . S
C1426 C1427 1.367 . S
C1426 C1434 1.378 . S
C1427 C1426 1.367 . S
C1427 C1435 1.433 . S
C1428 H1424 0.929 . S
C1428 C1430 1.378 . S
C1428 C1432 1.350 . S
C1429 C1432 1.463 . S
C1429 C1434 1.350 . S
C1429 N1437 1.427 . S
C1430 H1421 0.930 . S
C1430 C1428 1.378 . S
C1430 C1431 1.367 . S
C1431 C1430 1.367 . S
C1431 C1433 1.433 . S
C1432 C1428 1.350 . S
C1432 C1429 1.463 . S
C1432 N1436 1.427 . S
C1433 H1423 0.929 . S
C1433 C1431 1.433 . S
C1433 N1436 1.384 . S
C1434 H1425 0.929 . S
C1434 C1426 1.378 . S
C1434 C1429 1.350 . S
C1435 H1422 0.929 . S
C1435 C1427 1.433 . S
C1435 N1437 1.384 . S
N1436 C1432 1.427 . S
N1436 C1433 1.384 . S
N1437 C1429 1.427 . S
N1437 C1435 1.384 . S
H1438 C1444 0.930 . S
H1439 C1448 0.930 . S
H1440 C1453 0.929 . S
H1441 C1451 0.929 . S
H1442 C1446 0.929 . S
H1443 C1452 0.929 . S
C1444 H1438 0.930 . S
C1444 C1445 1.367 . S
C1444 C1452 1.378 . S
C1445 C1444 1.367 . S
C1445 C1453 1.433 . S
C1446 H1442 0.929 . S
C1446 C1448 1.378 . S
C1446 C1450 1.350 . S
C1447 C1450 1.463 . S
C1447 C1452 1.350 . S
C1447 N1455 1.427 . S
C1448 H1439 0.930 . S
C1448 C1446 1.378 . S
C1448 C1449 1.367 . S
C1449 C1448 1.367 . S
C1449 C1451 1.433 . S
C1450 C1446 1.350 . S
C1450 C1447 1.463 . S
C1450 N1454 1.427 . S
C1451 H1441 0.929 . S
C1451 C1449 1.433 . S
C1451 N1454 1.384 . S
C1452 H1443 0.929 . S
C1452 C1444 1.378 . S
C1452 C1447 1.350 . S
C1453 H1440 0.929 . S
C1453 C1445 1.433 . S
C1453 N1455 1.384 . S
N1454 C1450 1.427 . S
N1454 C1451 1.384 . S
N1455 C1447 1.427 . S
N1455 C1453 1.384 . S
H1456 C1462 0.930 . S
H1457 C1466 0.930 . S
H1458 C1471 0.929 . S
H1459 C1469 0.929 . S
H1460 C1464 0.929 . S
H1461 C1470 0.929 . S
C1462 H1456 0.930 . S
C1462 C1463 1.367 . S
C1462 C1470 1.378 . S
C1463 C1462 1.367 . S
C1463 C1471 1.433 . S
C1464 H1460 0.929 . S
C1464 C1466 1.378 . S
C1464 C1468 1.350 . S
C1465 C1468 1.463 . S
C1465 C1470 1.350 . S
C1465 N1473 1.427 . S
C1466 H1457 0.930 . S
C1466 C1464 1.378 . S
C1466 C1467 1.367 . S
C1467 C1466 1.367 . S
C1467 C1469 1.433 . S
C1468 C1464 1.350 . S
C1468 C1465 1.463 . S
C1468 N1472 1.427 . S
C1469 H1459 0.929 . S
C1469 C1467 1.433 . S
C1469 N1472 1.384 . S
C1470 H1461 0.929 . S
C1470 C1462 1.378 . S
C1470 C1465 1.350 . S
C1471 H1458 0.929 . S
C1471 C1463 1.433 . S
C1471 N1473 1.384 . S
N1472 C1468 1.427 . S
N1472 C1469 1.384 . S
N1473 C1465 1.427 . S
N1473 C1471 1.384 . S
H1474 C1480 0.930 . S
H1475 C1484 0.930 . S
H1476 C1489 0.929 . S
H1477 C1487 0.929 . S
H1478 C1482 0.929 . S
H1479 C1488 0.929 . S
C1480 H1474 0.930 . S
C1480 C1481 1.367 . S
C1480 C1488 1.378 . S
C1481 C1480 1.367 . S
C1481 C1489 1.433 . S
C1482 H1478 0.929 . S
C1482 C1484 1.378 . S
C1482 C1486 1.350 . S
C1483 C1486 1.463 . S
C1483 C1488 1.350 . S
C1483 N1491 1.427 . S
C1484 H1475 0.930 . S
C1484 C1482 1.378 . S
C1484 C1485 1.367 . S
C1485 C1484 1.367 . S
C1485 C1487 1.433 . S
C1486 C1482 1.350 . S
C1486 C1483 1.463 . S
C1486 N1490 1.427 . S
C1487 H1477 0.929 . S
C1487 C1485 1.433 . S
C1487 N1490 1.384 . S
C1488 H1479 0.929 . S
C1488 C1480 1.378 . S
C1488 C1483 1.350 . S
C1489 H1476 0.929 . S
C1489 C1481 1.433 . S
C1489 N1491 1.384 . S
N1490 C1486 1.427 . S
N1490 C1487 1.384 . S
N1491 C1483 1.427 . S
N1491 C1489 1.384 . S
H1492 C1498 0.930 . S
H1493 C1502 0.930 . S
H1494 C1507 0.929 . S
H1495 C1505 0.929 . S
H1496 C1500 0.929 . S
H1497 C1506 0.929 . S
C1498 H1492 0.930 . S
C1498 C1499 1.367 . S
C1498 C1506 1.378 . S
C1499 C1498 1.367 . S
C1499 C1507 1.433 . S
C1500 H1496 0.929 . S
C1500 C1502 1.378 . S
C1500 C1504 1.350 . S
C1501 C1504 1.463 . S
C1501 C1506 1.350 . S
C1501 N1509 1.427 . S
C1502 H1493 0.930 . S
C1502 C1500 1.378 . S
C1502 C1503 1.367 . S
C1503 C1502 1.367 . S
C1503 C1505 1.433 . S
C1504 C1500 1.350 . S
C1504 C1501 1.463 . S
C1504 N1508 1.427 . S
C1505 H1495 0.929 . S
C1505 C1503 1.433 . S
C1505 N1508 1.384 . S
C1506 H1497 0.929 . S
C1506 C1498 1.378 . S
C1506 C1501 1.350 . S
C1507 H1494 0.929 . S
C1507 C1499 1.433 . S
C1507 N1509 1.384 . S
N1508 C1504 1.427 . S
N1508 C1505 1.384 . S
N1509 C1501 1.427 . S
N1509 C1507 1.384 . S
H1510 C1516 0.930 . S
H1511 C1520 0.930 . S
H1512 C1525 0.929 . S
H1513 C1523 0.929 . S
H1514 C1518 0.929 . S
H1515 C1524 0.929 . S
C1516 H1510 0.930 . S
C1516 C1517 1.367 . S
C1516 C1524 1.378 . S
C1517 C1516 1.367 . S
C1517 C1525 1.433 . S
C1518 H1514 0.929 . S
C1518 C1520 1.378 . S
C1518 C1522 1.350 . S
C1519 C1522 1.463 . S
C1519 C1524 1.350 . S
C1519 N1527 1.427 . S
C1520 H1511 0.930 . S
C1520 C1518 1.378 . S
C1520 C1521 1.367 . S
C1521 C1520 1.367 . S
C1521 C1523 1.433 . S
C1522 C1518 1.350 . S
C1522 C1519 1.463 . S
C1522 N1526 1.427 . S
C1523 H1513 0.929 . S
C1523 C1521 1.433 . S
C1523 N1526 1.384 . S
C1524 H1515 0.929 . S
C1524 C1516 1.378 . S
C1524 C1519 1.350 . S
C1525 H1512 0.929 . S
C1525 C1517 1.433 . S
C1525 N1527 1.384 . S
N1526 C1522 1.427 . S
N1526 C1523 1.384 . S
N1527 C1519 1.427 . S
N1527 C1525 1.384 . S
H1528 C1534 0.930 . S
H1529 C1538 0.930 . S
H1530 C1543 0.929 . S
H1531 C1541 0.929 . S
H1532 C1536 0.929 . S
H1533 C1542 0.929 . S
C1534 H1528 0.930 . S
C1534 C1535 1.367 . S
C1534 C1542 1.378 . S
C1535 C1534 1.367 . S
C1535 C1543 1.433 . S
C1536 H1532 0.929 . S
C1536 C1538 1.378 . S
C1536 C1540 1.350 . S
C1537 C1540 1.463 . S
C1537 C1542 1.350 . S
C1537 N1545 1.427 . S
C1538 H1529 0.930 . S
C1538 C1536 1.378 . S
C1538 C1539 1.367 . S
C1539 C1538 1.367 . S
C1539 C1541 1.433 . S
C1540 C1536 1.350 . S
C1540 C1537 1.463 . S
C1540 N1544 1.427 . S
C1541 H1531 0.929 . S
C1541 C1539 1.433 . S
C1541 N1544 1.384 . S
C1542 H1533 0.929 . S
C1542 C1534 1.378 . S
C1542 C1537 1.350 . S
C1543 H1530 0.929 . S
C1543 C1535 1.433 . S
C1543 N1545 1.384 . S
N1544 C1540 1.427 . S
N1544 C1541 1.384 . S
N1545 C1537 1.427 . S
N1545 C1543 1.384 . S
H1546 C1552 0.930 . S
H1547 C1556 0.930 . S
H1548 C1561 0.929 . S
H1549 C1559 0.929 . S
H1550 C1554 0.929 . S
H1551 C1560 0.929 . S
C1552 H1546 0.930 . S
C1552 C1553 1.367 . S
C1552 C1560 1.378 . S
C1553 C1552 1.367 . S
C1553 C1561 1.433 . S
C1554 H1550 0.929 . S
C1554 C1556 1.378 . S
C1554 C1558 1.350 . S
C1555 C1558 1.463 . S
C1555 C1560 1.350 . S
C1555 N1563 1.427 . S
C1556 H1547 0.930 . S
C1556 C1554 1.378 . S
C1556 C1557 1.367 . S
C1557 C1556 1.367 . S
C1557 C1559 1.433 . S
C1558 C1554 1.350 . S
C1558 C1555 1.463 . S
C1558 N1562 1.427 . S
C1559 H1549 0.929 . S
C1559 C1557 1.433 . S
C1559 N1562 1.384 . S
C1560 H1551 0.929 . S
C1560 C1552 1.378 . S
C1560 C1555 1.350 . S
C1561 H1548 0.929 . S
C1561 C1553 1.433 . S
C1561 N1563 1.384 . S
N1562 C1558 1.427 . S
N1562 C1559 1.384 . S
N1563 C1555 1.427 . S
N1563 C1561 1.384 . S
H1564 C1570 0.930 . S
H1565 C1574 0.930 . S
H1566 C1579 0.929 . S
H1567 C1577 0.929 . S
H1568 C1572 0.929 . S
H1569 C1578 0.929 . S
C1570 H1564 0.930 . S
C1570 C1571 1.367 . S
C1570 C1578 1.378 . S
C1571 C1570 1.367 . S
C1571 C1579 1.433 . S
C1572 H1568 0.929 . S
C1572 C1574 1.378 . S
C1572 C1576 1.350 . S
C1573 C1576 1.463 . S
C1573 C1578 1.350 . S
C1573 N1581 1.427 . S
C1574 H1565 0.930 . S
C1574 C1572 1.378 . S
C1574 C1575 1.367 . S
C1575 C1574 1.367 . S
C1575 C1577 1.433 . S
C1576 C1572 1.350 . S
C1576 C1573 1.463 . S
C1576 N1580 1.427 . S
C1577 H1567 0.929 . S
C1577 C1575 1.433 . S
C1577 N1580 1.384 . S
C1578 H1569 0.929 . S
C1578 C1570 1.378 . S
C1578 C1573 1.350 . S
C1579 H1566 0.929 . S
C1579 C1571 1.433 . S
C1579 N1581 1.384 . S
N1580 C1576 1.427 . S
N1580 C1577 1.384 . S
N1581 C1573 1.427 . S
N1581 C1579 1.384 . S
H1582 C1588 0.930 . S
H1583 C1592 0.930 . S
H1584 C1597 0.929 . S
H1585 C1595 0.929 . S
H1586 C1590 0.929 . S
H1587 C1596 0.929 . S
C1588 H1582 0.930 . S
C1588 C1589 1.367 . S
C1588 C1596 1.378 . S
C1589 C1588 1.367 . S
C1589 C1597 1.433 . S
C1590 H1586 0.929 . S
C1590 C1592 1.378 . S
C1590 C1594 1.350 . S
C1591 C1594 1.463 . S
C1591 C1596 1.350 . S
C1591 N1599 1.427 . S
C1592 H1583 0.930 . S
C1592 C1590 1.378 . S
C1592 C1593 1.367 . S
C1593 C1592 1.367 . S
C1593 C1595 1.433 . S
C1594 C1590 1.350 . S
C1594 C1591 1.463 . S
C1594 N1598 1.427 . S
C1595 H1585 0.929 . S
C1595 C1593 1.433 . S
C1595 N1598 1.384 . S
C1596 H1587 0.929 . S
C1596 C1588 1.378 . S
C1596 C1591 1.350 . S
C1597 H1584 0.929 . S
C1597 C1589 1.433 . S
C1597 N1599 1.384 . S
N1598 C1594 1.427 . S
N1598 C1595 1.384 . S
N1599 C1591 1.427 . S
N1599 C1597 1.384 . S
C455 C89 1.477 . S
C459 C5 1.480 . S
C473 C19 1.480 . S
C477 C103 1.481 . S
C491 C61 1.476 . S
C495 C33 1.479 . S
C509 C47 1.478 . S
C513 C75 1.481 . S
C527 C201 1.478 . S
C531 C117 1.481 . S
C545 C215 1.475 . S
C549 C131 1.478 . S
C563 C145 1.478 . S
C567 C173 1.481 . S
C581 C159 1.481 . S
C585 C187 1.479 . S
C599 C229 1.481 . S
C603 C313 1.479 . S
C617 C243 1.478 . S
C621 C327 1.481 . S
C635 C285 1.475 . S
C639 C257 1.478 . S
C653 C299 1.476 . S
C657 C271 1.476 . S
C671 C341 1.481 . S
C675 C425 1.479 . S
C689 C439 1.476 . S
C693 C355 1.476 . S
C707 C397 1.477 . S
C711 C369 1.476 . S
C725 C383 1.481 . S
C729 C411 1.478 . S
C743 C0 1.236 . S
C747 C429 1.263 . S
C761 C219 1.263 . S
C765 C14 1.241 . S
C779 C28 1.232 . S
C783 C401 1.257 . S
C797 C42 1.229 . S
C801 C191 1.259 . S
C815 C373 1.260 . S
C819 C56 1.243 . S
C833 C163 1.258 . S
C837 C70 1.241 . S
C851 C84 1.229 . S
C855 C345 1.259 . S
C869 C135 1.257 . S
C873 C98 1.239 . S
C887 C112 1.228 . S
C891 C317 1.259 . S
C905 C107 1.261 . S
C909 C126 1.243 . S
C923 C140 1.235 . S
C927 C289 1.256 . S
C941 C154 1.232 . S
C945 C79 1.257 . S
C959 C261 1.263 . S
C963 C168 1.239 . S
C977 C182 1.232 . S
C981 C51 1.257 . S
C995 C196 1.230 . S
C999 C233 1.262 . S
C1013 C23 1.259 . S
C1017 C210 1.243 . S
C1031 C224 1.232 . S
C1035 C205 1.263 . S
C1049 C238 1.232 . S
C1053 C443 1.262 . S
C1067 C177 1.259 . S
C1071 C252 1.242 . S
C1085 C266 1.243 . S
C1089 C415 1.259 . S
C1103 C149 1.258 . S
C1107 C280 1.241 . S
C1121 C387 1.260 . S
C1125 C294 1.228 . S
C1139 C121 1.259 . S
C1143 C308 1.242 . S
C1157 C359 1.261 . S
C1161 C322 1.243 . S
C1175 C336 1.228 . S
C1179 C93 1.259 . S
C1193 C331 1.260 . S
C1197 C350 1.228 . S
C1211 C65 1.262 . S
C1215 C364 1.242 . S
C1229 C378 1.231 . S
C1233 C303 1.257 . S
C1247 C392 1.241 . S
C1251 C37 1.258 . S
C1265 C406 1.229 . S
C1269 C275 1.260 . S
C1283 C9 1.264 . S
C1287 C420 1.237 . S
C1301 C434 1.230 . S
C1305 C247 1.258 . S
C1319 C11 1.399 . S
C1323 C305 1.400 . S
C1337 C319 1.401 . S
C1341 C25 1.404 . S
C1355 C39 1.407 . S
C1359 C333 1.404 . S
C1373 C291 1.407 . S
C1377 C53 1.406 . S
C1391 C277 1.407 . S
C1395 C67 1.404 . S
C1409 C235 1.400 . S
C1413 C81 1.403 . S
C1427 C249 1.400 . S
C1431 C95 1.400 . S
C1445 C263 1.400 . S
C1449 C109 1.400 . S
C1463 C123 1.402 . S
C1467 C417 1.400 . S
C1481 C431 1.403 . S
C1485 C137 1.400 . S
C1499 C445 1.399 . S
C1503 C151 1.400 . S
C1517 C403 1.403 . S
C1521 C165 1.406 . S
C1535 C389 1.403 . S
C1539 C179 1.400 . S
C1553 C347 1.402 . S
C1557 C193 1.406 . S
C1571 C207 1.400 . S
C1575 C361 1.402 . S
C1589 C221 1.406 . S
C1593 C375 1.408 . S
