# Generated by pormake.
# Topology umy, (4)-cn, num edge types: 1
# Building blocks:
#     Node 0, Type 0, BuildingBlock: QUQFOY_clean_sbu_1, # of connection points: 4
#     Node 1, Type 0, BuildingBlock: QUQFOY_clean_sbu_1, # of connection points: 4
#     Node 2, Type 0, BuildingBlock: QUQFOY_clean_sbu_1, # of connection points: 4
#     Node 3, Type 0, BuildingBlock: QUQFOY_clean_sbu_1, # of connection points: 4
#     Node 4, Type 0, BuildingBlock: QUQFOY_clean_sbu_1, # of connection points: 4
#     Node 5, Type 0, BuildingBlock: QUQFOY_clean_sbu_1, # of connection points: 4
#     Node 6, Type 0, BuildingBlock: QUQFOY_clean_sbu_1, # of connection points: 4
#     Node 7, Type 0, BuildingBlock: QUQFOY_clean_sbu_1, # of connection points: 4
#     Node 8, Type 0, BuildingBlock: QUQFOY_clean_sbu_1, # of connection points: 4
#     Node 9, Type 0, BuildingBlock: QUQFOY_clean_sbu_1, # of connection points: 4
#     Node 10, Type 0, BuildingBlock: QUQFOY_clean_sbu_1, # of connection points: 4
#     Node 11, Type 0, BuildingBlock: QUQFOY_clean_sbu_1, # of connection points: 4
#     Edge 12, Type (0, 0), BuildingBlock: XIVTED_clean_linker_0, # of connection points: 2
#     Edge 13, Type (0, 0), BuildingBlock: XIVTED_clean_linker_0, # of connection points: 2
#     Edge 14, Type (0, 0), BuildingBlock: XIVTED_clean_linker_0, # of connection points: 2
#     Edge 15, Type (0, 0), BuildingBlock: XIVTED_clean_linker_0, # of connection points: 2
#     Edge 16, Type (0, 0), BuildingBlock: XIVTED_clean_linker_0, # of connection points: 2
#     Edge 17, Type (0, 0), BuildingBlock: XIVTED_clean_linker_0, # of connection points: 2
#     Edge 18, Type (0, 0), BuildingBlock: XIVTED_clean_linker_0, # of connection points: 2
#     Edge 19, Type (0, 0), BuildingBlock: XIVTED_clean_linker_0, # of connection points: 2
#     Edge 20, Type (0, 0), BuildingBlock: XIVTED_clean_linker_0, # of connection points: 2
#     Edge 21, Type (0, 0), BuildingBlock: XIVTED_clean_linker_0, # of connection points: 2
#     Edge 22, Type (0, 0), BuildingBlock: XIVTED_clean_linker_0, # of connection points: 2
#     Edge 23, Type (0, 0), BuildingBlock: XIVTED_clean_linker_0, # of connection points: 2
#     Edge 24, Type (0, 0), BuildingBlock: XIVTED_clean_linker_0, # of connection points: 2
#     Edge 25, Type (0, 0), BuildingBlock: XIVTED_clean_linker_0, # of connection points: 2
#     Edge 26, Type (0, 0), BuildingBlock: XIVTED_clean_linker_0, # of connection points: 2
#     Edge 27, Type (0, 0), BuildingBlock: XIVTED_clean_linker_0, # of connection points: 2
#     Edge 28, Type (0, 0), BuildingBlock: XIVTED_clean_linker_0, # of connection points: 2
#     Edge 29, Type (0, 0), BuildingBlock: XIVTED_clean_linker_0, # of connection points: 2
#     Edge 30, Type (0, 0), BuildingBlock: XIVTED_clean_linker_0, # of connection points: 2
#     Edge 31, Type (0, 0), BuildingBlock: XIVTED_clean_linker_0, # of connection points: 2
#     Edge 32, Type (0, 0), BuildingBlock: XIVTED_clean_linker_0, # of connection points: 2
#     Edge 33, Type (0, 0), BuildingBlock: XIVTED_clean_linker_0, # of connection points: 2
#     Edge 34, Type (0, 0), BuildingBlock: XIVTED_clean_linker_0, # of connection points: 2
#     Edge 35, Type (0, 0), BuildingBlock: XIVTED_clean_linker_0, # of connection points: 2
# Relax obj value: 0.088
# Max RMSD: 0.117
# Mean RMSD: 0.117
data_MOF--net-umy--node1-QUQFOY_clean_sbu_1--edge1-XIVTED_clean_linker_0
_symmetry_space_group_name_H-M    P1
_symmetry_Int_Tables_number       1
_symmetry_cell_setting            triclinic
loop_
_symmetry_equiv_pos_as_xyz
'x, y, z'
_cell_length_a     41.205403
_cell_length_b     41.184407
_cell_length_c     51.79624
_cell_angle_alpha  89.950788
_cell_angle_beta   90.026841
_cell_angle_gamma 119.98184
loop_
_atom_site_label
_atom_site_type_symbol
_atom_site_fract_x
_atom_site_fract_y
_atom_site_fract_z
_atom_type_partial_charge
O0 O 1.0143 0.32826 0.1494 0.0
Cd1 Cd 0.06737 0.37417 0.14371 0.0
Cd2 Cd 0.07944 0.32152 0.12189 0.0
O3 O 0.02244 0.28712 0.12726 0.0
O4 O 0.06269 0.4198 0.1483 0.0
O5 O 0.07921 0.4053 0.11136 0.0
C6 C 0.07218 0.42781 0.12442 0.0
C7 C 0.10968 0.3224 0.08334 0.0
C8 C 1.00159 0.29518 0.14071 0.0
C9 C 0.12082 0.35698 0.17108 0.0
O10 O 0.11116 0.33083 0.15466 0.0
O11 O 0.10864 0.37982 0.16925 0.0
O12 O 0.09507 0.29349 0.09827 0.0
O13 O 0.10575 0.35058 0.08968 0.0
O14 O 0.69794 1.00979 0.31682 0.0
Cd15 Cd 0.7001 0.06055 0.31128 0.0
Cd16 Cd 0.76997 0.08183 0.29112 0.0
O17 O 0.75349 0.02648 0.30026 0.0
O18 O 0.64783 0.05103 0.3147 0.0
O19 O 0.68068 0.07151 0.27863 0.0
C20 C 0.64994 0.06173 0.29106 0.0
C21 C 0.80108 0.10879 0.25226 0.0
C22 C 0.72339 1.00209 0.3112 0.0
C23 C 0.7666 0.12292 0.33832 0.0
O24 O 0.78692 0.1192 0.32148 0.0
O25 O 0.73116 0.1023 0.33768 0.0
O26 O 0.81641 0.0992 0.27011 0.0
O27 O 0.76714 0.10168 0.25589 0.0
O28 O 0.70125 0.68817 0.47995 0.0
Cd29 Cd 0.65476 0.69453 0.4748 0.0
Cd30 Cd 0.70862 0.76258 0.45555 0.0
O31 O 0.74312 0.73995 0.46036 0.0
O32 O 0.61014 0.64351 0.4795 0.0
O33 O 0.62261 0.67498 0.44284 0.0
C34 C 0.60104 0.64509 0.45592 0.0
C35 C 0.71116 0.79656 0.41842 0.0
C36 C 0.73473 0.70982 0.47242 0.0
C37 C 0.66984 0.76271 0.50486 0.0
O38 O 0.69653 0.78113 0.48913 0.0
O39 O 0.64777 0.72779 0.50164 0.0
O40 O 0.73846 0.80914 0.43467 0.0
O41 O 0.68268 0.76368 0.42262 0.0
O42 O 0.02177 0.69911 0.64966 0.0
Cd43 Cd 0.96915 0.6527 0.64376 0.0
Cd44 Cd 0.95604 0.70456 0.62196 0.0
O45 O 1.01292 0.73971 0.62736 0.0
O46 O 0.97447 0.60737 0.64778 0.0
O47 O 0.95799 0.62261 0.61105 0.0
C48 C 0.96523 0.59997 0.62381 0.0
C49 C 0.9256 0.7029 0.5833 0.0
C50 C 0.03405 0.7321 0.64089 0.0
C51 C 0.91456 0.66816 0.67098 0.0
O52 O 0.92395 0.69442 0.65466 0.0
O53 O 0.92736 0.64585 0.66915 0.0
O54 O 0.93928 0.73167 0.59832 0.0
O55 O 0.93067 0.67539 0.58962 0.0
O56 O 0.33705 0.01601 0.81679 0.0
Cd57 Cd 0.33013 0.96295 0.81122 0.0
Cd58 Cd 0.26487 0.95002 0.78973 0.0
O59 O 0.28718 1.00698 0.79502 0.0
O60 O 0.38045 0.96768 0.81556 0.0
O61 O 0.3487 0.9503 0.77891 0.0
C62 C 0.37836 0.95733 0.79184 0.0
C63 C 0.23516 0.92006 0.75121 0.0
C64 C 0.31621 0.02826 0.80822 0.0
C65 C 0.25999 0.90881 0.8388 0.0
O66 O 0.24296 0.91803 0.8225 0.0
O67 O 0.29508 0.92168 0.83688 0.0
O68 O 0.22089 0.93434 0.76643 0.0
O69 O 0.26737 0.92405 0.75729 0.0
O70 O 0.33217 0.33176 0.98243 0.0
Cd71 Cd 0.37853 0.32529 0.97682 0.0
Cd72 Cd 0.32641 0.25997 0.95537 0.0
O73 O 0.29165 0.28226 0.96021 0.0
O74 O 0.42376 0.37586 0.98135 0.0
O75 O 0.40969 0.34463 0.9445 0.0
C76 C 0.43198 0.37429 0.95754 0.0
C77 C 0.32749 0.23004 0.91716 0.0
C78 C 0.29923 0.31109 0.97361 0.0
C79 C 0.36237 0.25527 0.00465 0.0
O80 O 0.33601 0.23828 0.98844 0.0
O81 O 0.38494 0.29028 0.00248 0.0
O82 O 0.29862 0.21583 0.9321 0.0
O83 O 0.35552 0.26234 0.92329 0.0
O84 O 0.68944 1.00148 0.67986 0.0
Cd85 Cd 0.64619 0.94901 0.69035 0.0
Cd86 Cd 0.70366 0.94585 0.71111 0.0
O87 O 0.73396 1.00311 0.70439 0.0
O88 O 0.59907 0.95084 0.6853 0.0
O89 O 0.61741 0.94166 0.72337 0.0
C90 C 0.5932 0.94546 0.70978 0.0
C91 C 0.70359 0.91748 0.75028 0.0
C92 C 0.72288 0.01897 0.68838 0.0
C93 C 0.66671 0.89773 0.66462 0.0
O94 O 0.6956 0.91307 0.67896 0.0
O95 O 0.64051 0.90516 0.66775 0.0
O96 O 0.73298 0.93328 0.73582 0.0
O97 O 0.67459 0.91954 0.74319 0.0
O98 O 0.69581 0.69528 0.85077 0.0
Cd99 Cd 0.7022 0.64881 0.85628 0.0
Cd100 Cd 0.76755 0.7008 0.87768 0.0
O101 O 0.74543 0.73576 0.8729 0.0
O102 O 0.65159 0.60364 0.85174 0.0
O103 O 0.68286 0.61754 0.88857 0.0
C104 C 0.65318 0.59533 0.87554 0.0
C105 C 0.7971 0.69915 0.91594 0.0
C106 C 0.71656 0.72823 0.85957 0.0
C107 C 0.77207 0.66489 0.82838 0.0
O108 O 0.78914 0.69122 0.84459 0.0
O109 O 0.73707 0.64237 0.83056 0.0
O110 O 0.81155 0.72819 0.90112 0.0
O111 O 0.76479 0.67128 0.90965 0.0
O112 O 1.0101 0.68818 0.01645 0.0
Cd113 Cd 0.06311 0.69514 0.02216 0.0
Cd114 Cd 0.07556 0.75994 0.04429 0.0
O115 O 0.01854 0.7372 0.03903 0.0
O116 O 0.05862 0.64489 0.01778 0.0
O117 O 0.07527 0.67629 0.05458 0.0
C118 C 0.06842 0.64672 0.04162 0.0
C119 C 0.10547 0.79077 0.08258 0.0
C120 C 0.99756 0.70856 0.0254 0.0
C121 C 0.1168 0.76577 0.99501 0.0
O122 O 0.10724 0.78227 0.01148 0.0
O123 O 0.10445 0.73072 0.99671 0.0
O124 O 0.09056 0.80421 0.06717 0.0
O125 O 0.10214 0.75872 0.07686 0.0
O126 O 0.33005 1.00419 0.1816 0.0
Cd127 Cd 0.3764 0.05681 0.18771 0.0
Cd128 Cd 0.32467 0.06951 0.21027 0.0
O129 O 0.29025 0.0124 0.20528 0.0
O130 O 0.42182 0.05181 0.18329 0.0
O131 O 0.40683 0.06783 0.22027 0.0
C132 C 0.42947 0.06092 0.20726 0.0
C133 C 0.32465 0.09956 0.24872 0.0
C134 C 0.29744 0.99154 0.19111 0.0
C135 C 0.36011 0.11122 0.16109 0.0
O136 O 0.33386 0.10132 0.17747 0.0
O137 O 0.38281 0.09888 0.16275 0.0
O138 O 0.29602 0.08476 0.23358 0.0
O139 O 0.35315 0.09605 0.24263 0.0
O140 O 0.33534 0.32289 0.35133 0.0
Cd141 Cd 0.32883 0.36918 0.3574 0.0
Cd142 Cd 0.2617 0.3149 0.37772 0.0
O143 O 0.28469 0.28094 0.37193 0.0
O144 O 0.37948 0.41423 0.35252 0.0
O145 O 0.34892 0.40062 0.38961 0.0
C146 C 0.37839 0.42272 0.37632 0.0
C147 C 0.22814 0.31068 0.41542 0.0
C148 C 0.31425 0.28942 0.35915 0.0
C149 C 0.25932 0.35411 0.32913 0.0
O150 O 0.24175 0.32717 0.34485 0.0
O151 O 0.29432 0.37632 0.33172 0.0
O152 O 0.21566 0.2839 0.39877 0.0
O153 O 0.26072 0.33961 0.41128 0.0
O154 O 0.02045 0.33096 0.51799 0.0
Cd155 Cd 0.97079 0.33151 0.52103 0.0
Cd156 Cd 0.94443 0.25879 0.53993 0.0
O157 O 0.99936 0.27282 0.53142 0.0
O158 O 0.98297 0.3848 0.51919 0.0
O159 O 0.95682 0.34879 0.55338 0.0
C160 C 0.96923 0.38086 0.5421 0.0
C161 C 0.91244 0.21921 0.57493 0.0
C162 C 0.02576 0.30359 0.52247 0.0
C163 C 0.90881 0.26947 0.49146 0.0
O164 O 0.90895 0.24793 0.50896 0.0
O165 O 0.93207 0.3044 0.4921 0.0
O166 O 0.92118 0.20721 0.55467 0.0
O167 O 0.92398 0.25464 0.57631 0.0
H168 H 0.06505 0.58597 0.01765 0.0
H169 H 0.06825 0.48482 0.1485 0.0
H170 H 0.07827 0.63627 0.0928 0.0
H171 H 0.08059 0.4476 0.07316 0.0
H172 H 0.06944 0.53916 0.12851 0.0
H173 H 0.06817 0.53384 0.03763 0.0
C174 C 0.06866 0.5861 0.03837 0.0
C175 C 0.07131 0.61554 0.05359 0.0
C176 C 0.07206 0.51922 0.11635 0.0
C177 C 0.07473 0.5557 0.07662 0.0
C178 C 0.0713 0.4881 0.12774 0.0
C179 C 0.07424 0.46152 0.11247 0.0
C180 C 0.07539 0.5237 0.08943 0.0
C181 C 0.07825 0.46736 0.08568 0.0
C182 C 0.07055 0.55634 0.04975 0.0
C183 C 0.07611 0.61421 0.08033 0.0
N184 N 0.07847 0.49769 0.075 0.0
N185 N 0.07745 0.58468 0.091 0.0
H186 H 0.58674 0.05332 0.31443 0.0
H187 H 0.48725 0.05827 0.18333 0.0
H188 H 0.64025 0.07274 0.23994 0.0
H189 H 0.44813 0.06791 0.25866 0.0
H190 H 0.54164 0.05983 0.20353 0.0
H191 H 0.5339 0.05471 0.29419 0.0
C192 C 0.58739 0.05786 0.29379 0.0
C193 C 0.61799 0.06286 0.27884 0.0
C194 C 0.52124 0.06175 0.21564 0.0
C195 C 0.55736 0.06433 0.25551 0.0
C196 C 0.4901 0.06076 0.20414 0.0
C197 C 0.46301 0.06289 0.21934 0.0
C198 C 0.52521 0.06447 0.24259 0.0
C199 C 0.4683 0.06622 0.24619 0.0
C200 C 0.55723 0.05878 0.28226 0.0
C201 C 0.61728 0.06878 0.2522 0.0
N202 N 0.49866 0.06668 0.25697 0.0
N203 N 0.58736 0.06916 0.24137 0.0
H204 H 0.54537 0.58392 0.48067 0.0
H205 H 0.43865 0.47937 0.35146 0.0
H206 H 0.57918 0.63366 0.40503 0.0
H207 H 0.39082 0.44347 0.42739 0.0
H208 H 0.49183 0.53444 0.37066 0.0
H209 H 0.49024 0.53079 0.4615 0.0
C210 C 0.5412 0.58372 0.46001 0.0
C211 C 0.56704 0.61331 0.44442 0.0
C212 C 0.46965 0.51462 0.38313 0.0
C213 C 0.50391 0.55229 0.42231 0.0
C214 C 0.43929 0.48307 0.37219 0.0
C215 C 0.41022 0.45666 0.38785 0.0
C216 C 0.47128 0.51971 0.40999 0.0
C217 C 0.41256 0.46307 0.41458 0.0
C218 C 0.50961 0.55338 0.44909 0.0
C219 C 0.56002 0.61151 0.41779 0.0
N220 N 0.44266 0.49382 0.42482 0.0
N221 N 0.52925 0.58141 0.40756 0.0
H222 H 0.95976 0.58297 0.57222 0.0
H223 H 0.95322 0.38703 0.59274 0.0
H224 H 0.96708 0.54137 0.64723 0.0
H225 H 0.98072 0.446 0.51997 0.0
H226 H 0.95052 0.4396 0.61273 0.0
H227 H 0.95943 0.52886 0.55231 0.0
C228 C 0.96112 0.56239 0.5845 0.0
C229 C 0.96361 0.56679 0.61142 0.0
C230 C 0.95717 0.44098 0.59239 0.0
C231 C 0.96307 0.50476 0.5888 0.0
C232 C 0.95864 0.41098 0.58097 0.0
C233 C 0.96737 0.41219 0.55467 0.0
C234 C 0.96398 0.47218 0.57733 0.0
C235 C 0.9741 0.44394 0.54034 0.0
C236 C 0.96107 0.53159 0.57313 0.0
C237 C 0.96534 0.53922 0.62639 0.0
N238 N 0.97215 0.47258 0.55182 0.0
N239 N 0.96496 0.50937 0.61489 0.0
H240 H 0.5341 0.9451 0.68545 0.0
H241 H 0.44013 0.96287 0.81571 0.0
H242 H 0.57687 0.94403 0.76133 0.0
H243 H 0.38696 0.94368 0.7411 0.0
H244 H 0.49132 0.95791 0.79602 0.0
H245 H 0.48092 0.94621 0.70531 0.0
C246 C 0.53228 0.94499 0.70631 0.0
C247 C 0.56009 0.94456 0.72175 0.0
C248 C 0.46842 0.95466 0.78395 0.0
C249 C 0.49922 0.94605 0.74465 0.0
C250 C 0.43918 0.95759 0.79516 0.0
C251 C 0.4092 0.95378 0.78002 0.0
C252 C 0.46793 0.94815 0.75731 0.0
C253 C 0.40949 0.94682 0.75351 0.0
C254 C 0.50183 0.94557 0.71764 0.0
C255 C 0.55612 0.94434 0.74867 0.0
N256 N 0.43847 0.94441 0.74299 0.0
N257 N 0.52638 0.9453 0.75926 0.0
H258 H 0.48877 0.4352 0.98175 0.0
H259 H 0.59217 0.53868 0.85132 0.0
H260 H 0.45228 0.38547 0.90638 0.0
H261 H 0.64204 0.57492 0.92669 0.0
H262 H 0.53933 0.4839 0.87111 0.0
H263 H 0.54357 0.48799 0.96196 0.0
C264 C 0.49229 0.43533 0.96102 0.0
C265 C 0.4658 0.40586 0.94569 0.0
C266 C 0.56188 0.50373 0.88332 0.0
C267 C 0.52853 0.46646 0.92288 0.0
C268 C 0.59205 0.53511 0.87205 0.0
C269 C 0.62158 0.56152 0.88738 0.0
C270 C 0.56093 0.49882 0.91019 0.0
C271 C 0.61992 0.55529 0.91412 0.0
C272 C 0.52368 0.46548 0.94975 0.0
C273 C 0.47197 0.40755 0.91894 0.0
N274 N 0.59 0.52471 0.92469 0.0
N275 N 0.50257 0.43744 0.90837 0.0
H276 H 0.16696 0.38443 0.06001 0.0
H277 H 0.2236 0.26322 0.96936 0.0
H278 H 0.10564 0.26365 0.05636 0.0
H279 H 0.30434 0.37261 0.99833 0.0
H280 H 0.17386 0.26856 0.99111 0.0
H281 H 0.21105 0.38521 0.0277 0.0
C282 C 0.16231 0.35815 0.05201 0.0
C283 C 0.13278 0.3239 0.06099 0.0
C284 C 0.2024 0.29162 0.99235 0.0
C285 C 0.1828 0.32463 0.02407 0.0
C286 C 0.23086 0.28874 0.97981 0.0
C287 C 0.26839 0.31733 0.98226 0.0
C288 C 0.21137 0.32348 0.00724 0.0
C289 C 0.27589 0.3497 0.99611 0.0
C290 C 0.18758 0.35862 0.03372 0.0
C291 C 0.12821 0.29066 0.05012 0.0
N292 N 0.24768 0.35178 0.00826 0.0
N293 N 0.15299 0.29185 0.03231 0.0
H294 H 0.85859 0.10487 0.22954 0.0
H295 H 0.94451 0.30142 0.16319 0.0
H296 H 0.79508 0.1619 0.22402 0.0
H297 H 0.97468 0.2195 0.13952 0.0
H298 H 0.88934 0.25166 0.1852 0.0
H299 H 0.90153 0.1468 0.19652 0.0
C300 C 0.85338 0.1259 0.22105 0.0
C301 C 0.82331 0.12999 0.22952 0.0
C302 C 0.90767 0.24452 0.17475 0.0
C303 C 0.87287 0.17871 0.19219 0.0
C304 C 0.93919 0.2729 0.16219 0.0
C305 C 0.96451 0.26475 0.14964 0.0
C306 C 0.90189 0.2079 0.17525 0.0
C307 C 0.95607 0.22721 0.14897 0.0
C308 C 0.87785 0.14978 0.20218 0.0
C309 C 0.81785 0.15772 0.21791 0.0
N310 N 0.92593 0.20035 0.16203 0.0
N311 N 0.84286 0.18156 0.20018 0.0
H312 H 0.65165 0.79136 0.39102 0.0
H313 H 0.77812 0.98283 0.31378 0.0
H314 H 0.77198 0.85721 0.39736 0.0
H315 H 0.66089 0.93983 0.33008 0.0
H316 H 0.77428 0.92816 0.33532 0.0
H317 H 0.65311 0.83715 0.3599 0.0
C318 C 0.67841 0.81504 0.38551 0.0
C319 C 0.71173 0.82064 0.39693 0.0
C320 C 0.7493 0.93049 0.33389 0.0
C321 C 0.71358 0.87291 0.36138 0.0
C322 C 0.75139 0.96161 0.32145 0.0
C323 C 0.71986 0.96622 0.32032 0.0
C324 C 0.71538 0.90351 0.34509 0.0
C325 C 0.686 0.93767 0.33069 0.0
C326 C 0.67919 0.84124 0.36789 0.0
C327 C 0.74559 0.85195 0.3892 0.0
N328 N 0.68471 0.90766 0.34277 0.0
N329 N 0.74564 0.87692 0.37199 0.0
H330 H 0.72803 0.64608 0.49455 0.0
H331 H 0.87575 0.64048 0.55596 0.0
H332 H 0.81053 0.75833 0.47159 0.0
H333 H 0.92176 0.76023 0.55977 0.0
H334 H 0.83106 0.63692 0.52322 0.0
H335 H 0.77704 0.6401 0.5168 0.0
C336 C 0.75661 0.66914 0.49362 0.0
C337 C 0.76503 0.70284 0.48126 0.0
C338 C 0.85093 0.66395 0.53122 0.0
C339 C 0.8215 0.69621 0.50679 0.0
C340 C 0.87675 0.66606 0.54969 0.0
C341 C 0.90219 0.70065 0.56088 0.0
C342 C 0.85076 0.69674 0.52382 0.0
C343 C 0.90233 0.73291 0.55194 0.0
C344 C 0.78471 0.66562 0.50626 0.0
C345 C 0.80261 0.73181 0.48084 0.0
N346 N 0.87694 0.73014 0.53404 0.0
N347 N 0.82925 0.7281 0.49387 0.0
H348 H 0.06153 0.80779 0.63733 0.0
H349 H 0.23991 0.86324 0.72716 0.0
H350 H 0.09057 0.72673 0.66516 0.0
H351 H 0.18026 0.92445 0.72475 0.0
H352 H 0.19649 0.81968 0.69466 0.0
H353 H 0.11669 0.8573 0.65918 0.0
C354 C 0.07989 0.80043 0.64755 0.0
C355 C 0.07106 0.76288 0.64965 0.0
C356 C 0.19337 0.84303 0.701 0.0
C357 C 0.13429 0.81959 0.67475 0.0
C358 C 0.21821 0.86799 0.71939 0.0
C359 C 0.21346 0.89731 0.72878 0.0
C360 C 0.16407 0.84792 0.69165 0.0
C361 C 0.18472 0.90202 0.7182 0.0
C362 C 0.11126 0.82874 0.66015 0.0
C363 C 0.09603 0.75521 0.66323 0.0
N364 N 0.16107 0.87754 0.70028 0.0
N365 N 0.12636 0.78327 0.67544 0.0
H366 H 0.26865 0.05637 0.8037 0.0
H367 H 0.38957 0.23438 0.89423 0.0
H368 H 0.37761 0.08443 0.83323 0.0
H369 H 0.26887 0.17512 0.89026 0.0
H370 H 0.39042 0.19073 0.86222 0.0
H371 H 0.27405 0.11156 0.82532 0.0
C372 C 0.29408 0.07451 0.81425 0.0
C373 C 0.32253 0.06538 0.81688 0.0
C374 C 0.36384 0.18774 0.86811 0.0
C375 C 0.32875 0.12869 0.84173 0.0
C376 C 0.36333 0.21272 0.88622 0.0
C377 C 0.32907 0.20816 0.89502 0.0
C378 C 0.3299 0.15852 0.85844 0.0
C379 C 0.29588 0.17944 0.88415 0.0
C380 C 0.297 0.10591 0.82672 0.0
C381 C 0.35481 0.09012 0.83087 0.0
N382 N 0.29711 0.15568 0.8665 0.0
N383 N 0.35693 0.12049 0.84294 0.0
H384 H 0.76446 0.80392 0.86371 0.0
H385 H 0.64196 0.85964 0.77351 0.0
H386 H 0.65485 0.72312 0.83518 0.0
H387 H 0.76262 0.92266 0.77771 0.0
H388 H 0.64172 0.81574 0.80576 0.0
H389 H 0.75881 0.85371 0.84221 0.0
C390 C 0.73884 0.79666 0.85341 0.0
C391 C 0.71026 0.7591 0.85102 0.0
C392 C 0.66816 0.83954 0.79988 0.0
C393 C 0.70374 0.81617 0.8263 0.0
C394 C 0.66833 0.86472 0.78162 0.0
C395 C 0.7024 0.89468 0.77278 0.0
C396 C 0.70226 0.84476 0.80963 0.0
C397 C 0.73574 0.89977 0.78383 0.0
C398 C 0.73577 0.82514 0.841 0.0
C399 C 0.67775 0.75158 0.83735 0.0
N400 N 0.73485 0.875 0.80158 0.0
N401 N 0.67549 0.77981 0.82533 0.0
H402 H 0.79236 0.63665 0.93855 0.0
H403 H 0.96924 0.75589 0.03036 0.0
H404 H 0.85182 0.75735 0.94327 0.0
H405 H 0.94177 0.64761 -0.00021 0.0
H406 H 0.9143 0.75086 0.00858 0.0
H407 H 0.83561 0.63521 0.97068 0.0
C408 C 0.81398 0.66276 0.94675 0.0
C409 C 0.81872 0.6972 0.93813 0.0
C410 C 0.92002 0.72796 0.00699 0.0
C411 C 0.86788 0.6957 0.97485 0.0
C412 C 0.95127 0.73066 0.01955 0.0
C413 C 0.96051 0.70232 0.01667 0.0
C414 C 0.89749 0.69652 0.99165 0.0
C415 C 0.93599 0.67032 0.00235 0.0
C416 C 0.83873 0.66191 0.96493 0.0
C417 C 0.84737 0.73021 0.94923 0.0
N418 N 0.90577 0.66841 0.9902 0.0
N419 N 0.87089 0.72866 0.96695 0.0
H420 H 0.22242 0.95979 0.20173 0.0
H421 H 0.09975 0.84542 0.10816 0.0
H422 H 0.30129 0.93887 0.16063 0.0
H423 H 0.16351 0.78838 0.10682 0.0
H424 H 0.14287 0.88885 0.14025 0.0
H425 H 0.17104 0.90503 0.1809 0.0
C426 C 0.22901 0.94346 0.18859 0.0
C427 C 0.26638 0.95451 0.18257 0.0
C428 C 0.14693 0.86625 0.13356 0.0
C429 C 0.20748 0.89216 0.15816 0.0
C430 C 0.12244 0.84159 0.11505 0.0
C431 C 0.12802 0.81322 0.10485 0.0
C432 C 0.17772 0.86298 0.1417 0.0
C433 C 0.15805 0.80971 0.11435 0.0
C434 C 0.19959 0.91239 0.17648 0.0
C435 C 0.27299 0.93181 0.16559 0.0
N436 N 0.18227 0.83481 0.13188 0.0
N437 N 0.24384 0.90191 0.1538 0.0
H438 H 0.26505 0.09365 0.27549 0.0
H439 H 0.37674 0.29611 0.33492 0.0
H440 H 0.38569 0.15784 0.2722 0.0
H441 H 0.26675 0.21353 0.36179 0.0
H442 H 0.38202 0.24629 0.31295 0.0
H443 H 0.26565 0.13698 0.30792 0.0
C444 C 0.29173 0.11662 0.28189 0.0
C445 C 0.32536 0.12226 0.27108 0.0
C446 C 0.35704 0.23903 0.32406 0.0
C447 C 0.32625 0.17252 0.30784 0.0
C448 C 0.35398 0.26746 0.33661 0.0
C449 C 0.32107 0.25914 0.35004 0.0
C450 C 0.32673 0.20212 0.32453 0.0
C451 C 0.29258 0.22142 0.35159 0.0
C452 C 0.29207 0.14132 0.30045 0.0
C453 C 0.35913 0.15244 0.28011 0.0
N454 N 0.29579 0.19448 0.33862 0.0
N455 N 0.35871 0.17689 0.29764 0.0
H456 H 0.16722 0.24894 0.43534 0.0
H457 H 0.09136 0.36637 0.50837 0.0
H458 H 0.23377 0.36883 0.44476 0.0
H459 H 0.04118 0.24646 0.51644 0.0
H460 H 0.14548 0.36841 0.48734 0.0
H461 H 0.12254 0.24753 0.46691 0.0
C462 C 0.17269 0.27495 0.44432 0.0
C463 C 0.20416 0.3091 0.43726 0.0
C464 C 0.12291 0.34173 0.49408 0.0
C465 C 0.15266 0.30777 0.4732 0.0
C466 C 0.09195 0.34052 0.50611 0.0
C467 C 0.06141 0.30612 0.514 0.0
C468 C 0.12316 0.30825 0.48951 0.0
C469 C 0.06393 0.27361 0.51063 0.0
C470 C 0.14716 0.27412 0.46239 0.0
C471 C 0.20988 0.34189 0.44962 0.0
N472 N 0.09393 0.2754 0.49829 0.0
N473 N 0.18406 0.3405 0.46669 0.0
H474 H 0.86178 0.14605 0.56709 0.0
H475 H 0.79452 0.07057 0.70444 0.0
H476 H 0.90356 0.23082 0.6265 0.0
H477 H 0.71431 0.04887 0.64374 0.0
H478 H 0.8423 0.12367 0.679 0.0
H479 H 0.81542 0.10183 0.59744 0.0
C480 C 0.86155 0.15526 0.58665 0.0
C481 C 0.8866 0.1922 0.5943 0.0
C482 C 0.81397 0.10755 0.67167 0.0
C483 C 0.83377 0.14143 0.62913 0.0
C484 C 0.78674 0.07732 0.68608 0.0
C485 C 0.75033 0.05505 0.67618 0.0
C486 C 0.80483 0.11465 0.64701 0.0
C487 C 0.74189 0.06509 0.65221 0.0
C488 C 0.83491 0.13007 0.60384 0.0
C489 C 0.88467 0.20259 0.61987 0.0
N490 N 0.76911 0.09356 0.63823 0.0
N491 N 0.8588 0.17714 0.63657 0.0
H492 H 0.27859 0.41615 0.29887 0.0
H493 H 0.13072 0.30089 0.19001 0.0
H494 H 0.19467 0.29952 0.3077 0.0
H495 H 0.16293 0.41662 0.2034 0.0
H496 H 0.16491 0.30199 0.22878 0.0
H497 H 0.24591 0.41896 0.25983 0.0
C498 C 0.25329 0.39126 0.29268 0.0
C499 C 0.23926 0.35756 0.30656 0.0
C500 C 0.16458 0.32716 0.22316 0.0
C501 C 0.20262 0.36044 0.26192 0.0
C502 C 0.14532 0.32669 0.20095 0.0
C503 C 0.14388 0.35871 0.1935 0.0
C504 C 0.1832 0.36007 0.23783 0.0
C505 C 0.1632 0.39127 0.20856 0.0
C506 C 0.23471 0.39293 0.27051 0.0
C507 C 0.20637 0.32613 0.29771 0.0
N508 N 0.1823 0.39122 0.23003 0.0
N509 N 0.18944 0.32822 0.27581 0.0
H510 H 0.84155 0.20446 0.4905 0.0
H511 H 0.83719 0.18409 0.33967 0.0
H512 H 0.91824 0.29604 0.44193 0.0
H513 H 0.73723 0.12284 0.38571 0.0
H514 H 0.86858 0.22456 0.37678 0.0
H515 H 0.80352 0.17292 0.45251 0.0
C516 C 0.85012 0.21812 0.47186 0.0
C517 C 0.88316 0.25281 0.4693 0.0
C518 C 0.83962 0.20258 0.37862 0.0
C519 C 0.84022 0.21658 0.42577 0.0
C520 C 0.82175 0.17937 0.35751 0.0
C521 C 0.78462 0.1499 0.35967 0.0
C522 C 0.8205 0.19573 0.40219 0.0
C523 C 0.76588 0.14521 0.3832 0.0
C524 C 0.82836 0.20017 0.45022 0.0
C525 C 0.89291 0.26934 0.44473 0.0
N526 N 0.78421 0.16751 0.40369 0.0
N527 N 0.87187 0.25075 0.4238 0.0
H528 H 0.72481 0.89271 0.64385 0.0
H529 H 0.60878 0.7405 0.53664 0.0
H530 H 0.60593 0.84944 0.63516 0.0
H531 H 0.72384 0.82769 0.52641 0.0
H532 H 0.60625 0.77133 0.57666 0.0
H533 H 0.724 0.85871 0.60508 0.0
C534 C 0.69842 0.8757 0.63398 0.0
C535 C 0.6654 0.87407 0.64271 0.0
C536 C 0.63189 0.78364 0.56549 0.0
C537 C 0.66439 0.83507 0.5983 0.0
C538 C 0.63339 0.76613 0.54274 0.0
C539 C 0.66654 0.78163 0.52814 0.0
C540 C 0.66403 0.81625 0.57392 0.0
C541 C 0.69763 0.81487 0.53693 0.0
C542 C 0.69807 0.85654 0.61175 0.0
C543 C 0.63206 0.85162 0.62901 0.0
N544 N 0.69572 0.83083 0.55935 0.0
N545 N 0.63236 0.83288 0.60745 0.0
H546 H 0.90347 0.7233 0.69026 0.0
H547 H 0.75413 0.60395 0.79738 0.0
H548 H 0.87249 0.60767 0.70264 0.0
H549 H 0.83669 0.7207 0.80772 0.0
H550 H 0.78783 0.60274 0.75846 0.0
H551 H 0.8683 0.7208 0.72884 0.0
C552 C 0.88894 0.69724 0.70094 0.0
C553 C 0.891 0.66565 0.69327 0.0
C554 C 0.7985 0.62845 0.76944 0.0
C555 C 0.85056 0.66267 0.73736 0.0
C556 C 0.77934 0.62921 0.79153 0.0
C557 C 0.7927 0.66247 0.80581 0.0
C558 C 0.83051 0.6614 0.76131 0.0
C559 C 0.82551 0.69441 0.79741 0.0
C560 C 0.86912 0.69595 0.72304 0.0
C561 C 0.87175 0.63269 0.70799 0.0
N562 N 0.84302 0.69319 0.77556 0.0
N563 N 0.85209 0.63196 0.72933 0.0
H564 H 0.27817 0.86579 0.86961 0.0
H565 H 0.12658 0.83162 0.97588 0.0
H566 H 0.19465 0.89869 0.85906 0.0
H567 H 0.15972 0.74864 0.96327 0.0
H568 H 0.16175 0.86514 0.9375 0.0
H569 H 0.24407 0.82981 0.90811 0.0
C570 C 0.25266 0.86534 0.87533 0.0
C571 C 0.23915 0.88519 0.86112 0.0
C572 C 0.16139 0.83964 0.9432 0.0
C573 C 0.20087 0.84507 0.90514 0.0
C574 C 0.14157 0.82062 0.96519 0.0
C575 C 0.14015 0.78722 0.97274 0.0
C576 C 0.18059 0.82565 0.92889 0.0
C577 C 0.15996 0.7742 0.95801 0.0
C578 C 0.23328 0.8448 0.89718 0.0
C579 C 0.20596 0.88365 0.86933 0.0
N580 N 0.17962 0.7936 0.93678 0.0
N581 N 0.18821 0.86431 0.89096 0.0
H582 H 0.3045 0.12185 0.14207 0.0
H583 H 0.42334 0.27301 0.03556 0.0
H584 H 0.4204 0.15424 0.12959 0.0
H585 H 0.30658 0.19056 0.02526 0.0
H586 H 0.42467 0.23898 0.07429 0.0
H587 H 0.30665 0.15749 0.10378 0.0
C588 C 0.33054 0.13678 0.13143 0.0
C589 C 0.36231 0.13498 0.13898 0.0
C590 C 0.39893 0.22841 0.06337 0.0
C591 C 0.3649 0.17595 0.09524 0.0
C592 C 0.39809 0.24776 0.04138 0.0
C593 C 0.36481 0.23451 0.02716 0.0
C594 C 0.36602 0.19632 0.07146 0.0
C595 C 0.33289 0.20165 0.03553 0.0
C596 C 0.33163 0.15687 0.1095 0.0
C597 C 0.39523 0.15475 0.12433 0.0
N598 N 0.33418 0.18394 0.05727 0.0
N599 N 0.39577 0.17465 0.10316 0.0
loop_
_geom_bond_atom_site_label_1
_geom_bond_atom_site_label_2
_geom_bond_distance
_geom_bond_site_symmetry_2
_ccdc_geom_bond_type
O0 Cd1 2.223 . S
O0 C8 1.315 . S
Cd1 O0 2.223 . S
Cd1 O4 2.297 . S
Cd1 O5 2.439 . S
Cd1 O11 2.240 . S
Cd2 O3 2.240 . S
Cd2 O10 2.223 . S
Cd2 O12 2.297 . S
Cd2 O13 2.439 . S
O3 Cd2 2.240 . S
O3 C8 1.279 . S
O4 Cd1 2.297 . S
O4 C6 1.247 . S
O5 Cd1 2.439 . S
O5 C6 1.208 . S
C6 O4 1.247 . S
C6 O5 1.208 . S
C7 O12 1.247 . S
C7 O13 1.208 . S
C8 O0 1.315 . S
C8 O3 1.279 . S
C9 O10 1.315 . S
C9 O11 1.279 . S
O10 Cd2 2.223 . S
O10 C9 1.315 . S
O11 Cd1 2.240 . S
O11 C9 1.279 . S
O12 Cd2 2.297 . S
O12 C7 1.247 . S
O13 Cd2 2.439 . S
O13 C7 1.208 . S
O14 Cd15 2.223 . S
O14 C22 1.315 . S
Cd15 O14 2.223 . S
Cd15 O18 2.297 . S
Cd15 O19 2.439 . S
Cd15 O25 2.240 . S
Cd16 O17 2.240 . S
Cd16 O24 2.223 . S
Cd16 O26 2.297 . S
Cd16 O27 2.439 . S
O17 Cd16 2.240 . S
O17 C22 1.279 . S
O18 Cd15 2.297 . S
O18 C20 1.247 . S
O19 Cd15 2.439 . S
O19 C20 1.208 . S
C20 O18 1.247 . S
C20 O19 1.208 . S
C21 O26 1.247 . S
C21 O27 1.208 . S
C22 O14 1.315 . S
C22 O17 1.279 . S
C23 O24 1.315 . S
C23 O25 1.279 . S
O24 Cd16 2.223 . S
O24 C23 1.315 . S
O25 Cd15 2.240 . S
O25 C23 1.279 . S
O26 Cd16 2.297 . S
O26 C21 1.247 . S
O27 Cd16 2.439 . S
O27 C21 1.208 . S
O28 Cd29 2.223 . S
O28 C36 1.315 . S
Cd29 O28 2.223 . S
Cd29 O32 2.297 . S
Cd29 O33 2.439 . S
Cd29 O39 2.240 . S
Cd30 O31 2.240 . S
Cd30 O38 2.223 . S
Cd30 O40 2.297 . S
Cd30 O41 2.439 . S
O31 Cd30 2.240 . S
O31 C36 1.279 . S
O32 Cd29 2.297 . S
O32 C34 1.247 . S
O33 Cd29 2.439 . S
O33 C34 1.208 . S
C34 O32 1.247 . S
C34 O33 1.208 . S
C35 O40 1.247 . S
C35 O41 1.208 . S
C36 O28 1.315 . S
C36 O31 1.279 . S
C37 O38 1.315 . S
C37 O39 1.279 . S
O38 Cd30 2.223 . S
O38 C37 1.315 . S
O39 Cd29 2.240 . S
O39 C37 1.279 . S
O40 Cd30 2.297 . S
O40 C35 1.247 . S
O41 Cd30 2.439 . S
O41 C35 1.208 . S
O42 Cd43 2.223 . S
O42 C50 1.315 . S
Cd43 O42 2.223 . S
Cd43 O46 2.297 . S
Cd43 O47 2.439 . S
Cd43 O53 2.240 . S
Cd44 O45 2.240 . S
Cd44 O52 2.223 . S
Cd44 O54 2.297 . S
Cd44 O55 2.439 . S
O45 Cd44 2.240 . S
O45 C50 1.279 . S
O46 Cd43 2.297 . S
O46 C48 1.247 . S
O47 Cd43 2.439 . S
O47 C48 1.208 . S
C48 O46 1.247 . S
C48 O47 1.208 . S
C49 O54 1.247 . S
C49 O55 1.208 . S
C50 O42 1.315 . S
C50 O45 1.279 . S
C51 O52 1.315 . S
C51 O53 1.279 . S
O52 Cd44 2.223 . S
O52 C51 1.315 . S
O53 Cd43 2.240 . S
O53 C51 1.279 . S
O54 Cd44 2.297 . S
O54 C49 1.247 . S
O55 Cd44 2.439 . S
O55 C49 1.208 . S
O56 Cd57 2.223 . S
O56 C64 1.315 . S
Cd57 O56 2.223 . S
Cd57 O60 2.297 . S
Cd57 O61 2.439 . S
Cd57 O67 2.240 . S
Cd58 O59 2.240 . S
Cd58 O66 2.223 . S
Cd58 O68 2.297 . S
Cd58 O69 2.439 . S
O59 Cd58 2.240 . S
O59 C64 1.279 . S
O60 Cd57 2.297 . S
O60 C62 1.247 . S
O61 Cd57 2.439 . S
O61 C62 1.208 . S
C62 O60 1.247 . S
C62 O61 1.208 . S
C63 O68 1.247 . S
C63 O69 1.208 . S
C64 O56 1.315 . S
C64 O59 1.279 . S
C65 O66 1.315 . S
C65 O67 1.279 . S
O66 Cd58 2.223 . S
O66 C65 1.315 . S
O67 Cd57 2.240 . S
O67 C65 1.279 . S
O68 Cd58 2.297 . S
O68 C63 1.247 . S
O69 Cd58 2.439 . S
O69 C63 1.208 . S
O70 Cd71 2.216 1_554 S
O70 C78 1.305 1_554 S
Cd71 O70 2.216 1_556 S
Cd71 O74 2.297 . S
Cd71 O75 2.439 . S
Cd71 O81 2.240 . S
Cd72 O73 2.240 . S
Cd72 O80 2.223 . S
Cd72 O82 2.297 . S
Cd72 O83 2.439 . S
O73 Cd72 2.240 . S
O73 C78 1.279 . S
O74 Cd71 2.297 . S
O74 C76 1.247 . S
O75 Cd71 2.439 . S
O75 C76 1.208 . S
C76 O74 1.247 . S
C76 O75 1.208 . S
C77 O82 1.247 . S
C77 O83 1.208 . S
C78 O70 1.305 1_556 S
C78 O73 1.279 . S
C79 O80 1.317 . S
C79 O81 1.283 . S
O80 Cd72 2.223 . S
O80 C79 1.317 . S
O81 Cd71 2.240 . S
O81 C79 1.283 . S
O82 Cd72 2.297 . S
O82 C77 1.247 . S
O83 Cd72 2.439 . S
O83 C77 1.208 . S
O84 Cd85 2.223 . S
O84 C92 1.315 . S
Cd85 O84 2.223 . S
Cd85 O88 2.297 . S
Cd85 O89 2.439 . S
Cd85 O95 2.240 . S
Cd86 O87 2.240 . S
Cd86 O94 2.223 . S
Cd86 O96 2.297 . S
Cd86 O97 2.439 . S
O87 Cd86 2.240 . S
O87 C92 1.279 . S
O88 Cd85 2.297 . S
O88 C90 1.247 . S
O89 Cd85 2.439 . S
O89 C90 1.208 . S
C90 O88 1.247 . S
C90 O89 1.208 . S
C91 O96 1.247 . S
C91 O97 1.208 . S
C92 O84 1.315 . S
C92 O87 1.279 . S
C93 O94 1.315 . S
C93 O95 1.279 . S
O94 Cd86 2.223 . S
O94 C93 1.315 . S
O95 Cd85 2.240 . S
O95 C93 1.279 . S
O96 Cd86 2.297 . S
O96 C91 1.247 . S
O97 Cd86 2.439 . S
O97 C91 1.208 . S
O98 Cd99 2.223 . S
O98 C106 1.315 . S
Cd99 O98 2.223 . S
Cd99 O102 2.297 . S
Cd99 O103 2.439 . S
Cd99 O109 2.240 . S
Cd100 O101 2.240 . S
Cd100 O108 2.223 . S
Cd100 O110 2.297 . S
Cd100 O111 2.439 . S
O101 Cd100 2.240 . S
O101 C106 1.279 . S
O102 Cd99 2.297 . S
O102 C104 1.247 . S
O103 Cd99 2.439 . S
O103 C104 1.208 . S
C104 O102 1.247 . S
C104 O103 1.208 . S
C105 O110 1.247 . S
C105 O111 1.208 . S
C106 O98 1.315 . S
C106 O101 1.279 . S
C107 O108 1.315 . S
C107 O109 1.279 . S
O108 Cd100 2.223 . S
O108 C107 1.315 . S
O109 Cd99 2.240 . S
O109 C107 1.279 . S
O110 Cd100 2.297 . S
O110 C105 1.247 . S
O111 Cd100 2.439 . S
O111 C105 1.208 . S
O112 Cd113 2.216 1_556 S
O112 C120 1.305 1_556 S
Cd113 O112 2.216 1_554 S
Cd113 O116 2.297 . S
Cd113 O117 2.439 . S
Cd113 O123 2.240 . S
Cd114 O115 2.240 . S
Cd114 O122 2.223 . S
Cd114 O124 2.297 . S
Cd114 O125 2.439 . S
O115 Cd114 2.240 . S
O115 C120 1.279 . S
O116 Cd113 2.297 . S
O116 C118 1.247 . S
O117 Cd113 2.439 . S
O117 C118 1.208 . S
C118 O116 1.247 . S
C118 O117 1.208 . S
C119 O124 1.247 . S
C119 O125 1.208 . S
C120 O112 1.305 1_554 S
C120 O115 1.279 . S
C121 O122 1.317 . S
C121 O123 1.283 . S
O122 Cd114 2.223 . S
O122 C121 1.317 . S
O123 Cd113 2.240 . S
O123 C121 1.283 . S
O124 Cd114 2.297 . S
O124 C119 1.247 . S
O125 Cd114 2.439 . S
O125 C119 1.208 . S
O126 Cd127 2.223 . S
O126 C134 1.315 . S
Cd127 O126 2.223 . S
Cd127 O130 2.297 . S
Cd127 O131 2.439 . S
Cd127 O137 2.240 . S
Cd128 O129 2.240 . S
Cd128 O136 2.223 . S
Cd128 O138 2.297 . S
Cd128 O139 2.439 . S
O129 Cd128 2.240 . S
O129 C134 1.279 . S
O130 Cd127 2.297 . S
O130 C132 1.247 . S
O131 Cd127 2.439 . S
O131 C132 1.208 . S
C132 O130 1.247 . S
C132 O131 1.208 . S
C133 O138 1.247 . S
C133 O139 1.208 . S
C134 O126 1.315 . S
C134 O129 1.279 . S
C135 O136 1.315 . S
C135 O137 1.279 . S
O136 Cd128 2.223 . S
O136 C135 1.315 . S
O137 Cd127 2.240 . S
O137 C135 1.279 . S
O138 Cd128 2.297 . S
O138 C133 1.247 . S
O139 Cd128 2.439 . S
O139 C133 1.208 . S
O140 Cd141 2.223 . S
O140 C148 1.315 . S
Cd141 O140 2.223 . S
Cd141 O144 2.297 . S
Cd141 O145 2.439 . S
Cd141 O151 2.240 . S
Cd142 O143 2.240 . S
Cd142 O150 2.223 . S
Cd142 O152 2.297 . S
Cd142 O153 2.439 . S
O143 Cd142 2.240 . S
O143 C148 1.279 . S
O144 Cd141 2.297 . S
O144 C146 1.247 . S
O145 Cd141 2.439 . S
O145 C146 1.208 . S
C146 O144 1.247 . S
C146 O145 1.208 . S
C147 O152 1.247 . S
C147 O153 1.208 . S
C148 O140 1.315 . S
C148 O143 1.279 . S
C149 O150 1.315 . S
C149 O151 1.279 . S
O150 Cd142 2.223 . S
O150 C149 1.315 . S
O151 Cd141 2.240 . S
O151 C149 1.279 . S
O152 Cd142 2.297 . S
O152 C147 1.247 . S
O153 Cd142 2.439 . S
O153 C147 1.208 . S
O154 Cd155 2.223 . S
O154 C162 1.315 . S
Cd155 O154 2.223 . S
Cd155 O158 2.297 . S
Cd155 O159 2.439 . S
Cd155 O165 2.240 . S
Cd156 O157 2.240 . S
Cd156 O164 2.223 . S
Cd156 O166 2.297 . S
Cd156 O167 2.439 . S
O157 Cd156 2.240 . S
O157 C162 1.279 . S
O158 Cd155 2.297 . S
O158 C160 1.247 . S
O159 Cd155 2.439 . S
O159 C160 1.208 . S
C160 O158 1.247 . S
C160 O159 1.208 . S
C161 O166 1.247 . S
C161 O167 1.208 . S
C162 O154 1.315 . S
C162 O157 1.279 . S
C163 O164 1.315 . S
C163 O165 1.279 . S
O164 Cd156 2.223 . S
O164 C163 1.315 . S
O165 Cd155 2.240 . S
O165 C163 1.279 . S
O166 Cd156 2.297 . S
O166 C161 1.247 . S
O167 Cd156 2.439 . S
O167 C161 1.208 . S
H168 C174 0.930 . S
H169 C178 0.930 . S
H170 C183 0.929 . S
H171 C181 0.929 . S
H172 C176 0.929 . S
H173 C182 0.929 . S
C174 H168 0.930 . S
C174 C175 1.367 . S
C174 C182 1.378 . S
C175 C174 1.367 . S
C175 C183 1.433 . S
C176 H172 0.929 . S
C176 C178 1.378 . S
C176 C180 1.350 . S
C177 C180 1.463 . S
C177 C182 1.350 . S
C177 N185 1.427 . S
C178 H169 0.930 . S
C178 C176 1.378 . S
C178 C179 1.367 . S
C179 C178 1.367 . S
C179 C181 1.433 . S
C180 C176 1.350 . S
C180 C177 1.463 . S
C180 N184 1.427 . S
C181 H171 0.929 . S
C181 C179 1.433 . S
C181 N184 1.384 . S
C182 H173 0.929 . S
C182 C174 1.378 . S
C182 C177 1.350 . S
C183 H170 0.929 . S
C183 C175 1.433 . S
C183 N185 1.384 . S
N184 C180 1.427 . S
N184 C181 1.384 . S
N185 C177 1.427 . S
N185 C183 1.384 . S
H186 C192 0.930 . S
H187 C196 0.930 . S
H188 C201 0.929 . S
H189 C199 0.929 . S
H190 C194 0.929 . S
H191 C200 0.929 . S
C192 H186 0.930 . S
C192 C193 1.367 . S
C192 C200 1.378 . S
C193 C192 1.367 . S
C193 C201 1.433 . S
C194 H190 0.929 . S
C194 C196 1.378 . S
C194 C198 1.350 . S
C195 C198 1.463 . S
C195 C200 1.350 . S
C195 N203 1.427 . S
C196 H187 0.930 . S
C196 C194 1.378 . S
C196 C197 1.367 . S
C197 C196 1.367 . S
C197 C199 1.433 . S
C198 C194 1.350 . S
C198 C195 1.463 . S
C198 N202 1.427 . S
C199 H189 0.929 . S
C199 C197 1.433 . S
C199 N202 1.384 . S
C200 H191 0.929 . S
C200 C192 1.378 . S
C200 C195 1.350 . S
C201 H188 0.929 . S
C201 C193 1.433 . S
C201 N203 1.384 . S
N202 C198 1.427 . S
N202 C199 1.384 . S
N203 C195 1.427 . S
N203 C201 1.384 . S
H204 C210 0.930 . S
H205 C214 0.930 . S
H206 C219 0.929 . S
H207 C217 0.929 . S
H208 C212 0.929 . S
H209 C218 0.929 . S
C210 H204 0.930 . S
C210 C211 1.367 . S
C210 C218 1.378 . S
C211 C210 1.367 . S
C211 C219 1.433 . S
C212 H208 0.929 . S
C212 C214 1.378 . S
C212 C216 1.350 . S
C213 C216 1.463 . S
C213 C218 1.350 . S
C213 N221 1.427 . S
C214 H205 0.930 . S
C214 C212 1.378 . S
C214 C215 1.367 . S
C215 C214 1.367 . S
C215 C217 1.433 . S
C216 C212 1.350 . S
C216 C213 1.463 . S
C216 N220 1.427 . S
C217 H207 0.929 . S
C217 C215 1.433 . S
C217 N220 1.384 . S
C218 H209 0.929 . S
C218 C210 1.378 . S
C218 C213 1.350 . S
C219 H206 0.929 . S
C219 C211 1.433 . S
C219 N221 1.384 . S
N220 C216 1.427 . S
N220 C217 1.384 . S
N221 C213 1.427 . S
N221 C219 1.384 . S
H222 C228 0.930 . S
H223 C232 0.930 . S
H224 C237 0.929 . S
H225 C235 0.929 . S
H226 C230 0.929 . S
H227 C236 0.929 . S
C228 H222 0.930 . S
C228 C229 1.367 . S
C228 C236 1.378 . S
C229 C228 1.367 . S
C229 C237 1.433 . S
C230 H226 0.929 . S
C230 C232 1.378 . S
C230 C234 1.350 . S
C231 C234 1.463 . S
C231 C236 1.350 . S
C231 N239 1.427 . S
C232 H223 0.930 . S
C232 C230 1.378 . S
C232 C233 1.367 . S
C233 C232 1.367 . S
C233 C235 1.433 . S
C234 C230 1.350 . S
C234 C231 1.463 . S
C234 N238 1.427 . S
C235 H225 0.929 . S
C235 C233 1.433 . S
C235 N238 1.384 . S
C236 H227 0.929 . S
C236 C228 1.378 . S
C236 C231 1.350 . S
C237 H224 0.929 . S
C237 C229 1.433 . S
C237 N239 1.384 . S
N238 C234 1.427 . S
N238 C235 1.384 . S
N239 C231 1.427 . S
N239 C237 1.384 . S
H240 C246 0.930 . S
H241 C250 0.930 . S
H242 C255 0.929 . S
H243 C253 0.929 . S
H244 C248 0.929 . S
H245 C254 0.929 . S
C246 H240 0.930 . S
C246 C247 1.367 . S
C246 C254 1.378 . S
C247 C246 1.367 . S
C247 C255 1.433 . S
C248 H244 0.929 . S
C248 C250 1.378 . S
C248 C252 1.350 . S
C249 C252 1.463 . S
C249 C254 1.350 . S
C249 N257 1.427 . S
C250 H241 0.930 . S
C250 C248 1.378 . S
C250 C251 1.367 . S
C251 C250 1.367 . S
C251 C253 1.433 . S
C252 C248 1.350 . S
C252 C249 1.463 . S
C252 N256 1.427 . S
C253 H243 0.929 . S
C253 C251 1.433 . S
C253 N256 1.384 . S
C254 H245 0.929 . S
C254 C246 1.378 . S
C254 C249 1.350 . S
C255 H242 0.929 . S
C255 C247 1.433 . S
C255 N257 1.384 . S
N256 C252 1.427 . S
N256 C253 1.384 . S
N257 C249 1.427 . S
N257 C255 1.384 . S
H258 C264 0.930 . S
H259 C268 0.930 . S
H260 C273 0.929 . S
H261 C271 0.929 . S
H262 C266 0.929 . S
H263 C272 0.929 . S
C264 H258 0.930 . S
C264 C265 1.367 . S
C264 C272 1.378 . S
C265 C264 1.367 . S
C265 C273 1.433 . S
C266 H262 0.929 . S
C266 C268 1.378 . S
C266 C270 1.350 . S
C267 C270 1.463 . S
C267 C272 1.350 . S
C267 N275 1.427 . S
C268 H259 0.930 . S
C268 C266 1.378 . S
C268 C269 1.367 . S
C269 C268 1.367 . S
C269 C271 1.433 . S
C270 C266 1.350 . S
C270 C267 1.463 . S
C270 N274 1.427 . S
C271 H261 0.929 . S
C271 C269 1.433 . S
C271 N274 1.384 . S
C272 H263 0.929 . S
C272 C264 1.378 . S
C272 C267 1.350 . S
C273 H260 0.929 . S
C273 C265 1.433 . S
C273 N275 1.384 . S
N274 C270 1.427 . S
N274 C271 1.384 . S
N275 C267 1.427 . S
N275 C273 1.384 . S
H276 C282 0.930 . S
H277 C286 0.930 . S
H278 C291 0.929 . S
H279 C289 0.929 1_556 S
H280 C284 0.929 . S
H281 C290 0.929 . S
C282 H276 0.930 . S
C282 C283 1.367 . S
C282 C290 1.378 . S
C283 C282 1.367 . S
C283 C291 1.433 . S
C284 H280 0.929 . S
C284 C286 1.378 . S
C284 C288 1.350 . S
C285 C288 1.463 . S
C285 C290 1.350 . S
C285 N293 1.427 . S
C286 H277 0.930 . S
C286 C284 1.378 . S
C286 C287 1.367 1_554 S
C287 C286 1.367 1_556 S
C287 C289 1.433 1_556 S
C288 C284 1.350 . S
C288 C285 1.463 . S
C288 N292 1.427 . S
C289 H279 0.929 1_554 S
C289 C287 1.433 1_554 S
C289 N292 1.384 . S
C290 H281 0.929 . S
C290 C282 1.378 . S
C290 C285 1.350 . S
C291 H278 0.929 . S
C291 C283 1.433 . S
C291 N293 1.384 . S
N292 C288 1.427 . S
N292 C289 1.384 . S
N293 C285 1.427 . S
N293 C291 1.384 . S
H294 C300 0.930 . S
H295 C304 0.930 . S
H296 C309 0.929 . S
H297 C307 0.929 . S
H298 C302 0.929 . S
H299 C308 0.929 . S
C300 H294 0.930 . S
C300 C301 1.367 . S
C300 C308 1.378 . S
C301 C300 1.367 . S
C301 C309 1.433 . S
C302 H298 0.929 . S
C302 C304 1.378 . S
C302 C306 1.350 . S
C303 C306 1.463 . S
C303 C308 1.350 . S
C303 N311 1.427 . S
C304 H295 0.930 . S
C304 C302 1.378 . S
C304 C305 1.367 . S
C305 C304 1.367 . S
C305 C307 1.433 . S
C306 C302 1.350 . S
C306 C303 1.463 . S
C306 N310 1.427 . S
C307 H297 0.929 . S
C307 C305 1.433 . S
C307 N310 1.384 . S
C308 H299 0.929 . S
C308 C300 1.378 . S
C308 C303 1.350 . S
C309 H296 0.929 . S
C309 C301 1.433 . S
C309 N311 1.384 . S
N310 C306 1.427 . S
N310 C307 1.384 . S
N311 C303 1.427 . S
N311 C309 1.384 . S
H312 C318 0.930 . S
H313 C322 0.930 1_545 S
H314 C327 0.929 . S
H315 C325 0.929 . S
H316 C320 0.929 . S
H317 C326 0.929 . S
C318 H312 0.930 . S
C318 C319 1.367 . S
C318 C326 1.378 . S
C319 C318 1.367 . S
C319 C327 1.433 . S
C320 H316 0.929 . S
C320 C322 1.378 . S
C320 C324 1.350 . S
C321 C324 1.463 . S
C321 C326 1.350 . S
C321 N329 1.427 . S
C322 H313 0.930 1_565 S
C322 C320 1.378 . S
C322 C323 1.367 . S
C323 C322 1.367 . S
C323 C325 1.433 . S
C324 C320 1.350 . S
C324 C321 1.463 . S
C324 N328 1.427 . S
C325 H315 0.929 . S
C325 C323 1.433 . S
C325 N328 1.384 . S
C326 H317 0.929 . S
C326 C318 1.378 . S
C326 C321 1.350 . S
C327 H314 0.929 . S
C327 C319 1.433 . S
C327 N329 1.384 . S
N328 C324 1.427 . S
N328 C325 1.384 . S
N329 C321 1.427 . S
N329 C327 1.384 . S
H330 C336 0.930 . S
H331 C340 0.930 . S
H332 C345 0.929 . S
H333 C343 0.929 . S
H334 C338 0.929 . S
H335 C344 0.929 . S
C336 H330 0.930 . S
C336 C337 1.367 . S
C336 C344 1.378 . S
C337 C336 1.367 . S
C337 C345 1.433 . S
C338 H334 0.929 . S
C338 C340 1.378 . S
C338 C342 1.350 . S
C339 C342 1.463 . S
C339 C344 1.350 . S
C339 N347 1.427 . S
C340 H331 0.930 . S
C340 C338 1.378 . S
C340 C341 1.367 . S
C341 C340 1.367 . S
C341 C343 1.433 . S
C342 C338 1.350 . S
C342 C339 1.463 . S
C342 N346 1.427 . S
C343 H333 0.929 . S
C343 C341 1.433 . S
C343 N346 1.384 . S
C344 H335 0.929 . S
C344 C336 1.378 . S
C344 C339 1.350 . S
C345 H332 0.929 . S
C345 C337 1.433 . S
C345 N347 1.384 . S
N346 C342 1.427 . S
N346 C343 1.384 . S
N347 C339 1.427 . S
N347 C345 1.384 . S
H348 C354 0.930 . S
H349 C358 0.930 . S
H350 C363 0.929 . S
H351 C361 0.929 . S
H352 C356 0.929 . S
H353 C362 0.929 . S
C354 H348 0.930 . S
C354 C355 1.367 . S
C354 C362 1.378 . S
C355 C354 1.367 . S
C355 C363 1.433 . S
C356 H352 0.929 . S
C356 C358 1.378 . S
C356 C360 1.350 . S
C357 C360 1.463 . S
C357 C362 1.350 . S
C357 N365 1.427 . S
C358 H349 0.930 . S
C358 C356 1.378 . S
C358 C359 1.367 . S
C359 C358 1.367 . S
C359 C361 1.433 . S
C360 C356 1.350 . S
C360 C357 1.463 . S
C360 N364 1.427 . S
C361 H351 0.929 . S
C361 C359 1.433 . S
C361 N364 1.384 . S
C362 H353 0.929 . S
C362 C354 1.378 . S
C362 C357 1.350 . S
C363 H350 0.929 . S
C363 C355 1.433 . S
C363 N365 1.384 . S
N364 C360 1.427 . S
N364 C361 1.384 . S
N365 C357 1.427 . S
N365 C363 1.384 . S
H366 C372 0.930 . S
H367 C376 0.930 . S
H368 C381 0.929 . S
H369 C379 0.929 . S
H370 C374 0.929 . S
H371 C380 0.929 . S
C372 H366 0.930 . S
C372 C373 1.367 . S
C372 C380 1.378 . S
C373 C372 1.367 . S
C373 C381 1.433 . S
C374 H370 0.929 . S
C374 C376 1.378 . S
C374 C378 1.350 . S
C375 C378 1.463 . S
C375 C380 1.350 . S
C375 N383 1.427 . S
C376 H367 0.930 . S
C376 C374 1.378 . S
C376 C377 1.367 . S
C377 C376 1.367 . S
C377 C379 1.433 . S
C378 C374 1.350 . S
C378 C375 1.463 . S
C378 N382 1.427 . S
C379 H369 0.929 . S
C379 C377 1.433 . S
C379 N382 1.384 . S
C380 H371 0.929 . S
C380 C372 1.378 . S
C380 C375 1.350 . S
C381 H368 0.929 . S
C381 C373 1.433 . S
C381 N383 1.384 . S
N382 C378 1.427 . S
N382 C379 1.384 . S
N383 C375 1.427 . S
N383 C381 1.384 . S
H384 C390 0.930 . S
H385 C394 0.930 . S
H386 C399 0.929 . S
H387 C397 0.929 . S
H388 C392 0.929 . S
H389 C398 0.929 . S
C390 H384 0.930 . S
C390 C391 1.367 . S
C390 C398 1.378 . S
C391 C390 1.367 . S
C391 C399 1.433 . S
C392 H388 0.929 . S
C392 C394 1.378 . S
C392 C396 1.350 . S
C393 C396 1.463 . S
C393 C398 1.350 . S
C393 N401 1.427 . S
C394 H385 0.930 . S
C394 C392 1.378 . S
C394 C395 1.367 . S
C395 C394 1.367 . S
C395 C397 1.433 . S
C396 C392 1.350 . S
C396 C393 1.463 . S
C396 N400 1.427 . S
C397 H387 0.929 . S
C397 C395 1.433 . S
C397 N400 1.384 . S
C398 H389 0.929 . S
C398 C390 1.378 . S
C398 C393 1.350 . S
C399 H386 0.929 . S
C399 C391 1.433 . S
C399 N401 1.384 . S
N400 C396 1.427 . S
N400 C397 1.384 . S
N401 C393 1.427 . S
N401 C399 1.384 . S
H402 C408 0.930 . S
H403 C412 0.930 . S
H404 C417 0.929 . S
H405 C415 0.929 . S
H406 C410 0.929 . S
H407 C416 0.929 . S
C408 H402 0.930 . S
C408 C409 1.367 . S
C408 C416 1.378 . S
C409 C408 1.367 . S
C409 C417 1.433 . S
C410 H406 0.929 . S
C410 C412 1.378 1_556 S
C410 C414 1.350 . S
C411 C414 1.463 . S
C411 C416 1.350 . S
C411 N419 1.427 . S
C412 H403 0.930 . S
C412 C410 1.378 1_554 S
C412 C413 1.367 . S
C413 C412 1.367 . S
C413 C415 1.433 1_554 S
C414 C410 1.350 . S
C414 C411 1.463 . S
C414 N418 1.427 . S
C415 H405 0.929 . S
C415 C413 1.433 1_556 S
C415 N418 1.384 . S
C416 H407 0.929 . S
C416 C408 1.378 . S
C416 C411 1.350 . S
C417 H404 0.929 . S
C417 C409 1.433 . S
C417 N419 1.384 . S
N418 C414 1.427 . S
N418 C415 1.384 . S
N419 C411 1.427 . S
N419 C417 1.384 . S
H420 C426 0.930 . S
H421 C430 0.930 . S
H422 C435 0.929 1_545 S
H423 C433 0.929 . S
H424 C428 0.929 . S
H425 C434 0.929 . S
C426 H420 0.930 . S
C426 C427 1.367 . S
C426 C434 1.378 . S
C427 C426 1.367 . S
C427 C435 1.433 . S
C428 H424 0.929 . S
C428 C430 1.378 . S
C428 C432 1.350 . S
C429 C432 1.463 . S
C429 C434 1.350 . S
C429 N437 1.427 . S
C430 H421 0.930 . S
C430 C428 1.378 . S
C430 C431 1.367 . S
C431 C430 1.367 . S
C431 C433 1.433 . S
C432 C428 1.350 . S
C432 C429 1.463 . S
C432 N436 1.427 . S
C433 H423 0.929 . S
C433 C431 1.433 . S
C433 N436 1.384 . S
C434 H425 0.929 . S
C434 C426 1.378 . S
C434 C429 1.350 . S
C435 H422 0.929 1_565 S
C435 C427 1.433 . S
C435 N437 1.384 . S
N436 C432 1.427 . S
N436 C433 1.384 . S
N437 C429 1.427 . S
N437 C435 1.384 . S
H438 C444 0.930 . S
H439 C448 0.930 . S
H440 C453 0.929 . S
H441 C451 0.929 . S
H442 C446 0.929 . S
H443 C452 0.929 . S
C444 H438 0.930 . S
C444 C445 1.367 . S
C444 C452 1.378 . S
C445 C444 1.367 . S
C445 C453 1.433 . S
C446 H442 0.929 . S
C446 C448 1.378 . S
C446 C450 1.350 . S
C447 C450 1.463 . S
C447 C452 1.350 . S
C447 N455 1.427 . S
C448 H439 0.930 . S
C448 C446 1.378 . S
C448 C449 1.367 . S
C449 C448 1.367 . S
C449 C451 1.433 . S
C450 C446 1.350 . S
C450 C447 1.463 . S
C450 N454 1.427 . S
C451 H441 0.929 . S
C451 C449 1.433 . S
C451 N454 1.384 . S
C452 H443 0.929 . S
C452 C444 1.378 . S
C452 C447 1.350 . S
C453 H440 0.929 . S
C453 C445 1.433 . S
C453 N455 1.384 . S
N454 C450 1.427 . S
N454 C451 1.384 . S
N455 C447 1.427 . S
N455 C453 1.384 . S
H456 C462 0.930 . S
H457 C466 0.930 . S
H458 C471 0.929 . S
H459 C469 0.929 1_655 S
H460 C464 0.929 . S
H461 C470 0.929 . S
C462 H456 0.930 . S
C462 C463 1.367 . S
C462 C470 1.378 . S
C463 C462 1.367 . S
C463 C471 1.433 . S
C464 H460 0.929 . S
C464 C466 1.378 . S
C464 C468 1.350 . S
C465 C468 1.463 . S
C465 C470 1.350 . S
C465 N473 1.427 . S
C466 H457 0.930 . S
C466 C464 1.378 . S
C466 C467 1.367 . S
C467 C466 1.367 . S
C467 C469 1.433 . S
C468 C464 1.350 . S
C468 C465 1.463 . S
C468 N472 1.427 . S
C469 H459 0.929 1_455 S
C469 C467 1.433 . S
C469 N472 1.384 . S
C470 H461 0.929 . S
C470 C462 1.378 . S
C470 C465 1.350 . S
C471 H458 0.929 . S
C471 C463 1.433 . S
C471 N473 1.384 . S
N472 C468 1.427 . S
N472 C469 1.384 . S
N473 C465 1.427 . S
N473 C471 1.384 . S
H474 C480 0.930 . S
H475 C484 0.930 . S
H476 C489 0.929 . S
H477 C487 0.929 1_565 S
H478 C482 0.929 . S
H479 C488 0.929 . S
C480 H474 0.930 . S
C480 C481 1.367 . S
C480 C488 1.378 . S
C481 C480 1.367 . S
C481 C489 1.433 . S
C482 H478 0.929 . S
C482 C484 1.378 . S
C482 C486 1.350 . S
C483 C486 1.463 . S
C483 C488 1.350 . S
C483 N491 1.427 . S
C484 H475 0.930 . S
C484 C482 1.378 . S
C484 C485 1.367 . S
C485 C484 1.367 . S
C485 C487 1.433 . S
C486 C482 1.350 . S
C486 C483 1.463 . S
C486 N490 1.427 . S
C487 H477 0.929 1_545 S
C487 C485 1.433 . S
C487 N490 1.384 . S
C488 H479 0.929 . S
C488 C480 1.378 . S
C488 C483 1.350 . S
C489 H476 0.929 . S
C489 C481 1.433 . S
C489 N491 1.384 . S
N490 C486 1.427 . S
N490 C487 1.384 . S
N491 C483 1.427 . S
N491 C489 1.384 . S
H492 C498 0.930 . S
H493 C502 0.930 . S
H494 C507 0.929 . S
H495 C505 0.929 . S
H496 C500 0.929 . S
H497 C506 0.929 . S
C498 H492 0.930 . S
C498 C499 1.367 . S
C498 C506 1.378 . S
C499 C498 1.367 . S
C499 C507 1.433 . S
C500 H496 0.929 . S
C500 C502 1.378 . S
C500 C504 1.350 . S
C501 C504 1.463 . S
C501 C506 1.350 . S
C501 N509 1.427 . S
C502 H493 0.930 . S
C502 C500 1.378 . S
C502 C503 1.367 . S
C503 C502 1.367 . S
C503 C505 1.433 . S
C504 C500 1.350 . S
C504 C501 1.463 . S
C504 N508 1.427 . S
C505 H495 0.929 . S
C505 C503 1.433 . S
C505 N508 1.384 . S
C506 H497 0.929 . S
C506 C498 1.378 . S
C506 C501 1.350 . S
C507 H494 0.929 . S
C507 C499 1.433 . S
C507 N509 1.384 . S
N508 C504 1.427 . S
N508 C505 1.384 . S
N509 C501 1.427 . S
N509 C507 1.384 . S
H510 C516 0.930 . S
H511 C520 0.930 . S
H512 C525 0.929 . S
H513 C523 0.929 . S
H514 C518 0.929 . S
H515 C524 0.929 . S
C516 H510 0.930 . S
C516 C517 1.367 . S
C516 C524 1.378 . S
C517 C516 1.367 . S
C517 C525 1.433 . S
C518 H514 0.929 . S
C518 C520 1.378 . S
C518 C522 1.350 . S
C519 C522 1.463 . S
C519 C524 1.350 . S
C519 N527 1.427 . S
C520 H511 0.930 . S
C520 C518 1.378 . S
C520 C521 1.367 . S
C521 C520 1.367 . S
C521 C523 1.433 . S
C522 C518 1.350 . S
C522 C519 1.463 . S
C522 N526 1.427 . S
C523 H513 0.929 . S
C523 C521 1.433 . S
C523 N526 1.384 . S
C524 H515 0.929 . S
C524 C516 1.378 . S
C524 C519 1.350 . S
C525 H512 0.929 . S
C525 C517 1.433 . S
C525 N527 1.384 . S
N526 C522 1.427 . S
N526 C523 1.384 . S
N527 C519 1.427 . S
N527 C525 1.384 . S
H528 C534 0.930 . S
H529 C538 0.930 . S
H530 C543 0.929 . S
H531 C541 0.929 . S
H532 C536 0.929 . S
H533 C542 0.929 . S
C534 H528 0.930 . S
C534 C535 1.367 . S
C534 C542 1.378 . S
C535 C534 1.367 . S
C535 C543 1.433 . S
C536 H532 0.929 . S
C536 C538 1.378 . S
C536 C540 1.350 . S
C537 C540 1.463 . S
C537 C542 1.350 . S
C537 N545 1.427 . S
C538 H529 0.930 . S
C538 C536 1.378 . S
C538 C539 1.367 . S
C539 C538 1.367 . S
C539 C541 1.433 . S
C540 C536 1.350 . S
C540 C537 1.463 . S
C540 N544 1.427 . S
C541 H531 0.929 . S
C541 C539 1.433 . S
C541 N544 1.384 . S
C542 H533 0.929 . S
C542 C534 1.378 . S
C542 C537 1.350 . S
C543 H530 0.929 . S
C543 C535 1.433 . S
C543 N545 1.384 . S
N544 C540 1.427 . S
N544 C541 1.384 . S
N545 C537 1.427 . S
N545 C543 1.384 . S
H546 C552 0.930 . S
H547 C556 0.930 . S
H548 C561 0.929 . S
H549 C559 0.929 . S
H550 C554 0.929 . S
H551 C560 0.929 . S
C552 H546 0.930 . S
C552 C553 1.367 . S
C552 C560 1.378 . S
C553 C552 1.367 . S
C553 C561 1.433 . S
C554 H550 0.929 . S
C554 C556 1.378 . S
C554 C558 1.350 . S
C555 C558 1.463 . S
C555 C560 1.350 . S
C555 N563 1.427 . S
C556 H547 0.930 . S
C556 C554 1.378 . S
C556 C557 1.367 . S
C557 C556 1.367 . S
C557 C559 1.433 . S
C558 C554 1.350 . S
C558 C555 1.463 . S
C558 N562 1.427 . S
C559 H549 0.929 . S
C559 C557 1.433 . S
C559 N562 1.384 . S
C560 H551 0.929 . S
C560 C552 1.378 . S
C560 C555 1.350 . S
C561 H548 0.929 . S
C561 C553 1.433 . S
C561 N563 1.384 . S
N562 C558 1.427 . S
N562 C559 1.384 . S
N563 C555 1.427 . S
N563 C561 1.384 . S
H564 C570 0.930 . S
H565 C574 0.930 . S
H566 C579 0.929 . S
H567 C577 0.929 . S
H568 C572 0.929 . S
H569 C578 0.929 . S
C570 H564 0.930 . S
C570 C571 1.367 . S
C570 C578 1.378 . S
C571 C570 1.367 . S
C571 C579 1.433 . S
C572 H568 0.929 . S
C572 C574 1.378 . S
C572 C576 1.350 . S
C573 C576 1.463 . S
C573 C578 1.350 . S
C573 N581 1.427 . S
C574 H565 0.930 . S
C574 C572 1.378 . S
C574 C575 1.367 . S
C575 C574 1.367 . S
C575 C577 1.433 . S
C576 C572 1.350 . S
C576 C573 1.463 . S
C576 N580 1.427 . S
C577 H567 0.929 . S
C577 C575 1.433 . S
C577 N580 1.384 . S
C578 H569 0.929 . S
C578 C570 1.378 . S
C578 C573 1.350 . S
C579 H566 0.929 . S
C579 C571 1.433 . S
C579 N581 1.384 . S
N580 C576 1.427 . S
N580 C577 1.384 . S
N581 C573 1.427 . S
N581 C579 1.384 . S
H582 C588 0.930 . S
H583 C592 0.930 . S
H584 C597 0.929 . S
H585 C595 0.929 . S
H586 C590 0.929 . S
H587 C596 0.929 . S
C588 H582 0.930 . S
C588 C589 1.367 . S
C588 C596 1.378 . S
C589 C588 1.367 . S
C589 C597 1.433 . S
C590 H586 0.929 . S
C590 C592 1.378 . S
C590 C594 1.350 . S
C591 C594 1.463 . S
C591 C596 1.350 . S
C591 N599 1.427 . S
C592 H583 0.930 . S
C592 C590 1.378 . S
C592 C593 1.367 . S
C593 C592 1.367 . S
C593 C595 1.433 . S
C594 C590 1.350 . S
C594 C591 1.463 . S
C594 N598 1.427 . S
C595 H585 0.929 . S
C595 C593 1.433 . S
C595 N598 1.384 . S
C596 H587 0.929 . S
C596 C588 1.378 . S
C596 C591 1.350 . S
C597 H584 0.929 . S
C597 C589 1.433 . S
C597 N599 1.384 . S
N598 C594 1.427 . S
N598 C595 1.384 . S
N599 C591 1.427 . S
N599 C597 1.384 . S
C175 C118 1.491 . S
C179 C6 1.496 . S
C193 C20 1.491 . S
C197 C132 1.488 . S
C211 C34 1.489 . S
C215 C146 1.489 . S
C229 C48 1.503 . S
C233 C160 1.505 . S
C247 C90 1.491 . S
C251 C62 1.496 . S
C265 C76 1.488 . S
C269 C104 1.491 . S
C283 C7 1.592 . S
C287 C78 1.601 . S
C301 C21 1.587 . S
C305 C8 1.596 1_655 S
C319 C35 1.591 . S
C323 C22 1.598 1_565 S
C337 C36 1.597 . S
C341 C49 1.591 . S
C355 C50 1.603 1_455 S
C359 C63 1.589 . S
C373 C64 1.603 1_545 S
C377 C77 1.589 . S
C391 C106 1.600 . S
C395 C91 1.592 . S
C409 C105 1.590 . S
C413 C120 1.603 1_655 S
C427 C134 1.603 1_565 S
C431 C119 1.584 . S
C445 C133 1.583 . S
C449 C148 1.599 . S
C463 C147 1.583 . S
C467 C162 1.599 1_455 S
C481 C161 1.585 . S
C485 C92 1.604 1_545 S
C499 C149 1.476 . S
C503 C9 1.474 . S
C517 C163 1.471 . S
C521 C23 1.470 . S
C535 C93 1.472 . S
C539 C37 1.476 . S
C553 C51 1.470 . S
C557 C107 1.473 . S
C571 C65 1.473 . S
C575 C121 1.464 1_556 S
C589 C135 1.472 . S
C593 C79 1.471 1_554 S
