# Generated by pormake.
# Topology ukn, (4)-cn, num edge types: 1
# Building blocks:
#     Node 0, Type 0, BuildingBlock: GALJAG_clean_sbu_0, # of connection points: 4
#     Node 1, Type 0, BuildingBlock: GALJAG_clean_sbu_0, # of connection points: 4
#     Node 2, Type 0, BuildingBlock: GALJAG_clean_sbu_0, # of connection points: 4
#     Node 3, Type 0, BuildingBlock: GALJAG_clean_sbu_0, # of connection points: 4
#     Node 4, Type 0, BuildingBlock: GALJAG_clean_sbu_0, # of connection points: 4
#     Node 5, Type 0, BuildingBlock: GALJAG_clean_sbu_0, # of connection points: 4
#     Node 6, Type 0, BuildingBlock: GALJAG_clean_sbu_0, # of connection points: 4
#     Node 7, Type 0, BuildingBlock: GALJAG_clean_sbu_0, # of connection points: 4
#     Node 8, Type 0, BuildingBlock: GALJAG_clean_sbu_0, # of connection points: 4
#     Node 9, Type 0, BuildingBlock: GALJAG_clean_sbu_0, # of connection points: 4
#     Node 10, Type 0, BuildingBlock: GALJAG_clean_sbu_0, # of connection points: 4
#     Node 11, Type 0, BuildingBlock: GALJAG_clean_sbu_0, # of connection points: 4
#     Node 12, Type 0, BuildingBlock: GALJAG_clean_sbu_0, # of connection points: 4
#     Node 13, Type 0, BuildingBlock: GALJAG_clean_sbu_0, # of connection points: 4
#     Node 14, Type 0, BuildingBlock: GALJAG_clean_sbu_0, # of connection points: 4
#     Node 15, Type 0, BuildingBlock: GALJAG_clean_sbu_0, # of connection points: 4
#     Node 16, Type 0, BuildingBlock: GALJAG_clean_sbu_0, # of connection points: 4
#     Node 17, Type 0, BuildingBlock: GALJAG_clean_sbu_0, # of connection points: 4
#     Node 18, Type 0, BuildingBlock: GALJAG_clean_sbu_0, # of connection points: 4
#     Node 19, Type 0, BuildingBlock: GALJAG_clean_sbu_0, # of connection points: 4
#     Node 20, Type 0, BuildingBlock: GALJAG_clean_sbu_0, # of connection points: 4
#     Node 21, Type 0, BuildingBlock: GALJAG_clean_sbu_0, # of connection points: 4
#     Node 22, Type 0, BuildingBlock: GALJAG_clean_sbu_0, # of connection points: 4
#     Node 23, Type 0, BuildingBlock: GALJAG_clean_sbu_0, # of connection points: 4
#     Node 24, Type 0, BuildingBlock: GALJAG_clean_sbu_0, # of connection points: 4
#     Node 25, Type 0, BuildingBlock: GALJAG_clean_sbu_0, # of connection points: 4
#     Node 26, Type 0, BuildingBlock: GALJAG_clean_sbu_0, # of connection points: 4
#     Node 27, Type 0, BuildingBlock: GALJAG_clean_sbu_0, # of connection points: 4
#     Node 28, Type 0, BuildingBlock: GALJAG_clean_sbu_0, # of connection points: 4
#     Node 29, Type 0, BuildingBlock: GALJAG_clean_sbu_0, # of connection points: 4
#     Node 30, Type 0, BuildingBlock: GALJAG_clean_sbu_0, # of connection points: 4
#     Node 31, Type 0, BuildingBlock: GALJAG_clean_sbu_0, # of connection points: 4
#     Node 32, Type 0, BuildingBlock: GALJAG_clean_sbu_0, # of connection points: 4
#     Node 33, Type 0, BuildingBlock: GALJAG_clean_sbu_0, # of connection points: 4
#     Node 34, Type 0, BuildingBlock: GALJAG_clean_sbu_0, # of connection points: 4
#     Node 35, Type 0, BuildingBlock: GALJAG_clean_sbu_0, # of connection points: 4
#     Edge 36, Type (0, 0), BuildingBlock: UVAHIK_clean_linker_0, # of connection points: 2
#     Edge 37, Type (0, 0), BuildingBlock: UVAHIK_clean_linker_0, # of connection points: 2
#     Edge 38, Type (0, 0), BuildingBlock: UVAHIK_clean_linker_0, # of connection points: 2
#     Edge 39, Type (0, 0), BuildingBlock: UVAHIK_clean_linker_0, # of connection points: 2
#     Edge 40, Type (0, 0), BuildingBlock: UVAHIK_clean_linker_0, # of connection points: 2
#     Edge 41, Type (0, 0), BuildingBlock: UVAHIK_clean_linker_0, # of connection points: 2
#     Edge 42, Type (0, 0), BuildingBlock: UVAHIK_clean_linker_0, # of connection points: 2
#     Edge 43, Type (0, 0), BuildingBlock: UVAHIK_clean_linker_0, # of connection points: 2
#     Edge 44, Type (0, 0), BuildingBlock: UVAHIK_clean_linker_0, # of connection points: 2
#     Edge 45, Type (0, 0), BuildingBlock: UVAHIK_clean_linker_0, # of connection points: 2
#     Edge 46, Type (0, 0), BuildingBlock: UVAHIK_clean_linker_0, # of connection points: 2
#     Edge 47, Type (0, 0), BuildingBlock: UVAHIK_clean_linker_0, # of connection points: 2
#     Edge 48, Type (0, 0), BuildingBlock: UVAHIK_clean_linker_0, # of connection points: 2
#     Edge 49, Type (0, 0), BuildingBlock: UVAHIK_clean_linker_0, # of connection points: 2
#     Edge 50, Type (0, 0), BuildingBlock: UVAHIK_clean_linker_0, # of connection points: 2
#     Edge 51, Type (0, 0), BuildingBlock: UVAHIK_clean_linker_0, # of connection points: 2
#     Edge 52, Type (0, 0), BuildingBlock: UVAHIK_clean_linker_0, # of connection points: 2
#     Edge 53, Type (0, 0), BuildingBlock: UVAHIK_clean_linker_0, # of connection points: 2
#     Edge 54, Type (0, 0), BuildingBlock: UVAHIK_clean_linker_0, # of connection points: 2
#     Edge 55, Type (0, 0), BuildingBlock: UVAHIK_clean_linker_0, # of connection points: 2
#     Edge 56, Type (0, 0), BuildingBlock: UVAHIK_clean_linker_0, # of connection points: 2
#     Edge 57, Type (0, 0), BuildingBlock: UVAHIK_clean_linker_0, # of connection points: 2
#     Edge 58, Type (0, 0), BuildingBlock: UVAHIK_clean_linker_0, # of connection points: 2
#     Edge 59, Type (0, 0), BuildingBlock: UVAHIK_clean_linker_0, # of connection points: 2
#     Edge 60, Type (0, 0), BuildingBlock: UVAHIK_clean_linker_0, # of connection points: 2
#     Edge 61, Type (0, 0), BuildingBlock: UVAHIK_clean_linker_0, # of connection points: 2
#     Edge 62, Type (0, 0), BuildingBlock: UVAHIK_clean_linker_0, # of connection points: 2
#     Edge 63, Type (0, 0), BuildingBlock: UVAHIK_clean_linker_0, # of connection points: 2
#     Edge 64, Type (0, 0), BuildingBlock: UVAHIK_clean_linker_0, # of connection points: 2
#     Edge 65, Type (0, 0), BuildingBlock: UVAHIK_clean_linker_0, # of connection points: 2
#     Edge 66, Type (0, 0), BuildingBlock: UVAHIK_clean_linker_0, # of connection points: 2
#     Edge 67, Type (0, 0), BuildingBlock: UVAHIK_clean_linker_0, # of connection points: 2
#     Edge 68, Type (0, 0), BuildingBlock: UVAHIK_clean_linker_0, # of connection points: 2
#     Edge 69, Type (0, 0), BuildingBlock: UVAHIK_clean_linker_0, # of connection points: 2
#     Edge 70, Type (0, 0), BuildingBlock: UVAHIK_clean_linker_0, # of connection points: 2
#     Edge 71, Type (0, 0), BuildingBlock: UVAHIK_clean_linker_0, # of connection points: 2
#     Edge 72, Type (0, 0), BuildingBlock: UVAHIK_clean_linker_0, # of connection points: 2
#     Edge 73, Type (0, 0), BuildingBlock: UVAHIK_clean_linker_0, # of connection points: 2
#     Edge 74, Type (0, 0), BuildingBlock: UVAHIK_clean_linker_0, # of connection points: 2
#     Edge 75, Type (0, 0), BuildingBlock: UVAHIK_clean_linker_0, # of connection points: 2
#     Edge 76, Type (0, 0), BuildingBlock: UVAHIK_clean_linker_0, # of connection points: 2
#     Edge 77, Type (0, 0), BuildingBlock: UVAHIK_clean_linker_0, # of connection points: 2
#     Edge 78, Type (0, 0), BuildingBlock: UVAHIK_clean_linker_0, # of connection points: 2
#     Edge 79, Type (0, 0), BuildingBlock: UVAHIK_clean_linker_0, # of connection points: 2
#     Edge 80, Type (0, 0), BuildingBlock: UVAHIK_clean_linker_0, # of connection points: 2
#     Edge 81, Type (0, 0), BuildingBlock: UVAHIK_clean_linker_0, # of connection points: 2
#     Edge 82, Type (0, 0), BuildingBlock: UVAHIK_clean_linker_0, # of connection points: 2
#     Edge 83, Type (0, 0), BuildingBlock: UVAHIK_clean_linker_0, # of connection points: 2
#     Edge 84, Type (0, 0), BuildingBlock: UVAHIK_clean_linker_0, # of connection points: 2
#     Edge 85, Type (0, 0), BuildingBlock: UVAHIK_clean_linker_0, # of connection points: 2
#     Edge 86, Type (0, 0), BuildingBlock: UVAHIK_clean_linker_0, # of connection points: 2
#     Edge 87, Type (0, 0), BuildingBlock: UVAHIK_clean_linker_0, # of connection points: 2
#     Edge 88, Type (0, 0), BuildingBlock: UVAHIK_clean_linker_0, # of connection points: 2
#     Edge 89, Type (0, 0), BuildingBlock: UVAHIK_clean_linker_0, # of connection points: 2
#     Edge 90, Type (0, 0), BuildingBlock: UVAHIK_clean_linker_0, # of connection points: 2
#     Edge 91, Type (0, 0), BuildingBlock: UVAHIK_clean_linker_0, # of connection points: 2
#     Edge 92, Type (0, 0), BuildingBlock: UVAHIK_clean_linker_0, # of connection points: 2
#     Edge 93, Type (0, 0), BuildingBlock: UVAHIK_clean_linker_0, # of connection points: 2
#     Edge 94, Type (0, 0), BuildingBlock: UVAHIK_clean_linker_0, # of connection points: 2
#     Edge 95, Type (0, 0), BuildingBlock: UVAHIK_clean_linker_0, # of connection points: 2
#     Edge 96, Type (0, 0), BuildingBlock: UVAHIK_clean_linker_0, # of connection points: 2
#     Edge 97, Type (0, 0), BuildingBlock: UVAHIK_clean_linker_0, # of connection points: 2
#     Edge 98, Type (0, 0), BuildingBlock: UVAHIK_clean_linker_0, # of connection points: 2
#     Edge 99, Type (0, 0), BuildingBlock: UVAHIK_clean_linker_0, # of connection points: 2
#     Edge 100, Type (0, 0), BuildingBlock: UVAHIK_clean_linker_0, # of connection points: 2
#     Edge 101, Type (0, 0), BuildingBlock: UVAHIK_clean_linker_0, # of connection points: 2
#     Edge 102, Type (0, 0), BuildingBlock: UVAHIK_clean_linker_0, # of connection points: 2
#     Edge 103, Type (0, 0), BuildingBlock: UVAHIK_clean_linker_0, # of connection points: 2
#     Edge 104, Type (0, 0), BuildingBlock: UVAHIK_clean_linker_0, # of connection points: 2
#     Edge 105, Type (0, 0), BuildingBlock: UVAHIK_clean_linker_0, # of connection points: 2
#     Edge 106, Type (0, 0), BuildingBlock: UVAHIK_clean_linker_0, # of connection points: 2
#     Edge 107, Type (0, 0), BuildingBlock: UVAHIK_clean_linker_0, # of connection points: 2
# Relax obj value: 0.060
# Max RMSD: 0.091
# Mean RMSD: 0.091
data_MOF--net-ukn--node1-GALJAG_clean_sbu_0--edge1-UVAHIK_clean_linker_0
_symmetry_space_group_name_H-M    P1
_symmetry_Int_Tables_number       1
_symmetry_cell_setting            triclinic
loop_
_symmetry_equiv_pos_as_xyz
'x, y, z'
_cell_length_a     133.87424
_cell_length_b     133.78131
_cell_length_c     35.984037
_cell_angle_alpha  89.992004
_cell_angle_beta   90.008282
_cell_angle_gamma 119.99875
loop_
_atom_site_label
_atom_site_type_symbol
_atom_site_fract_x
_atom_site_fract_y
_atom_site_fract_z
_atom_type_partial_charge
In0 In 0.07346 0.2967 0.0856 0.0
O1 O 0.08022 0.2843 0.09626 0.0
O2 O 0.09187 0.3023 0.10192 0.0
C3 C 0.05179 0.28143 0.06533 0.0
C4 C 0.07104 0.30554 0.15011 0.0
C5 C 0.0803 0.30722 0.01898 0.0
O6 O 0.05866 0.27827 0.07721 0.0
O7 O 0.05575 0.2922 0.06505 0.0
O8 O 0.07869 0.31206 0.04664 0.0
O9 O 0.07876 0.29728 0.02531 0.0
C10 C 0.09033 0.29222 0.10372 0.0
O11 O 0.07666 0.3118 0.12294 0.0
O12 O 0.06649 0.29483 0.14446 0.0
In13 In 0.69727 0.77595 0.08755 0.0
O14 O 0.70807 0.7956 0.09337 0.0
O15 O 0.68979 0.78773 0.092 0.0
C16 C 0.71353 0.76996 0.08104 0.0
C17 C 0.68883 0.76707 0.15496 0.0
C18 C 0.68761 0.76978 0.01958 0.0
O19 O 0.71595 0.78038 0.07998 0.0
O20 O 0.70298 0.76269 0.08562 0.0
O21 O 0.68183 0.76563 0.04898 0.0
O22 O 0.69816 0.77688 0.02464 0.0
C23 C 0.69937 0.79692 0.09438 0.0
O24 O 0.68294 0.76308 0.12564 0.0
O25 O 0.6989 0.77543 0.15005 0.0
In26 In 0.21756 0.91988 0.08451 0.0
O27 O 0.23028 0.91699 0.11861 0.0
O28 O 0.22064 0.92348 0.14627 0.0
C29 C 0.22272 0.91624 0.01509 0.0
C30 C 0.197 0.90118 0.09871 0.0
C31 C 0.22202 0.94168 0.07598 0.0
O32 O 0.2296 0.91851 0.04197 0.0
O33 O 0.21335 0.91574 0.02342 0.0
O34 O 0.21188 0.93318 0.07473 0.0
O35 O 0.22977 0.93914 0.08188 0.0
C36 C 0.22806 0.92032 0.14876 0.0
O37 O 0.19841 0.91124 0.09841 0.0
O38 O 0.20595 0.90061 0.09197 0.0
In39 In 0.29753 0.07309 0.90949 0.0
O40 O 0.31282 0.0761 0.87342 0.0
O41 O 0.29627 0.06831 0.84818 0.0
C42 C 0.30721 0.07776 0.9777 0.0
C43 C 0.29486 0.09148 0.89803 0.0
C44 C 0.28079 0.05149 0.925 0.0
O45 O 0.31166 0.07543 0.95048 0.0
O46 O 0.29809 0.07791 0.97021 0.0
O47 O 0.27857 0.05924 0.91542 0.0
O48 O 0.29136 0.05455 0.92513 0.0
C49 C 0.30691 0.072 0.84427 0.0
O50 O 0.28639 0.08132 0.89957 0.0
O51 O 0.30461 0.09227 0.90169 0.0
In52 In 0.91744 0.21999 0.91608 0.0
O53 O 0.91394 0.23241 0.88253 0.0
O54 O 0.92131 0.22361 0.85461 0.0
C55 C 0.91329 0.22464 0.98556 0.0
C56 C 0.89929 0.19918 0.90024 0.0
C57 C 0.9394 0.22501 0.92484 0.0
O58 O 0.91587 0.23175 0.95922 0.0
O59 O 0.91272 0.21527 0.97667 0.0
O60 O 0.93109 0.21476 0.92548 0.0
O61 O 0.9366 0.2326 0.91953 0.0
C62 C 0.91765 0.23065 0.85239 0.0
O63 O 0.90946 0.20089 0.90189 0.0
O64 O 0.89835 0.20795 0.90654 0.0
In65 In 0.77459 0.69686 0.91681 0.0
O66 O 0.7935 0.70945 0.90352 0.0
O67 O 0.78738 0.69148 0.89799 0.0
C68 C 0.76798 0.71179 0.93914 0.0
C69 C 0.76268 0.68808 0.85328 0.0
C70 C 0.77222 0.68671 0.98354 0.0
O71 O 0.77797 0.71512 0.92658 0.0
O72 O 0.76129 0.701 0.9391 0.0
O73 O 0.76562 0.68146 0.95653 0.0
O74 O 0.78011 0.69685 0.97641 0.0
C75 C 0.79577 0.70163 0.89524 0.0
O76 O 0.7621 0.68177 0.88025 0.0
O77 O 0.76906 0.69876 0.85873 0.0
In78 In 0.91633 0.69681 0.91908 0.0
O79 O 0.91375 0.68176 0.88237 0.0
O80 O 0.92384 0.69877 0.86107 0.0
C81 C 0.90853 0.68649 0.98555 0.0
C82 C 0.89993 0.70159 0.89747 0.0
C83 C 0.93783 0.71174 0.94173 0.0
O84 O 0.90996 0.68134 0.95842 0.0
O85 O 0.9107 0.69662 0.97868 0.0
O86 O 0.9312 0.71508 0.92897 0.0
O87 O 0.93373 0.70095 0.94171 0.0
C88 C 0.91951 0.68809 0.85549 0.0
O89 O 0.90999 0.70941 0.90597 0.0
O90 O 0.89819 0.69144 0.90008 0.0
In91 In 0.2958 0.21875 0.91109 0.0
O92 O 0.28455 0.19913 0.9045 0.0
O93 O 0.30278 0.20655 0.90655 0.0
C94 C 0.28052 0.22567 0.92469 0.0
C95 C 0.30375 0.22762 0.84325 0.0
C96 C 0.30631 0.22503 0.9777 0.0
O97 O 0.27746 0.21509 0.92181 0.0
O98 O 0.29111 0.23257 0.91935 0.0
O99 O 0.31157 0.22958 0.94777 0.0
O100 O 0.29591 0.21728 0.97377 0.0
C101 C 0.29307 0.19752 0.90381 0.0
O102 O 0.31014 0.23072 0.87167 0.0
O103 O 0.29335 0.22012 0.84917 0.0
In104 In 0.77278 0.07375 0.91129 0.0
O105 O 0.75953 0.07461 0.87297 0.0
O106 O 0.77122 0.06998 0.84942 0.0
C107 C 0.76736 0.07848 0.97881 0.0
C108 C 0.79358 0.09246 0.89989 0.0
C109 C 0.76797 0.05211 0.92592 0.0
O110 O 0.76158 0.07771 0.95005 0.0
O111 O 0.77589 0.0771 0.97318 0.0
O112 O 0.77804 0.06006 0.91821 0.0
O113 O 0.76035 0.05503 0.92496 0.0
C114 C 0.76304 0.07193 0.84409 0.0
O115 O 0.79223 0.08248 0.90363 0.0
O116 O 0.78445 0.09298 0.90213 0.0
In117 In 0.69501 0.92127 0.08379 0.0
O118 O 0.67965 0.91835 0.11954 0.0
O119 O 0.69602 0.92505 0.14559 0.0
C120 C 0.68452 0.91729 0.01669 0.0
C121 C 0.69731 0.90286 0.0982 0.0
C122 C 0.71351 0.94224 0.07195 0.0
O123 O 0.68321 0.92325 0.04134 0.0
O124 O 0.69091 0.91333 0.02613 0.0
O125 O 0.71375 0.93307 0.0662 0.0
O126 O 0.70402 0.9408 0.08379 0.0
C127 C 0.68546 0.9218 0.14918 0.0
O128 O 0.70591 0.91291 0.09532 0.0
O129 O 0.68762 0.90219 0.09431 0.0
In130 In 0.07257 0.77309 0.08246 0.0
O131 O 0.08112 0.79253 0.09074 0.0
O132 O 0.09192 0.78518 0.08488 0.0
C133 C 0.05049 0.76799 0.07892 0.0
C134 C 0.0727 0.76388 0.14897 0.0
C135 C 0.07555 0.76683 0.01373 0.0
O136 O 0.05877 0.77818 0.07539 0.0
O137 O 0.05338 0.76047 0.08449 0.0
O138 O 0.07764 0.7629 0.04281 0.0
O139 O 0.07202 0.77384 0.01948 0.0
C140 C 0.09125 0.79416 0.08991 0.0
O141 O 0.07256 0.759 0.11875 0.0
O142 O 0.07275 0.77329 0.1454 0.0
In143 In 0.2173 0.29795 0.08337 0.0
O144 O 0.22886 0.31381 0.11834 0.0
O145 O 0.22094 0.29741 0.14486 0.0
C146 C 0.22185 0.30738 0.01474 0.0
C147 C 0.19567 0.29327 0.09797 0.0
C148 C 0.2247 0.28284 0.07325 0.0
O149 O 0.22741 0.31292 0.04309 0.0
O150 O 0.2139 0.29721 0.02117 0.0
O151 O 0.21412 0.27965 0.07618 0.0
O152 O 0.23146 0.29357 0.07611 0.0
C153 C 0.22738 0.30819 0.14799 0.0
O154 O 0.19818 0.28541 0.09426 0.0
O155 O 0.204 0.30338 0.09385 0.0
In156 In 0.74032 0.63226 0.42427 0.0
O157 O 0.74131 0.64688 0.45981 0.0
O158 O 0.73615 0.63075 0.48589 0.0
C159 C 0.74646 0.64179 0.35613 0.0
C160 C 0.75821 0.62896 0.43773 0.0
C161 C 0.71836 0.61696 0.40762 0.0
O162 O 0.74727 0.64773 0.38451 0.0
O163 O 0.7427 0.63123 0.3624 0.0
O164 O 0.7255 0.61382 0.41675 0.0
O165 O 0.72223 0.62771 0.40853 0.0
C166 C 0.73828 0.64101 0.48941 0.0
O167 O 0.74805 0.62061 0.43428 0.0
O168 O 0.75922 0.63882 0.43485 0.0
In169 In 0.36447 0.10681 0.41516 0.0
O170 O 0.3741 0.12594 0.43013 0.0
O171 O 0.35584 0.11747 0.4244 0.0
C172 C 0.38328 0.10514 0.40047 0.0
C173 C 0.35584 0.09627 0.48067 0.0
C174 C 0.35424 0.10056 0.3478 0.0
O175 O 0.38321 0.11449 0.39709 0.0
O176 O 0.37393 0.09672 0.41177 0.0
O177 O 0.35152 0.09338 0.37403 0.0
O178 O 0.36192 0.11069 0.35585 0.0
C179 C 0.3651 0.12673 0.43102 0.0
O180 O 0.3497 0.09383 0.45175 0.0
O181 O 0.3663 0.10383 0.47621 0.0
In182 In 0.88485 0.25352 0.4219 0.0
O183 O 0.86533 0.24485 0.42953 0.0
O184 O 0.87326 0.23449 0.43302 0.0
C185 C 0.88994 0.27481 0.40088 0.0
C186 C 0.89475 0.25597 0.48905 0.0
C187 C 0.88993 0.24746 0.35628 0.0
O188 O 0.87991 0.26737 0.41127 0.0
O189 O 0.89733 0.27161 0.40265 0.0
O190 O 0.89676 0.25049 0.38364 0.0
O191 O 0.88062 0.24737 0.36239 0.0
C192 C 0.86406 0.2349 0.43393 0.0
O193 O 0.89712 0.25167 0.46157 0.0
O194 O 0.88755 0.25921 0.48243 0.0
In195 In 0.96138 0.40765 0.25253 0.0
O196 O 0.97469 0.40648 0.21532 0.0
O197 O 0.96233 0.40988 0.19002 0.0
C198 C 0.97103 0.41056 0.32056 0.0
C199 C 0.95904 0.42641 0.24797 0.0
C200 C 0.94394 0.38572 0.25489 0.0
O201 O 0.97699 0.41352 0.29118 0.0
O202 O 0.96033 0.40608 0.31544 0.0
O203 O 0.94238 0.39418 0.25967 0.0
O204 O 0.95424 0.38836 0.24838 0.0
C205 C 0.9709 0.40848 0.18574 0.0
O206 O 0.95052 0.41631 0.24549 0.0
O207 O 0.96863 0.42698 0.25322 0.0
In208 In 0.58568 0.55342 0.24368 0.0
O209 O 0.57733 0.53391 0.23532 0.0
O210 O 0.56644 0.54102 0.24407 0.0
C211 C 0.60798 0.55943 0.24899 0.0
C212 C 0.58496 0.56241 0.17745 0.0
C213 C 0.58303 0.56002 0.3121 0.0
O214 O 0.59997 0.54905 0.25091 0.0
O215 O 0.60469 0.56668 0.2437 0.0
O216 O 0.58124 0.56413 0.28289 0.0
O217 O 0.58611 0.55265 0.30666 0.0
C218 C 0.56717 0.53211 0.23848 0.0
O219 O 0.58309 0.56599 0.20768 0.0
O220 O 0.58724 0.55437 0.18075 0.0
In221 In 0.43969 0.03095 0.25206 0.0
O222 O 0.45899 0.04006 0.2397 0.0
O223 O 0.45054 0.02222 0.25306 0.0
C224 C 0.43734 0.04969 0.25771 0.0
C225 C 0.42965 0.02142 0.18661 0.0
C226 C 0.43235 0.0223 0.32091 0.0
O227 O 0.44692 0.05013 0.26184 0.0
O228 O 0.42898 0.0398 0.25016 0.0
O229 O 0.42735 0.01669 0.29194 0.0
O230 O 0.44093 0.03214 0.315 0.0
C231 C 0.45983 0.03117 0.2445 0.0
O232 O 0.42619 0.01605 0.21703 0.0
O233 O 0.43801 0.03158 0.1894 0.0
In234 In 0.58662 0.03032 0.246 0.0
O235 O 0.57658 0.03971 0.23542 0.0
O236 O 0.56707 0.02166 0.2453 0.0
C237 C 0.60753 0.04873 0.25839 0.0
C238 C 0.58875 0.02287 0.17845 0.0
C239 C 0.58405 0.01982 0.31226 0.0
O240 O 0.59833 0.04907 0.26221 0.0
O241 O 0.60618 0.03915 0.24746 0.0
O242 O 0.58247 0.01448 0.2819 0.0
O243 O 0.5869 0.03028 0.30894 0.0
C244 C 0.56681 0.03076 0.23862 0.0
O245 O 0.58706 0.01693 0.20751 0.0
O246 O 0.58948 0.03254 0.18365 0.0
In247 In 0.96391 0.55503 0.24293 0.0
O248 O 0.97881 0.56712 0.20491 0.0
O249 O 0.9621 0.55712 0.18123 0.0
C250 C 0.97328 0.56029 0.31158 0.0
C251 C 0.96111 0.53391 0.23202 0.0
C252 C 0.94773 0.56096 0.25344 0.0
O253 O 0.97858 0.56626 0.28344 0.0
O254 O 0.96347 0.55177 0.30477 0.0
O255 O 0.94527 0.55055 0.25195 0.0
O256 O 0.95827 0.56828 0.24907 0.0
C257 C 0.97259 0.56443 0.17608 0.0
O258 O 0.95268 0.53565 0.23347 0.0
O259 O 0.97088 0.54282 0.23587 0.0
In260 In 0.43929 0.40696 0.24365 0.0
O261 O 0.42567 0.40801 0.2083 0.0
O262 O 0.43686 0.40327 0.18164 0.0
C263 C 0.43508 0.41223 0.31199 0.0
C264 C 0.4604 0.4253 0.2328 0.0
C265 C 0.43325 0.38503 0.25879 0.0
O266 O 0.4301 0.41314 0.28339 0.0
O267 O 0.44214 0.40879 0.30588 0.0
O268 O 0.44347 0.39248 0.25019 0.0
O269 O 0.42611 0.38858 0.25808 0.0
C270 C 0.42864 0.40527 0.17842 0.0
O271 O 0.45869 0.41513 0.23369 0.0
O272 O 0.45147 0.4261 0.23674 0.0
In273 In 0.3626 0.25243 0.41519 0.0
O274 O 0.3728 0.2432 0.42597 0.0
O275 O 0.35472 0.23302 0.41724 0.0
C276 C 0.3797 0.27441 0.41016 0.0
C277 C 0.35269 0.25249 0.48017 0.0
C278 C 0.354 0.25005 0.34592 0.0
O279 O 0.38155 0.26605 0.40818 0.0
O280 O 0.3693 0.27164 0.41524 0.0
O281 O 0.34806 0.24895 0.37451 0.0
O282 O 0.36416 0.25229 0.35239 0.0
C283 C 0.36406 0.23323 0.42382 0.0
O284 O 0.34741 0.25049 0.44956 0.0
O285 O 0.36295 0.25453 0.47783 0.0
In286 In 0.73814 0.10683 0.41475 0.0
O287 O 0.7473 0.12639 0.42123 0.0
O288 O 0.75749 0.11865 0.40952 0.0
C289 C 0.71704 0.10451 0.41043 0.0
C290 C 0.73858 0.09832 0.4824 0.0
C291 C 0.74004 0.09834 0.34843 0.0
O292 O 0.72611 0.1138 0.4025 0.0
O293 O 0.71863 0.09646 0.42156 0.0
O294 O 0.74413 0.09672 0.37795 0.0
O295 O 0.73492 0.10399 0.35267 0.0
C296 C 0.75723 0.12779 0.41573 0.0
O297 O 0.73563 0.0921 0.45356 0.0
O298 O 0.7411 0.10862 0.47698 0.0
In299 In 0.88596 0.63208 0.42641 0.0
O300 O 0.8995 0.64676 0.46198 0.0
O301 O 0.8884 0.6307 0.48826 0.0
C302 C 0.88962 0.64152 0.35804 0.0
C303 C 0.86475 0.62881 0.43889 0.0
C304 C 0.89281 0.61682 0.41134 0.0
O305 O 0.89455 0.64751 0.38652 0.0
O306 O 0.88288 0.63095 0.36431 0.0
O307 O 0.88245 0.61365 0.41935 0.0
O308 O 0.89965 0.62758 0.41245 0.0
C309 C 0.89655 0.64095 0.49171 0.0
O310 O 0.86657 0.62045 0.43581 0.0
O311 O 0.87361 0.63866 0.4361 0.0
In312 In 0.4073 0.9638 0.75512 0.0
O313 O 0.40944 0.97832 0.79356 0.0
O314 O 0.40489 0.96205 0.81768 0.0
C315 C 0.40975 0.97412 0.68849 0.0
C316 C 0.42603 0.96137 0.76186 0.0
C317 C 0.38526 0.94694 0.74804 0.0
O318 O 0.41125 0.97947 0.71876 0.0
O319 O 0.40711 0.96372 0.69199 0.0
O320 O 0.3936 0.94537 0.74058 0.0
O321 O 0.38808 0.95693 0.75942 0.0
C322 C 0.40714 0.97231 0.82276 0.0
O323 O 0.41591 0.95287 0.76315 0.0
O324 O 0.42665 0.97099 0.75691 0.0
In325 In 0.0287 0.44296 0.75682 0.0
O326 O 0.04064 0.46222 0.7664 0.0
O327 O 0.0225 0.45556 0.76922 0.0
C328 C 0.04372 0.43615 0.73744 0.0
C329 C 0.02111 0.43312 0.82396 0.0
C330 C 0.01803 0.43879 0.69038 0.0
O331 O 0.04695 0.44656 0.74484 0.0
O332 O 0.03307 0.42923 0.74138 0.0
O333 O 0.01289 0.43309 0.71912 0.0
O334 O 0.0283 0.44667 0.69562 0.0
C335 C 0.03249 0.46425 0.77172 0.0
O336 O 0.01462 0.43006 0.79575 0.0
O337 O 0.03138 0.44091 0.81796 0.0
In338 In 0.55125 0.58709 0.74678 0.0
O339 O 0.56315 0.5841 0.78481 0.0
O340 O 0.55299 0.59057 0.80884 0.0
C341 C 0.55752 0.58327 0.67935 0.0
C342 C 0.52991 0.56901 0.75704 0.0
C343 C 0.55764 0.60942 0.73828 0.0
O344 O 0.56228 0.5827 0.70896 0.0
O345 O 0.54959 0.58562 0.68391 0.0
O346 O 0.5472 0.60153 0.73702 0.0
O347 O 0.56475 0.60601 0.74413 0.0
C348 C 0.56029 0.58737 0.81383 0.0
O349 O 0.5318 0.57922 0.75461 0.0
O350 O 0.53872 0.56798 0.7538 0.0
In351 In 0.63067 0.74519 0.58287 0.0
O352 O 0.64611 0.74831 0.54763 0.0
O353 O 0.6295 0.73942 0.52268 0.0
C354 C 0.6407 0.75185 0.65024 0.0
C355 C 0.62583 0.76186 0.56518 0.0
C356 C 0.61582 0.72314 0.60057 0.0
O357 O 0.64605 0.75124 0.62221 0.0
O358 O 0.63046 0.74941 0.64396 0.0
O359 O 0.61243 0.72997 0.59019 0.0
O360 O 0.62662 0.72735 0.60065 0.0
C361 C 0.64022 0.74354 0.51892 0.0
O362 O 0.61804 0.75164 0.57211 0.0
O363 O 0.63598 0.76362 0.56741 0.0
In364 In 0.25129 0.88698 0.57901 0.0
O365 O 0.24868 0.89901 0.54037 0.0
O366 O 0.25615 0.8895 0.518 0.0
C367 C 0.24604 0.8927 0.64518 0.0
C368 C 0.23312 0.86615 0.56377 0.0
C369 C 0.2729 0.89198 0.59509 0.0
O370 O 0.24931 0.89953 0.61781 0.0
O371 O 0.24533 0.88311 0.63885 0.0
O372 O 0.26444 0.88185 0.59773 0.0
O373 O 0.27045 0.89941 0.58378 0.0
C374 C 0.25275 0.89663 0.51221 0.0
O375 O 0.24323 0.86775 0.5665 0.0
O376 O 0.23227 0.87504 0.56853 0.0
In377 In 0.10407 0.36296 0.58027 0.0
O378 O 0.09058 0.34843 0.54404 0.0
O379 O 0.1038 0.36336 0.5172 0.0
C380 C 0.09785 0.3534 0.64848 0.0
C381 C 0.12553 0.36614 0.57634 0.0
C382 C 0.09823 0.37939 0.58528 0.0
O383 O 0.0948 0.34739 0.61921 0.0
O384 O 0.10385 0.36413 0.64319 0.0
O385 O 0.1086 0.38171 0.58621 0.0
O386 O 0.09088 0.36882 0.58134 0.0
C387 C 0.09491 0.35356 0.51379 0.0
O388 O 0.12359 0.37443 0.57405 0.0
O389 O 0.11667 0.35635 0.58011 0.0
In390 In 0.25216 0.36605 0.58049 0.0
O391 O 0.24358 0.37712 0.57656 0.0
O392 O 0.23289 0.35894 0.58185 0.0
C393 C 0.27442 0.38242 0.58572 0.0
C394 C 0.2516 0.35766 0.51203 0.0
C395 C 0.24947 0.35579 0.64717 0.0
O396 O 0.26637 0.38468 0.58926 0.0
O397 O 0.2712 0.37197 0.57919 0.0
O398 O 0.24718 0.35021 0.61706 0.0
O399 O 0.25317 0.36644 0.64344 0.0
C400 C 0.23348 0.3686 0.57897 0.0
O401 O 0.25034 0.35184 0.54109 0.0
O402 O 0.25314 0.36764 0.51765 0.0
In403 In 0.62863 0.88737 0.57937 0.0
O404 O 0.6164 0.86805 0.57147 0.0
O405 O 0.63427 0.87472 0.56127 0.0
C406 C 0.60981 0.88864 0.59734 0.0
C407 C 0.63753 0.89809 0.51412 0.0
C408 C 0.64125 0.89536 0.64249 0.0
O409 O 0.61157 0.88087 0.61015 0.0
O410 O 0.61748 0.89563 0.5754 0.0
O411 O 0.63839 0.90142 0.6233 0.0
O412 O 0.6381 0.88553 0.62918 0.0
C413 C 0.62427 0.86601 0.56186 0.0
O414 O 0.64369 0.9001 0.54282 0.0
O415 O 0.62699 0.89089 0.51871 0.0
In416 In 0.10678 0.73961 0.57808 0.0
O417 O 0.12623 0.74883 0.56981 0.0
O418 O 0.11831 0.75912 0.57561 0.0
C419 C 0.10365 0.71822 0.58503 0.0
C420 C 0.09748 0.73865 0.51078 0.0
C421 C 0.09953 0.74262 0.64517 0.0
O422 O 0.11332 0.72717 0.58987 0.0
O423 O 0.09559 0.72007 0.57621 0.0
O424 O 0.09598 0.74463 0.61513 0.0
O425 O 0.10662 0.73912 0.64117 0.0
C426 C 0.12749 0.75882 0.57065 0.0
O427 O 0.09217 0.73793 0.54059 0.0
O428 O 0.10732 0.73973 0.51515 0.0
In429 In 0.03081 0.58776 0.74865 0.0
O430 O 0.0424 0.58048 0.76473 0.0
O431 O 0.02424 0.56913 0.76475 0.0
C432 C 0.0495 0.60798 0.73015 0.0
C433 C 0.02103 0.58948 0.812 0.0
C434 C 0.01924 0.58256 0.68335 0.0
O435 O 0.04831 0.59838 0.72062 0.0
O436 O 0.04135 0.60737 0.74943 0.0
O437 O 0.0193 0.58988 0.70559 0.0
O438 O 0.02472 0.57775 0.69455 0.0
C439 C 0.03411 0.57039 0.77013 0.0
O440 O 0.01529 0.58532 0.78253 0.0
O441 O 0.03167 0.59296 0.80913 0.0
In442 In 0.408 0.44112 0.7506 0.0
O443 O 0.4104 0.4286 0.78762 0.0
O444 O 0.40141 0.43657 0.80995 0.0
C445 C 0.41476 0.43769 0.68355 0.0
C446 C 0.42521 0.4624 0.76775 0.0
C447 C 0.38638 0.43488 0.73035 0.0
O448 O 0.41378 0.43149 0.71135 0.0
O449 O 0.41259 0.44568 0.68997 0.0
O450 O 0.39333 0.4449 0.74215 0.0
O451 O 0.39023 0.42798 0.73022 0.0
C452 C 0.40529 0.42982 0.81523 0.0
O453 O 0.41507 0.46031 0.76164 0.0
O454 O 0.42661 0.45377 0.76539 0.0
In455 In 0.55385 0.96444 0.7515 0.0
O456 O 0.56679 0.98006 0.78528 0.0
O457 O 0.55815 0.96381 0.81242 0.0
C458 C 0.55846 0.97335 0.68224 0.0
C459 C 0.53287 0.96194 0.76392 0.0
C460 C 0.55863 0.94747 0.73965 0.0
O461 O 0.5646 0.97879 0.7099 0.0
O462 O 0.54996 0.96358 0.68971 0.0
O463 O 0.54907 0.94551 0.75279 0.0
O464 O 0.56582 0.95797 0.73381 0.0
C465 C 0.56527 0.97446 0.81496 0.0
O466 O 0.53439 0.95342 0.76021 0.0
O467 O 0.54191 0.97166 0.76149 0.0
C468 C 0.11063 0.29919 0.12277 0.0
C469 C 0.09978 0.28999 0.1127 0.0
C470 C 0.11984 0.29733 0.1291 0.0
C471 C 0.13052 0.27816 0.1017 0.0
H472 H 0.154 0.2958 0.1753 0.0
C473 C 0.17448 0.27962 0.10572 0.0
C474 C 0.18393 0.29092 0.10661 0.0
C475 C 0.16335 0.27758 0.11283 0.0
C476 C 0.14749 0.29078 0.15473 0.0
H477 H 0.08991 0.27156 0.10246 0.0
H478 H 0.10611 0.2683 0.11348 0.0
H479 H 0.13564 0.2955 0.17719 0.0
H480 H 0.18923 0.30889 0.11652 0.0
H481 H 0.16987 0.30535 0.1289 0.0
H482 H 0.14256 0.27378 0.07847 0.0
C483 C 0.10747 0.27696 0.11627 0.0
C484 C 0.137 0.29062 0.15578 0.0
C485 C 0.09821 0.27882 0.11008 0.0
C486 C 0.18211 0.30009 0.11554 0.0
C487 C 0.17103 0.29805 0.12297 0.0
C488 C 0.14102 0.2783 0.10072 0.0
C489 C 0.11841 0.28623 0.12545 0.0
C490 C 0.12857 0.28465 0.12848 0.0
C491 C 0.16153 0.2868 0.1214 0.0
C492 C 0.14975 0.28495 0.12644 0.0
H493 H 0.11209 0.30789 0.12506 0.0
H494 H 0.1282 0.30469 0.13553 0.0
H495 H 0.12423 0.27355 0.08013 0.0
H496 H 0.17567 0.2724 0.09897 0.0
H497 H 0.15616 0.26883 0.11153 0.0
C498 C 0.7109 0.81852 0.09825 0.0
C499 C 0.70017 0.80828 0.09739 0.0
C500 C 0.71146 0.82923 0.09976 0.0
C501 C 0.69402 0.84267 0.07748 0.0
H502 H 0.71477 0.86724 0.14358 0.0
C503 C 0.6885 0.88159 0.10501 0.0
C504 C 0.69843 0.89253 0.10306 0.0
C505 C 0.68942 0.87167 0.10602 0.0
C506 C 0.70902 0.86048 0.12474 0.0
H507 H 0.68162 0.80118 0.09839 0.0
H508 H 0.68259 0.81978 0.10134 0.0
H509 H 0.71523 0.84917 0.1414 0.0
H510 H 0.71714 0.90174 0.10217 0.0
H511 H 0.71874 0.88431 0.10382 0.0
H512 H 0.68774 0.85386 0.06093 0.0
C513 C 0.69058 0.81958 0.10022 0.0
C514 C 0.70929 0.85017 0.12346 0.0
C515 C 0.69003 0.80892 0.09874 0.0
C516 C 0.70933 0.8934 0.10361 0.0
C517 C 0.71026 0.88344 0.10467 0.0
C518 C 0.69374 0.85292 0.07881 0.0
C519 C 0.70128 0.82985 0.10029 0.0
C520 C 0.70166 0.8411 0.10022 0.0
C521 C 0.70029 0.87248 0.10508 0.0
C522 C 0.7011 0.86186 0.10285 0.0
H523 H 0.71885 0.81825 0.09728 0.0
H524 H 0.71982 0.83703 0.09963 0.0
H525 H 0.68822 0.83594 0.05865 0.0
H526 H 0.67998 0.88066 0.10491 0.0
H527 H 0.6816 0.86334 0.10706 0.0
C528 C 0.10047 0.81546 0.10001 0.0
C529 C 0.10153 0.8056 0.09528 0.0
C530 C 0.11027 0.82627 0.10544 0.0
C531 C 0.14075 0.84006 0.13435 0.0
H532 H 0.1444 0.86605 0.07601 0.0
C533 C 0.18481 0.87988 0.10597 0.0
C534 C 0.18571 0.89079 0.10515 0.0
C535 C 0.17409 0.86994 0.11004 0.0
C536 C 0.14343 0.85894 0.09303 0.0
H537 H 0.11361 0.79929 0.09259 0.0
H538 H 0.13069 0.81813 0.10174 0.0
H539 H 0.12632 0.84771 0.07297 0.0
H540 H 0.17616 0.89991 0.10887 0.0
H541 H 0.15734 0.88246 0.11609 0.0
H542 H 0.15794 0.85119 0.15378 0.0
C543 C 0.1223 0.81751 0.10174 0.0
C544 C 0.13308 0.84844 0.09124 0.0
C545 C 0.11253 0.80673 0.09619 0.0
C546 C 0.17571 0.8916 0.1093 0.0
C547 C 0.16495 0.88163 0.11327 0.0
C548 C 0.15108 0.85055 0.13616 0.0
C549 C 0.12128 0.82739 0.10642 0.0
C550 C 0.13175 0.83883 0.11125 0.0
C551 C 0.16403 0.87069 0.11335 0.0
C552 C 0.15262 0.86002 0.11488 0.0
H553 H 0.09208 0.81482 0.09954 0.0
H554 H 0.10923 0.83373 0.10918 0.0
H555 H 0.13988 0.83285 0.15064 0.0
H556 H 0.19238 0.879 0.10282 0.0
H557 H 0.17365 0.86164 0.10945 0.0
C558 C 0.28255 0.10065 0.89311 0.0
C559 C 0.29354 0.10174 0.89478 0.0
C560 C 0.2814 0.11049 0.89314 0.0
C561 C 0.29702 0.14068 0.92341 0.0
H562 H 0.27682 0.14514 0.85665 0.0
C563 C 0.30194 0.18506 0.90159 0.0
C564 C 0.29196 0.18601 0.90119 0.0
C565 C 0.30111 0.17427 0.90081 0.0
C566 C 0.28237 0.14392 0.87579 0.0
H567 H 0.31193 0.1139 0.89636 0.0
H568 H 0.30992 0.13099 0.8962 0.0
H569 H 0.27727 0.12704 0.85456 0.0
H570 H 0.27328 0.17643 0.89883 0.0
H571 H 0.27182 0.15741 0.89749 0.0
H572 H 0.30222 0.1575 0.94448 0.0
C573 C 0.3022 0.12258 0.89544 0.0
C574 C 0.28264 0.1336 0.87456 0.0
C575 C 0.30334 0.11279 0.8953 0.0
C576 C 0.2811 0.17593 0.89922 0.0
C577 C 0.28027 0.16507 0.89832 0.0
C578 C 0.29675 0.15094 0.92466 0.0
C579 C 0.29122 0.12153 0.89504 0.0
C580 C 0.29016 0.132 0.89784 0.0
C581 C 0.29028 0.16416 0.89963 0.0
C582 C 0.28962 0.15278 0.90033 0.0
H583 H 0.27485 0.09222 0.89265 0.0
H584 H 0.27284 0.10945 0.89288 0.0
H585 H 0.30268 0.13956 0.94233 0.0
H586 H 0.31043 0.19266 0.90286 0.0
H587 H 0.30898 0.17384 0.9011 0.0
C588 C 0.81497 0.10187 0.89225 0.0
C589 C 0.80496 0.10276 0.89363 0.0
C590 C 0.82576 0.11172 0.88716 0.0
C591 C 0.83973 0.14206 0.85538 0.0
H592 H 0.86455 0.14643 0.92119 0.0
C593 C 0.87823 0.1866 0.88897 0.0
C594 C 0.8892 0.18776 0.89262 0.0
C595 C 0.86854 0.17576 0.88357 0.0
C596 C 0.85778 0.14525 0.90214 0.0
H597 H 0.79832 0.11457 0.89029 0.0
H598 H 0.81713 0.13175 0.88185 0.0
H599 H 0.84638 0.12816 0.92195 0.0
H600 H 0.89872 0.17857 0.89268 0.0
H601 H 0.8817 0.15953 0.88331 0.0
H602 H 0.85102 0.15928 0.83636 0.0
C603 C 0.81666 0.12345 0.88418 0.0
C604 C 0.84737 0.13479 0.90257 0.0
C605 C 0.8059 0.11363 0.88932 0.0
C606 C 0.89035 0.1779 0.89003 0.0
C607 C 0.88062 0.16702 0.88482 0.0
C608 C 0.85012 0.15252 0.85498 0.0
C609 C 0.82672 0.12262 0.88325 0.0
C610 C 0.83816 0.13319 0.8798 0.0
C611 C 0.86961 0.16584 0.88183 0.0
C612 C 0.85916 0.15431 0.87895 0.0
H613 H 0.81449 0.09359 0.89537 0.0
H614 H 0.83335 0.1108 0.88626 0.0
H615 H 0.83286 0.14099 0.83699 0.0
H616 H 0.87709 0.19405 0.89084 0.0
H617 H 0.86016 0.17511 0.8819 0.0
C618 C 0.81688 0.71531 0.88656 0.0
C619 C 0.80739 0.70406 0.88446 0.0
C620 C 0.828 0.71737 0.87897 0.0
C621 C 0.84404 0.70424 0.83698 0.0
H622 H 0.86651 0.72084 0.91429 0.0
C623 C 0.88 0.69497 0.87504 0.0
C624 C 0.89076 0.70403 0.88646 0.0
C625 C 0.87101 0.69703 0.86687 0.0
C626 C 0.86045 0.71641 0.89197 0.0
H627 H 0.80196 0.68624 0.87138 0.0
H628 H 0.82129 0.6898 0.85842 0.0
H629 H 0.84832 0.72085 0.9138 0.0
H630 H 0.90075 0.72243 0.89704 0.0
H631 H 0.88494 0.72604 0.88288 0.0
H632 H 0.85598 0.69938 0.81613 0.0
C633 C 0.82019 0.69706 0.86556 0.0
C634 C 0.85003 0.71642 0.89169 0.0
C635 C 0.80912 0.695 0.87332 0.0
C636 C 0.8925 0.71528 0.88845 0.0
C637 C 0.88347 0.71734 0.88044 0.0
C638 C 0.85446 0.70423 0.83727 0.0
C639 C 0.82977 0.70822 0.86889 0.0
C640 C 0.84156 0.70999 0.86497 0.0
C641 C 0.87259 0.7082 0.87003 0.0
C642 C 0.86259 0.70998 0.86554 0.0
H643 H 0.81577 0.72247 0.89495 0.0
H644 H 0.83522 0.72607 0.88153 0.0
H645 H 0.83775 0.69939 0.81564 0.0
H646 H 0.87842 0.68621 0.87317 0.0
H647 H 0.86269 0.68977 0.85949 0.0
C648 C 0.85195 0.63716 0.44604 0.0
C649 C 0.85316 0.62736 0.44322 0.0
C650 C 0.84105 0.63605 0.44695 0.0
C651 C 0.81041 0.61634 0.4652 0.0
H652 H 0.80682 0.6377 0.40129 0.0
C653 C 0.76723 0.61647 0.44202 0.0
C654 C 0.76832 0.62748 0.44248 0.0
C655 C 0.77707 0.61532 0.44326 0.0
C656 C 0.80771 0.63172 0.41944 0.0
H657 H 0.84394 0.60866 0.44061 0.0
H658 H 0.82471 0.60671 0.44217 0.0
H659 H 0.82496 0.63766 0.40137 0.0
H660 H 0.78044 0.64586 0.44627 0.0
H661 H 0.79749 0.64386 0.44863 0.0
H662 H 0.79309 0.61052 0.48346 0.0
C663 C 0.83226 0.61524 0.4437 0.0
C664 C 0.81809 0.6317 0.41948 0.0
C665 C 0.84323 0.61636 0.44271 0.0
C666 C 0.77933 0.63727 0.44554 0.0
C667 C 0.7891 0.63613 0.44669 0.0
C668 C 0.79996 0.61636 0.46515 0.0
C669 C 0.8311 0.62511 0.44502 0.0
C670 C 0.81965 0.62422 0.44298 0.0
C671 C 0.78809 0.62518 0.44478 0.0
C672 C 0.79864 0.62426 0.44288 0.0
H673 H 0.85944 0.64575 0.44681 0.0
H674 H 0.8404 0.64379 0.44874 0.0
H675 H 0.81141 0.61048 0.48355 0.0
H676 H 0.75883 0.60878 0.43973 0.0
H677 H 0.77607 0.60679 0.44174 0.0
C678 C 0.37588 0.14814 0.44032 0.0
C679 C 0.36535 0.13776 0.43675 0.0
C680 C 0.37608 0.15867 0.4422 0.0
C681 C 0.35885 0.17161 0.41328 0.0
H682 H 0.37851 0.1966 0.47985 0.0
C683 C 0.35445 0.21182 0.42711 0.0
C684 C 0.36463 0.22258 0.42821 0.0
C685 C 0.35487 0.20165 0.43015 0.0
C686 C 0.37307 0.18973 0.46084 0.0
H687 H 0.34677 0.13019 0.43407 0.0
H688 H 0.34711 0.14853 0.43765 0.0
H689 H 0.37861 0.17837 0.48255 0.0
H690 H 0.38323 0.2312 0.43397 0.0
H691 H 0.38398 0.21334 0.43881 0.0
H692 H 0.35336 0.1829 0.3913 0.0
C693 C 0.35522 0.14856 0.43837 0.0
C694 C 0.37311 0.17931 0.46244 0.0
C695 C 0.35502 0.13806 0.43652 0.0
C696 C 0.37525 0.223 0.43301 0.0
C697 C 0.37567 0.2128 0.43599 0.0
C698 C 0.35882 0.182 0.41163 0.0
C699 C 0.36575 0.15898 0.44045 0.0
C700 C 0.36592 0.17012 0.43887 0.0
C701 C 0.36548 0.20202 0.4342 0.0
C702 C 0.36585 0.19114 0.43559 0.0
H703 H 0.38398 0.14815 0.44059 0.0
H704 H 0.38433 0.16658 0.44363 0.0
H705 H 0.35341 0.16478 0.39418 0.0
H706 H 0.34613 0.21123 0.42372 0.0
H707 H 0.34685 0.19349 0.42936 0.0
C708 C 0.85192 0.21352 0.43707 0.0
C709 C 0.85267 0.22437 0.43668 0.0
C710 C 0.84121 0.20345 0.43577 0.0
C711 C 0.81034 0.19112 0.45236 0.0
H712 H 0.80756 0.1685 0.3795 0.0
C713 C 0.76714 0.14927 0.42231 0.0
C714 C 0.76778 0.1392 0.41729 0.0
C715 C 0.77721 0.16004 0.42424 0.0
C716 C 0.80822 0.17466 0.40026 0.0
H717 H 0.84282 0.23322 0.43618 0.0
H718 H 0.82398 0.21549 0.43424 0.0
H719 H 0.82568 0.1866 0.38544 0.0
H720 H 0.77939 0.13243 0.41068 0.0
H721 H 0.79691 0.15112 0.41473 0.0
H722 H 0.79291 0.17906 0.46772 0.0
C723 C 0.83172 0.21484 0.43544 0.0
C724 C 0.81859 0.18503 0.40358 0.0
C725 C 0.84248 0.22496 0.43647 0.0
C726 C 0.77864 0.14006 0.4143 0.0
C727 C 0.78867 0.15078 0.41641 0.0
C728 C 0.79995 0.18068 0.44923 0.0
C729 C 0.83103 0.20402 0.43426 0.0
C730 C 0.8198 0.19329 0.42996 0.0
C731 C 0.78809 0.16091 0.42129 0.0
C732 C 0.79883 0.17227 0.42343 0.0
H733 H 0.85962 0.21279 0.43739 0.0
H734 H 0.8409 0.1952 0.43549 0.0
H735 H 0.81108 0.19735 0.473 0.0
H736 H 0.75887 0.14885 0.42465 0.0
H737 H 0.77646 0.16768 0.42763 0.0
C738 C 0.96948 0.52104 0.22598 0.0
C739 C 0.95972 0.52234 0.22741 0.0
C740 C 0.96827 0.51009 0.2234 0.0
C741 C 0.94805 0.47976 0.24479 0.0
H742 H 0.96946 0.47476 0.18606 0.0
C743 C 0.94721 0.43597 0.2391 0.0
C744 C 0.95804 0.43682 0.24349 0.0
C745 C 0.94641 0.4459 0.23382 0.0
C746 C 0.96344 0.47605 0.20265 0.0
H747 H 0.94102 0.51326 0.22651 0.0
H748 H 0.93888 0.49404 0.2218 0.0
H749 H 0.96975 0.49309 0.1814 0.0
H750 H 0.97649 0.44866 0.24601 0.0
H751 H 0.97508 0.46594 0.23691 0.0
H752 H 0.94188 0.46275 0.26646 0.0
C753 C 0.94747 0.50151 0.22301 0.0
C754 C 0.96361 0.48652 0.2 0.0
C755 C 0.94869 0.51249 0.22554 0.0
C756 C 0.96802 0.44774 0.24266 0.0
C757 C 0.96723 0.45763 0.23715 0.0
C758 C 0.94785 0.46924 0.24734 0.0
C759 C 0.95726 0.5002 0.22218 0.0
C760 C 0.95611 0.4886 0.2217 0.0
C761 C 0.95643 0.45681 0.23252 0.0
C762 C 0.95574 0.4674 0.22695 0.0
H763 H 0.97809 0.52848 0.22743 0.0
H764 H 0.97597 0.50937 0.22342 0.0
H765 H 0.94223 0.48114 0.2621 0.0
H766 H 0.93937 0.42764 0.23958 0.0
H767 H 0.93798 0.44504 0.23021 0.0
C768 C 0.5459 0.51927 0.24073 0.0
C769 C 0.55689 0.52052 0.23661 0.0
C770 C 0.5361 0.50837 0.24021 0.0
C771 C 0.5248 0.47846 0.20977 0.0
H772 H 0.50083 0.47262 0.28138 0.0
C773 C 0.48188 0.43456 0.22681 0.0
C774 C 0.47196 0.43558 0.2299 0.0
C775 C 0.49284 0.44443 0.22706 0.0
C776 C 0.50743 0.47415 0.26113 0.0
H777 H 0.56627 0.51139 0.22808 0.0
H778 H 0.54901 0.49218 0.22733 0.0
H779 H 0.51903 0.49076 0.28367 0.0
H780 H 0.46567 0.44767 0.23438 0.0
H781 H 0.48472 0.4648 0.23481 0.0
H782 H 0.51304 0.46178 0.18715 0.0
C783 C 0.54803 0.49968 0.23079 0.0
C784 C 0.51784 0.48452 0.2624 0.0
C785 C 0.55789 0.51065 0.23136 0.0
C786 C 0.47316 0.4466 0.23217 0.0
C787 C 0.48406 0.45641 0.23264 0.0
C788 C 0.51435 0.46801 0.20858 0.0
C789 C 0.53705 0.49845 0.23562 0.0
C790 C 0.52652 0.48692 0.23621 0.0
C791 C 0.494 0.45542 0.23073 0.0
C792 C 0.50548 0.4659 0.23372 0.0
H793 H 0.54485 0.52673 0.24459 0.0
H794 H 0.52774 0.50771 0.24325 0.0
H795 H 0.53135 0.4801 0.18917 0.0
H796 H 0.48118 0.42616 0.22497 0.0
H797 H 0.50039 0.44346 0.22556 0.0
C798 C 0.55596 0.0413 0.22929 0.0
C799 C 0.55592 0.03093 0.23587 0.0
C800 C 0.5456 0.04146 0.22826 0.0
C801 C 0.51574 0.02518 0.26187 0.0
H802 H 0.50982 0.04266 0.18785 0.0
C803 C 0.47116 0.02102 0.2462 0.0
C804 C 0.47083 0.03125 0.24106 0.0
C805 C 0.4816 0.02109 0.24407 0.0
C806 C 0.51141 0.03784 0.20892 0.0
H807 H 0.54504 0.01256 0.24567 0.0
H808 H 0.52699 0.01282 0.24362 0.0
H809 H 0.52805 0.04262 0.18667 0.0
H810 H 0.48109 0.04955 0.22915 0.0
H811 H 0.49939 0.04971 0.22583 0.0
H812 H 0.49918 0.02044 0.28429 0.0
C813 C 0.53501 0.02085 0.23977 0.0
C814 C 0.52183 0.03781 0.20822 0.0
C815 C 0.54534 0.0207 0.24074 0.0
C816 C 0.4811 0.04153 0.23321 0.0
C817 C 0.49156 0.04161 0.23111 0.0
C818 C 0.50535 0.02522 0.26259 0.0
C819 C 0.53504 0.03125 0.23389 0.0
C820 C 0.52407 0.03143 0.2346 0.0
C821 C 0.49193 0.0314 0.23682 0.0
C822 C 0.50304 0.0315 0.23603 0.0
H823 H 0.564 0.04932 0.22545 0.0
H824 H 0.54589 0.04961 0.22397 0.0
H825 H 0.51731 0.02036 0.283 0.0
H826 H 0.46336 0.01295 0.25207 0.0
H827 H 0.48157 0.01305 0.24799 0.0
C828 C 0.44732 0.97021 0.76803 0.0
C829 C 0.43638 0.96026 0.76624 0.0
C830 C 0.45717 0.96928 0.7723 0.0
C831 C 0.46847 0.94986 0.75582 0.0
H832 H 0.4929 0.97086 0.82186 0.0
C833 C 0.51145 0.94977 0.77052 0.0
C834 C 0.52141 0.96072 0.76961 0.0
C835 C 0.50057 0.94872 0.77439 0.0
C836 C 0.48618 0.96497 0.80319 0.0
H837 H 0.42712 0.94155 0.76754 0.0
H838 H 0.44445 0.93993 0.7748 0.0
H839 H 0.47467 0.97081 0.82049 0.0
H840 H 0.52787 0.97914 0.77255 0.0
H841 H 0.50895 0.97733 0.77886 0.0
H842 H 0.4801 0.94425 0.73775 0.0
C843 C 0.44536 0.94843 0.77284 0.0
C844 C 0.47574 0.96494 0.80243 0.0
C845 C 0.43547 0.94936 0.7688 0.0
C846 C 0.52034 0.97058 0.77324 0.0
C847 C 0.5095 0.96954 0.77713 0.0
C848 C 0.47894 0.94992 0.75649 0.0
C849 C 0.4563 0.95839 0.77472 0.0
C850 C 0.46688 0.95756 0.7782 0.0
C851 C 0.49949 0.95861 0.7775 0.0
C852 C 0.48798 0.95765 0.77963 0.0
H853 H 0.44829 0.97873 0.7661 0.0
H854 H 0.46551 0.97711 0.77308 0.0
H855 H 0.46181 0.94414 0.73666 0.0
H856 H 0.51204 0.94201 0.76787 0.0
H857 H 0.49302 0.94018 0.77492 0.0
C858 C 0.04684 0.56193 0.7811 0.0
C859 C 0.03576 0.56064 0.78037 0.0
C860 C 0.04822 0.55241 0.78801 0.0
C861 C 0.03306 0.52245 0.82407 0.0
H862 H 0.05161 0.51734 0.75211 0.0
C863 C 0.02499 0.47743 0.78727 0.0
C864 C 0.03442 0.47587 0.7799 0.0
C865 C 0.02667 0.48843 0.79388 0.0
C866 C 0.04659 0.51873 0.77292 0.0
H867 H 0.01751 0.54856 0.78764 0.0
H868 H 0.01991 0.53198 0.79947 0.0
H869 H 0.05195 0.53572 0.75279 0.0
H870 H 0.05303 0.48455 0.77442 0.0
H871 H 0.05597 0.50387 0.78591 0.0
H872 H 0.02738 0.5053 0.84333 0.0
C873 C 0.02754 0.54032 0.79504 0.0
C874 C 0.04679 0.52926 0.77332 0.0
C875 C 0.02615 0.5498 0.78796 0.0
C876 C 0.0456 0.48551 0.77989 0.0
C877 C 0.04728 0.49656 0.78637 0.0
C878 C 0.03286 0.51192 0.82368 0.0
C879 C 0.03856 0.54148 0.79457 0.0
C880 C 0.03976 0.5311 0.79817 0.0
C881 C 0.03781 0.49812 0.79319 0.0
C882 C 0.03936 0.50983 0.79736 0.0
H883 H 0.0544 0.57022 0.77544 0.0
H884 H 0.05683 0.55356 0.78775 0.0
H885 H 0.02772 0.52371 0.84398 0.0
H886 H 0.01627 0.47015 0.78748 0.0
H887 H 0.01918 0.48937 0.79843 0.0
C888 C 0.44589 0.47574 0.78269 0.0
C889 C 0.43487 0.47409 0.77535 0.0
C890 C 0.45526 0.48682 0.78736 0.0
C891 C 0.46542 0.51668 0.76028 0.0
H892 H 0.49013 0.52287 0.82922 0.0
C893 C 0.50853 0.56023 0.76409 0.0
C894 C 0.51836 0.55902 0.76384 0.0
C895 C 0.49762 0.55064 0.77044 0.0
C896 C 0.48329 0.52127 0.80987 0.0
H897 H 0.4249 0.48268 0.76825 0.0
H898 H 0.44136 0.50216 0.77651 0.0
H899 H 0.47204 0.50457 0.83273 0.0
H900 H 0.52457 0.54692 0.77036 0.0
H901 H 0.5056 0.53025 0.78133 0.0
H902 H 0.47683 0.53328 0.73679 0.0
C903 C 0.44273 0.49485 0.77836 0.0
C904 C 0.47295 0.5108 0.81186 0.0
C905 C 0.43332 0.48372 0.77378 0.0
C906 C 0.51714 0.54812 0.77038 0.0
C907 C 0.50629 0.53859 0.77698 0.0
C908 C 0.47577 0.52718 0.75836 0.0
C909 C 0.45382 0.49651 0.78477 0.0
C910 C 0.46404 0.50826 0.78638 0.0
C911 C 0.49642 0.53974 0.77701 0.0
C912 C 0.48492 0.52942 0.78243 0.0
H913 H 0.44734 0.46847 0.78404 0.0
H914 H 0.46371 0.48782 0.79169 0.0
H915 H 0.45875 0.51493 0.74006 0.0
H916 H 0.50925 0.56855 0.75917 0.0
H917 H 0.49015 0.55176 0.77041 0.0
C918 C 0.61104 0.84465 0.55744 0.0
C919 C 0.62209 0.85433 0.55305 0.0
C920 C 0.60924 0.83355 0.55119 0.0
C921 C 0.62251 0.81771 0.50852 0.0
H922 H 0.60688 0.79557 0.58755 0.0
C923 C 0.63237 0.78198 0.54482 0.0
C924 C 0.62337 0.77113 0.5559 0.0
C925 C 0.63027 0.791 0.53774 0.0
C926 C 0.61105 0.80155 0.56483 0.0
H927 H 0.6398 0.86006 0.53754 0.0
H928 H 0.63669 0.84077 0.527 0.0
H929 H 0.60661 0.81365 0.58698 0.0
H930 H 0.60503 0.76108 0.56735 0.0
H931 H 0.60135 0.77697 0.55525 0.0
H932 H 0.62736 0.8058 0.4873 0.0
C933 C 0.62939 0.8417 0.53485 0.0
C934 C 0.61089 0.81191 0.56448 0.0
C935 C 0.6312 0.85276 0.54121 0.0
C936 C 0.61214 0.76938 0.55895 0.0
C937 C 0.61004 0.77846 0.55211 0.0
C938 C 0.62268 0.80737 0.50891 0.0
C939 C 0.61843 0.83196 0.54022 0.0
C940 C 0.61694 0.82025 0.53699 0.0
C941 C 0.61911 0.78938 0.54176 0.0
C942 C 0.61727 0.79936 0.53773 0.0
H943 H 0.60386 0.84562 0.56642 0.0
H944 H 0.60069 0.8262 0.55529 0.0
H945 H 0.62705 0.82388 0.48657 0.0
H946 H 0.64111 0.78357 0.54216 0.0
H947 H 0.63747 0.79937 0.53036 0.0
C948 C 0.13955 0.78019 0.56399 0.0
C949 C 0.13878 0.76934 0.56552 0.0
C950 C 0.1502 0.79016 0.55881 0.0
C951 C 0.18117 0.80178 0.57183 0.0
H952 H 0.18377 0.82613 0.50694 0.0
C953 C 0.22397 0.84479 0.55464 0.0
C954 C 0.22293 0.85471 0.55705 0.0
C955 C 0.21414 0.83391 0.55061 0.0
C956 C 0.18317 0.81942 0.52526 0.0
H957 H 0.14849 0.76037 0.56272 0.0
H958 H 0.16716 0.77784 0.55379 0.0
H959 H 0.16562 0.80786 0.51 0.0
H960 H 0.2109 0.86111 0.55621 0.0
H961 H 0.19381 0.84219 0.54963 0.0
H962 H 0.19861 0.81345 0.58789 0.0
C963 C 0.15953 0.77862 0.55674 0.0
C964 C 0.17278 0.80898 0.52701 0.0
C965 C 0.14885 0.76863 0.56175 0.0
C966 C 0.21196 0.85361 0.55441 0.0
C967 C 0.20217 0.84277 0.55035 0.0
C968 C 0.19155 0.81225 0.57016 0.0
C969 C 0.1603 0.78948 0.55519 0.0
C970 C 0.17161 0.80014 0.55085 0.0
C971 C 0.20313 0.83279 0.54882 0.0
C972 C 0.19259 0.82126 0.5474 0.0
H973 H 0.13192 0.78099 0.56682 0.0
H974 H 0.15056 0.79843 0.55828 0.0
H975 H 0.18048 0.79516 0.59069 0.0
H976 H 0.23234 0.84541 0.55648 0.0
H977 H 0.21516 0.82638 0.54914 0.0
C978 C 0.22389 0.38057 0.57519 0.0
C979 C 0.22309 0.36974 0.57919 0.0
C980 C 0.21393 0.38149 0.57617 0.0
C981 C 0.18396 0.36604 0.6097 0.0
H982 H 0.17824 0.38341 0.5347 0.0
C983 C 0.1387 0.35811 0.58086 0.0
C984 C 0.13723 0.36771 0.5761 0.0
C985 C 0.14971 0.3595 0.58241 0.0
C986 C 0.1798 0.37867 0.55613 0.0
H987 H 0.21133 0.35142 0.58695 0.0
H988 H 0.19404 0.35303 0.58847 0.0
H989 H 0.19676 0.38389 0.53571 0.0
H990 H 0.14609 0.38627 0.56852 0.0
H991 H 0.16548 0.38871 0.57115 0.0
H992 H 0.16699 0.36063 0.62975 0.0
C993 C 0.20232 0.36081 0.58507 0.0
C994 C 0.19039 0.37895 0.55672 0.0
C995 C 0.21221 0.35988 0.58394 0.0
C996 C 0.14699 0.37873 0.57223 0.0
C997 C 0.15806 0.38012 0.57363 0.0
C998 C 0.17342 0.36576 0.6091 0.0
C999 C 0.20307 0.37162 0.58143 0.0
C1000 C 0.19244 0.37241 0.58299 0.0
C1001 C 0.1595 0.37052 0.57918 0.0
C1002 C 0.17113 0.37184 0.58179 0.0
H1003 H 0.23218 0.3883 0.57148 0.0
H1004 H 0.21474 0.38993 0.57341 0.0
H1005 H 0.18541 0.36112 0.63078 0.0
H1006 H 0.13133 0.34951 0.58377 0.0
H1007 H 0.15056 0.35192 0.586 0.0
C1008 C 0.03435 0.27764 0.02976 0.0
C1009 C 0.04037 0.27332 0.04981 0.0
C1010 C 0.02398 0.27013 0.01234 0.0
C1011 C -0.00098 0.24171 0.01608 0.0
H1012 H 0.99459 0.24899 0.91518 0.0
C1013 C 0.95413 0.21992 0.94599 0.0
C1014 C 0.95144 0.22805 0.93158 0.0
C1015 C 0.96551 0.22326 0.95563 0.0
C1016 C 0.99571 0.2468 0.94327 0.0
H1017 H 0.04017 0.25778 0.06819 0.0
H1018 H 0.02169 0.24454 0.03824 0.0
H1019 H 0.01377 0.25911 0.943 0.0
H1020 H 0.9585 0.24586 0.91438 0.0
H1021 H 0.97823 0.25167 0.93108 0.0
H1022 H 0.98082 0.22988 0.0171 0.0
C1023 C 0.02516 0.25376 0.03579 0.0
C1024 C 0.00666 0.25257 0.95913 0.0
C1025 C 0.03568 0.26132 0.05289 0.0
C1026 C 0.96033 0.23942 0.92552 0.0
C1027 C 0.97165 0.24272 0.9348 0.0
C1028 C 0.98801 0.23596 0.00024 0.0
C1029 C 0.01934 0.25814 0.01489 0.0
C1030 C 0.00831 0.25041 0.99613 0.0
C1031 C 0.97435 0.23474 0.95052 0.0
C1032 C 0.98619 0.23881 0.96421 0.0
H1033 H 0.03776 0.28684 0.02686 0.0
H1034 H 0.01954 0.27371 0.99694 0.0
H1035 H 0.0001 0.23992 0.04469 0.0
H1036 H 0.94742 0.21109 0.95092 0.0
H1037 H 0.96737 0.21694 0.9676 0.0
C1038 C 0.75418 0.71528 0.97516 0.0
C1039 C 0.7646 0.71975 0.95555 0.0
C1040 C 0.75124 0.72265 0.9932 0.0
C1041 C 0.75531 0.75148 0.99193 0.0
H1042 H 0.74222 0.74318 0.09095 0.0
C1043 C 0.73328 0.77424 0.06211 0.0
C1044 C 0.72217 0.76638 0.07517 0.0
C1045 C 0.74098 0.77042 0.0529 0.0
C1046 C 0.74591 0.74564 0.06338 0.0
H1047 H 0.78005 0.73542 0.93876 0.0
H1048 H 0.77474 0.74842 0.9699 0.0
H1049 H 0.75097 0.7328 0.0628 0.0
H1050 H 0.71057 0.74856 0.09059 0.0
H1051 H 0.7239 0.74192 0.07452 0.0
H1052 H 0.74971 0.76392 0.99172 0.0
C1053 C 0.76893 0.73918 0.97145 0.0
C1054 C 0.7509 0.73971 0.04731 0.0
C1055 C 0.77195 0.73177 0.95366 0.0
C1056 C 0.71907 0.7548 0.08047 0.0
C1057 C 0.72676 0.75102 0.07155 0.0
C1058 C 0.75025 0.75739 0.00796 0.0
C1059 C 0.75862 0.73466 0.99179 0.0
C1060 C 0.75525 0.74229 0.01094 0.0
C1061 C 0.7377 0.75873 0.05701 0.0
C1062 C 0.74512 0.75422 0.0433 0.0
H1063 H 0.74835 0.70605 0.97713 0.0
H1064 H 0.74313 0.71895 0.00811 0.0
H1065 H 0.7586 0.75361 0.96381 0.0
H1066 H 0.73588 0.78323 0.05783 0.0
H1067 H 0.74939 0.77656 0.04194 0.0
C1068 C 0.21664 0.95601 0.05278 0.0
C1069 C 0.2248 0.95362 0.06874 0.0
C1070 C 0.21985 0.96727 0.04188 0.0
C1071 C 0.24328 -0.00225 0.05125 0.0
H1072 H 0.23708 0.0005 0.94752 0.0
C1073 C 0.27545 0.03322 0.95803 0.0
C1074 C 0.27196 0.04018 0.93943 0.0
C1075 C 0.26738 0.02318 0.97593 0.0
C1076 C 0.23866 -0.00013 0.97672 0.0
H1077 H 0.24248 0.96112 0.08773 0.0
H1078 H 0.24808 0.98063 0.06881 0.0
H1079 H 0.22658 0.98173 0.97853 0.0
H1080 H 0.25726 0.0419 0.92355 0.0
H1081 H 0.24296 0.02392 0.95418 0.0
H1082 H 0.25598 0.01569 0.04854 0.0
C1083 C 0.23919 0.97392 0.06483 0.0
C1084 C 0.23264 0.98917 0.99453 0.0
C1085 C 0.23602 0.96271 0.07538 0.0
C1086 C 0.26016 0.03666 0.93773 0.0
C1087 C 0.25201 0.02645 0.95523 0.0
C1088 C 0.24934 0.00838 0.0334 0.0
C1089 C 0.23123 0.97629 0.04726 0.0
C1090 C 0.2353 0.98792 0.03148 0.0
C1091 C 0.25564 0.01982 0.97516 0.0
C1092 C 0.24741 0.00939 0.99563 0.0
H1093 H 0.20792 0.94913 0.0474 0.0
H1094 H 0.21354 0.96887 0.02852 0.0
H1095 H 0.24533 0.99709 0.07995 0.0
H1096 H 0.28448 0.0357 0.95986 0.0
H1097 H 0.27032 0.01807 0.9907 0.0
C1098 C 0.95394 0.73171 0.95566 0.0
C1099 C 0.94914 0.71969 0.95827 0.0
C1100 C 0.96439 0.73912 0.97335 0.0
C1101 C 0.9829 0.73985 0.04975 0.0
H1102 H 0.00849 0.76304 0.99212 0.0
C1103 C 0.02956 0.75354 0.0813 0.0
C1104 C 0.03835 0.76489 0.07432 0.0
C1105 C 0.01813 0.75014 0.07321 0.0
C1106 C 0.00137 0.75682 0.00894 0.0
H1107 H 0.95145 0.70598 0.98117 0.0
H1108 H 0.96959 0.71887 0.012 0.0
H1109 H 0.98918 0.75301 0.96496 0.0
H1110 H 0.04207 0.78177 0.05506 0.0
H1111 H 0.02196 0.77578 0.0407 0.0
H1112 H 0.99509 0.74332 0.09323 0.0
C1113 C 0.96528 0.72258 0.99658 0.0
C1114 C 0.99034 0.75106 0.99332 0.0
C1115 C 0.95496 0.7152 0.97861 0.0
C1116 C 0.03544 0.77294 0.0606 0.0
C1117 C 0.02397 0.76952 0.05227 0.0
C1118 C 0.99388 0.74563 0.06541 0.0
C1119 C 0.97005 0.73459 0.99433 0.0
C1120 C 0.98113 0.74221 0.01308 0.0
C1121 C 0.01523 0.75802 0.05787 0.0
C1122 C 0.00332 0.75382 0.04459 0.0
H1123 H 0.9496 0.73538 0.94018 0.0
H1124 H 0.96795 0.74837 0.97114 0.0
H1125 H 0.97586 0.7332 0.06577 0.0
H1126 H 0.03155 0.74715 0.09195 0.0
H1127 H 0.01164 0.74118 0.07733 0.0
C1128 C 0.27727 0.24152 0.94529 0.0
C1129 C 0.27273 0.22974 0.93771 0.0
C1130 C 0.27052 0.24537 0.96252 0.0
C1131 C 0.24179 0.23996 0.97999 0.0
H1132 H 0.25595 0.2591 0.06683 0.0
C1133 C 0.22115 0.26309 0.05755 0.0
C1134 C 0.22889 0.2748 0.06478 0.0
C1135 C 0.22524 0.25577 0.04643 0.0
C1136 C 0.25188 0.25379 0.04263 0.0
H1137 H 0.25739 0.21281 0.94037 0.0
H1138 H 0.24541 0.21969 0.97005 0.0
H1139 H 0.26534 0.24973 0.03629 0.0
H1140 H 0.24696 0.288 0.06709 0.0
H1141 H 0.25408 0.27535 0.04744 0.0
H1142 H 0.22861 0.2445 0.98518 0.0
C1143 C 0.25426 0.22585 0.96291 0.0
C1144 C 0.25723 0.24841 0.02527 0.0
C1145 C 0.2611 0.22194 0.94595 0.0
C1146 C 0.24078 0.279 0.06179 0.0
C1147 C 0.24486 0.27172 0.05077 0.0
C1148 C 0.23646 0.24545 0.99721 0.0
C1149 C 0.25905 0.23755 0.97221 0.0
C1150 C 0.25242 0.24175 0.9932 0.0
C1151 C 0.23715 0.26006 0.04256 0.0
C1152 C 0.24166 0.25271 0.02801 0.0
H1153 H 0.28619 0.24775 0.93914 0.0
H1154 H 0.27432 0.25447 0.9689 0.0
H1155 H 0.23794 0.23485 0.95524 0.0
H1156 H 0.21192 0.25964 0.05967 0.0
H1157 H 0.21911 0.2468 0.04055 0.0
C1158 C 0.77378 0.03721 0.93707 0.0
C1159 C 0.76543 0.04065 0.93898 0.0
C1160 C 0.77158 0.02674 0.95283 0.0
C1161 C 0.75708 0.00813 0.02853 0.0
H1162 H 0.7485 0.98082 0.96922 0.0
C1163 C 0.72276 0.9636 0.07393 0.0
C1164 C 0.72328 0.95378 0.06349 0.0
C1165 C 0.73132 0.97452 0.06273 0.0
C1166 C 0.7512 0.9884 0.98635 0.0
H1167 H 0.74822 0.03579 0.95812 0.0
H1168 H 0.74453 0.01767 0.98612 0.0
H1169 H 0.75746 -0.00022 0.9393 0.0
H1170 H 0.73341 0.94765 0.03464 0.0
H1171 H 0.74845 0.96688 0.01472 0.0
H1172 H 0.7504 0.99684 0.07532 0.0
C1173 C 0.7527 0.02305 0.97231 0.0
C1174 C 0.75628 -0.00079 0.96917 0.0
C1175 C 0.7548 0.03336 0.95612 0.0
C1176 C 0.7328 0.95511 0.04297 0.0
C1177 C 0.74137 0.96608 0.03151 0.0
C1178 C 0.75212 0.99738 0.04575 0.0
C1179 C 0.76111 0.01975 0.97117 0.0
C1180 C 0.75875 0.00904 0.98997 0.0
C1181 C 0.74059 0.97588 0.04074 0.0
C1182 C 0.74857 0.98734 0.02453 0.0
H1183 H 0.78205 0.0427 0.92398 0.0
H1184 H 0.77813 0.02425 0.95163 0.0
H1185 H 0.75899 0.01567 0.04497 0.0
H1186 H 0.71553 0.96284 0.08984 0.0
H1187 H 0.73033 0.98186 0.0698 0.0
C1188 C 0.62333 0.55512 0.26899 0.0
C1189 C 0.62016 0.56304 0.25587 0.0
C1190 C 0.63468 0.55895 0.28026 0.0
C1191 C 0.66431 0.58435 0.2776 0.0
H1192 H 0.6671 0.57446 0.37656 0.0
C1193 C 0.70039 0.61336 0.37592 0.0
C1194 C 0.70687 0.60893 0.39239 0.0
C1195 C 0.69025 0.6061 0.35695 0.0
C1196 C 0.66646 0.57714 0.34866 0.0
H1197 H 0.62641 0.58099 0.24227 0.0
H1198 H 0.64607 0.58767 0.26208 0.0
H1199 H 0.64859 0.56441 0.34404 0.0
H1200 H 0.70758 0.59335 0.40345 0.0
H1201 H 0.68949 0.58051 0.37081 0.0
H1202 H 0.68199 0.59751 0.28322 0.0
C1203 C 0.63991 0.57851 0.26345 0.0
C1204 C 0.65591 0.57137 0.32995 0.0
C1205 C 0.62861 0.5747 0.25235 0.0
C1206 C 0.70273 0.59698 0.39098 0.0
C1207 C 0.69244 0.58966 0.37231 0.0
C1208 C 0.67479 0.59016 0.2964 0.0
C1209 C 0.64302 0.57073 0.27833 0.0
C1210 C 0.65463 0.57521 0.29479 0.0
C1211 C 0.6863 0.59424 0.3544 0.0
C1212 C 0.67583 0.58685 0.33255 0.0
H1213 H 0.61697 0.54606 0.27191 0.0
H1214 H 0.63686 0.55275 0.2913 0.0
H1215 H 0.66365 0.58734 0.25022 0.0
H1216 H 0.70335 0.62252 0.37657 0.0
H1217 H 0.68552 0.60978 0.34389 0.0
C1218 C 0.42545 0.05923 0.25503 0.0
C1219 C 0.43582 0.05968 0.26471 0.0
C1220 C 0.42334 0.068 0.26611 0.0
C1221 C 0.42939 0.08698 0.34359 0.0
H1222 H 0.41264 0.09832 0.28587 0.0
C1223 C 0.39383 0.09424 0.40109 0.0
C1224 C 0.39314 0.10386 0.38923 0.0
C1225 C 0.40235 0.09221 0.387 0.0
C1226 C 0.41752 0.09544 0.30221 0.0
H1227 H 0.45239 0.0699 0.29179 0.0
H1228 H 0.44856 0.08515 0.31193 0.0
H1229 H 0.42173 0.08871 0.25441 0.0
H1230 H 0.40103 0.11918 0.35459 0.0
H1231 H 0.4158 0.11541 0.32902 0.0
H1232 H 0.42451 0.09301 0.39161 0.0
C1233 C 0.44213 0.07804 0.29558 0.0
C1234 C 0.42265 0.08989 0.28425 0.0
C1235 C 0.4443 0.06934 0.28401 0.0
C1236 C 0.4014 0.1117 0.3642 0.0
C1237 C 0.40982 0.10955 0.34954 0.0
C1238 C 0.42414 0.09239 0.36157 0.0
C1239 C 0.43152 0.0773 0.28745 0.0
C1240 C 0.42828 0.08527 0.30494 0.0
C1241 C 0.41022 0.09967 0.36036 0.0
C1242 C 0.41783 0.09631 0.34114 0.0
H1243 H 0.41879 0.05189 0.24003 0.0
H1244 H 0.41504 0.06715 0.25982 0.0
H1245 H 0.43361 0.08342 0.36021 0.0
H1246 H 0.38758 0.0881 0.42045 0.0
H1247 H 0.4024 0.08446 0.39546 0.0
C1248 C 0.88478 0.28997 0.3853 0.0
C1249 C 0.89269 0.28597 0.38432 0.0
C1250 C 0.88728 0.30021 0.36701 0.0
C1251 C 0.90415 0.31847 0.2898 0.0
H1252 H 0.90707 0.34466 0.34511 0.0
C1253 C 0.93697 0.36466 0.25267 0.0
C1254 C 0.93472 0.37365 0.25985 0.0
C1255 C 0.92886 0.35333 0.26175 0.0
C1256 C 0.906 0.33736 0.32891 0.0
H1257 H 0.9094 0.28953 0.36385 0.0
H1258 H 0.91364 0.30721 0.33174 0.0
H1259 H 0.89812 0.32563 0.37445 0.0
H1260 H 0.92199 0.37781 0.28033 0.0
H1261 H 0.90773 0.35788 0.29628 0.0
H1262 H 0.91237 0.33017 0.24474 0.0
C1263 C 0.90553 0.30246 0.3465 0.0
C1264 C 0.90091 0.3265 0.34578 0.0
C1265 C 0.90314 0.2924 0.36517 0.0
C1266 C 0.92395 0.37103 0.27459 0.0
C1267 C 0.91582 0.35965 0.28387 0.0
C1268 C 0.90913 0.32927 0.27285 0.0
C1269 C 0.8976 0.3064 0.34694 0.0
C1270 C 0.90044 0.31711 0.32686 0.0
C1271 C 0.91831 0.35072 0.27825 0.0
C1272 C 0.9106 0.33894 0.29282 0.0
H1273 H 0.87665 0.28515 0.39986 0.0
H1274 H 0.88108 0.30317 0.36786 0.0
H1275 H 0.90371 0.31127 0.27455 0.0
H1276 H 0.94518 0.36643 0.24126 0.0
H1277 H 0.93113 0.3467 0.25756 0.0
C1278 C 0.6956 0.09249 0.41373 0.0
C1279 C 0.70546 0.1027 0.40241 0.0
C1280 C 0.68472 0.08985 0.40082 0.0
C1281 C 0.66202 0.08813 0.37683 0.0
H1282 H 0.66157 0.08805 0.26898 0.0
C1283 C 0.61958 0.06701 0.29336 0.0
C1284 C 0.61886 0.05833 0.26965 0.0
C1285 C 0.63019 0.07517 0.30844 0.0
C1286 C 0.66159 0.08818 0.29908 0.0
H1287 H 0.71164 0.1185 0.37066 0.0
H1288 H 0.6926 0.11375 0.34758 0.0
H1289 H 0.68002 0.09762 0.30182 0.0
H1290 H 0.62864 0.05173 0.24128 0.0
H1291 H 0.64721 0.06611 0.26703 0.0
H1292 H 0.64359 0.07824 0.37398 0.0
C1293 C 0.69331 0.10784 0.36647 0.0
C1294 C 0.67211 0.09371 0.31788 0.0
C1295 C 0.70418 0.11055 0.37978 0.0
C1296 C 0.62897 0.05832 0.25955 0.0
C1297 C 0.63959 0.06658 0.27412 0.0
C1298 C 0.65148 0.08273 0.35802 0.0
C1299 C 0.68354 0.09732 0.37605 0.0
C1300 C 0.67242 0.09341 0.35688 0.0
C1301 C 0.64025 0.07488 0.29945 0.0
C1302 C 0.65121 0.08239 0.31899 0.0
H1303 H 0.69635 0.08631 0.43125 0.0
H1304 H 0.67733 0.08164 0.40839 0.0
H1305 H 0.66205 0.08782 0.40691 0.0
H1306 H 0.61189 0.06719 0.30165 0.0
H1307 H 0.63051 0.08151 0.32785 0.0
C1308 C 0.90761 0.61332 0.38244 0.0
C1309 C 0.89647 0.60883 0.39711 0.0
C1310 C 0.91074 0.60614 0.36416 0.0
C1311 C 0.90588 0.57737 0.35486 0.0
H1312 H 0.91958 0.58819 0.25754 0.0
C1313 C 0.92802 0.55632 0.27432 0.0
C1314 C 0.93915 0.56444 0.26211 0.0
C1315 C 0.92039 0.55994 0.28621 0.0
C1316 C 0.91574 0.58503 0.2846 0.0
H1317 H 0.88003 0.59323 0.40589 0.0
H1318 H 0.88571 0.58052 0.37444 0.0
H1319 H 0.91089 0.59796 0.29001 0.0
H1320 H 0.95088 0.58259 0.25122 0.0
H1321 H 0.93767 0.58889 0.27196 0.0
H1322 H 0.91135 0.56486 0.35042 0.0
C1323 C 0.89189 0.58965 0.37681 0.0
C1324 C 0.91076 0.5906 0.30308 0.0
C1325 C 0.88868 0.5969 0.39478 0.0
C1326 C 0.94235 0.57614 0.26052 0.0
C1327 C 0.93474 0.57974 0.27215 0.0
C1328 C 0.91097 0.57183 0.33645 0.0
C1329 C 0.90285 0.5943 0.36053 0.0
C1330 C 0.90618 0.58708 0.33887 0.0
C1331 C 0.92375 0.57171 0.28569 0.0
C1332 C 0.91633 0.57591 0.30174 0.0
H1333 H 0.91381 0.62246 0.38386 0.0
H1334 H 0.91932 0.60987 0.35235 0.0
H1335 H 0.90238 0.57454 0.38248 0.0
H1336 H 0.92535 0.54724 0.2758 0.0
H1337 H 0.91195 0.55357 0.29634 0.0
C1338 C 0.41934 0.36685 0.29052 0.0
C1339 C 0.43011 0.37354 0.27337 0.0
C1340 C 0.41677 0.35669 0.30885 0.0
C1341 C 0.42177 0.33293 0.31337 0.0
H1342 H 0.41026 0.33003 0.41409 0.0
C1343 C 0.39958 0.28916 0.38965 0.0
C1344 C 0.38875 0.28647 0.40391 0.0
C1345 C 0.40752 0.30048 0.37913 0.0
C1346 C 0.41352 0.33072 0.38608 0.0
H1347 H 0.44645 0.37462 0.26046 0.0
H1348 H 0.44171 0.35645 0.29186 0.0
H1349 H 0.41857 0.34859 0.3823 0.0
H1350 H 0.37795 0.29354 0.42033 0.0
H1351 H 0.39166 0.31316 0.40194 0.0
H1352 H 0.41599 0.31486 0.31613 0.0
C1353 C 0.43541 0.35928 0.29143 0.0
C1354 C 0.41828 0.34132 0.368 0.0
C1355 C 0.43808 0.36961 0.27348 0.0
C1356 C 0.38622 0.29536 0.40933 0.0
C1357 C 0.39414 0.30663 0.39906 0.0
C1358 C 0.41688 0.32224 0.33137 0.0
C1359 C 0.42484 0.35292 0.31 0.0
C1360 C 0.42203 0.34239 0.33105 0.0
C1361 C 0.40477 0.30928 0.38306 0.0
C1362 C 0.41227 0.32094 0.36736 0.0
H1363 H 0.41303 0.36966 0.29092 0.0
H1364 H 0.40848 0.35179 0.32249 0.0
H1365 H 0.42462 0.33359 0.28483 0.0
H1366 H 0.40174 0.28245 0.38524 0.0
H1367 H 0.41567 0.3023 0.36711 0.0
C1368 C 0.28652 0.88806 0.63141 0.0
C1369 C 0.28462 0.89523 0.60742 0.0
C1370 C 0.29736 0.89205 0.64762 0.0
C1371 C 0.32265 0.91966 0.67326 0.0
H1372 H 0.33746 0.9016 0.69227 0.0
C1373 C 0.36426 0.93946 0.75612 0.0
C1374 C 0.37318 0.93823 0.7405 0.0
C1375 C 0.35291 0.93239 0.74454 0.0
C1376 C 0.33342 0.90674 0.68709 0.0
H1377 H 0.29268 0.91175 0.57916 0.0
H1378 H 0.31162 0.91856 0.60647 0.0
H1379 H 0.31908 0.89288 0.65873 0.0
H1380 H 0.37723 0.92822 0.7024 0.0
H1381 H 0.35741 0.91609 0.68107 0.0
H1382 H 0.33702 0.93362 0.70007 0.0
C1383 C 0.3047 0.91003 0.61381 0.0
C1384 C 0.32288 0.90173 0.66814 0.0
C1385 C 0.29388 0.90611 0.59798 0.0
C1386 C 0.37049 0.92933 0.71484 0.0
C1387 C 0.35912 0.92235 0.70277 0.0
C1388 C 0.33313 0.92465 0.69197 0.0
C1389 C 0.30645 0.90323 0.63984 0.0
C1390 C 0.31747 0.90821 0.66062 0.0
C1391 C 0.35028 0.9241 0.71654 0.0
C1392 C 0.3387 0.9183 0.69898 0.0
H1393 H 0.2795 0.87963 0.63912 0.0
H1394 H 0.29845 0.88662 0.66761 0.0
H1395 H 0.3186 0.92482 0.66863 0.0
H1396 H 0.36611 0.94615 0.77639 0.0
H1397 H 0.34624 0.93373 0.75647 0.0
C1398 C 0.06338 0.44017 0.71796 0.0
C1399 C 0.05146 0.43245 0.72129 0.0
C1400 C 0.0704 0.43684 0.69915 0.0
C1401 C 0.0689 0.41722 0.62644 0.0
H1402 H 0.09488 0.41723 0.67404 0.0
C1403 C 0.08316 0.38503 0.5889 0.0
C1404 C 0.09482 0.38816 0.59132 0.0
C1405 C 0.07963 0.39286 0.59866 0.0
C1406 C 0.08784 0.41743 0.65992 0.0
H1407 H 0.0376 0.41518 0.70841 0.0
H1408 H 0.04982 0.40947 0.67545 0.0
H1409 H 0.08542 0.42659 0.70473 0.0
H1410 H 0.11204 0.40207 0.60415 0.0
H1411 H 0.10584 0.41585 0.62124 0.0
H1412 H 0.07104 0.40782 0.58214 0.0
C1413 C 0.05371 0.41807 0.68716 0.0
C1414 C 0.08242 0.42275 0.67757 0.0
C1415 C 0.04675 0.42132 0.70631 0.0
C1416 C 0.10298 0.39944 0.60214 0.0
C1417 C 0.09944 0.40729 0.61207 0.0
C1418 C 0.07436 0.412 0.60868 0.0
C1419 C 0.06554 0.42585 0.68295 0.0
C1420 C 0.07263 0.42226 0.6616 0.0
C1421 C 0.08769 0.404 0.61107 0.0
C1422 C 0.08357 0.41162 0.62595 0.0
H1423 H 0.06721 0.44882 0.72926 0.0
H1424 H 0.07954 0.44294 0.69635 0.0
H1425 H 0.06147 0.41692 0.61334 0.0
H1426 H 0.07668 0.37639 0.58061 0.0
H1427 H 0.0705 0.38997 0.59812 0.0
C1428 C 0.57306 0.63002 0.73615 0.0
C1429 C 0.56141 0.62165 0.73148 0.0
C1430 C 0.57696 0.64149 0.72681 0.0
C1431 C 0.57059 0.65889 0.66402 0.0
H1432 H 0.59536 0.684 0.71893 0.0
C1433 C 0.59591 0.70679 0.61366 0.0
C1434 C 0.60793 0.71148 0.61495 0.0
C1435 C 0.58858 0.69611 0.63022 0.0
C1436 C 0.5884 0.67707 0.70342 0.0
H1437 H 0.54461 0.61871 0.71458 0.0
H1438 H 0.55148 0.63889 0.69803 0.0
H1439 H 0.58507 0.66478 0.74646 0.0
H1440 H 0.62171 0.70865 0.63388 0.0
H1441 H 0.60895 0.69011 0.6628 0.0
H1442 H 0.57422 0.6712 0.62052 0.0
C1443 C 0.55757 0.63652 0.7088 0.0
C1444 C 0.58253 0.66609 0.71913 0.0
C1445 C 0.55364 0.62501 0.71839 0.0
C1446 C 0.61248 0.70525 0.63243 0.0
C1447 C 0.60519 0.6947 0.64928 0.0
C1448 C 0.57645 0.66992 0.64836 0.0
C1449 C 0.5693 0.64484 0.7125 0.0
C1450 C 0.57387 0.6568 0.69901 0.0
C1451 C 0.5932 0.6901 0.64874 0.0
C1452 C 0.58568 0.67898 0.66741 0.0
H1453 H 0.57924 0.62768 0.74621 0.0
H1454 H 0.58608 0.64765 0.72942 0.0
H1455 H 0.564 0.65187 0.64777 0.0
H1456 H 0.59219 0.71144 0.60036 0.0
H1457 H 0.57934 0.69269 0.62937 0.0
C1458 C 0.3689 0.42136 0.6946 0.0
C1459 C 0.37505 0.43173 0.71443 0.0
C1460 C 0.35868 0.41872 0.67651 0.0
C1461 C 0.33431 0.42324 0.67764 0.0
H1462 H 0.33001 0.41131 0.57707 0.0
C1463 C 0.28984 0.40202 0.60613 0.0
C1464 C 0.28664 0.39108 0.59154 0.0
C1465 C 0.30133 0.40965 0.61573 0.0
C1466 C 0.33109 0.41467 0.60508 0.0
H1467 H 0.37523 0.44735 0.73177 0.0
H1468 H 0.35704 0.44251 0.70064 0.0
H1469 H 0.34894 0.41957 0.6063 0.0
H1470 H 0.29294 0.37975 0.57369 0.0
H1471 H 0.31286 0.39294 0.59055 0.0
H1472 H 0.31631 0.41774 0.67726 0.0
C1473 C 0.36028 0.43655 0.69889 0.0
C1474 C 0.34191 0.41939 0.62174 0.0
C1475 C 0.37063 0.43928 0.71668 0.0
C1476 C 0.29516 0.38812 0.58498 0.0
C1477 C 0.3066 0.39573 0.59437 0.0
C1478 C 0.32344 0.41843 0.66104 0.0
C1479 C 0.35434 0.42633 0.67815 0.0
C1480 C 0.3435 0.42332 0.65861 0.0
C1481 C 0.30978 0.40647 0.61058 0.0
C1482 C 0.32164 0.4137 0.6251 0.0
H1483 H 0.3721 0.41538 0.69234 0.0
H1484 H 0.35414 0.41068 0.66125 0.0
H1485 H 0.33535 0.42621 0.70614 0.0
H1486 H 0.28342 0.40452 0.61138 0.0
H1487 H 0.30355 0.41791 0.62793 0.0
C1488 C 0.59274 0.88345 0.63815 0.0
C1489 C 0.60004 0.89005 0.60896 0.0
C1490 C 0.5844 0.88586 0.65191 0.0
C1491 C 0.56995 0.90298 0.63223 0.0
H1492 H 0.57207 0.90794 0.73885 0.0
C1493 C 0.56991 0.9407 0.70357 0.0
C1494 C 0.56089 0.9382 0.72846 0.0
C1495 C 0.57159 0.9319 0.6901 0.0
C1496 C 0.57117 0.90633 0.7092 0.0
H1497 H 0.60393 0.90386 0.56988 0.0
H1498 H 0.58959 0.90816 0.59396 0.0
H1499 H 0.5803 0.89701 0.71082 0.0
H1500 H 0.54674 0.92464 0.75966 0.0
H1501 H 0.55004 0.90917 0.73683 0.0
H1502 H 0.56175 0.91321 0.63049 0.0
C1503 C 0.59013 0.90104 0.60611 0.0
C1504 C 0.57583 0.90006 0.6931 0.0
C1505 C 0.59845 0.89865 0.59249 0.0
C1506 C 0.55376 0.92676 0.74047 0.0
C1507 C 0.5556 0.91795 0.72747 0.0
C1508 C 0.56543 0.90935 0.64827 0.0
C1509 C 0.58319 0.89486 0.63652 0.0
C1510 C 0.57575 0.89879 0.65424 0.0
C1511 C 0.56442 0.92049 0.70172 0.0
C1512 C 0.56643 0.91144 0.68662 0.0
H1513 H 0.59376 0.87672 0.65125 0.0
H1514 H 0.57911 0.8809 0.67519 0.0
H1515 H 0.56953 0.90193 0.60232 0.0
H1516 H 0.5755 0.94942 0.69369 0.0
H1517 H 0.57851 0.93401 0.67049 0.0
C1518 C 0.06628 0.61938 0.68808 0.0
C1519 C 0.05916 0.61906 0.71728 0.0
C1520 C 0.07444 0.62994 0.67264 0.0
C1521 C 0.08991 0.6615 0.6873 0.0
H1522 H 0.08555 0.6632 0.58138 0.0
C1523 C 0.09103 0.69684 0.58334 0.0
C1524 C 0.10167 0.70654 0.59232 0.0
C1525 C 0.08858 0.68584 0.59432 0.0
C1526 C 0.08697 0.66282 0.61086 0.0
H1527 H 0.05541 0.62944 0.75476 0.0
H1528 H 0.06969 0.64785 0.72804 0.0
H1529 H 0.07655 0.64442 0.61219 0.0
H1530 H 0.11832 0.71235 0.61814 0.0
H1531 H 0.11395 0.69307 0.63785 0.0
H1532 H 0.09981 0.67994 0.68635 0.0
C1533 C 0.069 0.63999 0.71705 0.0
C1534 C 0.08191 0.65209 0.62844 0.0
C1535 C 0.06076 0.62945 0.73217 0.0
C1536 C 0.11003 0.705 0.61094 0.0
C1537 C 0.10754 0.694 0.62229 0.0
C1538 C 0.09505 0.67223 0.66967 0.0
C1539 C 0.0757 0.64032 0.68652 0.0
C1540 C 0.08298 0.65137 0.66705 0.0
C1541 C 0.09669 0.68436 0.61477 0.0
C1542 C 0.09327 0.673 0.63155 0.0
H1543 H 0.06522 0.61148 0.67612 0.0
H1544 H 0.07954 0.62998 0.64921 0.0
H1545 H 0.09093 0.66116 0.71706 0.0
H1546 H 0.08444 0.69778 0.56891 0.0
H1547 H 0.0801 0.67858 0.58851 0.0
C1548 C 0.09723 0.35554 0.71718 0.0
C1549 C 0.09513 0.34838 0.68616 0.0
C1550 C 0.09532 0.35099 0.75309 0.0
C1551 C 0.09448 0.32743 0.80659 0.0
H1552 H 0.07855 0.33539 0.88055 0.0
C1553 C 0.08258 0.30572 0.95073 0.0
C1554 C 0.08294 0.31237 0.98144 0.0
C1555 C 0.08423 0.31021 0.9148 0.0
C1556 C 0.08318 0.33322 0.86044 0.0
H1557 H 0.08926 0.33083 0.66825 0.0
H1558 H 0.08603 0.32288 0.73126 0.0
H1559 H 0.08068 0.34283 0.81743 0.0
H1560 H 0.08563 0.32904 0.99882 0.0
H1561 H 0.08888 0.33706 0.93613 0.0
H1562 H 0.09724 0.31804 0.84954 0.0
C1563 C 0.08915 0.33201 0.72767 0.0
C1564 C 0.08433 0.33744 0.82422 0.0
C1565 C 0.09093 0.33654 0.69168 0.0
C1566 C 0.08527 0.32371 0.97562 0.0
C1567 C 0.08703 0.32825 0.93966 0.0
C1568 C 0.09344 0.32331 0.84288 0.0
C1569 C 0.0914 0.33921 0.75872 0.0
C1570 C 0.08997 0.33456 0.79693 0.0
C1571 C 0.0864 0.32151 0.90874 0.0
C1572 C 0.08775 0.32613 0.87028 0.0
H1573 H 0.10047 0.3647 0.71375 0.0
H1574 H 0.0972 0.35675 0.7765 0.0
H1575 H 0.09902 0.32522 0.78622 0.0
H1576 H 0.08073 0.29692 0.95432 0.0
H1577 H 0.08351 0.3047 0.89172 0.0
C1578 C 0.67048 0.76144 0.97716 0.0
C1579 C 0.68248 0.76696 0.98207 0.0
C1580 C 0.66577 0.7595 0.9414 0.0
C1581 C 0.67182 0.75671 0.84368 0.0
H1582 H 0.64961 0.76646 0.82203 0.0
C1583 C 0.65736 0.75787 0.69362 0.0
C1584 C 0.6457 0.75438 0.68797 0.0
C1585 C 0.66186 0.75955 0.72961 0.0
C1586 C 0.65568 0.76353 0.82766 0.0
H1587 H 0.69895 0.77449 0.95362 0.0
H1588 H 0.69071 0.77093 0.89127 0.0
H1589 H 0.65704 0.76832 0.88504 0.0
H1590 H 0.62959 0.74999 0.7154 0.0
H1591 H 0.63733 0.75262 0.77807 0.0
H1592 H 0.67036 0.75172 0.78663 0.0
C1593 C 0.68496 0.76815 0.91498 0.0
C1594 C 0.65993 0.76461 0.86377 0.0
C1595 C 0.68967 0.77023 0.95065 0.0
C1596 C 0.63865 0.75276 0.7189 0.0
C1597 C 0.64311 0.75432 0.75486 0.0
C1598 C 0.66748 0.7555 0.80766 0.0
C1599 C 0.67298 0.76289 0.90999 0.0
C1600 C 0.66809 0.76127 0.87208 0.0
C1601 C 0.65475 0.75766 0.76072 0.0
C1602 C 0.65939 0.75896 0.79911 0.0
H1603 H 0.66475 0.75885 0.00092 0.0
H1604 H 0.65649 0.75535 0.93828 0.0
H1605 H 0.67803 0.75396 0.84945 0.0
H1606 H 0.66301 0.75922 0.67025 0.0
H1607 H 0.67092 0.76233 0.73301 0.0
C1608 C 0.23621 0.91588 0.96741 0.0
C1609 C 0.22534 0.91435 0.97674 0.0
C1610 C 0.23856 0.91408 0.9309 0.0
C1611 C 0.22406 0.89849 0.84564 0.0
H1612 H 0.25297 0.91959 0.79733 0.0
C1613 C 0.23868 0.8871 0.70983 0.0
C1614 C 0.24343 0.89562 0.68212 0.0
C1615 C 0.23642 0.88976 0.74519 0.0
C1616 C 0.24483 0.91368 0.8104 0.0
H1617 H 0.20845 0.90982 0.95523 0.0
H1618 H 0.21254 0.90664 0.89176 0.0
H1619 H 0.24925 0.92362 0.86062 0.0
H1620 H 0.24955 0.91362 0.66962 0.0
H1621 H 0.24562 0.91831 0.73182 0.0
H1622 H 0.21961 0.88854 0.79561 0.0
C1623 C 0.21922 0.90916 0.9126 0.0
C1624 C 0.24275 0.91592 0.84671 0.0
C1625 C 0.2169 0.91102 0.94893 0.0
C1626 C 0.24586 0.90688 0.69045 0.0
C1627 C 0.24369 0.90958 0.72605 0.0
C1628 C 0.22616 0.89621 0.80954 0.0
C1629 C 0.23006 0.91063 0.90319 0.0
C1630 C 0.23234 0.90834 0.86469 0.0
C1631 C 0.23893 0.90103 0.75374 0.0
C1632 C 0.23658 0.90375 0.79157 0.0
H1633 H 0.24288 0.91846 0.98829 0.0
H1634 H 0.24696 0.91518 0.92451 0.0
H1635 H 0.216 0.89244 0.85888 0.0
H1636 H 0.23673 0.87835 0.70428 0.0
H1637 H 0.23288 0.88303 0.76606 0.0
C1638 C 0.30672 0.08263 0.04434 0.0
C1639 C 0.312 0.0798 0.01572 0.0
C1640 C 0.31101 0.08438 0.08053 0.0
C1641 C 0.32884 0.07814 0.14393 0.0
H1642 H 0.33125 0.10415 0.19913 0.0
C1643 C 0.34103 0.0861 0.30069 0.0
C1644 C 0.34901 0.09755 0.31038 0.0
C1645 C 0.33627 0.08346 0.2649 0.0
C1646 C 0.33067 0.09687 0.18405 0.0
H1647 H 0.32589 0.0765 0.00255 0.0
H1648 H 0.33348 0.07964 0.06599 0.0
H1649 H 0.32373 0.1006 0.13597 0.0
H1650 H 0.35832 0.1152 0.29023 0.0
H1651 H 0.35007 0.11062 0.22818 0.0
H1652 H 0.33599 0.07455 0.19205 0.0
C1653 C 0.32595 0.08041 0.06039 0.0
C1654 C 0.32626 0.09477 0.14798 0.0
C1655 C 0.32166 0.0787 0.02405 0.0
C1656 C 0.35215 0.10629 0.28369 0.0
C1657 C 0.34738 0.10368 0.24816 0.0
C1658 C 0.33322 0.08021 0.18019 0.0
C1659 C 0.32068 0.08331 0.08899 0.0
C1660 C 0.32533 0.08542 0.12744 0.0
C1661 C 0.33936 0.09225 0.23835 0.0
C1662 C 0.33425 0.08966 0.20051 0.0
H1663 H 0.29921 0.08347 0.03883 0.0
H1664 H 0.30667 0.08645 0.10201 0.0
H1665 H 0.32813 0.0708 0.1289 0.0
H1666 H 0.33847 0.07919 0.3207 0.0
H1667 H 0.33005 0.07459 0.25818 0.0
C1668 C 0.88418 0.24025 0.29153 0.0
C1669 C 0.89266 0.2446 0.31942 0.0
C1670 C 0.88673 0.23792 0.25611 0.0
C1671 C 0.91064 0.24573 0.19151 0.0
H1672 H 0.88869 0.21761 0.14088 0.0
C1673 C 0.91309 0.23799 0.03407 0.0
C1674 C 0.9112 0.22704 0.02395 0.0
C1675 C 0.91121 0.24018 0.07067 0.0
C1676 C 0.89494 0.22547 0.15472 0.0
H1677 H 0.91044 0.24986 0.33224 0.0
H1678 H 0.91493 0.24579 0.26998 0.0
H1679 H 0.88484 0.22107 0.20441 0.0
H1680 H 0.90587 0.2098 0.04408 0.0
H1681 H 0.90253 0.21361 0.10775 0.0
H1682 H 0.92075 0.25011 0.14167 0.0
C1683 C 0.90632 0.24424 0.27563 0.0
C1684 C 0.89269 0.22749 0.19098 0.0
C1685 C 0.90374 0.2465 0.31127 0.0
C1686 C 0.90737 0.21833 0.05102 0.0
C1687 C 0.90541 0.22048 0.08745 0.0
C1688 C 0.91286 0.24374 0.15507 0.0
C1689 C 0.89783 0.23994 0.2477 0.0
C1690 C 0.90049 0.23765 0.20972 0.0
C1691 C 0.9073 0.23143 0.09768 0.0
C1692 C 0.90502 0.2336 0.13631 0.0
H1693 H 0.87557 0.23872 0.29696 0.0
H1694 H 0.88005 0.23474 0.23506 0.0
H1695 H 0.91676 0.25368 0.20518 0.0
H1696 H 0.91606 0.24488 0.01377 0.0
H1697 H 0.91263 0.24867 0.0777 0.0
C1698 C 0.75594 0.65858 0.31231 0.0
C1699 C 0.74946 0.64662 0.31824 0.0
C1700 C 0.75885 0.66299 0.27618 0.0
C1701 C 0.76052 0.65411 0.17907 0.0
H1702 H 0.76135 0.68268 0.15377 0.0
C1703 C 0.76232 0.67014 0.02796 0.0
C1704 C 0.77042 0.68179 0.02132 0.0
C1705 C 0.7602 0.66577 0.06423 0.0
C1706 C 0.76123 0.67473 0.16056 0.0
H1707 H 0.74073 0.62991 0.29119 0.0
H1708 H 0.74539 0.63755 0.22843 0.0
H1709 H 0.75665 0.6753 0.2171 0.0
H1710 H 0.78273 0.69798 0.04726 0.0
H1711 H 0.7789 0.69038 0.11049 0.0
H1712 H 0.76476 0.65343 0.12201 0.0
C1713 C 0.74859 0.64357 0.25144 0.0
C1714 C 0.75859 0.67052 0.19689 0.0
C1715 C 0.74584 0.63917 0.28747 0.0
C1716 C 0.77645 0.68895 0.0515 0.0
C1717 C 0.77422 0.68463 0.08771 0.0
C1718 C 0.76299 0.65825 0.14262 0.0
C1719 C 0.75521 0.65553 0.24525 0.0
C1720 C 0.7582 0.66014 0.20666 0.0
C1721 C 0.76602 0.67303 0.09446 0.0
C1722 C 0.76339 0.6686 0.13305 0.0
H1723 H 0.75889 0.66451 0.33558 0.0
H1724 H 0.76409 0.67224 0.2726 0.0
H1725 H 0.76054 0.64622 0.18563 0.0
H1726 H 0.75754 0.66444 0.00522 0.0
H1727 H 0.75379 0.6568 0.06874 0.0
C1728 C 0.90645 0.68851 0.05359 0.0
C1729 C 0.90543 0.68147 0.02321 0.0
C1730 C 0.9044 0.6841 0.08969 0.0
C1731 C 0.90285 0.65994 0.14504 0.0
H1732 H 0.88949 0.67077 0.21937 0.0
C1733 C 0.88793 0.63884 0.28935 0.0
C1734 C 0.89157 0.64632 0.32008 0.0
C1735 C 0.88968 0.64322 0.25326 0.0
C1736 C 0.89332 0.66776 0.19893 0.0
H1737 H 0.90113 0.66422 0.00657 0.0
H1738 H 0.89714 0.65636 0.06951 0.0
H1739 H 0.8917 0.6778 0.15563 0.0
H1740 H 0.89985 0.66423 0.33726 0.0
H1741 H 0.90274 0.67191 0.27382 0.0
H1742 H 0.90416 0.64967 0.18838 0.0
C1743 C 0.89984 0.66539 0.06564 0.0
C1744 C 0.89461 0.67178 0.1624 0.0
C1745 C 0.90203 0.66985 0.02951 0.0
C1746 C 0.89697 0.65828 0.31405 0.0
C1747 C 0.89857 0.66266 0.27785 0.0
C1748 C 0.90141 0.6558 0.18143 0.0
C1749 C 0.90115 0.6725 0.09628 0.0
C1750 C 0.89944 0.66796 0.13497 0.0
C1751 C 0.89498 0.65515 0.24714 0.0
C1752 C 0.89666 0.6597 0.20873 0.0
H1753 H 0.90914 0.69754 0.04962 0.0
H1754 H 0.90569 0.68991 0.1125 0.0
H1755 H 0.90682 0.65698 0.12497 0.0
H1756 H 0.88376 0.62958 0.29315 0.0
H1757 H 0.88675 0.63724 0.23009 0.0
C1758 C 0.30484 0.22479 0.04676 0.0
C1759 C 0.31172 0.22857 0.01466 0.0
C1760 C 0.30982 0.22812 0.0819 0.0
C1761 C 0.33655 0.23717 0.13232 0.0
H1762 H 0.32305 0.24785 0.20662 0.0
C1763 C 0.35696 0.25185 0.27727 0.0
C1764 C 0.34945 0.24869 0.30779 0.0
C1765 C 0.3527 0.2503 0.24105 0.0
C1766 C 0.32685 0.24475 0.18637 0.0
H1767 H 0.32921 0.2388 0.99406 0.0
H1768 H 0.33798 0.24449 0.05584 0.0
H1769 H 0.315 0.24343 0.14399 0.0
H1770 H 0.33161 0.24151 0.32449 0.0
H1771 H 0.32409 0.23846 0.26124 0.0
H1772 H 0.34816 0.2381 0.17473 0.0
C1773 C 0.32872 0.23897 0.05363 0.0
C1774 C 0.32227 0.24228 0.15047 0.0
C1775 C 0.3237 0.23575 0.01836 0.0
C1776 C 0.3376 0.24406 0.30145 0.0
C1777 C 0.33331 0.24239 0.26518 0.0
C1778 C 0.34106 0.23952 0.16832 0.0
C1779 C 0.3218 0.2352 0.08571 0.0
C1780 C 0.32703 0.2384 0.12319 0.0
C1781 C 0.34081 0.24543 0.2345 0.0
C1782 C 0.33623 0.24329 0.19587 0.0
H1783 H 0.29557 0.21927 0.04475 0.0
H1784 H 0.30431 0.22499 0.10618 0.0
H1785 H 0.3403 0.23405 0.11192 0.0
H1786 H 0.36616 0.25554 0.28135 0.0
H1787 H 0.35876 0.25296 0.21819 0.0
C1788 C 0.77032 0.07989 0.04755 0.0
C1789 C 0.76421 0.08036 0.01648 0.0
C1790 C 0.76719 0.08126 0.08339 0.0
C1791 C 0.75218 0.0935 0.13504 0.0
H1792 H 0.75088 0.07311 0.21393 0.0
C1793 C 0.73566 0.09554 0.28063 0.0
C1794 C 0.74165 0.09465 0.3113 0.0
C1795 C 0.7378 0.09304 0.24486 0.0
C1796 C 0.75132 0.07896 0.19234 0.0
H1797 H 0.75006 0.08272 0.99856 0.0
H1798 H 0.74463 0.0852 0.06137 0.0
H1799 H 0.75591 0.07045 0.15094 0.0
H1800 H 0.7544 0.09016 0.32876 0.0
H1801 H 0.75835 0.08599 0.26607 0.0
H1802 H 0.74783 0.10216 0.17633 0.0
C1803 C 0.75187 0.0838 0.05789 0.0
C1804 C 0.75418 0.07742 0.15623 0.0
C1805 C 0.75495 0.08234 0.02197 0.0
C1806 C 0.74962 0.09088 0.30562 0.0
C1807 C 0.75185 0.08846 0.2697 0.0
C1808 C 0.74939 0.09509 0.17115 0.0
C1809 C 0.75792 0.0832 0.089 0.0
C1810 C 0.75466 0.08468 0.1272 0.0
C1811 C 0.74608 0.08968 0.2388 0.0
C1812 C 0.74892 0.08784 0.20029 0.0
H1813 H 0.7775 0.07837 0.04423 0.0
H1814 H 0.77212 0.08091 0.10674 0.0
H1815 H 0.75264 0.09934 0.11339 0.0
H1816 H 0.72939 0.09833 0.28418 0.0
H1817 H 0.73301 0.09382 0.2219 0.0
C1818 C 0.64759 0.90859 0.69761 0.0
C1819 C 0.64683 0.89896 0.67927 0.0
C1820 C 0.65164 0.91113 0.73422 0.0
C1821 C 0.65528 0.89687 0.81724 0.0
H1822 H 0.67433 0.92811 0.85371 0.0
C1823 C 0.67958 0.90698 0.95597 0.0
C1824 C 0.6793 0.91526 0.9793 0.0
C1825 C 0.6751 0.90522 0.92006 0.0
C1826 C 0.6689 0.91935 0.84397 0.0
H1827 H 0.65022 0.88478 0.68408 0.0
H1828 H 0.6576 0.88938 0.74729 0.0
H1829 H 0.66813 0.92491 0.78874 0.0
H1830 H 0.67412 0.92819 0.9834 0.0
H1831 H 0.66633 0.92517 0.92003 0.0
H1832 H 0.65627 0.8913 0.87219 0.0
C1833 C 0.65476 0.89479 0.73399 0.0
C1834 C 0.66534 0.91751 0.80678 0.0
C1835 C 0.65063 0.89221 0.69761 0.0
C1836 C 0.6744 0.92172 0.96602 0.0
C1837 C 0.67002 0.92005 0.92977 0.0
C1838 C 0.6589 0.8987 0.85422 0.0
C1839 C 0.65507 0.90412 0.7531 0.0
C1840 C 0.65861 0.90623 0.79285 0.0
C1841 C 0.67033 0.91177 0.90647 0.0
C1842 C 0.66585 0.90995 0.86788 0.0
H1843 H 0.64467 0.91391 0.68418 0.0
H1844 H 0.6517 0.91833 0.74812 0.0
H1845 H 0.64984 0.88807 0.80781 0.0
H1846 H 0.68332 0.90188 0.96541 0.0
H1847 H 0.67557 0.89887 0.90262 0.0
C1848 C 0.08922 0.74968 0.68638 0.0
C1849 C 0.09591 0.74435 0.68229 0.0
C1850 C 0.08623 0.75164 0.72182 0.0
C1851 C 0.08337 0.74215 0.8196 0.0
H1852 H 0.08751 0.77233 0.84201 0.0
C1853 C 0.08227 0.75682 0.96997 0.0
C1854 C 0.07716 0.76364 0.97579 0.0
C1855 C 0.084 0.75409 0.93387 0.0
C1856 C 0.08614 0.76379 0.83613 0.0
H1857 H 0.10457 0.73672 0.71198 0.0
H1858 H 0.09933 0.7401 0.7736 0.0
H1859 H 0.09116 0.76809 0.77925 0.0
H1860 H 0.06964 0.77278 0.94849 0.0
H1861 H 0.07242 0.76784 0.88572 0.0
H1862 H 0.07832 0.73782 0.87641 0.0
C1863 C 0.09634 0.74272 0.74954 0.0
C1864 C 0.08824 0.76138 0.80013 0.0
C1865 C 0.0994 0.74085 0.71422 0.0
C1866 C 0.07368 0.76756 0.94489 0.0
C1867 C 0.07534 0.76479 0.90886 0.0
C1868 C 0.08121 0.74454 0.85557 0.0
C1869 C 0.08979 0.7482 0.75379 0.0
C1870 C 0.08697 0.75056 0.79153 0.0
C1871 C 0.08059 0.75808 0.90285 0.0
C1872 C 0.08264 0.75542 0.86437 0.0
H1873 H 0.08641 0.75246 0.66225 0.0
H1874 H 0.08108 0.7558 0.72423 0.0
H1875 H 0.08217 0.73367 0.8137 0.0
H1876 H 0.08508 0.75371 0.99328 0.0
H1877 H 0.08821 0.74903 0.93028 0.0
C1878 C 0.23288 0.32387 0.97102 0.0
C1879 C 0.22467 0.31221 0.9768 0.0
C1880 C 0.23576 0.32831 0.93498 0.0
C1881 C 0.22533 0.32216 0.83744 0.0
H1882 H 0.25707 0.34485 0.8148 0.0
C1883 C 0.24105 0.33827 0.68796 0.0
C1884 C 0.24754 0.35032 0.68408 0.0
C1885 C 0.23861 0.33323 0.7233 0.0
C1886 C 0.24817 0.33855 0.82079 0.0
H1887 H 0.21306 0.29603 0.94952 0.0
H1888 H 0.21826 0.30367 0.88671 0.0
H1889 H 0.25198 0.33685 0.87736 0.0
H1890 H 0.25683 0.36653 0.7139 0.0
H1891 H 0.25268 0.35773 0.77545 0.0
H1892 H 0.22158 0.32382 0.78064 0.0
C1893 C 0.22231 0.30948 0.9099 0.0
C1894 C 0.24522 0.334 0.85666 0.0
C1895 C 0.21937 0.30508 0.94592 0.0
C1896 C 0.2518 0.35721 0.71605 0.0
C1897 C 0.24947 0.35218 0.75128 0.0
C1898 C 0.2283 0.32663 0.80148 0.0
C1899 C 0.23056 0.32115 0.90394 0.0
C1900 C 0.23375 0.32582 0.86554 0.0
C1901 C 0.24274 0.34015 0.7553 0.0
C1902 C 0.23973 0.33494 0.79288 0.0
H1903 H 0.23707 0.32957 0.99434 0.0
H1904 H 0.242 0.33738 0.93149 0.0
H1905 H 0.21637 0.31602 0.84336 0.0
H1906 H 0.23766 0.33276 0.66377 0.0
H1907 H 0.23347 0.32393 0.72562 0.0
C1908 C 0.01961 0.44174 0.62174 0.0
C1909 C 0.0128 0.43608 0.65292 0.0
C1910 C 0.01501 0.43883 0.58598 0.0
C1911 C 0.99098 0.41544 0.53285 0.0
H1912 H 0.00042 0.43919 0.45742 0.0
C1913 C 0.96889 0.40787 0.38931 0.0
C1914 C 0.97609 0.41265 0.35819 0.0
C1915 C 0.97349 0.41034 0.42518 0.0
C1916 C -0.00219 0.43245 0.4781 0.0
H1917 H 0.99577 0.42307 0.67119 0.0
H1918 H 0.98759 0.41817 0.60863 0.0
H1919 H 0.00778 0.44452 0.52055 0.0
H1920 H 0.99375 0.42361 0.34012 0.0
H1921 H 0.00179 0.42804 0.40303 0.0
H1922 H 0.98082 0.40342 0.4903 0.0
C1923 C -0.00342 0.4247 0.61178 0.0
C1924 C 0.00202 0.43549 0.51431 0.0
C1925 C 0.00122 0.42756 0.64765 0.0
C1926 C 0.988 0.41981 0.36361 0.0
C1927 C 0.99259 0.42239 0.39956 0.0
C1928 C 0.98668 0.41242 0.49668 0.0
C1929 C 0.00345 0.43025 0.58047 0.0
C1930 C -0.00131 0.42702 0.54215 0.0
C1931 C 0.98536 0.41775 0.43071 0.0
C1932 C 0.99008 0.42089 0.46892 0.0
H1933 H 0.0286 0.44829 0.62487 0.0
H1934 H 0.02063 0.44315 0.5626 0.0
H1935 H 0.98838 0.40866 0.55335 0.0
H1936 H 0.95967 0.40231 0.38599 0.0
H1937 H 0.96769 0.40672 0.44864 0.0
C1938 C 0.57601 0.56987 0.35526 0.0
C1939 C 0.58146 0.56335 0.34982 0.0
C1940 C 0.57413 0.57256 0.3912 0.0
C1941 C 0.57236 0.56309 0.48911 0.0
H1942 H 0.57412 0.59232 0.5107 0.0
C1943 C 0.56859 0.57717 0.6381 0.0
C1944 C 0.56097 0.58144 0.64214 0.0
C1945 C 0.5717 0.57535 0.6027 0.0
C1946 C 0.57355 0.5841 0.50499 0.0
H1947 H 0.58955 0.55482 0.37751 0.0
H1948 H 0.5866 0.55978 0.44003 0.0
H1949 H 0.57861 0.58859 0.44829 0.0
H1950 H 0.55076 0.58733 0.61247 0.0
H1951 H 0.55626 0.58424 0.55074 0.0
H1952 H 0.5674 0.55868 0.546 0.0
C1953 C 0.58346 0.56256 0.41675 0.0
C1954 C 0.57608 0.58194 0.46922 0.0
C1955 C 0.58523 0.55978 0.38088 0.0
C1956 C 0.55663 0.584 0.6102 0.0
C1957 C 0.55983 0.5823 0.57487 0.0
C1958 C 0.56994 0.5653 0.52494 0.0
C1959 C 0.57777 0.56888 0.42242 0.0
C1960 C 0.57543 0.57136 0.46075 0.0
C1961 C 0.56735 0.57791 0.57075 0.0
C1962 C 0.57043 0.57579 0.53316 0.0
H1963 H 0.57298 0.57269 0.33179 0.0
H1964 H 0.56958 0.5773 0.39448 0.0
H1965 H 0.57155 0.55477 0.4835 0.0
H1966 H 0.57208 0.57514 0.66226 0.0
H1967 H 0.57757 0.57202 0.60028 0.0
C1968 C 0.40725 0.9726 0.61962 0.0
C1969 C 0.41103 0.97952 0.65167 0.0
C1970 C 0.40868 0.97761 0.58455 0.0
C1971 C 0.42704 0.00415 0.53379 0.0
H1972 H 0.40255 0.99158 0.46034 0.0
C1973 C 0.4334 0.02508 0.38963 0.0
C1974 C 0.42875 0.0177 0.35888 0.0
C1975 C 0.43051 0.02076 0.42574 0.0
C1976 C 0.40953 0.99512 0.48035 0.0
H1977 H 0.41919 0.99708 0.67226 0.0
H1978 H 0.42188 0.00588 0.61066 0.0
H1979 H 0.39885 0.98343 0.52289 0.0
H1980 H 0.4173 5e-05 0.34169 0.0
H1981 H 0.41248 0.99238 0.40479 0.0
H1982 H 0.43785 0.01556 0.49126 0.0
C1983 C 0.41777 0.99657 0.61281 0.0
C1984 C 0.40738 0.99048 0.51622 0.0
C1985 C 0.4162 0.99155 0.64801 0.0
C1986 C 0.42098 0.00594 0.36491 0.0
C1987 C 0.41818 0.00157 0.40111 0.0
C1988 C 0.42923 0.00871 0.49786 0.0
C1989 C 0.41406 0.98964 0.58074 0.0
C1990 C 0.41613 0.99492 0.54325 0.0
C1991 C 0.423 0.00892 0.43201 0.0
C1992 C 0.42052 0.00423 0.47058 0.0
H1993 H 0.40321 0.9633 0.6216 0.0
H1994 H 0.40584 0.97206 0.5603 0.0
H1995 H 0.43399 0.00763 0.55391 0.0
H1996 H 0.43934 0.03422 0.38582 0.0
H1997 H 0.43419 0.02672 0.44875 0.0
C1998 C 0.55549 0.97052 0.6137 0.0
C1999 C 0.56123 0.97782 0.64386 0.0
C2000 C 0.55831 0.97456 0.57725 0.0
C2001 C 0.58128 -0.00167 0.52131 0.0
H2002 H 0.55709 0.98809 0.44713 0.0
C2003 C 0.58667 0.02125 0.38094 0.0
C2004 C 0.58238 0.01433 0.34904 0.0
C2005 C 0.58462 0.01624 0.41615 0.0
C2006 C 0.56395 0.99091 0.46746 0.0
H2007 H 0.57432 0.99511 0.65965 0.0
H2008 H 0.57899 0.00233 0.5961 0.0
H2009 H 0.55226 0.9807 0.51042 0.0
H2010 H 0.5727 0.99674 0.32881 0.0
H2011 H 0.56892 0.98794 0.39079 0.0
H2012 H 0.59287 0.00886 0.47839 0.0
C2013 C 0.57252 0.99338 0.60044 0.0
C2014 C 0.5612 0.98667 0.50375 0.0
C2015 C 0.56978 0.98928 0.63691 0.0
C2016 C 0.57612 0.00227 0.35296 0.0
C2017 C 0.57392 0.99725 0.38834 0.0
C2018 C 0.58399 0.00267 0.48513 0.0
C2019 C 0.56686 0.98605 0.57011 0.0
C2020 C 0.56982 0.99038 0.53123 0.0
C2021 C 0.5781 0.00421 0.42026 0.0
C2022 C 0.57535 -0.00095 0.45793 0.0
H2023 H 0.54892 0.9616 0.61821 0.0
H2024 H 0.5539 0.96861 0.55469 0.0
H2025 H 0.58818 0.0012 0.54144 0.0
H2026 H 0.59154 0.03057 0.37874 0.0
H2027 H 0.58786 0.02181 0.44028 0.0
C2028 C 0.98896 0.57246 0.35703 0.0
C2029 C 0.97797 0.56299 0.34974 0.0
C2030 C 0.99325 0.57484 0.39341 0.0
C2031 C 0.9894 0.56079 0.48484 0.0
H2032 H 0.00629 0.59213 0.52235 0.0
C2033 C 0.0142 0.57192 0.62311 0.0
C2034 C 0.01377 0.58015 0.64628 0.0
C2035 C 0.0096 0.56995 0.58732 0.0
C2036 C 0.0015 0.58333 0.51237 0.0
H2037 H 0.96281 0.5487 0.3748 0.0
H2038 H 0.97023 0.5529 0.43795 0.0
H2039 H -0.00123 0.58861 0.45888 0.0
H2040 H 0.00808 0.5927 0.65027 0.0
H2041 H -0.00012 0.58915 0.58759 0.0
H2042 H 0.99194 0.55546 0.53831 0.0
C2043 C 0.97562 0.55839 0.41568 0.0
C2044 C -0.00268 0.58132 0.47588 0.0
C2045 C 0.97135 0.55602 0.37946 0.0
C2046 C 0.00852 0.58629 0.63303 0.0
C2047 C 0.00392 0.58433 0.59707 0.0
C2048 C 0.99357 0.56279 0.52121 0.0
C2049 C 0.98664 0.56778 0.42311 0.0
C2050 C 0.99122 0.57003 0.46171 0.0
C2051 C 0.00444 0.57615 0.57378 0.0
C2052 C -0.0003 0.57408 0.5354 0.0
H2053 H 0.99425 0.57799 0.33465 0.0
H2054 H 0.00182 0.58208 0.39818 0.0
H2055 H 0.98484 0.55199 0.47469 0.0
H2056 H 0.01824 0.56709 0.63245 0.0
H2057 H 0.0103 0.56372 0.56996 0.0
C2058 C 0.42696 0.42094 0.35573 0.0
C2059 C 0.43283 0.41483 0.34989 0.0
C2060 C 0.42508 0.42352 0.39186 0.0
C2061 C 0.4225 0.41397 0.48839 0.0
H2062 H 0.43085 0.44537 0.51356 0.0
C2063 C 0.42129 0.42749 0.63996 0.0
C2064 C 0.41755 0.43546 0.64587 0.0
C2065 C 0.42347 0.42514 0.60391 0.0
C2066 C 0.42831 0.43652 0.50696 0.0
H2067 H 0.4412 0.40649 0.37708 0.0
H2068 H 0.43774 0.41083 0.44004 0.0
H2069 H 0.43345 0.44073 0.45006 0.0
H2070 H 0.41309 0.4472 0.61883 0.0
H2071 H 0.41651 0.44287 0.55616 0.0
H2072 H 0.41708 0.40963 0.54483 0.0
C2073 C 0.43464 0.41365 0.41677 0.0
C2074 C 0.42983 0.43388 0.47057 0.0
C2075 C 0.43666 0.41123 0.38074 0.0
C2076 C 0.41607 0.44108 0.61516 0.0
C2077 C 0.4181 0.43864 0.57918 0.0
C2078 C 0.42083 0.41656 0.52466 0.0
C2079 C 0.42889 0.41987 0.42268 0.0
C2080 C 0.42698 0.4226 0.46099 0.0
C2081 C 0.42181 0.43062 0.57301 0.0
C2082 C 0.42374 0.42788 0.53447 0.0
H2083 H 0.42392 0.42381 0.33242 0.0
H2084 H 0.42056 0.42826 0.39573 0.0
H2085 H 0.42014 0.40516 0.4816 0.0
H2086 H 0.42254 0.42307 0.66316 0.0
H2087 H 0.42651 0.41907 0.60033 0.0
C2088 C 0.06399 0.30298 0.21564 0.0
C2089 C 0.07058 0.31033 0.18658 0.0
C2090 C 0.06444 0.30738 0.25119 0.0
C2091 C 0.07424 0.33464 0.30406 0.0
H2092 H 0.07754 0.31728 0.38475 0.0
C2093 C 0.09494 0.35495 0.44463 0.0
C2094 C 0.09014 0.34847 0.47711 0.0
C2095 C 0.0908 0.35006 0.40975 0.0
C2096 C 0.07643 0.32214 0.36266 0.0
H2097 H 0.08248 0.32811 0.17151 0.0
H2098 H 0.08346 0.33578 0.23363 0.0
H2099 H 0.0733 0.30916 0.3224 0.0
H2100 H 0.07707 0.3319 0.49867 0.0
H2101 H 0.06984 0.32332 0.43752 0.0
H2102 H 0.07778 0.34779 0.34432 0.0
C2103 C 0.0778 0.32663 0.22897 0.0
C2104 C 0.07399 0.31748 0.32688 0.0
C2105 C 0.07729 0.32223 0.19338 0.0
C2106 C 0.08096 0.33708 0.47407 0.0
C2107 C 0.07685 0.33216 0.43912 0.0
C2108 C 0.07674 0.33932 0.33984 0.0
C2109 C 0.07154 0.31923 0.25847 0.0
C2110 C 0.07304 0.32375 0.29702 0.0
C2111 C 0.0818 0.33858 0.40659 0.0
C2112 C 0.07805 0.3332 0.36939 0.0
H2113 H 0.05867 0.29377 0.21113 0.0
H2114 H 0.05936 0.30147 0.27312 0.0
H2115 H 0.07337 0.33961 0.28182 0.0
H2116 H 0.10202 0.36376 0.4461 0.0
H2117 H 0.09489 0.35518 0.38521 0.0
C2118 C 0.65759 0.74921 0.47941 0.0
C2119 C 0.64554 0.74354 0.48299 0.0
C2120 C 0.66265 0.75028 0.44463 0.0
C2121 C 0.65702 0.73926 0.3481 0.0
H2122 H 0.68142 0.77023 0.32424 0.0
C2123 C 0.67248 0.75476 0.19779 0.0
C2124 C 0.68425 0.76267 0.19238 0.0
C2125 C 0.66808 0.75132 0.23369 0.0
C2126 C 0.67476 0.76148 0.33056 0.0
H2127 H 0.62932 0.7341 0.45339 0.0
H2128 H 0.63817 0.73601 0.39256 0.0
H2129 H 0.67327 0.76598 0.38641 0.0
H2130 H 0.70073 0.77276 0.22 0.0
H2131 H 0.69313 0.76659 0.28241 0.0
H2132 H 0.65847 0.73481 0.29195 0.0
C2133 C 0.6437 0.73957 0.41664 0.0
C2134 C 0.67009 0.75905 0.36625 0.0
C2135 C 0.63864 0.73853 0.45143 0.0
C2136 C 0.6916 0.76674 0.22334 0.0
C2137 C 0.68723 0.76325 0.25913 0.0
C2138 C 0.66175 0.74168 0.31233 0.0
C2139 C 0.65576 0.74568 0.41276 0.0
C2140 C 0.66112 0.74794 0.37537 0.0
C2141 C 0.67539 0.75568 0.26481 0.0
C2142 C 0.67063 0.75285 0.30311 0.0
H2143 H 0.66312 0.75311 0.50329 0.0
H2144 H 0.67197 0.75489 0.44256 0.0
H2145 H 0.65018 0.7306 0.35444 0.0
H2146 H 0.66662 0.75149 0.17438 0.0
H2147 H 0.6589 0.74555 0.23709 0.0
C2148 C 0.24069 0.9155 0.18711 0.0
C2149 C 0.2333 0.92008 0.18461 0.0
C2150 C 0.24494 0.91453 0.22161 0.0
C2151 C 0.2489 0.92456 0.31944 0.0
H2152 H 0.24615 0.89487 0.34073 0.0
C2153 C 0.24784 0.90807 0.46843 0.0
C2154 C 0.25299 0.9013 0.47487 0.0
C2155 C 0.24726 0.91168 0.43244 0.0
C2156 C 0.24718 0.90329 0.33511 0.0
H2157 H 0.22485 0.9276 0.21597 0.0
H2158 H 0.23217 0.92583 0.27609 0.0
H2159 H 0.24205 0.89892 0.27844 0.0
H2160 H 0.26201 0.89343 0.44907 0.0
H2161 H 0.26114 0.89986 0.38639 0.0
H2162 H 0.25381 0.92882 0.37642 0.0
C2163 C 0.23479 0.92308 0.25147 0.0
C2164 C 0.24483 0.90561 0.29936 0.0
C2165 C 0.23052 0.92402 0.21704 0.0
C2166 C 0.2579 0.89856 0.4449 0.0
C2167 C 0.25736 0.9022 0.40897 0.0
C2168 C 0.25127 0.92224 0.35523 0.0
C2169 C 0.2419 0.91817 0.25423 0.0
C2170 C 0.24549 0.9162 0.29126 0.0
C2171 C 0.25185 0.90862 0.40221 0.0
C2172 C 0.25027 0.91152 0.3636 0.0
H2173 H 0.24301 0.91244 0.16253 0.0
H2174 H 0.25051 0.91082 0.22282 0.0
H2175 H 0.24964 0.93286 0.3139 0.0
H2176 H 0.24398 0.91031 0.49102 0.0
H2177 H 0.24285 0.91651 0.42816 0.0
C2178 C 0.3585 0.09409 0.54824 0.0
C2179 C 0.3511 0.09134 0.51754 0.0
C2180 C 0.35402 0.09041 0.58385 0.0
C2181 C 0.32755 0.07036 0.63614 0.0
H2182 H 0.34133 0.09372 0.7129 0.0
C2183 C 0.30521 0.06804 0.77597 0.0
C2184 C 0.31212 0.07216 0.80794 0.0
C2185 C 0.31022 0.06907 0.74109 0.0
C2186 C 0.33749 0.08702 0.69199 0.0
H2187 H 0.33324 0.08221 0.49976 0.0
H2188 H 0.32538 0.07591 0.56212 0.0
H2189 H 0.34959 0.0978 0.65085 0.0
H2190 H 0.32965 0.08019 0.82873 0.0
H2191 H 0.33841 0.08192 0.76785 0.0
H2192 H 0.31528 0.05968 0.67736 0.0
C2193 C 0.33466 0.0808 0.55864 0.0
C2194 C 0.34224 0.08936 0.65636 0.0
C2195 C 0.33915 0.08445 0.52293 0.0
C2196 C 0.32411 0.07699 0.80454 0.0
C2197 C 0.32913 0.07803 0.76967 0.0
C2198 C 0.32278 0.06802 0.67186 0.0
C2199 C 0.34204 0.08394 0.5896 0.0
C2200 C 0.33728 0.0811 0.62792 0.0
C2201 C 0.32226 0.07426 0.73747 0.0
C2202 C 0.32766 0.07637 0.70011 0.0
H2203 H 0.36776 0.09931 0.5449 0.0
H2204 H 0.35996 0.09278 0.60699 0.0
H2205 H 0.32361 0.06375 0.61496 0.0
H2206 H 0.29594 0.06427 0.77775 0.0
H2207 H 0.3047 0.06618 0.71683 0.0
C2208 C 0.9217 0.23373 0.7844 0.0
C2209 C 0.91733 0.23598 0.81684 0.0
C2210 C 0.92076 0.23812 0.75021 0.0
C2211 C 0.90285 0.24762 0.70211 0.0
H2212 H 0.92676 0.25805 0.62694 0.0
C2213 C 0.89619 0.26104 0.55643 0.0
C2214 C 0.89938 0.25644 0.52665 0.0
C2215 C 0.89968 0.26052 0.59262 0.0
C2216 C 0.91999 0.25512 0.6476 0.0
H2217 H 0.90886 0.24488 0.83921 0.0
H2218 H 0.90725 0.25261 0.77935 0.0
H2219 H 0.93055 0.25362 0.68941 0.0
H2220 H 0.90904 0.24804 0.51112 0.0
H2221 H 0.91502 0.24699 0.57431 0.0
H2222 H 0.89218 0.24881 0.66021 0.0
C2223 C 0.9113 0.24735 0.78035 0.0
C2224 C 0.92216 0.25259 0.68336 0.0
C2225 C 0.91227 0.24297 0.81461 0.0
C2226 C 0.90646 0.25167 0.53354 0.0
C2227 C 0.90994 0.25114 0.56974 0.0
C2228 C 0.90068 0.25013 0.66638 0.0
C2229 C 0.91541 0.24485 0.7477 0.0
C2230 C 0.91355 0.24863 0.71084 0.0
C2231 C 0.90642 0.25537 0.59978 0.0
C2232 C 0.90915 0.25374 0.63854 0.0
H2233 H 0.92565 0.22837 0.78525 0.0
H2234 H 0.92388 0.23591 0.72555 0.0
H2235 H 0.89598 0.24443 0.72247 0.0
H2236 H 0.89079 0.26483 0.55193 0.0
H2237 H 0.89697 0.26401 0.61508 0.0
C2238 C 0.75147 0.67144 0.81026 0.0
C2239 C 0.75713 0.68337 0.81705 0.0
C2240 C 0.74738 0.66712 0.77469 0.0
C2241 C 0.75325 0.67624 0.6771 0.0
H2242 H 0.72554 0.64695 0.65841 0.0
C2243 C 0.74113 0.6576 0.52918 0.0
C2244 C 0.73793 0.64591 0.52583 0.0
C2245 C 0.74176 0.66242 0.56418 0.0
C2246 C 0.73332 0.65513 0.66322 0.0
H2247 H 0.76241 0.70009 0.79253 0.0
H2248 H 0.75513 0.69256 0.73063 0.0
H2249 H 0.72962 0.65494 0.72123 0.0
H2250 H 0.73247 0.63001 0.55627 0.0
H2251 H 0.73369 0.63844 0.61724 0.0
H2252 H 0.75712 0.67631 0.61945 0.0
C2253 C 0.75404 0.68655 0.75255 0.0
C2254 C 0.73566 0.6597 0.69918 0.0
C2255 C 0.75816 0.69085 0.78806 0.0
C2256 C 0.73497 0.63905 0.55797 0.0
C2257 C 0.7356 0.64387 0.59292 0.0
C2258 C 0.75091 0.67167 0.6412 0.0
C2259 C 0.74885 0.67466 0.74524 0.0
C2260 C 0.74574 0.67023 0.70663 0.0
C2261 C 0.73919 0.65565 0.5965 0.0
C2262 C 0.74101 0.66098 0.63393 0.0
H2263 H 0.75056 0.66546 0.83208 0.0
H2264 H 0.74351 0.65793 0.76995 0.0
H2265 H 0.76119 0.68427 0.68193 0.0
H2266 H 0.7434 0.66308 0.50486 0.0
H2267 H 0.74441 0.6715 0.56597 0.0
C2268 C 0.91029 0.65757 0.53137 0.0
C2269 C 0.90177 0.6459 0.52813 0.0
C2270 C 0.91451 0.66242 0.56632 0.0
C2271 C 0.91574 0.65516 0.66529 0.0
H2272 H 0.91715 0.68437 0.68413 0.0
C2273 C 0.91407 0.67147 0.81238 0.0
C2274 C 0.92035 0.6834 0.81922 0.0
C2275 C 0.91383 0.66717 0.77679 0.0
C2276 C 0.91703 0.67632 0.67925 0.0
H2277 H 0.89127 0.63004 0.55872 0.0
H2278 H 0.89853 0.63851 0.61961 0.0
H2279 H 0.91316 0.67639 0.62165 0.0
H2280 H 0.9318 0.70013 0.79477 0.0
H2281 H 0.93151 0.69262 0.7328 0.0
H2282 H 0.91933 0.65498 0.72323 0.0
C2283 C 0.90206 0.64391 0.59524 0.0
C2284 C 0.91474 0.67174 0.64337 0.0
C2285 C 0.89784 0.63907 0.56034 0.0
C2286 C 0.92681 0.6909 0.79025 0.0
C2287 C 0.92659 0.6866 0.75471 0.0
C2288 C 0.91804 0.65974 0.70123 0.0
C2289 C 0.9103 0.65568 0.5987 0.0
C2290 C 0.91388 0.66102 0.63607 0.0
C2291 C 0.91989 0.67472 0.74736 0.0
C2292 C 0.91853 0.67029 0.70872 0.0
H2293 H 0.91352 0.66302 0.50699 0.0
H2294 H 0.92097 0.67148 0.56803 0.0
H2295 H 0.9153 0.64696 0.66045 0.0
H2296 H 0.90901 0.66549 0.83419 0.0
H2297 H 0.90849 0.65798 0.77202 0.0
C2298 C 0.32005 0.23903 0.79948 0.0
C2299 C 0.30816 0.23205 0.80571 0.0
C2300 C 0.32427 0.24258 0.76353 0.0
C2301 C 0.31621 0.23428 0.66568 0.0
H2302 H 0.34336 0.26396 0.64605 0.0
C2303 C 0.33529 0.24783 0.51841 0.0
C2304 C 0.34721 0.252 0.51618 0.0
C2305 C 0.33001 0.24659 0.55293 0.0
C2306 C 0.33578 0.25564 0.65117 0.0
H2307 H 0.29131 0.22369 0.77955 0.0
H2308 H 0.29865 0.2301 0.71688 0.0
H2309 H 0.33493 0.25966 0.70822 0.0
H2310 H 0.36301 0.25851 0.54802 0.0
H2311 H 0.35379 0.25637 0.60821 0.0
H2312 H 0.31714 0.23023 0.60872 0.0
C2313 C 0.30475 0.23262 0.73959 0.0
C2314 C 0.33097 0.25316 0.68677 0.0
C2315 C 0.30053 0.22899 0.77551 0.0
C2316 C 0.3538 0.25525 0.54892 0.0
C2317 C 0.34854 0.2541 0.58336 0.0
C2318 C 0.32097 0.2368 0.63007 0.0
C2319 C 0.31668 0.23931 0.73309 0.0
C2320 C 0.32124 0.24237 0.6946 0.0
C2321 C 0.33657 0.24959 0.58577 0.0
C2322 C 0.33091 0.24742 0.6226 0.0
H2323 H 0.32612 0.24149 0.82225 0.0
H2324 H 0.33352 0.24759 0.75951 0.0
H2325 H 0.30884 0.22582 0.67083 0.0
H2326 H 0.33001 0.24527 0.49359 0.0
H2327 H 0.32077 0.24318 0.55399 0.0
C2328 C 0.76432 0.07091 0.77519 0.0
C2329 C 0.75864 0.07198 0.80647 0.0
C2330 C 0.76105 0.07218 0.73946 0.0
C2331 C 0.73809 0.07178 0.68288 0.0
H2332 H 0.76337 0.0947 0.62337 0.0
C2333 C 0.73503 0.08234 0.52668 0.0
C2334 C 0.7396 0.09417 0.51946 0.0
C2335 C 0.73645 0.07864 0.5617 0.0
C2336 C 0.75624 0.08826 0.63965 0.0
H2337 H 0.74472 0.07464 0.82486 0.0
H2338 H 0.7389 0.07672 0.76204 0.0
H2339 H 0.7673 0.08953 0.68451 0.0
H2340 H 0.74911 0.11135 0.54318 0.0
H2341 H 0.7518 0.10489 0.60377 0.0
H2342 H 0.72705 0.07057 0.63765 0.0
C2343 C 0.74591 0.07494 0.76536 0.0
C2344 C 0.75849 0.08525 0.67448 0.0
C2345 C 0.74927 0.0738 0.80124 0.0
C2346 C 0.74549 0.10218 0.54789 0.0
C2347 C 0.74707 0.0985 0.58252 0.0
C2348 C 0.73586 0.07466 0.64762 0.0
C2349 C 0.75196 0.07441 0.73422 0.0
C2350 C 0.74944 0.07707 0.69659 0.0
C2351 C 0.74264 0.08672 0.58968 0.0
C2352 C 0.74491 0.08304 0.62597 0.0
H2353 H 0.77155 0.06947 0.7783 0.0
H2354 H 0.76579 0.07163 0.71588 0.0
H2355 H 0.73098 0.06543 0.6994 0.0
H2356 H 0.73042 0.07599 0.50527 0.0
H2357 H 0.73299 0.0695 0.5666 0.0
C2358 C 0.68723 0.9253 0.21765 0.0
C2359 C 0.68029 0.92156 0.18566 0.0
C2360 C 0.68231 0.92434 0.25262 0.0
C2361 C 0.65492 0.90728 0.30203 0.0
H2362 H 0.67001 0.93017 0.37951 0.0
C2363 C 0.63481 0.9008 0.44707 0.0
C2364 C 0.64229 0.90305 0.47729 0.0
C2365 C 0.63919 0.90444 0.41136 0.0
C2366 C 0.66574 0.92367 0.35821 0.0
H2367 H 0.66281 0.91425 0.16498 0.0
H2368 H 0.6542 0.91265 0.22614 0.0
H2369 H 0.67806 0.93408 0.31675 0.0
H2370 H 0.66021 0.91128 0.49415 0.0
H2371 H 0.6679 0.91753 0.43156 0.0
H2372 H 0.64275 0.89676 0.34342 0.0
C2373 C 0.66343 0.91619 0.22421 0.0
C2374 C 0.67034 0.92592 0.32227 0.0
C2375 C 0.66837 0.91715 0.18919 0.0
C2376 C 0.65425 0.90943 0.47135 0.0
C2377 C 0.65864 0.91305 0.43553 0.0
C2378 C 0.65034 0.90504 0.33788 0.0
C2379 C 0.67034 0.91962 0.25637 0.0
C2380 C 0.66504 0.91769 0.29387 0.0
C2381 C 0.65115 0.91039 0.40501 0.0
C2382 C 0.65574 0.91316 0.36649 0.0
H2383 H 0.69646 0.92873 0.21581 0.0
H2384 H 0.68786 0.92694 0.27683 0.0
H2385 H 0.65075 0.90067 0.28099 0.0
H2386 H 0.62554 0.89598 0.45083 0.0
H2387 H 0.63319 0.90245 0.38859 0.0
C2388 C 0.09987 0.74098 0.4421 0.0
C2389 C 0.09284 0.73866 0.47355 0.0
C2390 C 0.09586 0.74163 0.40693 0.0
C2391 C 0.0743 0.74695 0.3612 0.0
H2392 H 0.08506 0.73843 0.27326 0.0
C2393 C 0.07173 0.74816 0.18949 0.0
C2394 C 0.073 0.75919 0.18582 0.0
C2395 C 0.07233 0.74396 0.22456 0.0
C2396 C 0.08179 0.74069 0.29744 0.0
H2397 H 0.07596 0.73484 0.49279 0.0
H2398 H 0.0688 0.73571 0.43105 0.0
H2399 H 0.08904 0.73349 0.33437 0.0
H2400 H 0.07583 0.77444 0.21584 0.0
H2401 H 0.07724 0.76733 0.27654 0.0
H2402 H 0.06688 0.75398 0.32426 0.0
C2403 C 0.07752 0.73727 0.43368 0.0
C2404 C 0.08422 0.738 0.33258 0.0
C2405 C 0.08159 0.73671 0.46902 0.0
C2406 C 0.07476 0.76588 0.2178 0.0
C2407 C 0.07547 0.76174 0.25271 0.0
C2408 C 0.07176 0.74954 0.32604 0.0
C2409 C 0.08466 0.73986 0.40223 0.0
C2410 C 0.08079 0.74138 0.36493 0.0
C2411 C 0.07431 0.75075 0.25659 0.0
C2412 C 0.07575 0.74673 0.29373 0.0
H2413 H 0.10861 0.74257 0.44471 0.0
H2414 H 0.1017 0.74387 0.38358 0.0
H2415 H 0.07155 0.74975 0.38541 0.0
H2416 H 0.07029 0.74279 0.1653 0.0
H2417 H 0.07126 0.7354 0.22654 0.0
C2418 C 0.238 0.32588 0.18719 0.0
C2419 C 0.2322 0.3138 0.18401 0.0
C2420 C 0.24169 0.33114 0.22189 0.0
C2421 C 0.24781 0.32633 0.31829 0.0
H2422 H 0.23958 0.34954 0.34244 0.0
C2423 C 0.24772 0.34148 0.46869 0.0
C2424 C 0.25105 0.35312 0.47427 0.0
C2425 C 0.24665 0.33711 0.43271 0.0
C2426 C 0.24214 0.34323 0.33602 0.0
H2427 H 0.22611 0.29777 0.21432 0.0
H2428 H 0.23256 0.30697 0.27492 0.0
H2429 H 0.23587 0.34129 0.28032 0.0
H2430 H 0.25627 0.36943 0.44677 0.0
H2431 H 0.25464 0.36189 0.38412 0.0
H2432 H 0.25403 0.32823 0.37414 0.0
C2433 C 0.23429 0.31237 0.25061 0.0
C2434 C 0.23999 0.33849 0.30039 0.0
C2435 C 0.23054 0.30711 0.21595 0.0
C2436 C 0.25358 0.36038 0.4433 0.0
C2437 C 0.25259 0.35605 0.40739 0.0
C2438 C 0.25003 0.33112 0.35395 0.0
C2439 C 0.23972 0.32443 0.25403 0.0
C2440 C 0.24271 0.32993 0.29123 0.0
C2441 C 0.24895 0.34432 0.40162 0.0
C2442 C 0.24712 0.33956 0.36332 0.0
H2443 H 0.23943 0.33126 0.16301 0.0
H2444 H 0.24598 0.34047 0.22365 0.0
H2445 H 0.25011 0.31982 0.31187 0.0
H2446 H 0.2457 0.33568 0.49209 0.0
H2447 H 0.2437 0.32801 0.42928 0.0
C2448 C 0.00566 0.41944 0.86742 0.0
C2449 C 0.01688 0.4287 0.86171 0.0
C2450 C 0.00137 0.41607 0.9035 0.0
C2451 C 0.00409 0.42862 0.99423 0.0
H2452 H 0.98768 0.39722 0.03173 0.0
C2453 C 0.97372 0.41499 0.11986 0.0
C2454 C 0.97627 0.40964 0.14902 0.0
C2455 C 0.9791 0.41665 0.08543 0.0
C2456 C 0.99231 0.40602 0.02156 0.0
H2457 H 0.03257 0.44142 0.88915 0.0
H2458 H 0.025 0.43568 0.95199 0.0
H2459 H -0.00343 0.40111 0.96967 0.0
H2460 H 0.98618 0.40153 0.16481 0.0
H2461 H 0.99541 0.40418 0.10373 0.0
H2462 H -0.00047 0.43351 0.04535 0.0
C2463 C 0.01955 0.43101 0.92862 0.0
C2464 C -0.00268 0.40823 0.98616 0.0
C2465 C 0.02388 0.43427 0.89266 0.0
C2466 C 0.9841 0.40571 0.1428 0.0
C2467 C 0.98933 0.40718 0.10796 0.0
C2468 C -0.00108 0.42639 0.02917 0.0
C2469 C 0.0082 0.42203 0.93435 0.0
C2470 C 0.00323 0.41955 0.97222 0.0
C2471 C 0.98698 0.41281 0.07923 0.0
C2472 C 0.99294 0.41508 0.04305 0.0
H2473 H 9e-05 0.41499 0.84404 0.0
H2474 H 0.99257 0.40916 0.90725 0.0
H2475 H 0.00852 0.43741 0.98397 0.0
H2476 H 0.96774 0.41812 0.12386 0.0
H2477 H 0.97711 0.42095 0.06357 0.0
C2478 C 0.58719 0.56327 0.10845 0.0
C2479 C 0.58418 0.56698 0.14091 0.0
C2480 C 0.58592 0.56711 0.07364 0.0
C2481 C 0.56892 0.57767 0.02604 0.0
H2482 H 0.59163 0.58598 0.94774 0.0
C2483 C 0.56192 0.5916 0.8818 0.0
C2484 C 0.5647 0.58699 0.85107 0.0
C2485 C 0.56541 0.59059 0.91749 0.0
C2486 C 0.58517 0.58359 0.96923 0.0
H2487 H 0.57771 0.57779 0.16255 0.0
H2488 H 0.57543 0.58446 0.10157 0.0
H2489 H 0.59574 0.5816 0.00987 0.0
H2490 H 0.57354 0.57796 0.83335 0.0
H2491 H 0.57942 0.57595 0.89577 0.0
H2492 H 0.55818 0.57929 0.98542 0.0
C2493 C 0.57873 0.57855 0.10311 0.0
C2494 C 0.58754 0.58112 0.0048 0.0
C2495 C 0.58008 0.57477 0.13797 0.0
C2496 C 0.57129 0.58162 0.85655 0.0
C2497 C 0.57472 0.58053 0.89231 0.0
C2498 C 0.56651 0.58006 0.99047 0.0
C2499 C 0.58154 0.57468 0.07058 0.0
C2500 C 0.57939 0.57804 0.03347 0.0
C2501 C 0.57168 0.58487 0.92327 0.0
C2502 C 0.57457 0.58296 0.96154 0.0
H2503 H 0.59039 0.55727 0.10988 0.0
H2504 H 0.58804 0.56388 0.04905 0.0
H2505 H 0.5624 0.57514 0.04744 0.0
H2506 H 0.55692 0.59588 0.87836 0.0
H2507 H 0.56311 0.59423 0.9406 0.0
C2508 C 0.41724 0.00412 0.1474 0.0
C2509 C 0.4248 0.01607 0.15028 0.0
C2510 C 0.41354 -0.00106 0.11255 0.0
C2511 C 0.41082 0.0048 0.01394 0.0
H2512 H 0.41477 0.97845 0.99518 0.0
C2513 C 0.41186 0.9888 0.86571 0.0
C2514 C 0.40731 0.97692 0.86016 0.0
C2515 C 0.4126 0.99318 0.90151 0.0
C2516 C 0.41339 0.98566 2e-05 0.0
H2517 H 0.43404 0.03204 0.11921 0.0
H2518 H 0.42752 0.02301 0.05842 0.0
H2519 H 0.41812 0.98669 0.05728 0.0
H2520 H 0.39957 0.96024 0.88739 0.0
H2521 H 0.40058 0.96782 0.94965 0.0
H2522 H 0.40611 0.0038 0.95665 0.0
C2523 C 0.42444 0.01765 0.08304 0.0
C2524 C 0.41533 0.99039 0.03566 0.0
C2525 C 0.42823 0.0228 0.11782 0.0
C2526 C 0.40322 0.96946 0.89088 0.0
C2527 C 0.40386 0.97382 0.9266 0.0
C2528 C 0.40877 1e-05 0.97831 0.0
C2529 C 0.41723 0.00564 0.08 0.0
C2530 C 0.41421 0.0001 0.04288 0.0
C2531 C 0.40872 0.98575 0.93246 0.0
C2532 C 0.41017 0.99046 0.97079 0.0
H2533 H 0.41445 -0.00128 0.17198 0.0
H2534 H 0.4079 0.98968 0.11101 0.0
H2535 H 0.40978 0.01222 0.01885 0.0
H2536 H 0.4151 0.99475 0.84251 0.0
H2537 H 0.41653 0.00243 0.90498 0.0
C2538 C 0.57716 0.99209 0.85337 0.0
C2539 C 0.57069 0.98001 0.85055 0.0
C2540 C 0.58126 0.99737 0.88787 0.0
C2541 C 0.5869 0.99224 0.9847 0.0
H2542 H 0.57997 0.01641 0.00802 0.0
C2543 C 0.58592 0.00705 0.13499 0.0
C2544 C 0.58923 0.01867 0.14093 0.0
C2545 C 0.5854 0.00291 0.09893 0.0
C2546 C 0.58219 0.00984 0.00187 0.0
H2547 H 0.56389 0.96397 0.88123 0.0
H2548 H 0.57105 0.97317 0.94146 0.0
H2549 H 0.57626 0.00826 0.94585 0.0
H2550 H 0.59516 0.03521 0.11415 0.0
H2551 H 0.59454 0.02809 0.05144 0.0
H2552 H 0.59274 0.99376 0.04093 0.0
C2553 C 0.57299 0.97857 0.91704 0.0
C2554 C 0.58004 0.00515 0.96616 0.0
C2555 C 0.56883 0.9733 0.88258 0.0
C2556 C 0.59246 0.02618 0.11036 0.0
C2557 C 0.59204 0.02207 0.0744 0.0
C2558 C 0.58913 0.99699 0.02044 0.0
C2559 C 0.57903 0.99066 0.92017 0.0
C2560 C 0.58225 0.99621 0.95729 0.0
C2561 C 0.58826 0.01033 0.06813 0.0
C2562 C 0.58667 0.00576 0.02958 0.0
H2563 H 0.57877 0.99749 0.82911 0.0
H2564 H 0.58602 0.0067 0.88938 0.0
H2565 H 0.58879 0.98543 0.97853 0.0
H2566 H 0.58337 0.00106 0.15806 0.0
H2567 H 0.58233 0.99379 0.09515 0.0
C2568 C 0.02249 0.59379 0.87994 0.0
C2569 C 0.01566 0.58943 0.84789 0.0
C2570 C 0.01738 0.59267 0.91467 0.0
C2571 C 0.99029 0.57398 0.96347 0.0
H2572 H 0.00378 0.59707 0.04117 0.0
C2573 C 0.96967 0.56607 0.10835 0.0
C2574 C 0.9772 0.56906 0.13881 0.0
C2575 C 0.97398 0.56976 0.07259 0.0
C2576 C -4e-05 0.59051 0.01981 0.0
H2577 H -0.00185 0.58096 0.82675 0.0
H2578 H 0.9892 0.57908 0.88746 0.0
H2579 H 0.0119 0.60159 0.97854 0.0
H2580 H 0.99511 0.57853 0.15592 0.0
H2581 H 0.00268 0.58486 0.09325 0.0
H2582 H 0.97851 0.56281 0.0047 0.0
C2583 C -0.00149 0.58321 0.88579 0.0
C2584 C 0.00459 0.59311 0.98394 0.0
C2585 C 0.00363 0.58435 0.85101 0.0
C2586 C 0.98911 0.5761 0.13295 0.0
C2587 C 0.99343 0.57977 0.09708 0.0
C2588 C 0.98567 0.57138 0.99926 0.0
C2589 C 0.00532 0.58715 0.9181 0.0
C2590 C -0.00012 0.58482 0.95546 0.0
C2591 C 0.98591 0.57649 0.06641 0.0
C2592 C 0.99051 0.57957 0.02796 0.0
H2593 H 0.03178 0.59775 0.8784 0.0
H2594 H 0.02286 0.59569 0.93901 0.0
H2595 H 0.98658 0.56732 0.94238 0.0
H2596 H 0.96044 0.56072 0.11204 0.0
H2597 H 0.96794 0.56725 0.04969 0.0
C2598 C 0.41503 0.40843 0.13912 0.0
C2599 C 0.42341 0.40508 0.14211 0.0
C2600 C 0.41083 0.40918 0.10429 0.0
C2601 C 0.40916 0.40065 0.00534 0.0
H2602 H 0.40873 0.42898 0.98686 0.0
C2603 C 0.41055 0.41846 0.85814 0.0
C2604 C 0.40462 0.42448 0.85173 0.0
C2605 C 0.4109 0.41447 0.89374 0.0
C2606 C 0.40858 0.42091 0.99164 0.0
H2607 H 0.43364 0.39948 0.11122 0.0
H2608 H 0.42639 0.40087 0.05048 0.0
H2609 H 0.4127 0.42482 0.04913 0.0
H2610 H 0.3939 0.43052 0.87703 0.0
H2611 H 0.39433 0.42338 0.939 0.0
H2612 H 0.40526 0.39687 0.94755 0.0
C2613 C 0.42298 0.40282 0.07498 0.0
C2614 C 0.41086 0.41853 0.0274 0.0
C2615 C 0.42719 0.4021 0.10977 0.0
C2616 C 0.39862 0.42599 0.88121 0.0
C2617 C 0.39893 0.42196 0.91675 0.0
C2618 C 0.40685 0.40302 0.96953 0.0
C2619 C 0.4149 0.40656 0.07178 0.0
C2620 C 0.41136 0.40847 0.03455 0.0
C2621 C 0.40528 0.41637 0.92363 0.0
C2622 C 0.4067 0.41327 0.96216 0.0
H2623 H 0.41191 0.41073 0.16361 0.0
H2624 H 0.4045 0.41195 0.10274 0.0
H2625 H 0.40933 0.39274 0.01011 0.0
H2626 H 0.41526 0.41718 0.83593 0.0
H2627 H 0.41597 0.41031 0.89811 0.0
loop_
_geom_bond_atom_site_label_1
_geom_bond_atom_site_label_2
_geom_bond_distance
_geom_bond_site_symmetry_2
_ccdc_geom_bond_type
In0 O1 2.294 . S
In0 O2 2.326 . S
In0 O6 2.266 . S
In0 O7 2.326 . S
In0 O8 2.266 . S
In0 O9 2.326 . S
In0 O11 2.294 . S
In0 O12 2.326 . S
O1 In0 2.294 . S
O1 C10 1.240 . S
O2 In0 2.326 . S
O2 C10 1.252 . S
C3 O6 1.252 . S
C3 O7 1.260 . S
C4 O11 1.240 . S
C4 O12 1.252 . S
C5 O8 1.252 . S
C5 O9 1.260 . S
O6 In0 2.266 . S
O6 C3 1.252 . S
O7 In0 2.326 . S
O7 C3 1.260 . S
O8 In0 2.266 . S
O8 C5 1.252 . S
O9 In0 2.326 . S
O9 C5 1.260 . S
C10 O1 1.240 . S
C10 O2 1.252 . S
O11 In0 2.294 . S
O11 C4 1.240 . S
O12 In0 2.326 . S
O12 C4 1.252 . S
In13 O14 2.294 . S
In13 O15 2.326 . S
In13 O19 2.266 . S
In13 O20 2.326 . S
In13 O21 2.266 . S
In13 O22 2.326 . S
In13 O24 2.294 . S
In13 O25 2.326 . S
O14 In13 2.294 . S
O14 C23 1.240 . S
O15 In13 2.326 . S
O15 C23 1.252 . S
C16 O19 1.252 . S
C16 O20 1.260 . S
C17 O24 1.240 . S
C17 O25 1.252 . S
C18 O21 1.252 . S
C18 O22 1.260 . S
O19 In13 2.266 . S
O19 C16 1.252 . S
O20 In13 2.326 . S
O20 C16 1.260 . S
O21 In13 2.266 . S
O21 C18 1.252 . S
O22 In13 2.326 . S
O22 C18 1.260 . S
C23 O14 1.240 . S
C23 O15 1.252 . S
O24 In13 2.294 . S
O24 C17 1.240 . S
O25 In13 2.326 . S
O25 C17 1.252 . S
In26 O27 2.294 . S
In26 O28 2.326 . S
In26 O32 2.266 . S
In26 O33 2.326 . S
In26 O34 2.266 . S
In26 O35 2.326 . S
In26 O37 2.294 . S
In26 O38 2.326 . S
O27 In26 2.294 . S
O27 C36 1.240 . S
O28 In26 2.326 . S
O28 C36 1.252 . S
C29 O32 1.252 . S
C29 O33 1.260 . S
C30 O37 1.240 . S
C30 O38 1.252 . S
C31 O34 1.252 . S
C31 O35 1.260 . S
O32 In26 2.266 . S
O32 C29 1.252 . S
O33 In26 2.326 . S
O33 C29 1.260 . S
O34 In26 2.266 . S
O34 C31 1.252 . S
O35 In26 2.326 . S
O35 C31 1.260 . S
C36 O27 1.240 . S
C36 O28 1.252 . S
O37 In26 2.294 . S
O37 C30 1.240 . S
O38 In26 2.326 . S
O38 C30 1.252 . S
In39 O40 2.294 . S
In39 O41 2.326 . S
In39 O45 2.266 . S
In39 O46 2.326 . S
In39 O47 2.266 . S
In39 O48 2.326 . S
In39 O50 2.294 . S
In39 O51 2.326 . S
O40 In39 2.294 . S
O40 C49 1.240 . S
O41 In39 2.326 . S
O41 C49 1.252 . S
C42 O45 1.252 . S
C42 O46 1.260 . S
C43 O50 1.240 . S
C43 O51 1.252 . S
C44 O47 1.252 . S
C44 O48 1.260 . S
O45 In39 2.266 . S
O45 C42 1.252 . S
O46 In39 2.326 . S
O46 C42 1.260 . S
O47 In39 2.266 . S
O47 C44 1.252 . S
O48 In39 2.326 . S
O48 C44 1.260 . S
C49 O40 1.240 . S
C49 O41 1.252 . S
O50 In39 2.294 . S
O50 C43 1.240 . S
O51 In39 2.326 . S
O51 C43 1.252 . S
In52 O53 2.294 . S
In52 O54 2.326 . S
In52 O58 2.266 . S
In52 O59 2.326 . S
In52 O60 2.266 . S
In52 O61 2.326 . S
In52 O63 2.294 . S
In52 O64 2.326 . S
O53 In52 2.294 . S
O53 C62 1.240 . S
O54 In52 2.326 . S
O54 C62 1.252 . S
C55 O58 1.252 . S
C55 O59 1.260 . S
C56 O63 1.240 . S
C56 O64 1.252 . S
C57 O60 1.252 . S
C57 O61 1.260 . S
O58 In52 2.266 . S
O58 C55 1.252 . S
O59 In52 2.326 . S
O59 C55 1.260 . S
O60 In52 2.266 . S
O60 C57 1.252 . S
O61 In52 2.326 . S
O61 C57 1.260 . S
C62 O53 1.240 . S
C62 O54 1.252 . S
O63 In52 2.294 . S
O63 C56 1.240 . S
O64 In52 2.326 . S
O64 C56 1.252 . S
In65 O66 2.294 . S
In65 O67 2.326 . S
In65 O71 2.266 . S
In65 O72 2.326 . S
In65 O73 2.266 . S
In65 O74 2.326 . S
In65 O76 2.294 . S
In65 O77 2.326 . S
O66 In65 2.294 . S
O66 C75 1.240 . S
O67 In65 2.326 . S
O67 C75 1.252 . S
C68 O71 1.252 . S
C68 O72 1.260 . S
C69 O76 1.240 . S
C69 O77 1.252 . S
C70 O73 1.252 . S
C70 O74 1.260 . S
O71 In65 2.266 . S
O71 C68 1.252 . S
O72 In65 2.326 . S
O72 C68 1.260 . S
O73 In65 2.266 . S
O73 C70 1.252 . S
O74 In65 2.326 . S
O74 C70 1.260 . S
C75 O66 1.240 . S
C75 O67 1.252 . S
O76 In65 2.294 . S
O76 C69 1.240 . S
O77 In65 2.326 . S
O77 C69 1.252 . S
In78 O79 2.294 . S
In78 O80 2.326 . S
In78 O84 2.266 . S
In78 O85 2.326 . S
In78 O86 2.266 . S
In78 O87 2.326 . S
In78 O89 2.294 . S
In78 O90 2.326 . S
O79 In78 2.294 . S
O79 C88 1.240 . S
O80 In78 2.326 . S
O80 C88 1.252 . S
C81 O84 1.252 . S
C81 O85 1.260 . S
C82 O89 1.240 . S
C82 O90 1.252 . S
C83 O86 1.252 . S
C83 O87 1.260 . S
O84 In78 2.266 . S
O84 C81 1.252 . S
O85 In78 2.326 . S
O85 C81 1.260 . S
O86 In78 2.266 . S
O86 C83 1.252 . S
O87 In78 2.326 . S
O87 C83 1.260 . S
C88 O79 1.240 . S
C88 O80 1.252 . S
O89 In78 2.294 . S
O89 C82 1.240 . S
O90 In78 2.326 . S
O90 C82 1.252 . S
In91 O92 2.294 . S
In91 O93 2.326 . S
In91 O97 2.266 . S
In91 O98 2.326 . S
In91 O99 2.266 . S
In91 O100 2.326 . S
In91 O102 2.294 . S
In91 O103 2.326 . S
O92 In91 2.294 . S
O92 C101 1.240 . S
O93 In91 2.326 . S
O93 C101 1.252 . S
C94 O97 1.252 . S
C94 O98 1.260 . S
C95 O102 1.240 . S
C95 O103 1.252 . S
C96 O99 1.252 . S
C96 O100 1.260 . S
O97 In91 2.266 . S
O97 C94 1.252 . S
O98 In91 2.326 . S
O98 C94 1.260 . S
O99 In91 2.266 . S
O99 C96 1.252 . S
O100 In91 2.326 . S
O100 C96 1.260 . S
C101 O92 1.240 . S
C101 O93 1.252 . S
O102 In91 2.294 . S
O102 C95 1.240 . S
O103 In91 2.326 . S
O103 C95 1.252 . S
In104 O105 2.294 . S
In104 O106 2.326 . S
In104 O110 2.266 . S
In104 O111 2.326 . S
In104 O112 2.266 . S
In104 O113 2.326 . S
In104 O115 2.294 . S
In104 O116 2.326 . S
O105 In104 2.294 . S
O105 C114 1.240 . S
O106 In104 2.326 . S
O106 C114 1.252 . S
C107 O110 1.252 . S
C107 O111 1.260 . S
C108 O115 1.240 . S
C108 O116 1.252 . S
C109 O112 1.252 . S
C109 O113 1.260 . S
O110 In104 2.266 . S
O110 C107 1.252 . S
O111 In104 2.326 . S
O111 C107 1.260 . S
O112 In104 2.266 . S
O112 C109 1.252 . S
O113 In104 2.326 . S
O113 C109 1.260 . S
C114 O105 1.240 . S
C114 O106 1.252 . S
O115 In104 2.294 . S
O115 C108 1.240 . S
O116 In104 2.326 . S
O116 C108 1.252 . S
In117 O118 2.294 . S
In117 O119 2.326 . S
In117 O123 2.266 . S
In117 O124 2.326 . S
In117 O125 2.266 . S
In117 O126 2.326 . S
In117 O128 2.294 . S
In117 O129 2.326 . S
O118 In117 2.294 . S
O118 C127 1.240 . S
O119 In117 2.326 . S
O119 C127 1.252 . S
C120 O123 1.252 . S
C120 O124 1.260 . S
C121 O128 1.240 . S
C121 O129 1.252 . S
C122 O125 1.252 . S
C122 O126 1.260 . S
O123 In117 2.266 . S
O123 C120 1.252 . S
O124 In117 2.326 . S
O124 C120 1.260 . S
O125 In117 2.266 . S
O125 C122 1.252 . S
O126 In117 2.326 . S
O126 C122 1.260 . S
C127 O118 1.240 . S
C127 O119 1.252 . S
O128 In117 2.294 . S
O128 C121 1.240 . S
O129 In117 2.326 . S
O129 C121 1.252 . S
In130 O131 2.294 . S
In130 O132 2.326 . S
In130 O136 2.266 . S
In130 O137 2.326 . S
In130 O138 2.266 . S
In130 O139 2.326 . S
In130 O141 2.294 . S
In130 O142 2.326 . S
O131 In130 2.294 . S
O131 C140 1.240 . S
O132 In130 2.326 . S
O132 C140 1.252 . S
C133 O136 1.252 . S
C133 O137 1.260 . S
C134 O141 1.240 . S
C134 O142 1.252 . S
C135 O138 1.252 . S
C135 O139 1.260 . S
O136 In130 2.266 . S
O136 C133 1.252 . S
O137 In130 2.326 . S
O137 C133 1.260 . S
O138 In130 2.266 . S
O138 C135 1.252 . S
O139 In130 2.326 . S
O139 C135 1.260 . S
C140 O131 1.240 . S
C140 O132 1.252 . S
O141 In130 2.294 . S
O141 C134 1.240 . S
O142 In130 2.326 . S
O142 C134 1.252 . S
In143 O144 2.294 . S
In143 O145 2.326 . S
In143 O149 2.266 . S
In143 O150 2.326 . S
In143 O151 2.266 . S
In143 O152 2.326 . S
In143 O154 2.294 . S
In143 O155 2.326 . S
O144 In143 2.294 . S
O144 C153 1.240 . S
O145 In143 2.326 . S
O145 C153 1.252 . S
C146 O149 1.252 . S
C146 O150 1.260 . S
C147 O154 1.240 . S
C147 O155 1.252 . S
C148 O151 1.252 . S
C148 O152 1.260 . S
O149 In143 2.266 . S
O149 C146 1.252 . S
O150 In143 2.326 . S
O150 C146 1.260 . S
O151 In143 2.266 . S
O151 C148 1.252 . S
O152 In143 2.326 . S
O152 C148 1.260 . S
C153 O144 1.240 . S
C153 O145 1.252 . S
O154 In143 2.294 . S
O154 C147 1.240 . S
O155 In143 2.326 . S
O155 C147 1.252 . S
In156 O157 2.294 . S
In156 O158 2.326 . S
In156 O162 2.266 . S
In156 O163 2.326 . S
In156 O164 2.266 . S
In156 O165 2.326 . S
In156 O167 2.294 . S
In156 O168 2.326 . S
O157 In156 2.294 . S
O157 C166 1.240 . S
O158 In156 2.326 . S
O158 C166 1.252 . S
C159 O162 1.252 . S
C159 O163 1.260 . S
C160 O167 1.240 . S
C160 O168 1.252 . S
C161 O164 1.252 . S
C161 O165 1.260 . S
O162 In156 2.266 . S
O162 C159 1.252 . S
O163 In156 2.326 . S
O163 C159 1.260 . S
O164 In156 2.266 . S
O164 C161 1.252 . S
O165 In156 2.326 . S
O165 C161 1.260 . S
C166 O157 1.240 . S
C166 O158 1.252 . S
O167 In156 2.294 . S
O167 C160 1.240 . S
O168 In156 2.326 . S
O168 C160 1.252 . S
In169 O170 2.294 . S
In169 O171 2.326 . S
In169 O175 2.266 . S
In169 O176 2.326 . S
In169 O177 2.266 . S
In169 O178 2.326 . S
In169 O180 2.294 . S
In169 O181 2.326 . S
O170 In169 2.294 . S
O170 C179 1.240 . S
O171 In169 2.326 . S
O171 C179 1.252 . S
C172 O175 1.252 . S
C172 O176 1.260 . S
C173 O180 1.240 . S
C173 O181 1.252 . S
C174 O177 1.252 . S
C174 O178 1.260 . S
O175 In169 2.266 . S
O175 C172 1.252 . S
O176 In169 2.326 . S
O176 C172 1.260 . S
O177 In169 2.266 . S
O177 C174 1.252 . S
O178 In169 2.326 . S
O178 C174 1.260 . S
C179 O170 1.240 . S
C179 O171 1.252 . S
O180 In169 2.294 . S
O180 C173 1.240 . S
O181 In169 2.326 . S
O181 C173 1.252 . S
In182 O183 2.294 . S
In182 O184 2.326 . S
In182 O188 2.266 . S
In182 O189 2.326 . S
In182 O190 2.266 . S
In182 O191 2.326 . S
In182 O193 2.294 . S
In182 O194 2.326 . S
O183 In182 2.294 . S
O183 C192 1.240 . S
O184 In182 2.326 . S
O184 C192 1.252 . S
C185 O188 1.252 . S
C185 O189 1.260 . S
C186 O193 1.240 . S
C186 O194 1.252 . S
C187 O190 1.252 . S
C187 O191 1.260 . S
O188 In182 2.266 . S
O188 C185 1.252 . S
O189 In182 2.326 . S
O189 C185 1.260 . S
O190 In182 2.266 . S
O190 C187 1.252 . S
O191 In182 2.326 . S
O191 C187 1.260 . S
C192 O183 1.240 . S
C192 O184 1.252 . S
O193 In182 2.294 . S
O193 C186 1.240 . S
O194 In182 2.326 . S
O194 C186 1.252 . S
In195 O196 2.294 . S
In195 O197 2.326 . S
In195 O201 2.266 . S
In195 O202 2.326 . S
In195 O203 2.266 . S
In195 O204 2.326 . S
In195 O206 2.294 . S
In195 O207 2.326 . S
O196 In195 2.294 . S
O196 C205 1.240 . S
O197 In195 2.326 . S
O197 C205 1.252 . S
C198 O201 1.252 . S
C198 O202 1.260 . S
C199 O206 1.240 . S
C199 O207 1.252 . S
C200 O203 1.252 . S
C200 O204 1.260 . S
O201 In195 2.266 . S
O201 C198 1.252 . S
O202 In195 2.326 . S
O202 C198 1.260 . S
O203 In195 2.266 . S
O203 C200 1.252 . S
O204 In195 2.326 . S
O204 C200 1.260 . S
C205 O196 1.240 . S
C205 O197 1.252 . S
O206 In195 2.294 . S
O206 C199 1.240 . S
O207 In195 2.326 . S
O207 C199 1.252 . S
In208 O209 2.294 . S
In208 O210 2.326 . S
In208 O214 2.266 . S
In208 O215 2.326 . S
In208 O216 2.266 . S
In208 O217 2.326 . S
In208 O219 2.294 . S
In208 O220 2.326 . S
O209 In208 2.294 . S
O209 C218 1.240 . S
O210 In208 2.326 . S
O210 C218 1.252 . S
C211 O214 1.252 . S
C211 O215 1.260 . S
C212 O219 1.240 . S
C212 O220 1.252 . S
C213 O216 1.252 . S
C213 O217 1.260 . S
O214 In208 2.266 . S
O214 C211 1.252 . S
O215 In208 2.326 . S
O215 C211 1.260 . S
O216 In208 2.266 . S
O216 C213 1.252 . S
O217 In208 2.326 . S
O217 C213 1.260 . S
C218 O209 1.240 . S
C218 O210 1.252 . S
O219 In208 2.294 . S
O219 C212 1.240 . S
O220 In208 2.326 . S
O220 C212 1.252 . S
In221 O222 2.294 . S
In221 O223 2.326 . S
In221 O227 2.266 . S
In221 O228 2.326 . S
In221 O229 2.266 . S
In221 O230 2.326 . S
In221 O232 2.294 . S
In221 O233 2.326 . S
O222 In221 2.294 . S
O222 C231 1.240 . S
O223 In221 2.326 . S
O223 C231 1.252 . S
C224 O227 1.252 . S
C224 O228 1.260 . S
C225 O232 1.240 . S
C225 O233 1.252 . S
C226 O229 1.252 . S
C226 O230 1.260 . S
O227 In221 2.266 . S
O227 C224 1.252 . S
O228 In221 2.326 . S
O228 C224 1.260 . S
O229 In221 2.266 . S
O229 C226 1.252 . S
O230 In221 2.326 . S
O230 C226 1.260 . S
C231 O222 1.240 . S
C231 O223 1.252 . S
O232 In221 2.294 . S
O232 C225 1.240 . S
O233 In221 2.326 . S
O233 C225 1.252 . S
In234 O235 2.294 . S
In234 O236 2.326 . S
In234 O240 2.266 . S
In234 O241 2.326 . S
In234 O242 2.266 . S
In234 O243 2.326 . S
In234 O245 2.294 . S
In234 O246 2.326 . S
O235 In234 2.294 . S
O235 C244 1.240 . S
O236 In234 2.326 . S
O236 C244 1.252 . S
C237 O240 1.252 . S
C237 O241 1.260 . S
C238 O245 1.240 . S
C238 O246 1.252 . S
C239 O242 1.252 . S
C239 O243 1.260 . S
O240 In234 2.266 . S
O240 C237 1.252 . S
O241 In234 2.326 . S
O241 C237 1.260 . S
O242 In234 2.266 . S
O242 C239 1.252 . S
O243 In234 2.326 . S
O243 C239 1.260 . S
C244 O235 1.240 . S
C244 O236 1.252 . S
O245 In234 2.294 . S
O245 C238 1.240 . S
O246 In234 2.326 . S
O246 C238 1.252 . S
In247 O248 2.294 . S
In247 O249 2.326 . S
In247 O253 2.266 . S
In247 O254 2.326 . S
In247 O255 2.266 . S
In247 O256 2.326 . S
In247 O258 2.294 . S
In247 O259 2.326 . S
O248 In247 2.294 . S
O248 C257 1.240 . S
O249 In247 2.326 . S
O249 C257 1.252 . S
C250 O253 1.252 . S
C250 O254 1.260 . S
C251 O258 1.240 . S
C251 O259 1.252 . S
C252 O255 1.252 . S
C252 O256 1.260 . S
O253 In247 2.266 . S
O253 C250 1.252 . S
O254 In247 2.326 . S
O254 C250 1.260 . S
O255 In247 2.266 . S
O255 C252 1.252 . S
O256 In247 2.326 . S
O256 C252 1.260 . S
C257 O248 1.240 . S
C257 O249 1.252 . S
O258 In247 2.294 . S
O258 C251 1.240 . S
O259 In247 2.326 . S
O259 C251 1.252 . S
In260 O261 2.294 . S
In260 O262 2.326 . S
In260 O266 2.266 . S
In260 O267 2.326 . S
In260 O268 2.266 . S
In260 O269 2.326 . S
In260 O271 2.294 . S
In260 O272 2.326 . S
O261 In260 2.294 . S
O261 C270 1.240 . S
O262 In260 2.326 . S
O262 C270 1.252 . S
C263 O266 1.252 . S
C263 O267 1.260 . S
C264 O271 1.240 . S
C264 O272 1.252 . S
C265 O268 1.252 . S
C265 O269 1.260 . S
O266 In260 2.266 . S
O266 C263 1.252 . S
O267 In260 2.326 . S
O267 C263 1.260 . S
O268 In260 2.266 . S
O268 C265 1.252 . S
O269 In260 2.326 . S
O269 C265 1.260 . S
C270 O261 1.240 . S
C270 O262 1.252 . S
O271 In260 2.294 . S
O271 C264 1.240 . S
O272 In260 2.326 . S
O272 C264 1.252 . S
In273 O274 2.294 . S
In273 O275 2.326 . S
In273 O279 2.266 . S
In273 O280 2.326 . S
In273 O281 2.266 . S
In273 O282 2.326 . S
In273 O284 2.294 . S
In273 O285 2.326 . S
O274 In273 2.294 . S
O274 C283 1.240 . S
O275 In273 2.326 . S
O275 C283 1.252 . S
C276 O279 1.252 . S
C276 O280 1.260 . S
C277 O284 1.240 . S
C277 O285 1.252 . S
C278 O281 1.252 . S
C278 O282 1.260 . S
O279 In273 2.266 . S
O279 C276 1.252 . S
O280 In273 2.326 . S
O280 C276 1.260 . S
O281 In273 2.266 . S
O281 C278 1.252 . S
O282 In273 2.326 . S
O282 C278 1.260 . S
C283 O274 1.240 . S
C283 O275 1.252 . S
O284 In273 2.294 . S
O284 C277 1.240 . S
O285 In273 2.326 . S
O285 C277 1.252 . S
In286 O287 2.294 . S
In286 O288 2.326 . S
In286 O292 2.266 . S
In286 O293 2.326 . S
In286 O294 2.266 . S
In286 O295 2.326 . S
In286 O297 2.294 . S
In286 O298 2.326 . S
O287 In286 2.294 . S
O287 C296 1.240 . S
O288 In286 2.326 . S
O288 C296 1.252 . S
C289 O292 1.252 . S
C289 O293 1.260 . S
C290 O297 1.240 . S
C290 O298 1.252 . S
C291 O294 1.252 . S
C291 O295 1.260 . S
O292 In286 2.266 . S
O292 C289 1.252 . S
O293 In286 2.326 . S
O293 C289 1.260 . S
O294 In286 2.266 . S
O294 C291 1.252 . S
O295 In286 2.326 . S
O295 C291 1.260 . S
C296 O287 1.240 . S
C296 O288 1.252 . S
O297 In286 2.294 . S
O297 C290 1.240 . S
O298 In286 2.326 . S
O298 C290 1.252 . S
In299 O300 2.294 . S
In299 O301 2.326 . S
In299 O305 2.266 . S
In299 O306 2.326 . S
In299 O307 2.266 . S
In299 O308 2.326 . S
In299 O310 2.294 . S
In299 O311 2.326 . S
O300 In299 2.294 . S
O300 C309 1.240 . S
O301 In299 2.326 . S
O301 C309 1.252 . S
C302 O305 1.252 . S
C302 O306 1.260 . S
C303 O310 1.240 . S
C303 O311 1.252 . S
C304 O307 1.252 . S
C304 O308 1.260 . S
O305 In299 2.266 . S
O305 C302 1.252 . S
O306 In299 2.326 . S
O306 C302 1.260 . S
O307 In299 2.266 . S
O307 C304 1.252 . S
O308 In299 2.326 . S
O308 C304 1.260 . S
C309 O300 1.240 . S
C309 O301 1.252 . S
O310 In299 2.294 . S
O310 C303 1.240 . S
O311 In299 2.326 . S
O311 C303 1.252 . S
In312 O313 2.294 . S
In312 O314 2.326 . S
In312 O318 2.266 . S
In312 O319 2.326 . S
In312 O320 2.266 . S
In312 O321 2.326 . S
In312 O323 2.294 . S
In312 O324 2.326 . S
O313 In312 2.294 . S
O313 C322 1.240 . S
O314 In312 2.326 . S
O314 C322 1.252 . S
C315 O318 1.252 . S
C315 O319 1.260 . S
C316 O323 1.240 . S
C316 O324 1.252 . S
C317 O320 1.252 . S
C317 O321 1.260 . S
O318 In312 2.266 . S
O318 C315 1.252 . S
O319 In312 2.326 . S
O319 C315 1.260 . S
O320 In312 2.266 . S
O320 C317 1.252 . S
O321 In312 2.326 . S
O321 C317 1.260 . S
C322 O313 1.240 . S
C322 O314 1.252 . S
O323 In312 2.294 . S
O323 C316 1.240 . S
O324 In312 2.326 . S
O324 C316 1.252 . S
In325 O326 2.294 . S
In325 O327 2.326 . S
In325 O331 2.266 . S
In325 O332 2.326 . S
In325 O333 2.266 . S
In325 O334 2.326 . S
In325 O336 2.294 . S
In325 O337 2.326 . S
O326 In325 2.294 . S
O326 C335 1.240 . S
O327 In325 2.326 . S
O327 C335 1.252 . S
C328 O331 1.252 . S
C328 O332 1.260 . S
C329 O336 1.240 . S
C329 O337 1.252 . S
C330 O333 1.252 . S
C330 O334 1.260 . S
O331 In325 2.266 . S
O331 C328 1.252 . S
O332 In325 2.326 . S
O332 C328 1.260 . S
O333 In325 2.266 . S
O333 C330 1.252 . S
O334 In325 2.326 . S
O334 C330 1.260 . S
C335 O326 1.240 . S
C335 O327 1.252 . S
O336 In325 2.294 . S
O336 C329 1.240 . S
O337 In325 2.326 . S
O337 C329 1.252 . S
In338 O339 2.294 . S
In338 O340 2.326 . S
In338 O344 2.266 . S
In338 O345 2.326 . S
In338 O346 2.266 . S
In338 O347 2.326 . S
In338 O349 2.294 . S
In338 O350 2.326 . S
O339 In338 2.294 . S
O339 C348 1.240 . S
O340 In338 2.326 . S
O340 C348 1.252 . S
C341 O344 1.252 . S
C341 O345 1.260 . S
C342 O349 1.240 . S
C342 O350 1.252 . S
C343 O346 1.252 . S
C343 O347 1.260 . S
O344 In338 2.266 . S
O344 C341 1.252 . S
O345 In338 2.326 . S
O345 C341 1.260 . S
O346 In338 2.266 . S
O346 C343 1.252 . S
O347 In338 2.326 . S
O347 C343 1.260 . S
C348 O339 1.240 . S
C348 O340 1.252 . S
O349 In338 2.294 . S
O349 C342 1.240 . S
O350 In338 2.326 . S
O350 C342 1.252 . S
In351 O352 2.294 . S
In351 O353 2.326 . S
In351 O357 2.266 . S
In351 O358 2.326 . S
In351 O359 2.266 . S
In351 O360 2.326 . S
In351 O362 2.294 . S
In351 O363 2.326 . S
O352 In351 2.294 . S
O352 C361 1.240 . S
O353 In351 2.326 . S
O353 C361 1.252 . S
C354 O357 1.252 . S
C354 O358 1.260 . S
C355 O362 1.240 . S
C355 O363 1.252 . S
C356 O359 1.252 . S
C356 O360 1.260 . S
O357 In351 2.266 . S
O357 C354 1.252 . S
O358 In351 2.326 . S
O358 C354 1.260 . S
O359 In351 2.266 . S
O359 C356 1.252 . S
O360 In351 2.326 . S
O360 C356 1.260 . S
C361 O352 1.240 . S
C361 O353 1.252 . S
O362 In351 2.294 . S
O362 C355 1.240 . S
O363 In351 2.326 . S
O363 C355 1.252 . S
In364 O365 2.294 . S
In364 O366 2.326 . S
In364 O370 2.266 . S
In364 O371 2.326 . S
In364 O372 2.266 . S
In364 O373 2.326 . S
In364 O375 2.294 . S
In364 O376 2.326 . S
O365 In364 2.294 . S
O365 C374 1.240 . S
O366 In364 2.326 . S
O366 C374 1.252 . S
C367 O370 1.252 . S
C367 O371 1.260 . S
C368 O375 1.240 . S
C368 O376 1.252 . S
C369 O372 1.252 . S
C369 O373 1.260 . S
O370 In364 2.266 . S
O370 C367 1.252 . S
O371 In364 2.326 . S
O371 C367 1.260 . S
O372 In364 2.266 . S
O372 C369 1.252 . S
O373 In364 2.326 . S
O373 C369 1.260 . S
C374 O365 1.240 . S
C374 O366 1.252 . S
O375 In364 2.294 . S
O375 C368 1.240 . S
O376 In364 2.326 . S
O376 C368 1.252 . S
In377 O378 2.294 . S
In377 O379 2.326 . S
In377 O383 2.266 . S
In377 O384 2.326 . S
In377 O385 2.266 . S
In377 O386 2.326 . S
In377 O388 2.294 . S
In377 O389 2.326 . S
O378 In377 2.294 . S
O378 C387 1.240 . S
O379 In377 2.326 . S
O379 C387 1.252 . S
C380 O383 1.252 . S
C380 O384 1.260 . S
C381 O388 1.240 . S
C381 O389 1.252 . S
C382 O385 1.252 . S
C382 O386 1.260 . S
O383 In377 2.266 . S
O383 C380 1.252 . S
O384 In377 2.326 . S
O384 C380 1.260 . S
O385 In377 2.266 . S
O385 C382 1.252 . S
O386 In377 2.326 . S
O386 C382 1.260 . S
C387 O378 1.240 . S
C387 O379 1.252 . S
O388 In377 2.294 . S
O388 C381 1.240 . S
O389 In377 2.326 . S
O389 C381 1.252 . S
In390 O391 2.294 . S
In390 O392 2.326 . S
In390 O396 2.266 . S
In390 O397 2.326 . S
In390 O398 2.266 . S
In390 O399 2.326 . S
In390 O401 2.294 . S
In390 O402 2.326 . S
O391 In390 2.294 . S
O391 C400 1.240 . S
O392 In390 2.326 . S
O392 C400 1.252 . S
C393 O396 1.252 . S
C393 O397 1.260 . S
C394 O401 1.240 . S
C394 O402 1.252 . S
C395 O398 1.252 . S
C395 O399 1.260 . S
O396 In390 2.266 . S
O396 C393 1.252 . S
O397 In390 2.326 . S
O397 C393 1.260 . S
O398 In390 2.266 . S
O398 C395 1.252 . S
O399 In390 2.326 . S
O399 C395 1.260 . S
C400 O391 1.240 . S
C400 O392 1.252 . S
O401 In390 2.294 . S
O401 C394 1.240 . S
O402 In390 2.326 . S
O402 C394 1.252 . S
In403 O404 2.294 . S
In403 O405 2.326 . S
In403 O409 2.266 . S
In403 O410 2.326 . S
In403 O411 2.266 . S
In403 O412 2.326 . S
In403 O414 2.294 . S
In403 O415 2.326 . S
O404 In403 2.294 . S
O404 C413 1.240 . S
O405 In403 2.326 . S
O405 C413 1.252 . S
C406 O409 1.252 . S
C406 O410 1.260 . S
C407 O414 1.240 . S
C407 O415 1.252 . S
C408 O411 1.252 . S
C408 O412 1.260 . S
O409 In403 2.266 . S
O409 C406 1.252 . S
O410 In403 2.326 . S
O410 C406 1.260 . S
O411 In403 2.266 . S
O411 C408 1.252 . S
O412 In403 2.326 . S
O412 C408 1.260 . S
C413 O404 1.240 . S
C413 O405 1.252 . S
O414 In403 2.294 . S
O414 C407 1.240 . S
O415 In403 2.326 . S
O415 C407 1.252 . S
In416 O417 2.294 . S
In416 O418 2.326 . S
In416 O422 2.266 . S
In416 O423 2.326 . S
In416 O424 2.266 . S
In416 O425 2.326 . S
In416 O427 2.294 . S
In416 O428 2.326 . S
O417 In416 2.294 . S
O417 C426 1.240 . S
O418 In416 2.326 . S
O418 C426 1.252 . S
C419 O422 1.252 . S
C419 O423 1.260 . S
C420 O427 1.240 . S
C420 O428 1.252 . S
C421 O424 1.252 . S
C421 O425 1.260 . S
O422 In416 2.266 . S
O422 C419 1.252 . S
O423 In416 2.326 . S
O423 C419 1.260 . S
O424 In416 2.266 . S
O424 C421 1.252 . S
O425 In416 2.326 . S
O425 C421 1.260 . S
C426 O417 1.240 . S
C426 O418 1.252 . S
O427 In416 2.294 . S
O427 C420 1.240 . S
O428 In416 2.326 . S
O428 C420 1.252 . S
In429 O430 2.294 . S
In429 O431 2.326 . S
In429 O435 2.266 . S
In429 O436 2.326 . S
In429 O437 2.266 . S
In429 O438 2.326 . S
In429 O440 2.294 . S
In429 O441 2.326 . S
O430 In429 2.294 . S
O430 C439 1.240 . S
O431 In429 2.326 . S
O431 C439 1.252 . S
C432 O435 1.252 . S
C432 O436 1.260 . S
C433 O440 1.240 . S
C433 O441 1.252 . S
C434 O437 1.252 . S
C434 O438 1.260 . S
O435 In429 2.266 . S
O435 C432 1.252 . S
O436 In429 2.326 . S
O436 C432 1.260 . S
O437 In429 2.266 . S
O437 C434 1.252 . S
O438 In429 2.326 . S
O438 C434 1.260 . S
C439 O430 1.240 . S
C439 O431 1.252 . S
O440 In429 2.294 . S
O440 C433 1.240 . S
O441 In429 2.326 . S
O441 C433 1.252 . S
In442 O443 2.294 . S
In442 O444 2.326 . S
In442 O448 2.266 . S
In442 O449 2.326 . S
In442 O450 2.266 . S
In442 O451 2.326 . S
In442 O453 2.294 . S
In442 O454 2.326 . S
O443 In442 2.294 . S
O443 C452 1.240 . S
O444 In442 2.326 . S
O444 C452 1.252 . S
C445 O448 1.252 . S
C445 O449 1.260 . S
C446 O453 1.240 . S
C446 O454 1.252 . S
C447 O450 1.252 . S
C447 O451 1.260 . S
O448 In442 2.266 . S
O448 C445 1.252 . S
O449 In442 2.326 . S
O449 C445 1.260 . S
O450 In442 2.266 . S
O450 C447 1.252 . S
O451 In442 2.326 . S
O451 C447 1.260 . S
C452 O443 1.240 . S
C452 O444 1.252 . S
O453 In442 2.294 . S
O453 C446 1.240 . S
O454 In442 2.326 . S
O454 C446 1.252 . S
In455 O456 2.294 . S
In455 O457 2.326 . S
In455 O461 2.266 . S
In455 O462 2.326 . S
In455 O463 2.266 . S
In455 O464 2.326 . S
In455 O466 2.294 . S
In455 O467 2.326 . S
O456 In455 2.294 . S
O456 C465 1.240 . S
O457 In455 2.326 . S
O457 C465 1.252 . S
C458 O461 1.252 . S
C458 O462 1.260 . S
C459 O466 1.240 . S
C459 O467 1.252 . S
C460 O463 1.252 . S
C460 O464 1.260 . S
O461 In455 2.266 . S
O461 C458 1.252 . S
O462 In455 2.326 . S
O462 C458 1.260 . S
O463 In455 2.266 . S
O463 C460 1.252 . S
O464 In455 2.326 . S
O464 C460 1.260 . S
C465 O456 1.240 . S
C465 O457 1.252 . S
O466 In455 2.294 . S
O466 C459 1.240 . S
O467 In455 2.326 . S
O467 C459 1.252 . S
C468 C469 1.349 . S
C468 C470 1.327 . S
C468 H493 0.950 . S
C469 C468 1.349 . S
C469 C485 1.349 . S
C470 C468 1.327 . S
C470 C489 1.429 . S
C470 H494 0.950 . S
C471 C488 1.574 . S
C471 C490 1.368 . S
C471 H495 0.949 . S
H472 C476 0.949 . S
C473 C474 1.349 . S
C473 C475 1.327 . S
C473 H496 0.950 . S
C474 C473 1.349 . S
C474 C486 1.349 . S
C475 C473 1.327 . S
C475 C491 1.429 . S
C475 H497 0.950 . S
C476 H472 0.949 . S
C476 C484 1.574 . S
C476 C492 1.368 . S
H477 C485 0.950 . S
H478 C483 0.950 . S
H479 C484 0.949 . S
H480 C486 0.950 . S
H481 C487 0.950 . S
H482 C488 0.949 . S
C483 H478 0.950 . S
C483 C485 1.327 . S
C483 C489 1.429 . S
C484 C476 1.574 . S
C484 H479 0.949 . S
C484 C490 1.368 . S
C485 C469 1.349 . S
C485 H477 0.950 . S
C485 C483 1.327 . S
C486 C474 1.349 . S
C486 H480 0.950 . S
C486 C487 1.327 . S
C487 H481 0.950 . S
C487 C486 1.327 . S
C487 C491 1.429 . S
C488 C471 1.574 . S
C488 H482 0.949 . S
C488 C492 1.368 . S
C489 C470 1.429 . S
C489 C483 1.429 . S
C489 C490 1.523 . S
C490 C471 1.368 . S
C490 C484 1.368 . S
C490 C489 1.523 . S
C491 C475 1.429 . S
C491 C487 1.429 . S
C491 C492 1.523 . S
C492 C476 1.368 . S
C492 C488 1.368 . S
C492 C491 1.523 . S
H493 C468 0.950 . S
H494 C470 0.950 . S
H495 C471 0.949 . S
H496 C473 0.950 . S
H497 C475 0.950 . S
C498 C499 1.349 . S
C498 C500 1.327 . S
C498 H523 0.950 . S
C499 C498 1.349 . S
C499 C515 1.349 . S
C500 C498 1.327 . S
C500 C519 1.429 . S
C500 H524 0.950 . S
C501 C518 1.574 . S
C501 C520 1.368 . S
C501 H525 0.949 . S
H502 C506 0.949 . S
C503 C504 1.349 . S
C503 C505 1.327 . S
C503 H526 0.950 . S
C504 C503 1.349 . S
C504 C516 1.349 . S
C505 C503 1.327 . S
C505 C521 1.429 . S
C505 H527 0.950 . S
C506 H502 0.949 . S
C506 C514 1.574 . S
C506 C522 1.368 . S
H507 C515 0.950 . S
H508 C513 0.950 . S
H509 C514 0.949 . S
H510 C516 0.950 . S
H511 C517 0.950 . S
H512 C518 0.949 . S
C513 H508 0.950 . S
C513 C515 1.327 . S
C513 C519 1.429 . S
C514 C506 1.574 . S
C514 H509 0.949 . S
C514 C520 1.368 . S
C515 C499 1.349 . S
C515 H507 0.950 . S
C515 C513 1.327 . S
C516 C504 1.349 . S
C516 H510 0.950 . S
C516 C517 1.327 . S
C517 H511 0.950 . S
C517 C516 1.327 . S
C517 C521 1.429 . S
C518 C501 1.574 . S
C518 H512 0.949 . S
C518 C522 1.368 . S
C519 C500 1.429 . S
C519 C513 1.429 . S
C519 C520 1.523 . S
C520 C501 1.368 . S
C520 C514 1.368 . S
C520 C519 1.523 . S
C521 C505 1.429 . S
C521 C517 1.429 . S
C521 C522 1.523 . S
C522 C506 1.368 . S
C522 C518 1.368 . S
C522 C521 1.523 . S
H523 C498 0.950 . S
H524 C500 0.950 . S
H525 C501 0.949 . S
H526 C503 0.950 . S
H527 C505 0.950 . S
C528 C529 1.349 . S
C528 C530 1.327 . S
C528 H553 0.950 . S
C529 C528 1.349 . S
C529 C545 1.349 . S
C530 C528 1.327 . S
C530 C549 1.429 . S
C530 H554 0.950 . S
C531 C548 1.574 . S
C531 C550 1.368 . S
C531 H555 0.949 . S
H532 C536 0.949 . S
C533 C534 1.349 . S
C533 C535 1.327 . S
C533 H556 0.950 . S
C534 C533 1.349 . S
C534 C546 1.349 . S
C535 C533 1.327 . S
C535 C551 1.429 . S
C535 H557 0.950 . S
C536 H532 0.949 . S
C536 C544 1.574 . S
C536 C552 1.368 . S
H537 C545 0.950 . S
H538 C543 0.950 . S
H539 C544 0.949 . S
H540 C546 0.950 . S
H541 C547 0.950 . S
H542 C548 0.949 . S
C543 H538 0.950 . S
C543 C545 1.327 . S
C543 C549 1.429 . S
C544 C536 1.574 . S
C544 H539 0.949 . S
C544 C550 1.368 . S
C545 C529 1.349 . S
C545 H537 0.950 . S
C545 C543 1.327 . S
C546 C534 1.349 . S
C546 H540 0.950 . S
C546 C547 1.327 . S
C547 H541 0.950 . S
C547 C546 1.327 . S
C547 C551 1.429 . S
C548 C531 1.574 . S
C548 H542 0.949 . S
C548 C552 1.368 . S
C549 C530 1.429 . S
C549 C543 1.429 . S
C549 C550 1.523 . S
C550 C531 1.368 . S
C550 C544 1.368 . S
C550 C549 1.523 . S
C551 C535 1.429 . S
C551 C547 1.429 . S
C551 C552 1.523 . S
C552 C536 1.368 . S
C552 C548 1.368 . S
C552 C551 1.523 . S
H553 C528 0.950 . S
H554 C530 0.950 . S
H555 C531 0.949 . S
H556 C533 0.950 . S
H557 C535 0.950 . S
C558 C559 1.349 . S
C558 C560 1.327 . S
C558 H583 0.950 . S
C559 C558 1.349 . S
C559 C575 1.349 . S
C560 C558 1.327 . S
C560 C579 1.429 . S
C560 H584 0.950 . S
C561 C578 1.574 . S
C561 C580 1.368 . S
C561 H585 0.949 . S
H562 C566 0.949 . S
C563 C564 1.349 . S
C563 C565 1.327 . S
C563 H586 0.950 . S
C564 C563 1.349 . S
C564 C576 1.349 . S
C565 C563 1.327 . S
C565 C581 1.429 . S
C565 H587 0.950 . S
C566 H562 0.949 . S
C566 C574 1.574 . S
C566 C582 1.368 . S
H567 C575 0.950 . S
H568 C573 0.950 . S
H569 C574 0.949 . S
H570 C576 0.950 . S
H571 C577 0.950 . S
H572 C578 0.949 . S
C573 H568 0.950 . S
C573 C575 1.327 . S
C573 C579 1.429 . S
C574 C566 1.574 . S
C574 H569 0.949 . S
C574 C580 1.368 . S
C575 C559 1.349 . S
C575 H567 0.950 . S
C575 C573 1.327 . S
C576 C564 1.349 . S
C576 H570 0.950 . S
C576 C577 1.327 . S
C577 H571 0.950 . S
C577 C576 1.327 . S
C577 C581 1.429 . S
C578 C561 1.574 . S
C578 H572 0.949 . S
C578 C582 1.368 . S
C579 C560 1.429 . S
C579 C573 1.429 . S
C579 C580 1.523 . S
C580 C561 1.368 . S
C580 C574 1.368 . S
C580 C579 1.523 . S
C581 C565 1.429 . S
C581 C577 1.429 . S
C581 C582 1.523 . S
C582 C566 1.368 . S
C582 C578 1.368 . S
C582 C581 1.523 . S
H583 C558 0.950 . S
H584 C560 0.950 . S
H585 C561 0.949 . S
H586 C563 0.950 . S
H587 C565 0.950 . S
C588 C589 1.349 . S
C588 C590 1.327 . S
C588 H613 0.950 . S
C589 C588 1.349 . S
C589 C605 1.349 . S
C590 C588 1.327 . S
C590 C609 1.429 . S
C590 H614 0.950 . S
C591 C608 1.574 . S
C591 C610 1.368 . S
C591 H615 0.949 . S
H592 C596 0.949 . S
C593 C594 1.349 . S
C593 C595 1.327 . S
C593 H616 0.950 . S
C594 C593 1.349 . S
C594 C606 1.349 . S
C595 C593 1.327 . S
C595 C611 1.429 . S
C595 H617 0.950 . S
C596 H592 0.949 . S
C596 C604 1.574 . S
C596 C612 1.368 . S
H597 C605 0.950 . S
H598 C603 0.950 . S
H599 C604 0.949 . S
H600 C606 0.950 . S
H601 C607 0.950 . S
H602 C608 0.949 . S
C603 H598 0.950 . S
C603 C605 1.327 . S
C603 C609 1.429 . S
C604 C596 1.574 . S
C604 H599 0.949 . S
C604 C610 1.368 . S
C605 C589 1.349 . S
C605 H597 0.950 . S
C605 C603 1.327 . S
C606 C594 1.349 . S
C606 H600 0.950 . S
C606 C607 1.327 . S
C607 H601 0.950 . S
C607 C606 1.327 . S
C607 C611 1.429 . S
C608 C591 1.574 . S
C608 H602 0.949 . S
C608 C612 1.368 . S
C609 C590 1.429 . S
C609 C603 1.429 . S
C609 C610 1.523 . S
C610 C591 1.368 . S
C610 C604 1.368 . S
C610 C609 1.523 . S
C611 C595 1.429 . S
C611 C607 1.429 . S
C611 C612 1.523 . S
C612 C596 1.368 . S
C612 C608 1.368 . S
C612 C611 1.523 . S
H613 C588 0.950 . S
H614 C590 0.950 . S
H615 C591 0.949 . S
H616 C593 0.950 . S
H617 C595 0.950 . S
C618 C619 1.349 . S
C618 C620 1.327 . S
C618 H643 0.950 . S
C619 C618 1.349 . S
C619 C635 1.349 . S
C620 C618 1.327 . S
C620 C639 1.429 . S
C620 H644 0.950 . S
C621 C638 1.574 . S
C621 C640 1.368 . S
C621 H645 0.949 . S
H622 C626 0.949 . S
C623 C624 1.349 . S
C623 C625 1.327 . S
C623 H646 0.950 . S
C624 C623 1.349 . S
C624 C636 1.349 . S
C625 C623 1.327 . S
C625 C641 1.429 . S
C625 H647 0.950 . S
C626 H622 0.949 . S
C626 C634 1.574 . S
C626 C642 1.368 . S
H627 C635 0.950 . S
H628 C633 0.950 . S
H629 C634 0.949 . S
H630 C636 0.950 . S
H631 C637 0.950 . S
H632 C638 0.949 . S
C633 H628 0.950 . S
C633 C635 1.327 . S
C633 C639 1.429 . S
C634 C626 1.574 . S
C634 H629 0.949 . S
C634 C640 1.368 . S
C635 C619 1.349 . S
C635 H627 0.950 . S
C635 C633 1.327 . S
C636 C624 1.349 . S
C636 H630 0.950 . S
C636 C637 1.327 . S
C637 H631 0.950 . S
C637 C636 1.327 . S
C637 C641 1.429 . S
C638 C621 1.574 . S
C638 H632 0.949 . S
C638 C642 1.368 . S
C639 C620 1.429 . S
C639 C633 1.429 . S
C639 C640 1.523 . S
C640 C621 1.368 . S
C640 C634 1.368 . S
C640 C639 1.523 . S
C641 C625 1.429 . S
C641 C637 1.429 . S
C641 C642 1.523 . S
C642 C626 1.368 . S
C642 C638 1.368 . S
C642 C641 1.523 . S
H643 C618 0.950 . S
H644 C620 0.950 . S
H645 C621 0.949 . S
H646 C623 0.950 . S
H647 C625 0.950 . S
C648 C649 1.349 . S
C648 C650 1.327 . S
C648 H673 0.950 . S
C649 C648 1.349 . S
C649 C665 1.349 . S
C650 C648 1.327 . S
C650 C669 1.429 . S
C650 H674 0.950 . S
C651 C668 1.574 . S
C651 C670 1.368 . S
C651 H675 0.949 . S
H652 C656 0.949 . S
C653 C654 1.349 . S
C653 C655 1.327 . S
C653 H676 0.950 . S
C654 C653 1.349 . S
C654 C666 1.349 . S
C655 C653 1.327 . S
C655 C671 1.429 . S
C655 H677 0.950 . S
C656 H652 0.949 . S
C656 C664 1.574 . S
C656 C672 1.368 . S
H657 C665 0.950 . S
H658 C663 0.950 . S
H659 C664 0.949 . S
H660 C666 0.950 . S
H661 C667 0.950 . S
H662 C668 0.949 . S
C663 H658 0.950 . S
C663 C665 1.327 . S
C663 C669 1.429 . S
C664 C656 1.574 . S
C664 H659 0.949 . S
C664 C670 1.368 . S
C665 C649 1.349 . S
C665 H657 0.950 . S
C665 C663 1.327 . S
C666 C654 1.349 . S
C666 H660 0.950 . S
C666 C667 1.327 . S
C667 H661 0.950 . S
C667 C666 1.327 . S
C667 C671 1.429 . S
C668 C651 1.574 . S
C668 H662 0.949 . S
C668 C672 1.368 . S
C669 C650 1.429 . S
C669 C663 1.429 . S
C669 C670 1.523 . S
C670 C651 1.368 . S
C670 C664 1.368 . S
C670 C669 1.523 . S
C671 C655 1.429 . S
C671 C667 1.429 . S
C671 C672 1.523 . S
C672 C656 1.368 . S
C672 C668 1.368 . S
C672 C671 1.523 . S
H673 C648 0.950 . S
H674 C650 0.950 . S
H675 C651 0.949 . S
H676 C653 0.950 . S
H677 C655 0.950 . S
C678 C679 1.349 . S
C678 C680 1.327 . S
C678 H703 0.950 . S
C679 C678 1.349 . S
C679 C695 1.349 . S
C680 C678 1.327 . S
C680 C699 1.429 . S
C680 H704 0.950 . S
C681 C698 1.574 . S
C681 C700 1.368 . S
C681 H705 0.949 . S
H682 C686 0.949 . S
C683 C684 1.349 . S
C683 C685 1.327 . S
C683 H706 0.950 . S
C684 C683 1.349 . S
C684 C696 1.349 . S
C685 C683 1.327 . S
C685 C701 1.429 . S
C685 H707 0.950 . S
C686 H682 0.949 . S
C686 C694 1.574 . S
C686 C702 1.368 . S
H687 C695 0.950 . S
H688 C693 0.950 . S
H689 C694 0.949 . S
H690 C696 0.950 . S
H691 C697 0.950 . S
H692 C698 0.949 . S
C693 H688 0.950 . S
C693 C695 1.327 . S
C693 C699 1.429 . S
C694 C686 1.574 . S
C694 H689 0.949 . S
C694 C700 1.368 . S
C695 C679 1.349 . S
C695 H687 0.950 . S
C695 C693 1.327 . S
C696 C684 1.349 . S
C696 H690 0.950 . S
C696 C697 1.327 . S
C697 H691 0.950 . S
C697 C696 1.327 . S
C697 C701 1.429 . S
C698 C681 1.574 . S
C698 H692 0.949 . S
C698 C702 1.368 . S
C699 C680 1.429 . S
C699 C693 1.429 . S
C699 C700 1.523 . S
C700 C681 1.368 . S
C700 C694 1.368 . S
C700 C699 1.523 . S
C701 C685 1.429 . S
C701 C697 1.429 . S
C701 C702 1.523 . S
C702 C686 1.368 . S
C702 C698 1.368 . S
C702 C701 1.523 . S
H703 C678 0.950 . S
H704 C680 0.950 . S
H705 C681 0.949 . S
H706 C683 0.950 . S
H707 C685 0.950 . S
C708 C709 1.349 . S
C708 C710 1.327 . S
C708 H733 0.950 . S
C709 C708 1.349 . S
C709 C725 1.349 . S
C710 C708 1.327 . S
C710 C729 1.429 . S
C710 H734 0.950 . S
C711 C728 1.574 . S
C711 C730 1.368 . S
C711 H735 0.949 . S
H712 C716 0.949 . S
C713 C714 1.349 . S
C713 C715 1.327 . S
C713 H736 0.950 . S
C714 C713 1.349 . S
C714 C726 1.349 . S
C715 C713 1.327 . S
C715 C731 1.429 . S
C715 H737 0.950 . S
C716 H712 0.949 . S
C716 C724 1.574 . S
C716 C732 1.368 . S
H717 C725 0.950 . S
H718 C723 0.950 . S
H719 C724 0.949 . S
H720 C726 0.950 . S
H721 C727 0.950 . S
H722 C728 0.949 . S
C723 H718 0.950 . S
C723 C725 1.327 . S
C723 C729 1.429 . S
C724 C716 1.574 . S
C724 H719 0.949 . S
C724 C730 1.368 . S
C725 C709 1.349 . S
C725 H717 0.950 . S
C725 C723 1.327 . S
C726 C714 1.349 . S
C726 H720 0.950 . S
C726 C727 1.327 . S
C727 H721 0.950 . S
C727 C726 1.327 . S
C727 C731 1.429 . S
C728 C711 1.574 . S
C728 H722 0.949 . S
C728 C732 1.368 . S
C729 C710 1.429 . S
C729 C723 1.429 . S
C729 C730 1.523 . S
C730 C711 1.368 . S
C730 C724 1.368 . S
C730 C729 1.523 . S
C731 C715 1.429 . S
C731 C727 1.429 . S
C731 C732 1.523 . S
C732 C716 1.368 . S
C732 C728 1.368 . S
C732 C731 1.523 . S
H733 C708 0.950 . S
H734 C710 0.950 . S
H735 C711 0.949 . S
H736 C713 0.950 . S
H737 C715 0.950 . S
C738 C739 1.349 . S
C738 C740 1.327 . S
C738 H763 0.950 . S
C739 C738 1.349 . S
C739 C755 1.349 . S
C740 C738 1.327 . S
C740 C759 1.429 . S
C740 H764 0.950 . S
C741 C758 1.574 . S
C741 C760 1.368 . S
C741 H765 0.949 . S
H742 C746 0.949 . S
C743 C744 1.349 . S
C743 C745 1.327 . S
C743 H766 0.950 . S
C744 C743 1.349 . S
C744 C756 1.349 . S
C745 C743 1.327 . S
C745 C761 1.429 . S
C745 H767 0.950 . S
C746 H742 0.949 . S
C746 C754 1.574 . S
C746 C762 1.368 . S
H747 C755 0.950 . S
H748 C753 0.950 . S
H749 C754 0.949 . S
H750 C756 0.950 . S
H751 C757 0.950 . S
H752 C758 0.949 . S
C753 H748 0.950 . S
C753 C755 1.327 . S
C753 C759 1.429 . S
C754 C746 1.574 . S
C754 H749 0.949 . S
C754 C760 1.368 . S
C755 C739 1.349 . S
C755 H747 0.950 . S
C755 C753 1.327 . S
C756 C744 1.349 . S
C756 H750 0.950 . S
C756 C757 1.327 . S
C757 H751 0.950 . S
C757 C756 1.327 . S
C757 C761 1.429 . S
C758 C741 1.574 . S
C758 H752 0.949 . S
C758 C762 1.368 . S
C759 C740 1.429 . S
C759 C753 1.429 . S
C759 C760 1.523 . S
C760 C741 1.368 . S
C760 C754 1.368 . S
C760 C759 1.523 . S
C761 C745 1.429 . S
C761 C757 1.429 . S
C761 C762 1.523 . S
C762 C746 1.368 . S
C762 C758 1.368 . S
C762 C761 1.523 . S
H763 C738 0.950 . S
H764 C740 0.950 . S
H765 C741 0.949 . S
H766 C743 0.950 . S
H767 C745 0.950 . S
C768 C769 1.349 . S
C768 C770 1.327 . S
C768 H793 0.950 . S
C769 C768 1.349 . S
C769 C785 1.349 . S
C770 C768 1.327 . S
C770 C789 1.429 . S
C770 H794 0.950 . S
C771 C788 1.574 . S
C771 C790 1.368 . S
C771 H795 0.949 . S
H772 C776 0.949 . S
C773 C774 1.349 . S
C773 C775 1.327 . S
C773 H796 0.950 . S
C774 C773 1.349 . S
C774 C786 1.349 . S
C775 C773 1.327 . S
C775 C791 1.429 . S
C775 H797 0.950 . S
C776 H772 0.949 . S
C776 C784 1.574 . S
C776 C792 1.368 . S
H777 C785 0.950 . S
H778 C783 0.950 . S
H779 C784 0.949 . S
H780 C786 0.950 . S
H781 C787 0.950 . S
H782 C788 0.949 . S
C783 H778 0.950 . S
C783 C785 1.327 . S
C783 C789 1.429 . S
C784 C776 1.574 . S
C784 H779 0.949 . S
C784 C790 1.368 . S
C785 C769 1.349 . S
C785 H777 0.950 . S
C785 C783 1.327 . S
C786 C774 1.349 . S
C786 H780 0.950 . S
C786 C787 1.327 . S
C787 H781 0.950 . S
C787 C786 1.327 . S
C787 C791 1.429 . S
C788 C771 1.574 . S
C788 H782 0.949 . S
C788 C792 1.368 . S
C789 C770 1.429 . S
C789 C783 1.429 . S
C789 C790 1.523 . S
C790 C771 1.368 . S
C790 C784 1.368 . S
C790 C789 1.523 . S
C791 C775 1.429 . S
C791 C787 1.429 . S
C791 C792 1.523 . S
C792 C776 1.368 . S
C792 C788 1.368 . S
C792 C791 1.523 . S
H793 C768 0.950 . S
H794 C770 0.950 . S
H795 C771 0.949 . S
H796 C773 0.950 . S
H797 C775 0.950 . S
C798 C799 1.349 . S
C798 C800 1.327 . S
C798 H823 0.950 . S
C799 C798 1.349 . S
C799 C815 1.349 . S
C800 C798 1.327 . S
C800 C819 1.429 . S
C800 H824 0.950 . S
C801 C818 1.574 . S
C801 C820 1.368 . S
C801 H825 0.949 . S
H802 C806 0.949 . S
C803 C804 1.349 . S
C803 C805 1.327 . S
C803 H826 0.950 . S
C804 C803 1.349 . S
C804 C816 1.349 . S
C805 C803 1.327 . S
C805 C821 1.429 . S
C805 H827 0.950 . S
C806 H802 0.949 . S
C806 C814 1.574 . S
C806 C822 1.368 . S
H807 C815 0.950 . S
H808 C813 0.950 . S
H809 C814 0.949 . S
H810 C816 0.950 . S
H811 C817 0.950 . S
H812 C818 0.949 . S
C813 H808 0.950 . S
C813 C815 1.327 . S
C813 C819 1.429 . S
C814 C806 1.574 . S
C814 H809 0.949 . S
C814 C820 1.368 . S
C815 C799 1.349 . S
C815 H807 0.950 . S
C815 C813 1.327 . S
C816 C804 1.349 . S
C816 H810 0.950 . S
C816 C817 1.327 . S
C817 H811 0.950 . S
C817 C816 1.327 . S
C817 C821 1.429 . S
C818 C801 1.574 . S
C818 H812 0.949 . S
C818 C822 1.368 . S
C819 C800 1.429 . S
C819 C813 1.429 . S
C819 C820 1.523 . S
C820 C801 1.368 . S
C820 C814 1.368 . S
C820 C819 1.523 . S
C821 C805 1.429 . S
C821 C817 1.429 . S
C821 C822 1.523 . S
C822 C806 1.368 . S
C822 C818 1.368 . S
C822 C821 1.523 . S
H823 C798 0.950 . S
H824 C800 0.950 . S
H825 C801 0.949 . S
H826 C803 0.950 . S
H827 C805 0.950 . S
C828 C829 1.349 . S
C828 C830 1.327 . S
C828 H853 0.950 . S
C829 C828 1.349 . S
C829 C845 1.349 . S
C830 C828 1.327 . S
C830 C849 1.429 . S
C830 H854 0.950 . S
C831 C848 1.574 . S
C831 C850 1.368 . S
C831 H855 0.949 . S
H832 C836 0.949 . S
C833 C834 1.349 . S
C833 C835 1.327 . S
C833 H856 0.950 . S
C834 C833 1.349 . S
C834 C846 1.349 . S
C835 C833 1.327 . S
C835 C851 1.429 . S
C835 H857 0.950 . S
C836 H832 0.949 . S
C836 C844 1.574 . S
C836 C852 1.368 . S
H837 C845 0.950 . S
H838 C843 0.950 . S
H839 C844 0.949 . S
H840 C846 0.950 . S
H841 C847 0.950 . S
H842 C848 0.949 . S
C843 H838 0.950 . S
C843 C845 1.327 . S
C843 C849 1.429 . S
C844 C836 1.574 . S
C844 H839 0.949 . S
C844 C850 1.368 . S
C845 C829 1.349 . S
C845 H837 0.950 . S
C845 C843 1.327 . S
C846 C834 1.349 . S
C846 H840 0.950 . S
C846 C847 1.327 . S
C847 H841 0.950 . S
C847 C846 1.327 . S
C847 C851 1.429 . S
C848 C831 1.574 . S
C848 H842 0.949 . S
C848 C852 1.368 . S
C849 C830 1.429 . S
C849 C843 1.429 . S
C849 C850 1.523 . S
C850 C831 1.368 . S
C850 C844 1.368 . S
C850 C849 1.523 . S
C851 C835 1.429 . S
C851 C847 1.429 . S
C851 C852 1.523 . S
C852 C836 1.368 . S
C852 C848 1.368 . S
C852 C851 1.523 . S
H853 C828 0.950 . S
H854 C830 0.950 . S
H855 C831 0.949 . S
H856 C833 0.950 . S
H857 C835 0.950 . S
C858 C859 1.349 . S
C858 C860 1.327 . S
C858 H883 0.950 . S
C859 C858 1.349 . S
C859 C875 1.349 . S
C860 C858 1.327 . S
C860 C879 1.429 . S
C860 H884 0.950 . S
C861 C878 1.574 . S
C861 C880 1.368 . S
C861 H885 0.949 . S
H862 C866 0.949 . S
C863 C864 1.349 . S
C863 C865 1.327 . S
C863 H886 0.950 . S
C864 C863 1.349 . S
C864 C876 1.349 . S
C865 C863 1.327 . S
C865 C881 1.429 . S
C865 H887 0.950 . S
C866 H862 0.949 . S
C866 C874 1.574 . S
C866 C882 1.368 . S
H867 C875 0.950 . S
H868 C873 0.950 . S
H869 C874 0.949 . S
H870 C876 0.950 . S
H871 C877 0.950 . S
H872 C878 0.949 . S
C873 H868 0.950 . S
C873 C875 1.327 . S
C873 C879 1.429 . S
C874 C866 1.574 . S
C874 H869 0.949 . S
C874 C880 1.368 . S
C875 C859 1.349 . S
C875 H867 0.950 . S
C875 C873 1.327 . S
C876 C864 1.349 . S
C876 H870 0.950 . S
C876 C877 1.327 . S
C877 H871 0.950 . S
C877 C876 1.327 . S
C877 C881 1.429 . S
C878 C861 1.574 . S
C878 H872 0.949 . S
C878 C882 1.368 . S
C879 C860 1.429 . S
C879 C873 1.429 . S
C879 C880 1.523 . S
C880 C861 1.368 . S
C880 C874 1.368 . S
C880 C879 1.523 . S
C881 C865 1.429 . S
C881 C877 1.429 . S
C881 C882 1.523 . S
C882 C866 1.368 . S
C882 C878 1.368 . S
C882 C881 1.523 . S
H883 C858 0.950 . S
H884 C860 0.950 . S
H885 C861 0.949 . S
H886 C863 0.950 . S
H887 C865 0.950 . S
C888 C889 1.349 . S
C888 C890 1.327 . S
C888 H913 0.950 . S
C889 C888 1.349 . S
C889 C905 1.349 . S
C890 C888 1.327 . S
C890 C909 1.429 . S
C890 H914 0.950 . S
C891 C908 1.574 . S
C891 C910 1.368 . S
C891 H915 0.949 . S
H892 C896 0.949 . S
C893 C894 1.349 . S
C893 C895 1.327 . S
C893 H916 0.950 . S
C894 C893 1.349 . S
C894 C906 1.349 . S
C895 C893 1.327 . S
C895 C911 1.429 . S
C895 H917 0.950 . S
C896 H892 0.949 . S
C896 C904 1.574 . S
C896 C912 1.368 . S
H897 C905 0.950 . S
H898 C903 0.950 . S
H899 C904 0.949 . S
H900 C906 0.950 . S
H901 C907 0.950 . S
H902 C908 0.949 . S
C903 H898 0.950 . S
C903 C905 1.327 . S
C903 C909 1.429 . S
C904 C896 1.574 . S
C904 H899 0.949 . S
C904 C910 1.368 . S
C905 C889 1.349 . S
C905 H897 0.950 . S
C905 C903 1.327 . S
C906 C894 1.349 . S
C906 H900 0.950 . S
C906 C907 1.327 . S
C907 H901 0.950 . S
C907 C906 1.327 . S
C907 C911 1.429 . S
C908 C891 1.574 . S
C908 H902 0.949 . S
C908 C912 1.368 . S
C909 C890 1.429 . S
C909 C903 1.429 . S
C909 C910 1.523 . S
C910 C891 1.368 . S
C910 C904 1.368 . S
C910 C909 1.523 . S
C911 C895 1.429 . S
C911 C907 1.429 . S
C911 C912 1.523 . S
C912 C896 1.368 . S
C912 C908 1.368 . S
C912 C911 1.523 . S
H913 C888 0.950 . S
H914 C890 0.950 . S
H915 C891 0.949 . S
H916 C893 0.950 . S
H917 C895 0.950 . S
C918 C919 1.349 . S
C918 C920 1.327 . S
C918 H943 0.950 . S
C919 C918 1.349 . S
C919 C935 1.349 . S
C920 C918 1.327 . S
C920 C939 1.429 . S
C920 H944 0.950 . S
C921 C938 1.574 . S
C921 C940 1.368 . S
C921 H945 0.949 . S
H922 C926 0.949 . S
C923 C924 1.349 . S
C923 C925 1.327 . S
C923 H946 0.950 . S
C924 C923 1.349 . S
C924 C936 1.349 . S
C925 C923 1.327 . S
C925 C941 1.429 . S
C925 H947 0.950 . S
C926 H922 0.949 . S
C926 C934 1.574 . S
C926 C942 1.368 . S
H927 C935 0.950 . S
H928 C933 0.950 . S
H929 C934 0.949 . S
H930 C936 0.950 . S
H931 C937 0.950 . S
H932 C938 0.949 . S
C933 H928 0.950 . S
C933 C935 1.327 . S
C933 C939 1.429 . S
C934 C926 1.574 . S
C934 H929 0.949 . S
C934 C940 1.368 . S
C935 C919 1.349 . S
C935 H927 0.950 . S
C935 C933 1.327 . S
C936 C924 1.349 . S
C936 H930 0.950 . S
C936 C937 1.327 . S
C937 H931 0.950 . S
C937 C936 1.327 . S
C937 C941 1.429 . S
C938 C921 1.574 . S
C938 H932 0.949 . S
C938 C942 1.368 . S
C939 C920 1.429 . S
C939 C933 1.429 . S
C939 C940 1.523 . S
C940 C921 1.368 . S
C940 C934 1.368 . S
C940 C939 1.523 . S
C941 C925 1.429 . S
C941 C937 1.429 . S
C941 C942 1.523 . S
C942 C926 1.368 . S
C942 C938 1.368 . S
C942 C941 1.523 . S
H943 C918 0.950 . S
H944 C920 0.950 . S
H945 C921 0.949 . S
H946 C923 0.950 . S
H947 C925 0.950 . S
C948 C949 1.349 . S
C948 C950 1.327 . S
C948 H973 0.950 . S
C949 C948 1.349 . S
C949 C965 1.349 . S
C950 C948 1.327 . S
C950 C969 1.429 . S
C950 H974 0.950 . S
C951 C968 1.574 . S
C951 C970 1.368 . S
C951 H975 0.949 . S
H952 C956 0.949 . S
C953 C954 1.349 . S
C953 C955 1.327 . S
C953 H976 0.950 . S
C954 C953 1.349 . S
C954 C966 1.349 . S
C955 C953 1.327 . S
C955 C971 1.429 . S
C955 H977 0.950 . S
C956 H952 0.949 . S
C956 C964 1.574 . S
C956 C972 1.368 . S
H957 C965 0.950 . S
H958 C963 0.950 . S
H959 C964 0.949 . S
H960 C966 0.950 . S
H961 C967 0.950 . S
H962 C968 0.949 . S
C963 H958 0.950 . S
C963 C965 1.327 . S
C963 C969 1.429 . S
C964 C956 1.574 . S
C964 H959 0.949 . S
C964 C970 1.368 . S
C965 C949 1.349 . S
C965 H957 0.950 . S
C965 C963 1.327 . S
C966 C954 1.349 . S
C966 H960 0.950 . S
C966 C967 1.327 . S
C967 H961 0.950 . S
C967 C966 1.327 . S
C967 C971 1.429 . S
C968 C951 1.574 . S
C968 H962 0.949 . S
C968 C972 1.368 . S
C969 C950 1.429 . S
C969 C963 1.429 . S
C969 C970 1.523 . S
C970 C951 1.368 . S
C970 C964 1.368 . S
C970 C969 1.523 . S
C971 C955 1.429 . S
C971 C967 1.429 . S
C971 C972 1.523 . S
C972 C956 1.368 . S
C972 C968 1.368 . S
C972 C971 1.523 . S
H973 C948 0.950 . S
H974 C950 0.950 . S
H975 C951 0.949 . S
H976 C953 0.950 . S
H977 C955 0.950 . S
C978 C979 1.349 . S
C978 C980 1.327 . S
C978 H1003 0.950 . S
C979 C978 1.349 . S
C979 C995 1.349 . S
C980 C978 1.327 . S
C980 C999 1.429 . S
C980 H1004 0.950 . S
C981 C998 1.574 . S
C981 C1000 1.368 . S
C981 H1005 0.949 . S
H982 C986 0.949 . S
C983 C984 1.349 . S
C983 C985 1.327 . S
C983 H1006 0.950 . S
C984 C983 1.349 . S
C984 C996 1.349 . S
C985 C983 1.327 . S
C985 C1001 1.429 . S
C985 H1007 0.950 . S
C986 H982 0.949 . S
C986 C994 1.574 . S
C986 C1002 1.368 . S
H987 C995 0.950 . S
H988 C993 0.950 . S
H989 C994 0.949 . S
H990 C996 0.950 . S
H991 C997 0.950 . S
H992 C998 0.949 . S
C993 H988 0.950 . S
C993 C995 1.327 . S
C993 C999 1.429 . S
C994 C986 1.574 . S
C994 H989 0.949 . S
C994 C1000 1.368 . S
C995 C979 1.349 . S
C995 H987 0.950 . S
C995 C993 1.327 . S
C996 C984 1.349 . S
C996 H990 0.950 . S
C996 C997 1.327 . S
C997 H991 0.950 . S
C997 C996 1.327 . S
C997 C1001 1.429 . S
C998 C981 1.574 . S
C998 H992 0.949 . S
C998 C1002 1.368 . S
C999 C980 1.429 . S
C999 C993 1.429 . S
C999 C1000 1.523 . S
C1000 C981 1.368 . S
C1000 C994 1.368 . S
C1000 C999 1.523 . S
C1001 C985 1.429 . S
C1001 C997 1.429 . S
C1001 C1002 1.523 . S
C1002 C986 1.368 . S
C1002 C998 1.368 . S
C1002 C1001 1.523 . S
H1003 C978 0.950 . S
H1004 C980 0.950 . S
H1005 C981 0.949 . S
H1006 C983 0.950 . S
H1007 C985 0.950 . S
C1008 C1009 1.349 . S
C1008 C1010 1.327 . S
C1008 H1033 0.950 . S
C1009 C1008 1.349 . S
C1009 C1025 1.349 . S
C1010 C1008 1.327 . S
C1010 C1029 1.429 . S
C1010 H1034 0.950 1_554 S
C1011 C1028 1.574 1_455 S
C1011 C1030 1.368 . S
C1011 H1035 0.949 . S
H1012 C1016 0.949 . S
C1013 C1014 1.349 . S
C1013 C1015 1.327 . S
C1013 H1036 0.950 . S
C1014 C1013 1.349 . S
C1014 C1026 1.349 . S
C1015 C1013 1.327 . S
C1015 C1031 1.429 . S
C1015 H1037 0.950 1_556 S
C1016 H1012 0.949 . S
C1016 C1024 1.574 1_655 S
C1016 C1032 1.368 . S
H1017 C1025 0.950 . S
H1018 C1023 0.950 . S
H1019 C1024 0.949 . S
H1020 C1026 0.950 . S
H1021 C1027 0.950 . S
H1022 C1028 0.949 . S
C1023 H1018 0.950 . S
C1023 C1025 1.327 . S
C1023 C1029 1.429 . S
C1024 C1016 1.574 1_455 S
C1024 H1019 0.949 . S
C1024 C1030 1.368 1_556 S
C1025 C1009 1.349 . S
C1025 H1017 0.950 . S
C1025 C1023 1.327 . S
C1026 C1014 1.349 . S
C1026 H1020 0.950 . S
C1026 C1027 1.327 . S
C1027 H1021 0.950 . S
C1027 C1026 1.327 . S
C1027 C1031 1.429 . S
C1028 C1011 1.574 1_655 S
C1028 H1022 0.949 . S
C1028 C1032 1.368 1_554 S
C1029 C1010 1.429 . S
C1029 C1023 1.429 . S
C1029 C1030 1.523 . S
C1030 C1011 1.368 . S
C1030 C1024 1.368 1_554 S
C1030 C1029 1.523 . S
C1031 C1015 1.429 . S
C1031 C1027 1.429 . S
C1031 C1032 1.523 . S
C1032 C1016 1.368 . S
C1032 C1028 1.368 1_556 S
C1032 C1031 1.523 . S
H1033 C1008 0.950 . S
H1034 C1010 0.950 1_556 S
H1035 C1011 0.949 . S
H1036 C1013 0.950 . S
H1037 C1015 0.950 1_554 S
C1038 C1039 1.349 . S
C1038 C1040 1.327 . S
C1038 H1063 0.950 . S
C1039 C1038 1.349 . S
C1039 C1055 1.349 . S
C1040 C1038 1.327 . S
C1040 C1059 1.429 . S
C1040 H1064 0.950 1_556 S
C1041 C1058 1.574 . S
C1041 C1060 1.368 . S
C1041 H1065 0.949 . S
H1042 C1046 0.949 . S
C1043 C1044 1.349 . S
C1043 C1045 1.327 . S
C1043 H1066 0.950 . S
C1044 C1043 1.349 . S
C1044 C1056 1.349 . S
C1045 C1043 1.327 . S
C1045 C1061 1.429 . S
C1045 H1067 0.950 1_554 S
C1046 H1042 0.949 . S
C1046 C1054 1.574 . S
C1046 C1062 1.368 . S
H1047 C1055 0.950 . S
H1048 C1053 0.950 . S
H1049 C1054 0.949 . S
H1050 C1056 0.950 . S
H1051 C1057 0.950 . S
H1052 C1058 0.949 . S
C1053 H1048 0.950 . S
C1053 C1055 1.327 . S
C1053 C1059 1.429 . S
C1054 C1046 1.574 . S
C1054 H1049 0.949 . S
C1054 C1060 1.368 1_554 S
C1055 C1039 1.349 . S
C1055 H1047 0.950 . S
C1055 C1053 1.327 . S
C1056 C1044 1.349 . S
C1056 H1050 0.950 . S
C1056 C1057 1.327 . S
C1057 H1051 0.950 . S
C1057 C1056 1.327 . S
C1057 C1061 1.429 . S
C1058 C1041 1.574 . S
C1058 H1052 0.949 . S
C1058 C1062 1.368 1_556 S
C1059 C1040 1.429 . S
C1059 C1053 1.429 . S
C1059 C1060 1.523 . S
C1060 C1041 1.368 . S
C1060 C1054 1.368 1_556 S
C1060 C1059 1.523 . S
C1061 C1045 1.429 . S
C1061 C1057 1.429 . S
C1061 C1062 1.523 . S
C1062 C1046 1.368 . S
C1062 C1058 1.368 1_554 S
C1062 C1061 1.523 . S
H1063 C1038 0.950 . S
H1064 C1040 0.950 1_554 S
H1065 C1041 0.949 . S
H1066 C1043 0.950 . S
H1067 C1045 0.950 1_556 S
C1068 C1069 1.349 . S
C1068 C1070 1.327 . S
C1068 H1093 0.950 . S
C1069 C1068 1.349 . S
C1069 C1085 1.349 . S
C1070 C1068 1.327 . S
C1070 C1089 1.429 . S
C1070 H1094 0.950 1_554 S
C1071 C1088 1.574 1_565 S
C1071 C1090 1.368 . S
C1071 H1095 0.949 . S
H1072 C1076 0.949 . S
C1073 C1074 1.349 . S
C1073 C1075 1.327 . S
C1073 H1096 0.950 . S
C1074 C1073 1.349 . S
C1074 C1086 1.349 . S
C1075 C1073 1.327 . S
C1075 C1091 1.429 . S
C1075 H1097 0.950 1_556 S
C1076 H1072 0.949 . S
C1076 C1084 1.574 1_545 S
C1076 C1092 1.368 . S
H1077 C1085 0.950 . S
H1078 C1083 0.950 . S
H1079 C1084 0.949 . S
H1080 C1086 0.950 . S
H1081 C1087 0.950 . S
H1082 C1088 0.949 . S
C1083 H1078 0.950 . S
C1083 C1085 1.327 . S
C1083 C1089 1.429 . S
C1084 C1076 1.574 1_565 S
C1084 H1079 0.949 . S
C1084 C1090 1.368 1_556 S
C1085 C1069 1.349 . S
C1085 H1077 0.950 . S
C1085 C1083 1.327 . S
C1086 C1074 1.349 . S
C1086 H1080 0.950 . S
C1086 C1087 1.327 . S
C1087 H1081 0.950 . S
C1087 C1086 1.327 . S
C1087 C1091 1.429 . S
C1088 C1071 1.574 1_545 S
C1088 H1082 0.949 . S
C1088 C1092 1.368 1_554 S
C1089 C1070 1.429 . S
C1089 C1083 1.429 . S
C1089 C1090 1.523 . S
C1090 C1071 1.368 . S
C1090 C1084 1.368 1_554 S
C1090 C1089 1.523 . S
C1091 C1075 1.429 . S
C1091 C1087 1.429 . S
C1091 C1092 1.523 . S
C1092 C1076 1.368 . S
C1092 C1088 1.368 1_556 S
C1092 C1091 1.523 . S
H1093 C1068 0.950 . S
H1094 C1070 0.950 1_556 S
H1095 C1071 0.949 . S
H1096 C1073 0.950 . S
H1097 C1075 0.950 1_554 S
C1098 C1099 1.349 . S
C1098 C1100 1.327 . S
C1098 H1123 0.950 . S
C1099 C1098 1.349 . S
C1099 C1115 1.349 . S
C1100 C1098 1.327 . S
C1100 C1119 1.429 . S
C1100 H1124 0.950 . S
C1101 C1118 1.574 1_655 S
C1101 C1120 1.368 1_554 S
C1101 H1125 0.949 . S
H1102 C1106 0.949 . S
C1103 C1104 1.349 . S
C1103 C1105 1.327 . S
C1103 H1126 0.950 . S
C1104 C1103 1.349 . S
C1104 C1116 1.349 . S
C1105 C1103 1.327 . S
C1105 C1121 1.429 . S
C1105 H1127 0.950 . S
C1106 H1102 0.949 . S
C1106 C1114 1.574 1_455 S
C1106 C1122 1.368 1_556 S
H1107 C1115 0.950 . S
H1108 C1113 0.950 1_554 S
H1109 C1114 0.949 . S
H1110 C1116 0.950 . S
H1111 C1117 0.950 1_556 S
H1112 C1118 0.949 . S
C1113 H1108 0.950 1_556 S
C1113 C1115 1.327 . S
C1113 C1119 1.429 . S
C1114 C1106 1.574 1_655 S
C1114 H1109 0.949 . S
C1114 C1120 1.368 . S
C1115 C1099 1.349 . S
C1115 H1107 0.950 . S
C1115 C1113 1.327 . S
C1116 C1104 1.349 . S
C1116 H1110 0.950 . S
C1116 C1117 1.327 . S
C1117 H1111 0.950 1_554 S
C1117 C1116 1.327 . S
C1117 C1121 1.429 . S
C1118 C1101 1.574 1_455 S
C1118 H1112 0.949 . S
C1118 C1122 1.368 . S
C1119 C1100 1.429 . S
C1119 C1113 1.429 . S
C1119 C1120 1.523 . S
C1120 C1101 1.368 1_556 S
C1120 C1114 1.368 . S
C1120 C1119 1.523 . S
C1121 C1105 1.429 . S
C1121 C1117 1.429 . S
C1121 C1122 1.523 . S
C1122 C1106 1.368 1_554 S
C1122 C1118 1.368 . S
C1122 C1121 1.523 . S
H1123 C1098 0.950 . S
H1124 C1100 0.950 . S
H1125 C1101 0.949 . S
H1126 C1103 0.950 . S
H1127 C1105 0.950 . S
C1128 C1129 1.349 . S
C1128 C1130 1.327 . S
C1128 H1153 0.950 . S
C1129 C1128 1.349 . S
C1129 C1145 1.349 . S
C1130 C1128 1.327 . S
C1130 C1149 1.429 . S
C1130 H1154 0.950 . S
C1131 C1148 1.574 1_556 S
C1131 C1150 1.368 . S
C1131 H1155 0.949 . S
H1132 C1136 0.949 . S
C1133 C1134 1.349 . S
C1133 C1135 1.327 . S
C1133 H1156 0.950 . S
C1134 C1133 1.349 . S
C1134 C1146 1.349 . S
C1135 C1133 1.327 . S
C1135 C1151 1.429 . S
C1135 H1157 0.950 . S
C1136 H1132 0.949 . S
C1136 C1144 1.574 1_554 S
C1136 C1152 1.368 . S
H1137 C1145 0.950 . S
H1138 C1143 0.950 . S
H1139 C1144 0.949 . S
H1140 C1146 0.950 . S
H1141 C1147 0.950 . S
H1142 C1148 0.949 . S
C1143 H1138 0.950 . S
C1143 C1145 1.327 . S
C1143 C1149 1.429 . S
C1144 C1136 1.574 1_556 S
C1144 H1139 0.949 . S
C1144 C1150 1.368 . S
C1145 C1129 1.349 . S
C1145 H1137 0.950 . S
C1145 C1143 1.327 . S
C1146 C1134 1.349 . S
C1146 H1140 0.950 . S
C1146 C1147 1.327 . S
C1147 H1141 0.950 . S
C1147 C1146 1.327 . S
C1147 C1151 1.429 . S
C1148 C1131 1.574 1_554 S
C1148 H1142 0.949 . S
C1148 C1152 1.368 . S
C1149 C1130 1.429 . S
C1149 C1143 1.429 . S
C1149 C1150 1.523 . S
C1150 C1131 1.368 . S
C1150 C1144 1.368 . S
C1150 C1149 1.523 . S
C1151 C1135 1.429 . S
C1151 C1147 1.429 . S
C1151 C1152 1.523 . S
C1152 C1136 1.368 . S
C1152 C1148 1.368 . S
C1152 C1151 1.523 . S
H1153 C1128 0.950 . S
H1154 C1130 0.950 . S
H1155 C1131 0.949 . S
H1156 C1133 0.950 . S
H1157 C1135 0.950 . S
C1158 C1159 1.349 . S
C1158 C1160 1.327 . S
C1158 H1183 0.950 . S
C1159 C1158 1.349 . S
C1159 C1175 1.349 . S
C1160 C1158 1.327 . S
C1160 C1179 1.429 . S
C1160 H1184 0.950 . S
C1161 C1178 1.574 1_545 S
C1161 C1180 1.368 1_554 S
C1161 H1185 0.949 . S
H1162 C1166 0.949 . S
C1163 C1164 1.349 . S
C1163 C1165 1.327 . S
C1163 H1186 0.950 . S
C1164 C1163 1.349 . S
C1164 C1176 1.349 . S
C1165 C1163 1.327 . S
C1165 C1181 1.429 . S
C1165 H1187 0.950 . S
C1166 H1162 0.949 . S
C1166 C1174 1.574 1_565 S
C1166 C1182 1.368 1_556 S
H1167 C1175 0.950 . S
H1168 C1173 0.950 1_554 S
H1169 C1174 0.949 . S
H1170 C1176 0.950 . S
H1171 C1177 0.950 1_556 S
H1172 C1178 0.949 . S
C1173 H1168 0.950 1_556 S
C1173 C1175 1.327 . S
C1173 C1179 1.429 . S
C1174 C1166 1.574 1_545 S
C1174 H1169 0.949 . S
C1174 C1180 1.368 . S
C1175 C1159 1.349 . S
C1175 H1167 0.950 . S
C1175 C1173 1.327 . S
C1176 C1164 1.349 . S
C1176 H1170 0.950 . S
C1176 C1177 1.327 . S
C1177 H1171 0.950 1_554 S
C1177 C1176 1.327 . S
C1177 C1181 1.429 . S
C1178 C1161 1.574 1_565 S
C1178 H1172 0.949 . S
C1178 C1182 1.368 . S
C1179 C1160 1.429 . S
C1179 C1173 1.429 . S
C1179 C1180 1.523 . S
C1180 C1161 1.368 1_556 S
C1180 C1174 1.368 . S
C1180 C1179 1.523 . S
C1181 C1165 1.429 . S
C1181 C1177 1.429 . S
C1181 C1182 1.523 . S
C1182 C1166 1.368 1_554 S
C1182 C1178 1.368 . S
C1182 C1181 1.523 . S
H1183 C1158 0.950 . S
H1184 C1160 0.950 . S
H1185 C1161 0.949 . S
H1186 C1163 0.950 . S
H1187 C1165 0.950 . S
C1188 C1189 1.349 . S
C1188 C1190 1.327 . S
C1188 H1213 0.950 . S
C1189 C1188 1.349 . S
C1189 C1205 1.349 . S
C1190 C1188 1.327 . S
C1190 C1209 1.429 . S
C1190 H1214 0.950 . S
C1191 C1208 1.574 . S
C1191 C1210 1.368 . S
C1191 H1215 0.949 . S
H1192 C1196 0.949 . S
C1193 C1194 1.349 . S
C1193 C1195 1.327 . S
C1193 H1216 0.950 . S
C1194 C1193 1.349 . S
C1194 C1206 1.349 . S
C1195 C1193 1.327 . S
C1195 C1211 1.429 . S
C1195 H1217 0.950 . S
C1196 H1192 0.949 . S
C1196 C1204 1.574 . S
C1196 C1212 1.368 . S
H1197 C1205 0.950 . S
H1198 C1203 0.950 . S
H1199 C1204 0.949 . S
H1200 C1206 0.950 . S
H1201 C1207 0.950 . S
H1202 C1208 0.949 . S
C1203 H1198 0.950 . S
C1203 C1205 1.327 . S
C1203 C1209 1.429 . S
C1204 C1196 1.574 . S
C1204 H1199 0.949 . S
C1204 C1210 1.368 . S
C1205 C1189 1.349 . S
C1205 H1197 0.950 . S
C1205 C1203 1.327 . S
C1206 C1194 1.349 . S
C1206 H1200 0.950 . S
C1206 C1207 1.327 . S
C1207 H1201 0.950 . S
C1207 C1206 1.327 . S
C1207 C1211 1.429 . S
C1208 C1191 1.574 . S
C1208 H1202 0.949 . S
C1208 C1212 1.368 . S
C1209 C1190 1.429 . S
C1209 C1203 1.429 . S
C1209 C1210 1.523 . S
C1210 C1191 1.368 . S
C1210 C1204 1.368 . S
C1210 C1209 1.523 . S
C1211 C1195 1.429 . S
C1211 C1207 1.429 . S
C1211 C1212 1.523 . S
C1212 C1196 1.368 . S
C1212 C1208 1.368 . S
C1212 C1211 1.523 . S
H1213 C1188 0.950 . S
H1214 C1190 0.950 . S
H1215 C1191 0.949 . S
H1216 C1193 0.950 . S
H1217 C1195 0.950 . S
C1218 C1219 1.349 . S
C1218 C1220 1.327 . S
C1218 H1243 0.950 . S
C1219 C1218 1.349 . S
C1219 C1235 1.349 . S
C1220 C1218 1.327 . S
C1220 C1239 1.429 . S
C1220 H1244 0.950 . S
C1221 C1238 1.574 . S
C1221 C1240 1.368 . S
C1221 H1245 0.949 . S
H1222 C1226 0.949 . S
C1223 C1224 1.349 . S
C1223 C1225 1.327 . S
C1223 H1246 0.950 . S
C1224 C1223 1.349 . S
C1224 C1236 1.349 . S
C1225 C1223 1.327 . S
C1225 C1241 1.429 . S
C1225 H1247 0.950 . S
C1226 H1222 0.949 . S
C1226 C1234 1.574 . S
C1226 C1242 1.368 . S
H1227 C1235 0.950 . S
H1228 C1233 0.950 . S
H1229 C1234 0.949 . S
H1230 C1236 0.950 . S
H1231 C1237 0.950 . S
H1232 C1238 0.949 . S
C1233 H1228 0.950 . S
C1233 C1235 1.327 . S
C1233 C1239 1.429 . S
C1234 C1226 1.574 . S
C1234 H1229 0.949 . S
C1234 C1240 1.368 . S
C1235 C1219 1.349 . S
C1235 H1227 0.950 . S
C1235 C1233 1.327 . S
C1236 C1224 1.349 . S
C1236 H1230 0.950 . S
C1236 C1237 1.327 . S
C1237 H1231 0.950 . S
C1237 C1236 1.327 . S
C1237 C1241 1.429 . S
C1238 C1221 1.574 . S
C1238 H1232 0.949 . S
C1238 C1242 1.368 . S
C1239 C1220 1.429 . S
C1239 C1233 1.429 . S
C1239 C1240 1.523 . S
C1240 C1221 1.368 . S
C1240 C1234 1.368 . S
C1240 C1239 1.523 . S
C1241 C1225 1.429 . S
C1241 C1237 1.429 . S
C1241 C1242 1.523 . S
C1242 C1226 1.368 . S
C1242 C1238 1.368 . S
C1242 C1241 1.523 . S
H1243 C1218 0.950 . S
H1244 C1220 0.950 . S
H1245 C1221 0.949 . S
H1246 C1223 0.950 . S
H1247 C1225 0.950 . S
C1248 C1249 1.349 . S
C1248 C1250 1.327 . S
C1248 H1273 0.950 . S
C1249 C1248 1.349 . S
C1249 C1265 1.349 . S
C1250 C1248 1.327 . S
C1250 C1269 1.429 . S
C1250 H1274 0.950 . S
C1251 C1268 1.574 . S
C1251 C1270 1.368 . S
C1251 H1275 0.949 . S
H1252 C1256 0.949 . S
C1253 C1254 1.349 . S
C1253 C1255 1.327 . S
C1253 H1276 0.950 . S
C1254 C1253 1.349 . S
C1254 C1266 1.349 . S
C1255 C1253 1.327 . S
C1255 C1271 1.429 . S
C1255 H1277 0.950 . S
C1256 H1252 0.949 . S
C1256 C1264 1.574 . S
C1256 C1272 1.368 . S
H1257 C1265 0.950 . S
H1258 C1263 0.950 . S
H1259 C1264 0.949 . S
H1260 C1266 0.950 . S
H1261 C1267 0.950 . S
H1262 C1268 0.949 . S
C1263 H1258 0.950 . S
C1263 C1265 1.327 . S
C1263 C1269 1.429 . S
C1264 C1256 1.574 . S
C1264 H1259 0.949 . S
C1264 C1270 1.368 . S
C1265 C1249 1.349 . S
C1265 H1257 0.950 . S
C1265 C1263 1.327 . S
C1266 C1254 1.349 . S
C1266 H1260 0.950 . S
C1266 C1267 1.327 . S
C1267 H1261 0.950 . S
C1267 C1266 1.327 . S
C1267 C1271 1.429 . S
C1268 C1251 1.574 . S
C1268 H1262 0.949 . S
C1268 C1272 1.368 . S
C1269 C1250 1.429 . S
C1269 C1263 1.429 . S
C1269 C1270 1.523 . S
C1270 C1251 1.368 . S
C1270 C1264 1.368 . S
C1270 C1269 1.523 . S
C1271 C1255 1.429 . S
C1271 C1267 1.429 . S
C1271 C1272 1.523 . S
C1272 C1256 1.368 . S
C1272 C1268 1.368 . S
C1272 C1271 1.523 . S
H1273 C1248 0.950 . S
H1274 C1250 0.950 . S
H1275 C1251 0.949 . S
H1276 C1253 0.950 . S
H1277 C1255 0.950 . S
C1278 C1279 1.349 . S
C1278 C1280 1.327 . S
C1278 H1303 0.950 . S
C1279 C1278 1.349 . S
C1279 C1295 1.349 . S
C1280 C1278 1.327 . S
C1280 C1299 1.429 . S
C1280 H1304 0.950 . S
C1281 C1298 1.574 . S
C1281 C1300 1.368 . S
C1281 H1305 0.949 . S
H1282 C1286 0.949 . S
C1283 C1284 1.349 . S
C1283 C1285 1.327 . S
C1283 H1306 0.950 . S
C1284 C1283 1.349 . S
C1284 C1296 1.349 . S
C1285 C1283 1.327 . S
C1285 C1301 1.429 . S
C1285 H1307 0.950 . S
C1286 H1282 0.949 . S
C1286 C1294 1.574 . S
C1286 C1302 1.368 . S
H1287 C1295 0.950 . S
H1288 C1293 0.950 . S
H1289 C1294 0.949 . S
H1290 C1296 0.950 . S
H1291 C1297 0.950 . S
H1292 C1298 0.949 . S
C1293 H1288 0.950 . S
C1293 C1295 1.327 . S
C1293 C1299 1.429 . S
C1294 C1286 1.574 . S
C1294 H1289 0.949 . S
C1294 C1300 1.368 . S
C1295 C1279 1.349 . S
C1295 H1287 0.950 . S
C1295 C1293 1.327 . S
C1296 C1284 1.349 . S
C1296 H1290 0.950 . S
C1296 C1297 1.327 . S
C1297 H1291 0.950 . S
C1297 C1296 1.327 . S
C1297 C1301 1.429 . S
C1298 C1281 1.574 . S
C1298 H1292 0.949 . S
C1298 C1302 1.368 . S
C1299 C1280 1.429 . S
C1299 C1293 1.429 . S
C1299 C1300 1.523 . S
C1300 C1281 1.368 . S
C1300 C1294 1.368 . S
C1300 C1299 1.523 . S
C1301 C1285 1.429 . S
C1301 C1297 1.429 . S
C1301 C1302 1.523 . S
C1302 C1286 1.368 . S
C1302 C1298 1.368 . S
C1302 C1301 1.523 . S
H1303 C1278 0.950 . S
H1304 C1280 0.950 . S
H1305 C1281 0.949 . S
H1306 C1283 0.950 . S
H1307 C1285 0.950 . S
C1308 C1309 1.349 . S
C1308 C1310 1.327 . S
C1308 H1333 0.950 . S
C1309 C1308 1.349 . S
C1309 C1325 1.349 . S
C1310 C1308 1.327 . S
C1310 C1329 1.429 . S
C1310 H1334 0.950 . S
C1311 C1328 1.574 . S
C1311 C1330 1.368 . S
C1311 H1335 0.949 . S
H1312 C1316 0.949 . S
C1313 C1314 1.349 . S
C1313 C1315 1.327 . S
C1313 H1336 0.950 . S
C1314 C1313 1.349 . S
C1314 C1326 1.349 . S
C1315 C1313 1.327 . S
C1315 C1331 1.429 . S
C1315 H1337 0.950 . S
C1316 H1312 0.949 . S
C1316 C1324 1.574 . S
C1316 C1332 1.368 . S
H1317 C1325 0.950 . S
H1318 C1323 0.950 . S
H1319 C1324 0.949 . S
H1320 C1326 0.950 . S
H1321 C1327 0.950 . S
H1322 C1328 0.949 . S
C1323 H1318 0.950 . S
C1323 C1325 1.327 . S
C1323 C1329 1.429 . S
C1324 C1316 1.574 . S
C1324 H1319 0.949 . S
C1324 C1330 1.368 . S
C1325 C1309 1.349 . S
C1325 H1317 0.950 . S
C1325 C1323 1.327 . S
C1326 C1314 1.349 . S
C1326 H1320 0.950 . S
C1326 C1327 1.327 . S
C1327 H1321 0.950 . S
C1327 C1326 1.327 . S
C1327 C1331 1.429 . S
C1328 C1311 1.574 . S
C1328 H1322 0.949 . S
C1328 C1332 1.368 . S
C1329 C1310 1.429 . S
C1329 C1323 1.429 . S
C1329 C1330 1.523 . S
C1330 C1311 1.368 . S
C1330 C1324 1.368 . S
C1330 C1329 1.523 . S
C1331 C1315 1.429 . S
C1331 C1327 1.429 . S
C1331 C1332 1.523 . S
C1332 C1316 1.368 . S
C1332 C1328 1.368 . S
C1332 C1331 1.523 . S
H1333 C1308 0.950 . S
H1334 C1310 0.950 . S
H1335 C1311 0.949 . S
H1336 C1313 0.950 . S
H1337 C1315 0.950 . S
C1338 C1339 1.349 . S
C1338 C1340 1.327 . S
C1338 H1363 0.950 . S
C1339 C1338 1.349 . S
C1339 C1355 1.349 . S
C1340 C1338 1.327 . S
C1340 C1359 1.429 . S
C1340 H1364 0.950 . S
C1341 C1358 1.574 . S
C1341 C1360 1.368 . S
C1341 H1365 0.949 . S
H1342 C1346 0.949 . S
C1343 C1344 1.349 . S
C1343 C1345 1.327 . S
C1343 H1366 0.950 . S
C1344 C1343 1.349 . S
C1344 C1356 1.349 . S
C1345 C1343 1.327 . S
C1345 C1361 1.429 . S
C1345 H1367 0.950 . S
C1346 H1342 0.949 . S
C1346 C1354 1.574 . S
C1346 C1362 1.368 . S
H1347 C1355 0.950 . S
H1348 C1353 0.950 . S
H1349 C1354 0.949 . S
H1350 C1356 0.950 . S
H1351 C1357 0.950 . S
H1352 C1358 0.949 . S
C1353 H1348 0.950 . S
C1353 C1355 1.327 . S
C1353 C1359 1.429 . S
C1354 C1346 1.574 . S
C1354 H1349 0.949 . S
C1354 C1360 1.368 . S
C1355 C1339 1.349 . S
C1355 H1347 0.950 . S
C1355 C1353 1.327 . S
C1356 C1344 1.349 . S
C1356 H1350 0.950 . S
C1356 C1357 1.327 . S
C1357 H1351 0.950 . S
C1357 C1356 1.327 . S
C1357 C1361 1.429 . S
C1358 C1341 1.574 . S
C1358 H1352 0.949 . S
C1358 C1362 1.368 . S
C1359 C1340 1.429 . S
C1359 C1353 1.429 . S
C1359 C1360 1.523 . S
C1360 C1341 1.368 . S
C1360 C1354 1.368 . S
C1360 C1359 1.523 . S
C1361 C1345 1.429 . S
C1361 C1357 1.429 . S
C1361 C1362 1.523 . S
C1362 C1346 1.368 . S
C1362 C1358 1.368 . S
C1362 C1361 1.523 . S
H1363 C1338 0.950 . S
H1364 C1340 0.950 . S
H1365 C1341 0.949 . S
H1366 C1343 0.950 . S
H1367 C1345 0.950 . S
C1368 C1369 1.349 . S
C1368 C1370 1.327 . S
C1368 H1393 0.950 . S
C1369 C1368 1.349 . S
C1369 C1385 1.349 . S
C1370 C1368 1.327 . S
C1370 C1389 1.429 . S
C1370 H1394 0.950 . S
C1371 C1388 1.574 . S
C1371 C1390 1.368 . S
C1371 H1395 0.949 . S
H1372 C1376 0.949 . S
C1373 C1374 1.349 . S
C1373 C1375 1.327 . S
C1373 H1396 0.950 . S
C1374 C1373 1.349 . S
C1374 C1386 1.349 . S
C1375 C1373 1.327 . S
C1375 C1391 1.429 . S
C1375 H1397 0.950 . S
C1376 H1372 0.949 . S
C1376 C1384 1.574 . S
C1376 C1392 1.368 . S
H1377 C1385 0.950 . S
H1378 C1383 0.950 . S
H1379 C1384 0.949 . S
H1380 C1386 0.950 . S
H1381 C1387 0.950 . S
H1382 C1388 0.949 . S
C1383 H1378 0.950 . S
C1383 C1385 1.327 . S
C1383 C1389 1.429 . S
C1384 C1376 1.574 . S
C1384 H1379 0.949 . S
C1384 C1390 1.368 . S
C1385 C1369 1.349 . S
C1385 H1377 0.950 . S
C1385 C1383 1.327 . S
C1386 C1374 1.349 . S
C1386 H1380 0.950 . S
C1386 C1387 1.327 . S
C1387 H1381 0.950 . S
C1387 C1386 1.327 . S
C1387 C1391 1.429 . S
C1388 C1371 1.574 . S
C1388 H1382 0.949 . S
C1388 C1392 1.368 . S
C1389 C1370 1.429 . S
C1389 C1383 1.429 . S
C1389 C1390 1.523 . S
C1390 C1371 1.368 . S
C1390 C1384 1.368 . S
C1390 C1389 1.523 . S
C1391 C1375 1.429 . S
C1391 C1387 1.429 . S
C1391 C1392 1.523 . S
C1392 C1376 1.368 . S
C1392 C1388 1.368 . S
C1392 C1391 1.523 . S
H1393 C1368 0.950 . S
H1394 C1370 0.950 . S
H1395 C1371 0.949 . S
H1396 C1373 0.950 . S
H1397 C1375 0.950 . S
C1398 C1399 1.349 . S
C1398 C1400 1.327 . S
C1398 H1423 0.950 . S
C1399 C1398 1.349 . S
C1399 C1415 1.349 . S
C1400 C1398 1.327 . S
C1400 C1419 1.429 . S
C1400 H1424 0.950 . S
C1401 C1418 1.574 . S
C1401 C1420 1.368 . S
C1401 H1425 0.949 . S
H1402 C1406 0.949 . S
C1403 C1404 1.349 . S
C1403 C1405 1.327 . S
C1403 H1426 0.950 . S
C1404 C1403 1.349 . S
C1404 C1416 1.349 . S
C1405 C1403 1.327 . S
C1405 C1421 1.429 . S
C1405 H1427 0.950 . S
C1406 H1402 0.949 . S
C1406 C1414 1.574 . S
C1406 C1422 1.368 . S
H1407 C1415 0.950 . S
H1408 C1413 0.950 . S
H1409 C1414 0.949 . S
H1410 C1416 0.950 . S
H1411 C1417 0.950 . S
H1412 C1418 0.949 . S
C1413 H1408 0.950 . S
C1413 C1415 1.327 . S
C1413 C1419 1.429 . S
C1414 C1406 1.574 . S
C1414 H1409 0.949 . S
C1414 C1420 1.368 . S
C1415 C1399 1.349 . S
C1415 H1407 0.950 . S
C1415 C1413 1.327 . S
C1416 C1404 1.349 . S
C1416 H1410 0.950 . S
C1416 C1417 1.327 . S
C1417 H1411 0.950 . S
C1417 C1416 1.327 . S
C1417 C1421 1.429 . S
C1418 C1401 1.574 . S
C1418 H1412 0.949 . S
C1418 C1422 1.368 . S
C1419 C1400 1.429 . S
C1419 C1413 1.429 . S
C1419 C1420 1.523 . S
C1420 C1401 1.368 . S
C1420 C1414 1.368 . S
C1420 C1419 1.523 . S
C1421 C1405 1.429 . S
C1421 C1417 1.429 . S
C1421 C1422 1.523 . S
C1422 C1406 1.368 . S
C1422 C1418 1.368 . S
C1422 C1421 1.523 . S
H1423 C1398 0.950 . S
H1424 C1400 0.950 . S
H1425 C1401 0.949 . S
H1426 C1403 0.950 . S
H1427 C1405 0.950 . S
C1428 C1429 1.349 . S
C1428 C1430 1.327 . S
C1428 H1453 0.950 . S
C1429 C1428 1.349 . S
C1429 C1445 1.349 . S
C1430 C1428 1.327 . S
C1430 C1449 1.429 . S
C1430 H1454 0.950 . S
C1431 C1448 1.574 . S
C1431 C1450 1.368 . S
C1431 H1455 0.949 . S
H1432 C1436 0.949 . S
C1433 C1434 1.349 . S
C1433 C1435 1.327 . S
C1433 H1456 0.950 . S
C1434 C1433 1.349 . S
C1434 C1446 1.349 . S
C1435 C1433 1.327 . S
C1435 C1451 1.429 . S
C1435 H1457 0.950 . S
C1436 H1432 0.949 . S
C1436 C1444 1.574 . S
C1436 C1452 1.368 . S
H1437 C1445 0.950 . S
H1438 C1443 0.950 . S
H1439 C1444 0.949 . S
H1440 C1446 0.950 . S
H1441 C1447 0.950 . S
H1442 C1448 0.949 . S
C1443 H1438 0.950 . S
C1443 C1445 1.327 . S
C1443 C1449 1.429 . S
C1444 C1436 1.574 . S
C1444 H1439 0.949 . S
C1444 C1450 1.368 . S
C1445 C1429 1.349 . S
C1445 H1437 0.950 . S
C1445 C1443 1.327 . S
C1446 C1434 1.349 . S
C1446 H1440 0.950 . S
C1446 C1447 1.327 . S
C1447 H1441 0.950 . S
C1447 C1446 1.327 . S
C1447 C1451 1.429 . S
C1448 C1431 1.574 . S
C1448 H1442 0.949 . S
C1448 C1452 1.368 . S
C1449 C1430 1.429 . S
C1449 C1443 1.429 . S
C1449 C1450 1.523 . S
C1450 C1431 1.368 . S
C1450 C1444 1.368 . S
C1450 C1449 1.523 . S
C1451 C1435 1.429 . S
C1451 C1447 1.429 . S
C1451 C1452 1.523 . S
C1452 C1436 1.368 . S
C1452 C1448 1.368 . S
C1452 C1451 1.523 . S
H1453 C1428 0.950 . S
H1454 C1430 0.950 . S
H1455 C1431 0.949 . S
H1456 C1433 0.950 . S
H1457 C1435 0.950 . S
C1458 C1459 1.349 . S
C1458 C1460 1.327 . S
C1458 H1483 0.950 . S
C1459 C1458 1.349 . S
C1459 C1475 1.349 . S
C1460 C1458 1.327 . S
C1460 C1479 1.429 . S
C1460 H1484 0.950 . S
C1461 C1478 1.574 . S
C1461 C1480 1.368 . S
C1461 H1485 0.949 . S
H1462 C1466 0.949 . S
C1463 C1464 1.349 . S
C1463 C1465 1.327 . S
C1463 H1486 0.950 . S
C1464 C1463 1.349 . S
C1464 C1476 1.349 . S
C1465 C1463 1.327 . S
C1465 C1481 1.429 . S
C1465 H1487 0.950 . S
C1466 H1462 0.949 . S
C1466 C1474 1.574 . S
C1466 C1482 1.368 . S
H1467 C1475 0.950 . S
H1468 C1473 0.950 . S
H1469 C1474 0.949 . S
H1470 C1476 0.950 . S
H1471 C1477 0.950 . S
H1472 C1478 0.949 . S
C1473 H1468 0.950 . S
C1473 C1475 1.327 . S
C1473 C1479 1.429 . S
C1474 C1466 1.574 . S
C1474 H1469 0.949 . S
C1474 C1480 1.368 . S
C1475 C1459 1.349 . S
C1475 H1467 0.950 . S
C1475 C1473 1.327 . S
C1476 C1464 1.349 . S
C1476 H1470 0.950 . S
C1476 C1477 1.327 . S
C1477 H1471 0.950 . S
C1477 C1476 1.327 . S
C1477 C1481 1.429 . S
C1478 C1461 1.574 . S
C1478 H1472 0.949 . S
C1478 C1482 1.368 . S
C1479 C1460 1.429 . S
C1479 C1473 1.429 . S
C1479 C1480 1.523 . S
C1480 C1461 1.368 . S
C1480 C1474 1.368 . S
C1480 C1479 1.523 . S
C1481 C1465 1.429 . S
C1481 C1477 1.429 . S
C1481 C1482 1.523 . S
C1482 C1466 1.368 . S
C1482 C1478 1.368 . S
C1482 C1481 1.523 . S
H1483 C1458 0.950 . S
H1484 C1460 0.950 . S
H1485 C1461 0.949 . S
H1486 C1463 0.950 . S
H1487 C1465 0.950 . S
C1488 C1489 1.349 . S
C1488 C1490 1.327 . S
C1488 H1513 0.950 . S
C1489 C1488 1.349 . S
C1489 C1505 1.349 . S
C1490 C1488 1.327 . S
C1490 C1509 1.429 . S
C1490 H1514 0.950 . S
C1491 C1508 1.574 . S
C1491 C1510 1.368 . S
C1491 H1515 0.949 . S
H1492 C1496 0.949 . S
C1493 C1494 1.349 . S
C1493 C1495 1.327 . S
C1493 H1516 0.950 . S
C1494 C1493 1.349 . S
C1494 C1506 1.349 . S
C1495 C1493 1.327 . S
C1495 C1511 1.429 . S
C1495 H1517 0.950 . S
C1496 H1492 0.949 . S
C1496 C1504 1.574 . S
C1496 C1512 1.368 . S
H1497 C1505 0.950 . S
H1498 C1503 0.950 . S
H1499 C1504 0.949 . S
H1500 C1506 0.950 . S
H1501 C1507 0.950 . S
H1502 C1508 0.949 . S
C1503 H1498 0.950 . S
C1503 C1505 1.327 . S
C1503 C1509 1.429 . S
C1504 C1496 1.574 . S
C1504 H1499 0.949 . S
C1504 C1510 1.368 . S
C1505 C1489 1.349 . S
C1505 H1497 0.950 . S
C1505 C1503 1.327 . S
C1506 C1494 1.349 . S
C1506 H1500 0.950 . S
C1506 C1507 1.327 . S
C1507 H1501 0.950 . S
C1507 C1506 1.327 . S
C1507 C1511 1.429 . S
C1508 C1491 1.574 . S
C1508 H1502 0.949 . S
C1508 C1512 1.368 . S
C1509 C1490 1.429 . S
C1509 C1503 1.429 . S
C1509 C1510 1.523 . S
C1510 C1491 1.368 . S
C1510 C1504 1.368 . S
C1510 C1509 1.523 . S
C1511 C1495 1.429 . S
C1511 C1507 1.429 . S
C1511 C1512 1.523 . S
C1512 C1496 1.368 . S
C1512 C1508 1.368 . S
C1512 C1511 1.523 . S
H1513 C1488 0.950 . S
H1514 C1490 0.950 . S
H1515 C1491 0.949 . S
H1516 C1493 0.950 . S
H1517 C1495 0.950 . S
C1518 C1519 1.349 . S
C1518 C1520 1.327 . S
C1518 H1543 0.950 . S
C1519 C1518 1.349 . S
C1519 C1535 1.349 . S
C1520 C1518 1.327 . S
C1520 C1539 1.429 . S
C1520 H1544 0.950 . S
C1521 C1538 1.574 . S
C1521 C1540 1.368 . S
C1521 H1545 0.949 . S
H1522 C1526 0.949 . S
C1523 C1524 1.349 . S
C1523 C1525 1.327 . S
C1523 H1546 0.950 . S
C1524 C1523 1.349 . S
C1524 C1536 1.349 . S
C1525 C1523 1.327 . S
C1525 C1541 1.429 . S
C1525 H1547 0.950 . S
C1526 H1522 0.949 . S
C1526 C1534 1.574 . S
C1526 C1542 1.368 . S
H1527 C1535 0.950 . S
H1528 C1533 0.950 . S
H1529 C1534 0.949 . S
H1530 C1536 0.950 . S
H1531 C1537 0.950 . S
H1532 C1538 0.949 . S
C1533 H1528 0.950 . S
C1533 C1535 1.327 . S
C1533 C1539 1.429 . S
C1534 C1526 1.574 . S
C1534 H1529 0.949 . S
C1534 C1540 1.368 . S
C1535 C1519 1.349 . S
C1535 H1527 0.950 . S
C1535 C1533 1.327 . S
C1536 C1524 1.349 . S
C1536 H1530 0.950 . S
C1536 C1537 1.327 . S
C1537 H1531 0.950 . S
C1537 C1536 1.327 . S
C1537 C1541 1.429 . S
C1538 C1521 1.574 . S
C1538 H1532 0.949 . S
C1538 C1542 1.368 . S
C1539 C1520 1.429 . S
C1539 C1533 1.429 . S
C1539 C1540 1.523 . S
C1540 C1521 1.368 . S
C1540 C1534 1.368 . S
C1540 C1539 1.523 . S
C1541 C1525 1.429 . S
C1541 C1537 1.429 . S
C1541 C1542 1.523 . S
C1542 C1526 1.368 . S
C1542 C1538 1.368 . S
C1542 C1541 1.523 . S
H1543 C1518 0.950 . S
H1544 C1520 0.950 . S
H1545 C1521 0.949 . S
H1546 C1523 0.950 . S
H1547 C1525 0.950 . S
C1548 C1549 1.349 . S
C1548 C1550 1.327 . S
C1548 H1573 0.950 . S
C1549 C1548 1.349 . S
C1549 C1565 1.349 . S
C1550 C1548 1.327 . S
C1550 C1569 1.429 . S
C1550 H1574 0.950 . S
C1551 C1568 1.574 . S
C1551 C1570 1.368 . S
C1551 H1575 0.949 . S
H1552 C1556 0.949 . S
C1553 C1554 1.349 . S
C1553 C1555 1.327 . S
C1553 H1576 0.950 . S
C1554 C1553 1.349 . S
C1554 C1566 1.349 . S
C1555 C1553 1.327 . S
C1555 C1571 1.429 . S
C1555 H1577 0.950 . S
C1556 H1552 0.949 . S
C1556 C1564 1.574 . S
C1556 C1572 1.368 . S
H1557 C1565 0.950 . S
H1558 C1563 0.950 . S
H1559 C1564 0.949 . S
H1560 C1566 0.950 . S
H1561 C1567 0.950 . S
H1562 C1568 0.949 . S
C1563 H1558 0.950 . S
C1563 C1565 1.327 . S
C1563 C1569 1.429 . S
C1564 C1556 1.574 . S
C1564 H1559 0.949 . S
C1564 C1570 1.368 . S
C1565 C1549 1.349 . S
C1565 H1557 0.950 . S
C1565 C1563 1.327 . S
C1566 C1554 1.349 . S
C1566 H1560 0.950 . S
C1566 C1567 1.327 . S
C1567 H1561 0.950 . S
C1567 C1566 1.327 . S
C1567 C1571 1.429 . S
C1568 C1551 1.574 . S
C1568 H1562 0.949 . S
C1568 C1572 1.368 . S
C1569 C1550 1.429 . S
C1569 C1563 1.429 . S
C1569 C1570 1.523 . S
C1570 C1551 1.368 . S
C1570 C1564 1.368 . S
C1570 C1569 1.523 . S
C1571 C1555 1.429 . S
C1571 C1567 1.429 . S
C1571 C1572 1.523 . S
C1572 C1556 1.368 . S
C1572 C1568 1.368 . S
C1572 C1571 1.523 . S
H1573 C1548 0.950 . S
H1574 C1550 0.950 . S
H1575 C1551 0.949 . S
H1576 C1553 0.950 . S
H1577 C1555 0.950 . S
C1578 C1579 1.349 . S
C1578 C1580 1.327 . S
C1578 H1603 0.950 . S
C1579 C1578 1.349 . S
C1579 C1595 1.349 . S
C1580 C1578 1.327 . S
C1580 C1599 1.429 . S
C1580 H1604 0.950 . S
C1581 C1598 1.574 . S
C1581 C1600 1.368 . S
C1581 H1605 0.949 . S
H1582 C1586 0.949 . S
C1583 C1584 1.349 . S
C1583 C1585 1.327 . S
C1583 H1606 0.950 . S
C1584 C1583 1.349 . S
C1584 C1596 1.349 . S
C1585 C1583 1.327 . S
C1585 C1601 1.429 . S
C1585 H1607 0.950 . S
C1586 H1582 0.949 . S
C1586 C1594 1.574 . S
C1586 C1602 1.368 . S
H1587 C1595 0.950 . S
H1588 C1593 0.950 . S
H1589 C1594 0.949 . S
H1590 C1596 0.950 . S
H1591 C1597 0.950 . S
H1592 C1598 0.949 . S
C1593 H1588 0.950 . S
C1593 C1595 1.327 . S
C1593 C1599 1.429 . S
C1594 C1586 1.574 . S
C1594 H1589 0.949 . S
C1594 C1600 1.368 . S
C1595 C1579 1.349 . S
C1595 H1587 0.950 . S
C1595 C1593 1.327 . S
C1596 C1584 1.349 . S
C1596 H1590 0.950 . S
C1596 C1597 1.327 . S
C1597 H1591 0.950 . S
C1597 C1596 1.327 . S
C1597 C1601 1.429 . S
C1598 C1581 1.574 . S
C1598 H1592 0.949 . S
C1598 C1602 1.368 . S
C1599 C1580 1.429 . S
C1599 C1593 1.429 . S
C1599 C1600 1.523 . S
C1600 C1581 1.368 . S
C1600 C1594 1.368 . S
C1600 C1599 1.523 . S
C1601 C1585 1.429 . S
C1601 C1597 1.429 . S
C1601 C1602 1.523 . S
C1602 C1586 1.368 . S
C1602 C1598 1.368 . S
C1602 C1601 1.523 . S
H1603 C1578 0.950 . S
H1604 C1580 0.950 . S
H1605 C1581 0.949 . S
H1606 C1583 0.950 . S
H1607 C1585 0.950 . S
C1608 C1609 1.349 . S
C1608 C1610 1.327 . S
C1608 H1633 0.950 . S
C1609 C1608 1.349 . S
C1609 C1625 1.349 . S
C1610 C1608 1.327 . S
C1610 C1629 1.429 . S
C1610 H1634 0.950 . S
C1611 C1628 1.574 . S
C1611 C1630 1.368 . S
C1611 H1635 0.949 . S
H1612 C1616 0.949 . S
C1613 C1614 1.349 . S
C1613 C1615 1.327 . S
C1613 H1636 0.950 . S
C1614 C1613 1.349 . S
C1614 C1626 1.349 . S
C1615 C1613 1.327 . S
C1615 C1631 1.429 . S
C1615 H1637 0.950 . S
C1616 H1612 0.949 . S
C1616 C1624 1.574 . S
C1616 C1632 1.368 . S
H1617 C1625 0.950 . S
H1618 C1623 0.950 . S
H1619 C1624 0.949 . S
H1620 C1626 0.950 . S
H1621 C1627 0.950 . S
H1622 C1628 0.949 . S
C1623 H1618 0.950 . S
C1623 C1625 1.327 . S
C1623 C1629 1.429 . S
C1624 C1616 1.574 . S
C1624 H1619 0.949 . S
C1624 C1630 1.368 . S
C1625 C1609 1.349 . S
C1625 H1617 0.950 . S
C1625 C1623 1.327 . S
C1626 C1614 1.349 . S
C1626 H1620 0.950 . S
C1626 C1627 1.327 . S
C1627 H1621 0.950 . S
C1627 C1626 1.327 . S
C1627 C1631 1.429 . S
C1628 C1611 1.574 . S
C1628 H1622 0.949 . S
C1628 C1632 1.368 . S
C1629 C1610 1.429 . S
C1629 C1623 1.429 . S
C1629 C1630 1.523 . S
C1630 C1611 1.368 . S
C1630 C1624 1.368 . S
C1630 C1629 1.523 . S
C1631 C1615 1.429 . S
C1631 C1627 1.429 . S
C1631 C1632 1.523 . S
C1632 C1616 1.368 . S
C1632 C1628 1.368 . S
C1632 C1631 1.523 . S
H1633 C1608 0.950 . S
H1634 C1610 0.950 . S
H1635 C1611 0.949 . S
H1636 C1613 0.950 . S
H1637 C1615 0.950 . S
C1638 C1639 1.349 . S
C1638 C1640 1.327 . S
C1638 H1663 0.950 . S
C1639 C1638 1.349 . S
C1639 C1655 1.349 . S
C1640 C1638 1.327 . S
C1640 C1659 1.429 . S
C1640 H1664 0.950 . S
C1641 C1658 1.574 . S
C1641 C1660 1.368 . S
C1641 H1665 0.949 . S
H1642 C1646 0.949 . S
C1643 C1644 1.349 . S
C1643 C1645 1.327 . S
C1643 H1666 0.950 . S
C1644 C1643 1.349 . S
C1644 C1656 1.349 . S
C1645 C1643 1.327 . S
C1645 C1661 1.429 . S
C1645 H1667 0.950 . S
C1646 H1642 0.949 . S
C1646 C1654 1.574 . S
C1646 C1662 1.368 . S
H1647 C1655 0.950 . S
H1648 C1653 0.950 . S
H1649 C1654 0.949 . S
H1650 C1656 0.950 . S
H1651 C1657 0.950 . S
H1652 C1658 0.949 . S
C1653 H1648 0.950 . S
C1653 C1655 1.327 . S
C1653 C1659 1.429 . S
C1654 C1646 1.574 . S
C1654 H1649 0.949 . S
C1654 C1660 1.368 . S
C1655 C1639 1.349 . S
C1655 H1647 0.950 . S
C1655 C1653 1.327 . S
C1656 C1644 1.349 . S
C1656 H1650 0.950 . S
C1656 C1657 1.327 . S
C1657 H1651 0.950 . S
C1657 C1656 1.327 . S
C1657 C1661 1.429 . S
C1658 C1641 1.574 . S
C1658 H1652 0.949 . S
C1658 C1662 1.368 . S
C1659 C1640 1.429 . S
C1659 C1653 1.429 . S
C1659 C1660 1.523 . S
C1660 C1641 1.368 . S
C1660 C1654 1.368 . S
C1660 C1659 1.523 . S
C1661 C1645 1.429 . S
C1661 C1657 1.429 . S
C1661 C1662 1.523 . S
C1662 C1646 1.368 . S
C1662 C1658 1.368 . S
C1662 C1661 1.523 . S
H1663 C1638 0.950 . S
H1664 C1640 0.950 . S
H1665 C1641 0.949 . S
H1666 C1643 0.950 . S
H1667 C1645 0.950 . S
C1668 C1669 1.349 . S
C1668 C1670 1.327 . S
C1668 H1693 0.950 . S
C1669 C1668 1.349 . S
C1669 C1685 1.349 . S
C1670 C1668 1.327 . S
C1670 C1689 1.429 . S
C1670 H1694 0.950 . S
C1671 C1688 1.574 . S
C1671 C1690 1.368 . S
C1671 H1695 0.949 . S
H1672 C1676 0.949 . S
C1673 C1674 1.349 . S
C1673 C1675 1.327 . S
C1673 H1696 0.950 . S
C1674 C1673 1.349 . S
C1674 C1686 1.349 . S
C1675 C1673 1.327 . S
C1675 C1691 1.429 . S
C1675 H1697 0.950 . S
C1676 H1672 0.949 . S
C1676 C1684 1.574 . S
C1676 C1692 1.368 . S
H1677 C1685 0.950 . S
H1678 C1683 0.950 . S
H1679 C1684 0.949 . S
H1680 C1686 0.950 . S
H1681 C1687 0.950 . S
H1682 C1688 0.949 . S
C1683 H1678 0.950 . S
C1683 C1685 1.327 . S
C1683 C1689 1.429 . S
C1684 C1676 1.574 . S
C1684 H1679 0.949 . S
C1684 C1690 1.368 . S
C1685 C1669 1.349 . S
C1685 H1677 0.950 . S
C1685 C1683 1.327 . S
C1686 C1674 1.349 . S
C1686 H1680 0.950 . S
C1686 C1687 1.327 . S
C1687 H1681 0.950 . S
C1687 C1686 1.327 . S
C1687 C1691 1.429 . S
C1688 C1671 1.574 . S
C1688 H1682 0.949 . S
C1688 C1692 1.368 . S
C1689 C1670 1.429 . S
C1689 C1683 1.429 . S
C1689 C1690 1.523 . S
C1690 C1671 1.368 . S
C1690 C1684 1.368 . S
C1690 C1689 1.523 . S
C1691 C1675 1.429 . S
C1691 C1687 1.429 . S
C1691 C1692 1.523 . S
C1692 C1676 1.368 . S
C1692 C1688 1.368 . S
C1692 C1691 1.523 . S
H1693 C1668 0.950 . S
H1694 C1670 0.950 . S
H1695 C1671 0.949 . S
H1696 C1673 0.950 . S
H1697 C1675 0.950 . S
C1698 C1699 1.349 . S
C1698 C1700 1.327 . S
C1698 H1723 0.950 . S
C1699 C1698 1.349 . S
C1699 C1715 1.349 . S
C1700 C1698 1.327 . S
C1700 C1719 1.429 . S
C1700 H1724 0.950 . S
C1701 C1718 1.574 . S
C1701 C1720 1.368 . S
C1701 H1725 0.949 . S
H1702 C1706 0.949 . S
C1703 C1704 1.349 . S
C1703 C1705 1.327 . S
C1703 H1726 0.950 . S
C1704 C1703 1.349 . S
C1704 C1716 1.349 . S
C1705 C1703 1.327 . S
C1705 C1721 1.429 . S
C1705 H1727 0.950 . S
C1706 H1702 0.949 . S
C1706 C1714 1.574 . S
C1706 C1722 1.368 . S
H1707 C1715 0.950 . S
H1708 C1713 0.950 . S
H1709 C1714 0.949 . S
H1710 C1716 0.950 . S
H1711 C1717 0.950 . S
H1712 C1718 0.949 . S
C1713 H1708 0.950 . S
C1713 C1715 1.327 . S
C1713 C1719 1.429 . S
C1714 C1706 1.574 . S
C1714 H1709 0.949 . S
C1714 C1720 1.368 . S
C1715 C1699 1.349 . S
C1715 H1707 0.950 . S
C1715 C1713 1.327 . S
C1716 C1704 1.349 . S
C1716 H1710 0.950 . S
C1716 C1717 1.327 . S
C1717 H1711 0.950 . S
C1717 C1716 1.327 . S
C1717 C1721 1.429 . S
C1718 C1701 1.574 . S
C1718 H1712 0.949 . S
C1718 C1722 1.368 . S
C1719 C1700 1.429 . S
C1719 C1713 1.429 . S
C1719 C1720 1.523 . S
C1720 C1701 1.368 . S
C1720 C1714 1.368 . S
C1720 C1719 1.523 . S
C1721 C1705 1.429 . S
C1721 C1717 1.429 . S
C1721 C1722 1.523 . S
C1722 C1706 1.368 . S
C1722 C1718 1.368 . S
C1722 C1721 1.523 . S
H1723 C1698 0.950 . S
H1724 C1700 0.950 . S
H1725 C1701 0.949 . S
H1726 C1703 0.950 . S
H1727 C1705 0.950 . S
C1728 C1729 1.349 . S
C1728 C1730 1.327 . S
C1728 H1753 0.950 . S
C1729 C1728 1.349 . S
C1729 C1745 1.349 . S
C1730 C1728 1.327 . S
C1730 C1749 1.429 . S
C1730 H1754 0.950 . S
C1731 C1748 1.574 . S
C1731 C1750 1.368 . S
C1731 H1755 0.949 . S
H1732 C1736 0.949 . S
C1733 C1734 1.349 . S
C1733 C1735 1.327 . S
C1733 H1756 0.950 . S
C1734 C1733 1.349 . S
C1734 C1746 1.349 . S
C1735 C1733 1.327 . S
C1735 C1751 1.429 . S
C1735 H1757 0.950 . S
C1736 H1732 0.949 . S
C1736 C1744 1.574 . S
C1736 C1752 1.368 . S
H1737 C1745 0.950 . S
H1738 C1743 0.950 . S
H1739 C1744 0.949 . S
H1740 C1746 0.950 . S
H1741 C1747 0.950 . S
H1742 C1748 0.949 . S
C1743 H1738 0.950 . S
C1743 C1745 1.327 . S
C1743 C1749 1.429 . S
C1744 C1736 1.574 . S
C1744 H1739 0.949 . S
C1744 C1750 1.368 . S
C1745 C1729 1.349 . S
C1745 H1737 0.950 . S
C1745 C1743 1.327 . S
C1746 C1734 1.349 . S
C1746 H1740 0.950 . S
C1746 C1747 1.327 . S
C1747 H1741 0.950 . S
C1747 C1746 1.327 . S
C1747 C1751 1.429 . S
C1748 C1731 1.574 . S
C1748 H1742 0.949 . S
C1748 C1752 1.368 . S
C1749 C1730 1.429 . S
C1749 C1743 1.429 . S
C1749 C1750 1.523 . S
C1750 C1731 1.368 . S
C1750 C1744 1.368 . S
C1750 C1749 1.523 . S
C1751 C1735 1.429 . S
C1751 C1747 1.429 . S
C1751 C1752 1.523 . S
C1752 C1736 1.368 . S
C1752 C1748 1.368 . S
C1752 C1751 1.523 . S
H1753 C1728 0.950 . S
H1754 C1730 0.950 . S
H1755 C1731 0.949 . S
H1756 C1733 0.950 . S
H1757 C1735 0.950 . S
C1758 C1759 1.349 . S
C1758 C1760 1.327 . S
C1758 H1783 0.950 . S
C1759 C1758 1.349 . S
C1759 C1775 1.349 . S
C1760 C1758 1.327 . S
C1760 C1779 1.429 . S
C1760 H1784 0.950 . S
C1761 C1778 1.574 . S
C1761 C1780 1.368 . S
C1761 H1785 0.949 . S
H1762 C1766 0.949 . S
C1763 C1764 1.349 . S
C1763 C1765 1.327 . S
C1763 H1786 0.950 . S
C1764 C1763 1.349 . S
C1764 C1776 1.349 . S
C1765 C1763 1.327 . S
C1765 C1781 1.429 . S
C1765 H1787 0.950 . S
C1766 H1762 0.949 . S
C1766 C1774 1.574 . S
C1766 C1782 1.368 . S
H1767 C1775 0.950 . S
H1768 C1773 0.950 . S
H1769 C1774 0.949 . S
H1770 C1776 0.950 . S
H1771 C1777 0.950 . S
H1772 C1778 0.949 . S
C1773 H1768 0.950 . S
C1773 C1775 1.327 . S
C1773 C1779 1.429 . S
C1774 C1766 1.574 . S
C1774 H1769 0.949 . S
C1774 C1780 1.368 . S
C1775 C1759 1.349 . S
C1775 H1767 0.950 . S
C1775 C1773 1.327 . S
C1776 C1764 1.349 . S
C1776 H1770 0.950 . S
C1776 C1777 1.327 . S
C1777 H1771 0.950 . S
C1777 C1776 1.327 . S
C1777 C1781 1.429 . S
C1778 C1761 1.574 . S
C1778 H1772 0.949 . S
C1778 C1782 1.368 . S
C1779 C1760 1.429 . S
C1779 C1773 1.429 . S
C1779 C1780 1.523 . S
C1780 C1761 1.368 . S
C1780 C1774 1.368 . S
C1780 C1779 1.523 . S
C1781 C1765 1.429 . S
C1781 C1777 1.429 . S
C1781 C1782 1.523 . S
C1782 C1766 1.368 . S
C1782 C1778 1.368 . S
C1782 C1781 1.523 . S
H1783 C1758 0.950 . S
H1784 C1760 0.950 . S
H1785 C1761 0.949 . S
H1786 C1763 0.950 . S
H1787 C1765 0.950 . S
C1788 C1789 1.349 . S
C1788 C1790 1.327 . S
C1788 H1813 0.950 . S
C1789 C1788 1.349 . S
C1789 C1805 1.349 . S
C1790 C1788 1.327 . S
C1790 C1809 1.429 . S
C1790 H1814 0.950 . S
C1791 C1808 1.574 . S
C1791 C1810 1.368 . S
C1791 H1815 0.949 . S
H1792 C1796 0.949 . S
C1793 C1794 1.349 . S
C1793 C1795 1.327 . S
C1793 H1816 0.950 . S
C1794 C1793 1.349 . S
C1794 C1806 1.349 . S
C1795 C1793 1.327 . S
C1795 C1811 1.429 . S
C1795 H1817 0.950 . S
C1796 H1792 0.949 . S
C1796 C1804 1.574 . S
C1796 C1812 1.368 . S
H1797 C1805 0.950 . S
H1798 C1803 0.950 . S
H1799 C1804 0.949 . S
H1800 C1806 0.950 . S
H1801 C1807 0.950 . S
H1802 C1808 0.949 . S
C1803 H1798 0.950 . S
C1803 C1805 1.327 . S
C1803 C1809 1.429 . S
C1804 C1796 1.574 . S
C1804 H1799 0.949 . S
C1804 C1810 1.368 . S
C1805 C1789 1.349 . S
C1805 H1797 0.950 . S
C1805 C1803 1.327 . S
C1806 C1794 1.349 . S
C1806 H1800 0.950 . S
C1806 C1807 1.327 . S
C1807 H1801 0.950 . S
C1807 C1806 1.327 . S
C1807 C1811 1.429 . S
C1808 C1791 1.574 . S
C1808 H1802 0.949 . S
C1808 C1812 1.368 . S
C1809 C1790 1.429 . S
C1809 C1803 1.429 . S
C1809 C1810 1.523 . S
C1810 C1791 1.368 . S
C1810 C1804 1.368 . S
C1810 C1809 1.523 . S
C1811 C1795 1.429 . S
C1811 C1807 1.429 . S
C1811 C1812 1.523 . S
C1812 C1796 1.368 . S
C1812 C1808 1.368 . S
C1812 C1811 1.523 . S
H1813 C1788 0.950 . S
H1814 C1790 0.950 . S
H1815 C1791 0.949 . S
H1816 C1793 0.950 . S
H1817 C1795 0.950 . S
C1818 C1819 1.349 . S
C1818 C1820 1.327 . S
C1818 H1843 0.950 . S
C1819 C1818 1.349 . S
C1819 C1835 1.349 . S
C1820 C1818 1.327 . S
C1820 C1839 1.429 . S
C1820 H1844 0.950 . S
C1821 C1838 1.574 . S
C1821 C1840 1.368 . S
C1821 H1845 0.949 . S
H1822 C1826 0.949 . S
C1823 C1824 1.349 . S
C1823 C1825 1.327 . S
C1823 H1846 0.950 . S
C1824 C1823 1.349 . S
C1824 C1836 1.349 . S
C1825 C1823 1.327 . S
C1825 C1841 1.429 . S
C1825 H1847 0.950 . S
C1826 H1822 0.949 . S
C1826 C1834 1.574 . S
C1826 C1842 1.368 . S
H1827 C1835 0.950 . S
H1828 C1833 0.950 . S
H1829 C1834 0.949 . S
H1830 C1836 0.950 . S
H1831 C1837 0.950 . S
H1832 C1838 0.949 . S
C1833 H1828 0.950 . S
C1833 C1835 1.327 . S
C1833 C1839 1.429 . S
C1834 C1826 1.574 . S
C1834 H1829 0.949 . S
C1834 C1840 1.368 . S
C1835 C1819 1.349 . S
C1835 H1827 0.950 . S
C1835 C1833 1.327 . S
C1836 C1824 1.349 . S
C1836 H1830 0.950 . S
C1836 C1837 1.327 . S
C1837 H1831 0.950 . S
C1837 C1836 1.327 . S
C1837 C1841 1.429 . S
C1838 C1821 1.574 . S
C1838 H1832 0.949 . S
C1838 C1842 1.368 . S
C1839 C1820 1.429 . S
C1839 C1833 1.429 . S
C1839 C1840 1.523 . S
C1840 C1821 1.368 . S
C1840 C1834 1.368 . S
C1840 C1839 1.523 . S
C1841 C1825 1.429 . S
C1841 C1837 1.429 . S
C1841 C1842 1.523 . S
C1842 C1826 1.368 . S
C1842 C1838 1.368 . S
C1842 C1841 1.523 . S
H1843 C1818 0.950 . S
H1844 C1820 0.950 . S
H1845 C1821 0.949 . S
H1846 C1823 0.950 . S
H1847 C1825 0.950 . S
C1848 C1849 1.349 . S
C1848 C1850 1.327 . S
C1848 H1873 0.950 . S
C1849 C1848 1.349 . S
C1849 C1865 1.349 . S
C1850 C1848 1.327 . S
C1850 C1869 1.429 . S
C1850 H1874 0.950 . S
C1851 C1868 1.574 . S
C1851 C1870 1.368 . S
C1851 H1875 0.949 . S
H1852 C1856 0.949 . S
C1853 C1854 1.349 . S
C1853 C1855 1.327 . S
C1853 H1876 0.950 . S
C1854 C1853 1.349 . S
C1854 C1866 1.349 . S
C1855 C1853 1.327 . S
C1855 C1871 1.429 . S
C1855 H1877 0.950 . S
C1856 H1852 0.949 . S
C1856 C1864 1.574 . S
C1856 C1872 1.368 . S
H1857 C1865 0.950 . S
H1858 C1863 0.950 . S
H1859 C1864 0.949 . S
H1860 C1866 0.950 . S
H1861 C1867 0.950 . S
H1862 C1868 0.949 . S
C1863 H1858 0.950 . S
C1863 C1865 1.327 . S
C1863 C1869 1.429 . S
C1864 C1856 1.574 . S
C1864 H1859 0.949 . S
C1864 C1870 1.368 . S
C1865 C1849 1.349 . S
C1865 H1857 0.950 . S
C1865 C1863 1.327 . S
C1866 C1854 1.349 . S
C1866 H1860 0.950 . S
C1866 C1867 1.327 . S
C1867 H1861 0.950 . S
C1867 C1866 1.327 . S
C1867 C1871 1.429 . S
C1868 C1851 1.574 . S
C1868 H1862 0.949 . S
C1868 C1872 1.368 . S
C1869 C1850 1.429 . S
C1869 C1863 1.429 . S
C1869 C1870 1.523 . S
C1870 C1851 1.368 . S
C1870 C1864 1.368 . S
C1870 C1869 1.523 . S
C1871 C1855 1.429 . S
C1871 C1867 1.429 . S
C1871 C1872 1.523 . S
C1872 C1856 1.368 . S
C1872 C1868 1.368 . S
C1872 C1871 1.523 . S
H1873 C1848 0.950 . S
H1874 C1850 0.950 . S
H1875 C1851 0.949 . S
H1876 C1853 0.950 . S
H1877 C1855 0.950 . S
C1878 C1879 1.349 . S
C1878 C1880 1.327 . S
C1878 H1903 0.950 . S
C1879 C1878 1.349 . S
C1879 C1895 1.349 . S
C1880 C1878 1.327 . S
C1880 C1899 1.429 . S
C1880 H1904 0.950 . S
C1881 C1898 1.574 . S
C1881 C1900 1.368 . S
C1881 H1905 0.949 . S
H1882 C1886 0.949 . S
C1883 C1884 1.349 . S
C1883 C1885 1.327 . S
C1883 H1906 0.950 . S
C1884 C1883 1.349 . S
C1884 C1896 1.349 . S
C1885 C1883 1.327 . S
C1885 C1901 1.429 . S
C1885 H1907 0.950 . S
C1886 H1882 0.949 . S
C1886 C1894 1.574 . S
C1886 C1902 1.368 . S
H1887 C1895 0.950 . S
H1888 C1893 0.950 . S
H1889 C1894 0.949 . S
H1890 C1896 0.950 . S
H1891 C1897 0.950 . S
H1892 C1898 0.949 . S
C1893 H1888 0.950 . S
C1893 C1895 1.327 . S
C1893 C1899 1.429 . S
C1894 C1886 1.574 . S
C1894 H1889 0.949 . S
C1894 C1900 1.368 . S
C1895 C1879 1.349 . S
C1895 H1887 0.950 . S
C1895 C1893 1.327 . S
C1896 C1884 1.349 . S
C1896 H1890 0.950 . S
C1896 C1897 1.327 . S
C1897 H1891 0.950 . S
C1897 C1896 1.327 . S
C1897 C1901 1.429 . S
C1898 C1881 1.574 . S
C1898 H1892 0.949 . S
C1898 C1902 1.368 . S
C1899 C1880 1.429 . S
C1899 C1893 1.429 . S
C1899 C1900 1.523 . S
C1900 C1881 1.368 . S
C1900 C1894 1.368 . S
C1900 C1899 1.523 . S
C1901 C1885 1.429 . S
C1901 C1897 1.429 . S
C1901 C1902 1.523 . S
C1902 C1886 1.368 . S
C1902 C1898 1.368 . S
C1902 C1901 1.523 . S
H1903 C1878 0.950 . S
H1904 C1880 0.950 . S
H1905 C1881 0.949 . S
H1906 C1883 0.950 . S
H1907 C1885 0.950 . S
C1908 C1909 1.349 . S
C1908 C1910 1.327 . S
C1908 H1933 0.950 . S
C1909 C1908 1.349 . S
C1909 C1925 1.349 . S
C1910 C1908 1.327 . S
C1910 C1929 1.429 . S
C1910 H1934 0.950 . S
C1911 C1928 1.574 . S
C1911 C1930 1.368 1_655 S
C1911 H1935 0.949 . S
H1912 C1916 0.949 . S
C1913 C1914 1.349 . S
C1913 C1915 1.327 . S
C1913 H1936 0.950 . S
C1914 C1913 1.349 . S
C1914 C1926 1.349 . S
C1915 C1913 1.327 . S
C1915 C1931 1.429 . S
C1915 H1937 0.950 . S
C1916 H1912 0.949 . S
C1916 C1924 1.574 . S
C1916 C1932 1.368 1_455 S
H1917 C1925 0.950 . S
H1918 C1923 0.950 1_655 S
H1919 C1924 0.949 . S
H1920 C1926 0.950 . S
H1921 C1927 0.950 1_455 S
H1922 C1928 0.949 . S
C1923 H1918 0.950 1_455 S
C1923 C1925 1.327 . S
C1923 C1929 1.429 . S
C1924 C1916 1.574 . S
C1924 H1919 0.949 . S
C1924 C1930 1.368 . S
C1925 C1909 1.349 . S
C1925 H1917 0.950 . S
C1925 C1923 1.327 . S
C1926 C1914 1.349 . S
C1926 H1920 0.950 . S
C1926 C1927 1.327 . S
C1927 H1921 0.950 1_655 S
C1927 C1926 1.327 . S
C1927 C1931 1.429 . S
C1928 C1911 1.574 . S
C1928 H1922 0.949 . S
C1928 C1932 1.368 . S
C1929 C1910 1.429 . S
C1929 C1923 1.429 . S
C1929 C1930 1.523 . S
C1930 C1911 1.368 1_455 S
C1930 C1924 1.368 . S
C1930 C1929 1.523 . S
C1931 C1915 1.429 . S
C1931 C1927 1.429 . S
C1931 C1932 1.523 . S
C1932 C1916 1.368 1_655 S
C1932 C1928 1.368 . S
C1932 C1931 1.523 . S
H1933 C1908 0.950 . S
H1934 C1910 0.950 . S
H1935 C1911 0.949 . S
H1936 C1913 0.950 . S
H1937 C1915 0.950 . S
C1938 C1939 1.349 . S
C1938 C1940 1.327 . S
C1938 H1963 0.950 . S
C1939 C1938 1.349 . S
C1939 C1955 1.349 . S
C1940 C1938 1.327 . S
C1940 C1959 1.429 . S
C1940 H1964 0.950 . S
C1941 C1958 1.574 . S
C1941 C1960 1.368 . S
C1941 H1965 0.949 . S
H1942 C1946 0.949 . S
C1943 C1944 1.349 . S
C1943 C1945 1.327 . S
C1943 H1966 0.950 . S
C1944 C1943 1.349 . S
C1944 C1956 1.349 . S
C1945 C1943 1.327 . S
C1945 C1961 1.429 . S
C1945 H1967 0.950 . S
C1946 H1942 0.949 . S
C1946 C1954 1.574 . S
C1946 C1962 1.368 . S
H1947 C1955 0.950 . S
H1948 C1953 0.950 . S
H1949 C1954 0.949 . S
H1950 C1956 0.950 . S
H1951 C1957 0.950 . S
H1952 C1958 0.949 . S
C1953 H1948 0.950 . S
C1953 C1955 1.327 . S
C1953 C1959 1.429 . S
C1954 C1946 1.574 . S
C1954 H1949 0.949 . S
C1954 C1960 1.368 . S
C1955 C1939 1.349 . S
C1955 H1947 0.950 . S
C1955 C1953 1.327 . S
C1956 C1944 1.349 . S
C1956 H1950 0.950 . S
C1956 C1957 1.327 . S
C1957 H1951 0.950 . S
C1957 C1956 1.327 . S
C1957 C1961 1.429 . S
C1958 C1941 1.574 . S
C1958 H1952 0.949 . S
C1958 C1962 1.368 . S
C1959 C1940 1.429 . S
C1959 C1953 1.429 . S
C1959 C1960 1.523 . S
C1960 C1941 1.368 . S
C1960 C1954 1.368 . S
C1960 C1959 1.523 . S
C1961 C1945 1.429 . S
C1961 C1957 1.429 . S
C1961 C1962 1.523 . S
C1962 C1946 1.368 . S
C1962 C1958 1.368 . S
C1962 C1961 1.523 . S
H1963 C1938 0.950 . S
H1964 C1940 0.950 . S
H1965 C1941 0.949 . S
H1966 C1943 0.950 . S
H1967 C1945 0.950 . S
C1968 C1969 1.349 . S
C1968 C1970 1.327 . S
C1968 H1993 0.950 . S
C1969 C1968 1.349 . S
C1969 C1985 1.349 . S
C1970 C1968 1.327 . S
C1970 C1989 1.429 . S
C1970 H1994 0.950 . S
C1971 C1988 1.574 . S
C1971 C1990 1.368 1_545 S
C1971 H1995 0.949 . S
H1972 C1976 0.949 . S
C1973 C1974 1.349 . S
C1973 C1975 1.327 . S
C1973 H1996 0.950 . S
C1974 C1973 1.349 . S
C1974 C1986 1.349 . S
C1975 C1973 1.327 . S
C1975 C1991 1.429 . S
C1975 H1997 0.950 . S
C1976 H1972 0.949 . S
C1976 C1984 1.574 . S
C1976 C1992 1.368 1_565 S
H1977 C1985 0.950 . S
H1978 C1983 0.950 1_545 S
H1979 C1984 0.949 . S
H1980 C1986 0.950 . S
H1981 C1987 0.950 1_565 S
H1982 C1988 0.949 . S
C1983 H1978 0.950 1_565 S
C1983 C1985 1.327 . S
C1983 C1989 1.429 . S
C1984 C1976 1.574 . S
C1984 H1979 0.949 . S
C1984 C1990 1.368 . S
C1985 C1969 1.349 . S
C1985 H1977 0.950 . S
C1985 C1983 1.327 . S
C1986 C1974 1.349 . S
C1986 H1980 0.950 . S
C1986 C1987 1.327 . S
C1987 H1981 0.950 1_545 S
C1987 C1986 1.327 . S
C1987 C1991 1.429 . S
C1988 C1971 1.574 . S
C1988 H1982 0.949 . S
C1988 C1992 1.368 . S
C1989 C1970 1.429 . S
C1989 C1983 1.429 . S
C1989 C1990 1.523 . S
C1990 C1971 1.368 1_565 S
C1990 C1984 1.368 . S
C1990 C1989 1.523 . S
C1991 C1975 1.429 . S
C1991 C1987 1.429 . S
C1991 C1992 1.523 . S
C1992 C1976 1.368 1_545 S
C1992 C1988 1.368 . S
C1992 C1991 1.523 . S
H1993 C1968 0.950 . S
H1994 C1970 0.950 . S
H1995 C1971 0.949 . S
H1996 C1973 0.950 . S
H1997 C1975 0.950 . S
C1998 C1999 1.349 . S
C1998 C2000 1.327 . S
C1998 H2023 0.950 . S
C1999 C1998 1.349 . S
C1999 C2015 1.349 . S
C2000 C1998 1.327 . S
C2000 C2019 1.429 . S
C2000 H2024 0.950 . S
C2001 C2018 1.574 . S
C2001 C2020 1.368 1_545 S
C2001 H2025 0.949 . S
H2002 C2006 0.949 . S
C2003 C2004 1.349 . S
C2003 C2005 1.327 . S
C2003 H2026 0.950 . S
C2004 C2003 1.349 . S
C2004 C2016 1.349 . S
C2005 C2003 1.327 . S
C2005 C2021 1.429 . S
C2005 H2027 0.950 . S
C2006 H2002 0.949 . S
C2006 C2014 1.574 . S
C2006 C2022 1.368 1_565 S
H2007 C2015 0.950 . S
H2008 C2013 0.950 1_545 S
H2009 C2014 0.949 . S
H2010 C2016 0.950 . S
H2011 C2017 0.950 1_565 S
H2012 C2018 0.949 . S
C2013 H2008 0.950 1_565 S
C2013 C2015 1.327 . S
C2013 C2019 1.429 . S
C2014 C2006 1.574 . S
C2014 H2009 0.949 . S
C2014 C2020 1.368 . S
C2015 C1999 1.349 . S
C2015 H2007 0.950 . S
C2015 C2013 1.327 . S
C2016 C2004 1.349 . S
C2016 H2010 0.950 . S
C2016 C2017 1.327 . S
C2017 H2011 0.950 1_545 S
C2017 C2016 1.327 . S
C2017 C2021 1.429 . S
C2018 C2001 1.574 . S
C2018 H2012 0.949 . S
C2018 C2022 1.368 . S
C2019 C2000 1.429 . S
C2019 C2013 1.429 . S
C2019 C2020 1.523 . S
C2020 C2001 1.368 1_565 S
C2020 C2014 1.368 . S
C2020 C2019 1.523 . S
C2021 C2005 1.429 . S
C2021 C2017 1.429 . S
C2021 C2022 1.523 . S
C2022 C2006 1.368 1_545 S
C2022 C2018 1.368 . S
C2022 C2021 1.523 . S
H2023 C1998 0.950 . S
H2024 C2000 0.950 . S
H2025 C2001 0.949 . S
H2026 C2003 0.950 . S
H2027 C2005 0.950 . S
C2028 C2029 1.349 . S
C2028 C2030 1.327 . S
C2028 H2053 0.950 . S
C2029 C2028 1.349 . S
C2029 C2045 1.349 . S
C2030 C2028 1.327 . S
C2030 C2049 1.429 . S
C2030 H2054 0.950 . S
C2031 C2048 1.574 1_655 S
C2031 C2050 1.368 . S
C2031 H2055 0.949 . S
H2032 C2036 0.949 . S
C2033 C2034 1.349 . S
C2033 C2035 1.327 . S
C2033 H2056 0.950 . S
C2034 C2033 1.349 . S
C2034 C2046 1.349 . S
C2035 C2033 1.327 . S
C2035 C2051 1.429 . S
C2035 H2057 0.950 . S
C2036 H2032 0.949 . S
C2036 C2044 1.574 1_455 S
C2036 C2052 1.368 . S
H2037 C2045 0.950 . S
H2038 C2043 0.950 . S
H2039 C2044 0.949 . S
H2040 C2046 0.950 . S
H2041 C2047 0.950 . S
H2042 C2048 0.949 . S
C2043 H2038 0.950 . S
C2043 C2045 1.327 . S
C2043 C2049 1.429 . S
C2044 C2036 1.574 1_655 S
C2044 H2039 0.949 . S
C2044 C2050 1.368 . S
C2045 C2029 1.349 . S
C2045 H2037 0.950 . S
C2045 C2043 1.327 . S
C2046 C2034 1.349 . S
C2046 H2040 0.950 . S
C2046 C2047 1.327 . S
C2047 H2041 0.950 . S
C2047 C2046 1.327 . S
C2047 C2051 1.429 . S
C2048 C2031 1.574 1_455 S
C2048 H2042 0.949 . S
C2048 C2052 1.368 . S
C2049 C2030 1.429 . S
C2049 C2043 1.429 . S
C2049 C2050 1.523 . S
C2050 C2031 1.368 . S
C2050 C2044 1.368 . S
C2050 C2049 1.523 . S
C2051 C2035 1.429 . S
C2051 C2047 1.429 . S
C2051 C2052 1.523 . S
C2052 C2036 1.368 . S
C2052 C2048 1.368 . S
C2052 C2051 1.523 . S
H2053 C2028 0.950 . S
H2054 C2030 0.950 . S
H2055 C2031 0.949 . S
H2056 C2033 0.950 . S
H2057 C2035 0.950 . S
C2058 C2059 1.349 . S
C2058 C2060 1.327 . S
C2058 H2083 0.950 . S
C2059 C2058 1.349 . S
C2059 C2075 1.349 . S
C2060 C2058 1.327 . S
C2060 C2079 1.429 . S
C2060 H2084 0.950 . S
C2061 C2078 1.574 . S
C2061 C2080 1.368 . S
C2061 H2085 0.949 . S
H2062 C2066 0.949 . S
C2063 C2064 1.349 . S
C2063 C2065 1.327 . S
C2063 H2086 0.950 . S
C2064 C2063 1.349 . S
C2064 C2076 1.349 . S
C2065 C2063 1.327 . S
C2065 C2081 1.429 . S
C2065 H2087 0.950 . S
C2066 H2062 0.949 . S
C2066 C2074 1.574 . S
C2066 C2082 1.368 . S
H2067 C2075 0.950 . S
H2068 C2073 0.950 . S
H2069 C2074 0.949 . S
H2070 C2076 0.950 . S
H2071 C2077 0.950 . S
H2072 C2078 0.949 . S
C2073 H2068 0.950 . S
C2073 C2075 1.327 . S
C2073 C2079 1.429 . S
C2074 C2066 1.574 . S
C2074 H2069 0.949 . S
C2074 C2080 1.368 . S
C2075 C2059 1.349 . S
C2075 H2067 0.950 . S
C2075 C2073 1.327 . S
C2076 C2064 1.349 . S
C2076 H2070 0.950 . S
C2076 C2077 1.327 . S
C2077 H2071 0.950 . S
C2077 C2076 1.327 . S
C2077 C2081 1.429 . S
C2078 C2061 1.574 . S
C2078 H2072 0.949 . S
C2078 C2082 1.368 . S
C2079 C2060 1.429 . S
C2079 C2073 1.429 . S
C2079 C2080 1.523 . S
C2080 C2061 1.368 . S
C2080 C2074 1.368 . S
C2080 C2079 1.523 . S
C2081 C2065 1.429 . S
C2081 C2077 1.429 . S
C2081 C2082 1.523 . S
C2082 C2066 1.368 . S
C2082 C2078 1.368 . S
C2082 C2081 1.523 . S
H2083 C2058 0.950 . S
H2084 C2060 0.950 . S
H2085 C2061 0.949 . S
H2086 C2063 0.950 . S
H2087 C2065 0.950 . S
C2088 C2089 1.349 . S
C2088 C2090 1.327 . S
C2088 H2113 0.950 . S
C2089 C2088 1.349 . S
C2089 C2105 1.349 . S
C2090 C2088 1.327 . S
C2090 C2109 1.429 . S
C2090 H2114 0.950 . S
C2091 C2108 1.574 . S
C2091 C2110 1.368 . S
C2091 H2115 0.949 . S
H2092 C2096 0.949 . S
C2093 C2094 1.349 . S
C2093 C2095 1.327 . S
C2093 H2116 0.950 . S
C2094 C2093 1.349 . S
C2094 C2106 1.349 . S
C2095 C2093 1.327 . S
C2095 C2111 1.429 . S
C2095 H2117 0.950 . S
C2096 H2092 0.949 . S
C2096 C2104 1.574 . S
C2096 C2112 1.368 . S
H2097 C2105 0.950 . S
H2098 C2103 0.950 . S
H2099 C2104 0.949 . S
H2100 C2106 0.950 . S
H2101 C2107 0.950 . S
H2102 C2108 0.949 . S
C2103 H2098 0.950 . S
C2103 C2105 1.327 . S
C2103 C2109 1.429 . S
C2104 C2096 1.574 . S
C2104 H2099 0.949 . S
C2104 C2110 1.368 . S
C2105 C2089 1.349 . S
C2105 H2097 0.950 . S
C2105 C2103 1.327 . S
C2106 C2094 1.349 . S
C2106 H2100 0.950 . S
C2106 C2107 1.327 . S
C2107 H2101 0.950 . S
C2107 C2106 1.327 . S
C2107 C2111 1.429 . S
C2108 C2091 1.574 . S
C2108 H2102 0.949 . S
C2108 C2112 1.368 . S
C2109 C2090 1.429 . S
C2109 C2103 1.429 . S
C2109 C2110 1.523 . S
C2110 C2091 1.368 . S
C2110 C2104 1.368 . S
C2110 C2109 1.523 . S
C2111 C2095 1.429 . S
C2111 C2107 1.429 . S
C2111 C2112 1.523 . S
C2112 C2096 1.368 . S
C2112 C2108 1.368 . S
C2112 C2111 1.523 . S
H2113 C2088 0.950 . S
H2114 C2090 0.950 . S
H2115 C2091 0.949 . S
H2116 C2093 0.950 . S
H2117 C2095 0.950 . S
C2118 C2119 1.349 . S
C2118 C2120 1.327 . S
C2118 H2143 0.950 . S
C2119 C2118 1.349 . S
C2119 C2135 1.349 . S
C2120 C2118 1.327 . S
C2120 C2139 1.429 . S
C2120 H2144 0.950 . S
C2121 C2138 1.574 . S
C2121 C2140 1.368 . S
C2121 H2145 0.949 . S
H2122 C2126 0.949 . S
C2123 C2124 1.349 . S
C2123 C2125 1.327 . S
C2123 H2146 0.950 . S
C2124 C2123 1.349 . S
C2124 C2136 1.349 . S
C2125 C2123 1.327 . S
C2125 C2141 1.429 . S
C2125 H2147 0.950 . S
C2126 H2122 0.949 . S
C2126 C2134 1.574 . S
C2126 C2142 1.368 . S
H2127 C2135 0.950 . S
H2128 C2133 0.950 . S
H2129 C2134 0.949 . S
H2130 C2136 0.950 . S
H2131 C2137 0.950 . S
H2132 C2138 0.949 . S
C2133 H2128 0.950 . S
C2133 C2135 1.327 . S
C2133 C2139 1.429 . S
C2134 C2126 1.574 . S
C2134 H2129 0.949 . S
C2134 C2140 1.368 . S
C2135 C2119 1.349 . S
C2135 H2127 0.950 . S
C2135 C2133 1.327 . S
C2136 C2124 1.349 . S
C2136 H2130 0.950 . S
C2136 C2137 1.327 . S
C2137 H2131 0.950 . S
C2137 C2136 1.327 . S
C2137 C2141 1.429 . S
C2138 C2121 1.574 . S
C2138 H2132 0.949 . S
C2138 C2142 1.368 . S
C2139 C2120 1.429 . S
C2139 C2133 1.429 . S
C2139 C2140 1.523 . S
C2140 C2121 1.368 . S
C2140 C2134 1.368 . S
C2140 C2139 1.523 . S
C2141 C2125 1.429 . S
C2141 C2137 1.429 . S
C2141 C2142 1.523 . S
C2142 C2126 1.368 . S
C2142 C2138 1.368 . S
C2142 C2141 1.523 . S
H2143 C2118 0.950 . S
H2144 C2120 0.950 . S
H2145 C2121 0.949 . S
H2146 C2123 0.950 . S
H2147 C2125 0.950 . S
C2148 C2149 1.349 . S
C2148 C2150 1.327 . S
C2148 H2173 0.950 . S
C2149 C2148 1.349 . S
C2149 C2165 1.349 . S
C2150 C2148 1.327 . S
C2150 C2169 1.429 . S
C2150 H2174 0.950 . S
C2151 C2168 1.574 . S
C2151 C2170 1.368 . S
C2151 H2175 0.949 . S
H2152 C2156 0.949 . S
C2153 C2154 1.349 . S
C2153 C2155 1.327 . S
C2153 H2176 0.950 . S
C2154 C2153 1.349 . S
C2154 C2166 1.349 . S
C2155 C2153 1.327 . S
C2155 C2171 1.429 . S
C2155 H2177 0.950 . S
C2156 H2152 0.949 . S
C2156 C2164 1.574 . S
C2156 C2172 1.368 . S
H2157 C2165 0.950 . S
H2158 C2163 0.950 . S
H2159 C2164 0.949 . S
H2160 C2166 0.950 . S
H2161 C2167 0.950 . S
H2162 C2168 0.949 . S
C2163 H2158 0.950 . S
C2163 C2165 1.327 . S
C2163 C2169 1.429 . S
C2164 C2156 1.574 . S
C2164 H2159 0.949 . S
C2164 C2170 1.368 . S
C2165 C2149 1.349 . S
C2165 H2157 0.950 . S
C2165 C2163 1.327 . S
C2166 C2154 1.349 . S
C2166 H2160 0.950 . S
C2166 C2167 1.327 . S
C2167 H2161 0.950 . S
C2167 C2166 1.327 . S
C2167 C2171 1.429 . S
C2168 C2151 1.574 . S
C2168 H2162 0.949 . S
C2168 C2172 1.368 . S
C2169 C2150 1.429 . S
C2169 C2163 1.429 . S
C2169 C2170 1.523 . S
C2170 C2151 1.368 . S
C2170 C2164 1.368 . S
C2170 C2169 1.523 . S
C2171 C2155 1.429 . S
C2171 C2167 1.429 . S
C2171 C2172 1.523 . S
C2172 C2156 1.368 . S
C2172 C2168 1.368 . S
C2172 C2171 1.523 . S
H2173 C2148 0.950 . S
H2174 C2150 0.950 . S
H2175 C2151 0.949 . S
H2176 C2153 0.950 . S
H2177 C2155 0.950 . S
C2178 C2179 1.349 . S
C2178 C2180 1.327 . S
C2178 H2203 0.950 . S
C2179 C2178 1.349 . S
C2179 C2195 1.349 . S
C2180 C2178 1.327 . S
C2180 C2199 1.429 . S
C2180 H2204 0.950 . S
C2181 C2198 1.574 . S
C2181 C2200 1.368 . S
C2181 H2205 0.949 . S
H2182 C2186 0.949 . S
C2183 C2184 1.349 . S
C2183 C2185 1.327 . S
C2183 H2206 0.950 . S
C2184 C2183 1.349 . S
C2184 C2196 1.349 . S
C2185 C2183 1.327 . S
C2185 C2201 1.429 . S
C2185 H2207 0.950 . S
C2186 H2182 0.949 . S
C2186 C2194 1.574 . S
C2186 C2202 1.368 . S
H2187 C2195 0.950 . S
H2188 C2193 0.950 . S
H2189 C2194 0.949 . S
H2190 C2196 0.950 . S
H2191 C2197 0.950 . S
H2192 C2198 0.949 . S
C2193 H2188 0.950 . S
C2193 C2195 1.327 . S
C2193 C2199 1.429 . S
C2194 C2186 1.574 . S
C2194 H2189 0.949 . S
C2194 C2200 1.368 . S
C2195 C2179 1.349 . S
C2195 H2187 0.950 . S
C2195 C2193 1.327 . S
C2196 C2184 1.349 . S
C2196 H2190 0.950 . S
C2196 C2197 1.327 . S
C2197 H2191 0.950 . S
C2197 C2196 1.327 . S
C2197 C2201 1.429 . S
C2198 C2181 1.574 . S
C2198 H2192 0.949 . S
C2198 C2202 1.368 . S
C2199 C2180 1.429 . S
C2199 C2193 1.429 . S
C2199 C2200 1.523 . S
C2200 C2181 1.368 . S
C2200 C2194 1.368 . S
C2200 C2199 1.523 . S
C2201 C2185 1.429 . S
C2201 C2197 1.429 . S
C2201 C2202 1.523 . S
C2202 C2186 1.368 . S
C2202 C2198 1.368 . S
C2202 C2201 1.523 . S
H2203 C2178 0.950 . S
H2204 C2180 0.950 . S
H2205 C2181 0.949 . S
H2206 C2183 0.950 . S
H2207 C2185 0.950 . S
C2208 C2209 1.349 . S
C2208 C2210 1.327 . S
C2208 H2233 0.950 . S
C2209 C2208 1.349 . S
C2209 C2225 1.349 . S
C2210 C2208 1.327 . S
C2210 C2229 1.429 . S
C2210 H2234 0.950 . S
C2211 C2228 1.574 . S
C2211 C2230 1.368 . S
C2211 H2235 0.949 . S
H2212 C2216 0.949 . S
C2213 C2214 1.349 . S
C2213 C2215 1.327 . S
C2213 H2236 0.950 . S
C2214 C2213 1.349 . S
C2214 C2226 1.349 . S
C2215 C2213 1.327 . S
C2215 C2231 1.429 . S
C2215 H2237 0.950 . S
C2216 H2212 0.949 . S
C2216 C2224 1.574 . S
C2216 C2232 1.368 . S
H2217 C2225 0.950 . S
H2218 C2223 0.950 . S
H2219 C2224 0.949 . S
H2220 C2226 0.950 . S
H2221 C2227 0.950 . S
H2222 C2228 0.949 . S
C2223 H2218 0.950 . S
C2223 C2225 1.327 . S
C2223 C2229 1.429 . S
C2224 C2216 1.574 . S
C2224 H2219 0.949 . S
C2224 C2230 1.368 . S
C2225 C2209 1.349 . S
C2225 H2217 0.950 . S
C2225 C2223 1.327 . S
C2226 C2214 1.349 . S
C2226 H2220 0.950 . S
C2226 C2227 1.327 . S
C2227 H2221 0.950 . S
C2227 C2226 1.327 . S
C2227 C2231 1.429 . S
C2228 C2211 1.574 . S
C2228 H2222 0.949 . S
C2228 C2232 1.368 . S
C2229 C2210 1.429 . S
C2229 C2223 1.429 . S
C2229 C2230 1.523 . S
C2230 C2211 1.368 . S
C2230 C2224 1.368 . S
C2230 C2229 1.523 . S
C2231 C2215 1.429 . S
C2231 C2227 1.429 . S
C2231 C2232 1.523 . S
C2232 C2216 1.368 . S
C2232 C2228 1.368 . S
C2232 C2231 1.523 . S
H2233 C2208 0.950 . S
H2234 C2210 0.950 . S
H2235 C2211 0.949 . S
H2236 C2213 0.950 . S
H2237 C2215 0.950 . S
C2238 C2239 1.349 . S
C2238 C2240 1.327 . S
C2238 H2263 0.950 . S
C2239 C2238 1.349 . S
C2239 C2255 1.349 . S
C2240 C2238 1.327 . S
C2240 C2259 1.429 . S
C2240 H2264 0.950 . S
C2241 C2258 1.574 . S
C2241 C2260 1.368 . S
C2241 H2265 0.949 . S
H2242 C2246 0.949 . S
C2243 C2244 1.349 . S
C2243 C2245 1.327 . S
C2243 H2266 0.950 . S
C2244 C2243 1.349 . S
C2244 C2256 1.349 . S
C2245 C2243 1.327 . S
C2245 C2261 1.429 . S
C2245 H2267 0.950 . S
C2246 H2242 0.949 . S
C2246 C2254 1.574 . S
C2246 C2262 1.368 . S
H2247 C2255 0.950 . S
H2248 C2253 0.950 . S
H2249 C2254 0.949 . S
H2250 C2256 0.950 . S
H2251 C2257 0.950 . S
H2252 C2258 0.949 . S
C2253 H2248 0.950 . S
C2253 C2255 1.327 . S
C2253 C2259 1.429 . S
C2254 C2246 1.574 . S
C2254 H2249 0.949 . S
C2254 C2260 1.368 . S
C2255 C2239 1.349 . S
C2255 H2247 0.950 . S
C2255 C2253 1.327 . S
C2256 C2244 1.349 . S
C2256 H2250 0.950 . S
C2256 C2257 1.327 . S
C2257 H2251 0.950 . S
C2257 C2256 1.327 . S
C2257 C2261 1.429 . S
C2258 C2241 1.574 . S
C2258 H2252 0.949 . S
C2258 C2262 1.368 . S
C2259 C2240 1.429 . S
C2259 C2253 1.429 . S
C2259 C2260 1.523 . S
C2260 C2241 1.368 . S
C2260 C2254 1.368 . S
C2260 C2259 1.523 . S
C2261 C2245 1.429 . S
C2261 C2257 1.429 . S
C2261 C2262 1.523 . S
C2262 C2246 1.368 . S
C2262 C2258 1.368 . S
C2262 C2261 1.523 . S
H2263 C2238 0.950 . S
H2264 C2240 0.950 . S
H2265 C2241 0.949 . S
H2266 C2243 0.950 . S
H2267 C2245 0.950 . S
C2268 C2269 1.349 . S
C2268 C2270 1.327 . S
C2268 H2293 0.950 . S
C2269 C2268 1.349 . S
C2269 C2285 1.349 . S
C2270 C2268 1.327 . S
C2270 C2289 1.429 . S
C2270 H2294 0.950 . S
C2271 C2288 1.574 . S
C2271 C2290 1.368 . S
C2271 H2295 0.949 . S
H2272 C2276 0.949 . S
C2273 C2274 1.349 . S
C2273 C2275 1.327 . S
C2273 H2296 0.950 . S
C2274 C2273 1.349 . S
C2274 C2286 1.349 . S
C2275 C2273 1.327 . S
C2275 C2291 1.429 . S
C2275 H2297 0.950 . S
C2276 H2272 0.949 . S
C2276 C2284 1.574 . S
C2276 C2292 1.368 . S
H2277 C2285 0.950 . S
H2278 C2283 0.950 . S
H2279 C2284 0.949 . S
H2280 C2286 0.950 . S
H2281 C2287 0.950 . S
H2282 C2288 0.949 . S
C2283 H2278 0.950 . S
C2283 C2285 1.327 . S
C2283 C2289 1.429 . S
C2284 C2276 1.574 . S
C2284 H2279 0.949 . S
C2284 C2290 1.368 . S
C2285 C2269 1.349 . S
C2285 H2277 0.950 . S
C2285 C2283 1.327 . S
C2286 C2274 1.349 . S
C2286 H2280 0.950 . S
C2286 C2287 1.327 . S
C2287 H2281 0.950 . S
C2287 C2286 1.327 . S
C2287 C2291 1.429 . S
C2288 C2271 1.574 . S
C2288 H2282 0.949 . S
C2288 C2292 1.368 . S
C2289 C2270 1.429 . S
C2289 C2283 1.429 . S
C2289 C2290 1.523 . S
C2290 C2271 1.368 . S
C2290 C2284 1.368 . S
C2290 C2289 1.523 . S
C2291 C2275 1.429 . S
C2291 C2287 1.429 . S
C2291 C2292 1.523 . S
C2292 C2276 1.368 . S
C2292 C2288 1.368 . S
C2292 C2291 1.523 . S
H2293 C2268 0.950 . S
H2294 C2270 0.950 . S
H2295 C2271 0.949 . S
H2296 C2273 0.950 . S
H2297 C2275 0.950 . S
C2298 C2299 1.349 . S
C2298 C2300 1.327 . S
C2298 H2323 0.950 . S
C2299 C2298 1.349 . S
C2299 C2315 1.349 . S
C2300 C2298 1.327 . S
C2300 C2319 1.429 . S
C2300 H2324 0.950 . S
C2301 C2318 1.574 . S
C2301 C2320 1.368 . S
C2301 H2325 0.949 . S
H2302 C2306 0.949 . S
C2303 C2304 1.349 . S
C2303 C2305 1.327 . S
C2303 H2326 0.950 . S
C2304 C2303 1.349 . S
C2304 C2316 1.349 . S
C2305 C2303 1.327 . S
C2305 C2321 1.429 . S
C2305 H2327 0.950 . S
C2306 H2302 0.949 . S
C2306 C2314 1.574 . S
C2306 C2322 1.368 . S
H2307 C2315 0.950 . S
H2308 C2313 0.950 . S
H2309 C2314 0.949 . S
H2310 C2316 0.950 . S
H2311 C2317 0.950 . S
H2312 C2318 0.949 . S
C2313 H2308 0.950 . S
C2313 C2315 1.327 . S
C2313 C2319 1.429 . S
C2314 C2306 1.574 . S
C2314 H2309 0.949 . S
C2314 C2320 1.368 . S
C2315 C2299 1.349 . S
C2315 H2307 0.950 . S
C2315 C2313 1.327 . S
C2316 C2304 1.349 . S
C2316 H2310 0.950 . S
C2316 C2317 1.327 . S
C2317 H2311 0.950 . S
C2317 C2316 1.327 . S
C2317 C2321 1.429 . S
C2318 C2301 1.574 . S
C2318 H2312 0.949 . S
C2318 C2322 1.368 . S
C2319 C2300 1.429 . S
C2319 C2313 1.429 . S
C2319 C2320 1.523 . S
C2320 C2301 1.368 . S
C2320 C2314 1.368 . S
C2320 C2319 1.523 . S
C2321 C2305 1.429 . S
C2321 C2317 1.429 . S
C2321 C2322 1.523 . S
C2322 C2306 1.368 . S
C2322 C2318 1.368 . S
C2322 C2321 1.523 . S
H2323 C2298 0.950 . S
H2324 C2300 0.950 . S
H2325 C2301 0.949 . S
H2326 C2303 0.950 . S
H2327 C2305 0.950 . S
C2328 C2329 1.349 . S
C2328 C2330 1.327 . S
C2328 H2353 0.950 . S
C2329 C2328 1.349 . S
C2329 C2345 1.349 . S
C2330 C2328 1.327 . S
C2330 C2349 1.429 . S
C2330 H2354 0.950 . S
C2331 C2348 1.574 . S
C2331 C2350 1.368 . S
C2331 H2355 0.949 . S
H2332 C2336 0.949 . S
C2333 C2334 1.349 . S
C2333 C2335 1.327 . S
C2333 H2356 0.950 . S
C2334 C2333 1.349 . S
C2334 C2346 1.349 . S
C2335 C2333 1.327 . S
C2335 C2351 1.429 . S
C2335 H2357 0.950 . S
C2336 H2332 0.949 . S
C2336 C2344 1.574 . S
C2336 C2352 1.368 . S
H2337 C2345 0.950 . S
H2338 C2343 0.950 . S
H2339 C2344 0.949 . S
H2340 C2346 0.950 . S
H2341 C2347 0.950 . S
H2342 C2348 0.949 . S
C2343 H2338 0.950 . S
C2343 C2345 1.327 . S
C2343 C2349 1.429 . S
C2344 C2336 1.574 . S
C2344 H2339 0.949 . S
C2344 C2350 1.368 . S
C2345 C2329 1.349 . S
C2345 H2337 0.950 . S
C2345 C2343 1.327 . S
C2346 C2334 1.349 . S
C2346 H2340 0.950 . S
C2346 C2347 1.327 . S
C2347 H2341 0.950 . S
C2347 C2346 1.327 . S
C2347 C2351 1.429 . S
C2348 C2331 1.574 . S
C2348 H2342 0.949 . S
C2348 C2352 1.368 . S
C2349 C2330 1.429 . S
C2349 C2343 1.429 . S
C2349 C2350 1.523 . S
C2350 C2331 1.368 . S
C2350 C2344 1.368 . S
C2350 C2349 1.523 . S
C2351 C2335 1.429 . S
C2351 C2347 1.429 . S
C2351 C2352 1.523 . S
C2352 C2336 1.368 . S
C2352 C2348 1.368 . S
C2352 C2351 1.523 . S
H2353 C2328 0.950 . S
H2354 C2330 0.950 . S
H2355 C2331 0.949 . S
H2356 C2333 0.950 . S
H2357 C2335 0.950 . S
C2358 C2359 1.349 . S
C2358 C2360 1.327 . S
C2358 H2383 0.950 . S
C2359 C2358 1.349 . S
C2359 C2375 1.349 . S
C2360 C2358 1.327 . S
C2360 C2379 1.429 . S
C2360 H2384 0.950 . S
C2361 C2378 1.574 . S
C2361 C2380 1.368 . S
C2361 H2385 0.949 . S
H2362 C2366 0.949 . S
C2363 C2364 1.349 . S
C2363 C2365 1.327 . S
C2363 H2386 0.950 . S
C2364 C2363 1.349 . S
C2364 C2376 1.349 . S
C2365 C2363 1.327 . S
C2365 C2381 1.429 . S
C2365 H2387 0.950 . S
C2366 H2362 0.949 . S
C2366 C2374 1.574 . S
C2366 C2382 1.368 . S
H2367 C2375 0.950 . S
H2368 C2373 0.950 . S
H2369 C2374 0.949 . S
H2370 C2376 0.950 . S
H2371 C2377 0.950 . S
H2372 C2378 0.949 . S
C2373 H2368 0.950 . S
C2373 C2375 1.327 . S
C2373 C2379 1.429 . S
C2374 C2366 1.574 . S
C2374 H2369 0.949 . S
C2374 C2380 1.368 . S
C2375 C2359 1.349 . S
C2375 H2367 0.950 . S
C2375 C2373 1.327 . S
C2376 C2364 1.349 . S
C2376 H2370 0.950 . S
C2376 C2377 1.327 . S
C2377 H2371 0.950 . S
C2377 C2376 1.327 . S
C2377 C2381 1.429 . S
C2378 C2361 1.574 . S
C2378 H2372 0.949 . S
C2378 C2382 1.368 . S
C2379 C2360 1.429 . S
C2379 C2373 1.429 . S
C2379 C2380 1.523 . S
C2380 C2361 1.368 . S
C2380 C2374 1.368 . S
C2380 C2379 1.523 . S
C2381 C2365 1.429 . S
C2381 C2377 1.429 . S
C2381 C2382 1.523 . S
C2382 C2366 1.368 . S
C2382 C2378 1.368 . S
C2382 C2381 1.523 . S
H2383 C2358 0.950 . S
H2384 C2360 0.950 . S
H2385 C2361 0.949 . S
H2386 C2363 0.950 . S
H2387 C2365 0.950 . S
C2388 C2389 1.349 . S
C2388 C2390 1.327 . S
C2388 H2413 0.950 . S
C2389 C2388 1.349 . S
C2389 C2405 1.349 . S
C2390 C2388 1.327 . S
C2390 C2409 1.429 . S
C2390 H2414 0.950 . S
C2391 C2408 1.574 . S
C2391 C2410 1.368 . S
C2391 H2415 0.949 . S
H2392 C2396 0.949 . S
C2393 C2394 1.349 . S
C2393 C2395 1.327 . S
C2393 H2416 0.950 . S
C2394 C2393 1.349 . S
C2394 C2406 1.349 . S
C2395 C2393 1.327 . S
C2395 C2411 1.429 . S
C2395 H2417 0.950 . S
C2396 H2392 0.949 . S
C2396 C2404 1.574 . S
C2396 C2412 1.368 . S
H2397 C2405 0.950 . S
H2398 C2403 0.950 . S
H2399 C2404 0.949 . S
H2400 C2406 0.950 . S
H2401 C2407 0.950 . S
H2402 C2408 0.949 . S
C2403 H2398 0.950 . S
C2403 C2405 1.327 . S
C2403 C2409 1.429 . S
C2404 C2396 1.574 . S
C2404 H2399 0.949 . S
C2404 C2410 1.368 . S
C2405 C2389 1.349 . S
C2405 H2397 0.950 . S
C2405 C2403 1.327 . S
C2406 C2394 1.349 . S
C2406 H2400 0.950 . S
C2406 C2407 1.327 . S
C2407 H2401 0.950 . S
C2407 C2406 1.327 . S
C2407 C2411 1.429 . S
C2408 C2391 1.574 . S
C2408 H2402 0.949 . S
C2408 C2412 1.368 . S
C2409 C2390 1.429 . S
C2409 C2403 1.429 . S
C2409 C2410 1.523 . S
C2410 C2391 1.368 . S
C2410 C2404 1.368 . S
C2410 C2409 1.523 . S
C2411 C2395 1.429 . S
C2411 C2407 1.429 . S
C2411 C2412 1.523 . S
C2412 C2396 1.368 . S
C2412 C2408 1.368 . S
C2412 C2411 1.523 . S
H2413 C2388 0.950 . S
H2414 C2390 0.950 . S
H2415 C2391 0.949 . S
H2416 C2393 0.950 . S
H2417 C2395 0.950 . S
C2418 C2419 1.349 . S
C2418 C2420 1.327 . S
C2418 H2443 0.950 . S
C2419 C2418 1.349 . S
C2419 C2435 1.349 . S
C2420 C2418 1.327 . S
C2420 C2439 1.429 . S
C2420 H2444 0.950 . S
C2421 C2438 1.574 . S
C2421 C2440 1.368 . S
C2421 H2445 0.949 . S
H2422 C2426 0.949 . S
C2423 C2424 1.349 . S
C2423 C2425 1.327 . S
C2423 H2446 0.950 . S
C2424 C2423 1.349 . S
C2424 C2436 1.349 . S
C2425 C2423 1.327 . S
C2425 C2441 1.429 . S
C2425 H2447 0.950 . S
C2426 H2422 0.949 . S
C2426 C2434 1.574 . S
C2426 C2442 1.368 . S
H2427 C2435 0.950 . S
H2428 C2433 0.950 . S
H2429 C2434 0.949 . S
H2430 C2436 0.950 . S
H2431 C2437 0.950 . S
H2432 C2438 0.949 . S
C2433 H2428 0.950 . S
C2433 C2435 1.327 . S
C2433 C2439 1.429 . S
C2434 C2426 1.574 . S
C2434 H2429 0.949 . S
C2434 C2440 1.368 . S
C2435 C2419 1.349 . S
C2435 H2427 0.950 . S
C2435 C2433 1.327 . S
C2436 C2424 1.349 . S
C2436 H2430 0.950 . S
C2436 C2437 1.327 . S
C2437 H2431 0.950 . S
C2437 C2436 1.327 . S
C2437 C2441 1.429 . S
C2438 C2421 1.574 . S
C2438 H2432 0.949 . S
C2438 C2442 1.368 . S
C2439 C2420 1.429 . S
C2439 C2433 1.429 . S
C2439 C2440 1.523 . S
C2440 C2421 1.368 . S
C2440 C2434 1.368 . S
C2440 C2439 1.523 . S
C2441 C2425 1.429 . S
C2441 C2437 1.429 . S
C2441 C2442 1.523 . S
C2442 C2426 1.368 . S
C2442 C2438 1.368 . S
C2442 C2441 1.523 . S
H2443 C2418 0.950 . S
H2444 C2420 0.950 . S
H2445 C2421 0.949 . S
H2446 C2423 0.950 . S
H2447 C2425 0.950 . S
C2448 C2449 1.349 . S
C2448 C2450 1.327 . S
C2448 H2473 0.950 . S
C2449 C2448 1.349 . S
C2449 C2465 1.349 . S
C2450 C2448 1.327 . S
C2450 C2469 1.429 . S
C2450 H2474 0.950 . S
C2451 C2468 1.574 1_456 S
C2451 C2470 1.368 . S
C2451 H2475 0.949 . S
H2452 C2456 0.949 . S
C2453 C2454 1.349 . S
C2453 C2455 1.327 . S
C2453 H2476 0.950 . S
C2454 C2453 1.349 . S
C2454 C2466 1.349 . S
C2455 C2453 1.327 . S
C2455 C2471 1.429 . S
C2455 H2477 0.950 . S
C2456 H2452 0.949 . S
C2456 C2464 1.574 1_654 S
C2456 C2472 1.368 . S
H2457 C2465 0.950 . S
H2458 C2463 0.950 . S
H2459 C2464 0.949 . S
H2460 C2466 0.950 . S
H2461 C2467 0.950 . S
H2462 C2468 0.949 . S
C2463 H2458 0.950 . S
C2463 C2465 1.327 . S
C2463 C2469 1.429 . S
C2464 C2456 1.574 1_456 S
C2464 H2459 0.949 . S
C2464 C2470 1.368 . S
C2465 C2449 1.349 . S
C2465 H2457 0.950 . S
C2465 C2463 1.327 . S
C2466 C2454 1.349 . S
C2466 H2460 0.950 . S
C2466 C2467 1.327 . S
C2467 H2461 0.950 . S
C2467 C2466 1.327 . S
C2467 C2471 1.429 . S
C2468 C2451 1.574 1_654 S
C2468 H2462 0.949 . S
C2468 C2472 1.368 . S
C2469 C2450 1.429 . S
C2469 C2463 1.429 . S
C2469 C2470 1.523 . S
C2470 C2451 1.368 . S
C2470 C2464 1.368 . S
C2470 C2469 1.523 . S
C2471 C2455 1.429 . S
C2471 C2467 1.429 . S
C2471 C2472 1.523 . S
C2472 C2456 1.368 . S
C2472 C2468 1.368 . S
C2472 C2471 1.523 . S
H2473 C2448 0.950 . S
H2474 C2450 0.950 . S
H2475 C2451 0.949 . S
H2476 C2453 0.950 . S
H2477 C2455 0.950 . S
C2478 C2479 1.349 . S
C2478 C2480 1.327 . S
C2478 H2503 0.950 . S
C2479 C2478 1.349 . S
C2479 C2495 1.349 . S
C2480 C2478 1.327 . S
C2480 C2499 1.429 . S
C2480 H2504 0.950 . S
C2481 C2498 1.574 1_554 S
C2481 C2500 1.368 . S
C2481 H2505 0.949 . S
H2482 C2486 0.949 . S
C2483 C2484 1.349 . S
C2483 C2485 1.327 . S
C2483 H2506 0.950 . S
C2484 C2483 1.349 . S
C2484 C2496 1.349 . S
C2485 C2483 1.327 . S
C2485 C2501 1.429 . S
C2485 H2507 0.950 . S
C2486 H2482 0.949 . S
C2486 C2494 1.574 1_556 S
C2486 C2502 1.368 . S
H2487 C2495 0.950 . S
H2488 C2493 0.950 . S
H2489 C2494 0.949 . S
H2490 C2496 0.950 . S
H2491 C2497 0.950 . S
H2492 C2498 0.949 . S
C2493 H2488 0.950 . S
C2493 C2495 1.327 . S
C2493 C2499 1.429 . S
C2494 C2486 1.574 1_554 S
C2494 H2489 0.949 . S
C2494 C2500 1.368 . S
C2495 C2479 1.349 . S
C2495 H2487 0.950 . S
C2495 C2493 1.327 . S
C2496 C2484 1.349 . S
C2496 H2490 0.950 . S
C2496 C2497 1.327 . S
C2497 H2491 0.950 . S
C2497 C2496 1.327 . S
C2497 C2501 1.429 . S
C2498 C2481 1.574 1_556 S
C2498 H2492 0.949 . S
C2498 C2502 1.368 . S
C2499 C2480 1.429 . S
C2499 C2493 1.429 . S
C2499 C2500 1.523 . S
C2500 C2481 1.368 . S
C2500 C2494 1.368 . S
C2500 C2499 1.523 . S
C2501 C2485 1.429 . S
C2501 C2497 1.429 . S
C2501 C2502 1.523 . S
C2502 C2486 1.368 . S
C2502 C2498 1.368 . S
C2502 C2501 1.523 . S
H2503 C2478 0.950 . S
H2504 C2480 0.950 . S
H2505 C2481 0.949 . S
H2506 C2483 0.950 . S
H2507 C2485 0.950 . S
C2508 C2509 1.349 . S
C2508 C2510 1.327 . S
C2508 H2533 0.950 . S
C2509 C2508 1.349 . S
C2509 C2525 1.349 . S
C2510 C2508 1.327 . S
C2510 C2529 1.429 . S
C2510 H2534 0.950 . S
C2511 C2528 1.575 1_544 S
C2511 C2530 1.368 . S
C2511 H2535 0.949 . S
H2512 C2516 0.949 . S
C2513 C2514 1.349 . S
C2513 C2515 1.327 . S
C2513 H2536 0.950 . S
C2514 C2513 1.349 . S
C2514 C2526 1.349 . S
C2515 C2513 1.327 . S
C2515 C2531 1.429 . S
C2515 H2537 0.950 . S
C2516 H2512 0.949 . S
C2516 C2524 1.575 1_566 S
C2516 C2532 1.368 . S
H2517 C2525 0.950 . S
H2518 C2523 0.950 . S
H2519 C2524 0.957 . S
H2520 C2526 0.950 . S
H2521 C2527 0.950 . S
H2522 C2528 0.957 . S
C2523 H2518 0.950 . S
C2523 C2525 1.327 . S
C2523 C2529 1.429 . S
C2524 C2516 1.575 1_544 S
C2524 H2519 0.957 . S
C2524 C2530 1.365 . S
C2525 C2509 1.349 . S
C2525 H2517 0.950 . S
C2525 C2523 1.327 . S
C2526 C2514 1.349 . S
C2526 H2520 0.950 . S
C2526 C2527 1.327 . S
C2527 H2521 0.950 . S
C2527 C2526 1.327 . S
C2527 C2531 1.429 . S
C2528 C2511 1.575 1_566 S
C2528 H2522 0.957 . S
C2528 C2532 1.366 . S
C2529 C2510 1.429 . S
C2529 C2523 1.429 . S
C2529 C2530 1.523 . S
C2530 C2511 1.368 . S
C2530 C2524 1.365 . S
C2530 C2529 1.523 . S
C2531 C2515 1.429 . S
C2531 C2527 1.429 . S
C2531 C2532 1.523 . S
C2532 C2516 1.368 . S
C2532 C2528 1.366 . S
C2532 C2531 1.523 . S
H2533 C2508 0.950 . S
H2534 C2510 0.950 . S
H2535 C2511 0.949 . S
H2536 C2513 0.950 . S
H2537 C2515 0.950 . S
C2538 C2539 1.349 . S
C2538 C2540 1.327 . S
C2538 H2563 0.950 . S
C2539 C2538 1.349 . S
C2539 C2555 1.349 . S
C2540 C2538 1.327 . S
C2540 C2559 1.429 . S
C2540 H2564 0.950 1_565 S
C2541 C2558 1.574 1_556 S
C2541 C2560 1.368 . S
C2541 H2565 0.949 . S
H2542 C2546 0.949 . S
C2543 C2544 1.349 . S
C2543 C2545 1.327 . S
C2543 H2566 0.950 . S
C2544 C2543 1.349 . S
C2544 C2556 1.349 . S
C2545 C2543 1.327 . S
C2545 C2561 1.429 . S
C2545 H2567 0.950 1_545 S
C2546 H2542 0.949 . S
C2546 C2554 1.574 1_554 S
C2546 C2562 1.368 . S
H2547 C2555 0.950 . S
H2548 C2553 0.950 . S
H2549 C2554 0.949 . S
H2550 C2556 0.950 . S
H2551 C2557 0.950 . S
H2552 C2558 0.949 . S
C2553 H2548 0.950 . S
C2553 C2555 1.327 . S
C2553 C2559 1.429 . S
C2554 C2546 1.574 1_556 S
C2554 H2549 0.949 . S
C2554 C2560 1.368 1_545 S
C2555 C2539 1.349 . S
C2555 H2547 0.950 . S
C2555 C2553 1.327 . S
C2556 C2544 1.349 . S
C2556 H2550 0.950 . S
C2556 C2557 1.327 . S
C2557 H2551 0.950 . S
C2557 C2556 1.327 . S
C2557 C2561 1.429 . S
C2558 C2541 1.574 1_554 S
C2558 H2552 0.949 . S
C2558 C2562 1.368 1_565 S
C2559 C2540 1.429 . S
C2559 C2553 1.429 . S
C2559 C2560 1.523 . S
C2560 C2541 1.368 . S
C2560 C2554 1.368 1_565 S
C2560 C2559 1.523 . S
C2561 C2545 1.429 . S
C2561 C2557 1.429 . S
C2561 C2562 1.523 . S
C2562 C2546 1.368 . S
C2562 C2558 1.368 1_545 S
C2562 C2561 1.523 . S
H2563 C2538 0.950 . S
H2564 C2540 0.950 1_545 S
H2565 C2541 0.949 . S
H2566 C2543 0.950 . S
H2567 C2545 0.950 1_565 S
C2568 C2569 1.349 . S
C2568 C2570 1.327 . S
C2568 H2593 0.950 . S
C2569 C2568 1.349 . S
C2569 C2585 1.349 . S
C2570 C2568 1.327 . S
C2570 C2589 1.429 . S
C2570 H2594 0.950 . S
C2571 C2588 1.574 1_456 S
C2571 C2590 1.368 . S
C2571 H2595 0.949 . S
H2572 C2576 0.949 . S
C2573 C2574 1.349 . S
C2573 C2575 1.327 . S
C2573 H2596 0.950 . S
C2574 C2573 1.349 . S
C2574 C2586 1.349 . S
C2575 C2573 1.327 . S
C2575 C2591 1.429 . S
C2575 H2597 0.950 . S
C2576 H2572 0.949 . S
C2576 C2584 1.574 1_654 S
C2576 C2592 1.368 . S
H2577 C2585 0.950 . S
H2578 C2583 0.950 . S
H2579 C2584 0.949 . S
H2580 C2586 0.950 . S
H2581 C2587 0.950 . S
H2582 C2588 0.949 . S
C2583 H2578 0.950 . S
C2583 C2585 1.327 . S
C2583 C2589 1.429 . S
C2584 C2576 1.574 1_456 S
C2584 H2579 0.949 . S
C2584 C2590 1.368 . S
C2585 C2569 1.349 . S
C2585 H2577 0.950 . S
C2585 C2583 1.327 . S
C2586 C2574 1.349 . S
C2586 H2580 0.950 . S
C2586 C2587 1.327 . S
C2587 H2581 0.950 . S
C2587 C2586 1.327 . S
C2587 C2591 1.429 . S
C2588 C2571 1.574 1_654 S
C2588 H2582 0.949 . S
C2588 C2592 1.368 . S
C2589 C2570 1.429 . S
C2589 C2583 1.429 . S
C2589 C2590 1.523 . S
C2590 C2571 1.368 . S
C2590 C2584 1.368 . S
C2590 C2589 1.523 . S
C2591 C2575 1.429 . S
C2591 C2587 1.429 . S
C2591 C2592 1.523 . S
C2592 C2576 1.368 . S
C2592 C2588 1.368 . S
C2592 C2591 1.523 . S
H2593 C2568 0.950 . S
H2594 C2570 0.950 . S
H2595 C2571 0.949 . S
H2596 C2573 0.950 . S
H2597 C2575 0.950 . S
C2598 C2599 1.349 . S
C2598 C2600 1.327 . S
C2598 H2623 0.950 . S
C2599 C2598 1.349 . S
C2599 C2615 1.349 . S
C2600 C2598 1.327 . S
C2600 C2619 1.429 . S
C2600 H2624 0.950 . S
C2601 C2618 1.574 1_554 S
C2601 C2620 1.368 . S
C2601 H2625 0.949 . S
H2602 C2606 0.949 . S
C2603 C2604 1.349 . S
C2603 C2605 1.327 . S
C2603 H2626 0.950 . S
C2604 C2603 1.349 . S
C2604 C2616 1.349 . S
C2605 C2603 1.327 . S
C2605 C2621 1.429 . S
C2605 H2627 0.950 . S
C2606 H2602 0.949 . S
C2606 C2614 1.574 1_556 S
C2606 C2622 1.368 . S
H2607 C2615 0.950 . S
H2608 C2613 0.950 . S
H2609 C2614 0.949 . S
H2610 C2616 0.950 . S
H2611 C2617 0.950 . S
H2612 C2618 0.949 . S
C2613 H2608 0.950 . S
C2613 C2615 1.327 . S
C2613 C2619 1.429 . S
C2614 C2606 1.574 1_554 S
C2614 H2609 0.949 . S
C2614 C2620 1.368 . S
C2615 C2599 1.349 . S
C2615 H2607 0.950 . S
C2615 C2613 1.327 . S
C2616 C2604 1.349 . S
C2616 H2610 0.950 . S
C2616 C2617 1.327 . S
C2617 H2611 0.950 . S
C2617 C2616 1.327 . S
C2617 C2621 1.429 . S
C2618 C2601 1.574 1_556 S
C2618 H2612 0.949 . S
C2618 C2622 1.368 . S
C2619 C2600 1.429 . S
C2619 C2613 1.429 . S
C2619 C2620 1.523 . S
C2620 C2601 1.368 . S
C2620 C2614 1.368 . S
C2620 C2619 1.523 . S
C2621 C2605 1.429 . S
C2621 C2617 1.429 . S
C2621 C2622 1.523 . S
C2622 C2606 1.368 . S
C2622 C2618 1.368 . S
C2622 C2621 1.523 . S
H2623 C2598 0.950 . S
H2624 C2600 0.950 . S
H2625 C2601 0.949 . S
H2626 C2603 0.950 . S
H2627 C2605 0.950 . S
C469 C10 1.416 . S
C474 C147 1.416 . S
C499 C23 1.415 . S
C504 C121 1.415 . S
C529 C140 1.416 . S
C534 C30 1.416 . S
C559 C43 1.415 . S
C564 C101 1.415 . S
C589 C108 1.416 . S
C594 C56 1.416 . S
C619 C75 1.415 . S
C624 C82 1.415 . S
C649 C303 1.416 . S
C654 C160 1.416 . S
C679 C179 1.415 . S
C684 C283 1.415 . S
C709 C192 1.416 . S
C714 C296 1.416 . S
C739 C251 1.416 . S
C744 C199 1.416 . S
C769 C218 1.416 . S
C774 C264 1.416 . S
C799 C244 1.415 . S
C804 C231 1.415 . S
C829 C316 1.415 . S
C834 C459 1.415 . S
C859 C439 1.415 . S
C864 C335 1.415 . S
C889 C446 1.416 . S
C894 C342 1.416 . S
C919 C413 1.415 . S
C924 C355 1.415 . S
C949 C426 1.416 . S
C954 C368 1.416 . S
C979 C400 1.415 . S
C984 C381 1.415 . S
C1009 C3 1.332 . S
C1014 C57 1.332 . S
C1039 C68 1.332 . S
C1044 C16 1.332 . S
C1069 C31 1.332 . S
C1074 C44 1.332 . S
C1099 C83 1.332 . S
C1104 C133 1.332 . S
C1129 C94 1.332 . S
C1134 C148 1.332 . S
C1159 C109 1.332 . S
C1164 C122 1.332 . S
C1189 C211 1.332 . S
C1194 C161 1.332 . S
C1219 C224 1.332 . S
C1224 C172 1.332 . S
C1249 C185 1.332 . S
C1254 C200 1.332 . S
C1279 C289 1.332 . S
C1284 C237 1.332 . S
C1309 C304 1.332 . S
C1314 C252 1.332 . S
C1339 C265 1.332 . S
C1344 C276 1.332 . S
C1369 C369 1.332 . S
C1374 C317 1.332 . S
C1399 C328 1.332 . S
C1404 C382 1.332 . S
C1429 C343 1.332 . S
C1434 C356 1.332 . S
C1459 C447 1.332 . S
C1464 C393 1.332 . S
C1489 C406 1.332 . S
C1494 C460 1.332 . S
C1519 C432 1.332 . S
C1524 C419 1.332 . S
C1549 C380 1.245 . S
C1554 C5 1.245 1_556 S
C1579 C18 1.245 1_556 S
C1584 C354 1.245 . S
C1609 C29 1.245 1_556 S
C1614 C367 1.245 . S
C1639 C42 1.245 1_554 S
C1644 C174 1.245 . S
C1669 C187 1.245 . S
C1674 C55 1.245 1_554 S
C1699 C159 1.245 . S
C1704 C70 1.245 1_554 S
C1729 C81 1.245 1_554 S
C1734 C302 1.245 . S
C1759 C96 1.245 1_554 S
C1764 C278 1.245 . S
C1789 C107 1.245 1_554 S
C1794 C291 1.245 . S
C1819 C408 1.245 . S
C1824 C120 1.245 1_556 S
C1849 C421 1.245 . S
C1854 C135 1.245 1_556 S
C1879 C146 1.245 1_556 S
C1884 C395 1.245 . S
C1909 C330 1.245 . S
C1914 C198 1.245 . S
C1939 C213 1.245 . S
C1944 C341 1.245 . S
C1969 C315 1.245 . S
C1974 C226 1.245 . S
C1999 C458 1.245 . S
C2004 C239 1.245 . S
C2029 C250 1.246 . S
C2034 C434 1.245 . S
C2059 C263 1.245 . S
C2064 C445 1.245 . S
C2089 C4 1.538 . S
C2094 C387 1.538 . S
C2119 C361 1.539 . S
C2124 C17 1.539 . S
C2149 C36 1.539 . S
C2154 C374 1.539 . S
C2179 C173 1.539 . S
C2184 C49 1.539 . S
C2209 C62 1.539 . S
C2214 C186 1.539 . S
C2239 C69 1.538 . S
C2244 C166 1.538 . S
C2269 C309 1.538 . S
C2274 C88 1.538 . S
C2299 C95 1.539 . S
C2304 C277 1.539 . S
C2329 C114 1.539 . S
C2334 C290 1.539 . S
C2359 C127 1.539 . S
C2364 C407 1.539 . S
C2389 C420 1.539 . S
C2394 C134 1.539 . S
C2419 C153 1.538 . S
C2424 C394 1.538 . S
C2449 C329 1.539 . S
C2454 C205 1.539 . S
C2479 C212 1.539 . S
C2484 C348 1.539 . S
C2509 C225 1.538 . S
C2514 C322 1.538 . S
C2539 C465 1.538 . S
C2544 C238 1.538 . S
C2569 C433 1.539 . S
C2574 C257 1.539 . S
C2599 C270 1.539 . S
C2604 C452 1.539 . S
