# Generated by pormake.
# Topology unp, (4)-cn, num edge types: 1
# Building blocks:
#     Node 0, Type 0, BuildingBlock: UXUYUI_clean_sbu_0, # of connection points: 4
#     Node 1, Type 0, BuildingBlock: UXUYUI_clean_sbu_0, # of connection points: 4
#     Node 2, Type 0, BuildingBlock: UXUYUI_clean_sbu_0, # of connection points: 4
#     Node 3, Type 0, BuildingBlock: UXUYUI_clean_sbu_0, # of connection points: 4
#     Node 4, Type 0, BuildingBlock: UXUYUI_clean_sbu_0, # of connection points: 4
#     Node 5, Type 0, BuildingBlock: UXUYUI_clean_sbu_0, # of connection points: 4
#     Node 6, Type 0, BuildingBlock: UXUYUI_clean_sbu_0, # of connection points: 4
#     Node 7, Type 0, BuildingBlock: UXUYUI_clean_sbu_0, # of connection points: 4
#     Node 8, Type 0, BuildingBlock: UXUYUI_clean_sbu_0, # of connection points: 4
#     Node 9, Type 0, BuildingBlock: UXUYUI_clean_sbu_0, # of connection points: 4
#     Node 10, Type 0, BuildingBlock: UXUYUI_clean_sbu_0, # of connection points: 4
#     Node 11, Type 0, BuildingBlock: UXUYUI_clean_sbu_0, # of connection points: 4
#     Node 12, Type 0, BuildingBlock: UXUYUI_clean_sbu_0, # of connection points: 4
#     Node 13, Type 0, BuildingBlock: UXUYUI_clean_sbu_0, # of connection points: 4
#     Node 14, Type 0, BuildingBlock: UXUYUI_clean_sbu_0, # of connection points: 4
#     Node 15, Type 0, BuildingBlock: UXUYUI_clean_sbu_0, # of connection points: 4
#     Node 16, Type 0, BuildingBlock: UXUYUI_clean_sbu_0, # of connection points: 4
#     Node 17, Type 0, BuildingBlock: UXUYUI_clean_sbu_0, # of connection points: 4
#     Edge 18, Type (0, 0), BuildingBlock: XUDNAN_clean_linker_2, # of connection points: 2
#     Edge 19, Type (0, 0), BuildingBlock: XUDNAN_clean_linker_2, # of connection points: 2
#     Edge 20, Type (0, 0), BuildingBlock: XUDNAN_clean_linker_2, # of connection points: 2
#     Edge 21, Type (0, 0), BuildingBlock: XUDNAN_clean_linker_2, # of connection points: 2
#     Edge 22, Type (0, 0), BuildingBlock: XUDNAN_clean_linker_2, # of connection points: 2
#     Edge 23, Type (0, 0), BuildingBlock: XUDNAN_clean_linker_2, # of connection points: 2
#     Edge 24, Type (0, 0), BuildingBlock: XUDNAN_clean_linker_2, # of connection points: 2
#     Edge 25, Type (0, 0), BuildingBlock: XUDNAN_clean_linker_2, # of connection points: 2
#     Edge 26, Type (0, 0), BuildingBlock: XUDNAN_clean_linker_2, # of connection points: 2
#     Edge 27, Type (0, 0), BuildingBlock: XUDNAN_clean_linker_2, # of connection points: 2
#     Edge 28, Type (0, 0), BuildingBlock: XUDNAN_clean_linker_2, # of connection points: 2
#     Edge 29, Type (0, 0), BuildingBlock: XUDNAN_clean_linker_2, # of connection points: 2
#     Edge 30, Type (0, 0), BuildingBlock: XUDNAN_clean_linker_2, # of connection points: 2
#     Edge 31, Type (0, 0), BuildingBlock: XUDNAN_clean_linker_2, # of connection points: 2
#     Edge 32, Type (0, 0), BuildingBlock: XUDNAN_clean_linker_2, # of connection points: 2
#     Edge 33, Type (0, 0), BuildingBlock: XUDNAN_clean_linker_2, # of connection points: 2
#     Edge 34, Type (0, 0), BuildingBlock: XUDNAN_clean_linker_2, # of connection points: 2
#     Edge 35, Type (0, 0), BuildingBlock: XUDNAN_clean_linker_2, # of connection points: 2
#     Edge 36, Type (0, 0), BuildingBlock: XUDNAN_clean_linker_2, # of connection points: 2
#     Edge 37, Type (0, 0), BuildingBlock: XUDNAN_clean_linker_2, # of connection points: 2
#     Edge 38, Type (0, 0), BuildingBlock: XUDNAN_clean_linker_2, # of connection points: 2
#     Edge 39, Type (0, 0), BuildingBlock: XUDNAN_clean_linker_2, # of connection points: 2
#     Edge 40, Type (0, 0), BuildingBlock: XUDNAN_clean_linker_2, # of connection points: 2
#     Edge 41, Type (0, 0), BuildingBlock: XUDNAN_clean_linker_2, # of connection points: 2
#     Edge 42, Type (0, 0), BuildingBlock: XUDNAN_clean_linker_2, # of connection points: 2
#     Edge 43, Type (0, 0), BuildingBlock: XUDNAN_clean_linker_2, # of connection points: 2
#     Edge 44, Type (0, 0), BuildingBlock: XUDNAN_clean_linker_2, # of connection points: 2
#     Edge 45, Type (0, 0), BuildingBlock: XUDNAN_clean_linker_2, # of connection points: 2
#     Edge 46, Type (0, 0), BuildingBlock: XUDNAN_clean_linker_2, # of connection points: 2
#     Edge 47, Type (0, 0), BuildingBlock: XUDNAN_clean_linker_2, # of connection points: 2
#     Edge 48, Type (0, 0), BuildingBlock: XUDNAN_clean_linker_2, # of connection points: 2
#     Edge 49, Type (0, 0), BuildingBlock: XUDNAN_clean_linker_2, # of connection points: 2
#     Edge 50, Type (0, 0), BuildingBlock: XUDNAN_clean_linker_2, # of connection points: 2
#     Edge 51, Type (0, 0), BuildingBlock: XUDNAN_clean_linker_2, # of connection points: 2
#     Edge 52, Type (0, 0), BuildingBlock: XUDNAN_clean_linker_2, # of connection points: 2
#     Edge 53, Type (0, 0), BuildingBlock: XUDNAN_clean_linker_2, # of connection points: 2
# Relax obj value: 0.501
# Max RMSD: 0.229
# Mean RMSD: 0.224
data_MOF--net-unp--node1-UXUYUI_clean_sbu_0--edge1-XUDNAN_clean_linker_2
_symmetry_space_group_name_H-M    P1
_symmetry_Int_Tables_number       1
_symmetry_cell_setting            triclinic
loop_
_symmetry_equiv_pos_as_xyz
'x, y, z'
_cell_length_a     62.724217
_cell_length_b     62.724875
_cell_length_c     103.75872
_cell_angle_alpha  90.238637
_cell_angle_beta   89.76758
_cell_angle_gamma 120.52444
loop_
_atom_site_label
_atom_site_type_symbol
_atom_site_fract_x
_atom_site_fract_y
_atom_site_fract_z
_atom_type_partial_charge
Li0 Li 0.18687 0.21205 0.08813 0.0
Li1 Li 0.20073 0.22745 0.10992 0.0
Li2 Li 0.18001 0.18282 0.105 0.0
Li3 Li 0.15713 0.20489 0.10542 0.0
C4 C 0.22745 0.20062 0.09979 0.0
N5 N 0.25758 0.1808 0.10323 0.0
C6 C 0.246 0.2104 0.10916 0.0
C7 C 0.22432 0.18083 0.09213 0.0
C8 C 0.26103 0.20011 0.11075 0.0
C9 C 0.2397 0.17104 0.09403 0.0
C10 C 0.19089 0.26118 0.09944 0.0
C11 C 0.19635 0.29538 0.11258 0.0
N12 N 0.21016 0.31134 0.10305 0.0
C13 C 0.20502 0.27788 0.08974 0.0
C14 C 0.18638 0.26995 0.11092 0.0
C15 C 0.21464 0.30318 0.09177 0.0
C16 C 0.18302 0.22879 0.06332 0.0
N17 N 0.19417 0.21895 0.07034 0.0
C18 C 0.21533 0.21663 0.05171 0.0
C19 C 0.21031 0.21317 0.06486 0.0
C20 C 0.20386 0.22644 0.04416 0.0
C21 C 0.18773 0.23284 0.05011 0.0
H22 H 0.17025 0.2332 0.06796 0.0
H23 H 0.21913 0.20568 0.07068 0.0
C24 C 0.22945 0.2503 0.13206 0.0
N25 N 0.22686 0.25338 0.11933 0.0
C26 C 0.2507 0.26759 0.13864 0.0
C27 C 0.26532 0.2916 0.11906 0.0
C28 C 0.2442 0.2735 0.11279 0.0
C29 C 0.26928 0.28843 0.13207 0.0
H30 H 0.21562 0.23377 0.13693 0.0
H31 H 0.2421 0.27507 0.10258 0.0
C32 C 0.14573 0.17408 0.08051 0.0
N33 N 0.12709 0.16225 0.05578 0.0
C34 C 0.12884 0.18076 0.07621 0.0
C35 C 0.15308 0.16131 0.07225 0.0
C36 C 0.11961 0.17458 0.06367 0.0
C37 C 0.14349 0.15555 0.05977 0.0
C38 C 0.15836 0.19232 0.12979 0.0
C39 C 0.14276 0.16714 0.13233 0.0
C40 C 0.15658 0.20989 0.1373 0.0
C41 C 0.1253 0.15993 0.14224 0.0
C42 C 0.13887 0.20194 0.14712 0.0
N43 N 0.12371 0.17734 0.14935 0.0
C44 C 0.19174 0.14916 0.11742 0.0
C45 C 0.15767 0.13162 0.10309 0.0
C46 C 0.18839 0.12577 0.11999 0.0
N47 N 0.17668 0.15163 0.10892 0.0
C48 C 0.15343 0.10796 0.1055 0.0
C49 C 0.16902 0.10473 0.11396 0.0
H50 H 0.20641 0.16535 0.12215 0.0
H51 H 0.14549 0.13398 0.09669 0.0
C52 C 0.11943 0.21775 0.10866 0.0
N53 N 0.12516 0.19956 0.109 0.0
C54 C 0.09479 0.21181 0.10995 0.0
C55 C 0.08279 0.16877 0.11221 0.0
C56 C 0.10748 0.17549 0.11076 0.0
C57 C 0.07611 0.18698 0.11162 0.0
H58 H 0.13378 0.23669 0.10695 0.0
H59 H 0.11253 0.16137 0.11057 0.0
O60 O 0.21252 0.21043 0.09809 0.0
O61 O 0.18148 0.23636 0.09766 0.0
O62 O 0.15557 0.18062 0.09261 0.0
O63 O 0.1753 0.19974 0.12 0.0
H64 H 0.24881 0.22575 0.11514 0.0
H65 H 0.20983 0.17277 0.08496 0.0
H66 H 0.27543 0.20747 0.11798 0.0
H67 H 0.23734 0.15561 0.08825 0.0
H68 H 0.19311 0.30244 0.12145 0.0
H69 H 0.20873 0.27141 0.0808 0.0
H70 H 0.17542 0.25726 0.11849 0.0
H71 H 0.22572 0.31634 0.08438 0.0
H72 H 0.22811 0.21176 0.04748 0.0
H73 H 0.17843 0.24031 0.04456 0.0
H74 H 0.25298 0.2639 0.14856 0.0
H75 H 0.27874 0.30748 0.1136 0.0
H76 H 0.12313 0.19085 0.08243 0.0
H77 H 0.16633 0.15622 0.0754 0.0
H78 H 0.1066 0.17972 0.06019 0.0
H79 H 0.14915 0.14583 0.05325 0.0
H80 H 0.14392 0.15329 0.12663 0.0
H81 H 0.16874 0.22945 0.13557 0.0
H82 H 0.11298 0.1405 0.14425 0.0
H83 H 0.1372 0.21534 0.15297 0.0
H84 H 0.20093 0.12426 0.12656 0.0
H85 H 0.13776 0.09233 0.10095 0.0
H86 H 0.09035 0.22636 0.10939 0.0
H87 H 0.06894 0.14935 0.11314 0.0
Li88 Li 0.8234 0.00627 0.1025 0.0
Li89 Li 0.80112 0.96275 0.10614 0.0
Li90 Li 0.79058 0.97949 0.0878 0.0
Li91 Li 0.78091 0.98603 0.10968 0.0
C92 C 0.84343 0.97966 0.09123 0.0
N93 N 0.8864 0.97762 0.09179 0.0
C94 C 0.85789 0.98651 0.10238 0.0
C95 C 0.85083 0.97179 0.08037 0.0
C96 C 0.87955 0.98534 0.10247 0.0
C97 C 0.87261 0.97089 0.08084 0.0
C98 C 0.80207 0.97926 0.13114 0.0
C99 C 0.77205 0.94712 0.14498 0.0
N100 N 0.78657 0.95888 0.15535 0.0
C101 C 0.81667 0.99103 0.14193 0.0
C102 C 0.77956 0.95711 0.13266 0.0
C103 C 0.80852 0.98043 0.15409 0.0
C104 C 0.86069 0.04883 0.11501 0.0
N105 N 0.85443 0.03612 0.10369 0.0
C106 C 0.89247 0.06639 0.09402 0.0
C107 C 0.86982 0.04431 0.09331 0.0
C108 C 0.89951 0.07979 0.10561 0.0
C109 C 0.88344 0.07078 0.11623 0.0
H110 H 0.84803 0.04184 0.12309 0.0
H111 H 0.86455 0.03363 0.08449 0.0
C112 C 0.79507 0.91505 0.10415 0.0
N113 N 0.80533 0.93606 0.11138 0.0
C114 C 0.8006 0.89652 0.10672 0.0
C115 C 0.8265 0.92131 0.12436 0.0
C116 C 0.8206 0.93936 0.12141 0.0
C117 C 0.81681 0.89971 0.11684 0.0
H118 H 0.78327 0.9131 0.09611 0.0
H119 H 0.82914 0.9565 0.12679 0.0
C120 C 0.80696 0.03211 0.08881 0.0
N121 N 0.82895 0.07577 0.07497 0.0
C122 C 0.80444 0.052 0.09287 0.0
C123 C 0.82063 0.03444 0.07769 0.0
C124 C 0.81571 0.07391 0.08575 0.0
C125 C 0.8316 0.05665 0.07083 0.0
C126 C 0.74358 0.94523 0.09632 0.0
C127 C 0.73632 0.96179 0.09222 0.0
C128 C 0.72644 0.91985 0.09631 0.0
C129 C 0.71196 0.95266 0.0882 0.0
C130 C 0.70224 0.91143 0.09222 0.0
N131 N 0.69556 0.92788 0.08828 0.0
C132 C 0.78275 0.95767 0.06321 0.0
C133 C 0.77106 0.98807 0.06509 0.0
C134 C 0.77706 0.95483 0.05008 0.0
N135 N 0.78003 0.97436 0.07034 0.0
C136 C 0.7656 0.98617 0.05198 0.0
C137 C 0.76888 0.9696 0.04431 0.0
H138 H 0.78987 0.947 0.06767 0.0
H139 H 0.76875 0.00098 0.07101 0.0
C140 C 0.7699 0.01613 0.12347 0.0
N141 N 0.75942 0.99204 0.1199 0.0
C142 C 0.75575 0.02462 0.12948 0.0
C143 C 0.72059 0.98291 0.12896 0.0
C144 C 0.73549 0.9752 0.12287 0.0
C145 C 0.73059 0.00808 0.13195 0.0
H146 H 0.78916 0.02887 0.12127 0.0
H147 H 0.72773 0.95601 0.12015 0.0
O148 O 0.82204 0.98044 0.09088 0.0
O149 O 0.80997 0.98953 0.11919 0.0
O150 O 0.79639 0.01065 0.09579 0.0
O151 O 0.76735 0.95357 0.10023 0.0
H152 H 0.85245 0.99258 0.11089 0.0
H153 H 0.83981 0.96642 0.07166 0.0
H154 H 0.89089 0.99055 0.11104 0.0
H155 H 0.87855 0.96483 0.07251 0.0
H156 H 0.75469 0.92999 0.1463 0.0
H157 H 0.83416 0.00816 0.14091 0.0
H158 H 0.76799 0.94765 0.12446 0.0
H159 H 0.81965 0.98933 0.16253 0.0
H160 H 0.90464 0.07261 0.08571 0.0
H161 H 0.88838 0.08066 0.12533 0.0
H162 H 0.79271 0.88012 0.1007 0.0
H163 H 0.83952 0.92484 0.13205 0.0
H164 H 0.79386 0.05055 0.10141 0.0
H165 H 0.82298 0.01933 0.07445 0.0
H166 H 0.81393 0.08945 0.0888 0.0
H167 H 0.8423 0.0587 0.06223 0.0
H168 H 0.74923 0.9815 0.09224 0.0
H169 H 0.7318 0.90679 0.09944 0.0
H170 H 0.70608 0.96527 0.08503 0.0
H171 H 0.68877 0.89183 0.09218 0.0
H172 H 0.77991 0.94195 0.0444 0.0
H173 H 0.75912 0.99769 0.04785 0.0
H174 H 0.76429 0.04406 0.13194 0.0
H175 H 0.70128 0.9696 0.13081 0.0
Li176 Li 0.99092 0.82118 0.10647 0.0
Li177 Li 0.03482 0.84427 0.10884 0.0
Li178 Li 0.01837 0.81709 0.09047 0.0
Li179 Li 0.01371 0.80066 0.11363 0.0
C180 C 0.02229 0.87055 0.09391 0.0
N181 N 0.03908 0.9207 0.09381 0.0
C182 C 0.01699 0.88145 0.10427 0.0
C183 C 0.03587 0.88511 0.08343 0.0
C184 C 0.02571 0.90683 0.10406 0.0
C185 C 0.04425 0.91045 0.08358 0.0
C186 C 0.01054 0.83224 0.13486 0.0
C187 C 0.02457 0.83325 0.15658 0.0
N188 N 0.01231 0.84482 0.16054 0.0
C189 C 0.99796 0.84403 0.13916 0.0
C190 C 0.02387 0.8267 0.14364 0.0
C191 C 0.99913 0.85029 0.15218 0.0
C192 C 0.94527 0.80815 0.11855 0.0
N193 N 0.96075 0.82109 0.10869 0.0
C194 C 0.93506 0.83733 0.10275 0.0
C195 C 0.95577 0.83502 0.10065 0.0
C196 C 0.91903 0.82484 0.11312 0.0
C197 C 0.92411 0.80963 0.1209 0.0
H198 H 0.94968 0.7971 0.12475 0.0
H199 H 0.96828 0.84494 0.09281 0.0
C200 C 0.07903 0.88919 0.10409 0.0
N201 N 0.06209 0.87642 0.11346 0.0
C202 C 0.0972 0.91391 0.10599 0.0
C203 C 0.0807 0.91183 0.12731 0.0
C204 C 0.06296 0.8871 0.12502 0.0
C205 C 0.09779 0.92577 0.11761 0.0
H206 H 0.07771 0.8805 0.09487 0.0
H207 H 0.04925 0.87698 0.1323 0.0
C208 C 0.9638 0.77694 0.09674 0.0
N209 N 0.91369 0.75213 0.09156 0.0
C210 C 0.94722 0.75816 0.10495 0.0
C211 C 0.95494 0.78306 0.08587 0.0
C212 C 0.92194 0.74584 0.10217 0.0
C213 C 0.92953 0.77031 0.08343 0.0
C214 C 0.06886 0.83148 0.10469 0.0
C215 C 0.0851 0.83965 0.09419 0.0
C216 C 0.07827 0.8355 0.11721 0.0
C217 C 0.11059 0.85213 0.09641 0.0
C218 C 0.10387 0.84807 0.11904 0.0
N219 N 0.11937 0.85607 0.10869 0.0
C220 C 0.03953 0.82924 0.06563 0.0
C221 C 0.00721 0.78762 0.06815 0.0
C222 C 0.04211 0.82507 0.05265 0.0
N223 N 0.02214 0.81068 0.07302 0.0
C224 C 0.00913 0.78261 0.05521 0.0
C225 C 0.02667 0.80152 0.04725 0.0
H226 H 0.05134 0.84731 0.06983 0.0
H227 H 0.99372 0.77313 0.0743 0.0
C228 C 0.99357 0.76429 0.1327 0.0
N229 N 0.01231 0.77547 0.12404 0.0
C230 C 0.99166 0.74533 0.14049 0.0
C231 C 0.02871 0.75012 0.13043 0.0
C232 C 0.0298 0.76891 0.12278 0.0
C233 C 0.00936 0.73795 0.1394 0.0
H234 H 0.98002 0.77005 0.13349 0.0
H235 H 0.04455 0.77824 0.11582 0.0
O236 O 0.01468 0.84587 0.0942 0.0
O237 O 0.00949 0.82589 0.12215 0.0
O238 O 0.98853 0.78975 0.09949 0.0
O239 O 0.04386 0.81948 0.10271 0.0
H240 H 0.00661 0.87047 0.11248 0.0
H241 H 0.04004 0.87701 0.0753 0.0
H242 H 0.02195 0.91553 0.11207 0.0
H243 H 0.05492 0.92197 0.07557 0.0
H244 H 0.03484 0.8291 0.16347 0.0
H245 H 0.98746 0.84838 0.13252 0.0
H246 H 0.03352 0.81739 0.14052 0.0
H247 H 0.98955 0.85948 0.15563 0.0
H248 H 0.93228 0.84959 0.09658 0.0
H249 H 0.91212 0.7993 0.12886 0.0
H250 H 0.11014 0.92381 0.09827 0.0
H251 H 0.08011 0.92024 0.13634 0.0
H252 H 0.95379 0.75325 0.11342 0.0
H253 H 0.96755 0.79773 0.07949 0.0
H254 H 0.90887 0.73132 0.10846 0.0
H255 H 0.92239 0.77494 0.07509 0.0
H256 H 0.0781 0.83652 0.08444 0.0
H257 H 0.06594 0.82917 0.12542 0.0
H258 H 0.12339 0.8587 0.08838 0.0
H259 H 0.11142 0.85147 0.12868 0.0
H260 H 0.05571 0.84026 0.04685 0.0
H261 H 0.9971 0.76412 0.0515 0.0
H262 H 0.97618 0.73623 0.14709 0.0
H263 H 0.04289 0.74524 0.12937 0.0
Li264 Li 0.22583 0.19975 0.88619 0.0
Li265 Li 0.21253 0.18914 0.9078 0.0
Li266 Li 0.20364 0.15612 0.89088 0.0
Li267 Li 0.18232 0.18122 0.89127 0.0
C268 C 0.26034 0.19117 0.89614 0.0
N269 N 0.31021 0.21034 0.89156 0.0
C270 C 0.27735 0.21578 0.89927 0.0
C271 C 0.26869 0.17623 0.89078 0.0
C272 C 0.30248 0.22516 0.89684 0.0
C273 C 0.29399 0.18629 0.88852 0.0
C274 C 0.21444 0.23176 0.9057 0.0
C275 C 0.20138 0.24724 0.92356 0.0
N276 N 0.22425 0.26787 0.92395 0.0
C277 C 0.23782 0.25317 0.90628 0.0
C278 C 0.19604 0.22883 0.91439 0.0
C279 C 0.24241 0.2712 0.91556 0.0
C280 C 0.25035 0.24469 0.87299 0.0
N281 N 0.25057 0.22337 0.87481 0.0
C282 C 0.2832 0.23586 0.85938 0.0
C283 C 0.2663 0.21852 0.86808 0.0
C284 C 0.28366 0.25824 0.85751 0.0
C285 C 0.26688 0.2625 0.86443 0.0
H286 H 0.23685 0.24758 0.87796 0.0
H287 H 0.26539 0.20097 0.86922 0.0
C288 C 0.20132 0.1815 0.93418 0.0
N289 N 0.21902 0.19686 0.92571 0.0
C290 C 0.20306 0.18784 0.94718 0.0
C291 C 0.24186 0.22521 0.94267 0.0
C292 C 0.23952 0.21794 0.92977 0.0
C293 C 0.22321 0.21027 0.95148 0.0
H294 H 0.18546 0.16462 0.9308 0.0
H295 H 0.25362 0.22962 0.92293 0.0
C296 C 0.20212 0.18074 0.86433 0.0
N297 N 0.21435 0.19896 0.83955 0.0
C298 C 0.19587 0.19786 0.8599 0.0
C299 C 0.2144 0.17271 0.85615 0.0
C300 C 0.20227 0.2069 0.84734 0.0
C301 C 0.22046 0.18218 0.84366 0.0
C302 C 0.15681 0.14239 0.9073 0.0
C303 C 0.14397 0.11798 0.90282 0.0
C304 C 0.14433 0.1514 0.91466 0.0
C305 C 0.11878 0.10311 0.90561 0.0
C306 C 0.11912 0.13597 0.91722 0.0
N307 N 0.10697 0.11235 0.91267 0.0
C308 C 0.20581 0.11288 0.89588 0.0
C309 C 0.18596 0.11287 0.87647 0.0
C310 C 0.19946 0.08832 0.8938 0.0
N311 N 0.19869 0.12441 0.88732 0.0
C312 C 0.17921 0.08837 0.87402 0.0
C313 C 0.18558 0.0756 0.88285 0.0
H314 H 0.21578 0.12255 0.90448 0.0
H315 H 0.18017 0.1224 0.86998 0.0
C316 C 0.14894 0.19917 0.88958 0.0
N317 N 0.15165 0.17925 0.88758 0.0
C318 C 0.12564 0.19681 0.88856 0.0
C319 C 0.10867 0.15384 0.88273 0.0
C320 C 0.13235 0.15716 0.88367 0.0
C321 C 0.10492 0.17368 0.88549 0.0
H322 H 0.16475 0.21677 0.89226 0.0
H323 H 0.13516 0.14178 0.88184 0.0
O324 O 0.23566 0.18158 0.89845 0.0
O325 O 0.20964 0.21372 0.89677 0.0
O326 O 0.1967 0.17229 0.87672 0.0
O327 O 0.18144 0.15736 0.90451 0.0
H328 H 0.27116 0.22764 0.9033 0.0
H329 H 0.25575 0.15712 0.88832 0.0
H330 H 0.31583 0.24424 0.89911 0.0
H331 H 0.30072 0.17498 0.88433 0.0
H332 H 0.18734 0.2451 0.93038 0.0
H333 H 0.25247 0.25568 0.8998 0.0
H334 H 0.17789 0.21242 0.91413 0.0
H335 H 0.26046 0.28776 0.91615 0.0
H336 H 0.29566 0.23174 0.85414 0.0
H337 H 0.26601 0.27913 0.86296 0.0
H338 H 0.18828 0.17582 0.95369 0.0
H339 H 0.25786 0.24247 0.94568 0.0
H340 H 0.18647 0.20434 0.86616 0.0
H341 H 0.21953 0.1596 0.85949 0.0
H342 H 0.19771 0.2203 0.8438 0.0
H343 H 0.23014 0.17629 0.83724 0.0
H344 H 0.15326 0.11058 0.89718 0.0
H345 H 0.15394 0.17016 0.91828 0.0
H346 H 0.1086 0.08422 0.90214 0.0
H347 H 0.10922 0.14279 0.92281 0.0
H348 H 0.20489 0.07923 0.90081 0.0
H349 H 0.16809 0.07921 0.86561 0.0
H350 H 0.12383 0.21281 0.89041 0.0
H351 H 0.09338 0.1356 0.88042 0.0
Li352 Li 0.80062 0.0167 0.88538 0.0
Li353 Li 0.80651 0.01107 0.90822 0.0
Li354 Li 0.84265 0.03523 0.89337 0.0
Li355 Li 0.81847 0.99008 0.89191 0.0
C356 C 0.80854 0.05901 0.89867 0.0
N357 N 0.79171 0.09203 0.89797 0.0
C358 C 0.7906 0.05685 0.90746 0.0
C359 C 0.81805 0.07807 0.88958 0.0
C360 C 0.78231 0.07371 0.90694 0.0
C361 C 0.80925 0.09454 0.88936 0.0
C362 C 0.76168 0.96853 0.89924 0.0
C363 C 0.73245 0.93011 0.90951 0.0
N364 N 0.71391 0.93468 0.90687 0.0
C365 C 0.7423 0.97277 0.89658 0.0
C366 C 0.75669 0.94695 0.9057 0.0
C367 C 0.7183 0.95546 0.90053 0.0
C368 C 0.77614 0.00453 0.86212 0.0
N369 N 0.77911 0.01809 0.87292 0.0
C370 C 0.74855 0.02733 0.86565 0.0
C371 C 0.76585 0.02957 0.87479 0.0
C372 C 0.74456 0.01272 0.85465 0.0
C373 C 0.75882 0.00151 0.85283 0.0
H374 H 0.7867 0.99536 0.86094 0.0
H375 H 0.7677 0.03948 0.8836 0.0
C376 C 0.8125 0.01648 0.935 0.0
N377 N 0.79501 0.00789 0.9256 0.0
C378 C 0.80557 0.01136 0.94792 0.0
C379 C 0.7627 0.98986 0.94134 0.0
C380 C 0.77047 0.99564 0.92856 0.0
C381 C 0.78039 0.99724 0.95117 0.0
H382 H 0.8319 0.02642 0.93241 0.0
H383 H 0.75685 0.98974 0.92104 0.0
C384 C 0.84507 0.02743 0.8682 0.0
N385 N 0.87959 0.05478 0.84948 0.0
C386 C 0.86191 0.02053 0.86399 0.0
C387 C 0.84554 0.04802 0.86278 0.0
C388 C 0.87929 0.03467 0.85455 0.0
C389 C 0.8632 0.06166 0.85335 0.0
C390 C 0.8441 0.99753 0.91477 0.0
C391 C 0.86891 0.00498 0.91693 0.0
C392 C 0.82549 0.97633 0.92084 0.0
C393 C 0.87467 0.99092 0.92506 0.0
C394 C 0.83199 0.96278 0.92891 0.0
N395 N 0.85625 0.97027 0.93082 0.0
C396 C 0.88311 0.08568 0.89312 0.0
C397 C 0.89268 0.05407 0.88971 0.0
C398 C 0.90813 0.10386 0.89202 0.0
N399 N 0.87597 0.06136 0.89192 0.0
C400 C 0.91775 0.07153 0.8885 0.0
C401 C 0.9258 0.09683 0.88967 0.0
H402 H 0.86946 0.09095 0.89503 0.0
H403 H 0.88646 0.03457 0.88896 0.0
C404 C 0.80164 0.93896 0.88667 0.0
N405 N 0.82147 0.96196 0.88869 0.0
C406 C 0.80484 0.91847 0.88593 0.0
C407 C 0.84884 0.94605 0.88877 0.0
C408 C 0.84481 0.96589 0.88938 0.0
C409 C 0.82866 0.9219 0.88733 0.0
H410 H 0.78331 0.93643 0.88595 0.0
H411 H 0.86026 0.98446 0.89075 0.0
O412 O 0.81705 0.04284 0.89914 0.0
O413 O 0.78528 0.98523 0.89535 0.0
O414 O 0.82831 0.0142 0.87765 0.0
O415 O 0.83809 0.01079 0.90663 0.0
H416 H 0.78312 0.04227 0.91458 0.0
H417 H 0.83197 0.08005 0.88272 0.0
H418 H 0.76839 0.07222 0.91366 0.0
H419 H 0.81636 0.1093 0.88234 0.0
H420 H 0.72836 0.91338 0.91455 0.0
H421 H 0.74575 0.98936 0.89166 0.0
H422 H 0.77131 0.94315 0.90775 0.0
H423 H 0.70317 0.95859 0.89859 0.0
H424 H 0.73754 0.03587 0.86748 0.0
H425 H 0.75623 0.99012 0.84443 0.0
H426 H 0.81978 0.01734 0.95523 0.0
H427 H 0.74309 0.97934 0.9435 0.0
H428 H 0.8617 0.00457 0.86807 0.0
H429 H 0.83246 0.05342 0.86586 0.0
H430 H 0.89257 0.02967 0.85126 0.0
H431 H 0.86388 0.07773 0.84912 0.0
H432 H 0.88356 0.0214 0.91235 0.0
H433 H 0.80625 0.97047 0.91936 0.0
H434 H 0.89379 0.99641 0.92678 0.0
H435 H 0.81776 0.94631 0.93365 0.0
H436 H 0.91357 0.12317 0.89298 0.0
H437 H 0.93075 0.06521 0.88698 0.0
H438 H 0.78883 0.90013 0.88476 0.0
H439 H 0.86756 0.94954 0.88959 0.0
Li440 Li 0.00895 0.81899 0.89551 0.0
Li441 Li 0.96356 0.79741 0.8977 0.0
Li442 Li 0.98834 0.78644 0.91163 0.0
Li443 Li 0.9822 0.77583 0.88876 0.0
C444 C 0.99044 0.82706 0.92253 0.0
N445 N 0.9924 0.84303 0.9476 0.0
C446 C 0.9691 0.82414 0.92851 0.0
C447 C 0.01281 0.8383 0.92927 0.0
C448 C 0.97047 0.83232 0.94119 0.0
C449 C 0.0134 0.84617 0.94195 0.0
C450 C 0.97378 0.81647 0.8744 0.0
C451 C 0.93973 0.81362 0.86221 0.0
N452 N 0.95249 0.83862 0.86071 0.0
C453 C 0.98659 0.84213 0.87269 0.0
C454 C 0.9502 0.80207 0.86905 0.0
C455 C 0.97551 0.85297 0.86575 0.0
C456 C 0.0536 0.85302 0.88237 0.0
N457 N 0.03759 0.85027 0.89196 0.0
C458 C 0.06069 0.89357 0.89657 0.0
C459 C 0.04064 0.86998 0.89896 0.0
C460 C 0.07794 0.89701 0.88691 0.0
C461 C 0.0742 0.87626 0.87979 0.0
H462 H 0.05026 0.83725 0.8766 0.0
H463 H 0.02715 0.86751 0.90619 0.0
C464 C 0.91307 0.78649 0.89563 0.0
N465 N 0.93726 0.80412 0.89726 0.0
C466 C 0.89512 0.79336 0.89451 0.0
C467 C 0.9274 0.83615 0.89705 0.0
C468 C 0.94461 0.82851 0.89805 0.0
C469 C 0.90228 0.81852 0.89522 0.0
H470 H 0.90778 0.76722 0.895 0.0
H471 H 0.96403 0.84209 0.89923 0.0
C472 C 0.03825 0.79992 0.89762 0.0
N473 N 0.08882 0.82075 0.89477 0.0
C474 C 0.04795 0.79543 0.88646 0.0
C475 C 0.0543 0.81498 0.90732 0.0
C476 C 0.07356 0.80611 0.88521 0.0
C477 C 0.07979 0.82536 0.9057 0.0
C478 C 0.94514 0.73946 0.89999 0.0
C479 C 0.95247 0.72464 0.90634 0.0
C480 C 0.92706 0.72918 0.89039 0.0
C481 C 0.94161 0.69969 0.90294 0.0
C482 C 0.91667 0.70416 0.88726 0.0
N483 N 0.9241 0.69006 0.89355 0.0
C484 C 0.97682 0.77658 0.93812 0.0
C485 C 0.01166 0.77436 0.93122 0.0
C486 C 0.9824 0.77534 0.95101 0.0
N487 N 0.99216 0.7774 0.92861 0.0
C488 C 0.01768 0.77258 0.94395 0.0
C489 C 0.00361 0.77417 0.9541 0.0
H490 H 0.96098 0.77826 0.93575 0.0
H491 H 0.02308 0.7742 0.92344 0.0
C492 C 0.96765 0.75008 0.865 0.0
N493 N 0.9795 0.75229 0.87628 0.0
C494 C 0.9683 0.73534 0.85508 0.0
C495 C 0.99287 0.72497 0.86871 0.0
C496 C 0.99128 0.7395 0.87846 0.0
C497 C 0.98183 0.72325 0.85667 0.0
H498 H 0.95832 0.76032 0.86354 0.0
H499 H 0.0005 0.7416 0.88756 0.0
O500 O 0.98941 0.81891 0.91016 0.0
O501 O 0.9841 0.80556 0.88142 0.0
O502 O 0.01321 0.78975 0.899 0.0
O503 O 0.9561 0.76407 0.90291 0.0
H504 H 0.95157 0.8153 0.92351 0.0
H505 H 0.02953 0.84086 0.92478 0.0
H506 H 0.95407 0.83003 0.94596 0.0
H507 H 0.03057 0.85476 0.9473 0.0
H508 H 0.92139 0.80273 0.85816 0.0
H509 H 0.00481 0.85361 0.87674 0.0
H510 H 0.93977 0.78226 0.87048 0.0
H511 H 0.98518 0.87281 0.86441 0.0
H512 H 0.06217 0.909 0.90204 0.0
H513 H 0.08695 0.87789 0.87227 0.0
H514 H 0.87592 0.77921 0.89315 0.0
H515 H 0.93381 0.85576 0.89739 0.0
H516 H 0.03592 0.78417 0.87875 0.0
H517 H 0.04716 0.8187 0.916 0.0
H518 H 0.08132 0.80288 0.8766 0.0
H519 H 0.09241 0.83711 0.91312 0.0
H520 H 0.96657 0.73238 0.91373 0.0
H521 H 0.92143 0.74049 0.88527 0.0
H522 H 0.94716 0.688 0.90774 0.0
H523 H 0.90279 0.69598 0.8798 0.0
H524 H 0.97094 0.77668 0.95841 0.0
H525 H 0.03367 0.77079 0.9458 0.0
H526 H 0.95892 0.7341 0.84613 0.0
H527 H 0.00376 0.71631 0.87042 0.0
Li528 Li 0.8618 0.55067 0.44685 0.0
Li529 Li 0.84431 0.53633 0.42516 0.0
Li530 Li 0.81751 0.52213 0.44446 0.0
Li531 Li 0.84678 0.50788 0.4399 0.0
C532 C 0.84358 0.58027 0.43806 0.0
N533 N 0.85743 0.62968 0.43916 0.0
C534 C 0.85642 0.596 0.42778 0.0
C535 C 0.83748 0.58959 0.44882 0.0
C536 C 0.86333 0.62094 0.42854 0.0
C537 C 0.84475 0.61465 0.44922 0.0
C538 C 0.89196 0.53211 0.43177 0.0
C539 C 0.911 0.51236 0.42044 0.0
N540 N 0.92579 0.51627 0.43079 0.0
C541 C 0.90735 0.53592 0.44229 0.0
C542 C 0.89379 0.52023 0.42074 0.0
C543 C 0.92434 0.52779 0.44161 0.0
C544 C 0.89349 0.57209 0.46803 0.0
N545 N 0.88745 0.57736 0.45639 0.0
C546 C 0.92154 0.6189 0.45752 0.0
C547 C 0.901 0.60021 0.45107 0.0
C548 C 0.92871 0.61382 0.46941 0.0
C549 C 0.91412 0.59006 0.47472 0.0
H550 H 0.88301 0.55354 0.47185 0.0
H551 H 0.89648 0.60375 0.4416 0.0
C552 C 0.8257 0.54262 0.40154 0.0
N553 N 0.84612 0.54509 0.40749 0.0
C554 C 0.82492 0.54343 0.38812 0.0
C555 C 0.86726 0.55249 0.38736 0.0
C556 C 0.86708 0.55113 0.40078 0.0
C557 C 0.84561 0.5475 0.38088 0.0
H558 H 0.80945 0.53833 0.40716 0.0
H559 H 0.88328 0.55369 0.40579 0.0
C560 C 0.83037 0.51706 0.4684 0.0
N561 N 0.80746 0.51102 0.49201 0.0
C562 C 0.81874 0.49397 0.47444 0.0
C563 C 0.83043 0.53709 0.47438 0.0
C564 C 0.80723 0.49129 0.48637 0.0
C565 C 0.81874 0.53367 0.48631 0.0
C566 C 0.80367 0.4926 0.41897 0.0
C567 C 0.7796 0.48855 0.41872 0.0
C568 C 0.81326 0.48741 0.40798 0.0
C569 C 0.76556 0.47943 0.40748 0.0
C570 C 0.79866 0.47837 0.39693 0.0
N571 N 0.77531 0.47459 0.39691 0.0
C572 C 0.77518 0.52621 0.45031 0.0
C573 C 0.77246 0.48818 0.45565 0.0
C574 C 0.75077 0.51715 0.45437 0.0
N575 N 0.7854 0.51163 0.451 0.0
C576 C 0.74824 0.47855 0.46 0.0
C577 C 0.73703 0.49299 0.45928 0.0
H578 H 0.78576 0.54463 0.44632 0.0
H579 H 0.7808 0.47676 0.45568 0.0
C580 C 0.85536 0.47302 0.45297 0.0
N581 N 0.85119 0.48 0.4413 0.0
C582 C 0.85596 0.45111 0.45415 0.0
C583 C 0.84951 0.44493 0.43116 0.0
C584 C 0.84857 0.4666 0.43049 0.0
C585 C 0.85273 0.43667 0.44314 0.0
H586 H 0.85762 0.48413 0.46141 0.0
H587 H 0.84531 0.47249 0.42135 0.0
O588 O 0.83647 0.55575 0.43744 0.0
O589 O 0.87476 0.53936 0.4324 0.0
O590 O 0.84132 0.51997 0.45659 0.0
O591 O 0.81772 0.5016 0.4299 0.0
H592 H 0.86123 0.58912 0.41935 0.0
H593 H 0.82715 0.57761 0.45675 0.0
H594 H 0.87342 0.63336 0.42069 0.0
H595 H 0.84023 0.62213 0.45751 0.0
H596 H 0.91249 0.50301 0.412 0.0
H597 H 0.90605 0.54485 0.45094 0.0
H598 H 0.8817 0.51665 0.4126 0.0
H599 H 0.93631 0.53056 0.4497 0.0
H600 H 0.93204 0.63693 0.45307 0.0
H601 H 0.91917 0.58492 0.48364 0.0
H602 H 0.80798 0.53977 0.38343 0.0
H603 H 0.88359 0.55571 0.38209 0.0
H604 H 0.81828 0.47819 0.46989 0.0
H605 H 0.83942 0.55508 0.46986 0.0
H606 H 0.79804 0.47349 0.49112 0.0
H607 H 0.81862 0.54901 0.49104 0.0
H608 H 0.7718 0.49245 0.42707 0.0
H609 H 0.83207 0.49114 0.4078 0.0
H610 H 0.74693 0.47625 0.40716 0.0
H611 H 0.80598 0.47459 0.38832 0.0
H612 H 0.74266 0.52876 0.45359 0.0
H613 H 0.73807 0.45964 0.46344 0.0
H614 H 0.85852 0.44531 0.46355 0.0
H615 H 0.84661 0.43415 0.42248 0.0
Li616 Li 0.48174 0.32973 0.4406 0.0
Li617 Li 0.45908 0.28536 0.43845 0.0
Li618 Li 0.45386 0.3118 0.42228 0.0
Li619 Li 0.43721 0.30674 0.44483 0.0
C620 C 0.5062 0.31388 0.42284 0.0
N621 N 0.55219 0.32172 0.41579 0.0
C622 C 0.5182 0.30496 0.43054 0.0
C623 C 0.51752 0.32657 0.41147 0.0
C624 C 0.54144 0.30914 0.42683 0.0
C625 C 0.54081 0.33044 0.40811 0.0
C626 C 0.47206 0.30036 0.46512 0.0
C627 C 0.46537 0.28474 0.48686 0.0
N628 N 0.4892 0.28991 0.48731 0.0
C629 C 0.49654 0.30572 0.46584 0.0
C630 C 0.45637 0.28997 0.47575 0.0
C631 C 0.50484 0.30023 0.47712 0.0
C632 C 0.51526 0.36457 0.45869 0.0
N633 N 0.51244 0.35763 0.44609 0.0
C634 C 0.55446 0.38821 0.44162 0.0
C635 C 0.53119 0.36967 0.43749 0.0
C636 C 0.55842 0.39486 0.45472 0.0
C637 C 0.5382 0.38321 0.46324 0.0
H638 H 0.49983 0.35521 0.46528 0.0
H639 H 0.52827 0.36464 0.42744 0.0
C640 C 0.46662 0.2484 0.42877 0.0
N641 N 0.46151 0.2564 0.4399 0.0
C642 C 0.47348 0.23046 0.42905 0.0
C643 C 0.46795 0.22801 0.45217 0.0
C644 C 0.46102 0.2459 0.45142 0.0
C645 C 0.47519 0.22074 0.44092 0.0
H646 H 0.46665 0.25696 0.41973 0.0
H647 H 0.45637 0.25212 0.46012 0.0
C648 C 0.47013 0.36255 0.43415 0.0
N649 N 0.49995 0.41346 0.43416 0.0
C650 C 0.47041 0.37632 0.44483 0.0
C651 C 0.48495 0.37464 0.42345 0.0
C652 C 0.48564 0.40205 0.44465 0.0
C653 C 0.49991 0.4004 0.42365 0.0
C654 C 0.4082 0.25823 0.43469 0.0
C655 C 0.39047 0.24284 0.42568 0.0
C656 C 0.40614 0.25049 0.44748 0.0
C657 C 0.37085 0.21993 0.42965 0.0
C658 C 0.38628 0.22746 0.45107 0.0
N659 N 0.36918 0.21279 0.44216 0.0
C660 C 0.45824 0.30874 0.39535 0.0
C661 C 0.43727 0.32936 0.40219 0.0
C662 C 0.45715 0.31477 0.38253 0.0
N663 N 0.44882 0.31652 0.40485 0.0
C664 C 0.43557 0.33563 0.38951 0.0
C665 C 0.44602 0.32874 0.37948 0.0
H666 H 0.46729 0.29851 0.39778 0.0
H667 H 0.42995 0.33527 0.40999 0.0
C668 C 0.41895 0.32051 0.46568 0.0
N669 N 0.41179 0.30618 0.45492 0.0
C670 C 0.40163 0.32297 0.473 0.0
C671 C 0.36967 0.29491 0.45835 0.0
C672 C 0.38772 0.29338 0.45117 0.0
C673 C 0.37657 0.31024 0.46932 0.0
H674 H 0.43829 0.33063 0.46834 0.0
H675 H 0.38257 0.28236 0.44247 0.0
O676 O 0.48323 0.30968 0.42616 0.0
O677 O 0.46344 0.30551 0.45417 0.0
O678 O 0.45596 0.33731 0.43429 0.0
O679 O 0.42755 0.28065 0.43093 0.0
H680 H 0.50958 0.29465 0.43921 0.0
H681 H 0.50858 0.33371 0.40541 0.0
H682 H 0.5509 0.30231 0.4327 0.0
H683 H 0.54985 0.3404 0.39939 0.0
H684 H 0.4534 0.27657 0.49513 0.0
H685 H 0.50909 0.31428 0.45784 0.0
H686 H 0.43742 0.28588 0.47539 0.0
H687 H 0.52374 0.30427 0.4778 0.0
H688 H 0.56937 0.39648 0.43465 0.0
H689 H 0.54016 0.38811 0.47336 0.0
H690 H 0.47835 0.225 0.4201 0.0
H691 H 0.46902 0.22111 0.46154 0.0
H692 H 0.45916 0.36722 0.45321 0.0
H693 H 0.48521 0.36422 0.41518 0.0
H694 H 0.48613 0.41295 0.45288 0.0
H695 H 0.51159 0.41 0.41547 0.0
H696 H 0.39185 0.24856 0.41574 0.0
H697 H 0.41971 0.26214 0.45455 0.0
H698 H 0.35697 0.20783 0.42279 0.0
H699 H 0.38445 0.22126 0.46094 0.0
H700 H 0.46572 0.30929 0.37518 0.0
H701 H 0.42643 0.34601 0.3876 0.0
H702 H 0.40809 0.33545 0.48117 0.0
H703 H 0.35059 0.28447 0.45521 0.0
Li704 Li 0.66271 0.1542 0.43706 0.0
Li705 Li 0.70799 0.17778 0.43714 0.0
Li706 Li 0.68515 0.14326 0.42108 0.0
Li707 Li 0.68819 0.13534 0.44386 0.0
C708 C 0.67501 0.18432 0.41486 0.0
N709 N 0.65405 0.20311 0.39838 0.0
C710 C 0.68291 0.20957 0.41504 0.0
C711 C 0.65681 0.16878 0.40609 0.0
C712 C 0.67198 0.21867 0.4067 0.0
C713 C 0.64635 0.17858 0.39788 0.0
C714 C 0.69578 0.17994 0.46152 0.0
C715 C 0.72865 0.20298 0.47675 0.0
N716 N 0.71786 0.21628 0.48018 0.0
C717 C 0.68486 0.19364 0.46529 0.0
C718 C 0.71771 0.18446 0.46739 0.0
C719 C 0.69636 0.212 0.4747 0.0
C720 C 0.61162 0.13624 0.4425 0.0
N721 N 0.634 0.15659 0.43994 0.0
C722 C 0.61627 0.18243 0.44048 0.0
C723 C 0.63672 0.17945 0.4392 0.0
C724 C 0.59267 0.16166 0.44256 0.0
C725 C 0.59055 0.13834 0.44376 0.0
H726 H 0.61004 0.11833 0.44339 0.0
H727 H 0.65486 0.19544 0.43764 0.0
C728 C 0.75894 0.21587 0.43859 0.0
N729 N 0.73509 0.21042 0.43968 0.0
C730 C 0.77838 0.24024 0.44019 0.0
C731 C 0.74824 0.25269 0.44415 0.0
C732 C 0.72949 0.22819 0.44248 0.0
C733 C 0.77311 0.25908 0.44293 0.0
H734 H 0.76287 0.20136 0.43633 0.0
H735 H 0.71035 0.22332 0.44327 0.0
C736 C 0.63839 0.10045 0.42755 0.0
N737 N 0.59901 0.05888 0.41658 0.0
C738 C 0.63517 0.07702 0.42978 0.0
C739 C 0.62126 0.10262 0.41993 0.0
C740 C 0.61524 0.05626 0.42409 0.0
C741 C 0.60157 0.08143 0.41442 0.0
C742 C 0.72979 0.14165 0.4328 0.0
C743 C 0.72857 0.12423 0.42393 0.0
C744 C 0.74553 0.14809 0.44342 0.0
C745 C 0.7428 0.11319 0.42597 0.0
C746 C 0.75944 0.13661 0.44514 0.0
N747 N 0.75778 0.11952 0.43646 0.0
C748 C 0.69433 0.1501 0.39444 0.0
C749 C 0.67299 0.10803 0.40081 0.0
C750 C 0.69209 0.14324 0.38148 0.0
N751 N 0.68424 0.13252 0.40376 0.0
C752 C 0.67027 0.10033 0.38798 0.0
C753 C 0.67946 0.11803 0.37809 0.0
H754 H 0.7036 0.16947 0.39706 0.0
H755 H 0.66582 0.09441 0.40839 0.0
C756 C 0.68767 0.11562 0.46826 0.0
N757 N 0.68934 0.11251 0.45541 0.0
C758 C 0.68669 0.09829 0.47699 0.0
C759 C 0.68956 0.07505 0.45911 0.0
C760 C 0.69051 0.09285 0.45073 0.0
C761 C 0.68727 0.07748 0.47242 0.0
H762 H 0.68635 0.13118 0.47172 0.0
H763 H 0.6915 0.09061 0.44046 0.0
O764 O 0.68544 0.17507 0.42305 0.0
O765 O 0.68503 0.16219 0.45215 0.0
O766 O 0.65792 0.12099 0.43302 0.0
O767 O 0.71586 0.15252 0.431 0.0
H768 H 0.69725 0.22203 0.42157 0.0
H769 H 0.65106 0.14943 0.40545 0.0
H770 H 0.67779 0.23813 0.40683 0.0
H771 H 0.63221 0.16669 0.39108 0.0
H772 H 0.74573 0.20679 0.4813 0.0
H773 H 0.66776 0.19023 0.46097 0.0
H774 H 0.72626 0.17386 0.46468 0.0
H775 H 0.68819 0.22285 0.47765 0.0
H776 H 0.61897 0.20088 0.43989 0.0
H777 H 0.57276 0.12181 0.44538 0.0
H778 H 0.79728 0.2443 0.43925 0.0
H779 H 0.74321 0.26658 0.44598 0.0
H780 H 0.64794 0.07483 0.43578 0.0
H781 H 0.62284 0.12038 0.41845 0.0
H782 H 0.61267 0.03806 0.42567 0.0
H783 H 0.58824 0.0829 0.40848 0.0
H784 H 0.71664 0.11916 0.4156 0.0
H785 H 0.74693 0.16173 0.4503 0.0
H786 H 0.74191 0.09956 0.41923 0.0
H787 H 0.77156 0.14129 0.45337 0.0
H788 H 0.69996 0.15754 0.37419 0.0
H789 H 0.66037 0.0807 0.38585 0.0
H790 H 0.68446 0.10066 0.48716 0.0
H791 H 0.69019 0.05934 0.45519 0.0
Li792 Li 0.88465 0.53622 0.22227 0.0
Li793 Li 0.86952 0.52587 0.24425 0.0
Li794 Li 0.85971 0.49377 0.22789 0.0
Li795 Li 0.84086 0.51968 0.22709 0.0
C796 C 0.91733 0.52943 0.2341 0.0
N797 N 0.96818 0.5552 0.23134 0.0
C798 C 0.93218 0.54725 0.24322 0.0
C799 C 0.92832 0.52458 0.22363 0.0
C800 C 0.95786 0.5601 0.24164 0.0
C801 C 0.95407 0.53787 0.22238 0.0
C802 C 0.86126 0.5671 0.23067 0.0
C803 C 0.83472 0.58339 0.23584 0.0
N804 N 0.84253 0.59745 0.22499 0.0
C805 C 0.86902 0.5817 0.21957 0.0
C806 C 0.844 0.56797 0.2389 0.0
C807 C 0.85936 0.59694 0.21688 0.0
C808 C 0.9115 0.55542 0.19917 0.0
N809 N 0.91124 0.55974 0.21199 0.0
C810 C 0.94669 0.60019 0.20985 0.0
C811 C 0.92849 0.58144 0.21746 0.0
C812 C 0.94698 0.59656 0.19649 0.0
C813 C 0.92938 0.57363 0.19121 0.0
H814 H 0.89726 0.53823 0.19505 0.0
H815 H 0.92756 0.58446 0.22767 0.0
C816 C 0.87731 0.51655 0.26966 0.0
N817 N 0.87549 0.53321 0.26211 0.0
C818 C 0.87488 0.51717 0.283 0.0
C819 C 0.87185 0.55389 0.28062 0.0
C820 C 0.87386 0.55228 0.26729 0.0
C821 C 0.87124 0.53552 0.28853 0.0
H822 H 0.87871 0.50166 0.26524 0.0
H823 H 0.87258 0.56532 0.26105 0.0
C824 C 0.8464 0.4919 0.20404 0.0
N825 N 0.82694 0.45197 0.18735 0.0
C826 C 0.82095 0.47842 0.20167 0.0
C827 C 0.86196 0.48512 0.19789 0.0
C828 C 0.81147 0.45829 0.19319 0.0
C829 C 0.85176 0.46485 0.1895 0.0
C830 C 0.82766 0.48655 0.25228 0.0
C831 C 0.82846 0.46606 0.25692 0.0
C832 C 0.81795 0.49782 0.2601 0.0
C833 C 0.81931 0.45705 0.26923 0.0
C834 C 0.80903 0.48828 0.27237 0.0
N835 N 0.80984 0.46824 0.27663 0.0
C836 C 0.86894 0.45378 0.22316 0.0
C837 C 0.82718 0.4437 0.22544 0.0
C838 C 0.86142 0.42876 0.22151 0.0
N839 N 0.85178 0.46061 0.22516 0.0
C840 C 0.81891 0.41863 0.22406 0.0
C841 C 0.83613 0.41093 0.22219 0.0
H842 H 0.88839 0.46767 0.22295 0.0
H843 H 0.81399 0.44975 0.22694 0.0
C844 C 0.80997 0.53102 0.21186 0.0
N845 N 0.81124 0.51939 0.22262 0.0
C846 C 0.78764 0.52938 0.20841 0.0
C847 C 0.76856 0.50398 0.22721 0.0
C848 C 0.79108 0.50591 0.2302 0.0
C849 C 0.76657 0.51569 0.21616 0.0
H850 H 0.82618 0.54117 0.20584 0.0
H851 H 0.79223 0.49604 0.23838 0.0
O852 O 0.89215 0.51697 0.23537 0.0
O853 O 0.87017 0.55172 0.23337 0.0
O854 O 0.85597 0.51128 0.21255 0.0
O855 O 0.83661 0.49572 0.24024 0.0
H856 H 0.92394 0.55125 0.25137 0.0
H857 H 0.91706 0.51098 0.21643 0.0
H858 H 0.96959 0.57402 0.24859 0.0
H859 H 0.96282 0.53445 0.21427 0.0
H860 H 0.82124 0.58412 0.24208 0.0
H861 H 0.88217 0.58113 0.21302 0.0
H862 H 0.83753 0.55656 0.24744 0.0
H863 H 0.86515 0.60829 0.2083 0.0
H864 H 0.95998 0.61758 0.21431 0.0
H865 H 0.9286 0.57022 0.18093 0.0
H866 H 0.87454 0.50275 0.28886 0.0
H867 H 0.86899 0.56823 0.28462 0.0
H868 H 0.80859 0.48324 0.20641 0.0
H869 H 0.88165 0.4951 0.19976 0.0
H870 H 0.79181 0.44764 0.19131 0.0
H871 H 0.86356 0.45928 0.18476 0.0
H872 H 0.83637 0.45738 0.25117 0.0
H873 H 0.81766 0.51401 0.25682 0.0
H874 H 0.81985 0.44124 0.27293 0.0
H875 H 0.80159 0.49691 0.27853 0.0
H876 H 0.87514 0.42336 0.22007 0.0
H877 H 0.79924 0.40535 0.22448 0.0
H878 H 0.78678 0.53852 0.19976 0.0
H879 H 0.75261 0.49263 0.23323 0.0
Li880 Li 0.46619 0.35739 0.21988 0.0
Li881 Li 0.47602 0.35682 0.24217 0.0
Li882 Li 0.50909 0.37927 0.22588 0.0
Li883 Li 0.48537 0.33427 0.22634 0.0
C884 C 0.47866 0.40428 0.22836 0.0
N885 N 0.46861 0.4406 0.22112 0.0
C886 C 0.46718 0.41245 0.23701 0.0
C887 C 0.48507 0.41458 0.21604 0.0
C888 C 0.46225 0.43084 0.23317 0.0
C889 C 0.47981 0.43292 0.21256 0.0
C890 C 0.42818 0.32109 0.23435 0.0
C891 C 0.38509 0.28947 0.23589 0.0
N892 N 0.37967 0.3067 0.24019 0.0
C893 C 0.42218 0.33846 0.23881 0.0
C894 C 0.4095 0.29638 0.23289 0.0
C895 C 0.39756 0.33083 0.2417 0.0
C896 C 0.44231 0.34603 0.1966 0.0
N897 N 0.4431 0.35714 0.20798 0.0
C898 C 0.41199 0.36562 0.20078 0.0
C899 C 0.42822 0.3667 0.2103 0.0
C900 C 0.41125 0.35471 0.18882 0.0
C901 C 0.42658 0.34473 0.18682 0.0
H902 H 0.4538 0.33798 0.19517 0.0
H903 H 0.4289 0.37516 0.21949 0.0
C904 C 0.48129 0.37863 0.2665 0.0
N905 N 0.46764 0.3573 0.25977 0.0
C906 C 0.47744 0.3794 0.27972 0.0
C907 C 0.44515 0.33637 0.27874 0.0
C908 C 0.44978 0.33638 0.26559 0.0
C909 C 0.45932 0.35797 0.28605 0.0
H910 H 0.49563 0.39486 0.26164 0.0
H911 H 0.43947 0.31949 0.2601 0.0
C912 C 0.51187 0.35546 0.20396 0.0
N913 N 0.54838 0.35414 0.18955 0.0
C914 C 0.53319 0.35852 0.20994 0.0
C915 C 0.50923 0.35188 0.19062 0.0
C916 C 0.55141 0.35776 0.2025 0.0
C917 C 0.52786 0.35122 0.18352 0.0
C918 C 0.50966 0.34348 0.24985 0.0
C919 C 0.53197 0.35264 0.25652 0.0
C920 C 0.48936 0.3206 0.25334 0.0
C921 C 0.53355 0.33881 0.2666 0.0
C922 C 0.49168 0.30735 0.26347 0.0
N923 N 0.51354 0.31665 0.26984 0.0
C924 C 0.55874 0.4138 0.23163 0.0
C925 C 0.54612 0.41829 0.21083 0.0
C926 C 0.58328 0.4314 0.22881 0.0
N927 N 0.5409 0.40724 0.22258 0.0
C928 C 0.57035 0.4363 0.20766 0.0
C929 C 0.58951 0.44262 0.21658 0.0
H930 H 0.55407 0.40451 0.24084 0.0
H931 H 0.53168 0.41235 0.20369 0.0
C932 C 0.46617 0.28379 0.21983 0.0
N933 N 0.48686 0.30497 0.22359 0.0
C934 C 0.46666 0.26186 0.21837 0.0
C935 C 0.50987 0.2842 0.22437 0.0
C936 C 0.50844 0.30551 0.22591 0.0
C937 C 0.48878 0.26201 0.22061 0.0
H938 H 0.44925 0.2839 0.21808 0.0
H939 H 0.52451 0.32238 0.22916 0.0
O940 O 0.48333 0.38609 0.23193 0.0
O941 O 0.45214 0.32809 0.23137 0.0
O942 O 0.49383 0.35643 0.211 0.0
O943 O 0.50787 0.35689 0.23996 0.0
H944 H 0.46208 0.40461 0.24659 0.0
H945 H 0.49347 0.40809 0.20916 0.0
H946 H 0.45335 0.43733 0.23976 0.0
H947 H 0.48451 0.44094 0.20302 0.0
H948 H 0.37045 0.27041 0.2348 0.0
H949 H 0.43636 0.35762 0.24006 0.0
H950 H 0.4138 0.28267 0.22948 0.0
H951 H 0.39269 0.34411 0.24515 0.0
H952 H 0.40034 0.37342 0.20269 0.0
H953 H 0.42609 0.33556 0.17786 0.0
H954 H 0.48911 0.39636 0.28498 0.0
H955 H 0.43078 0.3195 0.28314 0.0
H956 H 0.53579 0.36159 0.2202 0.0
H957 H 0.49303 0.34974 0.18577 0.0
H958 H 0.56797 0.36011 0.20703 0.0
H959 H 0.52602 0.34844 0.17319 0.0
H960 H 0.54793 0.37023 0.25393 0.0
H961 H 0.47198 0.31307 0.24827 0.0
H962 H 0.55071 0.3457 0.27184 0.0
H963 H 0.4761 0.28964 0.26627 0.0
H964 H 0.5973 0.43516 0.23595 0.0
H965 H 0.57409 0.44461 0.19819 0.0
H966 H 0.45003 0.24504 0.21547 0.0
H967 H 0.52715 0.28493 0.22642 0.0
Li968 Li 0.6152 0.1309 0.2292 0.0
Li969 Li 0.66073 0.15304 0.22915 0.0
Li970 Li 0.63494 0.11035 0.22002 0.0
Li971 Li 0.63776 0.11619 0.24317 0.0
C972 C 0.62864 0.15208 0.20607 0.0
N973 N 0.60885 0.17321 0.1904 0.0
C974 C 0.64186 0.17753 0.20368 0.0
C975 C 0.60548 0.13734 0.20034 0.0
C976 C 0.63152 0.18786 0.19576 0.0
C977 C 0.59576 0.14838 0.1925 0.0
C978 C 0.64629 0.164 0.25409 0.0
C979 C 0.67137 0.18023 0.27324 0.0
N980 N 0.66212 0.19543 0.27521 0.0
C981 C 0.63675 0.17953 0.25647 0.0
C982 C 0.66353 0.16417 0.26267 0.0
C983 C 0.64511 0.19539 0.26712 0.0
C984 C 0.56476 0.12046 0.22706 0.0
N985 N 0.58916 0.13794 0.22802 0.0
C986 C 0.58017 0.17037 0.22569 0.0
C987 C 0.59701 0.16245 0.22741 0.0
C988 C 0.55485 0.1529 0.22441 0.0
C989 C 0.54712 0.1276 0.22524 0.0
H990 H 0.55906 0.10106 0.22745 0.0
H991 H 0.61656 0.17589 0.22799 0.0
C992 C 0.71002 0.18774 0.2214 0.0
N993 N 0.68919 0.18493 0.22711 0.0
C994 C 0.73078 0.21134 0.21987 0.0
C995 C 0.70784 0.22861 0.2297 0.0
C996 C 0.68769 0.20474 0.23114 0.0
C997 C 0.72988 0.2322 0.2241 0.0
H998 H 0.71053 0.17164 0.21808 0.0
H999 H 0.67063 0.20203 0.23524 0.0
C1000 C 0.59533 0.07235 0.2287 0.0
N1001 N 0.5729 0.02406 0.22001 0.0
C1002 C 0.60013 0.05538 0.23477 0.0
C1003 C 0.579 0.06476 0.21829 0.0
C1004 C 0.58862 0.03104 0.23022 0.0
C1005 C 0.56789 0.04027 0.21401 0.0
C1006 C 0.68666 0.12638 0.23604 0.0
C1007 C 0.69352 0.1088 0.23334 0.0
C1008 C 0.70206 0.14679 0.24376 0.0
C1009 C 0.71522 0.11159 0.23866 0.0
C1010 C 0.72362 0.14896 0.2489 0.0
N1011 N 0.72968 0.13143 0.24629 0.0
C1012 C 0.62956 0.09409 0.19422 0.0
C1013 C 0.6412 0.07273 0.20868 0.0
C1014 C 0.63327 0.08242 0.18371 0.0
N1015 N 0.63428 0.08966 0.20636 0.0
C1016 C 0.64584 0.06113 0.19843 0.0
C1017 C 0.64278 0.06665 0.18568 0.0
H1018 H 0.62402 0.10755 0.19259 0.0
H1019 H 0.64425 0.06912 0.21846 0.0
C1020 C 0.62334 0.10572 0.26882 0.0
N1021 N 0.63786 0.1035 0.2598 0.0
C1022 C 0.62529 0.10105 0.28176 0.0
C1023 C 0.65589 0.09021 0.27578 0.0
C1024 C 0.65329 0.09506 0.26294 0.0
C1025 C 0.64233 0.09395 0.28544 0.0
H1026 H 0.6111 0.11232 0.26602 0.0
H1027 H 0.66429 0.09294 0.2556 0.0
O1028 O 0.63824 0.14173 0.21405 0.0
O1029 O 0.6381 0.14817 0.2437 0.0
O1030 O 0.60683 0.09636 0.23285 0.0
O1031 O 0.66542 0.1239 0.23085 0.0
H1032 H 0.65988 0.18921 0.20791 0.0
H1033 H 0.5949 0.11764 0.20214 0.0
H1034 H 0.6415 0.20755 0.19389 0.0
H1035 H 0.57774 0.13722 0.18813 0.0
H1036 H 0.68467 0.18046 0.27992 0.0
H1037 H 0.62298 0.17938 0.25023 0.0
H1038 H 0.67042 0.15168 0.26143 0.0
H1039 H 0.63796 0.20759 0.26899 0.0
H1040 H 0.58701 0.19006 0.22541 0.0
H1041 H 0.5278 0.11352 0.22425 0.0
H1042 H 0.74736 0.21318 0.21554 0.0
H1043 H 0.70595 0.24411 0.23273 0.0
H1044 H 0.61279 0.06101 0.24282 0.0
H1045 H 0.57513 0.0777 0.21349 0.0
H1046 H 0.59225 0.01772 0.23477 0.0
H1047 H 0.55533 0.03416 0.20592 0.0
H1048 H 0.68224 0.09309 0.22724 0.0
H1049 H 0.69776 0.16112 0.24559 0.0
H1050 H 0.72058 0.098 0.23671 0.0
H1051 H 0.73562 0.16467 0.2549 0.0
H1052 H 0.62978 0.08667 0.17412 0.0
H1053 H 0.65316 0.04919 0.20054 0.0
H1054 H 0.61409 0.10366 0.28884 0.0
H1055 H 0.66928 0.08481 0.27817 0.0
Li1056 Li 0.52154 0.87295 0.75145 0.0
Li1057 Li 0.53292 0.88334 0.77407 0.0
Li1058 Li 0.51341 0.84129 0.76743 0.0
Li1059 Li 0.48943 0.86163 0.76916 0.0
C1060 C 0.56106 0.85967 0.7628 0.0
N1061 N 0.59094 0.83941 0.76552 0.0
C1062 C 0.57452 0.86349 0.77414 0.0
C1063 C 0.56299 0.84575 0.7528 0.0
C1064 C 0.58949 0.85306 0.77534 0.0
C1065 C 0.57813 0.83559 0.75438 0.0
C1066 C 0.52493 0.91882 0.76635 0.0
C1067 C 0.52997 0.94953 0.78201 0.0
N1068 N 0.54668 0.96761 0.7741 0.0
C1069 C 0.54202 0.93767 0.75834 0.0
C1070 C 0.51869 0.92473 0.77824 0.0
C1071 C 0.55286 0.96225 0.76245 0.0
C1072 C 0.5139 0.88075 0.72539 0.0
N1073 N 0.53089 0.88318 0.73425 0.0
C1074 C 0.56184 0.89496 0.71798 0.0
C1075 C 0.5546 0.89064 0.73087 0.0
C1076 C 0.54448 0.89159 0.70849 0.0
C1077 C 0.52035 0.88492 0.71236 0.0
H1078 H 0.49512 0.87462 0.7284 0.0
H1079 H 0.56763 0.89224 0.73815 0.0
C1080 C 0.55676 0.90508 0.79755 0.0
N1081 N 0.55821 0.90787 0.78454 0.0
C1082 C 0.57656 0.92143 0.80528 0.0
C1083 C 0.59843 0.94387 0.78612 0.0
C1084 C 0.57842 0.92677 0.77873 0.0
C1085 C 0.59777 0.94092 0.79953 0.0
H1086 H 0.54057 0.8897 0.80185 0.0
H1087 H 0.57927 0.92812 0.76834 0.0
C1088 C 0.48061 0.82295 0.74532 0.0
N1089 N 0.46136 0.78616 0.72674 0.0
C1090 C 0.4556 0.80449 0.74567 0.0
C1091 C 0.49582 0.82255 0.73554 0.0
C1092 C 0.44624 0.78607 0.73619 0.0
C1093 C 0.48574 0.80386 0.72623 0.0
C1094 C 0.4885 0.83537 0.79042 0.0
C1095 C 0.46892 0.81498 0.78426 0.0
C1096 C 0.48972 0.83597 0.80387 0.0
C1097 C 0.45089 0.7956 0.79165 0.0
C1098 C 0.47133 0.81621 0.81093 0.0
N1099 N 0.45245 0.79661 0.80473 0.0
C1100 C 0.52345 0.80956 0.78194 0.0
C1101 C 0.50079 0.79053 0.76298 0.0
C1102 C 0.52251 0.78766 0.78557 0.0
N1103 N 0.51262 0.81063 0.77082 0.0
C1104 C 0.49908 0.76823 0.76632 0.0
C1105 C 0.50989 0.76644 0.77779 0.0
H1106 H 0.53251 0.82567 0.78812 0.0
H1107 H 0.49202 0.7913 0.7543 0.0
C1108 C 0.43943 0.84555 0.76437 0.0
N1109 N 0.45767 0.85651 0.77329 0.0
C1110 C 0.41483 0.83673 0.76786 0.0
C1111 C 0.42858 0.85275 0.78935 0.0
C1112 C 0.45288 0.86091 0.78549 0.0
C1113 C 0.409 0.83961 0.78062 0.0
H1114 H 0.44386 0.84254 0.75471 0.0
H1115 H 0.46779 0.86969 0.79239 0.0
O1116 O 0.54598 0.86939 0.76152 0.0
O1117 O 0.51445 0.89466 0.76259 0.0
O1118 O 0.49 0.84131 0.75445 0.0
O1119 O 0.5064 0.85473 0.78341 0.0
H1120 H 0.57321 0.87413 0.78201 0.0
H1121 H 0.55284 0.84272 0.74393 0.0
H1122 H 0.59988 0.85573 0.78409 0.0
H1123 H 0.57969 0.82466 0.74674 0.0
H1124 H 0.52548 0.95439 0.79123 0.0
H1125 H 0.54701 0.93333 0.7491 0.0
H1126 H 0.50553 0.9103 0.78455 0.0
H1127 H 0.56623 0.97705 0.75639 0.0
H1128 H 0.58052 0.89975 0.71544 0.0
H1129 H 0.50647 0.88241 0.70538 0.0
H1130 H 0.57555 0.91863 0.81561 0.0
H1131 H 0.61469 0.95849 0.78138 0.0
H1132 H 0.44354 0.80419 0.75323 0.0
H1133 H 0.51526 0.83626 0.73522 0.0
H1134 H 0.42694 0.77168 0.73637 0.0
H1135 H 0.49734 0.80337 0.71862 0.0
H1136 H 0.46759 0.81406 0.77389 0.0
H1137 H 0.5047 0.85156 0.80883 0.0
H1138 H 0.43566 0.77975 0.78699 0.0
H1139 H 0.47205 0.81647 0.82135 0.0
H1140 H 0.53135 0.78734 0.79445 0.0
H1141 H 0.48857 0.75233 0.76013 0.0
H1142 H 0.40053 0.82656 0.76078 0.0
H1143 H 0.42513 0.85594 0.7992 0.0
Li1144 Li 0.15279 0.66136 0.77576 0.0
Li1145 Li 0.13069 0.61628 0.77525 0.0
Li1146 Li 0.12416 0.63871 0.7574 0.0
Li1147 Li 0.10783 0.63631 0.77849 0.0
C1148 C 0.17434 0.6523 0.75434 0.0
N1149 N 0.21331 0.67826 0.73749 0.0
C1150 C 0.18988 0.6432 0.75108 0.0
C1151 C 0.17863 0.67462 0.74907 0.0
C1152 C 0.20948 0.65659 0.74253 0.0
C1153 C 0.19843 0.68746 0.74056 0.0
C1154 C 0.13224 0.6242 0.80028 0.0
C1155 C 0.10846 0.58816 0.81357 0.0
N1156 N 0.12899 0.59455 0.82071 0.0
C1157 C 0.15303 0.63056 0.80785 0.0
C1158 C 0.10972 0.60298 0.80324 0.0
C1159 C 0.15104 0.61527 0.8181 0.0
C1160 C 0.1904 0.71283 0.77723 0.0
N1161 N 0.18393 0.68914 0.78008 0.0
C1162 C 0.22401 0.70255 0.7887 0.0
C1163 C 0.20022 0.68371 0.78555 0.0
C1164 C 0.23128 0.72722 0.78597 0.0
C1165 C 0.21422 0.73232 0.78009 0.0
H1166 H 0.17724 0.71655 0.77258 0.0
H1167 H 0.19484 0.66464 0.78722 0.0
C1168 C 0.12128 0.56614 0.77664 0.0
N1169 N 0.1372 0.59062 0.77886 0.0
C1170 C 0.12939 0.54916 0.77799 0.0
C1171 C 0.16959 0.58298 0.78427 0.0
C1172 C 0.1608 0.59916 0.78276 0.0
C1173 C 0.15407 0.55772 0.78153 0.0
H1174 H 0.10269 0.55995 0.77335 0.0
H1175 H 0.17306 0.61878 0.78428 0.0
C1176 C 0.11916 0.6819 0.77187 0.0
N1177 N 0.10082 0.71074 0.78125 0.0
C1178 C 0.12653 0.69317 0.78397 0.0
C1179 C 0.10258 0.68539 0.76451 0.0
C1180 C 0.11701 0.70765 0.78855 0.0
C1181 C 0.0935 0.70003 0.76942 0.0
C1182 C 0.0745 0.5942 0.76537 0.0
C1183 C 0.06238 0.59861 0.75537 0.0
C1184 C 0.06081 0.57481 0.77397 0.0
C1185 C 0.03667 0.58398 0.75435 0.0
C1186 C 0.03512 0.5606 0.77263 0.0
N1187 N 0.02368 0.56546 0.76294 0.0
C1188 C 0.11405 0.61886 0.7324 0.0
C1189 C 0.12193 0.65998 0.73388 0.0
C1190 C 0.10982 0.61836 0.71917 0.0
N1191 N 0.11979 0.63939 0.73943 0.0
C1192 C 0.11791 0.66032 0.72068 0.0
C1193 C 0.11161 0.63925 0.71316 0.0
H1194 H 0.11256 0.6028 0.73711 0.0
H1195 H 0.12663 0.67608 0.73973 0.0
C1196 C 0.08296 0.64126 0.8001 0.0
N1197 N 0.081 0.63651 0.78723 0.0
C1198 C 0.06645 0.64669 0.80628 0.0
C1199 C 0.04559 0.64123 0.78596 0.0
C1200 C 0.06252 0.636 0.78018 0.0
C1201 C 0.0479 0.64742 0.79909 0.0
H1202 H 0.09829 0.64245 0.80543 0.0
H1203 H 0.06196 0.63337 0.76989 0.0
O1204 O 0.15521 0.63947 0.76277 0.0
O1205 O 0.13389 0.63855 0.78999 0.0
O1206 O 0.1276 0.66694 0.76746 0.0
O1207 O 0.09971 0.60813 0.76643 0.0
H1208 H 0.18683 0.62598 0.75512 0.0
H1209 H 0.1669 0.68204 0.75157 0.0
H1210 H 0.22166 0.64977 0.7399 0.0
H1211 H 0.20198 0.70477 0.73642 0.0
H1212 H 0.09116 0.57162 0.81591 0.0
H1213 H 0.17053 0.6471 0.80585 0.0
H1214 H 0.0934 0.59807 0.79762 0.0
H1215 H 0.16703 0.6199 0.82399 0.0
H1216 H 0.23681 0.69778 0.79292 0.0
H1217 H 0.21923 0.75112 0.77775 0.0
H1218 H 0.11691 0.52983 0.77572 0.0
H1219 H 0.18861 0.5903 0.78724 0.0
H1220 H 0.13913 0.69041 0.78985 0.0
H1221 H 0.09646 0.67656 0.75519 0.0
H1222 H 0.12239 0.71632 0.79793 0.0
H1223 H 0.08051 0.70276 0.76388 0.0
H1224 H 0.07262 0.61345 0.74859 0.0
H1225 H 0.06989 0.57059 0.78152 0.0
H1226 H 0.02704 0.58738 0.74673 0.0
H1227 H 0.02429 0.54562 0.77925 0.0
H1228 H 0.10539 0.60187 0.71371 0.0
H1229 H 0.11928 0.67674 0.71647 0.0
H1230 H 0.06922 0.65182 0.81638 0.0
H1231 H 0.03155 0.64155 0.78006 0.0
Li1232 Li 0.33246 0.48234 0.77332 0.0
Li1233 Li 0.37768 0.50862 0.77386 0.0
Li1234 Li 0.35555 0.47749 0.75602 0.0
Li1235 Li 0.35905 0.46384 0.77744 0.0
C1236 C 0.34221 0.52008 0.75785 0.0
N1237 N 0.31642 0.54425 0.75327 0.0
C1238 C 0.35108 0.54403 0.76258 0.0
C1239 C 0.32044 0.50861 0.75059 0.0
C1240 C 0.33774 0.55591 0.76019 0.0
C1241 C 0.30759 0.52107 0.74845 0.0
C1242 C 0.36361 0.49498 0.80022 0.0
C1243 C 0.39169 0.49935 0.81722 0.0
N1244 N 0.38082 0.50842 0.82514 0.0
C1245 C 0.3525 0.50403 0.80859 0.0
C1246 C 0.38319 0.49237 0.80461 0.0
C1247 C 0.36156 0.51086 0.82113 0.0
C1248 C 0.28028 0.46318 0.77455 0.0
N1249 N 0.30304 0.48236 0.77772 0.0
C1250 C 0.28562 0.50638 0.78496 0.0
C1251 C 0.30595 0.50337 0.7832 0.0
C1252 C 0.26202 0.48742 0.78119 0.0
C1253 C 0.2593 0.46529 0.77627 0.0
H1254 H 0.27849 0.4466 0.77029 0.0
H1255 H 0.32428 0.51826 0.78567 0.0
C1256 C 0.42551 0.552 0.77192 0.0
N1257 N 0.40355 0.54092 0.77835 0.0
C1258 C 0.44347 0.57651 0.77472 0.0
C1259 C 0.4159 0.57752 0.79073 0.0
C1260 C 0.39855 0.55311 0.78762 0.0
C1261 C 0.43864 0.58967 0.78416 0.0
H1262 H 0.42884 0.542 0.76443 0.0
H1263 H 0.38061 0.54422 0.79223 0.0
C1264 C 0.31593 0.43147 0.75858 0.0
N1265 N 0.29082 0.39228 0.74171 0.0
C1266 C 0.31883 0.41084 0.75931 0.0
C1267 C 0.29998 0.43201 0.74938 0.0
C1268 C 0.30602 0.39124 0.75068 0.0
C1269 C 0.28756 0.41207 0.7409 0.0
C1270 C 0.40735 0.48395 0.76625 0.0
C1271 C 0.41241 0.47095 0.75693 0.0
C1272 C 0.42423 0.49604 0.77623 0.0
C1273 C 0.43395 0.4697 0.75795 0.0
C1274 C 0.44557 0.49437 0.77691 0.0
N1275 N 0.44993 0.4813 0.76785 0.0
C1276 C 0.35172 0.48485 0.72949 0.0
C1277 C 0.3546 0.44951 0.73436 0.0
C1278 C 0.34743 0.47801 0.71652 0.0
N1279 N 0.3546 0.4703 0.73813 0.0
C1280 C 0.35005 0.44179 0.72153 0.0
C1281 C 0.34595 0.4559 0.71249 0.0
H1282 H 0.352 0.50139 0.73272 0.0
H1283 H 0.35716 0.43838 0.74141 0.0
C1284 C 0.34595 0.43095 0.79764 0.0
N1285 N 0.36054 0.4389 0.78698 0.0
C1286 C 0.34394 0.4113 0.80483 0.0
C1287 C 0.37211 0.40835 0.78995 0.0
C1288 C 0.37359 0.42814 0.78305 0.0
C1289 C 0.35693 0.39956 0.80094 0.0
H1290 H 0.33534 0.43949 0.80037 0.0
H1291 H 0.3845 0.43428 0.77435 0.0
O1292 O 0.35466 0.50788 0.76039 0.0
O1293 O 0.35491 0.48822 0.78791 0.0
O1294 O 0.32861 0.45099 0.76684 0.0
O1295 O 0.3864 0.48547 0.76533 0.0
H1296 H 0.36801 0.55332 0.76808 0.0
H1297 H 0.31338 0.49018 0.74679 0.0
H1298 H 0.34432 0.57437 0.76388 0.0
H1299 H 0.29058 0.51229 0.74297 0.0
H1300 H 0.40685 0.49744 0.82073 0.0
H1301 H 0.33711 0.50587 0.80543 0.0
H1302 H 0.39149 0.48468 0.79844 0.0
H1303 H 0.35324 0.51805 0.82767 0.0
H1304 H 0.28839 0.52361 0.78892 0.0
H1305 H 0.24138 0.45032 0.77324 0.0
H1306 H 0.46075 0.58518 0.76941 0.0
H1307 H 0.41104 0.5871 0.7978 0.0
H1308 H 0.33096 0.41001 0.7664 0.0
H1309 H 0.29741 0.44773 0.7487 0.0
H1310 H 0.30821 0.37523 0.75109 0.0
H1311 H 0.27535 0.41236 0.73366 0.0
H1312 H 0.39978 0.4618 0.74904 0.0
H1313 H 0.42109 0.50687 0.78328 0.0
H1314 H 0.43799 0.45953 0.75087 0.0
H1315 H 0.45873 0.50357 0.78461 0.0
H1316 H 0.34427 0.48933 0.70984 0.0
H1317 H 0.34934 0.42478 0.71874 0.0
H1318 H 0.33154 0.40478 0.81304 0.0
H1319 H 0.3824 0.3998 0.78662 0.0
Li1320 Li 0.55004 0.8636 0.54938 0.0
Li1321 Li 0.53816 0.84987 0.57247 0.0
Li1322 Li 0.52453 0.81898 0.55363 0.0
Li1323 Li 0.50868 0.84597 0.55673 0.0
C1324 C 0.58112 0.845 0.56159 0.0
N1325 N 0.62715 0.84991 0.56477 0.0
C1326 C 0.59785 0.86199 0.5705 0.0
C1327 C 0.5877 0.83028 0.55443 0.0
C1328 C 0.62106 0.86428 0.57192 0.0
C1329 C 0.61108 0.8331 0.55614 0.0
C1330 C 0.52894 0.89261 0.56369 0.0
C1331 C 0.51316 0.91434 0.57603 0.0
N1332 N 0.50953 0.92347 0.56491 0.0
C1333 C 0.52515 0.9023 0.5524 0.0
C1334 C 0.52297 0.89872 0.57562 0.0
C1335 C 0.51527 0.91782 0.55322 0.0
C1336 C 0.56868 0.89655 0.52857 0.0
N1337 N 0.57559 0.88882 0.53913 0.0
C1338 C 0.61785 0.92027 0.536 0.0
C1339 C 0.59965 0.90005 0.54286 0.0
C1340 C 0.61116 0.92932 0.52533 0.0
C1341 C 0.58619 0.91688 0.52152 0.0
H1342 H 0.54938 0.88744 0.52586 0.0
H1343 H 0.6047 0.89386 0.55136 0.0
C1344 C 0.53947 0.83823 0.59869 0.0
N1345 N 0.54805 0.85671 0.58986 0.0
C1346 C 0.54447 0.84388 0.61177 0.0
C1347 C 0.56766 0.88734 0.60628 0.0
C1348 C 0.56226 0.88085 0.59334 0.0
C1349 C 0.55834 0.86876 0.61573 0.0
H1350 H 0.52816 0.81919 0.59561 0.0
H1351 H 0.56872 0.89513 0.58606 0.0
C1352 C 0.52607 0.83358 0.52839 0.0
N1353 N 0.5393 0.82292 0.50484 0.0
C1354 C 0.51037 0.82765 0.51778 0.0
C1355 C 0.54851 0.83414 0.527 0.0
C1356 C 0.51737 0.82229 0.50596 0.0
C1357 C 0.55487 0.8287 0.51503 0.0
C1358 C 0.48127 0.80623 0.57164 0.0
C1359 C 0.46444 0.79166 0.56209 0.0
C1360 C 0.47274 0.80682 0.58403 0.0
C1361 C 0.43923 0.77808 0.56506 0.0
C1362 C 0.44738 0.79293 0.58662 0.0
N1363 N 0.43129 0.779 0.57716 0.0
C1364 C 0.5265 0.77527 0.55655 0.0
C1365 C 0.50123 0.77441 0.53939 0.0
C1366 C 0.51949 0.75059 0.55421 0.0
N1367 N 0.5172 0.78654 0.54921 0.0
C1368 C 0.49378 0.7498 0.5367 0.0
C1369 C 0.50266 0.73745 0.54426 0.0
H1370 H 0.53889 0.78528 0.56441 0.0
H1371 H 0.49354 0.78354 0.53393 0.0
C1372 C 0.46744 0.84363 0.54408 0.0
N1373 N 0.47884 0.84718 0.55565 0.0
C1374 C 0.44444 0.84204 0.54332 0.0
C1375 C 0.44579 0.8486 0.56635 0.0
C1376 C 0.46871 0.85007 0.56664 0.0
C1377 C 0.43312 0.84411 0.55461 0.0
H1378 H 0.47593 0.84144 0.53549 0.0
H1379 H 0.47808 0.85271 0.57574 0.0
O1380 O 0.55811 0.84218 0.56024 0.0
O1381 O 0.53825 0.87707 0.56307 0.0
O1382 O 0.51927 0.83869 0.54005 0.0
O1383 O 0.50597 0.82005 0.56885 0.0
H1384 H 0.59311 0.87354 0.57612 0.0
H1385 H 0.57489 0.81672 0.54764 0.0
H1386 H 0.63424 0.87748 0.57871 0.0
H1387 H 0.61643 0.82187 0.55063 0.0
H1388 H 0.50833 0.9191 0.58518 0.0
H1389 H 0.52943 0.89758 0.5431 0.0
H1390 H 0.52551 0.89119 0.58445 0.0
H1391 H 0.51209 0.92532 0.54455 0.0
H1392 H 0.63688 0.92902 0.53921 0.0
H1393 H 0.57997 0.92336 0.51353 0.0
H1394 H 0.53721 0.82896 0.61872 0.0
H1395 H 0.57812 0.90675 0.60886 0.0
H1396 H 0.49289 0.82706 0.51866 0.0
H1397 H 0.561 0.83896 0.53502 0.0
H1398 H 0.50537 0.81761 0.49767 0.0
H1399 H 0.57222 0.82912 0.51383 0.0
H1400 H 0.47075 0.7912 0.55243 0.0
H1401 H 0.48553 0.81808 0.59151 0.0
H1402 H 0.42597 0.7669 0.55773 0.0
H1403 H 0.44048 0.7933 0.59614 0.0
H1404 H 0.52683 0.74179 0.56025 0.0
H1405 H 0.48034 0.74026 0.52914 0.0
H1406 H 0.43543 0.83881 0.53405 0.0
H1407 H 0.43764 0.84991 0.57532 0.0
Li1408 Li 0.1463 0.6571 0.55903 0.0
Li1409 Li 0.17072 0.70226 0.56077 0.0
Li1410 Li 0.13586 0.67808 0.57612 0.0
Li1411 Li 0.12863 0.68449 0.55366 0.0
C1412 C 0.17332 0.66428 0.58172 0.0
N1413 N 0.18589 0.63764 0.59801 0.0
C1414 C 0.1982 0.67206 0.58396 0.0
C1415 C 0.15489 0.64312 0.58789 0.0
C1416 C 0.20417 0.65829 0.59219 0.0
C1417 C 0.16158 0.62987 0.59607 0.0
C1418 C 0.17383 0.69448 0.53614 0.0
C1419 C 0.1966 0.72971 0.52221 0.0
N1420 N 0.21161 0.72088 0.51871 0.0
C1421 C 0.18931 0.68562 0.53231 0.0
C1422 C 0.17733 0.71658 0.53097 0.0
C1423 C 0.20836 0.69928 0.52352 0.0
C1424 C 0.12818 0.60671 0.55162 0.0
N1425 N 0.14837 0.62869 0.55494 0.0
C1426 C 0.17414 0.61091 0.55406 0.0
C1427 C 0.17113 0.63122 0.55593 0.0
C1428 C 0.15353 0.58772 0.55106 0.0
C1429 C 0.13032 0.58578 0.54971 0.0
H1430 H 0.11036 0.60533 0.55066 0.0
H1431 H 0.18692 0.64901 0.55839 0.0
C1432 C 0.21063 0.75281 0.55929 0.0
N1433 N 0.20394 0.72853 0.55907 0.0
C1434 C 0.23555 0.77118 0.55803 0.0
C1435 C 0.24596 0.73907 0.55636 0.0
C1436 C 0.22096 0.72144 0.55759 0.0
C1437 C 0.25363 0.76437 0.55657 0.0
H1438 H 0.19667 0.75792 0.56048 0.0
H1439 H 0.21503 0.70197 0.5574 0.0
C1440 C 0.09081 0.63479 0.568 0.0
N1441 N 0.04505 0.5986 0.57708 0.0
C1442 C 0.07023 0.6377 0.56688 0.0
C1443 C 0.08796 0.61321 0.57356 0.0
C1444 C 0.0473 0.61928 0.57157 0.0
C1445 C 0.06473 0.59521 0.57815 0.0
C1446 C 0.13553 0.72478 0.56696 0.0
C1447 C 0.1183 0.72238 0.57628 0.0
C1448 C 0.14236 0.74241 0.55721 0.0
C1449 C 0.10793 0.73748 0.5756 0.0
C1450 C 0.13153 0.75712 0.55684 0.0
N1451 N 0.11468 0.75436 0.56596 0.0
C1452 C 0.14448 0.68344 0.60265 0.0
C1453 C 0.10186 0.66346 0.5975 0.0
C1454 C 0.13897 0.67878 0.61574 0.0
N1455 N 0.126 0.67499 0.5938 0.0
C1456 C 0.09548 0.65854 0.6105 0.0
C1457 C 0.11415 0.66563 0.6198 0.0
H1458 H 0.16356 0.69296 0.59949 0.0
H1459 H 0.08748 0.65767 0.59039 0.0
C1460 C 0.10947 0.68291 0.52927 0.0
N1461 N 0.1071 0.68762 0.54182 0.0
C1462 C 0.09342 0.68283 0.51998 0.0
C1463 C 0.07283 0.69273 0.53667 0.0
C1464 C 0.08939 0.69274 0.54563 0.0
C1465 C 0.07456 0.68743 0.52367 0.0
H1466 H 0.12339 0.67847 0.52649 0.0
H1467 H 0.08753 0.69605 0.55567 0.0
O1468 O 0.16713 0.67738 0.57355 0.0
O1469 O 0.15547 0.68172 0.54499 0.0
O1470 O 0.11338 0.65262 0.56334 0.0
O1471 O 0.14596 0.71024 0.56752 0.0
H1472 H 0.21277 0.68855 0.57941 0.0
H1473 H 0.13564 0.63721 0.58652 0.0
H1474 H 0.22334 0.66405 0.59396 0.0
H1475 H 0.14746 0.61346 0.6009 0.0
H1476 H 0.19964 0.74693 0.5182 0.0
H1477 H 0.18677 0.66849 0.53616 0.0
H1478 H 0.16539 0.72358 0.53376 0.0
H1479 H 0.2206 0.69274 0.52054 0.0
H1480 H 0.19233 0.61323 0.55535 0.0
H1481 H 0.11403 0.56829 0.54726 0.0
H1482 H 0.24059 0.79045 0.55815 0.0
H1483 H 0.25917 0.73286 0.55552 0.0
H1484 H 0.07195 0.65412 0.56259 0.0
H1485 H 0.10339 0.61018 0.57425 0.0
H1486 H 0.0313 0.62143 0.57085 0.0
H1487 H 0.06233 0.57849 0.58251 0.0
H1488 H 0.11292 0.70895 0.58394 0.0
H1489 H 0.15577 0.74462 0.54997 0.0
H1490 H 0.09449 0.73575 0.58271 0.0
H1491 H 0.13653 0.77073 0.54931 0.0
H1492 H 0.15402 0.68452 0.62251 0.0
H1493 H 0.07612 0.64894 0.61322 0.0
H1494 H 0.09513 0.67816 0.51012 0.0
H1495 H 0.05857 0.69642 0.5399 0.0
Li1496 Li 0.28511 0.46071 0.56128 0.0
Li1497 Li 0.33033 0.48127 0.56034 0.0
Li1498 Li 0.30381 0.43784 0.5539 0.0
Li1499 Li 0.30802 0.44999 0.5764 0.0
C1500 C 0.29682 0.47714 0.5377 0.0
N1501 N 0.27555 0.49694 0.52216 0.0
C1502 C 0.3079 0.5028 0.53643 0.0
C1503 C 0.27503 0.46156 0.53098 0.0
C1504 C 0.29684 0.51244 0.52854 0.0
C1505 C 0.26453 0.47193 0.5232 0.0
C1506 C 0.30811 0.48785 0.5868 0.0
C1507 C 0.32691 0.50325 0.60758 0.0
N1508 N 0.3043 0.49659 0.61259 0.0
C1509 C 0.28507 0.48119 0.59214 0.0
C1510 C 0.32924 0.49904 0.59455 0.0
C1511 C 0.28353 0.48579 0.6052 0.0
C1512 C 0.23533 0.45044 0.55678 0.0
N1513 N 0.25927 0.46781 0.55931 0.0
C1514 C 0.24989 0.50014 0.55826 0.0
C1515 C 0.26669 0.4922 0.56021 0.0
C1516 C 0.22511 0.48279 0.55537 0.0
C1517 C 0.21779 0.45758 0.55477 0.0
H1518 H 0.22993 0.43114 0.55616 0.0
H1519 H 0.28584 0.50555 0.5623 0.0
C1520 C 0.37386 0.5146 0.54628 0.0
N1521 N 0.35912 0.51219 0.55648 0.0
C1522 C 0.39406 0.53776 0.54313 0.0
C1523 C 0.3831 0.55552 0.56084 0.0
C1524 C 0.36334 0.53204 0.56372 0.0
C1525 C 0.3988 0.5587 0.55039 0.0
H1526 H 0.36973 0.49859 0.54049 0.0
H1527 H 0.35089 0.52976 0.57151 0.0
C1528 C 0.263 0.40282 0.56473 0.0
N1529 N 0.23603 0.35266 0.55958 0.0
C1530 C 0.26441 0.38607 0.57301 0.0
C1531 C 0.24777 0.39407 0.55387 0.0
C1532 C 0.25063 0.36077 0.57024 0.0
C1533 C 0.23434 0.36864 0.55142 0.0
C1534 C 0.35845 0.46147 0.56205 0.0
C1535 C 0.36535 0.45311 0.55119 0.0
C1536 C 0.37675 0.47967 0.56992 0.0
C1537 C 0.39045 0.46312 0.54837 0.0
C1538 C 0.40165 0.48925 0.56676 0.0
N1539 N 0.40792 0.48085 0.55614 0.0
C1540 C 0.29968 0.41607 0.52952 0.0
C1541 C 0.30303 0.39387 0.54706 0.0
C1542 C 0.30004 0.39932 0.52077 0.0
N1543 N 0.30134 0.41315 0.54237 0.0
C1544 C 0.30322 0.37653 0.53866 0.0
C1545 C 0.30215 0.37937 0.52529 0.0
H1546 H 0.29895 0.4319 0.52604 0.0
H1547 H 0.30488 0.39232 0.55732 0.0
C1548 C 0.28827 0.43045 0.60099 0.0
N1549 N 0.30925 0.44097 0.59372 0.0
C1550 C 0.28936 0.4262 0.6141 0.0
C1551 C 0.33352 0.44334 0.61192 0.0
C1552 C 0.33152 0.44693 0.59883 0.0
C1553 C 0.31231 0.43315 0.61973 0.0
H1554 H 0.27084 0.42606 0.59665 0.0
H1555 H 0.34784 0.45514 0.59284 0.0
O1556 O 0.30694 0.46734 0.54569 0.0
O1557 O 0.30989 0.48273 0.57414 0.0
O1558 O 0.27653 0.42767 0.56721 0.0
O1559 O 0.33395 0.45195 0.56496 0.0
H1560 H 0.32468 0.51516 0.5416 0.0
H1561 H 0.26612 0.44167 0.53191 0.0
H1562 H 0.30513 0.53225 0.52754 0.0
H1563 H 0.24757 0.46009 0.51803 0.0
H1564 H 0.34306 0.51168 0.61372 0.0
H1565 H 0.2685 0.47226 0.58632 0.0
H1566 H 0.34717 0.50401 0.59061 0.0
H1567 H 0.26581 0.48064 0.60948 0.0
H1568 H 0.25624 0.51969 0.55911 0.0
H1569 H 0.19886 0.44364 0.55256 0.0
H1570 H 0.40568 0.53925 0.53503 0.0
H1571 H 0.38548 0.57112 0.5665 0.0
H1572 H 0.27621 0.39252 0.58141 0.0
H1573 H 0.24663 0.40679 0.5473 0.0
H1574 H 0.25162 0.3476 0.57653 0.0
H1575 H 0.22262 0.36162 0.543 0.0
H1576 H 0.35153 0.43913 0.54494 0.0
H1577 H 0.3718 0.48674 0.57823 0.0
H1578 H 0.39603 0.45685 0.53998 0.0
H1579 H 0.41597 0.50347 0.57271 0.0
H1580 H 0.29975 0.40263 0.51055 0.0
H1581 H 0.30468 0.36137 0.5426 0.0
H1582 H 0.27265 0.41847 0.61987 0.0
H1583 H 0.35149 0.44872 0.61593 0.0
H1584 H 0.3621 0.33982 0.19118 0.0
H1585 H 0.42158 0.36433 0.16323 0.0
H1586 H 0.39185 0.35513 0.1456 0.0
H1587 H 0.31914 0.2896 0.1744 0.0
H1588 H 0.29258 0.29212 0.17859 0.0
H1589 H 0.31883 0.30466 0.18919 0.0
H1590 H 0.3226 0.34771 0.18821 0.0
H1591 H 0.29611 0.33523 0.17769 0.0
H1592 H 0.32492 0.36187 0.17279 0.0
H1593 H 0.35559 0.33692 0.13119 0.0
H1594 H 0.3153 0.31241 0.12071 0.0
H1595 H 0.27869 0.30193 0.15779 0.0
C1596 C 0.36895 0.34408 0.18137 0.0
C1597 C 0.39409 0.35279 0.17853 0.0
C1598 C 0.40233 0.3575 0.16558 0.0
C1599 C 0.38563 0.35251 0.15552 0.0
C1600 C 0.36081 0.3431 0.1586 0.0
C1601 C 0.35249 0.33922 0.17121 0.0
C1602 C 0.32453 0.32674 0.17179 0.0
C1603 C 0.31312 0.30181 0.17891 0.0
C1604 C 0.31658 0.34392 0.17798 0.0
C1605 C 0.31842 0.32312 0.15755 0.0
C1606 C 0.33965 0.333 0.15013 0.0
C1607 C 0.33881 0.32979 0.13684 0.0
C1608 C 0.31567 0.31588 0.13095 0.0
C1609 C 0.29351 0.30539 0.13833 0.0
C1610 C 0.2951 0.3096 0.1518 0.0
H1611 H 0.69703 0.98969 0.15194 0.0
H1612 H 0.72916 0.04818 0.12339 0.0
H1613 H 0.706 0.06666 0.13266 0.0
H1614 H 0.6353 0.98531 0.15365 0.0
H1615 H 0.63279 0.98004 0.1708 0.0
H1616 H 0.64942 0.96948 0.16098 0.0
H1617 H 0.68816 0.99406 0.17536 0.0
H1618 H 0.67173 0.00473 0.18518 0.0
H1619 H 0.70069 0.02678 0.17776 0.0
H1620 H 0.68402 0.08154 0.14627 0.0
H1621 H 0.66433 0.09228 0.16347 0.0
H1622 H 0.64393 0.0232 0.18296 0.0
C1623 C 0.69866 0.00604 0.14748 0.0
C1624 C 0.7149 0.01759 0.13699 0.0
C1625 C 0.71699 0.03923 0.13153 0.0
C1626 C 0.70377 0.04973 0.13665 0.0
C1627 C 0.68836 0.03827 0.14717 0.0
C1628 C 0.68557 0.01684 0.15251 0.0
C1629 C 0.66927 0.00947 0.16442 0.0
C1630 C 0.64527 0.9846 0.16233 0.0
C1631 C 0.68331 0.00873 0.17638 0.0
C1632 C 0.66418 0.03064 0.16517 0.0
C1633 C 0.67512 0.0468 0.15501 0.0
C1634 C 0.67479 0.06873 0.1541 0.0
C1635 C 0.6633 0.07455 0.16394 0.0
C1636 C 0.65209 0.05846 0.17459 0.0
C1637 C 0.65222 0.03596 0.17501 0.0
H1638 H 0.95788 0.64451 0.19791 0.0
H1639 H 0.97269 0.59506 0.17534 0.0
H1640 H 0.9951 0.62818 0.15929 0.0
H1641 H 0.94423 0.67008 0.1728 0.0
H1642 H 0.95841 0.70107 0.17921 0.0
H1643 H 0.94736 0.6752 0.18998 0.0
H1644 H 0.9908 0.69439 0.20037 0.0
H1645 H 0.00198 0.72059 0.18972 0.0
H1646 H 0.01744 0.703 0.1903 0.0
H1647 H 0.01051 0.66446 0.14435 0.0
H1648 H 0.01818 0.70109 0.13187 0.0
H1649 H 0.99454 0.7273 0.16464 0.0
C1650 C 0.96665 0.64092 0.18986 0.0
C1651 C 0.9637 0.61727 0.18791 0.0
C1652 C 0.97469 0.61305 0.17699 0.0
C1653 C 0.98758 0.63178 0.16787 0.0
C1654 C 0.98947 0.65467 0.16989 0.0
C1655 C 0.97953 0.65938 0.18069 0.0
C1656 C 0.98201 0.68463 0.18002 0.0
C1657 C 0.95649 0.6826 0.18053 0.0
C1658 C 0.99908 0.70166 0.19074 0.0
C1659 C 0.99393 0.69297 0.16691 0.0
C1660 C 0.99844 0.67563 0.16129 0.0
C1661 C 0.00759 0.67843 0.14877 0.0
C1662 C 0.01196 0.69936 0.14176 0.0
C1663 C 0.00705 0.71716 0.14727 0.0
C1664 C 0.99839 0.71402 0.16011 0.0
H1665 H 0.35331 0.39167 0.82699 0.0
H1666 H 0.35068 0.35658 0.79043 0.0
H1667 H 0.33781 0.31731 0.80172 0.0
H1668 H 0.37254 0.35495 0.84742 0.0
H1669 H 0.35295 0.35372 0.86051 0.0
H1670 H 0.36692 0.38014 0.84993 0.0
H1671 H 0.32357 0.37378 0.84502 0.0
H1672 H 0.30948 0.34733 0.85547 0.0
H1673 H 0.29964 0.34429 0.83893 0.0
H1674 H 0.31854 0.28051 0.81638 0.0
H1675 H 0.29479 0.24951 0.83317 0.0
H1676 H 0.30986 0.30859 0.86013 0.0
C1677 C 0.35056 0.37586 0.82139 0.0
C1678 C 0.35309 0.37721 0.80784 0.0
C1679 C 0.3493 0.35612 0.80085 0.0
C1680 C 0.34191 0.3337 0.80717 0.0
C1681 C 0.33866 0.33276 0.8205 0.0
C1682 C 0.34312 0.35339 0.82754 0.0
C1683 C 0.33566 0.34698 0.8415 0.0
C1684 C 0.35838 0.3597 0.85036 0.0
C1685 C 0.31591 0.35347 0.84545 0.0
C1686 C 0.3251 0.31931 0.84108 0.0
C1687 C 0.32743 0.31149 0.82896 0.0
C1688 C 0.31712 0.28646 0.82599 0.0
C1689 C 0.30371 0.26899 0.83559 0.0
C1690 C 0.30056 0.27666 0.84796 0.0
C1691 C 0.31195 0.30217 0.85076 0.0
H1692 H 0.70842 0.96754 0.84638 0.0
H1693 H 0.73446 0.04589 0.84311 0.0
H1694 H 0.69944 0.03633 0.82852 0.0
H1695 H 0.68739 0.95041 0.81372 0.0
H1696 H 0.66076 0.9213 0.81826 0.0
H1697 H 0.68826 0.93467 0.82803 0.0
H1698 H 0.6624 0.93278 0.84801 0.0
H1699 H 0.63485 0.91954 0.8383 0.0
H1700 H 0.64403 0.94743 0.8474 0.0
H1701 H 0.66195 0.01773 0.81371 0.0
H1702 H 0.62388 0.99154 0.80098 0.0
H1703 H 0.62185 0.9257 0.81524 0.0
C1704 C 0.7069 0.98269 0.84247 0.0
C1705 C 0.72419 0.00744 0.84569 0.0
C1706 C 0.72134 0.0268 0.84067 0.0
C1707 C 0.7016 0.02154 0.83239 0.0
C1708 C 0.6848 0.99685 0.8294 0.0
C1709 C 0.68719 0.97776 0.83438 0.0
C1710 C 0.66635 0.95278 0.83006 0.0
C1711 C 0.67629 0.93899 0.82204 0.0
C1712 C 0.651 0.93723 0.84163 0.0
C1713 C 0.65181 0.96072 0.82183 0.0
C1714 C 0.66281 0.9862 0.82144 0.0
C1715 C 0.65307 0.99777 0.81405 0.0
C1716 C 0.63154 0.98284 0.80686 0.0
C1717 C 0.61993 0.95674 0.80734 0.0
C1718 C 0.63018 0.94564 0.81494 0.0
H1719 H 0.02678 0.63831 0.82327 0.0
H1720 H 0.03659 0.68001 0.78824 0.0
H1721 H 0.01587 0.70015 0.79848 0.0
H1722 H 0.96615 0.63128 0.83289 0.0
H1723 H 0.97413 0.6352 0.84975 0.0
H1724 H 0.98648 0.62132 0.83909 0.0
H1725 H 0.03098 0.65409 0.84608 0.0
H1726 H 0.01881 0.66812 0.85668 0.0
H1727 H 0.04116 0.68651 0.8445 0.0
H1728 H -0.00041 0.71981 0.81319 0.0
H1729 H 0.98805 0.73727 0.83127 0.0
H1730 H 0.98715 0.68207 0.85683 0.0
C1731 C 0.02416 0.65135 0.81769 0.0
C1732 C 0.03302 0.65733 0.8049 0.0
C1733 C 0.02941 0.67464 0.79794 0.0
C1734 C 0.01776 0.68629 0.80369 0.0
C1735 C 0.00966 0.68032 0.81638 0.0
C1736 C 0.01249 0.66312 0.82328 0.0
C1737 C 0.00379 0.66148 0.83708 0.0
C1738 C 0.98129 0.63579 0.83986 0.0
C1739 C 0.02495 0.66795 0.84664 0.0
C1740 C 0.99661 0.68118 0.83698 0.0
C1741 C -0.00013 0.69158 0.8249 0.0
C1742 C 0.99635 0.71141 0.82262 0.0
C1743 C 0.98959 0.7211 0.83299 0.0
C1744 C 0.98632 0.71094 0.84554 0.0
C1745 C 0.98949 0.69037 0.84742 0.0
H1746 H 0.93878 0.62161 0.49541 0.0
H1747 H 0.97255 0.64722 0.45773 0.0
H1748 H 0.01275 0.67418 0.46805 0.0
H1749 H 0.97874 0.67979 0.51366 0.0
H1750 H 0.98006 0.66305 0.52742 0.0
H1751 H 0.95296 0.64949 0.51731 0.0
H1752 H 0.9572 0.61087 0.51378 0.0
H1753 H 0.98422 0.62427 0.52385 0.0
H1754 H 0.98591 0.61481 0.50763 0.0
H1755 H 0.05025 0.69378 0.48205 0.0
H1756 H 0.08209 0.70382 0.49868 0.0
H1757 H 0.02438 0.66372 0.52706 0.0
C1758 C 0.95451 0.63313 0.4893 0.0
C1759 C 0.95227 0.63233 0.47572 0.0
C1760 C 0.97345 0.64783 0.46815 0.0
C1761 C 0.99649 0.66319 0.47393 0.0
C1762 C 0.99814 0.6629 0.4873 0.0
C1763 C 0.97769 0.64832 0.4949 0.0
C1764 C 0.98488 0.64922 0.50889 0.0
C1765 C 0.97348 0.6611 0.51731 0.0
C1766 C 0.97763 0.62325 0.51381 0.0
C1767 C 0.01268 0.6658 0.50788 0.0
C1768 C 0.01992 0.67388 0.49539 0.0
C1769 C 0.04479 0.68788 0.49191 0.0
C1770 C 0.06273 0.69335 0.50139 0.0
C1771 C 0.05571 0.68465 0.51417 0.0
C1772 C 0.03033 0.67116 0.51746 0.0
H1773 H 0.33309 0.36072 0.52762 0.0
H1774 H 0.27919 0.36171 0.5019 0.0
H1775 H 0.28909 0.33952 0.48543 0.0
H1776 H 0.37753 0.37276 0.50523 0.0
H1777 H 0.38738 0.35255 0.51173 0.0
H1778 H 0.37368 0.36529 0.52216 0.0
H1779 H 0.34034 0.32119 0.5294 0.0
H1780 H 0.35413 0.30826 0.51908 0.0
H1781 H 0.3218 0.29834 0.51744 0.0
H1782 H 0.30925 0.32299 0.47079 0.0
H1783 H 0.33686 0.31204 0.4594 0.0
H1784 H 0.37511 0.31856 0.49533 0.0
C1785 C 0.32266 0.3555 0.51873 0.0
C1786 C 0.30535 0.363 0.51608 0.0
C1787 C 0.29274 0.35644 0.50411 0.0
C1788 C 0.29807 0.34364 0.49473 0.0
C1789 C 0.31576 0.33716 0.49755 0.0
C1790 C 0.32759 0.34255 0.50934 0.0
C1791 C 0.34716 0.33525 0.50963 0.0
C1792 C 0.37295 0.35781 0.51234 0.0
C1793 C 0.34044 0.31452 0.51947 0.0
C1794 C 0.34526 0.32593 0.49597 0.0
C1795 C 0.32689 0.32694 0.4892 0.0
C1796 C 0.32325 0.32146 0.47609 0.0
C1797 C 0.33901 0.31512 0.46971 0.0
C1798 C 0.35819 0.31423 0.47644 0.0
C1799 C 0.36081 0.31917 0.48983 0.0
H1800 H 0.6578 0.02758 0.46887 0.0
H1801 H 0.7074 0.08239 0.49647 0.0
H1802 H 0.69688 0.04925 0.51237 0.0
H1803 H 0.61124 0.99227 0.49011 0.0
H1804 H 0.60274 0.96268 0.48307 0.0
H1805 H 0.61686 0.99003 0.47324 0.0
H1806 H 0.65154 0.98126 0.46656 0.0
H1807 H 0.63738 0.95368 0.4763 0.0
H1808 H 0.66933 0.97704 0.47883 0.0
H1809 H 0.67692 0.01115 0.52603 0.0
H1810 H 0.64934 0.97109 0.5364 0.0
H1811 H 0.61415 0.94069 0.49954 0.0
C1812 C 0.66711 0.03255 0.4781 0.0
C1813 C 0.68352 0.05754 0.48141 0.0
C1814 C 0.69468 0.06335 0.49376 0.0
C1815 C 0.68896 0.04465 0.50281 0.0
C1816 C 0.67223 0.02024 0.49932 0.0
C1817 C 0.66163 0.01413 0.48722 0.0
C1818 C 0.6426 0.98683 0.48624 0.0
C1819 C 0.61685 0.98273 0.48298 0.0
C1820 C 0.65071 0.97394 0.4764 0.0
C1821 C 0.64345 0.97871 0.49984 0.0
C1822 C 0.66088 0.99817 0.50719 0.0
C1823 C 0.66363 0.99562 0.5203 0.0
C1824 C 0.64791 0.97269 0.5261 0.0
C1825 C 0.6296 0.95256 0.5188 0.0
C1826 C 0.62785 0.95564 0.50543 0.0
H1827 H 0.03926 0.15296 0.12718 0.0
H1828 H 0.05296 0.203 0.09537 0.0
H1829 H 0.00795 0.18469 0.09246 0.0
H1830 H 0.99257 0.10175 0.11312 0.0
H1831 H 0.974 0.08859 0.12738 0.0
H1832 H 0.00686 0.10889 0.1288 0.0
H1833 H -1e-05 0.13749 0.14421 0.0
H1834 H 0.96697 0.11709 0.14294 0.0
H1835 H 0.98061 0.14948 0.13921 0.0
H1836 H 0.96241 0.15579 0.09023 0.0
H1837 H 0.91948 0.12021 0.08989 0.0
H1838 H 0.93515 0.0894 0.12335 0.0
C1839 C 0.03275 0.16053 0.11985 0.0
C1840 C 0.04956 0.17946 0.11154 0.0
C1841 C 0.04042 0.1888 0.10199 0.0
C1842 C 0.01487 0.17844 0.10024 0.0
C1843 C 0.99877 0.15904 0.10824 0.0
C1844 C 0.00735 0.15045 0.11801 0.0
C1845 C 0.98638 0.12781 0.12442 0.0
C1846 C 0.99019 0.10545 0.12336 0.0
C1847 C 0.98331 0.13331 0.13853 0.0
C1848 C 0.96483 0.12423 0.1163 0.0
C1849 C 0.97228 0.14259 0.10711 0.0
C1850 C 0.9562 0.1417 0.0976 0.0
C1851 C 0.93195 0.12141 0.09742 0.0
C1852 C 0.92408 0.1024 0.10671 0.0
C1853 C 0.9406 0.10411 0.11639 0.0
H1854 H 0.83073 0.87761 0.09852 0.0
H1855 H 0.82352 0.8826 0.13986 0.0
H1856 H 0.84427 0.85858 0.14335 0.0
H1857 H 0.82312 0.81389 0.09844 0.0
H1858 H 0.84564 0.82235 0.08572 0.0
H1859 H 0.82653 0.83618 0.08647 0.0
H1860 H 0.86589 0.87976 0.08644 0.0
H1861 H 0.8851 0.86615 0.08584 0.0
H1862 H 0.88918 0.88748 0.0986 0.0
H1863 H 0.87141 0.84015 0.14239 0.0
H1864 H 0.90202 0.82796 0.13711 0.0
H1865 H 0.88971 0.83268 0.09631 0.0
C1866 C 0.83264 0.87282 0.10829 0.0
C1867 C 0.82542 0.88189 0.11892 0.0
C1868 C 0.82901 0.87593 0.13158 0.0
C1869 C 0.84062 0.86216 0.13365 0.0
C1870 C 0.84828 0.85422 0.12297 0.0
C1871 C 0.84416 0.85905 0.11052 0.0
C1872 C 0.85629 0.85054 0.10075 0.0
C1873 C 0.83672 0.82948 0.09235 0.0
C1874 C 0.87524 0.87228 0.09243 0.0
C1875 C 0.86886 0.84126 0.10965 0.0
C1876 C 0.86372 0.8432 0.12242 0.0
C1877 C 0.87505 0.83791 0.13242 0.0
C1878 C 0.89238 0.83086 0.1293 0.0
C1879 C 0.8983 0.82915 0.11627 0.0
C1880 C 0.88579 0.83386 0.10637 0.0
H1881 H 0.1528 0.06572 0.09707 0.0
H1882 H 0.17418 0.0861 0.13701 0.0
H1883 H 0.16301 0.04311 0.14171 0.0
H1884 H 0.09921 0.00987 0.10395 0.0
H1885 H 0.10158 0.99355 0.09019 0.0
H1886 H 0.11492 0.02656 0.08956 0.0
H1887 H 0.15755 0.03179 0.08368 0.0
H1888 H 0.1443 0.99871 0.08433 0.0
H1889 H 0.17094 0.01868 0.09403 0.0
H1890 H 0.1456 0.9969 0.14251 0.0
H1891 H 0.12245 0.95153 0.13945 0.0
H1892 H 0.10997 0.96162 0.09938 0.0
C1893 C 0.15532 0.06129 0.10681 0.0
C1894 C 0.16445 0.07944 0.11665 0.0
C1895 C 0.16767 0.07273 0.12922 0.0
C1896 C 0.16126 0.0483 0.13201 0.0
C1897 C 0.1517 0.03078 0.12213 0.0
C1898 C 0.14876 0.03702 0.10978 0.0
C1899 C 0.13603 0.01447 0.10115 0.0
C1900 C 0.11149 0.01091 0.09591 0.0
C1901 C 0.15324 0.01601 0.09015 0.0
C1902 C 0.13165 0.99444 0.11066 0.0
C1903 C 0.14116 0.0042 0.12265 0.0
C1904 C 0.13826 0.98908 0.13312 0.0
C1905 C 0.12493 0.96333 0.13131 0.0
C1906 C 0.11442 0.95294 0.11916 0.0
C1907 C 0.11824 0.96886 0.10871 0.0
H1908 H 0.10461 0.93535 0.90387 0.0
H1909 H 0.09838 0.91637 0.8632 0.0
H1910 H 0.13042 0.95927 0.85818 0.0
H1911 H 0.1069 0.9911 0.89932 0.0
H1912 H 0.12813 0.00719 0.91232 0.0
H1913 H 0.10825 0.97415 0.91298 0.0
H1914 H 0.14653 0.96916 0.91587 0.0
H1915 H 0.16658 0.00228 0.91517 0.0
H1916 H 0.17131 0.98267 0.90422 0.0
H1917 H 0.15943 0.00516 0.85724 0.0
H1918 H 0.18162 0.05046 0.86039 0.0
H1919 H 0.16649 0.03972 0.90144 0.0
C1920 C 0.11008 0.94006 0.8939 0.0
C1921 C 0.09893 0.92227 0.88396 0.0
C1922 C 0.10691 0.92937 0.87106 0.0
C1923 C 0.12508 0.95378 0.86809 0.0
C1924 C 0.13515 0.97093 0.8781 0.0
C1925 C 0.12791 0.96437 0.89075 0.0
C1926 C 0.13948 0.98674 0.89955 0.0
C1927 C 0.1195 0.98998 0.90644 0.0
C1928 C 0.15702 0.98511 0.90928 0.0
C1929 C 0.15369 0.00705 0.88981 0.0
C1930 C 0.15137 0.99752 0.87753 0.0
C1931 C 0.16159 0.01282 0.86683 0.0
C1932 C 0.17401 0.03852 0.86871 0.0
C1933 C 0.17583 0.04867 0.88117 0.0
C1934 C 0.16596 0.03261 0.89185 0.0
H1935 H 0.06491 0.14318 0.87019 0.0
H1936 H 0.08676 0.19441 0.90243 0.0
H1937 H 0.04363 0.18445 0.90496 0.0
H1938 H 0.01452 0.15204 0.85775 0.0
H1939 H 0.99517 0.11961 0.85403 0.0
H1940 H 0.02838 0.13399 0.85324 0.0
H1941 H 0.02651 0.10124 0.86909 0.0
H1942 H 0.9934 0.08684 0.86996 0.0
H1943 H 0.01154 0.09708 0.8845 0.0
H1944 H 0.99752 0.16516 0.90583 0.0
H1945 H 0.95217 0.13733 0.90524 0.0
H1946 H 0.96019 0.09784 0.8729 0.0
C1947 C 0.06076 0.15258 0.87769 0.0
C1948 C 0.07943 0.16975 0.88603 0.0
C1949 C 0.07304 0.18163 0.89569 0.0
C1950 C 0.0485 0.176 0.89726 0.0
C1951 C 0.03051 0.15849 0.8891 0.0
C1952 C 0.03635 0.147 0.87947 0.0
C1953 C 0.0133 0.12706 0.87284 0.0
C1954 C 0.01282 0.13357 0.85862 0.0
C1955 C 0.01107 0.10155 0.87419 0.0
C1956 C 0.99355 0.1285 0.88056 0.0
C1957 C 0.00384 0.14704 0.88974 0.0
C1958 C 0.98924 0.15086 0.89854 0.0
C1959 C 0.96349 0.13501 0.8981 0.0
C1960 C 0.95263 0.11544 0.88901 0.0
C1961 C 0.96794 0.11258 0.87998 0.0
H1962 H 0.89933 0.85374 0.90932 0.0
H1963 H 0.86477 0.80258 0.87749 0.0
H1964 H 0.83827 0.82055 0.87334 0.0
H1965 H 0.84405 0.85627 0.91989 0.0
H1966 H 0.86241 0.88881 0.92359 0.0
H1967 H 0.87559 0.86926 0.9252 0.0
H1968 H 0.91155 0.89831 0.90998 0.0
H1969 H 0.89842 0.9178 0.90824 0.0
H1970 H 0.90455 0.90484 0.89415 0.0
H1971 H 0.8192 0.84775 0.87115 0.0
H1972 H 0.80938 0.88138 0.87124 0.0
H1973 H 0.85724 0.91458 0.90432 0.0
C1974 C 0.88591 0.84603 0.9016 0.0
C1975 C 0.88408 0.82678 0.89373 0.0
C1976 C 0.86623 0.81713 0.88375 0.0
C1977 C 0.85118 0.82727 0.8813 0.0
C1978 C 0.85406 0.84685 0.889 0.0
C1979 C 0.87087 0.85594 0.89903 0.0
C1980 C 0.87197 0.87829 0.90526 0.0
C1981 C 0.86296 0.87282 0.91932 0.0
C1982 C 0.89817 0.90115 0.90434 0.0
C1983 C 0.85388 0.88101 0.89688 0.0
C1984 C 0.84339 0.86252 0.88767 0.0
C1985 C 0.82705 0.86209 0.87844 0.0
C1986 C 0.82156 0.88121 0.87856 0.0
C1987 C 0.83266 0.90059 0.88774 0.0
C1988 C 0.84864 0.90011 0.89712 0.0
H1989 H 0.70059 0.49341 0.44515 0.0
H1990 H 0.71384 0.46677 0.48098 0.0
H1991 H 0.66884 0.44319 0.48529 0.0
H1992 H 0.64486 0.4964 0.45632 0.0
H1993 H 0.62995 0.48574 0.4409 0.0
H1994 H 0.66323 0.50404 0.44182 0.0
H1995 H 0.66646 0.46969 0.42958 0.0
H1996 H 0.6333 0.45124 0.42872 0.0
H1997 H 0.65064 0.4386 0.43586 0.0
H1998 H 0.62285 0.41786 0.48407 0.0
H1999 H 0.57933 0.39243 0.47744 0.0
H2000 H 0.59553 0.43632 0.44263 0.0
C2001 C 0.69404 0.48335 0.45413 0.0
C2002 C 0.71061 0.48205 0.46281 0.0
C2003 C 0.70137 0.468 0.47424 0.0
C2004 C 0.67589 0.45469 0.47679 0.0
C2005 C 0.65993 0.45572 0.46784 0.0
C2006 C 0.66864 0.46984 0.45678 0.0
C2007 C 0.64754 0.46561 0.44804 0.0
C2008 C 0.64633 0.48936 0.4467 0.0
C2009 C 0.64962 0.45569 0.43477 0.0
C2010 C 0.6257 0.44613 0.45565 0.0
C2011 C 0.63321 0.44099 0.46714 0.0
C2012 C 0.61665 0.42213 0.47526 0.0
C2013 C 0.59186 0.40784 0.47142 0.0
C2014 C 0.58382 0.41238 0.45953 0.0
C2015 C 0.60099 0.43225 0.45175 0.0
H2016 H 0.51519 0.22662 0.42732 0.0
H2017 H 0.46254 0.1807 0.45672 0.0
H2018 H 0.48549 0.15858 0.45958 0.0
H2019 H 0.52475 0.17796 0.41325 0.0
H2020 H 0.5571 0.19951 0.41031 0.0
H2021 H 0.53515 0.20997 0.40992 0.0
H2022 H 0.561 0.24345 0.42702 0.0
H2023 H 0.58284 0.23293 0.42759 0.0
H2024 H 0.56782 0.23423 0.44217 0.0
H2025 H 0.51657 0.14399 0.46037 0.0
H2026 H 0.55236 0.13772 0.45875 0.0
H2027 H 0.583 0.19219 0.4281 0.0
C2028 C 0.50794 0.2114 0.43408 0.0
C2029 C 0.48692 0.20531 0.44173 0.0
C2030 C 0.47867 0.18581 0.45079 0.0
C2031 C 0.4915 0.17305 0.45243 0.0
C2032 C 0.51243 0.1799 0.44487 0.0
C2033 C 0.52041 0.19848 0.43579 0.0
C2034 C 0.54409 0.20329 0.42932 0.0
C2035 C 0.54002 0.19732 0.41484 0.0
C2036 C 0.56517 0.23005 0.43168 0.0
C2037 C 0.54856 0.18491 0.43639 0.0
C2038 C 0.53007 0.17145 0.44527 0.0
C2039 C 0.53095 0.15418 0.45332 0.0
C2040 C 0.55132 0.15068 0.45229 0.0
C2041 C 0.57055 0.16447 0.4433 0.0
C2042 C 0.56882 0.18155 0.43518 0.0
H2043 H 0.82333 0.39951 0.45967 0.0
H2044 H 0.87537 0.41784 0.4282 0.0
H2045 H 0.86522 0.37429 0.42716 0.0
H2046 H 0.83179 0.34907 0.47452 0.0
H2047 H 0.79924 0.33078 0.4782 0.0
H2048 H 0.81452 0.3641 0.47834 0.0
H2049 H 0.78231 0.36206 0.46207 0.0
H2050 H 0.76713 0.32888 0.46175 0.0
H2051 H 0.77798 0.3461 0.44694 0.0
H2052 H 0.84448 0.32819 0.42708 0.0
H2053 H 0.81465 0.28331 0.4278 0.0
H2054 H 0.77626 0.29477 0.45954 0.0
C2055 C 0.83335 0.39452 0.45295 0.0
C2056 C 0.85034 0.412 0.44412 0.0
C2057 C 0.8624 0.40468 0.43509 0.0
C2058 C 0.85683 0.38004 0.43448 0.0
C2059 C 0.83926 0.363 0.44301 0.0
C2060 C 0.82784 0.36996 0.45216 0.0
C2061 C 0.80737 0.34765 0.45905 0.0
C2062 C 0.81361 0.34792 0.47338 0.0
C2063 C 0.78223 0.34609 0.45734 0.0
C2064 C 0.80821 0.32701 0.4519 0.0
C2065 C 0.82706 0.33623 0.44288 0.0
C2066 C 0.83004 0.32073 0.43432 0.0
C2067 C 0.81302 0.29521 0.43483 0.0
C2068 C 0.79313 0.28546 0.44375 0.0
C2069 C 0.79122 0.30162 0.4526 0.0
H2070 H 0.74584 0.27127 0.2408 0.0
H2071 H 0.76242 0.25093 0.20365 0.0
H2072 H 0.79586 0.2942 0.20035 0.0
H2073 H 0.75072 0.32595 0.23052 0.0
H2074 H 0.76394 0.34275 0.24527 0.0
H2075 H 0.74439 0.30964 0.24561 0.0
H2076 H 0.77927 0.30589 0.25676 0.0
H2077 H 0.79899 0.33907 0.25644 0.0
H2078 H 0.80942 0.31968 0.24933 0.0
H2079 H 0.82473 0.34079 0.20019 0.0
H2080 H 0.84462 0.38633 0.20281 0.0
H2081 H 0.80713 0.37559 0.23944 0.0
C2082 C 0.75659 0.27579 0.232 0.0
C2083 C 0.75146 0.25762 0.2225 0.0
C2084 C 0.76621 0.26438 0.21118 0.0
C2085 C 0.78523 0.28895 0.2092 0.0
C2086 C 0.78931 0.3065 0.21865 0.0
C2087 C 0.77537 0.30015 0.22983 0.0
C2088 C 0.78166 0.32265 0.23794 0.0
C2089 C 0.75882 0.3254 0.23994 0.0
C2090 C 0.79302 0.32176 0.25088 0.0
C2091 C 0.80068 0.3428 0.22937 0.0
C2092 C 0.80533 0.33319 0.21841 0.0
C2093 C 0.82145 0.34849 0.20881 0.0
C2094 C 0.83269 0.37425 0.21037 0.0
C2095 C 0.82731 0.38423 0.22131 0.0
C2096 C 0.81152 0.3683 0.231 0.0
H2097 H 0.7325 0.51788 0.23173 0.0
H2098 H 0.74498 0.50343 0.19235 0.0
H2099 H 0.70136 0.48923 0.18715 0.0
H2100 H 0.67719 0.46576 0.23575 0.0
H2101 H 0.66279 0.47897 0.2454 0.0
H2102 H 0.69588 0.49304 0.24535 0.0
H2103 H 0.70069 0.53488 0.23835 0.0
H2104 H 0.66749 0.52099 0.23851 0.0
H2105 H 0.68484 0.53615 0.22418 0.0
H2106 H 0.65527 0.46898 0.18747 0.0
H2107 H 0.61097 0.44615 0.1929 0.0
H2108 H 0.62834 0.47542 0.2319 0.0
C2109 C 0.72619 0.51241 0.22192 0.0
C2110 C 0.74208 0.51182 0.21242 0.0
C2111 C 0.73321 0.50439 0.19971 0.0
C2112 C 0.70844 0.49624 0.19669 0.0
C2113 C 0.69296 0.49604 0.20643 0.0
C2114 C 0.70161 0.50434 0.21875 0.0
C2115 C 0.68075 0.49983 0.22781 0.0
C2116 C 0.67906 0.48342 0.23924 0.0
C2117 C 0.68362 0.52443 0.23249 0.0
C2118 C 0.65883 0.48637 0.21887 0.0
C2119 C 0.66627 0.48471 0.20654 0.0
C2120 C 0.64923 0.47081 0.19699 0.0
C2121 C 0.62399 0.45796 0.20017 0.0
C2122 C 0.61593 0.45904 0.21283 0.0
C2123 C 0.63372 0.47406 0.22215 0.0
H2124 H 0.52335 0.25617 0.20773 0.0
H2125 H 0.45773 0.21689 0.23151 0.0
H2126 H 0.464 0.18099 0.2325 0.0
H2127 H 0.51625 0.20026 0.19014 0.0
H2128 H 0.54925 0.21282 0.19007 0.0
H2129 H 0.53696 0.23328 0.18943 0.0
H2130 H 0.5628 0.25665 0.20954 0.0
H2131 H 0.57498 0.23623 0.21032 0.0
H2132 H 0.55937 0.2396 0.22411 0.0
H2133 H 0.48176 0.15277 0.23394 0.0
H2134 H 0.50848 0.1344 0.23509 0.0
H2135 H 0.56118 0.19141 0.20939 0.0
C2136 C 0.50996 0.23972 0.21285 0.0
C2137 C 0.49005 0.23916 0.21952 0.0
C2138 C 0.47293 0.21748 0.22621 0.0
C2139 C 0.47638 0.19706 0.22683 0.0
C2140 C 0.49674 0.19852 0.22049 0.0
C2141 C 0.513 0.21919 0.21344 0.0
C2142 C 0.53457 0.21718 0.20844 0.0
C2143 C 0.53422 0.21579 0.19364 0.0
C2144 C 0.55938 0.23868 0.21341 0.0
C2145 C 0.52869 0.1928 0.21434 0.0
C2146 C 0.50664 0.18208 0.22112 0.0
C2147 C 0.49874 0.16068 0.2284 0.0
C2148 C 0.51401 0.15033 0.22898 0.0
C2149 C 0.53697 0.16149 0.22236 0.0
C2150 C 0.54385 0.18252 0.21464 0.0
H2151 H 0.26341 0.76459 0.76999 0.0
H2152 H 0.25719 0.73409 0.80818 0.0
H2153 H 0.3015 0.76378 0.81199 0.0
H2154 H 0.31968 0.7709 0.76239 0.0
H2155 H 0.33189 0.79956 0.75366 0.0
H2156 H 0.29899 0.77887 0.75463 0.0
H2157 H 0.2935 0.81401 0.76421 0.0
H2158 H 0.32646 0.83493 0.76318 0.0
H2159 H 0.3107 0.83034 0.77838 0.0
H2160 H 0.34697 0.79227 0.81055 0.0
H2161 H 0.39053 0.81766 0.80406 0.0
H2162 H 0.36762 0.83141 0.76705 0.0
C2163 C 0.27123 0.76476 0.7793 0.0
C2164 C 0.25691 0.74718 0.78883 0.0
C2165 C 0.2679 0.7474 0.80076 0.0
C2166 C 0.29299 0.76429 0.80303 0.0
C2167 C 0.3068 0.78093 0.79332 0.0
C2168 C 0.2963 0.78146 0.78172 0.0
C2169 C 0.31575 0.79959 0.77244 0.0
C2170 C 0.31662 0.78643 0.76006 0.0
C2171 C 0.31134 0.82099 0.76937 0.0
C2172 C 0.3389 0.8084 0.78046 0.0
C2173 C 0.33326 0.79767 0.79252 0.0
C2174 C 0.35162 0.8013 0.80125 0.0
C2175 C 0.37641 0.81596 0.79748 0.0
C2176 C 0.38274 0.8269 0.78506 0.0
C2177 C 0.36357 0.82339 0.77659 0.0
H2178 H 0.26126 0.52737 0.77192 0.0
H2179 H 0.21532 0.45711 0.79104 0.0
H2180 H 0.18096 0.46592 0.79219 0.0
H2181 H 0.2425 0.56235 0.78999 0.0
H2182 H 0.24321 0.58087 0.77657 0.0
H2183 H 0.26312 0.568 0.7766 0.0
H2184 H 0.24499 0.54666 0.75464 0.0
H2185 H 0.22502 0.55952 0.75452 0.0
H2186 H 0.21201 0.52656 0.75299 0.0
H2187 H 0.15265 0.48443 0.79238 0.0
H2188 H 0.13332 0.51047 0.79139 0.0
H2189 H 0.19836 0.56754 0.77165 0.0
C2190 C 0.24395 0.51382 0.77635 0.0
C2191 C 0.24091 0.4917 0.78151 0.0
C2192 C 0.2179 0.47418 0.78702 0.0
C2193 C 0.19836 0.47905 0.78772 0.0
C2194 C 0.20213 0.50131 0.78268 0.0
C2195 C 0.22435 0.51827 0.77701 0.0
C2196 C 0.22416 0.54104 0.77255 0.0
C2197 C 0.24444 0.56444 0.77934 0.0
C2198 C 0.22669 0.54358 0.7578 0.0
C2199 C 0.19864 0.53469 0.77693 0.0
C2200 C 0.18601 0.51165 0.78266 0.0
C2201 C 0.16232 0.5024 0.7878 0.0
C2202 C 0.15146 0.51725 0.78718 0.0
C2203 C 0.16444 0.54109 0.78155 0.0
C2204 C 0.18811 0.54956 0.77619 0.0
H2205 H 0.5078 0.72946 0.76249 0.0
H2206 H 0.50293 0.74776 0.8024 0.0
H2207 H 0.49133 0.70548 0.8088 0.0
H2208 H 0.45421 0.67346 0.76302 0.0
H2209 H 0.46455 0.65774 0.75236 0.0
H2210 H 0.47809 0.6907 0.75127 0.0
H2211 H 0.52172 0.69658 0.75455 0.0
H2212 H 0.50824 0.66351 0.75567 0.0
H2213 H 0.52764 0.68327 0.76847 0.0
H2214 H 0.47401 0.65987 0.81051 0.0
H2215 H 0.45116 0.6146 0.80725 0.0
H2216 H 0.46442 0.62548 0.76608 0.0
C2217 C 0.5047 0.72478 0.77261 0.0
C2218 C 0.50642 0.74214 0.78191 0.0
C2219 C 0.50231 0.73512 0.79507 0.0
C2220 C 0.4956 0.71104 0.79882 0.0
C2221 C 0.49311 0.69416 0.78932 0.0
C2222 C 0.49761 0.70076 0.77648 0.0
C2223 C 0.4905 0.67848 0.76796 0.0
C2224 C 0.47066 0.67489 0.75808 0.0
C2225 C 0.51339 0.68059 0.76127 0.0
C2226 C 0.48018 0.65813 0.77795 0.0
C2227 C 0.48242 0.66761 0.79025 0.0
C2228 C 0.47248 0.65226 0.80095 0.0
C2229 C 0.45938 0.62658 0.79899 0.0
C2230 C 0.45601 0.61648 0.78641 0.0
C2231 C 0.46716 0.63256 0.77584 0.0
H2232 H 0.48844 0.70198 0.5629 0.0
H2233 H 0.49351 0.712 0.52142 0.0
H2234 H 0.47155 0.66665 0.51843 0.0
H2235 H 0.49492 0.64569 0.5632 0.0
H2236 H 0.4731 0.6322 0.57628 0.0
H2237 H 0.49242 0.66536 0.57509 0.0
H2238 H 0.45334 0.66945 0.57556 0.0
H2239 H 0.43391 0.63639 0.57662 0.0
H2240 H 0.42931 0.65294 0.5638 0.0
H2241 H 0.44414 0.62057 0.52002 0.0
H2242 H 0.41403 0.5775 0.52601 0.0
H2243 H 0.42865 0.59744 0.56649 0.0
C2244 C 0.48575 0.6947 0.55319 0.0
C2245 C 0.49278 0.71054 0.54239 0.0
C2246 C 0.48816 0.7002 0.52983 0.0
C2247 C 0.47586 0.67447 0.52804 0.0
C2248 C 0.46853 0.65936 0.5389 0.0
C2249 C 0.47355 0.6691 0.55123 0.0
C2250 C 0.46185 0.6489 0.56128 0.0
C2251 C 0.48176 0.64798 0.56944 0.0
C2252 C 0.44352 0.65212 0.56981 0.0
C2253 C 0.4486 0.62636 0.55268 0.0
C2254 C 0.45294 0.63271 0.5398 0.0
C2255 C 0.44106 0.61527 0.53007 0.0
C2256 C 0.42403 0.59078 0.53358 0.0
C2257 C 0.41896 0.58393 0.54674 0.0
C2258 C 0.43194 0.60199 0.55635 0.0
H2259 H 0.28904 0.76295 0.54159 0.0
H2260 H 0.27902 0.80816 0.56998 0.0
H2261 H 0.32419 0.83694 0.5704 0.0
H2262 H 0.33987 0.76588 0.55618 0.0
H2263 H 0.35549 0.76659 0.54143 0.0
H2264 H 0.32234 0.7521 0.5417 0.0
H2265 H 0.32433 0.78048 0.52306 0.0
H2266 H 0.35759 0.7951 0.52274 0.0
H2267 H 0.34329 0.8136 0.52477 0.0
H2268 H 0.37069 0.85785 0.56972 0.0
H2269 H 0.41445 0.8689 0.56809 0.0
H2270 H 0.39366 0.80866 0.54097 0.0
C2271 C 0.29626 0.77905 0.54779 0.0
C2272 C 0.28041 0.78328 0.55574 0.0
C2273 C 0.29069 0.80471 0.56364 0.0
C2274 C 0.31636 0.82113 0.56398 0.0
C2275 C 0.33149 0.81595 0.55631 0.0
C2276 C 0.32177 0.79547 0.54831 0.0
C2277 C 0.34198 0.7927 0.54195 0.0
C2278 C 0.33979 0.76786 0.54554 0.0
C2279 C 0.34178 0.79565 0.52726 0.0
C2280 C 0.36461 0.81432 0.54795 0.0
C2281 C 0.35823 0.82776 0.55605 0.0
C2282 C 0.37592 0.84764 0.56328 0.0
C2283 C 0.40069 0.85367 0.56236 0.0
C2284 C 0.40752 0.83971 0.55436 0.0
C2285 C 0.38919 0.82008 0.54692 0.0
H2286 H 0.23271 0.52323 0.54173 0.0
H2287 H 0.17746 0.462 0.56446 0.0
H2288 H 0.14991 0.47941 0.56306 0.0
H2289 H 0.22675 0.56852 0.55691 0.0
H2290 H 0.2314 0.58699 0.54277 0.0
H2291 H 0.2446 0.56744 0.54353 0.0
H2292 H 0.22218 0.5456 0.52236 0.0
H2293 H 0.20894 0.56521 0.5215 0.0
H2294 H 0.18911 0.53203 0.5212 0.0
H2295 H 0.13117 0.50668 0.5618 0.0
H2296 H 0.12312 0.54136 0.56097 0.0
H2297 H 0.19088 0.58465 0.53914 0.0
C2298 C 0.21465 0.51326 0.54624 0.0
C2299 C 0.20722 0.49128 0.55322 0.0
C2300 C 0.1834 0.4787 0.55893 0.0
C2301 C 0.16766 0.48848 0.5582 0.0
C2302 C 0.17593 0.51067 0.5516 0.0
C2303 C 0.19882 0.52277 0.54563 0.0
C2304 C 0.20448 0.54746 0.54022 0.0
C2305 C 0.2282 0.56885 0.54622 0.0
C2306 C 0.20627 0.54757 0.52544 0.0
C2307 C 0.18171 0.54793 0.54458 0.0
C2308 C 0.16521 0.52638 0.55092 0.0
C2309 C 0.14371 0.52342 0.55663 0.0
C2310 C 0.13925 0.54319 0.55607 0.0
C2311 C 0.15636 0.56569 0.54997 0.0
C2312 C 0.17749 0.56771 0.54389 0.0
H2313 H 0.20235 0.19229 0.02729 0.0
H2314 H 0.21534 0.26704 0.0294 0.0
H2315 H 0.22369 0.27188 0.00591 0.0
H2316 H 0.24914 0.2038 0.00354 0.0
H2317 H 0.23047 0.17454 0.99549 0.0
H2318 H 0.22628 0.17737 0.01247 0.0
H2319 H 0.17968 0.1613 0.0087 0.0
H2320 H 0.1837 0.15832 0.99173 0.0
H2321 H 0.17072 0.17668 0.99715 0.0
H2322 H 0.23084 0.26838 0.98219 0.0
H2323 H 0.23302 0.25575 0.95982 0.0
H2324 H 0.21451 0.18303 0.97344 0.0
C2325 C 0.20717 0.20975 0.02281 0.0
C2326 C 0.20842 0.22939 0.03011 0.0
C2327 C 0.21425 0.25178 0.02392 0.0
C2328 C 0.21915 0.25473 0.01063 0.0
C2329 C 0.21794 0.23503 0.00372 0.0
C2330 C 0.21187 0.2129 0.00959 0.0
C2331 C 0.21083 0.19423 -3e-05 0.0
C2332 C 0.23035 0.18707 0.00305 0.0
C2333 C 0.18468 0.17128 -0.00065 0.0
C2334 C 0.21718 0.20925 0.98773 0.0
C2335 C 0.22147 0.23282 0.99009 0.0
C2336 C 0.22756 0.24999 0.98023 0.0
C2337 C 0.22891 0.24273 0.96759 0.0
C2338 C 0.22397 0.21846 0.96495 0.0
C2339 C 0.21826 0.20166 0.97519 0.0
H2340 H 0.7967 0.02487 0.97332 0.0
H2341 H 0.74737 0.95044 0.95923 0.0
H2342 H 0.7372 0.93534 0.98165 0.0
H2343 H 0.82125 0.00862 -0.00067 0.0
H2344 H 0.82266 0.03178 0.01022 0.0
H2345 H 0.8247 0.037 0.9931 0.0
H2346 H 0.78757 0.04426 0.99424 0.0
H2347 H 0.78548 0.03915 0.01139 0.0
H2348 H 0.75883 0.02097 0.00134 0.0
H2349 H 0.73571 0.92775 0.00554 0.0
H2350 H 0.74062 0.92891 0.02927 0.0
H2351 H 0.78945 0.00848 0.0277 0.0
C2352 C 0.78356 0.00545 0.97498 0.0
C2353 C 0.77274 0.9888 0.96458 0.0
C2354 C 0.7556 0.96353 0.96709 0.0
C2355 C 0.7498 0.95478 0.97978 0.0
C2356 C 0.76108 0.97161 0.98982 0.0
C2357 C 0.77734 0.99647 0.98757 0.0
C2358 C 0.78733 0.01061 6e-05 0.0
C2359 C 0.81566 0.0227 0.00071 0.0
C2360 C 0.77931 0.02988 0.00186 0.0
C2361 C 0.7746 0.98973 0.00966 0.0
C2362 C 0.75957 0.96735 0.00358 0.0
C2363 C 0.7471 0.94521 0.01043 0.0
C2364 C 0.75006 0.946 0.02385 0.0
C2365 C 0.76513 0.9688 0.03023 0.0
C2366 C 0.7774 0.99089 0.02304 0.0
H2367 H 0.97514 0.75678 0.97621 0.0
H2368 H 0.05144 0.79846 0.96298 0.0
H2369 H 0.06564 0.80633 0.98545 0.0
H2370 H 0.98244 0.79809 0.0009 0.0
H2371 H 0.96161 0.77471 0.01204 0.0
H2372 H 0.9574 0.76909 0.99496 0.0
H2373 H 0.95954 0.72917 0.99768 0.0
H2374 H 0.96372 0.73464 0.0148 0.0
H2375 H 0.98593 0.73082 0.00553 0.0
H2376 H 0.07163 0.81313 0.00924 0.0
H2377 H 0.06878 0.81839 0.03265 0.0
H2378 H 0.98863 0.77461 0.03033 0.0
C2379 C 0.99485 0.76738 0.97799 0.0
C2380 C 0.0121 0.77672 0.96771 0.0
C2381 C 0.03776 0.79046 0.97058 0.0
C2382 C 0.04607 0.79522 0.98336 0.0
C2383 C 0.02854 0.78622 0.99321 0.0
C2384 C 0.00347 0.77255 0.99068 0.0
C2385 C 0.98843 0.76672 0.00298 0.0
C2386 C 0.97148 0.77782 0.0027 0.0
C2387 C 0.97353 0.73867 0.00539 0.0
C2388 C 0.00898 0.77974 0.01276 0.0
C2389 C 0.03198 0.79062 0.00694 0.0
C2390 C 0.05372 0.80455 0.01392 0.0
C2391 C 0.0519 0.8076 0.0272 0.0
C2392 C 0.02849 0.79694 0.03334 0.0
C2393 C 0.00682 0.78263 0.02599 0.0
H2394 H 0.89343 0.56992 0.30787 0.0
H2395 H 0.83155 0.49663 0.29965 0.0
H2396 H 0.81666 0.49323 0.32204 0.0
H2397 H 0.90478 0.55499 0.33962 0.0
H2398 H 0.91345 0.58482 0.3464 0.0
H2399 H 0.91841 0.58209 0.32952 0.0
H2400 H 0.89291 0.60279 0.3238 0.0
H2401 H 0.88769 0.60538 0.34068 0.0
H2402 H 0.86178 0.58968 0.32987 0.0
H2403 H 0.80822 0.49781 0.345 0.0
H2404 H 0.80937 0.50787 0.3681 0.0
H2405 H 0.87804 0.57719 0.36206 0.0
C2406 C 0.87675 0.55324 0.31085 0.0
C2407 C 0.86352 0.53353 0.30212 0.0
C2408 C 0.84191 0.51183 0.30627 0.0
C2409 C 0.83325 0.50982 0.31891 0.0
C2410 C 0.84661 0.52957 0.3273 0.0
C2411 C 0.86811 0.55071 0.32354 0.0
C2412 C 0.87971 0.56851 0.33474 0.0
C2413 C 0.90562 0.57285 0.33775 0.0
C2414 C 0.88056 0.59304 0.33211 0.0
C2415 C 0.86141 0.55401 0.34536 0.0
C2416 C 0.84225 0.53181 0.34078 0.0
C2417 C 0.82309 0.51516 0.34872 0.0
C2418 C 0.8238 0.52111 0.36179 0.0
C2419 C 0.84369 0.54336 0.36679 0.0
C2420 C 0.8626 0.5601 0.35844 0.0
H2421 H 0.4498 0.32058 0.30295 0.0
H2422 H 0.46163 0.39502 0.30139 0.0
H2423 H 0.45806 0.39516 0.3251 0.0
H2424 H 0.40401 0.29872 0.32892 0.0
H2425 H 0.41515 0.27997 0.33594 0.0
H2426 H 0.41791 0.28559 0.31883 0.0
H2427 H 0.46515 0.3028 0.32021 0.0
H2428 H 0.46258 0.29738 0.33732 0.0
H2429 H 0.48358 0.32789 0.33116 0.0
H2430 H 0.45524 0.38782 0.34907 0.0
H2431 H 0.45292 0.37348 0.3714 0.0
H2432 H 0.44037 0.30288 0.35701 0.0
C2433 C 0.45115 0.33677 0.30752 0.0
C2434 C 0.45598 0.35779 0.30026 0.0
C2435 C 0.45823 0.37879 0.30673 0.0
C2436 C 0.45605 0.37899 0.32019 0.0
C2437 C 0.45142 0.35797 0.32702 0.0
C2438 C 0.44883 0.3372 0.3209 0.0
C2439 C 0.44443 0.3172 0.33046 0.0
C2440 C 0.41885 0.294 0.32841 0.0
C2441 C 0.46518 0.31097 0.32974 0.0
C2442 C 0.44538 0.33013 0.34296 0.0
C2443 C 0.44933 0.35359 0.34078 0.0
C2444 C 0.45179 0.36935 0.35089 0.0
C2445 C 0.45028 0.36095 0.36355 0.0
C2446 C 0.44628 0.33695 0.36602 0.0
C2447 C 0.4436 0.32137 0.35551 0.0
H2448 H 0.66735 0.13909 0.35851 0.0
H2449 H 0.68115 0.07929 0.36657 0.0
H2450 H 0.67205 0.06571 0.34385 0.0
H2451 H 0.61747 0.1062 0.33659 0.0
H2452 H 0.62672 0.13232 0.3261 0.0
H2453 H 0.63424 0.13723 0.34299 0.0
H2454 H 0.68072 0.16539 0.33738 0.0
H2455 H 0.67332 0.16076 0.32048 0.0
H2456 H 0.69562 0.15372 0.327 0.0
H2457 H 0.66133 0.05877 0.32008 0.0
H2458 H 0.6508 0.05965 0.29721 0.0
H2459 H 0.64561 0.12495 0.30494 0.0
C2460 C 0.66881 0.12334 0.35549 0.0
C2461 C 0.675 0.11028 0.36434 0.0
C2462 C 0.67618 0.08944 0.36001 0.0
C2463 C 0.67115 0.08164 0.34711 0.0
C2464 C 0.66499 0.09491 0.33867 0.0
C2465 C 0.66393 0.11538 0.34269 0.0
C2466 C 0.65702 0.12654 0.33175 0.0
C2467 C 0.6324 0.1255 0.33453 0.0
C2468 C 0.67792 0.15318 0.32899 0.0
C2469 C 0.65435 0.10916 0.32092 0.0
C2470 C 0.65896 0.09099 0.32508 0.0
C2471 C 0.65773 0.07295 0.31672 0.0
C2472 C 0.65183 0.07365 0.30374 0.0
C2473 C 0.64725 0.09228 0.29928 0.0
C2474 C 0.6485 0.11015 0.30806 0.0
H2475 H 0.52437 0.84729 0.63521 0.0
H2476 H 0.59991 0.90572 0.62763 0.0
H2477 H 0.60432 0.91877 0.65044 0.0
H2478 H 0.50862 0.8807 0.65706 0.0
H2479 H 0.49046 0.8547 0.6675 0.0
H2480 H 0.49331 0.84966 0.65064 0.0
H2481 H 0.50986 0.82049 0.65638 0.0
H2482 H 0.50672 0.82517 0.67326 0.0
H2483 H 0.53616 0.83143 0.66694 0.0
H2484 H 0.60002 0.92599 0.674 0.0
H2485 H 0.58809 0.92543 0.69678 0.0
H2486 H 0.51597 0.86122 0.68887 0.0
C2487 C 0.54201 0.86256 0.63836 0.0
C2488 C 0.56179 0.87549 0.62961 0.0
C2489 C 0.58439 0.8957 0.63412 0.0
C2490 C 0.5871 0.9032 0.64706 0.0
C2491 C 0.56709 0.89025 0.65537 0.0
C2492 C 0.54506 0.87022 0.65122 0.0
C2493 C 0.52637 0.85941 0.66207 0.0
C2494 C 0.50334 0.86124 0.65914 0.0
C2495 C 0.51938 0.83254 0.66483 0.0
C2496 C 0.5413 0.87653 0.67296 0.0
C2497 C 0.5647 0.89425 0.66891 0.0
C2498 C 0.58179 0.91211 0.6773 0.0
C2499 C 0.57486 0.9116 0.69022 0.0
C2500 C 0.55109 0.8933 0.69462 0.0
C2501 C 0.53412 0.87571 0.68579 0.0
H2502 H 0.13784 0.69254 0.64152 0.0
H2503 H 0.07669 0.62149 0.6291 0.0
H2504 H 0.06806 0.6078 0.65173 0.0
H2505 H 0.15975 0.66867 0.66555 0.0
H2506 H 0.16844 0.69392 0.67667 0.0
H2507 H 0.16846 0.69901 0.65961 0.0
H2508 H 0.13884 0.71598 0.6631 0.0
H2509 H 0.13877 0.71101 0.68019 0.0
H2510 H 0.10996 0.69733 0.67149 0.0
H2511 H 0.06768 0.60083 0.67556 0.0
H2512 H 0.07508 0.60151 0.69895 0.0
H2513 H 0.13744 0.67648 0.69567 0.0
C2514 C 0.12256 0.67414 0.64354 0.0
C2515 C 0.10786 0.65817 0.6335 0.0
C2516 C 0.08793 0.63427 0.63661 0.0
C2517 C 0.08297 0.62624 0.64944 0.0
C2518 C 0.09808 0.64231 0.65906 0.0
C2519 C 0.11741 0.66578 0.65628 0.0
C2520 C 0.1315 0.67905 0.66834 0.0
C2521 C 0.15864 0.68553 0.66748 0.0
C2522 C 0.12964 0.70221 0.67093 0.0
C2523 C 0.11728 0.65922 0.67831 0.0
C2524 C 0.09801 0.63822 0.67278 0.0
C2525 C 0.08266 0.61721 0.68001 0.0
C2526 C 0.08713 0.61771 0.69327 0.0
C2527 C 0.10684 0.63903 0.69915 0.0
C2528 C 0.122 0.66004 0.69151 0.0
H2529 H 0.34457 0.46893 0.63616 0.0
H2530 H 0.28438 0.39268 0.63494 0.0
H2531 H 0.28769 0.38952 0.65857 0.0
H2532 H 0.38085 0.46159 0.661 0.0
H2533 H 0.38995 0.49104 0.66841 0.0
H2534 H 0.38358 0.48674 0.65138 0.0
H2535 H 0.35117 0.50047 0.65404 0.0
H2536 H 0.35744 0.50482 0.67106 0.0
H2537 H 0.32627 0.48467 0.66547 0.0
H2538 H 0.29756 0.39501 0.68231 0.0
H2539 H 0.3113 0.40939 0.7046 0.0
H2540 H 0.36426 0.48245 0.6902 0.0
C2541 C 0.33233 0.45148 0.64086 0.0
C2542 C 0.31439 0.43094 0.63379 0.0
C2543 C 0.29824 0.40858 0.64025 0.0
C2544 C 0.30008 0.40661 0.65362 0.0
C2545 C 0.318 0.42725 0.66033 0.0
C2546 C 0.33372 0.4493 0.65418 0.0
C2547 C 0.35054 0.4691 0.66366 0.0
C2548 C 0.37785 0.47761 0.66095 0.0
C2549 C 0.34608 0.49105 0.66355 0.0
C2550 C 0.3418 0.45478 0.67613 0.0
C2551 C 0.3232 0.4306 0.674 0.0
C2552 C 0.31215 0.41387 0.68409 0.0
C2553 C 0.32016 0.42215 0.69669 0.0
C2554 C 0.33886 0.44699 0.69908 0.0
C2555 C 0.34985 0.4634 0.68864 0.0
loop_
_geom_bond_atom_site_label_1
_geom_bond_atom_site_label_2
_geom_bond_distance
_geom_bond_site_symmetry_2
_ccdc_geom_bond_type
Li0 N17 1.990 . S
Li0 O60 1.956 . S
Li0 O61 1.970 . S
Li0 O62 1.961 . S
Li1 N25 1.990 . S
Li1 O60 1.970 . S
Li1 O61 1.956 . S
Li1 O63 1.961 . S
Li2 N47 1.990 . S
Li2 O60 1.961 . S
Li2 O62 1.956 . S
Li2 O63 1.970 . S
Li3 N53 1.990 . S
Li3 O61 1.961 . S
Li3 O62 1.970 . S
Li3 O63 1.956 . S
C4 C6 1.348 . S
C4 C7 1.356 . S
C4 O60 1.325 . S
N5 C8 1.314 . S
N5 C9 1.279 . S
C6 C4 1.348 . S
C6 C8 1.353 . S
C6 H64 0.929 . S
C7 C4 1.356 . S
C7 C9 1.358 . S
C7 H65 0.930 . S
C8 N5 1.314 . S
C8 C6 1.353 . S
C8 H66 0.930 . S
C9 N5 1.279 . S
C9 C7 1.358 . S
C9 H67 0.930 . S
C10 C13 1.348 . S
C10 C14 1.356 . S
C10 O61 1.325 . S
C11 N12 1.279 . S
C11 C14 1.358 . S
C11 H68 0.930 . S
N12 C11 1.279 . S
N12 C15 1.314 . S
C13 C10 1.348 . S
C13 C15 1.353 . S
C13 H69 0.929 . S
C14 C10 1.356 . S
C14 C11 1.358 . S
C14 H70 0.930 . S
C15 N12 1.314 . S
C15 C13 1.353 . S
C15 H71 0.930 . S
C16 N17 1.314 . S
C16 C21 1.353 . S
C16 H22 0.930 . S
N17 Li0 1.990 . S
N17 C16 1.314 . S
N17 C19 1.279 . S
C18 C19 1.358 . S
C18 C20 1.356 . S
C18 H72 0.930 . S
C19 N17 1.279 . S
C19 C18 1.358 . S
C19 H23 0.930 . S
C20 C18 1.356 . S
C20 C21 1.348 . S
C21 C16 1.353 . S
C21 C20 1.348 . S
C21 H73 0.929 . S
H22 C16 0.930 . S
H23 C19 0.930 . S
C24 N25 1.314 . S
C24 C26 1.353 . S
C24 H30 0.930 . S
N25 Li1 1.990 . S
N25 C24 1.314 . S
N25 C28 1.279 . S
C26 C24 1.353 . S
C26 C29 1.348 . S
C26 H74 0.929 . S
C27 C28 1.358 . S
C27 C29 1.356 . S
C27 H75 0.930 . S
C28 N25 1.279 . S
C28 C27 1.358 . S
C28 H31 0.930 . S
C29 C26 1.348 . S
C29 C27 1.356 . S
H30 C24 0.930 . S
H31 C28 0.930 . S
C32 C34 1.348 . S
C32 C35 1.356 . S
C32 O62 1.325 . S
N33 C36 1.314 . S
N33 C37 1.279 . S
C34 C32 1.348 . S
C34 C36 1.353 . S
C34 H76 0.929 . S
C35 C32 1.356 . S
C35 C37 1.358 . S
C35 H77 0.930 . S
C36 N33 1.314 . S
C36 C34 1.353 . S
C36 H78 0.930 . S
C37 N33 1.279 . S
C37 C35 1.358 . S
C37 H79 0.930 . S
C38 C39 1.348 . S
C38 C40 1.356 . S
C38 O63 1.325 . S
C39 C38 1.348 . S
C39 C41 1.353 . S
C39 H80 0.929 . S
C40 C38 1.356 . S
C40 C42 1.358 . S
C40 H81 0.930 . S
C41 C39 1.353 . S
C41 N43 1.314 . S
C41 H82 0.930 . S
C42 C40 1.358 . S
C42 N43 1.279 . S
C42 H83 0.930 . S
N43 C41 1.314 . S
N43 C42 1.279 . S
C44 C46 1.353 . S
C44 N47 1.314 . S
C44 H50 0.930 . S
C45 N47 1.279 . S
C45 C48 1.358 . S
C45 H51 0.930 . S
C46 C44 1.353 . S
C46 C49 1.348 . S
C46 H84 0.929 . S
N47 Li2 1.990 . S
N47 C44 1.314 . S
N47 C45 1.279 . S
C48 C45 1.358 . S
C48 C49 1.356 . S
C48 H85 0.930 . S
C49 C46 1.348 . S
C49 C48 1.356 . S
H50 C44 0.930 . S
H51 C45 0.930 . S
C52 N53 1.314 . S
C52 C54 1.353 . S
C52 H58 0.930 . S
N53 Li3 1.990 . S
N53 C52 1.314 . S
N53 C56 1.279 . S
C54 C52 1.353 . S
C54 C57 1.348 . S
C54 H86 0.929 . S
C55 C56 1.358 . S
C55 C57 1.356 . S
C55 H87 0.930 . S
C56 N53 1.279 . S
C56 C55 1.358 . S
C56 H59 0.930 . S
C57 C54 1.348 . S
C57 C55 1.356 . S
H58 C52 0.930 . S
H59 C56 0.930 . S
O60 Li0 1.956 . S
O60 Li1 1.970 . S
O60 Li2 1.961 . S
O60 C4 1.325 . S
O61 Li0 1.970 . S
O61 Li1 1.956 . S
O61 Li3 1.961 . S
O61 C10 1.325 . S
O62 Li0 1.961 . S
O62 Li2 1.956 . S
O62 Li3 1.970 . S
O62 C32 1.325 . S
O63 Li1 1.961 . S
O63 Li2 1.970 . S
O63 Li3 1.956 . S
O63 C38 1.325 . S
H64 C6 0.929 . S
H65 C7 0.930 . S
H66 C8 0.930 . S
H67 C9 0.930 . S
H68 C11 0.930 . S
H69 C13 0.929 . S
H70 C14 0.930 . S
H71 C15 0.930 . S
H72 C18 0.930 . S
H73 C21 0.929 . S
H74 C26 0.929 . S
H75 C27 0.930 . S
H76 C34 0.929 . S
H77 C35 0.930 . S
H78 C36 0.930 . S
H79 C37 0.930 . S
H80 C39 0.929 . S
H81 C40 0.930 . S
H82 C41 0.930 . S
H83 C42 0.930 . S
H84 C46 0.929 . S
H85 C48 0.930 . S
H86 C54 0.929 . S
H87 C55 0.930 . S
Li88 N105 1.990 . S
Li88 O148 1.956 1_545 S
Li88 O149 1.970 . S
Li88 O150 1.961 . S
Li89 N113 1.990 . S
Li89 O148 1.970 . S
Li89 O149 1.956 1_565 S
Li89 O151 1.961 . S
Li90 N135 1.991 . S
Li90 O148 1.968 . S
Li90 O150 1.948 1_565 S
Li90 O151 1.975 . S
Li91 N141 1.990 . S
Li91 O149 1.961 . S
Li91 O150 1.970 . S
Li91 O151 1.956 1_545 S
C92 C94 1.348 . S
C92 C95 1.356 1_565 S
C92 O148 1.325 . S
N93 C96 1.314 . S
N93 C97 1.279 1_565 S
C94 C92 1.348 . S
C94 C96 1.353 . S
C94 H152 0.929 . S
C95 C92 1.356 1_545 S
C95 C97 1.358 . S
C95 H153 0.930 . S
C96 N93 1.314 . S
C96 C94 1.353 . S
C96 H154 0.930 . S
C97 N93 1.279 1_545 S
C97 C95 1.358 . S
C97 H155 0.930 . S
C98 C101 1.348 . S
C98 C102 1.356 1_545 S
C98 O149 1.325 . S
C99 N100 1.279 1_565 S
C99 C102 1.358 . S
C99 H156 0.930 . S
N100 C99 1.279 1_545 S
N100 C103 1.314 . S
C101 C98 1.348 . S
C101 C103 1.353 . S
C101 H157 0.929 . S
C102 C98 1.356 1_565 S
C102 C99 1.358 . S
C102 H158 0.930 . S
C103 N100 1.314 . S
C103 C101 1.353 . S
C103 H159 0.930 . S
C104 N105 1.314 . S
C104 C109 1.353 . S
C104 H110 0.930 . S
N105 Li88 1.990 . S
N105 C104 1.314 . S
N105 C107 1.279 . S
C106 C107 1.358 . S
C106 C108 1.356 . S
C106 H160 0.930 . S
C107 N105 1.279 . S
C107 C106 1.358 . S
C107 H111 0.930 . S
C108 C106 1.356 . S
C108 C109 1.348 . S
C109 C104 1.353 . S
C109 C108 1.348 . S
C109 H161 0.929 . S
H110 C104 0.930 . S
H111 C107 0.930 . S
C112 N113 1.314 . S
C112 C114 1.353 . S
C112 H118 0.930 . S
N113 Li89 1.990 . S
N113 C112 1.314 . S
N113 C116 1.279 . S
C114 C112 1.353 . S
C114 C117 1.348 . S
C114 H162 0.929 . S
C115 C116 1.358 . S
C115 C117 1.356 . S
C115 H163 0.930 . S
C116 N113 1.279 . S
C116 C115 1.358 . S
C116 H119 0.930 . S
C117 C114 1.348 . S
C117 C115 1.356 . S
H118 C112 0.930 . S
H119 C116 0.930 . S
C120 C122 1.348 . S
C120 C123 1.356 . S
C120 O150 1.325 . S
N121 C124 1.314 . S
N121 C125 1.279 . S
C122 C120 1.348 . S
C122 C124 1.353 . S
C122 H164 0.929 . S
C123 C120 1.356 . S
C123 C125 1.358 . S
C123 H165 0.930 . S
C124 N121 1.314 . S
C124 C122 1.353 . S
C124 H166 0.930 . S
C125 N121 1.279 . S
C125 C123 1.358 . S
C125 H167 0.930 . S
C126 C127 1.348 . S
C126 C128 1.356 . S
C126 O151 1.325 . S
C127 C126 1.348 . S
C127 C129 1.353 . S
C127 H168 0.929 . S
C128 C126 1.356 . S
C128 C130 1.358 . S
C128 H169 0.930 . S
C129 C127 1.353 . S
C129 N131 1.314 . S
C129 H170 0.930 . S
C130 C128 1.358 . S
C130 N131 1.279 . S
C130 H171 0.930 . S
N131 C129 1.314 . S
N131 C130 1.279 . S
C132 C134 1.353 . S
C132 N135 1.326 . S
C132 H138 0.930 . S
C133 N135 1.266 1_545 S
C133 C136 1.358 . S
C133 H139 0.930 . S
C134 C132 1.353 . S
C134 C137 1.348 . S
C134 H172 0.929 . S
N135 Li90 1.991 . S
N135 C132 1.326 . S
N135 C133 1.266 1_565 S
C136 C133 1.358 . S
C136 C137 1.356 1_545 S
C136 H173 0.930 . S
C137 C134 1.348 . S
C137 C136 1.356 1_565 S
H138 C132 0.930 . S
H139 C133 0.930 . S
C140 N141 1.314 . S
C140 C142 1.353 . S
C140 H146 0.930 . S
N141 Li91 1.990 . S
N141 C140 1.314 . S
N141 C144 1.279 1_545 S
C142 C140 1.353 . S
C142 C145 1.348 . S
C142 H174 0.929 . S
C143 C144 1.371 . S
C143 C145 1.342 1_565 S
C143 H175 0.931 . S
C144 N141 1.279 1_565 S
C144 C143 1.371 . S
C144 H147 0.930 . S
C145 C142 1.348 . S
C145 C143 1.342 1_545 S
H146 C140 0.930 . S
H147 C144 0.930 . S
O148 Li88 1.956 1_565 S
O148 Li89 1.970 . S
O148 Li90 1.968 . S
O148 C92 1.325 . S
O149 Li88 1.970 . S
O149 Li89 1.956 1_545 S
O149 Li91 1.961 . S
O149 C98 1.325 . S
O150 Li88 1.961 . S
O150 Li90 1.948 1_545 S
O150 Li91 1.970 . S
O150 C120 1.325 . S
O151 Li89 1.961 . S
O151 Li90 1.975 . S
O151 Li91 1.956 1_565 S
O151 C126 1.325 . S
H152 C94 0.929 . S
H153 C95 0.930 . S
H154 C96 0.930 . S
H155 C97 0.930 . S
H156 C99 0.930 . S
H157 C101 0.929 . S
H158 C102 0.930 . S
H159 C103 0.930 . S
H160 C106 0.930 . S
H161 C109 0.929 . S
H162 C114 0.929 . S
H163 C115 0.930 . S
H164 C122 0.929 . S
H165 C123 0.930 . S
H166 C124 0.930 . S
H167 C125 0.930 . S
H168 C127 0.929 . S
H169 C128 0.930 . S
H170 C129 0.930 . S
H171 C130 0.930 . S
H172 C134 0.929 . S
H173 C136 0.930 . S
H174 C142 0.929 . S
H175 C143 0.931 . S
Li176 N193 1.990 . S
Li176 O236 1.956 1_655 S
Li176 O237 1.970 . S
Li176 O238 1.961 . S
Li177 N201 1.990 . S
Li177 O236 1.970 . S
Li177 O237 1.956 1_455 S
Li177 O239 1.961 . S
Li178 N223 1.990 . S
Li178 O236 1.958 . S
Li178 O238 1.951 1_455 S
Li178 O239 1.977 . S
Li179 N229 1.990 . S
Li179 O237 1.961 . S
Li179 O238 1.970 . S
Li179 O239 1.956 1_655 S
C180 C182 1.348 . S
C180 C183 1.356 1_455 S
C180 O236 1.325 . S
N181 C184 1.314 . S
N181 C185 1.279 1_455 S
C182 C180 1.348 . S
C182 C184 1.353 . S
C182 H240 0.929 . S
C183 C180 1.356 1_655 S
C183 C185 1.358 . S
C183 H241 0.930 . S
C184 N181 1.314 . S
C184 C182 1.353 . S
C184 H242 0.930 . S
C185 N181 1.279 1_655 S
C185 C183 1.358 . S
C185 H243 0.930 . S
C186 C189 1.348 . S
C186 C190 1.356 1_655 S
C186 O237 1.325 . S
C187 N188 1.279 1_455 S
C187 C190 1.358 . S
C187 H244 0.930 . S
N188 C187 1.279 1_655 S
N188 C191 1.314 . S
C189 C186 1.348 . S
C189 C191 1.353 . S
C189 H245 0.929 . S
C190 C186 1.356 1_455 S
C190 C187 1.358 . S
C190 H246 0.930 . S
C191 N188 1.314 . S
C191 C189 1.353 . S
C191 H247 0.930 . S
C192 N193 1.314 . S
C192 C197 1.353 . S
C192 H198 0.930 . S
N193 Li176 1.990 . S
N193 C192 1.314 . S
N193 C195 1.279 . S
C194 C195 1.358 . S
C194 C196 1.356 . S
C194 H248 0.930 . S
C195 N193 1.279 . S
C195 C194 1.358 . S
C195 H199 0.930 . S
C196 C194 1.356 . S
C196 C197 1.348 . S
C197 C192 1.353 . S
C197 C196 1.348 . S
C197 H249 0.929 . S
H198 C192 0.930 . S
H199 C195 0.930 . S
C200 N201 1.314 . S
C200 C202 1.353 . S
C200 H206 0.930 . S
N201 Li177 1.990 . S
N201 C200 1.314 . S
N201 C204 1.279 . S
C202 C200 1.353 . S
C202 C205 1.348 . S
C202 H250 0.929 . S
C203 C204 1.358 . S
C203 C205 1.356 . S
C203 H251 0.930 . S
C204 N201 1.279 . S
C204 C203 1.358 . S
C204 H207 0.930 . S
C205 C202 1.348 . S
C205 C203 1.356 . S
H206 C200 0.930 . S
H207 C204 0.930 . S
C208 C210 1.348 . S
C208 C211 1.356 . S
C208 O238 1.325 . S
N209 C212 1.314 . S
N209 C213 1.279 . S
C210 C208 1.348 . S
C210 C212 1.353 . S
C210 H252 0.929 . S
C211 C208 1.356 . S
C211 C213 1.358 . S
C211 H253 0.930 . S
C212 N209 1.314 . S
C212 C210 1.353 . S
C212 H254 0.930 . S
C213 N209 1.279 . S
C213 C211 1.358 . S
C213 H255 0.930 . S
C214 C215 1.348 . S
C214 C216 1.356 . S
C214 O239 1.325 . S
C215 C214 1.348 . S
C215 C217 1.353 . S
C215 H256 0.929 . S
C216 C214 1.356 . S
C216 C218 1.358 . S
C216 H257 0.930 . S
C217 C215 1.353 . S
C217 N219 1.314 . S
C217 H258 0.930 . S
C218 C216 1.358 . S
C218 N219 1.279 . S
C218 H259 0.930 . S
N219 C217 1.314 . S
N219 C218 1.279 . S
C220 C222 1.353 . S
C220 N223 1.319 . S
C220 H226 0.930 . S
C221 N223 1.277 1_655 S
C221 C224 1.358 . S
C221 H227 0.930 . S
C222 C220 1.353 . S
C222 C225 1.348 . S
C222 H260 0.929 . S
N223 Li178 1.990 . S
N223 C220 1.319 . S
N223 C221 1.277 1_455 S
C224 C221 1.358 . S
C224 C225 1.356 1_655 S
C224 H261 0.930 . S
C225 C222 1.348 . S
C225 C224 1.356 1_455 S
H226 C220 0.930 . S
H227 C221 0.930 . S
C228 N229 1.314 . S
C228 C230 1.353 . S
C228 H234 0.930 . S
N229 Li179 1.990 . S
N229 C228 1.314 . S
N229 C232 1.279 1_655 S
C230 C228 1.353 . S
C230 C233 1.348 . S
C230 H262 0.929 . S
C231 C232 1.363 1_655 S
C231 C233 1.367 . S
C231 H263 0.914 1_655 S
C232 N229 1.279 1_455 S
C232 C231 1.363 1_455 S
C232 H235 0.930 . S
C233 C230 1.348 . S
C233 C231 1.367 . S
H234 C228 0.930 . S
H235 C232 0.930 . S
O236 Li176 1.956 1_455 S
O236 Li177 1.970 . S
O236 Li178 1.958 . S
O236 C180 1.325 . S
O237 Li176 1.970 . S
O237 Li177 1.956 1_655 S
O237 Li179 1.961 . S
O237 C186 1.325 . S
O238 Li176 1.961 . S
O238 Li178 1.951 1_655 S
O238 Li179 1.970 . S
O238 C208 1.325 . S
O239 Li177 1.961 . S
O239 Li178 1.977 . S
O239 Li179 1.956 1_455 S
O239 C214 1.325 . S
H240 C182 0.929 . S
H241 C183 0.930 . S
H242 C184 0.930 . S
H243 C185 0.930 . S
H244 C187 0.930 . S
H245 C189 0.929 . S
H246 C190 0.930 . S
H247 C191 0.930 . S
H248 C194 0.930 . S
H249 C197 0.929 . S
H250 C202 0.929 . S
H251 C203 0.930 . S
H252 C210 0.929 . S
H253 C211 0.930 . S
H254 C212 0.930 . S
H255 C213 0.930 . S
H256 C215 0.929 . S
H257 C216 0.930 . S
H258 C217 0.930 . S
H259 C218 0.930 . S
H260 C222 0.929 . S
H261 C224 0.930 . S
H262 C230 0.929 . S
H263 C231 0.914 1_455 S
Li264 N281 1.990 . S
Li264 O324 1.956 . S
Li264 O325 1.970 . S
Li264 O326 1.961 . S
Li265 N289 1.990 . S
Li265 O324 1.970 . S
Li265 O325 1.956 . S
Li265 O327 1.961 . S
Li266 N311 1.990 . S
Li266 O324 1.961 . S
Li266 O326 1.956 . S
Li266 O327 1.970 . S
Li267 N317 1.990 . S
Li267 O325 1.961 . S
Li267 O326 1.970 . S
Li267 O327 1.956 . S
C268 C270 1.348 . S
C268 C271 1.356 . S
C268 O324 1.325 . S
N269 C272 1.314 . S
N269 C273 1.279 . S
C270 C268 1.348 . S
C270 C272 1.353 . S
C270 H328 0.929 . S
C271 C268 1.356 . S
C271 C273 1.358 . S
C271 H329 0.930 . S
C272 N269 1.314 . S
C272 C270 1.353 . S
C272 H330 0.930 . S
C273 N269 1.279 . S
C273 C271 1.358 . S
C273 H331 0.930 . S
C274 C277 1.348 . S
C274 C278 1.356 . S
C274 O325 1.325 . S
C275 N276 1.279 . S
C275 C278 1.358 . S
C275 H332 0.930 . S
N276 C275 1.279 . S
N276 C279 1.314 . S
C277 C274 1.348 . S
C277 C279 1.353 . S
C277 H333 0.929 . S
C278 C274 1.356 . S
C278 C275 1.358 . S
C278 H334 0.930 . S
C279 N276 1.314 . S
C279 C277 1.353 . S
C279 H335 0.930 . S
C280 N281 1.314 . S
C280 C285 1.353 . S
C280 H286 0.930 . S
N281 Li264 1.990 . S
N281 C280 1.314 . S
N281 C283 1.279 . S
C282 C283 1.358 . S
C282 C284 1.356 . S
C282 H336 0.930 . S
C283 N281 1.279 . S
C283 C282 1.358 . S
C283 H287 0.930 . S
C284 C282 1.356 . S
C284 C285 1.348 . S
C285 C280 1.353 . S
C285 C284 1.348 . S
C285 H337 0.929 . S
H286 C280 0.930 . S
H287 C283 0.930 . S
C288 N289 1.314 . S
C288 C290 1.353 . S
C288 H294 0.930 . S
N289 Li265 1.990 . S
N289 C288 1.314 . S
N289 C292 1.279 . S
C290 C288 1.353 . S
C290 C293 1.348 . S
C290 H338 0.929 . S
C291 C292 1.358 . S
C291 C293 1.356 . S
C291 H339 0.930 . S
C292 N289 1.279 . S
C292 C291 1.358 . S
C292 H295 0.930 . S
C293 C290 1.348 . S
C293 C291 1.356 . S
H294 C288 0.930 . S
H295 C292 0.930 . S
C296 C298 1.348 . S
C296 C299 1.356 . S
C296 O326 1.325 . S
N297 C300 1.314 . S
N297 C301 1.279 . S
C298 C296 1.348 . S
C298 C300 1.353 . S
C298 H340 0.929 . S
C299 C296 1.356 . S
C299 C301 1.358 . S
C299 H341 0.930 . S
C300 N297 1.314 . S
C300 C298 1.353 . S
C300 H342 0.930 . S
C301 N297 1.279 . S
C301 C299 1.358 . S
C301 H343 0.930 . S
C302 C303 1.348 . S
C302 C304 1.356 . S
C302 O327 1.325 . S
C303 C302 1.348 . S
C303 C305 1.353 . S
C303 H344 0.929 . S
C304 C302 1.356 . S
C304 C306 1.358 . S
C304 H345 0.930 . S
C305 C303 1.353 . S
C305 N307 1.314 . S
C305 H346 0.930 . S
C306 C304 1.358 . S
C306 N307 1.279 . S
C306 H347 0.930 . S
N307 C305 1.314 . S
N307 C306 1.279 . S
C308 C310 1.353 . S
C308 N311 1.314 . S
C308 H314 0.930 . S
C309 N311 1.279 . S
C309 C312 1.358 . S
C309 H315 0.930 . S
C310 C308 1.353 . S
C310 C313 1.348 . S
C310 H348 0.929 . S
N311 Li266 1.990 . S
N311 C308 1.314 . S
N311 C309 1.279 . S
C312 C309 1.358 . S
C312 C313 1.356 . S
C312 H349 0.930 . S
C313 C310 1.348 . S
C313 C312 1.356 . S
H314 C308 0.930 . S
H315 C309 0.930 . S
C316 N317 1.314 . S
C316 C318 1.353 . S
C316 H322 0.930 . S
N317 Li267 1.990 . S
N317 C316 1.314 . S
N317 C320 1.279 . S
C318 C316 1.353 . S
C318 C321 1.348 . S
C318 H350 0.929 . S
C319 C320 1.358 . S
C319 C321 1.356 . S
C319 H351 0.930 . S
C320 N317 1.279 . S
C320 C319 1.358 . S
C320 H323 0.930 . S
C321 C318 1.348 . S
C321 C319 1.356 . S
H322 C316 0.930 . S
H323 C320 0.930 . S
O324 Li264 1.956 . S
O324 Li265 1.970 . S
O324 Li266 1.961 . S
O324 C268 1.325 . S
O325 Li264 1.970 . S
O325 Li265 1.956 . S
O325 Li267 1.961 . S
O325 C274 1.325 . S
O326 Li264 1.961 . S
O326 Li266 1.956 . S
O326 Li267 1.970 . S
O326 C296 1.325 . S
O327 Li265 1.961 . S
O327 Li266 1.970 . S
O327 Li267 1.956 . S
O327 C302 1.325 . S
H328 C270 0.929 . S
H329 C271 0.930 . S
H330 C272 0.930 . S
H331 C273 0.930 . S
H332 C275 0.930 . S
H333 C277 0.929 . S
H334 C278 0.930 . S
H335 C279 0.930 . S
H336 C282 0.930 . S
H337 C285 0.929 . S
H338 C290 0.929 . S
H339 C291 0.930 . S
H340 C298 0.929 . S
H341 C299 0.930 . S
H342 C300 0.930 . S
H343 C301 0.930 . S
H344 C303 0.929 . S
H345 C304 0.930 . S
H346 C305 0.930 . S
H347 C306 0.930 . S
H348 C310 0.929 . S
H349 C312 0.930 . S
H350 C318 0.929 . S
H351 C319 0.930 . S
Li352 N369 1.990 . S
Li352 O412 1.956 1_565 S
Li352 O413 1.970 . S
Li352 O414 1.961 . S
Li353 N377 1.990 . S
Li353 O412 1.977 . S
Li353 O413 1.951 1_545 S
Li353 O415 1.958 . S
Li354 N399 1.990 . S
Li354 O412 1.961 . S
Li354 O414 1.956 1_545 S
Li354 O415 1.970 . S
Li355 N405 1.990 . S
Li355 O413 1.961 . S
Li355 O414 1.970 . S
Li355 O415 1.956 1_565 S
C356 C358 1.348 . S
C356 C359 1.356 . S
C356 O412 1.325 . S
N357 C360 1.314 . S
N357 C361 1.279 . S
C358 C356 1.348 . S
C358 C360 1.353 . S
C358 H416 0.929 . S
C359 C356 1.356 . S
C359 C361 1.358 . S
C359 H417 0.930 . S
C360 N357 1.314 . S
C360 C358 1.353 . S
C360 H418 0.930 . S
C361 N357 1.279 . S
C361 C359 1.358 . S
C361 H419 0.930 . S
C362 C365 1.348 . S
C362 C366 1.356 . S
C362 O413 1.325 . S
C363 N364 1.279 . S
C363 C366 1.358 . S
C363 H420 0.930 . S
N364 C363 1.279 . S
N364 C367 1.314 . S
C365 C362 1.348 . S
C365 C367 1.353 . S
C365 H421 0.929 . S
C366 C362 1.356 . S
C366 C363 1.358 . S
C366 H422 0.930 . S
C367 N364 1.314 . S
C367 C365 1.353 . S
C367 H423 0.930 . S
C368 N369 1.314 . S
C368 C373 1.353 . S
C368 H374 0.930 . S
N369 Li352 1.990 . S
N369 C368 1.314 . S
N369 C371 1.279 1_565 S
C370 C371 1.363 1_565 S
C370 C372 1.367 . S
C370 H424 0.914 1_565 S
C371 N369 1.279 1_545 S
C371 C370 1.363 1_545 S
C371 H375 0.930 . S
C372 C370 1.367 . S
C372 C373 1.348 . S
C373 C368 1.353 . S
C373 C372 1.348 . S
C373 H425 0.929 . S
H374 C368 0.930 . S
H375 C371 0.930 . S
C376 N377 1.319 . S
C376 C378 1.353 . S
C376 H382 0.930 . S
N377 Li353 1.990 . S
N377 C376 1.319 . S
N377 C380 1.277 1_545 S
C378 C376 1.353 . S
C378 C381 1.348 . S
C378 H426 0.929 . S
C379 C380 1.358 . S
C379 C381 1.356 1_565 S
C379 H427 0.930 . S
C380 N377 1.277 1_565 S
C380 C379 1.358 . S
C380 H383 0.930 . S
C381 C378 1.348 . S
C381 C379 1.356 1_545 S
H382 C376 0.930 . S
H383 C380 0.930 . S
C384 C386 1.348 . S
C384 C387 1.356 1_565 S
C384 O414 1.325 . S
N385 C388 1.314 . S
N385 C389 1.279 1_565 S
C386 C384 1.348 . S
C386 C388 1.353 . S
C386 H428 0.929 . S
C387 C384 1.356 1_545 S
C387 C389 1.358 . S
C387 H429 0.930 . S
C388 N385 1.314 . S
C388 C386 1.353 . S
C388 H430 0.930 . S
C389 N385 1.279 1_545 S
C389 C387 1.358 . S
C389 H431 0.930 . S
C390 C391 1.348 . S
C390 C392 1.356 1_545 S
C390 O415 1.325 . S
C391 C390 1.348 . S
C391 C393 1.353 . S
C391 H432 0.929 . S
C392 C390 1.356 1_565 S
C392 C394 1.358 . S
C392 H433 0.930 . S
C393 C391 1.353 . S
C393 N395 1.314 . S
C393 H434 0.930 . S
C394 C392 1.358 . S
C394 N395 1.279 1_565 S
C394 H435 0.930 . S
N395 C393 1.314 . S
N395 C394 1.279 1_545 S
C396 C398 1.353 . S
C396 N399 1.314 . S
C396 H402 0.930 . S
C397 N399 1.279 . S
C397 C400 1.358 . S
C397 H403 0.930 . S
C398 C396 1.353 . S
C398 C401 1.348 . S
C398 H436 0.929 . S
N399 Li354 1.990 . S
N399 C396 1.314 . S
N399 C397 1.279 . S
C400 C397 1.358 . S
C400 C401 1.356 . S
C400 H437 0.930 . S
C401 C398 1.348 . S
C401 C400 1.356 . S
H402 C396 0.930 . S
H403 C397 0.930 . S
C404 N405 1.314 . S
C404 C406 1.353 . S
C404 H410 0.930 . S
N405 Li355 1.990 . S
N405 C404 1.314 . S
N405 C408 1.279 . S
C406 C404 1.353 . S
C406 C409 1.348 . S
C406 H438 0.929 . S
C407 C408 1.358 . S
C407 C409 1.356 . S
C407 H439 0.930 . S
C408 N405 1.279 . S
C408 C407 1.358 . S
C408 H411 0.930 . S
C409 C406 1.348 . S
C409 C407 1.356 . S
H410 C404 0.930 . S
H411 C408 0.930 . S
O412 Li352 1.956 1_545 S
O412 Li353 1.977 . S
O412 Li354 1.961 . S
O412 C356 1.325 . S
O413 Li352 1.970 . S
O413 Li353 1.951 1_565 S
O413 Li355 1.961 . S
O413 C362 1.325 . S
O414 Li352 1.961 . S
O414 Li354 1.956 1_565 S
O414 Li355 1.970 . S
O414 C384 1.325 . S
O415 Li353 1.958 . S
O415 Li354 1.970 . S
O415 Li355 1.956 1_545 S
O415 C390 1.325 . S
H416 C358 0.929 . S
H417 C359 0.930 . S
H418 C360 0.930 . S
H419 C361 0.930 . S
H420 C363 0.930 . S
H421 C365 0.929 . S
H422 C366 0.930 . S
H423 C367 0.930 . S
H424 C370 0.914 1_545 S
H425 C373 0.929 . S
H426 C378 0.929 . S
H427 C379 0.930 . S
H428 C386 0.929 . S
H429 C387 0.930 . S
H430 C388 0.930 . S
H431 C389 0.930 . S
H432 C391 0.929 . S
H433 C392 0.930 . S
H434 C393 0.930 . S
H435 C394 0.930 . S
H436 C398 0.929 . S
H437 C400 0.930 . S
H438 C406 0.929 . S
H439 C407 0.930 . S
Li440 N457 1.990 . S
Li440 O500 1.956 1_455 S
Li440 O501 1.970 . S
Li440 O502 1.961 . S
Li441 N465 1.990 . S
Li441 O500 1.970 . S
Li441 O501 1.956 1_655 S
Li441 O503 1.961 . S
Li442 N487 1.991 . S
Li442 O500 1.968 . S
Li442 O502 1.948 1_655 S
Li442 O503 1.975 . S
Li443 N493 1.990 . S
Li443 O501 1.961 . S
Li443 O502 1.970 . S
Li443 O503 1.956 1_455 S
C444 C446 1.348 . S
C444 C447 1.356 1_655 S
C444 O500 1.325 . S
N445 C448 1.314 . S
N445 C449 1.279 1_655 S
C446 C444 1.348 . S
C446 C448 1.353 . S
C446 H504 0.929 . S
C447 C444 1.356 1_455 S
C447 C449 1.358 . S
C447 H505 0.930 . S
C448 N445 1.314 . S
C448 C446 1.353 . S
C448 H506 0.930 . S
C449 N445 1.279 1_455 S
C449 C447 1.358 . S
C449 H507 0.930 . S
C450 C453 1.348 . S
C450 C454 1.356 1_455 S
C450 O501 1.325 . S
C451 N452 1.279 1_655 S
C451 C454 1.358 . S
C451 H508 0.930 . S
N452 C451 1.279 1_455 S
N452 C455 1.314 . S
C453 C450 1.348 . S
C453 C455 1.353 . S
C453 H509 0.929 . S
C454 C450 1.356 1_655 S
C454 C451 1.358 . S
C454 H510 0.930 . S
C455 N452 1.314 . S
C455 C453 1.353 . S
C455 H511 0.930 . S
C456 N457 1.314 . S
C456 C461 1.353 . S
C456 H462 0.930 . S
N457 Li440 1.990 . S
N457 C456 1.314 . S
N457 C459 1.279 . S
C458 C459 1.358 . S
C458 C460 1.356 . S
C458 H512 0.930 . S
C459 N457 1.279 . S
C459 C458 1.358 . S
C459 H463 0.930 . S
C460 C458 1.356 . S
C460 C461 1.348 . S
C461 C456 1.353 . S
C461 C460 1.348 . S
C461 H513 0.929 . S
H462 C456 0.930 . S
H463 C459 0.930 . S
C464 N465 1.314 . S
C464 C466 1.353 . S
C464 H470 0.930 . S
N465 Li441 1.990 . S
N465 C464 1.314 . S
N465 C468 1.279 . S
C466 C464 1.353 . S
C466 C469 1.348 . S
C466 H514 0.929 . S
C467 C468 1.358 . S
C467 C469 1.356 . S
C467 H515 0.930 . S
C468 N465 1.279 . S
C468 C467 1.358 . S
C468 H471 0.930 . S
C469 C466 1.348 . S
C469 C467 1.356 . S
H470 C464 0.930 . S
H471 C468 0.930 . S
C472 C474 1.348 . S
C472 C475 1.356 . S
C472 O502 1.325 . S
N473 C476 1.314 . S
N473 C477 1.279 . S
C474 C472 1.348 . S
C474 C476 1.353 . S
C474 H516 0.929 . S
C475 C472 1.356 . S
C475 C477 1.358 . S
C475 H517 0.930 . S
C476 N473 1.314 . S
C476 C474 1.353 . S
C476 H518 0.930 . S
C477 N473 1.279 . S
C477 C475 1.358 . S
C477 H519 0.930 . S
C478 C479 1.348 . S
C478 C480 1.356 . S
C478 O503 1.325 . S
C479 C478 1.348 . S
C479 C481 1.353 . S
C479 H520 0.929 . S
C480 C478 1.356 . S
C480 C482 1.358 . S
C480 H521 0.930 . S
C481 C479 1.353 . S
C481 N483 1.314 . S
C481 H522 0.930 . S
C482 C480 1.358 . S
C482 N483 1.279 . S
C482 H523 0.930 . S
N483 C481 1.314 . S
N483 C482 1.279 . S
C484 C486 1.353 . S
C484 N487 1.326 . S
C484 H490 0.930 . S
C485 N487 1.266 1_455 S
C485 C488 1.358 . S
C485 H491 0.930 . S
C486 C484 1.353 . S
C486 C489 1.348 . S
C486 H524 0.929 . S
N487 Li442 1.991 . S
N487 C484 1.326 . S
N487 C485 1.266 1_655 S
C488 C485 1.358 . S
C488 C489 1.356 1_455 S
C488 H525 0.930 . S
C489 C486 1.348 . S
C489 C488 1.356 1_655 S
H490 C484 0.930 . S
H491 C485 0.930 . S
C492 N493 1.314 . S
C492 C494 1.353 . S
C492 H498 0.930 . S
N493 Li443 1.990 . S
N493 C492 1.314 . S
N493 C496 1.279 1_455 S
C494 C492 1.353 . S
C494 C497 1.348 . S
C494 H526 0.929 . S
C495 C496 1.371 . S
C495 C497 1.342 1_655 S
C495 H527 0.931 . S
C496 N493 1.279 1_655 S
C496 C495 1.371 . S
C496 H499 0.930 . S
C497 C494 1.348 . S
C497 C495 1.342 1_455 S
H498 C492 0.930 . S
H499 C496 0.930 . S
O500 Li440 1.956 1_655 S
O500 Li441 1.970 . S
O500 Li442 1.968 . S
O500 C444 1.325 . S
O501 Li440 1.970 . S
O501 Li441 1.956 1_455 S
O501 Li443 1.961 . S
O501 C450 1.325 . S
O502 Li440 1.961 . S
O502 Li442 1.948 1_455 S
O502 Li443 1.970 . S
O502 C472 1.325 . S
O503 Li441 1.961 . S
O503 Li442 1.975 . S
O503 Li443 1.956 1_655 S
O503 C478 1.325 . S
H504 C446 0.929 . S
H505 C447 0.930 . S
H506 C448 0.930 . S
H507 C449 0.930 . S
H508 C451 0.930 . S
H509 C453 0.929 . S
H510 C454 0.930 . S
H511 C455 0.930 . S
H512 C458 0.930 . S
H513 C461 0.929 . S
H514 C466 0.929 . S
H515 C467 0.930 . S
H516 C474 0.929 . S
H517 C475 0.930 . S
H518 C476 0.930 . S
H519 C477 0.930 . S
H520 C479 0.929 . S
H521 C480 0.930 . S
H522 C481 0.930 . S
H523 C482 0.930 . S
H524 C486 0.929 . S
H525 C488 0.930 . S
H526 C494 0.929 . S
H527 C495 0.931 . S
Li528 N545 1.990 . S
Li528 O588 1.956 . S
Li528 O589 1.970 . S
Li528 O590 1.961 . S
Li529 N553 1.990 . S
Li529 O588 1.970 . S
Li529 O589 1.956 . S
Li529 O591 1.961 . S
Li530 N575 1.990 . S
Li530 O588 1.961 . S
Li530 O590 1.956 . S
Li530 O591 1.970 . S
Li531 N581 1.990 . S
Li531 O589 1.961 . S
Li531 O590 1.970 . S
Li531 O591 1.956 . S
C532 C534 1.348 . S
C532 C535 1.356 . S
C532 O588 1.325 . S
N533 C536 1.314 . S
N533 C537 1.279 . S
C534 C532 1.348 . S
C534 C536 1.353 . S
C534 H592 0.929 . S
C535 C532 1.356 . S
C535 C537 1.358 . S
C535 H593 0.930 . S
C536 N533 1.314 . S
C536 C534 1.353 . S
C536 H594 0.930 . S
C537 N533 1.279 . S
C537 C535 1.358 . S
C537 H595 0.930 . S
C538 C541 1.348 . S
C538 C542 1.356 . S
C538 O589 1.325 . S
C539 N540 1.279 . S
C539 C542 1.358 . S
C539 H596 0.930 . S
N540 C539 1.279 . S
N540 C543 1.314 . S
C541 C538 1.348 . S
C541 C543 1.353 . S
C541 H597 0.929 . S
C542 C538 1.356 . S
C542 C539 1.358 . S
C542 H598 0.930 . S
C543 N540 1.314 . S
C543 C541 1.353 . S
C543 H599 0.930 . S
C544 N545 1.314 . S
C544 C549 1.353 . S
C544 H550 0.930 . S
N545 Li528 1.990 . S
N545 C544 1.314 . S
N545 C547 1.279 . S
C546 C547 1.358 . S
C546 C548 1.356 . S
C546 H600 0.930 . S
C547 N545 1.279 . S
C547 C546 1.358 . S
C547 H551 0.930 . S
C548 C546 1.356 . S
C548 C549 1.348 . S
C549 C544 1.353 . S
C549 C548 1.348 . S
C549 H601 0.929 . S
H550 C544 0.930 . S
H551 C547 0.930 . S
C552 N553 1.314 . S
C552 C554 1.353 . S
C552 H558 0.930 . S
N553 Li529 1.990 . S
N553 C552 1.314 . S
N553 C556 1.279 . S
C554 C552 1.353 . S
C554 C557 1.348 . S
C554 H602 0.929 . S
C555 C556 1.358 . S
C555 C557 1.356 . S
C555 H603 0.930 . S
C556 N553 1.279 . S
C556 C555 1.358 . S
C556 H559 0.930 . S
C557 C554 1.348 . S
C557 C555 1.356 . S
H558 C552 0.930 . S
H559 C556 0.930 . S
C560 C562 1.348 . S
C560 C563 1.356 . S
C560 O590 1.325 . S
N561 C564 1.314 . S
N561 C565 1.279 . S
C562 C560 1.348 . S
C562 C564 1.353 . S
C562 H604 0.929 . S
C563 C560 1.356 . S
C563 C565 1.358 . S
C563 H605 0.930 . S
C564 N561 1.314 . S
C564 C562 1.353 . S
C564 H606 0.930 . S
C565 N561 1.279 . S
C565 C563 1.358 . S
C565 H607 0.930 . S
C566 C567 1.348 . S
C566 C568 1.356 . S
C566 O591 1.325 . S
C567 C566 1.348 . S
C567 C569 1.353 . S
C567 H608 0.929 . S
C568 C566 1.356 . S
C568 C570 1.358 . S
C568 H609 0.930 . S
C569 C567 1.353 . S
C569 N571 1.314 . S
C569 H610 0.930 . S
C570 C568 1.358 . S
C570 N571 1.279 . S
C570 H611 0.930 . S
N571 C569 1.314 . S
N571 C570 1.279 . S
C572 C574 1.353 . S
C572 N575 1.314 . S
C572 H578 0.930 . S
C573 N575 1.279 . S
C573 C576 1.358 . S
C573 H579 0.930 . S
C574 C572 1.353 . S
C574 C577 1.348 . S
C574 H612 0.929 . S
N575 Li530 1.990 . S
N575 C572 1.314 . S
N575 C573 1.279 . S
C576 C573 1.358 . S
C576 C577 1.356 . S
C576 H613 0.930 . S
C577 C574 1.348 . S
C577 C576 1.356 . S
H578 C572 0.930 . S
H579 C573 0.930 . S
C580 N581 1.314 . S
C580 C582 1.353 . S
C580 H586 0.930 . S
N581 Li531 1.990 . S
N581 C580 1.314 . S
N581 C584 1.279 . S
C582 C580 1.353 . S
C582 C585 1.348 . S
C582 H614 0.929 . S
C583 C584 1.358 . S
C583 C585 1.356 . S
C583 H615 0.930 . S
C584 N581 1.279 . S
C584 C583 1.358 . S
C584 H587 0.930 . S
C585 C582 1.348 . S
C585 C583 1.356 . S
H586 C580 0.930 . S
H587 C584 0.930 . S
O588 Li528 1.956 . S
O588 Li529 1.970 . S
O588 Li530 1.961 . S
O588 C532 1.325 . S
O589 Li528 1.970 . S
O589 Li529 1.956 . S
O589 Li531 1.961 . S
O589 C538 1.325 . S
O590 Li528 1.961 . S
O590 Li530 1.956 . S
O590 Li531 1.970 . S
O590 C560 1.325 . S
O591 Li529 1.961 . S
O591 Li530 1.970 . S
O591 Li531 1.956 . S
O591 C566 1.325 . S
H592 C534 0.929 . S
H593 C535 0.930 . S
H594 C536 0.930 . S
H595 C537 0.930 . S
H596 C539 0.930 . S
H597 C541 0.929 . S
H598 C542 0.930 . S
H599 C543 0.930 . S
H600 C546 0.930 . S
H601 C549 0.929 . S
H602 C554 0.929 . S
H603 C555 0.930 . S
H604 C562 0.929 . S
H605 C563 0.930 . S
H606 C564 0.930 . S
H607 C565 0.930 . S
H608 C567 0.929 . S
H609 C568 0.930 . S
H610 C569 0.930 . S
H611 C570 0.930 . S
H612 C574 0.929 . S
H613 C576 0.930 . S
H614 C582 0.929 . S
H615 C583 0.930 . S
Li616 N633 1.990 . S
Li616 O676 1.956 . S
Li616 O677 1.970 . S
Li616 O678 1.961 . S
Li617 N641 1.990 . S
Li617 O676 1.970 . S
Li617 O677 1.956 . S
Li617 O679 1.961 . S
Li618 N663 1.990 . S
Li618 O676 1.961 . S
Li618 O678 1.956 . S
Li618 O679 1.970 . S
Li619 N669 1.990 . S
Li619 O677 1.961 . S
Li619 O678 1.970 . S
Li619 O679 1.956 . S
C620 C622 1.348 . S
C620 C623 1.356 . S
C620 O676 1.325 . S
N621 C624 1.314 . S
N621 C625 1.279 . S
C622 C620 1.348 . S
C622 C624 1.353 . S
C622 H680 0.929 . S
C623 C620 1.356 . S
C623 C625 1.358 . S
C623 H681 0.930 . S
C624 N621 1.314 . S
C624 C622 1.353 . S
C624 H682 0.930 . S
C625 N621 1.279 . S
C625 C623 1.358 . S
C625 H683 0.930 . S
C626 C629 1.348 . S
C626 C630 1.356 . S
C626 O677 1.325 . S
C627 N628 1.279 . S
C627 C630 1.358 . S
C627 H684 0.930 . S
N628 C627 1.279 . S
N628 C631 1.314 . S
C629 C626 1.348 . S
C629 C631 1.353 . S
C629 H685 0.929 . S
C630 C626 1.356 . S
C630 C627 1.358 . S
C630 H686 0.930 . S
C631 N628 1.314 . S
C631 C629 1.353 . S
C631 H687 0.930 . S
C632 N633 1.314 . S
C632 C637 1.353 . S
C632 H638 0.930 . S
N633 Li616 1.990 . S
N633 C632 1.314 . S
N633 C635 1.279 . S
C634 C635 1.358 . S
C634 C636 1.356 . S
C634 H688 0.930 . S
C635 N633 1.279 . S
C635 C634 1.358 . S
C635 H639 0.930 . S
C636 C634 1.356 . S
C636 C637 1.348 . S
C637 C632 1.353 . S
C637 C636 1.348 . S
C637 H689 0.929 . S
H638 C632 0.930 . S
H639 C635 0.930 . S
C640 N641 1.314 . S
C640 C642 1.353 . S
C640 H646 0.930 . S
N641 Li617 1.990 . S
N641 C640 1.314 . S
N641 C644 1.279 . S
C642 C640 1.353 . S
C642 C645 1.348 . S
C642 H690 0.929 . S
C643 C644 1.358 . S
C643 C645 1.356 . S
C643 H691 0.930 . S
C644 N641 1.279 . S
C644 C643 1.358 . S
C644 H647 0.930 . S
C645 C642 1.348 . S
C645 C643 1.356 . S
H646 C640 0.930 . S
H647 C644 0.930 . S
C648 C650 1.348 . S
C648 C651 1.356 . S
C648 O678 1.325 . S
N649 C652 1.314 . S
N649 C653 1.279 . S
C650 C648 1.348 . S
C650 C652 1.353 . S
C650 H692 0.929 . S
C651 C648 1.356 . S
C651 C653 1.358 . S
C651 H693 0.930 . S
C652 N649 1.314 . S
C652 C650 1.353 . S
C652 H694 0.930 . S
C653 N649 1.279 . S
C653 C651 1.358 . S
C653 H695 0.930 . S
C654 C655 1.348 . S
C654 C656 1.356 . S
C654 O679 1.325 . S
C655 C654 1.348 . S
C655 C657 1.353 . S
C655 H696 0.929 . S
C656 C654 1.356 . S
C656 C658 1.358 . S
C656 H697 0.930 . S
C657 C655 1.353 . S
C657 N659 1.314 . S
C657 H698 0.930 . S
C658 C656 1.358 . S
C658 N659 1.279 . S
C658 H699 0.930 . S
N659 C657 1.314 . S
N659 C658 1.279 . S
C660 C662 1.353 . S
C660 N663 1.314 . S
C660 H666 0.930 . S
C661 N663 1.279 . S
C661 C664 1.358 . S
C661 H667 0.930 . S
C662 C660 1.353 . S
C662 C665 1.348 . S
C662 H700 0.929 . S
N663 Li618 1.990 . S
N663 C660 1.314 . S
N663 C661 1.279 . S
C664 C661 1.358 . S
C664 C665 1.356 . S
C664 H701 0.930 . S
C665 C662 1.348 . S
C665 C664 1.356 . S
H666 C660 0.930 . S
H667 C661 0.930 . S
C668 N669 1.314 . S
C668 C670 1.353 . S
C668 H674 0.930 . S
N669 Li619 1.990 . S
N669 C668 1.314 . S
N669 C672 1.279 . S
C670 C668 1.353 . S
C670 C673 1.348 . S
C670 H702 0.929 . S
C671 C672 1.358 . S
C671 C673 1.356 . S
C671 H703 0.930 . S
C672 N669 1.279 . S
C672 C671 1.358 . S
C672 H675 0.930 . S
C673 C670 1.348 . S
C673 C671 1.356 . S
H674 C668 0.930 . S
H675 C672 0.930 . S
O676 Li616 1.956 . S
O676 Li617 1.970 . S
O676 Li618 1.961 . S
O676 C620 1.325 . S
O677 Li616 1.970 . S
O677 Li617 1.956 . S
O677 Li619 1.961 . S
O677 C626 1.325 . S
O678 Li616 1.961 . S
O678 Li618 1.956 . S
O678 Li619 1.970 . S
O678 C648 1.325 . S
O679 Li617 1.961 . S
O679 Li618 1.970 . S
O679 Li619 1.956 . S
O679 C654 1.325 . S
H680 C622 0.929 . S
H681 C623 0.930 . S
H682 C624 0.930 . S
H683 C625 0.930 . S
H684 C627 0.930 . S
H685 C629 0.929 . S
H686 C630 0.930 . S
H687 C631 0.930 . S
H688 C634 0.930 . S
H689 C637 0.929 . S
H690 C642 0.929 . S
H691 C643 0.930 . S
H692 C650 0.929 . S
H693 C651 0.930 . S
H694 C652 0.930 . S
H695 C653 0.930 . S
H696 C655 0.929 . S
H697 C656 0.930 . S
H698 C657 0.930 . S
H699 C658 0.930 . S
H700 C662 0.929 . S
H701 C664 0.930 . S
H702 C670 0.929 . S
H703 C671 0.930 . S
Li704 N721 1.990 . S
Li704 O764 1.956 . S
Li704 O765 1.970 . S
Li704 O766 1.961 . S
Li705 N729 1.990 . S
Li705 O764 1.970 . S
Li705 O765 1.956 . S
Li705 O767 1.961 . S
Li706 N751 1.990 . S
Li706 O764 1.961 . S
Li706 O766 1.956 . S
Li706 O767 1.970 . S
Li707 N757 1.990 . S
Li707 O765 1.961 . S
Li707 O766 1.970 . S
Li707 O767 1.956 . S
C708 C710 1.348 . S
C708 C711 1.356 . S
C708 O764 1.325 . S
N709 C712 1.314 . S
N709 C713 1.279 . S
C710 C708 1.348 . S
C710 C712 1.353 . S
C710 H768 0.929 . S
C711 C708 1.356 . S
C711 C713 1.358 . S
C711 H769 0.930 . S
C712 N709 1.314 . S
C712 C710 1.353 . S
C712 H770 0.930 . S
C713 N709 1.279 . S
C713 C711 1.358 . S
C713 H771 0.930 . S
C714 C717 1.348 . S
C714 C718 1.356 . S
C714 O765 1.325 . S
C715 N716 1.279 . S
C715 C718 1.358 . S
C715 H772 0.930 . S
N716 C715 1.279 . S
N716 C719 1.314 . S
C717 C714 1.348 . S
C717 C719 1.353 . S
C717 H773 0.929 . S
C718 C714 1.356 . S
C718 C715 1.358 . S
C718 H774 0.930 . S
C719 N716 1.314 . S
C719 C717 1.353 . S
C719 H775 0.930 . S
C720 N721 1.314 . S
C720 C725 1.353 . S
C720 H726 0.930 . S
N721 Li704 1.990 . S
N721 C720 1.314 . S
N721 C723 1.279 . S
C722 C723 1.358 . S
C722 C724 1.356 . S
C722 H776 0.930 . S
C723 N721 1.279 . S
C723 C722 1.358 . S
C723 H727 0.930 . S
C724 C722 1.356 . S
C724 C725 1.348 . S
C725 C720 1.353 . S
C725 C724 1.348 . S
C725 H777 0.929 . S
H726 C720 0.930 . S
H727 C723 0.930 . S
C728 N729 1.314 . S
C728 C730 1.353 . S
C728 H734 0.930 . S
N729 Li705 1.990 . S
N729 C728 1.314 . S
N729 C732 1.279 . S
C730 C728 1.353 . S
C730 C733 1.348 . S
C730 H778 0.929 . S
C731 C732 1.358 . S
C731 C733 1.356 . S
C731 H779 0.930 . S
C732 N729 1.279 . S
C732 C731 1.358 . S
C732 H735 0.930 . S
C733 C730 1.348 . S
C733 C731 1.356 . S
H734 C728 0.930 . S
H735 C732 0.930 . S
C736 C738 1.348 . S
C736 C739 1.356 . S
C736 O766 1.325 . S
N737 C740 1.314 . S
N737 C741 1.279 . S
C738 C736 1.348 . S
C738 C740 1.353 . S
C738 H780 0.929 . S
C739 C736 1.356 . S
C739 C741 1.358 . S
C739 H781 0.930 . S
C740 N737 1.314 . S
C740 C738 1.353 . S
C740 H782 0.930 . S
C741 N737 1.279 . S
C741 C739 1.358 . S
C741 H783 0.930 . S
C742 C743 1.348 . S
C742 C744 1.356 . S
C742 O767 1.325 . S
C743 C742 1.348 . S
C743 C745 1.353 . S
C743 H784 0.929 . S
C744 C742 1.356 . S
C744 C746 1.358 . S
C744 H785 0.930 . S
C745 C743 1.353 . S
C745 N747 1.314 . S
C745 H786 0.930 . S
C746 C744 1.358 . S
C746 N747 1.279 . S
C746 H787 0.930 . S
N747 C745 1.314 . S
N747 C746 1.279 . S
C748 C750 1.353 . S
C748 N751 1.314 . S
C748 H754 0.930 . S
C749 N751 1.279 . S
C749 C752 1.358 . S
C749 H755 0.930 . S
C750 C748 1.353 . S
C750 C753 1.348 . S
C750 H788 0.929 . S
N751 Li706 1.990 . S
N751 C748 1.314 . S
N751 C749 1.279 . S
C752 C749 1.358 . S
C752 C753 1.356 . S
C752 H789 0.930 . S
C753 C750 1.348 . S
C753 C752 1.356 . S
H754 C748 0.930 . S
H755 C749 0.930 . S
C756 N757 1.314 . S
C756 C758 1.353 . S
C756 H762 0.930 . S
N757 Li707 1.990 . S
N757 C756 1.314 . S
N757 C760 1.279 . S
C758 C756 1.353 . S
C758 C761 1.348 . S
C758 H790 0.929 . S
C759 C760 1.358 . S
C759 C761 1.356 . S
C759 H791 0.930 . S
C760 N757 1.279 . S
C760 C759 1.358 . S
C760 H763 0.930 . S
C761 C758 1.348 . S
C761 C759 1.356 . S
H762 C756 0.930 . S
H763 C760 0.930 . S
O764 Li704 1.956 . S
O764 Li705 1.970 . S
O764 Li706 1.961 . S
O764 C708 1.325 . S
O765 Li704 1.970 . S
O765 Li705 1.956 . S
O765 Li707 1.961 . S
O765 C714 1.325 . S
O766 Li704 1.961 . S
O766 Li706 1.956 . S
O766 Li707 1.970 . S
O766 C736 1.325 . S
O767 Li705 1.961 . S
O767 Li706 1.970 . S
O767 Li707 1.956 . S
O767 C742 1.325 . S
H768 C710 0.929 . S
H769 C711 0.930 . S
H770 C712 0.930 . S
H771 C713 0.930 . S
H772 C715 0.930 . S
H773 C717 0.929 . S
H774 C718 0.930 . S
H775 C719 0.930 . S
H776 C722 0.930 . S
H777 C725 0.929 . S
H778 C730 0.929 . S
H779 C731 0.930 . S
H780 C738 0.929 . S
H781 C739 0.930 . S
H782 C740 0.930 . S
H783 C741 0.930 . S
H784 C743 0.929 . S
H785 C744 0.930 . S
H786 C745 0.930 . S
H787 C746 0.930 . S
H788 C750 0.929 . S
H789 C752 0.930 . S
H790 C758 0.929 . S
H791 C759 0.930 . S
Li792 N809 1.990 . S
Li792 O852 1.956 . S
Li792 O853 1.970 . S
Li792 O854 1.961 . S
Li793 N817 1.990 . S
Li793 O852 1.970 . S
Li793 O853 1.956 . S
Li793 O855 1.961 . S
Li794 N839 1.990 . S
Li794 O852 1.961 . S
Li794 O854 1.956 . S
Li794 O855 1.970 . S
Li795 N845 1.990 . S
Li795 O853 1.961 . S
Li795 O854 1.970 . S
Li795 O855 1.956 . S
C796 C798 1.348 . S
C796 C799 1.356 . S
C796 O852 1.325 . S
N797 C800 1.314 . S
N797 C801 1.279 . S
C798 C796 1.348 . S
C798 C800 1.353 . S
C798 H856 0.929 . S
C799 C796 1.356 . S
C799 C801 1.358 . S
C799 H857 0.930 . S
C800 N797 1.314 . S
C800 C798 1.353 . S
C800 H858 0.930 . S
C801 N797 1.279 . S
C801 C799 1.358 . S
C801 H859 0.930 . S
C802 C805 1.348 . S
C802 C806 1.356 . S
C802 O853 1.325 . S
C803 N804 1.279 . S
C803 C806 1.358 . S
C803 H860 0.930 . S
N804 C803 1.279 . S
N804 C807 1.314 . S
C805 C802 1.348 . S
C805 C807 1.353 . S
C805 H861 0.929 . S
C806 C802 1.356 . S
C806 C803 1.358 . S
C806 H862 0.930 . S
C807 N804 1.314 . S
C807 C805 1.353 . S
C807 H863 0.930 . S
C808 N809 1.314 . S
C808 C813 1.353 . S
C808 H814 0.930 . S
N809 Li792 1.990 . S
N809 C808 1.314 . S
N809 C811 1.279 . S
C810 C811 1.358 . S
C810 C812 1.356 . S
C810 H864 0.930 . S
C811 N809 1.279 . S
C811 C810 1.358 . S
C811 H815 0.930 . S
C812 C810 1.356 . S
C812 C813 1.348 . S
C813 C808 1.353 . S
C813 C812 1.348 . S
C813 H865 0.929 . S
H814 C808 0.930 . S
H815 C811 0.930 . S
C816 N817 1.314 . S
C816 C818 1.353 . S
C816 H822 0.930 . S
N817 Li793 1.990 . S
N817 C816 1.314 . S
N817 C820 1.279 . S
C818 C816 1.353 . S
C818 C821 1.348 . S
C818 H866 0.929 . S
C819 C820 1.358 . S
C819 C821 1.356 . S
C819 H867 0.930 . S
C820 N817 1.279 . S
C820 C819 1.358 . S
C820 H823 0.930 . S
C821 C818 1.348 . S
C821 C819 1.356 . S
H822 C816 0.930 . S
H823 C820 0.930 . S
C824 C826 1.348 . S
C824 C827 1.356 . S
C824 O854 1.325 . S
N825 C828 1.314 . S
N825 C829 1.279 . S
C826 C824 1.348 . S
C826 C828 1.353 . S
C826 H868 0.929 . S
C827 C824 1.356 . S
C827 C829 1.358 . S
C827 H869 0.930 . S
C828 N825 1.314 . S
C828 C826 1.353 . S
C828 H870 0.930 . S
C829 N825 1.279 . S
C829 C827 1.358 . S
C829 H871 0.930 . S
C830 C831 1.348 . S
C830 C832 1.356 . S
C830 O855 1.325 . S
C831 C830 1.348 . S
C831 C833 1.353 . S
C831 H872 0.929 . S
C832 C830 1.356 . S
C832 C834 1.358 . S
C832 H873 0.930 . S
C833 C831 1.353 . S
C833 N835 1.314 . S
C833 H874 0.930 . S
C834 C832 1.358 . S
C834 N835 1.279 . S
C834 H875 0.930 . S
N835 C833 1.314 . S
N835 C834 1.279 . S
C836 C838 1.353 . S
C836 N839 1.314 . S
C836 H842 0.930 . S
C837 N839 1.279 . S
C837 C840 1.358 . S
C837 H843 0.930 . S
C838 C836 1.353 . S
C838 C841 1.348 . S
C838 H876 0.929 . S
N839 Li794 1.990 . S
N839 C836 1.314 . S
N839 C837 1.279 . S
C840 C837 1.358 . S
C840 C841 1.356 . S
C840 H877 0.930 . S
C841 C838 1.348 . S
C841 C840 1.356 . S
H842 C836 0.930 . S
H843 C837 0.930 . S
C844 N845 1.314 . S
C844 C846 1.353 . S
C844 H850 0.930 . S
N845 Li795 1.990 . S
N845 C844 1.314 . S
N845 C848 1.279 . S
C846 C844 1.353 . S
C846 C849 1.348 . S
C846 H878 0.929 . S
C847 C848 1.358 . S
C847 C849 1.356 . S
C847 H879 0.930 . S
C848 N845 1.279 . S
C848 C847 1.358 . S
C848 H851 0.930 . S
C849 C846 1.348 . S
C849 C847 1.356 . S
H850 C844 0.930 . S
H851 C848 0.930 . S
O852 Li792 1.956 . S
O852 Li793 1.970 . S
O852 Li794 1.961 . S
O852 C796 1.325 . S
O853 Li792 1.970 . S
O853 Li793 1.956 . S
O853 Li795 1.961 . S
O853 C802 1.325 . S
O854 Li792 1.961 . S
O854 Li794 1.956 . S
O854 Li795 1.970 . S
O854 C824 1.325 . S
O855 Li793 1.961 . S
O855 Li794 1.970 . S
O855 Li795 1.956 . S
O855 C830 1.325 . S
H856 C798 0.929 . S
H857 C799 0.930 . S
H858 C800 0.930 . S
H859 C801 0.930 . S
H860 C803 0.930 . S
H861 C805 0.929 . S
H862 C806 0.930 . S
H863 C807 0.930 . S
H864 C810 0.930 . S
H865 C813 0.929 . S
H866 C818 0.929 . S
H867 C819 0.930 . S
H868 C826 0.929 . S
H869 C827 0.930 . S
H870 C828 0.930 . S
H871 C829 0.930 . S
H872 C831 0.929 . S
H873 C832 0.930 . S
H874 C833 0.930 . S
H875 C834 0.930 . S
H876 C838 0.929 . S
H877 C840 0.930 . S
H878 C846 0.929 . S
H879 C847 0.930 . S
Li880 N897 1.990 . S
Li880 O940 1.956 . S
Li880 O941 1.970 . S
Li880 O942 1.961 . S
Li881 N905 1.990 . S
Li881 O940 1.970 . S
Li881 O941 1.956 . S
Li881 O943 1.961 . S
Li882 N927 1.990 . S
Li882 O940 1.961 . S
Li882 O942 1.956 . S
Li882 O943 1.970 . S
Li883 N933 1.990 . S
Li883 O941 1.961 . S
Li883 O942 1.970 . S
Li883 O943 1.956 . S
C884 C886 1.348 . S
C884 C887 1.356 . S
C884 O940 1.325 . S
N885 C888 1.314 . S
N885 C889 1.279 . S
C886 C884 1.348 . S
C886 C888 1.353 . S
C886 H944 0.929 . S
C887 C884 1.356 . S
C887 C889 1.358 . S
C887 H945 0.930 . S
C888 N885 1.314 . S
C888 C886 1.353 . S
C888 H946 0.930 . S
C889 N885 1.279 . S
C889 C887 1.358 . S
C889 H947 0.930 . S
C890 C893 1.348 . S
C890 C894 1.356 . S
C890 O941 1.325 . S
C891 N892 1.279 . S
C891 C894 1.358 . S
C891 H948 0.930 . S
N892 C891 1.279 . S
N892 C895 1.314 . S
C893 C890 1.348 . S
C893 C895 1.353 . S
C893 H949 0.929 . S
C894 C890 1.356 . S
C894 C891 1.358 . S
C894 H950 0.930 . S
C895 N892 1.314 . S
C895 C893 1.353 . S
C895 H951 0.930 . S
C896 N897 1.314 . S
C896 C901 1.353 . S
C896 H902 0.930 . S
N897 Li880 1.990 . S
N897 C896 1.314 . S
N897 C899 1.279 . S
C898 C899 1.358 . S
C898 C900 1.356 . S
C898 H952 0.930 . S
C899 N897 1.279 . S
C899 C898 1.358 . S
C899 H903 0.930 . S
C900 C898 1.356 . S
C900 C901 1.348 . S
C901 C896 1.353 . S
C901 C900 1.348 . S
C901 H953 0.929 . S
H902 C896 0.930 . S
H903 C899 0.930 . S
C904 N905 1.314 . S
C904 C906 1.353 . S
C904 H910 0.930 . S
N905 Li881 1.990 . S
N905 C904 1.314 . S
N905 C908 1.279 . S
C906 C904 1.353 . S
C906 C909 1.348 . S
C906 H954 0.929 . S
C907 C908 1.358 . S
C907 C909 1.356 . S
C907 H955 0.930 . S
C908 N905 1.279 . S
C908 C907 1.358 . S
C908 H911 0.930 . S
C909 C906 1.348 . S
C909 C907 1.356 . S
H910 C904 0.930 . S
H911 C908 0.930 . S
C912 C914 1.348 . S
C912 C915 1.356 . S
C912 O942 1.325 . S
N913 C916 1.314 . S
N913 C917 1.279 . S
C914 C912 1.348 . S
C914 C916 1.353 . S
C914 H956 0.929 . S
C915 C912 1.356 . S
C915 C917 1.358 . S
C915 H957 0.930 . S
C916 N913 1.314 . S
C916 C914 1.353 . S
C916 H958 0.930 . S
C917 N913 1.279 . S
C917 C915 1.358 . S
C917 H959 0.930 . S
C918 C919 1.348 . S
C918 C920 1.356 . S
C918 O943 1.325 . S
C919 C918 1.348 . S
C919 C921 1.353 . S
C919 H960 0.929 . S
C920 C918 1.356 . S
C920 C922 1.358 . S
C920 H961 0.930 . S
C921 C919 1.353 . S
C921 N923 1.314 . S
C921 H962 0.930 . S
C922 C920 1.358 . S
C922 N923 1.279 . S
C922 H963 0.930 . S
N923 C921 1.314 . S
N923 C922 1.279 . S
C924 C926 1.353 . S
C924 N927 1.314 . S
C924 H930 0.930 . S
C925 N927 1.279 . S
C925 C928 1.358 . S
C925 H931 0.930 . S
C926 C924 1.353 . S
C926 C929 1.348 . S
C926 H964 0.929 . S
N927 Li882 1.990 . S
N927 C924 1.314 . S
N927 C925 1.279 . S
C928 C925 1.358 . S
C928 C929 1.356 . S
C928 H965 0.930 . S
C929 C926 1.348 . S
C929 C928 1.356 . S
H930 C924 0.930 . S
H931 C925 0.930 . S
C932 N933 1.314 . S
C932 C934 1.353 . S
C932 H938 0.930 . S
N933 Li883 1.990 . S
N933 C932 1.314 . S
N933 C936 1.279 . S
C934 C932 1.353 . S
C934 C937 1.348 . S
C934 H966 0.929 . S
C935 C936 1.358 . S
C935 C937 1.356 . S
C935 H967 0.930 . S
C936 N933 1.279 . S
C936 C935 1.358 . S
C936 H939 0.930 . S
C937 C934 1.348 . S
C937 C935 1.356 . S
H938 C932 0.930 . S
H939 C936 0.930 . S
O940 Li880 1.956 . S
O940 Li881 1.970 . S
O940 Li882 1.961 . S
O940 C884 1.325 . S
O941 Li880 1.970 . S
O941 Li881 1.956 . S
O941 Li883 1.961 . S
O941 C890 1.325 . S
O942 Li880 1.961 . S
O942 Li882 1.956 . S
O942 Li883 1.970 . S
O942 C912 1.325 . S
O943 Li881 1.961 . S
O943 Li882 1.970 . S
O943 Li883 1.956 . S
O943 C918 1.325 . S
H944 C886 0.929 . S
H945 C887 0.930 . S
H946 C888 0.930 . S
H947 C889 0.930 . S
H948 C891 0.930 . S
H949 C893 0.929 . S
H950 C894 0.930 . S
H951 C895 0.930 . S
H952 C898 0.930 . S
H953 C901 0.929 . S
H954 C906 0.929 . S
H955 C907 0.930 . S
H956 C914 0.929 . S
H957 C915 0.930 . S
H958 C916 0.930 . S
H959 C917 0.930 . S
H960 C919 0.929 . S
H961 C920 0.930 . S
H962 C921 0.930 . S
H963 C922 0.930 . S
H964 C926 0.929 . S
H965 C928 0.930 . S
H966 C934 0.929 . S
H967 C935 0.930 . S
Li968 N985 1.990 . S
Li968 O1028 1.956 . S
Li968 O1029 1.970 . S
Li968 O1030 1.961 . S
Li969 N993 1.990 . S
Li969 O1028 1.970 . S
Li969 O1029 1.956 . S
Li969 O1031 1.961 . S
Li970 N1015 1.990 . S
Li970 O1028 1.961 . S
Li970 O1030 1.956 . S
Li970 O1031 1.970 . S
Li971 N1021 1.990 . S
Li971 O1029 1.961 . S
Li971 O1030 1.970 . S
Li971 O1031 1.956 . S
C972 C974 1.348 . S
C972 C975 1.356 . S
C972 O1028 1.325 . S
N973 C976 1.314 . S
N973 C977 1.279 . S
C974 C972 1.348 . S
C974 C976 1.353 . S
C974 H1032 0.929 . S
C975 C972 1.356 . S
C975 C977 1.358 . S
C975 H1033 0.930 . S
C976 N973 1.314 . S
C976 C974 1.353 . S
C976 H1034 0.930 . S
C977 N973 1.279 . S
C977 C975 1.358 . S
C977 H1035 0.930 . S
C978 C981 1.348 . S
C978 C982 1.356 . S
C978 O1029 1.325 . S
C979 N980 1.279 . S
C979 C982 1.358 . S
C979 H1036 0.930 . S
N980 C979 1.279 . S
N980 C983 1.314 . S
C981 C978 1.348 . S
C981 C983 1.353 . S
C981 H1037 0.929 . S
C982 C978 1.356 . S
C982 C979 1.358 . S
C982 H1038 0.930 . S
C983 N980 1.314 . S
C983 C981 1.353 . S
C983 H1039 0.930 . S
C984 N985 1.314 . S
C984 C989 1.353 . S
C984 H990 0.930 . S
N985 Li968 1.990 . S
N985 C984 1.314 . S
N985 C987 1.279 . S
C986 C987 1.358 . S
C986 C988 1.356 . S
C986 H1040 0.930 . S
C987 N985 1.279 . S
C987 C986 1.358 . S
C987 H991 0.930 . S
C988 C986 1.356 . S
C988 C989 1.348 . S
C989 C984 1.353 . S
C989 C988 1.348 . S
C989 H1041 0.929 . S
H990 C984 0.930 . S
H991 C987 0.930 . S
C992 N993 1.314 . S
C992 C994 1.353 . S
C992 H998 0.930 . S
N993 Li969 1.990 . S
N993 C992 1.314 . S
N993 C996 1.279 . S
C994 C992 1.353 . S
C994 C997 1.348 . S
C994 H1042 0.929 . S
C995 C996 1.358 . S
C995 C997 1.356 . S
C995 H1043 0.930 . S
C996 N993 1.279 . S
C996 C995 1.358 . S
C996 H999 0.930 . S
C997 C994 1.348 . S
C997 C995 1.356 . S
H998 C992 0.930 . S
H999 C996 0.930 . S
C1000 C1002 1.348 . S
C1000 C1003 1.356 . S
C1000 O1030 1.325 . S
N1001 C1004 1.314 . S
N1001 C1005 1.279 . S
C1002 C1000 1.348 . S
C1002 C1004 1.353 . S
C1002 H1044 0.929 . S
C1003 C1000 1.356 . S
C1003 C1005 1.358 . S
C1003 H1045 0.930 . S
C1004 N1001 1.314 . S
C1004 C1002 1.353 . S
C1004 H1046 0.930 . S
C1005 N1001 1.279 . S
C1005 C1003 1.358 . S
C1005 H1047 0.930 . S
C1006 C1007 1.348 . S
C1006 C1008 1.356 . S
C1006 O1031 1.325 . S
C1007 C1006 1.348 . S
C1007 C1009 1.353 . S
C1007 H1048 0.929 . S
C1008 C1006 1.356 . S
C1008 C1010 1.358 . S
C1008 H1049 0.930 . S
C1009 C1007 1.353 . S
C1009 N1011 1.314 . S
C1009 H1050 0.930 . S
C1010 C1008 1.358 . S
C1010 N1011 1.279 . S
C1010 H1051 0.930 . S
N1011 C1009 1.314 . S
N1011 C1010 1.279 . S
C1012 C1014 1.353 . S
C1012 N1015 1.314 . S
C1012 H1018 0.930 . S
C1013 N1015 1.279 . S
C1013 C1016 1.358 . S
C1013 H1019 0.930 . S
C1014 C1012 1.353 . S
C1014 C1017 1.348 . S
C1014 H1052 0.929 . S
N1015 Li970 1.990 . S
N1015 C1012 1.314 . S
N1015 C1013 1.279 . S
C1016 C1013 1.358 . S
C1016 C1017 1.356 . S
C1016 H1053 0.930 . S
C1017 C1014 1.348 . S
C1017 C1016 1.356 . S
H1018 C1012 0.930 . S
H1019 C1013 0.930 . S
C1020 N1021 1.314 . S
C1020 C1022 1.353 . S
C1020 H1026 0.930 . S
N1021 Li971 1.990 . S
N1021 C1020 1.314 . S
N1021 C1024 1.279 . S
C1022 C1020 1.353 . S
C1022 C1025 1.348 . S
C1022 H1054 0.929 . S
C1023 C1024 1.358 . S
C1023 C1025 1.356 . S
C1023 H1055 0.930 . S
C1024 N1021 1.279 . S
C1024 C1023 1.358 . S
C1024 H1027 0.930 . S
C1025 C1022 1.348 . S
C1025 C1023 1.356 . S
H1026 C1020 0.930 . S
H1027 C1024 0.930 . S
O1028 Li968 1.956 . S
O1028 Li969 1.970 . S
O1028 Li970 1.961 . S
O1028 C972 1.325 . S
O1029 Li968 1.970 . S
O1029 Li969 1.956 . S
O1029 Li971 1.961 . S
O1029 C978 1.325 . S
O1030 Li968 1.961 . S
O1030 Li970 1.956 . S
O1030 Li971 1.970 . S
O1030 C1000 1.325 . S
O1031 Li969 1.961 . S
O1031 Li970 1.970 . S
O1031 Li971 1.956 . S
O1031 C1006 1.325 . S
H1032 C974 0.929 . S
H1033 C975 0.930 . S
H1034 C976 0.930 . S
H1035 C977 0.930 . S
H1036 C979 0.930 . S
H1037 C981 0.929 . S
H1038 C982 0.930 . S
H1039 C983 0.930 . S
H1040 C986 0.930 . S
H1041 C989 0.929 . S
H1042 C994 0.929 . S
H1043 C995 0.930 . S
H1044 C1002 0.929 . S
H1045 C1003 0.930 . S
H1046 C1004 0.930 . S
H1047 C1005 0.930 . S
H1048 C1007 0.929 . S
H1049 C1008 0.930 . S
H1050 C1009 0.930 . S
H1051 C1010 0.930 . S
H1052 C1014 0.929 . S
H1053 C1016 0.930 . S
H1054 C1022 0.929 . S
H1055 C1023 0.930 . S
Li1056 N1073 1.990 . S
Li1056 O1116 1.956 . S
Li1056 O1117 1.970 . S
Li1056 O1118 1.961 . S
Li1057 N1081 1.990 . S
Li1057 O1116 1.970 . S
Li1057 O1117 1.956 . S
Li1057 O1119 1.961 . S
Li1058 N1103 1.990 . S
Li1058 O1116 1.961 . S
Li1058 O1118 1.956 . S
Li1058 O1119 1.970 . S
Li1059 N1109 1.990 . S
Li1059 O1117 1.961 . S
Li1059 O1118 1.970 . S
Li1059 O1119 1.956 . S
C1060 C1062 1.348 . S
C1060 C1063 1.356 . S
C1060 O1116 1.325 . S
N1061 C1064 1.314 . S
N1061 C1065 1.279 . S
C1062 C1060 1.348 . S
C1062 C1064 1.353 . S
C1062 H1120 0.929 . S
C1063 C1060 1.356 . S
C1063 C1065 1.358 . S
C1063 H1121 0.930 . S
C1064 N1061 1.314 . S
C1064 C1062 1.353 . S
C1064 H1122 0.930 . S
C1065 N1061 1.279 . S
C1065 C1063 1.358 . S
C1065 H1123 0.930 . S
C1066 C1069 1.348 . S
C1066 C1070 1.356 . S
C1066 O1117 1.325 . S
C1067 N1068 1.279 . S
C1067 C1070 1.358 . S
C1067 H1124 0.930 . S
N1068 C1067 1.279 . S
N1068 C1071 1.314 . S
C1069 C1066 1.348 . S
C1069 C1071 1.353 . S
C1069 H1125 0.929 . S
C1070 C1066 1.356 . S
C1070 C1067 1.358 . S
C1070 H1126 0.930 . S
C1071 N1068 1.314 . S
C1071 C1069 1.353 . S
C1071 H1127 0.930 . S
C1072 N1073 1.314 . S
C1072 C1077 1.353 . S
C1072 H1078 0.930 . S
N1073 Li1056 1.990 . S
N1073 C1072 1.314 . S
N1073 C1075 1.279 . S
C1074 C1075 1.358 . S
C1074 C1076 1.356 . S
C1074 H1128 0.930 . S
C1075 N1073 1.279 . S
C1075 C1074 1.358 . S
C1075 H1079 0.930 . S
C1076 C1074 1.356 . S
C1076 C1077 1.348 . S
C1077 C1072 1.353 . S
C1077 C1076 1.348 . S
C1077 H1129 0.929 . S
H1078 C1072 0.930 . S
H1079 C1075 0.930 . S
C1080 N1081 1.314 . S
C1080 C1082 1.353 . S
C1080 H1086 0.930 . S
N1081 Li1057 1.990 . S
N1081 C1080 1.314 . S
N1081 C1084 1.279 . S
C1082 C1080 1.353 . S
C1082 C1085 1.348 . S
C1082 H1130 0.929 . S
C1083 C1084 1.358 . S
C1083 C1085 1.356 . S
C1083 H1131 0.930 . S
C1084 N1081 1.279 . S
C1084 C1083 1.358 . S
C1084 H1087 0.930 . S
C1085 C1082 1.348 . S
C1085 C1083 1.356 . S
H1086 C1080 0.930 . S
H1087 C1084 0.930 . S
C1088 C1090 1.348 . S
C1088 C1091 1.356 . S
C1088 O1118 1.325 . S
N1089 C1092 1.314 . S
N1089 C1093 1.279 . S
C1090 C1088 1.348 . S
C1090 C1092 1.353 . S
C1090 H1132 0.929 . S
C1091 C1088 1.356 . S
C1091 C1093 1.358 . S
C1091 H1133 0.930 . S
C1092 N1089 1.314 . S
C1092 C1090 1.353 . S
C1092 H1134 0.930 . S
C1093 N1089 1.279 . S
C1093 C1091 1.358 . S
C1093 H1135 0.930 . S
C1094 C1095 1.348 . S
C1094 C1096 1.356 . S
C1094 O1119 1.325 . S
C1095 C1094 1.348 . S
C1095 C1097 1.353 . S
C1095 H1136 0.929 . S
C1096 C1094 1.356 . S
C1096 C1098 1.358 . S
C1096 H1137 0.930 . S
C1097 C1095 1.353 . S
C1097 N1099 1.314 . S
C1097 H1138 0.930 . S
C1098 C1096 1.358 . S
C1098 N1099 1.279 . S
C1098 H1139 0.930 . S
N1099 C1097 1.314 . S
N1099 C1098 1.279 . S
C1100 C1102 1.353 . S
C1100 N1103 1.314 . S
C1100 H1106 0.930 . S
C1101 N1103 1.279 . S
C1101 C1104 1.358 . S
C1101 H1107 0.930 . S
C1102 C1100 1.353 . S
C1102 C1105 1.348 . S
C1102 H1140 0.929 . S
N1103 Li1058 1.990 . S
N1103 C1100 1.314 . S
N1103 C1101 1.279 . S
C1104 C1101 1.358 . S
C1104 C1105 1.356 . S
C1104 H1141 0.930 . S
C1105 C1102 1.348 . S
C1105 C1104 1.356 . S
H1106 C1100 0.930 . S
H1107 C1101 0.930 . S
C1108 N1109 1.314 . S
C1108 C1110 1.353 . S
C1108 H1114 0.930 . S
N1109 Li1059 1.990 . S
N1109 C1108 1.314 . S
N1109 C1112 1.279 . S
C1110 C1108 1.353 . S
C1110 C1113 1.348 . S
C1110 H1142 0.929 . S
C1111 C1112 1.358 . S
C1111 C1113 1.356 . S
C1111 H1143 0.930 . S
C1112 N1109 1.279 . S
C1112 C1111 1.358 . S
C1112 H1115 0.930 . S
C1113 C1110 1.348 . S
C1113 C1111 1.356 . S
H1114 C1108 0.930 . S
H1115 C1112 0.930 . S
O1116 Li1056 1.956 . S
O1116 Li1057 1.970 . S
O1116 Li1058 1.961 . S
O1116 C1060 1.325 . S
O1117 Li1056 1.970 . S
O1117 Li1057 1.956 . S
O1117 Li1059 1.961 . S
O1117 C1066 1.325 . S
O1118 Li1056 1.961 . S
O1118 Li1058 1.956 . S
O1118 Li1059 1.970 . S
O1118 C1088 1.325 . S
O1119 Li1057 1.961 . S
O1119 Li1058 1.970 . S
O1119 Li1059 1.956 . S
O1119 C1094 1.325 . S
H1120 C1062 0.929 . S
H1121 C1063 0.930 . S
H1122 C1064 0.930 . S
H1123 C1065 0.930 . S
H1124 C1067 0.930 . S
H1125 C1069 0.929 . S
H1126 C1070 0.930 . S
H1127 C1071 0.930 . S
H1128 C1074 0.930 . S
H1129 C1077 0.929 . S
H1130 C1082 0.929 . S
H1131 C1083 0.930 . S
H1132 C1090 0.929 . S
H1133 C1091 0.930 . S
H1134 C1092 0.930 . S
H1135 C1093 0.930 . S
H1136 C1095 0.929 . S
H1137 C1096 0.930 . S
H1138 C1097 0.930 . S
H1139 C1098 0.930 . S
H1140 C1102 0.929 . S
H1141 C1104 0.930 . S
H1142 C1110 0.929 . S
H1143 C1111 0.930 . S
Li1144 N1161 1.990 . S
Li1144 O1204 1.956 . S
Li1144 O1205 1.970 . S
Li1144 O1206 1.961 . S
Li1145 N1169 1.990 . S
Li1145 O1204 1.970 . S
Li1145 O1205 1.956 . S
Li1145 O1207 1.961 . S
Li1146 N1191 1.990 . S
Li1146 O1204 1.961 . S
Li1146 O1206 1.956 . S
Li1146 O1207 1.970 . S
Li1147 N1197 1.990 . S
Li1147 O1205 1.961 . S
Li1147 O1206 1.970 . S
Li1147 O1207 1.956 . S
C1148 C1150 1.348 . S
C1148 C1151 1.356 . S
C1148 O1204 1.325 . S
N1149 C1152 1.314 . S
N1149 C1153 1.279 . S
C1150 C1148 1.348 . S
C1150 C1152 1.353 . S
C1150 H1208 0.929 . S
C1151 C1148 1.356 . S
C1151 C1153 1.358 . S
C1151 H1209 0.930 . S
C1152 N1149 1.314 . S
C1152 C1150 1.353 . S
C1152 H1210 0.930 . S
C1153 N1149 1.279 . S
C1153 C1151 1.358 . S
C1153 H1211 0.930 . S
C1154 C1157 1.348 . S
C1154 C1158 1.356 . S
C1154 O1205 1.325 . S
C1155 N1156 1.279 . S
C1155 C1158 1.358 . S
C1155 H1212 0.930 . S
N1156 C1155 1.279 . S
N1156 C1159 1.314 . S
C1157 C1154 1.348 . S
C1157 C1159 1.353 . S
C1157 H1213 0.929 . S
C1158 C1154 1.356 . S
C1158 C1155 1.358 . S
C1158 H1214 0.930 . S
C1159 N1156 1.314 . S
C1159 C1157 1.353 . S
C1159 H1215 0.930 . S
C1160 N1161 1.314 . S
C1160 C1165 1.353 . S
C1160 H1166 0.930 . S
N1161 Li1144 1.990 . S
N1161 C1160 1.314 . S
N1161 C1163 1.279 . S
C1162 C1163 1.358 . S
C1162 C1164 1.356 . S
C1162 H1216 0.930 . S
C1163 N1161 1.279 . S
C1163 C1162 1.358 . S
C1163 H1167 0.930 . S
C1164 C1162 1.356 . S
C1164 C1165 1.348 . S
C1165 C1160 1.353 . S
C1165 C1164 1.348 . S
C1165 H1217 0.929 . S
H1166 C1160 0.930 . S
H1167 C1163 0.930 . S
C1168 N1169 1.314 . S
C1168 C1170 1.353 . S
C1168 H1174 0.930 . S
N1169 Li1145 1.990 . S
N1169 C1168 1.314 . S
N1169 C1172 1.279 . S
C1170 C1168 1.353 . S
C1170 C1173 1.348 . S
C1170 H1218 0.929 . S
C1171 C1172 1.358 . S
C1171 C1173 1.356 . S
C1171 H1219 0.930 . S
C1172 N1169 1.279 . S
C1172 C1171 1.358 . S
C1172 H1175 0.930 . S
C1173 C1170 1.348 . S
C1173 C1171 1.356 . S
H1174 C1168 0.930 . S
H1175 C1172 0.930 . S
C1176 C1178 1.348 . S
C1176 C1179 1.356 . S
C1176 O1206 1.325 . S
N1177 C1180 1.314 . S
N1177 C1181 1.279 . S
C1178 C1176 1.348 . S
C1178 C1180 1.353 . S
C1178 H1220 0.929 . S
C1179 C1176 1.356 . S
C1179 C1181 1.358 . S
C1179 H1221 0.930 . S
C1180 N1177 1.314 . S
C1180 C1178 1.353 . S
C1180 H1222 0.930 . S
C1181 N1177 1.279 . S
C1181 C1179 1.358 . S
C1181 H1223 0.930 . S
C1182 C1183 1.348 . S
C1182 C1184 1.356 . S
C1182 O1207 1.325 . S
C1183 C1182 1.348 . S
C1183 C1185 1.353 . S
C1183 H1224 0.929 . S
C1184 C1182 1.356 . S
C1184 C1186 1.358 . S
C1184 H1225 0.930 . S
C1185 C1183 1.353 . S
C1185 N1187 1.314 . S
C1185 H1226 0.930 . S
C1186 C1184 1.358 . S
C1186 N1187 1.279 . S
C1186 H1227 0.930 . S
N1187 C1185 1.314 . S
N1187 C1186 1.279 . S
C1188 C1190 1.353 . S
C1188 N1191 1.314 . S
C1188 H1194 0.930 . S
C1189 N1191 1.279 . S
C1189 C1192 1.358 . S
C1189 H1195 0.930 . S
C1190 C1188 1.353 . S
C1190 C1193 1.348 . S
C1190 H1228 0.929 . S
N1191 Li1146 1.990 . S
N1191 C1188 1.314 . S
N1191 C1189 1.279 . S
C1192 C1189 1.358 . S
C1192 C1193 1.356 . S
C1192 H1229 0.930 . S
C1193 C1190 1.348 . S
C1193 C1192 1.356 . S
H1194 C1188 0.930 . S
H1195 C1189 0.930 . S
C1196 N1197 1.314 . S
C1196 C1198 1.353 . S
C1196 H1202 0.930 . S
N1197 Li1147 1.990 . S
N1197 C1196 1.314 . S
N1197 C1200 1.279 . S
C1198 C1196 1.353 . S
C1198 C1201 1.348 . S
C1198 H1230 0.929 . S
C1199 C1200 1.358 . S
C1199 C1201 1.356 . S
C1199 H1231 0.930 . S
C1200 N1197 1.279 . S
C1200 C1199 1.358 . S
C1200 H1203 0.930 . S
C1201 C1198 1.348 . S
C1201 C1199 1.356 . S
H1202 C1196 0.930 . S
H1203 C1200 0.930 . S
O1204 Li1144 1.956 . S
O1204 Li1145 1.970 . S
O1204 Li1146 1.961 . S
O1204 C1148 1.325 . S
O1205 Li1144 1.970 . S
O1205 Li1145 1.956 . S
O1205 Li1147 1.961 . S
O1205 C1154 1.325 . S
O1206 Li1144 1.961 . S
O1206 Li1146 1.956 . S
O1206 Li1147 1.970 . S
O1206 C1176 1.325 . S
O1207 Li1145 1.961 . S
O1207 Li1146 1.970 . S
O1207 Li1147 1.956 . S
O1207 C1182 1.325 . S
H1208 C1150 0.929 . S
H1209 C1151 0.930 . S
H1210 C1152 0.930 . S
H1211 C1153 0.930 . S
H1212 C1155 0.930 . S
H1213 C1157 0.929 . S
H1214 C1158 0.930 . S
H1215 C1159 0.930 . S
H1216 C1162 0.930 . S
H1217 C1165 0.929 . S
H1218 C1170 0.929 . S
H1219 C1171 0.930 . S
H1220 C1178 0.929 . S
H1221 C1179 0.930 . S
H1222 C1180 0.930 . S
H1223 C1181 0.930 . S
H1224 C1183 0.929 . S
H1225 C1184 0.930 . S
H1226 C1185 0.930 . S
H1227 C1186 0.930 . S
H1228 C1190 0.929 . S
H1229 C1192 0.930 . S
H1230 C1198 0.929 . S
H1231 C1199 0.930 . S
Li1232 N1249 1.990 . S
Li1232 O1292 1.956 . S
Li1232 O1293 1.970 . S
Li1232 O1294 1.961 . S
Li1233 N1257 1.990 . S
Li1233 O1292 1.970 . S
Li1233 O1293 1.956 . S
Li1233 O1295 1.961 . S
Li1234 N1279 1.990 . S
Li1234 O1292 1.961 . S
Li1234 O1294 1.956 . S
Li1234 O1295 1.970 . S
Li1235 N1285 1.990 . S
Li1235 O1293 1.961 . S
Li1235 O1294 1.970 . S
Li1235 O1295 1.956 . S
C1236 C1238 1.348 . S
C1236 C1239 1.356 . S
C1236 O1292 1.325 . S
N1237 C1240 1.314 . S
N1237 C1241 1.279 . S
C1238 C1236 1.348 . S
C1238 C1240 1.353 . S
C1238 H1296 0.929 . S
C1239 C1236 1.356 . S
C1239 C1241 1.358 . S
C1239 H1297 0.930 . S
C1240 N1237 1.314 . S
C1240 C1238 1.353 . S
C1240 H1298 0.930 . S
C1241 N1237 1.279 . S
C1241 C1239 1.358 . S
C1241 H1299 0.930 . S
C1242 C1245 1.348 . S
C1242 C1246 1.356 . S
C1242 O1293 1.325 . S
C1243 N1244 1.279 . S
C1243 C1246 1.358 . S
C1243 H1300 0.930 . S
N1244 C1243 1.279 . S
N1244 C1247 1.314 . S
C1245 C1242 1.348 . S
C1245 C1247 1.353 . S
C1245 H1301 0.929 . S
C1246 C1242 1.356 . S
C1246 C1243 1.358 . S
C1246 H1302 0.930 . S
C1247 N1244 1.314 . S
C1247 C1245 1.353 . S
C1247 H1303 0.930 . S
C1248 N1249 1.314 . S
C1248 C1253 1.353 . S
C1248 H1254 0.930 . S
N1249 Li1232 1.990 . S
N1249 C1248 1.314 . S
N1249 C1251 1.279 . S
C1250 C1251 1.358 . S
C1250 C1252 1.356 . S
C1250 H1304 0.930 . S
C1251 N1249 1.279 . S
C1251 C1250 1.358 . S
C1251 H1255 0.930 . S
C1252 C1250 1.356 . S
C1252 C1253 1.348 . S
C1253 C1248 1.353 . S
C1253 C1252 1.348 . S
C1253 H1305 0.929 . S
H1254 C1248 0.930 . S
H1255 C1251 0.930 . S
C1256 N1257 1.314 . S
C1256 C1258 1.353 . S
C1256 H1262 0.930 . S
N1257 Li1233 1.990 . S
N1257 C1256 1.314 . S
N1257 C1260 1.279 . S
C1258 C1256 1.353 . S
C1258 C1261 1.348 . S
C1258 H1306 0.929 . S
C1259 C1260 1.358 . S
C1259 C1261 1.356 . S
C1259 H1307 0.930 . S
C1260 N1257 1.279 . S
C1260 C1259 1.358 . S
C1260 H1263 0.930 . S
C1261 C1258 1.348 . S
C1261 C1259 1.356 . S
H1262 C1256 0.930 . S
H1263 C1260 0.930 . S
C1264 C1266 1.348 . S
C1264 C1267 1.356 . S
C1264 O1294 1.325 . S
N1265 C1268 1.314 . S
N1265 C1269 1.279 . S
C1266 C1264 1.348 . S
C1266 C1268 1.353 . S
C1266 H1308 0.929 . S
C1267 C1264 1.356 . S
C1267 C1269 1.358 . S
C1267 H1309 0.930 . S
C1268 N1265 1.314 . S
C1268 C1266 1.353 . S
C1268 H1310 0.930 . S
C1269 N1265 1.279 . S
C1269 C1267 1.358 . S
C1269 H1311 0.930 . S
C1270 C1271 1.348 . S
C1270 C1272 1.356 . S
C1270 O1295 1.325 . S
C1271 C1270 1.348 . S
C1271 C1273 1.353 . S
C1271 H1312 0.929 . S
C1272 C1270 1.356 . S
C1272 C1274 1.358 . S
C1272 H1313 0.930 . S
C1273 C1271 1.353 . S
C1273 N1275 1.314 . S
C1273 H1314 0.930 . S
C1274 C1272 1.358 . S
C1274 N1275 1.279 . S
C1274 H1315 0.930 . S
N1275 C1273 1.314 . S
N1275 C1274 1.279 . S
C1276 C1278 1.353 . S
C1276 N1279 1.314 . S
C1276 H1282 0.930 . S
C1277 N1279 1.279 . S
C1277 C1280 1.358 . S
C1277 H1283 0.930 . S
C1278 C1276 1.353 . S
C1278 C1281 1.348 . S
C1278 H1316 0.929 . S
N1279 Li1234 1.990 . S
N1279 C1276 1.314 . S
N1279 C1277 1.279 . S
C1280 C1277 1.358 . S
C1280 C1281 1.356 . S
C1280 H1317 0.930 . S
C1281 C1278 1.348 . S
C1281 C1280 1.356 . S
H1282 C1276 0.930 . S
H1283 C1277 0.930 . S
C1284 N1285 1.314 . S
C1284 C1286 1.353 . S
C1284 H1290 0.930 . S
N1285 Li1235 1.990 . S
N1285 C1284 1.314 . S
N1285 C1288 1.279 . S
C1286 C1284 1.353 . S
C1286 C1289 1.348 . S
C1286 H1318 0.929 . S
C1287 C1288 1.358 . S
C1287 C1289 1.356 . S
C1287 H1319 0.930 . S
C1288 N1285 1.279 . S
C1288 C1287 1.358 . S
C1288 H1291 0.930 . S
C1289 C1286 1.348 . S
C1289 C1287 1.356 . S
H1290 C1284 0.930 . S
H1291 C1288 0.930 . S
O1292 Li1232 1.956 . S
O1292 Li1233 1.970 . S
O1292 Li1234 1.961 . S
O1292 C1236 1.325 . S
O1293 Li1232 1.970 . S
O1293 Li1233 1.956 . S
O1293 Li1235 1.961 . S
O1293 C1242 1.325 . S
O1294 Li1232 1.961 . S
O1294 Li1234 1.956 . S
O1294 Li1235 1.970 . S
O1294 C1264 1.325 . S
O1295 Li1233 1.961 . S
O1295 Li1234 1.970 . S
O1295 Li1235 1.956 . S
O1295 C1270 1.325 . S
H1296 C1238 0.929 . S
H1297 C1239 0.930 . S
H1298 C1240 0.930 . S
H1299 C1241 0.930 . S
H1300 C1243 0.930 . S
H1301 C1245 0.929 . S
H1302 C1246 0.930 . S
H1303 C1247 0.930 . S
H1304 C1250 0.930 . S
H1305 C1253 0.929 . S
H1306 C1258 0.929 . S
H1307 C1259 0.930 . S
H1308 C1266 0.929 . S
H1309 C1267 0.930 . S
H1310 C1268 0.930 . S
H1311 C1269 0.930 . S
H1312 C1271 0.929 . S
H1313 C1272 0.930 . S
H1314 C1273 0.930 . S
H1315 C1274 0.930 . S
H1316 C1278 0.929 . S
H1317 C1280 0.930 . S
H1318 C1286 0.929 . S
H1319 C1287 0.930 . S
Li1320 N1337 1.990 . S
Li1320 O1380 1.956 . S
Li1320 O1381 1.970 . S
Li1320 O1382 1.961 . S
Li1321 N1345 1.990 . S
Li1321 O1380 1.970 . S
Li1321 O1381 1.956 . S
Li1321 O1383 1.961 . S
Li1322 N1367 1.990 . S
Li1322 O1380 1.961 . S
Li1322 O1382 1.956 . S
Li1322 O1383 1.970 . S
Li1323 N1373 1.990 . S
Li1323 O1381 1.961 . S
Li1323 O1382 1.970 . S
Li1323 O1383 1.956 . S
C1324 C1326 1.348 . S
C1324 C1327 1.356 . S
C1324 O1380 1.325 . S
N1325 C1328 1.314 . S
N1325 C1329 1.279 . S
C1326 C1324 1.348 . S
C1326 C1328 1.353 . S
C1326 H1384 0.929 . S
C1327 C1324 1.356 . S
C1327 C1329 1.358 . S
C1327 H1385 0.930 . S
C1328 N1325 1.314 . S
C1328 C1326 1.353 . S
C1328 H1386 0.930 . S
C1329 N1325 1.279 . S
C1329 C1327 1.358 . S
C1329 H1387 0.930 . S
C1330 C1333 1.348 . S
C1330 C1334 1.356 . S
C1330 O1381 1.325 . S
C1331 N1332 1.279 . S
C1331 C1334 1.358 . S
C1331 H1388 0.930 . S
N1332 C1331 1.279 . S
N1332 C1335 1.314 . S
C1333 C1330 1.348 . S
C1333 C1335 1.353 . S
C1333 H1389 0.929 . S
C1334 C1330 1.356 . S
C1334 C1331 1.358 . S
C1334 H1390 0.930 . S
C1335 N1332 1.314 . S
C1335 C1333 1.353 . S
C1335 H1391 0.930 . S
C1336 N1337 1.314 . S
C1336 C1341 1.353 . S
C1336 H1342 0.930 . S
N1337 Li1320 1.990 . S
N1337 C1336 1.314 . S
N1337 C1339 1.279 . S
C1338 C1339 1.358 . S
C1338 C1340 1.356 . S
C1338 H1392 0.930 . S
C1339 N1337 1.279 . S
C1339 C1338 1.358 . S
C1339 H1343 0.930 . S
C1340 C1338 1.356 . S
C1340 C1341 1.348 . S
C1341 C1336 1.353 . S
C1341 C1340 1.348 . S
C1341 H1393 0.929 . S
H1342 C1336 0.930 . S
H1343 C1339 0.930 . S
C1344 N1345 1.314 . S
C1344 C1346 1.353 . S
C1344 H1350 0.930 . S
N1345 Li1321 1.990 . S
N1345 C1344 1.314 . S
N1345 C1348 1.279 . S
C1346 C1344 1.353 . S
C1346 C1349 1.348 . S
C1346 H1394 0.929 . S
C1347 C1348 1.358 . S
C1347 C1349 1.356 . S
C1347 H1395 0.930 . S
C1348 N1345 1.279 . S
C1348 C1347 1.358 . S
C1348 H1351 0.930 . S
C1349 C1346 1.348 . S
C1349 C1347 1.356 . S
H1350 C1344 0.930 . S
H1351 C1348 0.930 . S
C1352 C1354 1.348 . S
C1352 C1355 1.356 . S
C1352 O1382 1.325 . S
N1353 C1356 1.314 . S
N1353 C1357 1.279 . S
C1354 C1352 1.348 . S
C1354 C1356 1.353 . S
C1354 H1396 0.929 . S
C1355 C1352 1.356 . S
C1355 C1357 1.358 . S
C1355 H1397 0.930 . S
C1356 N1353 1.314 . S
C1356 C1354 1.353 . S
C1356 H1398 0.930 . S
C1357 N1353 1.279 . S
C1357 C1355 1.358 . S
C1357 H1399 0.930 . S
C1358 C1359 1.348 . S
C1358 C1360 1.356 . S
C1358 O1383 1.325 . S
C1359 C1358 1.348 . S
C1359 C1361 1.353 . S
C1359 H1400 0.929 . S
C1360 C1358 1.356 . S
C1360 C1362 1.358 . S
C1360 H1401 0.930 . S
C1361 C1359 1.353 . S
C1361 N1363 1.314 . S
C1361 H1402 0.930 . S
C1362 C1360 1.358 . S
C1362 N1363 1.279 . S
C1362 H1403 0.930 . S
N1363 C1361 1.314 . S
N1363 C1362 1.279 . S
C1364 C1366 1.353 . S
C1364 N1367 1.314 . S
C1364 H1370 0.930 . S
C1365 N1367 1.279 . S
C1365 C1368 1.358 . S
C1365 H1371 0.930 . S
C1366 C1364 1.353 . S
C1366 C1369 1.348 . S
C1366 H1404 0.929 . S
N1367 Li1322 1.990 . S
N1367 C1364 1.314 . S
N1367 C1365 1.279 . S
C1368 C1365 1.358 . S
C1368 C1369 1.356 . S
C1368 H1405 0.930 . S
C1369 C1366 1.348 . S
C1369 C1368 1.356 . S
H1370 C1364 0.930 . S
H1371 C1365 0.930 . S
C1372 N1373 1.314 . S
C1372 C1374 1.353 . S
C1372 H1378 0.930 . S
N1373 Li1323 1.990 . S
N1373 C1372 1.314 . S
N1373 C1376 1.279 . S
C1374 C1372 1.353 . S
C1374 C1377 1.348 . S
C1374 H1406 0.929 . S
C1375 C1376 1.358 . S
C1375 C1377 1.356 . S
C1375 H1407 0.930 . S
C1376 N1373 1.279 . S
C1376 C1375 1.358 . S
C1376 H1379 0.930 . S
C1377 C1374 1.348 . S
C1377 C1375 1.356 . S
H1378 C1372 0.930 . S
H1379 C1376 0.930 . S
O1380 Li1320 1.956 . S
O1380 Li1321 1.970 . S
O1380 Li1322 1.961 . S
O1380 C1324 1.325 . S
O1381 Li1320 1.970 . S
O1381 Li1321 1.956 . S
O1381 Li1323 1.961 . S
O1381 C1330 1.325 . S
O1382 Li1320 1.961 . S
O1382 Li1322 1.956 . S
O1382 Li1323 1.970 . S
O1382 C1352 1.325 . S
O1383 Li1321 1.961 . S
O1383 Li1322 1.970 . S
O1383 Li1323 1.956 . S
O1383 C1358 1.325 . S
H1384 C1326 0.929 . S
H1385 C1327 0.930 . S
H1386 C1328 0.930 . S
H1387 C1329 0.930 . S
H1388 C1331 0.930 . S
H1389 C1333 0.929 . S
H1390 C1334 0.930 . S
H1391 C1335 0.930 . S
H1392 C1338 0.930 . S
H1393 C1341 0.929 . S
H1394 C1346 0.929 . S
H1395 C1347 0.930 . S
H1396 C1354 0.929 . S
H1397 C1355 0.930 . S
H1398 C1356 0.930 . S
H1399 C1357 0.930 . S
H1400 C1359 0.929 . S
H1401 C1360 0.930 . S
H1402 C1361 0.930 . S
H1403 C1362 0.930 . S
H1404 C1366 0.929 . S
H1405 C1368 0.930 . S
H1406 C1374 0.929 . S
H1407 C1375 0.930 . S
Li1408 N1425 1.990 . S
Li1408 O1468 1.956 . S
Li1408 O1469 1.970 . S
Li1408 O1470 1.961 . S
Li1409 N1433 1.990 . S
Li1409 O1468 1.970 . S
Li1409 O1469 1.956 . S
Li1409 O1471 1.961 . S
Li1410 N1455 1.990 . S
Li1410 O1468 1.961 . S
Li1410 O1470 1.956 . S
Li1410 O1471 1.970 . S
Li1411 N1461 1.990 . S
Li1411 O1469 1.961 . S
Li1411 O1470 1.970 . S
Li1411 O1471 1.956 . S
C1412 C1414 1.348 . S
C1412 C1415 1.356 . S
C1412 O1468 1.325 . S
N1413 C1416 1.314 . S
N1413 C1417 1.279 . S
C1414 C1412 1.348 . S
C1414 C1416 1.353 . S
C1414 H1472 0.929 . S
C1415 C1412 1.356 . S
C1415 C1417 1.358 . S
C1415 H1473 0.930 . S
C1416 N1413 1.314 . S
C1416 C1414 1.353 . S
C1416 H1474 0.930 . S
C1417 N1413 1.279 . S
C1417 C1415 1.358 . S
C1417 H1475 0.930 . S
C1418 C1421 1.348 . S
C1418 C1422 1.356 . S
C1418 O1469 1.325 . S
C1419 N1420 1.279 . S
C1419 C1422 1.358 . S
C1419 H1476 0.930 . S
N1420 C1419 1.279 . S
N1420 C1423 1.314 . S
C1421 C1418 1.348 . S
C1421 C1423 1.353 . S
C1421 H1477 0.929 . S
C1422 C1418 1.356 . S
C1422 C1419 1.358 . S
C1422 H1478 0.930 . S
C1423 N1420 1.314 . S
C1423 C1421 1.353 . S
C1423 H1479 0.930 . S
C1424 N1425 1.314 . S
C1424 C1429 1.353 . S
C1424 H1430 0.930 . S
N1425 Li1408 1.990 . S
N1425 C1424 1.314 . S
N1425 C1427 1.279 . S
C1426 C1427 1.358 . S
C1426 C1428 1.356 . S
C1426 H1480 0.930 . S
C1427 N1425 1.279 . S
C1427 C1426 1.358 . S
C1427 H1431 0.930 . S
C1428 C1426 1.356 . S
C1428 C1429 1.348 . S
C1429 C1424 1.353 . S
C1429 C1428 1.348 . S
C1429 H1481 0.929 . S
H1430 C1424 0.930 . S
H1431 C1427 0.930 . S
C1432 N1433 1.314 . S
C1432 C1434 1.353 . S
C1432 H1438 0.930 . S
N1433 Li1409 1.990 . S
N1433 C1432 1.314 . S
N1433 C1436 1.279 . S
C1434 C1432 1.353 . S
C1434 C1437 1.348 . S
C1434 H1482 0.929 . S
C1435 C1436 1.358 . S
C1435 C1437 1.356 . S
C1435 H1483 0.930 . S
C1436 N1433 1.279 . S
C1436 C1435 1.358 . S
C1436 H1439 0.930 . S
C1437 C1434 1.348 . S
C1437 C1435 1.356 . S
H1438 C1432 0.930 . S
H1439 C1436 0.930 . S
C1440 C1442 1.348 . S
C1440 C1443 1.356 . S
C1440 O1470 1.325 . S
N1441 C1444 1.314 . S
N1441 C1445 1.279 . S
C1442 C1440 1.348 . S
C1442 C1444 1.353 . S
C1442 H1484 0.929 . S
C1443 C1440 1.356 . S
C1443 C1445 1.358 . S
C1443 H1485 0.930 . S
C1444 N1441 1.314 . S
C1444 C1442 1.353 . S
C1444 H1486 0.930 . S
C1445 N1441 1.279 . S
C1445 C1443 1.358 . S
C1445 H1487 0.930 . S
C1446 C1447 1.348 . S
C1446 C1448 1.356 . S
C1446 O1471 1.325 . S
C1447 C1446 1.348 . S
C1447 C1449 1.353 . S
C1447 H1488 0.929 . S
C1448 C1446 1.356 . S
C1448 C1450 1.358 . S
C1448 H1489 0.930 . S
C1449 C1447 1.353 . S
C1449 N1451 1.314 . S
C1449 H1490 0.930 . S
C1450 C1448 1.358 . S
C1450 N1451 1.279 . S
C1450 H1491 0.930 . S
N1451 C1449 1.314 . S
N1451 C1450 1.279 . S
C1452 C1454 1.353 . S
C1452 N1455 1.314 . S
C1452 H1458 0.930 . S
C1453 N1455 1.279 . S
C1453 C1456 1.358 . S
C1453 H1459 0.930 . S
C1454 C1452 1.353 . S
C1454 C1457 1.348 . S
C1454 H1492 0.929 . S
N1455 Li1410 1.990 . S
N1455 C1452 1.314 . S
N1455 C1453 1.279 . S
C1456 C1453 1.358 . S
C1456 C1457 1.356 . S
C1456 H1493 0.930 . S
C1457 C1454 1.348 . S
C1457 C1456 1.356 . S
H1458 C1452 0.930 . S
H1459 C1453 0.930 . S
C1460 N1461 1.314 . S
C1460 C1462 1.353 . S
C1460 H1466 0.930 . S
N1461 Li1411 1.990 . S
N1461 C1460 1.314 . S
N1461 C1464 1.279 . S
C1462 C1460 1.353 . S
C1462 C1465 1.348 . S
C1462 H1494 0.929 . S
C1463 C1464 1.358 . S
C1463 C1465 1.356 . S
C1463 H1495 0.930 . S
C1464 N1461 1.279 . S
C1464 C1463 1.358 . S
C1464 H1467 0.930 . S
C1465 C1462 1.348 . S
C1465 C1463 1.356 . S
H1466 C1460 0.930 . S
H1467 C1464 0.930 . S
O1468 Li1408 1.956 . S
O1468 Li1409 1.970 . S
O1468 Li1410 1.961 . S
O1468 C1412 1.325 . S
O1469 Li1408 1.970 . S
O1469 Li1409 1.956 . S
O1469 Li1411 1.961 . S
O1469 C1418 1.325 . S
O1470 Li1408 1.961 . S
O1470 Li1410 1.956 . S
O1470 Li1411 1.970 . S
O1470 C1440 1.325 . S
O1471 Li1409 1.961 . S
O1471 Li1410 1.970 . S
O1471 Li1411 1.956 . S
O1471 C1446 1.325 . S
H1472 C1414 0.929 . S
H1473 C1415 0.930 . S
H1474 C1416 0.930 . S
H1475 C1417 0.930 . S
H1476 C1419 0.930 . S
H1477 C1421 0.929 . S
H1478 C1422 0.930 . S
H1479 C1423 0.930 . S
H1480 C1426 0.930 . S
H1481 C1429 0.929 . S
H1482 C1434 0.929 . S
H1483 C1435 0.930 . S
H1484 C1442 0.929 . S
H1485 C1443 0.930 . S
H1486 C1444 0.930 . S
H1487 C1445 0.930 . S
H1488 C1447 0.929 . S
H1489 C1448 0.930 . S
H1490 C1449 0.930 . S
H1491 C1450 0.930 . S
H1492 C1454 0.929 . S
H1493 C1456 0.930 . S
H1494 C1462 0.929 . S
H1495 C1463 0.930 . S
Li1496 N1513 1.990 . S
Li1496 O1556 1.956 . S
Li1496 O1557 1.970 . S
Li1496 O1558 1.961 . S
Li1497 N1521 1.990 . S
Li1497 O1556 1.970 . S
Li1497 O1557 1.956 . S
Li1497 O1559 1.961 . S
Li1498 N1543 1.990 . S
Li1498 O1556 1.961 . S
Li1498 O1558 1.956 . S
Li1498 O1559 1.970 . S
Li1499 N1549 1.990 . S
Li1499 O1557 1.961 . S
Li1499 O1558 1.970 . S
Li1499 O1559 1.956 . S
C1500 C1502 1.348 . S
C1500 C1503 1.356 . S
C1500 O1556 1.325 . S
N1501 C1504 1.314 . S
N1501 C1505 1.279 . S
C1502 C1500 1.348 . S
C1502 C1504 1.353 . S
C1502 H1560 0.929 . S
C1503 C1500 1.356 . S
C1503 C1505 1.358 . S
C1503 H1561 0.930 . S
C1504 N1501 1.314 . S
C1504 C1502 1.353 . S
C1504 H1562 0.930 . S
C1505 N1501 1.279 . S
C1505 C1503 1.358 . S
C1505 H1563 0.930 . S
C1506 C1509 1.348 . S
C1506 C1510 1.356 . S
C1506 O1557 1.325 . S
C1507 N1508 1.279 . S
C1507 C1510 1.358 . S
C1507 H1564 0.930 . S
N1508 C1507 1.279 . S
N1508 C1511 1.314 . S
C1509 C1506 1.348 . S
C1509 C1511 1.353 . S
C1509 H1565 0.929 . S
C1510 C1506 1.356 . S
C1510 C1507 1.358 . S
C1510 H1566 0.930 . S
C1511 N1508 1.314 . S
C1511 C1509 1.353 . S
C1511 H1567 0.930 . S
C1512 N1513 1.314 . S
C1512 C1517 1.353 . S
C1512 H1518 0.930 . S
N1513 Li1496 1.990 . S
N1513 C1512 1.314 . S
N1513 C1515 1.279 . S
C1514 C1515 1.358 . S
C1514 C1516 1.356 . S
C1514 H1568 0.930 . S
C1515 N1513 1.279 . S
C1515 C1514 1.358 . S
C1515 H1519 0.930 . S
C1516 C1514 1.356 . S
C1516 C1517 1.348 . S
C1517 C1512 1.353 . S
C1517 C1516 1.348 . S
C1517 H1569 0.929 . S
H1518 C1512 0.930 . S
H1519 C1515 0.930 . S
C1520 N1521 1.314 . S
C1520 C1522 1.353 . S
C1520 H1526 0.930 . S
N1521 Li1497 1.990 . S
N1521 C1520 1.314 . S
N1521 C1524 1.279 . S
C1522 C1520 1.353 . S
C1522 C1525 1.348 . S
C1522 H1570 0.929 . S
C1523 C1524 1.358 . S
C1523 C1525 1.356 . S
C1523 H1571 0.930 . S
C1524 N1521 1.279 . S
C1524 C1523 1.358 . S
C1524 H1527 0.930 . S
C1525 C1522 1.348 . S
C1525 C1523 1.356 . S
H1526 C1520 0.930 . S
H1527 C1524 0.930 . S
C1528 C1530 1.348 . S
C1528 C1531 1.356 . S
C1528 O1558 1.325 . S
N1529 C1532 1.314 . S
N1529 C1533 1.279 . S
C1530 C1528 1.348 . S
C1530 C1532 1.353 . S
C1530 H1572 0.929 . S
C1531 C1528 1.356 . S
C1531 C1533 1.358 . S
C1531 H1573 0.930 . S
C1532 N1529 1.314 . S
C1532 C1530 1.353 . S
C1532 H1574 0.930 . S
C1533 N1529 1.279 . S
C1533 C1531 1.358 . S
C1533 H1575 0.930 . S
C1534 C1535 1.348 . S
C1534 C1536 1.356 . S
C1534 O1559 1.325 . S
C1535 C1534 1.348 . S
C1535 C1537 1.353 . S
C1535 H1576 0.929 . S
C1536 C1534 1.356 . S
C1536 C1538 1.358 . S
C1536 H1577 0.930 . S
C1537 C1535 1.353 . S
C1537 N1539 1.314 . S
C1537 H1578 0.930 . S
C1538 C1536 1.358 . S
C1538 N1539 1.279 . S
C1538 H1579 0.930 . S
N1539 C1537 1.314 . S
N1539 C1538 1.279 . S
C1540 C1542 1.353 . S
C1540 N1543 1.314 . S
C1540 H1546 0.930 . S
C1541 N1543 1.279 . S
C1541 C1544 1.358 . S
C1541 H1547 0.930 . S
C1542 C1540 1.353 . S
C1542 C1545 1.348 . S
C1542 H1580 0.929 . S
N1543 Li1498 1.990 . S
N1543 C1540 1.314 . S
N1543 C1541 1.279 . S
C1544 C1541 1.358 . S
C1544 C1545 1.356 . S
C1544 H1581 0.930 . S
C1545 C1542 1.348 . S
C1545 C1544 1.356 . S
H1546 C1540 0.930 . S
H1547 C1541 0.930 . S
C1548 N1549 1.314 . S
C1548 C1550 1.353 . S
C1548 H1554 0.930 . S
N1549 Li1499 1.990 . S
N1549 C1548 1.314 . S
N1549 C1552 1.279 . S
C1550 C1548 1.353 . S
C1550 C1553 1.348 . S
C1550 H1582 0.929 . S
C1551 C1552 1.358 . S
C1551 C1553 1.356 . S
C1551 H1583 0.930 . S
C1552 N1549 1.279 . S
C1552 C1551 1.358 . S
C1552 H1555 0.930 . S
C1553 C1550 1.348 . S
C1553 C1551 1.356 . S
H1554 C1548 0.930 . S
H1555 C1552 0.930 . S
O1556 Li1496 1.956 . S
O1556 Li1497 1.970 . S
O1556 Li1498 1.961 . S
O1556 C1500 1.325 . S
O1557 Li1496 1.970 . S
O1557 Li1497 1.956 . S
O1557 Li1499 1.961 . S
O1557 C1506 1.325 . S
O1558 Li1496 1.961 . S
O1558 Li1498 1.956 . S
O1558 Li1499 1.970 . S
O1558 C1528 1.325 . S
O1559 Li1497 1.961 . S
O1559 Li1498 1.970 . S
O1559 Li1499 1.956 . S
O1559 C1534 1.325 . S
H1560 C1502 0.929 . S
H1561 C1503 0.930 . S
H1562 C1504 0.930 . S
H1563 C1505 0.930 . S
H1564 C1507 0.930 . S
H1565 C1509 0.929 . S
H1566 C1510 0.930 . S
H1567 C1511 0.930 . S
H1568 C1514 0.930 . S
H1569 C1517 0.929 . S
H1570 C1522 0.929 . S
H1571 C1523 0.930 . S
H1572 C1530 0.929 . S
H1573 C1531 0.930 . S
H1574 C1532 0.930 . S
H1575 C1533 0.930 . S
H1576 C1535 0.929 . S
H1577 C1536 0.930 . S
H1578 C1537 0.930 . S
H1579 C1538 0.930 . S
H1580 C1542 0.929 . S
H1581 C1544 0.930 . S
H1582 C1550 0.929 . S
H1583 C1551 0.930 . S
H1584 C1596 0.930 . S
H1585 C1598 0.930 . S
H1586 C1599 0.930 . S
H1587 C1603 0.959 . S
H1588 C1603 0.959 . S
H1589 C1603 0.961 . S
H1590 C1604 0.960 . S
H1591 C1604 0.961 . S
H1592 C1604 0.959 . S
H1593 C1607 0.929 . S
H1594 C1608 0.931 . S
H1595 C1610 0.930 . S
C1596 H1584 0.930 . S
C1596 C1597 1.399 . S
C1596 C1601 1.399 . S
C1597 C1596 1.399 . S
C1597 C1598 1.376 . S
C1598 H1585 0.930 . S
C1598 C1597 1.376 . S
C1598 C1599 1.388 . S
C1599 H1586 0.930 . S
C1599 C1598 1.388 . S
C1599 C1600 1.390 . S
C1600 C1599 1.390 . S
C1600 C1601 1.394 . S
C1600 C1606 1.465 . S
C1601 C1596 1.399 . S
C1601 C1600 1.394 . S
C1601 C1602 1.516 . S
C1602 C1601 1.516 . S
C1602 C1603 1.502 . S
C1602 C1604 1.561 . S
C1602 C1605 1.526 . S
C1603 H1587 0.959 . S
C1603 H1588 0.959 . S
C1603 H1589 0.961 . S
C1603 C1602 1.502 . S
C1604 H1590 0.960 . S
C1604 H1591 0.961 . S
C1604 H1592 0.959 . S
C1604 C1602 1.561 . S
C1605 C1602 1.526 . S
C1605 C1606 1.396 . S
C1605 C1610 1.390 . S
C1606 C1600 1.465 . S
C1606 C1605 1.396 . S
C1606 C1607 1.399 . S
C1607 H1593 0.929 . S
C1607 C1606 1.399 . S
C1607 C1608 1.385 . S
C1608 H1594 0.931 . S
C1608 C1607 1.385 . S
C1608 C1609 1.389 . S
C1609 C1608 1.389 . S
C1609 C1610 1.387 . S
C1610 H1595 0.930 . S
C1610 C1605 1.390 . S
C1610 C1609 1.387 . S
H1611 C1623 0.930 1_565 S
H1612 C1625 0.930 . S
H1613 C1626 0.930 . S
H1614 C1630 0.930 1_545 S
H1615 C1630 0.954 . S
H1616 C1630 1.005 . S
H1617 C1631 0.960 1_565 S
H1618 C1631 0.961 1_565 S
H1619 C1631 0.959 . S
H1620 C1634 0.929 . S
H1621 C1635 0.931 . S
H1622 C1637 0.930 . S
C1623 H1611 0.930 1_545 S
C1623 C1624 1.399 . S
C1623 C1628 1.399 . S
C1624 C1623 1.399 . S
C1624 C1625 1.376 . S
C1625 H1612 0.930 . S
C1625 C1624 1.376 . S
C1625 C1626 1.388 . S
C1626 H1613 0.930 . S
C1626 C1625 1.388 . S
C1626 C1627 1.390 . S
C1627 C1626 1.390 . S
C1627 C1628 1.394 . S
C1627 C1633 1.465 . S
C1628 C1623 1.399 . S
C1628 C1627 1.394 . S
C1628 C1629 1.516 . S
C1629 C1628 1.516 . S
C1629 C1630 1.493 1_545 S
C1629 C1631 1.561 . S
C1629 C1632 1.526 . S
C1630 H1614 0.930 1_565 S
C1630 H1615 0.954 . S
C1630 H1616 1.005 . S
C1630 C1629 1.493 1_565 S
C1631 H1617 0.960 1_545 S
C1631 H1618 0.961 1_545 S
C1631 H1619 0.959 . S
C1631 C1629 1.561 . S
C1632 C1629 1.526 . S
C1632 C1633 1.396 . S
C1632 C1637 1.390 . S
C1633 C1627 1.465 . S
C1633 C1632 1.396 . S
C1633 C1634 1.399 . S
C1634 H1620 0.929 . S
C1634 C1633 1.399 . S
C1634 C1635 1.385 . S
C1635 H1621 0.931 . S
C1635 C1634 1.385 . S
C1635 C1636 1.389 . S
C1636 C1635 1.389 . S
C1636 C1637 1.387 . S
C1637 H1622 0.930 . S
C1637 C1632 1.390 . S
C1637 C1636 1.387 . S
H1638 C1650 0.930 . S
H1639 C1652 0.930 . S
H1640 C1653 0.930 . S
H1641 C1657 0.959 . S
H1642 C1657 0.959 . S
H1643 C1657 0.961 . S
H1644 C1658 0.960 . S
H1645 C1658 0.961 . S
H1646 C1658 0.959 . S
H1647 C1661 0.929 . S
H1648 C1662 0.931 . S
H1649 C1664 0.930 . S
C1650 H1638 0.930 . S
C1650 C1651 1.399 . S
C1650 C1655 1.399 . S
C1651 C1650 1.399 . S
C1651 C1652 1.376 . S
C1652 H1639 0.930 . S
C1652 C1651 1.376 . S
C1652 C1653 1.388 . S
C1653 H1640 0.930 . S
C1653 C1652 1.388 . S
C1653 C1654 1.390 . S
C1654 C1653 1.390 . S
C1654 C1655 1.394 . S
C1654 C1660 1.465 . S
C1655 C1650 1.399 . S
C1655 C1654 1.394 . S
C1655 C1656 1.516 . S
C1656 C1655 1.516 . S
C1656 C1657 1.502 . S
C1656 C1658 1.561 . S
C1656 C1659 1.526 . S
C1657 H1641 0.959 . S
C1657 H1642 0.959 . S
C1657 H1643 0.961 . S
C1657 C1656 1.502 . S
C1658 H1644 0.960 . S
C1658 H1645 0.961 . S
C1658 H1646 0.959 . S
C1658 C1656 1.561 . S
C1659 C1656 1.526 . S
C1659 C1660 1.396 . S
C1659 C1664 1.390 . S
C1660 C1654 1.465 . S
C1660 C1659 1.396 . S
C1660 C1661 1.399 . S
C1661 H1647 0.929 . S
C1661 C1660 1.399 . S
C1661 C1662 1.385 . S
C1662 H1648 0.931 . S
C1662 C1661 1.385 . S
C1662 C1663 1.389 . S
C1663 C1662 1.389 . S
C1663 C1664 1.387 . S
C1664 H1649 0.930 . S
C1664 C1659 1.390 . S
C1664 C1663 1.387 . S
H1665 C1677 0.930 . S
H1666 C1679 0.930 . S
H1667 C1680 0.930 . S
H1668 C1684 0.959 . S
H1669 C1684 0.959 . S
H1670 C1684 0.961 . S
H1671 C1685 0.960 . S
H1672 C1685 0.961 . S
H1673 C1685 0.959 . S
H1674 C1688 0.929 . S
H1675 C1689 0.931 . S
H1676 C1691 0.930 . S
C1677 H1665 0.930 . S
C1677 C1678 1.399 . S
C1677 C1682 1.399 . S
C1678 C1677 1.399 . S
C1678 C1679 1.376 . S
C1679 H1666 0.930 . S
C1679 C1678 1.376 . S
C1679 C1680 1.388 . S
C1680 H1667 0.930 . S
C1680 C1679 1.388 . S
C1680 C1681 1.390 . S
C1681 C1680 1.390 . S
C1681 C1682 1.394 . S
C1681 C1687 1.465 . S
C1682 C1677 1.399 . S
C1682 C1681 1.394 . S
C1682 C1683 1.516 . S
C1683 C1682 1.516 . S
C1683 C1684 1.502 . S
C1683 C1685 1.561 . S
C1683 C1686 1.526 . S
C1684 H1668 0.959 . S
C1684 H1669 0.959 . S
C1684 H1670 0.961 . S
C1684 C1683 1.502 . S
C1685 H1671 0.960 . S
C1685 H1672 0.961 . S
C1685 H1673 0.959 . S
C1685 C1683 1.561 . S
C1686 C1683 1.526 . S
C1686 C1687 1.396 . S
C1686 C1691 1.390 . S
C1687 C1681 1.465 . S
C1687 C1686 1.396 . S
C1687 C1688 1.399 . S
C1688 H1674 0.929 . S
C1688 C1687 1.399 . S
C1688 C1689 1.385 . S
C1689 H1675 0.931 . S
C1689 C1688 1.385 . S
C1689 C1690 1.389 . S
C1690 C1689 1.389 . S
C1690 C1691 1.387 . S
C1691 H1676 0.930 . S
C1691 C1686 1.390 . S
C1691 C1690 1.387 . S
H1692 C1704 0.930 . S
H1693 C1706 0.930 . S
H1694 C1707 0.930 1_545 S
H1695 C1711 0.959 . S
H1696 C1711 0.959 . S
H1697 C1711 0.961 . S
H1698 C1712 0.960 . S
H1699 C1712 0.961 . S
H1700 C1712 0.959 . S
H1701 C1715 0.929 . S
H1702 C1716 0.931 . S
H1703 C1718 0.930 . S
C1704 H1692 0.930 . S
C1704 C1705 1.399 . S
C1704 C1709 1.399 . S
C1705 C1704 1.399 . S
C1705 C1706 1.376 1_565 S
C1706 H1693 0.930 . S
C1706 C1705 1.376 1_545 S
C1706 C1707 1.388 1_545 S
C1707 H1694 0.930 1_565 S
C1707 C1706 1.388 1_565 S
C1707 C1708 1.390 . S
C1708 C1707 1.390 . S
C1708 C1709 1.394 . S
C1708 C1714 1.465 . S
C1709 C1704 1.399 . S
C1709 C1708 1.394 . S
C1709 C1710 1.516 . S
C1710 C1709 1.516 . S
C1710 C1711 1.502 . S
C1710 C1712 1.561 . S
C1710 C1713 1.526 . S
C1711 H1695 0.959 . S
C1711 H1696 0.959 . S
C1711 H1697 0.961 . S
C1711 C1710 1.502 . S
C1712 H1698 0.960 . S
C1712 H1699 0.961 . S
C1712 H1700 0.959 . S
C1712 C1710 1.561 . S
C1713 C1710 1.526 . S
C1713 C1714 1.396 . S
C1713 C1718 1.390 . S
C1714 C1708 1.465 . S
C1714 C1713 1.396 . S
C1714 C1715 1.399 . S
C1715 H1701 0.929 . S
C1715 C1714 1.399 . S
C1715 C1716 1.385 . S
C1716 H1702 0.931 . S
C1716 C1715 1.385 . S
C1716 C1717 1.389 . S
C1717 C1716 1.389 . S
C1717 C1718 1.387 . S
C1718 H1703 0.930 . S
C1718 C1713 1.390 . S
C1718 C1717 1.387 . S
H1719 C1731 0.930 . S
H1720 C1733 0.930 . S
H1721 C1734 0.930 . S
H1722 C1738 0.946 1_655 S
H1723 C1738 0.943 1_655 S
H1724 C1738 0.972 . S
H1725 C1739 0.960 . S
H1726 C1739 0.961 . S
H1727 C1739 0.959 . S
H1728 C1742 0.929 . S
H1729 C1743 0.931 . S
H1730 C1745 0.930 . S
C1731 H1719 0.930 . S
C1731 C1732 1.399 . S
C1731 C1736 1.399 . S
C1732 C1731 1.399 . S
C1732 C1733 1.376 . S
C1733 H1720 0.930 . S
C1733 C1732 1.376 . S
C1733 C1734 1.388 . S
C1734 H1721 0.930 . S
C1734 C1733 1.388 . S
C1734 C1735 1.390 . S
C1735 C1734 1.390 . S
C1735 C1736 1.394 . S
C1735 C1741 1.465 . S
C1736 C1731 1.399 . S
C1736 C1735 1.394 . S
C1736 C1737 1.516 . S
C1737 C1736 1.516 . S
C1737 C1738 1.519 . S
C1737 C1739 1.561 . S
C1737 C1740 1.526 . S
C1738 H1722 0.946 1_455 S
C1738 H1723 0.943 1_455 S
C1738 H1724 0.972 . S
C1738 C1737 1.519 . S
C1739 H1725 0.960 . S
C1739 H1726 0.961 . S
C1739 H1727 0.959 . S
C1739 C1737 1.561 . S
C1740 C1737 1.526 . S
C1740 C1741 1.396 . S
C1740 C1745 1.390 . S
C1741 C1735 1.465 . S
C1741 C1740 1.396 . S
C1741 C1742 1.399 . S
C1742 H1728 0.929 . S
C1742 C1741 1.399 . S
C1742 C1743 1.385 . S
C1743 H1729 0.931 . S
C1743 C1742 1.385 . S
C1743 C1744 1.389 . S
C1744 C1743 1.389 . S
C1744 C1745 1.387 . S
C1745 H1730 0.930 . S
C1745 C1740 1.390 . S
C1745 C1744 1.387 . S
H1746 C1758 0.930 . S
H1747 C1760 0.930 . S
H1748 C1761 0.930 . S
H1749 C1765 0.959 . S
H1750 C1765 0.959 . S
H1751 C1765 0.961 . S
H1752 C1766 0.960 . S
H1753 C1766 0.961 . S
H1754 C1766 0.959 . S
H1755 C1769 0.929 . S
H1756 C1770 0.931 . S
H1757 C1772 0.930 . S
C1758 H1746 0.930 . S
C1758 C1759 1.399 . S
C1758 C1763 1.399 . S
C1759 C1758 1.399 . S
C1759 C1760 1.376 . S
C1760 H1747 0.930 . S
C1760 C1759 1.376 . S
C1760 C1761 1.388 . S
C1761 H1748 0.930 . S
C1761 C1760 1.388 . S
C1761 C1762 1.390 . S
C1762 C1761 1.390 . S
C1762 C1763 1.394 . S
C1762 C1768 1.465 1_655 S
C1763 C1758 1.399 . S
C1763 C1762 1.394 . S
C1763 C1764 1.516 . S
C1764 C1763 1.516 . S
C1764 C1765 1.502 . S
C1764 C1766 1.561 . S
C1764 C1767 1.526 1_655 S
C1765 H1749 0.959 . S
C1765 H1750 0.959 . S
C1765 H1751 0.961 . S
C1765 C1764 1.502 . S
C1766 H1752 0.960 . S
C1766 H1753 0.961 . S
C1766 H1754 0.959 . S
C1766 C1764 1.561 . S
C1767 C1764 1.526 1_455 S
C1767 C1768 1.396 . S
C1767 C1772 1.390 . S
C1768 C1762 1.465 1_455 S
C1768 C1767 1.396 . S
C1768 C1769 1.399 . S
C1769 H1755 0.929 . S
C1769 C1768 1.399 . S
C1769 C1770 1.385 . S
C1770 H1756 0.931 . S
C1770 C1769 1.385 . S
C1770 C1771 1.389 . S
C1771 C1770 1.389 . S
C1771 C1772 1.387 . S
C1772 H1757 0.930 . S
C1772 C1767 1.390 . S
C1772 C1771 1.387 . S
H1773 C1785 0.930 . S
H1774 C1787 0.930 . S
H1775 C1788 0.930 . S
H1776 C1792 0.959 . S
H1777 C1792 0.959 . S
H1778 C1792 0.961 . S
H1779 C1793 0.960 . S
H1780 C1793 0.961 . S
H1781 C1793 0.959 . S
H1782 C1796 0.929 . S
H1783 C1797 0.931 . S
H1784 C1799 0.930 . S
C1785 H1773 0.930 . S
C1785 C1786 1.399 . S
C1785 C1790 1.399 . S
C1786 C1785 1.399 . S
C1786 C1787 1.376 . S
C1787 H1774 0.930 . S
C1787 C1786 1.376 . S
C1787 C1788 1.388 . S
C1788 H1775 0.930 . S
C1788 C1787 1.388 . S
C1788 C1789 1.390 . S
C1789 C1788 1.390 . S
C1789 C1790 1.394 . S
C1789 C1795 1.465 . S
C1790 C1785 1.399 . S
C1790 C1789 1.394 . S
C1790 C1791 1.516 . S
C1791 C1790 1.516 . S
C1791 C1792 1.502 . S
C1791 C1793 1.561 . S
C1791 C1794 1.526 . S
C1792 H1776 0.959 . S
C1792 H1777 0.959 . S
C1792 H1778 0.961 . S
C1792 C1791 1.502 . S
C1793 H1779 0.960 . S
C1793 H1780 0.961 . S
C1793 H1781 0.959 . S
C1793 C1791 1.561 . S
C1794 C1791 1.526 . S
C1794 C1795 1.396 . S
C1794 C1799 1.390 . S
C1795 C1789 1.465 . S
C1795 C1794 1.396 . S
C1795 C1796 1.399 . S
C1796 H1782 0.929 . S
C1796 C1795 1.399 . S
C1796 C1797 1.385 . S
C1797 H1783 0.931 . S
C1797 C1796 1.385 . S
C1797 C1798 1.389 . S
C1798 C1797 1.389 . S
C1798 C1799 1.387 . S
C1799 H1784 0.930 . S
C1799 C1794 1.390 . S
C1799 C1798 1.387 . S
H1800 C1812 0.930 . S
H1801 C1814 0.930 . S
H1802 C1815 0.930 . S
H1803 C1819 0.959 . S
H1804 C1819 0.959 . S
H1805 C1819 0.961 . S
H1806 C1820 0.960 . S
H1807 C1820 0.961 . S
H1808 C1820 0.959 . S
H1809 C1823 0.920 1_545 S
H1810 C1824 0.931 . S
H1811 C1826 0.930 . S
C1812 H1800 0.930 . S
C1812 C1813 1.399 . S
C1812 C1817 1.399 . S
C1813 C1812 1.399 . S
C1813 C1814 1.376 . S
C1814 H1801 0.930 . S
C1814 C1813 1.376 . S
C1814 C1815 1.388 . S
C1815 H1802 0.930 . S
C1815 C1814 1.388 . S
C1815 C1816 1.390 . S
C1816 C1815 1.390 . S
C1816 C1817 1.394 . S
C1816 C1822 1.465 1_545 S
C1817 C1812 1.399 . S
C1817 C1816 1.394 . S
C1817 C1818 1.516 1_545 S
C1818 C1817 1.516 1_565 S
C1818 C1819 1.502 . S
C1818 C1820 1.561 . S
C1818 C1821 1.526 . S
C1819 H1803 0.959 . S
C1819 H1804 0.959 . S
C1819 H1805 0.961 . S
C1819 C1818 1.502 . S
C1820 H1806 0.960 . S
C1820 H1807 0.961 . S
C1820 H1808 0.959 . S
C1820 C1818 1.561 . S
C1821 C1818 1.526 . S
C1821 C1822 1.396 . S
C1821 C1826 1.390 . S
C1822 C1816 1.465 1_565 S
C1822 C1821 1.396 . S
C1822 C1823 1.399 . S
C1823 H1809 0.920 1_565 S
C1823 C1822 1.399 . S
C1823 C1824 1.385 . S
C1824 H1810 0.931 . S
C1824 C1823 1.385 . S
C1824 C1825 1.389 . S
C1825 C1824 1.389 . S
C1825 C1826 1.387 . S
C1826 H1811 0.930 . S
C1826 C1821 1.390 . S
C1826 C1825 1.387 . S
H1827 C1839 0.930 . S
H1828 C1841 0.930 . S
H1829 C1842 0.930 . S
H1830 C1846 0.959 . S
H1831 C1846 0.959 1_655 S
H1832 C1846 0.961 . S
H1833 C1847 0.960 1_455 S
H1834 C1847 0.961 . S
H1835 C1847 0.959 . S
H1836 C1850 0.929 . S
H1837 C1851 0.931 . S
H1838 C1853 0.930 . S
C1839 H1827 0.930 . S
C1839 C1840 1.399 . S
C1839 C1844 1.399 . S
C1840 C1839 1.399 . S
C1840 C1841 1.376 . S
C1841 H1828 0.930 . S
C1841 C1840 1.376 . S
C1841 C1842 1.388 . S
C1842 H1829 0.930 . S
C1842 C1841 1.388 . S
C1842 C1843 1.390 . S
C1843 C1842 1.390 . S
C1843 C1844 1.394 . S
C1843 C1849 1.465 1_455 S
C1844 C1839 1.399 . S
C1844 C1843 1.394 . S
C1844 C1845 1.516 . S
C1845 C1844 1.516 . S
C1845 C1846 1.502 . S
C1845 C1847 1.561 1_455 S
C1845 C1848 1.526 1_455 S
C1846 H1830 0.959 . S
C1846 H1831 0.959 1_455 S
C1846 H1832 0.961 . S
C1846 C1845 1.502 . S
C1847 H1833 0.960 1_655 S
C1847 H1834 0.961 . S
C1847 H1835 0.959 . S
C1847 C1845 1.561 1_655 S
C1848 C1845 1.526 1_655 S
C1848 C1849 1.396 . S
C1848 C1853 1.390 . S
C1849 C1843 1.465 1_655 S
C1849 C1848 1.396 . S
C1849 C1850 1.399 . S
C1850 H1836 0.929 . S
C1850 C1849 1.399 . S
C1850 C1851 1.385 . S
C1851 H1837 0.931 . S
C1851 C1850 1.385 . S
C1851 C1852 1.389 . S
C1852 C1851 1.389 . S
C1852 C1853 1.387 . S
C1853 H1838 0.930 . S
C1853 C1848 1.390 . S
C1853 C1852 1.387 . S
H1854 C1866 0.930 . S
H1855 C1868 0.930 . S
H1856 C1869 0.930 . S
H1857 C1873 0.959 . S
H1858 C1873 0.959 . S
H1859 C1873 0.961 . S
H1860 C1874 0.960 . S
H1861 C1874 0.961 . S
H1862 C1874 0.959 . S
H1863 C1877 0.929 . S
H1864 C1878 0.931 . S
H1865 C1880 0.930 . S
C1866 H1854 0.930 . S
C1866 C1867 1.399 . S
C1866 C1871 1.399 . S
C1867 C1866 1.399 . S
C1867 C1868 1.376 . S
C1868 H1855 0.930 . S
C1868 C1867 1.376 . S
C1868 C1869 1.388 . S
C1869 H1856 0.930 . S
C1869 C1868 1.388 . S
C1869 C1870 1.390 . S
C1870 C1869 1.390 . S
C1870 C1871 1.394 . S
C1870 C1876 1.465 . S
C1871 C1866 1.399 . S
C1871 C1870 1.394 . S
C1871 C1872 1.516 . S
C1872 C1871 1.516 . S
C1872 C1873 1.502 . S
C1872 C1874 1.561 . S
C1872 C1875 1.526 . S
C1873 H1857 0.959 . S
C1873 H1858 0.959 . S
C1873 H1859 0.961 . S
C1873 C1872 1.502 . S
C1874 H1860 0.960 . S
C1874 H1861 0.961 . S
C1874 H1862 0.959 . S
C1874 C1872 1.561 . S
C1875 C1872 1.526 . S
C1875 C1876 1.396 . S
C1875 C1880 1.390 . S
C1876 C1870 1.465 . S
C1876 C1875 1.396 . S
C1876 C1877 1.399 . S
C1877 H1863 0.929 . S
C1877 C1876 1.399 . S
C1877 C1878 1.385 . S
C1878 H1864 0.931 . S
C1878 C1877 1.385 . S
C1878 C1879 1.389 . S
C1879 C1878 1.389 . S
C1879 C1880 1.387 . S
C1880 H1865 0.930 . S
C1880 C1875 1.390 . S
C1880 C1879 1.387 . S
H1881 C1893 0.930 . S
H1882 C1895 0.930 . S
H1883 C1896 0.930 . S
H1884 C1900 0.959 . S
H1885 C1900 0.959 . S
H1886 C1900 0.968 . S
H1887 C1901 0.960 1_545 S
H1888 C1901 0.961 . S
H1889 C1901 0.959 1_545 S
H1890 C1904 0.929 . S
H1891 C1905 0.931 . S
H1892 C1907 0.930 . S
C1893 H1881 0.930 . S
C1893 C1894 1.399 . S
C1893 C1898 1.399 . S
C1894 C1893 1.399 . S
C1894 C1895 1.376 . S
C1895 H1882 0.930 . S
C1895 C1894 1.376 . S
C1895 C1896 1.388 . S
C1896 H1883 0.930 . S
C1896 C1895 1.388 . S
C1896 C1897 1.390 . S
C1897 C1896 1.390 . S
C1897 C1898 1.394 . S
C1897 C1903 1.465 1_545 S
C1898 C1893 1.399 . S
C1898 C1897 1.394 . S
C1898 C1899 1.516 1_545 S
C1899 C1898 1.516 1_565 S
C1899 C1900 1.502 . S
C1899 C1901 1.561 . S
C1899 C1902 1.526 . S
C1900 H1884 0.959 . S
C1900 H1885 0.959 . S
C1900 H1886 0.968 . S
C1900 C1899 1.502 . S
C1901 H1887 0.960 1_565 S
C1901 H1888 0.961 . S
C1901 H1889 0.959 1_565 S
C1901 C1899 1.561 . S
C1902 C1899 1.526 . S
C1902 C1903 1.396 . S
C1902 C1907 1.390 . S
C1903 C1897 1.465 1_565 S
C1903 C1902 1.396 . S
C1903 C1904 1.399 . S
C1904 H1890 0.929 . S
C1904 C1903 1.399 . S
C1904 C1905 1.385 . S
C1905 H1891 0.931 . S
C1905 C1904 1.385 . S
C1905 C1906 1.389 . S
C1906 C1905 1.389 . S
C1906 C1907 1.387 . S
C1907 H1892 0.930 . S
C1907 C1902 1.390 . S
C1907 C1906 1.387 . S
H1908 C1920 0.930 . S
H1909 C1922 0.930 . S
H1910 C1923 0.930 . S
H1911 C1927 0.959 . S
H1912 C1927 0.959 . S
H1913 C1927 0.961 . S
H1914 C1928 0.960 1_565 S
H1915 C1928 0.961 . S
H1916 C1928 0.959 . S
H1917 C1931 0.929 . S
H1918 C1932 0.931 . S
H1919 C1934 0.930 . S
C1920 H1908 0.930 . S
C1920 C1921 1.399 . S
C1920 C1925 1.399 . S
C1921 C1920 1.399 . S
C1921 C1922 1.376 . S
C1922 H1909 0.930 . S
C1922 C1921 1.376 . S
C1922 C1923 1.388 . S
C1923 H1910 0.930 . S
C1923 C1922 1.388 . S
C1923 C1924 1.390 . S
C1924 C1923 1.390 . S
C1924 C1925 1.394 . S
C1924 C1930 1.465 1_565 S
C1925 C1920 1.399 . S
C1925 C1924 1.394 . S
C1925 C1926 1.516 1_565 S
C1926 C1925 1.516 1_545 S
C1926 C1927 1.502 . S
C1926 C1928 1.561 . S
C1926 C1929 1.526 . S
C1927 H1911 0.959 . S
C1927 H1912 0.959 . S
C1927 H1913 0.961 . S
C1927 C1926 1.502 . S
C1928 H1914 0.960 1_545 S
C1928 H1915 0.961 . S
C1928 H1916 0.959 . S
C1928 C1926 1.561 . S
C1929 C1926 1.526 . S
C1929 C1930 1.396 . S
C1929 C1934 1.390 . S
C1930 C1924 1.465 1_545 S
C1930 C1929 1.396 . S
C1930 C1931 1.399 . S
C1931 H1917 0.929 . S
C1931 C1930 1.399 . S
C1931 C1932 1.385 . S
C1932 H1918 0.931 . S
C1932 C1931 1.385 . S
C1932 C1933 1.389 . S
C1933 C1932 1.389 . S
C1933 C1934 1.387 . S
C1934 H1919 0.930 . S
C1934 C1929 1.390 . S
C1934 C1933 1.387 . S
H1935 C1947 0.930 . S
H1936 C1949 0.930 . S
H1937 C1950 0.930 . S
H1938 C1954 0.959 . S
H1939 C1954 0.937 1_655 S
H1940 C1954 0.961 . S
H1941 C1955 0.953 1_455 S
H1942 C1955 0.966 . S
H1943 C1955 0.958 . S
H1944 C1958 0.929 . S
H1945 C1959 0.931 . S
H1946 C1961 0.930 . S
C1947 H1935 0.930 . S
C1947 C1948 1.399 . S
C1947 C1952 1.399 . S
C1948 C1947 1.399 . S
C1948 C1949 1.376 . S
C1949 H1936 0.930 . S
C1949 C1948 1.376 . S
C1949 C1950 1.388 . S
C1950 H1937 0.930 . S
C1950 C1949 1.388 . S
C1950 C1951 1.390 . S
C1951 C1950 1.390 . S
C1951 C1952 1.394 . S
C1951 C1957 1.465 1_455 S
C1952 C1947 1.399 . S
C1952 C1951 1.394 . S
C1952 C1953 1.516 . S
C1953 C1952 1.516 . S
C1953 C1954 1.502 . S
C1953 C1955 1.564 1_455 S
C1953 C1956 1.526 1_455 S
C1954 H1938 0.959 . S
C1954 H1939 0.937 1_455 S
C1954 H1940 0.961 . S
C1954 C1953 1.502 . S
C1955 H1941 0.953 1_655 S
C1955 H1942 0.966 . S
C1955 H1943 0.958 . S
C1955 C1953 1.564 1_655 S
C1956 C1953 1.526 1_655 S
C1956 C1957 1.396 . S
C1956 C1961 1.390 . S
C1957 C1951 1.465 1_655 S
C1957 C1956 1.396 . S
C1957 C1958 1.399 . S
C1958 H1944 0.929 . S
C1958 C1957 1.399 . S
C1958 C1959 1.385 . S
C1959 H1945 0.931 . S
C1959 C1958 1.385 . S
C1959 C1960 1.389 . S
C1960 C1959 1.389 . S
C1960 C1961 1.387 . S
C1961 H1946 0.930 . S
C1961 C1956 1.390 . S
C1961 C1960 1.387 . S
H1962 C1974 0.930 . S
H1963 C1976 0.930 . S
H1964 C1977 0.930 . S
H1965 C1981 0.959 . S
H1966 C1981 0.959 . S
H1967 C1981 0.961 . S
H1968 C1982 0.960 . S
H1969 C1982 0.961 . S
H1970 C1982 0.959 . S
H1971 C1985 0.929 . S
H1972 C1986 0.931 . S
H1973 C1988 0.930 . S
C1974 H1962 0.930 . S
C1974 C1975 1.399 . S
C1974 C1979 1.399 . S
C1975 C1974 1.399 . S
C1975 C1976 1.376 . S
C1976 H1963 0.930 . S
C1976 C1975 1.376 . S
C1976 C1977 1.388 . S
C1977 H1964 0.930 . S
C1977 C1976 1.388 . S
C1977 C1978 1.390 . S
C1978 C1977 1.390 . S
C1978 C1979 1.394 . S
C1978 C1984 1.465 . S
C1979 C1974 1.399 . S
C1979 C1978 1.394 . S
C1979 C1980 1.516 . S
C1980 C1979 1.516 . S
C1980 C1981 1.502 . S
C1980 C1982 1.561 . S
C1980 C1983 1.526 . S
C1981 H1965 0.959 . S
C1981 H1966 0.959 . S
C1981 H1967 0.961 . S
C1981 C1980 1.502 . S
C1982 H1968 0.960 . S
C1982 H1969 0.961 . S
C1982 H1970 0.959 . S
C1982 C1980 1.561 . S
C1983 C1980 1.526 . S
C1983 C1984 1.396 . S
C1983 C1988 1.390 . S
C1984 C1978 1.465 . S
C1984 C1983 1.396 . S
C1984 C1985 1.399 . S
C1985 H1971 0.929 . S
C1985 C1984 1.399 . S
C1985 C1986 1.385 . S
C1986 H1972 0.931 . S
C1986 C1985 1.385 . S
C1986 C1987 1.389 . S
C1987 C1986 1.389 . S
C1987 C1988 1.387 . S
C1988 H1973 0.930 . S
C1988 C1983 1.390 . S
C1988 C1987 1.387 . S
H1989 C2001 0.930 . S
H1990 C2003 0.930 . S
H1991 C2004 0.930 . S
H1992 C2008 0.959 . S
H1993 C2008 0.959 . S
H1994 C2008 0.961 . S
H1995 C2009 0.960 . S
H1996 C2009 0.961 . S
H1997 C2009 0.959 . S
H1998 C2012 0.929 . S
H1999 C2013 0.931 . S
H2000 C2015 0.930 . S
C2001 H1989 0.930 . S
C2001 C2002 1.399 . S
C2001 C2006 1.399 . S
C2002 C2001 1.399 . S
C2002 C2003 1.376 . S
C2003 H1990 0.930 . S
C2003 C2002 1.376 . S
C2003 C2004 1.388 . S
C2004 H1991 0.930 . S
C2004 C2003 1.388 . S
C2004 C2005 1.390 . S
C2005 C2004 1.390 . S
C2005 C2006 1.394 . S
C2005 C2011 1.465 . S
C2006 C2001 1.399 . S
C2006 C2005 1.394 . S
C2006 C2007 1.516 . S
C2007 C2006 1.516 . S
C2007 C2008 1.502 . S
C2007 C2009 1.561 . S
C2007 C2010 1.526 . S
C2008 H1992 0.959 . S
C2008 H1993 0.959 . S
C2008 H1994 0.961 . S
C2008 C2007 1.502 . S
C2009 H1995 0.960 . S
C2009 H1996 0.961 . S
C2009 H1997 0.959 . S
C2009 C2007 1.561 . S
C2010 C2007 1.526 . S
C2010 C2011 1.396 . S
C2010 C2015 1.390 . S
C2011 C2005 1.465 . S
C2011 C2010 1.396 . S
C2011 C2012 1.399 . S
C2012 H1998 0.929 . S
C2012 C2011 1.399 . S
C2012 C2013 1.385 . S
C2013 H1999 0.931 . S
C2013 C2012 1.385 . S
C2013 C2014 1.389 . S
C2014 C2013 1.389 . S
C2014 C2015 1.387 . S
C2015 H2000 0.930 . S
C2015 C2010 1.390 . S
C2015 C2014 1.387 . S
H2016 C2028 0.930 . S
H2017 C2030 0.930 . S
H2018 C2031 0.930 . S
H2019 C2035 0.959 . S
H2020 C2035 0.959 . S
H2021 C2035 0.961 . S
H2022 C2036 0.960 . S
H2023 C2036 0.961 . S
H2024 C2036 0.959 . S
H2025 C2039 0.929 . S
H2026 C2040 0.931 . S
H2027 C2042 0.930 . S
C2028 H2016 0.930 . S
C2028 C2029 1.399 . S
C2028 C2033 1.399 . S
C2029 C2028 1.399 . S
C2029 C2030 1.376 . S
C2030 H2017 0.930 . S
C2030 C2029 1.376 . S
C2030 C2031 1.388 . S
C2031 H2018 0.930 . S
C2031 C2030 1.388 . S
C2031 C2032 1.390 . S
C2032 C2031 1.390 . S
C2032 C2033 1.394 . S
C2032 C2038 1.465 . S
C2033 C2028 1.399 . S
C2033 C2032 1.394 . S
C2033 C2034 1.516 . S
C2034 C2033 1.516 . S
C2034 C2035 1.502 . S
C2034 C2036 1.561 . S
C2034 C2037 1.526 . S
C2035 H2019 0.959 . S
C2035 H2020 0.959 . S
C2035 H2021 0.961 . S
C2035 C2034 1.502 . S
C2036 H2022 0.960 . S
C2036 H2023 0.961 . S
C2036 H2024 0.959 . S
C2036 C2034 1.561 . S
C2037 C2034 1.526 . S
C2037 C2038 1.396 . S
C2037 C2042 1.390 . S
C2038 C2032 1.465 . S
C2038 C2037 1.396 . S
C2038 C2039 1.399 . S
C2039 H2025 0.929 . S
C2039 C2038 1.399 . S
C2039 C2040 1.385 . S
C2040 H2026 0.931 . S
C2040 C2039 1.385 . S
C2040 C2041 1.389 . S
C2041 C2040 1.389 . S
C2041 C2042 1.387 . S
C2042 H2027 0.930 . S
C2042 C2037 1.390 . S
C2042 C2041 1.387 . S
H2043 C2055 0.930 . S
H2044 C2057 0.930 . S
H2045 C2058 0.930 . S
H2046 C2062 0.959 . S
H2047 C2062 0.959 . S
H2048 C2062 0.961 . S
H2049 C2063 0.960 . S
H2050 C2063 0.961 . S
H2051 C2063 0.959 . S
H2052 C2066 0.929 . S
H2053 C2067 0.931 . S
H2054 C2069 0.930 . S
C2055 H2043 0.930 . S
C2055 C2056 1.399 . S
C2055 C2060 1.399 . S
C2056 C2055 1.399 . S
C2056 C2057 1.376 . S
C2057 H2044 0.930 . S
C2057 C2056 1.376 . S
C2057 C2058 1.388 . S
C2058 H2045 0.930 . S
C2058 C2057 1.388 . S
C2058 C2059 1.390 . S
C2059 C2058 1.390 . S
C2059 C2060 1.394 . S
C2059 C2065 1.465 . S
C2060 C2055 1.399 . S
C2060 C2059 1.394 . S
C2060 C2061 1.516 . S
C2061 C2060 1.516 . S
C2061 C2062 1.502 . S
C2061 C2063 1.561 . S
C2061 C2064 1.526 . S
C2062 H2046 0.959 . S
C2062 H2047 0.959 . S
C2062 H2048 0.961 . S
C2062 C2061 1.502 . S
C2063 H2049 0.960 . S
C2063 H2050 0.961 . S
C2063 H2051 0.959 . S
C2063 C2061 1.561 . S
C2064 C2061 1.526 . S
C2064 C2065 1.396 . S
C2064 C2069 1.390 . S
C2065 C2059 1.465 . S
C2065 C2064 1.396 . S
C2065 C2066 1.399 . S
C2066 H2052 0.929 . S
C2066 C2065 1.399 . S
C2066 C2067 1.385 . S
C2067 H2053 0.931 . S
C2067 C2066 1.385 . S
C2067 C2068 1.389 . S
C2068 C2067 1.389 . S
C2068 C2069 1.387 . S
C2069 H2054 0.930 . S
C2069 C2064 1.390 . S
C2069 C2068 1.387 . S
H2070 C2082 0.930 . S
H2071 C2084 0.930 . S
H2072 C2085 0.930 . S
H2073 C2089 0.959 . S
H2074 C2089 0.959 . S
H2075 C2089 0.961 . S
H2076 C2090 0.960 . S
H2077 C2090 0.961 . S
H2078 C2090 0.959 . S
H2079 C2093 0.929 . S
H2080 C2094 0.931 . S
H2081 C2096 0.930 . S
C2082 H2070 0.930 . S
C2082 C2083 1.399 . S
C2082 C2087 1.399 . S
C2083 C2082 1.399 . S
C2083 C2084 1.376 . S
C2084 H2071 0.930 . S
C2084 C2083 1.376 . S
C2084 C2085 1.388 . S
C2085 H2072 0.930 . S
C2085 C2084 1.388 . S
C2085 C2086 1.390 . S
C2086 C2085 1.390 . S
C2086 C2087 1.394 . S
C2086 C2092 1.465 . S
C2087 C2082 1.399 . S
C2087 C2086 1.394 . S
C2087 C2088 1.516 . S
C2088 C2087 1.516 . S
C2088 C2089 1.502 . S
C2088 C2090 1.561 . S
C2088 C2091 1.526 . S
C2089 H2073 0.959 . S
C2089 H2074 0.959 . S
C2089 H2075 0.961 . S
C2089 C2088 1.502 . S
C2090 H2076 0.960 . S
C2090 H2077 0.961 . S
C2090 H2078 0.959 . S
C2090 C2088 1.561 . S
C2091 C2088 1.526 . S
C2091 C2092 1.396 . S
C2091 C2096 1.390 . S
C2092 C2086 1.465 . S
C2092 C2091 1.396 . S
C2092 C2093 1.399 . S
C2093 H2079 0.929 . S
C2093 C2092 1.399 . S
C2093 C2094 1.385 . S
C2094 H2080 0.931 . S
C2094 C2093 1.385 . S
C2094 C2095 1.389 . S
C2095 C2094 1.389 . S
C2095 C2096 1.387 . S
C2096 H2081 0.930 . S
C2096 C2091 1.390 . S
C2096 C2095 1.387 . S
H2097 C2109 0.930 . S
H2098 C2111 0.930 . S
H2099 C2112 0.930 . S
H2100 C2116 0.959 . S
H2101 C2116 0.959 . S
H2102 C2116 0.961 . S
H2103 C2117 0.960 . S
H2104 C2117 0.961 . S
H2105 C2117 0.959 . S
H2106 C2120 0.929 . S
H2107 C2121 0.931 . S
H2108 C2123 0.930 . S
C2109 H2097 0.930 . S
C2109 C2110 1.399 . S
C2109 C2114 1.399 . S
C2110 C2109 1.399 . S
C2110 C2111 1.376 . S
C2111 H2098 0.930 . S
C2111 C2110 1.376 . S
C2111 C2112 1.388 . S
C2112 H2099 0.930 . S
C2112 C2111 1.388 . S
C2112 C2113 1.390 . S
C2113 C2112 1.390 . S
C2113 C2114 1.394 . S
C2113 C2119 1.465 . S
C2114 C2109 1.399 . S
C2114 C2113 1.394 . S
C2114 C2115 1.516 . S
C2115 C2114 1.516 . S
C2115 C2116 1.502 . S
C2115 C2117 1.561 . S
C2115 C2118 1.526 . S
C2116 H2100 0.959 . S
C2116 H2101 0.959 . S
C2116 H2102 0.961 . S
C2116 C2115 1.502 . S
C2117 H2103 0.960 . S
C2117 H2104 0.961 . S
C2117 H2105 0.959 . S
C2117 C2115 1.561 . S
C2118 C2115 1.526 . S
C2118 C2119 1.396 . S
C2118 C2123 1.390 . S
C2119 C2113 1.465 . S
C2119 C2118 1.396 . S
C2119 C2120 1.399 . S
C2120 H2106 0.929 . S
C2120 C2119 1.399 . S
C2120 C2121 1.385 . S
C2121 H2107 0.931 . S
C2121 C2120 1.385 . S
C2121 C2122 1.389 . S
C2122 C2121 1.389 . S
C2122 C2123 1.387 . S
C2123 H2108 0.930 . S
C2123 C2118 1.390 . S
C2123 C2122 1.387 . S
H2124 C2136 0.930 . S
H2125 C2138 0.930 . S
H2126 C2139 0.930 . S
H2127 C2143 0.959 . S
H2128 C2143 0.959 . S
H2129 C2143 0.961 . S
H2130 C2144 0.960 . S
H2131 C2144 0.961 . S
H2132 C2144 0.959 . S
H2133 C2147 0.929 . S
H2134 C2148 0.931 . S
H2135 C2150 0.930 . S
C2136 H2124 0.930 . S
C2136 C2137 1.399 . S
C2136 C2141 1.399 . S
C2137 C2136 1.399 . S
C2137 C2138 1.376 . S
C2138 H2125 0.930 . S
C2138 C2137 1.376 . S
C2138 C2139 1.388 . S
C2139 H2126 0.930 . S
C2139 C2138 1.388 . S
C2139 C2140 1.390 . S
C2140 C2139 1.390 . S
C2140 C2141 1.394 . S
C2140 C2146 1.465 . S
C2141 C2136 1.399 . S
C2141 C2140 1.394 . S
C2141 C2142 1.516 . S
C2142 C2141 1.516 . S
C2142 C2143 1.502 . S
C2142 C2144 1.561 . S
C2142 C2145 1.526 . S
C2143 H2127 0.959 . S
C2143 H2128 0.959 . S
C2143 H2129 0.961 . S
C2143 C2142 1.502 . S
C2144 H2130 0.960 . S
C2144 H2131 0.961 . S
C2144 H2132 0.959 . S
C2144 C2142 1.561 . S
C2145 C2142 1.526 . S
C2145 C2146 1.396 . S
C2145 C2150 1.390 . S
C2146 C2140 1.465 . S
C2146 C2145 1.396 . S
C2146 C2147 1.399 . S
C2147 H2133 0.929 . S
C2147 C2146 1.399 . S
C2147 C2148 1.385 . S
C2148 H2134 0.931 . S
C2148 C2147 1.385 . S
C2148 C2149 1.389 . S
C2149 C2148 1.389 . S
C2149 C2150 1.387 . S
C2150 H2135 0.930 . S
C2150 C2145 1.390 . S
C2150 C2149 1.387 . S
H2151 C2163 0.930 . S
H2152 C2165 0.930 . S
H2153 C2166 0.930 . S
H2154 C2170 0.959 . S
H2155 C2170 0.959 . S
H2156 C2170 0.961 . S
H2157 C2171 0.960 . S
H2158 C2171 0.961 . S
H2159 C2171 0.959 . S
H2160 C2174 0.929 . S
H2161 C2175 0.931 . S
H2162 C2177 0.930 . S
C2163 H2151 0.930 . S
C2163 C2164 1.399 . S
C2163 C2168 1.399 . S
C2164 C2163 1.399 . S
C2164 C2165 1.376 . S
C2165 H2152 0.930 . S
C2165 C2164 1.376 . S
C2165 C2166 1.388 . S
C2166 H2153 0.930 . S
C2166 C2165 1.388 . S
C2166 C2167 1.390 . S
C2167 C2166 1.390 . S
C2167 C2168 1.394 . S
C2167 C2173 1.465 . S
C2168 C2163 1.399 . S
C2168 C2167 1.394 . S
C2168 C2169 1.516 . S
C2169 C2168 1.516 . S
C2169 C2170 1.502 . S
C2169 C2171 1.561 . S
C2169 C2172 1.526 . S
C2170 H2154 0.959 . S
C2170 H2155 0.959 . S
C2170 H2156 0.961 . S
C2170 C2169 1.502 . S
C2171 H2157 0.960 . S
C2171 H2158 0.961 . S
C2171 H2159 0.959 . S
C2171 C2169 1.561 . S
C2172 C2169 1.526 . S
C2172 C2173 1.396 . S
C2172 C2177 1.390 . S
C2173 C2167 1.465 . S
C2173 C2172 1.396 . S
C2173 C2174 1.399 . S
C2174 H2160 0.929 . S
C2174 C2173 1.399 . S
C2174 C2175 1.385 . S
C2175 H2161 0.931 . S
C2175 C2174 1.385 . S
C2175 C2176 1.389 . S
C2176 C2175 1.389 . S
C2176 C2177 1.387 . S
C2177 H2162 0.930 . S
C2177 C2172 1.390 . S
C2177 C2176 1.387 . S
H2178 C2190 0.930 . S
H2179 C2192 0.930 . S
H2180 C2193 0.930 . S
H2181 C2197 0.959 . S
H2182 C2197 0.959 . S
H2183 C2197 0.961 . S
H2184 C2198 0.960 . S
H2185 C2198 0.961 . S
H2186 C2198 0.959 . S
H2187 C2201 0.929 . S
H2188 C2202 0.931 . S
H2189 C2204 0.930 . S
C2190 H2178 0.930 . S
C2190 C2191 1.399 . S
C2190 C2195 1.399 . S
C2191 C2190 1.399 . S
C2191 C2192 1.376 . S
C2192 H2179 0.930 . S
C2192 C2191 1.376 . S
C2192 C2193 1.388 . S
C2193 H2180 0.930 . S
C2193 C2192 1.388 . S
C2193 C2194 1.390 . S
C2194 C2193 1.390 . S
C2194 C2195 1.394 . S
C2194 C2200 1.465 . S
C2195 C2190 1.399 . S
C2195 C2194 1.394 . S
C2195 C2196 1.516 . S
C2196 C2195 1.516 . S
C2196 C2197 1.502 . S
C2196 C2198 1.561 . S
C2196 C2199 1.526 . S
C2197 H2181 0.959 . S
C2197 H2182 0.959 . S
C2197 H2183 0.961 . S
C2197 C2196 1.502 . S
C2198 H2184 0.960 . S
C2198 H2185 0.961 . S
C2198 H2186 0.959 . S
C2198 C2196 1.561 . S
C2199 C2196 1.526 . S
C2199 C2200 1.396 . S
C2199 C2204 1.390 . S
C2200 C2194 1.465 . S
C2200 C2199 1.396 . S
C2200 C2201 1.399 . S
C2201 H2187 0.929 . S
C2201 C2200 1.399 . S
C2201 C2202 1.385 . S
C2202 H2188 0.931 . S
C2202 C2201 1.385 . S
C2202 C2203 1.389 . S
C2203 C2202 1.389 . S
C2203 C2204 1.387 . S
C2204 H2189 0.930 . S
C2204 C2199 1.390 . S
C2204 C2203 1.387 . S
H2205 C2217 0.930 . S
H2206 C2219 0.930 . S
H2207 C2220 0.930 . S
H2208 C2224 0.959 . S
H2209 C2224 0.959 . S
H2210 C2224 0.961 . S
H2211 C2225 0.960 . S
H2212 C2225 0.961 . S
H2213 C2225 0.959 . S
H2214 C2228 0.929 . S
H2215 C2229 0.931 . S
H2216 C2231 0.930 . S
C2217 H2205 0.930 . S
C2217 C2218 1.399 . S
C2217 C2222 1.399 . S
C2218 C2217 1.399 . S
C2218 C2219 1.376 . S
C2219 H2206 0.930 . S
C2219 C2218 1.376 . S
C2219 C2220 1.388 . S
C2220 H2207 0.930 . S
C2220 C2219 1.388 . S
C2220 C2221 1.390 . S
C2221 C2220 1.390 . S
C2221 C2222 1.394 . S
C2221 C2227 1.465 . S
C2222 C2217 1.399 . S
C2222 C2221 1.394 . S
C2222 C2223 1.516 . S
C2223 C2222 1.516 . S
C2223 C2224 1.502 . S
C2223 C2225 1.561 . S
C2223 C2226 1.526 . S
C2224 H2208 0.959 . S
C2224 H2209 0.959 . S
C2224 H2210 0.961 . S
C2224 C2223 1.502 . S
C2225 H2211 0.960 . S
C2225 H2212 0.961 . S
C2225 H2213 0.959 . S
C2225 C2223 1.561 . S
C2226 C2223 1.526 . S
C2226 C2227 1.396 . S
C2226 C2231 1.390 . S
C2227 C2221 1.465 . S
C2227 C2226 1.396 . S
C2227 C2228 1.399 . S
C2228 H2214 0.929 . S
C2228 C2227 1.399 . S
C2228 C2229 1.385 . S
C2229 H2215 0.931 . S
C2229 C2228 1.385 . S
C2229 C2230 1.389 . S
C2230 C2229 1.389 . S
C2230 C2231 1.387 . S
C2231 H2216 0.930 . S
C2231 C2226 1.390 . S
C2231 C2230 1.387 . S
H2232 C2244 0.930 . S
H2233 C2246 0.930 . S
H2234 C2247 0.930 . S
H2235 C2251 0.959 . S
H2236 C2251 0.959 . S
H2237 C2251 0.961 . S
H2238 C2252 0.960 . S
H2239 C2252 0.961 . S
H2240 C2252 0.959 . S
H2241 C2255 0.929 . S
H2242 C2256 0.931 . S
H2243 C2258 0.930 . S
C2244 H2232 0.930 . S
C2244 C2245 1.399 . S
C2244 C2249 1.399 . S
C2245 C2244 1.399 . S
C2245 C2246 1.376 . S
C2246 H2233 0.930 . S
C2246 C2245 1.376 . S
C2246 C2247 1.388 . S
C2247 H2234 0.930 . S
C2247 C2246 1.388 . S
C2247 C2248 1.390 . S
C2248 C2247 1.390 . S
C2248 C2249 1.394 . S
C2248 C2254 1.465 . S
C2249 C2244 1.399 . S
C2249 C2248 1.394 . S
C2249 C2250 1.516 . S
C2250 C2249 1.516 . S
C2250 C2251 1.502 . S
C2250 C2252 1.561 . S
C2250 C2253 1.526 . S
C2251 H2235 0.959 . S
C2251 H2236 0.959 . S
C2251 H2237 0.961 . S
C2251 C2250 1.502 . S
C2252 H2238 0.960 . S
C2252 H2239 0.961 . S
C2252 H2240 0.959 . S
C2252 C2250 1.561 . S
C2253 C2250 1.526 . S
C2253 C2254 1.396 . S
C2253 C2258 1.390 . S
C2254 C2248 1.465 . S
C2254 C2253 1.396 . S
C2254 C2255 1.399 . S
C2255 H2241 0.929 . S
C2255 C2254 1.399 . S
C2255 C2256 1.385 . S
C2256 H2242 0.931 . S
C2256 C2255 1.385 . S
C2256 C2257 1.389 . S
C2257 C2256 1.389 . S
C2257 C2258 1.387 . S
C2258 H2243 0.930 . S
C2258 C2253 1.390 . S
C2258 C2257 1.387 . S
H2259 C2271 0.930 . S
H2260 C2273 0.930 . S
H2261 C2274 0.930 . S
H2262 C2278 0.959 . S
H2263 C2278 0.959 . S
H2264 C2278 0.961 . S
H2265 C2279 0.960 . S
H2266 C2279 0.961 . S
H2267 C2279 0.959 . S
H2268 C2282 0.929 . S
H2269 C2283 0.931 . S
H2270 C2285 0.930 . S
C2271 H2259 0.930 . S
C2271 C2272 1.399 . S
C2271 C2276 1.399 . S
C2272 C2271 1.399 . S
C2272 C2273 1.376 . S
C2273 H2260 0.930 . S
C2273 C2272 1.376 . S
C2273 C2274 1.388 . S
C2274 H2261 0.930 . S
C2274 C2273 1.388 . S
C2274 C2275 1.390 . S
C2275 C2274 1.390 . S
C2275 C2276 1.394 . S
C2275 C2281 1.465 . S
C2276 C2271 1.399 . S
C2276 C2275 1.394 . S
C2276 C2277 1.516 . S
C2277 C2276 1.516 . S
C2277 C2278 1.502 . S
C2277 C2279 1.561 . S
C2277 C2280 1.526 . S
C2278 H2262 0.959 . S
C2278 H2263 0.959 . S
C2278 H2264 0.961 . S
C2278 C2277 1.502 . S
C2279 H2265 0.960 . S
C2279 H2266 0.961 . S
C2279 H2267 0.959 . S
C2279 C2277 1.561 . S
C2280 C2277 1.526 . S
C2280 C2281 1.396 . S
C2280 C2285 1.390 . S
C2281 C2275 1.465 . S
C2281 C2280 1.396 . S
C2281 C2282 1.399 . S
C2282 H2268 0.929 . S
C2282 C2281 1.399 . S
C2282 C2283 1.385 . S
C2283 H2269 0.931 . S
C2283 C2282 1.385 . S
C2283 C2284 1.389 . S
C2284 C2283 1.389 . S
C2284 C2285 1.387 . S
C2285 H2270 0.930 . S
C2285 C2280 1.390 . S
C2285 C2284 1.387 . S
H2286 C2298 0.930 . S
H2287 C2300 0.930 . S
H2288 C2301 0.930 . S
H2289 C2305 0.959 . S
H2290 C2305 0.959 . S
H2291 C2305 0.961 . S
H2292 C2306 0.960 . S
H2293 C2306 0.961 . S
H2294 C2306 0.959 . S
H2295 C2309 0.929 . S
H2296 C2310 0.931 . S
H2297 C2312 0.930 . S
C2298 H2286 0.930 . S
C2298 C2299 1.399 . S
C2298 C2303 1.399 . S
C2299 C2298 1.399 . S
C2299 C2300 1.376 . S
C2300 H2287 0.930 . S
C2300 C2299 1.376 . S
C2300 C2301 1.388 . S
C2301 H2288 0.930 . S
C2301 C2300 1.388 . S
C2301 C2302 1.390 . S
C2302 C2301 1.390 . S
C2302 C2303 1.394 . S
C2302 C2308 1.465 . S
C2303 C2298 1.399 . S
C2303 C2302 1.394 . S
C2303 C2304 1.516 . S
C2304 C2303 1.516 . S
C2304 C2305 1.502 . S
C2304 C2306 1.561 . S
C2304 C2307 1.526 . S
C2305 H2289 0.959 . S
C2305 H2290 0.959 . S
C2305 H2291 0.961 . S
C2305 C2304 1.502 . S
C2306 H2292 0.960 . S
C2306 H2293 0.961 . S
C2306 H2294 0.959 . S
C2306 C2304 1.561 . S
C2307 C2304 1.526 . S
C2307 C2308 1.396 . S
C2307 C2312 1.390 . S
C2308 C2302 1.465 . S
C2308 C2307 1.396 . S
C2308 C2309 1.399 . S
C2309 H2295 0.929 . S
C2309 C2308 1.399 . S
C2309 C2310 1.385 . S
C2310 H2296 0.931 . S
C2310 C2309 1.385 . S
C2310 C2311 1.389 . S
C2311 C2310 1.389 . S
C2311 C2312 1.387 . S
C2312 H2297 0.930 . S
C2312 C2307 1.390 . S
C2312 C2311 1.387 . S
H2313 C2325 0.930 . S
H2314 C2327 0.930 . S
H2315 C2328 0.930 . S
H2316 C2332 0.959 . S
H2317 C2332 0.959 1_556 S
H2318 C2332 0.961 . S
H2319 C2333 0.960 . S
H2320 C2333 0.961 1_556 S
H2321 C2333 0.960 . S
H2322 C2336 0.929 . S
H2323 C2337 0.931 . S
H2324 C2339 0.930 . S
C2325 H2313 0.930 . S
C2325 C2326 1.399 . S
C2325 C2330 1.399 . S
C2326 C2325 1.399 . S
C2326 C2327 1.376 . S
C2327 H2314 0.930 . S
C2327 C2326 1.376 . S
C2327 C2328 1.388 . S
C2328 H2315 0.930 . S
C2328 C2327 1.388 . S
C2328 C2329 1.390 . S
C2329 C2328 1.390 . S
C2329 C2330 1.394 . S
C2329 C2335 1.465 1_554 S
C2330 C2325 1.399 . S
C2330 C2329 1.394 . S
C2330 C2331 1.516 . S
C2331 C2330 1.516 . S
C2331 C2332 1.502 . S
C2331 C2333 1.561 . S
C2331 C2334 1.526 1_554 S
C2332 H2316 0.959 . S
C2332 H2317 0.959 1_554 S
C2332 H2318 0.961 . S
C2332 C2331 1.502 . S
C2333 H2319 0.960 . S
C2333 H2320 0.961 1_554 S
C2333 H2321 0.960 . S
C2333 C2331 1.561 . S
C2334 C2331 1.526 1_556 S
C2334 C2335 1.396 . S
C2334 C2339 1.390 . S
C2335 C2329 1.465 1_556 S
C2335 C2334 1.396 . S
C2335 C2336 1.399 . S
C2336 H2322 0.929 . S
C2336 C2335 1.399 . S
C2336 C2337 1.385 . S
C2337 H2323 0.931 . S
C2337 C2336 1.385 . S
C2337 C2338 1.389 . S
C2338 C2337 1.389 . S
C2338 C2339 1.387 . S
C2339 H2324 0.930 . S
C2339 C2334 1.390 . S
C2339 C2338 1.387 . S
H2340 C2352 0.930 . S
H2341 C2354 0.930 . S
H2342 C2355 0.930 . S
H2343 C2359 0.959 . S
H2344 C2359 1.002 . S
H2345 C2359 0.921 1_556 S
H2346 C2360 0.961 1_556 S
H2347 C2360 0.960 . S
H2348 C2360 0.959 . S
H2349 C2363 0.929 . S
H2350 C2364 0.931 . S
H2351 C2366 0.930 . S
C2352 H2340 0.930 . S
C2352 C2353 1.399 . S
C2352 C2357 1.399 . S
C2353 C2352 1.399 . S
C2353 C2354 1.376 1_545 S
C2354 H2341 0.930 . S
C2354 C2353 1.376 1_565 S
C2354 C2355 1.388 . S
C2355 H2342 0.930 . S
C2355 C2354 1.388 . S
C2355 C2356 1.390 . S
C2356 C2355 1.390 . S
C2356 C2357 1.394 1_565 S
C2356 C2362 1.465 1_556 S
C2357 C2352 1.399 . S
C2357 C2356 1.394 1_545 S
C2357 C2358 1.565 . S
C2358 C2357 1.565 . S
C2358 C2359 1.496 1_556 S
C2358 C2360 1.560 1_556 S
C2358 C2361 1.485 1_556 S
C2359 H2343 0.959 . S
C2359 H2344 1.002 . S
C2359 H2345 0.921 1_554 S
C2359 C2358 1.496 1_554 S
C2360 H2346 0.961 1_554 S
C2360 H2347 0.960 . S
C2360 H2348 0.959 . S
C2360 C2358 1.560 1_554 S
C2361 C2358 1.485 1_554 S
C2361 C2362 1.396 1_545 S
C2361 C2366 1.390 . S
C2362 C2356 1.465 1_554 S
C2362 C2361 1.396 1_565 S
C2362 C2363 1.399 . S
C2363 H2349 0.929 . S
C2363 C2362 1.399 . S
C2363 C2364 1.385 . S
C2364 H2350 0.931 . S
C2364 C2363 1.385 . S
C2364 C2365 1.389 . S
C2365 C2364 1.389 . S
C2365 C2366 1.387 1_565 S
C2366 H2351 0.930 . S
C2366 C2361 1.390 . S
C2366 C2365 1.387 1_545 S
H2367 C2379 0.930 . S
H2368 C2381 0.930 . S
H2369 C2382 0.930 . S
H2370 C2386 0.959 . S
H2371 C2386 0.959 . S
H2372 C2386 0.961 1_556 S
H2373 C2387 0.960 1_556 S
H2374 C2387 0.961 . S
H2375 C2387 0.959 1_455 S
H2376 C2390 0.929 . S
H2377 C2391 0.931 . S
H2378 C2393 0.930 . S
C2379 H2367 0.930 . S
C2379 C2380 1.399 . S
C2379 C2384 1.399 . S
C2380 C2379 1.399 . S
C2380 C2381 1.376 1_655 S
C2381 H2368 0.930 . S
C2381 C2380 1.376 1_455 S
C2381 C2382 1.388 . S
C2382 H2369 0.930 . S
C2382 C2381 1.388 . S
C2382 C2383 1.390 . S
C2383 C2382 1.390 . S
C2383 C2384 1.394 1_455 S
C2383 C2389 1.465 1_556 S
C2384 C2379 1.399 . S
C2384 C2383 1.394 1_655 S
C2384 C2385 1.516 1_556 S
C2385 C2384 1.516 1_554 S
C2385 C2386 1.502 . S
C2385 C2387 1.561 . S
C2385 C2388 1.526 . S
C2386 H2370 0.959 . S
C2386 H2371 0.959 . S
C2386 H2372 0.961 1_554 S
C2386 C2385 1.502 . S
C2387 H2373 0.960 1_554 S
C2387 H2374 0.961 . S
C2387 H2375 0.959 1_655 S
C2387 C2385 1.561 . S
C2388 C2385 1.526 . S
C2388 C2389 1.396 1_655 S
C2388 C2393 1.390 . S
C2389 C2383 1.465 1_554 S
C2389 C2388 1.396 1_455 S
C2389 C2390 1.399 . S
C2390 H2376 0.929 . S
C2390 C2389 1.399 . S
C2390 C2391 1.385 . S
C2391 H2377 0.931 . S
C2391 C2390 1.385 . S
C2391 C2392 1.389 . S
C2392 C2391 1.389 . S
C2392 C2393 1.387 1_455 S
C2393 H2378 0.930 . S
C2393 C2388 1.390 . S
C2393 C2392 1.387 1_655 S
H2394 C2406 0.930 . S
H2395 C2408 0.930 . S
H2396 C2409 0.930 . S
H2397 C2413 0.959 . S
H2398 C2413 0.959 . S
H2399 C2413 0.961 . S
H2400 C2414 0.960 . S
H2401 C2414 0.961 . S
H2402 C2414 0.959 . S
H2403 C2417 0.929 . S
H2404 C2418 0.931 . S
H2405 C2420 0.930 . S
C2406 H2394 0.930 . S
C2406 C2407 1.399 . S
C2406 C2411 1.399 . S
C2407 C2406 1.399 . S
C2407 C2408 1.376 . S
C2408 H2395 0.930 . S
C2408 C2407 1.376 . S
C2408 C2409 1.388 . S
C2409 H2396 0.930 . S
C2409 C2408 1.388 . S
C2409 C2410 1.390 . S
C2410 C2409 1.390 . S
C2410 C2411 1.394 . S
C2410 C2416 1.465 . S
C2411 C2406 1.399 . S
C2411 C2410 1.394 . S
C2411 C2412 1.516 . S
C2412 C2411 1.516 . S
C2412 C2413 1.502 . S
C2412 C2414 1.561 . S
C2412 C2415 1.526 . S
C2413 H2397 0.959 . S
C2413 H2398 0.959 . S
C2413 H2399 0.961 . S
C2413 C2412 1.502 . S
C2414 H2400 0.960 . S
C2414 H2401 0.961 . S
C2414 H2402 0.959 . S
C2414 C2412 1.561 . S
C2415 C2412 1.526 . S
C2415 C2416 1.396 . S
C2415 C2420 1.390 . S
C2416 C2410 1.465 . S
C2416 C2415 1.396 . S
C2416 C2417 1.399 . S
C2417 H2403 0.929 . S
C2417 C2416 1.399 . S
C2417 C2418 1.385 . S
C2418 H2404 0.931 . S
C2418 C2417 1.385 . S
C2418 C2419 1.389 . S
C2419 C2418 1.389 . S
C2419 C2420 1.387 . S
C2420 H2405 0.930 . S
C2420 C2415 1.390 . S
C2420 C2419 1.387 . S
H2421 C2433 0.930 . S
H2422 C2435 0.930 . S
H2423 C2436 0.930 . S
H2424 C2440 0.959 . S
H2425 C2440 0.959 . S
H2426 C2440 0.961 . S
H2427 C2441 0.960 . S
H2428 C2441 0.961 . S
H2429 C2441 0.959 . S
H2430 C2444 0.929 . S
H2431 C2445 0.931 . S
H2432 C2447 0.930 . S
C2433 H2421 0.930 . S
C2433 C2434 1.399 . S
C2433 C2438 1.399 . S
C2434 C2433 1.399 . S
C2434 C2435 1.376 . S
C2435 H2422 0.930 . S
C2435 C2434 1.376 . S
C2435 C2436 1.388 . S
C2436 H2423 0.930 . S
C2436 C2435 1.388 . S
C2436 C2437 1.390 . S
C2437 C2436 1.390 . S
C2437 C2438 1.394 . S
C2437 C2443 1.465 . S
C2438 C2433 1.399 . S
C2438 C2437 1.394 . S
C2438 C2439 1.516 . S
C2439 C2438 1.516 . S
C2439 C2440 1.502 . S
C2439 C2441 1.561 . S
C2439 C2442 1.526 . S
C2440 H2424 0.959 . S
C2440 H2425 0.959 . S
C2440 H2426 0.961 . S
C2440 C2439 1.502 . S
C2441 H2427 0.960 . S
C2441 H2428 0.961 . S
C2441 H2429 0.959 . S
C2441 C2439 1.561 . S
C2442 C2439 1.526 . S
C2442 C2443 1.396 . S
C2442 C2447 1.390 . S
C2443 C2437 1.465 . S
C2443 C2442 1.396 . S
C2443 C2444 1.399 . S
C2444 H2430 0.929 . S
C2444 C2443 1.399 . S
C2444 C2445 1.385 . S
C2445 H2431 0.931 . S
C2445 C2444 1.385 . S
C2445 C2446 1.389 . S
C2446 C2445 1.389 . S
C2446 C2447 1.387 . S
C2447 H2432 0.930 . S
C2447 C2442 1.390 . S
C2447 C2446 1.387 . S
H2448 C2460 0.930 . S
H2449 C2462 0.930 . S
H2450 C2463 0.930 . S
H2451 C2467 0.959 . S
H2452 C2467 0.959 . S
H2453 C2467 0.961 . S
H2454 C2468 0.960 . S
H2455 C2468 0.961 . S
H2456 C2468 0.959 . S
H2457 C2471 0.929 . S
H2458 C2472 0.931 . S
H2459 C2474 0.930 . S
C2460 H2448 0.930 . S
C2460 C2461 1.399 . S
C2460 C2465 1.399 . S
C2461 C2460 1.399 . S
C2461 C2462 1.376 . S
C2462 H2449 0.930 . S
C2462 C2461 1.376 . S
C2462 C2463 1.388 . S
C2463 H2450 0.930 . S
C2463 C2462 1.388 . S
C2463 C2464 1.390 . S
C2464 C2463 1.390 . S
C2464 C2465 1.394 . S
C2464 C2470 1.465 . S
C2465 C2460 1.399 . S
C2465 C2464 1.394 . S
C2465 C2466 1.516 . S
C2466 C2465 1.516 . S
C2466 C2467 1.502 . S
C2466 C2468 1.561 . S
C2466 C2469 1.526 . S
C2467 H2451 0.959 . S
C2467 H2452 0.959 . S
C2467 H2453 0.961 . S
C2467 C2466 1.502 . S
C2468 H2454 0.960 . S
C2468 H2455 0.961 . S
C2468 H2456 0.959 . S
C2468 C2466 1.561 . S
C2469 C2466 1.526 . S
C2469 C2470 1.396 . S
C2469 C2474 1.390 . S
C2470 C2464 1.465 . S
C2470 C2469 1.396 . S
C2470 C2471 1.399 . S
C2471 H2457 0.929 . S
C2471 C2470 1.399 . S
C2471 C2472 1.385 . S
C2472 H2458 0.931 . S
C2472 C2471 1.385 . S
C2472 C2473 1.389 . S
C2473 C2472 1.389 . S
C2473 C2474 1.387 . S
C2474 H2459 0.930 . S
C2474 C2469 1.390 . S
C2474 C2473 1.387 . S
H2475 C2487 0.930 . S
H2476 C2489 0.930 . S
H2477 C2490 0.930 . S
H2478 C2494 0.959 . S
H2479 C2494 0.959 . S
H2480 C2494 0.961 . S
H2481 C2495 0.960 . S
H2482 C2495 0.961 . S
H2483 C2495 0.959 . S
H2484 C2498 0.929 . S
H2485 C2499 0.931 . S
H2486 C2501 0.930 . S
C2487 H2475 0.930 . S
C2487 C2488 1.399 . S
C2487 C2492 1.399 . S
C2488 C2487 1.399 . S
C2488 C2489 1.376 . S
C2489 H2476 0.930 . S
C2489 C2488 1.376 . S
C2489 C2490 1.388 . S
C2490 H2477 0.930 . S
C2490 C2489 1.388 . S
C2490 C2491 1.390 . S
C2491 C2490 1.390 . S
C2491 C2492 1.394 . S
C2491 C2497 1.465 . S
C2492 C2487 1.399 . S
C2492 C2491 1.394 . S
C2492 C2493 1.516 . S
C2493 C2492 1.516 . S
C2493 C2494 1.502 . S
C2493 C2495 1.561 . S
C2493 C2496 1.526 . S
C2494 H2478 0.959 . S
C2494 H2479 0.959 . S
C2494 H2480 0.961 . S
C2494 C2493 1.502 . S
C2495 H2481 0.960 . S
C2495 H2482 0.961 . S
C2495 H2483 0.959 . S
C2495 C2493 1.561 . S
C2496 C2493 1.526 . S
C2496 C2497 1.396 . S
C2496 C2501 1.390 . S
C2497 C2491 1.465 . S
C2497 C2496 1.396 . S
C2497 C2498 1.399 . S
C2498 H2484 0.929 . S
C2498 C2497 1.399 . S
C2498 C2499 1.385 . S
C2499 H2485 0.931 . S
C2499 C2498 1.385 . S
C2499 C2500 1.389 . S
C2500 C2499 1.389 . S
C2500 C2501 1.387 . S
C2501 H2486 0.930 . S
C2501 C2496 1.390 . S
C2501 C2500 1.387 . S
H2502 C2514 0.930 . S
H2503 C2516 0.930 . S
H2504 C2517 0.930 . S
H2505 C2521 0.959 . S
H2506 C2521 0.959 . S
H2507 C2521 0.961 . S
H2508 C2522 0.960 . S
H2509 C2522 0.961 . S
H2510 C2522 0.959 . S
H2511 C2525 0.929 . S
H2512 C2526 0.931 . S
H2513 C2528 0.930 . S
C2514 H2502 0.930 . S
C2514 C2515 1.399 . S
C2514 C2519 1.399 . S
C2515 C2514 1.399 . S
C2515 C2516 1.376 . S
C2516 H2503 0.930 . S
C2516 C2515 1.376 . S
C2516 C2517 1.388 . S
C2517 H2504 0.930 . S
C2517 C2516 1.388 . S
C2517 C2518 1.390 . S
C2518 C2517 1.390 . S
C2518 C2519 1.394 . S
C2518 C2524 1.465 . S
C2519 C2514 1.399 . S
C2519 C2518 1.394 . S
C2519 C2520 1.516 . S
C2520 C2519 1.516 . S
C2520 C2521 1.502 . S
C2520 C2522 1.561 . S
C2520 C2523 1.526 . S
C2521 H2505 0.959 . S
C2521 H2506 0.959 . S
C2521 H2507 0.961 . S
C2521 C2520 1.502 . S
C2522 H2508 0.960 . S
C2522 H2509 0.961 . S
C2522 H2510 0.959 . S
C2522 C2520 1.561 . S
C2523 C2520 1.526 . S
C2523 C2524 1.396 . S
C2523 C2528 1.390 . S
C2524 C2518 1.465 . S
C2524 C2523 1.396 . S
C2524 C2525 1.399 . S
C2525 H2511 0.929 . S
C2525 C2524 1.399 . S
C2525 C2526 1.385 . S
C2526 H2512 0.931 . S
C2526 C2525 1.385 . S
C2526 C2527 1.389 . S
C2527 C2526 1.389 . S
C2527 C2528 1.387 . S
C2528 H2513 0.930 . S
C2528 C2523 1.390 . S
C2528 C2527 1.387 . S
H2529 C2541 0.930 . S
H2530 C2543 0.930 . S
H2531 C2544 0.930 . S
H2532 C2548 0.959 . S
H2533 C2548 0.959 . S
H2534 C2548 0.961 . S
H2535 C2549 0.960 . S
H2536 C2549 0.961 . S
H2537 C2549 0.959 . S
H2538 C2552 0.929 . S
H2539 C2553 0.931 . S
H2540 C2555 0.930 . S
C2541 H2529 0.930 . S
C2541 C2542 1.399 . S
C2541 C2546 1.399 . S
C2542 C2541 1.399 . S
C2542 C2543 1.376 . S
C2543 H2530 0.930 . S
C2543 C2542 1.376 . S
C2543 C2544 1.388 . S
C2544 H2531 0.930 . S
C2544 C2543 1.388 . S
C2544 C2545 1.390 . S
C2545 C2544 1.390 . S
C2545 C2546 1.394 . S
C2545 C2551 1.465 . S
C2546 C2541 1.399 . S
C2546 C2545 1.394 . S
C2546 C2547 1.516 . S
C2547 C2546 1.516 . S
C2547 C2548 1.502 . S
C2547 C2549 1.561 . S
C2547 C2550 1.526 . S
C2548 H2532 0.959 . S
C2548 H2533 0.959 . S
C2548 H2534 0.961 . S
C2548 C2547 1.502 . S
C2549 H2535 0.960 . S
C2549 H2536 0.961 . S
C2549 H2537 0.959 . S
C2549 C2547 1.561 . S
C2550 C2547 1.526 . S
C2550 C2551 1.396 . S
C2550 C2555 1.390 . S
C2551 C2545 1.465 . S
C2551 C2550 1.396 . S
C2551 C2552 1.399 . S
C2552 H2538 0.929 . S
C2552 C2551 1.399 . S
C2552 C2553 1.385 . S
C2553 H2539 0.931 . S
C2553 C2552 1.385 . S
C2553 C2554 1.389 . S
C2554 C2553 1.389 . S
C2554 C2555 1.387 . S
C2555 H2540 0.930 . S
C2555 C2550 1.390 . S
C2555 C2554 1.387 . S
C1597 C900 0.774 . S
C1609 C29 0.745 . S
C1624 C145 0.729 . S
C1636 C1017 0.715 . S
C1651 C812 0.799 . S
C1663 C233 0.758 . S
C1678 C1289 0.751 . S
C1690 C284 0.775 . S
C1705 C372 0.779 . S
C1717 C1085 0.793 . S
C1732 C1201 0.715 . S
C1744 C497 0.729 . S
C1759 C548 0.774 . S
C1771 C1465 0.808 . S
C1786 C1545 0.817 . S
C1798 C673 0.772 . S
C1813 C761 0.838 . S
C1825 C1340 0.810 . S
C1840 C57 1.022 . S
C1852 C108 1.062 . S
C1867 C117 0.940 . S
C1879 C196 1.006 . S
C1894 C49 1.080 . S
C1906 C205 1.052 . S
C1921 C460 1.071 . S
C1933 C313 1.047 . S
C1948 C321 1.066 . S
C1960 C401 0.947 . S
C1975 C469 0.970 . S
C1987 C409 1.011 . S
C2002 C577 0.979 . S
C2014 C636 1.110 . S
C2029 C645 1.047 . S
C2041 C724 1.084 . S
C2056 C585 1.061 . S
C2068 C733 0.919 . S
C2083 C997 1.125 . S
C2095 C841 1.090 . S
C2110 C849 1.052 . S
C2122 C929 0.927 . S
C2137 C937 1.068 . S
C2149 C988 0.928 . S
C2164 C1164 1.118 . S
C2176 C1113 0.966 . S
C2191 C1252 1.082 . S
C2203 C1173 1.062 . S
C2218 C1105 1.059 . S
C2230 C1261 1.027 . S
C2245 C1369 0.987 . S
C2257 C1525 1.110 . S
C2272 C1437 0.991 . S
C2284 C1377 1.065 . S
C2299 C1516 0.990 . S
C2311 C1428 1.073 . S
C2326 C20 1.613 . S
C2338 C293 1.591 . S
C2353 C381 1.559 . S
C2365 C137 1.566 . S
C2380 C489 1.524 . S
C2392 C225 1.550 . S
C2407 C821 1.573 . S
C2419 C557 1.579 . S
C2434 C909 1.568 . S
C2446 C665 1.552 . S
C2461 C753 1.624 . S
C2473 C1025 1.624 . S
C2488 C1349 1.628 . S
C2500 C1076 1.621 . S
C2515 C1457 1.602 . S
C2527 C1193 1.622 . S
C2542 C1553 1.587 . S
C2554 C1281 1.562 . S
