# Generated by pormake.
# Topology wjy, (5)-cn, num edge types: 1
# Building blocks:
#     Node 0, Type 0, BuildingBlock: XOMCOT_clean_sbu_0, # of connection points: 5
#     Node 1, Type 0, BuildingBlock: XOMCOT_clean_sbu_0, # of connection points: 5
#     Node 2, Type 0, BuildingBlock: XOMCOT_clean_sbu_0, # of connection points: 5
#     Node 3, Type 0, BuildingBlock: XOMCOT_clean_sbu_0, # of connection points: 5
#     Node 4, Type 0, BuildingBlock: XOMCOT_clean_sbu_0, # of connection points: 5
#     Node 5, Type 0, BuildingBlock: XOMCOT_clean_sbu_0, # of connection points: 5
#     Node 6, Type 0, BuildingBlock: XOMCOT_clean_sbu_0, # of connection points: 5
#     Node 7, Type 0, BuildingBlock: XOMCOT_clean_sbu_0, # of connection points: 5
#     Node 8, Type 0, BuildingBlock: XOMCOT_clean_sbu_0, # of connection points: 5
#     Node 9, Type 0, BuildingBlock: XOMCOT_clean_sbu_0, # of connection points: 5
#     Node 10, Type 0, BuildingBlock: XOMCOT_clean_sbu_0, # of connection points: 5
#     Node 11, Type 0, BuildingBlock: XOMCOT_clean_sbu_0, # of connection points: 5
#     Edge 12, Type (0, 0), BuildingBlock: OJICUG_clean_linker_0, # of connection points: 2
#     Edge 13, Type (0, 0), BuildingBlock: OJICUG_clean_linker_0, # of connection points: 2
#     Edge 14, Type (0, 0), BuildingBlock: OJICUG_clean_linker_0, # of connection points: 2
#     Edge 15, Type (0, 0), BuildingBlock: OJICUG_clean_linker_0, # of connection points: 2
#     Edge 16, Type (0, 0), BuildingBlock: OJICUG_clean_linker_0, # of connection points: 2
#     Edge 17, Type (0, 0), BuildingBlock: OJICUG_clean_linker_0, # of connection points: 2
#     Edge 18, Type (0, 0), BuildingBlock: OJICUG_clean_linker_0, # of connection points: 2
#     Edge 19, Type (0, 0), BuildingBlock: OJICUG_clean_linker_0, # of connection points: 2
#     Edge 20, Type (0, 0), BuildingBlock: OJICUG_clean_linker_0, # of connection points: 2
#     Edge 21, Type (0, 0), BuildingBlock: OJICUG_clean_linker_0, # of connection points: 2
#     Edge 22, Type (0, 0), BuildingBlock: OJICUG_clean_linker_0, # of connection points: 2
#     Edge 23, Type (0, 0), BuildingBlock: OJICUG_clean_linker_0, # of connection points: 2
#     Edge 24, Type (0, 0), BuildingBlock: OJICUG_clean_linker_0, # of connection points: 2
#     Edge 25, Type (0, 0), BuildingBlock: OJICUG_clean_linker_0, # of connection points: 2
#     Edge 26, Type (0, 0), BuildingBlock: OJICUG_clean_linker_0, # of connection points: 2
#     Edge 27, Type (0, 0), BuildingBlock: OJICUG_clean_linker_0, # of connection points: 2
#     Edge 28, Type (0, 0), BuildingBlock: OJICUG_clean_linker_0, # of connection points: 2
#     Edge 29, Type (0, 0), BuildingBlock: OJICUG_clean_linker_0, # of connection points: 2
#     Edge 30, Type (0, 0), BuildingBlock: OJICUG_clean_linker_0, # of connection points: 2
#     Edge 31, Type (0, 0), BuildingBlock: OJICUG_clean_linker_0, # of connection points: 2
#     Edge 32, Type (0, 0), BuildingBlock: OJICUG_clean_linker_0, # of connection points: 2
#     Edge 33, Type (0, 0), BuildingBlock: OJICUG_clean_linker_0, # of connection points: 2
#     Edge 34, Type (0, 0), BuildingBlock: OJICUG_clean_linker_0, # of connection points: 2
#     Edge 35, Type (0, 0), BuildingBlock: OJICUG_clean_linker_0, # of connection points: 2
#     Edge 36, Type (0, 0), BuildingBlock: OJICUG_clean_linker_0, # of connection points: 2
#     Edge 37, Type (0, 0), BuildingBlock: OJICUG_clean_linker_0, # of connection points: 2
#     Edge 38, Type (0, 0), BuildingBlock: OJICUG_clean_linker_0, # of connection points: 2
#     Edge 39, Type (0, 0), BuildingBlock: OJICUG_clean_linker_0, # of connection points: 2
#     Edge 40, Type (0, 0), BuildingBlock: OJICUG_clean_linker_0, # of connection points: 2
#     Edge 41, Type (0, 0), BuildingBlock: OJICUG_clean_linker_0, # of connection points: 2
# Relax obj value: 0.076
# Max RMSD: 0.166
# Mean RMSD: 0.166
data_MOF--net-wjy--node1-XOMCOT_clean_sbu_0--edge1-OJICUG_clean_linker_0
_symmetry_space_group_name_H-M    P1
_symmetry_Int_Tables_number       1
_symmetry_cell_setting            triclinic
loop_
_symmetry_equiv_pos_as_xyz
'x, y, z'
_cell_length_a     56.924217
_cell_length_b     57.015517
_cell_length_c     13.577541
_cell_angle_alpha  90.036255
_cell_angle_beta   89.989154
_cell_angle_gamma 119.90671
loop_
_atom_site_label
_atom_site_type_symbol
_atom_site_fract_x
_atom_site_fract_y
_atom_site_fract_z
_atom_type_partial_charge
Co0 Co 0.47236 0.10188 0.10954 0.0
C1 C 0.47284 0.1034 0.89255 0.0
C2 C 0.50834 0.10414 0.95007 0.0
C3 C 0.50937 0.10383 0.84882 0.0
N4 N 0.48552 0.10403 0.97713 0.0
N5 N 0.48699 0.10324 0.81283 0.0
H6 H 0.45355 0.10281 0.88972 0.0
H7 H 0.52284 0.10367 1.00022 0.0
C8 C 0.52502 0.14081 0.21767 0.0
O9 O 0.51447 0.15369 0.26351 0.0
N10 N 0.45906 0.09912 0.24345 0.0
C11 C 0.43463 0.09507 0.27233 0.0
C12 C 0.43317 0.09369 0.37339 0.0
C13 C 0.47149 0.0987 0.32764 0.0
N14 N 0.45647 0.09618 0.40826 0.0
C15 C 0.44676 0.13436 0.08566 0.0
C16 C 0.49417 0.18329 0.06578 0.0
C17 C 0.46969 0.1833 0.07686 0.0
C18 C 0.44562 0.15831 0.08254 0.0
C19 C 0.49429 0.15886 0.06808 0.0
N20 N 0.47106 0.13502 0.08653 0.0
H21 H 0.42808 0.11532 0.08798 0.0
H22 H 0.51324 0.15928 0.0565 0.0
H23 H 0.41843 0.09241 0.22425 0.0
H24 H 0.49084 0.09949 0.32997 0.0
O25 O 0.43614 0.07424 0.06654 0.0
O26 O 0.46834 0.06672 0.12244 0.0
O27 O 0.51102 0.12191 0.1565 0.0
C28 C 0.44411 0.05689 0.08671 0.0
H29 H 0.52491 0.10308 0.80524 0.0
H30 H 0.41625 0.09122 0.4175 0.0
H31 H 0.5131 0.20204 0.0558 0.0
H32 H 0.42613 0.15729 0.08749 0.0
Co33 Co 0.37013 0.46583 0.30086 0.0
C34 C 0.36779 0.46821 0.08171 0.0
C35 C 0.40398 0.50131 0.14087 0.0
C36 C 0.40578 0.50245 0.03977 0.0
N37 N 0.37982 0.48023 0.16762 0.0
N38 N 0.38302 0.4815 1.00236 0.0
H39 H 0.34942 0.44895 0.07691 0.0
H40 H 0.41987 0.51427 0.19151 0.0
C41 C 0.38864 0.52521 0.32478 0.0
O42 O 0.37638 0.52523 0.24288 0.0
N43 N 0.36117 0.45149 0.43295 0.0
C44 C 0.33937 0.42803 0.46021 0.0
C45 C 0.33844 0.42676 0.56162 0.0
C46 C 0.37336 0.46408 0.51765 0.0
N47 N 0.35978 0.4495 0.59763 0.0
C48 C 0.31497 0.44417 0.23197 0.0
C49 C 0.30312 0.47667 0.34851 0.0
C50 C 0.28362 0.45917 0.28116 0.0
C51 C 0.28949 0.44219 0.22422 0.0
C52 C 0.32811 0.4778 0.35443 0.0
N53 N 0.33452 0.46295 0.29224 0.0
H54 H 0.31872 0.43019 0.19088 0.0
H55 H 0.34204 0.49035 0.41089 0.0
H56 H 0.32467 0.41332 0.40989 0.0
H57 H 0.39111 0.48402 0.52085 0.0
O58 O 0.36208 0.43045 0.25099 0.0
O59 O 0.40215 0.46283 0.30322 0.0
O60 O 0.38731 0.50355 0.35688 0.0
C61 C 0.38781 0.439 0.26427 0.0
H62 H 0.42297 0.51715 0.99761 0.0
H63 H 0.32303 0.4105 0.60536 0.0
H64 H 0.29896 0.48916 0.39753 0.0
H65 H 0.27468 0.42774 0.17338 0.0
Co66 Co 0.90647 0.37123 0.47981 0.0
C67 C 0.90133 0.36871 0.26074 0.0
C68 C 0.90529 0.4053 0.31978 0.0
C69 C 0.90597 0.40707 0.21869 0.0
N70 N 0.90167 0.38094 0.34664 0.0
N71 N 0.90364 0.38407 0.18132 0.0
H72 H 0.90176 0.35008 0.25606 0.0
H73 H 0.90866 0.42135 0.37032 0.0
C74 C 0.86689 0.39148 0.50557 0.0
O75 O 0.85413 0.37927 0.42429 0.0
N76 N 0.91194 0.36221 0.61184 0.0
C77 C 0.91312 0.34012 0.63902 0.0
C78 C 0.91341 0.33913 0.74044 0.0
C79 C 0.91175 0.37449 0.69667 0.0
N80 N 0.91244 0.3607 0.77658 0.0
C81 C 0.87196 0.31626 0.41383 0.0
C82 C 0.82862 0.30537 0.53461 0.0
C83 C 0.82635 0.28503 0.47056 0.0
C84 C 0.84863 0.29069 0.41042 0.0
C85 C 0.85234 0.33045 0.53633 0.0
N86 N 0.87319 0.33623 0.47291 0.0
H87 H 0.88935 0.3196 0.37145 0.0
H88 H 0.85401 0.34487 0.59117 0.0
H89 H 0.91277 0.32524 0.58865 0.0
H90 H 0.90991 0.39246 0.70002 0.0
O91 O 0.93267 0.36173 0.42881 0.0
O92 O 0.94204 0.40241 0.48006 0.0
O93 O 0.88705 0.3896 0.53659 0.0
C94 C 0.95056 0.38723 0.44067 0.0
H95 H 0.9089 0.42442 0.17653 0.0
H96 H 0.91387 0.32349 0.78407 0.0
H97 H 0.81224 0.30207 0.58355 0.0
H98 H 0.8484 0.27531 0.36293 0.0
Co99 Co 0.53794 0.90297 0.61659 0.0
C100 C 0.53738 0.90109 0.39952 0.0
C101 C 0.50095 0.89827 0.45714 0.0
C102 C 0.49973 0.89821 0.35605 0.0
N103 N 0.52449 0.89994 0.48411 0.0
N104 N 0.52272 0.90014 0.31963 0.0
H105 H 0.55744 0.90344 0.39715 0.0
H106 H 0.4859 0.89769 0.50716 0.0
C107 C 0.48376 0.86184 0.71431 0.0
O108 O 0.49258 0.84642 0.75183 0.0
N109 N 0.55152 0.90679 0.7508 0.0
C110 C 0.57754 0.91657 0.77909 0.0
C111 C 0.57891 0.91733 0.88019 0.0
C112 C 0.53778 0.9032 0.83576 0.0
N113 N 0.55387 0.90889 0.91552 0.0
C114 C 0.56363 0.87026 0.61321 0.0
C115 C 0.51867 0.82316 0.55026 0.0
C116 C 0.54224 0.82255 0.57517 0.0
C117 C 0.56504 0.84655 0.6056 0.0
C118 C 0.51795 0.84719 0.56121 0.0
N119 N 0.5399 0.87009 0.59658 0.0
H120 H 0.58177 0.88874 0.63143 0.0
H121 H 0.4996 0.84732 0.5419 0.0
H122 H 0.59474 0.92376 0.73026 0.0
H123 H 0.51662 0.89726 0.84007 0.0
O124 O 0.57387 0.9306 0.57175 0.0
O125 O 0.5414 0.93792 0.62654 0.0
O126 O 0.49937 0.8827 0.66352 0.0
C127 C 0.5656 0.94779 0.59041 0.0
H128 H 0.48314 0.89699 0.31318 0.0
H129 H 0.59707 0.9245 0.92422 0.0
H130 H 0.5008 0.80509 0.52447 0.0
H131 H 0.58393 0.84707 0.62185 0.0
Co132 Co 0.63546 0.53532 0.7695 0.0
C133 C 0.63801 0.53289 0.5505 0.0
C134 C 0.60168 0.49987 0.60917 0.0
C135 C 0.59992 0.49883 0.50806 0.0
N136 N 0.62587 0.52085 0.63625 0.0
N137 N 0.62275 0.51973 0.47094 0.0
H138 H 0.65646 0.5521 0.54605 0.0
H139 H 0.58568 0.48699 0.65951 0.0
C140 C 0.61517 0.47542 0.79552 0.0
O141 O 0.62827 0.47502 0.7164 0.0
N142 N 0.64441 0.54981 0.90157 0.0
C143 C 0.66663 0.57295 0.92875 0.0
C144 C 0.6676 0.57431 0.03014 0.0
C145 C 0.63201 0.53753 0.98638 0.0
N146 N 0.64588 0.55195 0.06633 0.0
C147 C 0.69068 0.55593 0.70387 0.0
C148 C 0.70161 0.52352 0.82457 0.0
C149 C 0.7218 0.5413 0.75981 0.0
C150 C 0.71629 0.55809 0.70031 0.0
C151 C 0.6765 0.52224 0.82648 0.0
N152 N 0.67067 0.53723 0.76287 0.0
H153 H 0.68727 0.56986 0.66109 0.0
H154 H 0.66208 0.50963 0.88156 0.0
H155 H 0.68161 0.58732 0.87839 0.0
H156 H 0.61386 0.51793 0.98965 0.0
O157 O 0.64459 0.57096 0.71888 0.0
O158 O 0.60403 0.53936 0.7699 0.0
O159 O 0.61706 0.49753 0.82576 0.0
C160 C 0.61897 0.5631 0.73114 0.0
H161 H 0.58268 0.48426 0.46571 0.0
H162 H 0.68334 0.59034 0.07371 0.0
H163 H 0.70539 0.51108 0.87512 0.0
H164 H 0.73156 0.57264 0.65103 0.0
Co165 Co 0.10184 0.63356 0.97784 0.0
C166 C 0.10732 0.63634 0.75916 0.0
C167 C 0.10226 0.59921 0.81722 0.0
C168 C 0.10172 0.59763 0.71602 0.0
N169 N 0.10649 0.62378 0.84468 0.0
N170 N 0.10472 0.62095 0.67959 0.0
H171 H 0.10822 0.65562 0.75457 0.0
H172 H 0.09826 0.58291 0.8674 0.0
C173 C 0.14093 0.6126 1.00278 0.0
O174 O 0.15353 0.62442 0.92084 0.0
N175 N 0.09653 0.64262 0.10989 0.0
C176 C 0.09567 0.66483 0.13773 0.0
C177 C 0.09522 0.66557 0.23915 0.0
C178 C 0.09643 0.63006 0.19421 0.0
N179 N 0.09585 0.64376 0.27476 0.0
C180 C 0.13646 0.68865 0.91311 0.0
C181 C 0.18013 0.69901 0.03111 0.0
C182 C 0.18237 0.71954 0.96824 0.0
C183 C 0.15992 0.71415 0.90952 0.0
C184 C 0.15629 0.67403 0.03305 0.0
N185 N 0.13526 0.66849 0.97087 0.0
H186 H 0.11896 0.68552 0.87186 0.0
H187 H 0.15471 0.6595 0.08718 0.0
H188 H 0.09648 0.68001 0.08787 0.0
H189 H 0.09727 0.61154 0.19641 0.0
O190 O 0.07563 0.64315 0.92717 0.0
O191 O 0.0662 0.60248 0.97839 0.0
O192 O 0.1211 0.61499 0.03435 0.0
C193 C 0.05767 0.61767 0.93932 0.0
H194 H 0.09766 0.58003 0.67288 0.0
H195 H 0.09563 0.68163 0.28296 0.0
H196 H 0.19664 0.7021 0.07901 0.0
H197 H 0.16013 0.72967 0.86303 0.0
Co198 Co 0.90555 0.53821 0.73279 0.0
C199 C 0.9004 0.53569 0.9518 0.0
C200 C 0.90337 0.50247 0.89294 0.0
C201 C 0.90413 0.50144 0.99405 0.0
N202 N 0.9003 0.52355 0.86593 0.0
N203 N 0.90241 0.52247 0.03132 0.0
H204 H 0.90144 0.55504 0.95634 0.0
H205 H 0.90641 0.48953 0.84253 0.0
C206 C 0.86565 0.47863 0.70514 0.0
O207 O 0.85264 0.47799 0.7859 0.0
N208 N 0.9115 0.55283 0.60088 0.0
C209 C 0.91315 0.57632 0.57381 0.0
C210 C 0.91357 0.57768 0.47239 0.0
C211 C 0.91116 0.54032 0.51596 0.0
N212 N 0.9122 0.55497 0.43609 0.0
C213 C 0.87057 0.5585 0.79903 0.0
C214 C 0.82765 0.52622 0.67648 0.0
C215 C 0.82465 0.5432 0.7435 0.0
C216 C 0.84677 0.56005 0.80367 0.0
C217 C 0.85179 0.52555 0.67359 0.0
N218 N 0.87235 0.54032 0.7384 0.0
H219 H 0.88774 0.57238 0.84266 0.0
H220 H 0.85396 0.51343 0.61725 0.0
H221 H 0.913 0.59094 0.62424 0.0
H222 H 0.90892 0.52035 0.51248 0.0
O223 O 0.93211 0.57364 0.78478 0.0
O224 O 0.94084 0.54185 0.73351 0.0
O225 O 0.88599 0.5006 0.67532 0.0
C226 C 0.94968 0.56548 0.7734 0.0
H227 H 0.90672 0.4868 0.03625 0.0
H228 H 0.91436 0.59396 0.42885 0.0
H229 H 0.8116 0.51384 0.62524 0.0
H230 H 0.84561 0.57408 0.8545 0.0
Co231 Co 0.37126 0.90006 0.9344 0.0
C232 C 0.3668 0.8938 0.15033 0.0
C233 C 0.40199 0.89346 0.09526 0.0
C234 C 0.40216 0.89234 0.19648 0.0
N235 N 0.37976 0.89424 0.06665 0.0
N236 N 0.38006 0.89264 0.23119 0.0
H237 H 0.34836 0.89486 0.15146 0.0
H238 H 0.41761 0.8948 0.04635 0.0
C239 C 0.386 0.85788 0.85216 0.0
O240 O 0.36149 0.83684 0.84912 0.0
N241 N 0.3638 0.90686 0.8003 0.0
C242 C 0.35809 0.92609 0.77047 0.0
C243 C 0.35666 0.92583 0.66942 0.0
C244 C 0.36554 0.89513 0.7162 0.0
N245 N 0.3615 0.90644 0.63523 0.0
C246 C 0.31373 0.86702 0.90203 0.0
C247 C 0.30716 0.82176 1.00076 0.0
C248 C 0.2846 0.82078 0.95532 0.0
C249 C 0.28806 0.84386 0.90597 0.0
C250 C 0.3325 0.84514 0.99382 0.0
N251 N 0.33582 0.8672 0.94234 0.0
H252 H 0.31568 0.88488 0.86705 0.0
H253 H 0.34963 0.84512 0.02792 0.0
H254 H 0.35558 0.93988 0.81801 0.0
H255 H 0.36984 0.87878 0.71352 0.0
O256 O 0.36212 0.92649 0.98646 0.0
O257 O 0.40288 0.93516 0.93746 0.0
O258 O 0.39047 0.88111 0.88077 0.0
C259 C 0.38787 0.94402 0.9758 0.0
H260 H 0.41811 0.89268 0.24089 0.0
H261 H 0.3534 0.93966 0.62472 0.0
H262 H 0.30537 0.80437 0.03973 0.0
H263 H 0.27099 0.84419 0.87215 0.0
Co264 Co 0.47312 0.36997 0.08078 0.0
C265 C 0.47423 0.36809 0.29787 0.0
C266 C 0.51027 0.40203 0.24051 0.0
C267 C 0.51108 0.40356 0.34178 0.0
N268 N 0.48721 0.37975 0.21319 0.0
N269 N 0.48831 0.3823 0.37798 0.0
H270 H 0.45427 0.35033 0.30021 0.0
H271 H 0.52497 0.41679 0.19053 0.0
C272 C 0.52368 0.3824 0.9632 0.0
O273 O 0.51104 0.35889 0.91803 0.0
N274 N 0.45869 0.36068 0.94706 0.0
C275 C 0.43404 0.34058 0.91914 0.0
C276 C 0.4322 0.34041 0.81812 0.0
C277 C 0.47071 0.37351 0.86221 0.0
N278 N 0.45543 0.36095 0.78217 0.0
C279 C 0.44751 0.31184 0.09738 0.0
C280 C 0.49473 0.30974 0.11596 0.0
C281 C 0.47013 0.28534 0.10551 0.0
C282 C 0.4462 0.28668 0.09976 0.0
C283 C 0.49501 0.33439 0.11425 0.0
N284 N 0.47185 0.3353 0.09698 0.0
H285 H 0.42887 0.31236 0.0969 0.0
H286 H 0.51407 0.35277 0.12546 0.0
H287 H 0.418 0.32718 0.9679 0.0
H288 H 0.49043 0.39149 0.85859 0.0
O289 O 0.43731 0.36084 0.12965 0.0
O290 O 0.46878 0.40119 0.07673 0.0
O291 O 0.51153 0.38851 0.02892 0.0
C292 C 0.44494 0.38627 0.11522 0.0
H293 H 0.52705 0.41947 0.385 0.0
H294 H 0.41493 0.32635 0.77464 0.0
H295 H 0.51379 0.30999 0.12319 0.0
H296 H 0.42654 0.26846 0.09773 0.0
Co297 Co 0.10226 0.46619 0.23214 0.0
C298 C 0.10744 0.46881 0.45115 0.0
C299 C 0.10397 0.50174 0.39236 0.0
C300 C 0.10324 0.5028 0.49349 0.0
N301 N 0.10732 0.48082 0.36531 0.0
N302 N 0.10526 0.48194 0.53072 0.0
H303 H 0.10672 0.44962 0.45567 0.0
H304 H 0.10079 0.51458 0.34193 0.0
C305 C 0.14221 0.52585 0.20534 0.0
O306 O 0.15489 0.52667 0.28719 0.0
N307 N 0.09655 0.45161 0.10016 0.0
C308 C 0.09504 0.42819 0.0729 0.0
C309 C 0.09466 0.42686 0.97145 0.0
C310 C 0.09684 0.46411 1.01535 0.0
N311 N 0.09591 0.44953 0.93535 0.0
C312 C 0.13609 0.44481 0.29891 0.0
C313 C 0.18019 0.47743 0.18182 0.0
C314 C 0.18225 0.45969 0.24789 0.0
C315 C 0.15954 0.44272 0.30528 0.0
C316 C 0.15636 0.47867 0.17725 0.0
N317 N 0.1352 0.46367 0.23946 0.0
H318 H 0.11849 0.43083 0.3404 0.0
H319 H 0.15491 0.49137 0.12163 0.0
H320 H 0.09522 0.41358 0.12322 0.0
H321 H 0.09893 0.48402 1.01206 0.0
O322 O 0.07549 0.43086 0.28353 0.0
O323 O 0.06706 0.46279 0.23159 0.0
O324 O 0.12214 0.50378 0.17477 0.0
C325 C 0.05805 0.43914 0.27155 0.0
H326 H 0.10048 0.51733 0.53574 0.0
H327 H 0.09396 0.41064 0.92777 0.0
H328 H 0.19675 0.48997 0.13265 0.0
H329 H 0.15997 0.42817 0.3554 0.0
Co330 Co 0.63798 0.10429 0.43669 0.0
C331 C 0.64239 0.11049 0.65265 0.0
C332 C 0.60724 0.11091 0.59771 0.0
C333 C 0.6071 0.11207 0.69895 0.0
N334 N 0.62943 0.11006 0.56901 0.0
N335 N 0.62918 0.11172 0.73356 0.0
H336 H 0.66082 0.1094 0.65371 0.0
H337 H 0.59165 0.10964 0.54884 0.0
C338 C 0.62332 0.14649 0.35534 0.0
O339 O 0.64781 0.16756 0.35313 0.0
N340 N 0.6455 0.09753 0.30253 0.0
C341 C 0.65101 0.07818 0.27249 0.0
C342 C 0.65249 0.07849 0.17145 0.0
C343 C 0.64394 0.10941 0.21857 0.0
N344 N 0.64788 0.09804 0.13746 0.0
C345 C 0.69548 0.13735 0.40434 0.0
C346 C 0.70206 0.18249 0.50425 0.0
C347 C 0.72458 0.18352 0.4583 0.0
C348 C 0.72113 0.16051 0.40838 0.0
C349 C 0.67673 0.15911 0.49713 0.0
N350 N 0.6734 0.13712 0.44502 0.0
H351 H 0.69353 0.11953 0.36892 0.0
H352 H 0.65961 0.15911 0.53148 0.0
H353 H 0.65334 0.06427 0.31985 0.0
H354 H 0.63985 0.12591 0.21609 0.0
O355 O 0.64712 0.07789 0.48857 0.0
O356 O 0.60637 0.06925 0.43927 0.0
O357 O 0.6188 0.12321 0.38311 0.0
C358 C 0.62136 0.06039 0.47767 0.0
H359 H 0.59121 0.11182 0.74345 0.0
H360 H 0.65559 0.06458 0.1266 0.0
H361 H 0.70386 0.19984 0.54366 0.0
H362 H 0.73819 0.16026 0.37414 0.0
Co363 Co 0.53657 0.63453 0.54076 0.0
C364 C 0.534 0.63696 0.75977 0.0
C365 C 0.50201 0.59994 0.70086 0.0
C366 C 0.50097 0.59818 0.80192 0.0
N367 N 0.52231 0.62453 0.67399 0.0
N368 N 0.52124 0.62145 0.83924 0.0
H369 H 0.55269 0.65595 0.76426 0.0
H370 H 0.48958 0.58379 0.65028 0.0
C371 C 0.47663 0.61398 0.51822 0.0
O372 O 0.47623 0.62585 0.60064 0.0
N373 N 0.55084 0.64385 0.40868 0.0
C374 C 0.57401 0.66604 0.38157 0.0
C375 C 0.5753 0.66705 0.28016 0.0
C376 C 0.53844 0.63153 0.3239 0.0
N377 N 0.55287 0.64538 0.24403 0.0
C378 C 0.55743 0.68968 0.60709 0.0
C379 C 0.52358 0.70011 0.49247 0.0
C380 C 0.54209 0.72065 0.55486 0.0
C381 C 0.55949 0.71521 0.61163 0.0
C382 C 0.52261 0.67521 0.4888 0.0
N383 N 0.53831 0.66959 0.54955 0.0
H384 H 0.57187 0.68643 0.64745 0.0
H385 H 0.50955 0.66081 0.43457 0.0
H386 H 0.5885 0.68091 0.43199 0.0
H387 H 0.51874 0.61344 0.32057 0.0
O388 O 0.57234 0.64354 0.59046 0.0
O389 O 0.54071 0.60321 0.53796 0.0
O390 O 0.49869 0.61631 0.4851 0.0
C391 C 0.56449 0.618 0.5769 0.0
H392 H 0.48684 0.5807 0.8441 0.0
H393 H 0.59136 0.68272 0.23651 0.0
H394 H 0.50978 0.70303 0.44617 0.0
H395 H 0.57504 0.73067 0.65756 0.0
C396 C 0.48814 0.25448 0.15377 0.0
C397 C 0.46948 0.25883 0.10023 0.0
H398 H 0.50279 0.22737 0.18813 0.0
C399 C 0.45062 0.23782 0.03935 0.0
H400 H 0.50259 0.26981 0.20307 0.0
C401 C 0.45052 0.21327 0.03198 0.0
C402 C 0.46949 0.20922 0.08431 0.0
H403 H 0.43622 0.24049 0.99561 0.0
H404 H 0.43595 0.19765 0.98375 0.0
C405 C 0.48824 0.23008 0.14543 0.0
C406 C 0.20815 0.43455 0.26023 0.0
C407 C 0.20801 0.45914 0.2563 0.0
H408 H 0.23219 0.41521 0.27032 0.0
C409 C 0.23285 0.48353 0.25986 0.0
H410 H 0.18933 0.41543 0.25689 0.0
C411 C 0.25724 0.4834 0.26761 0.0
C412 C 0.25746 0.45887 0.2713 0.0
H413 H 0.23343 0.5028 0.25779 0.0
H414 H 0.27602 0.50257 0.26998 0.0
C415 C 0.23266 0.43442 0.26696 0.0
C416 C 0.76683 0.21929 0.37617 0.0
C417 C 0.75141 0.20857 0.46219 0.0
H418 H 0.80217 0.25204 0.31067 0.0
C419 C 0.76134 0.22244 0.55154 0.0
H420 H 0.75953 0.2091 0.30612 0.0
C421 C 0.78595 0.24678 0.55464 0.0
C422 C 0.80106 0.25811 0.46811 0.0
H423 H 0.75007 0.21441 0.61924 0.0
H424 H 0.79308 0.2567 0.62516 0.0
C425 C 0.79132 0.24386 0.37896 0.0
C426 C 0.55026 0.76265 0.64699 0.0
C427 C 0.54332 0.7475 0.55907 0.0
H428 H 0.55556 0.79834 0.72044 0.0
C429 C 0.53683 0.75794 0.47573 0.0
H430 H 0.55499 0.75528 0.71321 0.0
C431 C 0.53638 0.78221 0.48111 0.0
C432 C 0.54311 0.79704 0.56905 0.0
H433 H 0.53216 0.74749 0.40572 0.0
H434 H 0.53105 0.78955 0.4161 0.0
C435 C 0.55041 0.78726 0.65156 0.0
C436 C 0.77291 0.56694 0.75454 0.0
C437 C 0.74835 0.54219 0.75552 0.0
H438 H 0.81639 0.58674 0.75107 0.0
C439 C 0.74919 0.51797 0.75357 0.0
H440 H 0.77291 0.58593 0.7568 0.0
C441 C 0.77394 0.51844 0.75011 0.0
C442 C 0.79852 0.54313 0.74937 0.0
H443 H 0.73063 0.49858 0.75361 0.0
H444 H 0.77384 0.49939 0.7487 0.0
C445 C 0.79778 0.56741 0.75224 0.0
C446 C 0.24795 0.78171 0.0485 0.0
C447 C 0.25769 0.79575 0.95939 0.0
H448 H 0.2163 0.74742 0.12215 0.0
C449 C 0.24195 0.78527 0.87383 0.0
H450 H 0.25944 0.78954 0.11593 0.0
C451 C 0.21736 0.7608 0.87679 0.0
C452 C 0.20781 0.74638 0.96567 0.0
H453 H 0.24908 0.79558 0.80393 0.0
H454 H 0.20625 0.75282 0.80879 0.0
C455 C 0.22325 0.75746 0.05178 0.0
C456 C 0.49909 0.11217 0.6366 0.0
C457 C 0.47926 0.10133 0.71077 0.0
H458 H 0.50749 0.11942 0.48275 0.0
C459 C 0.4518 0.08826 0.68359 0.0
H460 H 0.52042 0.12263 0.65521 0.0
C461 C 0.44434 0.08618 0.58453 0.0
C462 C 0.46416 0.09724 0.51021 0.0
H463 H 0.43603 0.07925 0.73875 0.0
H464 H 0.423 0.07569 0.56637 0.0
C465 C 0.49165 0.11022 0.53755 0.0
C466 C 0.39241 0.47508 0.73066 0.0
C467 C 0.36569 0.45746 0.69972 0.0
H468 H 0.419 0.49612 0.85035 0.0
C469 C 0.34478 0.44802 0.76997 0.0
H470 H 0.40902 0.48249 0.67875 0.0
C471 C 0.35043 0.45602 0.8686 0.0
C472 C 0.37718 0.47354 0.89996 0.0
H473 H 0.32392 0.43483 0.74848 0.0
H474 H 0.3337 0.4487 0.91991 0.0
C475 C 0.3981 0.48295 0.82944 0.0
C476 C 0.91985 0.39337 0.90991 0.0
C477 C 0.9104 0.36663 0.87871 0.0
H478 H 0.92569 0.42 0.02971 0.0
C479 C 0.89856 0.34573 0.94872 0.0
H480 H 0.92935 0.40997 0.85823 0.0
C481 C 0.8962 0.35141 0.04735 0.0
C482 C 0.90578 0.37819 0.07895 0.0
H483 H 0.89061 0.32485 0.92703 0.0
H484 H 0.88651 0.3347 0.09845 0.0
C485 C 0.91766 0.39909 1.00866 0.0
C486 C 0.52491 0.91121 0.04599 0.0
C487 C 0.54603 0.90675 0.0173 0.0
H488 H 0.50136 0.91331 0.16394 0.0
C489 C 0.5593 0.89992 0.0893 0.0
H490 H 0.51456 0.91686 0.9923 0.0
C491 C 0.55154 0.89751 0.18805 0.0
C492 C 0.53048 0.90216 0.21732 0.0
H493 H 0.57539 0.89597 0.06895 0.0
H494 H 0.5619 0.89171 0.24096 0.0
C495 C 0.51731 0.90909 0.14479 0.0
C496 C 0.66094 0.5532 0.23854 0.0
C497 C 0.63998 0.54404 0.1685 0.0
H498 H 0.67207 0.55225 0.38825 0.0
C499 C 0.61324 0.52665 0.19971 0.0
H500 H 0.68183 0.56619 0.21694 0.0
C501 C 0.60758 0.51871 0.29842 0.0
C502 C 0.62855 0.52783 0.36867 0.0
H503 H 0.59658 0.51945 0.14807 0.0
H504 H 0.58667 0.50572 0.31951 0.0
C505 C 0.65532 0.54515 0.33713 0.0
C506 C 0.08954 0.64888 0.45275 0.0
C507 C 0.09773 0.63766 0.37697 0.0
H508 H 0.08511 0.65226 0.60777 0.0
C509 C 0.10828 0.62082 0.40313 0.0
H510 H 0.08093 0.66156 0.43587 0.0
C511 C 0.11059 0.61542 0.50209 0.0
C512 C 0.10257 0.62681 0.57759 0.0
H513 H 0.11525 0.61213 0.34749 0.0
H514 H 0.11905 0.60263 0.5196 0.0
C515 C 0.092 0.64359 0.55169 0.0
C516 C 0.89595 0.54841 0.16525 0.0
C517 C 0.90488 0.53065 0.13365 0.0
H518 H 0.89108 0.56989 0.28553 0.0
C519 C 0.91639 0.52117 0.20392 0.0
H520 H 0.88657 0.55582 0.11418 0.0
C521 C 0.91883 0.52916 0.30265 0.0
C522 C 0.91 0.54699 0.3339 0.0
H523 H 0.92393 0.50783 0.18289 0.0
H524 H 0.92801 0.52166 0.35432 0.0
C525 C 0.89856 0.55653 0.26387 0.0
C526 C 0.35254 0.90839 0.45787 0.0
C527 C 0.36445 0.90099 0.53346 0.0
H528 H 0.34831 0.9119 0.30333 0.0
C529 C 0.38034 0.88936 0.50758 0.0
H530 H 0.33986 0.91701 0.47486 0.0
C531 C 0.38483 0.88597 0.40875 0.0
C532 C 0.37368 0.89423 0.33309 0.0
H533 H 0.39005 0.88358 0.56336 0.0
H534 H 0.39731 0.87711 0.39186 0.0
C535 C 0.35714 0.90512 0.35904 0.0
C536 C 0.49105 0.39786 0.5508 0.0
C537 C 0.4799 0.37702 0.47999 0.0
H538 H 0.49178 0.40926 0.70156 0.0
C539 C 0.46022 0.35095 0.51063 0.0
H540 H 0.5059 0.4183 0.53021 0.0
C541 C 0.45198 0.34585 0.60907 0.0
C542 C 0.46323 0.36663 0.67985 0.0
H543 H 0.45145 0.33429 0.45898 0.0
H544 H 0.43721 0.32539 0.63001 0.0
C545 C 0.48288 0.39271 0.64942 0.0
C546 C 0.11208 0.45621 0.66444 0.0
C547 C 0.10294 0.47382 0.63304 0.0
H548 H 0.1172 0.43487 0.7845 0.0
C549 C 0.09133 0.48316 0.70351 0.0
H550 H 0.12155 0.44891 0.61325 0.0
C551 C 0.089 0.47519 0.8022 0.0
C552 C 0.09802 0.45751 0.83322 0.0
H553 H 0.08364 0.49638 0.68266 0.0
H554 H 0.07973 0.48258 0.854 0.0
C555 C 0.10957 0.4481 0.76301 0.0
C556 C 0.62464 0.11863 0.91114 0.0
C557 C 0.63562 0.11018 0.83542 0.0
H558 H 0.61961 0.12123 0.06581 0.0
C559 C 0.65206 0.09918 0.86126 0.0
H560 H 0.61224 0.12758 0.89432 0.0
C561 C 0.65671 0.09597 0.96005 0.0
C562 C 0.64496 0.10353 0.03574 0.0
H563 H 0.66077 0.09227 0.80549 0.0
H564 H 0.6693 0.08724 0.97695 0.0
C565 C 0.62919 0.1153 1.00996 0.0
C566 C 0.52818 0.6125 0.11083 0.0
C567 C 0.54504 0.63932 0.14192 0.0
H568 H 0.50788 0.58567 0.99113 0.0
C569 C 0.55383 0.66017 0.0718 0.0
H570 H 0.5213 0.59595 0.16266 0.0
C571 C 0.54592 0.65435 0.97312 0.0
C572 C 0.52915 0.62749 0.94162 0.0
H573 H 0.56643 0.68109 0.09346 0.0
H574 H 0.55271 0.67102 0.92193 0.0
C575 C 0.52042 0.60665 1.01205 0.0
C576 C 0.55929 0.12586 0.21455 0.0
C577 C 0.55202 0.14495 0.24549 0.0
H578 H 0.5874 0.11155 0.22566 0.0
C579 C 0.56992 0.16634 0.30697 0.0
H580 H 0.54613 0.10907 0.16736 0.0
C581 C 0.59418 0.16799 0.33911 0.0
C582 C 0.60042 0.14795 0.31172 0.0
H583 H 0.56491 0.18137 0.33189 0.0
H584 H 0.60735 0.18409 0.38883 0.0
C585 C 0.58299 0.1272 0.24802 0.0
C586 C 0.40852 0.55235 0.4769 0.0
C587 C 0.40762 0.55078 0.37361 0.0
H588 H 0.43093 0.57456 0.60414 0.0
C589 C 0.42779 0.57209 0.31835 0.0
H590 H 0.39327 0.53593 0.52077 0.0
C591 C 0.44971 0.59367 0.36588 0.0
C592 C 0.45121 0.59465 0.46919 0.0
H593 H 0.4277 0.57105 0.23865 0.0
H594 H 0.46607 0.609 0.32201 0.0
C595 C 0.42994 0.5744 0.52443 0.0
C596 C 0.85907 0.43067 0.50237 0.0
C597 C 0.86054 0.41045 0.55618 0.0
H598 H 0.85995 0.46873 0.50863 0.0
C599 C 0.86002 0.41104 0.65957 0.0
H600 H 0.85988 0.43082 0.42263 0.0
C601 C 0.85915 0.43217 0.70859 0.0
C602 C 0.85975 0.45345 0.65476 0.0
H603 H 0.86141 0.39573 0.70234 0.0
H604 H 0.86007 0.43292 0.78832 0.0
C605 C 0.85917 0.45231 0.55139 0.0
C606 C 0.42786 0.87825 0.7525 0.0
C607 C 0.40903 0.85642 0.80919 0.0
H608 H 0.46552 0.89676 0.67725 0.0
C609 C 0.41371 0.8349 0.82911 0.0
H610 H 0.42463 0.89499 0.73525 0.0
C611 C 0.43775 0.83602 0.79678 0.0
C612 C 0.45703 0.85844 0.74256 0.0
H613 H 0.39942 0.81786 0.87303 0.0
H614 H 0.44146 0.81971 0.81584 0.0
C615 C 0.45135 0.87915 0.71898 0.0
C616 C 0.56456 0.42815 0.98146 0.0
C617 C 0.55028 0.40411 0.927 0.0
H618 H 0.59652 0.46929 0.98322 0.0
C619 C 0.56008 0.40256 0.83346 0.0
H620 H 0.55786 0.42996 0.05426 0.0
C621 C 0.58249 0.42531 0.79251 0.0
C622 C 0.59534 0.44994 0.84439 0.0
H623 H 0.54954 0.38433 0.78957 0.0
H624 H 0.58865 0.42407 0.71811 0.0
C625 C 0.58675 0.45078 0.94063 0.0
C626 C 0.14859 0.5723 0.20741 0.0
C627 C 0.1481 0.55094 0.15429 0.0
H628 H 0.14626 0.60869 0.19988 0.0
C629 C 0.14874 0.5519 0.05089 0.0
H630 H 0.14763 0.57171 0.28714 0.0
C631 C 0.14879 0.5734 1.00114 0.0
C632 C 0.14721 0.59369 0.05422 0.0
H633 H 0.14804 0.53543 1.00863 0.0
H634 H 0.14804 0.57311 0.92138 0.0
C635 C 0.14768 0.59331 0.15765 0.0
C636 C 0.44127 0.01238 0.06569 0.0
C637 C 0.42808 0.02764 0.06334 0.0
H638 H 0.43887 0.9744 0.03977 0.0
C639 C 0.4006 0.01479 0.03558 0.0
H640 H 0.4624 0.0215 0.08652 0.0
C641 C 0.38679 0.98716 1.00976 0.0
C642 C 0.40055 0.9724 1.00936 0.0
H643 H 0.38993 0.02606 0.03316 0.0
H644 H 0.36575 0.97763 0.98739 0.0
C645 C 0.42779 0.98529 0.03839 0.0
C646 C 0.44278 0.42689 0.16657 0.0
C647 C 0.42918 0.39883 0.1507 0.0
H648 H 0.44048 0.46115 0.21599 0.0
C649 C 0.40136 0.38356 0.1728 0.0
H650 H 0.46424 0.43925 0.15118 0.0
C651 C 0.38743 0.39638 0.20918 0.0
C652 C 0.40139 0.42444 0.22648 0.0
H653 H 0.3904 0.36187 0.16147 0.0
H654 H 0.36597 0.38437 0.22499 0.0
C655 C 0.42917 0.43945 0.20472 0.0
C656 C 0.01762 0.43974 0.33576 0.0
C657 C 0.03038 0.42474 0.31332 0.0
H658 H 0.98299 0.43976 0.39499 0.0
C659 C 0.0169 0.39692 0.3351 0.0
H660 H 0.02755 0.46127 0.32116 0.0
C661 C 0.99079 0.38432 0.37682 0.0
C662 C 0.9783 0.39961 0.39988 0.0
H663 H 0.02638 0.38493 0.31899 0.0
H664 H 0.98051 0.3628 0.39163 0.0
C665 C 0.99211 0.42743 0.37922 0.0
C666 C 0.60904 0.99 0.54062 0.0
C667 C 0.58136 0.97691 0.5656 0.0
H668 H 0.64397 0.02733 0.49446 0.0
C669 C 0.5678 0.99181 0.56443 0.0
H670 H 0.61998 0.97898 0.54104 0.0
C671 C 0.58119 0.01884 0.53678 0.0
C672 C 0.60867 0.03201 0.51084 0.0
H673 H 0.5465 0.98245 0.58296 0.0
H674 H 0.56985 0.02948 0.53568 0.0
C675 C 0.62273 0.01757 0.51439 0.0
C676 C 0.60756 0.61968 0.63618 0.0
C677 C 0.57967 0.60503 0.61456 0.0
H678 H 0.64235 0.61782 0.68892 0.0
C679 C 0.56534 0.57706 0.63249 0.0
H680 H 0.61907 0.64129 0.62336 0.0
C681 C 0.5783 0.56398 0.67169 0.0
C682 C 0.60614 0.57832 0.69262 0.0
H683 H 0.5438 0.56516 0.61773 0.0
H684 H 0.5664 0.54238 0.68431 0.0
C685 C 0.62083 0.60631 0.6737 0.0
C686 C 0.01741 0.62063 0.87528 0.0
C687 C 0.02976 0.6053 0.8997 0.0
H688 H 0.98183 0.62 0.81713 0.0
C689 C 0.0156 0.57733 0.8818 0.0
H690 H 0.02794 0.64226 0.88801 0.0
C691 C 0.98994 0.56493 0.83948 0.0
C692 C 0.97736 0.57999 0.81535 0.0
H693 H 0.02454 0.56491 0.89878 0.0
H694 H 0.97978 0.54329 0.82686 0.0
C695 C 0.99115 0.60796 0.83464 0.0
loop_
_geom_bond_atom_site_label_1
_geom_bond_atom_site_label_2
_geom_bond_distance
_geom_bond_site_symmetry_2
_ccdc_geom_bond_type
Co0 N4 2.148 1_554 S
Co0 N10 2.128 . S
Co0 N20 2.194 . S
Co0 O25 2.351 . S
Co0 O26 2.155 . S
Co0 O27 2.096 . S
C1 N4 1.301 . S
C1 N5 1.328 . S
C1 H6 0.930 . S
C2 C3 1.333 . S
C2 N4 1.317 . S
C2 H7 0.930 . S
C3 C2 1.333 . S
C3 N5 1.350 . S
C3 H29 0.931 . S
N4 Co0 2.148 1_556 S
N4 C1 1.301 . S
N4 C2 1.317 . S
N5 C1 1.328 . S
N5 C3 1.350 . S
H6 C1 0.930 . S
H7 C2 0.930 . S
C8 O9 1.224 . S
C8 O27 1.247 . S
O9 C8 1.224 . S
N10 Co0 2.128 . S
N10 C11 1.355 . S
N10 C13 1.311 . S
C11 N10 1.355 . S
C11 C12 1.363 . S
C11 H23 0.929 . S
C12 C11 1.363 . S
C12 N14 1.375 . S
C12 H30 0.931 . S
C13 N10 1.311 . S
C13 N14 1.347 . S
C13 H24 0.929 . S
N14 C12 1.375 . S
N14 C13 1.347 . S
C15 C18 1.365 . S
C15 N20 1.328 . S
C15 H21 0.929 . S
C16 C17 1.362 . S
C16 C19 1.378 . S
C16 H31 0.929 . S
C17 C16 1.362 . S
C17 C18 1.366 . S
C18 C15 1.365 . S
C18 C17 1.366 . S
C18 H32 0.930 . S
C19 C16 1.378 . S
C19 N20 1.315 . S
C19 H22 0.930 . S
N20 Co0 2.194 . S
N20 C15 1.328 . S
N20 C19 1.315 . S
H21 C15 0.929 . S
H22 C19 0.930 . S
H23 C11 0.929 . S
H24 C13 0.929 . S
O25 Co0 2.351 . S
O25 C28 1.244 . S
O26 Co0 2.155 . S
O26 C28 1.240 . S
O27 Co0 2.096 . S
O27 C8 1.247 . S
C28 O25 1.244 . S
C28 O26 1.240 . S
H29 C3 0.931 . S
H30 C12 0.931 . S
H31 C16 0.929 . S
H32 C18 0.930 . S
Co33 N37 2.148 . S
Co33 N43 2.128 . S
Co33 N53 2.194 . S
Co33 O58 2.351 . S
Co33 O59 2.155 . S
Co33 O60 2.096 . S
C34 N37 1.301 . S
C34 N38 1.328 1_554 S
C34 H39 0.930 . S
C35 C36 1.333 . S
C35 N37 1.317 . S
C35 H40 0.930 . S
C36 C35 1.333 . S
C36 N38 1.350 1_554 S
C36 H62 0.931 1_554 S
N37 Co33 2.148 . S
N37 C34 1.301 . S
N37 C35 1.317 . S
N38 C34 1.328 1_556 S
N38 C36 1.350 1_556 S
H39 C34 0.930 . S
H40 C35 0.930 . S
C41 O42 1.224 . S
C41 O60 1.247 . S
O42 C41 1.224 . S
N43 Co33 2.128 . S
N43 C44 1.355 . S
N43 C46 1.311 . S
C44 N43 1.355 . S
C44 C45 1.363 . S
C44 H56 0.929 . S
C45 C44 1.363 . S
C45 N47 1.375 . S
C45 H63 0.931 . S
C46 N43 1.311 . S
C46 N47 1.347 . S
C46 H57 0.929 . S
N47 C45 1.375 . S
N47 C46 1.347 . S
C48 C51 1.365 . S
C48 N53 1.328 . S
C48 H54 0.929 . S
C49 C50 1.362 . S
C49 C52 1.378 . S
C49 H64 0.929 . S
C50 C49 1.362 . S
C50 C51 1.366 . S
C51 C48 1.365 . S
C51 C50 1.366 . S
C51 H65 0.930 . S
C52 C49 1.378 . S
C52 N53 1.315 . S
C52 H55 0.930 . S
N53 Co33 2.194 . S
N53 C48 1.328 . S
N53 C52 1.315 . S
H54 C48 0.929 . S
H55 C52 0.930 . S
H56 C44 0.929 . S
H57 C46 0.929 . S
O58 Co33 2.351 . S
O58 C61 1.244 . S
O59 Co33 2.155 . S
O59 C61 1.240 . S
O60 Co33 2.096 . S
O60 C41 1.247 . S
C61 O58 1.244 . S
C61 O59 1.240 . S
H62 C36 0.931 1_556 S
H63 C45 0.931 . S
H64 C49 0.929 . S
H65 C51 0.930 . S
Co66 N70 2.148 . S
Co66 N76 2.128 . S
Co66 N86 2.194 . S
Co66 O91 2.351 . S
Co66 O92 2.155 . S
Co66 O93 2.096 . S
C67 N70 1.301 . S
C67 N71 1.328 . S
C67 H72 0.930 . S
C68 C69 1.333 . S
C68 N70 1.317 . S
C68 H73 0.930 . S
C69 C68 1.333 . S
C69 N71 1.350 . S
C69 H95 0.931 . S
N70 Co66 2.148 . S
N70 C67 1.301 . S
N70 C68 1.317 . S
N71 C67 1.328 . S
N71 C69 1.350 . S
H72 C67 0.930 . S
H73 C68 0.930 . S
C74 O75 1.224 . S
C74 O93 1.247 . S
O75 C74 1.224 . S
N76 Co66 2.128 . S
N76 C77 1.355 . S
N76 C79 1.311 . S
C77 N76 1.355 . S
C77 C78 1.363 . S
C77 H89 0.929 . S
C78 C77 1.363 . S
C78 N80 1.375 . S
C78 H96 0.931 . S
C79 N76 1.311 . S
C79 N80 1.347 . S
C79 H90 0.929 . S
N80 C78 1.375 . S
N80 C79 1.347 . S
C81 C84 1.365 . S
C81 N86 1.328 . S
C81 H87 0.929 . S
C82 C83 1.362 . S
C82 C85 1.378 . S
C82 H97 0.929 . S
C83 C82 1.362 . S
C83 C84 1.366 . S
C84 C81 1.365 . S
C84 C83 1.366 . S
C84 H98 0.930 . S
C85 C82 1.378 . S
C85 N86 1.315 . S
C85 H88 0.930 . S
N86 Co66 2.194 . S
N86 C81 1.328 . S
N86 C85 1.315 . S
H87 C81 0.929 . S
H88 C85 0.930 . S
H89 C77 0.929 . S
H90 C79 0.929 . S
O91 Co66 2.351 . S
O91 C94 1.244 . S
O92 Co66 2.155 . S
O92 C94 1.240 . S
O93 Co66 2.096 . S
O93 C74 1.247 . S
C94 O91 1.244 . S
C94 O92 1.240 . S
H95 C69 0.931 . S
H96 C78 0.931 . S
H97 C82 0.929 . S
H98 C84 0.930 . S
Co99 N103 2.148 . S
Co99 N109 2.128 . S
Co99 N119 2.194 . S
Co99 O124 2.351 . S
Co99 O125 2.155 . S
Co99 O126 2.096 . S
C100 N103 1.301 . S
C100 N104 1.328 . S
C100 H105 0.930 . S
C101 C102 1.333 . S
C101 N103 1.317 . S
C101 H106 0.930 . S
C102 C101 1.333 . S
C102 N104 1.350 . S
C102 H128 0.931 . S
N103 Co99 2.148 . S
N103 C100 1.301 . S
N103 C101 1.317 . S
N104 C100 1.328 . S
N104 C102 1.350 . S
H105 C100 0.930 . S
H106 C101 0.930 . S
C107 O108 1.224 . S
C107 O126 1.247 . S
O108 C107 1.224 . S
N109 Co99 2.128 . S
N109 C110 1.355 . S
N109 C112 1.311 . S
C110 N109 1.355 . S
C110 C111 1.363 . S
C110 H122 0.929 . S
C111 C110 1.363 . S
C111 N113 1.375 . S
C111 H129 0.931 . S
C112 N109 1.311 . S
C112 N113 1.347 . S
C112 H123 0.929 . S
N113 C111 1.375 . S
N113 C112 1.347 . S
C114 C117 1.365 . S
C114 N119 1.328 . S
C114 H120 0.929 . S
C115 C116 1.362 . S
C115 C118 1.378 . S
C115 H130 0.929 . S
C116 C115 1.362 . S
C116 C117 1.366 . S
C117 C114 1.365 . S
C117 C116 1.366 . S
C117 H131 0.930 . S
C118 C115 1.378 . S
C118 N119 1.315 . S
C118 H121 0.930 . S
N119 Co99 2.194 . S
N119 C114 1.328 . S
N119 C118 1.315 . S
H120 C114 0.929 . S
H121 C118 0.930 . S
H122 C110 0.929 . S
H123 C112 0.929 . S
O124 Co99 2.351 . S
O124 C127 1.244 . S
O125 Co99 2.155 . S
O125 C127 1.240 . S
O126 Co99 2.096 . S
O126 C107 1.247 . S
C127 O124 1.244 . S
C127 O125 1.240 . S
H128 C102 0.931 . S
H129 C111 0.931 . S
H130 C115 0.929 . S
H131 C117 0.930 . S
Co132 N136 2.148 . S
Co132 N142 2.128 . S
Co132 N152 2.194 . S
Co132 O157 2.351 . S
Co132 O158 2.155 . S
Co132 O159 2.096 . S
C133 N136 1.301 . S
C133 N137 1.328 . S
C133 H138 0.930 . S
C134 C135 1.333 . S
C134 N136 1.317 . S
C134 H139 0.930 . S
C135 C134 1.333 . S
C135 N137 1.350 . S
C135 H161 0.931 . S
N136 Co132 2.148 . S
N136 C133 1.301 . S
N136 C134 1.317 . S
N137 C133 1.328 . S
N137 C135 1.350 . S
H138 C133 0.930 . S
H139 C134 0.930 . S
C140 O141 1.224 . S
C140 O159 1.247 . S
O141 C140 1.224 . S
N142 Co132 2.128 . S
N142 C143 1.355 . S
N142 C145 1.311 1_556 S
C143 N142 1.355 . S
C143 C144 1.363 1_556 S
C143 H155 0.929 . S
C144 C143 1.363 1_554 S
C144 N146 1.375 . S
C144 H162 0.931 . S
C145 N142 1.311 1_554 S
C145 N146 1.347 . S
C145 H156 0.929 . S
N146 C144 1.375 . S
N146 C145 1.347 . S
C147 C150 1.365 . S
C147 N152 1.328 . S
C147 H153 0.929 . S
C148 C149 1.362 . S
C148 C151 1.378 . S
C148 H163 0.929 . S
C149 C148 1.362 . S
C149 C150 1.366 . S
C150 C147 1.365 . S
C150 C149 1.366 . S
C150 H164 0.930 . S
C151 C148 1.378 . S
C151 N152 1.315 . S
C151 H154 0.930 . S
N152 Co132 2.194 . S
N152 C147 1.328 . S
N152 C151 1.315 . S
H153 C147 0.929 . S
H154 C151 0.930 . S
H155 C143 0.929 . S
H156 C145 0.929 . S
O157 Co132 2.351 . S
O157 C160 1.244 . S
O158 Co132 2.155 . S
O158 C160 1.240 . S
O159 Co132 2.096 . S
O159 C140 1.247 . S
C160 O157 1.244 . S
C160 O158 1.240 . S
H161 C135 0.931 . S
H162 C144 0.931 . S
H163 C148 0.929 . S
H164 C150 0.930 . S
Co165 N169 2.148 . S
Co165 N175 2.128 1_556 S
Co165 N185 2.194 . S
Co165 O190 2.351 . S
Co165 O191 2.155 . S
Co165 O192 2.096 . S
C166 N169 1.301 . S
C166 N170 1.328 . S
C166 H171 0.930 . S
C167 C168 1.333 . S
C167 N169 1.317 . S
C167 H172 0.930 . S
C168 C167 1.333 . S
C168 N170 1.350 . S
C168 H194 0.931 . S
N169 Co165 2.148 . S
N169 C166 1.301 . S
N169 C167 1.317 . S
N170 C166 1.328 . S
N170 C168 1.350 . S
H171 C166 0.930 . S
H172 C167 0.930 . S
C173 O174 1.224 . S
C173 O192 1.247 1_554 S
O174 C173 1.224 . S
N175 Co165 2.128 1_554 S
N175 C176 1.355 . S
N175 C178 1.311 . S
C176 N175 1.355 . S
C176 C177 1.363 . S
C176 H188 0.929 . S
C177 C176 1.363 . S
C177 N179 1.375 . S
C177 H195 0.931 . S
C178 N175 1.311 . S
C178 N179 1.347 . S
C178 H189 0.929 . S
N179 C177 1.375 . S
N179 C178 1.347 . S
C180 C183 1.365 . S
C180 N185 1.328 . S
C180 H186 0.929 . S
C181 C182 1.362 . S
C181 C184 1.378 . S
C181 H196 0.929 . S
C182 C181 1.362 . S
C182 C183 1.366 . S
C183 C180 1.365 . S
C183 C182 1.366 . S
C183 H197 0.930 . S
C184 C181 1.378 . S
C184 N185 1.315 . S
C184 H187 0.930 . S
N185 Co165 2.194 . S
N185 C180 1.328 . S
N185 C184 1.315 . S
H186 C180 0.929 . S
H187 C184 0.930 . S
H188 C176 0.929 . S
H189 C178 0.929 . S
O190 Co165 2.351 . S
O190 C193 1.244 . S
O191 Co165 2.155 . S
O191 C193 1.240 . S
O192 Co165 2.096 . S
O192 C173 1.247 1_556 S
C193 O190 1.244 . S
C193 O191 1.240 . S
H194 C168 0.931 . S
H195 C177 0.931 . S
H196 C181 0.929 . S
H197 C183 0.930 . S
Co198 N202 2.148 . S
Co198 N208 2.128 . S
Co198 N218 2.194 . S
Co198 O223 2.351 . S
Co198 O224 2.155 . S
Co198 O225 2.096 . S
C199 N202 1.301 . S
C199 N203 1.328 1_556 S
C199 H204 0.930 . S
C200 C201 1.333 . S
C200 N202 1.317 . S
C200 H205 0.930 . S
C201 C200 1.333 . S
C201 N203 1.350 1_556 S
C201 H227 0.931 1_556 S
N202 Co198 2.148 . S
N202 C199 1.301 . S
N202 C200 1.317 . S
N203 C199 1.328 1_554 S
N203 C201 1.350 1_554 S
H204 C199 0.930 . S
H205 C200 0.930 . S
C206 O207 1.224 . S
C206 O225 1.247 . S
O207 C206 1.224 . S
N208 Co198 2.128 . S
N208 C209 1.355 . S
N208 C211 1.311 . S
C209 N208 1.355 . S
C209 C210 1.363 . S
C209 H221 0.929 . S
C210 C209 1.363 . S
C210 N212 1.375 . S
C210 H228 0.931 . S
C211 N208 1.311 . S
C211 N212 1.347 . S
C211 H222 0.929 . S
N212 C210 1.375 . S
N212 C211 1.347 . S
C213 C216 1.365 . S
C213 N218 1.328 . S
C213 H219 0.929 . S
C214 C215 1.362 . S
C214 C217 1.378 . S
C214 H229 0.929 . S
C215 C214 1.362 . S
C215 C216 1.366 . S
C216 C213 1.365 . S
C216 C215 1.366 . S
C216 H230 0.930 . S
C217 C214 1.378 . S
C217 N218 1.315 . S
C217 H220 0.930 . S
N218 Co198 2.194 . S
N218 C213 1.328 . S
N218 C217 1.315 . S
H219 C213 0.929 . S
H220 C217 0.930 . S
H221 C209 0.929 . S
H222 C211 0.929 . S
O223 Co198 2.351 . S
O223 C226 1.244 . S
O224 Co198 2.155 . S
O224 C226 1.240 . S
O225 Co198 2.096 . S
O225 C206 1.247 . S
C226 O223 1.244 . S
C226 O224 1.240 . S
H227 C201 0.931 1_554 S
H228 C210 0.931 . S
H229 C214 0.929 . S
H230 C216 0.930 . S
Co231 N235 2.148 1_556 S
Co231 N241 2.128 . S
Co231 N251 2.194 . S
Co231 O256 2.351 . S
Co231 O257 2.155 . S
Co231 O258 2.096 . S
C232 N235 1.301 . S
C232 N236 1.328 . S
C232 H237 0.930 . S
C233 C234 1.333 . S
C233 N235 1.317 . S
C233 H238 0.930 . S
C234 C233 1.333 . S
C234 N236 1.350 . S
C234 H260 0.931 . S
N235 Co231 2.148 1_554 S
N235 C232 1.301 . S
N235 C233 1.317 . S
N236 C232 1.328 . S
N236 C234 1.350 . S
H237 C232 0.930 . S
H238 C233 0.930 . S
C239 O240 1.224 . S
C239 O258 1.247 . S
O240 C239 1.224 . S
N241 Co231 2.128 . S
N241 C242 1.355 . S
N241 C244 1.311 . S
C242 N241 1.355 . S
C242 C243 1.363 . S
C242 H254 0.929 . S
C243 C242 1.363 . S
C243 N245 1.375 . S
C243 H261 0.931 . S
C244 N241 1.311 . S
C244 N245 1.347 . S
C244 H255 0.929 . S
N245 C243 1.375 . S
N245 C244 1.347 . S
C246 C249 1.365 . S
C246 N251 1.328 . S
C246 H252 0.929 . S
C247 C248 1.362 . S
C247 C250 1.378 . S
C247 H262 0.929 . S
C248 C247 1.362 . S
C248 C249 1.366 . S
C249 C246 1.365 . S
C249 C248 1.366 . S
C249 H263 0.930 . S
C250 C247 1.378 . S
C250 N251 1.315 . S
C250 H253 0.930 . S
N251 Co231 2.194 . S
N251 C246 1.328 . S
N251 C250 1.315 . S
H252 C246 0.929 . S
H253 C250 0.930 . S
H254 C242 0.929 . S
H255 C244 0.929 . S
O256 Co231 2.351 . S
O256 C259 1.244 . S
O257 Co231 2.155 . S
O257 C259 1.240 . S
O258 Co231 2.096 . S
O258 C239 1.247 . S
C259 O256 1.244 . S
C259 O257 1.240 . S
H260 C234 0.931 . S
H261 C243 0.931 . S
H262 C247 0.929 . S
H263 C249 0.930 . S
Co264 N268 2.148 . S
Co264 N274 2.128 1_554 S
Co264 N284 2.194 . S
Co264 O289 2.351 . S
Co264 O290 2.155 . S
Co264 O291 2.096 . S
C265 N268 1.301 . S
C265 N269 1.328 . S
C265 H270 0.930 . S
C266 C267 1.333 . S
C266 N268 1.317 . S
C266 H271 0.930 . S
C267 C266 1.333 . S
C267 N269 1.350 . S
C267 H293 0.931 . S
N268 Co264 2.148 . S
N268 C265 1.301 . S
N268 C266 1.317 . S
N269 C265 1.328 . S
N269 C267 1.350 . S
H270 C265 0.930 . S
H271 C266 0.930 . S
C272 O273 1.224 . S
C272 O291 1.247 1_556 S
O273 C272 1.224 . S
N274 Co264 2.128 1_556 S
N274 C275 1.355 . S
N274 C277 1.311 . S
C275 N274 1.355 . S
C275 C276 1.363 . S
C275 H287 0.929 . S
C276 C275 1.363 . S
C276 N278 1.375 . S
C276 H294 0.931 . S
C277 N274 1.311 . S
C277 N278 1.347 . S
C277 H288 0.929 . S
N278 C276 1.375 . S
N278 C277 1.347 . S
C279 C282 1.365 . S
C279 N284 1.328 . S
C279 H285 0.929 . S
C280 C281 1.362 . S
C280 C283 1.378 . S
C280 H295 0.929 . S
C281 C280 1.362 . S
C281 C282 1.366 . S
C282 C279 1.365 . S
C282 C281 1.366 . S
C282 H296 0.930 . S
C283 C280 1.378 . S
C283 N284 1.315 . S
C283 H286 0.930 . S
N284 Co264 2.194 . S
N284 C279 1.328 . S
N284 C283 1.315 . S
H285 C279 0.929 . S
H286 C283 0.930 . S
H287 C275 0.929 . S
H288 C277 0.929 . S
O289 Co264 2.351 . S
O289 C292 1.244 . S
O290 Co264 2.155 . S
O290 C292 1.240 . S
O291 Co264 2.096 . S
O291 C272 1.247 1_554 S
C292 O289 1.244 . S
C292 O290 1.240 . S
H293 C267 0.931 . S
H294 C276 0.931 . S
H295 C280 0.929 . S
H296 C282 0.930 . S
Co297 N301 2.148 . S
Co297 N307 2.128 . S
Co297 N317 2.194 . S
Co297 O322 2.351 . S
Co297 O323 2.155 . S
Co297 O324 2.096 . S
C298 N301 1.301 . S
C298 N302 1.328 . S
C298 H303 0.930 . S
C299 C300 1.333 . S
C299 N301 1.317 . S
C299 H304 0.930 . S
C300 C299 1.333 . S
C300 N302 1.350 . S
C300 H326 0.931 . S
N301 Co297 2.148 . S
N301 C298 1.301 . S
N301 C299 1.317 . S
N302 C298 1.328 . S
N302 C300 1.350 . S
H303 C298 0.930 . S
H304 C299 0.930 . S
C305 O306 1.224 . S
C305 O324 1.247 . S
O306 C305 1.224 . S
N307 Co297 2.128 . S
N307 C308 1.355 . S
N307 C310 1.311 1_554 S
C308 N307 1.355 . S
C308 C309 1.363 1_554 S
C308 H320 0.929 . S
C309 C308 1.363 1_556 S
C309 N311 1.375 . S
C309 H327 0.931 . S
C310 N307 1.311 1_556 S
C310 N311 1.347 . S
C310 H321 0.929 . S
N311 C309 1.375 . S
N311 C310 1.347 . S
C312 C315 1.365 . S
C312 N317 1.328 . S
C312 H318 0.929 . S
C313 C314 1.362 . S
C313 C316 1.378 . S
C313 H328 0.929 . S
C314 C313 1.362 . S
C314 C315 1.366 . S
C315 C312 1.365 . S
C315 C314 1.366 . S
C315 H329 0.930 . S
C316 C313 1.378 . S
C316 N317 1.315 . S
C316 H319 0.930 . S
N317 Co297 2.194 . S
N317 C312 1.328 . S
N317 C316 1.315 . S
H318 C312 0.929 . S
H319 C316 0.930 . S
H320 C308 0.929 . S
H321 C310 0.929 . S
O322 Co297 2.351 . S
O322 C325 1.244 . S
O323 Co297 2.155 . S
O323 C325 1.240 . S
O324 Co297 2.096 . S
O324 C305 1.247 . S
C325 O322 1.244 . S
C325 O323 1.240 . S
H326 C300 0.931 . S
H327 C309 0.931 . S
H328 C313 0.929 . S
H329 C315 0.930 . S
Co330 N334 2.148 . S
Co330 N340 2.128 . S
Co330 N350 2.194 . S
Co330 O355 2.351 . S
Co330 O356 2.155 . S
Co330 O357 2.096 . S
C331 N334 1.301 . S
C331 N335 1.328 . S
C331 H336 0.930 . S
C332 C333 1.333 . S
C332 N334 1.317 . S
C332 H337 0.930 . S
C333 C332 1.333 . S
C333 N335 1.350 . S
C333 H359 0.931 . S
N334 Co330 2.148 . S
N334 C331 1.301 . S
N334 C332 1.317 . S
N335 C331 1.328 . S
N335 C333 1.350 . S
H336 C331 0.930 . S
H337 C332 0.930 . S
C338 O339 1.224 . S
C338 O357 1.247 . S
O339 C338 1.224 . S
N340 Co330 2.128 . S
N340 C341 1.355 . S
N340 C343 1.311 . S
C341 N340 1.355 . S
C341 C342 1.363 . S
C341 H353 0.929 . S
C342 C341 1.363 . S
C342 N344 1.375 . S
C342 H360 0.931 . S
C343 N340 1.311 . S
C343 N344 1.347 . S
C343 H354 0.929 . S
N344 C342 1.375 . S
N344 C343 1.347 . S
C345 C348 1.365 . S
C345 N350 1.328 . S
C345 H351 0.929 . S
C346 C347 1.362 . S
C346 C349 1.378 . S
C346 H361 0.929 . S
C347 C346 1.362 . S
C347 C348 1.366 . S
C348 C345 1.365 . S
C348 C347 1.366 . S
C348 H362 0.930 . S
C349 C346 1.378 . S
C349 N350 1.315 . S
C349 H352 0.930 . S
N350 Co330 2.194 . S
N350 C345 1.328 . S
N350 C349 1.315 . S
H351 C345 0.929 . S
H352 C349 0.930 . S
H353 C341 0.929 . S
H354 C343 0.929 . S
O355 Co330 2.351 . S
O355 C358 1.244 . S
O356 Co330 2.155 . S
O356 C358 1.240 . S
O357 Co330 2.096 . S
O357 C338 1.247 . S
C358 O355 1.244 . S
C358 O356 1.240 . S
H359 C333 0.931 . S
H360 C342 0.931 . S
H361 C346 0.929 . S
H362 C348 0.930 . S
Co363 N367 2.148 . S
Co363 N373 2.128 . S
Co363 N383 2.194 . S
Co363 O388 2.351 . S
Co363 O389 2.155 . S
Co363 O390 2.096 . S
C364 N367 1.301 . S
C364 N368 1.328 . S
C364 H369 0.930 . S
C365 C366 1.333 . S
C365 N367 1.317 . S
C365 H370 0.930 . S
C366 C365 1.333 . S
C366 N368 1.350 . S
C366 H392 0.931 . S
N367 Co363 2.148 . S
N367 C364 1.301 . S
N367 C365 1.317 . S
N368 C364 1.328 . S
N368 C366 1.350 . S
H369 C364 0.930 . S
H370 C365 0.930 . S
C371 O372 1.224 . S
C371 O390 1.247 . S
O372 C371 1.224 . S
N373 Co363 2.128 . S
N373 C374 1.355 . S
N373 C376 1.311 . S
C374 N373 1.355 . S
C374 C375 1.363 . S
C374 H386 0.929 . S
C375 C374 1.363 . S
C375 N377 1.375 . S
C375 H393 0.931 . S
C376 N373 1.311 . S
C376 N377 1.347 . S
C376 H387 0.929 . S
N377 C375 1.375 . S
N377 C376 1.347 . S
C378 C381 1.365 . S
C378 N383 1.328 . S
C378 H384 0.929 . S
C379 C380 1.362 . S
C379 C382 1.378 . S
C379 H394 0.929 . S
C380 C379 1.362 . S
C380 C381 1.366 . S
C381 C378 1.365 . S
C381 C380 1.366 . S
C381 H395 0.930 . S
C382 C379 1.378 . S
C382 N383 1.315 . S
C382 H385 0.930 . S
N383 Co363 2.194 . S
N383 C378 1.328 . S
N383 C382 1.315 . S
H384 C378 0.929 . S
H385 C382 0.930 . S
H386 C374 0.929 . S
H387 C376 0.929 . S
O388 Co363 2.351 . S
O388 C391 1.244 . S
O389 Co363 2.155 . S
O389 C391 1.240 . S
O390 Co363 2.096 . S
O390 C371 1.247 . S
C391 O388 1.244 . S
C391 O389 1.240 . S
H392 C366 0.931 . S
H393 C375 0.931 . S
H394 C379 0.929 . S
H395 C381 0.930 . S
C396 C397 1.387 . S
C396 H400 0.950 . S
C396 C405 1.390 . S
C397 C396 1.387 . S
C397 C399 1.387 1_554 S
H398 C405 0.950 . S
C399 C397 1.387 1_556 S
C399 C401 1.390 1_556 S
C399 H403 0.950 . S
H400 C396 0.950 . S
C401 C399 1.390 1_554 S
C401 C402 1.387 . S
C401 H404 0.950 1_554 S
C402 C401 1.387 . S
C402 C405 1.387 . S
H403 C399 0.950 . S
H404 C401 0.950 1_556 S
C405 C396 1.390 . S
C405 H398 0.950 . S
C405 C402 1.387 . S
C406 C407 1.387 . S
C406 H410 0.950 . S
C406 C415 1.390 . S
C407 C406 1.387 . S
C407 C409 1.387 . S
H408 C415 0.950 . S
C409 C407 1.387 . S
C409 C411 1.390 . S
C409 H413 0.950 . S
H410 C406 0.950 . S
C411 C409 1.390 . S
C411 C412 1.387 . S
C411 H414 0.950 . S
C412 C411 1.387 . S
C412 C415 1.387 . S
H413 C409 0.950 . S
H414 C411 0.950 . S
C415 C406 1.390 . S
C415 H408 0.950 . S
C415 C412 1.387 . S
C416 C417 1.387 . S
C416 H420 0.950 . S
C416 C425 1.390 . S
C417 C416 1.387 . S
C417 C419 1.387 . S
H418 C425 0.950 . S
C419 C417 1.387 . S
C419 C421 1.390 . S
C419 H423 0.950 . S
H420 C416 0.950 . S
C421 C419 1.390 . S
C421 C422 1.387 . S
C421 H424 0.950 . S
C422 C421 1.387 . S
C422 C425 1.387 . S
H423 C419 0.950 . S
H424 C421 0.950 . S
C425 C416 1.390 . S
C425 H418 0.950 . S
C425 C422 1.387 . S
C426 C427 1.387 . S
C426 H430 0.950 . S
C426 C435 1.390 . S
C427 C426 1.387 . S
C427 C429 1.387 . S
H428 C435 0.950 . S
C429 C427 1.387 . S
C429 C431 1.390 . S
C429 H433 0.950 . S
H430 C426 0.950 . S
C431 C429 1.390 . S
C431 C432 1.387 . S
C431 H434 0.950 . S
C432 C431 1.387 . S
C432 C435 1.387 . S
H433 C429 0.950 . S
H434 C431 0.950 . S
C435 C426 1.390 . S
C435 H428 0.950 . S
C435 C432 1.387 . S
C436 C437 1.387 . S
C436 H440 0.950 . S
C436 C445 1.390 . S
C437 C436 1.387 . S
C437 C439 1.387 . S
H438 C445 0.950 . S
C439 C437 1.387 . S
C439 C441 1.390 . S
C439 H443 0.950 . S
H440 C436 0.950 . S
C441 C439 1.390 . S
C441 C442 1.387 . S
C441 H444 0.950 . S
C442 C441 1.387 . S
C442 C445 1.387 . S
H443 C439 0.950 . S
H444 C441 0.950 . S
C445 C436 1.390 . S
C445 H438 0.950 . S
C445 C442 1.387 . S
C446 C447 1.387 . S
C446 H450 0.950 1_556 S
C446 C455 1.390 1_556 S
C447 C446 1.387 . S
C447 C449 1.387 . S
H448 C455 0.950 . S
C449 C447 1.387 . S
C449 C451 1.390 . S
C449 H453 0.950 . S
H450 C446 0.950 1_554 S
C451 C449 1.390 . S
C451 C452 1.387 . S
C451 H454 0.950 . S
C452 C451 1.387 . S
C452 C455 1.387 1_556 S
H453 C449 0.950 . S
H454 C451 0.950 . S
C455 C446 1.390 1_554 S
C455 H448 0.950 . S
C455 C452 1.387 1_554 S
C456 C457 1.387 . S
C456 H460 0.950 . S
C456 C465 1.390 . S
C457 C456 1.387 . S
C457 C459 1.387 . S
H458 C465 0.950 . S
C459 C457 1.387 . S
C459 C461 1.390 . S
C459 H463 0.950 . S
H460 C456 0.950 . S
C461 C459 1.390 . S
C461 C462 1.387 . S
C461 H464 0.950 . S
C462 C461 1.387 . S
C462 C465 1.387 . S
H463 C459 0.950 . S
H464 C461 0.950 . S
C465 C456 1.390 . S
C465 H458 0.950 . S
C465 C462 1.387 . S
C466 C467 1.387 . S
C466 H470 0.950 . S
C466 C475 1.390 . S
C467 C466 1.387 . S
C467 C469 1.387 . S
H468 C475 0.950 . S
C469 C467 1.387 . S
C469 C471 1.390 . S
C469 H473 0.950 . S
H470 C466 0.950 . S
C471 C469 1.390 . S
C471 C472 1.387 . S
C471 H474 0.950 . S
C472 C471 1.387 . S
C472 C475 1.387 . S
H473 C469 0.950 . S
H474 C471 0.950 . S
C475 C466 1.390 . S
C475 H468 0.950 . S
C475 C472 1.387 . S
C476 C477 1.387 . S
C476 H480 0.950 . S
C476 C485 1.390 . S
C477 C476 1.387 . S
C477 C479 1.387 . S
H478 C485 0.950 1_554 S
C479 C477 1.387 . S
C479 C481 1.390 1_556 S
C479 H483 0.950 . S
H480 C476 0.950 . S
C481 C479 1.390 1_554 S
C481 C482 1.387 . S
C481 H484 0.950 . S
C482 C481 1.387 . S
C482 C485 1.387 1_554 S
H483 C479 0.950 . S
H484 C481 0.950 . S
C485 C476 1.390 . S
C485 H478 0.950 1_556 S
C485 C482 1.387 1_556 S
C486 C487 1.387 . S
C486 H490 0.950 . S
C486 C495 1.390 . S
C487 C486 1.387 . S
C487 C489 1.387 . S
H488 C495 0.950 . S
C489 C487 1.387 . S
C489 C491 1.390 . S
C489 H493 0.950 . S
H490 C486 0.950 . S
C491 C489 1.390 . S
C491 C492 1.387 . S
C491 H494 0.950 . S
C492 C491 1.387 . S
C492 C495 1.387 . S
H493 C489 0.950 . S
H494 C491 0.950 . S
C495 C486 1.390 . S
C495 H488 0.950 . S
C495 C492 1.387 . S
C496 C497 1.387 . S
C496 H500 0.950 . S
C496 C505 1.390 . S
C497 C496 1.387 . S
C497 C499 1.387 . S
H498 C505 0.950 . S
C499 C497 1.387 . S
C499 C501 1.390 . S
C499 H503 0.950 . S
H500 C496 0.950 . S
C501 C499 1.390 . S
C501 C502 1.387 . S
C501 H504 0.950 . S
C502 C501 1.387 . S
C502 C505 1.387 . S
H503 C499 0.950 . S
H504 C501 0.950 . S
C505 C496 1.390 . S
C505 H498 0.950 . S
C505 C502 1.387 . S
C506 C507 1.387 . S
C506 H510 0.950 . S
C506 C515 1.390 . S
C507 C506 1.387 . S
C507 C509 1.387 . S
H508 C515 0.950 . S
C509 C507 1.387 . S
C509 C511 1.390 . S
C509 H513 0.950 . S
H510 C506 0.950 . S
C511 C509 1.390 . S
C511 C512 1.387 . S
C511 H514 0.950 . S
C512 C511 1.387 . S
C512 C515 1.387 . S
H513 C509 0.950 . S
H514 C511 0.950 . S
C515 C506 1.390 . S
C515 H508 0.950 . S
C515 C512 1.387 . S
C516 C517 1.387 . S
C516 H520 0.950 . S
C516 C525 1.390 . S
C517 C516 1.387 . S
C517 C519 1.387 . S
H518 C525 0.950 . S
C519 C517 1.387 . S
C519 C521 1.390 . S
C519 H523 0.950 . S
H520 C516 0.950 . S
C521 C519 1.390 . S
C521 C522 1.387 . S
C521 H524 0.950 . S
C522 C521 1.387 . S
C522 C525 1.387 . S
H523 C519 0.950 . S
H524 C521 0.950 . S
C525 C516 1.390 . S
C525 H518 0.950 . S
C525 C522 1.387 . S
C526 C527 1.387 . S
C526 H530 0.950 . S
C526 C535 1.390 . S
C527 C526 1.387 . S
C527 C529 1.387 . S
H528 C535 0.950 . S
C529 C527 1.387 . S
C529 C531 1.390 . S
C529 H533 0.950 . S
H530 C526 0.950 . S
C531 C529 1.390 . S
C531 C532 1.387 . S
C531 H534 0.950 . S
C532 C531 1.387 . S
C532 C535 1.387 . S
H533 C529 0.950 . S
H534 C531 0.950 . S
C535 C526 1.390 . S
C535 H528 0.950 . S
C535 C532 1.387 . S
C536 C537 1.387 . S
C536 H540 0.950 . S
C536 C545 1.390 . S
C537 C536 1.387 . S
C537 C539 1.387 . S
H538 C545 0.950 . S
C539 C537 1.387 . S
C539 C541 1.390 . S
C539 H543 0.950 . S
H540 C536 0.950 . S
C541 C539 1.390 . S
C541 C542 1.387 . S
C541 H544 0.950 . S
C542 C541 1.387 . S
C542 C545 1.387 . S
H543 C539 0.950 . S
H544 C541 0.950 . S
C545 C536 1.390 . S
C545 H538 0.950 . S
C545 C542 1.387 . S
C546 C547 1.387 . S
C546 H550 0.950 . S
C546 C555 1.390 . S
C547 C546 1.387 . S
C547 C549 1.387 . S
H548 C555 0.950 . S
C549 C547 1.387 . S
C549 C551 1.390 . S
C549 H553 0.950 . S
H550 C546 0.950 . S
C551 C549 1.390 . S
C551 C552 1.387 . S
C551 H554 0.950 . S
C552 C551 1.387 . S
C552 C555 1.387 . S
H553 C549 0.950 . S
H554 C551 0.950 . S
C555 C546 1.390 . S
C555 H548 0.950 . S
C555 C552 1.387 . S
C556 C557 1.387 . S
C556 H560 0.950 . S
C556 C565 1.390 . S
C557 C556 1.387 . S
C557 C559 1.387 . S
H558 C565 0.950 . S
C559 C557 1.387 . S
C559 C561 1.390 . S
C559 H563 0.950 . S
H560 C556 0.950 . S
C561 C559 1.390 . S
C561 C562 1.387 . S
C561 H564 0.950 . S
C562 C561 1.387 . S
C562 C565 1.387 . S
H563 C559 0.950 . S
H564 C561 0.950 . S
C565 C556 1.390 . S
C565 H558 0.950 . S
C565 C562 1.387 . S
C566 C567 1.387 . S
C566 H570 0.950 . S
C566 C575 1.390 . S
C567 C566 1.387 . S
C567 C569 1.387 . S
H568 C575 0.950 1_556 S
C569 C567 1.387 . S
C569 C571 1.390 1_554 S
C569 H573 0.950 . S
H570 C566 0.950 . S
C571 C569 1.390 1_556 S
C571 C572 1.387 . S
C571 H574 0.950 . S
C572 C571 1.387 . S
C572 C575 1.387 1_556 S
H573 C569 0.950 . S
H574 C571 0.950 . S
C575 C566 1.390 . S
C575 H568 0.950 1_554 S
C575 C572 1.387 1_554 S
C576 C577 1.387 . S
C576 H580 0.950 . S
C576 C585 1.390 . S
C577 C576 1.387 . S
C577 C579 1.387 . S
H578 C585 0.950 . S
C579 C577 1.387 . S
C579 C581 1.390 . S
C579 H583 0.950 . S
H580 C576 0.950 . S
C581 C579 1.390 . S
C581 C582 1.387 . S
C581 H584 0.950 . S
C582 C581 1.387 . S
C582 C585 1.387 . S
H583 C579 0.950 . S
H584 C581 0.950 . S
C585 C576 1.390 . S
C585 H578 0.950 . S
C585 C582 1.387 . S
C586 C587 1.387 . S
C586 H590 0.950 . S
C586 C595 1.390 . S
C587 C586 1.387 . S
C587 C589 1.387 . S
H588 C595 0.950 . S
C589 C587 1.387 . S
C589 C591 1.390 . S
C589 H593 0.950 . S
H590 C586 0.950 . S
C591 C589 1.390 . S
C591 C592 1.387 . S
C591 H594 0.950 . S
C592 C591 1.387 . S
C592 C595 1.387 . S
H593 C589 0.950 . S
H594 C591 0.950 . S
C595 C586 1.390 . S
C595 H588 0.950 . S
C595 C592 1.387 . S
C596 C597 1.387 . S
C596 H600 0.950 . S
C596 C605 1.390 . S
C597 C596 1.387 . S
C597 C599 1.387 . S
H598 C605 0.950 . S
C599 C597 1.387 . S
C599 C601 1.390 . S
C599 H603 0.950 . S
H600 C596 0.950 . S
C601 C599 1.390 . S
C601 C602 1.387 . S
C601 H604 0.950 . S
C602 C601 1.387 . S
C602 C605 1.387 . S
H603 C599 0.950 . S
H604 C601 0.950 . S
C605 C596 1.390 . S
C605 H598 0.950 . S
C605 C602 1.387 . S
C606 C607 1.387 . S
C606 H610 0.950 . S
C606 C615 1.390 . S
C607 C606 1.387 . S
C607 C609 1.387 . S
H608 C615 0.950 . S
C609 C607 1.387 . S
C609 C611 1.390 . S
C609 H613 0.950 . S
H610 C606 0.950 . S
C611 C609 1.390 . S
C611 C612 1.387 . S
C611 H614 0.950 . S
C612 C611 1.387 . S
C612 C615 1.387 . S
H613 C609 0.950 . S
H614 C611 0.950 . S
C615 C606 1.390 . S
C615 H608 0.950 . S
C615 C612 1.387 . S
C616 C617 1.387 . S
C616 H620 0.950 . S
C616 C625 1.390 . S
C617 C616 1.387 . S
C617 C619 1.387 . S
H618 C625 0.950 . S
C619 C617 1.387 . S
C619 C621 1.390 . S
C619 H623 0.950 1_556 S
H620 C616 0.950 . S
C621 C619 1.390 . S
C621 C622 1.387 . S
C621 H624 0.950 . S
C622 C621 1.387 . S
C622 C625 1.387 . S
H623 C619 0.950 1_554 S
H624 C621 0.950 . S
C625 C616 1.390 . S
C625 H618 0.950 . S
C625 C622 1.387 . S
C626 C627 1.387 . S
C626 H630 0.950 . S
C626 C635 1.390 . S
C627 C626 1.387 . S
C627 C629 1.387 . S
H628 C635 0.950 . S
C629 C627 1.387 . S
C629 C631 1.390 1_554 S
C629 H633 0.950 1_554 S
H630 C626 0.950 . S
C631 C629 1.390 1_556 S
C631 C632 1.387 1_556 S
C631 H634 0.950 . S
C632 C631 1.387 1_554 S
C632 C635 1.387 . S
H633 C629 0.950 1_556 S
H634 C631 0.950 . S
C635 C626 1.390 . S
C635 H628 0.950 . S
C635 C632 1.387 . S
C636 C637 1.387 . S
C636 H640 0.950 . S
C636 C645 1.390 1_544 S
C637 C636 1.387 . S
C637 C639 1.387 . S
H638 C645 0.950 . S
C639 C637 1.387 . S
C639 C641 1.390 1_544 S
C639 H643 0.950 . S
H640 C636 0.950 . S
C641 C639 1.390 1_566 S
C641 C642 1.387 . S
C641 H644 0.950 . S
C642 C641 1.387 . S
C642 C645 1.387 . S
H643 C639 0.950 . S
H644 C641 0.950 . S
C645 C636 1.390 1_566 S
C645 H638 0.950 . S
C645 C642 1.387 . S
C646 C647 1.387 . S
C646 H650 0.950 . S
C646 C655 1.390 . S
C647 C646 1.387 . S
C647 C649 1.387 . S
H648 C655 0.950 . S
C649 C647 1.387 . S
C649 C651 1.390 . S
C649 H653 0.950 . S
H650 C646 0.950 . S
C651 C649 1.390 . S
C651 C652 1.387 . S
C651 H654 0.950 . S
C652 C651 1.387 . S
C652 C655 1.387 . S
H653 C649 0.950 . S
H654 C651 0.950 . S
C655 C646 1.390 . S
C655 H648 0.950 . S
C655 C652 1.387 . S
C656 C657 1.387 . S
C656 H660 0.950 . S
C656 C665 1.390 1_455 S
C657 C656 1.387 . S
C657 C659 1.387 . S
H658 C665 0.950 . S
C659 C657 1.387 . S
C659 C661 1.390 1_455 S
C659 H663 0.950 . S
H660 C656 0.950 . S
C661 C659 1.390 1_655 S
C661 C662 1.387 . S
C661 H664 0.950 . S
C662 C661 1.387 . S
C662 C665 1.387 . S
H663 C659 0.950 . S
H664 C661 0.950 . S
C665 C656 1.390 1_655 S
C665 H658 0.950 . S
C665 C662 1.387 . S
C666 C667 1.387 . S
C666 H670 0.950 . S
C666 C675 1.390 1_565 S
C667 C666 1.387 . S
C667 C669 1.387 . S
H668 C675 0.950 . S
C669 C667 1.387 . S
C669 C671 1.390 1_565 S
C669 H673 0.950 . S
H670 C666 0.950 . S
C671 C669 1.390 1_545 S
C671 C672 1.387 . S
C671 H674 0.950 . S
C672 C671 1.387 . S
C672 C675 1.387 . S
H673 C669 0.950 . S
H674 C671 0.950 . S
C675 C666 1.390 1_545 S
C675 H668 0.950 . S
C675 C672 1.387 . S
C676 C677 1.387 . S
C676 H680 0.950 . S
C676 C685 1.390 . S
C677 C676 1.387 . S
C677 C679 1.387 . S
H678 C685 0.950 . S
C679 C677 1.387 . S
C679 C681 1.390 . S
C679 H683 0.950 . S
H680 C676 0.950 . S
C681 C679 1.390 . S
C681 C682 1.387 . S
C681 H684 0.950 . S
C682 C681 1.387 . S
C682 C685 1.387 . S
H683 C679 0.950 . S
H684 C681 0.950 . S
C685 C676 1.390 . S
C685 H678 0.950 . S
C685 C682 1.387 . S
C686 C687 1.387 . S
C686 H690 0.950 . S
C686 C695 1.390 1_455 S
C687 C686 1.387 . S
C687 C689 1.387 . S
H688 C695 0.950 . S
C689 C687 1.387 . S
C689 C691 1.390 1_455 S
C689 H693 0.950 . S
H690 C686 0.950 . S
C691 C689 1.390 1_655 S
C691 C692 1.387 . S
C691 H694 0.950 . S
C692 C691 1.387 . S
C692 C695 1.387 . S
H693 C689 0.950 . S
H694 C691 0.950 . S
C695 C686 1.390 1_655 S
C695 H688 0.950 . S
C695 C692 1.387 . S
C397 C281 1.377 . S
C402 C17 1.378 . S
C407 C314 1.377 . S
C412 C50 1.377 . S
C417 C347 1.378 . S
C422 C83 1.377 . S
C427 C380 1.377 . S
C432 C116 1.378 . S
C437 C149 1.377 . S
C442 C215 1.377 . S
C447 C248 1.377 . S
C452 C182 1.378 . S
C457 N5 1.472 . S
C462 N14 1.469 . S
C467 N47 1.468 . S
C472 N38 1.471 . S
C477 N80 1.468 . S
C482 N71 1.472 . S
C487 N113 1.468 1_554 S
C492 N104 1.471 . S
C497 N146 1.469 . S
C502 N137 1.472 . S
C507 N179 1.468 . S
C512 N170 1.472 . S
C517 N203 1.472 . S
C522 N212 1.469 . S
C527 N245 1.468 . S
C532 N236 1.471 . S
C537 N269 1.471 . S
C542 N278 1.468 . S
C547 N302 1.472 . S
C552 N311 1.469 . S
C557 N335 1.471 . S
C562 N344 1.468 1_556 S
C567 N377 1.468 . S
C572 N368 1.472 . S
C577 C8 1.550 . S
C582 C338 1.550 . S
C587 C41 1.550 . S
C592 C371 1.550 . S
C597 C74 1.550 . S
C602 C206 1.551 . S
C607 C239 1.550 . S
C612 C107 1.550 . S
C617 C272 1.550 . S
C622 C140 1.550 . S
C627 C305 1.550 . S
C632 C173 1.551 . S
C637 C28 1.261 . S
C642 C259 1.261 . S
C647 C292 1.261 . S
C652 C61 1.261 . S
C657 C325 1.262 . S
C662 C94 1.260 . S
C667 C127 1.262 . S
C672 C358 1.261 . S
C677 C391 1.262 . S
C682 C160 1.260 . S
C687 C193 1.263 . S
C692 C226 1.260 . S
