# Generated by pormake.
# Topology yfk, (5)-cn, num edge types: 1
# Building blocks:
#     Node 0, Type 0, BuildingBlock: BEQFEK_clean_sbu_0, # of connection points: 5
#     Node 1, Type 0, BuildingBlock: BEQFEK_clean_sbu_0, # of connection points: 5
#     Node 2, Type 0, BuildingBlock: BEQFEK_clean_sbu_0, # of connection points: 5
#     Node 3, Type 0, BuildingBlock: BEQFEK_clean_sbu_0, # of connection points: 5
#     Node 4, Type 0, BuildingBlock: BEQFEK_clean_sbu_0, # of connection points: 5
#     Node 5, Type 0, BuildingBlock: BEQFEK_clean_sbu_0, # of connection points: 5
#     Node 6, Type 0, BuildingBlock: BEQFEK_clean_sbu_0, # of connection points: 5
#     Node 7, Type 0, BuildingBlock: BEQFEK_clean_sbu_0, # of connection points: 5
#     Node 8, Type 0, BuildingBlock: BEQFEK_clean_sbu_0, # of connection points: 5
#     Node 9, Type 0, BuildingBlock: BEQFEK_clean_sbu_0, # of connection points: 5
#     Node 10, Type 0, BuildingBlock: BEQFEK_clean_sbu_0, # of connection points: 5
#     Node 11, Type 0, BuildingBlock: BEQFEK_clean_sbu_0, # of connection points: 5
#     Node 12, Type 0, BuildingBlock: BEQFEK_clean_sbu_0, # of connection points: 5
#     Node 13, Type 0, BuildingBlock: BEQFEK_clean_sbu_0, # of connection points: 5
#     Node 14, Type 0, BuildingBlock: BEQFEK_clean_sbu_0, # of connection points: 5
#     Node 15, Type 0, BuildingBlock: BEQFEK_clean_sbu_0, # of connection points: 5
#     Edge 16, Type (0, 0), BuildingBlock: EZIPEK_clean_linker_0, # of connection points: 2
#     Edge 17, Type (0, 0), BuildingBlock: EZIPEK_clean_linker_0, # of connection points: 2
#     Edge 18, Type (0, 0), BuildingBlock: EZIPEK_clean_linker_0, # of connection points: 2
#     Edge 19, Type (0, 0), BuildingBlock: EZIPEK_clean_linker_0, # of connection points: 2
#     Edge 20, Type (0, 0), BuildingBlock: EZIPEK_clean_linker_0, # of connection points: 2
#     Edge 21, Type (0, 0), BuildingBlock: EZIPEK_clean_linker_0, # of connection points: 2
#     Edge 22, Type (0, 0), BuildingBlock: EZIPEK_clean_linker_0, # of connection points: 2
#     Edge 23, Type (0, 0), BuildingBlock: EZIPEK_clean_linker_0, # of connection points: 2
#     Edge 24, Type (0, 0), BuildingBlock: EZIPEK_clean_linker_0, # of connection points: 2
#     Edge 25, Type (0, 0), BuildingBlock: EZIPEK_clean_linker_0, # of connection points: 2
#     Edge 26, Type (0, 0), BuildingBlock: EZIPEK_clean_linker_0, # of connection points: 2
#     Edge 27, Type (0, 0), BuildingBlock: EZIPEK_clean_linker_0, # of connection points: 2
#     Edge 28, Type (0, 0), BuildingBlock: EZIPEK_clean_linker_0, # of connection points: 2
#     Edge 29, Type (0, 0), BuildingBlock: EZIPEK_clean_linker_0, # of connection points: 2
#     Edge 30, Type (0, 0), BuildingBlock: EZIPEK_clean_linker_0, # of connection points: 2
#     Edge 31, Type (0, 0), BuildingBlock: EZIPEK_clean_linker_0, # of connection points: 2
#     Edge 32, Type (0, 0), BuildingBlock: EZIPEK_clean_linker_0, # of connection points: 2
#     Edge 33, Type (0, 0), BuildingBlock: EZIPEK_clean_linker_0, # of connection points: 2
#     Edge 34, Type (0, 0), BuildingBlock: EZIPEK_clean_linker_0, # of connection points: 2
#     Edge 35, Type (0, 0), BuildingBlock: EZIPEK_clean_linker_0, # of connection points: 2
#     Edge 36, Type (0, 0), BuildingBlock: EZIPEK_clean_linker_0, # of connection points: 2
#     Edge 37, Type (0, 0), BuildingBlock: EZIPEK_clean_linker_0, # of connection points: 2
#     Edge 38, Type (0, 0), BuildingBlock: EZIPEK_clean_linker_0, # of connection points: 2
#     Edge 39, Type (0, 0), BuildingBlock: EZIPEK_clean_linker_0, # of connection points: 2
#     Edge 40, Type (0, 0), BuildingBlock: EZIPEK_clean_linker_0, # of connection points: 2
#     Edge 41, Type (0, 0), BuildingBlock: EZIPEK_clean_linker_0, # of connection points: 2
#     Edge 42, Type (0, 0), BuildingBlock: EZIPEK_clean_linker_0, # of connection points: 2
#     Edge 43, Type (0, 0), BuildingBlock: EZIPEK_clean_linker_0, # of connection points: 2
#     Edge 44, Type (0, 0), BuildingBlock: EZIPEK_clean_linker_0, # of connection points: 2
#     Edge 45, Type (0, 0), BuildingBlock: EZIPEK_clean_linker_0, # of connection points: 2
#     Edge 46, Type (0, 0), BuildingBlock: EZIPEK_clean_linker_0, # of connection points: 2
#     Edge 47, Type (0, 0), BuildingBlock: EZIPEK_clean_linker_0, # of connection points: 2
#     Edge 48, Type (0, 0), BuildingBlock: EZIPEK_clean_linker_0, # of connection points: 2
#     Edge 49, Type (0, 0), BuildingBlock: EZIPEK_clean_linker_0, # of connection points: 2
#     Edge 50, Type (0, 0), BuildingBlock: EZIPEK_clean_linker_0, # of connection points: 2
#     Edge 51, Type (0, 0), BuildingBlock: EZIPEK_clean_linker_0, # of connection points: 2
#     Edge 52, Type (0, 0), BuildingBlock: EZIPEK_clean_linker_0, # of connection points: 2
#     Edge 53, Type (0, 0), BuildingBlock: EZIPEK_clean_linker_0, # of connection points: 2
#     Edge 54, Type (0, 0), BuildingBlock: EZIPEK_clean_linker_0, # of connection points: 2
#     Edge 55, Type (0, 0), BuildingBlock: EZIPEK_clean_linker_0, # of connection points: 2
# Relax obj value: 0.333
# Max RMSD: 0.212
# Mean RMSD: 0.212
data_MOF--net-yfk--node1-BEQFEK_clean_sbu_0--edge1-EZIPEK_clean_linker_0
_symmetry_space_group_name_H-M    P1
_symmetry_Int_Tables_number       1
_symmetry_cell_setting            triclinic
loop_
_symmetry_equiv_pos_as_xyz
'x, y, z'
_cell_length_a     40.718669
_cell_length_b     40.500444
_cell_length_c     23.754506
_cell_angle_alpha  89.952891
_cell_angle_beta   90.093043
_cell_angle_gamma 89.835498
loop_
_atom_site_label
_atom_site_type_symbol
_atom_site_fract_x
_atom_site_fract_y
_atom_site_fract_z
_atom_type_partial_charge
Co0 Co 0.09759 0.03422 0.3398 0.0
Co1 Co 0.07993 0.09971 0.27975 0.0
C2 C 0.04247 0.03387 0.26182 0.0
O3 O 0.06475 0.01822 0.28758 0.0
O4 O 0.04411 0.06538 0.2572 0.0
C5 C 0.10312 0.96616 0.37383 0.0
O6 O 0.08672 0.95892 0.32788 0.0
C7 C 0.08482 0.1548 0.19351 0.0
C8 C 0.05153 0.19098 0.23363 0.0
C9 C 0.07235 0.18668 0.18843 0.0
N10 N 0.07216 0.14093 0.24037 0.0
N11 N 0.05205 0.16276 0.26351 0.0
C12 C 0.10811 0.13813 0.15412 0.0
H13 H 0.11549 0.11352 0.17043 0.0
H14 H 0.13006 0.15386 0.14768 0.0
H15 H 0.09603 0.13519 0.11251 0.0
C16 C 0.16281 0.05672 0.32436 0.0
N17 N 0.13172 0.05766 0.30621 0.0
N18 N 0.12588 0.08577 0.28049 0.0
C19 C 0.15402 0.10379 0.28137 0.0
C20 C 0.17985 0.08417 0.30387 0.0
C21 C 0.17157 0.03754 0.3767 0.0
H22 H 0.1506 0.038 0.40621 0.0
H23 H 0.177 0.01149 0.36561 0.0
H24 H 0.19229 0.04828 0.40058 0.0
O25 O 0.07818 0.06218 0.39955 0.0
O26 O 0.07167 0.11116 0.3593 0.0
H27 H 0.16969 0.15108 0.31429 0.0
H28 H 0.15736 0.15114 0.24075 0.0
C29 C 0.15229 0.14079 0.283 0.0
H30 H 0.12733 0.14894 0.29539 0.0
H31 H 0.03906 0.15864 0.30066 0.0
O32 O 0.11314 0.99537 0.38162 0.0
C33 C 0.07098 0.09272 0.40261 0.0
Co34 Co 0.03242 0.86947 0.66057 0.0
Co35 Co 0.10008 0.89763 0.70768 0.0
C36 C 0.03401 0.92986 0.73551 0.0
O37 O 0.01838 0.90868 0.70612 0.0
O38 O 0.06513 0.92739 0.74301 0.0
C39 C 0.96949 0.83043 0.62226 0.0
O40 O 0.95981 0.81862 0.67098 0.0
C41 C 0.15869 0.90487 0.78496 0.0
C42 C 0.19559 0.92202 0.72348 0.0
C43 C 0.19158 0.91366 0.77942 0.0
N44 N 0.14401 0.90763 0.73418 0.0
N45 N 0.16638 0.91797 0.69791 0.0
C46 C 0.14182 0.89371 0.83736 0.0
H47 H 0.1149 0.89197 0.83046 0.0
H48 H 0.15152 0.86914 0.84981 0.0
H49 H 0.14721 0.91115 0.87219 0.0
C50 C 0.06486 0.80741 0.68375 0.0
N51 N 0.06246 0.8398 0.69576 0.0
N52 N 0.09178 0.85094 0.70972 0.0
C53 C 0.11374 0.82599 0.70422 0.0
C54 C 0.0974 0.79777 0.68652 0.0
C55 C 0.03865 0.78845 0.65466 0.0
H56 H 0.03676 0.79811 0.6112 0.0
H57 H 0.0152 0.79191 0.67721 0.0
H58 H 0.04434 0.76166 0.65299 0.0
O59 O 0.05533 0.88771 0.5954 0.0
O60 O 0.10115 0.91045 0.6276 0.0
H61 H 0.15618 0.85016 0.67125 0.0
H62 H 0.16318 0.80764 0.69198 0.0
C63 C 0.15006 0.83086 0.70266 0.0
H64 H 0.15831 0.83936 0.74456 0.0
H65 H 0.16187 0.92197 0.65521 0.0
O66 O 0.99501 0.84839 0.61901 0.0
C67 C 0.08162 0.90374 0.58753 0.0
Co68 Co 0.89296 0.92814 0.38698 0.0
Co69 Co 0.89834 0.87607 0.29317 0.0
C70 C 0.93557 0.94104 0.28852 0.0
O71 O 0.91702 0.95059 0.32809 0.0
O72 O 0.9333 0.91139 0.26952 0.0
C73 C 0.8677 0.98796 0.43632 0.0
O74 O 0.85103 0.99232 0.38951 0.0
C75 C 0.90987 0.82527 0.20116 0.0
C76 C 0.8695 0.79113 0.22272 0.0
C77 C 0.89592 0.79495 0.1871 0.0
N78 N 0.89218 0.83879 0.24335 0.0
N79 N 0.86824 0.818 0.25577 0.0
C80 C 0.94074 0.8397 0.178 0.0
H81 H 0.96155 0.83277 0.20587 0.0
H82 H 0.93892 0.86705 0.1772 0.0
H83 H 0.9457 0.83005 0.1351 0.0
C84 C 0.82507 0.90975 0.38196 0.0
N85 N 0.85518 0.90924 0.36026 0.0
N86 N 0.85511 0.89402 0.31158 0.0
C87 C 0.82326 0.88768 0.298 0.0
C88 C 0.80323 0.89753 0.343 0.0
C89 C 0.81758 0.91942 0.44105 0.0
H90 H 0.83976 0.91599 0.46756 0.0
H91 H 0.80969 0.9456 0.44171 0.0
H92 H 0.79723 0.90424 0.45817 0.0
O93 O 0.91804 0.89519 0.42531 0.0
O94 O 0.91383 0.85356 0.36518 0.0
H95 H 0.80453 0.84865 0.24628 0.0
H96 H 0.7903 0.88901 0.22757 0.0
C97 C 0.81207 0.87481 0.2422 0.0
H98 H 0.83211 0.87654 0.21073 0.0
H99 H 0.85187 0.82138 0.28902 0.0
O100 O 0.88456 0.96196 0.44352 0.0
C101 C 0.9215 0.86494 0.41354 0.0
Co102 Co 0.9605 0.10967 0.66897 0.0
Co103 Co 0.89413 0.09275 0.72988 0.0
C104 C 0.96055 0.05443 0.7451 0.0
O105 O 0.97677 0.07874 0.72589 0.0
O106 O 0.92907 0.05623 0.74971 0.0
C107 C 0.02616 0.12976 0.62062 0.0
O108 O 0.03985 0.1347 0.66997 0.0
C109 C 0.83787 0.08704 0.81567 0.0
C110 C 0.79667 0.08627 0.75494 0.0
C111 C 0.8036 0.08579 0.81171 0.0
N112 N 0.85045 0.08852 0.76305 0.0
N113 N 0.82536 0.08793 0.72747 0.0
C114 C 0.85805 0.08711 0.8682 0.0
H115 H 0.8819 0.07454 0.86063 0.0
H116 H 0.86318 0.11304 0.88031 0.0
H117 H 0.84465 0.07499 0.90321 0.0
C118 C 0.93653 0.17606 0.68117 0.0
N119 N 0.93619 0.14471 0.69952 0.0
N120 N 0.90768 0.13834 0.72334 0.0
C121 C 0.8886 0.16568 0.71865 0.0
C122 C 0.90611 0.19016 0.69065 0.0
C123 C 0.96246 0.18971 0.64359 0.0
H124 H 0.95918 0.17911 0.60092 0.0
H125 H 0.987 0.18276 0.66001 0.0
H126 H 0.96071 0.21702 0.64072 0.0
O127 O 0.93312 0.08542 0.61449 0.0
O128 O 0.88413 0.0808 0.65344 0.0
H129 H 0.84004 0.15168 0.69509 0.0
H130 H 0.84264 0.19174 0.72783 0.0
C131 C 0.85238 0.16612 0.72861 0.0
H132 H 0.84686 0.15469 0.76992 0.0
H133 H 0.82752 0.0892 0.68382 0.0
O134 O 0.99603 0.12223 0.61709 0.0
C135 C 0.90326 0.07695 0.61218 0.0
Co136 Co 0.10843 0.44745 0.88353 0.0
Co137 Co 0.10219 0.38133 0.94645 0.0
C138 C 0.06351 0.44408 0.97646 0.0
O139 O 0.08432 0.46115 0.94995 0.0
O140 O 0.06612 0.41249 0.97792 0.0
C141 C 0.09834 0.51068 0.83846 0.0
O142 O 0.07447 0.5122 0.87547 0.0
C143 C 0.09533 0.32609 0.03152 0.0
C144 C 0.11413 0.28502 0.97927 0.0
C145 C 0.101 0.29219 0.03136 0.0
N146 N 0.10483 0.33844 0.98139 0.0
N147 N 0.11607 0.31362 0.95072 0.0
C148 C 0.07956 0.3458 0.07722 0.0
H149 H 0.08498 0.37246 0.07189 0.0
H150 H 0.08823 0.33705 0.119 0.0
H151 H 0.05257 0.34217 0.07531 0.0
C152 C 0.17553 0.4266 0.87552 0.0
N153 N 0.1463 0.42486 0.90093 0.0
N154 N 0.14555 0.39962 0.93561 0.0
C155 C 0.17586 0.38572 0.93635 0.0
C156 C 0.19584 0.4023 0.89757 0.0
C157 C 0.1821 0.44832 0.82556 0.0
H158 H 0.16031 0.449 0.79764 0.0
H159 H 0.18686 0.47387 0.84021 0.0
H160 H 0.20335 0.43948 0.80056 0.0
O161 O 0.08294 0.42033 0.83158 0.0
O162 O 0.08773 0.37026 0.8685 0.0
H163 H 0.17972 0.33371 0.95152 0.0
H164 H 0.21209 0.35777 0.9824 0.0
C165 C 0.18537 0.35724 0.97314 0.0
H166 H 0.17113 0.35796 0.01293 0.0
H167 H 0.12458 0.31614 0.90953 0.0
O168 O 0.11814 0.48655 0.83918 0.0
C169 C 0.0796 0.38925 0.82808 0.0
Co170 Co 0.45171 0.91055 0.09397 0.0
Co171 Co 0.38443 0.92145 0.03213 0.0
C172 C 0.44672 0.96314 0.00974 0.0
O173 O 0.46412 0.94486 0.04122 0.0
O174 O 0.41604 0.95733 0.00245 0.0
C175 C 0.51643 0.87964 0.13213 0.0
O176 O 0.5213 0.86234 0.08618 0.0
C177 C 0.32963 0.91644 0.94567 0.0
C178 C 0.28926 0.93817 0.99567 0.0
C179 C 0.29628 0.9242 0.94414 0.0
N180 N 0.34171 0.92533 0.99639 0.0
N181 N 0.31724 0.93827 0.0257 0.0
C182 C 0.34941 0.90094 0.89983 0.0
H183 H 0.3756 0.89879 0.91244 0.0
H184 H 0.33947 0.87607 0.8903 0.0
H185 H 0.34718 0.91601 0.86095 0.0
C186 C 0.43162 0.84348 0.08329 0.0
N187 N 0.42931 0.87409 0.06285 0.0
N188 N 0.4017 0.87705 0.03453 0.0
C189 C 0.38636 0.84724 0.0343 0.0
C190 C 0.40705 0.82364 0.06053 0.0
C191 C 0.44774 0.83714 0.13908 0.0
H192 H 0.44954 0.86011 0.16388 0.0
H193 H 0.47247 0.82724 0.13143 0.0
H194 H 0.4337 0.8193 0.16502 0.0
O195 O 0.4238 0.92956 0.15185 0.0
O196 O 0.37464 0.93119 0.1122 0.0
H197 H 0.33933 0.82713 0.0591 0.0
H198 H 0.34285 0.83894 0.98521 0.0
C199 C 0.34974 0.8452 0.02911 0.0
H200 H 0.33841 0.86922 0.03955 0.0
H201 H 0.31943 0.94704 0.06674 0.0
O202 O 0.49154 0.89833 0.13723 0.0
C203 C 0.39311 0.93466 0.1549 0.0
Co204 Co 0.90085 0.53962 0.87288 0.0
Co205 Co 0.9203 0.60169 0.94223 0.0
C206 C 0.95432 0.53386 0.9544 0.0
O207 O 0.932 0.52116 0.92452 0.0
O208 O 0.95436 0.56502 0.96421 0.0
C209 C 0.87341 0.47403 0.84977 0.0
O210 O 0.87027 0.4691 0.90413 0.0
C211 C 0.91859 0.65539 0.03226 0.0
C212 C 0.94809 0.69305 0.98812 0.0
C213 C 0.92996 0.68772 0.03625 0.0
N214 N 0.92929 0.64231 0.98325 0.0
N215 N 0.94739 0.66499 0.95796 0.0
C216 C 0.89722 0.63795 0.07371 0.0
H217 H 0.88872 0.61394 0.05664 0.0
H218 H 0.87594 0.65382 0.0849 0.0
H219 H 0.91144 0.63356 0.11292 0.0
C220 C 0.83646 0.56227 0.89476 0.0
N221 N 0.868 0.56294 0.90931 0.0
N222 N 0.87395 0.58879 0.941 0.0
C223 C 0.84502 0.60519 0.94849 0.0
C224 C 0.81925 0.58659 0.9237 0.0
C225 C 0.82535 0.54596 0.84136 0.0
H226 H 0.81765 0.52055 0.85128 0.0
H227 H 0.8456 0.54515 0.81036 0.0
H228 H 0.80469 0.55943 0.8212 0.0
O229 O 0.92075 0.56822 0.81562 0.0
O230 O 0.92862 0.61476 0.86267 0.0
H231 H 0.827 0.65434 0.93127 0.0
H232 H 0.83879 0.6465 0.00402 0.0
C233 C 0.84472 0.64157 0.95931 0.0
H234 H 0.86916 0.65215 0.95032 0.0
H235 H 0.9585 0.66176 0.91884 0.0
O236 O 0.88429 0.50126 0.83119 0.0
C237 C 0.92857 0.59857 0.81679 0.0
Co238 Co 0.53815 0.1373 0.07812 0.0
Co239 Co 0.60182 0.10127 0.03692 0.0
C240 C 0.5301 0.07802 0.01173 0.0
O241 O 0.51803 0.10542 0.02732 0.0
O242 O 0.56129 0.07323 0.01301 0.0
C243 C 0.47951 0.18134 0.13379 0.0
O244 O 0.46686 0.20602 0.10513 0.0
C245 C 0.66153 0.09652 0.9608 0.0
C246 C 0.68705 0.05469 0.00174 0.0
C247 C 0.69029 0.07776 0.95922 0.0
N248 N 0.64237 0.08522 0.00307 0.0
N249 N 0.6579 0.06007 0.02682 0.0
C250 C 0.65259 0.12434 0.92228 0.0
H251 H 0.62748 0.13359 0.93132 0.0
H252 H 0.67057 0.14467 0.92707 0.0
H253 H 0.65401 0.11576 0.87798 0.0
C254 C 0.57388 0.19531 0.05407 0.0
N255 N 0.56983 0.16317 0.04211 0.0
N256 N 0.59872 0.1491 0.03497 0.0
C257 C 0.6221 0.1717 0.0476 0.0
C258 C 0.60691 0.20157 0.06114 0.0
C259 C 0.54668 0.21781 0.07181 0.0
H260 H 0.54307 0.21544 0.11779 0.0
H261 H 0.52376 0.21135 0.04918 0.0
H262 H 0.55299 0.24392 0.06274 0.0
O263 O 0.55941 0.1149 0.14372 0.0
O264 O 0.60602 0.09095 0.11671 0.0
H265 H 0.66666 0.17742 0.0959 0.0
H266 H 0.67222 0.1699 0.02231 0.0
C267 C 0.65721 0.16316 0.05946 0.0
H268 H 0.66004 0.13638 0.06782 0.0
H269 H 0.64887 0.04693 0.06125 0.0
O270 O 0.50238 0.16411 0.11221 0.0
C271 C 0.58549 0.09859 0.15476 0.0
Co272 Co 0.59402 0.54845 0.85823 0.0
Co273 Co 0.59716 0.61377 0.78647 0.0
C274 C 0.55203 0.55644 0.7572 0.0
O275 O 0.56568 0.53907 0.79494 0.0
O276 O 0.56023 0.58666 0.74946 0.0
C277 C 0.59313 0.47702 0.89058 0.0
O278 O 0.59048 0.46832 0.83755 0.0
C279 C 0.59224 0.67204 0.70668 0.0
C280 C 0.62424 0.70704 0.75226 0.0
C281 C 0.6039 0.70438 0.70596 0.0
N282 N 0.60538 0.65625 0.75151 0.0
N283 N 0.62429 0.67757 0.77843 0.0
C284 C 0.56741 0.65727 0.66789 0.0
H285 H 0.5738 0.63111 0.65922 0.0
H286 H 0.56583 0.67144 0.62793 0.0
H287 H 0.54303 0.65775 0.68872 0.0
C288 C 0.66322 0.56328 0.86714 0.0
N289 N 0.63494 0.56607 0.83853 0.0
N290 N 0.6376 0.5898 0.80077 0.0
C291 C 0.66915 0.60055 0.80113 0.0
C292 C 0.68617 0.58437 0.84414 0.0
C293 C 0.66662 0.54584 0.92237 0.0
H294 H 0.64232 0.54022 0.94062 0.0
H295 H 0.68085 0.52283 0.91605 0.0
H296 H 0.68054 0.56131 0.95266 0.0
O297 O 0.57378 0.58028 0.90815 0.0
O298 O 0.58239 0.62747 0.86306 0.0
H299 H 0.68694 0.64914 0.78153 0.0
H300 H 0.70735 0.61636 0.74556 0.0
C301 C 0.68301 0.62507 0.76053 0.0
H302 H 0.66624 0.62852 0.72412 0.0
H303 H 0.63633 0.67235 0.81623 0.0
O304 O 0.59652 0.50736 0.90346 0.0
C305 C 0.57322 0.6116 0.90651 0.0
Co306 Co 0.53103 0.37915 0.18889 0.0
Co307 Co 0.59928 0.4105 0.22041 0.0
C308 C 0.53402 0.44246 0.25383 0.0
O309 O 0.51847 0.41784 0.23446 0.0
O310 O 0.5654 0.44307 0.25227 0.0
C311 C 0.47075 0.34471 0.14464 0.0
O312 O 0.44599 0.32499 0.15546 0.0
C313 C 0.66045 0.41863 0.28819 0.0
C314 C 0.69273 0.44336 0.22662 0.0
C315 C 0.69215 0.43019 0.2803 0.0
N316 N 0.64302 0.42429 0.2409 0.0
N317 N 0.66247 0.43946 0.20461 0.0
C318 C 0.64747 0.40154 0.33925 0.0
H319 H 0.62197 0.39285 0.33209 0.0
H320 H 0.66363 0.38037 0.35029 0.0
H321 H 0.64789 0.41891 0.37535 0.0
C322 C 0.56794 0.31966 0.20534 0.0
N323 N 0.56456 0.35174 0.21929 0.0
N324 N 0.5937 0.36417 0.23058 0.0
C325 C 0.61659 0.34039 0.22148 0.0
C326 C 0.60095 0.31164 0.20436 0.0
C327 C 0.54129 0.29957 0.17874 0.0
H328 H 0.53455 0.31084 0.13774 0.0
H329 H 0.51948 0.29933 0.20656 0.0
H330 H 0.54914 0.27367 0.17151 0.0
O331 O 0.54656 0.39687 0.11428 0.0
O332 O 0.59611 0.41502 0.13866 0.0
H333 H 0.65585 0.36872 0.18597 0.0
H334 H 0.66556 0.32554 0.19597 0.0
C335 C 0.65242 0.34711 0.214 0.0
H336 H 0.66338 0.35261 0.25557 0.0
H337 H 0.65538 0.44628 0.16401 0.0
O338 O 0.49029 0.35207 0.18444 0.0
C339 C 0.57401 0.41024 0.10156 0.0
Co340 Co 0.40784 0.44844 0.8843 0.0
Co341 Co 0.43208 0.39439 0.80099 0.0
C342 C 0.45114 0.46565 0.7863 0.0
O343 O 0.43005 0.47257 0.82368 0.0
O344 O 0.45578 0.43552 0.77199 0.0
C345 C 0.36371 0.50237 0.91526 0.0
O346 O 0.35186 0.50167 0.86383 0.0
C347 C 0.43206 0.34361 0.7071 0.0
C348 C 0.4564 0.30254 0.75209 0.0
C349 C 0.44053 0.3104 0.70247 0.0
N350 N 0.44167 0.35464 0.75817 0.0
N351 N 0.45702 0.32999 0.78382 0.0
C352 C 0.41509 0.3641 0.66353 0.0
H353 H 0.40895 0.38891 0.68042 0.0
H354 H 0.3927 0.35125 0.64845 0.0
H355 H 0.43157 0.36698 0.62671 0.0
C356 C 0.34888 0.41154 0.87933 0.0
N357 N 0.37876 0.41749 0.85919 0.0
N358 N 0.38465 0.39905 0.81492 0.0
C359 C 0.35588 0.38379 0.80153 0.0
C360 C 0.33228 0.39164 0.84225 0.0
C361 C 0.33637 0.42434 0.93425 0.0
H362 H 0.3225 0.44724 0.92622 0.0
H363 H 0.35697 0.42947 0.96355 0.0
H364 H 0.31932 0.4063 0.95371 0.0
O365 O 0.43717 0.42534 0.93342 0.0
O366 O 0.45294 0.38479 0.87709 0.0
H367 H 0.36833 0.34325 0.74861 0.0
H368 H 0.32502 0.35312 0.74931 0.0
C369 C 0.35018 0.36356 0.75006 0.0
H370 H 0.35334 0.37941 0.71243 0.0
H371 H 0.46692 0.3314 0.82421 0.0
O372 O 0.38593 0.48215 0.93033 0.0
C373 C 0.4526 0.39854 0.92544 0.0
Co374 Co 0.45403 0.60679 0.1401 0.0
Co375 Co 0.39302 0.60253 0.21913 0.0
C376 C 0.4543 0.56126 0.23923 0.0
O377 O 0.46848 0.57817 0.20143 0.0
O378 O 0.42415 0.56679 0.25196 0.0
C379 C 0.51312 0.64242 0.10479 0.0
O380 O 0.50858 0.66318 0.1465 0.0
C381 C 0.33614 0.59369 0.29979 0.0
C382 C 0.29953 0.62404 0.25409 0.0
C383 C 0.30339 0.60372 0.30023 0.0
N384 N 0.35102 0.60783 0.25521 0.0
N385 N 0.32883 0.62589 0.22843 0.0
C386 C 0.3519 0.56882 0.33767 0.0
H387 H 0.37866 0.57356 0.34103 0.0
H388 H 0.34036 0.56937 0.37999 0.0
H389 H 0.34834 0.54384 0.31952 0.0
C390 C 0.42914 0.67198 0.13024 0.0
N391 N 0.43212 0.64456 0.16114 0.0
N392 N 0.41152 0.64554 0.20361 0.0
C393 C 0.39756 0.67608 0.20426 0.0
C394 C 0.40833 0.69356 0.15709 0.0
C395 C 0.44016 0.67509 0.07036 0.0
H396 H 0.44888 0.65121 0.05332 0.0
H397 H 0.4597 0.69378 0.06774 0.0
H398 H 0.41954 0.68416 0.04384 0.0
O399 O 0.42428 0.58327 0.09098 0.0
O400 O 0.37928 0.58543 0.14384 0.0
H401 H 0.35009 0.6922 0.23228 0.0
H402 H 0.38391 0.71308 0.26402 0.0
C403 C 0.37519 0.6886 0.24934 0.0
H404 H 0.37441 0.67111 0.2853 0.0
H405 H 0.33337 0.63843 0.19086 0.0
O406 O 0.49365 0.61836 0.09701 0.0
C407 C 0.39379 0.57812 0.09802 0.0
Co408 Co 0.58648 0.96985 0.40266 0.0
Co409 Co 0.57624 0.90459 0.47048 0.0
C410 C 0.54112 0.9704 0.49908 0.0
O411 O 0.55725 0.98481 0.46081 0.0
O412 O 0.54498 0.93929 0.50764 0.0
C413 C 0.60265 0.03798 0.36915 0.0
O414 O 0.60188 0.04806 0.42164 0.0
C415 C 0.58257 0.84882 0.55734 0.0
C416 C 0.56254 0.80816 0.50584 0.0
C417 C 0.57599 0.81501 0.55778 0.0
N418 N 0.57352 0.86132 0.50678 0.0
N419 N 0.56127 0.83666 0.47689 0.0
C420 C 0.59737 0.86842 0.6041 0.0
H421 H 0.60237 0.89412 0.59031 0.0
H422 H 0.6204 0.85635 0.61862 0.0
H423 H 0.58017 0.86875 0.64029 0.0
C424 C 0.65322 0.94739 0.40318 0.0
N425 N 0.6235 0.94648 0.42739 0.0
N426 N 0.6208 0.91971 0.45867 0.0
C427 C 0.64978 0.90317 0.4564 0.0
C428 C 0.67116 0.92009 0.42048 0.0
C429 C 0.66209 0.97108 0.35697 0.0
H430 H 0.64213 0.97219 0.32544 0.0
H431 H 0.66521 0.99612 0.3751 0.0
H432 H 0.68478 0.96394 0.3344 0.0
O433 O 0.56363 0.94277 0.34853 0.0
O434 O 0.56256 0.89432 0.39135 0.0
H435 H 0.63838 0.85201 0.46583 0.0
H436 H 0.68132 0.86179 0.47729 0.0
C437 C 0.65569 0.87039 0.48355 0.0
H438 H 0.65087 0.87242 0.52926 0.0
H439 H 0.55238 0.83898 0.43591 0.0
O440 O 0.59786 0.00794 0.35725 0.0
C441 C 0.55859 0.91195 0.34751 0.0
Co442 Co 0.95416 0.38502 0.58109 0.0
Co443 Co 0.8861 0.40052 0.52442 0.0
C444 C 0.94937 0.44019 0.50079 0.0
O445 O 0.96688 0.42086 0.53048 0.0
O446 O 0.91844 0.43534 0.49451 0.0
C447 C 0.02139 0.36128 0.61725 0.0
O448 O 0.03142 0.35629 0.56542 0.0
C449 C 0.83216 0.4095 0.43846 0.0
C450 C 0.78922 0.40865 0.49535 0.0
C451 C 0.79806 0.41188 0.43957 0.0
N452 N 0.84297 0.40485 0.49157 0.0
N453 N 0.81702 0.40444 0.52506 0.0
C454 C 0.85387 0.41263 0.38816 0.0
H455 H 0.87998 0.40862 0.39992 0.0
H456 H 0.8464 0.39443 0.35572 0.0
H457 H 0.85079 0.43762 0.3696 0.0
C458 C 0.93222 0.3181 0.56276 0.0
N459 N 0.93058 0.3499 0.54677 0.0
N460 N 0.90133 0.35579 0.52494 0.0
C461 C 0.88326 0.32784 0.5285 0.0
C462 C 0.90211 0.30331 0.5539 0.0
C463 C 0.95912 0.30428 0.59827 0.0
H464 H 0.95774 0.31567 0.64066 0.0
H465 H 0.98303 0.31023 0.57867 0.0
H466 H 0.95711 0.27707 0.6026 0.0
O467 O 0.92701 0.40428 0.64089 0.0
O468 O 0.87759 0.40996 0.60398 0.0
H469 H 0.83492 0.34031 0.55589 0.0
H470 H 0.83784 0.3009 0.5209 0.0
C471 C 0.84685 0.32675 0.52088 0.0
H472 H 0.84 0.3388 0.48061 0.0
H473 H 0.8182 0.40138 0.56862 0.0
O474 O 0.9923 0.37101 0.62682 0.0
C475 C 0.89683 0.41152 0.64583 0.0
Co476 Co 0.40424 0.06241 0.37355 0.0
Co477 Co 0.40206 0.12109 0.45731 0.0
C478 C 0.44067 0.05987 0.48469 0.0
O479 O 0.43148 0.04861 0.43746 0.0
O480 O 0.43082 0.08827 0.5013 0.0
C481 C 0.37532 -0.0002 0.35219 0.0
O482 O 0.36061 0.00383 0.40085 0.0
C483 C 0.41017 0.1757 0.54118 0.0
C484 C 0.37686 0.21309 0.5042 0.0
C485 C 0.39927 0.20807 0.5471 0.0
N486 N 0.39473 0.16209 0.49667 0.0
N487 N 0.37495 0.18473 0.4749 0.0
C488 C 0.43663 0.159 0.57438 0.0
H489 H 0.45896 0.15694 0.54789 0.0
H490 H 0.42876 0.13366 0.58575 0.0
H491 H 0.44266 0.17312 0.61306 0.0
C492 C 0.33638 0.08197 0.36003 0.0
N493 N 0.36415 0.08254 0.39037 0.0
N494 N 0.36062 0.10256 0.4334 0.0
C495 C 0.32868 0.11238 0.43505 0.0
C496 C 0.31247 0.09965 0.38793 0.0
C497 C 0.3344 0.07149 0.29963 0.0
H498 H 0.35729 0.05954 0.28511 0.0
H499 H 0.313 0.05529 0.29288 0.0
H500 H 0.32993 0.09365 0.27315 0.0
O501 O 0.42742 0.09298 0.32668 0.0
O502 O 0.42445 0.13602 0.38494 0.0
H503 H 0.30811 0.15794 0.46432 0.0
H504 H 0.29025 0.12173 0.4943 0.0
C505 C 0.31379 0.13291 0.48065 0.0
H506 H 0.33077 0.13488 0.51708 0.0
H507 H 0.36124 0.18134 0.43824 0.0
O508 O 0.39484 0.02158 0.33329 0.0
C509 C 0.43256 0.1232 0.33772 0.0
Co510 Co 0.0352 0.61451 0.55722 0.0
Co511 Co 0.09957 0.58589 0.51049 0.0
C512 C 0.02817 0.55908 0.4883 0.0
O513 O 0.01467 0.58622 0.50147 0.0
O514 O 0.05952 0.55599 0.49079 0.0
C515 C 0.97186 0.63967 0.60213 0.0
O516 O 0.95906 0.64177 0.55151 0.0
C517 C 0.15789 0.58848 0.43223 0.0
C518 C 0.18214 0.54179 0.45706 0.0
C519 C 0.18605 0.56961 0.42415 0.0
N520 N 0.13833 0.57271 0.46929 0.0
N521 N 0.15292 0.5446 0.48306 0.0
C522 C 0.15043 0.6211 0.4056 0.0
H523 H 0.12491 0.62899 0.41483 0.0
H524 H 0.168 0.63986 0.42122 0.0
H525 H 0.15393 0.61925 0.35938 0.0
C526 C 0.06632 0.67675 0.54334 0.0
N527 N 0.06429 0.64513 0.52676 0.0
N528 N 0.09387 0.63347 0.5163 0.0
C529 C 0.11592 0.65695 0.53113 0.0
C530 C 0.09906 0.68516 0.54844 0.0
C531 C 0.03825 0.69571 0.5678 0.0
H532 H 0.03754 0.69126 0.61382 0.0
H533 H 0.01476 0.68773 0.54853 0.0
H534 H 0.0417 0.72259 0.56086 0.0
O535 O 0.05914 0.58763 0.61427 0.0
O536 O 0.1089 0.57241 0.58669 0.0
H537 H 0.15708 0.62347 0.53729 0.0
H538 H 0.1573 0.65709 0.5872 0.0
C539 C 0.15132 0.64998 0.54325 0.0
H540 H 0.16683 0.66523 0.5151 0.0
H541 H 0.14347 0.52784 0.51218 0.0
O542 O 0.00202 0.63269 0.60806 0.0
C543 C 0.08681 0.57417 0.62397 0.0
C544 C 0.11663 0.25786 0.11545 0.0
C545 C 0.09281 0.26702 0.07461 0.0
C546 C 0.05782 0.22076 0.10372 0.0
C547 C 0.08064 0.21285 0.14691 0.0
N548 N 0.12944 0.22632 0.19968 0.0
N549 N 0.03878 0.26076 0.03469 0.0
C550 C 0.10947 0.23205 0.15434 0.0
C551 C 0.06279 0.2495 0.07023 0.0
N552 N 0.14641 0.27337 0.11616 0.0
N553 N 0.03193 0.20015 0.09369 0.0
H554 H 0.04171 0.28156 0.00926 0.0
H555 H 0.01506 0.25128 0.03363 0.0
H556 H 0.02764 0.17888 0.11737 0.0
H557 H 0.01627 0.20245 0.05923 0.0
H558 H 0.16633 0.2653 0.14006 0.0
H559 H 0.15193 0.29335 0.09012 0.0
H560 H 0.14871 0.24173 0.21123 0.0
H561 H 0.12541 0.20726 0.22836 0.0
C562 C 0.23032 0.94711 0.83829 0.0
C563 C 0.2179 0.91567 0.82294 0.0
C564 C 0.2578 0.88911 0.88641 0.0
C565 C 0.27186 0.9204 0.898 0.0
N566 N 0.27582 0.97839 0.87663 0.0
N567 N 0.22375 0.85639 0.82407 0.0
C568 C 0.25938 0.94917 0.87136 0.0
C569 C 0.23273 0.88651 0.8447 0.0
N570 N 0.21364 0.97506 0.82294 0.0
N571 N 0.26751 0.86205 0.91663 0.0
H572 H 0.20566 0.85356 0.79345 0.0
H573 H 0.2361 0.83455 0.83376 0.0
H574 H 0.28609 0.86287 0.94686 0.0
H575 H 0.25554 0.83939 0.91472 0.0
H576 H 0.21954 0.99849 0.83779 0.0
H577 H 0.19192 0.97455 0.79961 0.0
H578 H 0.26989 0.99949 0.85366 0.0
H579 H 0.29747 0.98066 0.89986 0.0
C580 C 0.93212 0.7465 0.16216 0.0
C581 C 0.90706 0.76924 0.14657 0.0
C582 C 0.89423 0.73572 0.06328 0.0
C583 C 0.92065 0.71414 0.07682 0.0
N584 N 0.96741 0.70077 0.13474 0.0
N585 N 0.86777 0.78878 0.07841 0.0
C586 C 0.94038 0.72006 0.12506 0.0
C587 C 0.88911 0.76474 0.09596 0.0
N588 N 0.9472 0.7495 0.21337 0.0
N589 N 0.87359 0.72806 0.01976 0.0
H590 H 0.86363 0.81041 0.10122 0.0
H591 H 0.85638 0.78882 0.03915 0.0
H592 H 0.87687 0.70739 0.99428 0.0
H593 H 0.85176 0.74062 0.01153 0.0
H594 H 0.96282 0.73168 0.23028 0.0
H595 H 0.94253 0.76902 0.24086 0.0
H596 H 0.98505 0.70603 0.16517 0.0
H597 H 0.97332 0.68037 0.10989 0.0
C598 C 0.75781 0.05406 0.85587 0.0
C599 C 0.77771 0.08277 0.85577 0.0
C600 C 0.74157 0.10768 0.92706 0.0
C601 C 0.71953 0.08069 0.92159 0.0
N602 N 0.7041 0.0307 0.87342 0.0
N603 N 0.78611 0.13903 0.88548 0.0
C604 C 0.727 0.05452 0.88401 0.0
C605 C 0.76903 0.11016 0.88999 0.0
N606 N 0.76878 0.02602 0.8299 0.0
N607 N 0.73701 0.13033 0.96893 0.0
H608 H 0.80652 0.14168 0.85944 0.0
H609 H 0.7786 0.16098 0.90436 0.0
H610 H 0.71747 0.12916 -0.00284 0.0
H611 H 0.75408 0.14854 0.97873 0.0
H612 H 0.75691 0.00334 0.83303 0.0
H613 H 0.79159 0.02461 0.81007 0.0
H614 H 0.70676 0.01298 0.84199 0.0
H615 H 0.68096 0.03057 0.89222 0.0
C616 C 0.56685 0.75123 0.67555 0.0
C617 C 0.5958 0.7322 0.66713 0.0
C618 C 0.6144 0.77177 0.59543 0.0
C619 C 0.58427 0.78923 0.6004 0.0
N620 N 0.53041 0.79445 0.64111 0.0
N621 N 0.64515 0.72149 0.61448 0.0
C622 C 0.56011 0.77867 0.63948 0.0
C623 C 0.61908 0.74177 0.62587 0.0
N624 N 0.54628 0.74362 0.71908 0.0
N625 N 0.63875 0.78418 0.56206 0.0
H626 H 0.64928 0.69934 0.63583 0.0
H627 H 0.66115 0.72505 0.58092 0.0
H628 H 0.63601 0.80583 0.53875 0.0
H629 H 0.66253 0.77473 0.56096 0.0
H630 H 0.52681 0.75856 0.73171 0.0
H631 H 0.54988 0.7232 0.7452 0.0
H632 H 0.51024 0.78572 0.66343 0.0
H633 H 0.52534 0.81561 0.61753 0.0
C634 C 0.76544 0.39183 0.35635 0.0
C635 C 0.77445 0.41795 0.39296 0.0
C636 C 0.72914 0.45193 0.35638 0.0
C637 C 0.72095 0.42633 0.31824 0.0
N638 N 0.7353 0.37495 0.27313 0.0
N639 N 0.76973 0.47505 0.41998 0.0
C640 C 0.74039 0.3972 0.31546 0.0
C641 C 0.75774 0.44871 0.39051 0.0
N642 N 0.77972 0.36144 0.36236 0.0
N643 N 0.70908 0.47891 0.36105 0.0
H644 H 0.7909 0.47356 0.44469 0.0
H645 H 0.76064 0.49898 0.41594 0.0
H646 H 0.68835 0.48242 0.33584 0.0
H647 H 0.71157 0.49665 0.39244 0.0
H648 H 0.77142 0.34039 0.34167 0.0
H649 H 0.7985 0.35665 0.39115 0.0
H650 H 0.75079 0.35498 0.26537 0.0
H651 H 0.7172 0.37804 0.24248 0.0
C652 C 0.43453 0.25732 0.56976 0.0
C653 C 0.41068 0.23385 0.5871 0.0
C654 C 0.40336 0.26356 0.67619 0.0
C655 C 0.42891 0.28563 0.66073 0.0
N656 N 0.4714 0.30186 0.59614 0.0
N657 N 0.37535 0.21171 0.65894 0.0
C658 C 0.44511 0.28217 0.60824 0.0
C659 C 0.39596 0.23615 0.64098 0.0
N660 N 0.44681 0.25599 0.51626 0.0
N661 N 0.38543 0.26943 0.72382 0.0
H662 H 0.36868 0.19171 0.6338 0.0
H663 H 0.3668 0.20978 0.70008 0.0
H664 H 0.39026 0.28893 0.75115 0.0
H665 H 0.36411 0.25668 0.73412 0.0
H666 H 0.46119 0.27447 0.49853 0.0
H667 H 0.44115 0.2371 0.48808 0.0
H668 H 0.48674 0.2983 0.56167 0.0
H669 H 0.47925 0.32074 0.62274 0.0
C670 C 0.2675 0.61029 0.38538 0.0
C671 C 0.27581 0.59237 0.33613 0.0
C672 C 0.22415 0.56147 0.34232 0.0
C673 C 0.2165 0.57827 0.39304 0.0
N674 N 0.23336 0.61416 0.46874 0.0
N675 N 0.2655 0.54712 0.27289 0.0
C676 C 0.23888 0.60145 0.41628 0.0
C677 C 0.25517 0.56673 0.31627 0.0
N678 N 0.28653 0.63634 0.40173 0.0
N679 N 0.20121 0.54142 0.31796 0.0
H680 H 0.28799 0.55043 0.25273 0.0
H681 H 0.25324 0.5259 0.26002 0.0
H682 H 0.17823 0.53706 0.33579 0.0
H683 H 0.20375 0.53122 0.27799 0.0
H684 H 0.2797 0.65302 0.43296 0.0
H685 H 0.30847 0.64249 0.3817 0.0
H686 H 0.2504 0.62836 0.4906 0.0
H687 H 0.21269 0.60842 0.49261 0.0
C688 C 0.23611 0.06267 0.33001 0.0
C689 C 0.21641 0.09001 0.31465 0.0
C690 C 0.26237 0.12601 0.34228 0.0
C691 C 0.27714 0.09894 0.37117 0.0
N692 N 0.2744 0.04152 0.39823 0.0
N693 N 0.22486 0.14147 0.26736 0.0
C694 C 0.26263 0.06735 0.36715 0.0
C695 C 0.23284 0.12077 0.31042 0.0
N696 N 0.23096 0.03262 0.30572 0.0
N697 N 0.27696 0.15626 0.34375 0.0
H698 H 0.20958 0.13349 0.2349 0.0
H699 H 0.23723 0.16336 0.25872 0.0
H700 H 0.29935 0.16029 0.36392 0.0
H701 H 0.26575 0.17756 0.32822 0.0
H702 H 0.24627 0.01236 0.31293 0.0
H703 H 0.21367 0.02939 0.27369 0.0
H704 H 0.26292 0.01852 0.39881 0.0
H705 H 0.29349 0.04416 0.42727 0.0
C706 C 0.11144 0.73798 0.67922 0.0
C707 C 0.11081 0.76943 0.65349 0.0
C708 C 0.11758 0.7434 0.56075 0.0
C709 C 0.11099 0.71238 0.58543 0.0
N710 N 0.1021 0.67924 0.66842 0.0
N711 N 0.11354 0.80286 0.56942 0.0
C712 C 0.10884 0.70927 0.64498 0.0
C713 C 0.11481 0.77243 0.59417 0.0
N714 N 0.1136 0.73585 0.73649 0.0
N715 N 0.1257 0.74498 0.50505 0.0
H716 H 0.11211 0.82467 0.59248 0.0
H717 H 0.11212 0.80651 0.5261 0.0
H718 H 0.12763 0.72388 0.48003 0.0
H719 H 0.13346 0.76649 0.48517 0.0
H720 H 0.1167 0.71371 0.75816 0.0
H721 H 0.11538 0.75679 0.76193 0.0
H722 H 0.09635 0.67586 0.71071 0.0
H723 H 0.10041 0.65771 0.64463 0.0
C724 C 0.74511 0.87514 0.35412 0.0
C725 C 0.76705 0.90211 0.3488 0.0
C726 C 0.72884 0.9368 0.4007 0.0
C727 C 0.70483 0.9116 0.39984 0.0
N728 N 0.68783 0.85952 0.35914 0.0
N729 N 0.77324 0.96129 0.34849 0.0
C730 C 0.71214 0.88142 0.37163 0.0
C731 C 0.75639 0.93392 0.36527 0.0
N732 N 0.75577 0.84367 0.34503 0.0
N733 N 0.7257 0.96331 0.43579 0.0
H734 H 0.79328 0.9598 0.32122 0.0
H735 H 0.76514 0.9852 0.35722 0.0
H736 H 0.70653 0.96549 0.46467 0.0
H737 H 0.74405 0.98105 0.44015 0.0
H738 H 0.74124 0.82309 0.35341 0.0
H739 H 0.77988 0.83825 0.33363 0.0
H740 H 0.69193 0.83846 0.33491 0.0
H741 H 0.66317 0.86426 0.36774 0.0
C742 C 0.89013 0.24277 0.56253 0.0
C743 C 0.89036 0.27449 0.5873 0.0
C744 C 0.89026 0.24992 0.68183 0.0
C745 C 0.89279 0.21829 0.65705 0.0
N746 N 0.88466 0.18356 0.57599 0.0
N747 N 0.87997 0.30849 0.66849 0.0
C748 C 0.88894 0.21442 0.59793 0.0
C749 C 0.88656 0.27806 0.64645 0.0
N750 N 0.8929 0.23986 0.50544 0.0
N751 N 0.89334 0.25312 0.73884 0.0
H752 H 0.87724 0.32946 0.64338 0.0
H753 H 0.8743 0.31249 0.71066 0.0
H754 H 0.89473 0.23277 0.76574 0.0
H755 H 0.8959 0.2757 0.75924 0.0
H756 H 0.897 0.21756 0.48485 0.0
H757 H 0.89231 0.2603 0.47866 0.0
H758 H 0.87927 0.17909 0.53383 0.0
H759 H 0.88358 0.1625 0.60122 0.0
C760 C 0.27739 0.36233 0.85165 0.0
C761 C 0.29578 0.39119 0.84011 0.0
C762 C 0.2512 0.42499 0.87535 0.0
C763 C 0.23083 0.39691 0.88101 0.0
N764 N 0.22248 0.33964 0.85554 0.0
N765 N 0.294 0.44944 0.81941 0.0
C766 C 0.24319 0.36558 0.86365 0.0
C767 C 0.28014 0.42228 0.84355 0.0
N768 N 0.29241 0.33223 0.85285 0.0
N769 N 0.24387 0.45388 0.90219 0.0
H770 H 0.31532 0.44782 0.79517 0.0
H771 H 0.28241 0.47245 0.81913 0.0
H772 H 0.22422 0.45609 0.93007 0.0
H773 H 0.25953 0.47421 0.90145 0.0
H774 H 0.28042 0.3109 0.86617 0.0
H775 H 0.31733 0.32924 0.84399 0.0
H776 H 0.23039 0.31707 0.83932 0.0
H777 H 0.19706 0.34206 0.85853 0.0
C778 C 0.37668 0.76691 0.07221 0.0
C779 C 0.40528 0.78679 0.07299 0.0
C780 C 0.43331 0.74638 0.13134 0.0
C781 C 0.40394 0.7283 0.13805 0.0
N782 N 0.34744 0.71979 0.11129 0.0
N783 N 0.46358 0.77861 0.0643 0.0
C784 C 0.37532 0.73825 0.10777 0.0
C785 C 0.43463 0.7711 0.09006 0.0
N786 N 0.35492 0.7707 0.02918 0.0
N787 N 0.46031 0.73944 0.16346 0.0
H788 H 0.4646 0.79515 0.03057 0.0
H789 H 0.48539 0.76596 0.0728 0.0
H790 H 0.45999 0.72177 0.19547 0.0
H791 H 0.48167 0.75358 0.16153 0.0
H792 H 0.33453 0.75568 0.023 0.0
H793 H 0.36071 0.78553 0.99473 0.0
H794 H 0.32494 0.72746 0.09486 0.0
H795 H 0.34647 0.6977 0.13374 0.0
C796 C 0.76553 0.55831 0.91015 0.0
C797 C 0.78189 0.58823 0.92155 0.0
C798 C 0.73142 0.61742 0.89306 0.0
C799 C 0.7204 0.58793 0.86603 0.0
N800 N 0.73129 0.5308 0.84275 0.0
N801 N 0.76939 0.64095 0.96105 0.0
C802 C 0.73873 0.55848 0.87293 0.0
C803 C 0.76233 0.61721 0.92253 0.0
N804 N 0.77575 0.52973 0.93513 0.0
N805 N 0.71185 0.64481 0.89311 0.0
H806 H 0.78539 0.63576 0.99413 0.0
H807 H 0.75599 0.66262 0.9664 0.0
H808 H 0.6876 0.64447 0.8791 0.0
H809 H 0.71982 0.66802 0.90589 0.0
H810 H 0.76316 0.50749 0.93048 0.0
H811 H 0.79476 0.52953 0.96472 0.0
H812 H 0.74584 0.50956 0.84412 0.0
H813 H 0.71271 0.53033 0.81244 0.0
C814 C 0.62257 0.26032 0.07514 0.0
C815 C 0.61891 0.22851 0.0987 0.0
C816 C 0.61854 0.25293 0.19343 0.0
C817 C 0.61481 0.28452 0.16902 0.0
N818 N 0.61315 0.31906 0.08605 0.0
N819 N 0.6126 0.19396 0.18101 0.0
C820 C 0.61756 0.28859 0.10968 0.0
C821 C 0.61754 0.22453 0.15826 0.0
N822 N 0.62981 0.26326 0.01925 0.0
N823 N 0.62214 0.2502 0.25042 0.0
H824 H 0.61187 0.17253 0.15692 0.0
H825 H 0.60725 0.19 0.22332 0.0
H826 H 0.62269 0.27083 0.27674 0.0
H827 H 0.62771 0.22808 0.27073 0.0
H828 H 0.63532 0.28563 -0.00013 0.0
H829 H 0.63336 0.24264 0.99355 0.0
H830 H 0.61063 0.32294 0.04293 0.0
H831 H 0.61018 0.34049 0.10976 0.0
C832 C 0.00144 0.99521 0.2138 0.0
C833 C 0.01035 0.01602 0.25959 0.0
C834 C 0.97662 0.9825 0.32202 0.0
C835 C 0.9638 0.96408 0.27583 0.0
N836 N 0.96133 0.95672 0.17511 0.0
N837 N -0.00205 0.03489 0.35332 0.0
C838 C 0.97542 0.97148 0.22068 0.0
C839 C 0.99457 0.01171 0.31198 0.0
N840 N 0.01815 0.99778 0.16432 0.0
N841 N 0.9736 0.9709 0.37587 0.0
H842 H 0.0111 0.05668 0.34741 0.0
H843 H 0.98483 0.03396 0.39096 0.0
H844 H 0.96499 0.94725 0.38495 0.0
H845 H 0.98348 0.98289 0.41075 0.0
H846 H 0.01529 0.98122 0.13115 0.0
H847 H 0.03605 0.01582 0.15799 0.0
H848 H 0.96678 0.96332 0.13379 0.0
H849 H 0.94243 0.93956 0.17882 0.0
C850 C 0.02257 0.98773 0.70445 0.0
C851 C 0.01746 0.96259 0.74501 0.0
C852 C 0.97577 0.99837 0.79068 0.0
C853 C 0.97839 0.02158 0.74586 0.0
N854 N 0.99659 0.03028 0.64979 0.0
N855 N 0.98632 0.94221 0.8236 0.0
C856 C -0.00024 0.01407 0.70002 0.0
C857 C 0.99308 0.96735 0.7872 0.0
N858 N 0.04891 0.98646 0.66886 0.0
N859 N 0.95769 0.00624 0.8371 0.0
H860 H -0.00048 0.92007 0.82342 0.0
H861 H 0.96663 0.94262 0.85151 0.0
H862 H 0.9451 0.02859 0.84086 0.0
H863 H 0.95725 0.99181 0.87339 0.0
H864 H 0.05543 0.00618 0.64296 0.0
H865 H 0.06593 0.96724 0.66845 0.0
H866 H 0.00948 0.02355 0.61366 0.0
H867 H 0.97792 0.04717 0.64168 0.0
C868 C 0.01179 0.4618 0.93234 0.0
C869 C 0.03095 0.46074 0.98202 0.0
C870 C -0.00135 0.50789 0.0187 0.0
C871 C 0.98336 0.51169 0.96517 0.0
N872 N 0.98547 0.49813 0.86594 0.0
N873 N 0.04496 0.48495 0.07117 0.0
C874 C 0.99285 0.49025 0.92055 0.0
C875 C 0.02501 0.48446 0.02501 0.0
N876 N 0.0126 0.43615 0.89506 0.0
N877 N 0.9877 0.52585 0.06346 0.0
H878 H 0.06317 0.46713 0.07761 0.0
H879 H 0.0443 0.50365 0.10123 0.0
H880 H 0.96871 0.54307 0.05995 0.0
H881 H 0.99588 0.52195 0.10451 0.0
H882 H -0.00288 0.43486 0.86012 0.0
H883 H 0.02584 0.41455 0.90262 0.0
H884 H 0.99369 0.48434 0.83171 0.0
H885 H 0.97484 0.52063 0.85443 0.0
C886 C 0.48932 0.99754 0.95911 0.0
C887 C 0.46159 0.99577 0.99527 0.0
C888 C 0.47956 0.04633 0.04235 0.0
C889 C 0.50641 0.04976 0.00398 0.0
N890 N 0.53217 0.03167 0.91797 0.0
N891 N 0.42542 0.0242 0.05934 0.0
C892 C 0.50989 0.02626 0.95983 0.0
C893 C 0.45489 0.02238 0.03206 0.0
N894 N 0.49636 0.97137 0.925 0.0
N895 N 0.47883 0.06367 0.09179 0.0
H896 H 0.40676 0.00698 0.05378 0.0
H897 H 0.4182 0.04481 0.08255 0.0
H898 H 0.49743 0.07934 0.1052 0.0
H899 H 0.46168 0.05926 0.12342 0.0
H900 H 0.51815 0.96921 0.90238 0.0
H901 H 0.48071 0.95109 0.92149 0.0
H902 H 0.53384 0.01699 0.88211 0.0
H903 H 0.54693 0.05266 0.91663 0.0
C904 C 0.49206 0.49104 0.71564 0.0
C905 C 0.47315 0.49338 0.76613 0.0
C906 C 0.49401 0.54995 0.77655 0.0
C907 C 0.5197 0.54334 0.73879 0.0
N908 N 0.54307 0.50707 0.66989 0.0
N909 N 0.46715 0.52436 0.8543 0.0
C910 C 0.51842 0.51382 0.70689 0.0
C911 C 0.47639 0.52296 0.799 0.0
N912 N 0.48476 0.46795 0.67581 0.0
N913 N 0.48953 0.58114 0.79671 0.0
H914 H 0.46221 0.50359 0.87863 0.0
H915 H 0.47056 0.54536 0.879 0.0
H916 H 0.50319 0.60105 0.78164 0.0
H917 H 0.47005 0.58728 0.82325 0.0
H918 H 0.49683 0.46678 0.63719 0.0
H919 H 0.46411 0.45289 0.67826 0.0
H920 H 0.54555 0.48435 0.64973 0.0
H921 H 0.56167 0.52415 0.66179 0.0
C922 C 0.47755 0.50946 0.20132 0.0
C923 C 0.47026 0.52841 0.24989 0.0
C924 C 0.50453 0.48986 0.30567 0.0
C925 C 0.51502 0.47422 0.25513 0.0
N926 N 0.51846 0.47694 0.15382 0.0
N927 N 0.47869 0.53827 0.34857 0.0
C928 C 0.50358 0.48642 0.20272 0.0
C929 C 0.48419 0.51902 0.30247 0.0
N930 N 0.4592 0.51331 0.1535 0.0
N931 N 0.51373 0.47679 0.35622 0.0
H932 H 0.46324 0.55887 0.34707 0.0
H933 H 0.49053 0.53473 0.387 0.0
H934 H 0.52926 0.4563 0.35908 0.0
H935 H 0.50465 0.48512 0.39465 0.0
H936 H 0.46219 0.49858 0.1179 0.0
H937 H 0.43858 0.52862 0.15195 0.0
H938 H 0.51338 0.48811 0.11521 0.0
H939 H 0.53831 0.46071 0.15284 0.0
C940 C 0.48242 0.98069 0.53108 0.0
C941 C 0.5154 0.9914 0.52764 0.0
C942 C 0.49641 0.04946 0.5298 0.0
C943 C 0.46404 0.03844 0.51774 0.0
N944 N 0.42464 0.99431 0.51809 0.0
N945 N 0.55406 0.03473 0.54491 0.0
C946 C 0.45655 0.00422 0.52318 0.0
C947 C 0.5223 0.02559 0.53484 0.0
N948 N 0.47595 0.94837 0.54277 0.0
N949 N 0.50252 0.08253 0.53376 0.0
H950 H 0.57251 0.01718 0.55166 0.0
H951 H 0.56221 0.0589 0.54869 0.0
H952 H 0.484 0.10024 0.53243 0.0
H953 H 0.52552 0.0928 0.54055 0.0
H954 H 0.45246 0.93905 0.54907 0.0
H955 H 0.49445 0.93159 0.55299 0.0
H956 H 0.41743 0.9698 0.51398 0.0
H957 H 0.40522 0.01118 0.51664 0.0
C958 C 0.95899 0.49914 0.52521 0.0
C959 C 0.96437 0.47284 0.48698 0.0
C960 C 0.00898 0.50508 0.44294 0.0
C961 C 0.00644 0.5291 0.48635 0.0
N962 N 0.98433 0.54277 0.57835 0.0
N963 N 0.99613 0.44929 0.41173 0.0
C964 C 0.98267 0.52464 0.5298 0.0
C965 C 0.98985 0.47544 0.44633 0.0
N966 N 0.93178 0.49938 0.55888 0.0
N967 N 0.02901 0.51086 0.398 0.0
H968 H 0.98145 0.4282 0.41134 0.0
H969 H 0.01661 0.44788 0.38562 0.0
H970 H 0.04304 0.53227 0.39431 0.0
H971 H 0.02969 0.49584 0.36246 0.0
H972 H 0.92498 0.51978 0.58297 0.0
H973 H 0.91421 0.48075 0.55871 0.0
H974 H 0.96971 0.53811 0.61341 0.0
H975 H 0.00301 0.55948 0.58706 0.0
C976 C 0.11478 0.90887 0.49873 0.0
C977 C 0.08715 0.91836 0.53162 0.0
C978 C 0.06911 0.95661 0.45855 0.0
C979 C 0.09648 0.94726 0.42523 0.0
N980 N 0.14371 0.91294 0.40908 0.0
N981 N 0.03808 0.9518 0.54362 0.0
C982 C 0.11891 0.92284 0.44402 0.0
C983 C 0.06428 0.94205 0.51149 0.0
N984 N 0.13711 0.88694 0.52027 0.0
N985 N 0.04717 0.98005 0.44135 0.0
H986 H 0.03356 0.94308 0.58412 0.0
H987 H 0.02089 0.96922 0.52987 0.0
H988 H 0.0481 0.99241 0.40284 0.0
H989 H 0.0481 0.99241 0.40284 0.0
H990 H 0.15911 0.88061 0.50088 0.0
H991 H 0.13434 0.87575 0.55947 0.0
H992 H 0.15992 0.89374 0.4178 0.0
H993 H 0.14709 0.92304 0.36907 0.0
C994 C 0.91885 0.84086 0.56391 0.0
C995 C 0.95001 0.82566 0.56998 0.0
C996 C 0.95738 0.82518 0.46763 0.0
C997 C 0.92772 0.84296 0.4621 0.0
N998 N 0.87431 0.85493 0.50024 0.0
N999 N 0.98977 0.78946 0.52806 0.0
C1000 C 0.90632 0.84615 0.50888 0.0
C1001 C 0.96638 0.81325 0.52174 0.0
N1002 N 0.90233 0.8524 0.60988 0.0
N1003 N 0.97752 0.82109 0.42233 0.0
H1004 H 0.99336 0.77801 0.56692 0.0
H1005 H 0.00164 0.77813 0.49436 0.0
H1006 H 0.97096 0.82893 0.38199 0.0
H1007 H 0.00117 0.81135 0.42555 0.0
H1008 H 0.88157 0.8674 0.607 0.0
H1009 H 0.91022 0.84832 0.65102 0.0
H1010 H 0.85681 0.85544 0.53217 0.0
H1011 H 0.86472 0.85822 0.45982 0.0
C1012 C 0.89244 0.06753 0.5095 0.0
C1013 C 0.89216 0.05601 0.56581 0.0
C1014 C 0.86626 0.00506 0.53646 0.0
C1015 C 0.87039 0.01411 0.47923 0.0
N1016 N 0.89271 0.05255 0.411 0.0
N1017 N 0.88348 0.01122 0.63201 0.0
C1018 C 0.88454 0.0452 0.46539 0.0
C1019 C 0.88051 0.02409 0.57892 0.0
N1020 N 0.89972 0.09978 0.49829 0.0
N1021 N 0.84909 0.97789 0.55219 0.0
H1022 H 0.89645 0.02271 0.66435 0.0
H1023 H 0.87497 0.98771 0.64247 0.0
H1024 H 0.83584 0.96332 0.52428 0.0
H1025 H 0.83584 0.96332 0.52428 0.0
H1026 H 0.89686 0.11041 0.45863 0.0
H1027 H 0.90597 0.11662 0.52972 0.0
H1028 H 0.90663 0.07309 0.39994 0.0
H1029 H 0.888 0.03697 0.37714 0.0
C1030 C 0.0321 0.14381 0.51975 0.0
C1031 C 0.04545 0.12801 0.56779 0.0
C1032 C 0.08298 0.09796 0.50603 0.0
C1033 C 0.06359 0.10719 0.45867 0.0
N1034 N 0.01575 0.13629 0.42308 0.0
N1035 N 0.08273 0.08685 0.60581 0.0
C1036 C 0.03725 0.12979 0.4659 0.0
C1037 C 0.07103 0.10448 0.561 0.0
N1038 N 0.01448 0.17222 0.52587 0.0
N1039 N 0.1132 0.08392 0.49869 0.0
H1040 H 0.07502 0.09056 0.64705 0.0
H1041 H 0.09856 0.06675 0.60115 0.0
H1042 H 0.12383 0.08105 0.45909 0.0
H1043 H 0.12922 0.07914 0.53202 0.0
H1044 H 0.00576 0.18597 0.49182 0.0
H1045 H 0.01275 0.18398 0.56478 0.0
H1046 H 0.99462 0.15051 0.42862 0.0
H1047 H 0.01679 0.1246 0.38408 0.0
C1048 C 0.11329 0.57061 0.71885 0.0
C1049 C 0.09157 0.55735 0.67801 0.0
C1050 C 0.07247 0.51564 0.74439 0.0
C1051 C 0.09488 0.52824 0.78487 0.0
N1052 N 0.13967 0.56403 0.80998 0.0
N1053 N 0.05573 0.51381 0.64654 0.0
C1054 C 0.11623 0.5547 0.77193 0.0
C1055 C 0.0725 0.52895 0.68933 0.0
N1056 N 0.1304 0.59879 0.70723 0.0
N1057 N 0.05121 0.49086 0.75857 0.0
H1058 H 0.0558 0.52249 0.60518 0.0
H1059 H 0.04417 0.49104 0.65039 0.0
H1060 H 0.05169 0.47872 0.79724 0.0
H1061 H 0.03159 0.48356 0.7334 0.0
H1062 H 0.14353 0.61206 0.73721 0.0
H1063 H 0.13028 0.60991 0.66765 0.0
H1064 H 0.15836 0.58069 0.80105 0.0
H1065 H 0.14157 0.55362 0.85007 0.0
C1066 C 0.56138 0.90299 0.18977 0.0
C1067 C 0.53859 0.87743 0.18093 0.0
C1068 C 0.53193 0.87005 0.2821 0.0
C1069 C 0.55411 0.89644 0.29141 0.0
N1070 N 0.60112 0.92575 0.25411 0.0
N1071 N 0.51642 0.82692 0.21674 0.0
C1072 C 0.57249 0.90911 0.24517 0.0
C1073 C 0.52855 0.85764 0.22663 0.0
N1074 N 0.57146 0.92209 0.14576 0.0
N1075 N 0.51278 0.85806 0.3245 0.0
H1076 H 0.5177 0.81657 0.1766 0.0
H1077 H 0.51008 0.81058 0.24884 0.0
H1078 H 0.51299 0.86763 0.36516 0.0
H1079 H 0.4944 0.84065 0.31759 0.0
H1080 H 0.58515 0.94357 0.15114 0.0
H1081 H 0.5647 0.91698 0.10424 0.0
H1082 H 0.61622 0.93379 0.22149 0.0
H1083 H 0.61181 0.92734 0.29392 0.0
C1084 C 0.84854 0.45387 0.76265 0.0
C1085 C 0.86936 0.44721 0.80859 0.0
C1086 C 0.89795 0.40647 0.75126 0.0
C1087 C 0.88415 0.42119 0.70201 0.0
N1088 N 0.84788 0.46347 0.66298 0.0
N1089 N 0.91439 0.41589 0.84779 0.0
C1090 C 0.8593 0.44574 0.70794 0.0
C1091 C 0.89386 0.42259 0.80374 0.0
N1092 N 0.81896 0.46866 0.7716 0.0
N1093 N 0.91428 0.37702 0.74828 0.0
H1094 H 0.91135 0.42635 0.88751 0.0
H1095 H 0.93528 0.40112 0.84382 0.0
H1096 H 0.91592 0.36332 0.71125 0.0
H1097 H 0.92263 0.36442 0.78384 0.0
H1098 H 0.8019 0.47277 0.73953 0.0
H1099 H 0.81016 0.47208 0.8124 0.0
H1100 H 0.83158 0.48319 0.66753 0.0
H1101 H 0.85737 0.46164 0.62248 0.0
C1102 C 0.48332 0.17662 0.23894 0.0
C1103 C 0.46521 0.17166 0.18851 0.0
C1104 C 0.42138 0.1455 0.24233 0.0
C1105 C 0.44229 0.14451 0.29012 0.0
N1106 N 0.49322 0.15897 0.33525 0.0
N1107 N 0.41756 0.14976 0.14098 0.0
C1108 C 0.47315 0.16045 0.28918 0.0
C1109 C 0.43416 0.15601 0.18989 0.0
N1110 N 0.50969 0.19738 0.23896 0.0
N1111 N 0.38906 0.137 0.2476 0.0
H1112 H 0.4259 0.15736 0.10157 0.0
H1113 H 0.39675 0.13489 0.13903 0.0
H1114 H 0.37873 0.13048 0.28621 0.0
H1115 H 0.37185 0.13995 0.21548 0.0
H1116 H 0.52213 0.20439 0.27534 0.0
H1117 H 0.51701 0.21022 0.20312 0.0
H1118 H 0.51751 0.16693 0.33506 0.0
H1119 H 0.4861 0.14795 0.37301 0.0
C1120 C 0.61234 0.45984 0.98437 0.0
C1121 C 0.59251 0.45258 0.9375 0.0
C1122 C 0.56647 0.40941 0.99451 0.0
C1123 C 0.57995 0.42392 0.04412 0.0
N1124 N 0.60827 0.47206 0.08223 0.0
N1125 N 0.54745 0.42032 0.89958 0.0
C1126 C 0.60097 0.45168 0.03818 0.0
C1127 C 0.5687 0.42705 0.9425 0.0
N1128 N 0.64195 0.47474 0.97746 0.0
N1129 N 0.55274 0.37873 0.99611 0.0
H1130 H 0.54768 0.43267 0.8612 0.0
H1131 H 0.52793 0.40392 0.90396 0.0
H1132 H 0.55267 0.36408 0.03217 0.0
H1133 H 0.54485 0.36647 0.95998 0.0
H1134 H 0.65778 0.47946 0.0111 0.0
H1135 H 0.65186 0.47772 0.93734 0.0
H1136 H 0.62255 0.49321 0.07712 0.0
H1137 H 0.59635 0.47095 0.12096 0.0
C1138 C 0.46352 0.34789 0.98712 0.0
C1139 C 0.46705 0.38236 0.9762 0.0
C1140 C 0.47639 0.39198 0.0765 0.0
C1141 C 0.47494 0.35762 0.0868 0.0
N1142 N 0.47831 0.30255 0.04873 0.0
N1143 N 0.48959 0.43415 0.00861 0.0
C1144 C 0.47265 0.33548 0.04085 0.0
C1145 C 0.47807 0.40328 0.02027 0.0
N1146 N 0.44852 0.32729 0.94959 0.0
N1147 N 0.47339 0.41412 0.11944 0.0
H1148 H 0.4923 0.4428 0.96747 0.0
H1149 H 0.5 0.44922 0.03935 0.0
H1150 H 0.47054 0.40723 0.16138 0.0
H1151 H 0.47004 0.43925 0.11208 0.0
H1152 H 0.44281 0.30285 0.95921 0.0
H1153 H 0.43825 0.33484 0.91171 0.0
H1154 H 0.47976 0.28585 0.01542 0.0
H1155 H 0.48499 0.2927 0.08772 0.0
C1156 C 0.37413 0.55955 0.94763 0.0
C1157 C 0.3565 0.52979 0.95384 0.0
C1158 C 0.35518 0.53626 0.05562 0.0
C1159 C 0.37502 0.56482 0.05002 0.0
N1160 N 0.39103 0.6107 0.99144 0.0
N1161 N 0.31724 0.49965 0.00808 0.0
C1162 C 0.38026 0.57893 0.99605 0.0
C1163 C 0.34248 0.52158 0.00618 0.0
N1164 N 0.38691 0.56805 0.89655 0.0
N1165 N 0.35039 0.52166 0.10681 0.0
H1166 H 0.30626 0.4913 0.97109 0.0
H1167 H 0.30463 0.49384 0.0449 0.0
H1168 H 0.36 0.53077 0.1443 0.0
H1169 H 0.33889 0.49886 0.11136 0.0
H1170 H 0.40364 0.58722 0.89121 0.0
H1171 H 0.38173 0.55492 0.85987 0.0
H1172 H 0.39316 0.62299 0.95307 0.0
H1173 H 0.39417 0.62577 0.02662 0.0
C1174 C 0.53344 0.66689 0.0166 0.0
C1175 C 0.53977 0.64685 0.06392 0.0
C1176 C 0.58052 0.61661 0.00999 0.0
C1177 C 0.56602 0.62905 0.95974 0.0
N1178 N 0.52864 0.66785 0.91526 0.0
N1179 N 0.57224 0.60495 0.10903 0.0
C1180 C 0.54302 0.65539 0.96271 0.0
C1181 C 0.56479 0.62281 0.06194 0.0
N1182 N 0.51833 0.69661 0.0236 0.0
N1183 N 0.60927 0.59924 0.00776 0.0
H1184 H 0.56184 0.6104 0.14812 0.0
H1185 H 0.58756 0.5843 0.10864 0.0
H1186 H 0.62222 0.5962 0.97024 0.0
H1187 H 0.62195 0.59135 0.04347 0.0
H1188 H 0.51458 0.71333 0.99081 0.0
H1189 H 0.51356 0.70583 0.0638 0.0
H1190 H 0.50931 0.68476 0.91654 0.0
H1191 H 0.53421 0.65964 0.87487 0.0
C1192 C 0.56424 0.06868 0.2386 0.0
C1193 C 0.59034 0.08593 0.21253 0.0
C1194 C 0.62495 0.07603 0.29553 0.0
C1195 C 0.59776 0.0612 0.32242 0.0
N1196 N 0.53942 0.0518 0.32618 0.0
N1197 N 0.64391 0.11132 0.21984 0.0
C1198 C 0.5666 0.0608 0.29623 0.0
C1199 C 0.62031 0.0913 0.24208 0.0
N1200 N 0.53851 0.05716 0.20735 0.0
N1201 N 0.65529 0.07435 0.32001 0.0
H1202 H 0.64142 0.12293 0.1809 0.0
H1203 H 0.66478 0.11854 0.24199 0.0
H1204 H 0.65895 0.06444 0.36012 0.0
H1205 H 0.67681 0.08119 0.2995 0.0
H1206 H 0.52031 0.04189 0.22375 0.0
H1207 H 0.53773 0.05911 0.16365 0.0
H1208 H 0.51566 0.05365 0.31006 0.0
H1209 H 0.5405 0.04586 0.36893 0.0
C1210 C 0.03466 0.34147 0.7135 0.0
C1211 C 0.04414 0.36018 0.66586 0.0
C1212 C 0.08537 0.38766 0.72359 0.0
C1213 C 0.06978 0.37546 0.77286 0.0
N1214 N 0.02738 0.34161 0.81442 0.0
N1215 N 0.07816 0.40321 0.62625 0.0
C1216 C 0.04408 0.35215 0.76798 0.0
C1217 C 0.06983 0.38353 0.67068 0.0
N1218 N 0.01708 0.31322 0.70626 0.0
N1219 N 0.11534 0.40255 0.72726 0.0
H1220 H 0.06781 0.40093 0.58635 0.0
H1221 H 0.0939 0.42333 0.63023 0.0
H1222 H 0.12832 0.40397 0.76505 0.0
H1223 H 0.12887 0.40965 0.69207 0.0
H1224 H 0.01105 0.29735 0.73919 0.0
H1225 H 0.01283 0.30369 0.66619 0.0
H1226 H 0.00628 0.32718 0.81186 0.0
H1227 H 0.03276 0.34955 0.8551 0.0
C1228 C 0.39108 0.94609 0.31132 0.0
C1229 C 0.36782 0.97166 0.31586 0.0
C1230 C 0.35433 0.96781 0.21685 0.0
C1231 C 0.37928 0.94343 0.21057 0.0
N1232 N 0.40931 0.89928 0.25653 0.0
N1233 N 0.31654 0.99295 0.28285 0.0
C1234 C 0.39368 0.92906 0.25955 0.0
C1235 C 0.34545 0.97737 0.27191 0.0
N1236 N 0.41153 0.93929 0.3554 0.0
N1237 N 0.34147 0.98432 0.17176 0.0
H1238 H 0.31011 0.99939 0.32396 0.0
H1239 H 0.29822 0.99607 0.25255 0.0
H1240 H 0.34959 0.9812 0.13066 0.0
H1241 H 0.32515 0.00403 0.17628 0.0
H1242 H 0.43155 0.9233 0.35229 0.0
H1243 H 0.40885 0.9509 0.39439 0.0
H1244 H 0.41867 0.88706 0.29173 0.0
H1245 H 0.4091 0.88515 0.21986 0.0
C1246 C 0.92525 0.61638 0.66054 0.0
C1247 C 0.95172 0.63889 0.65421 0.0
C1248 C 0.96113 0.63818 0.75591 0.0
C1249 C 0.93476 0.61569 0.76245 0.0
N1250 N 0.88367 0.59556 0.72364 0.0
N1251 N 0.98437 0.68118 0.69751 0.0
C1252 C 0.91416 0.60871 0.71559 0.0
C1253 C 0.96582 0.65338 0.70279 0.0
N1254 N 0.91184 0.6006 0.61525 0.0
N1255 N 0.9832 0.64327 0.79837 0.0
H1256 H 0.98668 0.69324 0.65888 0.0
H1257 H 0.99371 0.69407 0.73194 0.0
H1258 H 0.98242 0.63075 0.83663 0.0
H1259 H 0.00438 0.65732 0.79316 0.0
H1260 H 0.89575 0.58078 0.61949 0.0
H1261 H 0.91776 0.6058 0.57369 0.0
H1262 H 0.86679 0.59247 0.69101 0.0
H1263 H 0.8738 0.59178 0.76361 0.0
loop_
_geom_bond_atom_site_label_1
_geom_bond_atom_site_label_2
_geom_bond_distance
_geom_bond_site_symmetry_2
_ccdc_geom_bond_type
Co0 O3 1.970 . S
Co0 N17 1.989 . S
Co0 O25 1.967 . S
Co0 O32 1.920 . S
Co1 O4 1.966 . S
Co1 N10 2.022 . S
Co1 N18 1.993 . S
Co1 O26 1.941 . S
C2 O3 1.258 . S
C2 O4 1.263 . S
O3 Co0 1.970 . S
O3 C2 1.258 . S
O4 Co1 1.966 . S
O4 C2 1.263 . S
C5 O6 1.235 . S
C5 O32 1.289 1_565 S
O6 C5 1.235 . S
C7 C9 1.400 . S
C7 N10 1.351 . S
C7 C12 1.501 . S
C8 C9 1.387 . S
C8 N11 1.341 . S
C9 C7 1.400 . S
C9 C8 1.387 . S
N10 Co1 2.022 . S
N10 C7 1.351 . S
N10 N11 1.365 . S
N11 C8 1.341 . S
N11 N10 1.365 . S
N11 H31 0.862 . S
C12 C7 1.501 . S
C12 H13 0.961 . S
C12 H14 0.961 . S
C12 H15 0.960 . S
H13 C12 0.961 . S
H14 C12 0.961 . S
H15 C12 0.960 . S
C16 N17 1.342 . S
C16 C20 1.401 . S
C16 C21 1.499 . S
N17 Co0 1.989 . S
N17 C16 1.342 . S
N17 N18 1.388 . S
N18 Co1 1.993 . S
N18 N17 1.388 . S
N18 C19 1.346 . S
C19 N18 1.346 . S
C19 C20 1.396 . S
C19 C29 1.510 . S
C20 C16 1.401 . S
C20 C19 1.396 . S
C21 C16 1.499 . S
C21 H22 0.959 . S
C21 H23 0.960 . S
C21 H24 0.961 . S
H22 C21 0.959 . S
H23 C21 0.960 . S
H24 C21 0.961 . S
O25 Co0 1.967 . S
O25 C33 1.258 . S
O26 Co1 1.941 . S
O26 C33 1.266 . S
H27 C29 0.959 . S
H28 C29 0.961 . S
C29 C19 1.510 . S
C29 H27 0.959 . S
C29 H28 0.961 . S
C29 H30 0.960 . S
H30 C29 0.960 . S
H31 N11 0.862 . S
O32 Co0 1.920 . S
O32 C5 1.289 1_545 S
C33 O25 1.258 . S
C33 O26 1.266 . S
Co34 O37 1.970 . S
Co34 N51 1.989 . S
Co34 O59 1.967 . S
Co34 O66 1.920 . S
Co35 O38 1.966 . S
Co35 N44 2.022 . S
Co35 N52 1.993 . S
Co35 O60 1.941 . S
C36 O37 1.258 . S
C36 O38 1.263 . S
O37 Co34 1.970 . S
O37 C36 1.258 . S
O38 Co35 1.966 . S
O38 C36 1.263 . S
C39 O40 1.235 . S
C39 O66 1.289 1_655 S
O40 C39 1.235 . S
C41 C43 1.400 . S
C41 N44 1.351 . S
C41 C46 1.501 . S
C42 C43 1.387 . S
C42 N45 1.341 . S
C43 C41 1.400 . S
C43 C42 1.387 . S
N44 Co35 2.022 . S
N44 C41 1.351 . S
N44 N45 1.365 . S
N45 C42 1.341 . S
N45 N44 1.365 . S
N45 H65 0.862 . S
C46 C41 1.501 . S
C46 H47 0.961 . S
C46 H48 0.961 . S
C46 H49 0.960 . S
H47 C46 0.961 . S
H48 C46 0.961 . S
H49 C46 0.960 . S
C50 N51 1.342 . S
C50 C54 1.401 . S
C50 C55 1.499 . S
N51 Co34 1.989 . S
N51 C50 1.342 . S
N51 N52 1.388 . S
N52 Co35 1.993 . S
N52 N51 1.388 . S
N52 C53 1.346 . S
C53 N52 1.346 . S
C53 C54 1.396 . S
C53 C63 1.510 . S
C54 C50 1.401 . S
C54 C53 1.396 . S
C55 C50 1.499 . S
C55 H56 0.959 . S
C55 H57 0.960 . S
C55 H58 0.961 . S
H56 C55 0.959 . S
H57 C55 0.960 . S
H58 C55 0.961 . S
O59 Co34 1.967 . S
O59 C67 1.258 . S
O60 Co35 1.941 . S
O60 C67 1.266 . S
H61 C63 0.959 . S
H62 C63 0.961 . S
C63 C53 1.510 . S
C63 H61 0.959 . S
C63 H62 0.961 . S
C63 H64 0.960 . S
H64 C63 0.960 . S
H65 N45 0.862 . S
O66 Co34 1.920 . S
O66 C39 1.289 1_455 S
C67 O59 1.258 . S
C67 O60 1.266 . S
Co68 O71 1.970 . S
Co68 N85 1.989 . S
Co68 O93 1.967 . S
Co68 O100 1.920 . S
Co69 O72 1.966 . S
Co69 N78 2.022 . S
Co69 N86 1.993 . S
Co69 O94 1.941 . S
C70 O71 1.258 . S
C70 O72 1.263 . S
O71 Co68 1.970 . S
O71 C70 1.258 . S
O72 Co69 1.966 . S
O72 C70 1.263 . S
C73 O74 1.235 . S
C73 O100 1.289 1_545 S
O74 C73 1.235 . S
C75 C77 1.400 . S
C75 N78 1.351 . S
C75 C80 1.501 . S
C76 C77 1.387 . S
C76 N79 1.341 . S
C77 C75 1.400 . S
C77 C76 1.387 . S
N78 Co69 2.022 . S
N78 C75 1.351 . S
N78 N79 1.365 . S
N79 C76 1.341 . S
N79 N78 1.365 . S
N79 H99 0.862 . S
C80 C75 1.501 . S
C80 H81 0.961 . S
C80 H82 0.961 . S
C80 H83 0.960 . S
H81 C80 0.961 . S
H82 C80 0.961 . S
H83 C80 0.960 . S
C84 N85 1.342 . S
C84 C88 1.401 . S
C84 C89 1.499 . S
N85 Co68 1.989 . S
N85 C84 1.342 . S
N85 N86 1.388 . S
N86 Co69 1.993 . S
N86 N85 1.388 . S
N86 C87 1.346 . S
C87 N86 1.346 . S
C87 C88 1.396 . S
C87 C97 1.510 . S
C88 C84 1.401 . S
C88 C87 1.396 . S
C89 C84 1.499 . S
C89 H90 0.959 . S
C89 H91 0.960 . S
C89 H92 0.961 . S
H90 C89 0.959 . S
H91 C89 0.960 . S
H92 C89 0.961 . S
O93 Co68 1.967 . S
O93 C101 1.258 . S
O94 Co69 1.941 . S
O94 C101 1.266 . S
H95 C97 0.959 . S
H96 C97 0.961 . S
C97 C87 1.510 . S
C97 H95 0.959 . S
C97 H96 0.961 . S
C97 H98 0.960 . S
H98 C97 0.960 . S
H99 N79 0.862 . S
O100 Co68 1.920 . S
O100 C73 1.289 1_565 S
C101 O93 1.258 . S
C101 O94 1.266 . S
Co102 O105 1.970 . S
Co102 N119 1.989 . S
Co102 O127 1.967 . S
Co102 O134 1.920 . S
Co103 O106 1.966 . S
Co103 N112 2.022 . S
Co103 N120 1.993 . S
Co103 O128 1.941 . S
C104 O105 1.258 . S
C104 O106 1.263 . S
O105 Co102 1.970 . S
O105 C104 1.258 . S
O106 Co103 1.966 . S
O106 C104 1.263 . S
C107 O108 1.235 . S
C107 O134 1.289 1_455 S
O108 C107 1.235 . S
C109 C111 1.400 . S
C109 N112 1.351 . S
C109 C114 1.501 . S
C110 C111 1.387 . S
C110 N113 1.341 . S
C111 C109 1.400 . S
C111 C110 1.387 . S
N112 Co103 2.022 . S
N112 C109 1.351 . S
N112 N113 1.365 . S
N113 C110 1.341 . S
N113 N112 1.365 . S
N113 H133 0.862 . S
C114 C109 1.501 . S
C114 H115 0.961 . S
C114 H116 0.961 . S
C114 H117 0.960 . S
H115 C114 0.961 . S
H116 C114 0.961 . S
H117 C114 0.960 . S
C118 N119 1.342 . S
C118 C122 1.401 . S
C118 C123 1.499 . S
N119 Co102 1.989 . S
N119 C118 1.342 . S
N119 N120 1.388 . S
N120 Co103 1.993 . S
N120 N119 1.388 . S
N120 C121 1.346 . S
C121 N120 1.346 . S
C121 C122 1.396 . S
C121 C131 1.510 . S
C122 C118 1.401 . S
C122 C121 1.396 . S
C123 C118 1.499 . S
C123 H124 0.959 . S
C123 H125 0.960 . S
C123 H126 0.961 . S
H124 C123 0.959 . S
H125 C123 0.960 . S
H126 C123 0.961 . S
O127 Co102 1.967 . S
O127 C135 1.258 . S
O128 Co103 1.941 . S
O128 C135 1.266 . S
H129 C131 0.959 . S
H130 C131 0.961 . S
C131 C121 1.510 . S
C131 H129 0.959 . S
C131 H130 0.961 . S
C131 H132 0.960 . S
H132 C131 0.960 . S
H133 N113 0.862 . S
O134 Co102 1.920 . S
O134 C107 1.289 1_655 S
C135 O127 1.258 . S
C135 O128 1.266 . S
Co136 O139 1.970 . S
Co136 N153 1.989 . S
Co136 O161 1.967 . S
Co136 O168 1.920 . S
Co137 O140 1.966 . S
Co137 N146 2.022 1_556 S
Co137 N154 1.993 . S
Co137 O162 1.941 . S
C138 O139 1.258 . S
C138 O140 1.263 . S
O139 Co136 1.970 . S
O139 C138 1.258 . S
O140 Co137 1.966 . S
O140 C138 1.263 . S
C141 O142 1.235 . S
C141 O168 1.289 . S
O142 C141 1.235 . S
C143 C145 1.400 . S
C143 N146 1.351 . S
C143 C148 1.501 . S
C144 C145 1.387 . S
C144 N147 1.341 1_554 S
C145 C143 1.400 . S
C145 C144 1.387 . S
N146 Co137 2.022 1_554 S
N146 C143 1.351 . S
N146 N147 1.365 1_554 S
N147 C144 1.341 1_556 S
N147 N146 1.365 1_556 S
N147 H167 0.862 . S
C148 C143 1.501 . S
C148 H149 0.961 . S
C148 H150 0.961 . S
C148 H151 0.960 . S
H149 C148 0.961 . S
H150 C148 0.961 . S
H151 C148 0.960 . S
C152 N153 1.342 . S
C152 C156 1.401 . S
C152 C157 1.499 . S
N153 Co136 1.989 . S
N153 C152 1.342 . S
N153 N154 1.388 . S
N154 Co137 1.993 . S
N154 N153 1.388 . S
N154 C155 1.346 . S
C155 N154 1.346 . S
C155 C156 1.396 . S
C155 C165 1.510 . S
C156 C152 1.401 . S
C156 C155 1.396 . S
C157 C152 1.499 . S
C157 H158 0.959 . S
C157 H159 0.960 . S
C157 H160 0.961 . S
H158 C157 0.959 . S
H159 C157 0.960 . S
H160 C157 0.961 . S
O161 Co136 1.967 . S
O161 C169 1.258 . S
O162 Co137 1.941 . S
O162 C169 1.266 . S
H163 C165 0.959 . S
H164 C165 0.961 1_554 S
C165 C155 1.510 . S
C165 H163 0.959 . S
C165 H164 0.961 1_556 S
C165 H166 0.960 1_556 S
H166 C165 0.960 1_554 S
H167 N147 0.862 . S
O168 Co136 1.920 . S
O168 C141 1.289 . S
C169 O161 1.258 . S
C169 O162 1.266 . S
Co170 O173 1.970 . S
Co170 N187 1.989 . S
Co170 O195 1.967 . S
Co170 O202 1.920 . S
Co171 O174 1.966 . S
Co171 N180 2.022 1_554 S
Co171 N188 1.993 . S
Co171 O196 1.941 . S
C172 O173 1.258 . S
C172 O174 1.263 . S
O173 Co170 1.970 . S
O173 C172 1.258 . S
O174 Co171 1.966 . S
O174 C172 1.263 . S
C175 O176 1.235 . S
C175 O202 1.289 . S
O176 C175 1.235 . S
C177 C179 1.400 . S
C177 N180 1.351 . S
C177 C182 1.501 . S
C178 C179 1.387 . S
C178 N181 1.341 1_556 S
C179 C177 1.400 . S
C179 C178 1.387 . S
N180 Co171 2.022 1_556 S
N180 C177 1.351 . S
N180 N181 1.365 1_556 S
N181 C178 1.341 1_554 S
N181 N180 1.365 1_554 S
N181 H201 0.862 . S
C182 C177 1.501 . S
C182 H183 0.961 . S
C182 H184 0.961 . S
C182 H185 0.960 . S
H183 C182 0.961 . S
H184 C182 0.961 . S
H185 C182 0.960 . S
C186 N187 1.342 . S
C186 C190 1.401 . S
C186 C191 1.499 . S
N187 Co170 1.989 . S
N187 C186 1.342 . S
N187 N188 1.388 . S
N188 Co171 1.993 . S
N188 N187 1.388 . S
N188 C189 1.346 . S
C189 N188 1.346 . S
C189 C190 1.396 . S
C189 C199 1.510 . S
C190 C186 1.401 . S
C190 C189 1.396 . S
C191 C186 1.499 . S
C191 H192 0.959 . S
C191 H193 0.960 . S
C191 H194 0.961 . S
H192 C191 0.959 . S
H193 C191 0.960 . S
H194 C191 0.961 . S
O195 Co170 1.967 . S
O195 C203 1.258 . S
O196 Co171 1.941 . S
O196 C203 1.266 . S
H197 C199 0.959 . S
H198 C199 0.961 1_556 S
C199 C189 1.510 . S
C199 H197 0.959 . S
C199 H198 0.961 1_554 S
C199 H200 0.960 1_554 S
H200 C199 0.960 1_556 S
H201 N181 0.862 . S
O202 Co170 1.920 . S
O202 C175 1.289 . S
C203 O195 1.258 . S
C203 O196 1.266 . S
Co204 O207 1.970 . S
Co204 N221 1.989 . S
Co204 O229 1.967 . S
Co204 O236 1.920 . S
Co205 O208 1.966 . S
Co205 N214 2.022 1_556 S
Co205 N222 1.993 . S
Co205 O230 1.941 . S
C206 O207 1.258 . S
C206 O208 1.263 . S
O207 Co204 1.970 . S
O207 C206 1.258 . S
O208 Co205 1.966 . S
O208 C206 1.263 . S
C209 O210 1.235 . S
C209 O236 1.289 . S
O210 C209 1.235 . S
C211 C213 1.400 . S
C211 N214 1.351 . S
C211 C216 1.501 . S
C212 C213 1.387 . S
C212 N215 1.341 1_554 S
C213 C211 1.400 . S
C213 C212 1.387 . S
N214 Co205 2.022 1_554 S
N214 C211 1.351 . S
N214 N215 1.365 1_554 S
N215 C212 1.341 1_556 S
N215 N214 1.365 1_556 S
N215 H235 0.862 . S
C216 C211 1.501 . S
C216 H217 0.961 . S
C216 H218 0.961 . S
C216 H219 0.960 . S
H217 C216 0.961 . S
H218 C216 0.961 . S
H219 C216 0.960 . S
C220 N221 1.342 . S
C220 C224 1.401 . S
C220 C225 1.499 . S
N221 Co204 1.989 . S
N221 C220 1.342 . S
N221 N222 1.388 . S
N222 Co205 1.993 . S
N222 N221 1.388 . S
N222 C223 1.346 . S
C223 N222 1.346 . S
C223 C224 1.396 . S
C223 C233 1.510 . S
C224 C220 1.401 . S
C224 C223 1.396 . S
C225 C220 1.499 . S
C225 H226 0.959 . S
C225 H227 0.960 . S
C225 H228 0.961 . S
H226 C225 0.959 . S
H227 C225 0.960 . S
H228 C225 0.961 . S
O229 Co204 1.967 . S
O229 C237 1.258 . S
O230 Co205 1.941 . S
O230 C237 1.266 . S
H231 C233 0.959 . S
H232 C233 0.961 1_554 S
C233 C223 1.510 . S
C233 H231 0.959 . S
C233 H232 0.961 1_556 S
C233 H234 0.960 1_556 S
H234 C233 0.960 1_554 S
H235 N215 0.862 . S
O236 Co204 1.920 . S
O236 C209 1.289 . S
C237 O229 1.258 . S
C237 O230 1.266 . S
Co238 O241 1.970 . S
Co238 N255 1.989 . S
Co238 O263 1.967 . S
Co238 O270 1.920 . S
Co239 O242 1.966 . S
Co239 N248 2.022 1_554 S
Co239 N256 1.993 . S
Co239 O264 1.941 . S
C240 O241 1.258 . S
C240 O242 1.263 . S
O241 Co238 1.970 . S
O241 C240 1.258 . S
O242 Co239 1.966 . S
O242 C240 1.263 . S
C243 O244 1.235 . S
C243 O270 1.289 . S
O244 C243 1.235 . S
C245 C247 1.400 . S
C245 N248 1.351 . S
C245 C250 1.501 . S
C246 C247 1.387 . S
C246 N249 1.341 1_556 S
C247 C245 1.400 . S
C247 C246 1.387 . S
N248 Co239 2.022 1_556 S
N248 C245 1.351 . S
N248 N249 1.365 1_556 S
N249 C246 1.341 1_554 S
N249 N248 1.365 1_554 S
N249 H269 0.862 . S
C250 C245 1.501 . S
C250 H251 0.961 . S
C250 H252 0.961 . S
C250 H253 0.960 . S
H251 C250 0.961 . S
H252 C250 0.961 . S
H253 C250 0.960 . S
C254 N255 1.342 . S
C254 C258 1.401 . S
C254 C259 1.499 . S
N255 Co238 1.989 . S
N255 C254 1.342 . S
N255 N256 1.388 . S
N256 Co239 1.993 . S
N256 N255 1.388 . S
N256 C257 1.346 . S
C257 N256 1.346 . S
C257 C258 1.396 . S
C257 C267 1.510 . S
C258 C254 1.401 . S
C258 C257 1.396 . S
C259 C254 1.499 . S
C259 H260 0.959 . S
C259 H261 0.960 . S
C259 H262 0.961 . S
H260 C259 0.959 . S
H261 C259 0.960 . S
H262 C259 0.961 . S
O263 Co238 1.967 . S
O263 C271 1.258 . S
O264 Co239 1.941 . S
O264 C271 1.266 . S
H265 C267 0.959 . S
H266 C267 0.961 1_556 S
C267 C257 1.510 . S
C267 H265 0.959 . S
C267 H266 0.961 1_554 S
C267 H268 0.960 1_554 S
H268 C267 0.960 1_556 S
H269 N249 0.862 . S
O270 Co238 1.920 . S
O270 C243 1.289 . S
C271 O263 1.258 . S
C271 O264 1.266 . S
Co272 O275 1.970 . S
Co272 N289 1.989 . S
Co272 O297 1.967 . S
Co272 O304 1.920 . S
Co273 O276 1.966 . S
Co273 N282 2.022 . S
Co273 N290 1.993 . S
Co273 O298 1.941 . S
C274 O275 1.258 . S
C274 O276 1.263 . S
O275 Co272 1.970 . S
O275 C274 1.258 . S
O276 Co273 1.966 . S
O276 C274 1.263 . S
C277 O278 1.235 . S
C277 O304 1.289 . S
O278 C277 1.235 . S
C279 C281 1.400 . S
C279 N282 1.351 . S
C279 C284 1.501 . S
C280 C281 1.387 . S
C280 N283 1.341 . S
C281 C279 1.400 . S
C281 C280 1.387 . S
N282 Co273 2.022 . S
N282 C279 1.351 . S
N282 N283 1.365 . S
N283 C280 1.341 . S
N283 N282 1.365 . S
N283 H303 0.862 . S
C284 C279 1.501 . S
C284 H285 0.961 . S
C284 H286 0.961 . S
C284 H287 0.960 . S
H285 C284 0.961 . S
H286 C284 0.961 . S
H287 C284 0.960 . S
C288 N289 1.342 . S
C288 C292 1.401 . S
C288 C293 1.499 . S
N289 Co272 1.989 . S
N289 C288 1.342 . S
N289 N290 1.388 . S
N290 Co273 1.993 . S
N290 N289 1.388 . S
N290 C291 1.346 . S
C291 N290 1.346 . S
C291 C292 1.396 . S
C291 C301 1.510 . S
C292 C288 1.401 . S
C292 C291 1.396 . S
C293 C288 1.499 . S
C293 H294 0.959 . S
C293 H295 0.960 . S
C293 H296 0.961 . S
H294 C293 0.959 . S
H295 C293 0.960 . S
H296 C293 0.961 . S
O297 Co272 1.967 . S
O297 C305 1.258 . S
O298 Co273 1.941 . S
O298 C305 1.266 . S
H299 C301 0.959 . S
H300 C301 0.961 . S
C301 C291 1.510 . S
C301 H299 0.959 . S
C301 H300 0.961 . S
C301 H302 0.960 . S
H302 C301 0.960 . S
H303 N283 0.862 . S
O304 Co272 1.920 . S
O304 C277 1.289 . S
C305 O297 1.258 . S
C305 O298 1.266 . S
Co306 O309 1.970 . S
Co306 N323 1.989 . S
Co306 O331 1.967 . S
Co306 O338 1.920 . S
Co307 O310 1.966 . S
Co307 N316 2.022 . S
Co307 N324 1.993 . S
Co307 O332 1.941 . S
C308 O309 1.258 . S
C308 O310 1.263 . S
O309 Co306 1.970 . S
O309 C308 1.258 . S
O310 Co307 1.966 . S
O310 C308 1.263 . S
C311 O312 1.235 . S
C311 O338 1.289 . S
O312 C311 1.235 . S
C313 C315 1.400 . S
C313 N316 1.351 . S
C313 C318 1.501 . S
C314 C315 1.387 . S
C314 N317 1.341 . S
C315 C313 1.400 . S
C315 C314 1.387 . S
N316 Co307 2.022 . S
N316 C313 1.351 . S
N316 N317 1.365 . S
N317 C314 1.341 . S
N317 N316 1.365 . S
N317 H337 0.862 . S
C318 C313 1.501 . S
C318 H319 0.961 . S
C318 H320 0.961 . S
C318 H321 0.960 . S
H319 C318 0.961 . S
H320 C318 0.961 . S
H321 C318 0.960 . S
C322 N323 1.342 . S
C322 C326 1.401 . S
C322 C327 1.499 . S
N323 Co306 1.989 . S
N323 C322 1.342 . S
N323 N324 1.388 . S
N324 Co307 1.993 . S
N324 N323 1.388 . S
N324 C325 1.346 . S
C325 N324 1.346 . S
C325 C326 1.396 . S
C325 C335 1.510 . S
C326 C322 1.401 . S
C326 C325 1.396 . S
C327 C322 1.499 . S
C327 H328 0.959 . S
C327 H329 0.960 . S
C327 H330 0.961 . S
H328 C327 0.959 . S
H329 C327 0.960 . S
H330 C327 0.961 . S
O331 Co306 1.967 . S
O331 C339 1.258 . S
O332 Co307 1.941 . S
O332 C339 1.266 . S
H333 C335 0.959 . S
H334 C335 0.961 . S
C335 C325 1.510 . S
C335 H333 0.959 . S
C335 H334 0.961 . S
C335 H336 0.960 . S
H336 C335 0.960 . S
H337 N317 0.862 . S
O338 Co306 1.920 . S
O338 C311 1.289 . S
C339 O331 1.258 . S
C339 O332 1.266 . S
Co340 O343 1.970 . S
Co340 N357 1.989 . S
Co340 O365 1.967 . S
Co340 O372 1.920 . S
Co341 O344 1.966 . S
Co341 N350 2.022 . S
Co341 N358 1.993 . S
Co341 O366 1.941 . S
C342 O343 1.258 . S
C342 O344 1.263 . S
O343 Co340 1.970 . S
O343 C342 1.258 . S
O344 Co341 1.966 . S
O344 C342 1.263 . S
C345 O346 1.235 . S
C345 O372 1.289 . S
O346 C345 1.235 . S
C347 C349 1.400 . S
C347 N350 1.351 . S
C347 C352 1.501 . S
C348 C349 1.387 . S
C348 N351 1.341 . S
C349 C347 1.400 . S
C349 C348 1.387 . S
N350 Co341 2.022 . S
N350 C347 1.351 . S
N350 N351 1.365 . S
N351 C348 1.341 . S
N351 N350 1.365 . S
N351 H371 0.862 . S
C352 C347 1.501 . S
C352 H353 0.961 . S
C352 H354 0.961 . S
C352 H355 0.960 . S
H353 C352 0.961 . S
H354 C352 0.961 . S
H355 C352 0.960 . S
C356 N357 1.342 . S
C356 C360 1.401 . S
C356 C361 1.499 . S
N357 Co340 1.989 . S
N357 C356 1.342 . S
N357 N358 1.388 . S
N358 Co341 1.993 . S
N358 N357 1.388 . S
N358 C359 1.346 . S
C359 N358 1.346 . S
C359 C360 1.396 . S
C359 C369 1.510 . S
C360 C356 1.401 . S
C360 C359 1.396 . S
C361 C356 1.499 . S
C361 H362 0.959 . S
C361 H363 0.960 . S
C361 H364 0.961 . S
H362 C361 0.959 . S
H363 C361 0.960 . S
H364 C361 0.961 . S
O365 Co340 1.967 . S
O365 C373 1.258 . S
O366 Co341 1.941 . S
O366 C373 1.266 . S
H367 C369 0.959 . S
H368 C369 0.961 . S
C369 C359 1.510 . S
C369 H367 0.959 . S
C369 H368 0.961 . S
C369 H370 0.960 . S
H370 C369 0.960 . S
H371 N351 0.862 . S
O372 Co340 1.920 . S
O372 C345 1.289 . S
C373 O365 1.258 . S
C373 O366 1.266 . S
Co374 O377 1.970 . S
Co374 N391 1.989 . S
Co374 O399 1.967 . S
Co374 O406 1.920 . S
Co375 O378 1.966 . S
Co375 N384 2.022 . S
Co375 N392 1.993 . S
Co375 O400 1.941 . S
C376 O377 1.258 . S
C376 O378 1.263 . S
O377 Co374 1.970 . S
O377 C376 1.258 . S
O378 Co375 1.966 . S
O378 C376 1.263 . S
C379 O380 1.235 . S
C379 O406 1.289 . S
O380 C379 1.235 . S
C381 C383 1.400 . S
C381 N384 1.351 . S
C381 C386 1.501 . S
C382 C383 1.387 . S
C382 N385 1.341 . S
C383 C381 1.400 . S
C383 C382 1.387 . S
N384 Co375 2.022 . S
N384 C381 1.351 . S
N384 N385 1.365 . S
N385 C382 1.341 . S
N385 N384 1.365 . S
N385 H405 0.862 . S
C386 C381 1.501 . S
C386 H387 0.961 . S
C386 H388 0.961 . S
C386 H389 0.960 . S
H387 C386 0.961 . S
H388 C386 0.961 . S
H389 C386 0.960 . S
C390 N391 1.342 . S
C390 C394 1.401 . S
C390 C395 1.499 . S
N391 Co374 1.989 . S
N391 C390 1.342 . S
N391 N392 1.388 . S
N392 Co375 1.993 . S
N392 N391 1.388 . S
N392 C393 1.346 . S
C393 N392 1.346 . S
C393 C394 1.396 . S
C393 C403 1.510 . S
C394 C390 1.401 . S
C394 C393 1.396 . S
C395 C390 1.499 . S
C395 H396 0.959 . S
C395 H397 0.960 . S
C395 H398 0.961 . S
H396 C395 0.959 . S
H397 C395 0.960 . S
H398 C395 0.961 . S
O399 Co374 1.967 . S
O399 C407 1.258 . S
O400 Co375 1.941 . S
O400 C407 1.266 . S
H401 C403 0.959 . S
H402 C403 0.961 . S
C403 C393 1.510 . S
C403 H401 0.959 . S
C403 H402 0.961 . S
C403 H404 0.960 . S
H404 C403 0.960 . S
H405 N385 0.862 . S
O406 Co374 1.920 . S
O406 C379 1.289 . S
C407 O399 1.258 . S
C407 O400 1.266 . S
Co408 O411 1.970 . S
Co408 N425 1.989 . S
Co408 O433 1.967 . S
Co408 O440 1.920 . S
Co409 O412 1.966 . S
Co409 N418 2.022 . S
Co409 N426 1.993 . S
Co409 O434 1.941 . S
C410 O411 1.258 . S
C410 O412 1.263 . S
O411 Co408 1.970 . S
O411 C410 1.258 . S
O412 Co409 1.966 . S
O412 C410 1.263 . S
C413 O414 1.235 . S
C413 O440 1.289 1_545 S
O414 C413 1.235 . S
C415 C417 1.400 . S
C415 N418 1.351 . S
C415 C420 1.501 . S
C416 C417 1.387 . S
C416 N419 1.341 . S
C417 C415 1.400 . S
C417 C416 1.387 . S
N418 Co409 2.022 . S
N418 C415 1.351 . S
N418 N419 1.365 . S
N419 C416 1.341 . S
N419 N418 1.365 . S
N419 H439 0.862 . S
C420 C415 1.501 . S
C420 H421 0.961 . S
C420 H422 0.961 . S
C420 H423 0.960 . S
H421 C420 0.961 . S
H422 C420 0.961 . S
H423 C420 0.960 . S
C424 N425 1.342 . S
C424 C428 1.401 . S
C424 C429 1.499 . S
N425 Co408 1.989 . S
N425 C424 1.342 . S
N425 N426 1.388 . S
N426 Co409 1.993 . S
N426 N425 1.388 . S
N426 C427 1.346 . S
C427 N426 1.346 . S
C427 C428 1.396 . S
C427 C437 1.510 . S
C428 C424 1.401 . S
C428 C427 1.396 . S
C429 C424 1.499 . S
C429 H430 0.959 . S
C429 H431 0.960 . S
C429 H432 0.961 . S
H430 C429 0.959 . S
H431 C429 0.960 . S
H432 C429 0.961 . S
O433 Co408 1.967 . S
O433 C441 1.258 . S
O434 Co409 1.941 . S
O434 C441 1.266 . S
H435 C437 0.959 . S
H436 C437 0.961 . S
C437 C427 1.510 . S
C437 H435 0.959 . S
C437 H436 0.961 . S
C437 H438 0.960 . S
H438 C437 0.960 . S
H439 N419 0.862 . S
O440 Co408 1.920 . S
O440 C413 1.289 1_565 S
C441 O433 1.258 . S
C441 O434 1.266 . S
Co442 O445 1.970 . S
Co442 N459 1.989 . S
Co442 O467 1.967 . S
Co442 O474 1.920 . S
Co443 O446 1.966 . S
Co443 N452 2.022 . S
Co443 N460 1.993 . S
Co443 O468 1.941 . S
C444 O445 1.258 . S
C444 O446 1.263 . S
O445 Co442 1.970 . S
O445 C444 1.258 . S
O446 Co443 1.966 . S
O446 C444 1.263 . S
C447 O448 1.235 . S
C447 O474 1.289 1_455 S
O448 C447 1.235 . S
C449 C451 1.400 . S
C449 N452 1.351 . S
C449 C454 1.501 . S
C450 C451 1.387 . S
C450 N453 1.341 . S
C451 C449 1.400 . S
C451 C450 1.387 . S
N452 Co443 2.022 . S
N452 C449 1.351 . S
N452 N453 1.365 . S
N453 C450 1.341 . S
N453 N452 1.365 . S
N453 H473 0.862 . S
C454 C449 1.501 . S
C454 H455 0.961 . S
C454 H456 0.961 . S
C454 H457 0.960 . S
H455 C454 0.961 . S
H456 C454 0.961 . S
H457 C454 0.960 . S
C458 N459 1.342 . S
C458 C462 1.401 . S
C458 C463 1.499 . S
N459 Co442 1.989 . S
N459 C458 1.342 . S
N459 N460 1.388 . S
N460 Co443 1.993 . S
N460 N459 1.388 . S
N460 C461 1.346 . S
C461 N460 1.346 . S
C461 C462 1.396 . S
C461 C471 1.510 . S
C462 C458 1.401 . S
C462 C461 1.396 . S
C463 C458 1.499 . S
C463 H464 0.959 . S
C463 H465 0.960 . S
C463 H466 0.961 . S
H464 C463 0.959 . S
H465 C463 0.960 . S
H466 C463 0.961 . S
O467 Co442 1.967 . S
O467 C475 1.258 . S
O468 Co443 1.941 . S
O468 C475 1.266 . S
H469 C471 0.959 . S
H470 C471 0.961 . S
C471 C461 1.510 . S
C471 H469 0.959 . S
C471 H470 0.961 . S
C471 H472 0.960 . S
H472 C471 0.960 . S
H473 N453 0.862 . S
O474 Co442 1.920 . S
O474 C447 1.289 1_655 S
C475 O467 1.258 . S
C475 O468 1.266 . S
Co476 O479 1.970 . S
Co476 N493 1.989 . S
Co476 O501 1.967 . S
Co476 O508 1.920 . S
Co477 O480 1.966 . S
Co477 N486 2.022 . S
Co477 N494 1.993 . S
Co477 O502 1.941 . S
C478 O479 1.258 . S
C478 O480 1.263 . S
O479 Co476 1.970 . S
O479 C478 1.258 . S
O480 Co477 1.966 . S
O480 C478 1.263 . S
C481 O482 1.235 . S
C481 O508 1.289 1_565 S
O482 C481 1.235 . S
C483 C485 1.400 . S
C483 N486 1.351 . S
C483 C488 1.501 . S
C484 C485 1.387 . S
C484 N487 1.341 . S
C485 C483 1.400 . S
C485 C484 1.387 . S
N486 Co477 2.022 . S
N486 C483 1.351 . S
N486 N487 1.365 . S
N487 C484 1.341 . S
N487 N486 1.365 . S
N487 H507 0.862 . S
C488 C483 1.501 . S
C488 H489 0.961 . S
C488 H490 0.961 . S
C488 H491 0.960 . S
H489 C488 0.961 . S
H490 C488 0.961 . S
H491 C488 0.960 . S
C492 N493 1.342 . S
C492 C496 1.401 . S
C492 C497 1.499 . S
N493 Co476 1.989 . S
N493 C492 1.342 . S
N493 N494 1.388 . S
N494 Co477 1.993 . S
N494 N493 1.388 . S
N494 C495 1.346 . S
C495 N494 1.346 . S
C495 C496 1.396 . S
C495 C505 1.510 . S
C496 C492 1.401 . S
C496 C495 1.396 . S
C497 C492 1.499 . S
C497 H498 0.959 . S
C497 H499 0.960 . S
C497 H500 0.961 . S
H498 C497 0.959 . S
H499 C497 0.960 . S
H500 C497 0.961 . S
O501 Co476 1.967 . S
O501 C509 1.258 . S
O502 Co477 1.941 . S
O502 C509 1.266 . S
H503 C505 0.959 . S
H504 C505 0.961 . S
C505 C495 1.510 . S
C505 H503 0.959 . S
C505 H504 0.961 . S
C505 H506 0.960 . S
H506 C505 0.960 . S
H507 N487 0.862 . S
O508 Co476 1.920 . S
O508 C481 1.289 1_545 S
C509 O501 1.258 . S
C509 O502 1.266 . S
Co510 O513 1.970 . S
Co510 N527 1.989 . S
Co510 O535 1.967 . S
Co510 O542 1.920 . S
Co511 O514 1.966 . S
Co511 N520 2.022 . S
Co511 N528 1.993 . S
Co511 O536 1.941 . S
C512 O513 1.258 . S
C512 O514 1.263 . S
O513 Co510 1.970 . S
O513 C512 1.258 . S
O514 Co511 1.966 . S
O514 C512 1.263 . S
C515 O516 1.235 . S
C515 O542 1.289 1_655 S
O516 C515 1.235 . S
C517 C519 1.400 . S
C517 N520 1.351 . S
C517 C522 1.501 . S
C518 C519 1.387 . S
C518 N521 1.341 . S
C519 C517 1.400 . S
C519 C518 1.387 . S
N520 Co511 2.022 . S
N520 C517 1.351 . S
N520 N521 1.365 . S
N521 C518 1.341 . S
N521 N520 1.365 . S
N521 H541 0.862 . S
C522 C517 1.501 . S
C522 H523 0.961 . S
C522 H524 0.961 . S
C522 H525 0.960 . S
H523 C522 0.961 . S
H524 C522 0.961 . S
H525 C522 0.960 . S
C526 N527 1.342 . S
C526 C530 1.401 . S
C526 C531 1.499 . S
N527 Co510 1.989 . S
N527 C526 1.342 . S
N527 N528 1.388 . S
N528 Co511 1.993 . S
N528 N527 1.388 . S
N528 C529 1.346 . S
C529 N528 1.346 . S
C529 C530 1.396 . S
C529 C539 1.510 . S
C530 C526 1.401 . S
C530 C529 1.396 . S
C531 C526 1.499 . S
C531 H532 0.959 . S
C531 H533 0.960 . S
C531 H534 0.961 . S
H532 C531 0.959 . S
H533 C531 0.960 . S
H534 C531 0.961 . S
O535 Co510 1.967 . S
O535 C543 1.258 . S
O536 Co511 1.941 . S
O536 C543 1.266 . S
H537 C539 0.959 . S
H538 C539 0.961 . S
C539 C529 1.510 . S
C539 H537 0.959 . S
C539 H538 0.961 . S
C539 H540 0.960 . S
H540 C539 0.960 . S
H541 N521 0.862 . S
O542 Co510 1.920 . S
O542 C515 1.289 1_455 S
C543 O535 1.258 . S
C543 O536 1.266 . S
C544 C545 1.363 . S
C544 C550 1.379 . S
C544 N552 1.356 . S
C545 C544 1.363 . S
C545 C551 1.363 . S
C546 C547 1.363 . S
C546 C551 1.379 . S
C546 N553 1.356 . S
C547 C546 1.363 . S
C547 C550 1.363 . S
N548 C550 1.356 . S
N548 H560 0.984 . S
N548 H561 0.985 . S
N549 C551 1.356 . S
N549 H554 0.984 . S
N549 H555 0.985 . S
C550 C544 1.379 . S
C550 C547 1.363 . S
C550 N548 1.356 . S
C551 C545 1.363 . S
C551 C546 1.379 . S
C551 N549 1.356 . S
N552 C544 1.356 . S
N552 H558 0.984 . S
N552 H559 0.984 . S
N553 C546 1.356 . S
N553 H556 0.984 . S
N553 H557 0.985 . S
H554 N549 0.984 . S
H555 N549 0.985 . S
H556 N553 0.984 . S
H557 N553 0.985 . S
H558 N552 0.984 . S
H559 N552 0.984 . S
H560 N548 0.984 . S
H561 N548 0.985 . S
C562 C563 1.363 . S
C562 C568 1.379 . S
C562 N570 1.356 . S
C563 C562 1.363 . S
C563 C569 1.363 . S
C564 C565 1.363 . S
C564 C569 1.379 . S
C564 N571 1.356 . S
C565 C564 1.363 . S
C565 C568 1.363 . S
N566 C568 1.356 . S
N566 H578 0.984 . S
N566 H579 0.985 . S
N567 C569 1.356 . S
N567 H572 0.984 . S
N567 H573 0.985 . S
C568 C562 1.379 . S
C568 C565 1.363 . S
C568 N566 1.356 . S
C569 C563 1.363 . S
C569 C564 1.379 . S
C569 N567 1.356 . S
N570 C562 1.356 . S
N570 H576 0.984 . S
N570 H577 0.984 . S
N571 C564 1.356 . S
N571 H574 0.984 . S
N571 H575 0.985 . S
H572 N567 0.984 . S
H573 N567 0.985 . S
H574 N571 0.984 . S
H575 N571 0.985 . S
H576 N570 0.984 . S
H577 N570 0.984 . S
H578 N566 0.984 . S
H579 N566 0.985 . S
C580 C581 1.363 . S
C580 C586 1.379 . S
C580 N588 1.356 . S
C581 C580 1.363 . S
C581 C587 1.363 . S
C582 C583 1.363 . S
C582 C587 1.379 . S
C582 N589 1.356 . S
C583 C582 1.363 . S
C583 C586 1.363 . S
N584 C586 1.356 . S
N584 H596 0.984 . S
N584 H597 0.985 . S
N585 C587 1.356 . S
N585 H590 0.984 . S
N585 H591 0.985 . S
C586 C580 1.379 . S
C586 C583 1.363 . S
C586 N584 1.356 . S
C587 C581 1.363 . S
C587 C582 1.379 . S
C587 N585 1.356 . S
N588 C580 1.356 . S
N588 H594 0.984 . S
N588 H595 0.984 . S
N589 C582 1.356 . S
N589 H592 0.984 . S
N589 H593 0.985 . S
H590 N585 0.984 . S
H591 N585 0.985 . S
H592 N589 0.984 . S
H593 N589 0.985 . S
H594 N588 0.984 . S
H595 N588 0.984 . S
H596 N584 0.984 . S
H597 N584 0.985 . S
C598 C599 1.363 . S
C598 C604 1.379 . S
C598 N606 1.356 . S
C599 C598 1.363 . S
C599 C605 1.363 . S
C600 C601 1.363 . S
C600 C605 1.379 . S
C600 N607 1.356 . S
C601 C600 1.363 . S
C601 C604 1.363 . S
N602 C604 1.356 . S
N602 H614 0.984 . S
N602 H615 0.985 . S
N603 C605 1.356 . S
N603 H608 0.984 . S
N603 H609 0.985 . S
C604 C598 1.379 . S
C604 C601 1.363 . S
C604 N602 1.356 . S
C605 C599 1.363 . S
C605 C600 1.379 . S
C605 N603 1.356 . S
N606 C598 1.356 . S
N606 H612 0.984 . S
N606 H613 0.984 . S
N607 C600 1.356 . S
N607 H610 0.984 . S
N607 H611 0.985 . S
H608 N603 0.984 . S
H609 N603 0.985 . S
H610 N607 0.984 . S
H611 N607 0.985 . S
H612 N606 0.984 . S
H613 N606 0.984 . S
H614 N602 0.984 . S
H615 N602 0.985 . S
C616 C617 1.363 . S
C616 C622 1.379 . S
C616 N624 1.356 . S
C617 C616 1.363 . S
C617 C623 1.363 . S
C618 C619 1.363 . S
C618 C623 1.379 . S
C618 N625 1.356 . S
C619 C618 1.363 . S
C619 C622 1.363 . S
N620 C622 1.356 . S
N620 H632 0.984 . S
N620 H633 0.985 . S
N621 C623 1.356 . S
N621 H626 0.984 . S
N621 H627 0.985 . S
C622 C616 1.379 . S
C622 C619 1.363 . S
C622 N620 1.356 . S
C623 C617 1.363 . S
C623 C618 1.379 . S
C623 N621 1.356 . S
N624 C616 1.356 . S
N624 H630 0.984 . S
N624 H631 0.984 . S
N625 C618 1.356 . S
N625 H628 0.984 . S
N625 H629 0.985 . S
H626 N621 0.984 . S
H627 N621 0.985 . S
H628 N625 0.984 . S
H629 N625 0.985 . S
H630 N624 0.984 . S
H631 N624 0.984 . S
H632 N620 0.984 . S
H633 N620 0.985 . S
C634 C635 1.363 . S
C634 C640 1.379 . S
C634 N642 1.356 . S
C635 C634 1.363 . S
C635 C641 1.363 . S
C636 C637 1.363 . S
C636 C641 1.379 . S
C636 N643 1.356 . S
C637 C636 1.363 . S
C637 C640 1.363 . S
N638 C640 1.356 . S
N638 H650 0.984 . S
N638 H651 0.985 . S
N639 C641 1.356 . S
N639 H644 0.984 . S
N639 H645 0.985 . S
C640 C634 1.379 . S
C640 C637 1.363 . S
C640 N638 1.356 . S
C641 C635 1.363 . S
C641 C636 1.379 . S
C641 N639 1.356 . S
N642 C634 1.356 . S
N642 H648 0.984 . S
N642 H649 0.984 . S
N643 C636 1.356 . S
N643 H646 0.984 . S
N643 H647 0.985 . S
H644 N639 0.984 . S
H645 N639 0.985 . S
H646 N643 0.984 . S
H647 N643 0.985 . S
H648 N642 0.984 . S
H649 N642 0.984 . S
H650 N638 0.984 . S
H651 N638 0.985 . S
C652 C653 1.363 . S
C652 C658 1.379 . S
C652 N660 1.356 . S
C653 C652 1.363 . S
C653 C659 1.363 . S
C654 C655 1.363 . S
C654 C659 1.379 . S
C654 N661 1.356 . S
C655 C654 1.363 . S
C655 C658 1.363 . S
N656 C658 1.356 . S
N656 H668 0.984 . S
N656 H669 0.985 . S
N657 C659 1.356 . S
N657 H662 0.984 . S
N657 H663 0.985 . S
C658 C652 1.379 . S
C658 C655 1.363 . S
C658 N656 1.356 . S
C659 C653 1.363 . S
C659 C654 1.379 . S
C659 N657 1.356 . S
N660 C652 1.356 . S
N660 H666 0.984 . S
N660 H667 0.984 . S
N661 C654 1.356 . S
N661 H664 0.984 . S
N661 H665 0.985 . S
H662 N657 0.984 . S
H663 N657 0.985 . S
H664 N661 0.984 . S
H665 N661 0.985 . S
H666 N660 0.984 . S
H667 N660 0.984 . S
H668 N656 0.984 . S
H669 N656 0.985 . S
C670 C671 1.363 . S
C670 C676 1.379 . S
C670 N678 1.356 . S
C671 C670 1.363 . S
C671 C677 1.363 . S
C672 C673 1.363 . S
C672 C677 1.379 . S
C672 N679 1.356 . S
C673 C672 1.363 . S
C673 C676 1.363 . S
N674 C676 1.356 . S
N674 H686 0.984 . S
N674 H687 0.985 . S
N675 C677 1.356 . S
N675 H680 0.984 . S
N675 H681 0.985 . S
C676 C670 1.379 . S
C676 C673 1.363 . S
C676 N674 1.356 . S
C677 C671 1.363 . S
C677 C672 1.379 . S
C677 N675 1.356 . S
N678 C670 1.356 . S
N678 H684 0.984 . S
N678 H685 0.984 . S
N679 C672 1.356 . S
N679 H682 0.984 . S
N679 H683 0.985 . S
H680 N675 0.984 . S
H681 N675 0.985 . S
H682 N679 0.984 . S
H683 N679 0.985 . S
H684 N678 0.984 . S
H685 N678 0.984 . S
H686 N674 0.984 . S
H687 N674 0.985 . S
C688 C689 1.363 . S
C688 C694 1.379 . S
C688 N696 1.356 . S
C689 C688 1.363 . S
C689 C695 1.363 . S
C690 C691 1.363 . S
C690 C695 1.379 . S
C690 N697 1.356 . S
C691 C690 1.363 . S
C691 C694 1.363 . S
N692 C694 1.356 . S
N692 H704 0.984 . S
N692 H705 0.985 . S
N693 C695 1.356 . S
N693 H698 0.984 . S
N693 H699 0.985 . S
C694 C688 1.379 . S
C694 C691 1.363 . S
C694 N692 1.356 . S
C695 C689 1.363 . S
C695 C690 1.379 . S
C695 N693 1.356 . S
N696 C688 1.356 . S
N696 H702 0.984 . S
N696 H703 0.984 . S
N697 C690 1.356 . S
N697 H700 0.984 . S
N697 H701 0.985 . S
H698 N693 0.984 . S
H699 N693 0.985 . S
H700 N697 0.984 . S
H701 N697 0.985 . S
H702 N696 0.984 . S
H703 N696 0.984 . S
H704 N692 0.984 . S
H705 N692 0.985 . S
C706 C707 1.363 . S
C706 C712 1.379 . S
C706 N714 1.356 . S
C707 C706 1.363 . S
C707 C713 1.363 . S
C708 C709 1.363 . S
C708 C713 1.379 . S
C708 N715 1.356 . S
C709 C708 1.363 . S
C709 C712 1.363 . S
N710 C712 1.356 . S
N710 H722 0.984 . S
N710 H723 0.985 . S
N711 C713 1.356 . S
N711 H716 0.984 . S
N711 H717 0.985 . S
C712 C706 1.379 . S
C712 C709 1.363 . S
C712 N710 1.356 . S
C713 C707 1.363 . S
C713 C708 1.379 . S
C713 N711 1.356 . S
N714 C706 1.356 . S
N714 H720 0.984 . S
N714 H721 0.984 . S
N715 C708 1.356 . S
N715 H718 0.984 . S
N715 H719 0.985 . S
H716 N711 0.984 . S
H717 N711 0.985 . S
H718 N715 0.984 . S
H719 N715 0.985 . S
H720 N714 0.984 . S
H721 N714 0.984 . S
H722 N710 0.984 . S
H723 N710 0.985 . S
C724 C725 1.363 . S
C724 C730 1.379 . S
C724 N732 1.356 . S
C725 C724 1.363 . S
C725 C731 1.363 . S
C726 C727 1.363 . S
C726 C731 1.379 . S
C726 N733 1.356 . S
C727 C726 1.363 . S
C727 C730 1.363 . S
N728 C730 1.356 . S
N728 H740 0.984 . S
N728 H741 0.985 . S
N729 C731 1.356 . S
N729 H734 0.984 . S
N729 H735 0.985 . S
C730 C724 1.379 . S
C730 C727 1.363 . S
C730 N728 1.356 . S
C731 C725 1.363 . S
C731 C726 1.379 . S
C731 N729 1.356 . S
N732 C724 1.356 . S
N732 H738 0.984 . S
N732 H739 0.984 . S
N733 C726 1.356 . S
N733 H736 0.984 . S
N733 H737 0.985 . S
H734 N729 0.984 . S
H735 N729 0.985 . S
H736 N733 0.984 . S
H737 N733 0.985 . S
H738 N732 0.984 . S
H739 N732 0.984 . S
H740 N728 0.984 . S
H741 N728 0.985 . S
C742 C743 1.363 . S
C742 C748 1.379 . S
C742 N750 1.356 . S
C743 C742 1.363 . S
C743 C749 1.363 . S
C744 C745 1.363 . S
C744 C749 1.379 . S
C744 N751 1.356 . S
C745 C744 1.363 . S
C745 C748 1.363 . S
N746 C748 1.356 . S
N746 H758 0.984 . S
N746 H759 0.985 . S
N747 C749 1.356 . S
N747 H752 0.984 . S
N747 H753 0.985 . S
C748 C742 1.379 . S
C748 C745 1.363 . S
C748 N746 1.356 . S
C749 C743 1.363 . S
C749 C744 1.379 . S
C749 N747 1.356 . S
N750 C742 1.356 . S
N750 H756 0.984 . S
N750 H757 0.984 . S
N751 C744 1.356 . S
N751 H754 0.984 . S
N751 H755 0.985 . S
H752 N747 0.984 . S
H753 N747 0.985 . S
H754 N751 0.984 . S
H755 N751 0.985 . S
H756 N750 0.984 . S
H757 N750 0.984 . S
H758 N746 0.984 . S
H759 N746 0.985 . S
C760 C761 1.363 . S
C760 C766 1.379 . S
C760 N768 1.356 . S
C761 C760 1.363 . S
C761 C767 1.363 . S
C762 C763 1.363 . S
C762 C767 1.379 . S
C762 N769 1.356 . S
C763 C762 1.363 . S
C763 C766 1.363 . S
N764 C766 1.356 . S
N764 H776 0.984 . S
N764 H777 0.985 . S
N765 C767 1.356 . S
N765 H770 0.984 . S
N765 H771 0.985 . S
C766 C760 1.379 . S
C766 C763 1.363 . S
C766 N764 1.356 . S
C767 C761 1.363 . S
C767 C762 1.379 . S
C767 N765 1.356 . S
N768 C760 1.356 . S
N768 H774 0.984 . S
N768 H775 0.984 . S
N769 C762 1.356 . S
N769 H772 0.984 . S
N769 H773 0.985 . S
H770 N765 0.984 . S
H771 N765 0.985 . S
H772 N769 0.984 . S
H773 N769 0.985 . S
H774 N768 0.984 . S
H775 N768 0.984 . S
H776 N764 0.984 . S
H777 N764 0.985 . S
C778 C779 1.363 . S
C778 C784 1.379 . S
C778 N786 1.356 . S
C779 C778 1.363 . S
C779 C785 1.363 . S
C780 C781 1.363 . S
C780 C785 1.379 . S
C780 N787 1.356 . S
C781 C780 1.363 . S
C781 C784 1.363 . S
N782 C784 1.356 . S
N782 H794 0.984 . S
N782 H795 0.985 . S
N783 C785 1.356 . S
N783 H788 0.984 . S
N783 H789 0.985 . S
C784 C778 1.379 . S
C784 C781 1.363 . S
C784 N782 1.356 . S
C785 C779 1.363 . S
C785 C780 1.379 . S
C785 N783 1.356 . S
N786 C778 1.356 . S
N786 H792 0.984 . S
N786 H793 0.984 . S
N787 C780 1.356 . S
N787 H790 0.984 . S
N787 H791 0.985 . S
H788 N783 0.984 . S
H789 N783 0.985 . S
H790 N787 0.984 . S
H791 N787 0.985 . S
H792 N786 0.984 . S
H793 N786 0.984 . S
H794 N782 0.984 . S
H795 N782 0.985 . S
C796 C797 1.363 . S
C796 C802 1.379 . S
C796 N804 1.356 . S
C797 C796 1.363 . S
C797 C803 1.363 . S
C798 C799 1.363 . S
C798 C803 1.379 . S
C798 N805 1.356 . S
C799 C798 1.363 . S
C799 C802 1.363 . S
N800 C802 1.356 . S
N800 H812 0.984 . S
N800 H813 0.985 . S
N801 C803 1.356 . S
N801 H806 0.984 . S
N801 H807 0.985 . S
C802 C796 1.379 . S
C802 C799 1.363 . S
C802 N800 1.356 . S
C803 C797 1.363 . S
C803 C798 1.379 . S
C803 N801 1.356 . S
N804 C796 1.356 . S
N804 H810 0.984 . S
N804 H811 0.984 . S
N805 C798 1.356 . S
N805 H808 0.984 . S
N805 H809 0.985 . S
H806 N801 0.984 . S
H807 N801 0.985 . S
H808 N805 0.984 . S
H809 N805 0.985 . S
H810 N804 0.984 . S
H811 N804 0.984 . S
H812 N800 0.984 . S
H813 N800 0.985 . S
C814 C815 1.363 . S
C814 C820 1.379 . S
C814 N822 1.356 . S
C815 C814 1.363 . S
C815 C821 1.363 . S
C816 C817 1.363 . S
C816 C821 1.379 . S
C816 N823 1.356 . S
C817 C816 1.363 . S
C817 C820 1.363 . S
N818 C820 1.356 . S
N818 H830 0.984 . S
N818 H831 0.985 . S
N819 C821 1.356 . S
N819 H824 0.984 . S
N819 H825 0.985 . S
C820 C814 1.379 . S
C820 C817 1.363 . S
C820 N818 1.356 . S
C821 C815 1.363 . S
C821 C816 1.379 . S
C821 N819 1.356 . S
N822 C814 1.356 . S
N822 H828 0.984 1_554 S
N822 H829 0.984 . S
N823 C816 1.356 . S
N823 H826 0.984 . S
N823 H827 0.985 . S
H824 N819 0.984 . S
H825 N819 0.985 . S
H826 N823 0.984 . S
H827 N823 0.985 . S
H828 N822 0.984 1_556 S
H829 N822 0.984 . S
H830 N818 0.984 . S
H831 N818 0.985 . S
C832 C833 1.363 . S
C832 C838 1.379 1_455 S
C832 N840 1.356 . S
C833 C832 1.363 . S
C833 C839 1.363 1_545 S
C834 C835 1.363 . S
C834 C839 1.379 1_655 S
C834 N841 1.356 . S
C835 C834 1.363 . S
C835 C838 1.363 1_565 S
N836 C838 1.356 1_565 S
N836 H848 0.984 1_565 S
N836 H849 0.985 . S
N837 C839 1.356 1_545 S
N837 H842 0.984 . S
N837 H843 0.985 1_545 S
C838 C832 1.379 1_655 S
C838 C835 1.363 1_545 S
C838 N836 1.356 1_545 S
C839 C833 1.363 1_565 S
C839 C834 1.379 1_455 S
C839 N837 1.356 1_565 S
N840 C832 1.356 . S
N840 H846 0.984 . S
N840 H847 0.984 . S
N841 C834 1.356 . S
N841 H844 0.984 . S
N841 H845 0.985 . S
H842 N837 0.984 . S
H843 N837 0.985 1_565 S
H844 N841 0.984 . S
H845 N841 0.985 . S
H846 N840 0.984 . S
H847 N840 0.984 . S
H848 N836 0.984 1_545 S
H849 N836 0.985 . S
C850 C851 1.363 . S
C850 C856 1.379 1_565 S
C850 N858 1.356 . S
C851 C850 1.363 . S
C851 C857 1.363 1_455 S
C852 C853 1.363 . S
C852 C857 1.379 1_545 S
C852 N859 1.356 . S
C853 C852 1.363 . S
C853 C856 1.363 1_655 S
N854 C856 1.356 1_655 S
N854 H866 0.984 1_655 S
N854 H867 0.985 . S
N855 C857 1.356 1_455 S
N855 H860 0.984 . S
N855 H861 0.985 1_455 S
C856 C850 1.379 1_545 S
C856 C853 1.363 1_455 S
C856 N854 1.356 1_455 S
C857 C851 1.363 1_655 S
C857 C852 1.379 1_565 S
C857 N855 1.356 1_655 S
N858 C850 1.356 . S
N858 H864 0.984 . S
N858 H865 0.984 . S
N859 C852 1.356 . S
N859 H862 0.984 . S
N859 H863 0.985 . S
H860 N855 0.984 . S
H861 N855 0.985 1_655 S
H862 N859 0.984 . S
H863 N859 0.985 . S
H864 N858 0.984 . S
H865 N858 0.984 . S
H866 N854 0.984 1_455 S
H867 N854 0.985 . S
C868 C869 1.363 1_556 S
C868 C874 1.379 1_455 S
C868 N876 1.356 . S
C869 C868 1.363 1_554 S
C869 C875 1.363 . S
C870 C871 1.363 . S
C870 C875 1.379 1_655 S
C870 N877 1.356 . S
C871 C870 1.363 . S
C871 C874 1.363 1_554 S
N872 C874 1.356 . S
N872 H884 0.984 . S
N872 H885 0.985 . S
N873 C875 1.356 . S
N873 H878 0.984 . S
N873 H879 0.985 . S
C874 C868 1.379 1_655 S
C874 C871 1.363 1_556 S
C874 N872 1.356 . S
C875 C869 1.363 . S
C875 C870 1.379 1_455 S
C875 N873 1.356 . S
N876 C868 1.356 . S
N876 H882 0.984 . S
N876 H883 0.984 . S
N877 C870 1.356 . S
N877 H880 0.984 . S
N877 H881 0.985 . S
H878 N873 0.984 . S
H879 N873 0.985 . S
H880 N877 0.984 . S
H881 N877 0.985 . S
H882 N876 0.984 . S
H883 N876 0.984 . S
H884 N872 0.984 . S
H885 N872 0.985 . S
C886 C887 1.363 . S
C886 C892 1.379 1_565 S
C886 N894 1.356 . S
C887 C886 1.363 . S
C887 C893 1.363 1_556 S
C888 C889 1.363 1_554 S
C888 C893 1.379 1_545 S
C888 N895 1.356 . S
C889 C888 1.363 1_556 S
C889 C892 1.363 . S
N890 C892 1.356 . S
N890 H902 0.984 . S
N890 H903 0.985 . S
N891 C893 1.356 . S
N891 H896 0.984 . S
N891 H897 0.985 . S
C892 C886 1.379 1_545 S
C892 C889 1.363 . S
C892 N890 1.356 . S
C893 C887 1.363 1_554 S
C893 C888 1.379 1_565 S
C893 N891 1.356 . S
N894 C886 1.356 . S
N894 H900 0.984 . S
N894 H901 0.984 . S
N895 C888 1.356 . S
N895 H898 0.984 . S
N895 H899 0.985 . S
H896 N891 0.984 . S
H897 N891 0.985 . S
H898 N895 0.984 . S
H899 N895 0.985 . S
H900 N894 0.984 . S
H901 N894 0.984 . S
H902 N890 0.984 . S
H903 N890 0.985 . S
C904 C905 1.363 . S
C904 C910 1.379 . S
C904 N912 1.356 . S
C905 C904 1.363 . S
C905 C911 1.363 . S
C906 C907 1.363 . S
C906 C911 1.379 . S
C906 N913 1.356 . S
C907 C906 1.363 . S
C907 C910 1.363 . S
N908 C910 1.356 . S
N908 H920 0.984 . S
N908 H921 0.985 . S
N909 C911 1.356 . S
N909 H914 0.984 . S
N909 H915 0.985 . S
C910 C904 1.379 . S
C910 C907 1.363 . S
C910 N908 1.356 . S
C911 C905 1.363 . S
C911 C906 1.379 . S
C911 N909 1.356 . S
N912 C904 1.356 . S
N912 H918 0.984 . S
N912 H919 0.984 . S
N913 C906 1.356 . S
N913 H916 0.984 . S
N913 H917 0.985 . S
H914 N909 0.984 . S
H915 N909 0.985 . S
H916 N913 0.984 . S
H917 N913 0.985 . S
H918 N912 0.984 . S
H919 N912 0.984 . S
H920 N908 0.984 . S
H921 N908 0.985 . S
C922 C923 1.363 . S
C922 C928 1.379 . S
C922 N930 1.356 . S
C923 C922 1.363 . S
C923 C929 1.363 . S
C924 C925 1.363 . S
C924 C929 1.379 . S
C924 N931 1.356 . S
C925 C924 1.363 . S
C925 C928 1.363 . S
N926 C928 1.356 . S
N926 H938 0.984 . S
N926 H939 0.985 . S
N927 C929 1.356 . S
N927 H932 0.984 . S
N927 H933 0.985 . S
C928 C922 1.379 . S
C928 C925 1.363 . S
C928 N926 1.356 . S
C929 C923 1.363 . S
C929 C924 1.379 . S
C929 N927 1.356 . S
N930 C922 1.356 . S
N930 H936 0.984 . S
N930 H937 0.984 . S
N931 C924 1.356 . S
N931 H934 0.984 . S
N931 H935 0.985 . S
H932 N927 0.984 . S
H933 N927 0.985 . S
H934 N931 0.984 . S
H935 N931 0.985 . S
H936 N930 0.984 . S
H937 N930 0.984 . S
H938 N926 0.984 . S
H939 N926 0.985 . S
C940 C941 1.363 . S
C940 C946 1.379 . S
C940 N948 1.356 . S
C941 C940 1.363 . S
C941 C947 1.363 1_565 S
C942 C943 1.363 . S
C942 C947 1.379 . S
C942 N949 1.356 . S
C943 C942 1.363 . S
C943 C946 1.363 1_545 S
N944 C946 1.356 1_545 S
N944 H956 0.984 1_545 S
N944 H957 0.985 . S
N945 C947 1.356 1_565 S
N945 H950 0.984 . S
N945 H951 0.985 1_565 S
C946 C940 1.379 . S
C946 C943 1.363 1_565 S
C946 N944 1.356 1_565 S
C947 C941 1.363 1_545 S
C947 C942 1.379 . S
C947 N945 1.356 1_545 S
N948 C940 1.356 . S
N948 H954 0.984 . S
N948 H955 0.984 . S
N949 C942 1.356 . S
N949 H952 0.984 . S
N949 H953 0.985 . S
H950 N945 0.984 . S
H951 N945 0.985 1_545 S
H952 N949 0.984 . S
H953 N949 0.985 . S
H954 N948 0.984 . S
H955 N948 0.984 . S
H956 N944 0.984 1_565 S
H957 N944 0.985 . S
C958 C959 1.363 . S
C958 C964 1.379 . S
C958 N966 1.356 . S
C959 C958 1.363 . S
C959 C965 1.363 1_655 S
C960 C961 1.363 . S
C960 C965 1.379 . S
C960 N967 1.356 . S
C961 C960 1.363 . S
C961 C964 1.363 1_455 S
N962 C964 1.356 1_455 S
N962 H974 0.984 1_455 S
N962 H975 0.985 . S
N963 C965 1.356 1_655 S
N963 H968 0.984 . S
N963 H969 0.985 1_655 S
C964 C958 1.379 . S
C964 C961 1.363 1_655 S
C964 N962 1.356 1_655 S
C965 C959 1.363 1_455 S
C965 C960 1.379 . S
C965 N963 1.356 1_455 S
N966 C958 1.356 . S
N966 H972 0.984 . S
N966 H973 0.984 . S
N967 C960 1.356 . S
N967 H970 0.984 . S
N967 H971 0.985 . S
H968 N963 0.984 . S
H969 N963 0.985 1_455 S
H970 N967 0.984 . S
H971 N967 0.985 . S
H972 N966 0.984 . S
H973 N966 0.984 . S
H974 N962 0.984 1_655 S
H975 N962 0.985 . S
C976 C977 1.363 . S
C976 C982 1.379 . S
C976 N984 1.356 . S
C977 C976 1.363 . S
C977 C983 1.363 . S
C978 C979 1.363 . S
C978 C983 1.379 . S
C978 N985 1.356 1_565 S
C979 C978 1.363 . S
C979 C982 1.363 . S
N980 C982 1.356 . S
N980 H992 0.984 . S
N980 H993 0.985 . S
N981 C983 1.356 . S
N981 H986 0.984 . S
N981 H987 0.985 1_565 S
C982 C976 1.379 . S
C982 C979 1.363 . S
C982 N980 1.356 . S
C983 C977 1.363 . S
C983 C978 1.379 . S
C983 N981 1.356 . S
N984 C976 1.356 . S
N984 H990 0.984 . S
N984 H991 0.984 . S
N985 C978 1.356 1_545 S
N985 H988 0.984 . S
N985 H989 0.985 . S
H986 N981 0.984 . S
H987 N981 0.985 1_545 S
H988 N985 0.984 . S
H989 N985 0.985 . S
H990 N984 0.984 . S
H991 N984 0.984 . S
H992 N980 0.984 . S
H993 N980 0.985 . S
C994 C995 1.363 . S
C994 C1000 1.379 . S
C994 N1002 1.356 . S
C995 C994 1.363 . S
C995 C1001 1.363 . S
C996 C997 1.363 . S
C996 C1001 1.379 . S
C996 N1003 1.356 . S
C997 C996 1.363 . S
C997 C1000 1.363 . S
N998 C1000 1.356 . S
N998 H1010 0.984 . S
N998 H1011 0.985 . S
N999 C1001 1.356 . S
N999 H1004 0.984 . S
N999 H1005 0.985 1_655 S
C1000 C994 1.379 . S
C1000 C997 1.363 . S
C1000 N998 1.356 . S
C1001 C995 1.363 . S
C1001 C996 1.379 . S
C1001 N999 1.356 . S
N1002 C994 1.356 . S
N1002 H1008 0.984 . S
N1002 H1009 0.984 . S
N1003 C996 1.356 . S
N1003 H1006 0.984 . S
N1003 H1007 0.985 . S
H1004 N999 0.984 . S
H1005 N999 0.985 1_455 S
H1006 N1003 0.984 . S
H1007 N1003 0.985 . S
H1008 N1002 0.984 . S
H1009 N1002 0.984 . S
H1010 N998 0.984 . S
H1011 N998 0.985 . S
C1012 C1013 1.363 . S
C1012 C1018 1.379 . S
C1012 N1020 1.356 . S
C1013 C1012 1.363 . S
C1013 C1019 1.363 . S
C1014 C1015 1.363 . S
C1014 C1019 1.379 . S
C1014 N1021 1.356 1_545 S
C1015 C1014 1.363 . S
C1015 C1018 1.363 . S
N1016 C1018 1.356 . S
N1016 H1028 0.984 . S
N1016 H1029 0.985 . S
N1017 C1019 1.356 . S
N1017 H1022 0.984 . S
N1017 H1023 0.985 1_545 S
C1018 C1012 1.379 . S
C1018 C1015 1.363 . S
C1018 N1016 1.356 . S
C1019 C1013 1.363 . S
C1019 C1014 1.379 . S
C1019 N1017 1.356 . S
N1020 C1012 1.356 . S
N1020 H1026 0.984 . S
N1020 H1027 0.984 . S
N1021 C1014 1.356 1_565 S
N1021 H1024 0.984 . S
N1021 H1025 0.985 . S
H1022 N1017 0.984 . S
H1023 N1017 0.985 1_565 S
H1024 N1021 0.984 . S
H1025 N1021 0.985 . S
H1026 N1020 0.984 . S
H1027 N1020 0.984 . S
H1028 N1016 0.984 . S
H1029 N1016 0.985 . S
C1030 C1031 1.363 . S
C1030 C1036 1.379 . S
C1030 N1038 1.356 . S
C1031 C1030 1.363 . S
C1031 C1037 1.363 . S
C1032 C1033 1.363 . S
C1032 C1037 1.379 . S
C1032 N1039 1.356 . S
C1033 C1032 1.363 . S
C1033 C1036 1.363 . S
N1034 C1036 1.356 . S
N1034 H1046 0.984 . S
N1034 H1047 0.985 . S
N1035 C1037 1.356 . S
N1035 H1040 0.984 . S
N1035 H1041 0.985 . S
C1036 C1030 1.379 . S
C1036 C1033 1.363 . S
C1036 N1034 1.356 . S
C1037 C1031 1.363 . S
C1037 C1032 1.379 . S
C1037 N1035 1.356 . S
N1038 C1030 1.356 . S
N1038 H1044 0.984 1_455 S
N1038 H1045 0.984 . S
N1039 C1032 1.356 . S
N1039 H1042 0.984 . S
N1039 H1043 0.985 . S
H1040 N1035 0.984 . S
H1041 N1035 0.985 . S
H1042 N1039 0.984 . S
H1043 N1039 0.985 . S
H1044 N1038 0.984 1_655 S
H1045 N1038 0.984 . S
H1046 N1034 0.984 . S
H1047 N1034 0.985 . S
C1048 C1049 1.363 . S
C1048 C1054 1.379 . S
C1048 N1056 1.356 . S
C1049 C1048 1.363 . S
C1049 C1055 1.363 . S
C1050 C1051 1.363 . S
C1050 C1055 1.379 . S
C1050 N1057 1.356 . S
C1051 C1050 1.363 . S
C1051 C1054 1.363 . S
N1052 C1054 1.356 . S
N1052 H1064 0.984 . S
N1052 H1065 0.985 . S
N1053 C1055 1.356 . S
N1053 H1058 0.984 . S
N1053 H1059 0.985 . S
C1054 C1048 1.379 . S
C1054 C1051 1.363 . S
C1054 N1052 1.356 . S
C1055 C1049 1.363 . S
C1055 C1050 1.379 . S
C1055 N1053 1.356 . S
N1056 C1048 1.356 . S
N1056 H1062 0.984 . S
N1056 H1063 0.984 . S
N1057 C1050 1.356 . S
N1057 H1060 0.984 . S
N1057 H1061 0.985 . S
H1058 N1053 0.984 . S
H1059 N1053 0.985 . S
H1060 N1057 0.984 . S
H1061 N1057 0.985 . S
H1062 N1056 0.984 . S
H1063 N1056 0.984 . S
H1064 N1052 0.984 . S
H1065 N1052 0.985 . S
C1066 C1067 1.363 . S
C1066 C1072 1.379 . S
C1066 N1074 1.356 . S
C1067 C1066 1.363 . S
C1067 C1073 1.363 . S
C1068 C1069 1.363 . S
C1068 C1073 1.379 . S
C1068 N1075 1.356 . S
C1069 C1068 1.363 . S
C1069 C1072 1.363 . S
N1070 C1072 1.356 . S
N1070 H1082 0.984 . S
N1070 H1083 0.985 . S
N1071 C1073 1.356 . S
N1071 H1076 0.984 . S
N1071 H1077 0.985 . S
C1072 C1066 1.379 . S
C1072 C1069 1.363 . S
C1072 N1070 1.356 . S
C1073 C1067 1.363 . S
C1073 C1068 1.379 . S
C1073 N1071 1.356 . S
N1074 C1066 1.356 . S
N1074 H1080 0.984 . S
N1074 H1081 0.984 . S
N1075 C1068 1.356 . S
N1075 H1078 0.984 . S
N1075 H1079 0.985 . S
H1076 N1071 0.984 . S
H1077 N1071 0.985 . S
H1078 N1075 0.984 . S
H1079 N1075 0.985 . S
H1080 N1074 0.984 . S
H1081 N1074 0.984 . S
H1082 N1070 0.984 . S
H1083 N1070 0.985 . S
C1084 C1085 1.363 . S
C1084 C1090 1.379 . S
C1084 N1092 1.356 . S
C1085 C1084 1.363 . S
C1085 C1091 1.363 . S
C1086 C1087 1.363 . S
C1086 C1091 1.379 . S
C1086 N1093 1.356 . S
C1087 C1086 1.363 . S
C1087 C1090 1.363 . S
N1088 C1090 1.356 . S
N1088 H1100 0.984 . S
N1088 H1101 0.985 . S
N1089 C1091 1.356 . S
N1089 H1094 0.984 . S
N1089 H1095 0.985 . S
C1090 C1084 1.379 . S
C1090 C1087 1.363 . S
C1090 N1088 1.356 . S
C1091 C1085 1.363 . S
C1091 C1086 1.379 . S
C1091 N1089 1.356 . S
N1092 C1084 1.356 . S
N1092 H1098 0.984 . S
N1092 H1099 0.984 . S
N1093 C1086 1.356 . S
N1093 H1096 0.984 . S
N1093 H1097 0.985 . S
H1094 N1089 0.984 . S
H1095 N1089 0.985 . S
H1096 N1093 0.984 . S
H1097 N1093 0.985 . S
H1098 N1092 0.984 . S
H1099 N1092 0.984 . S
H1100 N1088 0.984 . S
H1101 N1088 0.985 . S
C1102 C1103 1.363 . S
C1102 C1108 1.379 . S
C1102 N1110 1.356 . S
C1103 C1102 1.363 . S
C1103 C1109 1.363 . S
C1104 C1105 1.363 . S
C1104 C1109 1.379 . S
C1104 N1111 1.356 . S
C1105 C1104 1.363 . S
C1105 C1108 1.363 . S
N1106 C1108 1.356 . S
N1106 H1118 0.984 . S
N1106 H1119 0.985 . S
N1107 C1109 1.356 . S
N1107 H1112 0.984 . S
N1107 H1113 0.985 . S
C1108 C1102 1.379 . S
C1108 C1105 1.363 . S
C1108 N1106 1.356 . S
C1109 C1103 1.363 . S
C1109 C1104 1.379 . S
C1109 N1107 1.356 . S
N1110 C1102 1.356 . S
N1110 H1116 0.984 . S
N1110 H1117 0.984 . S
N1111 C1104 1.356 . S
N1111 H1114 0.984 . S
N1111 H1115 0.985 . S
H1112 N1107 0.984 . S
H1113 N1107 0.985 . S
H1114 N1111 0.984 . S
H1115 N1111 0.985 . S
H1116 N1110 0.984 . S
H1117 N1110 0.984 . S
H1118 N1106 0.984 . S
H1119 N1106 0.985 . S
C1120 C1121 1.363 . S
C1120 C1126 1.379 1_556 S
C1120 N1128 1.356 . S
C1121 C1120 1.363 . S
C1121 C1127 1.363 . S
C1122 C1123 1.363 . S
C1122 C1127 1.379 1_554 S
C1122 N1129 1.356 . S
C1123 C1122 1.363 . S
C1123 C1126 1.363 . S
N1124 C1126 1.356 . S
N1124 H1136 0.984 . S
N1124 H1137 0.985 . S
N1125 C1127 1.356 . S
N1125 H1130 0.984 . S
N1125 H1131 0.985 . S
C1126 C1120 1.379 1_554 S
C1126 C1123 1.363 . S
C1126 N1124 1.356 . S
C1127 C1121 1.363 . S
C1127 C1122 1.379 1_556 S
C1127 N1125 1.356 . S
N1128 C1120 1.356 . S
N1128 H1134 0.984 . S
N1128 H1135 0.984 . S
N1129 C1122 1.356 . S
N1129 H1132 0.984 . S
N1129 H1133 0.985 . S
H1130 N1125 0.984 . S
H1131 N1125 0.985 . S
H1132 N1129 0.984 . S
H1133 N1129 0.985 . S
H1134 N1128 0.984 . S
H1135 N1128 0.984 . S
H1136 N1124 0.984 . S
H1137 N1124 0.985 . S
C1138 C1139 1.363 . S
C1138 C1144 1.379 1_556 S
C1138 N1146 1.356 . S
C1139 C1138 1.363 . S
C1139 C1145 1.363 . S
C1140 C1141 1.363 . S
C1140 C1145 1.379 1_554 S
C1140 N1147 1.356 . S
C1141 C1140 1.363 . S
C1141 C1144 1.363 . S
N1142 C1144 1.356 . S
N1142 H1154 0.984 . S
N1142 H1155 0.985 . S
N1143 C1145 1.356 . S
N1143 H1148 0.984 . S
N1143 H1149 0.985 . S
C1144 C1138 1.379 1_554 S
C1144 C1141 1.363 . S
C1144 N1142 1.356 . S
C1145 C1139 1.363 . S
C1145 C1140 1.379 1_556 S
C1145 N1143 1.356 . S
N1146 C1138 1.356 . S
N1146 H1152 0.984 . S
N1146 H1153 0.984 . S
N1147 C1140 1.356 . S
N1147 H1150 0.984 . S
N1147 H1151 0.985 . S
H1148 N1143 0.984 . S
H1149 N1143 0.985 . S
H1150 N1147 0.984 . S
H1151 N1147 0.985 . S
H1152 N1146 0.984 . S
H1153 N1146 0.984 . S
H1154 N1142 0.984 . S
H1155 N1142 0.985 . S
C1156 C1157 1.363 . S
C1156 C1162 1.379 1_556 S
C1156 N1164 1.356 . S
C1157 C1156 1.363 . S
C1157 C1163 1.363 . S
C1158 C1159 1.363 . S
C1158 C1163 1.379 1_554 S
C1158 N1165 1.356 . S
C1159 C1158 1.363 . S
C1159 C1162 1.363 . S
N1160 C1162 1.356 . S
N1160 H1172 0.984 . S
N1160 H1173 0.985 . S
N1161 C1163 1.356 . S
N1161 H1166 0.984 . S
N1161 H1167 0.985 . S
C1162 C1156 1.379 1_554 S
C1162 C1159 1.363 . S
C1162 N1160 1.356 . S
C1163 C1157 1.363 . S
C1163 C1158 1.379 1_556 S
C1163 N1161 1.356 . S
N1164 C1156 1.356 . S
N1164 H1170 0.984 . S
N1164 H1171 0.984 . S
N1165 C1158 1.356 . S
N1165 H1168 0.984 . S
N1165 H1169 0.985 . S
H1166 N1161 0.984 . S
H1167 N1161 0.985 . S
H1168 N1165 0.984 . S
H1169 N1165 0.985 . S
H1170 N1164 0.984 . S
H1171 N1164 0.984 . S
H1172 N1160 0.984 . S
H1173 N1160 0.985 . S
C1174 C1175 1.363 . S
C1174 C1180 1.379 1_554 S
C1174 N1182 1.356 . S
C1175 C1174 1.363 . S
C1175 C1181 1.363 . S
C1176 C1177 1.363 . S
C1176 C1181 1.379 1_556 S
C1176 N1183 1.356 . S
C1177 C1176 1.363 . S
C1177 C1180 1.363 . S
N1178 C1180 1.356 . S
N1178 H1190 0.984 . S
N1178 H1191 0.985 . S
N1179 C1181 1.356 . S
N1179 H1184 0.984 . S
N1179 H1185 0.985 . S
C1180 C1174 1.379 1_556 S
C1180 C1177 1.363 . S
C1180 N1178 1.356 . S
C1181 C1175 1.363 . S
C1181 C1176 1.379 1_554 S
C1181 N1179 1.356 . S
N1182 C1174 1.356 . S
N1182 H1188 0.984 . S
N1182 H1189 0.984 . S
N1183 C1176 1.356 . S
N1183 H1186 0.984 . S
N1183 H1187 0.985 . S
H1184 N1179 0.984 . S
H1185 N1179 0.985 . S
H1186 N1183 0.984 . S
H1187 N1183 0.985 . S
H1188 N1182 0.984 . S
H1189 N1182 0.984 . S
H1190 N1178 0.984 . S
H1191 N1178 0.985 . S
C1192 C1193 1.363 . S
C1192 C1198 1.379 . S
C1192 N1200 1.356 . S
C1193 C1192 1.363 . S
C1193 C1199 1.363 . S
C1194 C1195 1.363 . S
C1194 C1199 1.379 . S
C1194 N1201 1.356 . S
C1195 C1194 1.363 . S
C1195 C1198 1.363 . S
N1196 C1198 1.356 . S
N1196 H1208 0.969 1_545 S
N1196 H1209 0.985 . S
N1197 C1199 1.356 . S
N1197 H1202 0.984 . S
N1197 H1203 0.985 . S
C1198 C1192 1.379 . S
C1198 C1195 1.363 . S
C1198 N1196 1.356 . S
C1199 C1193 1.363 . S
C1199 C1194 1.379 . S
C1199 N1197 1.356 . S
N1200 C1192 1.356 . S
N1200 H1206 0.984 . S
N1200 H1207 0.984 . S
N1201 C1194 1.356 . S
N1201 H1204 0.984 . S
N1201 H1205 0.985 . S
H1202 N1197 0.984 . S
H1203 N1197 0.985 . S
H1204 N1201 0.984 . S
H1205 N1201 0.985 . S
H1206 N1200 0.984 . S
H1207 N1200 0.984 . S
H1208 N1196 0.969 1_565 S
H1209 N1196 0.985 . S
C1210 C1211 1.363 . S
C1210 C1216 1.379 . S
C1210 N1218 1.356 . S
C1211 C1210 1.363 . S
C1211 C1217 1.363 . S
C1212 C1213 1.363 . S
C1212 C1217 1.379 . S
C1212 N1219 1.356 . S
C1213 C1212 1.363 . S
C1213 C1216 1.363 . S
N1214 C1216 1.356 . S
N1214 H1226 0.985 . S
N1214 H1227 0.985 . S
N1215 C1217 1.356 . S
N1215 H1220 0.984 . S
N1215 H1221 0.985 . S
C1216 C1210 1.379 . S
C1216 C1213 1.363 . S
C1216 N1214 1.356 . S
C1217 C1211 1.363 . S
C1217 C1212 1.379 . S
C1217 N1215 1.356 . S
N1218 C1210 1.356 . S
N1218 H1224 0.984 1_455 S
N1218 H1225 0.984 . S
N1219 C1212 1.356 . S
N1219 H1222 0.984 . S
N1219 H1223 0.985 . S
H1220 N1215 0.984 . S
H1221 N1215 0.985 . S
H1222 N1219 0.984 . S
H1223 N1219 0.985 . S
H1224 N1218 0.984 1_655 S
H1225 N1218 0.984 . S
H1226 N1214 0.985 . S
H1227 N1214 0.985 . S
C1228 C1229 1.363 . S
C1228 C1234 1.379 . S
C1228 N1236 1.356 . S
C1229 C1228 1.363 . S
C1229 C1235 1.363 . S
C1230 C1231 1.363 . S
C1230 C1235 1.379 . S
C1230 N1237 1.356 . S
C1231 C1230 1.363 . S
C1231 C1234 1.363 . S
N1232 C1234 1.356 . S
N1232 H1244 0.984 . S
N1232 H1245 0.985 . S
N1233 C1235 1.356 1_545 S
N1233 H1238 0.985 1_545 S
N1233 H1239 0.985 . S
C1234 C1228 1.379 . S
C1234 C1231 1.363 . S
C1234 N1232 1.356 . S
C1235 C1229 1.363 . S
C1235 C1230 1.379 . S
C1235 N1233 1.356 1_565 S
N1236 C1228 1.356 . S
N1236 H1242 0.984 . S
N1236 H1243 0.984 . S
N1237 C1230 1.356 . S
N1237 H1240 0.984 . S
N1237 H1241 0.985 1_565 S
H1238 N1233 0.985 1_565 S
H1239 N1233 0.985 . S
H1240 N1237 0.984 . S
H1241 N1237 0.985 1_545 S
H1242 N1236 0.984 . S
H1243 N1236 0.984 . S
H1244 N1232 0.984 . S
H1245 N1232 0.985 . S
C1246 C1247 1.363 . S
C1246 C1252 1.379 . S
C1246 N1254 1.356 . S
C1247 C1246 1.363 . S
C1247 C1253 1.363 . S
C1248 C1249 1.363 . S
C1248 C1253 1.379 . S
C1248 N1255 1.356 . S
C1249 C1248 1.363 . S
C1249 C1252 1.363 . S
N1250 C1252 1.356 . S
N1250 H1262 0.984 . S
N1250 H1263 0.985 . S
N1251 C1253 1.356 . S
N1251 H1256 0.984 . S
N1251 H1257 0.985 . S
C1252 C1246 1.379 . S
C1252 C1249 1.363 . S
C1252 N1250 1.356 . S
C1253 C1247 1.363 . S
C1253 C1248 1.379 . S
C1253 N1251 1.356 . S
N1254 C1246 1.356 . S
N1254 H1260 0.984 . S
N1254 H1261 0.984 . S
N1255 C1248 1.356 . S
N1255 H1258 0.984 . S
N1255 H1259 0.985 . S
H1256 N1251 0.984 . S
H1257 N1251 0.985 . S
H1258 N1255 0.984 . S
H1259 N1255 0.985 . S
H1260 N1254 0.984 . S
H1261 N1254 0.984 . S
H1262 N1250 0.984 . S
H1263 N1250 0.985 . S
C545 C145 1.905 . S
C547 C9 1.905 . S
C563 C43 1.905 . S
C565 C179 1.905 . S
C581 C77 1.905 . S
C583 C213 1.905 . S
C599 C111 1.905 . S
C601 C247 1.905 . S
C617 C281 1.905 . S
C619 C417 1.905 . S
C635 C451 1.905 . S
C637 C315 1.905 . S
C653 C485 1.905 . S
C655 C349 1.905 . S
C671 C383 1.905 . S
C673 C519 1.905 . S
C689 C20 1.325 . S
C691 C496 1.325 . S
C707 C54 1.325 . S
C709 C530 1.325 . S
C725 C88 1.325 . S
C727 C428 1.325 . S
C743 C462 1.325 . S
C745 C122 1.325 . S
C761 C360 1.325 . S
C763 C156 1.325 . S
C779 C190 1.325 . S
C781 C394 1.325 . S
C797 C224 1.325 . S
C799 C292 1.325 . S
C815 C258 1.325 . S
C817 C326 1.325 . S
C833 C2 1.447 . S
C835 C70 1.447 . S
C851 C36 1.447 . S
C853 C104 1.447 . S
C869 C138 1.447 1_554 S
C871 C206 1.447 1_554 S
C887 C172 1.447 1_556 S
C889 C240 1.447 1_556 S
C905 C342 1.447 . S
C907 C274 1.447 . S
C923 C376 1.447 . S
C925 C308 1.447 . S
C941 C410 1.447 . S
C943 C478 1.447 . S
C959 C444 1.447 . S
C961 C512 1.447 . S
C977 C67 1.127 . S
C979 C5 1.104 . S
C995 C39 1.104 . S
C997 C101 1.127 . S
C1013 C135 1.127 . S
C1015 C73 1.104 . S
C1031 C107 1.104 . S
C1033 C33 1.127 . S
C1049 C543 1.127 . S
C1051 C141 1.104 . S
C1067 C175 1.104 . S
C1069 C441 1.127 . S
C1085 C209 1.104 . S
C1087 C475 1.127 . S
C1103 C243 1.104 . S
C1105 C509 1.127 . S
C1121 C277 1.104 . S
C1123 C339 1.126 . S
C1139 C373 1.126 . S
C1141 C311 1.104 . S
C1157 C345 1.104 . S
C1159 C407 1.126 . S
C1175 C379 1.104 . S
C1177 C305 1.126 . S
C1193 C271 1.127 . S
C1195 C413 1.104 . S
C1211 C447 1.104 . S
C1213 C169 1.127 . S
C1229 C481 1.104 . S
C1231 C203 1.127 . S
C1247 C515 1.104 . S
C1249 C237 1.127 . S
