# Generated by pormake.
# Topology vmc, (5)-cn, num edge types: 1
# Building blocks:
#     Node 0, Type 0, BuildingBlock: BEQFEK_clean_sbu_0, # of connection points: 5
#     Node 1, Type 0, BuildingBlock: BEQFEK_clean_sbu_0, # of connection points: 5
#     Node 2, Type 0, BuildingBlock: BEQFEK_clean_sbu_0, # of connection points: 5
#     Node 3, Type 0, BuildingBlock: BEQFEK_clean_sbu_0, # of connection points: 5
#     Node 4, Type 0, BuildingBlock: BEQFEK_clean_sbu_0, # of connection points: 5
#     Node 5, Type 0, BuildingBlock: BEQFEK_clean_sbu_0, # of connection points: 5
#     Node 6, Type 0, BuildingBlock: BEQFEK_clean_sbu_0, # of connection points: 5
#     Node 7, Type 0, BuildingBlock: BEQFEK_clean_sbu_0, # of connection points: 5
#     Edge 8, Type (0, 0), BuildingBlock: CIFDUS_clean_linker_0, # of connection points: 2
#     Edge 9, Type (0, 0), BuildingBlock: CIFDUS_clean_linker_0, # of connection points: 2
#     Edge 10, Type (0, 0), BuildingBlock: CIFDUS_clean_linker_0, # of connection points: 2
#     Edge 11, Type (0, 0), BuildingBlock: CIFDUS_clean_linker_0, # of connection points: 2
#     Edge 12, Type (0, 0), BuildingBlock: CIFDUS_clean_linker_0, # of connection points: 2
#     Edge 13, Type (0, 0), BuildingBlock: CIFDUS_clean_linker_0, # of connection points: 2
#     Edge 14, Type (0, 0), BuildingBlock: CIFDUS_clean_linker_0, # of connection points: 2
#     Edge 15, Type (0, 0), BuildingBlock: CIFDUS_clean_linker_0, # of connection points: 2
#     Edge 16, Type (0, 0), BuildingBlock: CIFDUS_clean_linker_0, # of connection points: 2
#     Edge 17, Type (0, 0), BuildingBlock: CIFDUS_clean_linker_0, # of connection points: 2
#     Edge 18, Type (0, 0), BuildingBlock: CIFDUS_clean_linker_0, # of connection points: 2
#     Edge 19, Type (0, 0), BuildingBlock: CIFDUS_clean_linker_0, # of connection points: 2
#     Edge 20, Type (0, 0), BuildingBlock: CIFDUS_clean_linker_0, # of connection points: 2
#     Edge 21, Type (0, 0), BuildingBlock: CIFDUS_clean_linker_0, # of connection points: 2
#     Edge 22, Type (0, 0), BuildingBlock: CIFDUS_clean_linker_0, # of connection points: 2
#     Edge 23, Type (0, 0), BuildingBlock: CIFDUS_clean_linker_0, # of connection points: 2
#     Edge 24, Type (0, 0), BuildingBlock: CIFDUS_clean_linker_0, # of connection points: 2
#     Edge 25, Type (0, 0), BuildingBlock: CIFDUS_clean_linker_0, # of connection points: 2
#     Edge 26, Type (0, 0), BuildingBlock: CIFDUS_clean_linker_0, # of connection points: 2
#     Edge 27, Type (0, 0), BuildingBlock: CIFDUS_clean_linker_0, # of connection points: 2
# Relax obj value: 0.515
# Max RMSD: 0.275
# Mean RMSD: 0.275
data_MOF--net-vmc--node1-BEQFEK_clean_sbu_0--edge1-CIFDUS_clean_linker_0
_symmetry_space_group_name_H-M    P1
_symmetry_Int_Tables_number       1
_symmetry_cell_setting            triclinic
loop_
_symmetry_equiv_pos_as_xyz
'x, y, z'
_cell_length_a     44.552611
_cell_length_b     42.598022
_cell_length_c     24.33078
_cell_angle_alpha  89.940064
_cell_angle_beta   106.7283
_cell_angle_gamma 90.364146
loop_
_atom_site_label
_atom_site_type_symbol
_atom_site_fract_x
_atom_site_fract_y
_atom_site_fract_z
_atom_type_partial_charge
Co0 Co 0.40051 0.46477 0.15415 0.0
Co1 Co 0.34963 0.4114 0.13763 0.0
C2 C 0.41694 0.39744 0.19 0.0
O3 O 0.42244 0.42632 0.18517 0.0
O4 O 0.38911 0.38643 0.17345 0.0
C5 C 0.46083 0.48622 0.15267 0.0
O6 O 0.46978 0.4587 0.17559 0.0
C7 C 0.31245 0.35554 0.08806 0.0
C8 C 0.26644 0.36656 0.1004 0.0
C9 C 0.28187 0.34428 0.07722 0.0
N10 N 0.31472 0.38309 0.11601 0.0
N11 N 0.28722 0.38937 0.12371 0.0
C12 C 0.33847 0.34211 0.06813 0.0
H13 H 0.35587 0.36064 0.06676 0.0
H14 H 0.32915 0.33128 0.02505 0.0
H15 H 0.35054 0.32374 0.09877 0.0
C16 C 0.37108 0.47293 0.03132 0.0
N17 N 0.3735 0.45738 0.08046 0.0
N18 N 0.35202 0.4351 0.07156 0.0
C19 C 0.33497 0.43607 0.01561 0.0
C20 C 0.34643 0.46026 0.9887 0.0
C21 C 0.39327 0.49834 0.02495 0.0
H22 H 0.41729 0.48867 0.0359 0.0
H23 H 0.38758 0.50777 0.98075 0.0
H24 H 0.393 0.51775 0.05516 0.0
O25 O 0.37613 0.48043 0.20384 0.0
O26 O 0.34143 0.44157 0.19541 0.0
H27 H 0.29138 0.41489 0.01643 0.0
H28 H 0.29424 0.42406 0.94548 0.0
C29 C 0.3073 0.41553 0.98884 0.0
H30 H 0.31544 0.39133 0.98494 0.0
H31 H 0.28242 0.40965 0.14361 0.0
O32 O 0.43293 0.49529 0.14676 0.0
C33 C 0.35285 0.46804 0.21643 0.0
Co34 Co 0.60351 0.46477 0.38381 0.0
Co35 Co 0.65637 0.41676 0.38451 0.0
C36 C 0.58831 0.40108 0.33141 0.0
O37 O 0.58133 0.42808 0.345 0.0
O38 O 0.61677 0.39255 0.34256 0.0
C39 C 0.55321 0.4739 0.42291 0.0
O40 O 0.56 0.44417 0.4342 0.0
C41 C 0.68745 0.35758 0.42207 0.0
C42 C 0.73465 0.36375 0.41143 0.0
C43 C 0.71584 0.34233 0.42951 0.0
N44 N 0.68934 0.38632 0.40037 0.0
N45 N 0.7176 0.38989 0.39388 0.0
C46 C 0.65971 0.3464 0.43984 0.0
H47 H 0.64627 0.36668 0.44871 0.0
H48 H 0.66719 0.33132 0.47855 0.0
H49 H 0.64403 0.33253 0.40436 0.0
C50 C 0.63733 0.46939 0.50541 0.0
N51 N 0.63245 0.45529 0.45416 0.0
N52 N 0.6549 0.43497 0.45651 0.0
C53 C 0.67477 0.43538 0.51055 0.0
C54 C 0.66399 0.45714 0.54298 0.0
C55 C 0.61863 0.49642 0.5171 0.0
H56 H 0.61202 0.51231 0.47951 0.0
H57 H 0.59712 0.48728 0.52585 0.0
H58 H 0.63186 0.51018 0.55512 0.0
O59 O 0.62593 0.48581 0.33562 0.0
O60 O 0.66391 0.4523 0.33343 0.0
H61 H 0.71855 0.42132 0.49901 0.0
H62 H 0.71865 0.42436 0.5734 0.0
C63 C 0.70462 0.41733 0.52956 0.0
H64 H 0.69911 0.39191 0.52942 0.0
H65 H 0.72538 0.41025 0.37823 0.0
O66 O 0.56974 0.48992 0.39816 0.0
C67 C 0.6497 0.4785 0.31911 0.0
Co68 Co 0.60598 0.548 0.89399 0.0
Co69 Co 0.65693 0.59802 0.88787 0.0
C70 C 0.58838 0.61199 0.8442 0.0
O71 O 0.58251 0.58437 0.85711 0.0
O72 O 0.61644 0.62178 0.85348 0.0
C73 C 0.55815 0.53825 0.94117 0.0
O74 O 0.5627 0.56875 0.94571 0.0
C75 C 0.68786 0.65812 0.92055 0.0
C76 C 0.73347 0.65347 0.90286 0.0
C77 C 0.7154 0.67438 0.92327 0.0
N78 N 0.68944 0.62929 0.89913 0.0
N79 N 0.71678 0.62661 0.88851 0.0
C80 C 0.66134 0.66857 0.94233 0.0
H81 H 0.64945 0.64798 0.95497 0.0
H82 H 0.66986 0.68458 0.97962 0.0
H83 H 0.64395 0.68122 0.90764 0.0
C84 C 0.64441 0.544 0.01292 0.0
N85 N 0.63749 0.55799 0.9613 0.0
N86 N 0.65893 0.57936 0.96116 0.0
C87 C 0.67999 0.57996 0.01407 0.0
C88 C 0.67121 0.55754 0.04825 0.0
C89 C 0.62707 0.51639 0.02742 0.0
H90 H 0.61938 0.50035 0.99014 0.0
H91 H 0.60636 0.52492 0.03941 0.0
H92 H 0.64173 0.50294 0.06435 0.0
O93 O 0.62567 0.52775 0.84138 0.0
O94 O 0.66169 0.56285 0.83339 0.0
H95 H 0.72193 0.59736 0.99852 0.0
H96 H 0.72412 0.59374 0.07385 0.0
C97 C 0.7088 0.60006 0.03063 0.0
H98 H 0.70193 0.62502 0.03082 0.0
H99 H 0.72415 0.60644 0.87195 0.0
O100 O 0.57429 0.52215 0.91602 0.0
C101 C 0.64772 0.53619 0.82064 0.0
Co102 Co 0.39312 0.55029 0.64171 0.0
Co103 Co 0.35123 0.60953 0.63357 0.0
C104 C 0.41947 0.61624 0.6748 0.0
O105 O 0.42056 0.5867 0.67024 0.0
O106 O 0.39347 0.63063 0.66076 0.0
C107 C 0.43556 0.53402 0.59006 0.0
O108 O 0.42711 0.56284 0.57369 0.0
C109 C 0.32095 0.66961 0.5934 0.0
C110 C 0.27231 0.66088 0.59522 0.0
C111 C 0.29126 0.68282 0.57909 0.0
N112 N 0.31939 0.64095 0.61571 0.0
N113 N 0.29033 0.63603 0.6173 0.0
C114 C 0.3508 0.68426 0.58884 0.0
H115 H 0.36804 0.68482 0.63201 0.0
H116 H 0.36088 0.66968 0.56089 0.0
H117 H 0.34743 0.70864 0.57244 0.0
C118 C 0.35394 0.54176 0.52375 0.0
N119 N 0.36201 0.55829 0.57284 0.0
N120 N 0.34713 0.58517 0.56531 0.0
C121 C 0.33059 0.5874 0.50922 0.0
C122 C 0.33432 0.5598 0.4812 0.0
C123 C 0.36622 0.50976 0.51682 0.0
H124 H 0.37513 0.49798 0.55891 0.0
H125 H 0.38513 0.51186 0.49567 0.0
H126 H 0.3475 0.49472 0.48937 0.0
O127 O 0.37264 0.53748 0.69827 0.0
O128 O 0.34406 0.58065 0.6961 0.0
H129 H 0.29328 0.61959 0.50376 0.0
H130 H 0.30067 0.61172 0.4359 0.0
C131 C 0.3118 0.61531 0.48254 0.0
H132 H 0.32721 0.63632 0.48903 0.0
H133 H 0.28256 0.61527 0.63167 0.0
O134 O 0.42297 0.52042 0.6246 0.0
C135 C 0.35299 0.55323 0.71591 0.0
Co136 Co 0.8899 0.9744 0.12091 0.0
Co137 Co 0.84471 0.91652 0.10896 0.0
C138 C 0.91321 0.90817 0.15336 0.0
O139 O 0.91588 0.93762 0.14989 0.0
O140 O 0.88653 0.89481 0.13719 0.0
C141 C 0.93388 0.98959 0.07095 0.0
O142 O 0.92402 0.96123 0.05299 0.0
C143 C 0.81612 0.85579 0.06676 0.0
C144 C 0.76927 0.85853 0.08006 0.0
C145 C 0.7885 0.83882 0.06001 0.0
N146 N 0.81341 0.88388 0.09013 0.0
N147 N 0.78532 0.88537 0.09799 0.0
C148 C 0.84393 0.84667 0.04764 0.0
H149 H 0.85599 0.8679 0.03779 0.0
H150 H 0.83678 0.83133 0.00917 0.0
H151 H 0.86072 0.83373 0.0828 0.0
C152 C 0.85088 0.98583 0.00427 0.0
N153 N 0.85896 0.96755 0.05115 0.0
N154 N 0.84163 0.94193 0.04217 0.0
C155 C 0.82297 0.94251 0.98724 0.0
C156 C 0.82813 0.97063 0.96187 0.0
C157 C 0.86486 0.01749 0.9998 0.0
H158 H 0.87334 0.02863 0.04267 0.0
H159 H 0.88464 0.01487 0.98105 0.0
H160 H 0.84742 0.0332 0.97128 0.0
O161 O 0.86865 0.98736 0.17664 0.0
O162 O 0.83747 0.94538 0.17153 0.0
H163 H 0.78358 0.91326 0.98559 0.0
H164 H 0.78696 0.92343 0.91528 0.0
C165 C 0.8002 0.91719 0.95995 0.0
H166 H 0.81304 0.895 0.95975 0.0
H167 H 0.77705 0.90473 0.11537 0.0
O168 O 0.92145 1.00343 0.10535 0.0
C169 C 0.8476 0.97245 0.19243 0.0
Co170 Co 0.10683 0.97072 0.35365 0.0
Co171 Co 0.15171 0.91345 0.37186 0.0
C172 C 0.08451 0.9043 0.31611 0.0
O173 O 0.08191 0.93381 0.31826 0.0
O174 O 0.11062 0.89092 0.33833 0.0
C175 C 0.05926 0.98484 0.39376 0.0
O176 O 0.0665 0.95549 0.40793 0.0
C177 C 0.18279 0.85464 0.41816 0.0
C178 C 0.23177 0.86389 0.41893 0.0
C179 C 0.21268 0.84188 0.43448 0.0
N180 N 0.18434 0.88309 0.39507 0.0
N181 N 0.21362 0.88836 0.3952 0.0
C182 C 0.15275 0.83965 0.42095 0.0
H183 H 0.13688 0.83719 0.37673 0.0
H184 H 0.14091 0.8551 0.44483 0.0
H185 H 0.15634 0.81604 0.44075 0.0
C186 C 0.13935 0.98039 0.47557 0.0
N187 N 0.13433 0.9634 0.42719 0.0
N188 N 0.15109 0.93766 0.43787 0.0
C189 C 0.16597 0.93666 0.49488 0.0
C190 C 0.15906 0.96387 0.5204 0.0
C191 C 0.12492 0.01175 0.47918 0.0
H192 H 0.10408 1.00856 0.49492 0.0
H193 H 0.1415 0.02747 0.5097 0.0
H194 H 0.11814 0.02344 0.43678 0.0
O195 O 0.13153 0.98517 0.30493 0.0
O196 O 0.16189 0.94288 0.31291 0.0
H197 H 0.20622 0.90778 0.50463 0.0
H198 H 0.19698 0.91559 0.57091 0.0
C199 C 0.18689 0.91069 0.52441 0.0
H200 H 0.17336 0.88842 0.51888 0.0
H201 H 0.22136 0.909 0.38035 0.0
O202 O 0.07426 0.99937 0.36408 0.0
C203 C 0.1533 0.97021 0.29219 0.0
Co204 Co 0.10558 0.05784 0.86703 0.0
Co205 Co 0.15417 0.11221 0.87554 0.0
C206 C 0.08685 0.12571 0.83609 0.0
O207 O 0.08255 0.09654 0.84028 0.0
O208 O 0.11432 0.13749 0.84964 0.0
C209 C 0.06025 0.04568 0.9172 0.0
O210 O 0.07109 0.07363 0.93598 0.0
C211 C 0.19231 0.16844 0.91772 0.0
C212 C 0.23713 0.15665 0.90116 0.0
C213 C 0.22265 0.17954 0.92489 0.0
N214 N 0.18919 0.14041 0.89117 0.0
N215 N 0.21598 0.13365 0.8809 0.0
C216 C 0.16751 0.18248 0.94035 0.0
H217 H 0.15078 0.16412 0.94559 0.0
H218 H 0.17816 0.19432 0.9821 0.0
H219 H 0.15432 0.20013 0.90928 0.0
C220 C 0.14476 0.04589 0.98391 0.0
N221 N 0.13766 0.06332 0.9359 0.0
N222 N 0.15655 0.08778 0.94314 0.0
C223 C 0.17546 0.08734 0.99783 0.0
C224 C 0.16865 0.06063 0.0252 0.0
C225 C 0.12796 0.01617 0.99072 0.0
H226 H 0.11757 1.00485 0.94852 0.0
H227 H 0.10925 0.02164 0.01098 0.0
H228 H 0.14399 0.99912 0.01854 0.0
O229 O 0.1243 0.04231 0.80903 0.0
O230 O 0.15764 0.08214 0.81272 0.0
H231 H 0.2158 0.11433 0.99596 0.0
H232 H 0.21408 0.10463 0.06733 0.0
C233 C 0.20001 0.11144 0.02347 0.0
H234 H 0.18862 0.13426 0.02566 0.0
H235 H 0.22009 0.11292 0.86151 0.0
O236 O 0.07239 0.03135 0.88293 0.0
C237 C 0.14567 0.05573 0.79189 0.0
Co238 Co 0.90324 0.05784 0.6228 0.0
Co239 Co 0.85208 0.10793 0.62112 0.0
C240 C 0.92019 0.12336 0.66671 0.0
O241 O 0.92614 0.09541 0.65637 0.0
O242 O 0.8921 0.13292 0.65567 0.0
C243 C 0.95069 0.04744 0.5771 0.0
O244 O 0.94304 0.07684 0.56414 0.0
C245 C 0.82058 0.16707 0.58376 0.0
C246 C 0.77378 0.16078 0.59616 0.0
C247 C 0.79224 0.18223 0.57731 0.0
N248 N 0.81904 0.13831 0.60573 0.0
N249 N 0.791 0.13468 0.61322 0.0
C250 C 0.84792 0.17841 0.56489 0.0
H251 H 0.86096 0.15822 0.55453 0.0
H252 H 0.84006 0.19388 0.52678 0.0
H253 H 0.86409 0.1919 0.60034 0.0
C254 C 0.86612 0.04978 0.50333 0.0
N255 N 0.87232 0.06525 0.55352 0.0
N256 N 0.85162 0.08761 0.54987 0.0
C257 C 0.83223 0.08784 0.49547 0.0
C258 C 0.84076 0.06365 0.46457 0.0
C259 C 0.88416 0.02193 0.49275 0.0
H260 H 0.90425 0.03021 0.47819 0.0
H261 H 0.86976 1.00629 0.45902 0.0
H262 H 0.89281 1.00793 0.53246 0.0
O263 O 0.88309 0.03885 0.67552 0.0
O264 O 0.84614 0.07375 0.67713 0.0
H265 H 0.79005 0.1086 0.50317 0.0
H266 H 0.79105 0.10325 0.42988 0.0
C267 C 0.80515 0.10955 0.47408 0.0
H268 H 0.81401 0.13393 0.47415 0.0
H269 H 0.78349 0.11432 0.62933 0.0
O270 O 0.93612 0.03212 0.60649 0.0
C271 C 0.86015 0.04756 0.69321 0.0
H272 H 0.351 0.49164 0.74229 0.0
H273 H 0.32944 0.5838 0.79338 0.0
H274 H 0.31925 0.56139 0.87902 0.0
H275 H 0.32478 0.51691 0.9462 0.0
H276 H 0.34863 0.42552 0.89668 0.0
H277 H 0.34874 0.44602 0.80259 0.0
C278 C 0.34367 0.5068 0.77177 0.0
C279 C 0.34165 0.53944 0.76221 0.0
C280 C 0.33821 0.49381 0.82103 0.0
C281 C 0.33143 0.55866 0.80004 0.0
C282 C 0.32569 0.54586 0.84907 0.0
C283 C 0.32896 0.50139 0.91388 0.0
C284 C 0.33694 0.46992 0.92793 0.0
C285 C 0.33011 0.51367 0.86096 0.0
C286 C 0.34238 0.4498 0.88635 0.0
C287 C 0.34282 0.46164 0.83299 0.0
H288 H 0.64849 0.43496 0.63385 0.0
H289 H 0.70513 0.50498 0.58316 0.0
H290 H 0.70808 0.53551 0.67004 0.0
H291 H 0.68619 0.54644 0.75114 0.0
H292 H 0.62782 0.47591 0.79791 0.0
H293 H 0.63399 0.44164 0.72261 0.0
C294 C 0.66274 0.45613 0.64345 0.0
C295 C 0.67698 0.46754 0.60302 0.0
C296 C 0.66313 0.47406 0.69202 0.0
C297 C 0.69464 0.49545 0.61466 0.0
C298 C 0.69577 0.51318 0.66375 0.0
C299 C 0.67529 0.52338 0.74547 0.0
C300 C 0.65592 0.51429 0.77953 0.0
C301 C 0.67877 0.50346 0.70133 0.0
C302 C 0.6423 0.48406 0.77179 0.0
C303 C 0.64589 0.46421 0.72872 0.0
H304 H 0.6912 0.46967 0.25534 0.0
H305 H 0.63069 0.53884 0.2972 0.0
H306 H 0.63922 0.5739 0.22454 0.0
H307 H 0.65564 0.58097 0.1378 0.0
H308 H 0.71393 0.51191 0.09133 0.0
H309 H 0.71567 0.48155 0.17786 0.0
C310 C 0.6804 0.49264 0.2493 0.0
C311 C 0.65964 0.50108 0.28086 0.0
C312 C 0.68518 0.51295 0.20661 0.0
C313 C 0.64617 0.5312 0.27278 0.0
C314 C 0.65113 0.55149 0.23128 0.0
C315 C 0.67009 0.56015 0.14842 0.0
C316 C 0.68492 0.54881 0.10895 0.0
C317 C 0.66954 0.54213 0.19646 0.0
C318 C 0.70291 0.52138 0.12199 0.0
C319 C 0.70329 0.50368 0.1708 0.0
H320 H 0.36423 0.52811 0.25516 0.0
H321 H 0.31117 0.44499 0.27027 0.0
H322 H 0.29432 0.46989 0.34671 0.0
H323 H 0.3011 0.51211 0.4184 0.0
H324 H 0.35714 0.59326 0.40738 0.0
H325 H 0.36514 0.5731 0.31854 0.0
C326 C 0.34871 0.5155 0.27471 0.0
C327 C 0.33956 0.48443 0.25781 0.0
C328 C 0.33936 0.52983 0.31901 0.0
C329 C 0.31892 0.46876 0.28287 0.0
C330 C 0.30922 0.483 0.32658 0.0
C331 C 0.31425 0.52572 0.39538 0.0
C332 C 0.32877 0.55389 0.41929 0.0
C333 C 0.32012 0.51311 0.34621 0.0
C334 C 0.34557 0.57161 0.38932 0.0
C335 C 0.3506 0.55979 0.33915 0.0
H336 H 0.85111 0.94859 0.87966 0.0
H337 H 0.78737 0.01672 0.91168 0.0
H338 H 0.78924 0.04634 0.8262 0.0
H339 H 0.8165 0.05729 0.75234 0.0
H340 H 0.88211 0.98895 0.725 0.0
H341 H 0.8721 0.95533 0.79806 0.0
C342 C 0.83653 0.96912 0.8662 0.0
C343 C 0.81889 0.98036 0.90114 0.0
C344 C 0.83893 0.98668 0.81878 0.0
C345 C 0.80066 1.00741 0.8845 0.0
C346 C 0.80222 0.02464 0.83629 0.0
C347 C 0.82826 0.03487 0.76184 0.0
C348 C 0.85058 0.02623 0.73381 0.0
C349 C 0.82252 0.0153 0.80468 0.0
C350 C 0.86527 0.99678 0.7464 0.0
C351 C 0.85948 0.97727 0.78817 0.0
H352 H 0.13326 0.99604 0.75148 0.0
H353 H 0.18302 0.08047 0.73061 0.0
H354 H 0.19716 0.05646 0.65045 0.0
H355 H 0.19001 0.01388 0.57928 0.0
H356 H 0.13774 0.93104 0.59692 0.0
H357 H 0.13111 0.95134 0.68683 0.0
C358 C 0.14739 1.00917 0.72972 0.0
C359 C 0.15653 0.04029 0.74644 0.0
C360 C 0.15529 0.9953 0.68346 0.0
C361 C 0.17534 0.05665 0.71833 0.0
C362 C 0.1835 0.04291 0.67251 0.0
C363 C 0.17786 1.00004 0.60378 0.0
C364 C 0.16415 0.97121 0.58171 0.0
C365 C 0.17293 0.01257 0.65382 0.0
C366 C 0.14865 0.95321 0.61357 0.0
C367 C 0.14446 0.96505 0.6644 0.0
H368 H 0.19652 1.00775 0.07728 0.0
H369 H 0.15889 0.0963 0.11018 0.0
H370 H 0.15521 0.07685 0.20266 0.0
H371 H 0.15264 0.03166 0.26337 0.0
H372 H 0.18617 0.94143 0.22695 0.0
H373 H 0.20133 0.9643 0.14645 0.0
C374 C 0.18837 0.02295 0.10568 0.0
C375 C 0.17748 0.05313 0.087 0.0
C376 C 0.18472 1.01096 0.15717 0.0
C377 C 0.1674 0.07298 0.12397 0.0
C378 C 0.16484 0.06168 0.17635 0.0
C379 C 0.16366 0.01703 0.23833 0.0
C380 C 0.16755 0.9847 0.25022 0.0
C381 C 0.17176 0.03019 0.19168 0.0
C382 C 0.18257 0.96628 0.21829 0.0
C383 C 0.19119 0.97935 0.17219 0.0
H384 H 0.81143 1.01068 0.41468 0.0
H385 H 0.84826 0.09927 0.37744 0.0
H386 H 0.84989 0.07938 0.28398 0.0
H387 H 0.85058 0.03392 0.22266 0.0
H388 H 0.81728 0.94386 0.26276 0.0
H389 H 0.80466 0.96697 0.34544 0.0
C390 C 0.81863 0.0259 0.38492 0.0
C391 C 0.82993 0.05625 0.40264 0.0
C392 C 0.82114 0.01364 0.3328 0.0
C393 C 0.83933 0.07589 0.36433 0.0
C394 C 0.84077 0.06431 0.31141 0.0
C395 C 0.84021 0.01936 0.24905 0.0
C396 C 0.83556 0.987 0.23729 0.0
C397 C 0.83339 0.03272 0.29677 0.0
C398 C 0.82143 0.96871 0.27116 0.0
C399 C 0.81422 0.98193 0.31848 0.0
H400 H 0.50072 0.45834 0.1036 0.0
H401 H 0.46012 0.54795 0.12244 0.0
H402 H 0.48558 0.57166 0.05553 0.0
H403 H 0.5186 0.56645 0.99115 0.0
H404 H 0.55702 0.47611 0.96898 0.0
H405 H 0.53226 0.45277 0.03692 0.0
C406 C 0.49788 0.4832 0.09387 0.0
C407 C 0.47913 0.50162 0.11864 0.0
C408 C 0.51154 0.49625 0.05395 0.0
C409 C 0.47487 0.53353 0.1044 0.0
C410 C 0.48915 0.54695 0.06587 0.0
C411 C 0.52137 0.54158 1.00081 0.0
C412 C 0.53967 0.52303 0.97525 0.0
C413 C 0.50729 0.52844 0.04006 0.0
C414 C 0.54286 0.49083 0.98782 0.0
C415 C 0.52899 0.47756 0.02707 0.0
H416 H 0.52264 0.44778 0.49306 0.0
H417 H 0.53232 0.53424 0.40654 0.0
H418 H 0.49673 0.56024 0.45149 0.0
H419 H 0.46432 0.55869 0.51659 0.0
H420 H 0.45478 0.47271 0.60448 0.0
H421 H 0.48948 0.44611 0.55782 0.0
C422 C 0.51681 0.47226 0.48366 0.0
C423 C 0.53006 0.4891 0.44651 0.0
C424 C 0.49674 0.48712 0.5102 0.0
C425 C 0.5224 0.5208 0.43497 0.0
C426 C 0.50216 0.53568 0.46076 0.0
C427 C 0.46977 0.53411 0.52571 0.0
C428 C 0.45709 0.51766 0.56404 0.0
C429 C 0.48948 0.51911 0.49876 0.0
C430 C 0.46441 0.48587 0.57532 0.0
C431 C 0.48412 0.47067 0.54853 0.0
H432 H 0.03202 0.07117 0.9911 0.0
H433 H 0.03441 0.98699 0.89362 0.0
H434 H 0.99548 0.96244 0.93336 0.0
H435 H 0.96157 0.9648 0.99603 0.0
H436 H 0.959 0.04879 0.09383 0.0
H437 H 0.99771 0.07363 0.05359 0.0
C438 C 0.02403 0.04745 0.97838 0.0
C439 C 0.03609 0.03088 0.93944 0.0
C440 C 1.00184 0.0335 1.00154 0.0
C441 C 0.02546 1.00022 0.92343 0.0
C442 C 0.00327 0.98618 0.9462 0.0
C443 C 0.96942 0.98856 0.00872 0.0
C444 C 0.95748 1.00496 0.04799 0.0
C445 C 0.99145 1.00259 0.98539 0.0
C446 C 0.96791 0.03569 0.06381 0.0
C447 C 0.98996 0.04987 0.04076 0.0
H448 H 0.97882 0.07281 0.50253 0.0
H449 H 0.96952 0.98631 0.58928 0.0
H450 H 1.00132 0.95926 0.53767 0.0
H451 H 0.03083 0.96012 0.46774 0.0
H452 H 0.04085 0.04642 0.38114 0.0
H453 H 0.00886 0.0737 0.43255 0.0
C454 C 0.98389 0.04807 0.51048 0.0
C455 C 0.97189 0.03156 0.54973 0.0
C456 C 1.00184 0.03265 0.48028 0.0
C457 C 0.97858 0.99953 0.55941 0.0
C458 C 0.9966 0.98405 0.52975 0.0
C459 C 0.02593 0.98488 0.45968 0.0
C460 C 0.03807 1.00125 0.42051 0.0
C461 C 0.0081 1.00035 0.48986 0.0
C462 C 0.03159 0.03331 0.41087 0.0
C463 C 0.01349 0.0489 0.44045 0.0
H464 H 0.30748 0.28626 0.07292 0.0
H465 H 0.22198 0.33875 0.00943 0.0
H466 H 0.196 0.29279 0.95636 0.0
H467 H 0.19769 0.23789 0.92695 0.0
H468 H 0.28311 0.18532 0.99034 0.0
H469 H 0.30936 0.23148 0.04255 0.0
C470 C 0.28341 0.28791 0.04653 0.0
C471 C 0.26692 0.31615 0.0444 0.0
C472 C 0.26858 0.26136 0.01595 0.0
C473 C 0.23527 0.31733 0.01175 0.0
C474 C 0.22039 0.29108 0.98123 0.0
C475 C 0.22185 0.23633 0.95299 0.0
C476 C 0.23819 0.20798 0.95569 0.0
C477 C 0.23678 0.26294 0.98311 0.0
C478 C 0.26993 0.20683 0.98775 0.0
C479 C 0.28496 0.23319 0.01777 0.0
H480 H 0.77287 0.32398 0.49662 0.0
H481 H 0.68006 0.2886 0.41296 0.0
H482 H 0.69517 0.23655 0.4528 0.0
H483 H 0.73504 0.20061 0.51078 0.0
H484 H 0.82787 0.23598 0.59426 0.0
H485 H 0.8127 0.28808 0.55471 0.0
C486 C 0.75598 0.30484 0.48709 0.0
C487 C 0.72516 0.31045 0.45296 0.0
C488 C 0.76495 0.27478 0.50977 0.0
C489 C 0.70361 0.28534 0.4407 0.0
C490 C 0.71234 0.2554 0.46302 0.0
C491 C 0.75191 0.21976 0.52035 0.0
C492 C 0.78277 0.21415 0.5543 0.0
C493 C 0.74292 0.24984 0.49776 0.0
C494 C 0.8043 0.23928 0.56665 0.0
C495 C 0.79553 0.26923 0.54448 0.0
H496 H 0.73153 0.81743 0.99711 0.0
H497 H 0.82665 0.78723 0.07326 0.0
H498 H 0.81274 0.73434 0.03584 0.0
H499 H 0.77311 0.69601 0.98309 0.0
H500 H 0.67801 0.72638 0.90726 0.0
H501 H 0.69216 0.77942 0.94343 0.0
C502 C 0.74922 0.79927 0.00541 0.0
C503 C 0.78026 0.80659 0.03681 0.0
C504 C 0.74095 0.76871 0.9843 0.0
C505 C 0.80285 0.78269 0.04753 0.0
C506 C 0.79481 0.75225 0.02666 0.0
C507 C 0.75553 0.71428 0.97442 0.0
C508 C 0.72434 0.70694 0.94382 0.0
C509 C 0.76392 0.74495 0.995 0.0
C510 C 0.7019 0.73097 0.93249 0.0
C511 C 0.71006 0.76148 0.95267 0.0
H512 H 0.25367 0.79998 0.41468 0.0
H513 H 0.19772 0.81947 0.52848 0.0
H514 H 0.21692 0.77181 0.58302 0.0
H515 H 0.25017 0.72471 0.59896 0.0
H516 H 0.30587 0.70515 0.48471 0.0
H517 H 0.28672 0.75281 0.43035 0.0
C518 C 0.24563 0.79363 0.45129 0.0
C519 C 0.22362 0.81261 0.46653 0.0
C520 C 0.25709 0.76642 0.48284 0.0
C521 C 0.21371 0.80452 0.51456 0.0
C522 C 0.22497 0.77749 0.54618 0.0
C523 C 0.25818 0.73105 0.56231 0.0
C524 C 0.28019 0.71208 0.54703 0.0
C525 C 0.24666 0.75824 0.53069 0.0
C526 C 0.28997 0.72012 0.49882 0.0
C527 C 0.27872 0.74716 0.46726 0.0
H528 H 0.54208 0.37614 0.3686 0.0
H529 H 0.5741 0.38613 0.21861 0.0
H530 H 0.52068 0.37758 0.15681 0.0
H531 H 0.46421 0.38162 0.14756 0.0
H532 H 0.43214 0.37384 0.29784 0.0
H533 H 0.48605 0.36611 0.35759 0.0
C534 C 0.53755 0.37463 0.3224 0.0
C535 C 0.56191 0.38157 0.29804 0.0
C536 C 0.50657 0.37067 0.28731 0.0
C537 C 0.55581 0.38029 0.23823 0.0
C538 C 0.52513 0.37592 0.20291 0.0
C539 C 0.46893 0.37639 0.19292 0.0
C540 C 0.44432 0.37808 0.21837 0.0
C541 C 0.50014 0.37306 0.22709 0.0
C542 C 0.45065 0.37207 0.27727 0.0
C543 C 0.48157 0.3682 0.31154 0.0
H544 H 0.4488 0.64076 0.77942 0.0
H545 H 0.45888 0.62526 0.61091 0.0
H546 H 0.5157 0.63093 0.64835 0.0
H547 H 0.5621 0.62648 0.73258 0.0
H548 H 0.55194 0.63867 0.90179 0.0
H549 H 0.49608 0.64914 0.86113 0.0
C550 C 0.4634 0.64035 0.75062 0.0
C551 C 0.44982 0.63286 0.69255 0.0
C552 C 0.49627 0.6425 0.77302 0.0
C553 C 0.46892 0.63145 0.65568 0.0
C554 C 0.50147 0.63429 0.67725 0.0
C555 C 0.54793 0.63323 0.76015 0.0
C556 C 0.56103 0.63212 0.81994 0.0
C557 C 0.51549 0.63791 0.73638 0.0
C558 C 0.54235 0.63993 0.85555 0.0
C559 C 0.51028 0.64541 0.8323 0.0
H560 H 0.05488 0.89056 0.20541 0.0
H561 H 0.04716 0.88227 0.37704 0.0
H562 H 0.99037 0.87547 0.33951 0.0
H563 H 0.94267 0.8851 0.25909 0.0
H564 H 0.95076 0.89515 0.08789 0.0
H565 H 0.00731 0.88718 0.1232 0.0
C566 C 0.04088 0.8855 0.23424 0.0
C567 C 0.05509 0.88651 0.29375 0.0
C568 C 0.0081 0.88252 0.21223 0.0
C569 C 0.03672 0.8809 0.331 0.0
C570 C 0.00416 0.87752 0.30952 0.0
C571 C 0.95667 0.88382 0.22933 0.0
C572 C 0.94267 0.89037 0.17097 0.0
C573 C 0.98943 0.8801 0.25037 0.0
C574 C 0.96107 0.88962 0.13286 0.0
C575 C 0.99348 0.88549 0.15318 0.0
H576 H 0.05984 0.15003 0.73071 0.0
H577 H 0.04872 0.14042 0.89981 0.0
H578 H 0.9922 0.14747 0.86134 0.0
H579 H 0.94595 0.1413 0.77701 0.0
H580 H 0.95714 0.14792 0.60756 0.0
H581 H 0.01316 0.15812 0.64807 0.0
C582 C 0.04519 0.15139 0.75935 0.0
C583 C 0.05833 0.14492 0.81795 0.0
C584 C 0.01245 0.15423 0.73642 0.0
C585 C 0.03908 0.14582 0.85462 0.0
C586 C 0.00666 0.14935 0.83246 0.0
C587 C 0.96039 0.14686 0.74918 0.0
C588 C 0.94752 0.14408 0.68949 0.0
C589 C 0.99292 0.15147 0.773 0.0
C590 C 0.96655 0.15042 0.65367 0.0
C591 C 0.99872 0.15575 0.67689 0.0
loop_
_geom_bond_atom_site_label_1
_geom_bond_atom_site_label_2
_geom_bond_distance
_geom_bond_site_symmetry_2
_ccdc_geom_bond_type
Co0 O3 1.970 . S
Co0 N17 1.989 1_554 S
Co0 O25 1.967 . S
Co0 O32 1.920 . S
Co1 O4 1.966 . S
Co1 N10 2.022 . S
Co1 N18 1.993 1_554 S
Co1 O26 1.941 . S
C2 O3 1.258 . S
C2 O4 1.263 . S
O3 Co0 1.970 . S
O3 C2 1.258 . S
O4 Co1 1.966 . S
O4 C2 1.263 . S
C5 O6 1.235 . S
C5 O32 1.289 . S
O6 C5 1.235 . S
C7 C9 1.400 . S
C7 N10 1.351 . S
C7 C12 1.501 . S
C8 C9 1.387 . S
C8 N11 1.341 . S
C9 C7 1.400 . S
C9 C8 1.387 . S
N10 Co1 2.022 . S
N10 C7 1.351 . S
N10 N11 1.365 . S
N11 C8 1.341 . S
N11 N10 1.365 . S
N11 H31 0.862 . S
C12 C7 1.501 . S
C12 H13 0.961 . S
C12 H14 0.961 . S
C12 H15 0.960 . S
H13 C12 0.961 . S
H14 C12 0.961 . S
H15 C12 0.960 . S
C16 N17 1.342 . S
C16 C20 1.401 . S
C16 C21 1.499 . S
N17 Co0 1.989 1_556 S
N17 C16 1.342 . S
N17 N18 1.388 . S
N18 Co1 1.993 1_556 S
N18 N17 1.388 . S
N18 C19 1.346 . S
C19 N18 1.346 . S
C19 C20 1.396 . S
C19 C29 1.510 . S
C20 C16 1.401 . S
C20 C19 1.396 . S
C21 C16 1.499 . S
C21 H22 0.959 . S
C21 H23 0.960 . S
C21 H24 0.961 . S
H22 C21 0.959 . S
H23 C21 0.960 . S
H24 C21 0.961 . S
O25 Co0 1.967 . S
O25 C33 1.258 . S
O26 Co1 1.941 . S
O26 C33 1.266 . S
H27 C29 0.959 . S
H28 C29 0.961 . S
C29 C19 1.510 . S
C29 H27 0.959 . S
C29 H28 0.961 . S
C29 H30 0.960 . S
H30 C29 0.960 . S
H31 N11 0.862 . S
O32 Co0 1.920 . S
O32 C5 1.289 . S
C33 O25 1.258 . S
C33 O26 1.266 . S
Co34 O37 1.970 . S
Co34 N51 1.989 . S
Co34 O59 1.967 . S
Co34 O66 1.920 . S
Co35 O38 1.966 . S
Co35 N44 2.022 . S
Co35 N52 1.993 . S
Co35 O60 1.941 . S
C36 O37 1.258 . S
C36 O38 1.263 . S
O37 Co34 1.970 . S
O37 C36 1.258 . S
O38 Co35 1.966 . S
O38 C36 1.263 . S
C39 O40 1.235 . S
C39 O66 1.289 . S
O40 C39 1.235 . S
C41 C43 1.400 . S
C41 N44 1.351 . S
C41 C46 1.501 . S
C42 C43 1.387 . S
C42 N45 1.341 . S
C43 C41 1.400 . S
C43 C42 1.387 . S
N44 Co35 2.022 . S
N44 C41 1.351 . S
N44 N45 1.365 . S
N45 C42 1.341 . S
N45 N44 1.365 . S
N45 H65 0.862 . S
C46 C41 1.501 . S
C46 H47 0.961 . S
C46 H48 0.961 . S
C46 H49 0.960 . S
H47 C46 0.961 . S
H48 C46 0.961 . S
H49 C46 0.960 . S
C50 N51 1.342 . S
C50 C54 1.401 . S
C50 C55 1.499 . S
N51 Co34 1.989 . S
N51 C50 1.342 . S
N51 N52 1.388 . S
N52 Co35 1.993 . S
N52 N51 1.388 . S
N52 C53 1.346 . S
C53 N52 1.346 . S
C53 C54 1.396 . S
C53 C63 1.510 . S
C54 C50 1.401 . S
C54 C53 1.396 . S
C55 C50 1.499 . S
C55 H56 0.959 . S
C55 H57 0.960 . S
C55 H58 0.961 . S
H56 C55 0.959 . S
H57 C55 0.960 . S
H58 C55 0.961 . S
O59 Co34 1.967 . S
O59 C67 1.258 . S
O60 Co35 1.941 . S
O60 C67 1.266 . S
H61 C63 0.959 . S
H62 C63 0.961 . S
C63 C53 1.510 . S
C63 H61 0.959 . S
C63 H62 0.961 . S
C63 H64 0.960 . S
H64 C63 0.960 . S
H65 N45 0.862 . S
O66 Co34 1.920 . S
O66 C39 1.289 . S
C67 O59 1.258 . S
C67 O60 1.266 . S
Co68 O71 1.970 . S
Co68 N85 1.989 1_556 S
Co68 O93 1.967 . S
Co68 O100 1.920 . S
Co69 O72 1.966 . S
Co69 N78 2.022 . S
Co69 N86 1.993 1_556 S
Co69 O94 1.941 . S
C70 O71 1.258 . S
C70 O72 1.263 . S
O71 Co68 1.970 . S
O71 C70 1.258 . S
O72 Co69 1.966 . S
O72 C70 1.263 . S
C73 O74 1.235 . S
C73 O100 1.289 . S
O74 C73 1.235 . S
C75 C77 1.400 . S
C75 N78 1.351 . S
C75 C80 1.501 . S
C76 C77 1.387 . S
C76 N79 1.341 . S
C77 C75 1.400 . S
C77 C76 1.387 . S
N78 Co69 2.022 . S
N78 C75 1.351 . S
N78 N79 1.365 . S
N79 C76 1.341 . S
N79 N78 1.365 . S
N79 H99 0.862 . S
C80 C75 1.501 . S
C80 H81 0.961 . S
C80 H82 0.961 . S
C80 H83 0.960 . S
H81 C80 0.961 . S
H82 C80 0.961 . S
H83 C80 0.960 . S
C84 N85 1.342 . S
C84 C88 1.401 . S
C84 C89 1.499 . S
N85 Co68 1.989 1_554 S
N85 C84 1.342 . S
N85 N86 1.388 . S
N86 Co69 1.993 1_554 S
N86 N85 1.388 . S
N86 C87 1.346 . S
C87 N86 1.346 . S
C87 C88 1.396 . S
C87 C97 1.510 . S
C88 C84 1.401 . S
C88 C87 1.396 . S
C89 C84 1.499 . S
C89 H90 0.959 . S
C89 H91 0.960 . S
C89 H92 0.961 . S
H90 C89 0.959 . S
H91 C89 0.960 . S
H92 C89 0.961 . S
O93 Co68 1.967 . S
O93 C101 1.258 . S
O94 Co69 1.941 . S
O94 C101 1.266 . S
H95 C97 0.959 . S
H96 C97 0.961 . S
C97 C87 1.510 . S
C97 H95 0.959 . S
C97 H96 0.961 . S
C97 H98 0.960 . S
H98 C97 0.960 . S
H99 N79 0.862 . S
O100 Co68 1.920 . S
O100 C73 1.289 . S
C101 O93 1.258 . S
C101 O94 1.266 . S
Co102 O105 1.970 . S
Co102 N119 1.989 . S
Co102 O127 1.967 . S
Co102 O134 1.920 . S
Co103 O106 1.966 . S
Co103 N112 2.022 . S
Co103 N120 1.993 . S
Co103 O128 1.941 . S
C104 O105 1.258 . S
C104 O106 1.263 . S
O105 Co102 1.970 . S
O105 C104 1.258 . S
O106 Co103 1.966 . S
O106 C104 1.263 . S
C107 O108 1.235 . S
C107 O134 1.289 . S
O108 C107 1.235 . S
C109 C111 1.400 . S
C109 N112 1.351 . S
C109 C114 1.501 . S
C110 C111 1.387 . S
C110 N113 1.341 . S
C111 C109 1.400 . S
C111 C110 1.387 . S
N112 Co103 2.022 . S
N112 C109 1.351 . S
N112 N113 1.365 . S
N113 C110 1.341 . S
N113 N112 1.365 . S
N113 H133 0.862 . S
C114 C109 1.501 . S
C114 H115 0.961 . S
C114 H116 0.961 . S
C114 H117 0.960 . S
H115 C114 0.961 . S
H116 C114 0.961 . S
H117 C114 0.960 . S
C118 N119 1.342 . S
C118 C122 1.401 . S
C118 C123 1.499 . S
N119 Co102 1.989 . S
N119 C118 1.342 . S
N119 N120 1.388 . S
N120 Co103 1.993 . S
N120 N119 1.388 . S
N120 C121 1.346 . S
C121 N120 1.346 . S
C121 C122 1.396 . S
C121 C131 1.510 . S
C122 C118 1.401 . S
C122 C121 1.396 . S
C123 C118 1.499 . S
C123 H124 0.959 . S
C123 H125 0.960 . S
C123 H126 0.961 . S
H124 C123 0.959 . S
H125 C123 0.960 . S
H126 C123 0.961 . S
O127 Co102 1.967 . S
O127 C135 1.258 . S
O128 Co103 1.941 . S
O128 C135 1.266 . S
H129 C131 0.959 . S
H130 C131 0.961 . S
C131 C121 1.510 . S
C131 H129 0.959 . S
C131 H130 0.961 . S
C131 H132 0.960 . S
H132 C131 0.960 . S
H133 N113 0.862 . S
O134 Co102 1.920 . S
O134 C107 1.289 . S
C135 O127 1.258 . S
C135 O128 1.266 . S
Co136 O139 1.970 . S
Co136 N153 1.989 1_554 S
Co136 O161 1.967 . S
Co136 O168 1.920 . S
Co137 O140 1.966 . S
Co137 N146 2.022 . S
Co137 N154 1.993 1_554 S
Co137 O162 1.941 . S
C138 O139 1.258 . S
C138 O140 1.263 . S
O139 Co136 1.970 . S
O139 C138 1.258 . S
O140 Co137 1.966 . S
O140 C138 1.263 . S
C141 O142 1.235 . S
C141 O168 1.289 . S
O142 C141 1.235 . S
C143 C145 1.400 . S
C143 N146 1.351 . S
C143 C148 1.501 . S
C144 C145 1.387 . S
C144 N147 1.341 . S
C145 C143 1.400 . S
C145 C144 1.387 . S
N146 Co137 2.022 . S
N146 C143 1.351 . S
N146 N147 1.365 . S
N147 C144 1.341 . S
N147 N146 1.365 . S
N147 H167 0.862 . S
C148 C143 1.501 . S
C148 H149 0.961 . S
C148 H150 0.961 . S
C148 H151 0.960 . S
H149 C148 0.961 . S
H150 C148 0.961 . S
H151 C148 0.960 . S
C152 N153 1.342 . S
C152 C156 1.401 . S
C152 C157 1.499 . S
N153 Co136 1.989 1_556 S
N153 C152 1.342 . S
N153 N154 1.388 . S
N154 Co137 1.993 1_556 S
N154 N153 1.388 . S
N154 C155 1.346 . S
C155 N154 1.346 . S
C155 C156 1.396 . S
C155 C165 1.510 . S
C156 C152 1.401 . S
C156 C155 1.396 . S
C157 C152 1.499 . S
C157 H158 0.959 . S
C157 H159 0.960 . S
C157 H160 0.966 . S
H158 C157 0.959 . S
H159 C157 0.960 . S
H160 C157 0.966 . S
O161 Co136 1.967 . S
O161 C169 1.258 . S
O162 Co137 1.941 . S
O162 C169 1.266 . S
H163 C165 0.959 . S
H164 C165 0.961 . S
C165 C155 1.510 . S
C165 H163 0.959 . S
C165 H164 0.961 . S
C165 H166 0.960 . S
H166 C165 0.960 . S
H167 N147 0.862 . S
O168 Co136 1.920 . S
O168 C141 1.289 . S
C169 O161 1.258 . S
C169 O162 1.266 . S
Co170 O173 1.970 . S
Co170 N187 1.989 . S
Co170 O195 1.967 . S
Co170 O202 1.920 . S
Co171 O174 1.966 . S
Co171 N180 2.022 . S
Co171 N188 1.993 . S
Co171 O196 1.941 . S
C172 O173 1.258 . S
C172 O174 1.263 . S
O173 Co170 1.970 . S
O173 C172 1.258 . S
O174 Co171 1.966 . S
O174 C172 1.263 . S
C175 O176 1.235 . S
C175 O202 1.289 . S
O176 C175 1.235 . S
C177 C179 1.400 . S
C177 N180 1.351 . S
C177 C182 1.501 . S
C178 C179 1.387 . S
C178 N181 1.341 . S
C179 C177 1.400 . S
C179 C178 1.387 . S
N180 Co171 2.022 . S
N180 C177 1.351 . S
N180 N181 1.365 . S
N181 C178 1.341 . S
N181 N180 1.365 . S
N181 H201 0.862 . S
C182 C177 1.501 . S
C182 H183 0.961 . S
C182 H184 0.961 . S
C182 H185 0.960 . S
H183 C182 0.961 . S
H184 C182 0.961 . S
H185 C182 0.960 . S
C186 N187 1.342 . S
C186 C190 1.401 . S
C186 C191 1.499 . S
N187 Co170 1.989 . S
N187 C186 1.342 . S
N187 N188 1.388 . S
N188 Co171 1.993 . S
N188 N187 1.388 . S
N188 C189 1.346 . S
C189 N188 1.346 . S
C189 C190 1.396 . S
C189 C199 1.510 . S
C190 C186 1.401 . S
C190 C189 1.396 . S
C191 C186 1.499 . S
C191 H192 0.959 . S
C191 H193 0.960 . S
C191 H194 0.966 . S
H192 C191 0.959 . S
H193 C191 0.960 . S
H194 C191 0.966 . S
O195 Co170 1.967 . S
O195 C203 1.258 . S
O196 Co171 1.941 . S
O196 C203 1.266 . S
H197 C199 0.959 . S
H198 C199 0.961 . S
C199 C189 1.510 . S
C199 H197 0.959 . S
C199 H198 0.961 . S
C199 H200 0.960 . S
H200 C199 0.960 . S
H201 N181 0.862 . S
O202 Co170 1.920 . S
O202 C175 1.289 . S
C203 O195 1.258 . S
C203 O196 1.266 . S
Co204 O207 1.970 . S
Co204 N221 1.989 1_556 S
Co204 O229 1.967 . S
Co204 O236 1.920 . S
Co205 O208 1.966 . S
Co205 N214 2.022 . S
Co205 N222 1.993 1_556 S
Co205 O230 1.941 . S
C206 O207 1.258 . S
C206 O208 1.263 . S
O207 Co204 1.970 . S
O207 C206 1.258 . S
O208 Co205 1.966 . S
O208 C206 1.263 . S
C209 O210 1.235 . S
C209 O236 1.289 . S
O210 C209 1.235 . S
C211 C213 1.400 . S
C211 N214 1.351 . S
C211 C216 1.501 . S
C212 C213 1.387 . S
C212 N215 1.341 . S
C213 C211 1.400 . S
C213 C212 1.387 . S
N214 Co205 2.022 . S
N214 C211 1.351 . S
N214 N215 1.365 . S
N215 C212 1.341 . S
N215 N214 1.365 . S
N215 H235 0.862 . S
C216 C211 1.501 . S
C216 H217 0.961 . S
C216 H218 0.961 . S
C216 H219 0.960 . S
H217 C216 0.961 . S
H218 C216 0.961 . S
H219 C216 0.960 . S
C220 N221 1.342 . S
C220 C224 1.401 . S
C220 C225 1.499 . S
N221 Co204 1.989 1_554 S
N221 C220 1.342 . S
N221 N222 1.388 . S
N222 Co205 1.993 1_554 S
N222 N221 1.388 . S
N222 C223 1.346 . S
C223 N222 1.346 . S
C223 C224 1.396 . S
C223 C233 1.510 . S
C224 C220 1.401 . S
C224 C223 1.396 . S
C225 C220 1.499 . S
C225 H226 0.959 . S
C225 H227 0.960 . S
C225 H228 0.966 . S
H226 C225 0.959 . S
H227 C225 0.960 . S
H228 C225 0.966 . S
O229 Co204 1.967 . S
O229 C237 1.258 . S
O230 Co205 1.941 . S
O230 C237 1.266 . S
H231 C233 0.959 . S
H232 C233 0.961 . S
C233 C223 1.510 . S
C233 H231 0.959 . S
C233 H232 0.961 . S
C233 H234 0.960 . S
H234 C233 0.960 . S
H235 N215 0.862 . S
O236 Co204 1.920 . S
O236 C209 1.289 . S
C237 O229 1.258 . S
C237 O230 1.266 . S
Co238 O241 1.970 . S
Co238 N255 1.989 . S
Co238 O263 1.967 . S
Co238 O270 1.920 . S
Co239 O242 1.966 . S
Co239 N248 2.022 . S
Co239 N256 1.993 . S
Co239 O264 1.941 . S
C240 O241 1.258 . S
C240 O242 1.263 . S
O241 Co238 1.970 . S
O241 C240 1.258 . S
O242 Co239 1.966 . S
O242 C240 1.263 . S
C243 O244 1.235 . S
C243 O270 1.289 . S
O244 C243 1.235 . S
C245 C247 1.400 . S
C245 N248 1.351 . S
C245 C250 1.501 . S
C246 C247 1.387 . S
C246 N249 1.341 . S
C247 C245 1.400 . S
C247 C246 1.387 . S
N248 Co239 2.022 . S
N248 C245 1.351 . S
N248 N249 1.365 . S
N249 C246 1.341 . S
N249 N248 1.365 . S
N249 H269 0.862 . S
C250 C245 1.501 . S
C250 H251 0.961 . S
C250 H252 0.961 . S
C250 H253 0.960 . S
H251 C250 0.961 . S
H252 C250 0.961 . S
H253 C250 0.960 . S
C254 N255 1.342 . S
C254 C258 1.401 . S
C254 C259 1.499 . S
N255 Co238 1.989 . S
N255 C254 1.342 . S
N255 N256 1.388 . S
N256 Co239 1.993 . S
N256 N255 1.388 . S
N256 C257 1.346 . S
C257 N256 1.346 . S
C257 C258 1.396 . S
C257 C267 1.510 . S
C258 C254 1.401 . S
C258 C257 1.396 . S
C259 C254 1.499 . S
C259 H260 0.959 . S
C259 H261 0.960 . S
C259 H262 0.966 . S
H260 C259 0.959 . S
H261 C259 0.960 . S
H262 C259 0.966 . S
O263 Co238 1.967 . S
O263 C271 1.258 . S
O264 Co239 1.941 . S
O264 C271 1.266 . S
H265 C267 0.959 . S
H266 C267 0.961 . S
C267 C257 1.510 . S
C267 H265 0.959 . S
C267 H266 0.961 . S
C267 H268 0.960 . S
H268 C267 0.960 . S
H269 N249 0.862 . S
O270 Co238 1.920 . S
O270 C243 1.289 . S
C271 O263 1.258 . S
C271 O264 1.266 . S
H272 C278 0.930 . S
H273 C281 0.930 . S
H274 C282 0.930 . S
H275 C283 0.930 . S
H276 C286 0.930 . S
H277 C287 0.930 . S
C278 H272 0.930 . S
C278 C279 1.355 . S
C278 C280 1.415 . S
C279 C278 1.355 . S
C279 C281 1.419 . S
C280 C278 1.415 . S
C280 C285 1.425 . S
C280 C287 1.409 . S
C281 H273 0.930 . S
C281 C279 1.419 . S
C281 C282 1.362 . S
C282 H274 0.930 . S
C282 C281 1.362 . S
C282 C285 1.409 . S
C283 H275 0.930 . S
C283 C284 1.355 . S
C283 C285 1.415 . S
C284 C283 1.355 . S
C284 C286 1.419 . S
C285 C280 1.425 . S
C285 C282 1.409 . S
C285 C283 1.415 . S
C286 H276 0.930 . S
C286 C284 1.419 . S
C286 C287 1.362 . S
C287 H277 0.930 . S
C287 C280 1.409 . S
C287 C286 1.362 . S
H288 C294 0.930 . S
H289 C297 0.930 . S
H290 C298 0.930 . S
H291 C299 0.930 . S
H292 C302 0.930 . S
H293 C303 0.930 . S
C294 H288 0.930 . S
C294 C295 1.355 . S
C294 C296 1.415 . S
C295 C294 1.355 . S
C295 C297 1.419 . S
C296 C294 1.415 . S
C296 C301 1.425 . S
C296 C303 1.409 . S
C297 H289 0.930 . S
C297 C295 1.419 . S
C297 C298 1.362 . S
C298 H290 0.930 . S
C298 C297 1.362 . S
C298 C301 1.409 . S
C299 H291 0.930 . S
C299 C300 1.355 . S
C299 C301 1.415 . S
C300 C299 1.355 . S
C300 C302 1.419 . S
C301 C296 1.425 . S
C301 C298 1.409 . S
C301 C299 1.415 . S
C302 H292 0.930 . S
C302 C300 1.419 . S
C302 C303 1.362 . S
C303 H293 0.930 . S
C303 C296 1.409 . S
C303 C302 1.362 . S
H304 C310 0.930 . S
H305 C313 0.930 . S
H306 C314 0.930 . S
H307 C315 0.930 . S
H308 C318 0.930 . S
H309 C319 0.930 . S
C310 H304 0.930 . S
C310 C311 1.355 . S
C310 C312 1.415 . S
C311 C310 1.355 . S
C311 C313 1.419 . S
C312 C310 1.415 . S
C312 C317 1.425 . S
C312 C319 1.409 . S
C313 H305 0.930 . S
C313 C311 1.419 . S
C313 C314 1.362 . S
C314 H306 0.930 . S
C314 C313 1.362 . S
C314 C317 1.409 . S
C315 H307 0.930 . S
C315 C316 1.355 . S
C315 C317 1.415 . S
C316 C315 1.355 . S
C316 C318 1.419 . S
C317 C312 1.425 . S
C317 C314 1.409 . S
C317 C315 1.415 . S
C318 H308 0.930 . S
C318 C316 1.419 . S
C318 C319 1.362 . S
C319 H309 0.930 . S
C319 C312 1.409 . S
C319 C318 1.362 . S
H320 C326 0.930 . S
H321 C329 0.930 . S
H322 C330 0.930 . S
H323 C331 0.930 . S
H324 C334 0.930 . S
H325 C335 0.930 . S
C326 H320 0.930 . S
C326 C327 1.355 . S
C326 C328 1.415 . S
C327 C326 1.355 . S
C327 C329 1.419 . S
C328 C326 1.415 . S
C328 C333 1.425 . S
C328 C335 1.409 . S
C329 H321 0.930 . S
C329 C327 1.419 . S
C329 C330 1.362 . S
C330 H322 0.930 . S
C330 C329 1.362 . S
C330 C333 1.409 . S
C331 H323 0.930 . S
C331 C332 1.355 . S
C331 C333 1.415 . S
C332 C331 1.355 . S
C332 C334 1.419 . S
C333 C328 1.425 . S
C333 C330 1.409 . S
C333 C331 1.415 . S
C334 H324 0.930 . S
C334 C332 1.419 . S
C334 C335 1.362 . S
C335 H325 0.930 . S
C335 C328 1.409 . S
C335 C334 1.362 . S
H336 C342 0.930 . S
H337 C345 0.930 . S
H338 C346 0.930 . S
H339 C347 0.930 . S
H340 C350 0.935 . S
H341 C351 0.930 . S
C342 H336 0.930 . S
C342 C343 1.355 . S
C342 C344 1.415 . S
C343 C342 1.355 . S
C343 C345 1.419 . S
C344 C342 1.415 . S
C344 C349 1.425 . S
C344 C351 1.409 . S
C345 H337 0.930 . S
C345 C343 1.419 . S
C345 C346 1.362 . S
C346 H338 0.930 . S
C346 C345 1.362 . S
C346 C349 1.409 . S
C347 H339 0.930 . S
C347 C348 1.355 . S
C347 C349 1.415 1_545 S
C348 C347 1.355 . S
C348 C350 1.431 . S
C349 C344 1.425 . S
C349 C346 1.409 . S
C349 C347 1.415 1_565 S
C350 H340 0.935 . S
C350 C348 1.431 . S
C350 C351 1.345 1_545 S
C351 H341 0.930 . S
C351 C344 1.409 . S
C351 C350 1.345 1_565 S
H352 C358 0.930 . S
H353 C361 0.930 . S
H354 C362 0.930 . S
H355 C363 0.930 . S
H356 C366 0.930 . S
H357 C367 0.930 . S
C358 H352 0.930 . S
C358 C359 1.355 1_565 S
C358 C360 1.415 . S
C359 C358 1.355 1_545 S
C359 C361 1.419 . S
C360 C358 1.415 . S
C360 C365 1.425 . S
C360 C367 1.409 . S
C361 H353 0.930 . S
C361 C359 1.419 . S
C361 C362 1.362 . S
C362 H354 0.930 . S
C362 C361 1.362 . S
C362 C365 1.409 1_545 S
C363 H355 0.930 . S
C363 C364 1.355 . S
C363 C365 1.415 . S
C364 C363 1.355 . S
C364 C366 1.419 . S
C365 C360 1.425 . S
C365 C362 1.409 1_565 S
C365 C363 1.415 . S
C366 H356 0.930 . S
C366 C364 1.419 . S
C366 C367 1.362 . S
C367 H357 0.930 . S
C367 C360 1.409 . S
C367 C366 1.362 . S
H368 C374 0.930 . S
H369 C377 0.930 . S
H370 C378 0.930 . S
H371 C379 0.930 . S
H372 C382 0.930 . S
H373 C383 0.930 . S
C374 H368 0.930 . S
C374 C375 1.355 . S
C374 C376 1.415 . S
C375 C374 1.355 . S
C375 C377 1.419 . S
C376 C374 1.415 . S
C376 C381 1.425 . S
C376 C383 1.409 1_545 S
C377 H369 0.930 . S
C377 C375 1.419 . S
C377 C378 1.362 . S
C378 H370 0.930 . S
C378 C377 1.362 . S
C378 C381 1.409 . S
C379 H371 0.930 . S
C379 C380 1.355 1_545 S
C379 C381 1.415 . S
C380 C379 1.355 1_565 S
C380 C382 1.419 . S
C381 C376 1.425 . S
C381 C378 1.409 . S
C381 C379 1.415 . S
C382 H372 0.930 . S
C382 C380 1.419 . S
C382 C383 1.362 . S
C383 H373 0.930 . S
C383 C376 1.409 1_565 S
C383 C382 1.362 . S
H384 C390 0.930 . S
H385 C393 0.930 . S
H386 C394 0.930 . S
H387 C395 0.930 . S
H388 C398 0.930 . S
H389 C399 0.930 . S
C390 H384 0.930 . S
C390 C391 1.355 . S
C390 C392 1.415 . S
C391 C390 1.355 . S
C391 C393 1.419 . S
C392 C390 1.415 . S
C392 C397 1.425 . S
C392 C399 1.409 1_545 S
C393 H385 0.930 . S
C393 C391 1.419 . S
C393 C394 1.362 . S
C394 H386 0.930 . S
C394 C393 1.362 . S
C394 C397 1.409 . S
C395 H387 0.930 . S
C395 C396 1.355 1_545 S
C395 C397 1.415 . S
C396 C395 1.355 1_565 S
C396 C398 1.419 . S
C397 C392 1.425 . S
C397 C394 1.409 . S
C397 C395 1.415 . S
C398 H388 0.930 . S
C398 C396 1.419 . S
C398 C399 1.362 . S
C399 H389 0.930 . S
C399 C392 1.409 1_565 S
C399 C398 1.362 . S
H400 C406 0.930 . S
H401 C409 0.930 . S
H402 C410 0.930 . S
H403 C411 0.930 . S
H404 C414 0.930 . S
H405 C415 0.930 . S
C406 H400 0.930 . S
C406 C407 1.355 . S
C406 C408 1.415 . S
C407 C406 1.355 . S
C407 C409 1.419 1_554 S
C408 C406 1.415 . S
C408 C413 1.425 1_554 S
C408 C415 1.409 . S
C409 H401 0.930 . S
C409 C407 1.419 1_556 S
C409 C410 1.362 . S
C410 H402 0.930 . S
C410 C409 1.362 . S
C410 C413 1.409 . S
C411 H403 0.930 . S
C411 C412 1.355 . S
C411 C413 1.415 . S
C412 C411 1.355 . S
C412 C414 1.419 1_556 S
C413 C408 1.425 1_556 S
C413 C410 1.409 . S
C413 C411 1.415 . S
C414 H404 0.930 . S
C414 C412 1.419 1_554 S
C414 C415 1.362 . S
C415 H405 0.930 . S
C415 C408 1.409 . S
C415 C414 1.362 . S
H416 C422 0.930 . S
H417 C425 0.930 . S
H418 C426 0.930 . S
H419 C427 0.930 . S
H420 C430 0.930 . S
H421 C431 0.930 . S
C422 H416 0.930 . S
C422 C423 1.355 . S
C422 C424 1.415 . S
C423 C422 1.355 . S
C423 C425 1.419 . S
C424 C422 1.415 . S
C424 C429 1.425 . S
C424 C431 1.409 . S
C425 H417 0.930 . S
C425 C423 1.419 . S
C425 C426 1.362 . S
C426 H418 0.930 . S
C426 C425 1.362 . S
C426 C429 1.409 . S
C427 H419 0.930 . S
C427 C428 1.355 . S
C427 C429 1.415 . S
C428 C427 1.355 . S
C428 C430 1.419 . S
C429 C424 1.425 . S
C429 C426 1.409 . S
C429 C427 1.415 . S
C430 H420 0.930 . S
C430 C428 1.419 . S
C430 C431 1.362 . S
C431 H421 0.930 . S
C431 C424 1.409 . S
C431 C430 1.362 . S
H432 C438 0.930 . S
H433 C441 0.930 . S
H434 C442 0.930 . S
H435 C443 0.930 . S
H436 C446 0.930 . S
H437 C447 0.930 . S
C438 H432 0.930 . S
C438 C439 1.355 1_544 S
C438 C440 1.415 . S
C439 C438 1.355 1_566 S
C439 C441 1.419 . S
C440 C438 1.415 . S
C440 C445 1.425 1_444 S
C440 C447 1.409 . S
C441 H433 0.930 . S
C441 C439 1.419 . S
C441 C442 1.362 1_455 S
C442 H434 0.930 . S
C442 C441 1.362 1_655 S
C442 C445 1.409 . S
C443 H435 0.930 . S
C443 C444 1.355 1_566 S
C443 C445 1.415 . S
C444 C443 1.355 1_544 S
C444 C446 1.419 . S
C445 C440 1.425 1_666 S
C445 C442 1.409 . S
C445 C443 1.415 . S
C446 H436 0.930 . S
C446 C444 1.419 . S
C446 C447 1.362 1_655 S
C447 H437 0.930 . S
C447 C440 1.409 . S
C447 C446 1.362 1_455 S
H448 C454 0.930 . S
H449 C457 0.930 . S
H450 C458 0.930 . S
H451 C459 0.930 . S
H452 C462 0.930 . S
H453 C463 0.930 . S
C454 H448 0.930 . S
C454 C455 1.355 . S
C454 C456 1.415 . S
C455 C454 1.355 . S
C455 C457 1.419 1_565 S
C456 C454 1.415 . S
C456 C461 1.425 1_665 S
C456 C463 1.409 . S
C457 H449 0.930 . S
C457 C455 1.419 1_545 S
C457 C458 1.362 1_655 S
C458 H450 0.930 . S
C458 C457 1.362 1_455 S
C458 C461 1.409 . S
C459 H451 0.930 . S
C459 C460 1.355 . S
C459 C461 1.415 . S
C460 C459 1.355 . S
C460 C462 1.419 1_545 S
C461 C456 1.425 1_445 S
C461 C458 1.409 . S
C461 C459 1.415 . S
C462 H452 0.930 . S
C462 C460 1.419 1_565 S
C462 C463 1.362 1_455 S
C463 H453 0.930 . S
C463 C456 1.409 . S
C463 C462 1.362 1_655 S
H464 C470 0.930 . S
H465 C473 0.930 . S
H466 C474 0.930 . S
H467 C475 0.930 . S
H468 C478 0.930 . S
H469 C479 0.930 . S
C470 H464 0.930 . S
C470 C471 1.355 . S
C470 C472 1.415 . S
C471 C470 1.355 . S
C471 C473 1.419 1_554 S
C472 C470 1.415 . S
C472 C477 1.425 1_554 S
C472 C479 1.409 . S
C473 H465 0.930 . S
C473 C471 1.419 1_556 S
C473 C474 1.362 . S
C474 H466 0.930 . S
C474 C473 1.362 . S
C474 C477 1.409 . S
C475 H467 0.930 . S
C475 C476 1.355 . S
C475 C477 1.415 . S
C476 C475 1.355 . S
C476 C478 1.419 1_556 S
C477 C472 1.425 1_556 S
C477 C474 1.409 . S
C477 C475 1.415 . S
C478 H468 0.930 . S
C478 C476 1.419 1_554 S
C478 C479 1.362 . S
C479 H469 0.930 . S
C479 C472 1.409 . S
C479 C478 1.362 . S
H480 C486 0.930 . S
H481 C489 0.930 . S
H482 C490 0.930 . S
H483 C491 0.930 . S
H484 C494 0.930 . S
H485 C495 0.930 . S
C486 H480 0.930 . S
C486 C487 1.355 . S
C486 C488 1.415 . S
C487 C486 1.355 . S
C487 C489 1.419 . S
C488 C486 1.415 . S
C488 C493 1.425 . S
C488 C495 1.409 . S
C489 H481 0.930 . S
C489 C487 1.419 . S
C489 C490 1.362 . S
C490 H482 0.930 . S
C490 C489 1.362 . S
C490 C493 1.409 . S
C491 H483 0.930 . S
C491 C492 1.355 . S
C491 C493 1.415 . S
C492 C491 1.355 . S
C492 C494 1.419 . S
C493 C488 1.425 . S
C493 C490 1.409 . S
C493 C491 1.415 . S
C494 H484 0.930 . S
C494 C492 1.419 . S
C494 C495 1.362 . S
C495 H485 0.930 . S
C495 C488 1.409 . S
C495 C494 1.362 . S
H496 C502 0.930 . S
H497 C505 0.930 . S
H498 C506 0.930 . S
H499 C507 0.930 . S
H500 C510 0.930 . S
H501 C511 0.930 . S
C502 H496 0.930 . S
C502 C503 1.355 1_556 S
C502 C504 1.415 . S
C503 C502 1.355 1_554 S
C503 C505 1.419 . S
C504 C502 1.415 . S
C504 C509 1.425 1_556 S
C504 C511 1.409 . S
C505 H497 0.930 . S
C505 C503 1.419 . S
C505 C506 1.362 . S
C506 H498 0.930 . S
C506 C505 1.362 . S
C506 C509 1.409 . S
C507 H499 0.930 . S
C507 C508 1.355 1_554 S
C507 C509 1.415 . S
C508 C507 1.355 1_556 S
C508 C510 1.419 . S
C509 C504 1.425 1_554 S
C509 C506 1.409 . S
C509 C507 1.415 . S
C510 H500 0.930 . S
C510 C508 1.419 . S
C510 C511 1.362 . S
C511 H501 0.930 . S
C511 C504 1.409 . S
C511 C510 1.362 . S
H512 C518 0.930 . S
H513 C521 0.930 . S
H514 C522 0.930 . S
H515 C523 0.930 . S
H516 C526 0.930 . S
H517 C527 0.930 . S
C518 H512 0.930 . S
C518 C519 1.355 . S
C518 C520 1.415 . S
C519 C518 1.355 . S
C519 C521 1.419 . S
C520 C518 1.415 . S
C520 C525 1.425 . S
C520 C527 1.409 . S
C521 H513 0.930 . S
C521 C519 1.419 . S
C521 C522 1.362 . S
C522 H514 0.930 . S
C522 C521 1.362 . S
C522 C525 1.409 . S
C523 H515 0.930 . S
C523 C524 1.355 . S
C523 C525 1.415 . S
C524 C523 1.355 . S
C524 C526 1.419 . S
C525 C520 1.425 . S
C525 C522 1.409 . S
C525 C523 1.415 . S
C526 H516 0.930 . S
C526 C524 1.419 . S
C526 C527 1.362 . S
C527 H517 0.930 . S
C527 C520 1.409 . S
C527 C526 1.362 . S
H528 C534 0.930 . S
H529 C537 0.930 . S
H530 C538 0.930 . S
H531 C539 0.930 . S
H532 C542 0.930 . S
H533 C543 0.930 . S
C534 H528 0.930 . S
C534 C535 1.355 . S
C534 C536 1.415 . S
C535 C534 1.355 . S
C535 C537 1.419 . S
C536 C534 1.415 . S
C536 C541 1.425 . S
C536 C543 1.409 . S
C537 H529 0.930 . S
C537 C535 1.419 . S
C537 C538 1.362 . S
C538 H530 0.930 . S
C538 C537 1.362 . S
C538 C541 1.409 . S
C539 H531 0.930 . S
C539 C540 1.355 . S
C539 C541 1.415 . S
C540 C539 1.355 . S
C540 C542 1.419 . S
C541 C536 1.425 . S
C541 C538 1.409 . S
C541 C539 1.415 . S
C542 H532 0.930 . S
C542 C540 1.419 . S
C542 C543 1.362 . S
C543 H533 0.930 . S
C543 C536 1.409 . S
C543 C542 1.362 . S
H544 C550 0.930 . S
H545 C553 0.930 . S
H546 C554 0.930 . S
H547 C555 0.930 . S
H548 C558 0.930 . S
H549 C559 0.930 . S
C550 H544 0.930 . S
C550 C551 1.355 . S
C550 C552 1.415 . S
C551 C550 1.355 . S
C551 C553 1.419 . S
C552 C550 1.415 . S
C552 C557 1.425 . S
C552 C559 1.409 . S
C553 H545 0.930 . S
C553 C551 1.419 . S
C553 C554 1.362 . S
C554 H546 0.930 . S
C554 C553 1.362 . S
C554 C557 1.409 . S
C555 H547 0.930 . S
C555 C556 1.355 . S
C555 C557 1.415 . S
C556 C555 1.355 . S
C556 C558 1.419 . S
C557 C552 1.425 . S
C557 C554 1.409 . S
C557 C555 1.415 . S
C558 H548 0.930 . S
C558 C556 1.419 . S
C558 C559 1.362 . S
C559 H549 0.930 . S
C559 C552 1.409 . S
C559 C558 1.362 . S
H560 C566 0.930 . S
H561 C569 0.930 . S
H562 C570 0.930 1_655 S
H563 C571 0.930 . S
H564 C574 0.930 . S
H565 C575 0.930 1_455 S
C566 H560 0.930 . S
C566 C567 1.355 . S
C566 C568 1.415 . S
C567 C566 1.355 . S
C567 C569 1.419 . S
C568 C566 1.415 . S
C568 C573 1.425 1_455 S
C568 C575 1.409 1_455 S
C569 H561 0.930 . S
C569 C567 1.419 . S
C569 C570 1.362 . S
C570 H562 0.930 1_455 S
C570 C569 1.362 . S
C570 C573 1.409 1_455 S
C571 H563 0.930 . S
C571 C572 1.355 . S
C571 C573 1.415 . S
C572 C571 1.355 . S
C572 C574 1.419 . S
C573 C568 1.425 1_655 S
C573 C570 1.409 1_655 S
C573 C571 1.415 . S
C574 H564 0.930 . S
C574 C572 1.419 . S
C574 C575 1.362 . S
C575 H565 0.930 1_655 S
C575 C568 1.409 1_655 S
C575 C574 1.362 . S
H576 C582 0.930 . S
H577 C585 0.930 . S
H578 C586 0.930 . S
H579 C587 0.930 . S
H580 C590 0.930 . S
H581 C591 0.930 . S
C582 H576 0.930 . S
C582 C583 1.355 . S
C582 C584 1.415 . S
C583 C582 1.355 . S
C583 C585 1.419 . S
C584 C582 1.415 . S
C584 C589 1.425 1_455 S
C584 C591 1.409 . S
C585 H577 0.930 . S
C585 C583 1.419 . S
C585 C586 1.362 1_455 S
C586 H578 0.930 . S
C586 C585 1.362 1_655 S
C586 C589 1.409 . S
C587 H579 0.930 . S
C587 C588 1.355 . S
C587 C589 1.415 . S
C588 C587 1.355 . S
C588 C590 1.419 . S
C589 C584 1.425 1_655 S
C589 C586 1.409 . S
C589 C587 1.415 . S
C590 H580 0.930 . S
C590 C588 1.419 . S
C590 C591 1.362 1_655 S
C591 H581 0.930 . S
C591 C584 1.409 . S
C591 C590 1.362 1_455 S
C279 C135 1.552 . S
C284 C20 1.479 . S
C295 C54 1.491 . S
C300 C101 1.552 . S
C311 C67 1.566 . S
C316 C88 1.444 . S
C327 C33 1.563 . S
C332 C122 1.444 . S
C343 C156 1.486 . S
C348 C271 1.553 . S
C359 C237 1.549 . S
C364 C190 1.492 . S
C375 C224 1.432 . S
C380 C203 1.566 . S
C391 C258 1.474 . S
C396 C169 1.554 . S
C407 C5 0.712 . S
C412 C73 0.712 . S
C423 C39 0.819 . S
C428 C107 0.819 . S
C439 C209 0.798 1_565 S
C444 C141 0.798 1_545 S
C455 C243 0.716 1_565 S
C460 C175 0.716 1_545 S
C471 C9 1.324 . S
C476 C213 1.324 . S
C487 C43 1.326 . S
C492 C247 1.326 . S
C503 C145 1.335 . S
C508 C77 1.335 . S
C519 C179 1.373 . S
C524 C111 1.373 . S
C535 C36 1.955 . S
C540 C2 1.933 . S
C551 C104 1.942 . S
C556 C70 1.921 . S
C567 C172 1.907 . S
C572 C138 1.965 . S
C583 C206 1.949 . S
C588 C240 1.916 . S
