# Generated by pormake.
# Topology sof, (5)-cn, num edge types: 1
# Building blocks:
#     Node 0, Type 0, BuildingBlock: BEQFEK_clean_sbu_0, # of connection points: 5
#     Node 1, Type 0, BuildingBlock: BEQFEK_clean_sbu_0, # of connection points: 5
#     Node 2, Type 0, BuildingBlock: BEQFEK_clean_sbu_0, # of connection points: 5
#     Node 3, Type 0, BuildingBlock: BEQFEK_clean_sbu_0, # of connection points: 5
#     Node 4, Type 0, BuildingBlock: BEQFEK_clean_sbu_0, # of connection points: 5
#     Node 5, Type 0, BuildingBlock: BEQFEK_clean_sbu_0, # of connection points: 5
#     Node 6, Type 0, BuildingBlock: BEQFEK_clean_sbu_0, # of connection points: 5
#     Node 7, Type 0, BuildingBlock: BEQFEK_clean_sbu_0, # of connection points: 5
#     Edge 8, Type (0, 0), BuildingBlock: XUDNAN_clean_linker_2, # of connection points: 2
#     Edge 9, Type (0, 0), BuildingBlock: XUDNAN_clean_linker_2, # of connection points: 2
#     Edge 10, Type (0, 0), BuildingBlock: XUDNAN_clean_linker_2, # of connection points: 2
#     Edge 11, Type (0, 0), BuildingBlock: XUDNAN_clean_linker_2, # of connection points: 2
#     Edge 12, Type (0, 0), BuildingBlock: XUDNAN_clean_linker_2, # of connection points: 2
#     Edge 13, Type (0, 0), BuildingBlock: XUDNAN_clean_linker_2, # of connection points: 2
#     Edge 14, Type (0, 0), BuildingBlock: XUDNAN_clean_linker_2, # of connection points: 2
#     Edge 15, Type (0, 0), BuildingBlock: XUDNAN_clean_linker_2, # of connection points: 2
#     Edge 16, Type (0, 0), BuildingBlock: XUDNAN_clean_linker_2, # of connection points: 2
#     Edge 17, Type (0, 0), BuildingBlock: XUDNAN_clean_linker_2, # of connection points: 2
#     Edge 18, Type (0, 0), BuildingBlock: XUDNAN_clean_linker_2, # of connection points: 2
#     Edge 19, Type (0, 0), BuildingBlock: XUDNAN_clean_linker_2, # of connection points: 2
#     Edge 20, Type (0, 0), BuildingBlock: XUDNAN_clean_linker_2, # of connection points: 2
#     Edge 21, Type (0, 0), BuildingBlock: XUDNAN_clean_linker_2, # of connection points: 2
#     Edge 22, Type (0, 0), BuildingBlock: XUDNAN_clean_linker_2, # of connection points: 2
#     Edge 23, Type (0, 0), BuildingBlock: XUDNAN_clean_linker_2, # of connection points: 2
#     Edge 24, Type (0, 0), BuildingBlock: XUDNAN_clean_linker_2, # of connection points: 2
#     Edge 25, Type (0, 0), BuildingBlock: XUDNAN_clean_linker_2, # of connection points: 2
#     Edge 26, Type (0, 0), BuildingBlock: XUDNAN_clean_linker_2, # of connection points: 2
#     Edge 27, Type (0, 0), BuildingBlock: XUDNAN_clean_linker_2, # of connection points: 2
# Relax obj value: 0.156
# Max RMSD: 0.171
# Mean RMSD: 0.171
data_MOF--net-sof--node1-BEQFEK_clean_sbu_0--edge1-XUDNAN_clean_linker_2
_symmetry_space_group_name_H-M    P1
_symmetry_Int_Tables_number       1
_symmetry_cell_setting            triclinic
loop_
_symmetry_equiv_pos_as_xyz
'x, y, z'
_cell_length_a     58.437169
_cell_length_b     18.839069
_cell_length_c     44.126943
_cell_angle_alpha  90.015262
_cell_angle_beta   90.116684
_cell_angle_gamma 89.975805
loop_
_atom_site_label
_atom_site_type_symbol
_atom_site_fract_x
_atom_site_fract_y
_atom_site_fract_z
_atom_type_partial_charge
Co0 Co 0.13177 0.14503 0.09085 0.0
Co1 Co 0.12877 0.98871 0.1132 0.0
C2 C 0.17202 0.05018 0.0866 0.0
O3 O 0.16273 0.10917 0.07994 0.0
O4 O 0.16102 0.00157 0.10015 0.0
C5 C 0.14329 0.27416 0.05967 0.0
O6 O 0.16043 0.23736 0.04858 0.0
C7 C 0.13479 0.83995 0.10133 0.0
C8 C 0.11468 0.78655 0.13698 0.0
C9 C 0.12843 0.77365 0.11195 0.0
N10 N 0.12542 0.88953 0.11926 0.0
N11 N 0.11349 0.85752 0.14067 0.0
C12 C 0.14747 0.85699 0.07275 0.0
H13 H 0.142 0.90935 0.06378 0.0
H14 H 0.14443 0.81583 0.0552 0.0
H15 H 0.16607 0.85954 0.0777 0.0
C16 C 0.09098 0.10052 0.05546 0.0
N17 N 0.10825 0.087 0.07484 0.0
N18 N 0.10725 0.02026 0.08344 0.0
C19 C 0.08942 0.98864 0.06932 0.0
C20 C 0.07845 0.03852 0.05107 0.0
C21 C 0.08582 0.17283 0.04314 0.0
H22 H 0.08704 0.2126 0.06161 0.0
H23 H 0.09874 0.18665 0.02573 0.0
H24 H 0.06845 0.17552 0.03301 0.0
O25 O 0.12886 0.15146 0.13547 0.0
O26 O 0.12436 0.04098 0.15194 0.0
H27 H 0.08013 0.89838 0.09606 0.0
H28 H 0.06926 0.89525 0.05764 0.0
C29 C 0.08389 0.91127 0.07206 0.0
H30 H 0.0989 0.87967 0.06494 0.0
H31 H 0.1043 0.88405 0.15748 0.0
O32 O 0.12876 0.24366 0.0766 0.0
C33 C 0.12559 0.10759 0.15697 0.0
Co34 Co 0.37526 0.84973 0.08862 0.0
Co35 Co 0.38047 0.00296 0.1122 0.0
C36 C 0.33626 0.94628 0.08442 0.0
O37 O 0.34496 0.88723 0.07659 0.0
O38 O 0.34786 0.99239 0.09888 0.0
C39 C 0.37106 0.71619 0.05377 0.0
O40 O 0.36209 0.74979 0.03053 0.0
C41 C 0.3826 0.15083 0.09618 0.0
C42 C 0.39402 0.20324 0.13835 0.0
C43 C 0.38821 0.21645 0.10835 0.0
N44 N 0.38533 0.1014 0.11776 0.0
N45 N 0.39215 0.1328 0.14297 0.0
C46 C 0.37387 0.13466 0.06498 0.0
H47 H 0.36521 0.08248 0.06434 0.0
H48 H 0.38846 0.13215 0.049 0.0
H49 H 0.36186 0.17662 0.05726 0.0
C50 C 0.41766 0.88803 0.05505 0.0
N51 N 0.39965 0.90439 0.07275 0.0
N52 N 0.4024 0.96872 0.08368 0.0
C53 C 0.42263 0.99475 0.07392 0.0
C54 C 0.43298 0.94464 0.05526 0.0
C55 C 0.42026 0.81872 0.03888 0.0
H56 H 0.40408 0.80582 0.027 0.0
H57 H 0.43429 0.82039 0.022 0.0
H58 H 0.42371 0.77615 0.05566 0.0
O59 O 0.37785 0.84351 0.13366 0.0
O60 O 0.38403 0.95235 0.15091 0.0
H61 H 0.45235 0.05924 0.0841 0.0
H62 H 0.4272 0.10727 0.07253 0.0
C63 C 0.43343 0.06125 0.08587 0.0
H64 H 0.42872 0.06922 0.10994 0.0
H65 H 0.39551 0.10623 0.16324 0.0
O66 O 0.37752 0.75007 0.07708 0.0
C67 C 0.38175 0.88599 0.1555 0.0
Co68 Co 0.13365 0.34851 0.41967 0.0
Co69 Co 0.13249 0.49593 0.38598 0.0
C70 C 0.1747 0.43485 0.41868 0.0
O71 O 0.16461 0.38193 0.43058 0.0
O72 O 0.1643 0.47726 0.40088 0.0
C73 C 0.13955 0.21108 0.45026 0.0
O74 O 0.15669 0.23874 0.4655 0.0
C75 C 0.14022 0.6484 0.39334 0.0
C76 C 0.11482 0.69623 0.36245 0.0
C77 C 0.13009 0.71279 0.38554 0.0
N78 N 0.13058 0.5962 0.37682 0.0
N79 N 0.11588 0.6255 0.35775 0.0
C80 C 0.15945 0.63622 0.41525 0.0
H81 H 0.17294 0.60428 0.4041 0.0
H82 H 0.15307 0.60616 0.43514 0.0
H83 H 0.16757 0.68647 0.42265 0.0
C84 C 0.09243 0.4062 0.449 0.0
N85 N 0.11094 0.41339 0.43115 0.0
N86 N 0.11004 0.47471 0.41686 0.0
C87 C 0.09081 0.50879 0.42556 0.0
C88 C 0.07892 0.46639 0.44591 0.0
C89 C 0.0865 0.33887 0.46514 0.0
H90 H 0.0823 0.29744 0.44813 0.0
H91 H 0.10157 0.32011 0.47822 0.0
H92 H 0.07169 0.34576 0.48052 0.0
O93 O 0.13126 0.33578 0.37596 0.0
O94 O 0.12724 0.43434 0.34919 0.0
H95 H 0.07994 0.57625 0.38937 0.0
H96 H 0.06789 0.59949 0.42573 0.0
C97 C 0.08343 0.57989 0.41402 0.0
H98 H 0.09729 0.61882 0.41793 0.0
H99 H 0.1055 0.59682 0.34287 0.0
O100 O 0.12755 0.25014 0.43302 0.0
C101 C 0.12823 0.36671 0.35072 0.0
Co102 Co 0.37706 0.64536 0.41827 0.0
Co103 Co 0.38149 0.49816 0.38571 0.0
C104 C 0.33801 0.55263 0.41823 0.0
O105 O 0.34704 0.60747 0.43004 0.0
O106 O 0.34923 0.51213 0.4005 0.0
C107 C 0.37097 0.78352 0.44938 0.0
O108 O 0.35598 0.75481 0.4678 0.0
C109 C 0.37476 0.34559 0.39355 0.0
C110 C 0.40149 0.29842 0.3646 0.0
C111 C 0.38531 0.28162 0.38642 0.0
N112 N 0.38485 0.39799 0.3777 0.0
N113 N 0.40045 0.36913 0.35986 0.0
C114 C 0.35466 0.3569 0.41404 0.0
H115 H 0.34095 0.38446 0.40126 0.0
H116 H 0.3598 0.39087 0.43344 0.0
H117 H 0.34727 0.30641 0.42233 0.0
C118 C 0.4176 0.59458 0.45131 0.0
N119 N 0.40096 0.58585 0.43056 0.0
N120 N 0.40358 0.52451 0.41669 0.0
C121 C 0.42228 0.49211 0.42845 0.0
C122 C 0.43177 0.53546 0.45075 0.0
C123 C 0.42028 0.66029 0.47006 0.0
H124 H 0.4214 0.70704 0.45486 0.0
H125 H 0.40487 0.66728 0.48442 0.0
H126 H 0.4358 0.65846 0.48452 0.0
O127 O 0.37861 0.65539 0.37444 0.0
O128 O 0.38527 0.55802 0.34801 0.0
H129 H 0.43469 0.41936 0.3952 0.0
H130 H 0.44546 0.40263 0.43293 0.0
C131 C 0.43031 0.41961 0.41963 0.0
H132 H 0.41637 0.38087 0.4235 0.0
H133 H 0.41126 0.39809 0.3457 0.0
O134 O 0.38145 0.74514 0.43029 0.0
C135 C 0.3822 0.62505 0.34924 0.0
Co136 Co 0.87375 0.85751 0.91532 0.0
Co137 Co 0.88233 0.00509 0.88373 0.0
C138 C 0.83619 0.95684 0.90983 0.0
O139 O 0.84277 0.90102 0.92371 0.0
O140 O 0.85027 0.99392 0.89477 0.0
C141 C 0.87509 0.71816 0.9507 0.0
O142 O 0.87476 0.7491 0.97737 0.0
C143 C 0.87793 0.15635 0.89437 0.0
C144 C 0.89912 0.20586 0.85888 0.0
C145 C 0.88617 0.22121 0.88436 0.0
N146 N 0.88603 0.10488 0.87618 0.0
N147 N 0.89839 0.13488 0.85465 0.0
C148 C 0.86268 0.14255 0.92098 0.0
H149 H 0.86965 0.098 0.93463 0.0
H150 H 0.86038 0.19012 0.93541 0.0
H151 H 0.84557 0.12634 0.91253 0.0
C152 C 0.91877 0.89806 0.94467 0.0
N153 N 0.8998 0.91233 0.92805 0.0
N154 N 0.90202 0.97593 0.91599 0.0
C155 C 0.92158 0.0056 0.92599 0.0
C156 C 0.93327 0.95684 0.94383 0.0
C157 C 0.92439 0.82638 0.95721 0.0
H158 H 0.91815 0.78452 0.94161 0.0
H159 H 0.91573 0.81988 0.97937 0.0
H160 H 0.94309 0.81977 0.96058 0.0
O161 O 0.87537 0.84833 0.87125 0.0
O162 O 0.88654 0.94458 0.84642 0.0
H163 H 0.93225 0.08565 0.89454 0.0
H164 H 0.94388 0.09696 0.93236 0.0
C165 C 0.92869 0.08029 0.9191 0.0
H166 H 0.91463 0.11679 0.92522 0.0
H167 H 0.90701 0.1068 0.83778 0.0
O168 O 0.87491 0.75545 0.92673 0.0
C169 C 0.8806 0.87933 0.84667 0.0
Co170 Co 0.63016 0.14596 0.9139 0.0
Co171 Co 0.6267 0.99664 0.88301 0.0
C172 C 0.67103 0.05897 0.90927 0.0
O173 O 0.66203 0.11448 0.92051 0.0
O174 O 0.6593 0.01489 0.89389 0.0
C175 C 0.63582 0.28164 0.94699 0.0
O176 O 0.65021 0.25135 0.96589 0.0
C177 C 0.63279 0.84615 0.89443 0.0
C178 C 0.61089 0.79476 0.86003 0.0
C179 C 0.62414 0.78073 0.88547 0.0
N180 N 0.62436 0.8965 0.8759 0.0
N181 N 0.61163 0.86534 0.85499 0.0
C182 C 0.64948 0.86136 0.91945 0.0
H183 H 0.6641 0.89174 0.91028 0.0
H184 H 0.64107 0.89435 0.93705 0.0
H185 H 0.65663 0.81247 0.92966 0.0
C186 C 0.59243 0.08735 0.95144 0.0
N187 N 0.6084 0.08215 0.92953 0.0
N188 N 0.60629 0.02059 0.91568 0.0
C189 C 0.58871 0.98488 0.9283 0.0
C190 C 0.57944 0.02558 0.95152 0.0
C191 C 0.58984 0.15022 0.97182 0.0
H192 H 0.60693 0.17217 0.97752 0.0
H193 H 0.58062 0.13593 0.99292 0.0
H194 H 0.58001 0.19196 0.95974 0.0
O195 O 0.62482 0.15579 0.87012 0.0
O196 O 0.61988 0.05426 0.84566 0.0
H197 H 0.56179 0.90636 0.92443 0.0
H198 H 0.59056 0.87191 0.92485 0.0
C199 C 0.57956 0.91587 0.91663 0.0
H200 H 0.57968 0.9161 0.89154 0.0
H201 H 0.60262 0.8925 0.83816 0.0
O202 O 0.62569 0.24487 0.92697 0.0
C203 C 0.62073 0.12195 0.84579 0.0
Co204 Co 0.87948 0.64849 0.59097 0.0
Co205 Co 0.88411 0.48979 0.61204 0.0
C206 C 0.84048 0.5463 0.58525 0.0
O207 O 0.84837 0.60891 0.58226 0.0
O208 O 0.85258 0.49601 0.59583 0.0
C209 C 0.865 0.77957 0.56327 0.0
O210 O 0.84739 0.74202 0.55409 0.0
C211 C 0.88233 0.33669 0.60286 0.0
C212 C 0.89841 0.29506 0.64452 0.0
C213 C 0.88766 0.27451 0.61793 0.0
N214 N 0.88978 0.39173 0.61958 0.0
N215 N 0.89967 0.36648 0.64429 0.0
C216 C 0.86839 0.34409 0.57457 0.0
H217 H 0.87294 0.39388 0.56257 0.0
H218 H 0.87101 0.29789 0.55937 0.0
H219 H 0.85 0.34641 0.58073 0.0
C220 C 0.91939 0.60682 0.55374 0.0
N221 N 0.90298 0.59205 0.57412 0.0
N222 N 0.90556 0.52641 0.58376 0.0
C223 C 0.92392 0.4975 0.57 0.0
C224 C 0.93324 0.54746 0.55049 0.0
C225 C 0.92212 0.67754 0.53877 0.0
H226 H 0.92398 0.71911 0.55642 0.0
H227 H 0.90643 0.68987 0.52557 0.0
H228 H 0.93724 0.67894 0.52363 0.0
O229 O 0.88366 0.65469 0.63537 0.0
O230 O 0.88528 0.54276 0.6512 0.0
H231 H 0.9336 0.41151 0.59905 0.0
H232 H 0.94806 0.41142 0.56281 0.0
C233 C 0.93167 0.42246 0.57448 0.0
H234 H 0.91848 0.38601 0.56531 0.0
H235 H 0.90645 0.39805 0.66154 0.0
O236 O 0.88123 0.74868 0.57717 0.0
C237 C 0.88537 0.60927 0.65656 0.0
Co238 Co 0.63525 0.34986 0.5841 0.0
Co239 Co 0.63232 0.5028 0.61123 0.0
C240 C 0.67588 0.4471 0.58426 0.0
O241 O 0.66643 0.38879 0.57675 0.0
O242 O 0.66475 0.49525 0.59809 0.0
C243 C 0.63279 0.20017 0.54823 0.0
O244 O 0.63707 0.19912 0.51902 0.0
C245 C 0.6337 0.65963 0.61359 0.0
C246 C 0.60672 0.68134 0.64735 0.0
C247 C 0.62144 0.71438 0.62723 0.0
N248 N 0.6259 0.59742 0.62444 0.0
N249 N 0.61011 0.61094 0.64503 0.0
C250 C 0.6529 0.66569 0.59129 0.0
H251 H 0.66592 0.62438 0.59568 0.0
H252 H 0.64611 0.65785 0.56802 0.0
H253 H 0.66144 0.71813 0.59286 0.0
C254 C 0.59368 0.40002 0.5515 0.0
N255 N 0.61212 0.41174 0.56928 0.0
N256 N 0.61123 0.47689 0.57996 0.0
C257 C 0.59223 0.50875 0.56904 0.0
C258 C 0.5804 0.46117 0.55079 0.0
C259 C 0.58752 0.32895 0.53876 0.0
H260 H 0.58737 0.28904 0.55726 0.0
H261 H 0.60077 0.31272 0.52218 0.0
H262 H 0.57058 0.32975 0.52737 0.0
O263 O 0.63064 0.33044 0.62821 0.0
O264 O 0.6277 0.43978 0.6466 0.0
H265 H 0.57883 0.58204 0.60141 0.0
H266 H 0.5701 0.59982 0.56292 0.0
C267 C 0.5845 0.58185 0.57746 0.0
H268 H 0.59889 0.61957 0.57489 0.0
H269 H 0.60103 0.5719 0.65669 0.0
O270 O 0.63374 0.25877 0.56234 0.0
C271 C 0.6276 0.37271 0.65041 0.0
H272 H 0.20776 0.04924 0.1259 0.0
H273 H 0.19029 0.02165 0.03124 0.0
H274 H 0.23078 0.99168 0.0198 0.0
H275 H 0.26298 0.1324 0.11313 0.0
H276 H 0.27621 0.08992 0.1453 0.0
H277 H 0.24598 0.1086 0.14563 0.0
H278 H 0.23756 0.97596 0.15644 0.0
H279 H 0.26774 0.95679 0.15598 0.0
H280 H 0.24863 0.90909 0.13118 0.0
H281 H 0.27277 0.95569 0.01998 0.0
H282 H 0.31372 0.93026 0.03053 0.0
H283 H 0.30408 0.99261 0.12414 0.0
C284 C 0.21261 0.03752 0.10275 0.0
C285 C 0.1962 0.03778 0.07932 0.0
C286 C 0.20286 0.02205 0.04931 0.0
C287 C 0.22572 0.00474 0.04271 0.0
C288 C 0.2416 0.00446 0.06638 0.0
C289 C 0.23538 0.02154 0.09573 0.0
C290 C 0.25572 0.01854 0.117 0.0
C291 C 0.2605 0.09173 0.13108 0.0
C292 C 0.2522 0.96171 0.1416 0.0
C293 C 0.2744 -0.00289 0.0951 0.0
C294 C 0.26587 0.98796 0.06611 0.0
C295 C 0.27969 0.96382 0.04248 0.0
C296 C 0.30284 0.94932 0.04864 0.0
C297 C 0.31195 0.96065 0.07795 0.0
C298 C 0.29755 0.98498 0.10138 0.0
H299 H 0.30412 0.52574 0.37757 0.0
H300 H 0.31801 0.54109 0.47381 0.0
H301 H 0.2778 0.50754 0.48487 0.0
H302 H 0.24816 0.60597 0.38196 0.0
H303 H 0.23626 0.55165 0.35222 0.0
H304 H 0.26633 0.57243 0.35225 0.0
H305 H 0.27603 0.43818 0.35058 0.0
H306 H 0.24597 0.41701 0.35066 0.0
H307 H 0.26457 0.38006 0.37923 0.0
H308 H 0.23635 0.46579 0.48488 0.0
H309 H 0.19574 0.43634 0.47403 0.0
H310 H 0.20829 0.46282 0.37796 0.0
C311 C 0.29863 0.52176 0.40094 0.0
C312 C 0.31401 0.53516 0.42493 0.0
C313 C 0.30633 0.53084 0.45523 0.0
C314 C 0.28362 0.51155 0.46166 0.0
C315 C 0.2688 0.49847 0.43746 0.0
C316 C 0.2759 0.50482 0.4077 0.0
C317 C 0.25631 0.49262 0.38582 0.0
C318 C 0.25148 0.55967 0.36696 0.0
C319 C 0.26101 0.42813 0.36538 0.0
C320 C 0.2371 0.47773 0.40786 0.0
C321 C 0.2447 0.47995 0.43754 0.0
C322 C 0.23017 0.46473 0.46175 0.0
C323 C 0.20723 0.44777 0.45543 0.0
C324 C 0.19904 0.44796 0.42525 0.0
C325 C 0.21417 0.46312 0.40126 0.0
H326 H 0.7991 0.92816 0.94854 0.0
H327 H 0.81771 0.03006 0.86364 0.0
H328 H 0.77824 0.06802 0.85622 0.0
H329 H 0.74315 0.86619 0.92409 0.0
H330 H 0.72908 0.88497 0.95951 0.0
H331 H 0.75917 0.86418 0.95906 0.0
H332 H 0.76789 0.98196 0.98703 0.0
H333 H 0.73781 0.00329 0.98741 0.0
H334 H 0.758 0.06459 0.9711 0.0
H335 H 0.73792 0.09622 0.8565 0.0
H336 H 0.69645 0.11072 0.86449 0.0
H337 H 0.70133 0.9933 0.94878 0.0
C338 C 0.79475 0.95831 0.92845 0.0
C339 C 0.8117 0.97663 0.90689 0.0
C340 C 0.80529 0.01618 0.88084 0.0
C341 C 0.78281 0.03801 0.87624 0.0
C342 C 0.76665 0.02045 0.89791 0.0
C343 C 0.77208 0.98156 0.92351 0.0
C344 C 0.75086 0.97113 0.943 0.0
C345 C 0.74524 0.89189 0.94661 0.0
C346 C 0.75382 0.0074 0.97398 0.0
C347 C 0.73288 0.0091 0.9239 0.0
C348 C 0.74265 0.03745 0.89813 0.0
C349 C 0.72999 0.0747 0.87663 0.0
C350 C 0.70654 0.08291 0.88138 0.0
C351 C 0.69601 0.05401 0.90731 0.0
C352 C 0.70924 0.01665 0.92897 0.0
H353 H 0.70641 0.52835 0.61615 0.0
H354 H 0.70094 0.38942 0.53806 0.0
H355 H 0.74227 0.40529 0.52801 0.0
H356 H 0.74802 0.65129 0.58716 0.0
H357 H 0.76342 0.65805 0.62249 0.0
H358 H 0.73326 0.63841 0.62259 0.0
H359 H 0.74096 0.52459 0.65398 0.0
H360 H 0.77114 0.544 0.65403 0.0
H361 H 0.76104 0.45975 0.64004 0.0
H362 H 0.78461 0.43184 0.52798 0.0
H363 H 0.82483 0.46649 0.5384 0.0
H364 H 0.80262 0.58847 0.61615 0.0
C365 C 0.71386 0.50206 0.59669 0.0
C366 C 0.70045 0.45821 0.57767 0.0
C367 C 0.71092 0.42329 0.55288 0.0
C368 C 0.73435 0.43214 0.54696 0.0
C369 C 0.74712 0.47535 0.56628 0.0
C370 C 0.73728 0.50933 0.59078 0.0
C371 C 0.75504 0.54922 0.60916 0.0
C372 C 0.74961 0.62899 0.6104 0.0
C373 C 0.75717 0.5175 0.64119 0.0
C374 C 0.77631 0.53442 0.59062 0.0
C375 C 0.77143 0.491 0.56616 0.0
C376 C 0.78857 0.46655 0.54681 0.0
C377 C 0.81128 0.48653 0.55279 0.0
C378 C 0.8165 0.53134 0.57753 0.0
C379 C 0.79883 0.55584 0.59656 0.0
H380 H 0.03702 0.97394 0.06269 0.0
H381 H 0.07589 0.07871 0.99204 0.0
H382 H 0.04373 0.06178 0.95639 0.0
H383 H 0.01095 0.84129 0.01044 0.0
H384 H 0.98429 0.83941 0.03084 0.0
H385 H 0.01069 0.85709 0.05071 0.0
H386 H 0.99379 0.97463 0.07134 0.0
H387 H 0.96738 0.95722 0.05168 0.0
H388 H 0.98247 0.03928 0.04515 0.0
H389 H 0.00816 0.03214 0.92831 0.0
H390 H 0.9693 0.00368 0.91055 0.0
H391 H 0.95216 0.92173 0.99952 0.0
C392 C 0.03884 0.99226 0.03957 0.0
C393 C 0.05897 0.02739 0.03 0.0
C394 C 0.06057 0.05204 0.99981 0.0
C395 C 0.0425 0.04205 0.97936 0.0
C396 C 0.02303 0.00643 0.98934 0.0
C397 C 0.02102 0.98184 0.01869 0.0
C398 C 0.99799 0.94623 0.02354 0.0
C399 C 1.00117 0.86627 0.02923 0.0
C400 C 0.98462 0.98153 0.04946 0.0
C401 C 0.98681 0.95916 0.99295 0.0
C402 C 1.00196 0.99169 0.97333 0.0
C403 C 0.99606 0.00746 0.94356 0.0
C404 C 0.97388 0.99156 0.93377 0.0
C405 C 0.95748 0.96284 0.95395 0.0
C406 C 0.96426 0.94449 0.98372 0.0
H407 H 0.45366 0.05122 0.02269 0.0
H408 H 0.46581 0.84268 0.06108 0.0
H409 H 0.50505 0.84354 0.0405 0.0
H410 H 0.48481 0.02669 0.95421 0.0
H411 H 0.49656 0.11512 0.95338 0.0
H412 H 0.46956 0.09908 0.97173 0.0
H413 H 0.48532 0.15439 0.02129 0.0
H414 H 0.51241 0.17048 0.00309 0.0
H415 H 0.51131 0.11986 0.03771 0.0
H416 H 0.54225 0.8645 0.01445 0.0
H417 H 0.57537 0.90444 0.98419 0.0
H418 H 0.54012 0.10112 0.96353 0.0
C419 C 0.46469 0.00601 0.02683 0.0
C420 C 0.45662 0.94629 0.04302 0.0
C421 C 0.47148 0.88816 0.04811 0.0
C422 C 0.49386 0.88849 0.03677 0.0
C423 C 0.50125 0.94779 0.0207 0.0
C424 C 0.4872 0.00571 0.01582 0.0
C425 C 0.49942 0.06228 0.99744 0.0
C426 C 0.48684 0.07659 0.96741 0.0
C427 C 0.50228 0.13081 0.01599 0.0
C428 C 0.52232 0.0263 0.99217 0.0
C429 C 0.52301 0.9605 0.00602 0.0
C430 C 0.54198 0.91609 0.00368 0.0
C431 C 0.56067 0.93908 0.98643 0.0
C432 C 0.56025 0.00573 0.97169 0.0
C433 C 0.54095 0.0503 0.97495 0.0
H434 H 0.06292 0.46761 0.50432 0.0
H435 H 0.04151 0.48865 0.41066 0.0
H436 H 1.00188 0.51271 0.42727 0.0
H437 H 0.01129 0.37884 0.53058 0.0
H438 H 0.01126 0.42342 0.56673 0.0
H439 H 0.03789 0.40725 0.54741 0.0
H440 H 0.04735 0.54155 0.54991 0.0
H441 H 0.0207 0.55813 0.56908 0.0
H442 H 0.0273 0.60485 0.53455 0.0
H443 H 0.96505 0.5383 0.4539 0.0
H444 H 0.93266 0.55732 0.48915 0.0
H445 H 0.97751 0.51669 0.5655 0.0
C446 C 0.04977 0.47662 0.48742 0.0
C447 C 0.05512 0.47678 0.45627 0.0
C448 C 0.03765 0.48907 0.43466 0.0
C449 C 0.01515 0.50263 0.44386 0.0
C450 C 0.01042 0.50313 0.47477 0.0
C451 C 0.02715 0.48991 0.49625 0.0
C452 C 0.01742 0.49354 0.52802 0.0
C453 C 0.01959 0.42147 0.54413 0.0
C454 C 0.02888 0.55307 0.54647 0.0
C455 C 0.99267 0.51109 0.521 0.0
C456 C 0.98903 0.5167 0.49014 0.0
C457 C 0.96764 0.5337 0.47811 0.0
C458 C 0.94942 0.54464 0.49818 0.0
C459 C 0.95276 0.53811 0.52978 0.0
C460 C 0.97463 0.52142 0.54132 0.0
H461 H 0.47595 0.50432 0.43402 0.0
H462 H 0.43228 0.53451 0.51224 0.0
H463 H 0.46541 0.51471 0.54619 0.0
H464 H 0.51182 0.36508 0.46677 0.0
H465 H 0.53768 0.39711 0.44928 0.0
H466 H 0.51043 0.41149 0.43109 0.0
H467 H 0.51832 0.54673 0.42958 0.0
H468 H 0.54557 0.53279 0.44778 0.0
H469 H 0.52506 0.59287 0.46427 0.0
H470 H 0.50315 0.49625 0.57149 0.0
H471 H 0.5435 0.47937 0.58687 0.0
H472 H 0.5632 0.45876 0.49267 0.0
C473 C 0.47342 0.50589 0.45832 0.0
C474 C 0.45164 0.5208 0.47067 0.0
C475 C 0.4489 0.52341 0.50248 0.0
C476 C 0.46757 0.51204 0.52187 0.0
C477 C 0.48887 0.4979 0.50906 0.0
C478 C 0.49194 0.49459 0.47804 0.0
C479 C 0.51682 0.48016 0.47026 0.0
C480 C 0.51932 0.40923 0.45335 0.0
C481 C 0.52704 0.54181 0.45189 0.0
C482 C 0.52725 0.47624 0.50175 0.0
C483 C 0.51076 0.48665 0.52375 0.0
C484 C 0.51619 0.48763 0.5545 0.0
C485 C 0.53909 0.47815 0.56302 0.0
C486 C 0.55626 0.46772 0.54093 0.0
C487 C 0.55026 0.4661 0.50992 0.0
H488 H 0.13055 0.40032 0.28915 0.0
H489 H 0.11856 0.22605 0.35176 0.0
H490 H 0.11534 0.14342 0.3093 0.0
H491 H 0.09144 0.33563 0.22954 0.0
H492 H 0.10991 0.36304 0.19905 0.0
H493 H 0.11008 0.41103 0.23439 0.0
H494 H 0.15382 0.39117 0.239 0.0
H495 H 0.15373 0.34288 0.20378 0.0
H496 H 0.16506 0.30209 0.23758 0.0
H497 H 0.11515 0.07714 0.26113 0.0
H498 H 0.11752 0.03162 0.20883 0.0
H499 H 0.12939 0.24617 0.17624 0.0
C500 C 0.12696 0.34502 0.29381 0.0
C501 C 0.12492 0.32012 0.32392 0.0
C502 C 0.1204 0.24693 0.32902 0.0
C503 C 0.11843 0.19917 0.305 0.0
C504 C 0.12089 0.2249 0.27575 0.0
C505 C 0.12495 0.29595 0.26988 0.0
C506 C 0.1276 0.3083 0.23607 0.0
C507 C 0.10862 0.35741 0.22406 0.0
C508 C 0.15148 0.33784 0.22869 0.0
C509 C 0.12471 0.23308 0.22422 0.0
C510 C 0.12075 0.18602 0.24755 0.0
C511 C 0.11807 0.11344 0.24253 0.0
C512 C 0.11948 0.08805 0.21274 0.0
C513 C 0.12357 0.13511 0.18834 0.0
C514 C 0.12613 0.20868 0.19431 0.0
H515 H 0.38364 0.59011 0.28736 0.0
H516 H 0.38402 0.76858 0.35006 0.0
H517 H 0.38498 0.85125 0.30774 0.0
H518 H 0.4219 0.67336 0.23138 0.0
H519 H 0.40676 0.63803 0.19909 0.0
H520 H 0.40698 0.58991 0.23439 0.0
H521 H 0.36266 0.58873 0.23447 0.0
H522 H 0.36243 0.63676 0.19919 0.0
H523 H 0.34727 0.67142 0.23152 0.0
H524 H 0.38504 0.91675 0.26021 0.0
H525 H 0.38373 0.96222 0.20802 0.0
H526 H 0.38299 0.74567 0.17389 0.0
C527 C 0.3841 0.64649 0.29208 0.0
C528 C 0.38368 0.67217 0.32226 0.0
C529 C 0.38419 0.74671 0.32736 0.0
C530 C 0.38482 0.7947 0.3034 0.0
C531 C 0.385 0.76809 0.27413 0.0
C532 C 0.38469 0.69602 0.26812 0.0
C533 C 0.38456 0.6831 0.23408 0.0
C534 C 0.40635 0.64377 0.22416 0.0
C535 C 0.36293 0.64262 0.22425 0.0
C536 C 0.38437 0.7591 0.22236 0.0
C537 C 0.38487 0.80692 0.24601 0.0
C538 C 0.38473 0.88002 0.24136 0.0
C539 C 0.38399 0.90535 0.21159 0.0
C540 C 0.38324 0.85775 0.18679 0.0
C541 C 0.38351 0.78353 0.19235 0.0
H542 H 0.90656 0.88182 0.79354 0.0
H543 H 0.84877 0.7791 0.83704 0.0
H544 H 0.84581 0.69495 0.79484 0.0
H545 H 0.88579 0.86596 0.71624 0.0
H546 H 0.91352 0.84626 0.70048 0.0
H547 H 0.91134 0.89929 0.73431 0.0
H548 H 0.93841 0.81169 0.76204 0.0
H549 H 0.9403 0.75763 0.72842 0.0
H550 H 0.93106 0.71887 0.76365 0.0
H551 H 0.84991 0.61738 0.75032 0.0
H552 H 0.85707 0.56197 0.70048 0.0
H553 H 0.91041 0.71639 0.68278 0.0
C554 C 0.89311 0.84233 0.79381 0.0
C555 C 0.87798 0.83681 0.81868 0.0
C556 C 0.86072 0.78387 0.8184 0.0
C557 C 0.8589 0.73554 0.79458 0.0
C558 C 0.87445 0.74052 0.77096 0.0
C559 C 0.891 0.79298 0.76996 0.0
C560 C 0.9053 0.7858 0.74139 0.0
C561 C 0.90388 0.85335 0.72195 0.0
C562 C 0.93024 0.76743 0.74936 0.0
C563 C 0.89348 0.72331 0.72617 0.0
C564 C 0.87623 0.69673 0.74423 0.0
C565 C 0.86328 0.6378 0.73581 0.0
C566 C 0.86757 0.60632 0.70765 0.0
C567 C 0.88425 0.63498 0.68802 0.0
C568 C 0.89755 0.69368 0.69752 0.0
H569 H 0.62729 0.08463 0.7852 0.0
H570 H 0.60647 0.25832 0.84384 0.0
H571 H 0.60465 0.33812 0.8001 0.0
H572 H 0.6634 0.18678 0.7381 0.0
H573 H 0.65601 0.14295 0.70311 0.0
H574 H 0.65389 0.09574 0.73847 0.0
H575 H 0.61133 0.06737 0.72732 0.0
H576 H 0.61342 0.11405 0.69179 0.0
H577 H 0.59181 0.13888 0.71889 0.0
H578 H 0.60788 0.40232 0.75197 0.0
H579 H 0.61414 0.44698 0.70035 0.0
H580 H 0.63239 0.23426 0.67076 0.0
C581 C 0.62182 0.13897 0.78861 0.0
C582 C 0.61699 0.16497 0.81803 0.0
C583 C 0.61033 0.23694 0.82163 0.0
C584 C 0.60919 0.28293 0.79688 0.0
C585 C 0.61462 0.25648 0.76842 0.0
C586 C 0.6206 0.18623 0.76391 0.0
C587 C 0.62652 0.1733 0.7308 0.0
C588 C 0.65144 0.14822 0.72744 0.0
C589 C 0.60977 0.12024 0.71635 0.0
C590 C 0.62326 0.24739 0.71781 0.0
C591 C 0.61635 0.29424 0.74004 0.0
C592 C 0.61303 0.3661 0.73421 0.0
C593 C 0.61673 0.39099 0.70477 0.0
C594 C 0.62367 0.34423 0.68134 0.0
C595 C 0.6269 0.2713 0.68805 0.0
H596 H 0.10118 0.65604 0.10994 0.0
H597 H 0.169 0.73145 0.0865 0.0
H598 H 0.17798 0.61549 0.06368 0.0
H599 H 0.11896 0.48601 0.13325 0.0
H600 H 0.09401 0.44067 0.11896 0.0
H601 H 0.09204 0.53227 0.13014 0.0
H602 H 0.07626 0.56424 0.07687 0.0
H603 H 0.07847 0.47261 0.06545 0.0
H604 H 0.09252 0.54073 0.04367 0.0
H605 H 0.18042 0.49014 0.0458 0.0
H606 H 0.17781 0.36023 0.03968 0.0
H607 H 0.109 0.36455 0.07659 0.0
C608 C 0.11783 0.64825 0.09972 0.0
C609 C 0.13409 0.70354 0.09898 0.0
C610 C 0.15589 0.69097 0.08607 0.0
C611 C 0.1612 0.6251 0.07319 0.0
C612 C 0.14461 0.57216 0.07367 0.0
C613 C 0.12345 0.58265 0.08691 0.0
C614 C 0.10943 0.51514 0.08674 0.0
C615 C 0.10327 0.49218 0.1192 0.0
C616 C 0.08789 0.52372 0.067 0.0
C617 C 0.12633 0.46459 0.07227 0.0
C618 C 0.14631 0.49889 0.06428 0.0
C619 C 0.1648 0.46268 0.05174 0.0
C620 C 0.16313 0.38893 0.04826 0.0
C621 C 0.14323 0.35233 0.05773 0.0
C622 C 0.1244 0.39112 0.06904 0.0
H623 H 0.37794 0.34229 0.13533 0.0
H624 H 0.39765 0.25144 0.04885 0.0
H625 H 0.39301 0.36806 0.02454 0.0
H626 H 0.33651 0.46627 0.10794 0.0
H627 H 0.34477 0.53552 0.13395 0.0
H628 H 0.34861 0.44385 0.14432 0.0
H629 H 0.39173 0.4667 0.15433 0.0
H630 H 0.38789 0.55851 0.14427 0.0
H631 H 0.40902 0.50564 0.12491 0.0
H632 H 0.38495 0.49522 0.0093 0.0
H633 H 0.37878 0.62552 0.00605 0.0
H634 H 0.36757 0.63252 0.10315 0.0
C635 C 0.3813 0.34687 0.11128 0.0
C636 C 0.38714 0.28698 0.09376 0.0
C637 C 0.39186 0.29549 0.06248 0.0
C638 C 0.38957 0.36187 0.04849 0.0
C639 C 0.38305 0.4194 0.06625 0.0
C640 C 0.37941 0.41279 0.09708 0.0
C641 C 0.37358 0.48332 0.11138 0.0
C642 C 0.34943 0.48213 0.1252 0.0
C643 C 0.39164 0.5048 0.13511 0.0
C644 C 0.37454 0.53054 0.08375 0.0
C645 C 0.37971 0.49282 0.05782 0.0
C646 C 0.38105 0.5255 0.02948 0.0
C647 C 0.37741 0.59913 0.02777 0.0
C648 C 0.37292 0.63854 0.05435 0.0
C649 C 0.37126 0.60355 0.08251 0.0
H650 H 0.12648 0.13577 0.4005 0.0
H651 H 0.14823 0.11108 0.49394 0.0
H652 H 0.14634 0.98022 0.48816 0.0
H653 H 0.08828 0.98308 0.3962 0.0
H654 H 0.09689 0.96067 0.35818 0.0
H655 H 0.09771 0.05172 0.37065 0.0
H656 H 0.14043 0.05937 0.35596 0.0
H657 H 0.13989 0.96836 0.34356 0.0
H658 H 0.16044 0.99633 0.37165 0.0
H659 H 0.14083 0.85264 0.47224 0.0
H660 H 0.1368 0.73772 0.44648 0.0
H661 H 0.12402 0.84583 0.3613 0.0
C662 C 0.13039 0.10282 0.41995 0.0
C663 C 0.13705 0.13327 0.44792 0.0
C664 C 0.14282 0.08857 0.4725 0.0
C665 C 0.14176 0.01439 0.46939 0.0
C666 C 0.13533 0.98609 0.44139 0.0
C667 C 0.13001 0.02895 0.417 0.0
C668 C 0.12538 0.98546 0.38871 0.0
C669 C 0.10059 0.99585 0.3778 0.0
C670 C 0.14257 0.00346 0.36349 0.0
C671 C 0.12912 0.91117 0.40092 0.0
C672 C 0.13438 0.91279 0.43148 0.0
C673 C 0.13747 0.85084 0.44813 0.0
C674 C 0.13562 0.78559 0.43306 0.0
C675 C 0.13169 0.78245 0.40135 0.0
C676 C 0.12784 0.84637 0.38532 0.0
H677 H 0.38255 0.85899 0.39912 0.0
H678 H 0.36361 0.88366 0.49356 0.0
H679 H 0.36643 0.01443 0.48807 0.0
H680 H 0.42238 0.00469 0.39419 0.0
H681 H 0.41339 0.02984 0.35659 0.0
H682 H 0.41119 0.93868 0.36854 0.0
H683 H 0.36805 0.93872 0.35535 0.0
H684 H 0.37002 0.02982 0.34332 0.0
H685 H 0.34959 0.0048 0.37195 0.0
H686 H 0.37303 0.14167 0.47243 0.0
H687 H 0.3786 0.2567 0.44705 0.0
H688 H 0.38895 0.14885 0.36131 0.0
C689 C 0.3793 0.8918 0.41881 0.0
C690 C 0.37324 0.86138 0.44698 0.0
C691 C 0.36847 0.90608 0.47192 0.0
C692 C 0.37007 0.9802 0.46898 0.0
C693 C 0.37606 0.00841 0.44082 0.0
C694 C 0.38032 0.96556 0.41609 0.0
C695 C 0.38515 0.00897 0.3879 0.0
C696 C 0.40948 0.99469 0.37613 0.0
C697 C 0.36712 0.99473 0.36318 0.0
C698 C 0.38298 0.08331 0.40063 0.0
C699 C 0.37805 0.0817 0.43127 0.0
C700 C 0.37623 0.14358 0.44829 0.0
C701 C 0.37906 0.20881 0.43353 0.0
C702 C 0.38286 0.212 0.40182 0.0
C703 C 0.38538 0.14816 0.38538 0.0
H704 H 0.8664 0.63859 0.9002 0.0
H705 H 0.88765 0.62089 0.9942 0.0
H706 H 0.89232 0.49107 0.98762 0.0
H707 H 0.83429 0.473 0.898 0.0
H708 H 0.8424 0.45389 0.85947 0.0
H709 H 0.84012 0.5446 0.87205 0.0
H710 H 0.88179 0.5679 0.85487 0.0
H711 H 0.88429 0.47727 0.84238 0.0
H712 H 0.90454 0.51264 0.8693 0.0
H713 H 0.8962 0.36386 0.96986 0.0
H714 H 0.89767 0.24863 0.94304 0.0
H715 H 0.87341 0.34983 0.86086 0.0
C716 C 0.87195 0.60749 0.9195 0.0
C717 C 0.87671 0.63992 0.94776 0.0
C718 C 0.88379 0.59717 0.97243 0.0
C719 C 0.88655 0.52347 0.96885 0.0
C720 C 0.88192 0.49343 0.94057 0.0
C721 C 0.87458 0.53409 0.9164 0.0
C722 C 0.87074 0.48915 0.88835 0.0
C723 C 0.84538 0.49023 0.87892 0.0
C724 C 0.88627 0.51318 0.86219 0.0
C725 C 0.87766 0.41686 0.90022 0.0
C726 C 0.88388 0.42037 0.93047 0.0
C727 C 0.89109 0.36044 0.94632 0.0
C728 C 0.89176 0.29525 0.93097 0.0
C729 C 0.88515 0.29039 0.90015 0.0
C730 C 0.87831 0.35217 0.88452 0.0
H731 H 0.62541 0.64931 0.85933 0.0
H732 H 0.62469 0.75416 0.94683 0.0
H733 H 0.62943 0.6387 0.97229 0.0
H734 H 0.59075 0.50182 0.8839 0.0
H735 H 0.60528 0.43829 0.86019 0.0
H736 H 0.60364 0.52994 0.84882 0.0
H737 H 0.64786 0.53458 0.84453 0.0
H738 H 0.64956 0.44296 0.85594 0.0
H739 H 0.66517 0.50973 0.87669 0.0
H740 H 0.63598 0.51075 0.98815 0.0
H741 H 0.63871 0.37962 0.99305 0.0
H742 H 0.63019 0.3591 0.89577 0.0
C743 C 0.62642 0.64796 0.88383 0.0
C744 C 0.62612 0.71118 0.90098 0.0
C745 C 0.62656 0.707 0.93306 0.0
C746 C 0.62886 0.64146 0.9478 0.0
C747 C 0.62986 0.58026 0.93019 0.0
C748 C 0.62816 0.58284 0.89893 0.0
C749 C 0.6282 0.50911 0.88535 0.0
C750 C 0.60562 0.49392 0.86859 0.0
C751 C 0.64894 0.4985 0.8644 0.0
C752 C 0.63031 0.46486 0.91384 0.0
C753 C 0.6316 0.50669 0.93947 0.0
C754 C 0.63465 0.47733 0.96827 0.0
C755 C 0.63622 0.40309 0.97088 0.0
C756 C 0.63422 0.35956 0.94492 0.0
C757 C 0.63125 0.39111 0.91613 0.0
H758 H 0.88723 0.89432 0.53802 0.0
H759 H 0.83632 0.83313 0.60432 0.0
H760 H 0.8346 0.95635 0.62308 0.0
H761 H 0.91803 0.01151 0.58117 0.0
H762 H 0.92255 0.07864 0.55269 0.0
H763 H 0.91801 0.98787 0.54156 0.0
H764 H 0.88396 0.02569 0.50766 0.0
H765 H 0.88853 0.11698 0.51838 0.0
H766 H 0.86088 0.07664 0.52379 0.0
H767 H 0.84283 0.07811 0.64004 0.0
H768 H 0.85695 0.19949 0.65025 0.0
H769 H 0.90006 0.18839 0.5706 0.0
C770 C 0.87526 0.90788 0.55581 0.0
C771 C 0.86166 0.85518 0.56964 0.0
C772 C 0.84649 0.87357 0.59323 0.0
C773 C 0.84546 0.94318 0.60406 0.0
C774 C 0.85935 0.994 0.5905 0.0
C775 C 0.87351 0.97803 0.56635 0.0
C776 C 0.887 0.04301 0.55659 0.0
C777 C 0.91293 0.02939 0.55812 0.0
C778 C 0.87965 0.06699 0.52471 0.0
C779 C 0.87938 0.09608 0.58042 0.0
C780 C 0.86327 0.06657 0.59955 0.0
C781 C 0.85496 0.10264 0.6248 0.0
C782 C 0.86315 0.1711 0.63055 0.0
C783 C 0.87928 0.20278 0.611 0.0
C784 C 0.8874 0.16521 0.58551 0.0
H785 H 0.63083 0.78219 0.57295 0.0
H786 H 0.61068 0.82156 0.66611 0.0
H787 H 0.60943 0.95026 0.65547 0.0
H788 H 0.66948 0.93294 0.56893 0.0
H789 H 0.66318 0.94944 0.52956 0.0
H790 H 0.66142 0.86057 0.54441 0.0
H791 H 0.61959 0.85165 0.5252 0.0
H792 H 0.62108 0.94085 0.5107 0.0
H793 H 0.59891 0.91693 0.53714 0.0
H794 H 0.61112 0.07469 0.63484 0.0
H795 H 0.61705 0.18602 0.60636 0.0
H796 H 0.63828 0.06416 0.52772 0.0
C797 C 0.62695 0.81748 0.59154 0.0
C798 C 0.62164 0.79159 0.62074 0.0
C799 C 0.61512 0.8402 0.64367 0.0
C800 C 0.61435 0.91334 0.63785 0.0
C801 C 0.62021 0.93701 0.609 0.0
C802 C 0.62659 0.89057 0.58631 0.0
C803 C 0.63291 0.92966 0.55757 0.0
C804 C 0.65825 0.91743 0.54966 0.0
C805 C 0.61717 0.90851 0.5311 0.0
C806 C 0.62873 0.0054 0.56749 0.0
C807 C 0.6214 0.00855 0.59722 0.0
C808 C 0.61691 0.07292 0.61158 0.0
C809 C 0.62035 0.13581 0.59522 0.0
C810 C 0.62817 0.1337 0.56485 0.0
C811 C 0.63216 0.0675 0.55083 0.0
loop_
_geom_bond_atom_site_label_1
_geom_bond_atom_site_label_2
_geom_bond_distance
_geom_bond_site_symmetry_2
_ccdc_geom_bond_type
Co0 O3 1.970 . S
Co0 N17 1.989 . S
Co0 O25 1.967 . S
Co0 O32 1.920 . S
Co1 O4 1.966 1_565 S
Co1 N10 2.022 . S
Co1 N18 1.993 1_565 S
Co1 O26 1.941 1_565 S
C2 O3 1.258 . S
C2 O4 1.263 . S
O3 Co0 1.970 . S
O3 C2 1.258 . S
O4 Co1 1.966 1_545 S
O4 C2 1.263 . S
C5 O6 1.235 . S
C5 O32 1.289 . S
O6 C5 1.235 . S
C7 C9 1.400 . S
C7 N10 1.351 . S
C7 C12 1.501 . S
C8 C9 1.387 . S
C8 N11 1.341 . S
C9 C7 1.400 . S
C9 C8 1.387 . S
N10 Co1 2.022 . S
N10 C7 1.351 . S
N10 N11 1.365 . S
N11 C8 1.341 . S
N11 N10 1.365 . S
N11 H31 0.862 . S
C12 C7 1.501 . S
C12 H13 0.961 . S
C12 H14 0.961 . S
C12 H15 0.960 . S
H13 C12 0.961 . S
H14 C12 0.961 . S
H15 C12 0.960 . S
C16 N17 1.342 . S
C16 C20 1.401 . S
C16 C21 1.499 . S
N17 Co0 1.989 . S
N17 C16 1.342 . S
N17 N18 1.388 . S
N18 Co1 1.993 1_545 S
N18 N17 1.388 . S
N18 C19 1.346 1_545 S
C19 N18 1.346 1_565 S
C19 C20 1.396 1_565 S
C19 C29 1.510 . S
C20 C16 1.401 . S
C20 C19 1.396 1_545 S
C21 C16 1.499 . S
C21 H22 0.959 . S
C21 H23 0.960 . S
C21 H24 0.961 . S
H22 C21 0.959 . S
H23 C21 0.960 . S
H24 C21 0.961 . S
O25 Co0 1.967 . S
O25 C33 1.258 . S
O26 Co1 1.941 1_545 S
O26 C33 1.266 . S
H27 C29 0.959 . S
H28 C29 0.961 . S
C29 C19 1.510 . S
C29 H27 0.959 . S
C29 H28 0.961 . S
C29 H30 0.960 . S
H30 C29 0.960 . S
H31 N11 0.862 . S
O32 Co0 1.920 . S
O32 C5 1.289 . S
C33 O25 1.258 . S
C33 O26 1.266 . S
Co34 O37 1.970 . S
Co34 N51 1.989 . S
Co34 O59 1.967 . S
Co34 O66 1.920 . S
Co35 O38 1.966 1_545 S
Co35 N44 2.022 . S
Co35 N52 1.993 1_545 S
Co35 O60 1.941 1_545 S
C36 O37 1.258 . S
C36 O38 1.263 . S
O37 Co34 1.970 . S
O37 C36 1.258 . S
O38 Co35 1.966 1_565 S
O38 C36 1.263 . S
C39 O40 1.235 . S
C39 O66 1.289 . S
O40 C39 1.235 . S
C41 C43 1.400 . S
C41 N44 1.351 . S
C41 C46 1.501 . S
C42 C43 1.387 . S
C42 N45 1.341 . S
C43 C41 1.400 . S
C43 C42 1.387 . S
N44 Co35 2.022 . S
N44 C41 1.351 . S
N44 N45 1.365 . S
N45 C42 1.341 . S
N45 N44 1.365 . S
N45 H65 0.862 . S
C46 C41 1.501 . S
C46 H47 0.961 . S
C46 H48 0.961 . S
C46 H49 0.960 . S
H47 C46 0.961 . S
H48 C46 0.961 . S
H49 C46 0.960 . S
C50 N51 1.342 . S
C50 C54 1.401 . S
C50 C55 1.499 . S
N51 Co34 1.989 . S
N51 C50 1.342 . S
N51 N52 1.388 . S
N52 Co35 1.993 1_565 S
N52 N51 1.388 . S
N52 C53 1.346 1_565 S
C53 N52 1.346 1_545 S
C53 C54 1.396 1_545 S
C53 C63 1.510 . S
C54 C50 1.401 . S
C54 C53 1.396 1_565 S
C55 C50 1.499 . S
C55 H56 0.959 . S
C55 H57 0.960 . S
C55 H58 0.961 . S
H56 C55 0.959 . S
H57 C55 0.960 . S
H58 C55 0.961 . S
O59 Co34 1.967 . S
O59 C67 1.258 . S
O60 Co35 1.941 1_565 S
O60 C67 1.266 . S
H61 C63 0.959 . S
H62 C63 0.961 . S
C63 C53 1.510 . S
C63 H61 0.959 . S
C63 H62 0.961 . S
C63 H64 0.960 . S
H64 C63 0.960 . S
H65 N45 0.862 . S
O66 Co34 1.920 . S
O66 C39 1.289 . S
C67 O59 1.258 . S
C67 O60 1.266 . S
Co68 O71 1.970 . S
Co68 N85 1.989 . S
Co68 O93 1.967 . S
Co68 O100 1.920 . S
Co69 O72 1.966 . S
Co69 N78 2.022 . S
Co69 N86 1.993 . S
Co69 O94 1.941 . S
C70 O71 1.258 . S
C70 O72 1.263 . S
O71 Co68 1.970 . S
O71 C70 1.258 . S
O72 Co69 1.966 . S
O72 C70 1.263 . S
C73 O74 1.235 . S
C73 O100 1.289 . S
O74 C73 1.235 . S
C75 C77 1.400 . S
C75 N78 1.351 . S
C75 C80 1.501 . S
C76 C77 1.387 . S
C76 N79 1.341 . S
C77 C75 1.400 . S
C77 C76 1.387 . S
N78 Co69 2.022 . S
N78 C75 1.351 . S
N78 N79 1.365 . S
N79 C76 1.341 . S
N79 N78 1.365 . S
N79 H99 0.862 . S
C80 C75 1.501 . S
C80 H81 0.961 . S
C80 H82 0.961 . S
C80 H83 0.960 . S
H81 C80 0.961 . S
H82 C80 0.961 . S
H83 C80 0.960 . S
C84 N85 1.342 . S
C84 C88 1.401 . S
C84 C89 1.499 . S
N85 Co68 1.989 . S
N85 C84 1.342 . S
N85 N86 1.388 . S
N86 Co69 1.993 . S
N86 N85 1.388 . S
N86 C87 1.346 . S
C87 N86 1.346 . S
C87 C88 1.396 . S
C87 C97 1.510 . S
C88 C84 1.401 . S
C88 C87 1.396 . S
C89 C84 1.499 . S
C89 H90 0.959 . S
C89 H91 0.960 . S
C89 H92 0.961 . S
H90 C89 0.959 . S
H91 C89 0.960 . S
H92 C89 0.961 . S
O93 Co68 1.967 . S
O93 C101 1.258 . S
O94 Co69 1.941 . S
O94 C101 1.266 . S
H95 C97 0.959 . S
H96 C97 0.961 . S
C97 C87 1.510 . S
C97 H95 0.959 . S
C97 H96 0.961 . S
C97 H98 0.960 . S
H98 C97 0.960 . S
H99 N79 0.862 . S
O100 Co68 1.920 . S
O100 C73 1.289 . S
C101 O93 1.258 . S
C101 O94 1.266 . S
Co102 O105 1.970 . S
Co102 N119 1.989 . S
Co102 O127 1.967 . S
Co102 O134 1.920 . S
Co103 O106 1.966 . S
Co103 N112 2.022 . S
Co103 N120 1.993 . S
Co103 O128 1.941 . S
C104 O105 1.258 . S
C104 O106 1.263 . S
O105 Co102 1.970 . S
O105 C104 1.258 . S
O106 Co103 1.966 . S
O106 C104 1.263 . S
C107 O108 1.235 . S
C107 O134 1.289 . S
O108 C107 1.235 . S
C109 C111 1.400 . S
C109 N112 1.351 . S
C109 C114 1.501 . S
C110 C111 1.387 . S
C110 N113 1.341 . S
C111 C109 1.400 . S
C111 C110 1.387 . S
N112 Co103 2.022 . S
N112 C109 1.351 . S
N112 N113 1.365 . S
N113 C110 1.341 . S
N113 N112 1.365 . S
N113 H133 0.862 . S
C114 C109 1.501 . S
C114 H115 0.961 . S
C114 H116 0.961 . S
C114 H117 0.960 . S
H115 C114 0.961 . S
H116 C114 0.961 . S
H117 C114 0.960 . S
C118 N119 1.342 . S
C118 C122 1.401 . S
C118 C123 1.499 . S
N119 Co102 1.989 . S
N119 C118 1.342 . S
N119 N120 1.388 . S
N120 Co103 1.993 . S
N120 N119 1.388 . S
N120 C121 1.346 . S
C121 N120 1.346 . S
C121 C122 1.396 . S
C121 C131 1.510 . S
C122 C118 1.401 . S
C122 C121 1.396 . S
C123 C118 1.499 . S
C123 H124 0.959 . S
C123 H125 0.960 . S
C123 H126 0.961 . S
H124 C123 0.959 . S
H125 C123 0.960 . S
H126 C123 0.961 . S
O127 Co102 1.967 . S
O127 C135 1.258 . S
O128 Co103 1.941 . S
O128 C135 1.266 . S
H129 C131 0.959 . S
H130 C131 0.961 . S
C131 C121 1.510 . S
C131 H129 0.959 . S
C131 H130 0.961 . S
C131 H132 0.960 . S
H132 C131 0.960 . S
H133 N113 0.862 . S
O134 Co102 1.920 . S
O134 C107 1.289 . S
C135 O127 1.258 . S
C135 O128 1.266 . S
Co136 O139 1.970 . S
Co136 N153 1.989 . S
Co136 O161 1.967 . S
Co136 O168 1.920 . S
Co137 O140 1.966 1_545 S
Co137 N146 2.022 . S
Co137 N154 1.993 1_545 S
Co137 O162 1.941 1_545 S
C138 O139 1.258 . S
C138 O140 1.263 . S
O139 Co136 1.970 . S
O139 C138 1.258 . S
O140 Co137 1.966 1_565 S
O140 C138 1.263 . S
C141 O142 1.235 . S
C141 O168 1.289 . S
O142 C141 1.235 . S
C143 C145 1.400 . S
C143 N146 1.351 . S
C143 C148 1.501 . S
C144 C145 1.387 . S
C144 N147 1.341 . S
C145 C143 1.400 . S
C145 C144 1.387 . S
N146 Co137 2.022 . S
N146 C143 1.351 . S
N146 N147 1.365 . S
N147 C144 1.341 . S
N147 N146 1.365 . S
N147 H167 0.862 . S
C148 C143 1.501 . S
C148 H149 0.961 . S
C148 H150 0.961 . S
C148 H151 0.960 . S
H149 C148 0.961 . S
H150 C148 0.961 . S
H151 C148 0.960 . S
C152 N153 1.342 . S
C152 C156 1.401 . S
C152 C157 1.499 . S
N153 Co136 1.989 . S
N153 C152 1.342 . S
N153 N154 1.388 . S
N154 Co137 1.993 1_565 S
N154 N153 1.388 . S
N154 C155 1.346 1_565 S
C155 N154 1.346 1_545 S
C155 C156 1.396 1_545 S
C155 C165 1.510 . S
C156 C152 1.401 . S
C156 C155 1.396 1_565 S
C157 C152 1.499 . S
C157 H158 0.959 . S
C157 H159 0.960 . S
C157 H160 0.961 . S
H158 C157 0.959 . S
H159 C157 0.960 . S
H160 C157 0.961 . S
O161 Co136 1.967 . S
O161 C169 1.258 . S
O162 Co137 1.941 1_565 S
O162 C169 1.266 . S
H163 C165 0.959 . S
H164 C165 0.961 . S
C165 C155 1.510 . S
C165 H163 0.959 . S
C165 H164 0.961 . S
C165 H166 0.960 . S
H166 C165 0.960 . S
H167 N147 0.862 . S
O168 Co136 1.920 . S
O168 C141 1.289 . S
C169 O161 1.258 . S
C169 O162 1.266 . S
Co170 O173 1.970 . S
Co170 N187 1.989 . S
Co170 O195 1.967 . S
Co170 O202 1.920 . S
Co171 O174 1.966 1_565 S
Co171 N180 2.022 . S
Co171 N188 1.993 1_565 S
Co171 O196 1.941 1_565 S
C172 O173 1.258 . S
C172 O174 1.263 . S
O173 Co170 1.970 . S
O173 C172 1.258 . S
O174 Co171 1.966 1_545 S
O174 C172 1.263 . S
C175 O176 1.235 . S
C175 O202 1.289 . S
O176 C175 1.235 . S
C177 C179 1.400 . S
C177 N180 1.351 . S
C177 C182 1.501 . S
C178 C179 1.387 . S
C178 N181 1.341 . S
C179 C177 1.400 . S
C179 C178 1.387 . S
N180 Co171 2.022 . S
N180 C177 1.351 . S
N180 N181 1.365 . S
N181 C178 1.341 . S
N181 N180 1.365 . S
N181 H201 0.862 . S
C182 C177 1.501 . S
C182 H183 0.961 . S
C182 H184 0.961 . S
C182 H185 0.960 . S
H183 C182 0.961 . S
H184 C182 0.961 . S
H185 C182 0.960 . S
C186 N187 1.342 . S
C186 C190 1.401 . S
C186 C191 1.499 . S
N187 Co170 1.989 . S
N187 C186 1.342 . S
N187 N188 1.388 . S
N188 Co171 1.993 1_545 S
N188 N187 1.388 . S
N188 C189 1.346 1_545 S
C189 N188 1.346 1_565 S
C189 C190 1.396 1_565 S
C189 C199 1.510 . S
C190 C186 1.401 . S
C190 C189 1.396 1_545 S
C191 C186 1.499 . S
C191 H192 0.959 . S
C191 H193 0.960 . S
C191 H194 0.961 . S
H192 C191 0.959 . S
H193 C191 0.960 . S
H194 C191 0.961 . S
O195 Co170 1.967 . S
O195 C203 1.258 . S
O196 Co171 1.941 1_545 S
O196 C203 1.266 . S
H197 C199 0.959 . S
H198 C199 0.961 . S
C199 C189 1.510 . S
C199 H197 0.959 . S
C199 H198 0.961 . S
C199 H200 0.960 . S
H200 C199 0.960 . S
H201 N181 0.862 . S
O202 Co170 1.920 . S
O202 C175 1.289 . S
C203 O195 1.258 . S
C203 O196 1.266 . S
Co204 O207 1.970 . S
Co204 N221 1.989 . S
Co204 O229 1.967 . S
Co204 O236 1.920 . S
Co205 O208 1.966 . S
Co205 N214 2.022 . S
Co205 N222 1.993 . S
Co205 O230 1.941 . S
C206 O207 1.258 . S
C206 O208 1.263 . S
O207 Co204 1.970 . S
O207 C206 1.258 . S
O208 Co205 1.966 . S
O208 C206 1.263 . S
C209 O210 1.235 . S
C209 O236 1.289 . S
O210 C209 1.235 . S
C211 C213 1.400 . S
C211 N214 1.351 . S
C211 C216 1.501 . S
C212 C213 1.387 . S
C212 N215 1.341 . S
C213 C211 1.400 . S
C213 C212 1.387 . S
N214 Co205 2.022 . S
N214 C211 1.351 . S
N214 N215 1.365 . S
N215 C212 1.341 . S
N215 N214 1.365 . S
N215 H235 0.862 . S
C216 C211 1.501 . S
C216 H217 0.961 . S
C216 H218 0.961 . S
C216 H219 0.960 . S
H217 C216 0.961 . S
H218 C216 0.961 . S
H219 C216 0.960 . S
C220 N221 1.342 . S
C220 C224 1.401 . S
C220 C225 1.499 . S
N221 Co204 1.989 . S
N221 C220 1.342 . S
N221 N222 1.388 . S
N222 Co205 1.993 . S
N222 N221 1.388 . S
N222 C223 1.346 . S
C223 N222 1.346 . S
C223 C224 1.396 . S
C223 C233 1.510 . S
C224 C220 1.401 . S
C224 C223 1.396 . S
C225 C220 1.499 . S
C225 H226 0.959 . S
C225 H227 0.960 . S
C225 H228 0.961 . S
H226 C225 0.959 . S
H227 C225 0.960 . S
H228 C225 0.961 . S
O229 Co204 1.967 . S
O229 C237 1.258 . S
O230 Co205 1.941 . S
O230 C237 1.266 . S
H231 C233 0.959 . S
H232 C233 0.961 . S
C233 C223 1.510 . S
C233 H231 0.959 . S
C233 H232 0.961 . S
C233 H234 0.960 . S
H234 C233 0.960 . S
H235 N215 0.862 . S
O236 Co204 1.920 . S
O236 C209 1.289 . S
C237 O229 1.258 . S
C237 O230 1.266 . S
Co238 O241 1.970 . S
Co238 N255 1.989 . S
Co238 O263 1.967 . S
Co238 O270 1.920 . S
Co239 O242 1.966 . S
Co239 N248 2.022 . S
Co239 N256 1.993 . S
Co239 O264 1.941 . S
C240 O241 1.258 . S
C240 O242 1.263 . S
O241 Co238 1.970 . S
O241 C240 1.258 . S
O242 Co239 1.966 . S
O242 C240 1.263 . S
C243 O244 1.235 . S
C243 O270 1.289 . S
O244 C243 1.235 . S
C245 C247 1.400 . S
C245 N248 1.351 . S
C245 C250 1.501 . S
C246 C247 1.387 . S
C246 N249 1.341 . S
C247 C245 1.400 . S
C247 C246 1.387 . S
N248 Co239 2.022 . S
N248 C245 1.351 . S
N248 N249 1.365 . S
N249 C246 1.341 . S
N249 N248 1.365 . S
N249 H269 0.862 . S
C250 C245 1.501 . S
C250 H251 0.961 . S
C250 H252 0.961 . S
C250 H253 0.960 . S
H251 C250 0.961 . S
H252 C250 0.961 . S
H253 C250 0.960 . S
C254 N255 1.342 . S
C254 C258 1.401 . S
C254 C259 1.499 . S
N255 Co238 1.989 . S
N255 C254 1.342 . S
N255 N256 1.388 . S
N256 Co239 1.993 . S
N256 N255 1.388 . S
N256 C257 1.346 . S
C257 N256 1.346 . S
C257 C258 1.396 . S
C257 C267 1.510 . S
C258 C254 1.401 . S
C258 C257 1.396 . S
C259 C254 1.499 . S
C259 H260 0.959 . S
C259 H261 0.960 . S
C259 H262 0.961 . S
H260 C259 0.959 . S
H261 C259 0.960 . S
H262 C259 0.961 . S
O263 Co238 1.967 . S
O263 C271 1.258 . S
O264 Co239 1.941 . S
O264 C271 1.266 . S
H265 C267 0.959 . S
H266 C267 0.961 . S
C267 C257 1.510 . S
C267 H265 0.959 . S
C267 H266 0.961 . S
C267 H268 0.960 . S
H268 C267 0.960 . S
H269 N249 0.862 . S
O270 Co238 1.920 . S
O270 C243 1.289 . S
C271 O263 1.258 . S
C271 O264 1.266 . S
H272 C284 0.930 . S
H273 C286 0.930 . S
H274 C287 0.930 . S
H275 C291 0.959 . S
H276 C291 0.959 . S
H277 C291 0.961 . S
H278 C292 0.960 . S
H279 C292 0.961 . S
H280 C292 0.959 . S
H281 C295 0.929 . S
H282 C296 0.931 . S
H283 C298 0.930 . S
C284 H272 0.930 . S
C284 C285 1.399 . S
C284 C289 1.399 . S
C285 C284 1.399 . S
C285 C286 1.376 . S
C286 H273 0.930 . S
C286 C285 1.376 . S
C286 C287 1.388 1_545 S
C287 H274 0.930 . S
C287 C286 1.388 1_565 S
C287 C288 1.390 . S
C288 C287 1.390 . S
C288 C289 1.394 1_565 S
C288 C294 1.465 . S
C289 C284 1.399 . S
C289 C288 1.394 1_545 S
C289 C290 1.516 . S
C290 C289 1.516 . S
C290 C291 1.502 . S
C290 C292 1.561 1_545 S
C290 C293 1.526 1_545 S
C291 H275 0.959 . S
C291 H276 0.959 . S
C291 H277 0.961 . S
C291 C290 1.502 . S
C292 H278 0.960 . S
C292 H279 0.961 . S
C292 H280 0.959 . S
C292 C290 1.561 1_565 S
C293 C290 1.526 1_565 S
C293 C294 1.396 . S
C293 C298 1.390 . S
C294 C288 1.465 . S
C294 C293 1.396 . S
C294 C295 1.399 . S
C295 H281 0.929 . S
C295 C294 1.399 . S
C295 C296 1.385 . S
C296 H282 0.931 . S
C296 C295 1.385 . S
C296 C297 1.389 . S
C297 C296 1.389 . S
C297 C298 1.387 . S
C298 H283 0.930 . S
C298 C293 1.390 . S
C298 C297 1.387 . S
H299 C311 0.930 . S
H300 C313 0.930 . S
H301 C314 0.930 . S
H302 C318 0.959 . S
H303 C318 0.959 . S
H304 C318 0.961 . S
H305 C319 0.960 . S
H306 C319 0.961 . S
H307 C319 0.959 . S
H308 C322 0.929 . S
H309 C323 0.931 . S
H310 C325 0.930 . S
C311 H299 0.930 . S
C311 C312 1.399 . S
C311 C316 1.399 . S
C312 C311 1.399 . S
C312 C313 1.376 . S
C313 H300 0.930 . S
C313 C312 1.376 . S
C313 C314 1.388 . S
C314 H301 0.930 . S
C314 C313 1.388 . S
C314 C315 1.390 . S
C315 C314 1.390 . S
C315 C316 1.394 . S
C315 C321 1.465 . S
C316 C311 1.399 . S
C316 C315 1.394 . S
C316 C317 1.516 . S
C317 C316 1.516 . S
C317 C318 1.502 . S
C317 C319 1.561 . S
C317 C320 1.526 . S
C318 H302 0.959 . S
C318 H303 0.959 . S
C318 H304 0.961 . S
C318 C317 1.502 . S
C319 H305 0.960 . S
C319 H306 0.961 . S
C319 H307 0.959 . S
C319 C317 1.561 . S
C320 C317 1.526 . S
C320 C321 1.396 . S
C320 C325 1.390 . S
C321 C315 1.465 . S
C321 C320 1.396 . S
C321 C322 1.399 . S
C322 H308 0.929 . S
C322 C321 1.399 . S
C322 C323 1.385 . S
C323 H309 0.931 . S
C323 C322 1.385 . S
C323 C324 1.389 . S
C324 C323 1.389 . S
C324 C325 1.387 . S
C325 H310 0.930 . S
C325 C320 1.390 . S
C325 C324 1.387 . S
H326 C338 0.930 . S
H327 C340 0.930 1_545 S
H328 C341 0.930 . S
H329 C345 0.959 . S
H330 C345 0.959 . S
H331 C345 0.961 . S
H332 C346 0.960 . S
H333 C346 0.961 . S
H334 C346 0.959 . S
H335 C349 0.929 . S
H336 C350 0.931 . S
H337 C352 0.930 1_565 S
C338 H326 0.930 . S
C338 C339 1.399 . S
C338 C343 1.399 . S
C339 C338 1.399 . S
C339 C340 1.376 . S
C340 H327 0.930 1_565 S
C340 C339 1.376 . S
C340 C341 1.388 1_565 S
C341 H328 0.930 . S
C341 C340 1.388 1_545 S
C341 C342 1.390 . S
C342 C341 1.390 . S
C342 C343 1.394 1_545 S
C342 C348 1.465 . S
C343 C338 1.399 . S
C343 C342 1.394 1_565 S
C343 C344 1.516 . S
C344 C343 1.516 . S
C344 C345 1.502 . S
C344 C346 1.561 1_565 S
C344 C347 1.526 1_565 S
C345 H329 0.959 . S
C345 H330 0.959 . S
C345 H331 0.961 . S
C345 C344 1.502 . S
C346 H332 0.960 . S
C346 H333 0.961 . S
C346 H334 0.959 . S
C346 C344 1.561 1_545 S
C347 C344 1.526 1_545 S
C347 C348 1.396 . S
C347 C352 1.390 . S
C348 C342 1.465 . S
C348 C347 1.396 . S
C348 C349 1.399 . S
C349 H335 0.929 . S
C349 C348 1.399 . S
C349 C350 1.385 . S
C350 H336 0.931 . S
C350 C349 1.385 . S
C350 C351 1.389 . S
C351 C350 1.389 . S
C351 C352 1.387 . S
C352 H337 0.930 1_545 S
C352 C347 1.390 . S
C352 C351 1.387 . S
H353 C365 0.930 . S
H354 C367 0.930 . S
H355 C368 0.930 . S
H356 C372 0.959 . S
H357 C372 0.959 . S
H358 C372 0.961 . S
H359 C373 0.960 . S
H360 C373 0.961 . S
H361 C373 0.959 . S
H362 C376 0.929 . S
H363 C377 0.931 . S
H364 C379 0.930 . S
C365 H353 0.930 . S
C365 C366 1.399 . S
C365 C370 1.399 . S
C366 C365 1.399 . S
C366 C367 1.376 . S
C367 H354 0.930 . S
C367 C366 1.376 . S
C367 C368 1.388 . S
C368 H355 0.930 . S
C368 C367 1.388 . S
C368 C369 1.390 . S
C369 C368 1.390 . S
C369 C370 1.394 . S
C369 C375 1.465 . S
C370 C365 1.399 . S
C370 C369 1.394 . S
C370 C371 1.516 . S
C371 C370 1.516 . S
C371 C372 1.502 . S
C371 C373 1.561 . S
C371 C374 1.526 . S
C372 H356 0.959 . S
C372 H357 0.959 . S
C372 H358 0.961 . S
C372 C371 1.502 . S
C373 H359 0.960 . S
C373 H360 0.961 . S
C373 H361 0.959 . S
C373 C371 1.561 . S
C374 C371 1.526 . S
C374 C375 1.396 . S
C374 C379 1.390 . S
C375 C369 1.465 . S
C375 C374 1.396 . S
C375 C376 1.399 . S
C376 H362 0.929 . S
C376 C375 1.399 . S
C376 C377 1.385 . S
C377 H363 0.931 . S
C377 C376 1.385 . S
C377 C378 1.389 . S
C378 C377 1.389 . S
C378 C379 1.387 . S
C379 H364 0.930 . S
C379 C374 1.390 . S
C379 C378 1.387 . S
H380 C392 0.930 . S
H381 C394 0.930 . S
H382 C395 0.930 . S
H383 C399 0.959 . S
H384 C399 0.981 . S
H385 C399 0.961 1_554 S
H386 C400 0.960 1_455 S
H387 C400 0.961 . S
H388 C400 0.959 . S
H389 C403 0.929 . S
H390 C404 0.931 . S
H391 C406 0.930 . S
C392 H380 0.930 . S
C392 C393 1.399 1_565 S
C392 C397 1.399 . S
C393 C392 1.399 1_545 S
C393 C394 1.376 . S
C394 H381 0.930 . S
C394 C393 1.376 . S
C394 C395 1.388 . S
C395 H382 0.930 . S
C395 C394 1.388 . S
C395 C396 1.390 . S
C396 C395 1.390 . S
C396 C397 1.394 1_545 S
C396 C402 1.465 1_454 S
C397 C392 1.399 . S
C397 C396 1.394 1_565 S
C397 C398 1.516 . S
C398 C397 1.516 . S
C398 C399 1.502 1_554 S
C398 C400 1.561 1_455 S
C398 C401 1.526 1_454 S
C399 H383 0.959 . S
C399 H384 0.981 . S
C399 H385 0.961 1_556 S
C399 C398 1.502 1_556 S
C400 H386 0.960 1_655 S
C400 H387 0.961 . S
C400 H388 0.959 . S
C400 C398 1.561 1_655 S
C401 C398 1.526 1_656 S
C401 C402 1.396 1_565 S
C401 C406 1.390 . S
C402 C396 1.465 1_656 S
C402 C401 1.396 1_545 S
C402 C403 1.399 . S
C403 H389 0.929 . S
C403 C402 1.399 . S
C403 C404 1.385 . S
C404 H390 0.931 . S
C404 C403 1.385 . S
C404 C405 1.389 1_545 S
C405 C404 1.389 1_565 S
C405 C406 1.387 . S
C406 H391 0.930 . S
C406 C401 1.390 . S
C406 C405 1.387 . S
H407 C419 0.930 . S
H408 C421 0.930 . S
H409 C422 0.930 . S
H410 C426 0.959 . S
H411 C426 0.959 . S
H412 C426 0.961 . S
H413 C427 0.960 . S
H414 C427 0.961 . S
H415 C427 0.959 . S
H416 C430 0.929 . S
H417 C431 0.931 . S
H418 C433 0.930 . S
C419 H407 0.930 . S
C419 C420 1.399 1_545 S
C419 C424 1.399 . S
C420 C419 1.399 1_565 S
C420 C421 1.376 . S
C421 H408 0.930 . S
C421 C420 1.376 . S
C421 C422 1.388 . S
C422 H409 0.930 . S
C422 C421 1.388 . S
C422 C423 1.390 . S
C423 C422 1.390 . S
C423 C424 1.394 1_565 S
C423 C429 1.465 1_554 S
C424 C419 1.399 . S
C424 C423 1.394 1_545 S
C424 C425 1.516 . S
C425 C424 1.516 . S
C425 C426 1.502 1_554 S
C425 C427 1.561 . S
C425 C428 1.526 1_554 S
C426 H410 0.959 . S
C426 H411 0.959 . S
C426 H412 0.961 . S
C426 C425 1.502 1_556 S
C427 H413 0.960 . S
C427 H414 0.961 . S
C427 H415 0.959 . S
C427 C425 1.561 . S
C428 C425 1.526 1_556 S
C428 C429 1.396 1_545 S
C428 C433 1.390 . S
C429 C423 1.465 1_556 S
C429 C428 1.396 1_565 S
C429 C430 1.399 . S
C430 H416 0.929 . S
C430 C429 1.399 . S
C430 C431 1.385 . S
C431 H417 0.931 . S
C431 C430 1.385 . S
C431 C432 1.389 1_565 S
C432 C431 1.389 1_545 S
C432 C433 1.387 . S
C433 H418 0.930 . S
C433 C428 1.390 . S
C433 C432 1.387 . S
H434 C446 0.930 . S
H435 C448 0.930 . S
H436 C449 0.928 . S
H437 C453 0.959 . S
H438 C453 0.959 . S
H439 C453 0.961 . S
H440 C454 0.960 . S
H441 C454 0.961 . S
H442 C454 0.959 . S
H443 C457 0.929 . S
H444 C458 0.931 . S
H445 C460 0.930 . S
C446 H434 0.930 . S
C446 C447 1.399 . S
C446 C451 1.399 . S
C447 C446 1.399 . S
C447 C448 1.376 . S
C448 H435 0.930 . S
C448 C447 1.376 . S
C448 C449 1.388 . S
C449 H436 0.928 . S
C449 C448 1.388 . S
C449 C450 1.390 . S
C450 C449 1.390 . S
C450 C451 1.394 . S
C450 C456 1.465 1_455 S
C451 C446 1.399 . S
C451 C450 1.394 . S
C451 C452 1.516 . S
C452 C451 1.516 . S
C452 C453 1.502 . S
C452 C454 1.561 . S
C452 C455 1.526 1_455 S
C453 H437 0.959 . S
C453 H438 0.959 . S
C453 H439 0.961 . S
C453 C452 1.502 . S
C454 H440 0.960 . S
C454 H441 0.961 . S
C454 H442 0.959 . S
C454 C452 1.561 . S
C455 C452 1.526 1_655 S
C455 C456 1.396 . S
C455 C460 1.390 . S
C456 C450 1.465 1_655 S
C456 C455 1.396 . S
C456 C457 1.399 . S
C457 H443 0.929 . S
C457 C456 1.399 . S
C457 C458 1.385 . S
C458 H444 0.931 . S
C458 C457 1.385 . S
C458 C459 1.389 . S
C459 C458 1.389 . S
C459 C460 1.387 . S
C460 H445 0.930 . S
C460 C455 1.390 . S
C460 C459 1.387 . S
H461 C473 0.930 . S
H462 C475 0.930 . S
H463 C476 0.930 . S
H464 C480 0.959 . S
H465 C480 0.959 . S
H466 C480 0.961 . S
H467 C481 0.960 . S
H468 C481 0.961 . S
H469 C481 0.959 . S
H470 C484 0.929 . S
H471 C485 0.931 . S
H472 C487 0.930 . S
C473 H461 0.930 . S
C473 C474 1.399 . S
C473 C478 1.399 . S
C474 C473 1.399 . S
C474 C475 1.376 . S
C475 H462 0.930 . S
C475 C474 1.376 . S
C475 C476 1.388 . S
C476 H463 0.930 . S
C476 C475 1.388 . S
C476 C477 1.390 . S
C477 C476 1.390 . S
C477 C478 1.394 . S
C477 C483 1.465 . S
C478 C473 1.399 . S
C478 C477 1.394 . S
C478 C479 1.516 . S
C479 C478 1.516 . S
C479 C480 1.502 . S
C479 C481 1.561 . S
C479 C482 1.526 . S
C480 H464 0.959 . S
C480 H465 0.959 . S
C480 H466 0.961 . S
C480 C479 1.502 . S
C481 H467 0.960 . S
C481 H468 0.961 . S
C481 H469 0.959 . S
C481 C479 1.561 . S
C482 C479 1.526 . S
C482 C483 1.396 . S
C482 C487 1.390 . S
C483 C477 1.465 . S
C483 C482 1.396 . S
C483 C484 1.399 . S
C484 H470 0.929 . S
C484 C483 1.399 . S
C484 C485 1.385 . S
C485 H471 0.931 . S
C485 C484 1.385 . S
C485 C486 1.389 . S
C486 C485 1.389 . S
C486 C487 1.387 . S
C487 H472 0.930 . S
C487 C482 1.390 . S
C487 C486 1.387 . S
H488 C500 0.930 . S
H489 C502 0.930 . S
H490 C503 0.930 . S
H491 C507 0.959 . S
H492 C507 0.959 . S
H493 C507 0.961 . S
H494 C508 0.960 . S
H495 C508 0.961 . S
H496 C508 0.959 . S
H497 C511 0.929 . S
H498 C512 0.931 . S
H499 C514 0.930 . S
C500 H488 0.930 . S
C500 C501 1.399 . S
C500 C505 1.399 . S
C501 C500 1.399 . S
C501 C502 1.376 . S
C502 H489 0.930 . S
C502 C501 1.376 . S
C502 C503 1.388 . S
C503 H490 0.930 . S
C503 C502 1.388 . S
C503 C504 1.390 . S
C504 C503 1.390 . S
C504 C505 1.394 . S
C504 C510 1.465 . S
C505 C500 1.399 . S
C505 C504 1.394 . S
C505 C506 1.516 . S
C506 C505 1.516 . S
C506 C507 1.502 . S
C506 C508 1.561 . S
C506 C509 1.526 . S
C507 H491 0.959 . S
C507 H492 0.959 . S
C507 H493 0.961 . S
C507 C506 1.502 . S
C508 H494 0.960 . S
C508 H495 0.961 . S
C508 H496 0.959 . S
C508 C506 1.561 . S
C509 C506 1.526 . S
C509 C510 1.396 . S
C509 C514 1.390 . S
C510 C504 1.465 . S
C510 C509 1.396 . S
C510 C511 1.399 . S
C511 H497 0.929 . S
C511 C510 1.399 . S
C511 C512 1.385 . S
C512 H498 0.931 . S
C512 C511 1.385 . S
C512 C513 1.389 . S
C513 C512 1.389 . S
C513 C514 1.387 . S
C514 H499 0.930 . S
C514 C509 1.390 . S
C514 C513 1.387 . S
H515 C527 0.930 . S
H516 C529 0.930 . S
H517 C530 0.930 . S
H518 C534 0.959 . S
H519 C534 0.959 . S
H520 C534 0.961 . S
H521 C535 0.960 . S
H522 C535 0.961 . S
H523 C535 0.959 . S
H524 C538 0.929 . S
H525 C539 0.931 . S
H526 C541 0.930 . S
C527 H515 0.930 . S
C527 C528 1.399 . S
C527 C532 1.399 . S
C528 C527 1.399 . S
C528 C529 1.376 . S
C529 H516 0.930 . S
C529 C528 1.376 . S
C529 C530 1.388 . S
C530 H517 0.930 . S
C530 C529 1.388 . S
C530 C531 1.390 . S
C531 C530 1.390 . S
C531 C532 1.394 . S
C531 C537 1.465 . S
C532 C527 1.399 . S
C532 C531 1.394 . S
C532 C533 1.516 . S
C533 C532 1.516 . S
C533 C534 1.502 . S
C533 C535 1.561 . S
C533 C536 1.526 . S
C534 H518 0.959 . S
C534 H519 0.959 . S
C534 H520 0.961 . S
C534 C533 1.502 . S
C535 H521 0.960 . S
C535 H522 0.961 . S
C535 H523 0.959 . S
C535 C533 1.561 . S
C536 C533 1.526 . S
C536 C537 1.396 . S
C536 C541 1.390 . S
C537 C531 1.465 . S
C537 C536 1.396 . S
C537 C538 1.399 . S
C538 H524 0.929 . S
C538 C537 1.399 . S
C538 C539 1.385 . S
C539 H525 0.931 . S
C539 C538 1.385 . S
C539 C540 1.389 . S
C540 C539 1.389 . S
C540 C541 1.387 . S
C541 H526 0.930 . S
C541 C536 1.390 . S
C541 C540 1.387 . S
H542 C554 0.930 . S
H543 C556 0.930 . S
H544 C557 0.930 . S
H545 C561 0.959 . S
H546 C561 0.959 . S
H547 C561 0.961 . S
H548 C562 0.960 . S
H549 C562 0.961 . S
H550 C562 0.959 . S
H551 C565 0.929 . S
H552 C566 0.931 . S
H553 C568 0.930 . S
C554 H542 0.930 . S
C554 C555 1.399 . S
C554 C559 1.399 . S
C555 C554 1.399 . S
C555 C556 1.376 . S
C556 H543 0.930 . S
C556 C555 1.376 . S
C556 C557 1.388 . S
C557 H544 0.930 . S
C557 C556 1.388 . S
C557 C558 1.390 . S
C558 C557 1.390 . S
C558 C559 1.394 . S
C558 C564 1.465 . S
C559 C554 1.399 . S
C559 C558 1.394 . S
C559 C560 1.516 . S
C560 C559 1.516 . S
C560 C561 1.502 . S
C560 C562 1.561 . S
C560 C563 1.526 . S
C561 H545 0.959 . S
C561 H546 0.959 . S
C561 H547 0.961 . S
C561 C560 1.502 . S
C562 H548 0.960 . S
C562 H549 0.961 . S
C562 H550 0.959 . S
C562 C560 1.561 . S
C563 C560 1.526 . S
C563 C564 1.396 . S
C563 C568 1.390 . S
C564 C558 1.465 . S
C564 C563 1.396 . S
C564 C565 1.399 . S
C565 H551 0.929 . S
C565 C564 1.399 . S
C565 C566 1.385 . S
C566 H552 0.931 . S
C566 C565 1.385 . S
C566 C567 1.389 . S
C567 C566 1.389 . S
C567 C568 1.387 . S
C568 H553 0.930 . S
C568 C563 1.390 . S
C568 C567 1.387 . S
H569 C581 0.930 . S
H570 C583 0.930 . S
H571 C584 0.930 . S
H572 C588 0.959 . S
H573 C588 0.959 . S
H574 C588 0.961 . S
H575 C589 0.960 . S
H576 C589 0.961 . S
H577 C589 0.959 . S
H578 C592 0.929 . S
H579 C593 0.931 . S
H580 C595 0.930 . S
C581 H569 0.930 . S
C581 C582 1.399 . S
C581 C586 1.399 . S
C582 C581 1.399 . S
C582 C583 1.376 . S
C583 H570 0.930 . S
C583 C582 1.376 . S
C583 C584 1.388 . S
C584 H571 0.930 . S
C584 C583 1.388 . S
C584 C585 1.390 . S
C585 C584 1.390 . S
C585 C586 1.394 . S
C585 C591 1.465 . S
C586 C581 1.399 . S
C586 C585 1.394 . S
C586 C587 1.516 . S
C587 C586 1.516 . S
C587 C588 1.502 . S
C587 C589 1.561 . S
C587 C590 1.526 . S
C588 H572 0.959 . S
C588 H573 0.959 . S
C588 H574 0.961 . S
C588 C587 1.502 . S
C589 H575 0.960 . S
C589 H576 0.961 . S
C589 H577 0.959 . S
C589 C587 1.561 . S
C590 C587 1.526 . S
C590 C591 1.396 . S
C590 C595 1.390 . S
C591 C585 1.465 . S
C591 C590 1.396 . S
C591 C592 1.399 . S
C592 H578 0.929 . S
C592 C591 1.399 . S
C592 C593 1.385 . S
C593 H579 0.931 . S
C593 C592 1.385 . S
C593 C594 1.389 . S
C594 C593 1.389 . S
C594 C595 1.387 . S
C595 H580 0.930 . S
C595 C590 1.390 . S
C595 C594 1.387 . S
H596 C608 0.930 . S
H597 C610 0.930 . S
H598 C611 0.930 . S
H599 C615 0.959 . S
H600 C615 0.959 . S
H601 C615 0.961 . S
H602 C616 0.960 . S
H603 C616 0.961 . S
H604 C616 0.959 . S
H605 C619 0.929 . S
H606 C620 0.931 . S
H607 C622 0.930 . S
C608 H596 0.930 . S
C608 C609 1.399 . S
C608 C613 1.399 . S
C609 C608 1.399 . S
C609 C610 1.376 . S
C610 H597 0.930 . S
C610 C609 1.376 . S
C610 C611 1.388 . S
C611 H598 0.930 . S
C611 C610 1.388 . S
C611 C612 1.390 . S
C612 C611 1.390 . S
C612 C613 1.394 . S
C612 C618 1.465 . S
C613 C608 1.399 . S
C613 C612 1.394 . S
C613 C614 1.516 . S
C614 C613 1.516 . S
C614 C615 1.502 . S
C614 C616 1.561 . S
C614 C617 1.526 . S
C615 H599 0.959 . S
C615 H600 0.959 . S
C615 H601 0.961 . S
C615 C614 1.502 . S
C616 H602 0.960 . S
C616 H603 0.961 . S
C616 H604 0.959 . S
C616 C614 1.561 . S
C617 C614 1.526 . S
C617 C618 1.396 . S
C617 C622 1.390 . S
C618 C612 1.465 . S
C618 C617 1.396 . S
C618 C619 1.399 . S
C619 H605 0.929 . S
C619 C618 1.399 . S
C619 C620 1.385 . S
C620 H606 0.931 . S
C620 C619 1.385 . S
C620 C621 1.389 . S
C621 C620 1.389 . S
C621 C622 1.387 . S
C622 H607 0.930 . S
C622 C617 1.390 . S
C622 C621 1.387 . S
H623 C635 0.930 . S
H624 C637 0.930 . S
H625 C638 0.930 . S
H626 C642 0.959 . S
H627 C642 0.959 . S
H628 C642 0.961 . S
H629 C643 0.960 . S
H630 C643 0.961 . S
H631 C643 0.959 . S
H632 C646 0.929 . S
H633 C647 0.931 . S
H634 C649 0.930 . S
C635 H623 0.930 . S
C635 C636 1.399 . S
C635 C640 1.399 . S
C636 C635 1.399 . S
C636 C637 1.376 . S
C637 H624 0.930 . S
C637 C636 1.376 . S
C637 C638 1.388 . S
C638 H625 0.930 . S
C638 C637 1.388 . S
C638 C639 1.390 . S
C639 C638 1.390 . S
C639 C640 1.394 . S
C639 C645 1.465 . S
C640 C635 1.399 . S
C640 C639 1.394 . S
C640 C641 1.516 . S
C641 C640 1.516 . S
C641 C642 1.502 . S
C641 C643 1.561 . S
C641 C644 1.526 . S
C642 H626 0.959 . S
C642 H627 0.959 . S
C642 H628 0.961 . S
C642 C641 1.502 . S
C643 H629 0.960 . S
C643 H630 0.961 . S
C643 H631 0.959 . S
C643 C641 1.561 . S
C644 C641 1.526 . S
C644 C645 1.396 . S
C644 C649 1.390 . S
C645 C639 1.465 . S
C645 C644 1.396 . S
C645 C646 1.399 . S
C646 H632 0.929 . S
C646 C645 1.399 . S
C646 C647 1.385 . S
C647 H633 0.931 . S
C647 C646 1.385 . S
C647 C648 1.389 . S
C648 C647 1.389 . S
C648 C649 1.387 . S
C649 H634 0.930 . S
C649 C644 1.390 . S
C649 C648 1.387 . S
H650 C662 0.930 . S
H651 C664 0.930 . S
H652 C665 0.930 . S
H653 C669 0.959 . S
H654 C669 0.959 . S
H655 C669 0.961 1_545 S
H656 C670 0.960 1_545 S
H657 C670 0.961 . S
H658 C670 0.959 . S
H659 C673 0.929 . S
H660 C674 0.931 . S
H661 C676 0.930 . S
C662 H650 0.930 . S
C662 C663 1.399 . S
C662 C667 1.399 . S
C663 C662 1.399 . S
C663 C664 1.376 . S
C664 H651 0.930 . S
C664 C663 1.376 . S
C664 C665 1.388 . S
C665 H652 0.930 . S
C665 C664 1.388 . S
C665 C666 1.390 . S
C666 C665 1.390 . S
C666 C667 1.394 . S
C666 C672 1.465 1_545 S
C667 C662 1.399 . S
C667 C666 1.394 . S
C667 C668 1.516 1_545 S
C668 C667 1.516 1_565 S
C668 C669 1.502 . S
C668 C670 1.561 . S
C668 C671 1.526 . S
C669 H653 0.959 . S
C669 H654 0.959 . S
C669 H655 0.961 1_565 S
C669 C668 1.502 . S
C670 H656 0.960 1_565 S
C670 H657 0.961 . S
C670 H658 0.959 . S
C670 C668 1.561 . S
C671 C668 1.526 . S
C671 C672 1.396 . S
C671 C676 1.390 . S
C672 C666 1.465 1_565 S
C672 C671 1.396 . S
C672 C673 1.399 . S
C673 H659 0.929 . S
C673 C672 1.399 . S
C673 C674 1.385 . S
C674 H660 0.931 . S
C674 C673 1.385 . S
C674 C675 1.389 . S
C675 C674 1.389 . S
C675 C676 1.387 . S
C676 H661 0.930 . S
C676 C671 1.390 . S
C676 C675 1.387 . S
H677 C689 0.930 . S
H678 C691 0.930 . S
H679 C692 0.930 . S
H680 C696 0.959 . S
H681 C696 0.959 . S
H682 C696 0.961 1_565 S
H683 C697 0.960 1_565 S
H684 C697 0.961 . S
H685 C697 0.959 . S
H686 C700 0.929 . S
H687 C701 0.931 . S
H688 C703 0.930 . S
C689 H677 0.930 . S
C689 C690 1.399 . S
C689 C694 1.399 . S
C690 C689 1.399 . S
C690 C691 1.376 . S
C691 H678 0.930 . S
C691 C690 1.376 . S
C691 C692 1.388 . S
C692 H679 0.930 . S
C692 C691 1.388 . S
C692 C693 1.390 . S
C693 C692 1.390 . S
C693 C694 1.394 . S
C693 C699 1.465 1_565 S
C694 C689 1.399 . S
C694 C693 1.394 . S
C694 C695 1.516 1_565 S
C695 C694 1.516 1_545 S
C695 C696 1.502 . S
C695 C697 1.561 . S
C695 C698 1.526 . S
C696 H680 0.959 . S
C696 H681 0.959 . S
C696 H682 0.961 1_545 S
C696 C695 1.502 . S
C697 H683 0.960 1_545 S
C697 H684 0.961 . S
C697 H685 0.959 . S
C697 C695 1.561 . S
C698 C695 1.526 . S
C698 C699 1.396 . S
C698 C703 1.390 . S
C699 C693 1.465 1_545 S
C699 C698 1.396 . S
C699 C700 1.399 . S
C700 H686 0.929 . S
C700 C699 1.399 . S
C700 C701 1.385 . S
C701 H687 0.931 . S
C701 C700 1.385 . S
C701 C702 1.389 . S
C702 C701 1.389 . S
C702 C703 1.387 . S
C703 H688 0.930 . S
C703 C698 1.390 . S
C703 C702 1.387 . S
H704 C716 0.930 . S
H705 C718 0.930 . S
H706 C719 0.930 . S
H707 C723 0.959 . S
H708 C723 0.959 . S
H709 C723 0.961 . S
H710 C724 0.960 . S
H711 C724 0.961 . S
H712 C724 0.959 . S
H713 C727 0.929 . S
H714 C728 0.931 . S
H715 C730 0.930 . S
C716 H704 0.930 . S
C716 C717 1.399 . S
C716 C721 1.399 . S
C717 C716 1.399 . S
C717 C718 1.376 . S
C718 H705 0.930 . S
C718 C717 1.376 . S
C718 C719 1.388 . S
C719 H706 0.930 . S
C719 C718 1.388 . S
C719 C720 1.390 . S
C720 C719 1.390 . S
C720 C721 1.394 . S
C720 C726 1.465 . S
C721 C716 1.399 . S
C721 C720 1.394 . S
C721 C722 1.516 . S
C722 C721 1.516 . S
C722 C723 1.502 . S
C722 C724 1.561 . S
C722 C725 1.526 . S
C723 H707 0.959 . S
C723 H708 0.959 . S
C723 H709 0.961 . S
C723 C722 1.502 . S
C724 H710 0.960 . S
C724 H711 0.961 . S
C724 H712 0.959 . S
C724 C722 1.561 . S
C725 C722 1.526 . S
C725 C726 1.396 . S
C725 C730 1.390 . S
C726 C720 1.465 . S
C726 C725 1.396 . S
C726 C727 1.399 . S
C727 H713 0.929 . S
C727 C726 1.399 . S
C727 C728 1.385 . S
C728 H714 0.931 . S
C728 C727 1.385 . S
C728 C729 1.389 . S
C729 C728 1.389 . S
C729 C730 1.387 . S
C730 H715 0.930 . S
C730 C725 1.390 . S
C730 C729 1.387 . S
H731 C743 0.930 . S
H732 C745 0.930 . S
H733 C746 0.930 . S
H734 C750 0.959 . S
H735 C750 0.959 . S
H736 C750 0.961 . S
H737 C751 0.960 . S
H738 C751 0.961 . S
H739 C751 0.959 . S
H740 C754 0.929 . S
H741 C755 0.931 . S
H742 C757 0.930 . S
C743 H731 0.930 . S
C743 C744 1.399 . S
C743 C748 1.399 . S
C744 C743 1.399 . S
C744 C745 1.376 . S
C745 H732 0.930 . S
C745 C744 1.376 . S
C745 C746 1.388 . S
C746 H733 0.930 . S
C746 C745 1.388 . S
C746 C747 1.390 . S
C747 C746 1.390 . S
C747 C748 1.394 . S
C747 C753 1.465 . S
C748 C743 1.399 . S
C748 C747 1.394 . S
C748 C749 1.516 . S
C749 C748 1.516 . S
C749 C750 1.502 . S
C749 C751 1.561 . S
C749 C752 1.526 . S
C750 H734 0.959 . S
C750 H735 0.959 . S
C750 H736 0.961 . S
C750 C749 1.502 . S
C751 H737 0.960 . S
C751 H738 0.961 . S
C751 H739 0.959 . S
C751 C749 1.561 . S
C752 C749 1.526 . S
C752 C753 1.396 . S
C752 C757 1.390 . S
C753 C747 1.465 . S
C753 C752 1.396 . S
C753 C754 1.399 . S
C754 H740 0.929 . S
C754 C753 1.399 . S
C754 C755 1.385 . S
C755 H741 0.931 . S
C755 C754 1.385 . S
C755 C756 1.389 . S
C756 C755 1.389 . S
C756 C757 1.387 . S
C757 H742 0.930 . S
C757 C752 1.390 . S
C757 C756 1.387 . S
H758 C770 0.930 . S
H759 C772 0.930 . S
H760 C773 0.930 . S
H761 C777 0.959 . S
H762 C777 0.959 . S
H763 C777 0.961 . S
H764 C778 0.960 . S
H765 C778 0.961 . S
H766 C778 0.959 . S
H767 C781 0.929 . S
H768 C782 0.931 . S
H769 C784 0.930 . S
C770 H758 0.930 . S
C770 C771 1.399 . S
C770 C775 1.399 . S
C771 C770 1.399 . S
C771 C772 1.376 . S
C772 H759 0.930 . S
C772 C771 1.376 . S
C772 C773 1.388 . S
C773 H760 0.930 . S
C773 C772 1.388 . S
C773 C774 1.390 . S
C774 C773 1.390 . S
C774 C775 1.394 . S
C774 C780 1.465 1_565 S
C775 C770 1.399 . S
C775 C774 1.394 . S
C775 C776 1.516 1_565 S
C776 C775 1.516 1_545 S
C776 C777 1.502 . S
C776 C778 1.561 . S
C776 C779 1.526 . S
C777 H761 0.959 . S
C777 H762 0.959 . S
C777 H763 0.961 . S
C777 C776 1.502 . S
C778 H764 0.960 . S
C778 H765 0.961 . S
C778 H766 0.959 . S
C778 C776 1.561 . S
C779 C776 1.526 . S
C779 C780 1.396 . S
C779 C784 1.390 . S
C780 C774 1.465 1_545 S
C780 C779 1.396 . S
C780 C781 1.399 . S
C781 H767 0.929 . S
C781 C780 1.399 . S
C781 C782 1.385 . S
C782 H768 0.931 . S
C782 C781 1.385 . S
C782 C783 1.389 . S
C783 C782 1.389 . S
C783 C784 1.387 . S
C784 H769 0.930 . S
C784 C779 1.390 . S
C784 C783 1.387 . S
H785 C797 0.930 . S
H786 C799 0.930 . S
H787 C800 0.930 . S
H788 C804 0.959 . S
H789 C804 0.959 . S
H790 C804 0.961 . S
H791 C805 0.960 . S
H792 C805 0.961 . S
H793 C805 0.959 . S
H794 C808 0.929 . S
H795 C809 0.931 . S
H796 C811 0.930 . S
C797 H785 0.930 . S
C797 C798 1.399 . S
C797 C802 1.399 . S
C798 C797 1.399 . S
C798 C799 1.376 . S
C799 H786 0.930 . S
C799 C798 1.376 . S
C799 C800 1.388 . S
C800 H787 0.930 . S
C800 C799 1.388 . S
C800 C801 1.390 . S
C801 C800 1.390 . S
C801 C802 1.394 . S
C801 C807 1.465 1_565 S
C802 C797 1.399 . S
C802 C801 1.394 . S
C802 C803 1.516 . S
C803 C802 1.516 . S
C803 C804 1.502 . S
C803 C805 1.561 . S
C803 C806 1.526 1_565 S
C804 H788 0.959 . S
C804 H789 0.959 . S
C804 H790 0.961 . S
C804 C803 1.502 . S
C805 H791 0.960 . S
C805 H792 0.961 . S
C805 H793 0.959 . S
C805 C803 1.561 . S
C806 C803 1.526 1_545 S
C806 C807 1.396 . S
C806 C811 1.390 . S
C807 C801 1.465 1_545 S
C807 C806 1.396 . S
C807 C808 1.399 . S
C808 H794 0.929 . S
C808 C807 1.399 . S
C808 C809 1.385 . S
C809 H795 0.931 . S
C809 C808 1.385 . S
C809 C810 1.389 . S
C810 C809 1.389 . S
C810 C811 1.387 . S
C811 H796 0.930 . S
C811 C806 1.390 . S
C811 C810 1.387 . S
C285 C2 1.551 . S
C297 C36 1.561 . S
C312 C104 1.552 . S
C324 C70 1.560 . S
C339 C138 1.542 . S
C351 C172 1.553 . S
C366 C240 1.563 . S
C378 C206 1.552 . S
C393 C20 1.535 . S
C405 C156 1.518 . S
C420 C54 1.535 . S
C432 C190 1.518 . S
C447 C88 1.524 . S
C459 C224 1.526 . S
C474 C122 1.529 . S
C486 C258 1.527 . S
C501 C101 1.588 . S
C513 C33 1.634 . S
C528 C135 1.590 . S
C540 C67 1.632 . S
C555 C169 1.590 . S
C567 C237 1.621 . S
C582 C203 1.596 . S
C594 C271 1.635 . S
C609 C9 1.214 . S
C621 C5 1.203 . S
C636 C43 1.188 . S
C648 C39 1.210 . S
C663 C73 1.207 . S
C675 C77 1.214 . S
C690 C107 1.208 . S
C702 C111 1.213 . S
C717 C141 1.204 . S
C729 C145 1.191 . S
C744 C179 1.214 . S
C756 C175 1.212 . S
C771 C209 1.184 . S
C783 C213 1.175 . S
C798 C247 1.152 . S
C810 C243 1.178 . S
