# Generated by pormake.
# Topology umj, (4)-cn, num edge types: 1
# Building blocks:
#     Node 0, Type 0, BuildingBlock: MUDLON_clean_sbu_0, # of connection points: 4
#     Node 1, Type 0, BuildingBlock: MUDLON_clean_sbu_0, # of connection points: 4
#     Node 2, Type 0, BuildingBlock: MUDLON_clean_sbu_0, # of connection points: 4
#     Node 3, Type 0, BuildingBlock: MUDLON_clean_sbu_0, # of connection points: 4
#     Node 4, Type 0, BuildingBlock: MUDLON_clean_sbu_0, # of connection points: 4
#     Node 5, Type 0, BuildingBlock: MUDLON_clean_sbu_0, # of connection points: 4
#     Node 6, Type 0, BuildingBlock: MUDLON_clean_sbu_0, # of connection points: 4
#     Node 7, Type 0, BuildingBlock: MUDLON_clean_sbu_0, # of connection points: 4
#     Node 8, Type 0, BuildingBlock: MUDLON_clean_sbu_0, # of connection points: 4
#     Node 9, Type 0, BuildingBlock: MUDLON_clean_sbu_0, # of connection points: 4
#     Node 10, Type 0, BuildingBlock: MUDLON_clean_sbu_0, # of connection points: 4
#     Node 11, Type 0, BuildingBlock: MUDLON_clean_sbu_0, # of connection points: 4
#     Edge 12, Type (0, 0), BuildingBlock: ZUJKAS_clean_linker_0, # of connection points: 2
#     Edge 13, Type (0, 0), BuildingBlock: ZUJKAS_clean_linker_0, # of connection points: 2
#     Edge 14, Type (0, 0), BuildingBlock: ZUJKAS_clean_linker_0, # of connection points: 2
#     Edge 15, Type (0, 0), BuildingBlock: ZUJKAS_clean_linker_0, # of connection points: 2
#     Edge 16, Type (0, 0), BuildingBlock: ZUJKAS_clean_linker_0, # of connection points: 2
#     Edge 17, Type (0, 0), BuildingBlock: ZUJKAS_clean_linker_0, # of connection points: 2
#     Edge 18, Type (0, 0), BuildingBlock: ZUJKAS_clean_linker_0, # of connection points: 2
#     Edge 19, Type (0, 0), BuildingBlock: ZUJKAS_clean_linker_0, # of connection points: 2
#     Edge 20, Type (0, 0), BuildingBlock: ZUJKAS_clean_linker_0, # of connection points: 2
#     Edge 21, Type (0, 0), BuildingBlock: ZUJKAS_clean_linker_0, # of connection points: 2
#     Edge 22, Type (0, 0), BuildingBlock: ZUJKAS_clean_linker_0, # of connection points: 2
#     Edge 23, Type (0, 0), BuildingBlock: ZUJKAS_clean_linker_0, # of connection points: 2
#     Edge 24, Type (0, 0), BuildingBlock: ZUJKAS_clean_linker_0, # of connection points: 2
#     Edge 25, Type (0, 0), BuildingBlock: ZUJKAS_clean_linker_0, # of connection points: 2
#     Edge 26, Type (0, 0), BuildingBlock: ZUJKAS_clean_linker_0, # of connection points: 2
#     Edge 27, Type (0, 0), BuildingBlock: ZUJKAS_clean_linker_0, # of connection points: 2
#     Edge 28, Type (0, 0), BuildingBlock: ZUJKAS_clean_linker_0, # of connection points: 2
#     Edge 29, Type (0, 0), BuildingBlock: ZUJKAS_clean_linker_0, # of connection points: 2
#     Edge 30, Type (0, 0), BuildingBlock: ZUJKAS_clean_linker_0, # of connection points: 2
#     Edge 31, Type (0, 0), BuildingBlock: ZUJKAS_clean_linker_0, # of connection points: 2
#     Edge 32, Type (0, 0), BuildingBlock: ZUJKAS_clean_linker_0, # of connection points: 2
#     Edge 33, Type (0, 0), BuildingBlock: ZUJKAS_clean_linker_0, # of connection points: 2
#     Edge 34, Type (0, 0), BuildingBlock: ZUJKAS_clean_linker_0, # of connection points: 2
#     Edge 35, Type (0, 0), BuildingBlock: ZUJKAS_clean_linker_0, # of connection points: 2
# Relax obj value: 0.017
# Max RMSD: 0.121
# Mean RMSD: 0.121
data_MOF--net-umj--node1-MUDLON_clean_sbu_0--edge1-ZUJKAS_clean_linker_0
_symmetry_space_group_name_H-M    P1
_symmetry_Int_Tables_number       1
_symmetry_cell_setting            triclinic
loop_
_symmetry_equiv_pos_as_xyz
'x, y, z'
_cell_length_a     39.374146
_cell_length_b     39.327007
_cell_length_c     112.81668
_cell_angle_alpha  89.745613
_cell_angle_beta   90.248147
_cell_angle_gamma 119.92111
loop_
_atom_site_label
_atom_site_type_symbol
_atom_site_fract_x
_atom_site_fract_y
_atom_site_fract_z
_atom_type_partial_charge
Mg0 Mg 0.04616 0.27791 0.09876 0.0
C1 C 0.04594 0.30205 0.12404 0.0
O2 O 0.02845 0.31892 0.11871 0.0
C3 C 0.07722 0.28384 0.07537 0.0
O4 O 0.03914 0.2601 0.07483 0.0
C5 C 0.03492 0.3426 0.08962 0.0
O6 O 0.07101 0.35352 0.08649 0.0
O7 O 0.01459 0.30941 0.09468 0.0
O8 O 0.06045 0.28569 0.11771 0.0
O9 O 0.0167 0.21438 0.09652 0.0
C10 C 0.04079 0.20252 0.09885 0.0
O11 O 0.0763 0.22856 0.10232 0.0
O12 O 0.09247 0.29795 0.08544 0.0
Mg13 Mg 0.77932 0.04492 0.43271 0.0
C14 C 0.81211 0.05537 0.45761 0.0
O15 O 0.83557 0.04585 0.45215 0.0
C16 C 0.83516 0.11011 0.41515 0.0
O17 O 0.86374 0.10894 0.42085 0.0
C18 C 0.7056 0.04302 0.43175 0.0
O19 O 0.73277 0.07895 0.43447 0.0
O20 O 0.71599 0.01737 0.43033 0.0
O21 O 0.78822 0.06113 0.45146 0.0
O22 O 0.80858 0.01082 0.42973 0.0
C23 C 0.8251 0.01166 0.41997 0.0
O24 O 0.81812 0.02717 0.4106 0.0
O25 O 0.8004 0.09045 0.41911 0.0
Mg26 Mg 0.72659 0.77313 0.76597 0.0
C27 C 0.75516 0.80038 0.79094 0.0
O28 O 0.78874 0.81431 0.78538 0.0
C29 C 0.67851 0.7724 0.74492 0.0
O30 O 0.66691 0.7349 0.74587 0.0
C31 C 0.65719 0.6971 0.76988 0.0
O32 O 0.65031 0.72318 0.77488 0.0
O33 O 0.69057 0.70909 0.7651 0.0
O34 O 0.72363 0.78488 0.78486 0.0
O35 O 0.78939 0.80119 0.76174 0.0
C36 C 0.80363 0.82941 0.7543 0.0
O37 O 0.7795 0.83644 0.7481 0.0
O38 O 0.70144 0.79587 0.7528 0.0
Mg39 Mg 0.95038 0.72963 0.09626 0.0
C40 C 0.9716 0.75652 0.12045 0.0
O41 O 1.00249 0.77846 0.11389 0.0
C42 C 0.89709 0.67368 0.07723 0.0
O43 O 0.91781 0.65673 0.07963 0.0
C44 C 0.96859 0.66758 0.10141 0.0
O45 O 0.94051 0.66167 0.10883 0.0
O46 O 0.98226 0.69759 0.09466 0.0
O47 O 0.94051 0.73067 0.11531 0.0
O48 O 0.97941 0.79165 0.09129 0.0
C49 C 0.95508 0.8034 0.0892 0.0
O50 O 0.91747 0.77754 0.08946 0.0
O51 O 0.90124 0.7019 0.08374 0.0
Mg52 Mg 0.2372 0.96959 0.43084 0.0
C53 C 0.25662 0.98789 0.45546 0.0
O54 O 0.27769 0.02027 0.44935 0.0
C55 C 0.21936 0.94053 0.40732 0.0
O56 O 0.24024 0.97904 0.407 0.0
C57 C 0.3096 0.97035 0.42658 0.0
O58 O 0.282 0.93354 0.42785 0.0
O59 O 0.2999 0.99677 0.42712 0.0
O60 O 0.23394 0.95663 0.44979 0.0
O61 O 0.20477 1.00095 0.42828 0.0
C62 C 0.17403 0.98693 0.43466 0.0
O63 O 0.16791 0.95938 0.44239 0.0
O64 O 0.21099 0.92378 0.41744 0.0
Mg65 Mg 0.27446 0.2223 0.76587 0.0
C66 C 0.258 0.22334 0.79089 0.0
O67 O 0.2314 0.22785 0.78515 0.0
C68 C 0.28484 0.17074 0.7474 0.0
O69 O 0.24956 0.14413 0.7508 0.0
C70 C 0.34098 0.29945 0.76139 0.0
O71 O 0.35459 0.27504 0.76194 0.0
O72 O 0.30421 0.28568 0.76262 0.0
O73 O 0.28303 0.21908 0.78492 0.0
O74 O 0.21113 0.18525 0.76274 0.0
C75 C 0.1962 0.15268 0.76832 0.0
O76 O 0.21912 0.14599 0.77527 0.0
O77 O 0.30281 0.20285 0.75308 0.0
Mg78 Mg 0.74158 0.95503 0.60749 0.0
C79 C 0.76885 0.97843 0.58323 0.0
O80 O 0.79159 0.00876 0.5899 0.0
C81 C 0.6835 0.89849 0.62563 0.0
O82 O 0.66611 0.91889 0.62334 0.0
C83 C 0.68289 0.97876 0.60242 0.0
O84 O 0.67892 0.95527 0.59363 0.0
O85 O 0.71014 0.98724 0.60996 0.0
O86 O 0.7429 0.94721 0.5883 0.0
O87 O 0.80324 0.98317 0.61286 0.0
C88 C 0.81438 0.95913 0.61604 0.0
O89 O 0.78829 0.92159 0.61649 0.0
O90 O 0.71254 0.90405 0.61929 0.0
Mg91 Mg 0.79079 0.74615 0.94057 0.0
C92 C 0.77311 0.71613 0.91434 0.0
O93 O 0.7484 0.68172 0.91889 0.0
C94 C 0.79397 0.6862 0.95663 0.0
O95 O 0.75713 0.66593 0.9533 0.0
C96 C 0.70142 0.70845 0.93857 0.0
O97 O 0.70976 0.72554 0.92813 0.0
O98 O 0.72921 0.7158 0.94576 0.0
O99 O 0.79426 0.74453 0.92122 0.0
O100 O 0.82667 0.80815 0.94519 0.0
C101 C 0.85789 0.82559 0.93905 0.0
O102 O 0.86355 0.80575 0.93071 0.0
O103 O 0.81634 0.71867 0.95147 0.0
Mg104 Mg 0.03715 0.76964 0.27069 0.0
C105 C 0.04815 0.80408 0.24595 0.0
O106 O 0.03784 0.82688 0.25146 0.0
C107 C 0.07475 0.77192 0.29358 0.0
O108 O 0.04163 0.73841 0.29383 0.0
C109 C 0.03543 0.69558 0.26965 0.0
O110 O 0.07039 0.72284 0.26616 0.0
O111 O 0.01043 0.70594 0.27227 0.0
O112 O 0.05421 0.78025 0.25203 0.0
O113 O 1.00224 0.79823 0.27354 0.0
C114 C 0.00844 0.81994 0.28256 0.0
O115 O 0.03031 0.81892 0.29122 0.0
O116 O 0.08322 0.79305 0.28426 0.0
Mg117 Mg 0.28982 0.05387 0.60699 0.0
C118 C 0.2723 0.03107 0.58245 0.0
O119 O 0.25259 0.99914 0.58887 0.0
C120 C 0.30402 0.12137 0.62374 0.0
O121 O 0.27173 0.11735 0.61899 0.0
C122 C 0.35597 0.04296 0.60511 0.0
O123 O 0.36412 0.07567 0.59959 0.0
O124 O 0.32215 0.02279 0.60974 0.0
O125 O 0.29327 0.06346 0.58782 0.0
O126 O 0.22738 0.02584 0.61123 0.0
C127 C 0.21065 0.0421 0.60584 0.0
O128 O 0.23147 0.0707 0.59836 0.0
O129 O 0.31946 0.10251 0.61938 0.0
Mg130 Mg 0.25302 0.29083 0.94192 0.0
C131 C 0.24241 0.26203 0.91727 0.0
O132 O 0.24525 0.23509 0.9234 0.0
C133 C 0.25067 0.34184 0.9614 0.0
O134 O 0.28857 0.3553 0.96087 0.0
C135 C 0.33257 0.35377 0.93716 0.0
O136 O 0.31025 0.35768 0.92922 0.0
O137 O 0.31677 0.32459 0.94423 0.0
O138 O 0.24323 0.29065 0.92277 0.0
O139 O 0.21857 0.22897 0.94699 0.0
C140 C 0.18303 0.21664 0.94402 0.0
O141 O 0.17435 0.2416 0.93901 0.0
O142 O 0.22858 0.31741 0.95359 0.0
Mg143 Mg 0.96381 0.22821 0.2728 0.0
C144 C 0.93889 0.20141 0.24628 0.0
O145 O 0.923 0.16494 0.25 0.0
C146 C 0.90454 0.17066 0.2905 0.0
O147 O 0.91783 0.14799 0.28669 0.0
C148 C 0.96674 0.30145 0.27817 0.0
O149 O 0.92957 0.27486 0.27701 0.0
O150 O 0.99223 0.29066 0.27714 0.0
O151 O 0.95367 0.22922 0.25377 0.0
O152 O 0.99438 0.19549 0.2764 0.0
C153 C 1.00484 0.18079 0.26812 0.0
O154 O 1.00423 0.19167 0.25714 0.0
O155 O 0.91471 0.20286 0.28515 0.0
H156 H 0.97785 0.27411 0.23604 0.0
H157 H 0.99637 0.29023 0.21529 0.0
H158 H 0.93605 0.1672 0.20658 0.0
H159 H 0.91734 0.15057 0.22742 0.0
H160 H 0.04157 0.26374 0.20181 0.0
H161 H 0.89573 0.21913 0.18192 0.0
H162 H 0.9056 0.22889 0.19756 0.0
H163 H 0.89858 0.18379 0.19144 0.0
C164 C 0.96801 0.25035 0.22972 0.0
C165 C 0.94603 0.21095 0.23344 0.0
C166 C 0.97882 0.25969 0.21786 0.0
C167 C 0.96758 0.22996 0.20939 0.0
C168 C 0.94476 0.19062 0.21296 0.0
H169 H 0.06392 0.2553 0.13787 0.0
H170 H 0.04733 0.2382 0.1588 0.0
C171 C 0.93408 0.18118 0.22488 0.0
C172 C 0.98104 0.24037 0.19694 0.0
H173 H 0.94904 0.24054 0.16877 0.0
C174 C 0.02137 0.25857 0.19456 0.0
C175 C 0.95465 0.23389 0.18754 0.0
C176 C 0.91121 0.21562 0.18968 0.0
C177 C 0.03602 0.27043 0.18302 0.0
C178 C 0.00959 0.2637 0.1736 0.0
C179 C 0.96925 0.24551 0.17599 0.0
C180 C 0.02308 0.27642 0.16125 0.0
C181 C 0.07968 0.29093 0.18103 0.0
C182 C 0.01538 0.30386 0.1557 0.0
C183 C 0.02484 0.3137 0.14378 0.0
C184 C 0.04199 0.29609 0.13709 0.0
C185 C 0.05102 0.26964 0.14277 0.0
C186 C 0.04153 0.25981 0.15474 0.0
H187 H 0.09634 0.30131 0.18947 0.0
H188 H 0.08738 0.2702 0.17684 0.0
H189 H 0.08912 0.31642 0.17498 0.0
H190 H 1.00126 0.31712 0.16055 0.0
H191 H 0.01748 0.33421 0.13972 0.0
H192 H 0.86007 0.046 0.47323 0.0
H193 H 0.84976 0.03177 0.49443 0.0
H194 H 0.74546 0.04143 0.49294 0.0
H195 H 0.75595 0.05647 0.47172 0.0
H196 H 0.78886 0.07604 0.5127 0.0
H197 H 0.76822 0.92678 0.50799 0.0
H198 H 0.81408 0.96412 0.50207 0.0
H199 H 0.7689 0.95567 0.49543 0.0
C200 C 0.83511 0.0455 0.47741 0.0
C201 C 0.80868 0.05211 0.47073 0.0
C202 C 0.82905 0.03695 0.48953 0.0
C203 C 0.7962 0.03438 0.49522 0.0
C204 C 0.77076 0.0428 0.48871 0.0
H205 H 0.71742 0.92973 0.56613 0.0
H206 H 0.72122 0.94174 0.54462 0.0
C207 C 0.77691 0.05156 0.47658 0.0
C208 C 0.78849 0.0229 0.50794 0.0
H209 H 0.77674 0.95167 0.52773 0.0
C210 C 0.78594 0.04872 0.51596 0.0
C211 C 0.7838 0.98684 0.5122 0.0
C212 C 0.78346 0.95656 0.50396 0.0
C213 C 0.78037 0.04019 0.52815 0.0
C214 C 0.77803 0.00523 0.53249 0.0
C215 C 0.77903 0.97868 0.52443 0.0
C216 C 0.77616 0.99662 0.54541 0.0
C217 C 0.77687 0.06872 0.53625 0.0
C218 C 0.80631 0.02271 0.55293 0.0
C219 C 0.8042 0.01597 0.56513 0.0
C220 C 0.77204 0.9827 0.57014 0.0
C221 C 0.74255 0.95562 0.56256 0.0
C222 C 0.74464 0.96252 0.55028 0.0
H223 H 0.76715 0.08693 0.53134 0.0
H224 H 0.75586 0.05318 0.54355 0.0
H225 H 0.80596 0.08879 0.54021 0.0
H226 H 0.83146 0.0486 0.54936 0.0
H227 H 0.82769 0.03724 0.57067 0.0
H228 H 0.69114 0.76052 0.80554 0.0
H229 H 0.69172 0.7465 0.82674 0.0
H230 H 0.81777 0.81631 0.82714 0.0
H231 H 0.81757 0.83047 0.80607 0.0
H232 H 0.78647 0.73835 0.83641 0.0
H233 H 0.71745 0.81805 0.8565 0.0
H234 H 0.69197 0.78651 0.84418 0.0
H235 H 0.7389 0.82942 0.84187 0.0
C236 C 0.71892 0.77357 0.8102 0.0
C237 C 0.75431 0.79657 0.80407 0.0
C238 C 0.7192 0.7655 0.82232 0.0
C239 C 0.75482 0.78038 0.82852 0.0
C240 C 0.78998 0.80445 0.82252 0.0
H241 H 0.8121 0.78651 0.9027 0.0
H242 H 0.80659 0.80005 0.88183 0.0
C243 C 0.78975 0.8126 0.81047 0.0
C244 C 0.75598 0.76908 0.84105 0.0
H245 H 0.73217 0.77953 0.86938 0.0
C246 C 0.77445 0.7472 0.84362 0.0
C247 C 0.7405 0.78088 0.85044 0.0
C248 C 0.7213 0.80526 0.84819 0.0
C249 C 0.77791 0.73685 0.85532 0.0
C250 C 0.76237 0.74855 0.8647 0.0
C251 C 0.74387 0.77041 0.86215 0.0
C252 C 0.76634 0.73961 0.87727 0.0
C253 C 0.79897 0.71426 0.85763 0.0
C254 C 0.74571 0.70101 0.88162 0.0
C255 C 0.74868 0.69309 0.89359 0.0
C256 C 0.77246 0.72365 0.90143 0.0
C257 C 0.79364 0.76218 0.89694 0.0
C258 C 0.7904 0.77007 0.88501 0.0
H259 H 0.8148 0.71298 0.84966 0.0
H260 H 0.82028 0.72778 0.86501 0.0
H261 H 0.77736 0.68379 0.86028 0.0
H262 H 0.72677 0.6771 0.8758 0.0
H263 H 0.73184 0.66313 0.89674 0.0
H264 H 0.92369 0.70508 0.13768 0.0
H265 H 0.93513 0.71087 0.15921 0.0
H266 H 0.03892 0.82357 0.15413 0.0
H267 H 0.02818 0.81773 0.13279 0.0
H268 H 0.05295 0.77575 0.16827 0.0
H269 H 0.92056 0.77875 0.18359 0.0
H270 H 0.91089 0.73724 0.17461 0.0
H271 H 0.93539 0.78562 0.16825 0.0
C272 C 0.94857 0.73131 0.14119 0.0
C273 C 0.97504 0.76089 0.13352 0.0
C274 C 0.95507 0.73463 0.1535 0.0
C275 C 0.98783 0.76778 0.15831 0.0
C276 C 0.01356 0.79767 0.15065 0.0
H277 H 0.03705 0.85129 0.23047 0.0
H278 H 0.02385 0.84157 0.20921 0.0
C279 C 0.00728 0.79428 0.13843 0.0
C280 C 0.9968 0.77115 0.17122 0.0
H281 H 0.96287 0.77802 0.19841 0.0
C282 C 0.03319 0.77613 0.17487 0.0
C283 C 0.9712 0.77203 0.17981 0.0
C284 C 0.93246 0.76848 0.17641 0.0
C285 C 0.04485 0.78235 0.18682 0.0
C286 C 0.01909 0.78282 0.19543 0.0
C287 C 0.98255 0.77752 0.19181 0.0
C288 C 0.02982 0.78987 0.20821 0.0
C289 C 0.08516 0.78958 0.19005 0.0
C290 C 0.03821 0.76441 0.21473 0.0
C291 C 0.04619 0.77012 0.2269 0.0
C292 C 0.04547 0.80118 0.23282 0.0
C293 C 0.03795 0.82713 0.2262 0.0
C294 C 0.03016 0.82149 0.21405 0.0
H295 H 0.1048 0.79851 0.18221 0.0
H296 H 0.09896 0.81272 0.19691 0.0
H297 H 0.08267 0.76215 0.19366 0.0
H298 H 0.03747 0.73941 0.21048 0.0
H299 H 0.05144 0.74932 0.23173 0.0
H300 H 0.31611 0.08785 0.56589 0.0
H301 H 0.31338 0.08036 0.54424 0.0
H302 H 0.2206 0.96027 0.54784 0.0
H303 H 0.22356 0.96722 0.56932 0.0
H304 H 0.27791 0.9674 0.53279 0.0
H305 H 0.23128 0.07532 0.52113 0.0
H306 H 0.27499 0.095 0.52999 0.0
H307 H 0.22917 0.0579 0.53609 0.0
C308 C 0.29495 0.05999 0.56205 0.0
C309 C 0.27007 0.02818 0.56934 0.0
C310 C 0.29328 0.05577 0.54968 0.0
C311 C 0.26645 0.01983 0.54441 0.0
C312 C 0.2415 0.98825 0.55169 0.0
H313 H 0.21051 0.93035 0.47158 0.0
H314 H 0.21223 0.93625 0.49329 0.0
C315 C 0.24325 0.99236 0.56399 0.0
C316 C 0.26491 0.01437 0.53135 0.0
H317 H 0.24835 0.04773 0.50518 0.0
C318 C 0.2713 0.98487 0.52675 0.0
C319 C 0.2561 0.03704 0.52348 0.0
C320 C 0.24712 0.06786 0.5279 0.0
C321 C 0.26992 0.97796 0.51449 0.0
C322 C 0.26138 1.00081 0.50663 0.0
C323 C 0.25484 0.0302 0.51123 0.0
C324 C 0.26072 0.99598 0.49357 0.0
C325 C 0.27857 0.94696 0.51004 0.0
C326 C 0.28711 0.02757 0.48654 0.0
C327 C 0.28608 0.02433 0.47422 0.0
C328 C 0.25848 0.98943 0.46859 0.0
C329 C 0.23227 0.95751 0.47564 0.0
C330 C 0.23331 0.96082 0.48804 0.0
H331 H 0.29305 0.93821 0.51692 0.0
H332 H 0.25069 0.92049 0.5075 0.0
H333 H 0.29766 0.95748 0.50209 0.0
H334 H 0.30851 0.05493 0.4906 0.0
H335 H 0.30681 0.04952 0.4691 0.0
H336 H 0.32094 0.24779 0.80598 0.0
H337 H 0.32127 0.25693 0.82752 0.0
H338 H 0.19608 0.20994 0.82676 0.0
H339 H 0.196 0.20254 0.80533 0.0
H340 H 0.22885 0.27407 0.83918 0.0
H341 H 0.28961 0.18083 0.85432 0.0
H342 H 0.32127 0.21893 0.84428 0.0
H343 H 0.27431 0.18048 0.83922 0.0
C344 C 0.2935 0.2389 0.81048 0.0
C345 C 0.25846 0.22446 0.804 0.0
C346 C 0.29365 0.24401 0.82279 0.0
C347 C 0.25861 0.23379 0.82883 0.0
C348 C 0.22353 0.21824 0.82234 0.0
H349 H 0.21546 0.19659 0.90382 0.0
H350 H 0.2195 0.19237 0.88235 0.0
C351 C 0.2235 0.21388 0.81008 0.0
C352 C 0.2581 0.24066 0.8418 0.0
H353 H 0.2814 0.21915 0.86894 0.0
C354 C 0.24029 0.26197 0.84569 0.0
C355 C 0.27277 0.22471 0.85032 0.0
C356 C 0.29022 0.19964 0.84685 0.0
C357 C 0.23605 0.26713 0.8578 0.0
C358 C 0.25136 0.2518 0.86632 0.0
C359 C 0.2698 0.23109 0.86243 0.0
C360 C 0.2469 0.25497 0.87932 0.0
C361 C 0.21383 0.28761 0.8613 0.0
C362 C 0.26035 0.29155 0.88483 0.0
C363 C 0.2572 0.29393 0.89714 0.0
C364 C 0.24146 0.25986 0.90417 0.0
C365 C 0.22776 0.22336 0.89863 0.0
C366 C 0.23023 0.22093 0.88635 0.0
H367 H 0.19455 0.28717 0.85401 0.0
H368 H 0.19549 0.2738 0.86926 0.0
H369 H 0.23499 0.31875 0.86336 0.0
H370 H 0.27422 0.31836 0.87967 0.0
H371 H 0.26857 0.3225 0.9012 0.0
H372 H 0.05178 0.25258 0.05354 0.0
H373 H 0.08666 0.27316 0.0348 0.0
H374 H 0.18912 0.36233 0.05284 0.0
H375 H 0.15419 0.34154 0.07187 0.0
H376 H 0.11918 0.34802 0.0242 0.0
H377 H 0.23136 0.30395 0.03271 0.0
H378 H 0.18781 0.2862 0.04165 0.0
H379 H 0.2276 0.33543 0.0435 0.0
C380 C 0.08184 0.27645 0.05361 0.0
C381 C 0.10022 0.29541 0.06424 0.0
C382 C 0.10169 0.28823 0.04284 0.0
C383 C 0.14048 0.31917 0.04241 0.0
C384 C 0.1593 0.33805 0.053 0.0
H385 H 0.28983 0.39233 0.97952 0.0
H386 H 0.26434 0.39372 0.99911 0.0
C387 C 0.13933 0.32618 0.06385 0.0
C388 C 0.16037 0.33145 0.03075 0.0
H389 H 0.23181 0.33045 1.01398 0.0
C390 C 0.14407 0.34456 0.02199 0.0
C391 C 0.19288 0.32703 0.02789 0.0
C392 C 0.21093 0.31215 0.03687 0.0
C393 C 0.15885 0.35255 1.01038 0.0
C394 C 0.19036 0.34662 1.00739 0.0
C395 C 0.20761 0.33494 1.01627 0.0
C396 C 0.2045 0.35 0.99501 0.0
C397 C 0.14047 0.36709 1.00141 0.0
C398 C 0.17915 0.32565 0.98608 0.0
C399 C 0.1936 0.32489 0.97483 0.0
C400 C 0.2338 0.34818 0.97234 0.0
C401 C 0.25873 0.37394 0.98113 0.0
C402 C 0.24424 0.37473 0.99236 0.0
H403 H 0.126 0.38176 1.00579 0.0
H404 H 0.16259 0.38797 0.99506 0.0
H405 H 0.11775 0.34176 0.99634 0.0
H406 H 0.1485 0.30575 0.98798 0.0
H407 H 0.17363 0.3045 0.96831 0.0
H408 H 0.77899 0.0974 0.39867 0.0
H409 H 0.788 0.11079 0.37748 0.0
H410 H 0.91343 0.17118 0.38226 0.0
H411 H 0.90459 0.15609 0.4035 0.0
H412 H 0.81981 0.17126 0.36336 0.0
H413 H 0.90111 0.09076 0.35867 0.0
H414 H 0.87772 0.0911 0.37232 0.0
H415 H 0.92511 0.13176 0.36852 0.0
C416 C 0.80859 0.11396 0.39528 0.0
C417 C 0.84111 0.12517 0.40279 0.0
C418 C 0.81368 0.12158 0.38311 0.0
C419 C 0.85137 0.14096 0.37816 0.0
C420 C 0.88399 0.15492 0.38578 0.0
H421 H 0.90237 0.22459 0.30521 0.0
H422 H 0.8863 0.2168 0.32624 0.0
C423 C 0.87892 0.14668 0.39795 0.0
C424 C 0.85613 0.14482 0.36504 0.0
H425 H 0.89799 0.12458 0.34167 0.0
C426 C 0.83684 0.16095 0.35861 0.0
C427 C 0.87749 0.13047 0.35876 0.0
C428 C 0.89617 0.10967 0.3649 0.0
C429 C 0.83865 0.16352 0.34616 0.0
C430 C 0.86155 0.15088 0.33994 0.0
C431 C 0.88057 0.13449 0.34638 0.0
C432 C 0.8669 0.15469 0.32682 0.0
C433 C 0.81504 0.17874 0.33983 0.0
C434 C 0.8616 0.12249 0.32002 0.0
C435 C 0.87171 0.12711 0.30801 0.0
C436 C 0.8869 0.16393 0.30248 0.0
C437 C 0.89021 0.19566 0.30913 0.0
C438 C 0.88084 0.1912 0.3212 0.0
H439 H 0.78935 0.17386 0.34518 0.0
H440 H 0.83365 0.21082 0.33843 0.0
H441 H 0.8044 0.16443 0.33108 0.0
H442 H 0.85086 0.09398 0.32412 0.0
H443 H 0.8689 0.10214 0.30314 0.0
H444 H 0.7201 0.84603 0.73512 0.0
H445 H 0.7143 0.86509 0.71485 0.0
H446 H 0.61371 0.7506 0.70898 0.0
H447 H 0.62015 0.73104 0.72906 0.0
H448 H 0.66527 0.76832 0.69184 0.0
H449 H 0.64225 0.89474 0.6984 0.0
H450 H 0.68539 0.90107 0.70583 0.0
H451 H 0.63792 0.86218 0.71036 0.0
C452 C 0.69616 0.82528 0.72961 0.0
C453 C 0.67063 0.787 0.73369 0.0
C454 C 0.6928 0.83623 0.71801 0.0
C455 C 0.66339 0.80938 0.71037 0.0
C456 C 0.6367 0.77183 0.71467 0.0
H457 H 0.62106 0.8767 0.64037 0.0
H458 H 0.61313 0.85096 0.66056 0.0
C459 C 0.64033 0.76074 0.72618 0.0
C460 C 0.66236 0.81897 0.69763 0.0
H461 H 0.66046 0.88644 0.67888 0.0
C462 C 0.66385 0.79398 0.68902 0.0
C463 C 0.66005 0.85216 0.69389 0.0
C464 C 0.6559 0.87885 0.7026 0.0
C465 C 0.66388 0.80164 0.67684 0.0
C466 C 0.66346 0.83583 0.67312 0.0
C467 C 0.66112 0.86038 0.68171 0.0
C468 C 0.66612 0.8472 0.6604 0.0
C469 C 0.6638 0.77264 0.66811 0.0
C470 C 0.69809 0.85288 0.65345 0.0
C471 C 0.70241 0.86707 0.64183 0.0
C472 C 0.67519 0.87657 0.63698 0.0
C473 C 0.64254 0.86964 0.64382 0.0
C474 C 0.63806 0.85511 0.65539 0.0
H475 H 0.6514 0.74292 0.6721 0.0
H476 H 0.64665 0.77055 0.66003 0.0
H477 H 0.69439 0.78232 0.66544 0.0
H478 H 0.72063 0.84788 0.65717 0.0
H479 H 0.72817 0.87252 0.63688 0.0
H480 H 0.86914 0.71701 0.06608 0.0
H481 H 0.84711 0.71092 0.04551 0.0
H482 H 0.85734 0.60742 0.04142 0.0
H483 H 0.88008 0.6137 0.0619 0.0
H484 H 0.89564 0.66031 0.02409 0.0
H485 H 0.74598 0.63831 0.02848 0.0
H486 H 0.78202 0.68082 0.03628 0.0
H487 H 0.77216 0.63283 0.04084 0.0
C488 C 0.86576 0.69236 0.06091 0.0
C489 C 0.87646 0.66588 0.06565 0.0
C490 C 0.85308 0.68888 0.04913 0.0
C491 C 0.85033 0.65856 0.04191 0.0
C492 C 0.85925 0.63106 0.0468 0.0
H493 H 0.75262 0.6207 0.97035 0.0
H494 H 0.76739 0.61022 0.99065 0.0
C495 C 0.87211 0.63462 0.05854 0.0
C496 C 0.84146 0.65745 0.02903 0.0
H497 H 0.77525 0.65686 1.00926 0.0
C498 C 0.86911 0.65915 0.02085 0.0
C499 C 0.80668 0.6555 0.02477 0.0
C500 C 0.77482 0.65136 0.03305 0.0
C501 C 0.86346 0.66008 1.00857 0.0
C502 C 0.82959 0.66006 1.00433 0.0
C503 C 0.8014 0.6572 1.0125 0.0
C504 C 0.82316 0.6641 0.99152 0.0
C505 C 0.89376 0.66083 1.00027 0.0
C506 C 0.85002 0.69744 0.98512 0.0
C507 C 0.84182 0.70338 0.97345 0.0
C508 C 0.80631 0.67633 0.96799 0.0
C509 C 0.78025 0.64214 0.97425 0.0
C510 C 0.78855 0.63617 0.9859 0.0
H511 H 0.91077 0.64851 1.00454 0.0
H512 H 0.87998 0.64401 0.99205 0.0
H513 H 0.91467 0.69165 0.99776 0.0
H514 H 0.87658 0.7198 0.98931 0.0
H515 H 0.86243 0.73019 0.96895 0.0
H516 H 0.13114 0.84735 0.29923 0.0
H517 H 0.16076 0.87145 0.31878 0.0
H518 H 0.09975 0.75326 0.33249 0.0
H519 H 0.06985 0.72911 0.31311 0.0
H520 H 0.08718 0.80453 0.34566 0.0
H521 H 0.24614 0.86545 0.33793 0.0
H522 H 0.22337 0.88326 0.32774 0.0
H523 H 0.20919 0.83215 0.32769 0.0
C524 C 0.12481 0.82644 0.30633 0.0
C525 C 0.09802 0.78637 0.30463 0.0
C526 C 0.1418 0.84022 0.3175 0.0
C527 C 0.1326 0.8141 0.32709 0.0
C528 C 0.10725 0.77392 0.32523 0.0
H529 H 0.17747 0.86033 0.40386 0.0
H530 H 0.1568 0.82572 0.38478 0.0
C531 C 0.09021 0.7602 0.31413 0.0
C532 C 0.14628 0.82879 0.33928 0.0
H533 H 0.22807 0.88288 0.35612 0.0
C534 C 0.11799 0.82128 0.348 0.0
C535 C 0.18645 0.85055 0.3423 0.0
C536 C 0.21809 0.85807 0.33346 0.0
C537 C 0.12875 0.83627 0.35953 0.0
C538 C 0.16895 0.8588 0.36249 0.0
C539 C 0.19725 0.8655 0.35385 0.0
C540 C 0.18225 0.87868 0.37413 0.0
C541 C 0.09703 0.82933 0.36828 0.0
C542 C 0.20406 0.91971 0.37446 0.0
C543 C 0.21599 0.93936 0.38525 0.0
C544 C 0.20647 0.91847 0.39603 0.0
C545 C 0.18502 0.87724 0.39573 0.0
C546 C 0.1731 0.85748 0.38484 0.0
H547 H 0.0681 0.81835 0.3639 0.0
H548 H 0.09421 0.80707 0.37488 0.0
H549 H 0.10449 0.85673 0.37312 0.0
H550 H 0.21144 0.93668 0.36633 0.0
H551 H 0.23254 0.97112 0.3851 0.0
H552 H 0.28448 0.17088 0.63485 0.0
H553 H 0.29334 0.18872 0.65584 0.0
H554 H 0.35668 0.12642 0.66088 0.0
H555 H 0.34955 0.11016 0.63988 0.0
H556 H 0.26178 0.13876 0.67277 0.0
H557 H 0.42108 0.21823 0.68139 0.0
H558 H 0.40115 0.20948 0.66657 0.0
H559 H 0.40621 0.17213 0.67436 0.0
C560 C 0.30138 0.16207 0.64036 0.0
C561 C 0.31622 0.13904 0.63569 0.0
C562 C 0.30632 0.17216 0.65238 0.0
C563 C 0.32586 0.15912 0.66 0.0
C564 C 0.34237 0.13777 0.6552 0.0
H565 H 0.25913 0.10502 0.73379 0.0
H566 H 0.27297 0.10232 0.71281 0.0
C567 C 0.33804 0.12826 0.64315 0.0
C568 C 0.32446 0.16338 0.67309 0.0
H569 H 0.37956 0.18923 0.69845 0.0
C570 C 0.28769 0.15026 0.67834 0.0
C571 C 0.35818 0.17862 0.68043 0.0
C572 C 0.39889 0.19579 0.67537 0.0
C573 C 0.28353 0.15122 0.69065 0.0
C574 C 0.31689 0.16427 0.69804 0.0
C575 C 0.35386 0.17838 0.69281 0.0
C576 C 0.31378 0.16461 0.71118 0.0
C577 C 0.24339 0.1389 0.69557 0.0
C578 C 0.33438 0.19993 0.71746 0.0
C579 C 0.3272 0.20139 0.72954 0.0
C580 C 0.29901 0.16755 0.73552 0.0
C581 C 0.28063 0.13168 0.72941 0.0
C582 C 0.28827 0.13016 0.71738 0.0
H583 H 0.22403 0.141 0.68876 0.0
H584 H 0.22938 0.10787 0.69853 0.0
H585 H 0.24524 0.15726 0.70326 0.0
H586 H 0.35452 0.22681 0.7129 0.0
H587 H 0.34196 0.22952 0.73398 0.0
H588 H 0.94482 0.60239 0.11503 0.0
H589 H 0.95581 0.54747 0.11168 0.0
H590 H 0.02639 0.60637 0.0811 0.0
H591 H 0.01551 0.66193 0.08439 0.0
H592 H 0.93472 0.50101 0.09049 0.0
H593 H 0.09394 0.57211 0.10084 0.0
H594 H 0.06398 0.59239 0.10558 0.0
H595 H 0.0795 0.59736 0.09043 0.0
C596 C 0.96307 0.60402 0.10765 0.0
C597 C 0.9793 0.63664 0.09997 0.0
C598 C 0.9692 0.57246 0.10574 0.0
C599 C 0.99193 0.57284 0.09617 0.0
C600 C 0.00905 0.60569 0.08862 0.0
H601 H 0.0628 0.40567 0.07494 0.0
H602 H 0.04894 0.45957 0.07552 0.0
C603 C 1.00285 0.63741 0.09051 0.0
C604 C 0.99635 0.53809 0.09397 0.0
H605 H 0.06294 0.50664 0.09423 0.0
C606 C 0.96275 0.50218 0.09127 0.0
C607 C 0.03293 0.53978 0.09499 0.0
C608 C 0.0697 0.57734 0.0982 0.0
C609 C 0.96479 0.46789 0.08949 0.0
C610 C 1.00129 0.4694 0.0907 0.0
C611 C 0.03494 0.50546 0.09329 0.0
C612 C 1.00556 0.43409 0.08941 0.0
C613 C 0.92796 0.43059 0.08614 0.0
C614 C 0.98506 0.40121 0.09684 0.0
C615 C 0.99262 0.36995 0.09642 0.0
C616 C 0.02128 0.37144 0.08871 0.0
C617 C 0.04062 0.4037 0.08101 0.0
C618 C 0.03282 0.43462 0.08134 0.0
H619 H 0.90572 0.43678 0.08217 0.0
H620 H 0.9343 0.41311 0.07974 0.0
H621 H 0.915 0.41256 0.09421 0.0
H622 H 0.96448 0.40044 0.10331 0.0
H623 H 0.97761 0.34574 0.10257 0.0
H624 H 0.63967 0.97193 0.42676 0.0
H625 H 0.57207 0.95902 0.42444 0.0
H626 H 0.6113 0.08086 0.4313 0.0
H627 H 0.67824 0.09404 0.43352 0.0
H628 H 0.52646 0.97221 0.4413 0.0
H629 H 0.54814 0.06021 0.40059 0.0
H630 H 0.58271 0.04546 0.40539 0.0
H631 H 0.5826 0.08668 0.41218 0.0
C632 C 0.63385 0.99595 0.4277 0.0
C633 C 0.66444 0.03402 0.43028 0.0
C634 C 0.59527 0.98856 0.42638 0.0
C635 C 0.58679 0.01916 0.42748 0.0
C636 C 0.61724 0.057 0.43013 0.0
H637 H 0.37741 0.042 0.42875 0.0
H638 H 0.44511 0.05421 0.42866 0.0
C639 C 0.65556 0.06436 0.43148 0.0
C640 C 0.54601 0.01169 0.42639 0.0
H641 H 0.48864 0.03965 0.41115 0.0
C642 C 0.51806 0.98662 0.43464 0.0
C643 C 0.53523 0.03087 0.41776 0.0
C644 C 0.56363 0.05705 0.40841 0.0
C645 C 0.47986 0.98087 0.43466 0.0
C646 C 0.46909 1.00014 0.42606 0.0
C647 C 0.49699 0.02508 0.41777 0.0
C648 C 0.42861 0.99371 0.42535 0.0
C649 C 0.45164 0.95496 0.4441 0.0
C650 C 0.39714 0.95604 0.42313 0.0
C651 C 0.35875 0.94904 0.4232 0.0
C652 C 0.35086 0.97964 0.42538 0.0
C653 C 0.38252 0.01783 0.42706 0.0
C654 C 0.42114 0.0248 0.42704 0.0
H655 H 0.46718 0.95123 0.4518 0.0
H656 H 0.4333 0.96718 0.44731 0.0
H657 H 0.43193 0.9255 0.44032 0.0
H658 H 0.40224 0.93182 0.42151 0.0
H659 H 0.33515 0.91934 0.42171 0.0
H660 H 0.33252 0.3621 0.76819 0.0
H661 H 0.38411 0.43167 0.76855 0.0
H662 H 0.46491 0.40162 0.75257 0.0
H663 H 0.41406 0.33276 0.7522 0.0
H664 H 0.45811 0.45914 0.78085 0.0
H665 H 0.48017 0.49738 0.73303 0.0
H666 H 0.43593 0.456 0.73871 0.0
H667 H 0.4794 0.45257 0.73678 0.0
C668 C 0.36104 0.37055 0.76452 0.0
C669 C 0.36925 0.34197 0.76018 0.0
C670 C 0.3905 0.4102 0.76478 0.0
C671 C 0.42826 0.42184 0.76048 0.0
C672 C 0.4359 0.39346 0.75575 0.0
H673 H 0.65747 0.63458 0.75894 0.0
H674 H 0.6021 0.56733 0.75696 0.0
C675 C 0.40678 0.35403 0.75561 0.0
C676 C 0.46084 0.46285 0.76181 0.0
H677 H 0.52993 0.54163 0.74621 0.0
C678 C 0.47356 0.4774 0.77328 0.0
C679 C 0.48134 0.48631 0.75193 0.0
C680 C 0.4684 0.47249 0.73941 0.0
C681 C 0.50674 0.51444 0.77515 0.0
C682 C 0.52726 0.53802 0.76527 0.0
C683 C 0.51437 0.52352 0.75378 0.0
C684 C 0.56126 0.57833 0.76667 0.0
C685 C 0.52015 0.52742 0.78771 0.0
C686 C 0.55667 0.60687 0.7727 0.0
C687 C 0.58814 0.64497 0.77392 0.0
C688 C 0.62497 0.65574 0.769 0.0
C689 C 0.6296 0.6272 0.7629 0.0
C690 C 0.59795 0.58883 0.76172 0.0
H691 H 0.50917 0.50201 0.79388 0.0
H692 H 0.55262 0.54442 0.78832 0.0
H693 H 0.5085 0.54642 0.79074 0.0
H694 H 0.52849 0.59983 0.77634 0.0
H695 H 0.58328 0.66617 0.77859 0.0
H696 H 0.42411 0.07426 0.59289 0.0
H697 H 0.4778 0.06098 0.59518 0.0
H698 H 0.41317 0.97496 0.6222 0.0
H699 H 0.35837 0.98777 0.6198 0.0
H700 H 0.52211 0.07069 0.61519 0.0
H701 H 0.44701 0.91571 0.59978 0.0
H702 H 0.42671 0.9474 0.59735 0.0
H703 H 0.42405 0.92664 0.61176 0.0
C704 C 0.421 0.05227 0.59928 0.0
C705 C 0.38687 0.03204 0.60617 0.0
C706 C 0.45188 0.04482 0.6006 0.0
C707 C 0.44958 0.01697 0.60884 0.0
C708 C 0.4154 0.99625 0.61568 0.0
H709 H 0.66543 0.00543 0.62274 0.0
H710 H 0.60895 0.01481 0.62595 0.0
C711 C 0.38414 1.00359 0.61431 0.0
C712 C 0.48357 0.0106 0.61016 0.0
H713 H 0.51361 0.94431 0.60484 0.0
C714 C 0.52024 0.04293 0.61307 0.0
C715 C 0.48105 0.97443 0.60732 0.0
C716 C 0.44272 0.93905 0.60379 0.0
C717 C 0.55465 0.04051 0.61277 0.0
C718 C 0.55223 0.00457 0.60968 0.0
C719 C 0.51537 0.97183 0.60722 0.0
C720 C 0.58771 1.00102 0.60788 0.0
C721 C 0.59347 0.07694 0.61516 0.0
C722 C 0.59461 0.99032 0.59669 0.0
C723 C 0.62655 0.98481 0.59487 0.0
C724 C 0.65245 0.98989 0.6042 0.0
C725 C 0.64627 1.00175 0.61535 0.0
C726 C 0.61398 0.00706 0.61719 0.0
H727 H 0.59101 0.10388 0.61505 0.0
H728 H 0.60431 0.07447 0.62404 0.0
H729 H 0.61561 0.08027 0.6085 0.0
H730 H 0.57489 0.98571 0.58937 0.0
H731 H 0.63047 0.97574 0.58617 0.0
H732 H 0.37519 0.41148 0.92133 0.0
H733 H 0.43847 0.4703 0.92439 0.0
H734 H 0.44622 0.42951 0.95929 0.0
H735 H 0.38229 0.3699 0.95627 0.0
H736 H 0.45241 0.52441 0.94352 0.0
H737 H 0.55594 0.46656 0.9438 0.0
H738 H 0.50773 0.43968 0.93723 0.0
H739 H 0.51309 0.4424 0.95304 0.0
C740 C 0.39049 0.41458 0.92962 0.0
C741 C 0.37359 0.38602 0.93859 0.0
C742 C 0.42668 0.44833 0.93135 0.0
C743 C 0.44702 0.45434 0.94206 0.0
C744 C 0.43113 0.42526 0.9509 0.0
H745 H 0.6764 0.65969 0.95797 0.0
H746 H 0.61345 0.59932 0.96049 0.0
C747 C 0.39468 0.39121 0.94917 0.0
C748 C 0.48351 0.49231 0.94403 0.0
H749 H 0.5831 0.53483 0.94563 0.0
C750 C 0.48099 0.5267 0.94409 0.0
C751 C 0.52066 0.49518 0.94487 0.0
C752 C 0.52489 0.45913 0.94468 0.0
C753 C 0.51468 0.56393 0.94467 0.0
C754 C 0.552 0.56694 0.94494 0.0
C755 C 0.55447 0.5325 0.94537 0.0
C756 C 0.58878 0.6054 0.94399 0.0
C757 C 0.50997 0.59971 0.94491 0.0
C758 C 0.59572 0.62918 0.93394 0.0
C759 C 0.63159 0.66377 0.93248 0.0
C760 C 0.66148 0.67522 0.94101 0.0
C761 C 0.65401 0.65193 0.95125 0.0
C762 C 0.61809 0.61727 0.95269 0.0
H763 H 0.48084 0.5926 0.94844 0.0
H764 H 0.5331 0.62338 0.95039 0.0
H765 H 0.51226 0.61099 0.93574 0.0
H766 H 0.57386 0.62027 0.92699 0.0
H767 H 0.63637 0.68076 0.92445 0.0
H768 H 0.96793 0.63072 0.27764 0.0
H769 H 0.95702 0.56397 0.28056 0.0
H770 H 0.07363 0.60158 0.26787 0.0
H771 H 0.08483 0.66776 0.265 0.0
H772 H 0.96215 0.51362 0.26336 0.0
H773 H 0.07003 0.54828 0.29965 0.0
H774 H 0.05208 0.58085 0.29542 0.0
H775 H 0.08951 0.57916 0.28681 0.0
C776 C 0.9912 0.62471 0.27549 0.0
C777 C 0.02729 0.65466 0.27114 0.0
C778 C 0.98497 0.58663 0.27717 0.0
C779 C 0.01483 0.57804 0.27465 0.0
C780 C 0.05053 0.60773 0.27014 0.0
H781 H 0.03738 0.3682 0.27355 0.0
H782 H 0.05001 0.43614 0.2732 0.0
C783 C 0.05673 0.64557 0.26843 0.0
C784 C 0.00855 0.53781 0.27629 0.0
H785 H 0.0442 0.4854 0.2907 0.0
C786 C 0.97982 0.50735 0.26941 0.0
C787 C 0.03196 0.52981 0.28411 0.0
C788 C 0.06241 0.56115 0.29201 0.0
C789 C 0.97437 0.46925 0.26996 0.0
C790 C 0.99773 0.46119 0.27779 0.0
C791 C 0.02643 0.49164 0.28469 0.0
C792 C 0.99187 0.42101 0.27909 0.0
C793 C 0.94424 0.43817 0.26191 0.0
C794 C 0.95568 0.39037 0.28298 0.0
C795 C 0.94844 0.35185 0.28315 0.0
C796 C 0.97739 0.34307 0.27956 0.0
C797 C 0.01453 0.37405 0.27636 0.0
C798 C 0.0217 0.4128 0.27612 0.0
H799 H 0.93675 0.45126 0.2543 0.0
H800 H 0.95484 0.41876 0.25842 0.0
H801 H 0.91699 0.41982 0.26701 0.0
H802 H 0.93261 0.39613 0.28561 0.0
H803 H 0.91968 0.32875 0.28583 0.0
H804 H 0.97179 0.13977 0.09069 0.0
H805 H 0.95724 0.07165 0.08821 0.0
H806 H 0.07281 0.10409 0.10101 0.0
H807 H 0.08734 0.17137 0.10363 0.0
H808 H 0.99778 0.04289 0.07425 0.0
H809 H 1.00155 0.01024 0.12195 0.0
H810 H 0.99756 0.0517 0.11686 0.0
H811 H 0.04438 0.05408 0.11704 0.0
C812 C 0.99393 0.13225 0.09305 0.0
C813 C 0.03061 0.16099 0.09744 0.0
C814 C 0.98564 0.0934 0.0916 0.0
C815 C 0.01376 0.0827 0.0946 0.0
C816 C 0.05039 0.11145 0.09887 0.0
H817 H 0.02665 0.86763 0.0945 0.0
H818 H 0.04296 0.93663 0.0947 0.0
C819 C 0.05867 0.15004 0.10031 0.0
C820 C 1.00555 0.04179 0.09311 0.0
H821 H 1.00216 0.96474 0.10827 0.0
C822 C 0.99842 0.02565 0.08168 0.0
C823 C 0.00671 0.01947 0.10283 0.0
C824 C 0.0126 0.03456 0.11538 0.0
C825 C 0.99316 0.98805 0.07968 0.0
C826 C 0.99454 0.96584 0.08939 0.0
C827 C 1.00155 0.98197 0.10081 0.0
C828 C 0.98651 0.92494 0.08805 0.0
C829 C 0.9869 0.9727 0.06716 0.0
C830 C 0.94958 0.89562 0.08414 0.0
C831 C 0.94025 0.8564 0.08403 0.0
C832 C 0.96758 0.84554 0.08787 0.0
C833 C 1.00508 0.87507 0.09141 0.0
C834 C 0.01435 0.91444 0.09158 0.0
H835 H 0.99764 0.99686 0.06055 0.0
H836 H 1.00198 0.9556 0.06566 0.0
H837 H 0.95509 0.95302 0.06561 0.0
H838 H 0.92739 0.90286 0.08159 0.0
H839 H 0.91108 0.83441 0.08125 0.0
H840 H 0.87642 0.02435 0.40191 0.0
H841 H 0.9361 0.01972 0.40276 0.0
H842 H 0.90912 0.97725 0.43872 0.0
H843 H 0.84934 0.98159 0.43795 0.0
H844 H 0.99861 0.06079 0.41895 0.0
H845 H 0.93651 0.89998 0.42297 0.0
H846 H 0.90803 0.92163 0.41782 0.0
H847 H 0.9167 0.9198 0.43341 0.0
C848 C 0.88269 0.01323 0.40993 0.0
C849 C 0.85792 1.00321 0.41986 0.0
C850 C 0.91699 0.01083 0.41041 0.0
C851 C 0.92698 0.99792 0.42077 0.0
C852 C 0.90172 0.98673 0.43057 0.0
H853 H 0.11483 0.97359 0.44959 0.0
H854 H 0.05724 0.97952 0.44542 0.0
C855 C 0.86753 0.98928 0.43012 0.0
C856 C 0.96486 0.9983 0.42164 0.0
H857 H 1.00432 0.94 0.42757 0.0
C858 C 0.99996 0.03434 0.4207 0.0
C859 C 0.96653 0.96379 0.42391 0.0
C860 C 0.92996 0.92403 0.42448 0.0
C861 C 0.03662 0.03701 0.42247 0.0
C862 C 0.03821 1.00259 0.42506 0.0
C863 C 1.00312 0.96643 0.42566 0.0
C864 C 0.07559 1.00332 0.42778 0.0
C865 C 0.07319 0.07678 0.42204 0.0
C866 C 0.10573 0.01564 0.41935 0.0
C867 C 0.13914 0.01258 0.42177 0.0
C868 C 0.14263 0.99671 0.4326 0.0
C869 C 0.11303 0.9858 0.44114 0.0
C870 C 0.07996 0.98906 0.43876 0.0
H871 H 0.06641 0.10098 0.42259 0.0
H872 H 0.09344 0.08005 0.42939 0.0
H873 H 0.08861 0.0799 0.41355 0.0
H874 H 0.10276 0.02619 0.41075 0.0
H875 H 0.16122 0.02084 0.41496 0.0
H876 H 0.14195 0.14905 0.75202 0.0
H877 H 0.07488 0.09429 0.74892 0.0
H878 H 0.09076 0.0304 0.77751 0.0
H879 H 0.15694 0.08452 0.78073 0.0
H880 H 0.05152 0.01463 0.74348 0.0
H881 H 0.98722 0.02503 0.78599 0.0
H882 H 0.03281 0.06453 0.78034 0.0
H883 H 0.03173 0.02343 0.78776 0.0
C884 C 0.13092 0.12351 0.75772 0.0
C885 C 0.15481 0.1213 0.76665 0.0
C886 C 0.09269 0.0922 0.75591 0.0
C887 C 0.07762 0.05844 0.76308 0.0
C888 C 0.10141 0.05638 0.77201 0.0
H889 H 0.86137 0.83484 0.76933 0.0
H890 H 0.92914 0.88907 0.77067 0.0
C891 C 0.13943 0.08741 0.77379 0.0
C892 C 0.03762 0.02455 0.7611 0.0
H893 H 0.95023 0.96629 0.77493 0.0
C894 C 0.02921 0.00424 0.7503 0.0
C895 C 0.00863 0.01084 0.77004 0.0
C896 C 0.01533 0.03227 0.78164 0.0
C897 C 0.99296 0.97002 0.74833 0.0
C898 C 0.9641 0.95611 0.75733 0.0
C899 C 0.97244 0.97668 0.76808 0.0
C900 C 0.92451 0.92112 0.75569 0.0
C901 C 0.98631 0.94851 0.73676 0.0
C902 C 0.89951 0.92075 0.74673 0.0
C903 C 0.86091 0.88977 0.74591 0.0
C904 C 0.84624 0.85853 0.7541 0.0
C905 C 0.87173 0.85824 0.76283 0.0
C906 C 0.91043 0.88935 0.76365 0.0
H907 H 0.01443 0.95595 0.73239 0.0
H908 H 0.96909 0.91625 0.73809 0.0
H909 H 0.96967 0.95708 0.73065 0.0
H910 H 0.90934 0.94521 0.74064 0.0
H911 H 0.84213 0.89111 0.7391 0.0
H912 H 0.84393 0.91783 0.627 0.0
H913 H 0.912 0.93308 0.62779 0.0
H914 H 0.94771 0.04248 0.6096 0.0
H915 H 0.87939 0.0277 0.609 0.0
H916 H 0.9562 0.9411 0.60881 0.0
H917 H 0.02957 0.07715 0.6355 0.0
H918 H 0.97695 0.04632 0.63498 0.0
H919 H 1.00241 0.08062 0.6232 0.0
C920 C 0.86632 0.94552 0.62335 0.0
C921 C 0.85625 0.97156 0.61792 0.0
C922 C 0.90526 0.95416 0.6238 0.0
C923 C 0.93509 0.98901 0.61883 0.0
C924 C 0.92534 0.01576 0.61373 0.0
H925 H 0.1722 0.07824 0.59721 0.0
H926 H 0.10558 0.06342 0.60137 0.0
C927 C 0.88626 0.00725 0.61335 0.0
C928 C 0.97562 0.99552 0.6181 0.0
H929 H 0.07138 0.06076 0.62457 0.0
C930 C 0.98132 0.96704 0.6124 0.0
C931 C 0.00841 0.02932 0.62279 0.0
C932 C 1.00408 0.05992 0.62957 0.0
C933 C 0.01895 0.97206 0.61091 0.0
C934 C 0.05175 0.0063 0.61532 0.0
C935 C 0.0461 0.03448 0.62121 0.0
C936 C 0.09235 0.0148 0.61311 0.0
C937 C 0.02356 0.94144 0.60423 0.0
C938 C 0.10712 0.99233 0.61837 0.0
C939 C 0.14554 1.00079 0.61602 0.0
C940 C 0.16963 0.03175 0.60834 0.0
C941 C 0.15452 0.05405 0.60313 0.0
C942 C 0.11642 0.04577 0.60553 0.0
H943 H 0.99588 0.91963 0.59985 0.0
H944 H 0.04675 0.95551 0.59739 0.0
H945 H 0.03264 0.9256 0.6105 0.0
H946 H 0.08902 0.96846 0.62433 0.0
H947 H 0.15635 0.98319 0.62022 0.0
H948 H 0.8717 0.86846 0.95955 0.0
H949 H 0.92792 0.93369 0.96374 0.0
H950 H 0.97007 0.93985 0.92811 0.0
H951 H 0.91514 0.87471 0.92405 0.0
H952 H 0.02801 0.96093 0.94378 0.0
H953 H 0.94743 0.04012 0.95356 0.0
H954 H 0.93467 0.99809 0.96276 0.0
H955 H 0.92371 0.99169 0.94717 0.0
C956 C 0.89274 0.88405 0.95259 0.0
C957 C 0.88896 0.86648 0.94146 0.0
C958 C 0.92484 0.92134 0.95498 0.0
C959 C 0.95321 0.94191 0.94622 0.0
C960 C 0.9488 0.92458 0.93505 0.0
H961 H 0.1119 0.18091 0.93337 0.0
H962 H 0.05876 0.11392 0.93576 0.0
C963 C 0.91721 0.88734 0.93272 0.0
C964 C 0.98811 0.9811 0.94851 0.0
H965 H 0.01617 0.07649 0.95469 0.0
C966 C 0.02547 0.98619 0.94626 0.0
C967 C 0.9848 0.01404 0.95175 0.0
C968 C 0.94553 0.01097 0.95386 0.0
C969 C 0.05933 0.02344 0.94658 0.0
C970 C 0.05593 0.05651 0.94959 0.0
C971 C 0.01879 0.05113 0.95241 0.0
C972 C 0.08935 0.09736 0.94845 0.0
C973 C 0.09799 0.02725 0.94303 0.0
C974 C 0.12467 0.11066 0.95476 0.0
C975 C 0.15575 0.14926 0.95325 0.0
C976 C 0.15162 0.17527 0.94559 0.0
C977 C 0.11612 0.1618 0.9394 0.0
C978 C 0.08552 0.12341 0.94078 0.0
H979 H 0.0941 1.00042 0.93855 0.0
H980 H 0.11429 0.05264 0.93698 0.0
H981 H 0.11616 0.03208 0.95107 0.0
H982 H 0.12812 0.09137 0.9609 0.0
H983 H 0.18261 0.15889 0.95821 0.0
H984 H 0.01374 0.86829 0.30067 0.0
H985 H 0.0091 0.92789 0.29935 0.0
H986 H 0.97984 0.90568 0.26224 0.0
H987 H 0.98326 0.84546 0.26358 0.0
H988 H 0.05501 0.99102 0.28646 0.0
H989 H 0.9015 0.93619 0.2725 0.0
H990 H 0.91826 0.90398 0.27806 0.0
H991 H 0.92641 0.91982 0.26282 0.0
C992 C 1.00536 0.87555 0.29229 0.0
C993 C 0.99884 0.852 0.28223 0.0
C994 C 1.00289 0.90979 0.29154 0.0
C995 C 0.99387 0.92131 0.28072 0.0
C996 C 0.98599 0.89711 0.27076 0.0
H997 H 0.01371 0.13416 0.25198 0.0
H998 H 0.01235 0.07219 0.25567 0.0
C999 C 0.98809 0.86264 0.27153 0.0
C1000 C 0.99597 0.96012 0.27964 0.0
H1001 H 0.94577 0.00511 0.26991 0.0
C1002 C 0.03091 0.99399 0.28298 0.0
C1003 C 0.96457 0.96417 0.27509 0.0
C1004 C 0.92545 0.92906 0.27203 0.0
C1005 C 0.03562 0.03166 0.28159 0.0
C1006 C 1.00466 0.03563 0.27674 0.0
C1007 C 0.96957 1.00191 0.27355 0.0
C1008 C 0.00836 0.07465 0.27472 0.0
C1009 C 0.07396 0.06712 0.28503 0.0
C1010 C 0.00717 0.09687 0.28424 0.0
C1011 C 0.0078 0.13236 0.28218 0.0
C1012 C 0.00979 0.14631 0.27053 0.0
C1013 C 0.01236 0.12451 0.26106 0.0
C1014 C 0.01139 0.08894 0.26314 0.0
H1015 H 0.09672 0.05938 0.28736 0.0
H1016 H 0.08497 0.08877 0.27765 0.0
H1017 H 0.06929 0.08151 0.2928 0.0
H1018 H 1.00464 0.08621 0.29325 0.0
H1019 H 1.00557 0.14824 0.28967 0.0
loop_
_geom_bond_atom_site_label_1
_geom_bond_atom_site_label_2
_geom_bond_distance
_geom_bond_site_symmetry_2
_ccdc_geom_bond_type
Mg0 O7 2.141 . S
Mg0 O8 2.048 . S
Mg0 O9 2.048 . S
Mg0 O12 2.141 . S
C1 O2 1.313 . S
C1 O8 1.195 . S
O2 C1 1.313 . S
C3 O4 1.245 . S
C3 O12 1.289 . S
O4 C3 1.245 . S
C5 O6 1.245 . S
C5 O7 1.289 . S
O6 C5 1.245 . S
O7 Mg0 2.141 . S
O7 C5 1.289 . S
O8 Mg0 2.048 . S
O8 C1 1.195 . S
O9 Mg0 2.048 . S
O9 C10 1.195 . S
C10 O9 1.195 . S
C10 O11 1.313 . S
O11 C10 1.313 . S
O12 Mg0 2.141 . S
O12 C3 1.289 . S
Mg13 O20 2.141 . S
Mg13 O21 2.048 . S
Mg13 O22 2.048 . S
Mg13 O25 2.141 . S
C14 O15 1.313 . S
C14 O21 1.195 . S
O15 C14 1.313 . S
C16 O17 1.245 . S
C16 O25 1.289 . S
O17 C16 1.245 . S
C18 O19 1.245 . S
C18 O20 1.289 . S
O19 C18 1.245 . S
O20 Mg13 2.141 . S
O20 C18 1.289 . S
O21 Mg13 2.048 . S
O21 C14 1.195 . S
O22 Mg13 2.048 . S
O22 C23 1.195 . S
C23 O22 1.195 . S
C23 O24 1.313 . S
O24 C23 1.313 . S
O25 Mg13 2.141 . S
O25 C16 1.289 . S
Mg26 O33 2.141 . S
Mg26 O34 2.048 . S
Mg26 O35 2.048 . S
Mg26 O38 2.141 . S
C27 O28 1.313 . S
C27 O34 1.195 . S
O28 C27 1.313 . S
C29 O30 1.245 . S
C29 O38 1.289 . S
O30 C29 1.245 . S
C31 O32 1.245 . S
C31 O33 1.289 . S
O32 C31 1.245 . S
O33 Mg26 2.141 . S
O33 C31 1.289 . S
O34 Mg26 2.048 . S
O34 C27 1.195 . S
O35 Mg26 2.048 . S
O35 C36 1.195 . S
C36 O35 1.195 . S
C36 O37 1.313 . S
O37 C36 1.313 . S
O38 Mg26 2.141 . S
O38 C29 1.289 . S
Mg39 O46 2.141 . S
Mg39 O47 2.048 . S
Mg39 O48 2.048 . S
Mg39 O51 2.141 . S
C40 O41 1.313 . S
C40 O47 1.195 . S
O41 C40 1.313 . S
C42 O43 1.245 . S
C42 O51 1.289 . S
O43 C42 1.245 . S
C44 O45 1.245 . S
C44 O46 1.289 . S
O45 C44 1.245 . S
O46 Mg39 2.141 . S
O46 C44 1.289 . S
O47 Mg39 2.048 . S
O47 C40 1.195 . S
O48 Mg39 2.048 . S
O48 C49 1.195 . S
C49 O48 1.195 . S
C49 O50 1.313 . S
O50 C49 1.313 . S
O51 Mg39 2.141 . S
O51 C42 1.289 . S
Mg52 O59 2.141 . S
Mg52 O60 2.048 . S
Mg52 O61 2.048 . S
Mg52 O64 2.141 . S
C53 O54 1.313 . S
C53 O60 1.195 . S
O54 C53 1.313 . S
C55 O56 1.245 . S
C55 O64 1.289 . S
O56 C55 1.245 . S
C57 O58 1.245 . S
C57 O59 1.289 . S
O58 C57 1.245 . S
O59 Mg52 2.141 . S
O59 C57 1.289 . S
O60 Mg52 2.048 . S
O60 C53 1.195 . S
O61 Mg52 2.048 . S
O61 C62 1.195 . S
C62 O61 1.195 . S
C62 O63 1.313 . S
O63 C62 1.313 . S
O64 Mg52 2.141 . S
O64 C55 1.289 . S
Mg65 O72 2.141 . S
Mg65 O73 2.048 . S
Mg65 O74 2.048 . S
Mg65 O77 2.141 . S
C66 O67 1.313 . S
C66 O73 1.195 . S
O67 C66 1.313 . S
C68 O69 1.245 . S
C68 O77 1.289 . S
O69 C68 1.245 . S
C70 O71 1.245 . S
C70 O72 1.289 . S
O71 C70 1.245 . S
O72 Mg65 2.141 . S
O72 C70 1.289 . S
O73 Mg65 2.048 . S
O73 C66 1.195 . S
O74 Mg65 2.048 . S
O74 C75 1.195 . S
C75 O74 1.195 . S
C75 O76 1.313 . S
O76 C75 1.313 . S
O77 Mg65 2.141 . S
O77 C68 1.289 . S
Mg78 O85 2.141 . S
Mg78 O86 2.048 . S
Mg78 O87 2.048 . S
Mg78 O90 2.141 . S
C79 O80 1.313 . S
C79 O86 1.195 . S
O80 C79 1.313 . S
C81 O82 1.245 . S
C81 O90 1.289 . S
O82 C81 1.245 . S
C83 O84 1.245 . S
C83 O85 1.289 . S
O84 C83 1.245 . S
O85 Mg78 2.141 . S
O85 C83 1.289 . S
O86 Mg78 2.048 . S
O86 C79 1.195 . S
O87 Mg78 2.048 . S
O87 C88 1.195 . S
C88 O87 1.195 . S
C88 O89 1.313 . S
O89 C88 1.313 . S
O90 Mg78 2.141 . S
O90 C81 1.289 . S
Mg91 O98 2.141 . S
Mg91 O99 2.048 . S
Mg91 O100 2.048 . S
Mg91 O103 2.141 . S
C92 O93 1.313 . S
C92 O99 1.195 . S
O93 C92 1.313 . S
C94 O95 1.245 . S
C94 O103 1.289 . S
O95 C94 1.245 . S
C96 O97 1.245 . S
C96 O98 1.289 . S
O97 C96 1.245 . S
O98 Mg91 2.141 . S
O98 C96 1.289 . S
O99 Mg91 2.048 . S
O99 C92 1.195 . S
O100 Mg91 2.048 . S
O100 C101 1.195 . S
C101 O100 1.195 . S
C101 O102 1.313 . S
O102 C101 1.313 . S
O103 Mg91 2.141 . S
O103 C94 1.289 . S
Mg104 O111 2.141 . S
Mg104 O112 2.048 . S
Mg104 O113 2.048 . S
Mg104 O116 2.141 . S
C105 O106 1.313 . S
C105 O112 1.195 . S
O106 C105 1.313 . S
C107 O108 1.245 . S
C107 O116 1.289 . S
O108 C107 1.245 . S
C109 O110 1.245 . S
C109 O111 1.289 . S
O110 C109 1.245 . S
O111 Mg104 2.141 . S
O111 C109 1.289 . S
O112 Mg104 2.048 . S
O112 C105 1.195 . S
O113 Mg104 2.048 . S
O113 C114 1.195 . S
C114 O113 1.195 . S
C114 O115 1.313 . S
O115 C114 1.313 . S
O116 Mg104 2.141 . S
O116 C107 1.289 . S
Mg117 O124 2.141 . S
Mg117 O125 2.048 . S
Mg117 O126 2.048 . S
Mg117 O129 2.141 . S
C118 O119 1.313 . S
C118 O125 1.195 . S
O119 C118 1.313 . S
C120 O121 1.245 . S
C120 O129 1.289 . S
O121 C120 1.245 . S
C122 O123 1.245 . S
C122 O124 1.289 . S
O123 C122 1.245 . S
O124 Mg117 2.141 . S
O124 C122 1.289 . S
O125 Mg117 2.048 . S
O125 C118 1.195 . S
O126 Mg117 2.048 . S
O126 C127 1.195 . S
C127 O126 1.195 . S
C127 O128 1.313 . S
O128 C127 1.313 . S
O129 Mg117 2.141 . S
O129 C120 1.289 . S
Mg130 O137 2.141 . S
Mg130 O138 2.048 . S
Mg130 O139 2.048 . S
Mg130 O142 2.141 . S
C131 O132 1.313 . S
C131 O138 1.195 . S
O132 C131 1.313 . S
C133 O134 1.245 . S
C133 O142 1.289 . S
O134 C133 1.245 . S
C135 O136 1.245 . S
C135 O137 1.289 . S
O136 C135 1.245 . S
O137 Mg130 2.141 . S
O137 C135 1.289 . S
O138 Mg130 2.048 . S
O138 C131 1.195 . S
O139 Mg130 2.048 . S
O139 C140 1.195 . S
C140 O139 1.195 . S
C140 O141 1.313 . S
O141 C140 1.313 . S
O142 Mg130 2.141 . S
O142 C133 1.289 . S
Mg143 O150 2.141 . S
Mg143 O151 2.048 . S
Mg143 O152 2.048 . S
Mg143 O155 2.141 . S
C144 O145 1.313 . S
C144 O151 1.195 . S
O145 C144 1.313 . S
C146 O147 1.245 . S
C146 O155 1.289 . S
O147 C146 1.245 . S
C148 O149 1.245 . S
C148 O150 1.289 . S
O149 C148 1.245 . S
O150 Mg143 2.141 . S
O150 C148 1.289 . S
O151 Mg143 2.048 . S
O151 C144 1.195 . S
O152 Mg143 2.048 . S
O152 C153 1.195 . S
C153 O152 1.195 . S
C153 O154 1.313 . S
O154 C153 1.313 . S
O155 Mg143 2.141 . S
O155 C146 1.289 . S
H156 C164 0.929 . S
H157 C166 0.930 . S
H158 C168 0.930 . S
H159 C171 0.929 . S
H160 C174 0.930 . S
H161 C176 0.960 . S
H162 C176 0.960 . S
H163 C176 0.960 . S
C164 H156 0.929 . S
C164 C165 1.377 1_455 S
C164 C166 1.384 . S
C165 C164 1.377 1_655 S
C165 C171 1.390 . S
C166 H157 0.930 . S
C166 C164 1.384 . S
C166 C167 1.372 1_455 S
C167 C166 1.372 1_655 S
C167 C168 1.400 . S
C167 C172 1.490 . S
C168 H158 0.930 . S
C168 C167 1.400 . S
C168 C171 1.386 . S
H169 C185 0.930 1_655 S
H170 C186 0.931 . S
C171 H159 0.929 . S
C171 C165 1.390 . S
C171 C168 1.386 . S
C172 C167 1.490 . S
C172 C174 1.395 1_655 S
C172 C175 1.403 . S
H173 C179 0.930 . S
C174 H160 0.930 . S
C174 C172 1.395 1_455 S
C174 C177 1.403 . S
C175 C172 1.403 . S
C175 C176 1.524 . S
C175 C179 1.400 . S
C176 H161 0.960 . S
C176 H162 0.960 . S
C176 H163 0.960 . S
C176 C175 1.524 . S
C177 C174 1.403 . S
C177 C178 1.392 . S
C177 C181 1.495 . S
C178 C177 1.392 . S
C178 C179 1.385 1_455 S
C178 C180 1.478 . S
C179 H173 0.930 . S
C179 C175 1.400 . S
C179 C178 1.385 1_655 S
C180 C178 1.478 . S
C180 C182 1.381 . S
C180 C186 1.383 1_455 S
C181 C177 1.495 . S
C181 H187 0.959 . S
C181 H188 0.961 . S
C181 H189 0.960 . S
C182 C180 1.381 . S
C182 C183 1.394 . S
C182 H190 0.930 . S
C183 C182 1.394 . S
C183 C184 1.383 . S
C183 H191 0.929 . S
C184 C183 1.383 . S
C184 C185 1.377 . S
C185 H169 0.930 1_455 S
C185 C184 1.377 . S
C185 C186 1.379 1_455 S
C186 H170 0.931 . S
C186 C180 1.383 1_655 S
C186 C185 1.379 1_655 S
H187 C181 0.959 . S
H188 C181 0.961 . S
H189 C181 0.960 . S
H190 C182 0.930 . S
H191 C183 0.929 . S
H192 C200 0.929 . S
H193 C202 0.930 . S
H194 C204 0.930 . S
H195 C207 0.929 . S
H196 C210 0.930 . S
H197 C212 0.960 . S
H198 C212 0.960 . S
H199 C212 0.960 . S
C200 H192 0.929 . S
C200 C201 1.377 . S
C200 C202 1.384 . S
C201 C200 1.377 . S
C201 C207 1.390 . S
C202 H193 0.930 . S
C202 C200 1.384 . S
C202 C203 1.372 . S
C203 C202 1.372 . S
C203 C204 1.400 . S
C203 C208 1.490 . S
C204 H194 0.930 . S
C204 C203 1.400 . S
C204 C207 1.386 . S
H205 C221 0.930 . S
H206 C222 0.931 . S
C207 H195 0.929 . S
C207 C201 1.390 . S
C207 C204 1.386 . S
C208 C203 1.490 . S
C208 C210 1.395 . S
C208 C211 1.403 1_545 S
H209 C215 0.930 . S
C210 H196 0.930 . S
C210 C208 1.395 . S
C210 C213 1.403 . S
C211 C208 1.403 1_565 S
C211 C212 1.524 . S
C211 C215 1.400 . S
C212 H197 0.960 . S
C212 H198 0.960 . S
C212 H199 0.960 . S
C212 C211 1.524 . S
C213 C210 1.403 . S
C213 C214 1.392 1_545 S
C213 C217 1.495 . S
C214 C213 1.392 1_565 S
C214 C215 1.385 . S
C214 C216 1.478 . S
C215 H209 0.930 . S
C215 C211 1.400 . S
C215 C214 1.385 . S
C216 C214 1.478 . S
C216 C218 1.381 . S
C216 C222 1.383 . S
C217 C213 1.495 . S
C217 H223 0.959 . S
C217 H224 0.961 . S
C217 H225 0.960 . S
C218 C216 1.381 . S
C218 C219 1.394 . S
C218 H226 0.930 . S
C219 C218 1.394 . S
C219 C220 1.383 . S
C219 H227 0.929 . S
C220 C219 1.383 . S
C220 C221 1.377 . S
C221 H205 0.930 . S
C221 C220 1.377 . S
C221 C222 1.379 . S
C222 H206 0.931 . S
C222 C216 1.383 . S
C222 C221 1.379 . S
H223 C217 0.959 . S
H224 C217 0.961 . S
H225 C217 0.960 . S
H226 C218 0.930 . S
H227 C219 0.929 . S
H228 C236 0.929 . S
H229 C238 0.930 . S
H230 C240 0.930 . S
H231 C243 0.929 . S
H232 C246 0.930 . S
H233 C248 0.960 . S
H234 C248 0.960 . S
H235 C248 0.960 . S
C236 H228 0.929 . S
C236 C237 1.377 . S
C236 C238 1.384 . S
C237 C236 1.377 . S
C237 C243 1.390 . S
C238 H229 0.930 . S
C238 C236 1.384 . S
C238 C239 1.372 . S
C239 C238 1.372 . S
C239 C240 1.400 . S
C239 C244 1.490 . S
C240 H230 0.930 . S
C240 C239 1.400 . S
C240 C243 1.386 . S
H241 C257 0.930 . S
H242 C258 0.931 . S
C243 H231 0.929 . S
C243 C237 1.390 . S
C243 C240 1.386 . S
C244 C239 1.490 . S
C244 C246 1.395 . S
C244 C247 1.403 . S
H245 C251 0.930 . S
C246 H232 0.930 . S
C246 C244 1.395 . S
C246 C249 1.403 . S
C247 C244 1.403 . S
C247 C248 1.524 . S
C247 C251 1.400 . S
C248 H233 0.960 . S
C248 H234 0.960 . S
C248 H235 0.960 . S
C248 C247 1.524 . S
C249 C246 1.403 . S
C249 C250 1.392 . S
C249 C253 1.495 . S
C250 C249 1.392 . S
C250 C251 1.385 . S
C250 C252 1.478 . S
C251 H245 0.930 . S
C251 C247 1.400 . S
C251 C250 1.385 . S
C252 C250 1.478 . S
C252 C254 1.381 . S
C252 C258 1.383 . S
C253 C249 1.495 . S
C253 H259 0.959 . S
C253 H260 0.961 . S
C253 H261 0.960 . S
C254 C252 1.381 . S
C254 C255 1.394 . S
C254 H262 0.930 . S
C255 C254 1.394 . S
C255 C256 1.383 . S
C255 H263 0.929 . S
C256 C255 1.383 . S
C256 C257 1.377 . S
C257 H241 0.930 . S
C257 C256 1.377 . S
C257 C258 1.379 . S
C258 H242 0.931 . S
C258 C252 1.383 . S
C258 C257 1.379 . S
H259 C253 0.959 . S
H260 C253 0.961 . S
H261 C253 0.960 . S
H262 C254 0.930 . S
H263 C255 0.929 . S
H264 C272 0.929 . S
H265 C274 0.930 . S
H266 C276 0.930 . S
H267 C279 0.929 . S
H268 C282 0.930 . S
H269 C284 0.960 . S
H270 C284 0.960 . S
H271 C284 0.960 . S
C272 H264 0.929 . S
C272 C273 1.377 . S
C272 C274 1.384 . S
C273 C272 1.377 . S
C273 C279 1.390 . S
C274 H265 0.930 . S
C274 C272 1.384 . S
C274 C275 1.372 . S
C275 C274 1.372 . S
C275 C276 1.400 . S
C275 C280 1.490 . S
C276 H266 0.930 . S
C276 C275 1.400 . S
C276 C279 1.386 . S
H277 C293 0.930 . S
H278 C294 0.931 . S
C279 H267 0.929 . S
C279 C273 1.390 . S
C279 C276 1.386 . S
C280 C275 1.490 . S
C280 C282 1.395 1_655 S
C280 C283 1.403 . S
H281 C287 0.930 . S
C282 H268 0.930 . S
C282 C280 1.395 1_455 S
C282 C285 1.403 . S
C283 C280 1.403 . S
C283 C284 1.524 . S
C283 C287 1.400 . S
C284 H269 0.960 . S
C284 H270 0.960 . S
C284 H271 0.960 . S
C284 C283 1.524 . S
C285 C282 1.403 . S
C285 C286 1.392 . S
C285 C289 1.495 . S
C286 C285 1.392 . S
C286 C287 1.385 1_455 S
C286 C288 1.478 . S
C287 H281 0.930 . S
C287 C283 1.400 . S
C287 C286 1.385 1_655 S
C288 C286 1.478 . S
C288 C290 1.381 . S
C288 C294 1.383 . S
C289 C285 1.495 . S
C289 H295 0.959 . S
C289 H296 0.961 . S
C289 H297 0.960 . S
C290 C288 1.381 . S
C290 C291 1.394 . S
C290 H298 0.930 . S
C291 C290 1.394 . S
C291 C292 1.383 . S
C291 H299 0.929 . S
C292 C291 1.383 . S
C292 C293 1.377 . S
C293 H277 0.930 . S
C293 C292 1.377 . S
C293 C294 1.379 . S
C294 H278 0.931 . S
C294 C288 1.383 . S
C294 C293 1.379 . S
H295 C289 0.959 . S
H296 C289 0.961 . S
H297 C289 0.960 . S
H298 C290 0.930 . S
H299 C291 0.929 . S
H300 C308 0.929 1_565 S
H301 C310 0.930 . S
H302 C312 0.930 . S
H303 C315 0.929 . S
H304 C318 0.930 . S
H305 C320 0.960 . S
H306 C320 0.960 . S
H307 C320 0.960 . S
C308 H300 0.929 1_545 S
C308 C309 1.377 . S
C308 C310 1.384 1_545 S
C309 C308 1.377 . S
C309 C315 1.390 . S
C310 H301 0.930 . S
C310 C308 1.384 1_565 S
C310 C311 1.372 1_565 S
C311 C310 1.372 1_545 S
C311 C312 1.400 . S
C311 C316 1.490 . S
C312 H302 0.930 . S
C312 C311 1.400 . S
C312 C315 1.386 . S
H313 C329 0.930 . S
H314 C330 0.931 1_545 S
C315 H303 0.929 . S
C315 C309 1.390 . S
C315 C312 1.386 . S
C316 C311 1.490 . S
C316 C318 1.395 1_545 S
C316 C319 1.403 . S
H317 C323 0.930 . S
C318 H304 0.930 . S
C318 C316 1.395 1_565 S
C318 C321 1.403 . S
C319 C316 1.403 . S
C319 C320 1.524 . S
C319 C323 1.400 . S
C320 H305 0.960 . S
C320 H306 0.960 . S
C320 H307 0.960 . S
C320 C319 1.524 . S
C321 C318 1.403 . S
C321 C322 1.392 . S
C321 C325 1.495 . S
C322 C321 1.392 . S
C322 C323 1.385 1_565 S
C322 C324 1.478 . S
C323 H317 0.930 . S
C323 C319 1.400 . S
C323 C322 1.385 1_545 S
C324 C322 1.478 . S
C324 C326 1.381 . S
C324 C330 1.383 . S
C325 C321 1.495 . S
C325 H331 0.959 . S
C325 H332 0.961 . S
C325 H333 0.960 . S
C326 C324 1.381 . S
C326 C327 1.394 . S
C326 H334 0.930 . S
C327 C326 1.394 . S
C327 C328 1.383 . S
C327 H335 0.929 . S
C328 C327 1.383 . S
C328 C329 1.377 . S
C329 H313 0.930 . S
C329 C328 1.377 . S
C329 C330 1.379 . S
C330 H314 0.931 1_565 S
C330 C324 1.383 . S
C330 C329 1.379 . S
H331 C325 0.959 . S
H332 C325 0.961 . S
H333 C325 0.960 . S
H334 C326 0.930 . S
H335 C327 0.929 . S
H336 C344 0.929 . S
H337 C346 0.930 . S
H338 C348 0.930 . S
H339 C351 0.929 . S
H340 C354 0.930 . S
H341 C356 0.960 . S
H342 C356 0.960 . S
H343 C356 0.960 . S
C344 H336 0.929 . S
C344 C345 1.377 . S
C344 C346 1.384 . S
C345 C344 1.377 . S
C345 C351 1.390 . S
C346 H337 0.930 . S
C346 C344 1.384 . S
C346 C347 1.372 . S
C347 C346 1.372 . S
C347 C348 1.400 . S
C347 C352 1.490 . S
C348 H338 0.930 . S
C348 C347 1.400 . S
C348 C351 1.386 . S
H349 C365 0.930 . S
H350 C366 0.931 . S
C351 H339 0.929 . S
C351 C345 1.390 . S
C351 C348 1.386 . S
C352 C347 1.490 . S
C352 C354 1.395 . S
C352 C355 1.403 . S
H353 C359 0.930 . S
C354 H340 0.930 . S
C354 C352 1.395 . S
C354 C357 1.403 . S
C355 C352 1.403 . S
C355 C356 1.524 . S
C355 C359 1.400 . S
C356 H341 0.960 . S
C356 H342 0.960 . S
C356 H343 0.960 . S
C356 C355 1.524 . S
C357 C354 1.403 . S
C357 C358 1.392 . S
C357 C361 1.495 . S
C358 C357 1.392 . S
C358 C359 1.385 . S
C358 C360 1.478 . S
C359 H353 0.930 . S
C359 C355 1.400 . S
C359 C358 1.385 . S
C360 C358 1.478 . S
C360 C362 1.381 . S
C360 C366 1.383 . S
C361 C357 1.495 . S
C361 H367 0.959 . S
C361 H368 0.961 . S
C361 H369 0.960 . S
C362 C360 1.381 . S
C362 C363 1.394 . S
C362 H370 0.930 . S
C363 C362 1.394 . S
C363 C364 1.383 . S
C363 H371 0.929 . S
C364 C363 1.383 . S
C364 C365 1.377 . S
C365 H349 0.930 . S
C365 C364 1.377 . S
C365 C366 1.379 . S
C366 H350 0.931 . S
C366 C360 1.383 . S
C366 C365 1.379 . S
H367 C361 0.959 . S
H368 C361 0.961 . S
H369 C361 0.960 . S
H370 C362 0.930 . S
H371 C363 0.929 . S
H372 C380 0.929 . S
H373 C382 0.930 . S
H374 C384 0.930 . S
H375 C387 0.929 . S
H376 C390 0.930 . S
H377 C392 0.960 . S
H378 C392 0.960 . S
H379 C392 0.960 . S
C380 H372 0.929 . S
C380 C381 1.377 . S
C380 C382 1.384 . S
C381 C380 1.377 . S
C381 C387 1.390 . S
C382 H373 0.930 . S
C382 C380 1.384 . S
C382 C383 1.372 . S
C383 C382 1.372 . S
C383 C384 1.400 . S
C383 C388 1.490 . S
C384 H374 0.930 . S
C384 C383 1.400 . S
C384 C387 1.386 . S
H385 C401 0.930 . S
H386 C402 0.931 . S
C387 H375 0.929 . S
C387 C381 1.390 . S
C387 C384 1.386 . S
C388 C383 1.490 . S
C388 C390 1.395 . S
C388 C391 1.403 . S
H389 C395 0.930 . S
C390 H376 0.930 . S
C390 C388 1.395 . S
C390 C393 1.403 1_554 S
C391 C388 1.403 . S
C391 C392 1.524 . S
C391 C395 1.400 1_554 S
C392 H377 0.960 . S
C392 H378 0.960 . S
C392 H379 0.960 . S
C392 C391 1.524 . S
C393 C390 1.403 1_556 S
C393 C394 1.392 . S
C393 C397 1.495 . S
C394 C393 1.392 . S
C394 C395 1.385 . S
C394 C396 1.478 . S
C395 H389 0.930 . S
C395 C391 1.400 1_556 S
C395 C394 1.385 . S
C396 C394 1.478 . S
C396 C398 1.381 . S
C396 C402 1.383 . S
C397 C393 1.495 . S
C397 H403 0.959 . S
C397 H404 0.961 . S
C397 H405 0.960 . S
C398 C396 1.381 . S
C398 C399 1.394 . S
C398 H406 0.930 . S
C399 C398 1.394 . S
C399 C400 1.383 . S
C399 H407 0.929 . S
C400 C399 1.383 . S
C400 C401 1.377 . S
C401 H385 0.930 . S
C401 C400 1.377 . S
C401 C402 1.379 . S
C402 H386 0.931 . S
C402 C396 1.383 . S
C402 C401 1.379 . S
H403 C397 0.959 . S
H404 C397 0.961 . S
H405 C397 0.960 . S
H406 C398 0.930 . S
H407 C399 0.929 . S
H408 C416 0.929 . S
H409 C418 0.930 . S
H410 C420 0.930 . S
H411 C423 0.929 . S
H412 C426 0.930 . S
H413 C428 0.960 . S
H414 C428 0.960 . S
H415 C428 0.960 . S
C416 H408 0.929 . S
C416 C417 1.377 . S
C416 C418 1.384 . S
C417 C416 1.377 . S
C417 C423 1.390 . S
C418 H409 0.930 . S
C418 C416 1.384 . S
C418 C419 1.372 . S
C419 C418 1.372 . S
C419 C420 1.400 . S
C419 C424 1.490 . S
C420 H410 0.930 . S
C420 C419 1.400 . S
C420 C423 1.386 . S
H421 C437 0.930 . S
H422 C438 0.931 . S
C423 H411 0.929 . S
C423 C417 1.390 . S
C423 C420 1.386 . S
C424 C419 1.490 . S
C424 C426 1.395 . S
C424 C427 1.403 . S
H425 C431 0.930 . S
C426 H412 0.930 . S
C426 C424 1.395 . S
C426 C429 1.403 . S
C427 C424 1.403 . S
C427 C428 1.524 . S
C427 C431 1.400 . S
C428 H413 0.960 . S
C428 H414 0.960 . S
C428 H415 0.960 . S
C428 C427 1.524 . S
C429 C426 1.403 . S
C429 C430 1.392 . S
C429 C433 1.495 . S
C430 C429 1.392 . S
C430 C431 1.385 . S
C430 C432 1.478 . S
C431 H425 0.930 . S
C431 C427 1.400 . S
C431 C430 1.385 . S
C432 C430 1.478 . S
C432 C434 1.381 . S
C432 C438 1.383 . S
C433 C429 1.495 . S
C433 H439 0.959 . S
C433 H440 0.961 . S
C433 H441 0.960 . S
C434 C432 1.381 . S
C434 C435 1.394 . S
C434 H442 0.930 . S
C435 C434 1.394 . S
C435 C436 1.383 . S
C435 H443 0.929 . S
C436 C435 1.383 . S
C436 C437 1.377 . S
C437 H421 0.930 . S
C437 C436 1.377 . S
C437 C438 1.379 . S
C438 H422 0.931 . S
C438 C432 1.383 . S
C438 C437 1.379 . S
H439 C433 0.959 . S
H440 C433 0.961 . S
H441 C433 0.960 . S
H442 C434 0.930 . S
H443 C435 0.929 . S
H444 C452 0.929 . S
H445 C454 0.930 . S
H446 C456 0.930 . S
H447 C459 0.929 . S
H448 C462 0.930 . S
H449 C464 0.960 . S
H450 C464 0.960 . S
H451 C464 0.960 . S
C452 H444 0.929 . S
C452 C453 1.377 . S
C452 C454 1.384 . S
C453 C452 1.377 . S
C453 C459 1.390 . S
C454 H445 0.930 . S
C454 C452 1.384 . S
C454 C455 1.372 . S
C455 C454 1.372 . S
C455 C456 1.400 . S
C455 C460 1.490 . S
C456 H446 0.930 . S
C456 C455 1.400 . S
C456 C459 1.386 . S
H457 C473 0.930 . S
H458 C474 0.931 . S
C459 H447 0.929 . S
C459 C453 1.390 . S
C459 C456 1.386 . S
C460 C455 1.490 . S
C460 C462 1.395 . S
C460 C463 1.403 . S
H461 C467 0.930 . S
C462 H448 0.930 . S
C462 C460 1.395 . S
C462 C465 1.403 . S
C463 C460 1.403 . S
C463 C464 1.524 . S
C463 C467 1.400 . S
C464 H449 0.960 . S
C464 H450 0.960 . S
C464 H451 0.960 . S
C464 C463 1.524 . S
C465 C462 1.403 . S
C465 C466 1.392 . S
C465 C469 1.495 . S
C466 C465 1.392 . S
C466 C467 1.385 . S
C466 C468 1.478 . S
C467 H461 0.930 . S
C467 C463 1.400 . S
C467 C466 1.385 . S
C468 C466 1.478 . S
C468 C470 1.381 . S
C468 C474 1.383 . S
C469 C465 1.495 . S
C469 H475 0.959 . S
C469 H476 0.961 . S
C469 H477 0.960 . S
C470 C468 1.381 . S
C470 C471 1.394 . S
C470 H478 0.930 . S
C471 C470 1.394 . S
C471 C472 1.383 . S
C471 H479 0.929 . S
C472 C471 1.383 . S
C472 C473 1.377 . S
C473 H457 0.930 . S
C473 C472 1.377 . S
C473 C474 1.379 . S
C474 H458 0.931 . S
C474 C468 1.383 . S
C474 C473 1.379 . S
H475 C469 0.959 . S
H476 C469 0.961 . S
H477 C469 0.960 . S
H478 C470 0.930 . S
H479 C471 0.929 . S
H480 C488 0.929 . S
H481 C490 0.930 . S
H482 C492 0.930 . S
H483 C495 0.929 . S
H484 C498 0.930 . S
H485 C500 0.960 . S
H486 C500 0.960 . S
H487 C500 0.960 . S
C488 H480 0.929 . S
C488 C489 1.377 . S
C488 C490 1.384 . S
C489 C488 1.377 . S
C489 C495 1.390 . S
C490 H481 0.930 . S
C490 C488 1.384 . S
C490 C491 1.372 . S
C491 C490 1.372 . S
C491 C492 1.400 . S
C491 C496 1.490 . S
C492 H482 0.930 . S
C492 C491 1.400 . S
C492 C495 1.386 . S
H493 C509 0.930 . S
H494 C510 0.931 . S
C495 H483 0.929 . S
C495 C489 1.390 . S
C495 C492 1.386 . S
C496 C491 1.490 . S
C496 C498 1.395 . S
C496 C499 1.403 . S
H497 C503 0.930 . S
C498 H484 0.930 . S
C498 C496 1.395 . S
C498 C501 1.403 1_554 S
C499 C496 1.403 . S
C499 C500 1.524 . S
C499 C503 1.400 1_554 S
C500 H485 0.960 . S
C500 H486 0.960 . S
C500 H487 0.960 . S
C500 C499 1.524 . S
C501 C498 1.403 1_556 S
C501 C502 1.392 . S
C501 C505 1.495 . S
C502 C501 1.392 . S
C502 C503 1.385 . S
C502 C504 1.478 . S
C503 H497 0.930 . S
C503 C499 1.400 1_556 S
C503 C502 1.385 . S
C504 C502 1.478 . S
C504 C506 1.381 . S
C504 C510 1.383 . S
C505 C501 1.495 . S
C505 H511 0.959 . S
C505 H512 0.961 . S
C505 H513 0.960 . S
C506 C504 1.381 . S
C506 C507 1.394 . S
C506 H514 0.930 . S
C507 C506 1.394 . S
C507 C508 1.383 . S
C507 H515 0.929 . S
C508 C507 1.383 . S
C508 C509 1.377 . S
C509 H493 0.930 . S
C509 C508 1.377 . S
C509 C510 1.379 . S
C510 H494 0.931 . S
C510 C504 1.383 . S
C510 C509 1.379 . S
H511 C505 0.959 . S
H512 C505 0.961 . S
H513 C505 0.960 . S
H514 C506 0.930 . S
H515 C507 0.929 . S
H516 C524 0.929 . S
H517 C526 0.930 . S
H518 C528 0.930 . S
H519 C531 0.929 . S
H520 C534 0.930 . S
H521 C536 0.960 . S
H522 C536 0.960 . S
H523 C536 0.960 . S
C524 H516 0.929 . S
C524 C525 1.377 . S
C524 C526 1.384 . S
C525 C524 1.377 . S
C525 C531 1.390 . S
C526 H517 0.930 . S
C526 C524 1.384 . S
C526 C527 1.372 . S
C527 C526 1.372 . S
C527 C528 1.400 . S
C527 C532 1.490 . S
C528 H518 0.930 . S
C528 C527 1.400 . S
C528 C531 1.386 . S
H529 C545 0.930 . S
H530 C546 0.931 . S
C531 H519 0.929 . S
C531 C525 1.390 . S
C531 C528 1.386 . S
C532 C527 1.490 . S
C532 C534 1.395 . S
C532 C535 1.403 . S
H533 C539 0.930 . S
C534 H520 0.930 . S
C534 C532 1.395 . S
C534 C537 1.403 . S
C535 C532 1.403 . S
C535 C536 1.524 . S
C535 C539 1.400 . S
C536 H521 0.960 . S
C536 H522 0.960 . S
C536 H523 0.960 . S
C536 C535 1.524 . S
C537 C534 1.403 . S
C537 C538 1.392 . S
C537 C541 1.495 . S
C538 C537 1.392 . S
C538 C539 1.385 . S
C538 C540 1.478 . S
C539 H533 0.930 . S
C539 C535 1.400 . S
C539 C538 1.385 . S
C540 C538 1.478 . S
C540 C542 1.381 . S
C540 C546 1.383 . S
C541 C537 1.495 . S
C541 H547 0.959 . S
C541 H548 0.961 . S
C541 H549 0.960 . S
C542 C540 1.381 . S
C542 C543 1.394 . S
C542 H550 0.930 . S
C543 C542 1.394 . S
C543 C544 1.383 . S
C543 H551 0.929 . S
C544 C543 1.383 . S
C544 C545 1.377 . S
C545 H529 0.930 . S
C545 C544 1.377 . S
C545 C546 1.379 . S
C546 H530 0.931 . S
C546 C540 1.383 . S
C546 C545 1.379 . S
H547 C541 0.959 . S
H548 C541 0.961 . S
H549 C541 0.960 . S
H550 C542 0.930 . S
H551 C543 0.929 . S
H552 C560 0.929 . S
H553 C562 0.930 . S
H554 C564 0.930 . S
H555 C567 0.929 . S
H556 C570 0.930 . S
H557 C572 0.960 . S
H558 C572 0.960 . S
H559 C572 0.960 . S
C560 H552 0.929 . S
C560 C561 1.377 . S
C560 C562 1.384 . S
C561 C560 1.377 . S
C561 C567 1.390 . S
C562 H553 0.930 . S
C562 C560 1.384 . S
C562 C563 1.372 . S
C563 C562 1.372 . S
C563 C564 1.400 . S
C563 C568 1.490 . S
C564 H554 0.930 . S
C564 C563 1.400 . S
C564 C567 1.386 . S
H565 C581 0.930 . S
H566 C582 0.931 . S
C567 H555 0.929 . S
C567 C561 1.390 . S
C567 C564 1.386 . S
C568 C563 1.490 . S
C568 C570 1.395 . S
C568 C571 1.403 . S
H569 C575 0.930 . S
C570 H556 0.930 . S
C570 C568 1.395 . S
C570 C573 1.403 . S
C571 C568 1.403 . S
C571 C572 1.524 . S
C571 C575 1.400 . S
C572 H557 0.960 . S
C572 H558 0.960 . S
C572 H559 0.960 . S
C572 C571 1.524 . S
C573 C570 1.403 . S
C573 C574 1.392 . S
C573 C577 1.495 . S
C574 C573 1.392 . S
C574 C575 1.385 . S
C574 C576 1.478 . S
C575 H569 0.930 . S
C575 C571 1.400 . S
C575 C574 1.385 . S
C576 C574 1.478 . S
C576 C578 1.381 . S
C576 C582 1.383 . S
C577 C573 1.495 . S
C577 H583 0.959 . S
C577 H584 0.961 . S
C577 H585 0.960 . S
C578 C576 1.381 . S
C578 C579 1.394 . S
C578 H586 0.930 . S
C579 C578 1.394 . S
C579 C580 1.383 . S
C579 H587 0.929 . S
C580 C579 1.383 . S
C580 C581 1.377 . S
C581 H565 0.930 . S
C581 C580 1.377 . S
C581 C582 1.379 . S
C582 H566 0.931 . S
C582 C576 1.383 . S
C582 C581 1.379 . S
H583 C577 0.959 . S
H584 C577 0.961 . S
H585 C577 0.960 . S
H586 C578 0.930 . S
H587 C579 0.929 . S
H588 C596 0.929 . S
H589 C598 0.930 . S
H590 C600 0.930 . S
H591 C603 0.929 . S
H592 C606 0.930 . S
H593 C608 0.960 . S
H594 C608 0.960 . S
H595 C608 0.960 . S
C596 H588 0.929 . S
C596 C597 1.377 . S
C596 C598 1.384 . S
C597 C596 1.377 . S
C597 C603 1.390 . S
C598 H589 0.930 . S
C598 C596 1.384 . S
C598 C599 1.372 . S
C599 C598 1.372 . S
C599 C600 1.400 . S
C599 C604 1.490 . S
C600 H590 0.930 . S
C600 C599 1.400 . S
C600 C603 1.386 . S
H601 C617 0.930 . S
H602 C618 0.931 . S
C603 H591 0.929 . S
C603 C597 1.390 . S
C603 C600 1.386 . S
C604 C599 1.490 . S
C604 C606 1.395 . S
C604 C607 1.403 1_655 S
H605 C611 0.930 . S
C606 H592 0.930 . S
C606 C604 1.395 . S
C606 C609 1.403 . S
C607 C604 1.403 1_455 S
C607 C608 1.524 . S
C607 C611 1.400 . S
C608 H593 0.960 . S
C608 H594 0.960 . S
C608 H595 0.960 . S
C608 C607 1.524 . S
C609 C606 1.403 . S
C609 C610 1.392 1_655 S
C609 C613 1.495 . S
C610 C609 1.392 1_455 S
C610 C611 1.385 . S
C610 C612 1.478 . S
C611 H605 0.930 . S
C611 C607 1.400 . S
C611 C610 1.385 . S
C612 C610 1.478 . S
C612 C614 1.381 . S
C612 C618 1.383 . S
C613 C609 1.495 . S
C613 H619 0.959 . S
C613 H620 0.961 . S
C613 H621 0.960 . S
C614 C612 1.381 . S
C614 C615 1.394 . S
C614 H622 0.930 . S
C615 C614 1.394 . S
C615 C616 1.383 . S
C615 H623 0.929 . S
C616 C615 1.383 . S
C616 C617 1.377 . S
C617 H601 0.930 . S
C617 C616 1.377 . S
C617 C618 1.379 . S
C618 H602 0.931 . S
C618 C612 1.383 . S
C618 C617 1.379 . S
H619 C613 0.959 . S
H620 C613 0.961 . S
H621 C613 0.960 . S
H622 C614 0.930 . S
H623 C615 0.929 . S
H624 C632 0.929 . S
H625 C634 0.929 1_565 S
H626 C636 0.930 . S
H627 C639 0.929 . S
H628 C642 0.930 . S
H629 C644 0.960 . S
H630 C644 0.960 . S
H631 C644 0.960 . S
C632 H624 0.929 . S
C632 C633 1.377 . S
C632 C634 1.384 . S
C633 C632 1.377 . S
C633 C639 1.390 . S
C634 H625 0.929 1_545 S
C634 C632 1.384 . S
C634 C635 1.372 . S
C635 C634 1.372 . S
C635 C636 1.400 . S
C635 C640 1.490 . S
C636 H626 0.930 . S
C636 C635 1.400 . S
C636 C639 1.386 . S
H637 C653 0.930 . S
H638 C654 0.931 . S
C639 H627 0.929 . S
C639 C633 1.390 . S
C639 C636 1.386 . S
C640 C635 1.490 . S
C640 C642 1.395 1_545 S
C640 C643 1.403 . S
H641 C647 0.930 . S
C642 H628 0.930 . S
C642 C640 1.395 1_565 S
C642 C645 1.403 . S
C643 C640 1.403 . S
C643 C644 1.524 . S
C643 C647 1.400 . S
C644 H629 0.960 . S
C644 H630 0.960 . S
C644 H631 0.960 . S
C644 C643 1.524 . S
C645 C642 1.403 . S
C645 C646 1.392 . S
C645 C649 1.495 . S
C646 C645 1.392 . S
C646 C647 1.385 1_565 S
C646 C648 1.478 . S
C647 H641 0.930 . S
C647 C643 1.400 . S
C647 C646 1.385 1_545 S
C648 C646 1.478 . S
C648 C650 1.381 . S
C648 C654 1.383 . S
C649 C645 1.495 . S
C649 H655 0.959 . S
C649 H656 0.961 . S
C649 H657 0.960 . S
C650 C648 1.381 . S
C650 C651 1.394 . S
C650 H658 0.930 . S
C651 C650 1.394 . S
C651 C652 1.383 . S
C651 H659 0.929 . S
C652 C651 1.383 . S
C652 C653 1.377 . S
C653 H637 0.930 . S
C653 C652 1.377 . S
C653 C654 1.379 . S
C654 H638 0.931 . S
C654 C648 1.383 . S
C654 C653 1.379 . S
H655 C649 0.959 . S
H656 C649 0.961 . S
H657 C649 0.960 . S
H658 C650 0.930 . S
H659 C651 0.929 . S
H660 C668 0.929 . S
H661 C670 0.930 . S
H662 C672 0.930 . S
H663 C675 0.929 . S
H664 C678 0.930 . S
H665 C680 0.960 . S
H666 C680 0.960 . S
H667 C680 0.960 . S
C668 H660 0.929 . S
C668 C669 1.377 . S
C668 C670 1.384 . S
C669 C668 1.377 . S
C669 C675 1.390 . S
C670 H661 0.930 . S
C670 C668 1.384 . S
C670 C671 1.372 . S
C671 C670 1.372 . S
C671 C672 1.400 . S
C671 C676 1.490 . S
C672 H662 0.930 . S
C672 C671 1.400 . S
C672 C675 1.386 . S
H673 C689 0.930 . S
H674 C690 0.931 . S
C675 H663 0.929 . S
C675 C669 1.390 . S
C675 C672 1.386 . S
C676 C671 1.490 . S
C676 C678 1.395 . S
C676 C679 1.403 . S
H677 C683 0.930 . S
C678 H664 0.930 . S
C678 C676 1.395 . S
C678 C681 1.403 . S
C679 C676 1.403 . S
C679 C680 1.524 . S
C679 C683 1.400 . S
C680 H665 0.960 . S
C680 H666 0.960 . S
C680 H667 0.960 . S
C680 C679 1.524 . S
C681 C678 1.403 . S
C681 C682 1.392 . S
C681 C685 1.495 . S
C682 C681 1.392 . S
C682 C683 1.385 . S
C682 C684 1.478 . S
C683 H677 0.930 . S
C683 C679 1.400 . S
C683 C682 1.385 . S
C684 C682 1.478 . S
C684 C686 1.381 . S
C684 C690 1.383 . S
C685 C681 1.495 . S
C685 H691 0.959 . S
C685 H692 0.961 . S
C685 H693 0.960 . S
C686 C684 1.381 . S
C686 C687 1.394 . S
C686 H694 0.930 . S
C687 C686 1.394 . S
C687 C688 1.383 . S
C687 H695 0.929 . S
C688 C687 1.383 . S
C688 C689 1.377 . S
C689 H673 0.930 . S
C689 C688 1.377 . S
C689 C690 1.379 . S
C690 H674 0.931 . S
C690 C684 1.383 . S
C690 C689 1.379 . S
H691 C685 0.959 . S
H692 C685 0.961 . S
H693 C685 0.960 . S
H694 C686 0.930 . S
H695 C687 0.929 . S
H696 C704 0.929 . S
H697 C706 0.930 . S
H698 C708 0.930 . S
H699 C711 0.929 . S
H700 C714 0.930 . S
H701 C716 0.960 . S
H702 C716 0.960 . S
H703 C716 0.960 . S
C704 H696 0.929 . S
C704 C705 1.377 . S
C704 C706 1.384 . S
C705 C704 1.377 . S
C705 C711 1.390 . S
C706 H697 0.930 . S
C706 C704 1.384 . S
C706 C707 1.372 . S
C707 C706 1.372 . S
C707 C708 1.400 . S
C707 C712 1.490 . S
C708 H698 0.930 . S
C708 C707 1.400 . S
C708 C711 1.386 . S
H709 C725 0.930 . S
H710 C726 0.931 . S
C711 H699 0.929 . S
C711 C705 1.390 . S
C711 C708 1.386 . S
C712 C707 1.490 . S
C712 C714 1.395 . S
C712 C715 1.403 1_545 S
H713 C719 0.930 . S
C714 H700 0.930 . S
C714 C712 1.395 . S
C714 C717 1.403 . S
C715 C712 1.403 1_565 S
C715 C716 1.524 . S
C715 C719 1.400 . S
C716 H701 0.960 . S
C716 H702 0.960 . S
C716 H703 0.960 . S
C716 C715 1.524 . S
C717 C714 1.403 . S
C717 C718 1.392 1_545 S
C717 C721 1.495 . S
C718 C717 1.392 1_565 S
C718 C719 1.385 . S
C718 C720 1.478 . S
C719 H713 0.930 . S
C719 C715 1.400 . S
C719 C718 1.385 . S
C720 C718 1.478 . S
C720 C722 1.381 . S
C720 C726 1.383 . S
C721 C717 1.495 . S
C721 H727 0.959 . S
C721 H728 0.961 . S
C721 H729 0.960 . S
C722 C720 1.381 . S
C722 C723 1.394 . S
C722 H730 0.930 . S
C723 C722 1.394 . S
C723 C724 1.383 . S
C723 H731 0.929 . S
C724 C723 1.383 . S
C724 C725 1.377 . S
C725 H709 0.930 . S
C725 C724 1.377 . S
C725 C726 1.379 . S
C726 H710 0.931 . S
C726 C720 1.383 . S
C726 C725 1.379 . S
H727 C721 0.959 . S
H728 C721 0.961 . S
H729 C721 0.960 . S
H730 C722 0.930 . S
H731 C723 0.929 . S
H732 C740 0.929 . S
H733 C742 0.930 . S
H734 C744 0.930 . S
H735 C747 0.929 . S
H736 C750 0.930 . S
H737 C752 0.960 . S
H738 C752 0.960 . S
H739 C752 0.960 . S
C740 H732 0.929 . S
C740 C741 1.377 . S
C740 C742 1.384 . S
C741 C740 1.377 . S
C741 C747 1.390 . S
C742 H733 0.930 . S
C742 C740 1.384 . S
C742 C743 1.372 . S
C743 C742 1.372 . S
C743 C744 1.400 . S
C743 C748 1.490 . S
C744 H734 0.930 . S
C744 C743 1.400 . S
C744 C747 1.386 . S
H745 C761 0.930 . S
H746 C762 0.931 . S
C747 H735 0.929 . S
C747 C741 1.390 . S
C747 C744 1.386 . S
C748 C743 1.490 . S
C748 C750 1.395 . S
C748 C751 1.403 . S
H749 C755 0.930 . S
C750 H736 0.930 . S
C750 C748 1.395 . S
C750 C753 1.403 . S
C751 C748 1.403 . S
C751 C752 1.524 . S
C751 C755 1.400 . S
C752 H737 0.960 . S
C752 H738 0.960 . S
C752 H739 0.960 . S
C752 C751 1.524 . S
C753 C750 1.403 . S
C753 C754 1.392 . S
C753 C757 1.495 . S
C754 C753 1.392 . S
C754 C755 1.385 . S
C754 C756 1.478 . S
C755 H749 0.930 . S
C755 C751 1.400 . S
C755 C754 1.385 . S
C756 C754 1.478 . S
C756 C758 1.381 . S
C756 C762 1.383 . S
C757 C753 1.495 . S
C757 H763 0.959 . S
C757 H764 0.961 . S
C757 H765 0.960 . S
C758 C756 1.381 . S
C758 C759 1.394 . S
C758 H766 0.930 . S
C759 C758 1.394 . S
C759 C760 1.383 . S
C759 H767 0.929 . S
C760 C759 1.383 . S
C760 C761 1.377 . S
C761 H745 0.930 . S
C761 C760 1.377 . S
C761 C762 1.379 . S
C762 H746 0.931 . S
C762 C756 1.383 . S
C762 C761 1.379 . S
H763 C757 0.959 . S
H764 C757 0.961 . S
H765 C757 0.960 . S
H766 C758 0.930 . S
H767 C759 0.929 . S
H768 C776 0.929 . S
H769 C778 0.930 1_655 S
H770 C780 0.930 . S
H771 C783 0.929 . S
H772 C786 0.930 . S
H773 C788 0.960 1_655 S
H774 C788 0.960 1_655 S
H775 C788 0.960 . S
C776 H768 0.929 . S
C776 C777 1.377 . S
C776 C778 1.384 . S
C777 C776 1.377 . S
C777 C783 1.390 . S
C778 H769 0.930 1_455 S
C778 C776 1.384 . S
C778 C779 1.372 . S
C779 C778 1.372 . S
C779 C780 1.400 . S
C779 C784 1.490 . S
C780 H770 0.930 . S
C780 C779 1.400 . S
C780 C783 1.386 . S
H781 C797 0.930 . S
H782 C798 0.931 1_455 S
C783 H771 0.929 . S
C783 C777 1.390 . S
C783 C780 1.386 . S
C784 C779 1.490 . S
C784 C786 1.395 . S
C784 C787 1.403 . S
H785 C791 0.930 . S
C786 H772 0.930 . S
C786 C784 1.395 . S
C786 C789 1.403 1_455 S
C787 C784 1.403 . S
C787 C788 1.524 . S
C787 C791 1.400 1_455 S
C788 H773 0.960 1_455 S
C788 H774 0.960 1_455 S
C788 H775 0.960 . S
C788 C787 1.524 . S
C789 C786 1.403 1_655 S
C789 C790 1.392 . S
C789 C793 1.495 . S
C790 C789 1.392 . S
C790 C791 1.385 . S
C790 C792 1.478 . S
C791 H785 0.930 . S
C791 C787 1.400 1_655 S
C791 C790 1.385 . S
C792 C790 1.478 . S
C792 C794 1.381 . S
C792 C798 1.383 . S
C793 C789 1.495 . S
C793 H799 0.959 1_655 S
C793 H800 0.961 1_655 S
C793 H801 0.960 . S
C794 C792 1.381 . S
C794 C795 1.394 . S
C794 H802 0.930 . S
C795 C794 1.394 . S
C795 C796 1.383 . S
C795 H803 0.929 . S
C796 C795 1.383 . S
C796 C797 1.377 . S
C797 H781 0.930 . S
C797 C796 1.377 . S
C797 C798 1.379 . S
C798 H782 0.931 1_655 S
C798 C792 1.383 . S
C798 C797 1.379 . S
H799 C793 0.959 1_455 S
H800 C793 0.961 1_455 S
H801 C793 0.960 . S
H802 C794 0.930 . S
H803 C795 0.929 . S
H804 C812 0.905 1_655 S
H805 C814 0.930 1_655 S
H806 C816 0.930 . S
H807 C819 0.929 . S
H808 C822 0.930 . S
H809 C824 0.960 . S
H810 C824 0.960 . S
H811 C824 0.960 . S
C812 H804 0.905 1_455 S
C812 C813 1.377 . S
C812 C814 1.384 . S
C813 C812 1.377 . S
C813 C819 1.390 . S
C814 H805 0.930 1_455 S
C814 C812 1.384 . S
C814 C815 1.372 . S
C815 C814 1.372 . S
C815 C816 1.400 . S
C815 C820 1.490 . S
C816 H806 0.930 . S
C816 C815 1.400 . S
C816 C819 1.386 . S
H817 C833 0.930 . S
H818 C834 0.931 1_455 S
C819 H807 0.929 . S
C819 C813 1.390 . S
C819 C816 1.386 . S
C820 C815 1.490 . S
C820 C822 1.395 1_455 S
C820 C823 1.403 . S
H821 C827 0.930 . S
C822 H808 0.930 . S
C822 C820 1.395 1_655 S
C822 C825 1.403 1_545 S
C823 C820 1.403 . S
C823 C824 1.524 . S
C823 C827 1.400 1_545 S
C824 H809 0.960 . S
C824 H810 0.960 . S
C824 H811 0.960 . S
C824 C823 1.524 . S
C825 C822 1.403 1_565 S
C825 C826 1.392 . S
C825 C829 1.495 . S
C826 C825 1.392 . S
C826 C827 1.385 1_655 S
C826 C828 1.478 . S
C827 H821 0.930 . S
C827 C823 1.400 1_565 S
C827 C826 1.385 1_455 S
C828 C826 1.478 . S
C828 C830 1.381 . S
C828 C834 1.383 . S
C829 C825 1.495 . S
C829 H835 0.959 . S
C829 H836 0.961 . S
C829 H837 0.960 . S
C830 C828 1.381 . S
C830 C831 1.394 . S
C830 H838 0.930 . S
C831 C830 1.394 . S
C831 C832 1.383 . S
C831 H839 0.929 . S
C832 C831 1.383 . S
C832 C833 1.377 . S
C833 H817 0.930 . S
C833 C832 1.377 . S
C833 C834 1.379 . S
C834 H818 0.931 1_655 S
C834 C828 1.383 . S
C834 C833 1.379 . S
H835 C829 0.959 . S
H836 C829 0.961 . S
H837 C829 0.960 . S
H838 C830 0.930 . S
H839 C831 0.929 . S
H840 C848 0.929 . S
H841 C850 0.930 . S
H842 C852 0.930 1_565 S
H843 C855 0.929 . S
H844 C858 0.930 . S
H845 C860 0.960 . S
H846 C860 0.960 . S
H847 C860 0.960 . S
C848 H840 0.929 . S
C848 C849 1.377 . S
C848 C850 1.384 . S
C849 C848 1.377 . S
C849 C855 1.390 . S
C850 H841 0.930 . S
C850 C848 1.384 . S
C850 C851 1.372 . S
C851 C850 1.372 . S
C851 C852 1.400 . S
C851 C856 1.490 . S
C852 H842 0.930 1_545 S
C852 C851 1.400 . S
C852 C855 1.386 . S
H853 C869 0.930 . S
H854 C870 0.931 . S
C855 H843 0.929 . S
C855 C849 1.390 . S
C855 C852 1.386 . S
C856 C851 1.490 . S
C856 C858 1.395 1_655 S
C856 C859 1.403 1_545 S
H857 C863 0.930 . S
C858 H844 0.930 . S
C858 C856 1.395 1_455 S
C858 C861 1.403 . S
C859 C856 1.403 1_565 S
C859 C860 1.524 . S
C859 C863 1.400 . S
C860 H845 0.960 . S
C860 H846 0.960 . S
C860 H847 0.960 . S
C860 C859 1.524 . S
C861 C858 1.403 . S
C861 C862 1.392 1_545 S
C861 C865 1.495 . S
C862 C861 1.392 1_565 S
C862 C863 1.385 1_455 S
C862 C864 1.478 . S
C863 H857 0.930 . S
C863 C859 1.400 . S
C863 C862 1.385 1_655 S
C864 C862 1.478 . S
C864 C866 1.381 . S
C864 C870 1.383 . S
C865 C861 1.495 . S
C865 H871 0.959 . S
C865 H872 0.961 . S
C865 H873 0.960 . S
C866 C864 1.381 . S
C866 C867 1.394 . S
C866 H874 0.930 1_565 S
C867 C866 1.394 . S
C867 C868 1.383 . S
C867 H875 0.929 . S
C868 C867 1.383 . S
C868 C869 1.377 . S
C869 H853 0.930 . S
C869 C868 1.377 . S
C869 C870 1.379 . S
C870 H854 0.931 . S
C870 C864 1.383 . S
C870 C869 1.379 . S
H871 C865 0.959 . S
H872 C865 0.961 . S
H873 C865 0.960 . S
H874 C866 0.930 1_545 S
H875 C867 0.929 . S
H876 C884 0.929 . S
H877 C886 0.930 . S
H878 C888 0.930 . S
H879 C891 0.929 . S
H880 C894 0.930 . S
H881 C896 0.960 . S
H882 C896 0.960 . S
H883 C896 0.960 . S
C884 H876 0.929 . S
C884 C885 1.377 . S
C884 C886 1.384 . S
C885 C884 1.377 . S
C885 C891 1.390 . S
C886 H877 0.930 . S
C886 C884 1.384 . S
C886 C887 1.372 . S
C887 C886 1.372 . S
C887 C888 1.400 . S
C887 C892 1.490 . S
C888 H878 0.930 . S
C888 C887 1.400 . S
C888 C891 1.386 . S
H889 C905 0.930 . S
H890 C906 0.931 . S
C891 H879 0.929 . S
C891 C885 1.390 . S
C891 C888 1.386 . S
C892 C887 1.490 . S
C892 C894 1.395 . S
C892 C895 1.403 1_545 S
H893 C899 0.930 . S
C894 H880 0.930 . S
C894 C892 1.395 . S
C894 C897 1.403 1_455 S
C895 C892 1.403 1_565 S
C895 C896 1.524 . S
C895 C899 1.400 1_455 S
C896 H881 0.960 . S
C896 H882 0.960 . S
C896 H883 0.960 . S
C896 C895 1.524 . S
C897 C894 1.403 1_655 S
C897 C898 1.392 1_545 S
C897 C901 1.495 . S
C898 C897 1.392 1_565 S
C898 C899 1.385 . S
C898 C900 1.478 . S
C899 H893 0.930 . S
C899 C895 1.400 1_655 S
C899 C898 1.385 . S
C900 C898 1.478 . S
C900 C902 1.381 . S
C900 C906 1.383 . S
C901 C897 1.495 . S
C901 H907 0.959 . S
C901 H908 0.961 . S
C901 H909 0.960 . S
C902 C900 1.381 . S
C902 C903 1.394 . S
C902 H910 0.930 . S
C903 C902 1.394 . S
C903 C904 1.383 . S
C903 H911 0.929 . S
C904 C903 1.383 . S
C904 C905 1.377 . S
C905 H889 0.930 . S
C905 C904 1.377 . S
C905 C906 1.379 . S
C906 H890 0.931 . S
C906 C900 1.383 . S
C906 C905 1.379 . S
H907 C901 0.959 . S
H908 C901 0.961 . S
H909 C901 0.960 . S
H910 C902 0.930 . S
H911 C903 0.929 . S
H912 C920 0.929 . S
H913 C922 0.930 . S
H914 C924 0.930 1_545 S
H915 C927 0.918 1_545 S
H916 C930 0.930 . S
H917 C932 0.960 . S
H918 C932 0.960 . S
H919 C932 0.960 . S
C920 H912 0.929 . S
C920 C921 1.377 . S
C920 C922 1.384 . S
C921 C920 1.377 . S
C921 C927 1.390 . S
C922 H913 0.930 . S
C922 C920 1.384 . S
C922 C923 1.372 . S
C923 C922 1.372 . S
C923 C924 1.400 . S
C923 C928 1.490 . S
C924 H914 0.930 1_565 S
C924 C923 1.400 . S
C924 C927 1.386 . S
H925 C941 0.930 . S
H926 C942 0.931 . S
C927 H915 0.918 1_565 S
C927 C921 1.390 . S
C927 C924 1.386 . S
C928 C923 1.490 . S
C928 C930 1.395 . S
C928 C931 1.403 1_565 S
H929 C935 0.930 . S
C930 H916 0.930 . S
C930 C928 1.395 . S
C930 C933 1.403 1_655 S
C931 C928 1.403 1_545 S
C931 C932 1.524 . S
C931 C935 1.400 1_655 S
C932 H917 0.960 . S
C932 H918 0.960 . S
C932 H919 0.960 . S
C932 C931 1.524 . S
C933 C930 1.403 1_455 S
C933 C934 1.392 1_565 S
C933 C937 1.495 . S
C934 C933 1.392 1_545 S
C934 C935 1.385 . S
C934 C936 1.478 . S
C935 H929 0.930 . S
C935 C931 1.400 1_455 S
C935 C934 1.385 . S
C936 C934 1.478 . S
C936 C938 1.395 . S
C936 C942 1.383 . S
C937 C933 1.495 . S
C937 H943 0.959 . S
C937 H944 0.961 . S
C937 H945 0.960 . S
C938 C936 1.395 . S
C938 C939 1.392 . S
C938 H946 0.918 1_545 S
C939 C938 1.392 . S
C939 C940 1.383 . S
C939 H947 0.934 . S
C940 C939 1.383 . S
C940 C941 1.377 . S
C941 H925 0.930 . S
C941 C940 1.377 . S
C941 C942 1.379 . S
C942 H926 0.931 . S
C942 C936 1.383 . S
C942 C941 1.379 . S
H943 C937 0.959 . S
H944 C937 0.961 . S
H945 C937 0.960 . S
H946 C938 0.918 1_565 S
H947 C939 0.934 . S
H948 C956 0.929 . S
H949 C958 0.930 . S
H950 C960 0.930 . S
H951 C963 0.929 . S
H952 C966 0.930 . S
H953 C968 0.960 1_545 S
H954 C968 0.960 . S
H955 C968 0.960 . S
C956 H948 0.929 . S
C956 C957 1.377 . S
C956 C958 1.384 . S
C957 C956 1.377 . S
C957 C963 1.390 . S
C958 H949 0.930 . S
C958 C956 1.384 . S
C958 C959 1.372 . S
C959 C958 1.372 . S
C959 C960 1.400 . S
C959 C964 1.490 . S
C960 H950 0.930 . S
C960 C959 1.400 . S
C960 C963 1.386 . S
H961 C977 0.930 . S
H962 C978 0.931 . S
C963 H951 0.929 . S
C963 C957 1.390 . S
C963 C960 1.386 . S
C964 C959 1.490 . S
C964 C966 1.395 1_655 S
C964 C967 1.403 . S
H965 C971 0.930 . S
C966 H952 0.930 . S
C966 C964 1.395 1_455 S
C966 C969 1.403 1_565 S
C967 C964 1.403 . S
C967 C968 1.524 . S
C967 C971 1.400 1_565 S
C968 H953 0.960 1_565 S
C968 H954 0.960 . S
C968 H955 0.960 . S
C968 C967 1.524 . S
C969 C966 1.403 1_545 S
C969 C970 1.392 . S
C969 C973 1.495 . S
C970 C969 1.392 . S
C970 C971 1.385 1_455 S
C970 C972 1.478 . S
C971 H965 0.930 . S
C971 C967 1.400 1_545 S
C971 C970 1.385 1_655 S
C972 C970 1.478 . S
C972 C974 1.381 . S
C972 C978 1.383 . S
C973 C969 1.495 . S
C973 H979 0.934 1_545 S
C973 H980 0.961 . S
C973 H981 0.960 . S
C974 C972 1.381 . S
C974 C975 1.394 . S
C974 H982 0.930 . S
C975 C974 1.394 . S
C975 C976 1.383 . S
C975 H983 0.929 . S
C976 C975 1.383 . S
C976 C977 1.377 . S
C977 H961 0.930 . S
C977 C976 1.377 . S
C977 C978 1.379 . S
C978 H962 0.931 . S
C978 C972 1.383 . S
C978 C977 1.379 . S
H979 C973 0.934 1_565 S
H980 C973 0.961 . S
H981 C973 0.960 . S
H982 C974 0.930 . S
H983 C975 0.929 . S
H984 C992 0.929 . S
H985 C994 0.930 . S
H986 C996 0.930 1_655 S
H987 C999 0.929 . S
H988 C1002 0.930 . S
H989 C1004 0.960 . S
H990 C1004 0.960 . S
H991 C1004 0.960 . S
C992 H984 0.929 . S
C992 C993 1.377 . S
C992 C994 1.384 . S
C993 C992 1.377 . S
C993 C999 1.390 . S
C994 H985 0.930 . S
C994 C992 1.384 . S
C994 C995 1.372 . S
C995 C994 1.372 . S
C995 C996 1.400 . S
C995 C1000 1.490 . S
C996 H986 0.930 1_455 S
C996 C995 1.400 . S
C996 C999 1.386 . S
H997 C1013 0.930 . S
H998 C1014 0.931 . S
C999 H987 0.929 . S
C999 C993 1.390 . S
C999 C996 1.386 . S
C1000 C995 1.490 . S
C1000 C1002 1.395 1_565 S
C1000 C1003 1.403 1_455 S
H1001 C1007 0.930 . S
C1002 H988 0.930 . S
C1002 C1000 1.395 1_545 S
C1002 C1005 1.403 . S
C1003 C1000 1.403 1_655 S
C1003 C1004 1.524 . S
C1003 C1007 1.400 . S
C1004 H989 0.960 . S
C1004 H990 0.960 . S
C1004 H991 0.960 . S
C1004 C1003 1.524 . S
C1005 C1002 1.403 . S
C1005 C1006 1.392 1_455 S
C1005 C1009 1.495 . S
C1006 C1005 1.392 1_655 S
C1006 C1007 1.385 1_545 S
C1006 C1008 1.478 . S
C1007 H1001 0.930 . S
C1007 C1003 1.400 . S
C1007 C1006 1.385 1_565 S
C1008 C1006 1.478 . S
C1008 C1010 1.381 . S
C1008 C1014 1.383 . S
C1009 C1005 1.495 . S
C1009 H1015 0.959 . S
C1009 H1016 0.961 . S
C1009 H1017 0.960 . S
C1010 C1008 1.381 . S
C1010 C1011 1.394 . S
C1010 H1018 0.930 1_655 S
C1011 C1010 1.394 . S
C1011 C1012 1.383 . S
C1011 H1019 0.929 . S
C1012 C1011 1.383 . S
C1012 C1013 1.377 . S
C1013 H997 0.930 . S
C1013 C1012 1.377 . S
C1013 C1014 1.379 . S
C1014 H998 0.931 . S
C1014 C1008 1.383 . S
C1014 C1013 1.379 . S
H1015 C1009 0.959 . S
H1016 C1009 0.961 . S
H1017 C1009 0.960 . S
H1018 C1010 0.930 1_455 S
H1019 C1011 0.929 . S
C165 C144 1.511 . S
C184 C1 1.496 . S
C201 C14 1.510 . S
C220 C79 1.514 . S
C237 C27 1.511 . S
C256 C92 1.496 . S
C273 C40 1.508 . S
C292 C105 1.498 . S
C309 C118 1.510 . S
C328 C53 1.495 . S
C345 C66 1.508 . S
C364 C131 1.502 . S
C381 C3 1.514 . S
C400 C133 1.508 . S
C417 C16 1.519 . S
C436 C146 1.511 . S
C453 C29 1.514 . S
C472 C81 1.506 . S
C489 C42 1.516 . S
C508 C94 1.500 . S
C525 C107 1.517 . S
C544 C55 1.499 . S
C561 C120 1.516 . S
C580 C68 1.527 . S
C597 C44 1.792 . S
C616 C5 1.784 . S
C633 C18 1.793 . S
C652 C57 1.793 . S
C669 C70 1.793 . S
C688 C31 1.793 . S
C705 C122 1.792 . S
C724 C83 1.784 . S
C741 C135 1.792 . S
C760 C96 1.784 . S
C777 C109 1.791 . S
C796 C148 1.786 . S
C813 C10 1.655 . S
C832 C49 1.660 . S
C849 C23 1.656 . S
C868 C62 1.644 . S
C885 C75 1.656 . S
C904 C36 1.661 . S
C921 C88 1.658 . S
C940 C127 1.645 . S
C957 C101 1.656 . S
C976 C140 1.645 . S
C993 C114 1.656 . S
C1012 C153 1.644 . S
