# Generated by pormake.
# Topology wjg, (4)-cn, num edge types: 1
# Building blocks:
#     Node 0, Type 0, BuildingBlock: AZAVOO_clean_sbu_0, # of connection points: 4
#     Node 1, Type 0, BuildingBlock: AZAVOO_clean_sbu_0, # of connection points: 4
#     Node 2, Type 0, BuildingBlock: AZAVOO_clean_sbu_0, # of connection points: 4
#     Node 3, Type 0, BuildingBlock: AZAVOO_clean_sbu_0, # of connection points: 4
#     Node 4, Type 0, BuildingBlock: AZAVOO_clean_sbu_0, # of connection points: 4
#     Node 5, Type 0, BuildingBlock: AZAVOO_clean_sbu_0, # of connection points: 4
#     Node 6, Type 0, BuildingBlock: AZAVOO_clean_sbu_0, # of connection points: 4
#     Node 7, Type 0, BuildingBlock: AZAVOO_clean_sbu_0, # of connection points: 4
#     Node 8, Type 0, BuildingBlock: AZAVOO_clean_sbu_0, # of connection points: 4
#     Node 9, Type 0, BuildingBlock: AZAVOO_clean_sbu_0, # of connection points: 4
#     Node 10, Type 0, BuildingBlock: AZAVOO_clean_sbu_0, # of connection points: 4
#     Node 11, Type 0, BuildingBlock: AZAVOO_clean_sbu_0, # of connection points: 4
#     Edge 12, Type (0, 0), BuildingBlock: ZUJKAS_clean_linker_0, # of connection points: 2
#     Edge 13, Type (0, 0), BuildingBlock: ZUJKAS_clean_linker_0, # of connection points: 2
#     Edge 14, Type (0, 0), BuildingBlock: ZUJKAS_clean_linker_0, # of connection points: 2
#     Edge 15, Type (0, 0), BuildingBlock: ZUJKAS_clean_linker_0, # of connection points: 2
#     Edge 16, Type (0, 0), BuildingBlock: ZUJKAS_clean_linker_0, # of connection points: 2
#     Edge 17, Type (0, 0), BuildingBlock: ZUJKAS_clean_linker_0, # of connection points: 2
#     Edge 18, Type (0, 0), BuildingBlock: ZUJKAS_clean_linker_0, # of connection points: 2
#     Edge 19, Type (0, 0), BuildingBlock: ZUJKAS_clean_linker_0, # of connection points: 2
#     Edge 20, Type (0, 0), BuildingBlock: ZUJKAS_clean_linker_0, # of connection points: 2
#     Edge 21, Type (0, 0), BuildingBlock: ZUJKAS_clean_linker_0, # of connection points: 2
#     Edge 22, Type (0, 0), BuildingBlock: ZUJKAS_clean_linker_0, # of connection points: 2
#     Edge 23, Type (0, 0), BuildingBlock: ZUJKAS_clean_linker_0, # of connection points: 2
#     Edge 24, Type (0, 0), BuildingBlock: ZUJKAS_clean_linker_0, # of connection points: 2
#     Edge 25, Type (0, 0), BuildingBlock: ZUJKAS_clean_linker_0, # of connection points: 2
#     Edge 26, Type (0, 0), BuildingBlock: ZUJKAS_clean_linker_0, # of connection points: 2
#     Edge 27, Type (0, 0), BuildingBlock: ZUJKAS_clean_linker_0, # of connection points: 2
#     Edge 28, Type (0, 0), BuildingBlock: ZUJKAS_clean_linker_0, # of connection points: 2
#     Edge 29, Type (0, 0), BuildingBlock: ZUJKAS_clean_linker_0, # of connection points: 2
#     Edge 30, Type (0, 0), BuildingBlock: ZUJKAS_clean_linker_0, # of connection points: 2
#     Edge 31, Type (0, 0), BuildingBlock: ZUJKAS_clean_linker_0, # of connection points: 2
#     Edge 32, Type (0, 0), BuildingBlock: ZUJKAS_clean_linker_0, # of connection points: 2
#     Edge 33, Type (0, 0), BuildingBlock: ZUJKAS_clean_linker_0, # of connection points: 2
#     Edge 34, Type (0, 0), BuildingBlock: ZUJKAS_clean_linker_0, # of connection points: 2
#     Edge 35, Type (0, 0), BuildingBlock: ZUJKAS_clean_linker_0, # of connection points: 2
# Relax obj value: 0.285
# Max RMSD: 0.125
# Mean RMSD: 0.125
data_MOF--net-wjg--node1-AZAVOO_clean_sbu_0--edge1-ZUJKAS_clean_linker_0
_symmetry_space_group_name_H-M    P1
_symmetry_Int_Tables_number       1
_symmetry_cell_setting            triclinic
loop_
_symmetry_equiv_pos_as_xyz
'x, y, z'
_cell_length_a     44.922587
_cell_length_b     44.903569
_cell_length_c     47.763903
_cell_angle_alpha  89.986376
_cell_angle_beta   90.110708
_cell_angle_gamma 119.99417
loop_
_atom_site_label
_atom_site_type_symbol
_atom_site_fract_x
_atom_site_fract_y
_atom_site_fract_z
_atom_type_partial_charge
Mg0 Mg 0.14132 0.4078 0.34434 0.0
O1 O 0.17748 0.38474 0.34441 0.0
O2 O 0.19993 0.39374 0.3876 0.0
Mg3 Mg 0.18209 0.42448 0.4135 0.0
C4 C 0.19637 0.38146 0.36291 0.0
C5 C 0.10206 0.39843 0.29233 0.0
O6 O 0.08633 0.40368 0.3133 0.0
O7 O 0.18847 0.46237 0.33978 0.0
O8 O 0.20966 0.46965 0.38321 0.0
O9 O 0.10004 0.35766 0.36155 0.0
O10 O 0.13606 0.40184 0.38752 0.0
C11 C 0.21066 0.48075 0.35842 0.0
C12 C 0.11279 0.36991 0.38596 0.0
O13 O 0.13063 0.39984 0.29722 0.0
Mg14 Mg 0.74263 0.14685 0.66879 0.0
O15 O 0.80204 0.18171 0.67093 0.0
O16 O 0.81406 0.202 0.7148 0.0
Mg17 Mg 0.76453 0.18443 0.73917 0.0
C18 C 0.82362 0.19925 0.69024 0.0
C19 C 0.71244 0.11697 0.61262 0.0
O20 O 0.6864 0.1076 0.62977 0.0
O21 O 0.73667 0.19508 0.66485 0.0
O22 O 0.74953 0.21418 0.70888 0.0
O23 O 0.74922 0.10394 0.68561 0.0
O24 O 0.74093 0.13955 0.71191 0.0
C25 C 0.74054 0.21672 0.68401 0.0
C26 C 0.74874 0.11568 0.71021 0.0
O27 O 0.74249 0.13803 0.62156 0.0
Mg28 Mg 0.59827 0.73393 0.01454 0.0
O29 O 0.62595 0.79376 0.01512 0.0
O30 O 0.61804 0.8086 0.05808 0.0
Mg31 Mg 0.58164 0.76072 0.08256 0.0
C32 C 0.63128 0.81655 0.03367 0.0
C33 C 0.63911 0.74493 0.95952 0.0
O34 O 0.66389 0.76299 0.97747 0.0
O35 O 0.54599 0.73115 0.0078 0.0
O36 O 0.53989 0.74935 0.04989 0.0
O37 O 0.64552 0.73807 0.03412 0.0
O38 O 0.60137 0.73338 0.05806 0.0
C39 C 0.52932 0.73922 0.02498 0.0
C40 C 0.63252 0.73937 0.0579 0.0
O41 O 0.60808 0.73203 0.96759 0.0
Mg42 Mg 0.86521 0.60227 0.34122 0.0
O43 O 0.82796 0.62398 0.34186 0.0
O44 O 0.80754 0.61618 0.3856 0.0
Mg45 Mg 0.8277 0.58735 0.41151 0.0
C46 C 0.80964 0.62745 0.3607 0.0
C47 C 0.88842 0.63868 0.28373 0.0
O48 O 0.89394 0.66444 0.30013 0.0
O49 O 0.81875 0.54701 0.33843 0.0
O50 O 0.79958 0.54096 0.38241 0.0
O51 O 0.90614 0.65354 0.35727 0.0
O52 O 0.87248 0.60953 0.38428 0.0
C53 C 0.79768 0.52903 0.35779 0.0
C54 C 0.89482 0.64163 0.38201 0.0
O55 O 0.87278 0.60834 0.29369 0.0
Mg56 Mg 0.2717 0.86367 0.67005 0.0
O57 O 0.21248 0.82724 0.67 0.0
O58 O 0.19883 0.80246 0.71236 0.0
Mg59 Mg 0.24738 0.8202 0.73814 0.0
C60 C 0.19035 0.80711 0.68791 0.0
C61 C 0.30286 0.89793 0.61514 0.0
O62 O 0.32868 0.9078 0.6327 0.0
O63 O 0.28 0.81708 0.66385 0.0
O64 O 0.26344 0.7932 0.70623 0.0
O65 O 0.26164 0.9034 0.68869 0.0
O66 O 0.27118 0.86733 0.71341 0.0
C67 C 0.27417 0.79328 0.6815 0.0
C68 C 0.26158 0.88993 0.71264 0.0
O69 O 0.27301 0.87534 0.62328 0.0
Mg70 Mg 0.40963 0.265 0.00664 0.0
O71 O 0.38416 0.20533 0.0067 0.0
O72 O 0.39179 0.19095 0.04995 0.0
Mg73 Mg 0.42524 0.23908 0.07542 0.0
C74 C 0.37945 0.18271 0.02523 0.0
C75 C 0.40924 0.29805 0.95248 0.0
O76 O 0.42417 0.32264 0.97122 0.0
O77 O 0.46333 0.27035 0.00152 0.0
O78 O 0.46873 0.253 0.04419 0.0
O79 O 0.36061 0.25831 0.02452 0.0
O80 O 0.40465 0.2648 0.04988 0.0
C81 C 0.48016 0.26345 0.01955 0.0
C82 C 0.3731 0.25752 0.04875 0.0
O83 O 0.40106 0.26758 0.95962 0.0
Mg84 Mg 0.60024 0.86312 0.32251 0.0
O85 O 0.62394 0.82747 0.32177 0.0
O86 O 0.61637 0.80671 0.27808 0.0
Mg87 Mg 0.58505 0.82426 0.25258 0.0
C88 C 0.62817 0.80962 0.3029 0.0
C89 C 0.63814 0.88861 0.37933 0.0
O90 O 0.6635 0.89415 0.3625 0.0
O91 O 0.5458 0.81543 0.32621 0.0
O92 O 0.53986 0.79535 0.28254 0.0
O93 O 0.65032 0.90511 0.30572 0.0
O94 O 0.60645 0.86957 0.27929 0.0
C95 C 0.52812 0.79347 0.3072 0.0
C96 C 0.63831 0.89285 0.28117 0.0
O97 O 0.6075 0.87211 0.36997 0.0
Mg98 Mg 0.74418 0.60551 0.66108 0.0
O99 O 0.80298 0.62686 0.66092 0.0
O100 O 0.81591 0.61722 0.61777 0.0
Mg101 Mg 0.76746 0.59125 0.59085 0.0
C102 C 0.8247 0.6287 0.64268 0.0
C103 C 0.71207 0.60304 0.71677 0.0
O104 O 0.68663 0.58822 0.69873 0.0
O105 O 0.73469 0.54979 0.66324 0.0
O106 O 0.74728 0.54397 0.61901 0.0
O107 O 0.75485 0.65713 0.64601 0.0
O108 O 0.74525 0.61388 0.61818 0.0
C109 C 0.73705 0.53173 0.6435 0.0
C110 C 0.75442 0.6458 0.62106 0.0
O111 O 0.74221 0.6115 0.70852 0.0
Mg112 Mg 0.14139 0.73756 0.9925 0.0
O113 O 0.17623 0.79701 0.99022 0.0
O114 O 0.19589 0.80915 0.94622 0.0
Mg115 Mg 0.17924 0.75944 0.92241 0.0
C116 C 0.19332 0.81864 0.97087 0.0
C117 C 0.1128 0.70832 0.04922 0.0
O118 O 0.10383 0.68178 0.03265 0.0
O119 O 0.18964 0.73204 0.99692 0.0
O120 O 0.21061 0.74736 0.95355 0.0
O121 O 0.09858 0.744 0.97543 0.0
O122 O 0.13412 0.73524 0.94935 0.0
C123 C 0.21263 0.73813 0.97845 0.0
C124 C 0.11003 0.74273 0.95091 0.0
O125 O 0.13297 0.73824 0.03963 0.0
Mg126 Mg 0.40668 0.14729 0.32239 0.0
O127 O 0.38285 0.18278 0.32188 0.0
O128 O 0.3915 0.2049 0.27865 0.0
Mg129 Mg 0.42314 0.18784 0.25313 0.0
C130 C 0.37915 0.20127 0.3033 0.0
C131 C 0.36812 0.1202 0.37865 0.0
O132 O 0.34272 0.11369 0.36145 0.0
O133 O 0.46095 0.19494 0.32711 0.0
O134 O 0.46789 0.21608 0.28374 0.0
O135 O 0.3571 0.10528 0.30438 0.0
O136 O 0.40149 0.14192 0.27912 0.0
C137 C 0.47907 0.21733 0.30856 0.0
C138 C 0.36982 0.11805 0.28013 0.0
O139 O 0.39882 0.13757 0.36967 0.0
Mg140 Mg 0.26978 0.4054 0.6524 0.0
O141 O 0.21028 0.38146 0.65333 0.0
O142 O 0.19515 0.38901 0.61034 0.0
Mg143 Mg 0.24281 0.42103 0.58407 0.0
C144 C 0.18736 0.37713 0.63519 0.0
C145 C 0.30361 0.40428 0.70598 0.0
O146 O 0.32771 0.418 0.6868 0.0
O147 O 0.277 0.45991 0.65739 0.0
O148 O 0.25886 0.4653 0.61502 0.0
O149 O 0.26126 0.35559 0.63454 0.0
O150 O 0.26828 0.39977 0.60916 0.0
C151 C 0.27026 0.47697 0.63947 0.0
C152 C 0.26033 0.36802 0.61033 0.0
O153 O 0.27331 0.39727 0.69936 0.0
Mg154 Mg 0.86536 0.26122 0.98486 0.0
O155 O 0.83164 0.2016 0.98758 0.0
O156 O 0.80615 0.18428 0.9457 0.0
Mg157 Mg 0.81794 0.23053 0.91872 0.0
C158 C 0.81244 0.17774 0.97032 0.0
C159 C 0.91203 0.29118 0.03326 0.0
O160 O 0.92791 0.30757 0.01034 0.0
O161 O 0.81741 0.26676 0.99217 0.0
O162 O 0.79095 0.24625 0.95107 0.0
O163 O 0.90616 0.25355 0.96481 0.0
O164 O 0.86624 0.25832 0.9415 0.0
C165 C 0.7921 0.25842 0.97546 0.0
C166 C 0.89083 0.2515 0.94135 0.0
O167 O 0.88086 0.26716 0.03121 0.0
H168 H 0.23506 0.50963 0.30649 0.0
H169 H 0.28649 0.56539 0.29665 0.0
H170 H 0.30276 0.58601 0.38518 0.0
H171 H 0.25176 0.53099 0.39518 0.0
H172 H 0.3128 0.64346 0.35276 0.0
H173 H 0.38472 0.58193 0.31134 0.0
H174 H 0.34394 0.56888 0.29498 0.0
H175 H 0.34544 0.55841 0.33105 0.0
C176 C 0.24938 0.52624 0.32381 0.0
C177 C 0.23945 0.51563 0.35161 0.0
C178 C 0.27885 0.55797 0.31818 0.0
C179 C 0.29871 0.57959 0.34024 0.0
C180 C 0.28795 0.56969 0.36786 0.0
H181 H 0.49492 0.77194 0.35817 0.0
H182 H 0.4384 0.72111 0.36701 0.0
C183 C 0.25878 0.53808 0.3735 0.0
C184 C 0.33152 0.6119 0.33492 0.0
H185 H 0.41316 0.64246 0.31071 0.0
C186 C 0.33476 0.64332 0.34349 0.0
C187 C 0.3602 0.61156 0.32314 0.0
C188 C 0.35871 0.57843 0.31477 0.0
C189 C 0.36577 0.67452 0.34008 0.0
C190 C 0.39445 0.67416 0.32829 0.0
C191 C 0.39116 0.6427 0.31978 0.0
C192 C 0.4278 0.70611 0.32342 0.0
C193 C 0.36739 0.70765 0.34858 0.0
C194 C 0.4407 0.7144 0.29613 0.0
C195 C 0.47284 0.74307 0.29108 0.0
C196 C 0.49313 0.76427 0.31324 0.0
C197 C 0.47996 0.75631 0.34063 0.0
C198 C 0.4476 0.72735 0.34568 0.0
H199 H 0.34135 0.7044 0.35114 0.0
H200 H 0.38108 0.71638 0.36891 0.0
H201 H 0.38173 0.72812 0.33286 0.0
H202 H 0.42594 0.69843 0.27864 0.0
H203 H 0.48188 0.74833 0.26966 0.0
H204 H 0.727 0.23749 0.6333 0.0
H205 H 0.72029 0.28782 0.62469 0.0
H206 H 0.73529 0.31279 0.71262 0.0
H207 H 0.7415 0.26294 0.72147 0.0
H208 H 0.68121 0.31822 0.68987 0.0
H209 H 0.79977 0.38782 0.62573 0.0
H210 H 0.76903 0.34546 0.61366 0.0
H211 H 0.7906 0.35064 0.64652 0.0
C212 C 0.72873 0.25364 0.65078 0.0
C213 C 0.73506 0.24617 0.67802 0.0
C214 C 0.72506 0.28249 0.64582 0.0
C215 C 0.72772 0.30432 0.668 0.0
C216 C 0.7332 0.2964 0.69519 0.0
H217 H 0.73464 0.50008 0.69373 0.0
H218 H 0.72935 0.44331 0.70012 0.0
C219 C 0.73689 0.26781 0.70014 0.0
C220 C 0.72556 0.33592 0.66329 0.0
H221 H 0.76719 0.41508 0.63251 0.0
C222 C 0.6999 0.33937 0.67722 0.0
C223 C 0.75013 0.36358 0.64698 0.0
C224 C 0.77915 0.362 0.63252 0.0
C225 C 0.69801 0.36963 0.67511 0.0
C226 C 0.72279 0.3974 0.65902 0.0
C227 C 0.74822 0.39379 0.64488 0.0
C228 C 0.72272 0.43034 0.656 0.0
C229 C 0.66925 0.37142 0.68979 0.0
C230 C 0.72067 0.44188 0.6292 0.0
C231 C 0.72393 0.4742 0.62552 0.0
C232 C 0.72942 0.49594 0.64857 0.0
C233 C 0.73021 0.4839 0.67559 0.0
C234 C 0.7271 0.45142 0.67925 0.0
H235 H 0.64771 0.34542 0.6951 0.0
H236 H 0.67917 0.38609 0.70958 0.0
H237 H 0.65915 0.38481 0.67665 0.0
H238 H 0.71722 0.42611 0.61097 0.0
H239 H 0.72289 0.48243 0.6044 0.0
H240 H 0.47769 0.69081 0.99176 0.0
H241 H 0.42068 0.68435 0.98376 0.0
H242 H 0.45095 0.77709 0.03109 0.0
H243 H 0.50682 0.7825 0.04022 0.0
H244 H 0.39082 0.72977 0.04759 0.0
H245 H 0.38951 0.73215 0.93146 0.0
H246 H 0.3952 0.69833 0.94561 0.0
H247 H 0.42774 0.74249 0.95116 0.0
C248 C 0.4722 0.71001 3e-05 0.0
C249 C 0.49662 0.73715 0.01658 0.0
C250 C 0.43966 0.70638 0.99542 0.0
C251 C 0.43145 0.7304 0.00662 0.0
C252 C 0.45642 0.75807 0.02236 0.0
H253 H 0.27646 0.77647 0.95703 0.0
H254 H 0.3271 0.77132 0.96558 0.0
C255 C 0.48845 0.76125 0.02746 0.0
C256 C 0.39672 0.7266 0.00312 0.0
H257 H 0.33865 0.72154 0.95439 0.0
C258 C 0.37941 0.72796 0.02718 0.0
C259 C 0.38177 0.72429 0.97652 0.0
C260 C 0.39961 0.72455 0.9497 0.0
C261 C 0.34838 0.72838 0.02539 0.0
C262 C 0.33336 0.72595 -0.00121 0.0
C263 C 0.35004 0.72331 0.97481 0.0
C264 C 0.30214 0.72917 0.99494 0.0
C265 C 0.33305 0.73316 0.05193 0.0
C266 C 0.27105 0.70751 0.00888 0.0
C267 C 0.24202 0.71103 0.0045 0.0
C268 C 0.2434 0.73559 0.98551 0.0
C269 C 0.2745 0.75713 0.97167 0.0
C270 C 0.3035 0.75412 0.97647 0.0
H271 H 0.35223 0.74372 0.06918 0.0
H272 H 0.3227 0.75073 0.0485 0.0
H273 H 0.31169 0.70788 0.05885 0.0
H274 H 0.269 0.6875 0.02274 0.0
H275 H 0.21827 0.69383 0.01518 0.0
H276 H 0.51187 0.23616 0.35995 0.0
H277 H 0.56881 0.28586 0.37007 0.0
H278 H 0.58179 0.3134 0.28266 0.0
H279 H 0.52577 0.26416 0.27231 0.0
H280 H 0.64045 0.3174 0.30701 0.0
H281 H 0.58953 0.38623 0.37003 0.0
H282 H 0.57696 0.34338 0.38141 0.0
H283 H 0.5623 0.34982 0.34816 0.0
C284 C 0.52694 0.25271 0.3429 0.0
C285 C 0.514 0.2462 0.31536 0.0
C286 C 0.55938 0.28119 0.34872 0.0
C287 C 0.57934 0.30357 0.32713 0.0
C288 C 0.56684 0.29656 0.29964 0.0
H289 H 0.77011 0.49844 0.3069 0.0
H290 H 0.71851 0.44218 0.29914 0.0
C291 C 0.53461 0.26834 0.29382 0.0
C292 C 0.61295 0.33485 0.33284 0.0
H293 H 0.64956 0.4133 0.36484 0.0
C294 C 0.64253 0.33833 0.31977 0.0
C295 C 0.61553 0.36222 0.3493 0.0
C296 C 0.58442 0.36054 0.36289 0.0
C297 C 0.67468 0.36836 0.32289 0.0
C298 C 0.67716 0.39586 0.33911 0.0
C299 C 0.64762 0.39221 0.35238 0.0
C300 C 0.7101 0.42859 0.34308 0.0
C301 C 0.70573 0.37016 0.30914 0.0
C302 C 0.7225 0.43967 0.37026 0.0
C303 C 0.75159 0.47174 0.37472 0.0
C304 C 0.7691 0.49365 0.3521 0.0
C305 C 0.75738 0.48211 0.32474 0.0
C306 C 0.72796 0.44991 0.32029 0.0
H307 H 0.70136 0.34417 0.30386 0.0
H308 H 0.71131 0.38504 0.28941 0.0
H309 H 0.72869 0.3833 0.3229 0.0
H310 H 0.70923 0.4237 0.38815 0.0
H311 H 0.75998 0.47959 0.39608 0.0
H312 H 0.23509 0.72776 0.6988 0.0
H313 H 0.2442 0.67939 0.69117 0.0
H314 H 0.33287 0.74321 0.64026 0.0
H315 H 0.32293 0.79201 0.6471 0.0
H316 H 0.29684 0.68079 0.61813 0.0
H317 H 0.31424 0.66436 0.73006 0.0
H318 H 0.27396 0.66275 0.72496 0.0
H319 H 0.31352 0.70168 0.71694 0.0
C320 C 0.25652 0.73157 0.68588 0.0
C321 C 0.27857 0.76379 0.67381 0.0
C322 C 0.26192 0.70393 0.68178 0.0
C323 C 0.29003 0.70793 0.6661 0.0
C324 C 0.31134 0.73968 0.65289 0.0
H325 H 0.31901 0.52687 0.67397 0.0
H326 H 0.33032 0.58613 0.67997 0.0
C327 C 0.30558 0.76746 0.65665 0.0
C328 C 0.29601 0.67832 0.66317 0.0
H329 H 0.2957 0.61356 0.70102 0.0
C330 C 0.29724 0.66646 0.63627 0.0
C331 C 0.29768 0.66004 0.68678 0.0
C332 C 0.30021 0.67316 0.71627 0.0
C333 C 0.29744 0.63554 0.63236 0.0
C334 C 0.29512 0.6153 0.65597 0.0
C335 C 0.29659 0.6285 0.68287 0.0
C336 C 0.28848 0.57945 0.6531 0.0
C337 C 0.29981 0.62482 0.60289 0.0
C338 C 0.2605 0.55564 0.63701 0.0
C339 C 0.25433 0.52223 0.63337 0.0
C340 C 0.27543 0.5114 0.64632 0.0
C341 C 0.30235 0.53453 0.66375 0.0
C342 C 0.30891 0.56839 0.66704 0.0
H343 H 0.31444 0.64763 0.58923 0.0
H344 H 0.31245 0.60898 0.60231 0.0
H345 H 0.27356 0.60961 0.59397 0.0
H346 H 0.2434 0.56292 0.62705 0.0
H347 H 0.233 0.50482 0.62019 0.0
H348 H 0.72554 0.21707 0.96126 0.0
H349 H 0.67737 0.22654 0.96895 0.0
H350 H 0.7437 0.31974 0.01438 0.0
H351 H 0.79222 0.3095 0.00756 0.0
H352 H 0.68278 0.28613 0.0388 0.0
H353 H 0.6603 0.29286 0.92616 0.0
H354 H 0.65866 0.25303 0.93386 0.0
H355 H 0.69815 0.29309 0.93915 0.0
C356 C 0.72989 0.2395 0.97307 0.0
C357 C 0.76271 0.26275 0.98358 0.0
C358 C 0.70237 0.2451 0.97717 0.0
C359 C 0.70712 0.27458 0.99125 0.0
C360 C 0.73954 0.2971 0.00301 0.0
H361 H 0.52923 0.30848 0.98258 0.0
H362 H 0.58745 0.31732 0.97577 0.0
C363 C 0.76717 0.29116 -0.00072 0.0
C364 C 0.67777 0.28098 0.99395 0.0
H365 H 0.61176 0.27875 0.95651 0.0
C366 C 0.6676 0.2851 0.02075 0.0
C367 C 0.65841 0.28079 0.97039 0.0
C368 C 0.66973 0.28012 0.94078 0.0
C369 C 0.63737 0.28655 0.02476 0.0
C370 C 0.61608 0.28258 0.00144 0.0
C371 C 0.62754 0.28097 0.97448 0.0
C372 C 0.58086 0.27742 0.00483 0.0
C373 C 0.62853 0.29209 0.05404 0.0
C374 C 0.5574 0.2513 0.02251 0.0
C375 C 0.52459 0.24652 0.02659 0.0
C376 C 0.51398 0.26719 0.01257 0.0
C377 C 0.53672 0.29221 0.99367 0.0
C378 C 0.57 0.29736 0.9899 0.0
H379 H 0.65213 0.30735 0.06677 0.0
H380 H 0.61347 0.30557 0.05393 0.0
H381 H 0.61313 0.26681 0.06448 0.0
H382 H 0.5645 0.23455 0.03333 0.0
H383 H 0.50747 0.22657 0.0409 0.0
H384 H 0.20374 0.35808 0.31154 0.0
H385 H 0.23333 0.32582 0.30134 0.0
H386 H 0.25837 0.32833 0.38877 0.0
H387 H 0.22941 0.36064 0.39919 0.0
H388 H 0.30683 0.34889 0.31692 0.0
H389 H 0.21102 0.22409 0.36424 0.0
H390 H 0.20005 0.25583 0.35293 0.0
H391 H 0.2235 0.26207 0.38489 0.0
C392 C 0.21548 0.35171 0.32859 0.0
C393 C 0.21414 0.36198 0.35617 0.0
C394 C 0.23235 0.33329 0.32273 0.0
C395 C 0.24765 0.32442 0.34438 0.0
C396 C 0.24634 0.33457 0.37185 0.0
H397 H 0.35839 0.21137 0.3549 0.0
H398 H 0.32694 0.24174 0.36506 0.0
C399 C 0.22986 0.35321 0.37769 0.0
C400 C 0.2661 0.30556 0.3383 0.0
H401 H 0.26354 0.22917 0.34931 0.0
C402 C 0.29733 0.32264 0.3238 0.0
C403 C 0.2538 0.27155 0.34774 0.0
C404 C 0.22015 0.25207 0.36318 0.0
C405 C 0.31693 0.30675 0.31878 0.0
C406 C 0.30439 0.27243 0.32779 0.0
C407 C 0.27313 0.25541 0.34239 0.0
C408 C 0.32302 0.2536 0.32174 0.0
C409 C 0.35134 0.32728 0.30456 0.0
C410 C 0.33065 0.24956 0.29403 0.0
C411 C 0.34891 0.23269 0.28822 0.0
C412 C 0.35943 0.2188 0.30995 0.0
C413 C 0.35084 0.2219 0.33769 0.0
C414 C 0.33283 0.23921 0.34352 0.0
H415 H 0.36178 0.35538 0.30708 0.0
H416 H 0.37038 0.32071 0.31302 0.0
H417 H 0.34823 0.3215 0.28181 0.0
H418 H 0.32244 0.25945 0.2768 0.0
H419 H 0.35462 0.23041 0.26657 0.0
H420 H 0.85647 0.20804 0.63972 0.0
H421 H 0.91852 0.23648 0.63138 0.0
H422 H 0.93746 0.25634 0.71985 0.0
H423 H 0.87595 0.22924 0.72824 0.0
H424 H 0.97853 0.31221 0.69011 0.0
H425 H 0.98331 0.20061 0.64577 0.0
H426 H 0.95466 0.21051 0.62708 0.0
H427 H 0.94558 0.1963 0.66288 0.0
C428 C 0.87385 0.2184 0.65739 0.0
C429 C 0.86111 0.21624 0.68464 0.0
C430 C 0.90933 0.23441 0.65263 0.0
C431 C 0.93269 0.24802 0.67506 0.0
C432 C 0.92 0.24595 0.70222 0.0
H433 H 0.15796 0.35485 0.68719 0.0
H434 H 0.09635 0.3227 0.69838 0.0
C435 C 0.88469 0.23036 0.70695 0.0
C436 C 0.97042 0.2656 0.67033 0.0
H437 H 0.03448 0.25521 0.64201 0.0
C438 C 0.99077 0.29961 0.67981 0.0
C439 C 0.98646 0.24911 0.65702 0.0
C440 C 0.96644 0.21201 0.64785 0.0
C441 C 0.0265 0.31782 0.67574 0.0
C442 C 0.04233 0.30157 0.66192 0.0
C443 C 0.02216 0.26752 0.65264 0.0
C444 C 0.07956 0.32021 0.65553 0.0
C445 C 0.04705 0.35463 0.68553 0.0
C446 C 0.09034 0.32901 0.62777 0.0
C447 C 0.12528 0.34748 0.62136 0.0
C448 C 0.15032 0.35725 0.64256 0.0
C449 C 0.13941 0.34783 0.67039 0.0
C450 C 0.10427 0.32955 0.67682 0.0
H451 H 0.03033 0.36496 0.69236 0.0
H452 H 0.06354 0.3562 0.70344 0.0
H453 H 0.06416 0.3712 0.66854 0.0
H454 H 0.07165 0.32196 0.61106 0.0
H455 H 0.13259 0.35409 0.59968 0.0
H456 H 0.78127 0.12168 0.93612 0.0
H457 H 0.75462 0.06122 0.94889 0.0
H458 H 0.78218 0.08941 0.03529 0.0
H459 H 0.80913 0.15051 0.02272 0.0
H460 H 0.78493 0.02553 0.97741 0.0
H461 H 0.67577 0.02215 0.0352 0.0
H462 H 0.70205 0.0562 0.01106 0.0
H463 H 0.71828 0.05513 0.04518 0.0
C464 C 0.78172 0.11522 0.9579 0.0
C465 C 0.79712 0.14107 0.97846 0.0
C466 C 0.76656 0.08056 0.96511 0.0
C467 C 0.76613 0.07086 0.99303 0.0
C468 C 0.78192 0.09644 0.01364 0.0
H469 H 0.66124 0.86956 0.07086 0.0
H470 H 0.69622 0.93077 0.06098 0.0
C471 C 0.79739 0.1313 0.00641 0.0
C472 C 0.74852 0.03385 0.00034 0.0
H473 H 0.67757 0.97074 0.03321 0.0
C474 C 0.76153 0.01349 0.98971 0.0
C475 C 0.718 0.01832 0.01631 0.0
C476 C 0.70241 0.03889 0.0275 0.0
C477 C 0.74491 0.97793 0.99483 0.0
C478 C 0.71399 0.96224 0.0104 0.0
C479 C 0.70122 0.98276 0.02123 0.0
C480 C 0.69443 0.92466 0.01597 0.0
C481 C 0.76096 0.95767 0.98393 0.0
C482 C 0.6818 0.90067 0.99392 0.0
C483 C 0.66186 0.86539 -0.00049 0.0
C484 C 0.65371 0.85357 0.02724 0.0
C485 C 0.66668 0.87772 0.04921 0.0
C486 C 0.68679 0.9128 0.04363 0.0
H487 H 0.78886 0.97451 0.9798 0.0
H488 H 0.75757 0.93734 -0.00104 0.0
H489 H 0.74838 0.94513 0.9639 0.0
H490 H 0.6867 0.90925 0.97237 0.0
H491 H 0.65214 0.8475 0.98213 0.0
H492 H 0.6473 0.79743 0.3545 0.0
H493 H 0.67954 0.76769 0.36435 0.0
H494 H 0.68628 0.753 0.2759 0.0
H495 H 0.65431 0.78247 0.26581 0.0
H496 H 0.65977 0.69751 0.34581 0.0
H497 H 0.78715 0.79693 0.30536 0.0
H498 H 0.75399 0.80656 0.31503 0.0
H499 H 0.75119 0.7854 0.28244 0.0
C500 C 0.65578 0.788 0.33716 0.0
C501 C 0.64806 0.79222 0.30939 0.0
C502 C 0.67415 0.77101 0.34282 0.0
C503 C 0.68554 0.75849 0.32082 0.0
C504 C 0.67809 0.76286 0.29314 0.0
H505 H 0.79988 0.64909 0.3093 0.0
H506 H 0.76893 0.68003 0.29932 0.0
C507 C 0.65955 0.77952 0.28747 0.0
C508 C 0.70415 0.73967 0.32667 0.0
H509 H 0.78112 0.743 0.31738 0.0
C510 C 0.68637 0.70749 0.33978 0.0
C511 C 0.73867 0.75263 0.31841 0.0
C512 C 0.75907 0.78739 0.3047 0.0
C513 C 0.70205 0.68762 0.34453 0.0
C514 C 0.73678 0.70074 0.3366 0.0
C515 C 0.75452 0.73294 0.32342 0.0
C516 C 0.7554 0.68184 0.34251 0.0
C517 C 0.68095 0.65238 0.35733 0.0
C518 C 0.75852 0.67306 0.37009 0.0
C519 C 0.77584 0.65519 0.37582 0.0
C520 C 0.79094 0.64607 0.35411 0.0
C521 C 0.78841 0.65551 0.32649 0.0
C522 C 0.77078 0.67324 0.32076 0.0
H523 H 0.65298 0.6421 0.3541 0.0
H524 H 0.68791 0.63387 0.34836 0.0
H525 H 0.68576 0.6541 0.38023 0.0
H526 H 0.74776 0.68027 0.38731 0.0
H527 H 0.77765 0.64885 0.3974 0.0
H528 H 0.15629 0.82892 0.65338 0.0
H529 H 0.0939 0.80161 0.64649 0.0
H530 H 0.07897 0.71714 0.69916 0.0
H531 H 0.1408 0.74508 0.70718 0.0
H532 H 0.04699 0.74441 0.62462 0.0
H533 H 0.015 0.74106 0.73646 0.0
H534 H 0.05866 0.76425 0.72397 0.0
H535 H 0.03817 0.71872 0.73085 0.0
C536 C 0.13961 0.80446 0.66335 0.0
C537 C 0.15331 0.78925 0.681 0.0
C538 C 0.10398 0.78893 0.65951 0.0
C539 C 0.08156 0.75778 0.67301 0.0
C540 C 0.09551 0.7418 0.68943 0.0
H541 H 0.87316 0.6154 0.6219 0.0
H542 H 0.93512 0.64776 0.62996 0.0
C543 C 0.13092 0.75761 0.69375 0.0
C544 C 0.04365 0.74156 0.66962 0.0
H545 H 0.96825 0.70378 0.70616 0.0
C546 C 0.02981 0.73587 0.64247 0.0
C547 C 0.02109 0.73117 0.69287 0.0
C548 C 0.03405 0.7395 0.72264 0.0
C549 C 0.99415 0.71898 0.63793 0.0
C550 C 0.97157 0.70607 0.66114 0.0
C551 C 0.98542 0.71295 0.6883 0.0
C552 C 0.9336 0.68513 0.6577 0.0
C553 C 0.98123 0.71573 0.60826 0.0
C554 C 0.91171 0.69387 0.67204 0.0
C555 C 0.87605 0.67462 0.66818 0.0
C556 C 0.86172 0.64655 0.64965 0.0
C557 C 0.88354 0.63719 0.63604 0.0
C558 C 0.91902 0.65593 0.64038 0.0
H559 H 1.00049 0.73671 0.59481 0.0
H560 H 0.97664 0.691 0.59926 0.0
H561 H 0.95687 0.71641 0.60738 0.0
H562 H 0.92225 0.71607 0.68575 0.0
H563 H 0.85984 0.68251 0.67882 0.0
H564 H 0.35464 0.15215 0.97389 0.0
H565 H 0.32036 0.09031 0.96378 0.0
H566 H 0.32264 0.06764 0.05119 0.0
H567 H 0.35673 0.12878 0.06151 0.0
H568 H 0.34024 0.03878 0.97713 0.0
H569 H 0.21905 0.01243 0.02932 0.0
H570 H 0.2516 0.05512 0.0188 0.0
H571 H 0.25742 0.03613 0.04992 0.0
C572 C 0.34771 0.134 0.99096 0.0
C573 C 0.35847 0.14553 0.01851 0.0
C574 C 0.32814 0.09872 0.98515 0.0
C575 C 0.31862 0.0745 0.00682 0.0
C576 C 0.32924 0.08592 0.03425 0.0
H577 H 0.20799 0.85162 0.02185 0.0
H578 H 0.23843 0.91388 0.03034 0.0
C579 C 0.34894 0.12099 0.04004 0.0
C580 C 0.2988 0.03714 0.00085 0.0
H581 H 0.22317 0.96391 0.01524 0.0
C582 C 0.31452 0.02239 0.98521 0.0
C583 C 0.26546 0.01588 0.01177 0.0
C584 C 0.24717 0.03062 0.02822 0.0
C585 C 0.29806 0.98675 0.98067 0.0
C586 C 0.26458 0.96541 0.99146 0.0
C587 C 0.24881 0.98025 0.00702 0.0
C588 C 0.24536 0.92772 0.98645 0.0
C589 C 0.31717 0.97222 0.96509 0.0
C590 C 0.23846 0.91487 0.95903 0.0
C591 C 0.22143 0.8795 0.95414 0.0
C592 C 0.21042 0.85608 0.97659 0.0
C593 C 0.21627 0.86895 0.00411 0.0
C594 C 0.23364 0.9045 0.00898 0.0
H595 H 0.34541 0.99005 0.96565 0.0
H596 H 0.31163 0.94712 0.97399 0.0
H597 H 0.30897 0.96822 0.94283 0.0
H598 H 0.24631 0.93223 0.94132 0.0
H599 H 0.21679 0.87054 0.93265 0.0
H600 H 0.97868 0.34024 0.04174 0.0
H601 H 0.01114 0.35654 0.08529 0.0
H602 H 0.92173 0.28089 0.12987 0.0
H603 H 0.88881 0.26384 0.08586 0.0
H604 H 0.99879 0.38277 0.13258 0.0
H605 H 0.99696 0.26071 0.15605 0.0
H606 H 0.98532 0.2697 0.12218 0.0
H607 H 0.95538 0.25643 0.15072 0.0
C608 C 0.96576 0.32684 0.06072 0.0
C609 C 0.93105 0.30064 0.06025 0.0
C610 C 0.98447 0.33626 0.08565 0.0
C611 C 0.96907 0.31972 0.11081 0.0
C612 C 0.93435 0.29359 0.1106 0.0
H613 H 0.04349 0.39764 0.27664 0.0
H614 H 0.01283 0.37891 0.23229 0.0
C615 C 0.91549 0.28403 0.08549 0.0
C616 C 0.98938 0.33107 0.13719 0.0
H617 H 0.02114 0.30444 0.19071 0.0
C618 C 1.00368 0.36562 0.14526 0.0
C619 C 0.99625 0.30884 0.15348 0.0
C620 C 0.98297 0.27191 0.14513 0.0
C621 C 0.0242 0.37845 0.16934 0.0
C622 C 0.03021 0.35601 0.18612 0.0
C623 C 0.01641 0.32157 0.17786 0.0
C624 C 0.04951 0.36759 0.21291 0.0
C625 C 0.03962 0.41607 0.17645 0.0
C626 C 0.08022 0.367 0.21698 0.0
C627 C 0.09799 0.37774 0.24253 0.0
C628 C 0.08509 0.3889 0.26449 0.0
C629 C 0.05433 0.38939 0.2602 0.0
C630 C 0.03674 0.37878 0.23478 0.0
H631 H 0.0407 0.43144 0.15784 0.0
H632 H 0.02348 0.41906 0.1925 0.0
H633 H 0.06598 0.42676 0.18508 0.0
H634 H 0.09044 0.3583 0.20038 0.0
H635 H 0.12147 0.37683 0.24522 0.0
H636 H 0.76065 0.11596 0.57777 0.0
H637 H 0.74973 0.07845 0.53707 0.0
H638 H 0.64071 0.03762 0.54667 0.0
H639 H 0.65131 0.07503 0.58691 0.0
H640 H 0.71133 0.0062 0.53824 0.0
H641 H 0.65447 0.05787 0.46298 0.0
H642 H 0.67864 0.08172 0.49334 0.0
H643 H 0.63439 0.04857 0.49677 0.0
C644 C 0.73441 0.09956 0.57081 0.0
C645 C 0.70686 0.09855 0.5856 0.0
C646 C 0.7282 0.07799 0.54766 0.0
C647 C 0.69441 0.0554 0.53868 0.0
C648 C 0.66701 0.05522 0.55287 0.0
H649 H 0.59292 0.89279 0.41554 0.0
H650 H 0.60706 0.93148 0.45572 0.0
C651 C 0.67315 0.07659 0.57599 0.0
C652 C 0.68739 0.03029 0.51578 0.0
H653 H 0.64695 1.00259 0.45261 0.0
C654 C 0.69755 0.00559 0.51938 0.0
C655 C 0.66918 0.02935 0.49128 0.0
C656 C 0.6588 0.05598 0.48567 0.0
C657 C 0.68924 0.97947 0.49949 0.0
C658 C 0.67073 0.97835 0.47511 0.0
C659 C 0.66087 1.00326 0.47141 0.0
C660 C 0.662 0.95215 0.45278 0.0
C661 C 0.69952 0.95277 0.50512 0.0
C662 C 0.6881 0.95042 0.43807 0.0
C663 C 0.68009 0.92822 0.41519 0.0
C664 C 0.6458 0.90746 0.40635 0.0
C665 C 0.61958 0.90828 0.4218 0.0
C666 C 0.62763 0.93053 0.4447 0.0
H667 H 0.70469 0.95147 0.52772 0.0
H668 H 0.67923 0.92691 0.49809 0.0
H669 H 0.72341 0.95962 0.49342 0.0
H670 H 0.71482 0.96723 0.44356 0.0
H671 H 0.70098 0.92841 0.40375 0.0
H672 H 0.59439 0.70009 0.92025 0.0
H673 H 0.60877 0.67733 0.87903 0.0
H674 H 0.71669 0.74344 0.89612 0.0
H675 H 0.70267 0.76613 0.9374 0.0
H676 H 0.64911 0.70979 0.83089 0.0
H677 H 0.70555 0.64671 0.89464 0.0
H678 H 0.67939 0.66269 0.90969 0.0
H679 H 0.72354 0.69193 0.90101 0.0
C680 C 0.62119 0.71012 0.91506 0.0
C681 C 0.64736 0.73472 0.93233 0.0
C682 C 0.62936 0.697 0.89153 0.0
C683 C 0.66379 0.7081 0.8849 0.0
C684 C 0.68995 0.7339 0.90124 0.0
H685 H 0.75992 0.6478 0.75453 0.0
H686 H 0.74894 0.67333 0.79588 0.0
C687 C 0.68184 0.74703 0.92473 0.0
C688 C 0.67233 0.69222 0.86123 0.0
H689 H 0.71019 0.64451 0.84543 0.0
C690 C 0.66239 0.69547 0.83406 0.0
C691 C 0.68979 0.67362 0.86541 0.0
C692 C 0.69998 0.66819 0.89427 0.0
C693 C 0.66973 0.68091 0.81092 0.0
C694 C 0.68684 0.66198 0.81512 0.0
C695 C 0.69708 0.65901 0.84226 0.0
C696 C 0.69358 0.64449 0.79161 0.0
C697 C 0.65956 0.68641 0.78208 0.0
C698 C 0.66611 0.61882 0.77622 0.0
C699 C 0.67226 0.6042 0.75271 0.0
C700 C 0.70607 0.61475 0.74416 0.0
C701 C 0.73359 0.6391 0.76053 0.0
C702 C 0.72736 0.65381 0.7841 0.0
H703 H 0.65539 0.7088 0.78155 0.0
H704 H 0.67948 0.69054 0.76639 0.0
H705 H 0.63515 0.66326 0.77583 0.0
H706 H 0.63982 0.61059 0.78206 0.0
H707 H 0.65044 0.58529 0.74077 0.0
H708 H 0.11156 0.75719 0.0831 0.0
H709 H 0.07466 0.74705 0.12396 0.0
H710 H 0.03529 0.63795 0.11653 0.0
H711 H 0.07212 0.64779 0.07609 0.0
H712 H 1.00247 0.70762 0.12329 0.0
H713 H 0.05684 0.65492 0.19998 0.0
H714 H 0.08 0.6783 0.16919 0.0
H715 H 0.04736 0.63374 0.1666 0.0
C716 C 0.09562 0.73112 0.09056 0.0
C717 C 0.09482 0.7033 0.07632 0.0
C718 C 0.0744 0.72536 0.11381 0.0
C719 C 0.05239 0.69176 0.12343 0.0
C720 C 0.05245 0.66412 0.10981 0.0
H721 H 0.89234 0.5927 0.24822 0.0
H722 H 0.93025 0.60602 0.20772 0.0
C723 C 0.07348 0.66982 0.08658 0.0
C724 C 0.02756 0.68516 0.14639 0.0
H725 H 1.00145 0.64696 0.21039 0.0
C726 C 1.00242 0.69466 0.14247 0.0
C727 C 0.02738 0.66802 0.17129 0.0
C728 C 0.05453 0.65842 0.17721 0.0
C729 C 0.97659 0.68671 0.16247 0.0
C730 C 0.97622 0.66926 0.18726 0.0
C731 C 1.00157 0.66007 0.19128 0.0
C732 C 0.95034 0.66095 0.20969 0.0
C733 C 0.94939 0.69623 0.15655 0.0
C734 C 0.94851 0.68732 0.22392 0.0
C735 C 0.92677 0.67979 0.24699 0.0
C736 C 0.90658 0.64572 0.25648 0.0
C737 C 0.90741 0.61919 0.24146 0.0
C738 C 0.92921 0.62677 0.21838 0.0
H739 H 0.94768 0.70065 0.13386 0.0
H740 H 0.92378 0.67585 0.16389 0.0
H741 H 0.95599 0.72037 0.16783 0.0
H742 H 0.96496 0.71392 0.21792 0.0
H743 H 0.9269 0.70089 0.25809 0.0
H744 H 0.41405 0.1194 0.41628 0.0
H745 H 0.40089 0.0815 0.45687 0.0
H746 H 0.29253 0.04086 0.44291 0.0
H747 H 0.30532 0.07836 0.40226 0.0
H748 H 0.36182 0.0724 0.50655 0.0
H749 H 0.30367 0.95504 0.44007 0.0
H750 H 0.32966 0.99767 0.4258 0.0
H751 H 0.28579 0.98267 0.4355 0.0
C752 C 0.38742 0.10277 0.42206 0.0
C753 C 0.36074 0.1017 0.4058 0.0
C754 C 0.37995 0.08105 0.44523 0.0
C755 C 0.34572 0.05779 0.45249 0.0
C756 C 0.31911 0.05804 0.43728 0.0
H757 H 0.25395 0.89593 0.57917 0.0
H758 H 0.26357 0.93421 0.5393 0.0
C759 C 0.32652 0.07972 0.41415 0.0
C760 C 0.33787 0.03263 0.47545 0.0
H761 H 0.30086 0.94658 0.48907 0.0
C762 C 0.34854 0.0449 0.50275 0.0
C763 C 0.32042 0.99673 0.47043 0.0
C764 C 0.30942 0.98211 0.44135 0.0
C765 C 0.34197 0.02225 0.52522 0.0
C766 C 0.32492 0.98636 0.52015 0.0
C767 C 0.31393 0.97406 0.4929 0.0
C768 C 0.31902 0.96134 0.54284 0.0
C769 C 0.35288 0.03694 0.55429 0.0
C770 C 0.34699 0.96296 0.55729 0.0
C771 C 0.34161 0.94119 0.57997 0.0
C772 C 0.30809 0.91709 0.58858 0.0
C773 C 0.28008 0.9142 0.57311 0.0
C774 C 0.28553 0.93614 0.55039 0.0
H775 H 0.3567 0.06332 0.5558 0.0
H776 H 0.33355 0.02042 0.5701 0.0
H777 H 0.37764 0.0384 0.55954 0.0
H778 H 0.37307 0.98156 0.55136 0.0
H779 H 0.3638 0.94391 0.59122 0.0
H780 H 0.42701 0.36097 0.93115 0.0
H781 H 0.40427 0.3741 0.88953 0.0
H782 H 0.3433 0.26597 0.87068 0.0
H783 H 0.36627 0.25244 0.9125 0.0
H784 H 0.37581 0.30715 0.82357 0.0
H785 H 0.3066 0.35906 0.8838 0.0
H786 H 0.35125 0.37884 0.89304 0.0
H787 H 0.32314 0.33379 0.89978 0.0
C788 C 0.40892 0.33987 0.91813 0.0
C789 C 0.39825 0.30559 0.92533 0.0
C790 C 0.39574 0.34747 0.89442 0.0
C791 C 0.3714 0.321 0.87741 0.0
C792 C 0.36176 0.28678 0.88373 0.0
H793 H 0.25832 0.36334 0.74684 0.0
H794 H 0.27171 0.34024 0.78864 0.0
C795 C 0.37501 0.2791 0.90756 0.0
C796 C 0.35636 0.32948 0.85304 0.0
H797 H 0.3145 0.37267 0.83488 0.0
C798 C 0.36206 0.32112 0.82604 0.0
C799 C 0.33785 0.34716 0.85629 0.0
C800 C 0.329 0.35494 0.8848 0.0
C801 C 0.35126 0.33149 0.80217 0.0
C802 C 0.33479 0.35118 0.80539 0.0
C803 C 0.32754 0.35801 0.83241 0.0
C804 C 0.32649 0.36627 0.78097 0.0
C805 C 0.35778 0.32142 0.77368 0.0
C806 C 0.35291 0.38952 0.76342 0.0
C807 C 0.3454 0.40276 0.73972 0.0
C808 C 0.31126 0.39327 0.73307 0.0
C809 C 0.28487 0.37116 0.75135 0.0
C810 C 0.29246 0.35783 0.77517 0.0
H811 H 0.36085 0.29838 0.77486 0.0
H812 H 0.33651 0.316 0.75894 0.0
H813 H 0.38191 0.3429 0.76503 0.0
H814 H 0.37944 0.39715 0.7679 0.0
H815 H 0.36642 0.41997 0.72628 0.0
H816 H 0.1222 0.3876 0.44069 0.0
H817 H 0.13057 0.35626 0.47847 0.0
H818 H 0.10029 0.26927 0.42371 0.0
H819 H 0.09288 0.30131 0.38524 0.0
H820 H 0.09567 0.29508 0.50653 0.0
H821 H 0.19986 0.29884 0.44042 0.0
H822 H 0.17745 0.32097 0.43007 0.0
H823 H 0.15629 0.27493 0.42798 0.0
C824 C 0.11652 0.36149 0.43684 0.0
C825 C 0.10763 0.34717 0.40994 0.0
C826 C 0.12113 0.34347 0.4585 0.0
C827 C 0.11687 0.31071 0.45374 0.0
C828 C 0.10442 0.29481 0.42766 0.0
H829 H 0.21196 0.29928 0.61017 0.0
H830 H 0.17313 0.26777 0.57115 0.0
C831 C 0.09987 0.313 0.4058 0.0
C832 C 0.13049 0.29657 0.47504 0.0
H833 H 0.20433 0.29511 0.48865 0.0
C834 C 0.1188 0.29381 0.50266 0.0
C835 C 0.16051 0.29465 0.46977 0.0
C836 C 0.17451 0.29758 0.44054 0.0
C837 C 0.13876 0.29408 0.5254 0.0
C838 C 0.17072 0.29602 0.52017 0.0
C839 C 0.17992 0.29381 0.4925 0.0
C840 C 0.19825 0.30975 0.54168 0.0
C841 C 0.12742 0.29649 0.55466 0.0
C842 C 0.2267 0.34264 0.53739 0.0
C843 C 0.24896 0.36036 0.55936 0.0
C844 C 0.2432 0.34558 0.58608 0.0
C845 C 0.2169 0.3113 0.58974 0.0
C846 C 0.19451 0.29341 0.56757 0.0
H847 H 0.10332 0.29771 0.55478 0.0
H848 H 0.12293 0.27363 0.56692 0.0
H849 H 0.14776 0.31972 0.56542 0.0
H850 H 0.23025 0.35577 0.51758 0.0
H851 H 0.2693 0.38659 0.55588 0.0
H852 H 0.87954 0.26133 0.88758 0.0
H853 H 0.87137 0.22365 0.84821 0.0
H854 H 0.90319 0.16526 0.8994 0.0
H855 H 0.9109 0.20298 0.93939 0.0
H856 H 0.90892 0.19981 0.81859 0.0
H857 H 0.80266 0.09586 0.88075 0.0
H858 H 0.82392 0.13993 0.8924 0.0
H859 H 0.84586 0.11579 0.89415 0.0
C860 C 0.88571 0.24106 0.89027 0.0
C861 C 0.8954 0.23476 0.91654 0.0
C862 C 0.88115 0.21957 0.86774 0.0
C863 C 0.88606 0.19126 0.87102 0.0
C864 C 0.89878 0.18668 0.89657 0.0
H865 H 0.79614 0.09412 0.71059 0.0
H866 H 0.83304 0.09873 0.7503 0.0
C867 C 0.90348 0.20841 0.91928 0.0
C868 C 0.87295 0.16482 0.84869 0.0
H869 H 0.79896 0.091 0.83215 0.0
C870 C 0.88554 0.17532 0.82148 0.0
C871 C 0.84255 0.13283 0.85271 0.0
C872 C 0.82771 0.12024 0.8815 0.0
C873 C 0.8662 0.1571 0.79799 0.0
C874 C 0.8339 0.12703 0.80202 0.0
C875 C 0.82366 0.11411 0.82921 0.0
C876 C 0.80721 0.11465 0.77985 0.0
C877 C 0.87862 0.17244 0.7693 0.0
C878 C 0.77894 0.11945 0.78385 0.0
C879 C 0.75776 0.11646 0.76146 0.0
C880 C 0.76446 0.10868 0.7346 0.0
C881 C 0.79049 0.10028 0.73111 0.0
C882 C 0.81177 0.10321 0.7537 0.0
H883 H 0.90283 0.19764 0.77017 0.0
H884 H 0.88335 0.15466 0.75644 0.0
H885 H 0.85877 0.17612 0.75853 0.0
H886 H 0.77477 0.12814 0.80386 0.0
H887 H 0.73758 0.12262 0.7648 0.0
H888 H 0.70399 0.90428 0.28308 0.0
H889 H 0.73389 0.89416 0.24455 0.0
H890 H 0.65263 0.8797 0.18803 0.0
H891 H 0.62314 0.88998 0.22615 0.0
H892 H 0.70422 0.83221 0.22103 0.0
H893 H 0.73332 0.9254 0.1364 0.0
H894 H 0.72659 0.93431 0.17203 0.0
H895 H 0.69065 0.91142 0.14849 0.0
C896 C 0.69346 0.90061 0.26212 0.0
C897 C 0.66125 0.89782 0.25748 0.0
C898 C 0.71047 0.89466 0.24017 0.0
C899 C 0.69573 0.88648 0.2133 0.0
C900 C 0.66507 0.88681 0.20832 0.0
H901 H 0.61259 0.72914 0.11208 0.0
H902 H 0.64335 0.76643 0.15135 0.0
C903 C 0.64802 0.89244 0.23019 0.0
C904 C 0.70753 0.87065 0.19203 0.0
H905 H 0.71 0.8646 0.12113 0.0
C906 C 0.7069 0.84 0.19925 0.0
C907 C 0.71194 0.881 0.16368 0.0
C908 C 0.71606 0.91509 0.15483 0.0
C909 C 0.70572 0.81729 0.17855 0.0
C910 C 0.70457 0.82527 0.15008 0.0
C911 C 0.71012 0.85802 0.14297 0.0
C912 C 0.69027 0.79818 0.12824 0.0
C913 C 0.70319 0.78388 0.18745 0.0
C914 C 0.70654 0.80305 0.10219 0.0
C915 C 0.6888 0.78157 0.07956 0.0
C916 C 0.65439 0.7554 0.08265 0.0
C917 C 0.63912 0.74907 0.10919 0.0
C918 C 0.65686 0.77026 0.13174 0.0
H919 H 0.71862 0.78761 0.20669 0.0
H920 H 0.67604 0.76498 0.19249 0.0
H921 H 0.71214 0.77304 0.17073 0.0
H922 H 0.73215 0.82466 0.09894 0.0
H923 H 0.70103 0.78723 0.05921 0.0
H924 H 0.90477 0.63257 0.43636 0.0
H925 H 0.89009 0.65699 0.4761 0.0
H926 H 0.87499 0.72373 0.42024 0.0
H927 H 0.89073 0.7 0.38036 0.0
H928 H 0.90118 0.7467 0.48517 0.0
H929 H 0.78102 0.62406 0.46282 0.0
H930 H 0.81923 0.62071 0.46473 0.0
H931 H 0.81472 0.64554 0.43731 0.0
C932 C 0.9002 0.65379 0.43277 0.0
C933 C 0.8989 0.6645 0.40546 0.0
C934 C 0.89181 0.6677 0.45544 0.0
C935 C 0.88131 0.69196 0.45098 0.0
C936 C 0.88343 0.70531 0.42405 0.0
H937 H 0.72644 0.65408 0.57343 0.0
H938 H 0.75742 0.6791 0.52976 0.0
C939 C 0.89249 0.69179 0.40133 0.0
C940 C 0.86077 0.69647 0.47287 0.0
H941 H 0.78485 0.64977 0.50689 0.0
C942 C 0.87546 0.72594 0.48978 0.0
C943 C 0.82693 0.66976 0.47819 0.0
C944 C 0.80931 0.6383 0.4597 0.0
C945 C 0.85773 0.72829 0.51319 0.0
C946 C 0.82508 0.69998 0.5201 0.0
C947 C 0.80977 0.67162 0.50188 0.0
C948 C 0.80796 0.69649 0.54752 0.0
C949 C 0.87438 0.76086 0.5303 0.0
C950 C 0.82604 0.70004 0.57252 0.0
C951 C 0.80835 0.68706 0.59763 0.0
C952 C 0.77234 0.66939 0.59793 0.0
C953 C 0.75429 0.66802 0.5736 0.0
C954 C 0.77203 0.68214 0.54868 0.0
H955 H 0.88946 0.78359 0.51667 0.0
H956 H 0.85513 0.76456 0.54199 0.0
H957 H 0.89259 0.7598 0.54545 0.0
H958 H 0.85349 0.70991 0.57232 0.0
H959 H 0.82265 0.68783 0.61617 0.0
H960 H 0.12894 0.80949 0.94506 0.0
H961 H 0.13921 0.83948 0.90058 0.0
H962 H 0.08667 0.74192 0.85735 0.0
H963 H 0.07973 0.71218 0.90187 0.0
H964 H 0.145 0.77401 0.83831 0.0
H965 H 0.10203 0.86902 0.83957 0.0
H966 H 0.12702 0.87514 0.87048 0.0
H967 H 0.08728 0.83516 0.86533 0.0
C968 C 0.11839 0.79452 0.92612 0.0
C969 C 0.10365 0.75868 0.92664 0.0
C970 C 0.12397 0.8117 0.90061 0.0
C971 C 0.11364 0.79312 0.87535 0.0
C972 C 0.09508 0.75694 0.87645 0.0
H973 H 0.19845 0.88414 0.7113 0.0
H974 H 0.15806 0.86489 0.75068 0.0
C975 C 0.09084 0.73987 0.90185 0.0
C976 C 0.12896 0.8108 0.84841 0.0
H977 H 0.15449 0.88524 0.81181 0.0
C978 C 0.14602 0.79778 0.83225 0.0
C979 C 0.13057 0.84189 0.84006 0.0
C980 C 0.11035 0.85579 0.8547 0.0
C981 C 0.1661 0.81576 0.80924 0.0
C982 C 0.17049 0.8484 0.80272 0.0
C983 C 0.15182 0.86063 0.81748 0.0
C984 C 0.19582 0.87007 0.78136 0.0
C985 C 0.1834 0.80008 0.79256 0.0
C986 C 0.2307 0.88125 0.78604 0.0
C987 C 0.25354 0.89162 0.76363 0.0
C988 C 0.24196 0.89182 0.73641 0.0
C989 C 0.20805 0.88474 0.73224 0.0
C990 C 0.18494 0.87363 0.75466 0.0
H991 H 0.17046 0.77177 0.79549 0.0
H992 H 0.18352 0.80557 0.76989 0.0
H993 H 0.21045 0.81128 0.79965 0.0
H994 H 0.2395 0.87873 0.80658 0.0
H995 H 0.2795 0.89671 0.76723 0.0
H996 H 0.38918 0.12553 0.22595 0.0
H997 H 0.359 0.13234 0.18639 0.0
H998 H 0.2704 0.10404 0.23849 0.0
H999 H 0.30122 0.09806 0.27871 0.0
H1000 H 0.2982 0.09623 0.15717 0.0
H1001 H 0.30172 0.20357 0.21881 0.0
H1002 H 0.3235 0.18145 0.23088 0.0
H1003 H 0.27745 0.16053 0.23227 0.0
C1004 C 0.36294 0.11987 0.22884 0.0
C1005 C 0.34777 0.11192 0.25544 0.0
C1006 C 0.3456 0.1236 0.20617 0.0
C1007 C 0.31272 0.11947 0.20963 0.0
C1008 C 0.29602 0.10799 0.23552 0.0
H1009 H 0.30433 0.20951 0.04918 0.0
H1010 H 0.27262 0.172 0.08871 0.0
C1011 C 0.31351 0.10426 0.25838 0.0
C1012 C 0.29938 0.13247 0.18717 0.0
H1013 H 0.29942 0.20633 0.17031 0.0
C1014 C 0.29714 0.11965 0.15998 0.0
C1015 C 0.29783 0.16295 0.19104 0.0
C1016 C 0.30033 0.17818 0.21974 0.0
C1017 C 0.29814 0.13881 0.13641 0.0
C1018 C 0.3004 0.17115 0.14034 0.0
C1019 C 0.29783 0.1816 0.16747 0.0
C1020 C 0.31466 0.19774 0.11814 0.0
C1021 C 0.30088 0.12619 0.10775 0.0
C1022 C 0.34775 0.226 0.12214 0.0
C1023 C 0.36561 0.24747 0.09986 0.0
C1024 C 0.35075 0.24114 0.07312 0.0
C1025 C 0.31637 0.21493 0.06964 0.0
C1026 C 0.29837 0.1933 0.0921 0.0
H1027 H 0.30155 0.1018 0.10866 0.0
H1028 H 0.27847 0.12169 0.09481 0.0
H1029 H 0.32451 0.14585 0.09704 0.0
H1030 H 0.36083 0.23003 0.14206 0.0
H1031 H 0.39195 0.26769 0.10317 0.0
loop_
_geom_bond_atom_site_label_1
_geom_bond_atom_site_label_2
_geom_bond_distance
_geom_bond_site_symmetry_2
_ccdc_geom_bond_type
Mg0 O1 2.028 . S
Mg0 O7 1.986 . S
Mg0 O9 2.114 . S
Mg0 O10 2.251 . S
Mg0 O13 2.010 . S
O1 Mg0 2.028 . S
O1 C4 1.250 . S
O2 Mg3 2.028 . S
O2 C4 1.248 . S
Mg3 O2 2.028 . S
Mg3 O8 2.032 . S
Mg3 O10 2.079 . S
C4 O1 1.250 . S
C4 O2 1.248 . S
C5 O6 1.264 . S
C5 O13 1.249 . S
O6 C5 1.264 . S
O7 Mg0 1.986 . S
O7 C11 1.246 . S
O8 Mg3 2.032 . S
O8 C11 1.259 . S
O9 Mg0 2.114 . S
O9 C12 1.252 . S
O10 Mg0 2.251 . S
O10 Mg3 2.079 . S
O10 C12 1.273 . S
C11 O7 1.246 . S
C11 O8 1.259 . S
C12 O9 1.252 . S
C12 O10 1.273 . S
O13 Mg0 2.010 . S
O13 C5 1.249 . S
Mg14 O15 2.028 . S
Mg14 O21 1.986 . S
Mg14 O23 2.114 . S
Mg14 O24 2.251 . S
Mg14 O27 2.010 . S
O15 Mg14 2.028 . S
O15 C18 1.250 . S
O16 Mg17 2.028 . S
O16 C18 1.248 . S
Mg17 O16 2.028 . S
Mg17 O22 2.032 . S
Mg17 O24 2.079 . S
C18 O15 1.250 . S
C18 O16 1.248 . S
C19 O20 1.264 . S
C19 O27 1.249 . S
O20 C19 1.264 . S
O21 Mg14 1.986 . S
O21 C25 1.246 . S
O22 Mg17 2.032 . S
O22 C25 1.259 . S
O23 Mg14 2.114 . S
O23 C26 1.252 . S
O24 Mg14 2.251 . S
O24 Mg17 2.079 . S
O24 C26 1.273 . S
C25 O21 1.246 . S
C25 O22 1.259 . S
C26 O23 1.252 . S
C26 O24 1.273 . S
O27 Mg14 2.010 . S
O27 C19 1.249 . S
Mg28 O29 2.028 1_554 S
Mg28 O35 1.986 1_554 S
Mg28 O37 2.114 . S
Mg28 O38 2.251 . S
Mg28 O41 2.010 1_554 S
O29 Mg28 2.028 1_556 S
O29 C32 1.251 . S
O30 Mg31 2.028 . S
O30 C32 1.247 1_554 S
Mg31 O30 2.028 . S
Mg31 O36 2.032 . S
Mg31 O38 2.079 . S
C32 O29 1.251 . S
C32 O30 1.247 1_556 S
C33 O34 1.264 . S
C33 O41 1.249 . S
O34 C33 1.264 . S
O35 Mg28 1.986 1_556 S
O35 C39 1.246 . S
O36 Mg31 2.032 . S
O36 C39 1.259 1_554 S
O37 Mg28 2.114 . S
O37 C40 1.252 . S
O38 Mg28 2.251 . S
O38 Mg31 2.079 . S
O38 C40 1.273 . S
C39 O35 1.246 . S
C39 O36 1.259 1_556 S
C40 O37 1.252 . S
C40 O38 1.273 . S
O41 Mg28 2.010 1_556 S
O41 C33 1.249 . S
Mg42 O43 2.028 . S
Mg42 O49 1.986 . S
Mg42 O51 2.114 . S
Mg42 O52 2.251 . S
Mg42 O55 2.010 . S
O43 Mg42 2.028 . S
O43 C46 1.250 . S
O44 Mg45 2.028 . S
O44 C46 1.248 . S
Mg45 O44 2.028 . S
Mg45 O50 2.032 . S
Mg45 O52 2.079 . S
C46 O43 1.250 . S
C46 O44 1.248 . S
C47 O48 1.264 . S
C47 O55 1.249 . S
O48 C47 1.264 . S
O49 Mg42 1.986 . S
O49 C53 1.246 . S
O50 Mg45 2.032 . S
O50 C53 1.259 . S
O51 Mg42 2.114 . S
O51 C54 1.252 . S
O52 Mg42 2.251 . S
O52 Mg45 2.079 . S
O52 C54 1.273 . S
C53 O49 1.246 . S
C53 O50 1.259 . S
C54 O51 1.252 . S
C54 O52 1.273 . S
O55 Mg42 2.010 . S
O55 C47 1.249 . S
Mg56 O57 2.028 . S
Mg56 O63 1.986 . S
Mg56 O65 2.114 . S
Mg56 O66 2.251 . S
Mg56 O69 2.010 . S
O57 Mg56 2.028 . S
O57 C60 1.250 . S
O58 Mg59 2.028 . S
O58 C60 1.248 . S
Mg59 O58 2.028 . S
Mg59 O64 2.032 . S
Mg59 O66 2.079 . S
C60 O57 1.250 . S
C60 O58 1.248 . S
C61 O62 1.264 . S
C61 O69 1.249 . S
O62 C61 1.264 . S
O63 Mg56 1.986 . S
O63 C67 1.246 . S
O64 Mg59 2.032 . S
O64 C67 1.259 . S
O65 Mg56 2.114 . S
O65 C68 1.252 . S
O66 Mg56 2.251 . S
O66 Mg59 2.079 . S
O66 C68 1.273 . S
C67 O63 1.246 . S
C67 O64 1.259 . S
C68 O65 1.252 . S
C68 O66 1.273 . S
O69 Mg56 2.010 . S
O69 C61 1.249 . S
Mg70 O71 2.028 1_554 S
Mg70 O77 1.986 1_554 S
Mg70 O79 2.114 . S
Mg70 O80 2.251 . S
Mg70 O83 2.010 1_554 S
O71 Mg70 2.028 1_556 S
O71 C74 1.251 . S
O72 Mg73 2.028 . S
O72 C74 1.247 1_554 S
Mg73 O72 2.028 . S
Mg73 O78 2.032 . S
Mg73 O80 2.079 . S
C74 O71 1.251 . S
C74 O72 1.247 1_556 S
C75 O76 1.264 . S
C75 O83 1.249 . S
O76 C75 1.264 . S
O77 Mg70 1.986 1_556 S
O77 C81 1.246 . S
O78 Mg73 2.032 . S
O78 C81 1.259 1_554 S
O79 Mg70 2.114 . S
O79 C82 1.252 . S
O80 Mg70 2.251 . S
O80 Mg73 2.079 . S
O80 C82 1.273 . S
C81 O77 1.246 . S
C81 O78 1.259 1_556 S
C82 O79 1.252 . S
C82 O80 1.273 . S
O83 Mg70 2.010 1_556 S
O83 C75 1.249 . S
Mg84 O85 2.028 . S
Mg84 O91 1.986 . S
Mg84 O93 2.114 . S
Mg84 O94 2.251 . S
Mg84 O97 2.010 . S
O85 Mg84 2.028 . S
O85 C88 1.250 . S
O86 Mg87 2.028 . S
O86 C88 1.248 . S
Mg87 O86 2.028 . S
Mg87 O92 2.032 . S
Mg87 O94 2.079 . S
C88 O85 1.250 . S
C88 O86 1.248 . S
C89 O90 1.264 . S
C89 O97 1.249 . S
O90 C89 1.264 . S
O91 Mg84 1.986 . S
O91 C95 1.246 . S
O92 Mg87 2.032 . S
O92 C95 1.259 . S
O93 Mg84 2.114 . S
O93 C96 1.252 . S
O94 Mg84 2.251 . S
O94 Mg87 2.079 . S
O94 C96 1.273 . S
C95 O91 1.246 . S
C95 O92 1.259 . S
C96 O93 1.252 . S
C96 O94 1.273 . S
O97 Mg84 2.010 . S
O97 C89 1.249 . S
Mg98 O99 2.028 . S
Mg98 O105 1.986 . S
Mg98 O107 2.114 . S
Mg98 O108 2.251 . S
Mg98 O111 2.010 . S
O99 Mg98 2.028 . S
O99 C102 1.250 . S
O100 Mg101 2.028 . S
O100 C102 1.248 . S
Mg101 O100 2.028 . S
Mg101 O106 2.032 . S
Mg101 O108 2.079 . S
C102 O99 1.250 . S
C102 O100 1.248 . S
C103 O104 1.264 . S
C103 O111 1.249 . S
O104 C103 1.264 . S
O105 Mg98 1.986 . S
O105 C109 1.246 . S
O106 Mg101 2.032 . S
O106 C109 1.259 . S
O107 Mg98 2.114 . S
O107 C110 1.252 . S
O108 Mg98 2.251 . S
O108 Mg101 2.079 . S
O108 C110 1.273 . S
C109 O105 1.246 . S
C109 O106 1.259 . S
C110 O107 1.252 . S
C110 O108 1.273 . S
O111 Mg98 2.010 . S
O111 C103 1.249 . S
Mg112 O113 2.028 1_556 S
Mg112 O119 1.986 1_556 S
Mg112 O121 2.114 . S
Mg112 O122 2.251 . S
Mg112 O125 2.010 1_556 S
O113 Mg112 2.028 1_554 S
O113 C116 1.248 1_554 S
O114 Mg115 2.028 . S
O114 C116 1.253 . S
Mg115 O114 2.028 . S
Mg115 O120 2.032 . S
Mg115 O122 2.079 . S
C116 O113 1.248 1_556 S
C116 O114 1.253 . S
C117 O118 1.264 . S
C117 O125 1.249 . S
O118 C117 1.264 . S
O119 Mg112 1.986 1_554 S
O119 C123 1.246 . S
O120 Mg115 2.032 . S
O120 C123 1.259 1_556 S
O121 Mg112 2.114 . S
O121 C124 1.252 . S
O122 Mg112 2.251 . S
O122 Mg115 2.079 . S
O122 C124 1.273 . S
C123 O119 1.246 . S
C123 O120 1.259 1_554 S
C124 O121 1.252 . S
C124 O122 1.273 . S
O125 Mg112 2.010 1_554 S
O125 C117 1.249 . S
Mg126 O127 2.028 . S
Mg126 O133 1.986 . S
Mg126 O135 2.114 . S
Mg126 O136 2.251 . S
Mg126 O139 2.010 . S
O127 Mg126 2.028 . S
O127 C130 1.250 . S
O128 Mg129 2.028 . S
O128 C130 1.248 . S
Mg129 O128 2.028 . S
Mg129 O134 2.032 . S
Mg129 O136 2.079 . S
C130 O127 1.250 . S
C130 O128 1.248 . S
C131 O132 1.264 . S
C131 O139 1.249 . S
O132 C131 1.264 . S
O133 Mg126 1.986 . S
O133 C137 1.246 . S
O134 Mg129 2.032 . S
O134 C137 1.259 . S
O135 Mg126 2.114 . S
O135 C138 1.252 . S
O136 Mg126 2.251 . S
O136 Mg129 2.079 . S
O136 C138 1.273 . S
C137 O133 1.246 . S
C137 O134 1.259 . S
C138 O135 1.252 . S
C138 O136 1.273 . S
O139 Mg126 2.010 . S
O139 C131 1.249 . S
Mg140 O141 2.028 . S
Mg140 O147 1.986 . S
Mg140 O149 2.114 . S
Mg140 O150 2.251 . S
Mg140 O153 2.010 . S
O141 Mg140 2.028 . S
O141 C144 1.250 . S
O142 Mg143 2.028 . S
O142 C144 1.248 . S
Mg143 O142 2.028 . S
Mg143 O148 2.032 . S
Mg143 O150 2.079 . S
C144 O141 1.250 . S
C144 O142 1.248 . S
C145 O146 1.264 . S
C145 O153 1.249 . S
O146 C145 1.264 . S
O147 Mg140 1.986 . S
O147 C151 1.246 . S
O148 Mg143 2.032 . S
O148 C151 1.259 . S
O149 Mg140 2.114 . S
O149 C152 1.252 . S
O150 Mg140 2.251 . S
O150 Mg143 2.079 . S
O150 C152 1.273 . S
C151 O147 1.246 . S
C151 O148 1.259 . S
C152 O149 1.252 . S
C152 O150 1.273 . S
O153 Mg140 2.010 . S
O153 C145 1.249 . S
Mg154 O155 2.028 1_556 S
Mg154 O161 1.986 1_556 S
Mg154 O163 2.114 . S
Mg154 O164 2.251 . S
Mg154 O167 2.010 1_556 S
O155 Mg154 2.028 1_554 S
O155 C158 1.248 1_554 S
O156 Mg157 2.028 . S
O156 C158 1.253 . S
Mg157 O156 2.028 . S
Mg157 O162 2.032 . S
Mg157 O164 2.079 . S
C158 O155 1.248 1_556 S
C158 O156 1.253 . S
C159 O160 1.264 . S
C159 O167 1.249 . S
O160 C159 1.264 . S
O161 Mg154 1.986 1_554 S
O161 C165 1.246 . S
O162 Mg157 2.032 . S
O162 C165 1.259 1_556 S
O163 Mg154 2.114 . S
O163 C166 1.252 . S
O164 Mg154 2.251 . S
O164 Mg157 2.079 . S
O164 C166 1.273 . S
C165 O161 1.246 . S
C165 O162 1.259 1_554 S
C166 O163 1.252 . S
C166 O164 1.273 . S
O167 Mg154 2.010 1_554 S
O167 C159 1.249 . S
H168 C176 0.929 . S
H169 C178 0.930 . S
H170 C180 0.930 . S
H171 C183 0.929 . S
H172 C186 0.930 . S
H173 C188 0.960 . S
H174 C188 0.960 . S
H175 C188 0.960 . S
C176 H168 0.929 . S
C176 C177 1.377 . S
C176 C178 1.384 . S
C177 C176 1.377 . S
C177 C183 1.390 . S
C178 H169 0.930 . S
C178 C176 1.384 . S
C178 C179 1.372 . S
C179 C178 1.372 . S
C179 C180 1.400 . S
C179 C184 1.490 . S
C180 H170 0.930 . S
C180 C179 1.400 . S
C180 C183 1.386 . S
H181 C197 0.930 . S
H182 C198 0.931 . S
C183 H171 0.929 . S
C183 C177 1.390 . S
C183 C180 1.386 . S
C184 C179 1.490 . S
C184 C186 1.395 . S
C184 C187 1.403 . S
H185 C191 0.930 . S
C186 H172 0.930 . S
C186 C184 1.395 . S
C186 C189 1.403 . S
C187 C184 1.403 . S
C187 C188 1.524 . S
C187 C191 1.400 . S
C188 H173 0.960 . S
C188 H174 0.960 . S
C188 H175 0.960 . S
C188 C187 1.524 . S
C189 C186 1.403 . S
C189 C190 1.392 . S
C189 C193 1.495 . S
C190 C189 1.392 . S
C190 C191 1.385 . S
C190 C192 1.478 . S
C191 H185 0.930 . S
C191 C187 1.400 . S
C191 C190 1.385 . S
C192 C190 1.478 . S
C192 C194 1.381 . S
C192 C198 1.383 . S
C193 C189 1.495 . S
C193 H199 0.959 . S
C193 H200 0.961 . S
C193 H201 0.960 . S
C194 C192 1.381 . S
C194 C195 1.394 . S
C194 H202 0.930 . S
C195 C194 1.394 . S
C195 C196 1.383 . S
C195 H203 0.929 . S
C196 C195 1.383 . S
C196 C197 1.377 . S
C197 H181 0.930 . S
C197 C196 1.377 . S
C197 C198 1.379 . S
C198 H182 0.931 . S
C198 C192 1.383 . S
C198 C197 1.379 . S
H199 C193 0.959 . S
H200 C193 0.961 . S
H201 C193 0.960 . S
H202 C194 0.930 . S
H203 C195 0.929 . S
H204 C212 0.929 . S
H205 C214 0.930 . S
H206 C216 0.930 . S
H207 C219 0.929 . S
H208 C222 0.930 . S
H209 C224 0.960 . S
H210 C224 0.960 . S
H211 C224 0.960 . S
C212 H204 0.929 . S
C212 C213 1.377 . S
C212 C214 1.384 . S
C213 C212 1.377 . S
C213 C219 1.390 . S
C214 H205 0.930 . S
C214 C212 1.384 . S
C214 C215 1.372 . S
C215 C214 1.372 . S
C215 C216 1.400 . S
C215 C220 1.490 . S
C216 H206 0.930 . S
C216 C215 1.400 . S
C216 C219 1.386 . S
H217 C233 0.930 . S
H218 C234 0.931 . S
C219 H207 0.929 . S
C219 C213 1.390 . S
C219 C216 1.386 . S
C220 C215 1.490 . S
C220 C222 1.395 . S
C220 C223 1.403 . S
H221 C227 0.930 . S
C222 H208 0.930 . S
C222 C220 1.395 . S
C222 C225 1.403 . S
C223 C220 1.403 . S
C223 C224 1.524 . S
C223 C227 1.400 . S
C224 H209 0.960 . S
C224 H210 0.960 . S
C224 H211 0.960 . S
C224 C223 1.524 . S
C225 C222 1.403 . S
C225 C226 1.392 . S
C225 C229 1.495 . S
C226 C225 1.392 . S
C226 C227 1.385 . S
C226 C228 1.478 . S
C227 H221 0.930 . S
C227 C223 1.400 . S
C227 C226 1.385 . S
C228 C226 1.478 . S
C228 C230 1.381 . S
C228 C234 1.383 . S
C229 C225 1.495 . S
C229 H235 0.959 . S
C229 H236 0.961 . S
C229 H237 0.960 . S
C230 C228 1.381 . S
C230 C231 1.394 . S
C230 H238 0.930 . S
C231 C230 1.394 . S
C231 C232 1.383 . S
C231 H239 0.929 . S
C232 C231 1.383 . S
C232 C233 1.377 . S
C233 H217 0.930 . S
C233 C232 1.377 . S
C233 C234 1.379 . S
C234 H218 0.931 . S
C234 C228 1.383 . S
C234 C233 1.379 . S
H235 C229 0.959 . S
H236 C229 0.961 . S
H237 C229 0.960 . S
H238 C230 0.930 . S
H239 C231 0.929 . S
H240 C248 0.935 . S
H241 C250 0.930 . S
H242 C252 0.930 . S
H243 C255 0.929 . S
H244 C258 0.930 . S
H245 C260 0.960 . S
H246 C260 0.960 . S
H247 C260 0.960 . S
C248 H240 0.935 . S
C248 C249 1.370 1_554 S
C248 C250 1.386 . S
C249 C248 1.370 1_556 S
C249 C255 1.390 . S
C250 H241 0.930 . S
C250 C248 1.386 . S
C250 C251 1.372 1_554 S
C251 C250 1.372 1_556 S
C251 C252 1.400 . S
C251 C256 1.490 . S
C252 H242 0.930 . S
C252 C251 1.400 . S
C252 C255 1.386 . S
H253 C269 0.923 1_556 S
H254 C270 0.931 1_556 S
C255 H243 0.929 . S
C255 C249 1.390 . S
C255 C252 1.386 . S
C256 C251 1.490 . S
C256 C258 1.395 1_556 S
C256 C259 1.403 . S
H257 C263 0.930 . S
C258 H244 0.930 . S
C258 C256 1.395 1_554 S
C258 C261 1.403 . S
C259 C256 1.403 . S
C259 C260 1.524 . S
C259 C263 1.400 . S
C260 H245 0.960 . S
C260 H246 0.960 . S
C260 H247 0.960 . S
C260 C259 1.524 . S
C261 C258 1.403 . S
C261 C262 1.392 . S
C261 C265 1.495 . S
C262 C261 1.392 . S
C262 C263 1.385 1_554 S
C262 C264 1.478 . S
C263 H257 0.930 . S
C263 C259 1.400 . S
C263 C262 1.385 1_556 S
C264 C262 1.478 . S
C264 C266 1.381 . S
C264 C270 1.383 . S
C265 C261 1.495 . S
C265 H271 0.959 . S
C265 H272 0.961 . S
C265 H273 0.960 . S
C266 C264 1.381 . S
C266 C267 1.394 . S
C266 H274 0.930 . S
C267 C266 1.394 . S
C267 C268 1.383 . S
C267 H275 0.929 . S
C268 C267 1.383 . S
C268 C269 1.377 . S
C269 H253 0.923 1_554 S
C269 C268 1.377 . S
C269 C270 1.379 . S
C270 H254 0.931 1_554 S
C270 C264 1.383 . S
C270 C269 1.379 . S
H271 C265 0.959 . S
H272 C265 0.961 . S
H273 C265 0.960 . S
H274 C266 0.930 . S
H275 C267 0.929 . S
H276 C284 0.929 . S
H277 C286 0.930 . S
H278 C288 0.930 . S
H279 C291 0.929 . S
H280 C294 0.930 . S
H281 C296 0.960 . S
H282 C296 0.960 . S
H283 C296 0.960 . S
C284 H276 0.929 . S
C284 C285 1.377 . S
C284 C286 1.384 . S
C285 C284 1.377 . S
C285 C291 1.390 . S
C286 H277 0.930 . S
C286 C284 1.384 . S
C286 C287 1.372 . S
C287 C286 1.372 . S
C287 C288 1.400 . S
C287 C292 1.490 . S
C288 H278 0.930 . S
C288 C287 1.400 . S
C288 C291 1.386 . S
H289 C305 0.930 . S
H290 C306 0.931 . S
C291 H279 0.929 . S
C291 C285 1.390 . S
C291 C288 1.386 . S
C292 C287 1.490 . S
C292 C294 1.395 . S
C292 C295 1.403 . S
H293 C299 0.930 . S
C294 H280 0.930 . S
C294 C292 1.395 . S
C294 C297 1.403 . S
C295 C292 1.403 . S
C295 C296 1.524 . S
C295 C299 1.400 . S
C296 H281 0.960 . S
C296 H282 0.960 . S
C296 H283 0.960 . S
C296 C295 1.524 . S
C297 C294 1.403 . S
C297 C298 1.392 . S
C297 C301 1.495 . S
C298 C297 1.392 . S
C298 C299 1.385 . S
C298 C300 1.478 . S
C299 H293 0.930 . S
C299 C295 1.400 . S
C299 C298 1.385 . S
C300 C298 1.478 . S
C300 C302 1.381 . S
C300 C306 1.383 . S
C301 C297 1.495 . S
C301 H307 0.959 . S
C301 H308 0.961 . S
C301 H309 0.960 . S
C302 C300 1.381 . S
C302 C303 1.394 . S
C302 H310 0.930 . S
C303 C302 1.394 . S
C303 C304 1.383 . S
C303 H311 0.929 . S
C304 C303 1.383 . S
C304 C305 1.377 . S
C305 H289 0.930 . S
C305 C304 1.377 . S
C305 C306 1.379 . S
C306 H290 0.931 . S
C306 C300 1.383 . S
C306 C305 1.379 . S
H307 C301 0.959 . S
H308 C301 0.961 . S
H309 C301 0.960 . S
H310 C302 0.930 . S
H311 C303 0.929 . S
H312 C320 0.929 . S
H313 C322 0.930 . S
H314 C324 0.930 . S
H315 C327 0.929 . S
H316 C330 0.930 . S
H317 C332 0.960 . S
H318 C332 0.960 . S
H319 C332 0.960 . S
C320 H312 0.929 . S
C320 C321 1.377 . S
C320 C322 1.384 . S
C321 C320 1.377 . S
C321 C327 1.390 . S
C322 H313 0.930 . S
C322 C320 1.384 . S
C322 C323 1.372 . S
C323 C322 1.372 . S
C323 C324 1.400 . S
C323 C328 1.490 . S
C324 H314 0.930 . S
C324 C323 1.400 . S
C324 C327 1.386 . S
H325 C341 0.930 . S
H326 C342 0.931 . S
C327 H315 0.929 . S
C327 C321 1.390 . S
C327 C324 1.386 . S
C328 C323 1.490 . S
C328 C330 1.395 . S
C328 C331 1.403 . S
H329 C335 0.930 . S
C330 H316 0.930 . S
C330 C328 1.395 . S
C330 C333 1.403 . S
C331 C328 1.403 . S
C331 C332 1.524 . S
C331 C335 1.400 . S
C332 H317 0.960 . S
C332 H318 0.960 . S
C332 H319 0.960 . S
C332 C331 1.524 . S
C333 C330 1.403 . S
C333 C334 1.392 . S
C333 C337 1.495 . S
C334 C333 1.392 . S
C334 C335 1.385 . S
C334 C336 1.478 . S
C335 H329 0.930 . S
C335 C331 1.400 . S
C335 C334 1.385 . S
C336 C334 1.478 . S
C336 C338 1.381 . S
C336 C342 1.383 . S
C337 C333 1.495 . S
C337 H343 0.959 . S
C337 H344 0.961 . S
C337 H345 0.960 . S
C338 C336 1.381 . S
C338 C339 1.394 . S
C338 H346 0.930 . S
C339 C338 1.394 . S
C339 C340 1.383 . S
C339 H347 0.929 . S
C340 C339 1.383 . S
C340 C341 1.377 . S
C341 H325 0.930 . S
C341 C340 1.377 . S
C341 C342 1.379 . S
C342 H326 0.931 . S
C342 C336 1.383 . S
C342 C341 1.379 . S
H343 C337 0.959 . S
H344 C337 0.961 . S
H345 C337 0.960 . S
H346 C338 0.930 . S
H347 C339 0.929 . S
H348 C356 0.929 . S
H349 C358 0.930 . S
H350 C360 0.930 . S
H351 C363 0.929 . S
H352 C366 0.930 . S
H353 C368 0.960 . S
H354 C368 0.960 . S
H355 C368 0.960 . S
C356 H348 0.929 . S
C356 C357 1.377 . S
C356 C358 1.384 . S
C357 C356 1.377 . S
C357 C363 1.390 1_554 S
C358 H349 0.930 . S
C358 C356 1.384 . S
C358 C359 1.372 . S
C359 C358 1.372 . S
C359 C360 1.400 1_554 S
C359 C364 1.490 . S
C360 H350 0.930 . S
C360 C359 1.400 1_556 S
C360 C363 1.386 . S
H361 C377 0.930 . S
H362 C378 0.931 . S
C363 H351 0.929 . S
C363 C357 1.390 1_556 S
C363 C360 1.386 . S
C364 C359 1.490 . S
C364 C366 1.395 . S
C364 C367 1.403 1_554 S
H365 C371 0.930 . S
C366 H352 0.930 . S
C366 C364 1.395 . S
C366 C369 1.403 . S
C367 C364 1.403 1_556 S
C367 C368 1.524 . S
C367 C371 1.400 . S
C368 H353 0.960 . S
C368 H354 0.960 . S
C368 H355 0.960 . S
C368 C367 1.524 . S
C369 C366 1.403 . S
C369 C370 1.392 . S
C369 C373 1.495 . S
C370 C369 1.392 . S
C370 C371 1.385 1_554 S
C370 C372 1.479 . S
C371 H365 0.930 . S
C371 C367 1.400 . S
C371 C370 1.385 1_556 S
C372 C370 1.479 . S
C372 C374 1.387 . S
C372 C378 1.374 1_554 S
C373 C369 1.495 . S
C373 H379 0.959 . S
C373 H380 0.961 . S
C373 H381 0.960 . S
C374 C372 1.387 . S
C374 C375 1.394 . S
C374 H382 0.930 . S
C375 C374 1.394 . S
C375 C376 1.383 1_554 S
C375 H383 0.929 . S
C376 C375 1.383 1_556 S
C376 C377 1.377 . S
C377 H361 0.930 . S
C377 C376 1.377 . S
C377 C378 1.379 . S
C378 H362 0.931 . S
C378 C372 1.374 1_556 S
C378 C377 1.379 . S
H379 C373 0.959 . S
H380 C373 0.961 . S
H381 C373 0.960 . S
H382 C374 0.930 . S
H383 C375 0.929 . S
H384 C392 0.929 . S
H385 C394 0.930 . S
H386 C396 0.930 . S
H387 C399 0.929 . S
H388 C402 0.930 . S
H389 C404 0.960 . S
H390 C404 0.960 . S
H391 C404 0.960 . S
C392 H384 0.929 . S
C392 C393 1.377 . S
C392 C394 1.384 . S
C393 C392 1.377 . S
C393 C399 1.390 . S
C394 H385 0.930 . S
C394 C392 1.384 . S
C394 C395 1.372 . S
C395 C394 1.372 . S
C395 C396 1.400 . S
C395 C400 1.490 . S
C396 H386 0.930 . S
C396 C395 1.400 . S
C396 C399 1.386 . S
H397 C413 0.930 . S
H398 C414 0.931 . S
C399 H387 0.929 . S
C399 C393 1.390 . S
C399 C396 1.386 . S
C400 C395 1.490 . S
C400 C402 1.395 . S
C400 C403 1.403 . S
H401 C407 0.930 . S
C402 H388 0.930 . S
C402 C400 1.395 . S
C402 C405 1.403 . S
C403 C400 1.403 . S
C403 C404 1.524 . S
C403 C407 1.400 . S
C404 H389 0.960 . S
C404 H390 0.960 . S
C404 H391 0.960 . S
C404 C403 1.524 . S
C405 C402 1.403 . S
C405 C406 1.392 . S
C405 C409 1.495 . S
C406 C405 1.392 . S
C406 C407 1.385 . S
C406 C408 1.478 . S
C407 H401 0.930 . S
C407 C403 1.400 . S
C407 C406 1.385 . S
C408 C406 1.478 . S
C408 C410 1.381 . S
C408 C414 1.383 . S
C409 C405 1.495 . S
C409 H415 0.959 . S
C409 H416 0.961 . S
C409 H417 0.960 . S
C410 C408 1.381 . S
C410 C411 1.394 . S
C410 H418 0.930 . S
C411 C410 1.394 . S
C411 C412 1.383 . S
C411 H419 0.929 . S
C412 C411 1.383 . S
C412 C413 1.377 . S
C413 H397 0.930 . S
C413 C412 1.377 . S
C413 C414 1.379 . S
C414 H398 0.931 . S
C414 C408 1.383 . S
C414 C413 1.379 . S
H415 C409 0.959 . S
H416 C409 0.961 . S
H417 C409 0.960 . S
H418 C410 0.930 . S
H419 C411 0.929 . S
H420 C428 0.929 . S
H421 C430 0.930 . S
H422 C432 0.930 . S
H423 C435 0.929 . S
H424 C438 0.930 . S
H425 C440 0.960 . S
H426 C440 0.960 . S
H427 C440 0.960 . S
C428 H420 0.929 . S
C428 C429 1.377 . S
C428 C430 1.384 . S
C429 C428 1.377 . S
C429 C435 1.390 . S
C430 H421 0.930 . S
C430 C428 1.384 . S
C430 C431 1.372 . S
C431 C430 1.372 . S
C431 C432 1.400 . S
C431 C436 1.490 . S
C432 H422 0.930 . S
C432 C431 1.400 . S
C432 C435 1.386 . S
H433 C449 0.930 . S
H434 C450 0.931 . S
C435 H423 0.929 . S
C435 C429 1.390 . S
C435 C432 1.386 . S
C436 C431 1.490 . S
C436 C438 1.395 . S
C436 C439 1.403 . S
H437 C443 0.930 . S
C438 H424 0.930 . S
C438 C436 1.395 . S
C438 C441 1.403 1_655 S
C439 C436 1.403 . S
C439 C440 1.524 . S
C439 C443 1.400 1_655 S
C440 H425 0.960 . S
C440 H426 0.960 . S
C440 H427 0.960 . S
C440 C439 1.524 . S
C441 C438 1.403 1_455 S
C441 C442 1.392 . S
C441 C445 1.495 . S
C442 C441 1.392 . S
C442 C443 1.385 . S
C442 C444 1.478 . S
C443 H437 0.930 . S
C443 C439 1.400 1_455 S
C443 C442 1.385 . S
C444 C442 1.478 . S
C444 C446 1.381 . S
C444 C450 1.383 . S
C445 C441 1.495 . S
C445 H451 0.959 . S
C445 H452 0.961 . S
C445 H453 0.960 . S
C446 C444 1.381 . S
C446 C447 1.394 . S
C446 H454 0.930 . S
C447 C446 1.394 . S
C447 C448 1.383 . S
C447 H455 0.929 . S
C448 C447 1.383 . S
C448 C449 1.377 . S
C449 H433 0.930 . S
C449 C448 1.377 . S
C449 C450 1.379 . S
C450 H434 0.931 . S
C450 C444 1.383 . S
C450 C449 1.379 . S
H451 C445 0.959 . S
H452 C445 0.961 . S
H453 C445 0.960 . S
H454 C446 0.930 . S
H455 C447 0.929 . S
H456 C464 0.929 . S
H457 C466 0.930 . S
H458 C468 0.930 . S
H459 C471 0.929 . S
H460 C474 0.930 . S
H461 C476 0.960 . S
H462 C476 0.960 . S
H463 C476 0.960 . S
C464 H456 0.929 . S
C464 C465 1.377 1_556 S
C464 C466 1.384 . S
C465 C464 1.377 1_554 S
C465 C471 1.390 . S
C466 H457 0.930 . S
C466 C464 1.384 . S
C466 C467 1.372 1_556 S
C467 C466 1.372 1_554 S
C467 C468 1.400 . S
C467 C472 1.488 1_554 S
C468 H458 0.930 . S
C468 C467 1.400 . S
C468 C471 1.386 . S
H469 C485 0.930 . S
H470 C486 0.931 . S
C471 H459 0.929 . S
C471 C465 1.390 . S
C471 C468 1.386 . S
C472 C467 1.488 1_556 S
C472 C474 1.409 . S
C472 C475 1.391 1_556 S
H473 C479 0.930 . S
C474 H460 0.930 . S
C474 C472 1.409 . S
C474 C477 1.403 1_545 S
C475 C472 1.391 1_554 S
C475 C476 1.524 . S
C475 C479 1.400 1_545 S
C476 H461 0.960 . S
C476 H462 0.960 . S
C476 H463 0.960 . S
C476 C475 1.524 . S
C477 C474 1.403 1_565 S
C477 C478 1.392 . S
C477 C481 1.495 . S
C478 C477 1.392 . S
C478 C479 1.385 1_556 S
C478 C480 1.478 . S
C479 H473 0.930 . S
C479 C475 1.400 1_565 S
C479 C478 1.385 1_554 S
C480 C478 1.478 . S
C480 C482 1.381 . S
C480 C486 1.383 1_556 S
C481 C477 1.495 . S
C481 H487 0.959 . S
C481 H488 0.961 . S
C481 H489 0.960 . S
C482 C480 1.381 . S
C482 C483 1.394 . S
C482 H490 0.930 . S
C483 C482 1.394 . S
C483 C484 1.383 . S
C483 H491 0.929 . S
C484 C483 1.383 . S
C484 C485 1.377 1_556 S
C485 H469 0.930 . S
C485 C484 1.377 1_554 S
C485 C486 1.379 . S
C486 H470 0.931 . S
C486 C480 1.383 1_554 S
C486 C485 1.379 . S
H487 C481 0.959 . S
H488 C481 0.961 . S
H489 C481 0.960 . S
H490 C482 0.930 . S
H491 C483 0.929 . S
H492 C500 0.929 . S
H493 C502 0.930 . S
H494 C504 0.930 . S
H495 C507 0.929 . S
H496 C510 0.930 . S
H497 C512 0.960 . S
H498 C512 0.960 . S
H499 C512 0.960 . S
C500 H492 0.929 . S
C500 C501 1.377 . S
C500 C502 1.384 . S
C501 C500 1.377 . S
C501 C507 1.390 . S
C502 H493 0.930 . S
C502 C500 1.384 . S
C502 C503 1.372 . S
C503 C502 1.372 . S
C503 C504 1.400 . S
C503 C508 1.490 . S
C504 H494 0.930 . S
C504 C503 1.400 . S
C504 C507 1.386 . S
H505 C521 0.930 . S
H506 C522 0.931 . S
C507 H495 0.929 . S
C507 C501 1.390 . S
C507 C504 1.386 . S
C508 C503 1.490 . S
C508 C510 1.395 . S
C508 C511 1.403 . S
H509 C515 0.930 . S
C510 H496 0.930 . S
C510 C508 1.395 . S
C510 C513 1.403 . S
C511 C508 1.403 . S
C511 C512 1.524 . S
C511 C515 1.400 . S
C512 H497 0.960 . S
C512 H498 0.960 . S
C512 H499 0.960 . S
C512 C511 1.524 . S
C513 C510 1.403 . S
C513 C514 1.392 . S
C513 C517 1.495 . S
C514 C513 1.392 . S
C514 C515 1.385 . S
C514 C516 1.478 . S
C515 H509 0.930 . S
C515 C511 1.400 . S
C515 C514 1.385 . S
C516 C514 1.478 . S
C516 C518 1.381 . S
C516 C522 1.383 . S
C517 C513 1.495 . S
C517 H523 0.959 . S
C517 H524 0.961 . S
C517 H525 0.960 . S
C518 C516 1.381 . S
C518 C519 1.394 . S
C518 H526 0.930 . S
C519 C518 1.394 . S
C519 C520 1.383 . S
C519 H527 0.929 . S
C520 C519 1.383 . S
C520 C521 1.377 . S
C521 H505 0.930 . S
C521 C520 1.377 . S
C521 C522 1.379 . S
C522 H506 0.931 . S
C522 C516 1.383 . S
C522 C521 1.379 . S
H523 C517 0.959 . S
H524 C517 0.961 . S
H525 C517 0.960 . S
H526 C518 0.930 . S
H527 C519 0.929 . S
H528 C536 0.929 . S
H529 C538 0.930 . S
H530 C540 0.930 . S
H531 C543 0.929 . S
H532 C546 0.930 . S
H533 C548 0.960 . S
H534 C548 0.960 . S
H535 C548 0.960 . S
C536 H528 0.929 . S
C536 C537 1.377 . S
C536 C538 1.384 . S
C537 C536 1.377 . S
C537 C543 1.390 . S
C538 H529 0.930 . S
C538 C536 1.384 . S
C538 C539 1.372 . S
C539 C538 1.372 . S
C539 C540 1.400 . S
C539 C544 1.490 . S
C540 H530 0.930 . S
C540 C539 1.400 . S
C540 C543 1.386 . S
H541 C557 0.930 . S
H542 C558 0.931 . S
C543 H531 0.929 . S
C543 C537 1.390 . S
C543 C540 1.386 . S
C544 C539 1.490 . S
C544 C546 1.395 . S
C544 C547 1.403 . S
H545 C551 0.930 . S
C546 H532 0.930 . S
C546 C544 1.395 . S
C546 C549 1.403 1_455 S
C547 C544 1.403 . S
C547 C548 1.524 . S
C547 C551 1.400 1_455 S
C548 H533 0.960 . S
C548 H534 0.960 . S
C548 H535 0.960 . S
C548 C547 1.524 . S
C549 C546 1.403 1_655 S
C549 C550 1.392 . S
C549 C553 1.495 . S
C550 C549 1.392 . S
C550 C551 1.385 . S
C550 C552 1.478 . S
C551 H545 0.930 . S
C551 C547 1.400 1_655 S
C551 C550 1.385 . S
C552 C550 1.478 . S
C552 C554 1.381 . S
C552 C558 1.383 . S
C553 C549 1.495 . S
C553 H559 0.959 . S
C553 H560 0.961 . S
C553 H561 0.960 . S
C554 C552 1.381 . S
C554 C555 1.394 . S
C554 H562 0.930 . S
C555 C554 1.394 . S
C555 C556 1.383 . S
C555 H563 0.929 . S
C556 C555 1.383 . S
C556 C557 1.377 . S
C557 H541 0.930 . S
C557 C556 1.377 . S
C557 C558 1.379 . S
C558 H542 0.931 . S
C558 C552 1.383 . S
C558 C557 1.379 . S
H559 C553 0.959 . S
H560 C553 0.961 . S
H561 C553 0.960 . S
H562 C554 0.930 . S
H563 C555 0.929 . S
H564 C572 0.929 . S
H565 C574 0.930 . S
H566 C576 0.930 . S
H567 C579 0.929 . S
H568 C582 0.930 . S
H569 C584 0.960 . S
H570 C584 0.960 . S
H571 C584 0.960 . S
C572 H564 0.929 . S
C572 C573 1.377 . S
C572 C574 1.384 . S
C573 C572 1.377 . S
C573 C579 1.390 1_556 S
C574 H565 0.930 . S
C574 C572 1.384 . S
C574 C575 1.372 . S
C575 C574 1.372 . S
C575 C576 1.400 1_556 S
C575 C580 1.490 . S
C576 H566 0.930 . S
C576 C575 1.400 1_554 S
C576 C579 1.386 . S
H577 C593 0.930 . S
H578 C594 0.931 . S
C579 H567 0.929 . S
C579 C573 1.390 1_554 S
C579 C576 1.386 . S
C580 C575 1.490 . S
C580 C582 1.395 . S
C580 C583 1.403 1_556 S
H581 C587 0.930 . S
C582 H568 0.930 . S
C582 C580 1.395 . S
C582 C585 1.403 1_545 S
C583 C580 1.403 1_554 S
C583 C584 1.524 . S
C583 C587 1.400 1_545 S
C584 H569 0.960 . S
C584 H570 0.960 . S
C584 H571 0.960 . S
C584 C583 1.524 . S
C585 C582 1.403 1_565 S
C585 C586 1.392 . S
C585 C589 1.495 . S
C586 C585 1.392 . S
C586 C587 1.385 1_556 S
C586 C588 1.479 . S
C587 H581 0.930 . S
C587 C583 1.400 1_565 S
C587 C586 1.385 1_554 S
C588 C586 1.479 . S
C588 C590 1.393 . S
C588 C594 1.369 1_556 S
C589 C585 1.495 . S
C589 H595 0.959 . S
C589 H596 0.961 . S
C589 H597 0.960 . S
C590 C588 1.393 . S
C590 C591 1.394 . S
C590 H598 0.930 . S
C591 C590 1.394 . S
C591 C592 1.383 1_556 S
C591 H599 0.929 . S
C592 C591 1.383 1_554 S
C592 C593 1.377 . S
C593 H577 0.930 . S
C593 C592 1.377 . S
C593 C594 1.379 . S
C594 H578 0.931 . S
C594 C588 1.369 1_554 S
C594 C593 1.379 . S
H595 C589 0.959 . S
H596 C589 0.961 . S
H597 C589 0.960 . S
H598 C590 0.930 . S
H599 C591 0.929 . S
H600 C608 0.929 . S
H601 C610 0.930 . S
H602 C612 0.930 . S
H603 C615 0.929 . S
H604 C618 0.930 . S
H605 C620 0.960 1_455 S
H606 C620 0.960 . S
H607 C620 0.960 . S
C608 H600 0.929 . S
C608 C609 1.377 . S
C608 C610 1.384 . S
C609 C608 1.377 . S
C609 C615 1.390 . S
C610 H601 0.930 . S
C610 C608 1.384 . S
C610 C611 1.372 . S
C611 C610 1.372 . S
C611 C612 1.400 . S
C611 C616 1.490 . S
C612 H602 0.930 . S
C612 C611 1.400 . S
C612 C615 1.386 . S
H613 C629 0.930 . S
H614 C630 0.931 . S
C615 H603 0.929 . S
C615 C609 1.390 . S
C615 C612 1.386 . S
C616 C611 1.490 . S
C616 C618 1.395 . S
C616 C619 1.403 . S
H617 C623 0.930 . S
C618 H604 0.930 . S
C618 C616 1.395 . S
C618 C621 1.403 1_655 S
C619 C616 1.403 . S
C619 C620 1.524 . S
C619 C623 1.400 1_655 S
C620 H605 0.960 1_655 S
C620 H606 0.960 . S
C620 H607 0.960 . S
C620 C619 1.524 . S
C621 C618 1.403 1_455 S
C621 C622 1.392 . S
C621 C625 1.495 . S
C622 C621 1.392 . S
C622 C623 1.385 . S
C622 C624 1.478 . S
C623 H617 0.930 . S
C623 C619 1.400 1_455 S
C623 C622 1.385 . S
C624 C622 1.478 . S
C624 C626 1.381 . S
C624 C630 1.383 . S
C625 C621 1.495 . S
C625 H631 0.959 . S
C625 H632 0.961 . S
C625 H633 0.960 . S
C626 C624 1.381 . S
C626 C627 1.394 . S
C626 H634 0.930 . S
C627 C626 1.394 . S
C627 C628 1.383 . S
C627 H635 0.929 . S
C628 C627 1.383 . S
C628 C629 1.377 . S
C629 H613 0.930 . S
C629 C628 1.377 . S
C629 C630 1.379 . S
C630 H614 0.931 . S
C630 C624 1.383 . S
C630 C629 1.379 . S
H631 C625 0.959 . S
H632 C625 0.961 . S
H633 C625 0.960 . S
H634 C626 0.930 . S
H635 C627 0.929 . S
H636 C644 0.929 . S
H637 C646 0.930 . S
H638 C648 0.930 . S
H639 C651 0.929 . S
H640 C654 0.930 . S
H641 C656 0.960 . S
H642 C656 0.960 . S
H643 C656 0.960 . S
C644 H636 0.929 . S
C644 C645 1.377 . S
C644 C646 1.384 . S
C645 C644 1.377 . S
C645 C651 1.390 . S
C646 H637 0.930 . S
C646 C644 1.384 . S
C646 C647 1.372 . S
C647 C646 1.372 . S
C647 C648 1.400 . S
C647 C652 1.490 . S
C648 H638 0.930 . S
C648 C647 1.400 . S
C648 C651 1.386 . S
H649 C665 0.930 . S
H650 C666 0.931 . S
C651 H639 0.929 . S
C651 C645 1.390 . S
C651 C648 1.386 . S
C652 C647 1.490 . S
C652 C654 1.395 . S
C652 C655 1.403 . S
H653 C659 0.930 . S
C654 H640 0.930 . S
C654 C652 1.395 . S
C654 C657 1.403 1_545 S
C655 C652 1.403 . S
C655 C656 1.524 . S
C655 C659 1.400 1_545 S
C656 H641 0.960 . S
C656 H642 0.960 . S
C656 H643 0.960 . S
C656 C655 1.524 . S
C657 C654 1.403 1_565 S
C657 C658 1.392 . S
C657 C661 1.495 . S
C658 C657 1.392 . S
C658 C659 1.385 . S
C658 C660 1.478 . S
C659 H653 0.930 . S
C659 C655 1.400 1_565 S
C659 C658 1.385 . S
C660 C658 1.478 . S
C660 C662 1.381 . S
C660 C666 1.383 . S
C661 C657 1.495 . S
C661 H667 0.959 . S
C661 H668 0.961 . S
C661 H669 0.960 . S
C662 C660 1.381 . S
C662 C663 1.394 . S
C662 H670 0.930 . S
C663 C662 1.394 . S
C663 C664 1.383 . S
C663 H671 0.929 . S
C664 C663 1.383 . S
C664 C665 1.377 . S
C665 H649 0.930 . S
C665 C664 1.377 . S
C665 C666 1.379 . S
C666 H650 0.931 . S
C666 C660 1.383 . S
C666 C665 1.379 . S
H667 C661 0.959 . S
H668 C661 0.961 . S
H669 C661 0.960 . S
H670 C662 0.930 . S
H671 C663 0.929 . S
H672 C680 0.929 . S
H673 C682 0.930 . S
H674 C684 0.930 . S
H675 C687 0.929 . S
H676 C690 0.930 . S
H677 C692 0.960 . S
H678 C692 0.960 . S
H679 C692 0.960 . S
C680 H672 0.929 . S
C680 C681 1.377 . S
C680 C682 1.384 . S
C681 C680 1.377 . S
C681 C687 1.390 . S
C682 H673 0.930 . S
C682 C680 1.384 . S
C682 C683 1.372 . S
C683 C682 1.372 . S
C683 C684 1.400 . S
C683 C688 1.490 . S
C684 H674 0.930 . S
C684 C683 1.400 . S
C684 C687 1.386 . S
H685 C701 0.930 . S
H686 C702 0.931 . S
C687 H675 0.929 . S
C687 C681 1.390 . S
C687 C684 1.386 . S
C688 C683 1.490 . S
C688 C690 1.395 . S
C688 C691 1.403 . S
H689 C695 0.930 . S
C690 H676 0.930 . S
C690 C688 1.395 . S
C690 C693 1.403 . S
C691 C688 1.403 . S
C691 C692 1.524 . S
C691 C695 1.400 . S
C692 H677 0.960 . S
C692 H678 0.960 . S
C692 H679 0.960 . S
C692 C691 1.524 . S
C693 C690 1.403 . S
C693 C694 1.392 . S
C693 C697 1.495 . S
C694 C693 1.392 . S
C694 C695 1.385 . S
C694 C696 1.478 . S
C695 H689 0.930 . S
C695 C691 1.400 . S
C695 C694 1.385 . S
C696 C694 1.478 . S
C696 C698 1.381 . S
C696 C702 1.383 . S
C697 C693 1.495 . S
C697 H703 0.959 . S
C697 H704 0.961 . S
C697 H705 0.960 . S
C698 C696 1.381 . S
C698 C699 1.394 . S
C698 H706 0.930 . S
C699 C698 1.394 . S
C699 C700 1.383 . S
C699 H707 0.929 . S
C700 C699 1.383 . S
C700 C701 1.377 . S
C701 H685 0.930 . S
C701 C700 1.377 . S
C701 C702 1.379 . S
C702 H686 0.931 . S
C702 C696 1.383 . S
C702 C701 1.379 . S
H703 C697 0.959 . S
H704 C697 0.961 . S
H705 C697 0.960 . S
H706 C698 0.930 . S
H707 C699 0.929 . S
H708 C716 0.929 . S
H709 C718 0.930 . S
H710 C720 0.930 . S
H711 C723 0.929 . S
H712 C726 0.923 . S
H713 C728 0.960 . S
H714 C728 0.960 . S
H715 C728 0.960 . S
C716 H708 0.929 . S
C716 C717 1.377 . S
C716 C718 1.384 . S
C717 C716 1.377 . S
C717 C723 1.390 . S
C718 H709 0.930 . S
C718 C716 1.384 . S
C718 C719 1.372 . S
C719 C718 1.372 . S
C719 C720 1.400 . S
C719 C724 1.490 . S
C720 H710 0.930 . S
C720 C719 1.400 . S
C720 C723 1.386 . S
H721 C737 0.930 . S
H722 C738 0.931 . S
C723 H711 0.929 . S
C723 C717 1.390 . S
C723 C720 1.386 . S
C724 C719 1.490 . S
C724 C726 1.414 . S
C724 C727 1.403 . S
H725 C731 0.930 . S
C726 H712 0.923 . S
C726 C724 1.414 . S
C726 C729 1.391 1_455 S
C727 C724 1.403 . S
C727 C728 1.524 . S
C727 C731 1.400 1_455 S
C728 H713 0.960 . S
C728 H714 0.960 . S
C728 H715 0.960 . S
C728 C727 1.524 . S
C729 C726 1.391 1_655 S
C729 C730 1.392 . S
C729 C733 1.495 . S
C730 C729 1.392 . S
C730 C731 1.385 . S
C730 C732 1.478 . S
C731 H725 0.930 . S
C731 C727 1.400 1_655 S
C731 C730 1.385 . S
C732 C730 1.478 . S
C732 C734 1.381 . S
C732 C738 1.383 . S
C733 C729 1.495 . S
C733 H739 0.959 . S
C733 H740 0.961 . S
C733 H741 0.960 . S
C734 C732 1.381 . S
C734 C735 1.394 . S
C734 H742 0.930 . S
C735 C734 1.394 . S
C735 C736 1.383 . S
C735 H743 0.929 . S
C736 C735 1.383 . S
C736 C737 1.377 . S
C737 H721 0.930 . S
C737 C736 1.377 . S
C737 C738 1.379 . S
C738 H722 0.931 . S
C738 C732 1.383 . S
C738 C737 1.379 . S
H739 C733 0.959 . S
H740 C733 0.961 . S
H741 C733 0.960 . S
H742 C734 0.930 . S
H743 C735 0.929 . S
H744 C752 0.929 . S
H745 C754 0.930 . S
H746 C756 0.930 . S
H747 C759 0.929 . S
H748 C762 0.930 . S
H749 C764 0.960 . S
H750 C764 0.960 . S
H751 C764 0.960 . S
C752 H744 0.929 . S
C752 C753 1.377 . S
C752 C754 1.384 . S
C753 C752 1.377 . S
C753 C759 1.390 . S
C754 H745 0.930 . S
C754 C752 1.384 . S
C754 C755 1.372 . S
C755 C754 1.372 . S
C755 C756 1.400 . S
C755 C760 1.490 . S
C756 H746 0.930 . S
C756 C755 1.400 . S
C756 C759 1.386 . S
H757 C773 0.930 . S
H758 C774 0.931 . S
C759 H747 0.929 . S
C759 C753 1.390 . S
C759 C756 1.386 . S
C760 C755 1.490 . S
C760 C762 1.395 . S
C760 C763 1.403 1_545 S
H761 C767 0.930 . S
C762 H748 0.930 . S
C762 C760 1.395 . S
C762 C765 1.403 . S
C763 C760 1.403 1_565 S
C763 C764 1.524 . S
C763 C767 1.400 . S
C764 H749 0.960 . S
C764 H750 0.960 . S
C764 H751 0.960 . S
C764 C763 1.524 . S
C765 C762 1.403 . S
C765 C766 1.392 1_545 S
C765 C769 1.495 . S
C766 C765 1.392 1_565 S
C766 C767 1.385 . S
C766 C768 1.478 . S
C767 H761 0.930 . S
C767 C763 1.400 . S
C767 C766 1.385 . S
C768 C766 1.478 . S
C768 C770 1.381 . S
C768 C774 1.383 . S
C769 C765 1.495 . S
C769 H775 0.959 . S
C769 H776 0.961 . S
C769 H777 0.960 . S
C770 C768 1.381 . S
C770 C771 1.394 . S
C770 H778 0.930 . S
C771 C770 1.394 . S
C771 C772 1.383 . S
C771 H779 0.929 . S
C772 C771 1.383 . S
C772 C773 1.377 . S
C773 H757 0.930 . S
C773 C772 1.377 . S
C773 C774 1.379 . S
C774 H758 0.931 . S
C774 C768 1.383 . S
C774 C773 1.379 . S
H775 C769 0.959 . S
H776 C769 0.961 . S
H777 C769 0.960 . S
H778 C770 0.930 . S
H779 C771 0.929 . S
H780 C788 0.929 . S
H781 C790 0.930 . S
H782 C792 0.930 . S
H783 C795 0.929 . S
H784 C798 0.930 . S
H785 C800 0.960 . S
H786 C800 0.960 . S
H787 C800 0.960 . S
C788 H780 0.929 . S
C788 C789 1.377 . S
C788 C790 1.384 . S
C789 C788 1.377 . S
C789 C795 1.390 . S
C790 H781 0.930 . S
C790 C788 1.384 . S
C790 C791 1.372 . S
C791 C790 1.372 . S
C791 C792 1.400 . S
C791 C796 1.490 . S
C792 H782 0.930 . S
C792 C791 1.400 . S
C792 C795 1.386 . S
H793 C809 0.930 . S
H794 C810 0.931 . S
C795 H783 0.929 . S
C795 C789 1.390 . S
C795 C792 1.386 . S
C796 C791 1.490 . S
C796 C798 1.395 . S
C796 C799 1.403 . S
H797 C803 0.930 . S
C798 H784 0.930 . S
C798 C796 1.395 . S
C798 C801 1.403 . S
C799 C796 1.403 . S
C799 C800 1.524 . S
C799 C803 1.400 . S
C800 H785 0.960 . S
C800 H786 0.960 . S
C800 H787 0.960 . S
C800 C799 1.524 . S
C801 C798 1.403 . S
C801 C802 1.392 . S
C801 C805 1.495 . S
C802 C801 1.392 . S
C802 C803 1.385 . S
C802 C804 1.478 . S
C803 H797 0.930 . S
C803 C799 1.400 . S
C803 C802 1.385 . S
C804 C802 1.478 . S
C804 C806 1.381 . S
C804 C810 1.383 . S
C805 C801 1.495 . S
C805 H811 0.959 . S
C805 H812 0.961 . S
C805 H813 0.960 . S
C806 C804 1.381 . S
C806 C807 1.394 . S
C806 H814 0.930 . S
C807 C806 1.394 . S
C807 C808 1.383 . S
C807 H815 0.929 . S
C808 C807 1.383 . S
C808 C809 1.377 . S
C809 H793 0.930 . S
C809 C808 1.377 . S
C809 C810 1.379 . S
C810 H794 0.931 . S
C810 C804 1.383 . S
C810 C809 1.379 . S
H811 C805 0.959 . S
H812 C805 0.961 . S
H813 C805 0.960 . S
H814 C806 0.930 . S
H815 C807 0.929 . S
H816 C824 0.929 . S
H817 C826 0.930 . S
H818 C828 0.930 . S
H819 C831 0.929 . S
H820 C834 0.930 . S
H821 C836 0.960 . S
H822 C836 0.960 . S
H823 C836 0.960 . S
C824 H816 0.929 . S
C824 C825 1.377 . S
C824 C826 1.384 . S
C825 C824 1.377 . S
C825 C831 1.390 . S
C826 H817 0.930 . S
C826 C824 1.384 . S
C826 C827 1.372 . S
C827 C826 1.372 . S
C827 C828 1.400 . S
C827 C832 1.490 . S
C828 H818 0.930 . S
C828 C827 1.400 . S
C828 C831 1.386 . S
H829 C845 0.930 . S
H830 C846 0.931 . S
C831 H819 0.929 . S
C831 C825 1.390 . S
C831 C828 1.386 . S
C832 C827 1.490 . S
C832 C834 1.395 . S
C832 C835 1.403 . S
H833 C839 0.930 . S
C834 H820 0.930 . S
C834 C832 1.395 . S
C834 C837 1.403 . S
C835 C832 1.403 . S
C835 C836 1.524 . S
C835 C839 1.400 . S
C836 H821 0.960 . S
C836 H822 0.960 . S
C836 H823 0.960 . S
C836 C835 1.524 . S
C837 C834 1.403 . S
C837 C838 1.392 . S
C837 C841 1.495 . S
C838 C837 1.392 . S
C838 C839 1.385 . S
C838 C840 1.478 . S
C839 H833 0.930 . S
C839 C835 1.400 . S
C839 C838 1.385 . S
C840 C838 1.478 . S
C840 C842 1.381 . S
C840 C846 1.383 . S
C841 C837 1.495 . S
C841 H847 0.959 . S
C841 H848 0.961 . S
C841 H849 0.960 . S
C842 C840 1.381 . S
C842 C843 1.394 . S
C842 H850 0.930 . S
C843 C842 1.394 . S
C843 C844 1.383 . S
C843 H851 0.929 . S
C844 C843 1.383 . S
C844 C845 1.377 . S
C845 H829 0.930 . S
C845 C844 1.377 . S
C845 C846 1.379 . S
C846 H830 0.931 . S
C846 C840 1.383 . S
C846 C845 1.379 . S
H847 C841 0.959 . S
H848 C841 0.961 . S
H849 C841 0.960 . S
H850 C842 0.930 . S
H851 C843 0.929 . S
H852 C860 0.929 . S
H853 C862 0.930 . S
H854 C864 0.930 . S
H855 C867 0.929 . S
H856 C870 0.930 . S
H857 C872 0.960 . S
H858 C872 0.960 . S
H859 C872 0.960 . S
C860 H852 0.929 . S
C860 C861 1.377 . S
C860 C862 1.384 . S
C861 C860 1.377 . S
C861 C867 1.390 . S
C862 H853 0.930 . S
C862 C860 1.384 . S
C862 C863 1.372 . S
C863 C862 1.372 . S
C863 C864 1.400 . S
C863 C868 1.490 . S
C864 H854 0.930 . S
C864 C863 1.400 . S
C864 C867 1.386 . S
H865 C881 0.930 . S
H866 C882 0.931 . S
C867 H855 0.929 . S
C867 C861 1.390 . S
C867 C864 1.386 . S
C868 C863 1.490 . S
C868 C870 1.395 . S
C868 C871 1.403 . S
H869 C875 0.930 . S
C870 H856 0.930 . S
C870 C868 1.395 . S
C870 C873 1.403 . S
C871 C868 1.403 . S
C871 C872 1.524 . S
C871 C875 1.400 . S
C872 H857 0.960 . S
C872 H858 0.960 . S
C872 H859 0.960 . S
C872 C871 1.524 . S
C873 C870 1.403 . S
C873 C874 1.392 . S
C873 C877 1.495 . S
C874 C873 1.392 . S
C874 C875 1.385 . S
C874 C876 1.478 . S
C875 H869 0.930 . S
C875 C871 1.400 . S
C875 C874 1.385 . S
C876 C874 1.478 . S
C876 C878 1.381 . S
C876 C882 1.383 . S
C877 C873 1.495 . S
C877 H883 0.959 . S
C877 H884 0.961 . S
C877 H885 0.960 . S
C878 C876 1.381 . S
C878 C879 1.394 . S
C878 H886 0.930 . S
C879 C878 1.394 . S
C879 C880 1.383 . S
C879 H887 0.929 . S
C880 C879 1.383 . S
C880 C881 1.377 . S
C881 H865 0.930 . S
C881 C880 1.377 . S
C881 C882 1.379 . S
C882 H866 0.931 . S
C882 C876 1.383 . S
C882 C881 1.379 . S
H883 C877 0.959 . S
H884 C877 0.961 . S
H885 C877 0.960 . S
H886 C878 0.930 . S
H887 C879 0.929 . S
H888 C896 0.929 . S
H889 C898 0.930 . S
H890 C900 0.930 . S
H891 C903 0.929 . S
H892 C906 0.930 . S
H893 C908 0.960 . S
H894 C908 0.960 . S
H895 C908 0.960 . S
C896 H888 0.929 . S
C896 C897 1.377 . S
C896 C898 1.384 . S
C897 C896 1.377 . S
C897 C903 1.390 . S
C898 H889 0.930 . S
C898 C896 1.384 . S
C898 C899 1.372 . S
C899 C898 1.372 . S
C899 C900 1.400 . S
C899 C904 1.490 . S
C900 H890 0.930 . S
C900 C899 1.400 . S
C900 C903 1.386 . S
H901 C917 0.930 . S
H902 C918 0.931 . S
C903 H891 0.929 . S
C903 C897 1.390 . S
C903 C900 1.386 . S
C904 C899 1.490 . S
C904 C906 1.395 . S
C904 C907 1.403 . S
H905 C911 0.930 . S
C906 H892 0.930 . S
C906 C904 1.395 . S
C906 C909 1.403 . S
C907 C904 1.403 . S
C907 C908 1.524 . S
C907 C911 1.400 . S
C908 H893 0.960 . S
C908 H894 0.960 . S
C908 H895 0.960 . S
C908 C907 1.524 . S
C909 C906 1.403 . S
C909 C910 1.392 . S
C909 C913 1.495 . S
C910 C909 1.392 . S
C910 C911 1.385 . S
C910 C912 1.478 . S
C911 H905 0.930 . S
C911 C907 1.400 . S
C911 C910 1.385 . S
C912 C910 1.478 . S
C912 C914 1.381 . S
C912 C918 1.383 . S
C913 C909 1.495 . S
C913 H919 0.959 . S
C913 H920 0.961 . S
C913 H921 0.960 . S
C914 C912 1.381 . S
C914 C915 1.394 . S
C914 H922 0.930 . S
C915 C914 1.394 . S
C915 C916 1.383 . S
C915 H923 0.929 . S
C916 C915 1.383 . S
C916 C917 1.377 . S
C917 H901 0.930 . S
C917 C916 1.377 . S
C917 C918 1.379 . S
C918 H902 0.931 . S
C918 C912 1.383 . S
C918 C917 1.379 . S
H919 C913 0.959 . S
H920 C913 0.961 . S
H921 C913 0.960 . S
H922 C914 0.930 . S
H923 C915 0.929 . S
H924 C932 0.929 . S
H925 C934 0.930 . S
H926 C936 0.930 . S
H927 C939 0.929 . S
H928 C942 0.930 . S
H929 C944 0.960 . S
H930 C944 0.960 . S
H931 C944 0.960 . S
C932 H924 0.929 . S
C932 C933 1.377 . S
C932 C934 1.384 . S
C933 C932 1.377 . S
C933 C939 1.390 . S
C934 H925 0.930 . S
C934 C932 1.384 . S
C934 C935 1.372 . S
C935 C934 1.372 . S
C935 C936 1.400 . S
C935 C940 1.490 . S
C936 H926 0.930 . S
C936 C935 1.400 . S
C936 C939 1.386 . S
H937 C953 0.930 . S
H938 C954 0.931 . S
C939 H927 0.929 . S
C939 C933 1.390 . S
C939 C936 1.386 . S
C940 C935 1.490 . S
C940 C942 1.395 . S
C940 C943 1.403 . S
H941 C947 0.930 . S
C942 H928 0.930 . S
C942 C940 1.395 . S
C942 C945 1.403 . S
C943 C940 1.403 . S
C943 C944 1.524 . S
C943 C947 1.400 . S
C944 H929 0.960 . S
C944 H930 0.960 . S
C944 H931 0.960 . S
C944 C943 1.524 . S
C945 C942 1.403 . S
C945 C946 1.392 . S
C945 C949 1.495 . S
C946 C945 1.392 . S
C946 C947 1.385 . S
C946 C948 1.478 . S
C947 H941 0.930 . S
C947 C943 1.400 . S
C947 C946 1.385 . S
C948 C946 1.478 . S
C948 C950 1.381 . S
C948 C954 1.383 . S
C949 C945 1.495 . S
C949 H955 0.959 . S
C949 H956 0.961 . S
C949 H957 0.960 . S
C950 C948 1.381 . S
C950 C951 1.394 . S
C950 H958 0.930 . S
C951 C950 1.394 . S
C951 C952 1.383 . S
C951 H959 0.929 . S
C952 C951 1.383 . S
C952 C953 1.377 . S
C953 H937 0.930 . S
C953 C952 1.377 . S
C953 C954 1.379 . S
C954 H938 0.931 . S
C954 C948 1.383 . S
C954 C953 1.379 . S
H955 C949 0.959 . S
H956 C949 0.961 . S
H957 C949 0.960 . S
H958 C950 0.930 . S
H959 C951 0.929 . S
H960 C968 0.929 . S
H961 C970 0.930 . S
H962 C972 0.930 . S
H963 C975 0.929 . S
H964 C978 0.930 . S
H965 C980 0.960 . S
H966 C980 0.960 . S
H967 C980 0.960 . S
C968 H960 0.929 . S
C968 C969 1.377 . S
C968 C970 1.384 . S
C969 C968 1.377 . S
C969 C975 1.390 . S
C970 H961 0.930 . S
C970 C968 1.384 . S
C970 C971 1.372 . S
C971 C970 1.372 . S
C971 C972 1.400 . S
C971 C976 1.490 . S
C972 H962 0.930 . S
C972 C971 1.400 . S
C972 C975 1.386 . S
H973 C989 0.930 . S
H974 C990 0.931 . S
C975 H963 0.929 . S
C975 C969 1.390 . S
C975 C972 1.386 . S
C976 C971 1.490 . S
C976 C978 1.395 . S
C976 C979 1.403 . S
H977 C983 0.930 . S
C978 H964 0.930 . S
C978 C976 1.395 . S
C978 C981 1.403 . S
C979 C976 1.403 . S
C979 C980 1.524 . S
C979 C983 1.400 . S
C980 H965 0.960 . S
C980 H966 0.960 . S
C980 H967 0.960 . S
C980 C979 1.524 . S
C981 C978 1.403 . S
C981 C982 1.392 . S
C981 C985 1.495 . S
C982 C981 1.392 . S
C982 C983 1.385 . S
C982 C984 1.478 . S
C983 H977 0.930 . S
C983 C979 1.400 . S
C983 C982 1.385 . S
C984 C982 1.478 . S
C984 C986 1.381 . S
C984 C990 1.383 . S
C985 C981 1.495 . S
C985 H991 0.959 . S
C985 H992 0.961 . S
C985 H993 0.960 . S
C986 C984 1.381 . S
C986 C987 1.394 . S
C986 H994 0.930 . S
C987 C986 1.394 . S
C987 C988 1.383 . S
C987 H995 0.929 . S
C988 C987 1.383 . S
C988 C989 1.377 . S
C989 H973 0.930 . S
C989 C988 1.377 . S
C989 C990 1.379 . S
C990 H974 0.931 . S
C990 C984 1.383 . S
C990 C989 1.379 . S
H991 C985 0.959 . S
H992 C985 0.961 . S
H993 C985 0.960 . S
H994 C986 0.930 . S
H995 C987 0.929 . S
H996 C1004 0.929 . S
H997 C1006 0.930 . S
H998 C1008 0.930 . S
H999 C1011 0.929 . S
H1000 C1014 0.930 . S
H1001 C1016 0.960 . S
H1002 C1016 0.960 . S
H1003 C1016 0.960 . S
C1004 H996 0.929 . S
C1004 C1005 1.377 . S
C1004 C1006 1.384 . S
C1005 C1004 1.377 . S
C1005 C1011 1.390 . S
C1006 H997 0.930 . S
C1006 C1004 1.384 . S
C1006 C1007 1.372 . S
C1007 C1006 1.372 . S
C1007 C1008 1.400 . S
C1007 C1012 1.490 . S
C1008 H998 0.930 . S
C1008 C1007 1.400 . S
C1008 C1011 1.386 . S
H1009 C1025 0.930 . S
H1010 C1026 0.931 . S
C1011 H999 0.929 . S
C1011 C1005 1.390 . S
C1011 C1008 1.386 . S
C1012 C1007 1.490 . S
C1012 C1014 1.395 . S
C1012 C1015 1.403 . S
H1013 C1019 0.930 . S
C1014 H1000 0.930 . S
C1014 C1012 1.395 . S
C1014 C1017 1.403 . S
C1015 C1012 1.403 . S
C1015 C1016 1.524 . S
C1015 C1019 1.400 . S
C1016 H1001 0.960 . S
C1016 H1002 0.960 . S
C1016 H1003 0.960 . S
C1016 C1015 1.524 . S
C1017 C1014 1.403 . S
C1017 C1018 1.392 . S
C1017 C1021 1.495 . S
C1018 C1017 1.392 . S
C1018 C1019 1.385 . S
C1018 C1020 1.478 . S
C1019 H1013 0.930 . S
C1019 C1015 1.400 . S
C1019 C1018 1.385 . S
C1020 C1018 1.478 . S
C1020 C1022 1.381 . S
C1020 C1026 1.383 . S
C1021 C1017 1.495 . S
C1021 H1027 0.959 . S
C1021 H1028 0.961 . S
C1021 H1029 0.960 . S
C1022 C1020 1.381 . S
C1022 C1023 1.394 . S
C1022 H1030 0.930 . S
C1023 C1022 1.394 . S
C1023 C1024 1.383 . S
C1023 H1031 0.929 . S
C1024 C1023 1.383 . S
C1024 C1025 1.377 . S
C1025 H1009 0.930 . S
C1025 C1024 1.377 . S
C1025 C1026 1.379 . S
C1026 H1010 0.931 . S
C1026 C1020 1.383 . S
C1026 C1025 1.379 . S
H1027 C1021 0.959 . S
H1028 C1021 0.961 . S
H1029 C1021 0.960 . S
H1030 C1022 0.930 . S
H1031 C1023 0.929 . S
C177 C11 1.262 . S
C196 C95 1.271 . S
C213 C25 1.269 . S
C232 C109 1.295 . S
C249 C39 1.268 . S
C268 C123 1.287 . S
C285 C137 1.269 . S
C304 C53 1.295 . S
C321 C67 1.254 . S
C340 C151 1.224 . S
C357 C165 1.255 . S
C376 C81 1.236 . S
C393 C4 0.600 . S
C412 C130 0.505 . S
C429 C18 0.591 . S
C448 C144 0.602 . S
C465 C158 0.564 1_554 S
C484 C32 0.662 . S
C501 C88 0.601 . S
C520 C46 0.526 . S
C537 C60 0.588 . S
C556 C102 0.525 . S
C573 C74 0.601 . S
C592 C116 0.499 1_554 S
C609 C159 1.715 . S
C628 C5 1.671 . S
C645 C19 1.715 . S
C664 C89 1.748 . S
C681 C33 1.707 . S
C700 C103 1.714 . S
C717 C117 1.718 . S
C736 C47 1.744 . S
C753 C131 1.707 . S
C772 C61 1.708 . S
C789 C75 1.707 . S
C808 C145 1.697 . S
C825 C12 0.435 . S
C844 C152 0.357 . S
C861 C166 0.439 . S
C880 C26 0.367 . S
C897 C96 0.458 . S
C916 C40 0.543 . S
C933 C54 0.451 . S
C952 C110 0.414 . S
C969 C124 0.429 . S
C988 C68 0.437 . S
C1005 C138 0.436 . S
C1024 C82 0.359 . S
