# Generated by pormake.
# Topology vma, (5)-cn, num edge types: 1
# Building blocks:
#     Node 0, Type 0, BuildingBlock: XOMCOT_clean_sbu_1, # of connection points: 5
#     Node 1, Type 0, BuildingBlock: XOMCOT_clean_sbu_1, # of connection points: 5
#     Node 2, Type 0, BuildingBlock: XOMCOT_clean_sbu_1, # of connection points: 5
#     Node 3, Type 0, BuildingBlock: XOMCOT_clean_sbu_1, # of connection points: 5
#     Node 4, Type 0, BuildingBlock: XOMCOT_clean_sbu_1, # of connection points: 5
#     Node 5, Type 0, BuildingBlock: XOMCOT_clean_sbu_1, # of connection points: 5
#     Node 6, Type 0, BuildingBlock: XOMCOT_clean_sbu_1, # of connection points: 5
#     Node 7, Type 0, BuildingBlock: XOMCOT_clean_sbu_1, # of connection points: 5
#     Edge 8, Type (0, 0), BuildingBlock: TEMPAE_clean_linker_10, # of connection points: 2
#     Edge 9, Type (0, 0), BuildingBlock: TEMPAE_clean_linker_10, # of connection points: 2
#     Edge 10, Type (0, 0), BuildingBlock: TEMPAE_clean_linker_10, # of connection points: 2
#     Edge 11, Type (0, 0), BuildingBlock: TEMPAE_clean_linker_10, # of connection points: 2
#     Edge 12, Type (0, 0), BuildingBlock: TEMPAE_clean_linker_10, # of connection points: 2
#     Edge 13, Type (0, 0), BuildingBlock: TEMPAE_clean_linker_10, # of connection points: 2
#     Edge 14, Type (0, 0), BuildingBlock: TEMPAE_clean_linker_10, # of connection points: 2
#     Edge 15, Type (0, 0), BuildingBlock: TEMPAE_clean_linker_10, # of connection points: 2
#     Edge 16, Type (0, 0), BuildingBlock: TEMPAE_clean_linker_10, # of connection points: 2
#     Edge 17, Type (0, 0), BuildingBlock: TEMPAE_clean_linker_10, # of connection points: 2
#     Edge 18, Type (0, 0), BuildingBlock: TEMPAE_clean_linker_10, # of connection points: 2
#     Edge 19, Type (0, 0), BuildingBlock: TEMPAE_clean_linker_10, # of connection points: 2
#     Edge 20, Type (0, 0), BuildingBlock: TEMPAE_clean_linker_10, # of connection points: 2
#     Edge 21, Type (0, 0), BuildingBlock: TEMPAE_clean_linker_10, # of connection points: 2
#     Edge 22, Type (0, 0), BuildingBlock: TEMPAE_clean_linker_10, # of connection points: 2
#     Edge 23, Type (0, 0), BuildingBlock: TEMPAE_clean_linker_10, # of connection points: 2
#     Edge 24, Type (0, 0), BuildingBlock: TEMPAE_clean_linker_10, # of connection points: 2
#     Edge 25, Type (0, 0), BuildingBlock: TEMPAE_clean_linker_10, # of connection points: 2
#     Edge 26, Type (0, 0), BuildingBlock: TEMPAE_clean_linker_10, # of connection points: 2
#     Edge 27, Type (0, 0), BuildingBlock: TEMPAE_clean_linker_10, # of connection points: 2
# Relax obj value: 0.095
# Max RMSD: 0.173
# Mean RMSD: 0.170
data_MOF--net-vma--node1-XOMCOT_clean_sbu_1--edge1-TEMPAE_clean_linker_10
_symmetry_space_group_name_H-M    P1
_symmetry_Int_Tables_number       1
_symmetry_cell_setting            triclinic
loop_
_symmetry_equiv_pos_as_xyz
'x, y, z'
_cell_length_a     40.983644
_cell_length_b     28.837273
_cell_length_c     36.892537
_cell_angle_alpha  89.84632
_cell_angle_beta   99.80247
_cell_angle_gamma 90.037058
loop_
_atom_site_label
_atom_site_type_symbol
_atom_site_fract_x
_atom_site_fract_y
_atom_site_fract_z
_atom_type_partial_charge
C0 C 0.35941 0.10767 0.30583 0.0
C1 C 0.38503 0.10832 0.28612 0.0
N2 N 0.41373 0.11052 0.31003 0.0
N3 N 0.37179 0.10867 0.34212 0.0
C4 C 0.40505 0.11115 0.34381 0.0
H5 H 0.33333 0.10568 0.29444 0.0
Co6 Co 0.3457 0.10431 0.37919 0.0
C7 C 0.38797 0.05306 0.44088 0.0
O8 O 0.36212 0.0331 0.45078 0.0
N9 N 0.3179 0.1005 0.41677 0.0
C10 C 0.27957 0.07667 0.44925 0.0
C11 C 0.2989 0.06419 0.42403 0.0
C12 C 0.30948 0.13462 0.43889 0.0
N13 N 0.28596 0.12115 0.45843 0.0
O14 O 0.35691 0.16679 0.39216 0.0
H15 H 0.29884 0.03005 0.41207 0.0
H16 H 0.31928 0.16945 0.43977 0.0
O17 O 0.38434 0.08082 0.41339 0.0
C18 C 0.33337 0.18968 0.37319 0.0
O19 O 0.30857 0.16696 0.35387 0.0
N20 N 0.33222 0.04596 0.36164 0.0
C21 C 0.30553 0.97229 0.31776 0.0
C22 C 0.33789 0.96963 0.33802 0.0
C23 C 0.35101 0.00733 0.35971 0.0
C24 C 0.30089 0.04886 0.34222 0.0
C25 C 0.28686 0.01223 0.32082 0.0
H26 H 0.37658 0.00643 0.37315 0.0
H27 H 0.28688 0.08048 0.34291 0.0
H28 H 0.42264 0.11214 0.36924 0.0
H29 H 0.38279 0.10718 0.25647 0.0
H30 H 0.26192 0.05467 0.45983 0.0
H31 H 0.35336 0.93969 0.33584 0.0
H32 H 0.26171 0.01565 0.30622 0.0
C33 C 0.69667 0.10928 0.25245 0.0
C34 C 0.66993 0.11038 0.2704 0.0
N35 N 0.64214 0.10858 0.24508 0.0
N36 N 0.68597 0.10605 0.21589 0.0
C37 C 0.65247 0.10639 0.21215 0.0
H38 H 0.72242 0.11009 0.26531 0.0
Co39 Co 0.71497 0.10006 0.18191 0.0
C40 C 0.67821 0.04517 0.11937 0.0
O41 O 0.70556 0.02493 0.11385 0.0
N42 N 0.74581 0.09473 0.14776 0.0
C43 C 0.78758 0.07138 0.12026 0.0
C44 C 0.76739 0.05977 0.14493 0.0
C45 C 0.75357 0.127 0.12364 0.0
N46 N 0.77911 0.11389 0.10705 0.0
O47 O 0.70403 0.16154 0.16542 0.0
H48 H 0.76861 0.0271 0.15943 0.0
H49 H 0.74167 0.16042 0.11912 0.0
O50 O 0.67885 0.07438 0.14554 0.0
C51 C 0.72621 0.18601 0.18497 0.0
O52 O 0.74956 0.16512 0.20805 0.0
N53 N 0.72782 0.04289 0.2026 0.0
C54 C 0.75333 0.96999 0.24826 0.0
C55 C 0.72248 0.96569 0.22494 0.0
C56 C 0.70984 0.00306 0.20247 0.0
C57 C 0.75745 0.04765 0.22544 0.0
C58 C 0.77091 0.01151 0.24794 0.0
H59 H 0.68533 0.00059 0.18632 0.0
H60 H 0.77071 0.08013 0.22617 0.0
H61 H 0.63597 0.10395 0.18603 0.0
H62 H 0.67079 0.11241 0.29985 0.0
H63 H 0.80712 0.0501 0.11277 0.0
H64 H 0.70781 0.93446 0.22502 0.0
H65 H 0.79488 0.01626 0.26509 0.0
C66 C 0.66292 0.95965 0.60803 0.0
C67 C 0.63905 0.9815 0.58314 0.0
N68 N 0.60999 0.95988 0.58347 0.0
N69 N 0.64894 0.92474 0.62435 0.0
C70 C 0.61664 0.92534 0.60851 0.0
H71 H 0.68874 0.96938 0.61465 0.0
Co72 Co 0.6718 0.88933 0.66283 0.0
C73 C 0.6198 0.84222 0.69466 0.0
O74 O 0.63467 0.80265 0.69069 0.0
N75 N 0.69528 0.85433 0.70187 0.0
C76 C 0.71666 0.83061 0.75841 0.0
C77 C 0.69438 0.86019 0.73806 0.0
C78 C 0.7181 0.82074 0.701 0.0
N79 N 0.73141 0.80591 0.73493 0.0
O80 O 0.66541 0.83467 0.63229 0.0
H81 H 0.6787 0.8848 0.74899 0.0
H82 H 0.72547 0.80769 0.67626 0.0
O83 O 0.63121 0.8796 0.68296 0.0
C84 C 0.68909 0.83471 0.61379 0.0
O85 O 0.70968 0.87003 0.61781 0.0
N86 N 0.68136 0.94306 0.69045 0.0
C87 C 0.70488 0.02465 0.72598 0.0
C88 C 0.6707 0.01497 0.71881 0.0
C89 C 0.65935 0.97366 0.7009 0.0
C90 C 0.71442 0.95196 0.69714 0.0
C91 C 0.72673 0.99176 0.7156 0.0
H92 H 0.63305 0.967 0.6944 0.0
H93 H 0.73142 0.9278 0.68788 0.0
H94 H 0.59813 0.90216 0.61612 0.0
H95 H 0.64266 0.01127 0.56632 0.0
H96 H 0.72129 0.82691 0.78806 0.0
H97 H 0.65286 0.03958 0.72586 0.0
H98 H 0.75329 -0.00321 0.72126 0.0
C99 C 0.40801 0.96438 0.94333 0.0
C100 C 0.43441 0.98398 0.9659 0.0
N101 N 0.46193 0.96107 0.96125 0.0
N102 N 0.41879 0.92968 0.92396 0.0
C103 C 0.4519 0.92794 0.93587 0.0
H104 H 0.38243 0.97488 0.94104 0.0
Co105 Co 0.38944 0.89684 0.88935 0.0
C106 C 0.42616 0.86568 0.83063 0.0
O107 O 0.39859 0.87043 0.80705 0.0
N108 N 0.35754 0.86343 0.85481 0.0
C109 C 0.31659 0.84412 0.80917 0.0
C110 C 0.33597 0.87957 0.82539 0.0
C111 C 0.35019 0.81754 0.85555 0.0
N112 N 0.32541 0.80531 0.82837 0.0
O113 O 0.39385 0.84404 0.92185 0.0
H114 H 0.33465 0.91448 0.81481 0.0
H115 H 0.36283 0.79301 0.8753 0.0
O116 O 0.42653 0.87515 0.86472 0.0
C117 C 0.36986 0.84497 0.93985 0.0
O118 O 0.3492 0.88013 0.93455 0.0
N119 N 0.38303 0.95074 0.8606 0.0
C120 C 0.36281 0.03024 0.82043 0.0
C121 C 0.3939 0.01075 0.81902 0.0
C122 C 0.40381 0.97089 0.83984 0.0
C123 C 0.35443 0.97232 0.86507 0.0
C124 C 0.34345 0.01147 0.84459 0.0
H125 H 0.42803 0.95663 0.83918 0.0
H126 H 0.33914 0.95729 0.88324 0.0
H127 H 0.46834 0.90357 0.92585 0.0
H128 H 0.43349 0.01258 0.98467 0.0
H129 H 0.29721 0.8467 0.78532 0.0
H130 H 0.40997 0.02564 0.80161 0.0
H131 H 0.31982 0.02669 0.8473 0.0
C132 C 0.86377 0.61853 0.3057 0.0
C133 C 0.89063 0.62278 0.28807 0.0
N134 N 0.91824 0.61294 0.31231 0.0
N135 N 0.87423 0.60626 0.34103 0.0
C136 C 0.90761 0.60296 0.34425 0.0
H137 H 0.83815 0.62418 0.29358 0.0
Co138 Co 0.84578 0.59892 0.37548 0.0
C139 C 0.88519 0.53809 0.43176 0.0
O140 O 0.86041 0.50888 0.42992 0.0
N141 N 0.81609 0.59237 0.41098 0.0
C142 C 0.77795 0.56697 0.44325 0.0
C143 C 0.79769 0.55533 0.41799 0.0
C144 C 0.80696 0.62586 0.43315 0.0
N145 N 0.78357 0.61162 0.45249 0.0
O146 O 0.85605 0.66065 0.39139 0.0
H147 H 0.79788 0.52164 0.40531 0.0
H148 H 0.8171 0.66047 0.43538 0.0
O149 O 0.88232 0.5744 0.41152 0.0
C150 C 0.83305 0.68373 0.37166 0.0
O151 O 0.80967 0.66123 0.34984 0.0
N152 N 0.83322 0.54153 0.3546 0.0
C153 C 0.80828 0.47017 0.30705 0.0
C154 C 0.8411 0.46875 0.32597 0.0
C155 C 0.85339 0.50545 0.34918 0.0
C156 C 0.80163 0.54374 0.33575 0.0
C157 C 0.78848 0.50816 0.31248 0.0
H158 H 0.87931 0.50588 0.36133 0.0
H159 H 0.78663 0.57395 0.33843 0.0
H160 H 0.92393 0.59431 0.36961 0.0
H161 H 0.88985 0.63192 0.25945 0.0
H162 H 0.76001 0.54469 0.45303 0.0
H163 H 0.85748 0.44058 0.32168 0.0
H164 H 0.76305 0.51071 0.29854 0.0
C165 C 0.20244 0.60842 0.25355 0.0
C166 C 0.17701 0.61054 0.2736 0.0
N167 N 0.14803 0.60908 0.25004 0.0
N168 N 0.18965 0.60585 0.21746 0.0
C169 C 0.15641 0.60635 0.21619 0.0
H170 H 0.22864 0.60872 0.26456 0.0
Co171 Co 0.21431 0.60371 0.17897 0.0
C172 C 0.16271 0.59512 0.11448 0.0
O173 O 0.1758 0.63096 0.10018 0.0
N174 N 0.23914 0.60147 0.14 0.0
C175 C 0.25842 0.5793 0.08989 0.0
C176 C 0.23889 0.56702 0.11528 0.0
C177 C 0.25969 0.6337 0.12947 0.0
N178 N 0.2715 0.62156 0.0987 0.0
O179 O 0.20252 0.66666 0.16763 0.0
H180 H 0.22458 0.53546 0.11507 0.0
H181 H 0.26579 0.66565 0.14402 0.0
O182 O 0.1758 0.5801 0.14619 0.0
C183 C 0.22468 0.68937 0.18876 0.0
O184 O 0.24836 0.66651 0.20993 0.0
N185 N 0.22872 0.54476 0.19374 0.0
C186 C 0.25699 0.4695 0.23471 0.0
C187 C 0.22319 0.46913 0.21896 0.0
C188 C 0.20936 0.50754 0.19856 0.0
C189 C 0.26173 0.5447 0.2074 0.0
C190 C 0.27643 0.50729 0.22764 0.0
H191 H 0.18295 0.50869 0.18878 0.0
H192 H 0.27644 0.57513 0.20425 0.0
H193 H 0.13859 0.60558 0.19094 0.0
H194 H 0.17965 0.61236 0.30325 0.0
H195 H 0.26158 0.55911 0.06608 0.0
H196 H 0.20728 0.44072 0.22411 0.0
H197 H 0.30263 0.50871 0.23878 0.0
C198 C 0.1571 0.45937 0.61029 0.0
C199 C 0.13268 0.47795 0.58418 0.0
N200 N 0.10369 0.45847 0.58825 0.0
N201 N 0.14367 0.42789 0.63052 0.0
C202 C 0.11093 0.4283 0.61659 0.0
H203 H 0.18315 0.4679 0.61408 0.0
Co204 Co 0.16834 0.39243 0.66776 0.0
C205 C 0.11874 0.34221 0.70151 0.0
O206 O 0.13516 0.30367 0.69859 0.0
N207 N 0.1937 0.3577 0.70529 0.0
C208 C 0.21545 0.3304 0.76039 0.0
C209 C 0.19342 0.36143 0.74168 0.0
C210 C 0.21636 0.32444 0.70263 0.0
N211 N 0.22978 0.30672 0.73581 0.0
O212 O 0.16187 0.33817 0.63687 0.0
H213 H 0.17789 0.38488 0.75395 0.0
H214 H 0.22248 0.31299 0.6768 0.0
O215 O 0.12861 0.38011 0.68903 0.0
C216 C 0.18123 0.34006 0.61318 0.0
O217 O 0.20038 0.37652 0.61287 0.0
N218 N 0.17782 0.44544 0.69591 0.0
C219 C 0.20542 0.51839 0.73994 0.0
C220 C 0.17237 0.50493 0.73972 0.0
C221 C 0.15884 0.46821 0.71717 0.0
C222 C 0.20927 0.45936 0.69461 0.0
C223 C 0.22352 0.49575 0.71623 0.0
H224 H 0.13366 0.45743 0.71766 0.0
H225 H 0.22364 0.4411 0.67714 0.0
H226 H 0.09285 0.40628 0.62637 0.0
H227 H 0.13589 0.50402 0.56391 0.0
H228 H 0.2204 0.32593 0.78993 0.0
H229 H 0.15743 0.52178 0.75737 0.0
H230 H 0.24862 0.50593 0.71438 0.0
C231 C 0.89837 0.45452 0.95233 0.0
C232 C 0.92151 0.47739 0.9771 0.0
N233 N 0.95186 0.46231 0.97316 0.0
N234 N 0.91373 0.42459 0.93291 0.0
C235 C 0.94638 0.42999 0.94618 0.0
H236 H 0.87187 0.45975 0.94833 0.0
Co237 Co 0.8905 0.38851 0.89529 0.0
C238 C 0.94131 0.34136 0.86205 0.0
O239 O 0.92581 0.30219 0.86577 0.0
N240 N 0.86632 0.35304 0.85748 0.0
C241 C 0.84314 0.32832 0.80203 0.0
C242 C 0.86605 0.35809 0.82099 0.0
C243 C 0.84353 0.31984 0.86001 0.0
N244 N 0.82911 0.30439 0.82668 0.0
O245 O 0.89826 0.33413 0.92595 0.0
H246 H 0.8813 0.38235 0.80894 0.0
H247 H 0.83699 0.30786 0.88562 0.0
O248 O 0.93067 0.37898 0.87407 0.0
C249 C 0.87828 0.33455 0.94898 0.0
O250 O 0.85755 0.36937 0.94822 0.0
N251 N 0.88004 0.44192 0.86751 0.0
C252 C 0.85606 0.52434 0.83349 0.0
C253 C 0.89023 0.51467 0.83986 0.0
C254 C 0.9018 0.47293 0.85697 0.0
C255 C 0.84697 0.45068 0.86146 0.0
C256 C 0.83441 0.49091 0.84369 0.0
H257 H 0.92814 0.46634 0.86299 0.0
H258 H 0.83018 0.42623 0.87088 0.0
H259 H 0.96569 0.41152 0.93557 0.0
H260 H 0.91618 0.50313 0.99654 0.0
H261 H 0.83751 0.32404 0.77247 0.0
H262 H 0.90793 0.53965 0.83293 0.0
H263 H 0.80784 0.49592 0.83858 0.0
C264 C 0.18778 0.30941 0.55241 0.0
C265 C 0.1867 0.30071 0.58954 0.0
C266 C 0.20154 0.27711 0.53096 0.0
C267 C 0.21558 0.23567 0.54741 0.0
C268 C 0.21325 0.22579 0.58459 0.0
C269 C 0.1984 0.25828 0.60514 0.0
C270 C 0.20273 0.28866 0.49125 0.0
C271 C 0.22847 0.1825 0.60341 0.0
C272 C 0.23526 0.14056 0.48313 0.0
C273 C 0.26876 0.14915 0.48159 0.0
C274 C 0.21783 0.16777 0.50494 0.0
C275 C 0.23429 0.20434 0.5261 0.0
C276 C 0.26826 0.21276 0.52517 0.0
C277 C 0.28499 0.18531 0.5027 0.0
C278 C 0.18157 0.15812 0.5046 0.0
C279 C 0.28684 0.25111 0.54763 0.0
H280 H 0.17912 0.34257 0.54056 0.0
H281 H 0.19819 0.25198 0.63408 0.0
H282 H 0.22872 0.29524 0.48789 0.0
H283 H 0.19353 0.25902 0.47325 0.0
H284 H 0.18774 0.31981 0.48167 0.0
H285 H 0.222 0.17786 0.63125 0.0
H286 H 0.22031 0.15142 0.58664 0.0
H287 H 0.25583 0.18451 0.60623 0.0
H288 H 0.22237 0.11317 0.46646 0.0
H289 H 0.3109 0.19181 0.50191 0.0
H290 H 0.16664 0.1886 0.49335 0.0
H291 H 0.17696 0.15245 0.53305 0.0
H292 H 0.1727 0.12727 0.48778 0.0
H293 H 0.27596 0.28517 0.53817 0.0
H294 H 0.31355 0.2515 0.54551 0.0
H295 H 0.28446 0.24718 0.577 0.0
C296 C 0.77879 0.17414 0.0591 0.0
C297 C 0.79596 0.14102 0.0829 0.0
C298 C 0.79525 0.20153 0.03626 0.0
C299 C 0.82982 0.1961 0.03755 0.0
C300 C 0.84719 0.16229 0.06113 0.0
C301 C 0.83007 0.13512 0.0834 0.0
C302 C 0.77572 0.23695 1.01125 0.0
C303 C 0.88407 0.15582 0.06372 0.0
C304 C 0.8658 0.25131 0.95893 0.0
C305 C 0.87436 0.29531 0.97345 0.0
C306 C 0.85239 0.21766 0.97994 0.0
C307 C 0.84804 0.22833 1.01636 0.0
C308 C 0.85905 0.27164 0.03184 0.0
C309 C 0.87165 0.30477 1.01001 0.0
C310 C 0.84064 0.17219 0.96221 0.0
C311 C 0.85558 0.2842 0.07074 0.0
H312 H 0.75243 0.1785 0.05825 0.0
H313 H 0.84367 0.11012 0.10208 0.0
H314 H 0.78431 0.27236 1.01988 0.0
H315 H 0.77995 0.23212 0.98258 0.0
H316 H 0.74872 0.23471 1.0116 0.0
H317 H 0.89361 0.12616 0.08172 0.0
H318 H 0.89031 0.15002 0.03598 0.0
H319 H 0.89716 0.18777 0.07486 0.0
H320 H 0.8672 0.24443 0.93035 0.0
H321 H 0.87795 0.3391 1.02101 0.0
H322 H 0.81317 0.17204 0.95606 0.0
H323 H 0.84845 0.14276 0.98112 0.0
H324 H 0.85014 0.16647 0.93612 0.0
H325 H 0.82899 0.28818 0.07258 0.0
H326 H 0.86852 0.31709 0.07985 0.0
H327 H 0.86568 0.25617 0.09007 0.0
C328 C 0.67555 0.76985 0.56799 0.0
C329 C 0.69836 0.79343 0.5941 0.0
C330 C 0.6864 0.73597 0.54513 0.0
C331 C 0.72064 0.72509 0.54917 0.0
C332 C 0.74325 0.74683 0.57725 0.0
C333 C 0.7319 0.78102 0.59892 0.0
C334 C 0.66155 0.71379 0.51537 0.0
C335 C 0.77983 0.73584 0.5832 0.0
C336 C 0.75434 0.61934 0.50577 0.0
C337 C 0.76642 0.63937 0.47594 0.0
C338 C 0.73819 0.64636 0.52912 0.0
C339 C 0.73372 0.69451 0.52228 0.0
C340 C 0.745 0.71457 0.49155 0.0
C341 C 0.76127 0.68687 0.46895 0.0
C342 C 0.72704 0.62372 0.56186 0.0
C343 C 0.74064 0.76568 0.48304 0.0
H344 H 0.64966 0.77969 0.56405 0.0
H345 H 0.74962 0.79909 0.61923 0.0
H346 H 0.66566 0.72659 0.48811 0.0
H347 H 0.66486 0.67561 0.51561 0.0
H348 H 0.63565 0.72179 0.51843 0.0
H349 H 0.79348 0.75207 0.60862 0.0
H350 H 0.78384 0.69781 0.58504 0.0
H351 H 0.79063 0.74865 0.55944 0.0
H352 H 0.75833 0.58273 0.51147 0.0
H353 H 0.76987 0.70244 0.44561 0.0
H354 H 0.70081 0.63248 0.56258 0.0
H355 H 0.74202 0.63717 0.58759 0.0
H356 H 0.72964 0.58539 0.56157 0.0
H357 H 0.71424 0.77556 0.48111 0.0
H358 H 0.74899 0.77535 0.45692 0.0
H359 H 0.75505 0.78626 0.50565 0.0
C360 C 0.38316 0.7834 0.98854 0.0
C361 C 0.36069 0.8044 0.96047 0.0
C362 C 0.3723 0.74982 1.01174 0.0
C363 C 0.33844 0.7365 1.00601 0.0
C364 C 0.31632 0.75562 0.97605 0.0
C365 C 0.32762 0.78976 0.95409 0.0
C366 C 0.3966 0.73055 0.04352 0.0
C367 C 0.28024 0.74184 0.9682 0.0
C368 C 0.30636 0.62976 0.04997 0.0
C369 C 0.29125 0.64958 0.07777 0.0
C370 C 0.32301 0.65726 0.02731 0.0
C371 C 0.32514 0.7058 0.03278 0.0
C372 C 0.31139 0.72579 0.0618 0.0
C373 C 0.29449 0.69766 0.08365 0.0
C374 C 0.33698 0.63459 0.99644 0.0
C375 C 0.31323 0.77739 0.06881 0.0
H376 H 0.40869 0.795 0.99359 0.0
H377 H 0.31028 0.80585 0.93217 0.0
H378 H 0.39043 0.74385 0.06973 0.0
H379 H 0.39485 0.69219 0.04436 0.0
H380 H 0.42252 0.74043 0.04194 0.0
H381 H 0.26753 0.75506 0.94113 0.0
H382 H 0.27764 0.70356 0.96854 0.0
H383 H 0.26741 0.75595 0.98994 0.0
H384 H 0.30478 0.59276 0.04535 0.0
H385 H 0.28291 0.71398 0.10452 0.0
H386 H 0.36297 0.64568 0.99691 0.0
H387 H 0.32253 0.64575 0.96963 0.0
H388 H 0.33621 0.59614 0.99797 0.0
H389 H 0.33907 0.78983 0.07055 0.0
H390 H 0.30429 0.78694 0.09459 0.0
H391 H 0.29789 0.79592 0.04555 0.0
C392 C 0.60116 0.08032 0.28165 0.0
C393 C 0.60874 0.10747 0.2526 0.0
C394 C 0.56922 0.08024 0.29075 0.0
C395 C 0.54434 0.10904 0.27097 0.0
C396 C 0.55188 0.13661 0.24154 0.0
C397 C 0.58388 0.13496 0.23237 0.0
C398 C 0.56212 0.04922 0.32152 0.0
C399 C 0.52636 0.16856 0.22027 0.0
C400 C 0.45376 0.0807 0.27287 0.0
C401 C 0.44659 0.10984 0.30087 0.0
C402 C 0.48543 0.07989 0.26305 0.0
C403 C 0.51043 0.10989 0.28098 0.0
C404 C 0.50321 0.13976 0.30908 0.0
C405 C 0.47151 0.13887 0.31905 0.0
C406 C 0.49224 0.04643 0.23382 0.0
C407 C 0.52886 0.17301 0.32834 0.0
H408 H 0.62032 0.05875 0.29708 0.0
H409 H 0.58986 0.1563 0.21017 0.0
H410 H 0.5549 0.07046 0.34389 0.0
H411 H 0.54098 0.02596 0.31131 0.0
H412 H 0.58381 0.0276 0.33326 0.0
H413 H 0.53629 0.18841 0.1987 0.0
H414 H 0.50458 0.14831 0.20699 0.0
H415 H 0.5175 0.19344 0.23935 0.0
H416 H 0.4346 0.05788 0.25907 0.0
H417 H 0.46588 0.1617 0.34044 0.0
H418 H 0.51302 0.02313 0.24526 0.0
H419 H 0.49989 0.0657 0.21059 0.0
H420 H 0.4703 0.02486 0.22296 0.0
H421 H 0.55039 0.15346 0.34316 0.0
H422 H 0.51893 0.19537 0.3484 0.0
H423 H 0.53809 0.1955 0.30782 0.0
C424 C 0.58541 0.80523 0.73704 0.0
C425 C 0.5926 0.84408 0.71672 0.0
C426 C 0.56058 0.80676 0.75907 0.0
C427 C 0.5421 0.84798 0.76061 0.0
C428 C 0.54942 0.88744 0.74041 0.0
C429 C 0.57462 0.8851 0.71889 0.0
C430 C 0.55378 0.76399 0.78028 0.0
C431 C 0.53007 0.93191 0.74085 0.0
C432 C 0.45398 0.83947 0.77929 0.0
C433 C 0.45688 0.85603 0.81549 0.0
C434 C 0.48156 0.8358 0.76162 0.0
C435 C 0.5132 0.84864 0.78055 0.0
C436 C 0.5167 0.86344 0.8177 0.0
C437 C 0.48845 0.86704 0.83477 0.0
C438 C 0.47653 0.8197 0.7221 0.0
C439 C 0.55009 0.87687 0.839 0.0
H440 H 0.59936 0.77349 0.73596 0.0
H441 H 0.58002 0.91535 0.70345 0.0
H442 H 0.55444 0.77265 0.80968 0.0
H443 H 0.5286 0.75072 0.76946 0.0
H444 H 0.57193 0.73587 0.77842 0.0
H445 H 0.53986 0.96018 0.72522 0.0
H446 H 0.50375 0.9258 0.72867 0.0
H447 H 0.53066 0.94359 0.76958 0.0
H448 H 0.42978 0.83038 0.76418 0.0
H449 H 0.49095 0.87999 0.86266 0.0
H450 H 0.49278 0.78964 0.71933 0.0
H451 H 0.48349 0.84786 0.70432 0.0
H452 H 0.45048 0.80952 0.71166 0.0
H453 H 0.56833 0.84882 0.83751 0.0
H454 H 0.54914 0.8841 0.86836 0.0
H455 H 0.55925 0.90832 0.82654 0.0
C456 C 0.08919 0.58492 0.23843 0.0
C457 C 0.11513 0.60996 0.25931 0.0
C458 C 0.05726 0.58461 0.24775 0.0
C459 C 0.05088 0.61063 0.27836 0.0
C460 C 0.07693 0.63637 0.29929 0.0
C461 C 0.10872 0.6354 0.2897 0.0
C462 C 0.0304 0.55619 0.22494 0.0
C463 C 0.07113 0.66542 0.33159 0.0
C464 C 0.96126 0.64502 0.27982 0.0
C465 C 0.95184 0.61329 0.30506 0.0
C466 C 0.99343 0.64491 0.27131 0.0
C467 C 1.01681 0.61177 0.28799 0.0
C468 C 1.00753 0.5798 0.31371 0.0
C469 C 0.97527 0.5812 0.32216 0.0
C470 C 1.00238 0.68032 0.2444 0.0
C471 C 0.0315 0.54357 0.33184 0.0
H472 H 0.09405 0.56478 0.21518 0.0
H473 H 0.12854 0.65528 0.30567 0.0
H474 H 1.02019 0.53085 0.24276 0.0
H475 H 1.00972 0.57906 0.2125 0.0
H476 H 0.03952 0.53705 0.20255 0.0
H477 H 0.09393 0.68355 0.34498 0.0
H478 H 0.05172 0.69172 0.32236 0.0
H479 H 0.06203 0.64326 0.35238 0.0
H480 H 0.94345 0.67034 0.26693 0.0
H481 H 0.96806 0.55635 0.34141 0.0
H482 H 1.00932 0.66255 0.2202 0.0
H483 H 1.0242 0.70073 0.25742 0.0
H484 H 0.98169 0.70461 0.23466 0.0
H485 H 0.03933 0.52104 0.31054 0.0
H486 H 1.02059 0.52146 0.35141 0.0
H487 H 0.0541 0.56045 0.34693 0.0
C488 C 0.06561 0.3739 0.71668 0.0
C489 C 0.09225 0.34291 0.72433 0.0
C490 C 0.04069 0.37488 0.73869 0.0
C491 C 0.04316 0.34542 0.76991 0.0
C492 C 0.0705 0.31486 0.77814 0.0
C493 C 0.09435 0.31343 0.75493 0.0
C494 C 1.01145 0.40685 0.72819 0.0
C495 C 0.07472 0.28385 0.81167 0.0
C496 C 0.9932 0.37558 0.84523 0.0
C497 C 0.9677 0.34264 0.83906 0.0
C498 C 1.01809 0.37675 0.82316 0.0
C499 C 1.01675 0.34533 0.7934 0.0
C500 C 0.99054 0.31276 0.78663 0.0
C501 C 0.96671 0.31133 0.80986 0.0
C502 C 0.04613 0.41103 0.83207 0.0
C503 C 0.98752 0.27955 0.75464 0.0
H504 H 0.06395 0.39675 0.69305 0.0
H505 H 0.11521 0.28996 0.76132 0.0
H506 H 0.98816 0.38641 0.72391 0.0
H507 H 1.01003 0.43163 0.7508 0.0
H508 H 1.01284 0.42682 0.7027 0.0
H509 H 0.09835 0.26417 0.81544 0.0
H510 H 0.07407 0.30489 0.83669 0.0
H511 H 0.05396 0.25875 0.80931 0.0
H512 H 0.99403 0.39984 0.86778 0.0
H513 H 0.94675 0.28627 0.80458 0.0
H514 H 0.04675 0.43438 0.80827 0.0
H515 H 0.07012 0.39229 0.83741 0.0
H516 H 0.04392 0.4325 0.8565 0.0
H517 H 0.98747 0.29905 0.72866 0.0
H518 H 0.96461 0.25828 0.75182 0.0
H519 H 1.00915 0.25588 0.75822 0.0
C520 C 0.20546 0.76334 0.21085 0.0
C521 C 0.22584 0.73997 0.19019 0.0
C522 C 0.21504 0.80661 0.22657 0.0
C523 C 0.24565 0.82621 0.2214 0.0
C524 C 0.26423 0.805 0.19701 0.0
C525 C 0.25412 0.76187 0.18183 0.0
C526 C 0.19428 0.8286 0.25193 0.0
C527 C 0.29681 0.82485 0.19039 0.0
C528 C 0.27184 0.9456 0.25834 0.0
C529 C 0.2912 0.93469 0.29254 0.0
C530 C 0.25642 0.91081 0.23502 0.0
C531 C 0.26091 0.86394 0.24587 0.0
C532 C 0.28093 0.85258 0.28001 0.0
C533 C 0.29576 0.88813 0.30298 0.0
C534 C 0.23532 0.92417 0.19886 0.0
C535 C 0.28659 0.80281 0.29236 0.0
H536 H 0.18395 0.74579 0.21785 0.0
H537 H 0.2701 0.74331 0.16629 0.0
H538 H 0.20603 0.82222 0.2809 0.0
H539 H 0.19274 0.86669 0.24771 0.0
H540 H 0.16881 0.81406 0.24778 0.0
H541 H 0.30512 0.8088 0.16616 0.0
H542 H 0.29503 0.8629 0.18611 0.0
H543 H 0.31604 0.81835 0.21492 0.0
H544 H 0.26874 0.98151 0.24971 0.0
H545 H 0.31041 0.8795 0.32944 0.0
H546 H 0.20988 0.91032 0.19753 0.0
H547 H 0.24555 0.9086 0.17573 0.0
H548 H 0.23382 0.96235 0.19482 0.0
H549 H 0.26256 0.78593 0.29405 0.0
H550 H 0.30286 0.79989 0.31961 0.0
H551 H 0.2981 0.78327 0.27193 0.0
C552 C 0.78346 0.9419 0.30918 0.0
C553 C 0.76738 0.93197 0.27326 0.0
C554 C 0.79857 0.90675 0.3325 0.0
C555 C 0.79721 0.86056 0.31972 0.0
C556 C 0.78073 0.85023 0.28364 0.0
C557 C 0.76604 0.8861 0.26084 0.0
C558 C 0.81585 0.91896 0.37076 0.0
C559 C 0.77856 0.80119 0.26909 0.0
C560 C 0.85295 0.76114 0.35685 0.0
C561 C 0.83062 0.73422 0.37255 0.0
C562 C 0.84366 0.80528 0.3425 0.0
C563 C 0.81147 0.82217 0.34422 0.0
C564 C 0.79064 0.79725 0.3642 0.0
C565 C 0.80044 0.75328 0.3779 0.0
C566 C 0.86672 0.83115 0.32179 0.0
C567 C 0.75631 0.81418 0.36709 0.0
H568 H 0.78414 0.97726 0.31915 0.0
H569 H 0.75403 0.87835 0.23302 0.0
H570 H 0.80365 0.90103 0.39149 0.0
H571 H 0.84191 0.90685 0.37491 0.0
H572 H 0.81568 0.95687 0.37602 0.0
H573 H 0.7653 0.79918 0.24025 0.0
H574 H 0.80378 0.78666 0.27029 0.0
H575 H 0.76542 0.77891 0.28651 0.0
H576 H 0.87604 0.74583 0.35217 0.0
H577 H 0.78305 0.73187 0.3895 0.0
H578 H 0.86622 0.8689 0.32735 0.0
H579 H 0.85849 0.82613 0.29181 0.0
H580 H 0.8926 0.81848 0.32909 0.0
H581 H 0.7567 0.85153 0.3742 0.0
H582 H 0.74542 0.79447 0.38803 0.0
H583 H 0.73989 0.81001 0.34009 0.0
C584 C 0.70452 0.09053 0.77096 0.0
C585 C 0.71824 0.06914 0.74288 0.0
C586 C 0.71853 0.13126 0.78796 0.0
C587 C 0.7473 0.15023 0.77718 0.0
C588 C 0.76092 0.12914 0.74857 0.0
C589 C 0.74586 0.08962 0.73134 0.0
C590 C 0.70278 0.15371 0.81761 0.0
C591 C 0.79177 0.14793 0.73635 0.0
C592 C 0.77836 0.27333 0.78979 0.0
C593 C 0.80507 0.26805 0.81865 0.0
C594 C 0.75716 0.23608 0.77828 0.0
C595 C 0.76364 0.1922 0.79527 0.0
C596 C 0.78952 0.18746 0.82588 0.0
C597 C 0.8097 0.22578 0.83753 0.0
C598 C 0.72918 0.24299 0.74637 0.0
C599 C 0.79772 0.14113 0.8443 0.0
H600 H 0.68326 0.07505 0.78016 0.0
H601 H 0.75601 0.07454 0.7088 0.0
H602 H 0.71987 0.15167 0.84433 0.0
H603 H 0.69815 0.19101 0.81128 0.0
H604 H 0.67901 0.13689 0.82072 0.0
H605 H 0.8001 0.12601 0.71495 0.0
H606 H 0.78711 0.18346 0.72509 0.0
H607 H 0.81223 0.15021 0.76022 0.0
H608 H 0.77464 0.3064 0.77567 0.0
H609 H 0.83049 0.22192 0.85981 0.0
H610 H 0.70632 0.22566 0.75184 0.0
H611 H 0.73586 0.22712 0.72127 0.0
H612 H 0.72382 0.28032 0.7407 0.0
H613 H 0.77503 0.12389 0.85023 0.0
H614 H 0.81565 0.14445 0.87037 0.0
H615 H 0.80869 0.11819 0.82545 0.0
C616 C 0.2722 0.25434 0.71747 0.0
C617 C 0.25285 0.2686 0.74345 0.0
C618 C 0.29373 0.21617 0.72438 0.0
C619 C 0.2962 0.19205 0.75818 0.0
C620 C 0.27719 0.20666 0.78467 0.0
C621 C 0.25569 0.24439 0.77689 0.0
C622 C 0.31338 0.20122 0.69535 0.0
C623 C 0.27891 0.1817 0.82106 0.0
C624 C 0.31891 0.06637 0.77455 0.0
C625 C 0.34984 0.07011 0.79728 0.0
C626 C 0.30242 0.10575 0.75845 0.0
C627 C 0.31711 0.14991 0.76579 0.0
C628 C 0.34962 0.15336 0.78618 0.0
C629 C 0.36574 0.11317 0.80168 0.0
C630 C 0.26799 0.10038 0.73652 0.0
C631 C 0.36613 0.1998 0.79452 0.0
H632 H 0.2706 0.27286 0.69169 0.0
H633 H 0.24053 0.25409 0.79693 0.0
H634 H 0.34017 0.2004 0.70701 0.0
H635 H 0.30614 0.16553 0.68609 0.0
H636 H 0.30948 0.22457 0.67099 0.0
H637 H 0.26364 0.19879 0.83933 0.0
H638 H 0.27011 0.14549 0.81623 0.0
H639 H 0.3049 0.18016 0.83563 0.0
H640 H 0.30683 0.0328 0.77101 0.0
H641 H 0.38966 0.11589 0.81937 0.0
H642 H 0.26471 0.1225 0.71153 0.0
H643 H 0.24955 0.11171 0.75349 0.0
H644 H 0.26252 0.06384 0.72812 0.0
H645 H 0.36254 0.22221 0.76968 0.0
H646 H 0.39309 0.19618 0.80493 0.0
H647 H 0.35467 0.21768 0.81582 0.0
C648 C 0.80002 0.38628 0.29108 0.0
C649 C 0.79451 0.43287 0.28126 0.0
C650 C 0.78523 0.35072 0.26812 0.0
C651 C 0.76448 0.36208 0.23444 0.0
C652 C 0.75944 0.40903 0.22392 0.0
C653 C 0.77455 0.4439 0.24747 0.0
C654 C 0.79133 0.30095 0.28028 0.0
C655 C 0.73777 0.4224 0.18814 0.0
C656 C 0.75486 0.25744 0.17291 0.0
C657 C 0.72708 0.23658 0.18343 0.0
C658 C 0.76547 0.30138 0.18613 0.0
C659 C 0.74802 0.32425 0.21084 0.0
C660 C 0.71771 0.30558 0.21792 0.0
C661 C 0.70754 0.26167 0.20402 0.0
C662 C 0.79754 0.32036 0.17727 0.0
C663 C 0.69819 0.32909 0.24382 0.0
H664 H 0.81517 0.37762 0.31726 0.0
H665 H 0.77064 0.47993 0.23946 0.0
H666 H 0.76753 0.28405 0.28302 0.0
H667 H 0.80207 0.2814 0.25928 0.0
H668 H 0.80841 0.29804 0.30702 0.0
H669 H 0.7376 0.46043 0.18322 0.0
H670 H 0.74638 0.40479 0.16479 0.0
H671 H 0.71199 0.41078 0.18831 0.0
H672 H 0.77015 0.23748 0.15737 0.0
H673 H 0.68642 0.24492 0.21267 0.0
H674 H 0.81778 0.31334 0.20071 0.0
H675 H 0.79607 0.35844 0.17307 0.0
H676 H 0.80416 0.30394 0.15229 0.0
H677 H 0.71088 0.32361 0.27257 0.0
H678 H 0.67267 0.31495 0.24114 0.0
H679 H 0.69673 0.36702 0.23874 0.0
C680 C 0.26507 0.38567 0.252 0.0
C681 C 0.27181 0.4324 0.26026 0.0
C682 C 0.27948 0.3505 0.27583 0.0
C683 C 0.30098 0.36243 0.30883 0.0
C684 C 0.30774 0.40955 0.31742 0.0
C685 C 0.29305 0.44397 0.29306 0.0
C686 C 0.27165 0.30052 0.2657 0.0
C687 C 0.33023 0.42358 0.35245 0.0
C688 C 0.30597 0.26446 0.37733 0.0
C689 C 0.33344 0.24015 0.36949 0.0
C690 C 0.29684 0.30713 0.36038 0.0
C691 C 0.31543 0.32517 0.33454 0.0
C692 C 0.34522 0.30301 0.32957 0.0
C693 C 0.35396 0.26053 0.3473 0.0
C694 C 0.26528 0.33 0.36704 0.0
C695 C 0.36584 0.3213 0.30247 0.0
H696 H 0.24889 0.37659 0.22661 0.0
H697 H 0.29788 0.48014 0.29992 0.0
H698 H 0.29486 0.28125 0.26448 0.0
H699 H 0.25962 0.28373 0.28711 0.0
H700 H 0.25498 0.2971 0.23875 0.0
H701 H 0.33362 0.46176 0.35462 0.0
H702 H 0.31985 0.41119 0.37661 0.0
H703 H 0.35487 0.4071 0.35388 0.0
H704 H 0.28991 0.24809 0.39414 0.0
H705 H 0.37479 0.24103 0.34069 0.0
H706 H 0.24533 0.32326 0.34327 0.0
H707 H 0.26844 0.36811 0.36959 0.0
H708 H 0.25712 0.31645 0.39227 0.0
H709 H 0.35308 0.31377 0.27408 0.0
H710 H 0.39076 0.30499 0.30643 0.0
H711 H 0.36881 0.35945 0.30494 0.0
C712 C 0.20435 0.59764 0.76788 0.0
C713 C 0.22139 0.55636 0.76378 0.0
C714 C 0.22112 0.63637 0.78498 0.0
C715 C 0.25571 0.63386 0.79756 0.0
C716 C 0.27241 0.5912 0.79622 0.0
C717 C 0.25495 0.55283 0.77975 0.0
C718 C 0.20228 0.6809 0.78729 0.0
C719 C 0.30922 0.58697 0.8096 0.0
C720 C 0.30251 0.74435 0.78544 0.0
C721 C 0.31028 0.76064 0.82152 0.0
C722 C 0.28543 0.70258 0.77758 0.0
C723 C 0.27516 0.67704 0.80652 0.0
C724 C 0.28347 0.69296 0.84324 0.0
C725 C 0.30124 0.73457 0.85033 0.0
C726 C 0.27809 0.68606 0.73819 0.0
C727 C 0.27251 0.66743 0.87486 0.0
H728 H 0.17839 0.60062 0.7559 0.0
H729 H 0.26802 0.52049 0.77786 0.0
H730 H 0.20925 0.69665 0.81494 0.0
H731 H 0.20877 0.70609 0.76686 0.0
H732 H 0.17506 0.67536 0.78167 0.0
H733 H 0.31779 0.55039 0.81021 0.0
H734 H 0.32271 0.60702 0.79109 0.0
H735 H 0.316 0.6018 0.83758 0.0
H736 H 0.30986 0.76454 0.76335 0.0
H737 H 0.30697 0.74769 0.87817 0.0
H738 H 0.25093 0.68498 0.72862 0.0
H739 H 0.28767 0.65032 0.73624 0.0
H740 H 0.2893 0.70884 0.7193 0.0
H741 H 0.24626 0.67617 0.87557 0.0
H742 H 0.28754 0.67743 0.90166 0.0
H743 H 0.27408 0.62931 0.87164 0.0
C744 C 0.78124 0.77444 0.77352 0.0
C745 C 0.75497 0.76924 0.74419 0.0
C746 C 0.8025 0.73727 0.78524 0.0
C747 C 0.79645 0.69356 0.768 0.0
C748 C 0.77081 0.68882 0.7372 0.0
C749 C 0.75063 0.72706 0.72533 0.0
C750 C 0.83029 0.74413 0.81732 0.0
C751 C 0.76297 0.6426 0.7186 0.0
C752 C 0.85607 0.59217 0.79004 0.0
C753 C 0.84256 0.5694 0.81777 0.0
C754 C 0.84198 0.6335 0.77414 0.0
C755 C 0.81329 0.65163 0.78559 0.0
C756 C 0.79993 0.62922 0.81391 0.0
C757 C 0.81513 0.58914 0.83012 0.0
C758 C 0.85747 0.6574 0.74482 0.0
C759 C 0.7691 0.64702 0.82669 0.0
H760 H 0.78474 0.80746 0.78761 0.0
H761 H 0.73016 0.72328 0.70269 0.0
H762 H 0.82377 0.72733 0.8422 0.0
H763 H 0.85339 0.72766 0.81173 0.0
H764 H 0.83519 0.78145 0.82341 0.0
H765 H 0.7448 0.64589 0.69269 0.0
H766 H 0.78577 0.62611 0.71231 0.0
H767 H 0.75249 0.619 0.73749 0.0
H768 H 0.8772 0.5773 0.78023 0.0
H769 H 0.80519 0.573 0.85246 0.0
H770 H 0.8616 0.69464 0.7516 0.0
H771 H 0.84045 0.6556 0.71805 0.0
H772 H 0.88146 0.64144 0.74156 0.0
H773 H 0.77355 0.68233 0.8383 0.0
H774 H 0.76114 0.62433 0.84796 0.0
H775 H 0.74846 0.6495 0.80302 0.0
C776 C 0.42507 0.0289 0.49851 0.0
C777 C 0.42131 0.04166 0.46133 0.0
C778 C 0.45609 0.01621 0.5184 0.0
C779 C 0.48399 0.01505 0.50044 0.0
C780 C 0.48035 0.02785 0.46281 0.0
C781 C 0.44909 0.04155 0.4438 0.0
C782 C 0.459 0.00413 0.55869 0.0
C783 C 0.50932 0.02622 0.44247 0.0
C784 C 0.56971 0.02037 0.55922 0.0
C785 C 0.57831 0.97334 0.56294 0.0
C786 C 0.53913 0.03441 0.53901 0.0
C787 C 0.51691 0.00065 0.52127 0.0
C788 C 0.52569 0.95306 0.52457 0.0
C789 C 0.55612 0.93994 0.54584 0.0
C790 C 0.53039 0.08533 0.53717 0.0
C791 C 0.50301 0.91607 0.50546 0.0
H792 H 0.40369 0.02922 0.51223 0.0
H793 H 0.4462 0.05082 0.41494 0.0
H794 H 0.46726 0.96767 0.5634 0.0
H795 H 0.47797 0.02641 0.57529 0.0
H796 H 0.4352 0.0085 0.56888 0.0
H797 H 0.50236 0.03697 0.41323 0.0
H798 H 0.52942 0.04924 0.456 0.0
H799 H 0.51948 0.99049 0.44343 0.0
H800 H 0.58678 0.04613 0.57279 0.0
H801 H 0.56298 0.90365 0.54848 0.0
H802 H 0.50733 0.09101 0.54854 0.0
H803 H 0.52558 0.09722 0.50814 0.0
H804 H 0.55033 0.10713 0.55272 0.0
H805 H 0.47934 0.91594 0.51622 0.0
H806 H 0.51416 0.88091 0.5093 0.0
H807 H 0.49701 0.92368 0.47556 0.0
C808 C 0.64692 0.01763 0.05937 0.0
C809 C 0.64667 0.03279 0.09542 0.0
C810 C 0.61751 0.00501 0.0361 0.0
C811 C 0.58715 0.00644 0.04948 0.0
C812 C 0.58679 0.02124 0.08605 0.0
C813 C 0.61653 0.0348 0.10845 0.0
C814 C 0.61889 0.99076 0.99702 0.0
C815 C 0.55502 0.02245 0.10159 0.0
C816 C 0.50598 0.01708 0.98275 0.0
C817 C 0.49477 0.97113 0.9802 0.0
C818 C 0.53638 0.02882 1.00439 0.0
C819 C 0.55566 -0.00615 1.02484 0.0
C820 C 0.54464 0.94714 1.02193 0.0
C821 C 0.51444 0.93624 0.99919 0.0
C822 C 0.5476 0.07878 1.00581 0.0
C823 C 0.56416 0.909 0.04381 0.0
H824 H 0.67016 0.0163 0.04909 0.0
H825 H 0.61629 0.04596 0.13643 0.0
H826 H 0.60913 0.95505 0.99201 0.0
H827 H 0.60294 0.01401 0.97753 0.0
H828 H 0.64444 0.99195 0.99075 0.0
H829 H 0.55913 0.03307 0.13095 0.0
H830 H 0.53734 0.04706 0.08558 0.0
H831 H 0.5432 0.98771 0.09917 0.0
H832 H 0.49064 0.0439 0.9679 0.0
H833 H 0.5054 0.90085 0.99751 0.0
H834 H 0.57286 0.0813 0.99891 0.0
H835 H 0.54884 0.09247 0.03408 0.0
H836 H 0.5307 0.10121 0.98654 0.0
H837 H 0.58962 0.90766 0.03742 0.0
H838 H 0.55243 0.87445 0.03814 0.0
H839 H 0.56639 0.91636 0.07364 0.0
C840 C 0.04394 0.47416 0.58293 0.0
C841 C 0.07191 0.46811 0.56633 0.0
C842 C 1.01327 0.48659 0.5619 0.0
C843 C 1.01042 0.49176 0.52325 0.0
C844 C 0.03852 0.48456 0.50632 0.0
C845 C 0.06901 0.47343 0.52815 0.0
C846 C 0.98409 0.49498 0.58107 0.0
C847 C 0.03637 0.48837 0.46514 0.0
C848 C 0.92491 0.48048 0.46499 0.0
C849 C 0.91714 0.52675 0.45536 0.0
C850 C 0.95521 0.46864 0.48691 0.0
C851 C 0.97799 0.50404 0.50035 0.0
C852 C 0.97008 0.55094 0.49115 0.0
C853 C 0.93992 0.56169 0.46831 0.0
C854 C 0.96307 0.41815 0.49516 0.0
C855 C 0.99343 0.58975 0.50555 0.0
H856 H 0.04638 0.47052 0.61252 0.0
H857 H 0.09065 0.46832 0.51537 0.0
H858 H 0.97458 0.53072 0.57517 0.0
H859 H 0.96366 0.47081 0.57043 0.0
H860 H 0.99057 0.4904 0.61135 0.0
H861 H 0.06028 0.48026 0.45621 0.0
H862 H 1.01718 0.46428 0.4511 0.0
H863 H 1.0288 0.52396 0.45581 0.0
H864 H 0.90753 0.45327 0.45475 0.0
H865 H 0.93393 0.59751 0.46106 0.0
H866 H 0.96743 0.41211 0.5253 0.0
H867 H 0.98615 0.40853 0.48507 0.0
H868 H 0.94285 0.39479 0.48222 0.0
H869 H 0.99929 0.58807 0.53602 0.0
H870 H 0.98294 0.62447 0.4973 0.0
H871 H 1.0171 0.58584 0.4951 0.0
C872 C 0.1136 0.54252 0.11121 0.0
C873 C 0.13326 0.57182 0.09345 0.0
C874 C 0.08481 0.52192 0.0917 0.0
C875 C 0.07579 0.53021 0.05343 0.0
C876 C 0.09611 0.55865 0.0352 0.0
C877 C 0.12443 0.57938 0.05548 0.0
C878 C 0.06351 0.49248 0.11226 0.0
C879 C 0.08754 0.56802 0.99439 0.0
C880 C 1.01201 0.45197 0.996 0.0
C881 C 0.98318 0.47901 0.99296 0.0
C882 C 0.04237 0.46803 1.01564 0.0
C883 C 0.04391 0.512 0.03289 0.0
C884 C 1.01497 0.5394 0.02993 0.0
C885 C 0.98516 0.52279 1.00984 0.0
C886 C 0.07282 0.43802 1.01793 0.0
C887 C 1.01548 0.5865 0.04789 0.0
H888 H 0.12025 0.53661 0.14058 0.0
H889 H 0.13968 0.60162 0.04151 0.0
H890 H 0.03887 0.50898 0.11091 0.0
H891 H 0.05939 0.45789 0.09921 0.0
H892 H 0.07471 0.48773 0.14165 0.0
H893 H 0.10711 0.58819 0.98393 0.0
H894 H 0.08374 0.53488 0.97905 0.0
H895 H 0.064 0.58773 0.98834 0.0
H896 H 1.01084 0.41802 0.98341 0.0
H897 H 0.96342 0.54461 1.0071 0.0
H898 H 0.08294 0.43008 0.04712 0.0
H899 H 0.09234 0.45694 1.00644 0.0
H900 H 0.06759 0.40486 1.00279 0.0
H901 H 1.0249 0.5834 0.07783 0.0
H902 H 0.99058 0.60284 0.04399 0.0
H903 H 0.03254 0.60995 0.03626 0.0
loop_
_geom_bond_atom_site_label_1
_geom_bond_atom_site_label_2
_geom_bond_distance
_geom_bond_site_symmetry_2
_ccdc_geom_bond_type
C0 C1 1.351 . S
C0 N3 1.368 . S
C0 H5 0.931 . S
C1 C0 1.351 . S
C1 N2 1.373 . S
C1 H29 0.930 . S
N2 C1 1.373 . S
N2 C4 1.340 . S
N3 C0 1.368 . S
N3 C4 1.321 . S
N3 Co6 2.135 . S
C4 N2 1.340 . S
C4 N3 1.321 . S
C4 H28 0.930 . S
H5 C0 0.931 . S
Co6 N3 2.135 . S
Co6 N9 2.121 . S
Co6 O14 2.055 . S
Co6 O17 2.039 . S
Co6 N20 2.140 . S
C7 O8 1.227 . S
C7 O17 1.265 . S
O8 C7 1.227 . S
N9 Co6 2.121 . S
N9 C11 1.375 . S
N9 C12 1.313 . S
C10 C11 1.338 . S
C10 N13 1.377 . S
C10 H30 0.930 . S
C11 N9 1.375 . S
C11 C10 1.338 . S
C11 H15 0.931 . S
C12 N9 1.313 . S
C12 N13 1.344 . S
C12 H16 0.930 . S
N13 C10 1.377 . S
N13 C12 1.344 . S
O14 Co6 2.055 . S
O14 C18 1.253 . S
H15 C11 0.931 . S
H16 C12 0.930 . S
O17 Co6 2.039 . S
O17 C7 1.265 . S
C18 O14 1.253 . S
C18 O19 1.227 . S
O19 C18 1.227 . S
N20 Co6 2.140 . S
N20 C23 1.346 . S
N20 C24 1.345 . S
C21 C22 1.387 1_565 S
C21 C25 1.391 1_565 S
C22 C21 1.387 1_545 S
C22 C23 1.369 . S
C22 H31 0.929 1_545 S
C23 N20 1.346 . S
C23 C22 1.369 . S
C23 H26 0.928 . S
C24 N20 1.345 . S
C24 C25 1.371 . S
C24 H27 0.931 . S
C25 C21 1.391 1_545 S
C25 C24 1.371 . S
C25 H32 0.930 . S
H26 C23 0.928 . S
H27 C24 0.931 . S
H28 C4 0.930 . S
H29 C1 0.930 . S
H30 C10 0.930 . S
H31 C22 0.929 1_565 S
H32 C25 0.930 . S
C33 C34 1.351 . S
C33 N36 1.368 . S
C33 H38 0.931 . S
C34 C33 1.351 . S
C34 N35 1.373 . S
C34 H62 0.930 . S
N35 C34 1.373 . S
N35 C37 1.340 . S
N36 C33 1.368 . S
N36 C37 1.321 . S
N36 Co39 2.135 . S
C37 N35 1.340 . S
C37 N36 1.321 . S
C37 H61 0.930 . S
H38 C33 0.931 . S
Co39 N36 2.135 . S
Co39 N42 2.121 . S
Co39 O47 2.055 . S
Co39 O50 2.039 . S
Co39 N53 2.140 . S
C40 O41 1.227 . S
C40 O50 1.265 . S
O41 C40 1.227 . S
N42 Co39 2.121 . S
N42 C44 1.375 . S
N42 C45 1.313 . S
C43 C44 1.338 . S
C43 N46 1.377 . S
C43 H63 0.930 . S
C44 N42 1.375 . S
C44 C43 1.338 . S
C44 H48 0.931 . S
C45 N42 1.313 . S
C45 N46 1.344 . S
C45 H49 0.930 . S
N46 C43 1.377 . S
N46 C45 1.344 . S
O47 Co39 2.055 . S
O47 C51 1.253 . S
H48 C44 0.931 . S
H49 C45 0.930 . S
O50 Co39 2.039 . S
O50 C40 1.265 . S
C51 O47 1.253 . S
C51 O52 1.227 . S
O52 C51 1.227 . S
N53 Co39 2.140 . S
N53 C56 1.346 . S
N53 C57 1.345 . S
C54 C55 1.387 1_565 S
C54 C58 1.391 1_565 S
C55 C54 1.387 1_545 S
C55 C56 1.369 . S
C55 H64 0.929 1_545 S
C56 N53 1.346 . S
C56 C55 1.369 . S
C56 H59 0.928 . S
C57 N53 1.345 . S
C57 C58 1.371 . S
C57 H60 0.931 . S
C58 C54 1.391 1_545 S
C58 C57 1.371 . S
C58 H65 0.930 . S
H59 C56 0.928 . S
H60 C57 0.931 . S
H61 C37 0.930 . S
H62 C34 0.930 . S
H63 C43 0.930 . S
H64 C55 0.929 1_565 S
H65 C58 0.930 . S
C66 C67 1.351 . S
C66 N69 1.368 . S
C66 H71 0.931 . S
C67 C66 1.351 . S
C67 N68 1.373 . S
C67 H95 0.930 . S
N68 C67 1.373 . S
N68 C70 1.340 . S
N69 C66 1.368 . S
N69 C70 1.321 . S
N69 Co72 2.135 . S
C70 N68 1.340 . S
C70 N69 1.321 . S
C70 H94 0.930 . S
H71 C66 0.931 . S
Co72 N69 2.135 . S
Co72 N75 2.121 . S
Co72 O80 2.055 . S
Co72 O83 2.039 . S
Co72 N86 2.140 . S
C73 O74 1.227 . S
C73 O83 1.265 . S
O74 C73 1.227 . S
N75 Co72 2.121 . S
N75 C77 1.375 . S
N75 C78 1.313 . S
C76 C77 1.338 . S
C76 N79 1.377 . S
C76 H96 0.930 . S
C77 N75 1.375 . S
C77 C76 1.338 . S
C77 H81 0.931 . S
C78 N75 1.313 . S
C78 N79 1.344 . S
C78 H82 0.930 . S
N79 C76 1.377 . S
N79 C78 1.344 . S
O80 Co72 2.055 . S
O80 C84 1.253 . S
H81 C77 0.931 . S
H82 C78 0.930 . S
O83 Co72 2.039 . S
O83 C73 1.265 . S
C84 O80 1.253 . S
C84 O85 1.227 . S
O85 C84 1.227 . S
N86 Co72 2.140 . S
N86 C89 1.346 . S
N86 C90 1.345 . S
C87 C88 1.387 . S
C87 C91 1.391 1_545 S
C88 C87 1.387 . S
C88 C89 1.369 1_545 S
C88 H97 0.929 . S
C89 N86 1.346 . S
C89 C88 1.369 1_565 S
C89 H92 0.928 . S
C90 N86 1.345 . S
C90 C91 1.371 . S
C90 H93 0.931 . S
C91 C87 1.391 1_565 S
C91 C90 1.371 . S
C91 H98 0.930 . S
H92 C89 0.928 . S
H93 C90 0.931 . S
H94 C70 0.930 . S
H95 C67 0.930 . S
H96 C76 0.930 . S
H97 C88 0.929 . S
H98 C91 0.930 . S
C99 C100 1.351 . S
C99 N102 1.368 . S
C99 H104 0.931 . S
C100 C99 1.351 . S
C100 N101 1.373 . S
C100 H128 0.930 . S
N101 C100 1.373 . S
N101 C103 1.340 . S
N102 C99 1.368 . S
N102 C103 1.321 . S
N102 Co105 2.135 . S
C103 N101 1.340 . S
C103 N102 1.321 . S
C103 H127 0.930 . S
H104 C99 0.931 . S
Co105 N102 2.135 . S
Co105 N108 2.121 . S
Co105 O113 2.055 . S
Co105 O116 2.039 . S
Co105 N119 2.140 . S
C106 O107 1.227 . S
C106 O116 1.265 . S
O107 C106 1.227 . S
N108 Co105 2.121 . S
N108 C110 1.375 . S
N108 C111 1.313 . S
C109 C110 1.338 . S
C109 N112 1.377 . S
C109 H129 0.930 . S
C110 N108 1.375 . S
C110 C109 1.338 . S
C110 H114 0.931 . S
C111 N108 1.313 . S
C111 N112 1.344 . S
C111 H115 0.930 . S
N112 C109 1.377 . S
N112 C111 1.344 . S
O113 Co105 2.055 . S
O113 C117 1.253 . S
H114 C110 0.931 . S
H115 C111 0.930 . S
O116 Co105 2.039 . S
O116 C106 1.265 . S
C117 O113 1.253 . S
C117 O118 1.227 . S
O118 C117 1.227 . S
N119 Co105 2.140 . S
N119 C122 1.346 . S
N119 C123 1.345 . S
C120 C121 1.387 . S
C120 C124 1.391 1_545 S
C121 C120 1.387 . S
C121 C122 1.369 1_545 S
C121 H130 0.929 . S
C122 N119 1.346 . S
C122 C121 1.369 1_565 S
C122 H125 0.928 . S
C123 N119 1.345 . S
C123 C124 1.371 . S
C123 H126 0.931 . S
C124 C120 1.391 1_565 S
C124 C123 1.371 . S
C124 H131 0.930 . S
H125 C122 0.928 . S
H126 C123 0.931 . S
H127 C103 0.930 . S
H128 C100 0.930 . S
H129 C109 0.930 . S
H130 C121 0.929 . S
H131 C124 0.930 . S
C132 C133 1.351 . S
C132 N135 1.368 . S
C132 H137 0.931 . S
C133 C132 1.351 . S
C133 N134 1.373 . S
C133 H161 0.930 . S
N134 C133 1.373 . S
N134 C136 1.340 . S
N135 C132 1.368 . S
N135 C136 1.321 . S
N135 Co138 2.135 . S
C136 N134 1.340 . S
C136 N135 1.321 . S
C136 H160 0.930 . S
H137 C132 0.931 . S
Co138 N135 2.135 . S
Co138 N141 2.121 . S
Co138 O146 2.055 . S
Co138 O149 2.039 . S
Co138 N152 2.140 . S
C139 O140 1.227 . S
C139 O149 1.265 . S
O140 C139 1.227 . S
N141 Co138 2.121 . S
N141 C143 1.375 . S
N141 C144 1.313 . S
C142 C143 1.338 . S
C142 N145 1.377 . S
C142 H162 0.930 . S
C143 N141 1.375 . S
C143 C142 1.338 . S
C143 H147 0.931 . S
C144 N141 1.313 . S
C144 N145 1.344 . S
C144 H148 0.930 . S
N145 C142 1.377 . S
N145 C144 1.344 . S
O146 Co138 2.055 . S
O146 C150 1.253 . S
H147 C143 0.931 . S
H148 C144 0.930 . S
O149 Co138 2.039 . S
O149 C139 1.265 . S
C150 O146 1.253 . S
C150 O151 1.227 . S
O151 C150 1.227 . S
N152 Co138 2.140 . S
N152 C155 1.346 . S
N152 C156 1.345 . S
C153 C154 1.387 . S
C153 C157 1.391 . S
C154 C153 1.387 . S
C154 C155 1.369 . S
C154 H163 0.929 . S
C155 N152 1.346 . S
C155 C154 1.369 . S
C155 H158 0.928 . S
C156 N152 1.345 . S
C156 C157 1.371 . S
C156 H159 0.931 . S
C157 C153 1.391 . S
C157 C156 1.371 . S
C157 H164 0.930 . S
H158 C155 0.928 . S
H159 C156 0.931 . S
H160 C136 0.930 . S
H161 C133 0.930 . S
H162 C142 0.930 . S
H163 C154 0.929 . S
H164 C157 0.930 . S
C165 C166 1.351 . S
C165 N168 1.368 . S
C165 H170 0.931 . S
C166 C165 1.351 . S
C166 N167 1.373 . S
C166 H194 0.930 . S
N167 C166 1.373 . S
N167 C169 1.340 . S
N168 C165 1.368 . S
N168 C169 1.321 . S
N168 Co171 2.135 . S
C169 N167 1.340 . S
C169 N168 1.321 . S
C169 H193 0.930 . S
H170 C165 0.931 . S
Co171 N168 2.135 . S
Co171 N174 2.121 . S
Co171 O179 2.055 . S
Co171 O182 2.039 . S
Co171 N185 2.140 . S
C172 O173 1.227 . S
C172 O182 1.265 . S
O173 C172 1.227 . S
N174 Co171 2.121 . S
N174 C176 1.375 . S
N174 C177 1.313 . S
C175 C176 1.338 . S
C175 N178 1.377 . S
C175 H195 0.930 . S
C176 N174 1.375 . S
C176 C175 1.338 . S
C176 H180 0.931 . S
C177 N174 1.313 . S
C177 N178 1.344 . S
C177 H181 0.930 . S
N178 C175 1.377 . S
N178 C177 1.344 . S
O179 Co171 2.055 . S
O179 C183 1.253 . S
H180 C176 0.931 . S
H181 C177 0.930 . S
O182 Co171 2.039 . S
O182 C172 1.265 . S
C183 O179 1.253 . S
C183 O184 1.227 . S
O184 C183 1.227 . S
N185 Co171 2.140 . S
N185 C188 1.346 . S
N185 C189 1.345 . S
C186 C187 1.387 . S
C186 C190 1.391 . S
C187 C186 1.387 . S
C187 C188 1.369 . S
C187 H196 0.929 . S
C188 N185 1.346 . S
C188 C187 1.369 . S
C188 H191 0.928 . S
C189 N185 1.345 . S
C189 C190 1.371 . S
C189 H192 0.931 . S
C190 C186 1.391 . S
C190 C189 1.371 . S
C190 H197 0.930 . S
H191 C188 0.928 . S
H192 C189 0.931 . S
H193 C169 0.930 . S
H194 C166 0.930 . S
H195 C175 0.930 . S
H196 C187 0.929 . S
H197 C190 0.930 . S
C198 C199 1.351 . S
C198 N201 1.368 . S
C198 H203 0.931 . S
C199 C198 1.351 . S
C199 N200 1.373 . S
C199 H227 0.930 . S
N200 C199 1.373 . S
N200 C202 1.340 . S
N201 C198 1.368 . S
N201 C202 1.321 . S
N201 Co204 2.135 . S
C202 N200 1.340 . S
C202 N201 1.321 . S
C202 H226 0.930 . S
H203 C198 0.931 . S
Co204 N201 2.135 . S
Co204 N207 2.121 . S
Co204 O212 2.055 . S
Co204 O215 2.039 . S
Co204 N218 2.140 . S
C205 O206 1.227 . S
C205 O215 1.265 . S
O206 C205 1.227 . S
N207 Co204 2.121 . S
N207 C209 1.375 . S
N207 C210 1.313 . S
C208 C209 1.338 . S
C208 N211 1.377 . S
C208 H228 0.930 . S
C209 N207 1.375 . S
C209 C208 1.338 . S
C209 H213 0.931 . S
C210 N207 1.313 . S
C210 N211 1.344 . S
C210 H214 0.930 . S
N211 C208 1.377 . S
N211 C210 1.344 . S
O212 Co204 2.055 . S
O212 C216 1.253 . S
H213 C209 0.931 . S
H214 C210 0.930 . S
O215 Co204 2.039 . S
O215 C205 1.265 . S
C216 O212 1.253 . S
C216 O217 1.227 . S
O217 C216 1.227 . S
N218 Co204 2.140 . S
N218 C221 1.346 . S
N218 C222 1.345 . S
C219 C220 1.387 . S
C219 C223 1.391 . S
C220 C219 1.387 . S
C220 C221 1.369 . S
C220 H229 0.929 . S
C221 N218 1.346 . S
C221 C220 1.369 . S
C221 H224 0.928 . S
C222 N218 1.345 . S
C222 C223 1.371 . S
C222 H225 0.931 . S
C223 C219 1.391 . S
C223 C222 1.371 . S
C223 H230 0.930 . S
H224 C221 0.928 . S
H225 C222 0.931 . S
H226 C202 0.930 . S
H227 C199 0.930 . S
H228 C208 0.930 . S
H229 C220 0.929 . S
H230 C223 0.930 . S
C231 C232 1.351 . S
C231 N234 1.368 . S
C231 H236 0.931 . S
C232 C231 1.351 . S
C232 N233 1.373 . S
C232 H260 0.930 . S
N233 C232 1.373 . S
N233 C235 1.340 . S
N234 C231 1.368 . S
N234 C235 1.321 . S
N234 Co237 2.135 . S
C235 N233 1.340 . S
C235 N234 1.321 . S
C235 H259 0.930 . S
H236 C231 0.931 . S
Co237 N234 2.135 . S
Co237 N240 2.121 . S
Co237 O245 2.055 . S
Co237 O248 2.039 . S
Co237 N251 2.140 . S
C238 O239 1.227 . S
C238 O248 1.265 . S
O239 C238 1.227 . S
N240 Co237 2.121 . S
N240 C242 1.375 . S
N240 C243 1.313 . S
C241 C242 1.338 . S
C241 N244 1.377 . S
C241 H261 0.930 . S
C242 N240 1.375 . S
C242 C241 1.338 . S
C242 H246 0.931 . S
C243 N240 1.313 . S
C243 N244 1.344 . S
C243 H247 0.930 . S
N244 C241 1.377 . S
N244 C243 1.344 . S
O245 Co237 2.055 . S
O245 C249 1.253 . S
H246 C242 0.931 . S
H247 C243 0.930 . S
O248 Co237 2.039 . S
O248 C238 1.265 . S
C249 O245 1.253 . S
C249 O250 1.227 . S
O250 C249 1.227 . S
N251 Co237 2.140 . S
N251 C254 1.346 . S
N251 C255 1.345 . S
C252 C253 1.387 . S
C252 C256 1.391 . S
C253 C252 1.387 . S
C253 C254 1.369 . S
C253 H262 0.929 . S
C254 N251 1.346 . S
C254 C253 1.369 . S
C254 H257 0.928 . S
C255 N251 1.345 . S
C255 C256 1.371 . S
C255 H258 0.931 . S
C256 C252 1.391 . S
C256 C255 1.371 . S
C256 H263 0.930 . S
H257 C254 0.928 . S
H258 C255 0.931 . S
H259 C235 0.930 . S
H260 C232 0.930 . S
H261 C241 0.930 . S
H262 C253 0.929 . S
H263 C256 0.930 . S
C264 C265 1.391 . S
C264 C266 1.394 . S
C264 H280 0.931 . S
C265 C264 1.391 . S
C265 C269 1.376 . S
C266 C264 1.394 . S
C266 C267 1.369 . S
C266 C270 1.531 . S
C267 C266 1.369 . S
C267 C268 1.410 . S
C267 C275 1.503 . S
C268 C267 1.410 . S
C268 C269 1.392 . S
C268 C271 1.511 . S
C269 C265 1.376 . S
C269 C268 1.392 . S
C269 H281 0.929 . S
C270 C266 1.531 . S
C270 H282 0.960 . S
C270 H283 0.962 . S
C270 H284 0.960 . S
C271 C268 1.511 . S
C271 H285 0.961 . S
C271 H286 0.961 . S
C271 H287 0.961 . S
C272 C273 1.370 . S
C272 C274 1.363 . S
C272 H288 0.931 . S
C273 C272 1.370 . S
C273 C277 1.408 . S
C274 C272 1.363 . S
C274 C275 1.370 . S
C274 C278 1.524 . S
C275 C267 1.503 . S
C275 C274 1.370 . S
C275 C276 1.403 . S
C276 C275 1.403 . S
C276 C277 1.404 . S
C276 C279 1.539 . S
C277 C273 1.408 . S
C277 C276 1.404 . S
C277 H289 0.930 . S
C278 C274 1.524 . S
C278 H290 0.956 . S
C278 H291 0.961 . S
C278 H292 0.961 . S
C279 C276 1.539 . S
C279 H293 0.958 . S
C279 H294 0.961 . S
C279 H295 0.960 . S
H280 C264 0.931 . S
H281 C269 0.929 . S
H282 C270 0.960 . S
H283 C270 0.962 . S
H284 C270 0.960 . S
H285 C271 0.961 . S
H286 C271 0.961 . S
H287 C271 0.961 . S
H288 C272 0.931 . S
H289 C277 0.930 . S
H290 C278 0.956 . S
H291 C278 0.961 . S
H292 C278 0.961 . S
H293 C279 0.958 . S
H294 C279 0.961 . S
H295 C279 0.960 . S
C296 C297 1.391 . S
C296 C298 1.394 . S
C296 H312 0.931 . S
C297 C296 1.391 . S
C297 C301 1.376 . S
C298 C296 1.394 . S
C298 C299 1.369 . S
C298 C302 1.531 . S
C299 C298 1.369 . S
C299 C300 1.410 . S
C299 C307 1.503 1_554 S
C300 C299 1.410 . S
C300 C301 1.392 . S
C300 C303 1.511 . S
C301 C297 1.376 . S
C301 C300 1.392 . S
C301 H313 0.929 . S
C302 C298 1.531 . S
C302 H314 0.960 . S
C302 H315 0.962 . S
C302 H316 0.960 . S
C303 C300 1.511 . S
C303 H317 0.961 . S
C303 H318 0.961 1_554 S
C303 H319 0.961 . S
C304 C305 1.370 . S
C304 C306 1.363 . S
C304 H320 0.931 . S
C305 C304 1.370 . S
C305 C309 1.408 . S
C306 C304 1.363 . S
C306 C307 1.370 . S
C306 C310 1.524 . S
C307 C299 1.503 1_556 S
C307 C306 1.370 . S
C307 C308 1.403 . S
C308 C307 1.403 . S
C308 C309 1.404 . S
C308 C311 1.539 1_556 S
C309 C305 1.408 . S
C309 C308 1.404 . S
C309 H321 0.930 . S
C310 C306 1.524 . S
C310 H322 0.956 . S
C310 H323 0.961 . S
C310 H324 0.961 . S
C311 C308 1.539 1_554 S
C311 H325 0.958 . S
C311 H326 0.961 . S
C311 H327 0.960 . S
H312 C296 0.931 . S
H313 C301 0.929 . S
H314 C302 0.960 . S
H315 C302 0.962 . S
H316 C302 0.960 . S
H317 C303 0.961 . S
H318 C303 0.961 1_556 S
H319 C303 0.961 . S
H320 C304 0.931 . S
H321 C309 0.930 . S
H322 C310 0.956 . S
H323 C310 0.961 . S
H324 C310 0.961 . S
H325 C311 0.958 . S
H326 C311 0.961 . S
H327 C311 0.960 . S
C328 C329 1.391 . S
C328 C330 1.394 . S
C328 H344 0.931 . S
C329 C328 1.391 . S
C329 C333 1.376 . S
C330 C328 1.394 . S
C330 C331 1.369 . S
C330 C334 1.531 . S
C331 C330 1.369 . S
C331 C332 1.410 . S
C331 C339 1.503 . S
C332 C331 1.410 . S
C332 C333 1.392 . S
C332 C335 1.511 . S
C333 C329 1.376 . S
C333 C332 1.392 . S
C333 H345 0.929 . S
C334 C330 1.531 . S
C334 H346 0.960 . S
C334 H347 0.962 . S
C334 H348 0.960 . S
C335 C332 1.511 . S
C335 H349 0.961 . S
C335 H350 0.961 . S
C335 H351 0.961 . S
C336 C337 1.370 . S
C336 C338 1.363 . S
C336 H352 0.931 . S
C337 C336 1.370 . S
C337 C341 1.408 . S
C338 C336 1.363 . S
C338 C339 1.370 . S
C338 C342 1.524 . S
C339 C331 1.503 . S
C339 C338 1.370 . S
C339 C340 1.403 . S
C340 C339 1.403 . S
C340 C341 1.404 . S
C340 C343 1.539 . S
C341 C337 1.408 . S
C341 C340 1.404 . S
C341 H353 0.930 . S
C342 C338 1.524 . S
C342 H354 0.956 . S
C342 H355 0.961 . S
C342 H356 0.961 . S
C343 C340 1.539 . S
C343 H357 0.958 . S
C343 H358 0.961 . S
C343 H359 0.960 . S
H344 C328 0.931 . S
H345 C333 0.929 . S
H346 C334 0.960 . S
H347 C334 0.962 . S
H348 C334 0.960 . S
H349 C335 0.961 . S
H350 C335 0.961 . S
H351 C335 0.961 . S
H352 C336 0.931 . S
H353 C341 0.930 . S
H354 C342 0.956 . S
H355 C342 0.961 . S
H356 C342 0.961 . S
H357 C343 0.958 . S
H358 C343 0.961 . S
H359 C343 0.960 . S
C360 C361 1.391 . S
C360 C362 1.394 . S
C360 H376 0.931 . S
C361 C360 1.391 . S
C361 C365 1.376 . S
C362 C360 1.394 . S
C362 C363 1.369 . S
C362 C366 1.531 1_556 S
C363 C362 1.369 . S
C363 C364 1.410 . S
C363 C371 1.503 1_556 S
C364 C363 1.410 . S
C364 C365 1.392 . S
C364 C367 1.511 . S
C365 C361 1.376 . S
C365 C364 1.392 . S
C365 H377 0.929 . S
C366 C362 1.531 1_554 S
C366 H378 0.960 . S
C366 H379 0.962 . S
C366 H380 0.960 . S
C367 C364 1.511 . S
C367 H381 0.961 . S
C367 H382 0.961 . S
C367 H383 0.961 . S
C368 C369 1.370 . S
C368 C370 1.363 . S
C368 H384 0.931 . S
C369 C368 1.370 . S
C369 C373 1.408 . S
C370 C368 1.363 . S
C370 C371 1.370 . S
C370 C374 1.524 1_554 S
C371 C363 1.503 1_554 S
C371 C370 1.370 . S
C371 C372 1.403 . S
C372 C371 1.403 . S
C372 C373 1.404 . S
C372 C375 1.539 . S
C373 C369 1.408 . S
C373 C372 1.404 . S
C373 H385 0.930 . S
C374 C370 1.524 1_556 S
C374 H386 0.956 . S
C374 H387 0.961 . S
C374 H388 0.961 . S
C375 C372 1.539 . S
C375 H389 0.958 . S
C375 H390 0.961 . S
C375 H391 0.960 . S
H376 C360 0.931 . S
H377 C365 0.929 . S
H378 C366 0.960 . S
H379 C366 0.962 . S
H380 C366 0.960 . S
H381 C367 0.961 . S
H382 C367 0.961 . S
H383 C367 0.961 . S
H384 C368 0.931 . S
H385 C373 0.930 . S
H386 C374 0.956 . S
H387 C374 0.961 . S
H388 C374 0.961 . S
H389 C375 0.958 . S
H390 C375 0.961 . S
H391 C375 0.960 . S
C392 C393 1.391 . S
C392 C394 1.394 . S
C392 H408 0.931 . S
C393 C392 1.391 . S
C393 C397 1.376 . S
C394 C392 1.394 . S
C394 C395 1.369 . S
C394 C398 1.531 . S
C395 C394 1.369 . S
C395 C396 1.410 . S
C395 C403 1.503 . S
C396 C395 1.410 . S
C396 C397 1.392 . S
C396 C399 1.511 . S
C397 C393 1.376 . S
C397 C396 1.392 . S
C397 H409 0.929 . S
C398 C394 1.531 . S
C398 H410 0.960 . S
C398 H411 0.962 . S
C398 H412 0.960 . S
C399 C396 1.511 . S
C399 H413 0.961 . S
C399 H414 0.961 . S
C399 H415 0.961 . S
C400 C401 1.370 . S
C400 C402 1.363 . S
C400 H416 0.931 . S
C401 C400 1.370 . S
C401 C405 1.408 . S
C402 C400 1.363 . S
C402 C403 1.370 . S
C402 C406 1.524 . S
C403 C395 1.503 . S
C403 C402 1.370 . S
C403 C404 1.403 . S
C404 C403 1.403 . S
C404 C405 1.404 . S
C404 C407 1.539 . S
C405 C401 1.408 . S
C405 C404 1.404 . S
C405 H417 0.930 . S
C406 C402 1.524 . S
C406 H418 0.956 . S
C406 H419 0.961 . S
C406 H420 0.961 1_545 S
C407 C404 1.539 . S
C407 H421 0.958 . S
C407 H422 0.961 . S
C407 H423 0.960 . S
H408 C392 0.931 . S
H409 C397 0.929 . S
H410 C398 0.960 . S
H411 C398 0.962 . S
H412 C398 0.960 . S
H413 C399 0.961 . S
H414 C399 0.961 . S
H415 C399 0.961 . S
H416 C400 0.931 . S
H417 C405 0.930 . S
H418 C406 0.956 . S
H419 C406 0.961 . S
H420 C406 0.961 1_565 S
H421 C407 0.958 . S
H422 C407 0.961 . S
H423 C407 0.960 . S
C424 C425 1.391 . S
C424 C426 1.394 . S
C424 H440 0.931 . S
C425 C424 1.391 . S
C425 C429 1.376 . S
C426 C424 1.394 . S
C426 C427 1.369 . S
C426 C430 1.531 . S
C427 C426 1.369 . S
C427 C428 1.410 . S
C427 C435 1.503 . S
C428 C427 1.410 . S
C428 C429 1.392 . S
C428 C431 1.511 . S
C429 C425 1.376 . S
C429 C428 1.392 . S
C429 H441 0.929 . S
C430 C426 1.531 . S
C430 H442 0.960 . S
C430 H443 0.962 . S
C430 H444 0.960 . S
C431 C428 1.511 . S
C431 H445 0.961 . S
C431 H446 0.961 . S
C431 H447 0.961 . S
C432 C433 1.370 . S
C432 C434 1.363 . S
C432 H448 0.931 . S
C433 C432 1.370 . S
C433 C437 1.408 . S
C434 C432 1.363 . S
C434 C435 1.370 . S
C434 C438 1.524 . S
C435 C427 1.503 . S
C435 C434 1.370 . S
C435 C436 1.403 . S
C436 C435 1.403 . S
C436 C437 1.404 . S
C436 C439 1.539 . S
C437 C433 1.408 . S
C437 C436 1.404 . S
C437 H449 0.930 . S
C438 C434 1.524 . S
C438 H450 0.956 . S
C438 H451 0.961 . S
C438 H452 0.961 . S
C439 C436 1.539 . S
C439 H453 0.958 . S
C439 H454 0.961 . S
C439 H455 0.960 . S
H440 C424 0.931 . S
H441 C429 0.929 . S
H442 C430 0.960 . S
H443 C430 0.962 . S
H444 C430 0.960 . S
H445 C431 0.961 . S
H446 C431 0.961 . S
H447 C431 0.961 . S
H448 C432 0.931 . S
H449 C437 0.930 . S
H450 C438 0.956 . S
H451 C438 0.961 . S
H452 C438 0.961 . S
H453 C439 0.958 . S
H454 C439 0.961 . S
H455 C439 0.960 . S
C456 C457 1.391 . S
C456 C458 1.394 . S
C456 H472 0.931 . S
C457 C456 1.391 . S
C457 C461 1.376 . S
C458 C456 1.394 . S
C458 C459 1.369 . S
C458 C462 1.531 . S
C459 C458 1.369 . S
C459 C460 1.410 . S
C459 C467 1.503 1_455 S
C460 C459 1.410 . S
C460 C461 1.392 . S
C460 C463 1.511 . S
C461 C457 1.376 . S
C461 C460 1.392 . S
C461 H473 0.929 . S
C462 C458 1.531 . S
C462 H474 0.960 1_455 S
C462 H475 0.962 1_455 S
C462 H476 0.960 . S
C463 C460 1.511 . S
C463 H477 0.961 . S
C463 H478 0.961 . S
C463 H479 0.961 . S
C464 C465 1.370 . S
C464 C466 1.363 . S
C464 H480 0.931 . S
C465 C464 1.370 . S
C465 C469 1.408 . S
C466 C464 1.363 . S
C466 C467 1.370 . S
C466 C470 1.524 . S
C467 C459 1.503 1_655 S
C467 C466 1.370 . S
C467 C468 1.403 . S
C468 C467 1.403 . S
C468 C469 1.404 . S
C468 C471 1.539 1_655 S
C469 C465 1.408 . S
C469 C468 1.404 . S
C469 H481 0.930 . S
C470 C466 1.524 . S
C470 H482 0.956 . S
C470 H483 0.961 . S
C470 H484 0.961 . S
C471 C468 1.539 1_455 S
C471 H485 0.958 . S
C471 H486 0.961 . S
C471 H487 0.960 . S
H472 C456 0.931 . S
H473 C461 0.929 . S
H474 C462 0.960 1_655 S
H475 C462 0.962 1_655 S
H476 C462 0.960 . S
H477 C463 0.961 . S
H478 C463 0.961 . S
H479 C463 0.961 . S
H480 C464 0.931 . S
H481 C469 0.930 . S
H482 C470 0.956 . S
H483 C470 0.961 . S
H484 C470 0.961 . S
H485 C471 0.958 . S
H486 C471 0.961 . S
H487 C471 0.960 . S
C488 C489 1.391 . S
C488 C490 1.394 . S
C488 H504 0.931 . S
C489 C488 1.391 . S
C489 C493 1.376 . S
C490 C488 1.394 . S
C490 C491 1.369 . S
C490 C494 1.531 1_455 S
C491 C490 1.369 . S
C491 C492 1.410 . S
C491 C499 1.503 1_455 S
C492 C491 1.410 . S
C492 C493 1.392 . S
C492 C495 1.511 . S
C493 C489 1.376 . S
C493 C492 1.392 . S
C493 H505 0.929 . S
C494 C490 1.531 1_655 S
C494 H506 0.960 . S
C494 H507 0.962 . S
C494 H508 0.960 . S
C495 C492 1.511 . S
C495 H509 0.961 . S
C495 H510 0.961 . S
C495 H511 0.961 . S
C496 C497 1.370 . S
C496 C498 1.363 . S
C496 H512 0.931 . S
C497 C496 1.370 . S
C497 C501 1.408 . S
C498 C496 1.363 . S
C498 C499 1.370 . S
C498 C502 1.524 . S
C499 C491 1.503 1_655 S
C499 C498 1.370 . S
C499 C500 1.403 . S
C500 C499 1.403 . S
C500 C501 1.404 . S
C500 C503 1.539 . S
C501 C497 1.408 . S
C501 C500 1.404 . S
C501 H513 0.930 . S
C502 C498 1.524 . S
C502 H514 0.956 . S
C502 H515 0.961 1_655 S
C502 H516 0.961 . S
C503 C500 1.539 . S
C503 H517 0.958 . S
C503 H518 0.961 . S
C503 H519 0.960 1_655 S
H504 C488 0.931 . S
H505 C493 0.929 . S
H506 C494 0.960 . S
H507 C494 0.962 . S
H508 C494 0.960 . S
H509 C495 0.961 . S
H510 C495 0.961 . S
H511 C495 0.961 . S
H512 C496 0.931 . S
H513 C501 0.930 . S
H514 C502 0.956 . S
H515 C502 0.961 1_455 S
H516 C502 0.961 . S
H517 C503 0.958 . S
H518 C503 0.961 . S
H519 C503 0.960 1_455 S
C520 C521 1.391 . S
C520 C522 1.394 . S
C520 H536 0.931 . S
C521 C520 1.391 . S
C521 C525 1.376 . S
C522 C520 1.394 . S
C522 C523 1.369 . S
C522 C526 1.531 . S
C523 C522 1.369 . S
C523 C524 1.410 . S
C523 C531 1.503 . S
C524 C523 1.410 . S
C524 C525 1.392 . S
C524 C527 1.511 . S
C525 C521 1.376 . S
C525 C524 1.392 . S
C525 H537 0.929 . S
C526 C522 1.531 . S
C526 H538 0.960 . S
C526 H539 0.962 . S
C526 H540 0.960 . S
C527 C524 1.511 . S
C527 H541 0.961 . S
C527 H542 0.961 . S
C527 H543 0.961 . S
C528 C529 1.370 . S
C528 C530 1.363 . S
C528 H544 0.931 . S
C529 C528 1.370 . S
C529 C533 1.408 . S
C530 C528 1.363 . S
C530 C531 1.370 . S
C530 C534 1.524 . S
C531 C523 1.503 . S
C531 C530 1.370 . S
C531 C532 1.403 . S
C532 C531 1.403 . S
C532 C533 1.404 . S
C532 C535 1.539 . S
C533 C529 1.408 . S
C533 C532 1.404 . S
C533 H545 0.930 . S
C534 C530 1.524 . S
C534 H546 0.956 . S
C534 H547 0.961 . S
C534 H548 0.961 . S
C535 C532 1.539 . S
C535 H549 0.958 . S
C535 H550 0.961 . S
C535 H551 0.960 . S
H536 C520 0.931 . S
H537 C525 0.929 . S
H538 C526 0.960 . S
H539 C526 0.962 . S
H540 C526 0.960 . S
H541 C527 0.961 . S
H542 C527 0.961 . S
H543 C527 0.961 . S
H544 C528 0.931 . S
H545 C533 0.930 . S
H546 C534 0.956 . S
H547 C534 0.961 . S
H548 C534 0.961 . S
H549 C535 0.958 . S
H550 C535 0.961 . S
H551 C535 0.960 . S
C552 C553 1.391 . S
C552 C554 1.394 . S
C552 H568 0.931 . S
C553 C552 1.391 . S
C553 C557 1.376 . S
C554 C552 1.394 . S
C554 C555 1.369 . S
C554 C558 1.531 . S
C555 C554 1.369 . S
C555 C556 1.410 . S
C555 C563 1.503 . S
C556 C555 1.410 . S
C556 C557 1.392 . S
C556 C559 1.511 . S
C557 C553 1.376 . S
C557 C556 1.392 . S
C557 H569 0.929 . S
C558 C554 1.531 . S
C558 H570 0.960 . S
C558 H571 0.962 . S
C558 H572 0.960 . S
C559 C556 1.511 . S
C559 H573 0.961 . S
C559 H574 0.961 . S
C559 H575 0.961 . S
C560 C561 1.370 . S
C560 C562 1.363 . S
C560 H576 0.931 . S
C561 C560 1.370 . S
C561 C565 1.408 . S
C562 C560 1.363 . S
C562 C563 1.370 . S
C562 C566 1.524 . S
C563 C555 1.503 . S
C563 C562 1.370 . S
C563 C564 1.403 . S
C564 C563 1.403 . S
C564 C565 1.404 . S
C564 C567 1.539 . S
C565 C561 1.408 . S
C565 C564 1.404 . S
C565 H577 0.930 . S
C566 C562 1.524 . S
C566 H578 0.956 . S
C566 H579 0.961 . S
C566 H580 0.961 . S
C567 C564 1.539 . S
C567 H581 0.958 . S
C567 H582 0.961 . S
C567 H583 0.960 . S
H568 C552 0.931 . S
H569 C557 0.929 . S
H570 C558 0.960 . S
H571 C558 0.962 . S
H572 C558 0.960 . S
H573 C559 0.961 . S
H574 C559 0.961 . S
H575 C559 0.961 . S
H576 C560 0.931 . S
H577 C565 0.930 . S
H578 C566 0.956 . S
H579 C566 0.961 . S
H580 C566 0.961 . S
H581 C567 0.958 . S
H582 C567 0.961 . S
H583 C567 0.960 . S
C584 C585 1.391 . S
C584 C586 1.394 . S
C584 H600 0.931 . S
C585 C584 1.391 . S
C585 C589 1.376 . S
C586 C584 1.394 . S
C586 C587 1.369 . S
C586 C590 1.531 . S
C587 C586 1.369 . S
C587 C588 1.410 . S
C587 C595 1.503 . S
C588 C587 1.410 . S
C588 C589 1.392 . S
C588 C591 1.511 . S
C589 C585 1.376 . S
C589 C588 1.392 . S
C589 H601 0.929 . S
C590 C586 1.531 . S
C590 H602 0.960 . S
C590 H603 0.962 . S
C590 H604 0.960 . S
C591 C588 1.511 . S
C591 H605 0.961 . S
C591 H606 0.961 . S
C591 H607 0.961 . S
C592 C593 1.370 . S
C592 C594 1.363 . S
C592 H608 0.931 . S
C593 C592 1.370 . S
C593 C597 1.408 . S
C594 C592 1.363 . S
C594 C595 1.370 . S
C594 C598 1.524 . S
C595 C587 1.503 . S
C595 C594 1.370 . S
C595 C596 1.403 . S
C596 C595 1.403 . S
C596 C597 1.404 . S
C596 C599 1.539 . S
C597 C593 1.408 . S
C597 C596 1.404 . S
C597 H609 0.930 . S
C598 C594 1.524 . S
C598 H610 0.956 . S
C598 H611 0.961 . S
C598 H612 0.961 . S
C599 C596 1.539 . S
C599 H613 0.958 . S
C599 H614 0.961 . S
C599 H615 0.960 . S
H600 C584 0.931 . S
H601 C589 0.929 . S
H602 C590 0.960 . S
H603 C590 0.962 . S
H604 C590 0.960 . S
H605 C591 0.961 . S
H606 C591 0.961 . S
H607 C591 0.961 . S
H608 C592 0.931 . S
H609 C597 0.930 . S
H610 C598 0.956 . S
H611 C598 0.961 . S
H612 C598 0.961 . S
H613 C599 0.958 . S
H614 C599 0.961 . S
H615 C599 0.960 . S
C616 C617 1.391 . S
C616 C618 1.394 . S
C616 H632 0.931 . S
C617 C616 1.391 . S
C617 C621 1.376 . S
C618 C616 1.394 . S
C618 C619 1.369 . S
C618 C622 1.531 . S
C619 C618 1.369 . S
C619 C620 1.410 . S
C619 C627 1.503 . S
C620 C619 1.410 . S
C620 C621 1.392 . S
C620 C623 1.511 . S
C621 C617 1.376 . S
C621 C620 1.392 . S
C621 H633 0.929 . S
C622 C618 1.531 . S
C622 H634 0.960 . S
C622 H635 0.962 . S
C622 H636 0.960 . S
C623 C620 1.511 . S
C623 H637 0.961 . S
C623 H638 0.961 . S
C623 H639 0.961 . S
C624 C625 1.370 . S
C624 C626 1.363 . S
C624 H640 0.931 . S
C625 C624 1.370 . S
C625 C629 1.408 . S
C626 C624 1.363 . S
C626 C627 1.370 . S
C626 C630 1.524 . S
C627 C619 1.503 . S
C627 C626 1.370 . S
C627 C628 1.403 . S
C628 C627 1.403 . S
C628 C629 1.404 . S
C628 C631 1.539 . S
C629 C625 1.408 . S
C629 C628 1.404 . S
C629 H641 0.930 . S
C630 C626 1.524 . S
C630 H642 0.956 . S
C630 H643 0.961 . S
C630 H644 0.961 . S
C631 C628 1.539 . S
C631 H645 0.958 . S
C631 H646 0.961 . S
C631 H647 0.960 . S
H632 C616 0.931 . S
H633 C621 0.929 . S
H634 C622 0.960 . S
H635 C622 0.962 . S
H636 C622 0.960 . S
H637 C623 0.961 . S
H638 C623 0.961 . S
H639 C623 0.961 . S
H640 C624 0.931 . S
H641 C629 0.930 . S
H642 C630 0.956 . S
H643 C630 0.961 . S
H644 C630 0.961 . S
H645 C631 0.958 . S
H646 C631 0.961 . S
H647 C631 0.960 . S
C648 C649 1.391 . S
C648 C650 1.394 . S
C648 H664 0.931 . S
C649 C648 1.391 . S
C649 C653 1.376 . S
C650 C648 1.394 . S
C650 C651 1.369 . S
C650 C654 1.531 . S
C651 C650 1.369 . S
C651 C652 1.410 . S
C651 C659 1.503 . S
C652 C651 1.410 . S
C652 C653 1.392 . S
C652 C655 1.511 . S
C653 C649 1.376 . S
C653 C652 1.392 . S
C653 H665 0.929 . S
C654 C650 1.531 . S
C654 H666 0.960 . S
C654 H667 0.962 . S
C654 H668 0.960 . S
C655 C652 1.511 . S
C655 H669 0.961 . S
C655 H670 0.961 . S
C655 H671 0.961 . S
C656 C657 1.370 . S
C656 C658 1.363 . S
C656 H672 0.931 . S
C657 C656 1.370 . S
C657 C661 1.408 . S
C658 C656 1.363 . S
C658 C659 1.370 . S
C658 C662 1.524 . S
C659 C651 1.503 . S
C659 C658 1.370 . S
C659 C660 1.403 . S
C660 C659 1.403 . S
C660 C661 1.404 . S
C660 C663 1.539 . S
C661 C657 1.408 . S
C661 C660 1.404 . S
C661 H673 0.930 . S
C662 C658 1.524 . S
C662 H674 0.956 . S
C662 H675 0.961 . S
C662 H676 0.961 . S
C663 C660 1.539 . S
C663 H677 0.958 . S
C663 H678 0.961 . S
C663 H679 0.960 . S
H664 C648 0.931 . S
H665 C653 0.929 . S
H666 C654 0.960 . S
H667 C654 0.962 . S
H668 C654 0.960 . S
H669 C655 0.961 . S
H670 C655 0.961 . S
H671 C655 0.961 . S
H672 C656 0.931 . S
H673 C661 0.930 . S
H674 C662 0.956 . S
H675 C662 0.961 . S
H676 C662 0.961 . S
H677 C663 0.958 . S
H678 C663 0.961 . S
H679 C663 0.960 . S
C680 C681 1.391 . S
C680 C682 1.394 . S
C680 H696 0.931 . S
C681 C680 1.391 . S
C681 C685 1.376 . S
C682 C680 1.394 . S
C682 C683 1.369 . S
C682 C686 1.531 . S
C683 C682 1.369 . S
C683 C684 1.410 . S
C683 C691 1.503 . S
C684 C683 1.410 . S
C684 C685 1.392 . S
C684 C687 1.511 . S
C685 C681 1.376 . S
C685 C684 1.392 . S
C685 H697 0.929 . S
C686 C682 1.531 . S
C686 H698 0.960 . S
C686 H699 0.962 . S
C686 H700 0.960 . S
C687 C684 1.511 . S
C687 H701 0.961 . S
C687 H702 0.961 . S
C687 H703 0.961 . S
C688 C689 1.370 . S
C688 C690 1.363 . S
C688 H704 0.931 . S
C689 C688 1.370 . S
C689 C693 1.408 . S
C690 C688 1.363 . S
C690 C691 1.370 . S
C690 C694 1.524 . S
C691 C683 1.503 . S
C691 C690 1.370 . S
C691 C692 1.403 . S
C692 C691 1.403 . S
C692 C693 1.404 . S
C692 C695 1.539 . S
C693 C689 1.408 . S
C693 C692 1.404 . S
C693 H705 0.930 . S
C694 C690 1.524 . S
C694 H706 0.956 . S
C694 H707 0.961 . S
C694 H708 0.961 . S
C695 C692 1.539 . S
C695 H709 0.958 . S
C695 H710 0.961 . S
C695 H711 0.960 . S
H696 C680 0.931 . S
H697 C685 0.929 . S
H698 C686 0.960 . S
H699 C686 0.962 . S
H700 C686 0.960 . S
H701 C687 0.961 . S
H702 C687 0.961 . S
H703 C687 0.961 . S
H704 C688 0.931 . S
H705 C693 0.930 . S
H706 C694 0.956 . S
H707 C694 0.961 . S
H708 C694 0.961 . S
H709 C695 0.958 . S
H710 C695 0.961 . S
H711 C695 0.960 . S
C712 C713 1.391 . S
C712 C714 1.394 . S
C712 H728 0.931 . S
C713 C712 1.391 . S
C713 C717 1.376 . S
C714 C712 1.394 . S
C714 C715 1.369 . S
C714 C718 1.531 . S
C715 C714 1.369 . S
C715 C716 1.410 . S
C715 C723 1.503 . S
C716 C715 1.410 . S
C716 C717 1.392 . S
C716 C719 1.511 . S
C717 C713 1.376 . S
C717 C716 1.392 . S
C717 H729 0.929 . S
C718 C714 1.531 . S
C718 H730 0.960 . S
C718 H731 0.962 . S
C718 H732 0.960 . S
C719 C716 1.511 . S
C719 H733 0.961 . S
C719 H734 0.961 . S
C719 H735 0.961 . S
C720 C721 1.370 . S
C720 C722 1.363 . S
C720 H736 0.931 . S
C721 C720 1.370 . S
C721 C725 1.408 . S
C722 C720 1.363 . S
C722 C723 1.370 . S
C722 C726 1.524 . S
C723 C715 1.503 . S
C723 C722 1.370 . S
C723 C724 1.403 . S
C724 C723 1.403 . S
C724 C725 1.404 . S
C724 C727 1.539 . S
C725 C721 1.408 . S
C725 C724 1.404 . S
C725 H737 0.930 . S
C726 C722 1.524 . S
C726 H738 0.956 . S
C726 H739 0.961 . S
C726 H740 0.961 . S
C727 C724 1.539 . S
C727 H741 0.958 . S
C727 H742 0.961 . S
C727 H743 0.960 . S
H728 C712 0.931 . S
H729 C717 0.929 . S
H730 C718 0.960 . S
H731 C718 0.962 . S
H732 C718 0.960 . S
H733 C719 0.961 . S
H734 C719 0.961 . S
H735 C719 0.961 . S
H736 C720 0.931 . S
H737 C725 0.930 . S
H738 C726 0.956 . S
H739 C726 0.961 . S
H740 C726 0.961 . S
H741 C727 0.958 . S
H742 C727 0.961 . S
H743 C727 0.960 . S
C744 C745 1.391 . S
C744 C746 1.394 . S
C744 H760 0.931 . S
C745 C744 1.391 . S
C745 C749 1.376 . S
C746 C744 1.394 . S
C746 C747 1.369 . S
C746 C750 1.531 . S
C747 C746 1.369 . S
C747 C748 1.410 . S
C747 C755 1.503 . S
C748 C747 1.410 . S
C748 C749 1.392 . S
C748 C751 1.511 . S
C749 C745 1.376 . S
C749 C748 1.392 . S
C749 H761 0.929 . S
C750 C746 1.531 . S
C750 H762 0.960 . S
C750 H763 0.962 . S
C750 H764 0.960 . S
C751 C748 1.511 . S
C751 H765 0.961 . S
C751 H766 0.961 . S
C751 H767 0.961 . S
C752 C753 1.370 . S
C752 C754 1.363 . S
C752 H768 0.931 . S
C753 C752 1.370 . S
C753 C757 1.408 . S
C754 C752 1.363 . S
C754 C755 1.370 . S
C754 C758 1.524 . S
C755 C747 1.503 . S
C755 C754 1.370 . S
C755 C756 1.403 . S
C756 C755 1.403 . S
C756 C757 1.404 . S
C756 C759 1.539 . S
C757 C753 1.408 . S
C757 C756 1.404 . S
C757 H769 0.930 . S
C758 C754 1.524 . S
C758 H770 0.956 . S
C758 H771 0.961 . S
C758 H772 0.961 . S
C759 C756 1.539 . S
C759 H773 0.958 . S
C759 H774 0.961 . S
C759 H775 0.960 . S
H760 C744 0.931 . S
H761 C749 0.929 . S
H762 C750 0.960 . S
H763 C750 0.962 . S
H764 C750 0.960 . S
H765 C751 0.961 . S
H766 C751 0.961 . S
H767 C751 0.961 . S
H768 C752 0.931 . S
H769 C757 0.930 . S
H770 C758 0.956 . S
H771 C758 0.961 . S
H772 C758 0.961 . S
H773 C759 0.958 . S
H774 C759 0.961 . S
H775 C759 0.960 . S
C776 C777 1.391 . S
C776 C778 1.394 . S
C776 H792 0.931 . S
C777 C776 1.391 . S
C777 C781 1.376 . S
C778 C776 1.394 . S
C778 C779 1.369 . S
C778 C782 1.531 . S
C779 C778 1.369 . S
C779 C780 1.410 . S
C779 C787 1.503 . S
C780 C779 1.410 . S
C780 C781 1.392 . S
C780 C783 1.511 1_545 S
C781 C777 1.376 . S
C781 C780 1.392 . S
C781 H793 0.929 . S
C782 C778 1.531 . S
C782 H794 0.960 . S
C782 H795 0.962 . S
C782 H796 0.960 . S
C783 C780 1.511 1_565 S
C783 H797 0.961 . S
C783 H798 0.961 . S
C783 H799 0.961 . S
C784 C785 1.370 1_545 S
C784 C786 1.363 . S
C784 H800 0.931 . S
C785 C784 1.370 1_565 S
C785 C789 1.408 . S
C786 C784 1.363 . S
C786 C787 1.370 . S
C786 C790 1.524 . S
C787 C779 1.503 . S
C787 C786 1.370 . S
C787 C788 1.403 1_545 S
C788 C787 1.403 1_565 S
C788 C789 1.404 . S
C788 C791 1.539 . S
C789 C785 1.408 . S
C789 C788 1.404 . S
C789 H801 0.930 . S
C790 C786 1.524 . S
C790 H802 0.956 . S
C790 H803 0.961 . S
C790 H804 0.961 . S
C791 C788 1.539 . S
C791 H805 0.958 . S
C791 H806 0.961 . S
C791 H807 0.960 . S
H792 C776 0.931 . S
H793 C781 0.929 . S
H794 C782 0.960 . S
H795 C782 0.962 . S
H796 C782 0.960 . S
H797 C783 0.961 . S
H798 C783 0.961 . S
H799 C783 0.961 . S
H800 C784 0.931 . S
H801 C789 0.930 . S
H802 C790 0.956 . S
H803 C790 0.961 . S
H804 C790 0.961 . S
H805 C791 0.958 . S
H806 C791 0.961 . S
H807 C791 0.960 . S
C808 C809 1.391 . S
C808 C810 1.394 . S
C808 H824 0.931 . S
C809 C808 1.391 . S
C809 C813 1.376 . S
C810 C808 1.394 . S
C810 C811 1.369 . S
C810 C814 1.531 1_554 S
C811 C810 1.369 . S
C811 C812 1.410 . S
C811 C819 1.503 1_554 S
C812 C811 1.410 . S
C812 C813 1.392 . S
C812 C815 1.511 . S
C813 C809 1.376 . S
C813 C812 1.392 . S
C813 H825 0.929 . S
C814 C810 1.531 1_556 S
C814 H826 0.960 . S
C814 H827 0.962 . S
C814 H828 0.960 . S
C815 C812 1.511 . S
C815 H829 0.961 . S
C815 H830 0.961 . S
C815 H831 0.961 1_545 S
C816 C817 1.370 1_545 S
C816 C818 1.363 . S
C816 H832 0.931 . S
C817 C816 1.370 1_565 S
C817 C821 1.408 . S
C818 C816 1.363 . S
C818 C819 1.370 . S
C818 C822 1.524 . S
C819 C811 1.503 1_556 S
C819 C818 1.370 . S
C819 C820 1.403 1_545 S
C820 C819 1.403 1_565 S
C820 C821 1.404 . S
C820 C823 1.539 1_556 S
C821 C817 1.408 . S
C821 C820 1.404 . S
C821 H833 0.930 . S
C822 C818 1.524 . S
C822 H834 0.956 . S
C822 H835 0.961 1_556 S
C822 H836 0.961 . S
C823 C820 1.539 1_554 S
C823 H837 0.959 1_554 S
C823 H838 0.961 . S
C823 H839 0.960 . S
H824 C808 0.931 . S
H825 C813 0.929 . S
H826 C814 0.960 . S
H827 C814 0.962 . S
H828 C814 0.960 . S
H829 C815 0.961 . S
H830 C815 0.961 . S
H831 C815 0.961 1_565 S
H832 C816 0.931 . S
H833 C821 0.930 . S
H834 C822 0.956 . S
H835 C822 0.961 1_554 S
H836 C822 0.961 . S
H837 C823 0.959 1_556 S
H838 C823 0.961 . S
H839 C823 0.960 . S
C840 C841 1.391 . S
C840 C842 1.394 1_455 S
C840 H856 0.931 . S
C841 C840 1.391 . S
C841 C845 1.376 . S
C842 C840 1.394 1_655 S
C842 C843 1.369 . S
C842 C846 1.531 . S
C843 C842 1.369 . S
C843 C844 1.410 1_655 S
C843 C851 1.503 . S
C844 C843 1.410 1_455 S
C844 C845 1.392 . S
C844 C847 1.511 . S
C845 C841 1.376 . S
C845 C844 1.392 . S
C845 H857 0.929 . S
C846 C842 1.531 . S
C846 H858 0.960 . S
C846 H859 0.962 . S
C846 H860 0.960 . S
C847 C844 1.511 . S
C847 H861 0.961 . S
C847 H862 0.961 1_455 S
C847 H863 0.961 . S
C848 C849 1.370 . S
C848 C850 1.363 . S
C848 H864 0.931 . S
C849 C848 1.370 . S
C849 C853 1.408 . S
C850 C848 1.363 . S
C850 C851 1.370 . S
C850 C854 1.524 . S
C851 C843 1.503 . S
C851 C850 1.370 . S
C851 C852 1.403 . S
C852 C851 1.403 . S
C852 C853 1.404 . S
C852 C855 1.539 . S
C853 C849 1.408 . S
C853 C852 1.404 . S
C853 H865 0.930 . S
C854 C850 1.524 . S
C854 H866 0.956 . S
C854 H867 0.961 . S
C854 H868 0.961 . S
C855 C852 1.539 . S
C855 H869 0.958 . S
C855 H870 0.961 . S
C855 H871 0.960 1_655 S
H856 C840 0.931 . S
H857 C845 0.929 . S
H858 C846 0.960 . S
H859 C846 0.962 . S
H860 C846 0.960 . S
H861 C847 0.961 . S
H862 C847 0.961 1_655 S
H863 C847 0.961 . S
H864 C848 0.931 . S
H865 C853 0.930 . S
H866 C854 0.956 . S
H867 C854 0.961 . S
H868 C854 0.961 . S
H869 C855 0.958 . S
H870 C855 0.961 . S
H871 C855 0.960 1_455 S
C872 C873 1.391 . S
C872 C874 1.394 . S
C872 H888 0.931 . S
C873 C872 1.391 . S
C873 C877 1.376 . S
C874 C872 1.394 . S
C874 C875 1.369 . S
C874 C878 1.531 . S
C875 C874 1.369 . S
C875 C876 1.410 . S
C875 C883 1.503 1_554 S
C876 C875 1.410 . S
C876 C877 1.392 . S
C876 C879 1.511 1_554 S
C877 C873 1.376 . S
C877 C876 1.392 . S
C877 H889 0.929 . S
C878 C874 1.531 . S
C878 H890 0.960 1_455 S
C878 H891 0.962 . S
C878 H892 0.960 . S
C879 C876 1.511 1_556 S
C879 H893 0.961 . S
C879 H894 0.961 . S
C879 H895 0.961 . S
C880 C881 1.370 . S
C880 C882 1.363 1_655 S
C880 H896 0.931 . S
C881 C880 1.370 . S
C881 C885 1.408 . S
C882 C880 1.363 1_455 S
C882 C883 1.370 . S
C882 C886 1.524 . S
C883 C875 1.503 1_556 S
C883 C882 1.370 . S
C883 C884 1.403 1_455 S
C884 C883 1.403 1_655 S
C884 C885 1.404 . S
C884 C887 1.539 . S
C885 C881 1.408 . S
C885 C884 1.404 . S
C885 H897 0.930 . S
C886 C882 1.524 . S
C886 H898 0.956 1_556 S
C886 H899 0.961 . S
C886 H900 0.961 . S
C887 C884 1.539 . S
C887 H901 0.958 1_556 S
C887 H902 0.961 . S
C887 H903 0.960 1_556 S
H888 C872 0.931 . S
H889 C877 0.929 . S
H890 C878 0.960 1_655 S
H891 C878 0.962 . S
H892 C878 0.960 . S
H893 C879 0.961 . S
H894 C879 0.961 . S
H895 C879 0.961 . S
H896 C880 0.931 . S
H897 C885 0.930 . S
H898 C886 0.956 1_554 S
H899 C886 0.961 . S
H900 C886 0.961 . S
H901 C887 0.958 1_554 S
H902 C887 0.961 . S
H903 C887 0.960 1_554 S
C265 C216 1.645 . S
C273 N13 1.612 . S
C297 N46 1.636 . S
C305 C249 1.660 . S
C329 C84 1.655 . S
C337 N145 1.622 . S
C361 C117 1.651 . S
C369 N178 1.619 . S
C393 N35 1.225 . S
C401 N2 1.247 . S
C425 C73 1.264 . S
C433 C106 1.281 . S
C457 N167 1.271 . S
C465 N134 1.266 . S
C489 C205 1.298 . S
C497 C238 1.288 . S
C521 C183 1.357 . S
C529 C21 1.376 . S
C553 C54 1.367 . S
C561 C150 1.378 . S
C585 C87 1.376 . S
C593 N244 1.348 . S
C617 N211 1.367 . S
C625 C120 1.380 . S
C649 C153 1.385 . S
C657 C51 1.372 . S
C681 C186 1.386 . S
C689 C18 1.373 . S
C713 C219 1.376 . S
C721 N112 1.366 . S
C745 N79 1.335 . S
C753 C252 1.380 . S
C777 C7 1.520 . S
C785 N68 1.501 . S
C809 C40 1.510 . S
C817 N101 1.495 . S
C841 N200 1.506 . S
C849 C139 1.534 . S
C873 C172 1.537 . S
C881 N233 1.509 . S
