# Generated by pormake.
# Topology wir, (6)-cn, num edge types: 1
# Building blocks:
#     Node 0, Type 0, BuildingBlock: BETFAJ_clean_sbu_0, # of connection points: 6
#     Node 1, Type 0, BuildingBlock: BETFAJ_clean_sbu_0, # of connection points: 6
#     Node 2, Type 0, BuildingBlock: BETFAJ_clean_sbu_0, # of connection points: 6
#     Node 3, Type 0, BuildingBlock: BETFAJ_clean_sbu_0, # of connection points: 6
#     Node 4, Type 0, BuildingBlock: BETFAJ_clean_sbu_0, # of connection points: 6
#     Node 5, Type 0, BuildingBlock: BETFAJ_clean_sbu_0, # of connection points: 6
#     Node 6, Type 0, BuildingBlock: BETFAJ_clean_sbu_0, # of connection points: 6
#     Node 7, Type 0, BuildingBlock: BETFAJ_clean_sbu_0, # of connection points: 6
#     Node 8, Type 0, BuildingBlock: BETFAJ_clean_sbu_0, # of connection points: 6
#     Node 9, Type 0, BuildingBlock: BETFAJ_clean_sbu_0, # of connection points: 6
#     Node 10, Type 0, BuildingBlock: BETFAJ_clean_sbu_0, # of connection points: 6
#     Node 11, Type 0, BuildingBlock: BETFAJ_clean_sbu_0, # of connection points: 6
#     Node 12, Type 0, BuildingBlock: BETFAJ_clean_sbu_0, # of connection points: 6
#     Node 13, Type 0, BuildingBlock: BETFAJ_clean_sbu_0, # of connection points: 6
#     Node 14, Type 0, BuildingBlock: BETFAJ_clean_sbu_0, # of connection points: 6
#     Node 15, Type 0, BuildingBlock: BETFAJ_clean_sbu_0, # of connection points: 6
#     Node 16, Type 0, BuildingBlock: BETFAJ_clean_sbu_0, # of connection points: 6
#     Node 17, Type 0, BuildingBlock: BETFAJ_clean_sbu_0, # of connection points: 6
#     Node 18, Type 0, BuildingBlock: BETFAJ_clean_sbu_0, # of connection points: 6
#     Node 19, Type 0, BuildingBlock: BETFAJ_clean_sbu_0, # of connection points: 6
#     Node 20, Type 0, BuildingBlock: BETFAJ_clean_sbu_0, # of connection points: 6
#     Node 21, Type 0, BuildingBlock: BETFAJ_clean_sbu_0, # of connection points: 6
#     Node 22, Type 0, BuildingBlock: BETFAJ_clean_sbu_0, # of connection points: 6
#     Node 23, Type 0, BuildingBlock: BETFAJ_clean_sbu_0, # of connection points: 6
#     Node 24, Type 0, BuildingBlock: BETFAJ_clean_sbu_0, # of connection points: 6
#     Node 25, Type 0, BuildingBlock: BETFAJ_clean_sbu_0, # of connection points: 6
#     Node 26, Type 0, BuildingBlock: BETFAJ_clean_sbu_0, # of connection points: 6
#     Node 27, Type 0, BuildingBlock: BETFAJ_clean_sbu_0, # of connection points: 6
#     Node 28, Type 0, BuildingBlock: BETFAJ_clean_sbu_0, # of connection points: 6
#     Node 29, Type 0, BuildingBlock: BETFAJ_clean_sbu_0, # of connection points: 6
#     Node 30, Type 0, BuildingBlock: BETFAJ_clean_sbu_0, # of connection points: 6
#     Node 31, Type 0, BuildingBlock: BETFAJ_clean_sbu_0, # of connection points: 6
#     Edge 32, Type (0, 0), BuildingBlock: KIFKEQ_clean_linker_1, # of connection points: 2
#     Edge 33, Type (0, 0), BuildingBlock: KIFKEQ_clean_linker_1, # of connection points: 2
#     Edge 34, Type (0, 0), BuildingBlock: KIFKEQ_clean_linker_1, # of connection points: 2
#     Edge 35, Type (0, 0), BuildingBlock: KIFKEQ_clean_linker_1, # of connection points: 2
#     Edge 36, Type (0, 0), BuildingBlock: KIFKEQ_clean_linker_1, # of connection points: 2
#     Edge 37, Type (0, 0), BuildingBlock: KIFKEQ_clean_linker_1, # of connection points: 2
#     Edge 38, Type (0, 0), BuildingBlock: KIFKEQ_clean_linker_1, # of connection points: 2
#     Edge 39, Type (0, 0), BuildingBlock: KIFKEQ_clean_linker_1, # of connection points: 2
#     Edge 40, Type (0, 0), BuildingBlock: KIFKEQ_clean_linker_1, # of connection points: 2
#     Edge 41, Type (0, 0), BuildingBlock: KIFKEQ_clean_linker_1, # of connection points: 2
#     Edge 42, Type (0, 0), BuildingBlock: KIFKEQ_clean_linker_1, # of connection points: 2
#     Edge 43, Type (0, 0), BuildingBlock: KIFKEQ_clean_linker_1, # of connection points: 2
#     Edge 44, Type (0, 0), BuildingBlock: KIFKEQ_clean_linker_1, # of connection points: 2
#     Edge 45, Type (0, 0), BuildingBlock: KIFKEQ_clean_linker_1, # of connection points: 2
#     Edge 46, Type (0, 0), BuildingBlock: KIFKEQ_clean_linker_1, # of connection points: 2
#     Edge 47, Type (0, 0), BuildingBlock: KIFKEQ_clean_linker_1, # of connection points: 2
#     Edge 48, Type (0, 0), BuildingBlock: KIFKEQ_clean_linker_1, # of connection points: 2
#     Edge 49, Type (0, 0), BuildingBlock: KIFKEQ_clean_linker_1, # of connection points: 2
#     Edge 50, Type (0, 0), BuildingBlock: KIFKEQ_clean_linker_1, # of connection points: 2
#     Edge 51, Type (0, 0), BuildingBlock: KIFKEQ_clean_linker_1, # of connection points: 2
#     Edge 52, Type (0, 0), BuildingBlock: KIFKEQ_clean_linker_1, # of connection points: 2
#     Edge 53, Type (0, 0), BuildingBlock: KIFKEQ_clean_linker_1, # of connection points: 2
#     Edge 54, Type (0, 0), BuildingBlock: KIFKEQ_clean_linker_1, # of connection points: 2
#     Edge 55, Type (0, 0), BuildingBlock: KIFKEQ_clean_linker_1, # of connection points: 2
#     Edge 56, Type (0, 0), BuildingBlock: KIFKEQ_clean_linker_1, # of connection points: 2
#     Edge 57, Type (0, 0), BuildingBlock: KIFKEQ_clean_linker_1, # of connection points: 2
#     Edge 58, Type (0, 0), BuildingBlock: KIFKEQ_clean_linker_1, # of connection points: 2
#     Edge 59, Type (0, 0), BuildingBlock: KIFKEQ_clean_linker_1, # of connection points: 2
#     Edge 60, Type (0, 0), BuildingBlock: KIFKEQ_clean_linker_1, # of connection points: 2
#     Edge 61, Type (0, 0), BuildingBlock: KIFKEQ_clean_linker_1, # of connection points: 2
#     Edge 62, Type (0, 0), BuildingBlock: KIFKEQ_clean_linker_1, # of connection points: 2
#     Edge 63, Type (0, 0), BuildingBlock: KIFKEQ_clean_linker_1, # of connection points: 2
#     Edge 64, Type (0, 0), BuildingBlock: KIFKEQ_clean_linker_1, # of connection points: 2
#     Edge 65, Type (0, 0), BuildingBlock: KIFKEQ_clean_linker_1, # of connection points: 2
#     Edge 66, Type (0, 0), BuildingBlock: KIFKEQ_clean_linker_1, # of connection points: 2
#     Edge 67, Type (0, 0), BuildingBlock: KIFKEQ_clean_linker_1, # of connection points: 2
#     Edge 68, Type (0, 0), BuildingBlock: KIFKEQ_clean_linker_1, # of connection points: 2
#     Edge 69, Type (0, 0), BuildingBlock: KIFKEQ_clean_linker_1, # of connection points: 2
#     Edge 70, Type (0, 0), BuildingBlock: KIFKEQ_clean_linker_1, # of connection points: 2
#     Edge 71, Type (0, 0), BuildingBlock: KIFKEQ_clean_linker_1, # of connection points: 2
#     Edge 72, Type (0, 0), BuildingBlock: KIFKEQ_clean_linker_1, # of connection points: 2
#     Edge 73, Type (0, 0), BuildingBlock: KIFKEQ_clean_linker_1, # of connection points: 2
#     Edge 74, Type (0, 0), BuildingBlock: KIFKEQ_clean_linker_1, # of connection points: 2
#     Edge 75, Type (0, 0), BuildingBlock: KIFKEQ_clean_linker_1, # of connection points: 2
#     Edge 76, Type (0, 0), BuildingBlock: KIFKEQ_clean_linker_1, # of connection points: 2
#     Edge 77, Type (0, 0), BuildingBlock: KIFKEQ_clean_linker_1, # of connection points: 2
#     Edge 78, Type (0, 0), BuildingBlock: KIFKEQ_clean_linker_1, # of connection points: 2
#     Edge 79, Type (0, 0), BuildingBlock: KIFKEQ_clean_linker_1, # of connection points: 2
#     Edge 80, Type (0, 0), BuildingBlock: KIFKEQ_clean_linker_1, # of connection points: 2
#     Edge 81, Type (0, 0), BuildingBlock: KIFKEQ_clean_linker_1, # of connection points: 2
#     Edge 82, Type (0, 0), BuildingBlock: KIFKEQ_clean_linker_1, # of connection points: 2
#     Edge 83, Type (0, 0), BuildingBlock: KIFKEQ_clean_linker_1, # of connection points: 2
#     Edge 84, Type (0, 0), BuildingBlock: KIFKEQ_clean_linker_1, # of connection points: 2
#     Edge 85, Type (0, 0), BuildingBlock: KIFKEQ_clean_linker_1, # of connection points: 2
#     Edge 86, Type (0, 0), BuildingBlock: KIFKEQ_clean_linker_1, # of connection points: 2
#     Edge 87, Type (0, 0), BuildingBlock: KIFKEQ_clean_linker_1, # of connection points: 2
#     Edge 88, Type (0, 0), BuildingBlock: KIFKEQ_clean_linker_1, # of connection points: 2
#     Edge 89, Type (0, 0), BuildingBlock: KIFKEQ_clean_linker_1, # of connection points: 2
#     Edge 90, Type (0, 0), BuildingBlock: KIFKEQ_clean_linker_1, # of connection points: 2
#     Edge 91, Type (0, 0), BuildingBlock: KIFKEQ_clean_linker_1, # of connection points: 2
#     Edge 92, Type (0, 0), BuildingBlock: KIFKEQ_clean_linker_1, # of connection points: 2
#     Edge 93, Type (0, 0), BuildingBlock: KIFKEQ_clean_linker_1, # of connection points: 2
#     Edge 94, Type (0, 0), BuildingBlock: KIFKEQ_clean_linker_1, # of connection points: 2
#     Edge 95, Type (0, 0), BuildingBlock: KIFKEQ_clean_linker_1, # of connection points: 2
#     Edge 96, Type (0, 0), BuildingBlock: KIFKEQ_clean_linker_1, # of connection points: 2
#     Edge 97, Type (0, 0), BuildingBlock: KIFKEQ_clean_linker_1, # of connection points: 2
#     Edge 98, Type (0, 0), BuildingBlock: KIFKEQ_clean_linker_1, # of connection points: 2
#     Edge 99, Type (0, 0), BuildingBlock: KIFKEQ_clean_linker_1, # of connection points: 2
#     Edge 100, Type (0, 0), BuildingBlock: KIFKEQ_clean_linker_1, # of connection points: 2
#     Edge 101, Type (0, 0), BuildingBlock: KIFKEQ_clean_linker_1, # of connection points: 2
#     Edge 102, Type (0, 0), BuildingBlock: KIFKEQ_clean_linker_1, # of connection points: 2
#     Edge 103, Type (0, 0), BuildingBlock: KIFKEQ_clean_linker_1, # of connection points: 2
#     Edge 104, Type (0, 0), BuildingBlock: KIFKEQ_clean_linker_1, # of connection points: 2
#     Edge 105, Type (0, 0), BuildingBlock: KIFKEQ_clean_linker_1, # of connection points: 2
#     Edge 106, Type (0, 0), BuildingBlock: KIFKEQ_clean_linker_1, # of connection points: 2
#     Edge 107, Type (0, 0), BuildingBlock: KIFKEQ_clean_linker_1, # of connection points: 2
#     Edge 108, Type (0, 0), BuildingBlock: KIFKEQ_clean_linker_1, # of connection points: 2
#     Edge 109, Type (0, 0), BuildingBlock: KIFKEQ_clean_linker_1, # of connection points: 2
#     Edge 110, Type (0, 0), BuildingBlock: KIFKEQ_clean_linker_1, # of connection points: 2
#     Edge 111, Type (0, 0), BuildingBlock: KIFKEQ_clean_linker_1, # of connection points: 2
#     Edge 112, Type (0, 0), BuildingBlock: KIFKEQ_clean_linker_1, # of connection points: 2
#     Edge 113, Type (0, 0), BuildingBlock: KIFKEQ_clean_linker_1, # of connection points: 2
#     Edge 114, Type (0, 0), BuildingBlock: KIFKEQ_clean_linker_1, # of connection points: 2
#     Edge 115, Type (0, 0), BuildingBlock: KIFKEQ_clean_linker_1, # of connection points: 2
#     Edge 116, Type (0, 0), BuildingBlock: KIFKEQ_clean_linker_1, # of connection points: 2
#     Edge 117, Type (0, 0), BuildingBlock: KIFKEQ_clean_linker_1, # of connection points: 2
#     Edge 118, Type (0, 0), BuildingBlock: KIFKEQ_clean_linker_1, # of connection points: 2
#     Edge 119, Type (0, 0), BuildingBlock: KIFKEQ_clean_linker_1, # of connection points: 2
#     Edge 120, Type (0, 0), BuildingBlock: KIFKEQ_clean_linker_1, # of connection points: 2
#     Edge 121, Type (0, 0), BuildingBlock: KIFKEQ_clean_linker_1, # of connection points: 2
#     Edge 122, Type (0, 0), BuildingBlock: KIFKEQ_clean_linker_1, # of connection points: 2
#     Edge 123, Type (0, 0), BuildingBlock: KIFKEQ_clean_linker_1, # of connection points: 2
#     Edge 124, Type (0, 0), BuildingBlock: KIFKEQ_clean_linker_1, # of connection points: 2
#     Edge 125, Type (0, 0), BuildingBlock: KIFKEQ_clean_linker_1, # of connection points: 2
#     Edge 126, Type (0, 0), BuildingBlock: KIFKEQ_clean_linker_1, # of connection points: 2
#     Edge 127, Type (0, 0), BuildingBlock: KIFKEQ_clean_linker_1, # of connection points: 2
# Relax obj value: 0.442
# Max RMSD: 0.204
# Mean RMSD: 0.204
data_MOF--net-wir--node1-BETFAJ_clean_sbu_0--edge1-KIFKEQ_clean_linker_1
_symmetry_space_group_name_H-M    P1
_symmetry_Int_Tables_number       1
_symmetry_cell_setting            triclinic
loop_
_symmetry_equiv_pos_as_xyz
'x, y, z'
_cell_length_a     39.89095
_cell_length_b     39.873256
_cell_length_c     108.74267
_cell_angle_alpha  90.311134
_cell_angle_beta   89.87338
_cell_angle_gamma 89.896484
loop_
_atom_site_label
_atom_site_type_symbol
_atom_site_fract_x
_atom_site_fract_y
_atom_site_fract_z
_atom_type_partial_charge
Sm0 Sm 0.2477 0.23671 0.40466 0.0
Sm1 Sm 0.22162 0.20504 0.39875 0.0
C2 C 0.2731 0.29699 0.40913 0.0
C3 C 0.25786 0.33007 0.40773 0.0
C4 C 0.22994 0.33399 0.40001 0.0
C5 C 0.20907 0.36186 0.40135 0.0
C6 C 0.21574 0.38581 0.41053 0.0
C7 C 0.2462 0.38385 0.41706 0.0
C8 C 0.26702 0.35598 0.41571 0.0
C9 C 0.28487 0.18512 0.41879 0.0
C10 C 0.19616 0.21414 0.42473 0.0
C11 C 0.23823 0.15178 0.38594 0.0
C12 C 0.24698 0.13552 0.37424 0.0
C13 C 0.28047 0.13623 0.37013 0.0
C14 C 0.2924 0.1113 0.36225 0.0
C15 C 0.27081 0.08594 0.35823 0.0
C16 C 0.23641 0.08804 0.36091 0.0
C17 C 0.22457 0.1126 0.36898 0.0
C18 C 0.16032 0.23895 0.39904 0.0
C19 C 0.25125 0.24283 0.37523 0.0
O20 O 0.27839 0.28045 0.39898 0.0
O21 O 0.2595 0.27844 0.41758 0.0
O22 O 0.25317 0.18719 0.41649 0.0
O23 O 0.29761 0.20873 0.41205 0.0
O24 O 0.21403 0.24057 0.422 0.0
O25 O 0.19603 0.1901 0.41654 0.0
O26 O 0.26006 0.17311 0.39046 0.0
O27 O 0.20681 0.15853 0.38869 0.0
O28 O 0.19015 0.2533 0.39892 0.0
O29 O 0.16391 0.20629 0.39897 0.0
O30 O 0.2215 0.23482 0.37937 0.0
O31 O 0.27265 0.23884 0.38425 0.0
H32 H 0.22264 0.31419 0.3937 0.0
H33 H 0.18604 0.36291 0.39611 0.0
H34 H 0.25211 0.40169 0.42428 0.0
H35 H 0.28852 0.35328 0.4217 0.0
H36 H 0.29835 0.15384 0.37394 0.0
H37 H 0.31895 0.1102 0.36014 0.0
H38 H 0.21932 0.0686 0.35787 0.0
H39 H 0.19869 0.11151 0.372 0.0
Sm40 Sm 0.08001 0.99662 0.65662 0.0
Sm41 Sm 0.11889 0.96911 0.65031 0.0
C42 C 1.02054 1.02614 0.65817 0.0
C43 C 0.98742 1.01157 0.65602 0.0
C44 C 0.98451 0.98295 0.6485 0.0
C45 C 0.95743 0.96126 0.64998 0.0
C46 C 0.93334 0.96771 0.65914 0.0
C47 C 0.93392 0.99891 0.66531 0.0
C48 C 0.96093 1.02064 0.66378 0.0
C49 C 0.13017 1.03138 0.67219 0.0
C50 C 0.09901 0.95022 0.67687 0.0
C51 C 0.17784 0.96271 0.63975 0.0
C52 C 0.2106 0.95957 0.63369 0.0
C53 C 0.21784 0.97953 0.62345 0.0
C54 C 0.25043 0.98138 0.61894 0.0
C55 C 0.2764 0.96339 0.62461 0.0
C56 C 0.26905 0.94256 0.6346 0.0
C57 C 0.23626 0.94051 0.63908 0.0
C58 C 0.0805 0.90909 0.65182 0.0
C59 C 0.07938 1.00163 0.62689 0.0
O60 O 0.03997 1.02877 0.6486 0.0
O61 O 0.03615 1.01365 0.6676 0.0
O62 O 0.13409 1.02019 0.6609 0.0
O63 O 0.09948 1.02385 0.67483 0.0
O64 O 0.07091 0.95833 0.67166 0.0
O65 O 0.12635 0.95756 0.67083 0.0
O66 O 0.15609 0.9855 0.63647 0.0
O67 O 0.16761 0.94204 0.64824 0.0
O68 O 0.06815 0.93924 0.64982 0.0
O69 O 0.11264 0.91196 0.65342 0.0
O70 O 0.09324 0.97304 0.63014 0.0
O71 O 0.07682 1.0216 0.63651 0.0
H72 H 1.00479 0.97552 0.64242 0.0
H73 H 0.95735 0.93774 0.64494 0.0
H74 H 0.91589 1.00481 0.67246 0.0
H75 H 0.96286 0.04258 0.66966 0.0
H76 H 0.19859 0.99473 0.61919 0.0
H77 H 0.25554 0.99786 0.61127 0.0
H78 H 0.28869 0.92823 0.63901 0.0
H79 H 0.23131 0.92518 0.64707 0.0
Sm80 Sm 0.31787 0.84158 0.90546 0.0
Sm81 Sm 0.34301 0.87235 0.89949 0.0
C82 C 0.29351 0.78127 0.91044 0.0
C83 C 0.3097 0.74844 0.90958 0.0
C84 C 0.33832 0.74431 0.90216 0.0
C85 C 0.35879 0.71623 0.90357 0.0
C86 C 0.35087 0.69205 0.91244 0.0
C87 C 0.32027 0.69467 0.91889 0.0
C88 C 0.29991 0.72283 0.91751 0.0
C89 C 0.28129 0.89298 0.92023 0.0
C90 C 0.37155 0.86541 0.92472 0.0
C91 C 0.32192 0.92171 0.88561 0.0
C92 C 0.3074 0.92605 0.87327 0.0
C93 C 0.27611 0.91148 0.87041 0.0
C94 C 0.25767 0.92268 0.86042 0.0
C95 C 0.27035 0.94827 0.85306 0.0
C96 C 0.3031 0.96011 0.855 0.0
C97 C 0.3215 0.94918 0.86513 0.0
C98 C 0.40485 0.83932 0.89928 0.0
C99 C 0.31264 0.83367 0.87623 0.0
O100 O 0.2888 0.79641 0.90004 0.0
O101 O 0.30575 0.8012 0.91879 0.0
O102 O 0.31295 0.8905 0.91777 0.0
O103 O 0.2682 0.86993 0.91323 0.0
O104 O 0.35511 0.83813 0.92176 0.0
O105 O 0.3696 0.88989 0.9168 0.0
O106 O 0.30283 0.90528 0.89329 0.0
O107 O 0.35404 0.91497 0.88673 0.0
O108 O 0.37515 0.82469 0.89941 0.0
O109 O 0.40091 0.87202 0.89929 0.0
O110 O 0.34265 0.84024 0.88043 0.0
O111 O 0.29156 0.83943 0.88528 0.0
H112 H 0.34613 0.76387 0.89591 0.0
H113 H 0.38209 0.71475 0.89846 0.0
H114 H 0.31362 0.67671 0.92592 0.0
H115 H 0.27793 0.72574 0.92329 0.0
H116 H 0.26432 0.89355 0.87646 0.0
H117 H 0.23238 0.9135 0.85908 0.0
H118 H 0.31307 0.98026 0.84944 0.0
H119 H 0.34543 0.96076 0.86713 0.0
Sm120 Sm 0.47487 0.06633 0.15535 0.0
Sm121 Sm 0.44306 0.09141 0.14853 0.0
C122 C 0.53633 0.04464 0.16009 0.0
C123 C 0.56866 0.06161 0.1591 0.0
C124 C 0.57168 0.09043 0.15181 0.0
C125 C 0.59926 0.11155 0.15319 0.0
C126 C 0.62407 0.10403 0.16189 0.0
C127 C 0.62258 0.07326 0.16818 0.0
C128 C 0.59491 0.05228 0.16684 0.0
C129 C 0.42542 1.02773 0.16976 0.0
C130 C 0.4457 0.11634 0.17468 0.0
C131 C 0.39693 0.07605 0.1322 0.0
C132 C 0.39886 0.06901 0.11883 0.0
C133 C 0.4124 0.03848 0.11449 0.0
C134 C 0.4162 1.03244 0.10193 0.0
C135 C 0.40554 0.05627 0.09333 0.0
C136 C 0.39152 0.08663 0.09768 0.0
C137 C 0.38841 0.09299 0.11028 0.0
C138 C 0.47614 0.15351 0.14988 0.0
C139 C 0.48454 0.06029 0.1263 0.0
O140 O 0.52099 0.03886 0.14975 0.0
O141 O 0.51634 0.0568 0.1685 0.0
O142 O 0.42185 0.05759 0.16519 0.0
O143 O 0.45388 1.01729 0.1654 0.0
O144 O 0.47457 0.10266 0.17193 0.0
O145 O 0.42235 0.11349 0.16633 0.0
O146 O 0.41167 0.0538 0.13918 0.0
O147 O 0.40188 0.10707 0.13591 0.0
O148 O 0.49075 0.12382 0.14978 0.0
O149 O 0.44356 0.14949 0.14947 0.0
O150 O 0.47821 0.0905 0.1304 0.0
O151 O 0.47754 0.03937 0.13523 0.0
H152 H 0.55166 0.09784 0.14568 0.0
H153 H 0.59987 0.13499 0.1482 0.0
H154 H 0.64106 0.06692 0.17508 0.0
H155 H 0.59286 1.03015 0.17253 0.0
H156 H 0.42065 1.01921 0.12078 0.0
H157 H 0.42745 1.00899 0.099 0.0
H158 H 0.38203 0.10525 0.09136 0.0
H159 H 0.37763 0.11657 0.11333 0.0
Sm160 Sm 0.24671 0.83385 0.25566 0.0
Sm161 Sm 0.22085 0.86401 0.26232 0.0
C162 C 0.26946 0.7724 0.25124 0.0
C163 C 0.25209 0.7402 0.25211 0.0
C164 C 0.22444 0.73694 0.26004 0.0
C165 C 0.20147 0.71105 0.25827 0.0
C166 C 0.20583 0.68832 0.2485 0.0
C167 C 0.23575 0.6893 0.2416 0.0
C168 C 0.25866 0.71524 0.24336 0.0
C169 C 0.28442 0.88384 0.24125 0.0
C170 C 0.1968 0.86173 0.23611 0.0
C171 C 0.23345 0.91255 0.27811 0.0
C172 C 0.24315 0.9131 0.29106 0.0
C173 C 0.27131 0.93193 0.29427 0.0
C174 C 0.28579 0.92833 0.30577 0.0
C175 C 0.27249 0.90564 0.31439 0.0
C176 C 0.24373 0.88719 0.31122 0.0
C177 C 0.2291 0.89095 0.29963 0.0
C178 C 0.15921 0.83074 0.26088 0.0
C179 C 0.25361 0.82457 0.28453 0.0
O180 O 0.27432 0.78819 0.26158 0.0
O181 O 0.25823 0.79211 0.24268 0.0
O182 O 0.25421 0.88644 0.24566 0.0
O183 O 0.29574 0.85604 0.24582 0.0
O184 O 0.21345 0.83413 0.23827 0.0
O185 O 0.19664 0.8839 0.24497 0.0
O186 O 0.25631 0.89892 0.27103 0.0
O187 O 0.20279 0.90365 0.27527 0.0
O188 O 0.18901 0.81634 0.26083 0.0
O189 O 0.16298 0.86331 0.26141 0.0
O190 O 0.22332 0.82774 0.28013 0.0
O191 O 0.27408 0.83425 0.27576 0.0
H192 H 0.21901 0.75596 0.26692 0.0
H193 H 0.17881 0.71068 0.26378 0.0
H194 H 0.23976 0.67235 0.23391 0.0
H195 H 0.27982 0.71747 0.23715 0.0
H196 H 0.28269 0.94889 0.28772 0.0
H197 H 0.30693 0.94424 0.30798 0.0
H198 H 0.23255 0.86992 0.31769 0.0
H199 H 0.20751 0.87583 0.29727 0.0
Sm200 Sm 0.47854 1.00359 0.5041 0.0
Sm201 Sm 0.44662 0.97853 0.51133 0.0
C202 C 0.5405 1.0254 0.50059 0.0
C203 C 0.57253 1.00802 0.50217 0.0
C204 C 0.57437 0.97967 0.50976 0.0
C205 C 0.60091 0.95706 0.50849 0.0
C206 C 0.6258 0.96253 0.49958 0.0
C207 C 0.62578 0.99298 0.49305 0.0
C208 C 0.59918 1.01549 0.4943 0.0
C209 C 0.43045 0.04186 0.48912 0.0
C210 C 0.44718 0.95719 0.48469 0.0
C211 C 0.40227 0.9881 0.5289 0.0
C212 C 0.40757 0.99116 0.54232 0.0
C213 C 0.41662 1.02229 0.54751 0.0
C214 C 0.42595 1.02476 0.55983 0.0
C215 C 0.42542 0.99639 0.56741 0.0
C216 C 0.41567 0.96537 0.56224 0.0
C217 C 0.40707 0.96277 0.54984 0.0
C218 C 0.47968 0.91633 0.50895 0.0
C219 C 0.48863 1.01023 0.53306 0.0
O220 O 0.52349 1.03149 0.5106 0.0
O221 O 0.52188 1.01329 0.49181 0.0
O222 O 0.42335 1.01772 0.49677 0.0
O223 O 0.46237 0.04668 0.49026 0.0
O224 O 0.47717 0.96739 0.48762 0.0
O225 O 0.42419 0.96132 0.49311 0.0
O226 O 0.41506 1.01257 0.52246 0.0
O227 O 0.40705 0.95854 0.5238 0.0
O228 O 0.49426 0.9459 0.50925 0.0
O229 O 0.44715 0.92055 0.50936 0.0
O230 O 0.48354 0.97996 0.52885 0.0
O231 O 0.48029 1.03107 0.52422 0.0
H232 H 0.55399 0.97358 0.51595 0.0
H233 H 0.60045 0.93399 0.5137 0.0
H234 H 0.64434 0.99787 0.486 0.0
H235 H 0.59803 0.03716 0.48835 0.0
H236 H 0.41745 0.04478 0.54198 0.0
H237 H 0.43351 0.04901 0.56337 0.0
H238 H 0.41356 0.94307 0.56781 0.0
H239 H 0.4001 0.93847 0.54616 0.0
Sm240 Sm 0.31554 0.23016 0.75563 0.0
Sm241 Sm 0.34045 0.19925 0.76169 0.0
C242 C 0.29247 0.29082 0.75034 0.0
C243 C 0.30989 0.32302 0.75098 0.0
C244 C 0.33777 0.32669 0.75875 0.0
C245 C 0.35995 0.35327 0.75709 0.0
C246 C 0.35447 0.37642 0.74764 0.0
C247 C 0.32456 0.37461 0.7408 0.0
C248 C 0.30249 0.34792 0.74241 0.0
C249 C 0.27812 0.17881 0.74129 0.0
C250 C 0.3693 0.20407 0.73651 0.0
C251 C 0.31852 0.15129 0.77605 0.0
C252 C 0.30348 0.14931 0.78843 0.0
C253 C 0.27174 0.16381 0.79073 0.0
C254 C 0.25384 0.15583 0.80128 0.0
C255 C 0.26724 0.1332 0.80969 0.0
C256 C 0.30026 0.12143 0.8081 0.0
C257 C 0.31825 0.12933 0.79747 0.0
C258 C 0.40251 0.23188 0.76166 0.0
C259 C 0.31034 0.23866 0.78482 0.0
O260 O 0.28736 0.27624 0.76083 0.0
O261 O 0.30392 0.27011 0.74206 0.0
O262 O 0.30988 0.18098 0.74357 0.0
O263 O 0.2654 0.20226 0.74824 0.0
O264 O 0.35298 0.23168 0.73926 0.0
O265 O 0.36721 0.18007 0.74461 0.0
O266 O 0.29995 0.16682 0.76798 0.0
O267 O 0.35072 0.15755 0.77493 0.0
O268 O 0.37286 0.2467 0.76152 0.0
O269 O 0.39843 0.1992 0.76179 0.0
O270 O 0.34033 0.23192 0.78059 0.0
O271 O 0.28923 0.23284 0.77583 0.0
H272 H 0.3438 0.30769 0.76548 0.0
H273 H 0.3827 0.35417 0.76251 0.0
H274 H 0.31982 0.39182 0.73332 0.0
H275 H 0.28116 0.34535 0.73633 0.0
H276 H 0.25937 0.17935 0.78399 0.0
H277 H 0.22839 0.16498 0.80232 0.0
H278 H 0.31089 0.10349 0.81446 0.0
H279 H 0.34257 0.11789 0.79593 0.0
Sm280 Sm 0.08576 0.07602 1.00563 0.0
Sm281 Sm 0.12447 0.1027 1.01275 0.0
C282 C 1.02516 0.0496 1.00305 0.0
C283 C 0.99213 0.06465 1.00497 0.0
C284 C 0.98923 0.09446 1.01183 0.0
C285 C 0.96131 0.11515 1.01033 0.0
C286 C 0.93628 0.10638 1.00184 0.0
C287 C 0.93736 0.07435 0.99629 0.0
C288 C 0.96525 0.0537 0.99781 0.0
C289 C 0.13583 0.0392 0.99078 0.0
C290 C 0.11447 0.11824 0.98532 0.0
C291 C 0.18159 0.11083 1.0247 0.0
C292 C 0.21543 0.09655 1.02371 0.0
C293 C 0.2203 0.06286 1.02027 0.0
C294 C 0.25216 0.0484 1.02097 0.0
C295 C 0.2796 0.06756 1.02498 0.0
C296 C 0.27498 0.10193 1.02747 0.0
C297 C 0.24309 0.11626 1.02689 0.0
C298 C 0.08608 0.1628 1.00987 0.0
C299 C 0.08228 0.06963 1.03538 0.0
O300 O 0.04342 0.04544 1.01282 0.0
O301 O 0.04206 0.06265 0.99403 0.0
O302 O 0.13987 0.05132 1.00199 0.0
O303 O 0.10516 0.04645 0.98803 0.0
O304 O 0.08445 0.11338 0.9897 0.0
O305 O 0.13908 0.11056 0.99266 0.0
O306 O 0.15808 0.09019 1.02822 0.0
O307 O 0.17214 0.13048 1.01582 0.0
O308 O 0.07379 0.13307 1.0123 0.0
O309 O 0.11819 0.15946 1.00838 0.0
O310 O 0.09599 0.0984 1.03237 0.0
O311 O 0.08107 0.04991 1.02563 0.0
H312 H 1.00986 0.10326 1.01745 0.0
H313 H 0.96094 0.13942 1.01486 0.0
H314 H 0.91869 0.06675 0.98963 0.0
H315 H 0.96721 1.0308 0.99244 0.0
H316 H 0.19927 0.04731 1.01759 0.0
H317 H 0.25505 1.02189 1.019 0.0
H318 H 0.29555 0.11721 1.03077 0.0
H319 H 0.2398 0.14235 1.02947 0.0
Sm320 Sm 0.84471 0.87331 0.7602 0.0
Sm321 Sm 0.81929 0.84105 0.75408 0.0
C322 C 0.8254 0.92588 0.77289 0.0
C323 C 0.81418 0.94174 0.7844 0.0
C324 C 0.78042 0.93848 0.78808 0.0
C325 C 0.76578 0.96249 0.79573 0.0
C326 C 0.78498 0.98931 0.80003 0.0
C327 C 0.81957 0.99017 0.79773 0.0
C328 C 0.83413 0.96655 0.78986 0.0
C329 C 0.90633 0.83969 0.76028 0.0
C330 C 0.81452 0.83497 0.78356 0.0
C331 C 0.79448 0.78069 0.7493 0.0
C332 C 0.80909 0.74745 0.75098 0.0
C333 C 0.83716 0.74349 0.75862 0.0
C334 C 0.85638 0.71431 0.7579 0.0
C335 C 0.84785 0.68896 0.74946 0.0
C336 C 0.81747 0.69157 0.74293 0.0
C337 C 0.79833 0.72078 0.74364 0.0
C338 C 0.78205 0.89217 0.73969 0.0
C339 C 0.87151 0.86424 0.73439 0.0
O340 O 0.80475 0.90418 0.76788 0.0
O341 O 0.85736 0.91993 0.77075 0.0
O342 O 0.87657 0.82517 0.76028 0.0
O343 O 0.90253 0.87237 0.76028 0.0
O344 O 0.84428 0.8439 0.77967 0.0
O345 O 0.79358 0.83812 0.77435 0.0
O346 O 0.7882 0.79728 0.75936 0.0
O347 O 0.80921 0.79909 0.74105 0.0
O348 O 0.81363 0.89087 0.74233 0.0
O349 O 0.76946 0.86785 0.74611 0.0
O350 O 0.85526 0.837 0.7374 0.0
O351 O 0.86983 0.8889 0.74232 0.0
H352 H 0.76435 0.91946 0.78409 0.0
H353 H 0.73904 0.96162 0.79747 0.0
H354 H 0.83461 1.01095 0.80103 0.0
H355 H 0.86009 0.96966 0.78717 0.0
H356 H 0.84563 0.7639 0.76443 0.0
H357 H 0.87948 0.71287 0.7631 0.0
H358 H 0.81028 0.67271 0.73624 0.0
H359 H 0.77667 0.72352 0.73772 0.0
Sm360 Sm 0.94441 0.09384 0.51306 0.0
Sm361 Sm 0.97877 0.06637 0.50647 0.0
C362 C 0.89002 0.08697 0.52664 0.0
C363 C 0.85553 0.07383 0.52578 0.0
C364 C 0.84949 0.03917 0.52468 0.0
C365 C 0.81704 1.02657 0.52593 0.0
C366 C 0.79003 0.04834 0.52825 0.0
C367 C 0.79578 0.08313 0.52847 0.0
C368 C 0.82827 0.09573 0.5273 0.0
C369 C 0.98014 0.15459 0.51199 0.0
C370 C 0.98534 0.06162 0.53572 0.0
C371 C 0.03983 0.04284 0.50177 0.0
C372 C 0.07223 0.05983 0.50138 0.0
C373 C 0.07308 0.09482 0.50225 0.0
C374 C 0.10267 0.11204 0.50005 0.0
C375 C 0.13216 0.09454 0.49688 0.0
C376 C 0.13194 0.05918 0.49735 0.0
C377 C 0.10199 0.04191 0.49947 0.0
C378 C 0.92791 1.02766 0.49251 0.0
C379 C 0.955 0.11583 0.4865 0.0
O380 O 0.91431 0.06478 0.52625 0.0
O381 O 0.89699 0.11476 0.52078 0.0
O382 O 0.99368 0.12439 0.5124 0.0
O383 O 0.94759 0.15162 0.51205 0.0
O384 O 0.97662 0.09161 0.53195 0.0
O385 O 0.98129 0.04048 0.52655 0.0
O386 O 1.02586 0.04168 0.51258 0.0
O387 O 1.01874 0.05169 0.49323 0.0
O388 O 0.9259 0.0585 0.49637 0.0
O389 O 0.9553 1.0165 0.49745 0.0
O390 O 0.98295 0.1017 0.48991 0.0
O391 O 0.92984 0.11352 0.49415 0.0
H392 H 0.86993 1.02156 0.52343 0.0
H393 H 0.8133 0.99967 0.52569 0.0
H394 H 0.77555 0.10051 0.53045 0.0
H395 H 0.83226 0.1225 0.52822 0.0
H396 H 0.05036 0.10901 0.50382 0.0
H397 H 0.1013 0.13913 0.49968 0.0
H398 H 0.15433 0.04487 0.49523 0.0
H399 H 0.10176 1.01476 0.49902 0.0
Sm400 Sm 0.71806 0.20425 0.2626 0.0
Sm401 Sm 0.74343 0.2364 0.25549 0.0
C402 C 0.71925 0.15779 0.27974 0.0
C403 C 0.72059 0.16134 0.29314 0.0
C404 C 0.74586 0.14424 0.29942 0.0
C405 C 0.75346 0.15268 0.31152 0.0
C406 C 0.73599 0.17861 0.31765 0.0
C407 C 0.70978 0.19495 0.31145 0.0
C408 C 0.70219 0.18645 0.29928 0.0
C409 C 0.65629 0.23815 0.25947 0.0
C410 C 0.75182 0.24402 0.2845 0.0
C411 C 0.76891 0.29759 0.25343 0.0
C412 C 0.75216 0.33007 0.25492 0.0
C413 C 0.72298 0.33245 0.26213 0.0
C414 C 0.70043 0.35875 0.26032 0.0
C415 C 0.70671 0.38272 0.25118 0.0
C416 C 0.73808 0.38252 0.24518 0.0
C417 C 0.76059 0.35624 0.24701 0.0
C418 C 0.77944 0.1881 0.23973 0.0
C419 C 0.69909 0.20549 0.23575 0.0
O420 O 0.74612 0.16908 0.27432 0.0
O421 O 0.69161 0.1664 0.27412 0.0
O422 O 0.68582 0.25241 0.2606 0.0
O423 O 0.66053 0.20566 0.25918 0.0
O424 O 0.7214 0.24136 0.28021 0.0
O425 O 0.77193 0.23463 0.27546 0.0
O426 O 0.77197 0.2796 0.26329 0.0
O427 O 0.75833 0.28003 0.24411 0.0
O428 O 0.76365 0.18171 0.25007 0.0
O429 O 0.77648 0.22014 0.23828 0.0
O430 O 0.70692 0.23586 0.23916 0.0
O431 O 0.70452 0.18226 0.24388 0.0
H432 H 0.76063 0.12509 0.2948 0.0
H433 H 0.77279 0.13833 0.31609 0.0
H434 H 0.6955 0.21467 0.31592 0.0
H435 H 0.68289 0.20044 0.29454 0.0
H436 H 0.71606 0.31245 0.26834 0.0
H437 H 0.67673 0.35851 0.2652 0.0
H438 H 0.74375 0.40041 0.23802 0.0
H439 H 0.78293 0.35469 0.24135 0.0
Sm440 Sm 0.61342 0.97031 1.01066 0.0
Sm441 Sm 0.58129 0.99693 1.0053 0.0
C442 C 0.66801 0.98589 1.02267 0.0
C443 C 0.68689 0.99386 1.03385 0.0
C444 C 0.68737 1.02713 1.03825 0.0
C445 C 0.71364 0.03817 1.04563 0.0
C446 C 0.73929 1.01593 1.04884 0.0
C447 C 0.73652 0.98179 1.04575 0.0
C448 C 0.71055 0.97085 1.03821 0.0
C449 C 0.57952 0.90922 1.0108 0.0
C450 C 0.57617 1.00061 1.03455 0.0
C451 C 0.52114 1.02333 1.00155 0.0
C452 C 0.48813 1.00793 1.00291 0.0
C453 C 0.48421 0.98 1.01061 0.0
C454 C 0.45645 0.95912 1.00928 0.0
C455 C 0.4326 0.96573 1.00013 0.0
C456 C 0.43458 0.99612 0.99359 0.0
C457 C 0.46233 1.01699 0.99493 0.0
C458 C 0.63299 1.03351 0.99088 0.0
C459 C 0.59941 0.94578 0.98471 0.0
O460 O 0.64585 1.00807 1.01901 0.0
O461 O 0.66103 0.95466 1.01969 0.0
O462 O 0.56523 0.93916 1.01117 0.0
O463 O 0.61215 0.91261 1.0104 0.0
O464 O 0.58409 0.97081 1.03029 0.0
O465 O 0.57999 1.02209 1.0256 0.0
O466 O 0.53788 1.02739 1.01169 0.0
O467 O 0.53954 1.01075 0.99276 0.0
O468 O 0.63018 1.00175 0.9929 0.0
O469 O 0.60994 0.04645 0.99793 0.0
O470 O 0.57315 0.96258 0.98845 0.0
O471 O 0.6253 0.94643 0.99204 0.0
H472 H 0.6693 0.04548 1.03511 0.0
H473 H 0.71516 0.06449 1.04809 0.0
H474 H 0.75613 0.96419 1.04816 0.0
H475 H 0.7108 0.94514 1.03493 0.0
H476 H 0.50392 0.97272 1.0169 0.0
H477 H 0.45539 0.93614 1.01454 0.0
H478 H 0.41682 1.00197 0.98639 0.0
H479 H 0.46503 0.03847 0.98895 0.0
Sm480 Sm 0.84144 0.19621 0.89962 0.0
Sm481 Sm 0.81509 0.22678 0.90593 0.0
C482 C 0.83124 0.14673 0.88397 0.0
C483 C 0.8227 0.14558 0.87092 0.0
C484 C 0.79513 0.1261 0.86754 0.0
C485 C 0.78007 0.13061 0.85618 0.0
C486 C 0.79227 0.15475 0.84792 0.0
C487 C 0.82121 0.17294 0.85101 0.0
C488 C 0.83629 0.16849 0.8625 0.0
C489 C 0.90274 0.22988 0.90119 0.0
C490 C 0.80902 0.2351 0.87711 0.0
C491 C 0.79113 0.28809 0.90956 0.0
C492 C 0.80765 0.32061 0.90834 0.0
C493 C 0.83603 0.3237 0.90075 0.0
C494 C 0.85731 0.35118 0.90206 0.0
C495 C 0.8505 0.37576 0.91102 0.0
C496 C 0.82003 0.37432 0.91759 0.0
C497 C 0.79883 0.3468 0.91629 0.0
C498 C 0.77697 0.17724 0.92042 0.0
C499 C 0.86374 0.20172 0.92611 0.0
O500 O 0.80752 0.16034 0.89066 0.0
O501 O 0.86144 0.15628 0.88716 0.0
O502 O 0.87291 0.24412 0.90084 0.0
O503 O 0.89919 0.19727 0.90106 0.0
O504 O 0.83913 0.23236 0.88173 0.0
O505 O 0.78832 0.22527 0.88577 0.0
O506 O 0.78688 0.27136 0.89938 0.0
O507 O 0.80263 0.2694 0.91839 0.0
O508 O 0.80713 0.17417 0.916 0.0
O509 O 0.76619 0.20541 0.91601 0.0
O510 O 0.84884 0.22967 0.92312 0.0
O511 O 0.86284 0.17796 0.91782 0.0
H512 H 0.7842 0.10845 0.87394 0.0
H513 H 0.75888 0.11485 0.85388 0.0
H514 H 0.83169 0.19098 0.84467 0.0
H515 H 0.85751 0.18398 0.86498 0.0
H516 H 0.84314 0.30369 0.89449 0.0
H517 H 0.88044 0.35178 0.89683 0.0
H518 H 0.81416 0.3926 0.92468 0.0
H519 H 0.77707 0.3447 0.92222 0.0
Sm520 Sm 0.61906 0.09736 0.64764 0.0
Sm521 Sm 0.58808 0.07216 0.65417 0.0
C522 C 0.66454 0.07834 0.63156 0.0
C523 C 0.6614 0.06906 0.61841 0.0
C524 C 0.64879 0.03732 0.61504 0.0
C525 C 0.64305 1.02918 0.60276 0.0
C526 C 0.65113 0.05192 0.59341 0.0
C527 C 0.66406 0.0836 0.59679 0.0
C528 C 0.66887 0.09214 0.60914 0.0
C529 C 0.58569 0.15929 0.64851 0.0
C530 C 0.57794 0.06795 0.62505 0.0
C531 C 0.52768 0.04825 0.65929 0.0
C532 C 0.49466 0.0638 0.65824 0.0
C533 C 0.49039 0.09204 0.65073 0.0
C534 C 0.46229 0.11253 0.65221 0.0
C535 C 0.43838 0.10507 0.66128 0.0
C536 C 0.44091 0.07451 0.66768 0.0
C537 C 0.46903 0.0541 0.66621 0.0
C538 C 0.63894 1.03436 0.66837 0.0
C539 C 0.61493 0.12363 0.67348 0.0
O540 O 0.64975 0.05763 0.63915 0.0
O541 O 0.66051 0.11007 0.63465 0.0
O542 O 0.57118 0.12953 0.64864 0.0
O543 O 0.61836 0.15538 0.64805 0.0
O544 O 0.58476 0.09787 0.62931 0.0
O545 O 0.58449 0.04653 0.63385 0.0
O546 O 0.54317 0.04252 0.64895 0.0
O547 O 0.54717 0.06176 0.66752 0.0
O548 O 0.64 0.06532 0.66479 0.0
O549 O 0.61234 1.02256 0.66305 0.0
O550 O 0.58668 0.10889 0.67066 0.0
O551 O 0.63878 0.12116 0.66525 0.0
H552 H 0.64262 1.01875 0.62191 0.0
H553 H 0.63248 1.00484 0.60065 0.0
H554 H 0.67163 0.10161 0.58992 0.0
H555 H 0.6787 0.1167 0.61142 0.0
H556 H 0.50996 0.09972 0.64443 0.0
H557 H 0.46084 0.13572 0.64709 0.0
H558 H 0.42314 0.06808 0.67483 0.0
H559 H 0.47202 1.03235 0.67204 0.0
Sm560 Sm 0.72139 0.86821 0.39957 0.0
Sm561 Sm 0.74835 0.83341 0.40599 0.0
C562 C 0.72782 0.92439 0.38758 0.0
C563 C 0.73165 0.9559 0.38086 0.0
C564 C 0.76362 0.96983 0.37911 0.0
C565 C 0.76694 1.00258 0.37478 0.0
C566 C 0.7383 1.02172 0.37212 0.0
C567 C 0.70643 1.00717 0.37348 0.0
C568 C 0.70315 0.97456 0.37778 0.0
C569 C 0.66059 0.83255 0.40048 0.0
C570 C 0.75392 0.82864 0.37643 0.0
C571 C 0.77028 0.77171 0.41009 0.0
C572 C 0.75178 0.74007 0.40974 0.0
C573 C 0.7169 0.74073 0.41108 0.0
C574 C 0.69891 0.71104 0.41173 0.0
C575 C 0.71541 0.6798 0.41103 0.0
C576 C 0.75012 0.67937 0.40851 0.0
C577 C 0.76824 0.70939 0.40795 0.0
C578 C 0.78695 0.88413 0.42015 0.0
C579 C 0.69955 0.85778 0.42633 0.0
O580 O 0.75277 0.90308 0.38873 0.0
O581 O 0.69903 0.91486 0.39221 0.0
O582 O 0.69069 0.81893 0.39986 0.0
O583 O 0.66367 0.86509 0.40078 0.0
O584 O 0.72418 0.83876 0.38005 0.0
O585 O 0.77456 0.83087 0.38582 0.0
O586 O 0.77321 0.78652 0.39952 0.0
O587 O 0.76166 0.79245 0.41886 0.0
O588 O 0.75609 0.88588 0.41646 0.0
O589 O 0.79826 0.85687 0.41501 0.0
O590 O 0.71355 0.82964 0.4229 0.0
O591 O 0.70174 0.8825 0.41857 0.0
H592 H 0.786 0.95596 0.38155 0.0
H593 H 0.7918 1.01299 0.37363 0.0
H594 H 0.68387 1.02137 0.3716 0.0
H595 H 0.67823 0.96447 0.37913 0.0
H596 H 0.70364 0.76423 0.41226 0.0
H597 H 0.67245 0.71298 0.41382 0.0
H598 H 0.76361 0.65589 0.40766 0.0
H599 H 0.79512 0.70859 0.40654 0.0
Sm600 Sm 0.945 0.9778 0.14873 0.0
Sm601 Sm 0.97554 1.00353 0.15511 0.0
C602 C 0.89657 0.99158 0.1332 0.0
C603 C 0.89699 0.9996 0.12011 0.0
C604 C 0.87928 1.02786 0.11625 0.0
C605 C 0.88468 0.04094 0.1046 0.0
C606 C 0.90834 1.02628 0.09653 0.0
C607 C 0.92548 0.99731 0.10037 0.0
C608 C 0.91965 0.98393 0.11202 0.0
C609 C 0.97796 0.91587 0.14946 0.0
C610 C 0.98582 1.00975 0.1264 0.0
C611 C 0.03627 1.02733 0.16004 0.0
C612 C 0.06879 1.01048 0.16031 0.0
C613 C 0.06983 0.97543 0.16049 0.0
C614 C 0.10006 0.95881 0.1621 0.0
C615 C 0.13001 0.97697 0.16364 0.0
C616 C 0.12923 1.01209 0.16219 0.0
C617 C 0.09867 1.02879 0.16061 0.0
C618 C 0.92418 0.04147 0.16919 0.0
C619 C 0.94937 0.95244 0.17466 0.0
O620 O 0.91141 1.01439 0.13995 0.0
O621 O 0.90378 0.96077 0.13645 0.0
O622 O 0.99249 0.94558 0.14952 0.0
O623 O 0.9454 0.91988 0.1492 0.0
O624 O 0.98169 0.97959 0.13084 0.0
O625 O 0.97637 1.03067 0.13509 0.0
O626 O 1.02255 1.02882 0.14924 0.0
O627 O 1.01505 1.01815 0.16848 0.0
O628 O 0.92451 1.01 0.16616 0.0
O629 O 0.9495 0.05376 0.16317 0.0
O630 O 0.97672 0.96923 0.17223 0.0
O631 O 0.92634 0.95301 0.16616 0.0
H632 H 0.86189 0.04046 0.12241 0.0
H633 H 0.86957 0.06223 0.10192 0.0
H634 H 0.94355 0.98499 0.09444 0.0
H635 H 0.93386 0.96216 0.11487 0.0
H636 H 0.047 0.9609 0.16013 0.0
H637 H 0.09916 0.93189 0.16329 0.0
H638 H 0.15188 1.02682 0.1631 0.0
H639 H 0.09823 0.05592 0.16018 0.0
Sm640 Sm 0.74657 0.7359 0.90444 0.0
Sm641 Sm 0.72188 0.70471 0.89771 0.0
C642 C 0.76831 0.79708 0.90977 0.0
C643 C 0.7508 0.82921 0.90874 0.0
C644 C 0.72391 0.83241 0.9005 0.0
C645 C 0.70103 0.85864 0.90186 0.0
C646 C 0.7047 0.88181 0.91152 0.0
C647 C 0.73392 0.88071 0.91878 0.0
C648 C 0.75673 0.85441 0.91743 0.0
C649 C 0.78448 0.68533 0.91865 0.0
C650 C 0.69374 0.70745 0.92321 0.0
C651 C 0.74194 0.6564 0.88292 0.0
C652 C 0.75598 0.65247 0.87046 0.0
C653 C 0.78729 0.66683 0.86753 0.0
C654 C 0.80559 0.65527 0.85746 0.0
C655 C 0.79267 0.62959 0.8501 0.0
C656 C 0.75974 0.61826 0.85207 0.0
C657 C 0.74154 0.62949 0.86227 0.0
C658 C 0.65975 0.73759 0.89843 0.0
C659 C 0.7529 0.74451 0.87519 0.0
O660 O 0.7748 0.78186 0.89943 0.0
O661 O 0.75599 0.77685 0.91797 0.0
O662 O 0.75336 0.68463 0.91523 0.0
O663 O 0.79644 0.71157 0.91316 0.0
O664 O 0.70972 0.73544 0.92097 0.0
O665 O 0.6958 0.6844 0.91466 0.0
O666 O 0.76151 0.67198 0.89072 0.0
O667 O 0.70997 0.66351 0.88431 0.0
O668 O 0.68934 0.75233 0.89865 0.0
O669 O 0.66389 0.70495 0.89791 0.0
O670 O 0.7227 0.73786 0.87915 0.0
O671 O 0.77357 0.73843 0.88431 0.0
H672 H 0.71902 0.81319 0.89366 0.0
H673 H 0.67891 0.85904 0.89609 0.0
H674 H 0.73737 0.89797 0.92639 0.0
H675 H 0.77733 0.85224 0.92386 0.0
H676 H 0.79926 0.68471 0.8736 0.0
H677 H 0.83099 0.66412 0.85611 0.0
H678 H 0.74953 0.59807 0.84652 0.0
H679 H 0.71755 0.61809 0.86433 0.0
Sm680 Sm 0.58312 0.49573 0.15557 0.0
Sm681 Sm 0.6138 0.46899 0.14968 0.0
C682 C 0.52283 0.52212 0.15919 0.0
C683 C 0.48966 0.50735 0.15754 0.0
C684 C 0.48575 0.47921 0.14985 0.0
C685 C 0.45742 0.45902 0.15095 0.0
C686 C 0.43297 0.4666 0.15985 0.0
C687 C 0.4351 0.49722 0.16635 0.0
C688 C 0.46343 0.51737 0.16525 0.0
C689 C 0.63407 0.53296 0.1701 0.0
C690 C 0.60448 0.44588 0.17597 0.0
C691 C 0.6666 0.48196 0.13617 0.0
C692 C 0.67998 0.49011 0.12398 0.0
C693 C 0.67428 0.52215 0.11898 0.0
C694 C 0.69697 0.53555 0.11061 0.0
C695 C 0.72481 0.51664 0.10691 0.0
C696 C 0.7275 0.4829 0.11042 0.0
C697 C 0.70529 0.46976 0.11903 0.0
C698 C 0.57938 0.40795 0.15034 0.0
C699 C 0.57655 0.5001 0.12635 0.0
O700 O 0.54009 0.5264 0.14916 0.0
O701 O 0.54061 0.5089 0.16795 0.0
O702 O 0.63406 0.50159 0.16688 0.0
O703 O 0.60838 0.54524 0.16435 0.0
O704 O 0.5776 0.46238 0.17276 0.0
O705 O 0.62895 0.44596 0.16798 0.0
O706 O 0.64795 0.50506 0.14143 0.0
O707 O 0.65803 0.45103 0.13881 0.0
O708 O 0.56545 0.43803 0.15006 0.0
O709 O 0.61204 0.41118 0.15042 0.0
O710 O 0.5819 0.47 0.13067 0.0
O711 O 0.58318 0.52133 0.13527 0.0
H712 H 0.5058 0.47125 0.14376 0.0
H713 H 0.45626 0.43583 0.14573 0.0
H714 H 0.41689 0.50381 0.17336 0.0
H715 H 0.46613 0.53906 0.17121 0.0
H716 H 0.65452 0.53827 0.12248 0.0
H717 H 0.69442 0.56151 0.10786 0.0
H718 H 0.74892 0.46792 0.10763 0.0
H719 H 0.71011 0.44504 0.12272 0.0
Sm720 Sm 0.81786 0.34231 0.40553 0.0
Sm721 Sm 0.84376 0.37263 0.39983 0.0
C722 C 0.79334 0.28174 0.40991 0.0
C723 C 0.81063 0.24936 0.40951 0.0
C724 C 0.83929 0.24542 0.40209 0.0
C725 C 0.8612 0.21873 0.40405 0.0
C726 C 0.85472 0.19574 0.41348 0.0
C727 C 0.82415 0.19782 0.41996 0.0
C728 C 0.80232 0.22462 0.41802 0.0
C729 C 0.78113 0.39375 0.42014 0.0
C730 C 0.86938 0.36381 0.4256 0.0
C731 C 0.82922 0.42259 0.38509 0.0
C732 C 0.82027 0.42361 0.37208 0.0
C733 C 0.79161 0.44161 0.36882 0.0
C734 C 0.77689 0.43664 0.3574 0.0
C735 C 0.79033 0.4132 0.34896 0.0
C736 C 0.82004 0.39623 0.35207 0.0
C737 C 0.83499 0.40152 0.36353 0.0
C738 C 0.90541 0.33959 0.40001 0.0
C739 C 0.81226 0.33334 0.3768 0.0
O740 O 0.79025 0.29681 0.39941 0.0
O741 O 0.80336 0.30198 0.41857 0.0
O742 O 0.81278 0.39167 0.41767 0.0
O743 O 0.76816 0.3703 0.4133 0.0
O744 O 0.85322 0.33678 0.42226 0.0
O745 O 0.86797 0.38868 0.41786 0.0
O746 O 0.80679 0.407 0.39173 0.0
O747 O 0.86021 0.41502 0.38801 0.0
O748 O 0.87568 0.3251 0.39984 0.0
O749 O 0.90157 0.37221 0.40021 0.0
O750 O 0.84226 0.33699 0.38151 0.0
O751 O 0.79117 0.34261 0.38542 0.0
H752 H 0.84609 0.26429 0.39541 0.0
H753 H 0.88447 0.2176 0.39891 0.0
H754 H 0.81862 0.18073 0.4274 0.0
H755 H 0.7804 0.22741 0.42385 0.0
H756 H 0.77977 0.45859 0.37533 0.0
H757 H 0.75511 0.45165 0.35519 0.0
H758 H 0.83146 0.37849 0.34576 0.0
H759 H 0.85709 0.38715 0.36591 0.0
Sm760 Sm 0.97563 0.56706 0.65572 0.0
Sm761 Sm 0.9436 0.59241 0.64849 0.0
C762 C 0.0375 0.54473 0.65913 0.0
C763 C 0.06965 0.562 0.65788 0.0
C764 C 0.07202 0.59072 0.6505 0.0
C765 C 0.09845 0.61316 0.65214 0.0
C766 C 0.12265 0.6072 0.66124 0.0
C767 C 0.12222 0.57637 0.66753 0.0
C768 C 0.09576 0.55401 0.66589 0.0
C769 C 0.92736 0.52917 0.67085 0.0
C770 C 0.94514 0.61359 0.67523 0.0
C771 C 0.89771 0.58296 0.6314 0.0
C772 C 0.8999 0.5782 0.61791 0.0
C773 C 0.91461 0.54898 0.61292 0.0
C774 C 0.91849 0.54505 0.60027 0.0
C775 C 0.90639 0.56951 0.59217 0.0
C776 C 0.89099 0.59847 0.59717 0.0
C777 C 0.88806 0.60287 0.60989 0.0
C778 C 0.97664 0.65457 0.65101 0.0
C779 C 0.98562 0.55989 0.62673 0.0
O780 O 1.02085 0.53969 0.649 0.0
O781 O 1.01859 0.55613 0.668 0.0
O782 O 0.92041 0.55353 0.66324 0.0
O783 O 0.9592 0.52395 0.66954 0.0
O784 O 0.97505 0.60338 0.67213 0.0
O785 O 0.92192 0.60953 0.66692 0.0
O786 O 0.91073 0.55873 0.6379 0.0
O787 O 0.90433 0.61283 0.6359 0.0
O788 O 0.99123 0.62491 0.65064 0.0
O789 O 0.94412 0.65041 0.65056 0.0
O790 O 0.98038 0.59026 0.63084 0.0
O791 O 0.97727 0.53928 0.63565 0.0
H792 H 0.05206 0.59723 0.64421 0.0
H793 H 0.09835 0.63649 0.64708 0.0
H794 H 0.14024 0.57105 0.67469 0.0
H795 H 0.09421 0.53202 0.67168 0.0
H796 H 0.92367 0.52906 0.61878 0.0
H797 H 0.93091 0.52267 0.59689 0.0
H798 H 0.88032 0.61748 0.59128 0.0
H799 H 0.87624 0.62541 0.61346 0.0
Sm800 Sm 0.74487 0.3351 0.75622 0.0
Sm801 Sm 0.71975 0.36538 0.76252 0.0
C802 C 0.76969 0.27475 0.75125 0.0
C803 C 0.75435 0.24168 0.75234 0.0
C804 C 0.72619 0.23738 0.75995 0.0
C805 C 0.70579 0.2093 0.7585 0.0
C806 C 0.7132 0.18547 0.74933 0.0
C807 C 0.74376 0.18795 0.74285 0.0
C808 C 0.7641 0.21604 0.74431 0.0
C809 C 0.78194 0.38607 0.74173 0.0
C810 C 0.69195 0.36032 0.73708 0.0
C811 C 0.7403 0.41361 0.77721 0.0
C812 C 0.75459 0.41678 0.78965 0.0
C813 C 0.78598 0.40217 0.79234 0.0
C814 C 0.80392 0.41213 0.80266 0.0
C815 C 0.79084 0.43681 0.81047 0.0
C816 C 0.75797 0.44859 0.80863 0.0
C817 C 0.73998 0.43874 0.79821 0.0
C818 C 0.65776 0.33267 0.76209 0.0
C819 C 0.74962 0.32596 0.78538 0.0
O820 O 0.77481 0.2905 0.76156 0.0
O821 O 0.7564 0.294 0.74295 0.0
O822 O 0.75048 0.38532 0.74474 0.0
O823 O 0.79457 0.3613 0.74792 0.0
O824 O 0.70836 0.3328 0.73969 0.0
O825 O 0.69362 0.38418 0.74534 0.0
O826 O 0.75961 0.39803 0.76928 0.0
O827 O 0.70826 0.40685 0.77591 0.0
O828 O 0.68745 0.31791 0.76183 0.0
O829 O 0.66179 0.36534 0.76252 0.0
O830 O 0.71962 0.33193 0.7811 0.0
O831 O 0.77078 0.33279 0.77649 0.0
H832 H 0.71847 0.25695 0.7663 0.0
H833 H 0.68262 0.20788 0.76369 0.0
H834 H 0.75018 0.17023 0.73564 0.0
H835 H 0.7858 0.21904 0.7384 0.0
H836 H 0.79823 0.38521 0.78597 0.0
H837 H 0.82926 0.40292 0.80391 0.0
H838 H 0.74757 0.46802 0.81451 0.0
H839 H 0.71594 0.45033 0.79636 0.0
Sm840 Sm 0.97786 0.504 1.00399 0.0
Sm841 Sm 0.94732 0.47815 1.01023 0.0
C842 C 0.0389 0.52771 0.99993 0.0
C843 C 0.07139 0.5112 1.00141 0.0
C844 C 0.07445 0.48387 1.00945 0.0
C845 C 0.10172 0.4621 1.00843 0.0
C846 C 0.12609 0.46735 0.99932 0.0
C847 C 0.12481 0.49697 0.9923 0.0
C848 C 0.0975 0.51866 0.99331 0.0
C849 C 0.92763 0.54163 0.98953 0.0
C850 C 0.9531 0.45294 0.98418 0.0
C851 C 0.8978 0.49218 1.02542 0.0
C852 C 0.89604 0.50188 1.03837 0.0
C853 C 0.87602 0.52943 1.04146 0.0
C854 C 0.87857 0.54425 1.05299 0.0
C855 C 0.90152 0.53203 1.06174 0.0
C856 C 0.92124 0.5039 1.05867 0.0
C857 C 0.91834 0.48878 1.04709 0.0
C858 C 0.9812 0.41662 1.00941 0.0
C859 C 0.98643 0.51014 1.03287 0.0
O860 O 1.02227 0.53331 1.01004 0.0
O861 O 1.02012 0.51512 0.99129 0.0
O862 O 0.92634 0.5107 0.99317 0.0
O863 O 0.95428 0.55342 0.99482 0.0
O864 O 0.98057 0.46906 0.98697 0.0
O865 O 0.92936 0.45402 0.99245 0.0
O866 O 0.91284 0.51468 1.01867 0.0
O867 O 0.90616 0.46123 1.02261 0.0
O868 O 0.99533 0.44652 1.00954 0.0
O869 O 0.94855 0.4202 1.00948 0.0
O870 O 0.98272 0.47995 1.02834 0.0
O871 O 0.97744 0.53095 1.02418 0.0
H872 H 0.05452 0.47783 1.01584 0.0
H873 H 0.1022 0.43967 1.014 0.0
H874 H 0.14295 0.50164 0.98509 0.0
H875 H 0.09544 0.53961 0.98705 0.0
H876 H 0.85893 0.54009 1.03479 0.0
H877 H 0.86172 0.56482 1.05508 0.0
H878 H 0.93883 0.49354 1.0652 0.0
H879 H 0.93425 0.4676 1.04483 0.0
Sm880 Sm 0.81658 0.72797 0.25552 0.0
Sm881 Sm 0.84304 0.696 0.26085 0.0
C882 C 0.79043 0.78836 0.25177 0.0
C883 C 0.80635 0.82128 0.25163 0.0
C884 C 0.84135 0.82313 0.25161 0.0
C885 C 0.85723 0.85366 0.24986 0.0
C886 C 0.83833 0.8831 0.24807 0.0
C887 C 0.80321 0.88159 0.2495 0.0
C888 C 0.78727 0.8507 0.25115 0.0
C889 C 0.77948 0.67655 0.24098 0.0
C890 C 0.86751 0.70944 0.23494 0.0
C891 C 0.82752 0.64186 0.27311 0.0
C892 C 0.81856 0.62573 0.28475 0.0
C893 C 0.78566 0.629 0.28936 0.0
C894 C 0.77267 0.60484 0.29721 0.0
C895 C 0.79273 0.57788 0.30079 0.0
C896 C 0.82678 0.57706 0.29755 0.0
C897 C 0.83961 0.60077 0.28945 0.0
C898 C 0.9045 0.72936 0.26079 0.0
C899 C 0.8124 0.73321 0.28472 0.0
O900 O 0.79052 0.7737 0.2624 0.0
O901 O 0.79933 0.76811 0.2429 0.0
O902 O 0.8113 0.67897 0.24308 0.0
O903 O 0.76679 0.6998 0.24803 0.0
O904 O 0.8513 0.73599 0.23878 0.0
O905 O 0.86645 0.6835 0.24222 0.0
O906 O 0.80538 0.66276 0.26859 0.0
O907 O 0.85887 0.64936 0.27059 0.0
O908 O 0.87466 0.7438 0.26122 0.0
O909 O 0.90084 0.69673 0.26039 0.0
O910 O 0.8423 0.72628 0.28036 0.0
O911 O 0.79093 0.72837 0.27578 0.0
H912 H 0.85644 0.80063 0.25217 0.0
H913 H 0.88419 0.85329 0.24874 0.0
H914 H 0.7879 0.90384 0.24847 0.0
H915 H 0.76015 0.84964 0.25148 0.0
H916 H 0.76885 0.64822 0.28599 0.0
H917 H 0.74639 0.60582 0.29974 0.0
H918 H 0.84255 0.55624 0.30029 0.0
H919 H 0.86495 0.59768 0.28602 0.0
Sm920 Sm 0.58546 0.57585 0.50515 0.0
Sm921 Sm 0.6238 0.60315 0.51244 0.0
C922 C 0.52536 0.54819 0.5026 0.0
C923 C 0.49183 0.56163 0.50486 0.0
C924 C 0.48799 0.59103 0.51189 0.0
C925 C 0.4596 0.61106 0.51038 0.0
C926 C 0.43522 0.60213 0.50165 0.0
C927 C 0.43697 0.57009 0.49612 0.0
C928 C 0.46526 0.55005 0.49767 0.0
C929 C 0.63583 0.53953 0.49046 0.0
C930 C 0.61586 0.61767 0.48486 0.0
C931 C 0.68036 0.61316 0.52455 0.0
C932 C 0.71517 0.60178 0.52324 0.0
C933 C 0.72271 0.5693 0.51896 0.0
C934 C 0.75572 0.55756 0.51918 0.0
C935 C 0.78159 0.57829 0.52354 0.0
C936 C 0.77415 0.61163 0.52689 0.0
C937 C 0.74116 0.62321 0.52678 0.0
C938 C 0.5844 0.66247 0.50924 0.0
C939 C 0.58244 0.56883 0.53484 0.0
O940 O 0.54414 0.54366 0.51221 0.0
O941 O 0.54137 0.56291 0.49371 0.0
O942 O 0.63995 0.55204 0.50161 0.0
O943 O 0.60503 0.54611 0.48771 0.0
O944 O 0.58549 0.61135 0.48864 0.0
O945 O 0.63988 0.61146 0.49262 0.0
O946 O 0.65845 0.59031 0.52758 0.0
O947 O 0.66946 0.63348 0.51611 0.0
O948 O 0.57259 0.63264 0.51184 0.0
O949 O 0.6165 0.6595 0.50768 0.0
O950 O 0.59555 0.59794 0.53198 0.0
O951 O 0.58147 0.54933 0.52504 0.0
H952 H 0.50834 0.60023 0.51756 0.0
H953 H 0.45862 0.63523 0.51497 0.0
H954 H 0.41875 0.5622 0.48933 0.0
H955 H 0.46791 0.52738 0.49221 0.0
H956 H 0.70296 0.55255 0.51597 0.0
H957 H 0.76079 0.5318 0.51655 0.0
H958 H 0.79345 0.62803 0.53049 0.0
H959 H 0.73577 0.64844 0.52999 0.0
Sm960 Sm 0.33891 0.37256 0.26051 0.0
Sm961 Sm 0.31391 0.34212 0.2542 0.0
C962 C 0.31846 0.42072 0.27531 0.0
C963 C 0.30359 0.4236 0.2877 0.0
C964 C 0.2718 0.40953 0.29011 0.0
C965 C 0.25348 0.41935 0.30039 0.0
C966 C 0.26661 0.44327 0.30845 0.0
C967 C 0.29977 0.45446 0.30687 0.0
C968 C 0.31813 0.44479 0.29649 0.0
C969 C 0.40104 0.33989 0.25984 0.0
C970 C 0.30901 0.3334 0.28335 0.0
C971 C 0.28982 0.28141 0.24959 0.0
C972 C 0.30531 0.24846 0.25102 0.0
C973 C 0.3335 0.24481 0.25862 0.0
C974 C 0.35371 0.21637 0.25758 0.0
C975 C 0.34599 0.19144 0.24888 0.0
C976 C 0.31554 0.19357 0.24236 0.0
C977 C 0.29543 0.22205 0.24339 0.0
C978 C 0.27617 0.39239 0.23968 0.0
C979 C 0.36594 0.36782 0.23486 0.0
O980 O 0.29932 0.40576 0.26722 0.0
O981 O 0.35045 0.41345 0.27411 0.0
O982 O 0.37143 0.32512 0.25965 0.0
O983 O 0.39689 0.37257 0.26026 0.0
O984 O 0.33902 0.33896 0.279 0.0
O985 O 0.28788 0.34046 0.27449 0.0
O986 O 0.28408 0.29773 0.25976 0.0
O987 O 0.30339 0.30022 0.2412 0.0
O988 O 0.30734 0.393 0.24307 0.0
O989 O 0.2642 0.36642 0.24533 0.0
O990 O 0.35005 0.34011 0.23754 0.0
O991 O 0.3643 0.39159 0.24316 0.0
H992 H 0.25958 0.39315 0.28356 0.0
H993 H 0.22791 0.41065 0.30144 0.0
H994 H 0.31016 0.47334 0.31296 0.0
H995 H 0.34246 0.45596 0.29485 0.0
H996 H 0.34131 0.265 0.26466 0.0
H997 H 0.37685 0.21527 0.26276 0.0
H998 H 0.30897 0.17502 0.23547 0.0
H999 H 0.27372 0.22457 0.23749 0.0
Sm1000 Sm 0.44521 0.59295 1.01257 0.0
Sm1001 Sm 0.47541 0.56669 1.00607 0.0
C1002 C 0.3978 0.58469 1.02908 0.0
C1003 C 0.40055 0.57993 1.04238 0.0
C1004 C 0.38508 0.55194 1.04754 0.0
C1005 C 0.39349 0.54166 1.05934 0.0
C1006 C 0.41786 0.55904 1.06626 0.0
C1007 C 0.43239 0.58796 1.06117 0.0
C1008 C 0.42378 0.59835 1.04935 0.0
C1009 C 0.47851 0.65452 1.01082 0.0
C1010 C 0.48509 0.5601 1.03474 0.0
C1011 C 0.5365 0.54258 1.00213 0.0
C1012 C 0.5691 0.55924 1.00245 0.0
C1013 C 0.57331 0.58858 1.00949 0.0
C1014 C 0.60033 0.6098 1.00721 0.0
C1015 C 0.62323 0.60202 0.99779 0.0
C1016 C 0.62092 0.57068 0.99179 0.0
C1017 C 0.59391 0.5495 0.99408 0.0
C1018 C 0.42562 0.52869 0.99158 0.0
C1019 C 0.4496 0.61479 0.98606 0.0
O1020 O 0.41078 0.55986 1.02275 0.0
O1021 O 0.40535 0.61426 1.02466 0.0
O1022 O 0.49288 0.62473 1.01101 0.0
O1023 O 0.44599 0.65075 1.01117 0.0
O1024 O 0.48294 0.59019 1.03007 0.0
O1025 O 0.47429 0.53956 1.02615 0.0
O1026 O 0.52102 0.54013 1.01263 0.0
O1027 O 0.51676 0.55249 0.99334 0.0
O1028 O 0.4221 0.55839 0.99641 0.0
O1029 O 0.4543 0.51818 0.99562 0.0
O1030 O 0.47802 0.60091 0.98907 0.0
O1031 O 0.42593 0.61302 0.99432 0.0
H1032 H 0.36733 0.53722 1.04226 0.0
H1033 H 0.38027 0.52028 1.06303 0.0
H1034 H 0.45089 0.6023 1.0662 0.0
H1035 H 0.4365 0.61982 1.04547 0.0
H1036 H 0.55439 0.59642 1.01607 0.0
H1037 H 0.60168 0.63357 1.01205 0.0
H1038 H 0.6379 0.56398 0.98439 0.0
H1039 H 0.59093 0.52698 0.98857 0.0
Sm1040 Sm 0.22303 0.70426 0.76055 0.0
Sm1041 Sm 0.24862 0.73748 0.75429 0.0
C1042 C 0.24066 0.65078 0.77274 0.0
C1043 C 0.24879 0.63164 0.78381 0.0
C1044 C 0.28268 0.62706 0.78694 0.0
C1045 C 0.29216 0.60062 0.79448 0.0
C1046 C 0.26782 0.57872 0.79905 0.0
C1047 C 0.23369 0.58568 0.79711 0.0
C1048 C 0.22421 0.6119 0.78946 0.0
C1049 C 0.16148 0.73828 0.76066 0.0
C1050 C 0.25291 0.74346 0.784 0.0
C1051 C 0.27156 0.79814 0.74905 0.0
C1052 C 0.25431 0.8304 0.75032 0.0
C1053 C 0.22791 0.8337 0.75882 0.0
C1054 C 0.20476 0.8597 0.75767 0.0
C1055 C 0.20764 0.88251 0.74795 0.0
C1056 C 0.23636 0.88142 0.7404 0.0
C1057 C 0.25949 0.85534 0.74154 0.0
C1058 C 0.28627 0.6856 0.74014 0.0
C1059 C 0.19634 0.71296 0.73475 0.0
O1060 O 0.26206 0.67386 0.76923 0.0
O1061 O 0.20928 0.65649 0.76966 0.0
O1062 O 0.19126 0.75272 0.7606 0.0
O1063 O 0.16522 0.70565 0.76075 0.0
O1064 O 0.22355 0.73268 0.78031 0.0
O1065 O 0.27369 0.74203 0.77461 0.0
O1066 O 0.27815 0.78277 0.75928 0.0
O1067 O 0.25876 0.7781 0.74084 0.0
O1068 O 0.25464 0.68712 0.74269 0.0
O1069 O 0.29874 0.71019 0.74655 0.0
O1070 O 0.21225 0.74047 0.73774 0.0
O1071 O 0.19843 0.68842 0.74261 0.0
H1072 H 0.30219 0.64196 0.78271 0.0
H1073 H 0.31857 0.5959 0.79603 0.0
H1074 H 0.21445 0.56902 0.80056 0.0
H1075 H 0.19795 0.61484 0.78718 0.0
H1076 H 0.22349 0.81462 0.76569 0.0
H1077 H 0.18296 0.86009 0.76363 0.0
H1078 H 0.23911 0.89844 0.73273 0.0
H1079 H 0.27964 0.85303 0.73488 0.0
Sm1080 Sm 0.1182 0.47048 0.51221 0.0
Sm1081 Sm 0.08729 0.49564 0.5057 0.0
C1082 C 0.16358 0.49005 0.52813 0.0
C1083 C 0.16036 0.49996 0.54122 0.0
C1084 C 0.14779 0.53193 0.54438 0.0
C1085 C 0.14214 0.54076 0.55662 0.0
C1086 C 0.15025 0.51847 0.5661 0.0
C1087 C 0.16297 0.4865 0.56292 0.0
C1088 C 0.16773 0.47729 0.55062 0.0
C1089 C 0.08488 0.40862 0.51157 0.0
C1090 C 0.07695 0.5002 0.53485 0.0
C1091 C 1.02673 0.51924 0.50062 0.0
C1092 C 0.99392 0.50352 0.50207 0.0
C1093 C 0.99028 0.47595 0.50996 0.0
C1094 C 0.96237 0.45512 0.50894 0.0
C1095 C 0.93795 0.46158 0.49998 0.0
C1096 C 0.93989 0.49152 0.49317 0.0
C1097 C 0.96785 0.51224 0.49417 0.0
C1098 C 0.13826 0.53325 0.49142 0.0
C1099 C 0.11447 0.4438 0.48644 0.0
O1100 O 0.1488 0.51047 0.52044 0.0
O1101 O 0.1596 0.45821 0.52524 0.0
O1102 O 0.07038 0.43843 0.51141 0.0
O1103 O 0.11756 0.41243 0.51194 0.0
O1104 O 0.0839 0.47023 0.53062 0.0
O1105 O 0.08348 0.52149 0.526 0.0
O1106 O 0.04252 0.52594 0.51079 0.0
O1107 O 0.04608 0.50516 0.49243 0.0
O1108 O 0.13909 0.50222 0.49494 0.0
O1109 O 0.11178 0.54521 0.49685 0.0
O1110 O 0.08627 0.45887 0.48921 0.0
O1111 O 0.13815 0.4461 0.4947 0.0
H1112 H 0.14167 0.55019 0.5374 0.0
H1113 H 0.13175 0.5653 0.55859 0.0
H1114 H 0.17053 0.46882 0.5699 0.0
H1115 H 0.17748 0.45256 0.54849 0.0
H1116 H 1.01019 0.46903 0.51621 0.0
H1117 H 0.96141 0.43242 0.51436 0.0
H1118 H 0.92171 0.49715 0.48609 0.0
H1119 H 0.97034 0.53345 0.48804 0.0
Sm1120 Sm 0.34448 0.69621 0.39923 0.0
Sm1121 Sm 0.3195 0.72671 0.40575 0.0
C1122 C 0.32321 0.64868 0.38437 0.0
C1123 C 0.3078 0.6467 0.37208 0.0
C1124 C 0.27616 0.66151 0.36999 0.0
C1125 C 0.25747 0.65298 0.35969 0.0
C1126 C 0.26995 0.6294 0.35132 0.0
C1127 C 0.30294 0.61738 0.35262 0.0
C1128 C 0.32174 0.62588 0.363 0.0
C1129 C 0.40644 0.72906 0.39982 0.0
C1130 C 0.31448 0.73584 0.37648 0.0
C1131 C 0.2952 0.78719 0.41084 0.0
C1132 C 0.30991 0.8204 0.40932 0.0
C1133 C 0.33804 0.82451 0.40169 0.0
C1134 C 0.35723 0.85361 0.40251 0.0
C1135 C 0.34855 0.87876 0.41103 0.0
C1136 C 0.31817 0.87601 0.41759 0.0
C1137 C 0.29908 0.84686 0.41679 0.0
C1138 C 0.282 0.67611 0.42018 0.0
C1139 C 0.37199 0.69965 0.42476 0.0
O1140 O 0.3045 0.66346 0.39269 0.0
O1141 O 0.35531 0.65558 0.3854 0.0
O1142 O 0.37675 0.74379 0.40011 0.0
O1143 O 0.40247 0.69638 0.39931 0.0
O1144 O 0.34453 0.72944 0.38062 0.0
O1145 O 0.29348 0.72944 0.38548 0.0
O1146 O 0.28884 0.77105 0.4007 0.0
O1147 O 0.30983 0.76836 0.41897 0.0
O1148 O 0.31319 0.6757 0.41677 0.0
O1149 O 0.26984 0.70202 0.41455 0.0
O1150 O 0.35597 0.72751 0.42229 0.0
O1151 O 0.37033 0.67625 0.41631 0.0
H1152 H 0.26432 0.67755 0.37678 0.0
H1153 H 0.23205 0.66235 0.35886 0.0
H1154 H 0.31286 0.59875 0.34629 0.0
H1155 H 0.34595 0.61415 0.36438 0.0
H1156 H 0.34653 0.80427 0.39576 0.0
H1157 H 0.38035 0.85517 0.3973 0.0
H1158 H 0.31089 0.89472 0.42435 0.0
H1159 H 0.27737 0.844 0.4227 0.0
Sm1160 Sm 0.11284 0.59916 0.14866 0.0
Sm1161 Sm 0.08044 0.57259 0.15444 0.0
C1162 C 0.16624 0.58604 0.13565 0.0
C1163 C 0.19601 0.57749 0.1284 0.0
C1164 C 0.20464 0.54369 0.12642 0.0
C1165 C 0.2354 0.53536 0.12112 0.0
C1166 C 0.25769 0.56075 0.11765 0.0
C1167 C 0.24819 0.59453 0.11905 0.0
C1168 C 0.21758 0.60284 0.1244 0.0
C1169 C 0.07861 0.66042 0.14896 0.0
C1170 C 0.07436 0.56908 0.12509 0.0
C1171 C 1.01984 0.5481 0.15868 0.0
C1172 C 0.98742 0.56505 0.15759 0.0
C1173 C 0.98427 0.5928 0.14976 0.0
C1174 C 0.95764 0.61515 0.15123 0.0
C1175 C 0.934 0.6101 0.16061 0.0
C1176 C 0.93516 0.58012 0.16742 0.0
C1177 C 0.96186 0.55782 0.16595 0.0
C1178 C 0.13203 0.53519 0.16865 0.0
C1179 C 0.10054 0.62323 0.17484 0.0
O1180 O 0.1436 0.56319 0.13813 0.0
O1181 O 0.16034 0.61632 0.13998 0.0
O1182 O 0.06443 0.6305 0.14874 0.0
O1183 O 0.11121 0.6569 0.14903 0.0
O1184 O 0.08256 0.59884 0.1293 0.0
O1185 O 0.07809 0.54758 0.13407 0.0
O1186 O 0.03599 0.54332 0.14841 0.0
O1187 O 0.03909 0.55983 0.16734 0.0
O1188 O 0.13089 0.56679 0.16603 0.0
O1189 O 0.10733 0.52273 0.16235 0.0
O1190 O 0.07371 0.60732 0.17125 0.0
O1191 O 0.12614 0.6219 0.16734 0.0
H1192 H 0.18826 0.52367 0.1294 0.0
H1193 H 0.24201 0.50917 0.11994 0.0
H1194 H 0.26505 0.61459 0.11648 0.0
H1195 H 0.21137 0.62905 0.1258 0.0
H1196 H 1.00382 0.59876 0.14319 0.0
H1197 H 0.95723 0.63788 0.14582 0.0
H1198 H 0.91756 0.57559 0.17482 0.0
H1199 H 0.96401 0.53659 0.17208 0.0
Sm1200 Sm 0.21777 0.3663 0.89987 0.0
Sm1201 Sm 0.24399 0.33572 0.90596 0.0
C1202 C 0.22883 0.41539 0.88437 0.0
C1203 C 0.23624 0.41538 0.8712 0.0
C1204 C 0.26436 0.43316 0.86724 0.0
C1205 C 0.27692 0.42826 0.85545 0.0
C1206 C 0.2617 0.40526 0.84731 0.0
C1207 C 0.23289 0.38804 0.85123 0.0
C1208 C 0.2202 0.39312 0.86308 0.0
C1209 C 0.15639 0.33274 0.90111 0.0
C1210 C 0.25009 0.32743 0.87713 0.0
C1211 C 0.26764 0.27432 0.90941 0.0
C1212 C 0.25076 0.242 0.90798 0.0
C1213 C 0.22203 0.23961 0.90057 0.0
C1214 C 0.20051 0.21228 0.90173 0.0
C1215 C 0.20756 0.18706 0.91029 0.0
C1216 C 0.23834 0.18777 0.91663 0.0
C1217 C 0.2597 0.21524 0.91553 0.0
C1218 C 0.28184 0.38565 0.92054 0.0
C1219 C 0.19467 0.36036 0.92624 0.0
O1220 O 0.25252 0.40128 0.89085 0.0
O1221 O 0.19851 0.40712 0.8879 0.0
O1222 O 0.18621 0.31847 0.90074 0.0
O1223 O 0.15997 0.36535 0.9011 0.0
O1224 O 0.21997 0.33024 0.8818 0.0
O1225 O 0.27082 0.3371 0.88579 0.0
O1226 O 0.2723 0.29106 0.89932 0.0
O1227 O 0.25611 0.29311 0.9183 0.0
O1228 O 0.25121 0.38777 0.91661 0.0
O1229 O 0.29326 0.35831 0.91553 0.0
O1230 O 0.21026 0.33271 0.9232 0.0
O1231 O 0.19543 0.38415 0.91805 0.0
H1232 H 0.27727 0.45016 0.87342 0.0
H1233 H 0.29819 0.44326 0.85267 0.0
H1234 H 0.22026 0.37057 0.84516 0.0
H1235 H 0.19866 0.37873 0.86602 0.0
H1236 H 0.21488 0.26 0.89458 0.0
H1237 H 0.17705 0.21227 0.89673 0.0
H1238 H 0.24432 0.16891 0.92342 0.0
H1239 H 0.28175 0.21677 0.92131 0.0
Sm1240 Sm 0.44549 0.47452 0.64802 0.0
Sm1241 Sm 0.47943 0.5017 0.65463 0.0
C1242 C 0.39212 0.48259 0.63402 0.0
C1243 C 0.35779 0.49656 0.63421 0.0
C1244 C 0.35245 0.53147 0.63398 0.0
C1245 C 0.32039 0.54445 0.63206 0.0
C1246 C 0.29302 0.52285 0.63034 0.0
C1247 C 0.29803 0.48805 0.63133 0.0
C1248 C 0.33016 0.47503 0.63319 0.0
C1249 C 0.48126 0.4137 0.6489 0.0
C1250 C 0.48711 0.50628 0.62546 0.0
C1251 C 0.54024 0.52485 0.65942 0.0
C1252 C 0.57274 0.50792 0.65886 0.0
C1253 C 0.57682 0.47937 0.65137 0.0
C1254 C 0.60385 0.45779 0.65322 0.0
C1255 C 0.6269 0.46439 0.66266 0.0
C1256 C 0.62465 0.49499 0.66918 0.0
C1257 C 0.59761 0.51653 0.66732 0.0
C1258 C 0.42847 0.5406 0.66854 0.0
C1259 C 0.45556 0.45223 0.67456 0.0
O1260 O 0.41672 0.50427 0.63469 0.0
O1261 O 0.39795 0.45478 0.64005 0.0
O1262 O 0.49484 0.44386 0.64862 0.0
O1263 O 0.44869 0.41676 0.64883 0.0
O1264 O 0.47821 0.47635 0.6292 0.0
O1265 O 0.48289 0.52746 0.6346 0.0
O1266 O 0.52528 0.52909 0.64891 0.0
O1267 O 0.52003 0.51374 0.66789 0.0
O1268 O 0.42638 0.50982 0.66466 0.0
O1269 O 0.45606 0.55157 0.6637 0.0
O1270 O 0.48345 0.46643 0.67117 0.0
O1271 O 0.43051 0.45447 0.66688 0.0
H1272 H 0.37318 0.54886 0.63472 0.0
H1273 H 0.31725 0.57137 0.63137 0.0
H1274 H 0.27753 0.47074 0.62983 0.0
H1275 H 0.33359 0.44807 0.63323 0.0
H1276 H 0.55779 0.47238 0.64475 0.0
H1277 H 0.60511 0.43458 0.64802 0.0
H1278 H 0.64172 0.50072 0.67663 0.0
H1279 H 0.59472 0.53841 0.67318 0.0
H1280 H 0.21797 0.45051 0.41922 0.0
H1281 H 0.15129 0.36605 0.4145 0.0
H1282 H 0.1844 0.46951 0.4367 0.0
H1283 H 0.11772 0.38553 0.43173 0.0
H1284 H 0.1753 0.4282 0.47691 0.0
H1285 H 0.19008 0.42436 0.45526 0.0
H1286 H 0.08597 0.43488 0.44525 0.0
H1287 H 0.07087 0.43939 0.46712 0.0
C1288 C 0.19522 0.43705 0.42146 0.0
C1289 C 0.18812 0.40609 0.41584 0.0
C1290 C 0.17607 0.44789 0.43146 0.0
C1291 C 0.14936 0.42818 0.43571 0.0
C1292 C 0.13846 0.40088 0.42864 0.0
C1293 C 0.15775 0.38986 0.41871 0.0
C1294 C 0.15543 0.42926 0.47014 0.0
C1295 C 0.12198 0.4342 0.47368 0.0
C1296 C 0.16397 0.42769 0.45776 0.0
C1297 C 0.1392 0.43059 0.44868 0.0
C1298 C 0.10545 0.43339 0.45215 0.0
C1299 C 0.09689 0.43551 0.46461 0.0
H1300 H 0.86923 0.96817 0.6684 0.0
H1301 H 0.95584 0.9041 0.6633 0.0
H1302 H 0.85124 0.93318 0.68554 0.0
H1303 H 0.9371 0.86899 0.68012 0.0
H1304 H 0.90036 0.92057 0.72557 0.0
H1305 H 0.90739 0.93569 0.70407 0.0
H1306 H 0.87472 0.83717 0.69282 0.0
H1307 H 0.86691 0.82178 0.71453 0.0
C1308 C 0.88346 0.94575 0.67048 0.0
C1309 C 0.91451 0.93964 0.66477 0.0
C1310 C 0.87308 0.9257 0.68024 0.0
C1311 C 0.89325 0.89897 0.68416 0.0
C1312 C 0.92123 0.88952 0.67718 0.0
C1313 C 0.93182 0.90972 0.66749 0.0
C1314 C 0.89513 0.90186 0.71857 0.0
C1315 C 0.88283 0.87011 0.72171 0.0
C1316 C 0.89882 0.91065 0.7063 0.0
C1317 C 0.89064 0.88778 0.69695 0.0
C1318 C 0.88058 0.85522 0.69998 0.0
C1319 C 0.87649 0.84645 0.71234 0.0
H1320 H 0.41582 0.70777 0.91732 0.0
H1321 H 0.34484 0.62615 0.91902 0.0
H1322 H 0.44875 0.68187 0.93346 0.0
H1323 H 0.37787 0.60048 0.93532 0.0
H1324 H 0.49313 0.61849 0.96656 0.0
H1325 H 0.4782 0.6276 0.94488 0.0
H1326 H 0.37458 0.64043 0.95547 0.0
H1327 H 0.38921 0.63212 0.97687 0.0
C1328 C 0.40825 0.68332 0.9206 0.0
C1329 C 0.37712 0.66947 0.91724 0.0
C1330 C 0.42719 0.66854 0.92988 0.0
C1331 C 0.41512 0.63988 0.9358 0.0
C1332 C 0.38723 0.62298 0.93096 0.0
C1333 C 0.36834 0.63766 0.92166 0.0
C1334 C 0.46726 0.62363 0.96421 0.0
C1335 C 0.44227 0.62462 0.97336 0.0
C1336 C 0.45878 0.62842 0.95186 0.0
C1337 C 0.42518 0.63349 0.94857 0.0
C1338 C 0.40053 0.63541 0.95777 0.0
C1339 C 0.409 0.6312 0.97004 0.0
H1340 H 0.69327 0.14335 0.22601 0.0
H1341 H 0.68837 0.2484 0.21653 0.0
H1342 H 0.68573 0.12819 0.2046 0.0
H1343 H 0.68044 0.23293 0.19482 0.0
H1344 H 0.69058 0.09963 0.16786 0.0
H1345 H 0.7167 0.1331 0.18405 0.0
H1346 H 0.63267 0.20143 0.18356 0.0
H1347 H 0.60666 0.16829 0.16744 0.0
C1348 C 0.69045 0.16323 0.21934 0.0
C1349 C 0.69116 0.19703 0.22293 0.0
C1350 C 0.68677 0.15455 0.20703 0.0
C1351 C 0.68347 0.17945 0.19803 0.0
C1352 C 0.6835 0.21335 0.2016 0.0
C1353 C 0.68763 0.22211 0.21398 0.0
C1354 C 0.67854 0.12271 0.17079 0.0
C1355 C 0.64614 0.13071 0.16673 0.0
C1356 C 0.69341 0.14181 0.18005 0.0
C1357 C 0.67599 0.16902 0.1853 0.0
C1358 C 0.64645 0.18037 0.17973 0.0
C1359 C 0.63158 0.16131 0.17045 0.0
H1360 H 0.14301 0.71294 0.24515 0.0
H1361 H 0.20346 0.62411 0.23943 0.0
H1362 H 0.10511 0.69468 0.22899 0.0
H1363 H 0.16526 0.60612 0.22315 0.0
H1364 H 0.06201 0.60733 0.19476 0.0
H1365 H 0.07637 0.61745 0.21644 0.0
H1366 H 0.16221 0.67522 0.20508 0.0
H1367 H 0.14842 0.66495 0.18354 0.0
C1368 C 0.14712 0.68852 0.24101 0.0
C1369 C 0.17668 0.67026 0.24334 0.0
C1370 C 0.12534 0.67818 0.23173 0.0
C1371 C 0.13269 0.64932 0.22487 0.0
C1372 C 0.15923 0.62844 0.22845 0.0
C1373 C 0.18111 0.6388 0.23769 0.0
C1374 C 0.08342 0.62293 0.19692 0.0
C1375 C 0.10433 0.63525 0.18753 0.0
C1376 C 0.09161 0.62847 0.20927 0.0
C1377 C 0.12042 0.64671 0.21223 0.0
C1378 C 0.13992 0.66091 0.20287 0.0
C1379 C 0.13201 0.65514 0.1906 0.0
H1380 H 0.67297 0.91513 0.43533 0.0
H1381 H 0.70221 0.81499 0.44608 0.0
H1382 H 0.66377 0.92994 0.45674 0.0
H1383 H 0.69204 0.8301 0.4678 0.0
H1384 H 0.69185 0.96295 0.49261 0.0
H1385 H 0.71482 0.92668 0.47651 0.0
H1386 H 0.62845 0.86232 0.4792 0.0
H1387 H 0.60503 0.89859 0.49509 0.0
C1388 C 0.67703 0.89612 0.44225 0.0
C1389 C 0.68854 0.86398 0.43905 0.0
C1390 C 0.67207 0.90473 0.4545 0.0
C1391 C 0.67817 0.88135 0.4638 0.0
C1392 C 0.68783 0.84856 0.46069 0.0
C1393 C 0.69326 0.83994 0.44833 0.0
C1394 C 0.67858 0.94015 0.49022 0.0
C1395 C 0.64621 0.93422 0.49481 0.0
C1396 C 0.69181 0.91933 0.48108 0.0
C1397 C 0.67298 0.89223 0.47658 0.0
C1398 C 0.64337 0.88306 0.4826 0.0
C1399 C 0.63002 0.90396 0.49172 0.0
H1400 H 0.40334 0.41583 0.68304 0.0
H1401 H 0.49668 0.46135 0.69439 0.0
H1402 H 0.39002 0.40391 0.70447 0.0
H1403 H 0.48296 0.44927 0.71599 0.0
H1404 H 0.35325 0.44169 0.74008 0.0
H1405 H 0.38953 0.46355 0.72389 0.0
H1406 H 0.45452 0.3777 0.72745 0.0
H1407 H 0.41842 0.35556 0.74354 0.0
C1408 C 0.4212 0.42282 0.69009 0.0
C1409 C 0.4508 0.43978 0.68711 0.0
C1410 C 0.41354 0.41615 0.7023 0.0
C1411 C 0.43529 0.42638 0.71171 0.0
C1412 C 0.46586 0.44153 0.70879 0.0
C1413 C 0.47365 0.44819 0.69649 0.0
C1414 C 0.37624 0.42843 0.73788 0.0
C1415 C 0.38252 0.39656 0.74279 0.0
C1416 C 0.39702 0.44098 0.72868 0.0
C1417 C 0.42428 0.42189 0.72444 0.0
C1418 C 0.43363 0.39278 0.73069 0.0
C1419 C 0.41288 0.3802 0.73991 0.0
H1420 H 0.87075 0.10169 0.99438 0.0
H1421 H 0.95464 0.17014 0.99588 0.0
H1422 H 0.84781 0.13312 0.97713 0.0
H1423 H 0.93113 0.2017 0.97893 0.0
H1424 H 0.88119 0.14161 0.93556 0.0
H1425 H 0.88934 0.12778 0.95707 0.0
H1426 H 0.87668 0.23185 0.96719 0.0
H1427 H 0.86767 0.24596 0.94544 0.0
C1428 C 0.88341 0.12431 0.99146 0.0
C1429 C 0.91507 0.13265 0.99619 0.0
C1430 C 0.87026 0.14228 0.98162 0.0
C1431 C 0.88834 0.16911 0.97659 0.0
C1432 C 0.91691 0.18096 0.98266 0.0
C1433 C 0.93026 0.16281 0.99243 0.0
C1434 C 0.88034 0.16166 0.94231 0.0
C1435 C 0.87375 0.19483 0.93884 0.0
C1436 C 0.88448 0.15365 0.95463 0.0
C1437 C 0.88255 0.17867 0.96373 0.0
C1438 C 0.87756 0.21215 0.96029 0.0
C1439 C 0.8728 0.22017 0.9479 0.0
H1440 H 0.91317 0.70297 0.74455 0.0
H1441 H 0.84078 0.62251 0.74333 0.0
H1442 H 0.94476 0.67644 0.72816 0.0
H1443 H 0.8727 0.59589 0.72677 0.0
H1444 H 0.98841 0.6225 0.69442 0.0
H1445 H 0.97364 0.62922 0.7162 0.0
H1446 H 0.86862 0.62794 0.70657 0.0
H1447 H 0.88317 0.62139 0.68502 0.0
C1448 C 0.905 0.67858 0.74132 0.0
C1449 C 0.87373 0.66543 0.74486 0.0
C1450 C 0.92318 0.66342 0.73185 0.0
C1451 C 0.91029 0.63496 0.72591 0.0
C1452 C 0.88252 0.61845 0.73103 0.0
C1453 C 0.86434 0.63359 0.74052 0.0
C1454 C 0.9622 0.6239 0.697 0.0
C1455 C 0.93688 0.62171 0.68806 0.0
C1456 C 0.95383 0.62732 0.70943 0.0
C1457 C 0.92006 0.62807 0.71306 0.0
C1458 C 0.89488 0.62629 0.70407 0.0
C1459 C 0.9032 0.62325 0.69169 0.0
H1460 H 0.1559 0.1589 0.50086 0.0
H1461 H 0.16888 0.07209 0.47723 0.0
H1462 H 0.17519 0.19491 0.48417 0.0
H1463 H 0.18989 0.10775 0.46113 0.0
H1464 H 0.22487 0.23698 0.44592 0.0
H1465 H 0.22058 0.20937 0.46601 0.0
H1466 H 0.14199 0.14591 0.45174 0.0
H1467 H 0.14645 0.173 0.43181 0.0
C1468 C 0.16419 0.1473 0.49235 0.0
C1469 C 0.15893 0.1128 0.49016 0.0
C1470 C 0.1754 0.16796 0.48285 0.0
C1471 C 0.18235 0.15399 0.47129 0.0
C1472 C 0.18349 0.11902 0.46992 0.0
C1473 C 0.17181 0.09851 0.47928 0.0
C1474 C 0.20584 0.21799 0.44727 0.0
C1475 C 0.1861 0.20676 0.43737 0.0
C1476 C 0.20375 0.20202 0.45867 0.0
C1477 C 0.18191 0.17484 0.46017 0.0
C1478 C 0.15984 0.16614 0.45063 0.0
C1479 C 0.16199 0.18191 0.43931 0.0
H1480 H 0.56194 0.45218 0.19573 0.0
H1481 H 0.66044 0.41689 0.18506 0.0
H1482 H 0.57666 0.44411 0.2175 0.0
H1483 H 0.67491 0.40962 0.20659 0.0
H1484 H 0.64361 0.3599 0.24646 0.0
H1485 H 0.60842 0.37958 0.22979 0.0
H1486 H 0.67168 0.46627 0.22557 0.0
H1487 H 0.70676 0.44725 0.24254 0.0
C1488 C 0.58641 0.44222 0.19801 0.0
C1489 C 0.61016 0.4353 0.18873 0.0
C1490 C 0.59481 0.43796 0.21041 0.0
C1491 C 0.62708 0.42716 0.21355 0.0
C1492 C 0.65008 0.41867 0.20428 0.0
C1493 C 0.64167 0.42253 0.19199 0.0
C1494 C 0.64896 0.38425 0.24257 0.0
C1495 C 0.67863 0.40159 0.24558 0.0
C1496 C 0.62871 0.39541 0.23298 0.0
C1497 C 0.63787 0.42398 0.22638 0.0
C1498 C 0.66437 0.44403 0.23059 0.0
C1499 C 0.68449 0.43305 0.24024 0.0
H1500 H 0.39372 0.92405 0.93428 0.0
H1501 H 0.37178 0.8213 0.94395 0.0
H1502 H 0.39859 0.93837 0.95594 0.0
H1503 H 0.37751 0.8359 0.96585 0.0
H1504 H 0.36794 0.96822 0.99165 0.0
H1505 H 0.34851 0.93404 0.9744 0.0
H1506 H 0.43221 0.86687 0.97922 0.0
H1507 H 0.45221 0.90106 0.99619 0.0
C1508 C 0.39057 0.90437 0.94102 0.0
C1509 C 0.38216 0.87163 0.93745 0.0
C1510 C 0.39283 0.9127 0.9534 0.0
C1511 C 0.38719 0.88838 0.96244 0.0
C1512 C 0.38115 0.85508 0.95896 0.0
C1513 C 0.37834 0.84676 0.94648 0.0
C1514 C 0.38125 0.94524 0.98943 0.0
C1515 C 0.41226 0.93811 0.99493 0.0
C1516 C 0.3701 0.9257 0.9796 0.0
C1517 C 0.38956 0.89859 0.9754 0.0
C1518 C 0.41701 0.88783 0.98232 0.0
C1519 C 0.42833 0.90751 0.9921 0.0
H1520 H 0.8468 0.44162 0.91818 0.0
H1521 H 0.91531 0.35779 0.9153 0.0
H1522 H 0.88146 0.46564 0.93445 0.0
H1523 H 0.94999 0.38228 0.93133 0.0
H1524 H 0.89486 0.4276 0.97558 0.0
H1525 H 0.87965 0.41806 0.95424 0.0
H1526 H 0.98011 0.44292 0.94273 0.0
H1527 H 0.9956 0.45335 0.96431 0.0
C1528 C 0.87012 0.42928 0.92053 0.0
C1529 C 0.8777 0.39733 0.91579 0.0
C1530 C 0.88997 0.44307 0.92979 0.0
C1531 C 0.91776 0.42524 0.93421 0.0
C1532 C 0.92859 0.39634 0.92802 0.0
C1533 C 0.90864 0.3824 0.9188 0.0
C1534 C 0.9139 0.43077 0.96857 0.0
C1535 C 0.94633 0.44141 0.97158 0.0
C1536 C 0.90506 0.42574 0.95636 0.0
C1537 C 0.92854 0.43085 0.94695 0.0
C1538 C 0.96157 0.43955 0.9499 0.0
C1539 C 0.97039 0.44512 0.9622 0.0
H1540 H 0.45603 0.16989 0.66579 0.0
H1541 H 0.37329 0.10066 0.66924 0.0
H1542 H 0.43376 0.20301 0.68273 0.0
H1543 H 0.35146 0.1338 0.68642 0.0
H1544 H 0.37254 0.24794 0.71726 0.0
H1545 H 0.38015 0.23313 0.69545 0.0
H1546 H 0.39648 0.12989 0.70558 0.0
H1547 H 0.38968 0.14441 0.72716 0.0
C1548 C 0.43203 0.16276 0.66965 0.0
C1549 C 0.41699 0.13194 0.66651 0.0
C1550 C 0.41939 0.18179 0.6794 0.0
C1551 C 0.39166 0.17016 0.68602 0.0
C1552 C 0.37331 0.14276 0.6815 0.0
C1553 C 0.38578 0.12385 0.67169 0.0
C1554 C 0.37837 0.22222 0.7148 0.0
C1555 C 0.38044 0.19725 0.72387 0.0
C1556 C 0.38226 0.2138 0.70237 0.0
C1557 C 0.3876 0.18028 0.69894 0.0
C1558 C 0.39125 0.15575 0.70804 0.0
C1559 C 0.38793 0.16418 0.72039 0.0
H1560 H 0.74232 0.62835 0.42451 0.0
H1561 H 0.64849 0.66209 0.40896 0.0
H1562 H 0.71216 0.60151 0.44095 0.0
H1563 H 0.61857 0.63768 0.42626 0.0
H1564 H 0.67082 0.64815 0.47627 0.0
H1565 H 0.69193 0.64689 0.45538 0.0
H1566 H 0.60208 0.5962 0.44327 0.0
H1567 H 0.58057 0.59778 0.46451 0.0
C1568 C 0.71522 0.62891 0.42419 0.0
C1569 C 0.69797 0.64969 0.41591 0.0
C1570 C 0.6979 0.61369 0.43376 0.0
C1571 C 0.66343 0.61966 0.43527 0.0
C1572 C 0.64538 0.63373 0.42553 0.0
C1573 C 0.66266 0.64806 0.41569 0.0
C1574 C 0.65535 0.63715 0.46913 0.0
C1575 C 0.62416 0.62317 0.47193 0.0
C1576 C 0.66768 0.63578 0.45721 0.0
C1577 C 0.6492 0.62014 0.44781 0.0
C1578 C 0.61703 0.60776 0.45042 0.0
C1579 C 0.60457 0.60918 0.46248 0.0
H1580 H 0.22125 0.83637 0.2145 0.0
H1581 H 0.15387 0.91084 0.22969 0.0
H1582 H 0.21818 0.86385 0.1944 0.0
H1583 H 0.15053 0.93782 0.20975 0.0
H1584 H 0.15383 0.91238 0.16034 0.0
H1585 H 0.17554 0.87936 0.1774 0.0
H1586 H 0.19455 0.9704 0.19781 0.0
H1587 H 0.17092 1.00316 0.18138 0.0
C1588 C 0.20504 0.85798 0.21344 0.0
C1589 C 0.18791 0.87176 0.2236 0.0
C1590 C 0.20368 0.87386 0.20201 0.0
C1591 C 0.18526 0.90361 0.20071 0.0
C1592 C 0.16605 0.91563 0.21066 0.0
C1593 C 0.16745 0.89992 0.222 0.0
C1594 C 0.16365 0.92543 0.16832 0.0
C1595 C 0.15861 0.96022 0.16982 0.0
C1596 C 0.17624 0.90647 0.17804 0.0
C1597 C 0.1849 0.92244 0.18909 0.0
C1598 C 0.18666 0.95756 0.1895 0.0
C1599 C 0.1735 0.97641 0.17993 0.0
H1600 H 0.64759 0.905 0.97551 0.0
H1601 H 0.55976 0.96178 0.9651 0.0
H1602 H 0.66114 0.89621 0.95385 0.0
H1603 H 0.57379 0.95296 0.94328 0.0
H1604 H 0.70226 0.94645 0.92017 0.0
H1605 H 0.66345 0.96508 0.93622 0.0
H1606 H 0.6027 0.87731 0.93015 0.0
H1607 H 0.64122 0.85841 0.91422 0.0
C1608 C 0.63078 0.9149 0.9686 0.0
C1609 C 0.60279 0.93417 0.97194 0.0
C1610 C 0.63859 0.91001 0.95626 0.0
C1611 C 0.61861 0.92437 0.94709 0.0
C1612 C 0.58944 0.94189 0.95031 0.0
C1613 C 0.58142 0.94664 0.96273 0.0
C1614 C 0.67963 0.93212 0.92177 0.0
C1615 C 0.67529 0.90057 0.91621 0.0
C1616 C 0.65737 0.94287 0.93089 0.0
C1617 C 0.63056 0.92228 0.93438 0.0
C1618 C 0.62316 0.89357 0.92747 0.0
C1619 C 0.64534 0.88284 0.91834 0.0
H1620 H 0.36976 0.32397 0.21546 0.0
H1621 H 0.38405 0.42798 0.22561 0.0
H1622 H 0.37659 0.33875 0.19368 0.0
H1623 H 0.39011 0.44247 0.20405 0.0
H1624 H 0.45084 0.40177 0.16415 0.0
H1625 H 0.4288 0.36892 0.18101 0.0
H1626 H 0.34613 0.43806 0.18485 0.0
H1627 H 0.3677 0.47091 0.16771 0.0
C1628 C 0.37476 0.34981 0.21305 0.0
C1629 C 0.37634 0.37489 0.22219 0.0
C1630 C 0.37821 0.35821 0.20064 0.0
C1631 C 0.38257 0.3918 0.19729 0.0
C1632 C 0.3856 0.41651 0.20645 0.0
C1633 C 0.38273 0.40813 0.21879 0.0
C1634 C 0.42681 0.40895 0.168 0.0
C1635 C 0.41161 0.43971 0.16493 0.0
C1636 C 0.4143 0.39006 0.17773 0.0
C1637 C 0.38655 0.40178 0.18439 0.0
C1638 C 0.36801 0.42905 0.17991 0.0
C1639 C 0.38034 0.44779 0.17012 0.0
H1640 H 0.99544 0.10607 0.46642 0.0
H1641 H 0.9034 0.15362 0.47841 0.0
H1642 H 0.98148 0.11927 0.44494 0.0
H1643 H 0.88983 0.16658 0.45712 0.0
H1644 H 0.91851 0.21581 0.41814 0.0
H1645 H 0.95403 0.19255 0.43416 0.0
H1646 H 0.88796 0.1076 0.43726 0.0
H1647 H 0.85227 0.13056 0.42113 0.0
C1648 C 0.97267 0.1199 0.46449 0.0
C1649 C 0.95026 0.12862 0.474 0.0
C1650 C 0.96473 0.12718 0.45226 0.0
C1651 C 0.93444 0.14326 0.44955 0.0
C1652 C 0.91312 0.15366 0.4591 0.0
C1653 C 0.92093 0.14639 0.47124 0.0
C1654 C 0.91259 0.19116 0.42166 0.0
C1655 C 0.88217 0.17529 0.41862 0.0
C1656 C 0.933 0.17793 0.43084 0.0
C1657 C 0.9233 0.14866 0.4369 0.0
C1658 C 0.89577 0.13023 0.43259 0.0
C1659 C 0.87532 0.14343 0.42343 0.0
H1660 H 0.18787 0.60633 0.66911 0.0
H1661 H 0.10134 0.67107 0.66574 0.0
H1662 H 0.2093 0.64241 0.68551 0.0
H1663 H 0.12333 0.70719 0.68189 0.0
H1664 H 0.16467 0.65744 0.72647 0.0
H1665 H 0.15437 0.64186 0.70516 0.0
H1666 H 0.19002 0.73836 0.69315 0.0
H1667 H 0.20108 0.75422 0.71469 0.0
C1668 C 0.17434 0.62912 0.6714 0.0
C1669 C 0.14248 0.63526 0.66642 0.0
C1670 C 0.18669 0.6498 0.68072 0.0
C1671 C 0.16756 0.67707 0.68496 0.0
C1672 C 0.13846 0.68631 0.67867 0.0
C1673 C 0.12597 0.66553 0.66939 0.0
C1674 C 0.16993 0.67561 0.71935 0.0
C1675 C 0.1839 0.70692 0.72221 0.0
C1676 C 0.16431 0.66657 0.70718 0.0
C1677 C 0.17226 0.68872 0.69766 0.0
C1678 C 0.18423 0.72087 0.70044 0.0
C1679 C 0.1902 0.72992 0.71271 0.0
H1680 H 0.67556 0.139 0.68307 0.0
H1681 H 0.57089 0.12845 0.69273 0.0
H1682 H 0.6898 0.14358 0.70472 0.0
H1683 H 0.58543 0.13367 0.7146 0.0
H1684 H 0.71718 0.12057 0.74098 0.0
H1685 H 0.68447 0.10016 0.72355 0.0
H1686 H 0.61588 0.18315 0.72789 0.0
H1687 H 0.64854 0.20395 0.74507 0.0
C1688 C 0.65553 0.13819 0.68981 0.0
C1689 C 0.62216 0.13329 0.68624 0.0
C1690 C 0.66375 0.14018 0.7022 0.0
C1691 C 0.63875 0.13771 0.71125 0.0
C1692 C 0.6051 0.13483 0.70773 0.0
C1693 C 0.59686 0.13231 0.69527 0.0
C1694 C 0.69419 0.13349 0.73861 0.0
C1695 C 0.68623 0.16453 0.74404 0.0
C1696 C 0.67554 0.12185 0.72865 0.0
C1697 C 0.64853 0.14089 0.72423 0.0
C1698 C 0.63685 0.1683 0.7311 0.0
C1699 C 0.65562 0.18009 0.74101 0.0
H1700 H 0.1691 0.41843 0.93513 0.0
H1701 H 0.19801 0.31837 0.9461 0.0
H1702 H 0.16197 0.43417 0.95659 0.0
H1703 H 0.19005 0.33441 0.96781 0.0
H1704 H 0.1917 0.46866 0.99183 0.0
H1705 H 0.21376 0.43214 0.97565 0.0
H1706 H 0.12924 0.36603 0.97999 0.0
H1707 H 0.1067 0.40252 0.99594 0.0
C1708 C 0.17346 0.39965 0.94211 0.0
C1709 C 0.18432 0.36728 0.93897 0.0
C1710 C 0.16978 0.40879 0.95437 0.0
C1711 C 0.17654 0.38568 0.96372 0.0
C1712 C 0.18542 0.35266 0.96067 0.0
C1713 C 0.18957 0.34353 0.94831 0.0
C1714 C 0.17874 0.44544 0.98979 0.0
C1715 C 0.14694 0.4391 0.99481 0.0
C1716 C 0.19144 0.42451 0.98059 0.0
C1717 C 0.17264 0.39692 0.97651 0.0
C1718 C 0.14403 0.38726 0.98304 0.0
C1719 C 0.1312 0.40827 0.99221 0.0
H1720 H 0.97519 0.97693 0.19612 0.0
H1721 H 0.9022 0.90781 0.18132 0.0
H1722 H 0.94869 0.97279 0.21644 0.0
H1723 H 0.87623 0.90337 0.20148 0.0
H1724 H 0.90257 0.90812 0.25085 0.0
H1725 H 0.9347 0.92991 0.23354 0.0
H1726 H 0.84285 0.94672 0.21362 0.0
H1727 H 0.81101 0.92292 0.23028 0.0
C1728 C 0.95418 0.96007 0.19731 0.0
C1729 C 0.94045 0.9428 0.1872 0.0
C1730 C 0.93885 0.9581 0.20887 0.0
C1731 C 0.90972 0.93889 0.21034 0.0
C1732 C 0.89791 0.91946 0.20044 0.0
C1733 C 0.91306 0.9215 0.18897 0.0
C1734 C 0.88913 0.91738 0.24291 0.0
C1735 C 0.85443 0.91167 0.24164 0.0
C1736 C 0.90758 0.93004 0.23305 0.0
C1737 C 0.89118 0.93814 0.22207 0.0
C1738 C 0.85604 0.93923 0.22187 0.0
C1739 C 0.83772 0.92597 0.23157 0.0
H1740 H 0.45443 0.66602 0.49618 0.0
H1741 H 0.37098 0.5975 0.49268 0.0
H1742 H 0.43432 0.69722 0.47862 0.0
H1743 H 0.35157 0.62855 0.47476 0.0
H1744 H 0.37778 0.74303 0.4442 0.0
H1745 H 0.38442 0.72781 0.46592 0.0
H1746 H 0.39372 0.62366 0.45542 0.0
H1747 H 0.38781 0.6386 0.43389 0.0
C1748 C 0.4308 0.65855 0.49213 0.0
C1749 C 0.41493 0.62842 0.49556 0.0
C1750 C 0.41945 0.67646 0.48198 0.0
C1751 C 0.39219 0.66446 0.47518 0.0
C1752 C 0.37316 0.63772 0.47978 0.0
C1753 C 0.38425 0.62002 0.49003 0.0
C1754 C 0.38183 0.71697 0.44656 0.0
C1755 C 0.38232 0.69195 0.43739 0.0
C1756 C 0.3852 0.70833 0.45895 0.0
C1757 C 0.38838 0.67455 0.46227 0.0
C1758 C 0.39021 0.64981 0.45306 0.0
C1759 C 0.38744 0.65843 0.44074 0.0
H1760 H 0.41092 0.20765 0.2441 0.0
H1761 H 0.34076 0.1253 0.24217 0.0
H1762 H 0.44359 0.18263 0.22761 0.0
H1763 H 0.37357 0.10049 0.22547 0.0
H1764 H 0.48894 0.12376 0.194 0.0
H1765 H 0.47371 0.13203 0.21571 0.0
H1766 H 0.36933 0.13781 0.20549 0.0
H1767 H 0.38426 0.13013 0.184 0.0
C1768 C 0.40348 0.1832 0.24069 0.0
C1769 C 0.37254 0.16899 0.24408 0.0
C1770 C 0.42227 0.16895 0.23118 0.0
C1771 C 0.41026 0.14043 0.22506 0.0
C1772 C 0.38277 0.123 0.22995 0.0
C1773 C 0.36406 0.13715 0.23949 0.0
C1774 C 0.4628 0.1272 0.19643 0.0
C1775 C 0.43773 0.12639 0.18735 0.0
C1776 C 0.45417 0.13149 0.20881 0.0
C1777 C 0.42036 0.13433 0.21222 0.0
C1778 C 0.39553 0.1345 0.20309 0.0
C1779 C 0.40412 0.13074 0.19078 0.0
H1780 H 0.60409 0.66636 0.9932 0.0
H1781 H 0.68737 0.59769 0.98885 0.0
H1782 H 0.62574 0.70029 0.97649 0.0
H1783 H 0.70845 0.63154 0.97188 0.0
H1784 H 0.69044 0.74892 0.94335 0.0
H1785 H 0.6811 0.73163 0.96476 0.0
H1786 H 0.66347 0.63018 0.9524 0.0
H1787 H 0.67196 0.64716 0.9312 0.0
C1788 C 0.62798 0.65943 0.98916 0.0
C1789 C 0.64355 0.62874 0.99207 0.0
C1790 C 0.64025 0.67891 0.97954 0.0
C1791 C 0.66809 0.66784 0.97279 0.0
C1792 C 0.68657 0.64014 0.97693 0.0
C1793 C 0.6745 0.6208 0.9866 0.0
C1794 C 0.68397 0.72307 0.94524 0.0
C1795 C 0.68204 0.6993 0.93565 0.0
C1796 C 0.67902 0.71324 0.95744 0.0
C1797 C 0.67276 0.6795 0.96012 0.0
C1798 C 0.6693 0.65619 0.95051 0.0
C1799 C 0.67367 0.66603 0.93838 0.0
H1800 H 0.20354 0.94728 0.73977 0.0
H1801 H 0.14478 0.85773 0.74547 0.0
H1802 H 0.16221 0.96685 0.72489 0.0
H1803 H 0.1039 0.87727 0.73062 0.0
H1804 H 0.12036 0.89127 0.68605 0.0
H1805 H 0.13272 0.87945 0.70763 0.0
H1806 H 0.096 0.97761 0.71798 0.0
H1807 H 0.08226 0.98876 0.69637 0.0
C1808 C 0.181 0.93267 0.73832 0.0
C1809 C 0.17774 0.90073 0.74356 0.0
C1810 C 0.1573 0.94391 0.72987 0.0
C1811 C 0.13038 0.92315 0.72653 0.0
C1812 C 0.12459 0.89355 0.73307 0.0
C1813 C 0.14802 0.8825 0.74161 0.0
C1814 C 0.11383 0.90967 0.69303 0.0
C1815 C 0.10033 0.94068 0.68975 0.0
C1816 C 0.12064 0.90296 0.70533 0.0
C1817 C 0.11493 0.92761 0.7144 0.0
C1818 C 0.10009 0.95817 0.71114 0.0
C1819 C 0.09236 0.96449 0.69885 0.0
H1820 H 0.8723 0.46496 0.49272 0.0
H1821 H 0.95594 0.39653 0.496 0.0
H1822 H 0.84994 0.43065 0.47601 0.0
H1823 H 0.93313 0.36225 0.47952 0.0
H1824 H 0.89409 0.42104 0.43539 0.0
H1825 H 0.90054 0.43434 0.45708 0.0
H1826 H 0.87438 0.33283 0.46667 0.0
H1827 H 0.86706 0.31928 0.44473 0.0
C1828 C 0.88484 0.44165 0.49038 0.0
C1829 C 0.91647 0.43415 0.49531 0.0
C1830 C 0.87201 0.42201 0.48086 0.0
C1831 C 0.89046 0.39451 0.47639 0.0
C1832 C 0.91865 0.38347 0.48285 0.0
C1833 C 0.93163 0.40321 0.49232 0.0
C1834 C 0.89005 0.40136 0.44206 0.0
C1835 C 0.87988 0.36921 0.43839 0.0
C1836 C 0.89327 0.40911 0.45446 0.0
C1837 C 0.88679 0.38481 0.46343 0.0
C1838 C 0.87873 0.35201 0.45984 0.0
C1839 C 0.87498 0.34429 0.44734 0.0
H1840 H 0.38499 0.94845 0.47533 0.0
H1841 H 0.4899 0.94795 0.46527 0.0
H1842 H 0.36979 0.94075 0.45392 0.0
H1843 H 0.47445 0.94004 0.44363 0.0
H1844 H 0.34096 0.94514 0.41716 0.0
H1845 H 0.37292 0.97223 0.43353 0.0
H1846 H 0.44557 0.89193 0.43212 0.0
H1847 H 0.41391 0.86491 0.41591 0.0
C1848 C 0.40481 0.9465 0.46854 0.0
C1849 C 0.43859 0.94855 0.47195 0.0
C1850 C 0.3961 0.94278 0.45624 0.0
C1851 C 0.42098 0.94081 0.4471 0.0
C1852 C 0.45487 0.94207 0.45051 0.0
C1853 C 0.46362 0.94618 0.46286 0.0
C1854 C 0.36463 0.9342 0.41993 0.0
C1855 C 0.37424 0.90234 0.41562 0.0
C1856 C 0.38283 0.94961 0.42931 0.0
C1857 C 0.41085 0.93335 0.43435 0.0
C1858 C 0.42382 0.90477 0.42847 0.0
C1859 C 0.40561 0.88933 0.41911 0.0
H1860 H 0.90383 0.65841 0.22529 0.0
H1861 H 0.85591 0.75208 0.21574 0.0
H1862 H 0.91236 0.64604 0.20355 0.0
H1863 H 0.86477 0.73936 0.19379 0.0
H1864 H 0.86899 0.61051 0.16879 0.0
H1865 H 0.84906 0.64718 0.18532 0.0
H1866 H 0.93567 0.71035 0.18073 0.0
H1867 H 0.95597 0.67385 0.16437 0.0
C1868 C 0.89575 0.67665 0.21856 0.0
C1869 C 0.87902 0.70603 0.22216 0.0
C1870 C 0.90042 0.66948 0.20616 0.0
C1871 C 0.88854 0.69155 0.19717 0.0
C1872 C 0.87374 0.72199 0.20067 0.0
C1873 C 0.869 0.72926 0.21317 0.0
C1874 C 0.88282 0.63322 0.17084 0.0
C1875 C 0.91449 0.63872 0.16558 0.0
C1876 C 0.87132 0.65426 0.18023 0.0
C1877 C 0.89124 0.68107 0.18428 0.0
C1878 C 0.91995 0.68984 0.17765 0.0
C1879 C 0.93149 0.66882 0.16826 0.0
H1880 H 0.14446 0.20651 0.91644 0.0
H1881 H 0.20981 0.12003 0.9156 0.0
H1882 H 0.11199 0.18135 0.93282 0.0
H1883 H 0.17675 0.0945 0.93196 0.0
H1884 H 0.06861 0.13084 0.96708 0.0
H1885 H 0.08044 0.13668 0.94498 0.0
H1886 H 0.18612 0.12378 0.95225 0.0
H1887 H 0.17459 0.11827 0.97395 0.0
C1888 C 0.1507 0.1812 0.91922 0.0
C1889 C 0.18038 0.16565 0.91509 0.0
C1890 C 0.13199 0.16678 0.92865 0.0
C1891 C 0.14275 0.13665 0.93394 0.0
C1892 C 0.16857 0.11826 0.92821 0.0
C1893 C 0.18744 0.13278 0.91884 0.0
C1894 C 0.09431 0.12938 0.96388 0.0
C1895 C 0.12072 0.12441 0.97221 0.0
C1896 C 0.10098 0.13231 0.95127 0.0
C1897 C 0.13405 0.12971 0.94688 0.0
C1898 C 0.16024 0.12474 0.95529 0.0
C1899 C 0.15368 0.12224 0.96778 0.0
H1900 H 0.69127 0.4671 0.67134 0.0
H1901 H 0.60735 0.39986 0.66649 0.0
H1902 H 0.71154 0.43226 0.68815 0.0
H1903 H 0.62815 0.36501 0.68307 0.0
H1904 H 0.6686 0.41933 0.72842 0.0
H1905 H 0.66215 0.43499 0.70699 0.0
H1906 H 0.68447 0.33354 0.69561 0.0
H1907 H 0.69177 0.31759 0.71726 0.0
C1908 C 0.67817 0.44403 0.67341 0.0
C1909 C 0.64715 0.43689 0.66792 0.0
C1910 C 0.6898 0.4241 0.68298 0.0
C1911 C 0.67076 0.39666 0.68698 0.0
C1912 C 0.64306 0.38618 0.6801 0.0
C1913 C 0.63127 0.40622 0.67057 0.0
C1914 C 0.67172 0.40016 0.72141 0.0
C1915 C 0.6809 0.36733 0.72448 0.0
C1916 C 0.66851 0.40925 0.70916 0.0
C1917 C 0.67399 0.38561 0.69977 0.0
C1918 C 0.6809 0.35219 0.70277 0.0
C1919 C 0.68464 0.34312 0.71511 0.0
H1920 H 0.13618 0.30816 0.3997 0.0
H1921 H 0.0975 0.20786 0.39831 0.0
H1922 H 0.07851 0.33015 0.39992 0.0
H1923 H 0.04038 0.22926 0.39846 0.0
H1924 H 0.92965 0.2705 0.40019 0.0
H1925 H 0.98731 0.24855 0.39996 0.0
H1926 H 1.02534 0.34948 0.39883 0.0
H1927 H 0.96817 0.37085 0.39913 0.0
C1928 C 0.11573 0.29036 0.39937 0.0
C1929 C 0.1236 0.25543 0.39891 0.0
C1930 C 0.08148 0.30324 0.39951 0.0
C1931 C 0.05198 0.28241 0.3992 0.0
C1932 C 0.06031 0.24756 0.39874 0.0
C1933 C 0.09429 0.23482 0.39862 0.0
C1934 C 0.95007 0.28832 0.39984 0.0
C1935 C 0.94216 0.32324 0.39962 0.0
C1936 C 0.98432 0.27547 0.39971 0.0
C1937 C 1.0138 0.29632 0.39935 0.0
C1938 C 1.00543 0.33118 0.39913 0.0
C1939 C 0.97143 0.34389 0.39928 0.0
H1940 H 0.94583 0.71813 0.65023 0.0
H1941 H 0.04571 0.67841 0.65176 0.0
H1942 H 0.96779 0.7752 0.65028 0.0
H1943 H 0.06819 0.73581 0.65178 0.0
H1944 H 0.10984 0.84563 0.65421 0.0
H1945 H 0.08762 0.78887 0.654 0.0
H1946 H 0.98845 0.82837 0.64829 0.0
H1947 H 1.01125 0.88579 0.64855 0.0
C1948 C 0.97278 0.72106 0.65056 0.0
C1949 C 0.9931 0.69143 0.65097 0.0
C1950 C 0.98586 0.755 0.65057 0.0
C1951 C 1.02079 0.76301 0.65103 0.0
C1952 C 0.04126 0.73318 0.65145 0.0
C1953 C 1.02807 0.69904 0.65141 0.0
C1954 C 0.08311 0.84286 0.65285 0.0
C1955 C 0.06332 0.87257 0.65135 0.0
C1956 C 0.06988 0.80904 0.65271 0.0
C1957 C 0.03522 0.80112 0.6511 0.0
C1958 C 1.01516 0.83099 0.64961 0.0
C1959 C 1.02856 0.86511 0.64972 0.0
H1960 H 0.42888 0.77017 0.89968 0.0
H1961 H 0.46792 0.87027 0.89827 0.0
H1962 H 0.48645 0.74789 0.89951 0.0
H1963 H 0.52501 0.84854 0.89803 0.0
H1964 H 0.63564 0.80657 0.8996 0.0
H1965 H 0.57808 0.82883 0.89984 0.0
H1966 H 0.53955 0.72825 0.89739 0.0
H1967 H 0.59667 0.70655 0.89728 0.0
C1968 C 0.44939 0.78788 0.89927 0.0
C1969 C 0.44162 0.82284 0.89893 0.0
C1970 C 0.48359 0.77481 0.89917 0.0
C1971 C 0.5132 0.79546 0.89874 0.0
C1972 C 0.50499 0.83037 0.89841 0.0
C1973 C 0.47103 0.8433 0.89851 0.0
C1974 C 0.61513 0.78889 0.89908 0.0
C1975 C 0.62293 0.75396 0.89837 0.0
C1976 C 0.58094 0.80193 0.89921 0.0
C1977 C 0.55134 0.78129 0.89863 0.0
C1978 C 0.55956 0.74641 0.89792 0.0
C1979 C 0.59353 0.73349 0.89781 0.0
H1980 H 0.44534 0.21695 0.14896 0.0
H1981 H 0.54522 0.17727 0.15075 0.0
H1982 H 0.46724 0.27397 0.149 0.0
H1983 H 0.56766 0.23467 0.15084 0.0
H1984 H 0.60969 0.34446 0.14997 0.0
H1985 H 0.58764 0.28761 0.14983 0.0
H1986 H 0.4872 0.32722 0.15017 0.0
H1987 H 0.50984 0.38463 0.15027 0.0
C1988 C 0.47229 0.21989 0.14935 0.0
C1989 C 0.49263 0.1903 0.14979 0.0
C1990 C 0.48533 0.25381 0.1494 0.0
C1991 C 0.52025 0.26183 0.14992 0.0
C1992 C 0.54075 0.23203 0.15038 0.0
C1993 C 0.52758 0.1979 0.15032 0.0
C1994 C 0.5827 0.34166 0.14999 0.0
C1995 C 0.56246 0.37135 0.15008 0.0
C1996 C 0.56956 0.30781 0.14993 0.0
C1997 C 0.5346 0.29992 0.14998 0.0
C1998 C 0.51415 0.3298 0.15008 0.0
C1999 C 0.52743 0.36392 0.15014 0.0
H2000 H 0.96763 0.69827 0.26069 0.0
H2001 H 0.92844 0.79853 0.2613 0.0
H2002 H 1.02468 0.7198 0.26072 0.0
H2003 H 0.98597 0.82064 0.26133 0.0
H2004 H 0.09609 0.86176 0.26164 0.0
H2005 H 0.03907 0.84017 0.26171 0.0
H2006 H 0.07785 0.73939 0.26028 0.0
H2007 H 0.13536 0.7616 0.2603 0.0
C2008 C 0.9707 0.72524 0.26087 0.0
C2009 C 0.94124 0.74579 0.26106 0.0
C2010 C 1.00465 0.73806 0.26087 0.0
C2011 C 1.01282 0.77296 0.26103 0.0
C2012 C 0.98317 0.79371 0.26122 0.0
C2013 C 0.94897 0.78075 0.26122 0.0
C2014 C 0.09304 0.83479 0.26136 0.0
C2015 C 0.1225 0.81427 0.26098 0.0
C2016 C 0.05911 0.82193 0.26138 0.0
C2017 C 0.05096 0.78703 0.26101 0.0
C2018 C 0.08063 0.76632 0.26061 0.0
C2019 C 0.1148 0.77932 0.26061 0.0
H2020 H 0.54874 0.89265 0.50841 0.0
H2021 H 0.44897 0.85293 0.50992 0.0
H2022 H 0.57146 0.83531 0.50865 0.0
H2023 H 0.47117 0.79588 0.51012 0.0
H2024 H 0.51526 0.6857 0.51287 0.0
H2025 H 0.49219 0.74309 0.51292 0.0
H2026 H 0.59085 0.78235 0.50604 0.0
H2027 H 0.61333 0.72565 0.50607 0.0
C2028 C 0.53119 0.87201 0.5088 0.0
C2029 C 0.4962 0.87955 0.50915 0.0
C2030 C 0.54451 0.83793 0.50891 0.0
C2031 C 0.52412 0.80815 0.50942 0.0
C2032 C 0.48915 0.81609 0.50979 0.0
C2033 C 0.47595 0.84999 0.50964 0.0
C2034 C 0.53237 0.70633 0.51139 0.0
C2035 C 0.56707 0.69889 0.50951 0.0
C2036 C 0.51882 0.7404 0.51137 0.0
C2037 C 0.53869 0.77015 0.5095 0.0
C2038 C 0.57329 0.76224 0.50764 0.0
C2039 C 0.58666 0.72847 0.50762 0.0
H2040 H 0.63357 0.26364 0.761 0.0
H2041 H 0.59462 0.36384 0.76329 0.0
H2042 H 0.57597 0.24163 0.76089 0.0
H2043 H 0.53748 0.34237 0.76325 0.0
H2044 H 0.42674 0.30089 0.76099 0.0
H2045 H 0.48433 0.3229 0.76106 0.0
H2046 H 0.52277 0.22214 0.76291 0.0
H2047 H 0.46563 0.20066 0.76277 0.0
C2048 C 0.61308 0.28143 0.76154 0.0
C2049 C 0.62092 0.31635 0.76221 0.0
C2050 C 0.57885 0.26852 0.76148 0.0
C2051 C 0.54923 0.28927 0.76207 0.0
C2052 C 0.5575 0.32412 0.76273 0.0
C2053 C 0.59149 0.33691 0.76279 0.0
C2054 C 0.44721 0.28309 0.76147 0.0
C2055 C 0.43936 0.24817 0.76194 0.0
C2056 C 0.48144 0.296 0.76151 0.0
C2057 C 0.51104 0.27525 0.76201 0.0
C2058 C 0.50277 0.24039 0.76247 0.0
C2059 C 0.46877 0.2276 0.76243 0.0
H2060 H 1.01698 0.18619 1.0131 0.0
H2061 H 0.11547 0.22602 1.00705 0.0
H2062 H 0.99403 0.24358 1.01313 0.0
H2063 H 0.09308 0.28283 1.00702 0.0
H2064 H 0.05059 0.39327 1.00912 0.0
H2065 H 0.07346 0.33592 1.00938 0.0
H2066 H 0.97322 0.29627 1.01054 0.0
H2067 H 0.95092 0.35319 1.01033 0.0
C2068 C 0.03421 0.20682 1.01179 0.0
C2069 C 0.06897 0.19933 1.01013 0.0
C2070 C 1.02074 0.2409 1.01176 0.0
C2071 C 0.04073 0.27064 1.01009 0.0
C2072 C 0.07541 0.26271 1.00844 0.0
C2073 C 0.08873 0.2289 1.00844 0.0
C2074 C 0.03309 0.37257 1.00946 0.0
C2075 C 0.99806 0.38 1.00973 0.0
C2076 C 0.0465 0.3385 1.00958 0.0
C2077 C 1.02616 0.30866 1.01 0.0
C2078 C 0.99118 0.31651 1.01029 0.0
C2079 C 0.97791 0.35036 1.01014 0.0
H2080 H 0.09845 0.70733 0.76155 0.0
H2081 H 0.13734 0.80746 0.76014 0.0
H2082 H 0.04134 0.7289 0.76154 0.0
H2083 H 0.07973 0.82963 0.76003 0.0
H2084 H 0.96934 0.87075 0.76114 0.0
H2085 H 1.02647 0.8492 0.7613 0.0
H2086 H 0.98817 0.74839 0.76011 0.0
H2087 H 0.93055 0.77049 0.76 0.0
C2088 C 0.0953 0.73428 0.76126 0.0
C2089 C 0.1247 0.75479 0.7609 0.0
C2090 C 0.06132 0.74713 0.76122 0.0
C2091 C 0.05303 0.78201 0.76079 0.0
C2092 C 0.08262 0.80271 0.76043 0.0
C2093 C 0.11686 0.78973 0.76048 0.0
C2094 C 0.97251 0.84378 0.76095 0.0
C2095 C 0.94313 0.82324 0.76062 0.0
C2096 C 1.00651 0.83095 0.76101 0.0
C2097 C 1.01482 0.79606 0.76073 0.0
C2098 C 0.98525 0.77532 0.7604 0.0
C2099 C 0.951 0.78828 0.76033 0.0
H2100 H 0.95027 0.2183 0.51227 0.0
H2101 H 0.04988 0.17757 0.51186 0.0
H2102 H 0.97264 0.27502 0.51222 0.0
H2103 H 0.07284 0.23487 0.51177 0.0
H2104 H 0.11532 0.34501 0.51275 0.0
H2105 H 0.09311 0.2881 0.5129 0.0
H2106 H 0.99291 0.32786 0.51086 0.0
H2107 H 1.01565 0.38515 0.51077 0.0
C2108 C 0.97727 0.22093 0.5122 0.0
C2109 C 0.99733 0.1911 0.51214 0.0
C2110 C 0.9906 0.25472 0.51213 0.0
C2111 C 1.0256 0.26244 0.51199 0.0
C2112 C 0.04588 0.23243 0.51192 0.0
C2113 C 1.0324 0.19837 0.51199 0.0
C2114 C 0.08835 0.34221 0.51236 0.0
C2115 C 0.06818 0.3719 0.5118 0.0
C2116 C 0.07513 0.30834 0.51242 0.0
C2117 C 0.04017 0.30048 0.51191 0.0
C2118 C 1.01984 0.33038 0.51133 0.0
C2119 C 0.03318 0.36446 0.51127 0.0
H2120 H 0.59314 0.20716 0.25857 0.0
H2121 H 0.63212 0.30721 0.26058 0.0
H2122 H 0.53602 0.22885 0.2587 0.0
H2123 H 0.57458 0.3295 0.26066 0.0
H2124 H 0.46419 0.37089 0.26103 0.0
H2125 H 0.52131 0.34921 0.26096 0.0
H2126 H 0.48281 0.2486 0.25865 0.0
H2127 H 0.42526 0.27083 0.25874 0.0
C2128 C 0.59001 0.23411 0.25904 0.0
C2129 C 0.61943 0.25455 0.25957 0.0
C2130 C 0.55602 0.24704 0.25912 0.0
C2131 C 0.54777 0.28195 0.25971 0.0
C2132 C 0.57741 0.30257 0.26022 0.0
C2133 C 0.61162 0.2895 0.26016 0.0
C2134 C 0.46732 0.34394 0.26053 0.0
C2135 C 0.43791 0.32349 0.25995 0.0
C2136 C 0.50131 0.33102 0.26047 0.0
C2137 C 0.50958 0.29613 0.2598 0.0
C2138 C 0.47996 0.27551 0.25921 0.0
C2139 C 0.44574 0.28855 0.25927 0.0
H2140 H 0.61052 0.84618 1.01116 0.0
H2141 H 0.51028 0.88538 1.0109 0.0
H2142 H 0.58904 0.78914 1.01119 0.0
H2143 H 0.48821 0.8278 1.01088 0.0
H2144 H 0.44739 0.71754 1.01165 0.0
H2145 H 0.46882 0.77464 1.01175 0.0
H2146 H 0.56962 0.73607 1.01019 0.0
H2147 H 0.54761 0.67849 1.01015 0.0
C2148 C 0.58356 0.84311 1.01114 0.0
C2149 C 0.56299 0.87256 1.0111 0.0
C2150 C 0.57077 0.80917 1.01113 0.0
C2151 C 0.5359 0.80099 1.01104 0.0
C2152 C 0.51513 0.83063 1.01099 0.0
C2153 C 0.52806 0.86484 1.01102 0.0
C2154 C 0.47433 0.72066 1.01135 0.0
C2155 C 0.49491 0.69125 1.01093 0.0
C2156 C 0.48709 0.75463 1.01139 0.0
C2157 C 0.52194 0.76284 1.01099 0.0
C2158 C 0.54272 0.73322 1.01056 0.0
C2159 C 0.52983 0.69901 1.01053 0.0
H2160 H 0.13304 0.26349 0.90133 0.0
H2161 H 0.09318 0.36347 0.90069 0.0
H2162 H 0.07569 0.24098 0.90135 0.0
H2163 H 0.03629 0.34156 0.90066 0.0
H2164 H 0.92605 0.29918 0.90145 0.0
H2165 H 0.9834 0.32172 0.90143 0.0
H2166 H 1.02283 0.22113 0.90063 0.0
H2167 H 0.96596 0.1992 0.9007 0.0
C2168 C 0.11238 0.28111 0.90115 0.0
C2169 C 0.11982 0.31611 0.90096 0.0
C2170 C 0.07831 0.26793 0.90116 0.0
C2171 C 0.04855 0.28849 0.901 0.0
C2172 C 0.05645 0.32344 0.90081 0.0
C2173 C 0.09028 0.33649 0.90081 0.0
C2174 C 0.94672 0.28156 0.90125 0.0
C2175 C 0.9393 0.24655 0.90105 0.0
C2176 C 0.98079 0.29476 0.90123 0.0
C2177 C 1.01056 0.2742 0.90102 0.0
C2178 C 1.00267 0.23925 0.90082 0.0
C2179 C 0.96885 0.22619 0.90084 0.0
H2180 H 0.45135 0.35018 0.64813 0.0
H2181 H 0.55097 0.39044 0.64926 0.0
H2182 H 0.47366 0.29336 0.648 0.0
H2183 H 0.57387 0.33303 0.6492 0.0
H2184 H 0.61619 0.22274 0.64745 0.0
H2185 H 0.59406 0.27976 0.64748 0.0
H2186 H 0.49381 0.24045 0.6496 0.0
H2187 H 0.51647 0.18304 0.6495 0.0
C2188 C 0.47835 0.34742 0.64833 0.0
C2189 C 0.49843 0.37714 0.64864 0.0
C2190 C 0.49163 0.31357 0.64829 0.0
C2191 C 0.52661 0.3057 0.64858 0.0
C2192 C 0.54692 0.3356 0.6489 0.0
C2193 C 0.53348 0.36972 0.64894 0.0
C2194 C 0.58923 0.22567 0.6479 0.0
C2195 C 0.56902 0.19607 0.64841 0.0
C2196 C 0.57606 0.25959 0.64795 0.0
C2197 C 0.54111 0.2676 0.64854 0.0
C2198 C 0.52073 0.2378 0.64907 0.0
C2199 C 0.53403 0.20366 0.64901 0.0
H2200 H 0.59712 0.86275 0.40035 0.0
H2201 H 0.63741 0.76291 0.39995 0.0
H2202 H 0.54035 0.84063 0.40014 0.0
H2203 H 0.58005 0.74019 0.39978 0.0
H2204 H 0.46984 0.69828 0.39848 0.0
H2205 H 0.52683 0.72021 0.39853 0.0
H2206 H 0.4875 0.8206 0.40116 0.0
H2207 H 0.43014 0.79814 0.40105 0.0
C2208 C 0.59437 0.83575 0.4002 0.0
C2209 C 0.62407 0.81554 0.40012 0.0
C2210 C 0.56056 0.82256 0.4001 0.0
C2211 C 0.55272 0.78759 0.39993 0.0
C2212 C 0.5826 0.76716 0.39986 0.0
C2213 C 0.61669 0.78048 0.39996 0.0
C2214 C 0.47277 0.72523 0.39904 0.0
C2215 C 0.4432 0.74556 0.3997 0.0
C2216 C 0.50667 0.73829 0.3991 0.0
C2217 C 0.51466 0.7732 0.39985 0.0
C2218 C 0.48487 0.79369 0.40052 0.0
C2219 C 0.45077 0.78051 0.40045 0.0
H2220 H 0.94665 0.85297 0.14857 0.0
H2221 H 0.04698 0.89137 0.14991 0.0
H2222 H 0.96796 0.79571 0.14838 0.0
H2223 H 0.06884 0.83365 0.14976 0.0
H2224 H 0.10957 0.72335 0.14831 0.0
H2225 H 0.08815 0.78048 0.14836 0.0
H2226 H 0.98732 0.74232 0.1495 0.0
H2227 H 1.00934 0.68461 0.14937 0.0
C2228 C 0.97358 0.84968 0.14881 0.0
C2229 C 0.99424 0.87899 0.14921 0.0
C2230 C 0.98627 0.81562 0.14872 0.0
C2231 C 1.0211 0.80717 0.14904 0.0
C2232 C 0.04194 0.83667 0.14945 0.0
C2233 C 1.02913 0.87098 0.14954 0.0
C2234 C 0.08262 0.72654 0.14853 0.0
C2235 C 0.06206 0.69717 0.14876 0.0
C2236 C 0.06986 0.76055 0.1486 0.0
C2237 C 0.03501 0.76891 0.14894 0.0
C2238 C 1.01423 0.73936 0.14918 0.0
C2239 C 1.02713 0.70507 0.1491 0.0
H2240 H 0.31322 0.26156 0.36413 0.0
H2241 H 0.20916 0.25498 0.3546 0.0
H2242 H 0.32624 0.28226 0.34352 0.0
H2243 H 0.22179 0.27542 0.33391 0.0
H2244 H 0.24622 0.32153 0.29522 0.0
H2245 H 0.233 0.30125 0.3159 0.0
H2246 H 0.33852 0.29425 0.3238 0.0
H2247 H 0.35126 0.31483 0.30317 0.0
C2248 C 0.29272 0.26431 0.35771 0.0
C2249 C 0.25974 0.25586 0.36171 0.0
C2250 C 0.30033 0.2765 0.34548 0.0
C2251 C 0.27564 0.28146 0.33609 0.0
C2252 C 0.24258 0.27291 0.34019 0.0
C2253 C 0.23501 0.26069 0.35242 0.0
C2254 C 0.2669 0.31573 0.30128 0.0
C2255 C 0.30022 0.32042 0.29684 0.0
C2256 C 0.25918 0.30364 0.31353 0.0
C2257 C 0.28411 0.29507 0.32248 0.0
C2258 C 0.3175 0.29999 0.31793 0.0
C2259 C 0.32515 0.3121 0.3057 0.0
H2260 H 1.0078 0.99976 0.54591 0.0
H2261 H 0.99544 0.1025 0.55693 0.0
H2262 H 1.02913 0.98603 0.56639 0.0
H2263 H 1.01699 0.08925 0.57739 0.0
H2264 H 0.04851 0.06059 0.61755 0.0
H2265 H 1.02718 0.07415 0.59708 0.0
H2266 H 0.05788 0.97663 0.58406 0.0
H2267 H 0.07888 0.96331 0.60463 0.0
C2268 C 1.00946 1.01983 0.55262 0.0
C2269 C 0.99908 0.05266 0.54909 0.0
C2270 C 1.02222 1.01183 0.56474 0.0
C2271 C 1.02574 0.03593 0.57448 0.0
C2272 C 1.01526 0.06883 0.57086 0.0
C2273 C 1.00257 0.0768 0.55874 0.0
C2274 C 0.05099 0.04175 0.61039 0.0
C2275 C 0.06623 1.01047 0.61342 0.0
C2276 C 0.03845 0.04972 0.59825 0.0
C2277 C 0.03985 1.02709 0.58798 0.0
C2278 C 0.05519 0.99571 0.59109 0.0
C2279 C 0.06779 0.98779 0.60324 0.0
H2280 H 0.35444 0.81798 0.85572 0.0
H2281 H 0.24981 0.81896 0.86486 0.0
H2282 H 0.34125 0.7975 0.83502 0.0
H2283 H 0.23618 0.79876 0.84413 0.0
H2284 H 0.21237 0.75046 0.80552 0.0
H2285 H 0.22552 0.77075 0.82626 0.0
H2286 H 0.32759 0.78793 0.81505 0.0
H2287 H 0.31412 0.76734 0.79438 0.0
C2288 C 0.32833 0.81402 0.85345 0.0
C2289 C 0.30367 0.82075 0.86268 0.0
C2290 C 0.32042 0.80198 0.84118 0.0
C2291 C 0.28702 0.79549 0.83695 0.0
C2292 C 0.26237 0.80242 0.84625 0.0
C2293 C 0.27033 0.81448 0.85853 0.0
C2294 C 0.23781 0.75844 0.80733 0.0
C2295 C 0.26173 0.75649 0.79756 0.0
C2296 C 0.24566 0.7706 0.8196 0.0
C2297 C 0.27824 0.78195 0.82329 0.0
C2298 C 0.30213 0.77986 0.81343 0.0
C2299 C 0.29423 0.76775 0.80116 0.0
H2300 H 0.50274 0.99761 0.11537 0.0
H2301 H 0.49679 0.10151 0.10561 0.0
H2302 H 0.52329 0.98385 0.09472 0.0
H2303 H 0.51715 0.08826 0.08495 0.0
H2304 H 0.55731 0.06265 1.04557 0.0
H2305 H 0.53635 0.07612 1.06615 0.0
H2306 H 0.54265 0.97166 1.07583 0.0
H2307 H 0.56364 0.95865 1.05518 0.0
C2308 C 0.50575 1.01792 0.1089 0.0
C2309 C 0.49769 0.05112 0.11285 0.0
C2310 C 0.51789 1.00989 0.09666 0.0
C2311 C 0.52303 1.03436 0.08722 0.0
C2312 C 0.51454 0.06759 0.09125 0.0
C2313 C 0.50248 0.07556 0.10349 0.0
C2314 C 0.55441 0.04225 1.05201 0.0
C2315 C 0.56295 1.00918 1.04805 0.0
C2316 C 0.54196 0.05011 1.06422 0.0
C2317 C 0.53683 1.02558 1.07363 0.0
C2318 C 0.54546 0.99239 1.06956 0.0
C2319 C 0.55793 0.98458 1.05735 0.0
H2320 H 0.35627 0.75262 0.35618 0.0
H2321 H 0.25151 0.74933 0.36502 0.0
H2322 H 0.34299 0.7726 0.33549 0.0
H2323 H 0.23782 0.7696 0.34439 0.0
H2324 H 0.2125 0.79971 0.30375 0.0
H2325 H 0.22587 0.77968 0.3244 0.0
H2326 H 0.33036 0.79957 0.31773 0.0
H2327 H 0.31658 0.81923 0.297 0.0
C2328 C 0.33012 0.75609 0.35386 0.0
C2329 C 0.30544 0.74874 0.36298 0.0
C2330 C 0.32217 0.76804 0.34163 0.0
C2331 C 0.28871 0.77372 0.33732 0.0
C2332 C 0.26404 0.76616 0.34652 0.0
C2333 C 0.27204 0.75426 0.35876 0.0
C2334 C 0.23854 0.79985 0.30654 0.0
C2335 C 0.263 0.81157 0.29798 0.0
C2336 C 0.24653 0.78814 0.31879 0.0
C2337 C 0.27984 0.78698 0.32368 0.0
C2338 C 0.30431 0.79891 0.31505 0.0
C2339 C 0.29625 0.81064 0.30278 0.0
H2340 H 0.56946 0.10938 0.60413 0.0
H2341 H 0.55624 1.00644 0.61426 0.0
H2342 H 0.5497 0.09672 0.58333 0.0
H2343 H 0.5358 0.99346 0.59357 0.0
H2344 H 0.5046 0.96819 0.5531 0.0
H2345 H 0.52477 0.98082 0.57381 0.0
H2346 H 0.52338 0.08623 0.56537 0.0
H2347 H 0.50334 0.0731 0.5446 0.0
C2348 C 0.56219 0.08382 0.60208 0.0
C2349 C 0.56492 0.0594 0.61155 0.0
C2350 C 0.55041 0.07624 0.58979 0.0
C2351 C 0.54009 0.04352 0.58584 0.0
C2352 C 0.54301 1.01909 0.59541 0.0
C2353 C 0.55496 1.02669 0.60769 0.0
C2354 C 0.50866 0.99424 0.55551 0.0
C2355 C 0.50193 1.01918 0.54649 0.0
C2356 C 0.52046 1.00183 0.56779 0.0
C2357 C 0.52677 0.03513 0.57219 0.0
C2358 C 0.51986 0.06008 0.56308 0.0
C2359 C 0.50795 0.05244 0.5508 0.0
H2360 H 0.35222 0.2548 0.80515 0.0
H2361 H 0.24749 0.25277 0.79635 0.0
H2362 H 0.33898 0.27483 0.82594 0.0
H2363 H 0.23386 0.27312 0.81708 0.0
H2364 H 0.20885 0.30133 0.8581 0.0
H2365 H 0.22212 0.28126 0.83734 0.0
H2366 H 0.32629 0.30372 0.84348 0.0
H2367 H 0.31265 0.32337 0.86431 0.0
C2368 C 0.3261 0.25857 0.8075 0.0
C2369 C 0.3014 0.25155 0.79837 0.0
C2370 C 0.31818 0.27056 0.81978 0.0
C2371 C 0.28473 0.27658 0.82412 0.0
C2372 C 0.26004 0.26934 0.81492 0.0
C2373 C 0.26802 0.25742 0.80262 0.0
C2374 C 0.23479 0.30204 0.85517 0.0
C2375 C 0.25924 0.31446 0.8636 0.0
C2376 C 0.24271 0.29033 0.84286 0.0
C2377 C 0.27591 0.28986 0.8378 0.0
C2378 C 0.30034 0.30248 0.8463 0.0
C2379 C 0.29236 0.31421 0.85863 0.0
H2380 H 0.05548 1.00879 1.0451 0.0
H2381 H 0.0757 0.10942 1.05709 0.0
H2382 H 0.03345 0.99528 1.0656 0.0
H2383 H 0.0537 0.0962 1.07759 0.0
H2384 H 0.99526 0.07272 0.11442 0.0
H2385 H 1.01677 0.08627 0.09385 0.0
H2386 H 1.03081 0.98113 0.08637 0.0
H2387 H 1.00925 0.96789 0.10693 0.0
C2388 C 0.05553 1.0284 1.05203 0.0
C2389 C 0.06827 0.06061 1.04876 0.0
C2390 C 0.04262 1.02046 1.06416 0.0
C2391 C 0.04091 0.04409 1.07412 0.0
C2392 C 0.05351 0.07639 1.07076 0.0
C2393 C 0.0667 0.08422 1.05867 0.0
C2394 C 1.00295 0.05217 0.10851 0.0
C2395 C 0.99991 1.01878 0.11304 0.0
C2396 C 1.01577 0.0601 0.09637 0.0
C2397 C 1.02654 0.03535 0.08759 0.0
C2398 C 1.02322 1.0019 0.09218 0.0
C2399 C 1.01067 0.99403 0.10435 0.0
H2400 H 0.81616 0.75872 0.86398 0.0
H2401 H 0.71167 0.76074 0.85481 0.0
H2402 H 0.83026 0.77896 0.84336 0.0
H2403 H 0.72528 0.78124 0.83424 0.0
H2404 H 0.75249 0.81418 0.7941 0.0
H2405 H 0.73864 0.79351 0.81464 0.0
H2406 H 0.84196 0.80443 0.82531 0.0
H2407 H 0.85544 0.82483 0.80468 0.0
C2408 C 0.79578 0.76345 0.85766 0.0
C2409 C 0.76232 0.75749 0.86175 0.0
C2410 C 0.80401 0.77552 0.84545 0.0
C2411 C 0.77953 0.78277 0.83618 0.0
C2412 C 0.74602 0.77658 0.84037 0.0
C2413 C 0.73785 0.7645 0.85257 0.0
C2414 C 0.77257 0.81236 0.80074 0.0
C2415 C 0.80551 0.82192 0.79704 0.0
C2416 C 0.76446 0.80017 0.81294 0.0
C2417 C 0.78856 0.79635 0.8226 0.0
C2418 C 0.8216 0.80602 0.81881 0.0
C2419 C 0.82966 0.81822 0.80661 0.0
H2420 H 0.74981 0.3275 0.36418 0.0
H2421 H 0.85408 0.30814 0.35758 0.0
H2422 H 0.73634 0.30733 0.34348 0.0
H2423 H 0.84107 0.28803 0.33681 0.0
H2424 H 0.81431 0.24489 0.2976 0.0
H2425 H 0.82801 0.26459 0.31841 0.0
H2426 H 0.72503 0.29373 0.32383 0.0
H2427 H 0.71178 0.2738 0.30313 0.0
C2428 C 0.77028 0.31892 0.35842 0.0
C2429 C 0.80345 0.32001 0.36328 0.0
C2430 C 0.76242 0.30704 0.34611 0.0
C2431 C 0.78701 0.29503 0.33749 0.0
C2432 C 0.82027 0.29624 0.34245 0.0
C2433 C 0.82808 0.30816 0.35475 0.0
C2434 C 0.79431 0.25555 0.30313 0.0
C2435 C 0.76149 0.25712 0.29797 0.0
C2436 C 0.80232 0.26727 0.31546 0.0
C2437 C 0.77825 0.28178 0.32378 0.0
C2438 C 0.74541 0.28324 0.3185 0.0
C2439 C 0.73747 0.27152 0.3062 0.0
H2440 H 0.7075 0.30785 0.80542 0.0
H2441 H 0.81244 0.31309 0.79701 0.0
H2442 H 0.7205 0.28734 0.82606 0.0
H2443 H 0.82586 0.29229 0.81759 0.0
H2444 H 0.85038 0.26153 0.85824 0.0
H2445 H 0.83733 0.28208 0.83763 0.0
H2446 H 0.73308 0.25956 0.84365 0.0
H2447 H 0.74652 0.23944 0.86434 0.0
C2448 C 0.73363 0.30471 0.80783 0.0
C2449 C 0.75845 0.31277 0.79885 0.0
C2450 C 0.74142 0.29244 0.82003 0.0
C2451 C 0.77484 0.28713 0.82444 0.0
C2452 C 0.79966 0.29541 0.81538 0.0
C2453 C 0.79181 0.30763 0.80317 0.0
C2454 C 0.82447 0.2609 0.85532 0.0
C2455 C 0.79995 0.24832 0.86367 0.0
C2456 C 0.81667 0.27291 0.84309 0.0
C2457 C 0.78352 0.27353 0.83804 0.0
C2458 C 0.75901 0.26071 0.84647 0.0
C2459 C 0.76687 0.2487 0.85871 0.0
H2460 H 0.81551 0.80484 0.36603 0.0
H2461 H 0.71327 0.81977 0.3552 0.0
H2462 H 0.82885 0.78302 0.34548 0.0
H2463 H 0.72623 0.79826 0.33461 0.0
H2464 H 0.7501 0.75003 0.29611 0.0
H2465 H 0.73691 0.77135 0.31671 0.0
H2466 H 0.84196 0.77005 0.32572 0.0
H2467 H 0.85471 0.74839 0.30511 0.0
C2468 C 0.79549 0.80375 0.35934 0.0
C2469 C 0.7629 0.8149 0.36297 0.0
C2470 C 0.8033 0.79089 0.34714 0.0
C2471 C 0.77921 0.78787 0.33742 0.0
C2472 C 0.74656 0.79911 0.34115 0.0
C2473 C 0.73881 0.812 0.35333 0.0
C2474 C 0.77071 0.7541 0.3024 0.0
C2475 C 0.80388 0.74669 0.29825 0.0
C2476 C 0.76301 0.76686 0.3146 0.0
C2477 C 0.78779 0.7735 0.32384 0.0
C2478 C 0.82104 0.76592 0.31961 0.0
C2479 C 0.8287 0.75314 0.3074 0.0
H2480 H 0.55762 0.45801 0.1063 0.0
H2481 H 0.56407 0.563 0.11475 0.0
H2482 H 0.53691 0.47118 0.08567 0.0
H2483 H 0.5431 0.57653 0.09417 0.0
H2484 H 0.51598 0.60049 1.05306 0.0
H2485 H 0.53651 0.58727 1.07368 0.0
H2486 H 0.50581 0.48469 1.06866 0.0
H2487 H 0.48564 0.49824 1.04796 0.0
C2488 C 0.55476 0.48418 0.1039 0.0
C2489 C 0.56331 0.50898 0.11288 0.0
C2490 C 0.54235 0.49205 0.09172 0.0
C2491 C 0.53741 0.52552 0.08733 0.0
C2492 C 0.54608 0.5503 0.09638 0.0
C2493 C 0.55838 0.54239 0.10858 0.0
C2494 C 0.51354 0.5749 1.0562 0.0
C2495 C 0.49862 0.55087 1.04813 0.0
C2496 C 0.52549 0.56703 1.06843 0.0
C2497 C 0.52382 0.53428 1.07375 0.0
C2498 C 0.5088 0.51024 1.0656 0.0
C2499 C 0.49678 0.51818 1.05336 0.0
H2500 H 1.00059 0.49669 0.61534 0.0
H2501 H 1.00198 0.6014 0.60655 0.0
H2502 H 1.02119 0.48307 0.59464 0.0
H2503 H 1.02274 0.5883 0.58592 0.0
H2504 H 0.05651 0.56218 0.54571 0.0
H2505 H 0.03581 0.57557 0.56636 0.0
H2506 H 0.04651 0.47182 0.57648 0.0
H2507 H 0.06675 0.4588 0.55573 0.0
C2508 C 1.0053 0.51721 0.60909 0.0
C2509 C 0.99913 0.55058 0.61331 0.0
C2510 C 1.01755 0.50927 0.59684 0.0
C2511 C 1.02471 0.534 0.58766 0.0
C2512 C 1.01825 0.56741 0.59198 0.0
C2513 C 1.00606 0.57528 0.60422 0.0
C2514 C 0.05447 0.5419 0.55224 0.0
C2515 C 0.06374 0.50896 0.54835 0.0
C2516 C 0.04233 0.54973 0.5645 0.0
C2517 C 0.03839 0.52533 0.57404 0.0
C2518 C 0.04803 0.49235 0.57007 0.0
C2519 C 0.06008 0.48456 0.5578 0.0
H2520 H 0.06402 0.6109 0.10425 0.0
H2521 H 0.05445 0.50731 0.11409 0.0
H2522 H 0.04423 0.59797 0.08343 0.0
H2523 H 0.03427 0.49409 0.09336 0.0
H2524 H 1.00849 0.46835 1.05228 0.0
H2525 H 1.02839 0.48147 1.07304 0.0
H2526 H 1.01391 0.58666 1.06602 0.0
H2527 H 0.99435 0.57313 1.0452 0.0
C2528 C 0.05774 0.58512 0.10212 0.0
C2529 C 0.06158 0.56058 0.11153 0.0
C2530 C 0.04588 0.57741 0.08983 0.0
C2531 C 0.03677 0.54439 0.08579 0.0
C2532 C 0.04069 0.5199 0.09528 0.0
C2533 C 0.05251 0.52765 0.10757 0.0
C2534 C 1.0095 0.49447 1.05502 0.0
C2535 C 0.99931 0.51923 1.04637 0.0
C2536 C 1.02108 0.50231 1.06732 0.0
C2537 C 1.02368 0.53573 1.07212 0.0
C2538 C 1.01337 0.56049 1.06339 0.0
C2539 C 1.0017 0.55259 1.05108 0.0
H2540 H 0.49567 0.46602 0.60399 0.0
H2541 H 0.51123 0.56768 0.61572 0.0
H2542 H 0.51731 0.47968 0.58355 0.0
H2543 H 0.53276 0.58182 0.59533 0.0
H2544 H 0.57964 0.60662 0.55702 0.0
H2545 H 0.55831 0.59265 0.57743 0.0
H2546 H 0.53126 0.49431 0.56424 0.0
H2547 H 0.55295 0.50865 0.54386 0.0
C2548 C 0.5036 0.49155 0.60234 0.0
C2549 C 0.50096 0.51531 0.61214 0.0
C2550 C 0.51636 0.49976 0.59025 0.0
C2551 C 0.52777 0.53251 0.58685 0.0
C2552 C 0.52506 0.55619 0.59677 0.0
C2553 C 0.51222 0.54795 0.60885 0.0
C2554 C 0.56928 0.58183 0.55834 0.0
C2555 C 0.56883 0.5592 0.54814 0.0
C2556 C 0.5565 0.57349 0.57041 0.0
C2557 C 0.54204 0.5417 0.57342 0.0
C2558 C 0.54172 0.51907 0.56313 0.0
C2559 C 0.55449 0.52747 0.55104 0.0
H2560 H 0.35402 0.18425 0.42632 0.0
H2561 H 0.26349 0.13368 0.4364 0.0
H2562 H 0.38501 0.15262 0.44186 0.0
H2563 H 0.29456 0.10154 0.45204 0.0
H2564 H 0.3597 0.03572 0.48118 0.0
H2565 H 0.32686 0.0669 0.46572 0.0
H2566 H 0.41303 0.12744 0.45781 0.0
H2567 H 0.44533 0.09644 0.47309 0.0
C2568 C 0.34002 0.16637 0.43174 0.0
C2569 C 0.30476 0.16308 0.42927 0.0
C2570 C 0.35852 0.14744 0.44107 0.0
C2571 C 0.34412 0.12265 0.44912 0.0
C2572 C 0.30869 0.11929 0.44663 0.0
C2573 C 0.29008 0.13845 0.43729 0.0
C2574 C 0.37218 0.05574 0.47631 0.0
C2575 C 0.40681 0.06217 0.47922 0.0
C2576 C 0.35265 0.07437 0.46705 0.0
C2577 C 0.36546 0.1015 0.45961 0.0
C2578 C 0.40007 0.10767 0.46262 0.0
C2579 C 0.41944 0.08916 0.47181 0.0
H2580 H 0.20763 0.16909 0.73673 0.0
H2581 H 0.30013 0.13563 0.72075 0.0
H2582 H 0.17619 0.13693 0.72132 0.0
H2583 H 0.26861 0.10351 0.7051 0.0
H2584 H 0.20219 0.05127 0.67222 0.0
H2585 H 0.23565 0.08328 0.68742 0.0
H2586 H 0.14795 0.09587 0.70988 0.0
H2587 H 0.11515 0.06389 0.69492 0.0
C2588 C 0.22201 0.15496 0.73002 0.0
C2589 C 0.25799 0.15647 0.73085 0.0
C2590 C 0.20322 0.13564 0.72079 0.0
C2591 C 0.21802 0.11569 0.71108 0.0
C2592 C 0.25417 0.11741 0.71184 0.0
C2593 C 0.27303 0.13649 0.72121 0.0
C2594 C 0.18937 0.06077 0.6803 0.0
C2595 C 0.15409 0.05365 0.68151 0.0
C2596 C 0.20933 0.07976 0.68942 0.0
C2597 C 0.19631 0.09413 0.70073 0.0
C2598 C 0.16107 0.08693 0.7018 0.0
C2599 C 0.14139 0.06775 0.69282 0.0
H2600 H 0.12006 1.00562 0.96846 0.0
H2601 H 0.20852 1.02061 0.99006 0.0
H2602 H 0.15233 0.97402 0.95321 0.0
H2603 H 0.2415 0.98882 0.97453 0.0
H2604 H 0.30426 0.93587 0.94065 0.0
H2605 H 0.27349 0.96773 0.95667 0.0
H2606 H 0.18035 0.93428 0.94126 0.0
H2607 H 0.21104 0.90248 0.92549 0.0
C2608 C 0.14653 1.00233 0.97027 0.0
C2609 C 0.15976 1.01696 0.98138 0.0
C2610 C 0.16591 0.98337 0.9611 0.0
C2611 C 0.20136 0.97688 0.96174 0.0
C2612 C 0.21494 0.99176 0.97286 0.0
C2613 C 0.19528 1.0106 0.98218 0.0
C2614 C 0.27715 0.93497 0.94045 0.0
C2615 C 0.26166 0.91511 0.93091 0.0
C2616 C 0.25873 0.95389 0.95004 0.0
C2617 C 0.22263 0.95551 0.95115 0.0
C2618 C 0.20739 0.93565 0.94154 0.0
C2619 C 0.22574 0.91653 0.93209 0.0
H2620 H 0.26625 0.94482 0.22755 0.0
H2621 H 0.34908 0.87667 0.22987 0.0
H2622 H 0.29666 0.9773 0.21179 0.0
H2623 H 0.37933 0.90863 0.21422 0.0
H2624 H 0.4353 0.96444 0.18166 0.0
H2625 H 0.404 0.93353 0.19731 0.0
H2626 H 0.33068 1.01238 0.19871 0.0
H2627 H 0.36253 0.04349 0.18295 0.0
C2628 C 0.291 0.93619 0.22491 0.0
C2629 C 0.3038 0.90656 0.23083 0.0
C2630 C 0.3092 0.95553 0.2155 0.0
C2631 C 0.34222 0.9474 0.21082 0.0
C2632 C 0.35471 0.91768 0.21677 0.0
C2633 C 0.33667 0.89856 0.22617 0.0
C2634 C 0.41252 0.97587 0.18512 0.0
C2635 C 0.40304 1.00793 0.18019 0.0
C2636 C 0.39378 0.95743 0.19453 0.0
C2637 C 0.363 0.96863 0.20019 0.0
C2638 C 0.35337 1.00083 0.19523 0.0
C2639 C 0.37234 1.01946 0.18582 0.0
H2640 H 0.71532 0.88702 0.72979 0.0
H2641 H 0.80114 0.94967 0.72438 0.0
H2642 H 0.68451 0.91855 0.7141 0.0
H2643 H 0.77006 0.98191 0.70873 0.0
H2644 H 0.70017 0.05154 0.68214 0.0
H2645 H 0.73255 1.02052 0.69777 0.0
H2646 H 0.66256 0.9392 0.69536 0.0
H2647 H 0.63084 0.96988 0.67971 0.0
C2648 C 0.7283 0.90756 0.7254 0.0
C2649 C 0.76225 0.91415 0.72916 0.0
C2650 C 0.70993 0.92639 0.71599 0.0
C2651 C 0.72303 0.95456 0.70927 0.0
C2652 C 0.75704 0.96137 0.7131 0.0
C2653 C 0.77565 0.94213 0.72242 0.0
C2654 C 0.6912 1.02698 0.68474 0.0
C2655 C 0.66131 1.01469 0.67883 0.0
C2656 C 0.7105 1.00841 0.69406 0.0
C2657 C 0.70191 0.97562 0.69871 0.0
C2658 C 0.67186 0.96366 0.69282 0.0
C2659 C 0.65292 0.98195 0.68342 0.0
H2660 H 0.86784 0.04517 0.47808 0.0
H2661 H 0.9354 0.96218 0.4815 0.0
H2662 H 0.83621 1.0141 0.46218 0.0
H2663 H 0.90426 0.93128 0.46567 0.0
H2664 H 0.85086 0.87525 0.43209 0.0
H2665 H 0.8811 0.90697 0.44795 0.0
H2666 H 0.80069 0.97847 0.44955 0.0
H2667 H 0.7702 0.94617 0.43369 0.0
C2668 C 0.87655 1.02027 0.47566 0.0
C2669 C 0.90577 1.00772 0.48194 0.0
C2670 C 0.85768 1.00165 0.46616 0.0
C2671 C 0.8659 0.96835 0.46171 0.0
C2672 C 0.89521 0.95608 0.46801 0.0
C2673 C 0.91384 0.97453 0.47753 0.0
C2674 C 0.83891 0.89768 0.43566 0.0
C2675 C 0.80656 0.90646 0.43076 0.0
C2676 C 0.85697 0.91668 0.44518 0.0
C2677 C 0.84514 0.94715 0.45097 0.0
C2678 C 0.81272 0.95608 0.44601 0.0
C2679 C 0.79444 0.93679 0.43653 0.0
H2680 H 0.9224 0.11082 0.17664 0.0
H2681 H 0.87329 1.01991 0.18713 0.0
H2682 H 0.89076 0.14188 0.19232 0.0
H2683 H 0.84132 0.05104 0.203 0.0
H2684 H 0.78569 0.11442 0.23589 0.0
H2685 H 0.81699 0.08129 0.22033 0.0
H2686 H 0.85477 0.1724 0.20475 0.0
H2687 H 0.82352 0.20493 0.22006 0.0
C2688 C 0.90481 0.09675 0.18216 0.0
C2689 C 0.90189 0.06137 0.17973 0.0
C2690 C 0.88579 0.11532 0.19156 0.0
C2691 C 0.86154 0.10084 0.19983 0.0
C2692 C 0.85873 0.06522 0.19745 0.0
C2693 C 0.87771 0.0466 0.18795 0.0
C2694 C 0.80074 0.128 0.2293 0.0
C2695 C 0.80081 0.1641 0.23011 0.0
C2696 C 0.81932 0.10828 0.21995 0.0
C2697 C 0.84034 0.12232 0.2104 0.0
C2698 C 0.84026 0.15836 0.21135 0.0
C2699 C 0.82154 0.1779 0.22054 0.0
H2700 H 0.68792 1.01309 0.97447 0.0
H2701 H 0.63083 0.10174 0.98237 0.0
H2702 H 0.72062 0.04423 0.95897 0.0
H2703 H 0.66285 0.13268 0.96684 0.0
H2704 H 0.71454 0.18792 0.93297 0.0
H2705 H 0.68339 0.15602 0.94844 0.0
H2706 H 0.76004 0.08038 0.948 0.0
H2707 H 0.79154 0.1129 0.93252 0.0
C2708 C 0.68174 0.03923 0.97309 0.0
C2709 C 0.65515 0.05341 0.98045 0.0
C2710 C 0.70125 0.05786 0.96386 0.0
C2711 C 0.69609 0.09269 0.96078 0.0
C2712 C 0.66932 0.1066 0.96813 0.0
C2713 C 0.65022 0.08816 0.97745 0.0
C2714 C 0.72545 0.16453 0.93601 0.0
C2715 C 0.75704 0.15461 0.9307 0.0
C2716 C 0.7069 0.14548 0.94529 0.0
C2717 C 0.71743 0.11386 0.95034 0.0
C2718 C 0.74908 0.10373 0.94497 0.0
C2719 C 0.76793 0.1231 0.93574 0.0
H2720 H 0.76651 0.62523 0.93284 0.0
H2721 H 0.8499 0.69208 0.92944 0.0
H2722 H 0.79754 0.5927 0.94841 0.0
H2723 H 0.88068 0.66017 0.94499 0.0
H2724 H 0.93525 0.60653 0.97852 0.0
H2725 H 0.90347 0.63747 0.96299 0.0
H2726 H 0.83429 0.55555 0.96003 0.0
H2727 H 0.86668 0.52434 0.9756 0.0
C2728 C 0.79146 0.63362 0.93522 0.0
C2729 C 0.80421 0.66289 0.92907 0.0
C2730 C 0.81005 0.61422 0.9445 0.0
C2731 C 0.84338 0.62204 0.94885 0.0
C2732 C 0.85581 0.65145 0.94269 0.0
C2733 C 0.83746 0.67052 0.93336 0.0
C2734 C 0.91333 0.59438 0.97471 0.0
C2735 C 0.90518 0.56142 0.97913 0.0
C2736 C 0.89433 0.61284 0.96538 0.0
C2737 C 0.86451 0.6008 0.95935 0.0
C2738 C 0.85616 0.56775 0.96383 0.0
C2739 C 0.87548 0.54906 0.97311 0.0
H2740 H 0.69569 0.51604 0.18364 0.0
H2741 H 0.62621 0.59782 0.18154 0.0
H2742 H 0.72858 0.54742 0.19913 0.0
H2743 H 0.65837 0.62879 0.19711 0.0
H2744 H 0.71174 0.68052 0.23185 0.0
H2745 H 0.68042 0.64874 0.21625 0.0
H2746 H 0.76698 0.58735 0.20948 0.0
H2747 H 0.79859 0.61989 0.22499 0.0
C2748 C 0.68673 0.54066 0.18631 0.0
C2749 C 0.65662 0.55285 0.18053 0.0
C2750 C 0.70636 0.55946 0.19554 0.0
C2751 C 0.69789 0.59239 0.20026 0.0
C2752 C 0.66761 0.60425 0.1945 0.0
C2753 C 0.6484 0.58577 0.18516 0.0
C2754 C 0.72486 0.66039 0.22716 0.0
C2755 C 0.75928 0.65447 0.23049 0.0
C2756 C 0.70617 0.64142 0.2178 0.0
C2757 C 0.71937 0.61367 0.21073 0.0
C2758 C 0.75384 0.6075 0.21414 0.0
C2759 C 0.77276 0.62694 0.22338 0.0
H2760 H 0.71094 0.40278 0.42544 0.0
H2761 H 0.80416 0.43691 0.4404 0.0
H2762 H 0.68026 0.43456 0.44121 0.0
H2763 H 0.77339 0.46876 0.45642 0.0
H2764 H 0.7085 0.52114 0.48984 0.0
H2765 H 0.74153 0.48933 0.47433 0.0
H2766 H 0.65241 0.47463 0.45295 0.0
H2767 H 0.62012 0.50617 0.46818 0.0
C2768 C 0.72562 0.41701 0.432 0.0
C2769 C 0.76151 0.41585 0.43078 0.0
C2770 C 0.7073 0.43611 0.44143 0.0
C2771 C 0.72258 0.45614 0.45097 0.0
C2772 C 0.75866 0.45475 0.44983 0.0
C2773 C 0.77704 0.43587 0.44025 0.0
C2774 C 0.69532 0.51113 0.48194 0.0
C2775 C 0.65982 0.51745 0.48111 0.0
C2776 C 0.71498 0.4923 0.47264 0.0
C2777 C 0.70137 0.47747 0.46153 0.0
C2778 C 0.66596 0.48394 0.46085 0.0
C2779 C 0.64659 0.50286 0.47 0.0
H2780 H 0.76109 0.44008 0.72494 0.0
H2781 H 0.85034 0.38488 0.73322 0.0
H2782 H 0.79209 0.47213 0.70921 0.0
H2783 H 0.88122 0.41644 0.71762 0.0
H2784 H 0.94193 0.47401 0.68671 0.0
H2785 H 0.90972 0.44321 0.70209 0.0
H2786 H 0.82407 0.50523 0.69484 0.0
H2787 H 0.85682 0.5362 0.67926 0.0
C2788 C 0.78738 0.43423 0.72364 0.0
C2789 C 0.80169 0.4083 0.7312 0.0
C2790 C 0.80595 0.45335 0.71423 0.0
C2791 C 0.84103 0.44874 0.71122 0.0
C2792 C 0.85504 0.42271 0.71882 0.0
C2793 C 0.83658 0.40378 0.7282 0.0
C2794 C 0.91617 0.48167 0.68814 0.0
C2795 C 0.9037 0.50902 0.68085 0.0
C2796 C 0.89682 0.46325 0.6974 0.0
C2797 C 0.86236 0.46985 0.70065 0.0
C2798 C 0.84972 0.49738 0.69334 0.0
C2799 C 0.86922 0.5159 0.68401 0.0
H2800 H 0.21153 0.38404 0.22839 0.0
H2801 H 0.29283 0.45371 0.22593 0.0
H2802 H 0.18046 0.41563 0.2128 0.0
H2803 H 0.26138 0.48601 0.21039 0.0
H2804 H 0.18951 0.55451 0.18404 0.0
H2805 H 0.22212 0.52354 0.1996 0.0
H2806 H 0.1596 0.43743 0.19398 0.0
H2807 H 0.12765 0.46815 0.17837 0.0
C2808 C 0.22345 0.40616 0.22468 0.0
C2809 C 0.25626 0.41464 0.22924 0.0
C2810 C 0.20491 0.42504 0.21533 0.0
C2811 C 0.21661 0.45516 0.20945 0.0
C2812 C 0.24945 0.46388 0.21407 0.0
C2813 C 0.26829 0.44461 0.22334 0.0
C2814 C 0.18223 0.52891 0.18591 0.0
C2815 C 0.15431 0.51536 0.17912 0.0
C2816 C 0.2017 0.51036 0.19519 0.0
C2817 C 0.19526 0.47623 0.19894 0.0
C2818 C 0.16716 0.46296 0.19217 0.0
C2819 C 0.14808 0.48128 0.1828 0.0
H2820 H 0.36224 0.54465 0.97898 0.0
H2821 H 0.43497 0.46551 0.97938 0.0
H2822 H 0.32972 0.51366 0.9633 0.0
H2823 H 0.403 0.43471 0.96382 0.0
H2824 H 0.34701 0.37844 0.93131 0.0
H2825 H 0.3779 0.41026 0.94691 0.0
H2826 H 0.2951 0.47858 0.95044 0.0
H2827 H 0.26404 0.44622 0.93474 0.0
C2828 C 0.37188 0.52062 0.97593 0.0
C2829 C 0.40277 0.50899 0.98127 0.0
C2830 C 0.35253 0.50208 0.96657 0.0
C2831 C 0.36195 0.46992 0.9614 0.0
C2832 C 0.39292 0.45861 0.96678 0.0
C2833 C 0.41205 0.47697 0.97613 0.0
C2834 C 0.3347 0.4002 0.93526 0.0
C2835 C 0.30158 0.40817 0.93095 0.0
C2836 C 0.35312 0.41924 0.94462 0.0
C2837 C 0.34077 0.4488 0.95084 0.0
C2838 C 0.30752 0.45691 0.9465 0.0
C2839 C 0.28893 0.43764 0.93713 0.0
H2840 H 0.43661 0.60557 0.67971 0.0
H2841 H 0.36735 0.52399 0.68252 0.0
H2842 H 0.40513 0.63689 0.69542 0.0
H2843 H 0.33533 0.55557 0.69828 0.0
H2844 H 0.26735 0.62711 0.72518 0.0
H2845 H 0.2982 0.59425 0.70948 0.0
H2846 H 0.38337 0.65861 0.71412 0.0
H2847 H 0.35279 0.69077 0.72987 0.0
C2848 C 0.41461 0.59364 0.68353 0.0
C2849 C 0.40613 0.56073 0.67901 0.0
C2850 C 0.39582 0.61231 0.69296 0.0
C2851 C 0.36592 0.60056 0.69901 0.0
C2852 C 0.35726 0.56757 0.69445 0.0
C2853 C 0.37635 0.54867 0.68505 0.0
C2854 C 0.29271 0.63476 0.72304 0.0
C2855 C 0.30607 0.66324 0.7296 0.0
C2856 C 0.31119 0.61514 0.71369 0.0
C2857 C 0.34499 0.62203 0.70963 0.0
C2858 C 0.35808 0.65068 0.71618 0.0
C2859 C 0.33985 0.66989 0.72563 0.0
H2860 H 0.19873 0.51528 0.47715 0.0
H2861 H 0.1313 0.59853 0.48056 0.0
H2862 H 0.23126 0.54626 0.46153 0.0
H2863 H 0.16319 0.62922 0.46495 0.0
H2864 H 0.21651 0.68307 0.43104 0.0
H2865 H 0.18563 0.65138 0.44665 0.0
H2866 H 0.26873 0.58364 0.45007 0.0
H2867 H 0.29991 0.616 0.43446 0.0
C2868 C 0.19021 0.54019 0.47477 0.0
C2869 C 0.16077 0.55291 0.48095 0.0
C2870 C 0.20961 0.55875 0.46545 0.0
C2871 C 0.20164 0.59202 0.46108 0.0
C2872 C 0.17205 0.60441 0.46726 0.0
C2873 C 0.15299 0.58609 0.47663 0.0
C2874 C 0.22894 0.6615 0.43497 0.0
C2875 C 0.26224 0.65377 0.43066 0.0
C2876 C 0.21052 0.64256 0.44435 0.0
C2877 C 0.22288 0.61313 0.45053 0.0
C2878 C 0.25625 0.60518 0.44616 0.0
C2879 C 0.27493 0.62449 0.43684 0.0
H2880 H 0.25282 0.05268 0.3375 0.0
H2881 H 0.31795 0.04706 0.3691 0.0
H2882 H 0.26467 0.99389 0.33282 0.0
H2883 H 0.3295 0.9877 0.36446 0.0
H2884 H 0.33775 0.91155 0.32242 0.0
H2885 H 0.34959 0.9518 0.33873 0.0
H2886 H 0.249 0.94037 0.35249 0.0
H2887 H 0.23607 0.90265 0.33575 0.0
C2888 C 0.27027 0.03902 0.34324 0.0
C2889 C 0.28443 0.05407 0.35362 0.0
C2890 C 0.27678 1.0055 0.34068 0.0
C2891 C 0.29714 0.98648 0.34857 0.0
C2892 C 0.31339 1.002 0.35843 0.0
C2893 C 0.30706 0.03583 0.36095 0.0
C2894 C 0.31864 0.91623 0.32932 0.0
C2895 C 0.28515 0.90669 0.32719 0.0
C2896 C 0.32568 0.93893 0.33877 0.0
C2897 C 0.29947 0.95033 0.34628 0.0
C2898 C 0.26923 0.93244 0.34646 0.0
C2899 C 0.2618 0.91077 0.33677 0.0
H2900 H 0.29712 0.95913 0.60102 0.0
H2901 H 0.33325 0.97677 0.63793 0.0
H2902 H 0.35235 0.97216 0.59288 0.0
H2903 H 0.38929 0.99014 0.62959 0.0
H2904 H 0.45153 0.95045 0.58375 0.0
H2905 H 0.4288 0.94409 0.60439 0.0
H2906 H 0.38925 0.04448 0.60305 0.0
H2907 H 0.40916 0.0503 0.58225 0.0
C2908 C 0.31704 0.9654 0.60739 0.0
C2909 C 0.31101 0.96715 0.62006 0.0
C2910 C 0.34856 0.97271 0.60276 0.0
C2911 C 0.37469 0.98208 0.61068 0.0
C2912 C 0.36934 0.98281 0.6234 0.0
C2913 C 0.33753 0.9751 0.6281 0.0
C2914 C 0.43901 0.97168 0.588 0.0
C2915 C 0.42958 0.99969 0.58097 0.0
C2916 C 0.42685 0.9683 0.59997 0.0
C2917 C 0.40598 0.99324 0.60493 0.0
C2918 C 0.40476 1.02463 0.59922 0.0
C2919 C 0.41597 1.02774 0.58713 0.0
H2920 H 0.27338 0.12448 0.83444 0.0
H2921 H 0.21191 0.09905 0.80314 0.0
H2922 H 0.25048 0.0767 0.84556 0.0
H2923 H 0.19016 0.05048 0.81407 0.0
H2924 H 0.27246 0.95989 0.82844 0.0
H2925 H 0.24789 1.0088 0.81846 0.0
H2926 H 0.19498 1.03397 0.85193 0.0
H2927 H 0.21828 0.98408 0.86172 0.0
C2928 C 0.25365 0.10975 0.83023 0.0
C2929 C 0.24468 0.11492 0.81795 0.0
C2930 C 0.24037 0.08257 0.83658 0.0
C2931 C 0.21889 0.05997 0.83054 0.0
C2932 C 0.20647 0.06782 0.81888 0.0
C2933 C 0.21905 0.09552 0.81265 0.0
C2934 C 0.25397 0.97473 0.83336 0.0
C2935 C 0.24727 0.96866 0.84577 0.0
C2936 C 0.23975 1.00254 0.82768 0.0
C2937 C 0.2197 1.02495 0.83452 0.0
C2938 C 0.21002 1.01672 0.8465 0.0
C2939 C 0.22345 0.98834 0.85207 0.0
H2940 H 0.28495 1.0123 1.03916 0.0
H2941 H 0.34465 0.08627 1.02037 0.0
H2942 H 0.3315 0.99902 1.05224 0.0
H2943 H 0.39269 0.0718 1.03317 0.0
H2944 H 0.41653 0.0992 1.07411 0.0
H2945 H 0.39939 0.09044 1.05309 0.0
H2946 H 0.38229 0.9854 1.06061 0.0
H2947 H 0.39605 0.99508 0.082 0.0
C2948 C 0.30872 1.02448 1.03737 0.0
C2949 C 0.3109 0.05109 1.02903 0.0
C2950 C 0.3358 1.01677 1.04491 0.0
C2951 C 0.36573 0.03538 1.04418 0.0
C2952 C 0.36957 0.05799 1.03437 0.0
C2953 C 0.34217 0.06616 1.02696 0.0
C2954 C 0.40926 0.07417 1.07128 0.0
C2955 C 0.40584 0.04841 1.07994 0.0
C2956 C 0.40009 0.06885 1.05906 0.0
C2957 C 0.3879 0.03739 1.05518 0.0
C2958 C 0.39008 1.01032 1.06338 0.0
C2959 C 0.3984 1.01585 1.07569 0.0
H2960 H 0.75495 0.03629 0.78625 0.0
H2961 H 0.78038 1.01099 0.82361 0.0
H2962 H 0.74142 0.09393 0.79275 0.0
H2963 H 0.76548 0.06788 0.83019 0.0
H2964 H 0.82447 0.15767 0.82577 0.0
H2965 H 0.80397 0.12622 0.80824 0.0
H2966 H 0.70589 0.12139 0.82477 0.0
H2967 H 0.72558 0.15532 0.84195 0.0
C2968 C 0.75608 0.04282 0.79593 0.0
C2969 C 0.7685 1.01973 0.80452 0.0
C2970 C 0.74827 0.07552 0.79959 0.0
C2971 C 0.75204 0.08483 0.81192 0.0
C2972 C 0.76173 0.06077 0.82065 0.0
C2973 C 0.77035 1.02844 0.81695 0.0
C2974 C 0.79787 0.15248 0.82524 0.0
C2975 C 0.77706 0.15666 0.83556 0.0
C2976 C 0.78603 0.13451 0.81512 0.0
C2977 C 0.75397 0.12012 0.81561 0.0
C2978 C 0.73096 0.13176 0.82438 0.0
C2979 C 0.74246 0.15077 0.8343 0.0
H2980 H 0.6602 0.98841 0.58364 0.0
H2981 H 0.63938 0.09066 0.57293 0.0
H2982 H 0.6775 0.97538 0.56292 0.0
H2983 H 0.66073 0.07859 0.55259 0.0
H2984 H 0.72637 0.06803 0.52181 0.0
H2985 H 0.67518 0.05719 0.53351 0.0
H2986 H 0.73079 0.98951 0.5569 0.0
H2987 H 0.78056 0.99937 0.54504 0.0
C2988 C 0.65846 1.00811 0.57688 0.0
C2989 C 0.65046 0.04135 0.58024 0.0
C2990 C 0.66889 1.0006 0.56492 0.0
C2991 C 0.67294 1.02639 0.55629 0.0
C2992 C 0.65913 0.05809 0.55904 0.0
C2993 C 0.64753 0.06532 0.57087 0.0
C2994 C 0.72708 0.04996 0.5292 0.0
C2995 C 0.75754 0.03506 0.53267 0.0
C2996 C 0.69782 0.0438 0.53594 0.0
C2997 C 0.69879 1.02325 0.54642 0.0
C2998 C 0.72852 1.00537 0.5489 0.0
C2999 C 0.75747 1.01116 0.54208 0.0
H3000 H 0.70289 0.05093 0.35391 0.0
H3001 H 0.78057 0.07135 0.38057 0.0
H3002 H 0.70511 0.10833 0.34712 0.0
H3003 H 0.78362 0.12968 0.3733 0.0
H3004 H 0.79612 0.17755 0.33012 0.0
H3005 H 0.79989 0.15173 0.35027 0.0
H3006 H 0.69465 0.17032 0.35618 0.0
H3007 H 0.68996 0.19324 0.33574 0.0
C3008 C 0.72001 0.06793 0.3585 0.0
C3009 C 0.74114 0.05675 0.36789 0.0
C3010 C 0.72111 0.10098 0.35468 0.0
C3011 C 0.74361 0.12382 0.36006 0.0
C3012 C 0.76544 0.11273 0.36929 0.0
C3013 C 0.76401 0.07937 0.37327 0.0
C3014 C 0.774 0.17735 0.33591 0.0
C3015 C 0.74217 0.18435 0.33096 0.0
C3016 C 0.77637 0.16317 0.34759 0.0
C3017 C 0.74696 0.157 0.35427 0.0
C3018 C 0.71739 0.17367 0.35086 0.0
C3019 C 0.7147 0.1867 0.33903 0.0
H3020 H 0.90083 0.09069 0.08749 0.0
H3021 H 0.92098 0.98902 1.07551 0.0
H3022 H 0.86606 0.09894 1.06943 0.0
H3023 H 0.88951 0.99893 1.05706 0.0
H3024 H 0.77377 0.99309 1.06847 0.0
H3025 H 0.83154 1.00627 1.07376 0.0
H3026 H 0.83553 0.07981 1.04478 0.0
H3027 H 0.77707 0.06654 1.03944 0.0
C3028 C 0.89961 0.07077 0.0807 0.0
C3029 C 0.91023 0.03801 0.08358 0.0
C3030 C 0.88033 0.0759 1.07018 0.0
C3031 C 0.87331 0.04853 1.06251 0.0
C3032 C 0.89359 1.01985 1.06328 0.0
C3033 C 0.91155 1.01411 1.07403 0.0
C3034 C 0.78684 1.0123 1.06334 0.0
C3035 C 0.77131 1.02864 1.05355 0.0
C3036 C 0.81988 1.01955 1.06621 0.0
C3037 C 0.83808 0.04301 1.05927 0.0
C3038 C 0.82204 0.06107 1.04999 0.0
C3039 C 0.78869 0.05381 1.0471 0.0
H3040 H 0.84476 0.59456 0.85897 0.0
H3041 H 0.7901 0.61499 0.82563 0.0
H3042 H 0.86636 0.54264 0.84992 0.0
H3043 H 0.813 0.56392 0.81638 0.0
H3044 H 0.84611 0.46914 0.80277 0.0
H3045 H 0.86894 0.51952 0.8124 0.0
H3046 H 0.8093 0.50076 0.84478 0.0
H3047 H 0.78532 0.45115 0.83494 0.0
C3048 C 0.8392 0.58902 0.84942 0.0
C3049 C 0.8156 0.60829 0.84296 0.0
C3050 C 0.85163 0.55942 0.84428 0.0
C3051 C 0.8412 0.54951 0.83254 0.0
C3052 C 0.82165 0.57142 0.82542 0.0
C3053 C 0.80842 0.6005 0.83069 0.0
C3054 C 0.83932 0.47476 0.81221 0.0
C3055 C 0.81368 0.45678 0.81812 0.0
C3056 C 0.85248 0.5035 0.81769 0.0
C3057 C 0.84068 0.51383 0.82923 0.0
C3058 C 0.81896 0.49292 0.83589 0.0
C3059 C 0.80509 0.4647 0.83028 0.0
H3060 H 0.89069 0.59702 1.06978 0.0
H3061 H 0.90799 0.4967 0.08324 0.0
H3062 H 0.85028 0.60638 0.08624 0.0
H3063 H 0.87035 0.50754 0.10016 0.0
H3064 H 0.75795 0.50089 0.08592 0.0
H3065 H 0.81502 0.51784 0.08075 0.0
H3066 H 0.81694 0.58472 0.11209 0.0
H3067 H 0.75917 0.56815 0.11718 0.0
C3068 C 0.88769 0.57778 1.07669 0.0
C3069 C 0.89967 0.54499 1.07455 0.0
C3070 C 0.86496 0.58349 0.08624 0.0
C3071 C 0.856 0.55679 0.09386 0.0
C3072 C 0.8763 0.52804 0.09403 0.0
C3073 C 0.89791 0.52179 0.08421 0.0
C3074 C 0.77019 0.51995 0.09145 0.0
C3075 C 0.75451 0.53326 0.10189 0.0
C3076 C 0.80277 0.52935 0.08863 0.0
C3077 C 0.82027 0.55171 0.09632 0.0
C3078 C 0.80385 0.56711 0.10621 0.0
C3079 C 0.7709 0.55792 0.10898 0.0
H3080 H 0.72399 0.41721 0.34195 0.0
H3081 H 0.82367 0.40389 0.32701 0.0
H3082 H 0.70914 0.45088 0.32419 0.0
H3083 H 0.80737 0.43435 0.3089 0.0
H3084 H 0.80454 0.55 0.32295 0.0
H3085 H 0.78921 0.49323 0.32914 0.0
H3086 H 0.7337 0.47966 0.29544 0.0
H3087 H 0.74821 0.53732 0.2894 0.0
C3088 C 0.74206 0.41954 0.33455 0.0
C3089 C 0.77597 0.41105 0.3364 0.0
C3090 C 0.73317 0.43817 0.32424 0.0
C3091 C 0.75802 0.44683 0.31574 0.0
C3092 C 0.78825 0.4288 0.31568 0.0
C3093 C 0.79771 0.41148 0.32621 0.0
C3094 C 0.78815 0.53528 0.3171 0.0
C3095 C 0.77737 0.54761 0.3058 0.0
C3096 C 0.77955 0.50295 0.32055 0.0
C3097 C 0.76079 0.48236 0.3126 0.0
C3098 C 0.74823 0.49527 0.30162 0.0
C3099 C 0.75635 0.52806 0.29826 0.0
H3100 H 0.79208 0.52109 0.53624 0.0
H3101 H 0.84465 0.60356 0.51945 0.0
H3102 H 0.83922 0.51047 0.54933 0.0
H3103 H 0.89341 0.59196 0.53227 0.0
H3104 H 0.91287 0.61593 0.57373 0.0
H3105 H 0.89714 0.60839 0.55252 0.0
H3106 H 0.89032 0.50124 0.55806 0.0
H3107 H 0.90218 0.50929 0.57964 0.0
C3108 C 0.81456 0.53582 0.53486 0.0
C3109 C 0.81429 0.56391 0.52716 0.0
C3110 C 0.84199 0.52969 0.54242 0.0
C3111 C 0.86982 0.55142 0.54233 0.0
C3112 C 0.87179 0.57572 0.53301 0.0
C3113 C 0.844 0.58224 0.52558 0.0
C3114 C 0.908 0.59072 0.57046 0.0
C3115 C 0.90697 0.5636 0.57863 0.0
C3116 C 0.89974 0.58618 0.55811 0.0
C3117 C 0.89098 0.55421 0.55358 0.0
C3118 C 0.89544 0.52642 0.56132 0.0
C3119 C 0.90271 0.53108 0.57376 0.0
H3120 H 0.21508 0.59632 0.35898 0.0
H3121 H 0.27358 0.61836 0.32658 0.0
H3122 H 0.19127 0.5474 0.34869 0.0
H3123 H 0.24858 0.57026 0.31611 0.0
H3124 H 0.21353 0.47877 0.3006 0.0
H3125 H 0.19154 0.52891 0.31077 0.0
H3126 H 0.24683 0.5037 0.34352 0.0
H3127 H 0.27007 0.45441 0.33316 0.0
C3128 C 0.22115 0.59194 0.34938 0.0
C3129 C 0.24647 0.61055 0.34355 0.0
C3130 C 0.20739 0.56406 0.34353 0.0
C3131 C 0.21831 0.55521 0.33171 0.0
C3132 C 0.2396 0.57694 0.32522 0.0
C3133 C 0.25408 0.60428 0.33119 0.0
C3134 C 0.21947 0.48299 0.31021 0.0
C3135 C 0.24376 0.46326 0.31613 0.0
C3136 C 0.20678 0.51156 0.31599 0.0
C3137 C 0.21767 0.51997 0.32783 0.0
C3138 C 0.23785 0.49736 0.3344 0.0
C3139 C 0.25131 0.46932 0.32849 0.0
H3140 H 0.43273 0.60051 0.08592 0.0
H3141 H 0.41709 0.49602 1.07683 0.0
H3142 H 0.40745 0.59166 0.10572 0.0
H3143 H 0.38829 0.48851 0.09635 0.0
H3144 H 0.30235 0.5154 0.12711 0.0
H3145 H 0.36117 0.50729 0.12075 0.0
H3146 H 0.34703 0.57989 0.09188 0.0
H3147 H 0.28902 0.58749 0.09798 0.0
C3148 C 0.42566 0.57517 0.08827 0.0
C3149 C 0.42356 0.54971 1.07931 0.0
C3150 C 0.41134 0.57004 0.0998 0.0
C3151 C 0.39348 0.54033 0.10193 0.0
C3152 C 0.40048 0.51226 0.09457 0.0
C3153 C 0.41623 0.5169 0.08324 0.0
C3154 C 0.31198 0.52932 0.11935 0.0
C3155 C 0.29154 0.55255 0.11314 0.0
C3156 C 0.34554 0.52499 0.11587 0.0
C3157 C 0.35878 0.54418 0.10628 0.0
C3158 C 0.33772 0.56598 0.09972 0.0
C3159 C 0.3045 0.57013 0.10311 0.0
H3160 H 0.3121 0.53401 0.78913 0.0
H3161 H 0.24465 0.5494 0.81981 0.0
H3162 H 0.31922 0.47497 0.79505 0.0
H3163 H 0.25167 0.49087 0.8256 0.0
H3164 H 0.22253 0.40032 0.82671 0.0
H3165 H 0.23464 0.43362 0.80881 0.0
H3166 H 0.33717 0.44437 0.82046 0.0
H3167 H 0.32599 0.40847 0.83802 0.0
C3168 C 0.29946 0.52492 0.79728 0.0
C3169 C 0.27759 0.54594 0.80401 0.0
C3170 C 0.30324 0.49124 0.80051 0.0
C3171 C 0.285 0.47853 0.81043 0.0
C3172 C 0.26508 0.50015 0.81764 0.0
C3173 C 0.2613 0.53356 0.81444 0.0
C3174 C 0.24834 0.4073 0.82506 0.0
C3175 C 0.27274 0.40438 0.83429 0.0
C3176 C 0.2553 0.42639 0.81469 0.0
C3177 C 0.28615 0.44306 0.81385 0.0
C3178 C 0.31284 0.43249 0.8212 0.0
C3179 C 0.3062 0.41239 0.83138 0.0
H3180 H 0.16104 0.58228 0.57521 0.0
H3181 H 0.13837 0.48135 0.58697 0.0
H3182 H 0.18049 0.59588 0.59561 0.0
H3183 H 0.16152 0.49395 0.60699 0.0
H3184 H 0.22903 0.50589 0.63734 0.0
H3185 H 0.17766 0.51697 0.62582 0.0
H3186 H 0.23432 0.57881 0.60066 0.0
H3187 H 0.28445 0.56856 0.61226 0.0
C3188 C 0.15924 0.56306 0.58216 0.0
C3189 C 0.15018 0.52989 0.57917 0.0
C3190 C 0.17086 0.5709 0.59392 0.0
C3191 C 0.17488 0.54546 0.60269 0.0
C3192 C 0.15993 0.5141 0.60038 0.0
C3193 C 0.14725 0.50656 0.58875 0.0
C3194 C 0.23003 0.52267 0.62955 0.0
C3195 C 0.2608 0.5359 0.62558 0.0
C3196 C 0.20066 0.52903 0.62295 0.0
C3197 C 0.20173 0.54822 0.61213 0.0
C3198 C 0.23201 0.56422 0.60898 0.0
C3199 C 0.26112 0.55817 0.61563 0.0
loop_
_geom_bond_atom_site_label_1
_geom_bond_atom_site_label_2
_geom_bond_distance
_geom_bond_site_symmetry_2
_ccdc_geom_bond_type
Sm0 C2 2.846 . S
Sm0 O20 2.543 . S
Sm0 O21 2.450 . S
Sm0 O22 2.681 . S
Sm0 O23 2.464 . S
Sm0 O24 2.396 . S
Sm0 O28 2.386 . S
Sm0 O31 2.408 . S
Sm1 C11 2.846 . S
Sm1 O22 2.386 . S
Sm1 O25 2.408 . S
Sm1 O26 2.543 . S
Sm1 O27 2.450 . S
Sm1 O28 2.681 . S
Sm1 O29 2.464 . S
Sm1 O30 2.396 . S
C2 Sm0 2.846 . S
C2 C3 1.506 . S
C2 O20 1.261 . S
C2 O21 1.242 . S
C3 C2 1.506 . S
C3 C4 1.358 . S
C3 C8 1.382 . S
C4 C3 1.358 . S
C4 C5 1.385 . S
C4 H32 0.930 . S
C5 C4 1.385 . S
C5 C6 1.395 . S
C5 H33 0.929 . S
C6 C5 1.395 . S
C6 C7 1.335 . S
C7 C6 1.335 . S
C7 C8 1.398 . S
C7 H34 0.930 . S
C8 C3 1.382 . S
C8 C7 1.398 . S
C8 H35 0.929 . S
C9 O22 1.271 . S
C9 O23 1.251 . S
C10 O24 1.252 . S
C10 O25 1.272 . S
C11 Sm1 2.846 . S
C11 C12 1.506 . S
C11 O26 1.261 . S
C11 O27 1.242 . S
C12 C11 1.506 . S
C12 C13 1.358 . S
C12 C17 1.382 . S
C13 C12 1.358 . S
C13 C14 1.385 . S
C13 H36 0.930 . S
C14 C13 1.385 . S
C14 C15 1.395 . S
C14 H37 0.929 . S
C15 C14 1.395 . S
C15 C16 1.335 . S
C16 C15 1.335 . S
C16 C17 1.398 . S
C16 H38 0.930 . S
C17 C12 1.382 . S
C17 C16 1.398 . S
C17 H39 0.929 . S
C18 O28 1.271 . S
C18 O29 1.251 . S
C19 O30 1.252 . S
C19 O31 1.272 . S
O20 Sm0 2.543 . S
O20 C2 1.261 . S
O21 Sm0 2.450 . S
O21 C2 1.242 . S
O22 Sm0 2.681 . S
O22 Sm1 2.386 . S
O22 C9 1.271 . S
O23 Sm0 2.464 . S
O23 C9 1.251 . S
O24 Sm0 2.396 . S
O24 C10 1.252 . S
O25 Sm1 2.408 . S
O25 C10 1.272 . S
O26 Sm1 2.543 . S
O26 C11 1.261 . S
O27 Sm1 2.450 . S
O27 C11 1.242 . S
O28 Sm0 2.386 . S
O28 Sm1 2.681 . S
O28 C18 1.271 . S
O29 Sm1 2.464 . S
O29 C18 1.251 . S
O30 Sm1 2.396 . S
O30 C19 1.252 . S
O31 Sm0 2.408 . S
O31 C19 1.272 . S
H32 C4 0.930 . S
H33 C5 0.929 . S
H34 C7 0.930 . S
H35 C8 0.929 . S
H36 C13 0.930 . S
H37 C14 0.929 . S
H38 C16 0.930 . S
H39 C17 0.929 . S
Sm40 C42 2.846 1_455 S
Sm40 O60 2.543 1_455 S
Sm40 O61 2.450 1_455 S
Sm40 O62 2.681 . S
Sm40 O63 2.464 1_565 S
Sm40 O64 2.396 . S
Sm40 O68 2.386 . S
Sm40 O71 2.408 . S
Sm41 C51 2.846 . S
Sm41 O62 2.386 . S
Sm41 O65 2.408 . S
Sm41 O66 2.543 . S
Sm41 O67 2.450 . S
Sm41 O68 2.681 . S
Sm41 O69 2.464 . S
Sm41 O70 2.396 . S
C42 Sm40 2.846 1_655 S
C42 C43 1.506 . S
C42 O60 1.261 . S
C42 O61 1.242 . S
C43 C42 1.506 . S
C43 C44 1.358 . S
C43 C48 1.382 . S
C44 C43 1.358 . S
C44 C45 1.385 . S
C44 H72 0.930 . S
C45 C44 1.385 . S
C45 C46 1.395 . S
C45 H73 0.929 . S
C46 C45 1.395 . S
C46 C47 1.335 . S
C47 C46 1.335 . S
C47 C48 1.398 . S
C47 H74 0.930 . S
C48 C43 1.382 . S
C48 C47 1.398 . S
C48 H75 0.929 . S
C49 O62 1.271 1_545 S
C49 O63 1.251 . S
C50 O64 1.252 . S
C50 O65 1.272 . S
C51 Sm41 2.846 . S
C51 C52 1.506 . S
C51 O66 1.261 . S
C51 O67 1.242 . S
C52 C51 1.506 . S
C52 C53 1.358 . S
C52 C57 1.382 . S
C53 C52 1.358 . S
C53 C54 1.385 . S
C53 H76 0.930 1_565 S
C54 C53 1.385 . S
C54 C55 1.395 . S
C54 H77 0.929 1_565 S
C55 C54 1.395 . S
C55 C56 1.335 . S
C56 C55 1.335 . S
C56 C57 1.398 . S
C56 H78 0.930 . S
C57 C52 1.382 . S
C57 C56 1.398 . S
C57 H79 0.929 . S
C58 O68 1.271 . S
C58 O69 1.251 . S
C59 O70 1.252 . S
C59 O71 1.272 . S
O60 Sm40 2.543 1_655 S
O60 C42 1.261 . S
O61 Sm40 2.450 1_655 S
O61 C42 1.242 . S
O62 Sm40 2.681 . S
O62 Sm41 2.386 . S
O62 C49 1.271 1_565 S
O63 Sm40 2.464 1_545 S
O63 C49 1.251 . S
O64 Sm40 2.396 . S
O64 C50 1.252 . S
O65 Sm41 2.408 . S
O65 C50 1.272 . S
O66 Sm41 2.543 . S
O66 C51 1.261 . S
O67 Sm41 2.450 . S
O67 C51 1.242 . S
O68 Sm40 2.386 . S
O68 Sm41 2.681 . S
O68 C58 1.271 . S
O69 Sm41 2.464 . S
O69 C58 1.251 . S
O70 Sm41 2.396 . S
O70 C59 1.252 . S
O71 Sm40 2.408 . S
O71 C59 1.272 . S
H72 C44 0.930 . S
H73 C45 0.929 . S
H74 C47 0.930 . S
H75 C48 0.929 . S
H76 C53 0.930 1_545 S
H77 C54 0.929 1_545 S
H78 C56 0.930 . S
H79 C57 0.929 . S
Sm80 C82 2.846 . S
Sm80 O100 2.543 . S
Sm80 O101 2.450 . S
Sm80 O102 2.681 . S
Sm80 O103 2.464 . S
Sm80 O104 2.396 . S
Sm80 O108 2.386 . S
Sm80 O111 2.408 . S
Sm81 C91 2.846 . S
Sm81 O102 2.386 . S
Sm81 O105 2.408 . S
Sm81 O106 2.543 . S
Sm81 O107 2.450 . S
Sm81 O108 2.681 . S
Sm81 O109 2.464 . S
Sm81 O110 2.396 . S
C82 Sm80 2.846 . S
C82 C83 1.506 . S
C82 O100 1.261 . S
C82 O101 1.242 . S
C83 C82 1.506 . S
C83 C84 1.358 . S
C83 C88 1.382 . S
C84 C83 1.358 . S
C84 C85 1.385 . S
C84 H112 0.930 . S
C85 C84 1.385 . S
C85 C86 1.395 . S
C85 H113 0.929 . S
C86 C85 1.395 . S
C86 C87 1.335 . S
C87 C86 1.335 . S
C87 C88 1.398 . S
C87 H114 0.930 . S
C88 C83 1.382 . S
C88 C87 1.398 . S
C88 H115 0.929 . S
C89 O102 1.271 . S
C89 O103 1.251 . S
C90 O104 1.252 . S
C90 O105 1.272 . S
C91 Sm81 2.846 . S
C91 C92 1.506 . S
C91 O106 1.261 . S
C91 O107 1.242 . S
C92 C91 1.506 . S
C92 C93 1.358 . S
C92 C97 1.382 . S
C93 C92 1.358 . S
C93 C94 1.385 . S
C93 H116 0.930 . S
C94 C93 1.385 . S
C94 C95 1.395 . S
C94 H117 0.929 . S
C95 C94 1.395 . S
C95 C96 1.335 . S
C96 C95 1.335 . S
C96 C97 1.398 . S
C96 H118 0.930 . S
C97 C92 1.382 . S
C97 C96 1.398 . S
C97 H119 0.929 . S
C98 O108 1.271 . S
C98 O109 1.251 . S
C99 O110 1.252 . S
C99 O111 1.272 . S
O100 Sm80 2.543 . S
O100 C82 1.261 . S
O101 Sm80 2.450 . S
O101 C82 1.242 . S
O102 Sm80 2.681 . S
O102 Sm81 2.386 . S
O102 C89 1.271 . S
O103 Sm80 2.464 . S
O103 C89 1.251 . S
O104 Sm80 2.396 . S
O104 C90 1.252 . S
O105 Sm81 2.408 . S
O105 C90 1.272 . S
O106 Sm81 2.543 . S
O106 C91 1.261 . S
O107 Sm81 2.450 . S
O107 C91 1.242 . S
O108 Sm80 2.386 . S
O108 Sm81 2.681 . S
O108 C98 1.271 . S
O109 Sm81 2.464 . S
O109 C98 1.251 . S
O110 Sm81 2.396 . S
O110 C99 1.252 . S
O111 Sm80 2.408 . S
O111 C99 1.272 . S
H112 C84 0.930 . S
H113 C85 0.929 . S
H114 C87 0.930 . S
H115 C88 0.929 . S
H116 C93 0.930 . S
H117 C94 0.929 . S
H118 C96 0.930 . S
H119 C97 0.929 . S
Sm120 C122 2.846 . S
Sm120 O140 2.543 . S
Sm120 O141 2.450 . S
Sm120 O142 2.681 . S
Sm120 O143 2.464 1_545 S
Sm120 O144 2.396 . S
Sm120 O148 2.386 . S
Sm120 O151 2.408 . S
Sm121 C131 2.846 . S
Sm121 O142 2.386 . S
Sm121 O145 2.408 . S
Sm121 O146 2.543 . S
Sm121 O147 2.450 . S
Sm121 O148 2.681 . S
Sm121 O149 2.464 . S
Sm121 O150 2.396 . S
C122 Sm120 2.846 . S
C122 C123 1.506 . S
C122 O140 1.261 . S
C122 O141 1.242 . S
C123 C122 1.506 . S
C123 C124 1.358 . S
C123 C128 1.382 . S
C124 C123 1.358 . S
C124 C125 1.385 . S
C124 H152 0.930 . S
C125 C124 1.385 . S
C125 C126 1.395 . S
C125 H153 0.929 . S
C126 C125 1.395 . S
C126 C127 1.335 . S
C127 C126 1.335 . S
C127 C128 1.398 . S
C127 H154 0.930 . S
C128 C123 1.382 . S
C128 C127 1.398 . S
C128 H155 0.929 . S
C129 O142 1.271 1_565 S
C129 O143 1.251 . S
C130 O144 1.252 . S
C130 O145 1.272 . S
C131 Sm121 2.846 . S
C131 C132 1.506 . S
C131 O146 1.261 . S
C131 O147 1.242 . S
C132 C131 1.506 . S
C132 C133 1.358 . S
C132 C137 1.382 . S
C133 C132 1.358 . S
C133 C134 1.385 . S
C133 H156 0.930 1_545 S
C134 C133 1.385 . S
C134 C135 1.395 . S
C134 H157 0.929 1_545 S
C135 C134 1.395 . S
C135 C136 1.335 . S
C136 C135 1.335 . S
C136 C137 1.398 . S
C136 H158 0.930 . S
C137 C132 1.382 . S
C137 C136 1.398 . S
C137 H159 0.929 . S
C138 O148 1.271 . S
C138 O149 1.251 . S
C139 O150 1.252 . S
C139 O151 1.272 . S
O140 Sm120 2.543 . S
O140 C122 1.261 . S
O141 Sm120 2.450 . S
O141 C122 1.242 . S
O142 Sm120 2.681 . S
O142 Sm121 2.386 . S
O142 C129 1.271 1_545 S
O143 Sm120 2.464 1_565 S
O143 C129 1.251 . S
O144 Sm120 2.396 . S
O144 C130 1.252 . S
O145 Sm121 2.408 . S
O145 C130 1.272 . S
O146 Sm121 2.543 . S
O146 C131 1.261 . S
O147 Sm121 2.450 . S
O147 C131 1.242 . S
O148 Sm120 2.386 . S
O148 Sm121 2.681 . S
O148 C138 1.271 . S
O149 Sm121 2.464 . S
O149 C138 1.251 . S
O150 Sm121 2.396 . S
O150 C139 1.252 . S
O151 Sm120 2.408 . S
O151 C139 1.272 . S
H152 C124 0.930 . S
H153 C125 0.929 . S
H154 C127 0.930 . S
H155 C128 0.929 . S
H156 C133 0.930 1_565 S
H157 C134 0.929 1_565 S
H158 C136 0.930 . S
H159 C137 0.929 . S
Sm160 C162 2.846 . S
Sm160 O180 2.543 . S
Sm160 O181 2.450 . S
Sm160 O182 2.681 . S
Sm160 O183 2.464 . S
Sm160 O184 2.396 . S
Sm160 O188 2.386 . S
Sm160 O191 2.408 . S
Sm161 C171 2.846 . S
Sm161 O182 2.386 . S
Sm161 O185 2.408 . S
Sm161 O186 2.543 . S
Sm161 O187 2.450 . S
Sm161 O188 2.681 . S
Sm161 O189 2.464 . S
Sm161 O190 2.396 . S
C162 Sm160 2.846 . S
C162 C163 1.506 . S
C162 O180 1.261 . S
C162 O181 1.242 . S
C163 C162 1.506 . S
C163 C164 1.358 . S
C163 C168 1.382 . S
C164 C163 1.358 . S
C164 C165 1.385 . S
C164 H192 0.930 . S
C165 C164 1.385 . S
C165 C166 1.395 . S
C165 H193 0.929 . S
C166 C165 1.395 . S
C166 C167 1.335 . S
C167 C166 1.335 . S
C167 C168 1.398 . S
C167 H194 0.930 . S
C168 C163 1.382 . S
C168 C167 1.398 . S
C168 H195 0.929 . S
C169 O182 1.271 . S
C169 O183 1.251 . S
C170 O184 1.252 . S
C170 O185 1.272 . S
C171 Sm161 2.846 . S
C171 C172 1.506 . S
C171 O186 1.261 . S
C171 O187 1.242 . S
C172 C171 1.506 . S
C172 C173 1.358 . S
C172 C177 1.382 . S
C173 C172 1.358 . S
C173 C174 1.385 . S
C173 H196 0.930 . S
C174 C173 1.385 . S
C174 C175 1.395 . S
C174 H197 0.929 . S
C175 C174 1.395 . S
C175 C176 1.335 . S
C176 C175 1.335 . S
C176 C177 1.398 . S
C176 H198 0.930 . S
C177 C172 1.382 . S
C177 C176 1.398 . S
C177 H199 0.929 . S
C178 O188 1.271 . S
C178 O189 1.251 . S
C179 O190 1.252 . S
C179 O191 1.272 . S
O180 Sm160 2.543 . S
O180 C162 1.261 . S
O181 Sm160 2.450 . S
O181 C162 1.242 . S
O182 Sm160 2.681 . S
O182 Sm161 2.386 . S
O182 C169 1.271 . S
O183 Sm160 2.464 . S
O183 C169 1.251 . S
O184 Sm160 2.396 . S
O184 C170 1.252 . S
O185 Sm161 2.408 . S
O185 C170 1.272 . S
O186 Sm161 2.543 . S
O186 C171 1.261 . S
O187 Sm161 2.450 . S
O187 C171 1.242 . S
O188 Sm160 2.386 . S
O188 Sm161 2.681 . S
O188 C178 1.271 . S
O189 Sm161 2.464 . S
O189 C178 1.251 . S
O190 Sm161 2.396 . S
O190 C179 1.252 . S
O191 Sm160 2.408 . S
O191 C179 1.272 . S
H192 C164 0.930 . S
H193 C165 0.929 . S
H194 C167 0.930 . S
H195 C168 0.929 . S
H196 C173 0.930 . S
H197 C174 0.929 . S
H198 C176 0.930 . S
H199 C177 0.929 . S
Sm200 C202 2.846 . S
Sm200 O220 2.543 . S
Sm200 O221 2.450 . S
Sm200 O222 2.681 . S
Sm200 O223 2.464 1_565 S
Sm200 O224 2.396 . S
Sm200 O228 2.386 . S
Sm200 O231 2.408 . S
Sm201 C211 2.846 . S
Sm201 O222 2.386 . S
Sm201 O225 2.408 . S
Sm201 O226 2.543 . S
Sm201 O227 2.450 . S
Sm201 O228 2.681 . S
Sm201 O229 2.464 . S
Sm201 O230 2.396 . S
C202 Sm200 2.846 . S
C202 C203 1.506 . S
C202 O220 1.261 . S
C202 O221 1.242 . S
C203 C202 1.506 . S
C203 C204 1.358 . S
C203 C208 1.382 . S
C204 C203 1.358 . S
C204 C205 1.385 . S
C204 H232 0.930 . S
C205 C204 1.385 . S
C205 C206 1.395 . S
C205 H233 0.929 . S
C206 C205 1.395 . S
C206 C207 1.335 . S
C207 C206 1.335 . S
C207 C208 1.398 . S
C207 H234 0.930 . S
C208 C203 1.382 . S
C208 C207 1.398 . S
C208 H235 0.929 . S
C209 O222 1.271 1_545 S
C209 O223 1.251 . S
C210 O224 1.252 . S
C210 O225 1.272 . S
C211 Sm201 2.846 . S
C211 C212 1.506 . S
C211 O226 1.261 . S
C211 O227 1.242 . S
C212 C211 1.506 . S
C212 C213 1.358 . S
C212 C217 1.382 . S
C213 C212 1.358 . S
C213 C214 1.385 . S
C213 H236 0.930 1_565 S
C214 C213 1.385 . S
C214 C215 1.395 . S
C214 H237 0.929 1_565 S
C215 C214 1.395 . S
C215 C216 1.335 . S
C216 C215 1.335 . S
C216 C217 1.398 . S
C216 H238 0.930 . S
C217 C212 1.382 . S
C217 C216 1.398 . S
C217 H239 0.929 . S
C218 O228 1.271 . S
C218 O229 1.251 . S
C219 O230 1.252 . S
C219 O231 1.272 . S
O220 Sm200 2.543 . S
O220 C202 1.261 . S
O221 Sm200 2.450 . S
O221 C202 1.242 . S
O222 Sm200 2.681 . S
O222 Sm201 2.386 . S
O222 C209 1.271 1_565 S
O223 Sm200 2.464 1_545 S
O223 C209 1.251 . S
O224 Sm200 2.396 . S
O224 C210 1.252 . S
O225 Sm201 2.408 . S
O225 C210 1.272 . S
O226 Sm201 2.543 . S
O226 C211 1.261 . S
O227 Sm201 2.450 . S
O227 C211 1.242 . S
O228 Sm200 2.386 . S
O228 Sm201 2.681 . S
O228 C218 1.271 . S
O229 Sm201 2.464 . S
O229 C218 1.251 . S
O230 Sm201 2.396 . S
O230 C219 1.252 . S
O231 Sm200 2.408 . S
O231 C219 1.272 . S
H232 C204 0.930 . S
H233 C205 0.929 . S
H234 C207 0.930 . S
H235 C208 0.929 . S
H236 C213 0.930 1_545 S
H237 C214 0.929 1_545 S
H238 C216 0.930 . S
H239 C217 0.929 . S
Sm240 C242 2.846 . S
Sm240 O260 2.543 . S
Sm240 O261 2.450 . S
Sm240 O262 2.681 . S
Sm240 O263 2.464 . S
Sm240 O264 2.396 . S
Sm240 O268 2.386 . S
Sm240 O271 2.408 . S
Sm241 C251 2.846 . S
Sm241 O262 2.386 . S
Sm241 O265 2.408 . S
Sm241 O266 2.543 . S
Sm241 O267 2.450 . S
Sm241 O268 2.681 . S
Sm241 O269 2.464 . S
Sm241 O270 2.396 . S
C242 Sm240 2.846 . S
C242 C243 1.506 . S
C242 O260 1.261 . S
C242 O261 1.242 . S
C243 C242 1.506 . S
C243 C244 1.358 . S
C243 C248 1.382 . S
C244 C243 1.358 . S
C244 C245 1.385 . S
C244 H272 0.930 . S
C245 C244 1.385 . S
C245 C246 1.395 . S
C245 H273 0.929 . S
C246 C245 1.395 . S
C246 C247 1.335 . S
C247 C246 1.335 . S
C247 C248 1.398 . S
C247 H274 0.930 . S
C248 C243 1.382 . S
C248 C247 1.398 . S
C248 H275 0.929 . S
C249 O262 1.271 . S
C249 O263 1.251 . S
C250 O264 1.252 . S
C250 O265 1.272 . S
C251 Sm241 2.846 . S
C251 C252 1.506 . S
C251 O266 1.261 . S
C251 O267 1.242 . S
C252 C251 1.506 . S
C252 C253 1.358 . S
C252 C257 1.382 . S
C253 C252 1.358 . S
C253 C254 1.385 . S
C253 H276 0.930 . S
C254 C253 1.385 . S
C254 C255 1.395 . S
C254 H277 0.929 . S
C255 C254 1.395 . S
C255 C256 1.335 . S
C256 C255 1.335 . S
C256 C257 1.398 . S
C256 H278 0.930 . S
C257 C252 1.382 . S
C257 C256 1.398 . S
C257 H279 0.929 . S
C258 O268 1.271 . S
C258 O269 1.251 . S
C259 O270 1.252 . S
C259 O271 1.272 . S
O260 Sm240 2.543 . S
O260 C242 1.261 . S
O261 Sm240 2.450 . S
O261 C242 1.242 . S
O262 Sm240 2.681 . S
O262 Sm241 2.386 . S
O262 C249 1.271 . S
O263 Sm240 2.464 . S
O263 C249 1.251 . S
O264 Sm240 2.396 . S
O264 C250 1.252 . S
O265 Sm241 2.408 . S
O265 C250 1.272 . S
O266 Sm241 2.543 . S
O266 C251 1.261 . S
O267 Sm241 2.450 . S
O267 C251 1.242 . S
O268 Sm240 2.386 . S
O268 Sm241 2.681 . S
O268 C258 1.271 . S
O269 Sm241 2.464 . S
O269 C258 1.251 . S
O270 Sm241 2.396 . S
O270 C259 1.252 . S
O271 Sm240 2.408 . S
O271 C259 1.272 . S
H272 C244 0.930 . S
H273 C245 0.929 . S
H274 C247 0.930 . S
H275 C248 0.929 . S
H276 C253 0.930 . S
H277 C254 0.929 . S
H278 C256 0.930 . S
H279 C257 0.929 . S
Sm280 C282 2.846 1_455 S
Sm280 O300 2.543 1_455 S
Sm280 O301 2.450 1_455 S
Sm280 O302 2.681 . S
Sm280 O303 2.464 1_545 S
Sm280 O304 2.396 . S
Sm280 O308 2.386 . S
Sm280 O311 2.408 . S
Sm281 C291 2.846 . S
Sm281 O302 2.386 . S
Sm281 O305 2.408 . S
Sm281 O306 2.543 . S
Sm281 O307 2.450 . S
Sm281 O308 2.681 . S
Sm281 O309 2.464 . S
Sm281 O310 2.396 . S
C282 Sm280 2.846 1_655 S
C282 C283 1.506 . S
C282 O300 1.261 . S
C282 O301 1.242 . S
C283 C282 1.506 . S
C283 C284 1.358 . S
C283 C288 1.382 . S
C284 C283 1.358 . S
C284 C285 1.385 . S
C284 H312 0.930 . S
C285 C284 1.385 . S
C285 C286 1.395 . S
C285 H313 0.929 . S
C286 C285 1.395 . S
C286 C287 1.335 . S
C287 C286 1.335 . S
C287 C288 1.398 . S
C287 H314 0.930 . S
C288 C283 1.382 . S
C288 C287 1.398 . S
C288 H315 0.929 . S
C289 O302 1.271 1_565 S
C289 O303 1.251 . S
C290 O304 1.252 . S
C290 O305 1.272 . S
C291 Sm281 2.846 . S
C291 C292 1.506 . S
C291 O306 1.261 . S
C291 O307 1.242 . S
C292 C291 1.506 . S
C292 C293 1.358 . S
C292 C297 1.382 . S
C293 C292 1.358 . S
C293 C294 1.385 . S
C293 H316 0.930 1_545 S
C294 C293 1.385 . S
C294 C295 1.395 . S
C294 H317 0.929 1_545 S
C295 C294 1.395 . S
C295 C296 1.335 . S
C296 C295 1.335 . S
C296 C297 1.398 . S
C296 H318 0.930 . S
C297 C292 1.382 . S
C297 C296 1.398 . S
C297 H319 0.929 . S
C298 O308 1.271 . S
C298 O309 1.251 . S
C299 O310 1.252 . S
C299 O311 1.272 . S
O300 Sm280 2.543 1_655 S
O300 C282 1.261 . S
O301 Sm280 2.450 1_655 S
O301 C282 1.242 . S
O302 Sm280 2.681 . S
O302 Sm281 2.386 . S
O302 C289 1.271 1_545 S
O303 Sm280 2.464 1_565 S
O303 C289 1.251 . S
O304 Sm280 2.396 . S
O304 C290 1.252 . S
O305 Sm281 2.408 . S
O305 C290 1.272 . S
O306 Sm281 2.543 . S
O306 C291 1.261 . S
O307 Sm281 2.450 . S
O307 C291 1.242 . S
O308 Sm280 2.386 . S
O308 Sm281 2.681 . S
O308 C298 1.271 . S
O309 Sm281 2.464 . S
O309 C298 1.251 . S
O310 Sm281 2.396 . S
O310 C299 1.252 . S
O311 Sm280 2.408 . S
O311 C299 1.272 . S
H312 C284 0.930 . S
H313 C285 0.929 . S
H314 C287 0.930 . S
H315 C288 0.929 . S
H316 C293 0.930 1_565 S
H317 C294 0.929 1_565 S
H318 C296 0.930 . S
H319 C297 0.929 . S
Sm320 C322 2.846 . S
Sm320 O340 2.543 . S
Sm320 O341 2.450 . S
Sm320 O342 2.681 . S
Sm320 O343 2.464 . S
Sm320 O344 2.396 . S
Sm320 O348 2.386 . S
Sm320 O351 2.408 . S
Sm321 C331 2.846 . S
Sm321 O342 2.386 . S
Sm321 O345 2.408 . S
Sm321 O346 2.543 . S
Sm321 O347 2.450 . S
Sm321 O348 2.681 . S
Sm321 O349 2.464 . S
Sm321 O350 2.396 . S
C322 Sm320 2.846 . S
C322 C323 1.506 . S
C322 O340 1.261 . S
C322 O341 1.242 . S
C323 C322 1.506 . S
C323 C324 1.358 . S
C323 C328 1.382 . S
C324 C323 1.358 . S
C324 C325 1.385 . S
C324 H352 0.930 . S
C325 C324 1.385 . S
C325 C326 1.395 . S
C325 H353 0.929 . S
C326 C325 1.395 . S
C326 C327 1.335 . S
C327 C326 1.335 . S
C327 C328 1.398 . S
C327 H354 0.930 . S
C328 C323 1.382 . S
C328 C327 1.398 . S
C328 H355 0.929 . S
C329 O342 1.271 . S
C329 O343 1.251 . S
C330 O344 1.252 . S
C330 O345 1.272 . S
C331 Sm321 2.846 . S
C331 C332 1.506 . S
C331 O346 1.261 . S
C331 O347 1.242 . S
C332 C331 1.506 . S
C332 C333 1.358 . S
C332 C337 1.382 . S
C333 C332 1.358 . S
C333 C334 1.385 . S
C333 H356 0.930 . S
C334 C333 1.385 . S
C334 C335 1.395 . S
C334 H357 0.929 . S
C335 C334 1.395 . S
C335 C336 1.335 . S
C336 C335 1.335 . S
C336 C337 1.398 . S
C336 H358 0.930 . S
C337 C332 1.382 . S
C337 C336 1.398 . S
C337 H359 0.929 . S
C338 O348 1.271 . S
C338 O349 1.251 . S
C339 O350 1.252 . S
C339 O351 1.272 . S
O340 Sm320 2.543 . S
O340 C322 1.261 . S
O341 Sm320 2.450 . S
O341 C322 1.242 . S
O342 Sm320 2.681 . S
O342 Sm321 2.386 . S
O342 C329 1.271 . S
O343 Sm320 2.464 . S
O343 C329 1.251 . S
O344 Sm320 2.396 . S
O344 C330 1.252 . S
O345 Sm321 2.408 . S
O345 C330 1.272 . S
O346 Sm321 2.543 . S
O346 C331 1.261 . S
O347 Sm321 2.450 . S
O347 C331 1.242 . S
O348 Sm320 2.386 . S
O348 Sm321 2.681 . S
O348 C338 1.271 . S
O349 Sm321 2.464 . S
O349 C338 1.251 . S
O350 Sm321 2.396 . S
O350 C339 1.252 . S
O351 Sm320 2.408 . S
O351 C339 1.272 . S
H352 C324 0.930 . S
H353 C325 0.929 . S
H354 C327 0.930 . S
H355 C328 0.929 . S
H356 C333 0.930 . S
H357 C334 0.929 . S
H358 C336 0.930 . S
H359 C337 0.929 . S
Sm360 C362 2.846 . S
Sm360 O380 2.543 . S
Sm360 O381 2.450 . S
Sm360 O382 2.681 . S
Sm360 O383 2.464 . S
Sm360 O384 2.396 . S
Sm360 O388 2.386 . S
Sm360 O391 2.408 . S
Sm361 C371 2.846 1_655 S
Sm361 O382 2.386 . S
Sm361 O385 2.408 . S
Sm361 O386 2.543 1_655 S
Sm361 O387 2.450 1_655 S
Sm361 O388 2.681 . S
Sm361 O389 2.464 1_545 S
Sm361 O390 2.396 . S
C362 Sm360 2.846 . S
C362 C363 1.506 . S
C362 O380 1.261 . S
C362 O381 1.242 . S
C363 C362 1.506 . S
C363 C364 1.358 . S
C363 C368 1.382 . S
C364 C363 1.358 . S
C364 C365 1.385 . S
C364 H392 0.930 1_545 S
C365 C364 1.385 . S
C365 C366 1.395 . S
C365 H393 0.929 1_545 S
C366 C365 1.395 . S
C366 C367 1.335 . S
C367 C366 1.335 . S
C367 C368 1.398 . S
C367 H394 0.930 . S
C368 C363 1.382 . S
C368 C367 1.398 . S
C368 H395 0.929 . S
C369 O382 1.271 . S
C369 O383 1.251 . S
C370 O384 1.252 . S
C370 O385 1.272 . S
C371 Sm361 2.846 1_455 S
C371 C372 1.506 . S
C371 O386 1.261 . S
C371 O387 1.242 . S
C372 C371 1.506 . S
C372 C373 1.358 . S
C372 C377 1.382 . S
C373 C372 1.358 . S
C373 C374 1.385 . S
C373 H396 0.930 . S
C374 C373 1.385 . S
C374 C375 1.395 . S
C374 H397 0.929 . S
C375 C374 1.395 . S
C375 C376 1.335 . S
C376 C375 1.335 . S
C376 C377 1.398 . S
C376 H398 0.930 . S
C377 C372 1.382 . S
C377 C376 1.398 . S
C377 H399 0.929 . S
C378 O388 1.271 1_565 S
C378 O389 1.251 . S
C379 O390 1.252 . S
C379 O391 1.272 . S
O380 Sm360 2.543 . S
O380 C362 1.261 . S
O381 Sm360 2.450 . S
O381 C362 1.242 . S
O382 Sm360 2.681 . S
O382 Sm361 2.386 . S
O382 C369 1.271 . S
O383 Sm360 2.464 . S
O383 C369 1.251 . S
O384 Sm360 2.396 . S
O384 C370 1.252 . S
O385 Sm361 2.408 . S
O385 C370 1.272 . S
O386 Sm361 2.543 1_455 S
O386 C371 1.261 . S
O387 Sm361 2.450 1_455 S
O387 C371 1.242 . S
O388 Sm360 2.386 . S
O388 Sm361 2.681 . S
O388 C378 1.271 1_545 S
O389 Sm361 2.464 1_565 S
O389 C378 1.251 . S
O390 Sm361 2.396 . S
O390 C379 1.252 . S
O391 Sm360 2.408 . S
O391 C379 1.272 . S
H392 C364 0.930 1_565 S
H393 C365 0.929 1_565 S
H394 C367 0.930 . S
H395 C368 0.929 . S
H396 C373 0.930 . S
H397 C374 0.929 . S
H398 C376 0.930 . S
H399 C377 0.929 . S
Sm400 C402 2.846 . S
Sm400 O420 2.543 . S
Sm400 O421 2.450 . S
Sm400 O422 2.681 . S
Sm400 O423 2.464 . S
Sm400 O424 2.396 . S
Sm400 O428 2.386 . S
Sm400 O431 2.408 . S
Sm401 C411 2.846 . S
Sm401 O422 2.386 . S
Sm401 O425 2.408 . S
Sm401 O426 2.543 . S
Sm401 O427 2.450 . S
Sm401 O428 2.681 . S
Sm401 O429 2.464 . S
Sm401 O430 2.396 . S
C402 Sm400 2.846 . S
C402 C403 1.506 . S
C402 O420 1.261 . S
C402 O421 1.242 . S
C403 C402 1.506 . S
C403 C404 1.358 . S
C403 C408 1.382 . S
C404 C403 1.358 . S
C404 C405 1.385 . S
C404 H432 0.930 . S
C405 C404 1.385 . S
C405 C406 1.395 . S
C405 H433 0.929 . S
C406 C405 1.395 . S
C406 C407 1.335 . S
C407 C406 1.335 . S
C407 C408 1.398 . S
C407 H434 0.930 . S
C408 C403 1.382 . S
C408 C407 1.398 . S
C408 H435 0.929 . S
C409 O422 1.271 . S
C409 O423 1.251 . S
C410 O424 1.252 . S
C410 O425 1.272 . S
C411 Sm401 2.846 . S
C411 C412 1.506 . S
C411 O426 1.261 . S
C411 O427 1.242 . S
C412 C411 1.506 . S
C412 C413 1.358 . S
C412 C417 1.382 . S
C413 C412 1.358 . S
C413 C414 1.385 . S
C413 H436 0.930 . S
C414 C413 1.385 . S
C414 C415 1.395 . S
C414 H437 0.929 . S
C415 C414 1.395 . S
C415 C416 1.335 . S
C416 C415 1.335 . S
C416 C417 1.398 . S
C416 H438 0.930 . S
C417 C412 1.382 . S
C417 C416 1.398 . S
C417 H439 0.929 . S
C418 O428 1.271 . S
C418 O429 1.251 . S
C419 O430 1.252 . S
C419 O431 1.272 . S
O420 Sm400 2.543 . S
O420 C402 1.261 . S
O421 Sm400 2.450 . S
O421 C402 1.242 . S
O422 Sm400 2.681 . S
O422 Sm401 2.386 . S
O422 C409 1.271 . S
O423 Sm400 2.464 . S
O423 C409 1.251 . S
O424 Sm400 2.396 . S
O424 C410 1.252 . S
O425 Sm401 2.408 . S
O425 C410 1.272 . S
O426 Sm401 2.543 . S
O426 C411 1.261 . S
O427 Sm401 2.450 . S
O427 C411 1.242 . S
O428 Sm400 2.386 . S
O428 Sm401 2.681 . S
O428 C418 1.271 . S
O429 Sm401 2.464 . S
O429 C418 1.251 . S
O430 Sm401 2.396 . S
O430 C419 1.252 . S
O431 Sm400 2.408 . S
O431 C419 1.272 . S
H432 C404 0.930 . S
H433 C405 0.929 . S
H434 C407 0.930 . S
H435 C408 0.929 . S
H436 C413 0.930 . S
H437 C414 0.929 . S
H438 C416 0.930 . S
H439 C417 0.929 . S
Sm440 C442 2.846 . S
Sm440 O460 2.543 . S
Sm440 O461 2.450 . S
Sm440 O462 2.681 . S
Sm440 O463 2.464 . S
Sm440 O464 2.396 . S
Sm440 O468 2.386 . S
Sm440 O471 2.408 . S
Sm441 C451 2.846 . S
Sm441 O462 2.386 . S
Sm441 O465 2.408 . S
Sm441 O466 2.543 . S
Sm441 O467 2.450 . S
Sm441 O468 2.681 . S
Sm441 O469 2.464 1_565 S
Sm441 O470 2.396 . S
C442 Sm440 2.846 . S
C442 C443 1.506 . S
C442 O460 1.261 . S
C442 O461 1.242 . S
C443 C442 1.506 . S
C443 C444 1.358 . S
C443 C448 1.382 . S
C444 C443 1.358 . S
C444 C445 1.385 . S
C444 H472 0.930 1_565 S
C445 C444 1.385 . S
C445 C446 1.395 . S
C445 H473 0.929 1_565 S
C446 C445 1.395 . S
C446 C447 1.335 . S
C447 C446 1.335 . S
C447 C448 1.398 . S
C447 H474 0.930 . S
C448 C443 1.382 . S
C448 C447 1.398 . S
C448 H475 0.929 . S
C449 O462 1.271 . S
C449 O463 1.251 . S
C450 O464 1.252 . S
C450 O465 1.272 . S
C451 Sm441 2.846 . S
C451 C452 1.506 . S
C451 O466 1.261 . S
C451 O467 1.242 . S
C452 C451 1.506 . S
C452 C453 1.358 . S
C452 C457 1.382 . S
C453 C452 1.358 . S
C453 C454 1.385 . S
C453 H476 0.930 . S
C454 C453 1.385 . S
C454 C455 1.395 . S
C454 H477 0.929 . S
C455 C454 1.395 . S
C455 C456 1.335 . S
C456 C455 1.335 . S
C456 C457 1.398 . S
C456 H478 0.930 . S
C457 C452 1.382 . S
C457 C456 1.398 . S
C457 H479 0.929 . S
C458 O468 1.271 1_545 S
C458 O469 1.251 . S
C459 O470 1.252 . S
C459 O471 1.272 . S
O460 Sm440 2.543 . S
O460 C442 1.261 . S
O461 Sm440 2.450 . S
O461 C442 1.242 . S
O462 Sm440 2.681 . S
O462 Sm441 2.386 . S
O462 C449 1.271 . S
O463 Sm440 2.464 . S
O463 C449 1.251 . S
O464 Sm440 2.396 . S
O464 C450 1.252 . S
O465 Sm441 2.408 . S
O465 C450 1.272 . S
O466 Sm441 2.543 . S
O466 C451 1.261 . S
O467 Sm441 2.450 . S
O467 C451 1.242 . S
O468 Sm440 2.386 . S
O468 Sm441 2.681 . S
O468 C458 1.271 1_565 S
O469 Sm441 2.464 1_545 S
O469 C458 1.251 . S
O470 Sm441 2.396 . S
O470 C459 1.252 . S
O471 Sm440 2.408 . S
O471 C459 1.272 . S
H472 C444 0.930 1_545 S
H473 C445 0.929 1_545 S
H474 C447 0.930 . S
H475 C448 0.929 . S
H476 C453 0.930 . S
H477 C454 0.929 . S
H478 C456 0.930 . S
H479 C457 0.929 . S
Sm480 C482 2.846 . S
Sm480 O500 2.543 . S
Sm480 O501 2.450 . S
Sm480 O502 2.681 . S
Sm480 O503 2.464 . S
Sm480 O504 2.396 . S
Sm480 O508 2.386 . S
Sm480 O511 2.408 . S
Sm481 C491 2.846 . S
Sm481 O502 2.386 . S
Sm481 O505 2.408 . S
Sm481 O506 2.543 . S
Sm481 O507 2.450 . S
Sm481 O508 2.681 . S
Sm481 O509 2.464 . S
Sm481 O510 2.396 . S
C482 Sm480 2.846 . S
C482 C483 1.506 . S
C482 O500 1.261 . S
C482 O501 1.242 . S
C483 C482 1.506 . S
C483 C484 1.358 . S
C483 C488 1.382 . S
C484 C483 1.358 . S
C484 C485 1.385 . S
C484 H512 0.930 . S
C485 C484 1.385 . S
C485 C486 1.395 . S
C485 H513 0.929 . S
C486 C485 1.395 . S
C486 C487 1.335 . S
C487 C486 1.335 . S
C487 C488 1.398 . S
C487 H514 0.930 . S
C488 C483 1.382 . S
C488 C487 1.398 . S
C488 H515 0.929 . S
C489 O502 1.271 . S
C489 O503 1.251 . S
C490 O504 1.252 . S
C490 O505 1.272 . S
C491 Sm481 2.846 . S
C491 C492 1.506 . S
C491 O506 1.261 . S
C491 O507 1.242 . S
C492 C491 1.506 . S
C492 C493 1.358 . S
C492 C497 1.382 . S
C493 C492 1.358 . S
C493 C494 1.385 . S
C493 H516 0.930 . S
C494 C493 1.385 . S
C494 C495 1.395 . S
C494 H517 0.929 . S
C495 C494 1.395 . S
C495 C496 1.335 . S
C496 C495 1.335 . S
C496 C497 1.398 . S
C496 H518 0.930 . S
C497 C492 1.382 . S
C497 C496 1.398 . S
C497 H519 0.929 . S
C498 O508 1.271 . S
C498 O509 1.251 . S
C499 O510 1.252 . S
C499 O511 1.272 . S
O500 Sm480 2.543 . S
O500 C482 1.261 . S
O501 Sm480 2.450 . S
O501 C482 1.242 . S
O502 Sm480 2.681 . S
O502 Sm481 2.386 . S
O502 C489 1.271 . S
O503 Sm480 2.464 . S
O503 C489 1.251 . S
O504 Sm480 2.396 . S
O504 C490 1.252 . S
O505 Sm481 2.408 . S
O505 C490 1.272 . S
O506 Sm481 2.543 . S
O506 C491 1.261 . S
O507 Sm481 2.450 . S
O507 C491 1.242 . S
O508 Sm480 2.386 . S
O508 Sm481 2.681 . S
O508 C498 1.271 . S
O509 Sm481 2.464 . S
O509 C498 1.251 . S
O510 Sm481 2.396 . S
O510 C499 1.252 . S
O511 Sm480 2.408 . S
O511 C499 1.272 . S
H512 C484 0.930 . S
H513 C485 0.929 . S
H514 C487 0.930 . S
H515 C488 0.929 . S
H516 C493 0.930 . S
H517 C494 0.929 . S
H518 C496 0.930 . S
H519 C497 0.929 . S
Sm520 C522 2.846 . S
Sm520 O540 2.543 . S
Sm520 O541 2.450 . S
Sm520 O542 2.681 . S
Sm520 O543 2.464 . S
Sm520 O544 2.396 . S
Sm520 O548 2.386 . S
Sm520 O551 2.408 . S
Sm521 C531 2.846 . S
Sm521 O542 2.386 . S
Sm521 O545 2.408 . S
Sm521 O546 2.543 . S
Sm521 O547 2.450 . S
Sm521 O548 2.681 . S
Sm521 O549 2.464 1_545 S
Sm521 O550 2.396 . S
C522 Sm520 2.846 . S
C522 C523 1.506 . S
C522 O540 1.261 . S
C522 O541 1.242 . S
C523 C522 1.506 . S
C523 C524 1.358 . S
C523 C528 1.382 . S
C524 C523 1.358 . S
C524 C525 1.385 . S
C524 H552 0.930 1_545 S
C525 C524 1.385 . S
C525 C526 1.395 . S
C525 H553 0.929 1_545 S
C526 C525 1.395 . S
C526 C527 1.335 . S
C527 C526 1.335 . S
C527 C528 1.398 . S
C527 H554 0.930 . S
C528 C523 1.382 . S
C528 C527 1.398 . S
C528 H555 0.929 . S
C529 O542 1.271 . S
C529 O543 1.251 . S
C530 O544 1.252 . S
C530 O545 1.272 . S
C531 Sm521 2.846 . S
C531 C532 1.506 . S
C531 O546 1.261 . S
C531 O547 1.242 . S
C532 C531 1.506 . S
C532 C533 1.358 . S
C532 C537 1.382 . S
C533 C532 1.358 . S
C533 C534 1.385 . S
C533 H556 0.930 . S
C534 C533 1.385 . S
C534 C535 1.395 . S
C534 H557 0.929 . S
C535 C534 1.395 . S
C535 C536 1.335 . S
C536 C535 1.335 . S
C536 C537 1.398 . S
C536 H558 0.930 . S
C537 C532 1.382 . S
C537 C536 1.398 . S
C537 H559 0.929 . S
C538 O548 1.271 1_565 S
C538 O549 1.251 . S
C539 O550 1.252 . S
C539 O551 1.272 . S
O540 Sm520 2.543 . S
O540 C522 1.261 . S
O541 Sm520 2.450 . S
O541 C522 1.242 . S
O542 Sm520 2.681 . S
O542 Sm521 2.386 . S
O542 C529 1.271 . S
O543 Sm520 2.464 . S
O543 C529 1.251 . S
O544 Sm520 2.396 . S
O544 C530 1.252 . S
O545 Sm521 2.408 . S
O545 C530 1.272 . S
O546 Sm521 2.543 . S
O546 C531 1.261 . S
O547 Sm521 2.450 . S
O547 C531 1.242 . S
O548 Sm520 2.386 . S
O548 Sm521 2.681 . S
O548 C538 1.271 1_545 S
O549 Sm521 2.464 1_565 S
O549 C538 1.251 . S
O550 Sm521 2.396 . S
O550 C539 1.252 . S
O551 Sm520 2.408 . S
O551 C539 1.272 . S
H552 C524 0.930 1_565 S
H553 C525 0.929 1_565 S
H554 C527 0.930 . S
H555 C528 0.929 . S
H556 C533 0.930 . S
H557 C534 0.929 . S
H558 C536 0.930 . S
H559 C537 0.929 . S
Sm560 C562 2.846 . S
Sm560 O580 2.543 . S
Sm560 O581 2.450 . S
Sm560 O582 2.681 . S
Sm560 O583 2.464 . S
Sm560 O584 2.396 . S
Sm560 O588 2.386 . S
Sm560 O591 2.408 . S
Sm561 C571 2.846 . S
Sm561 O582 2.386 . S
Sm561 O585 2.408 . S
Sm561 O586 2.543 . S
Sm561 O587 2.450 . S
Sm561 O588 2.681 . S
Sm561 O589 2.464 . S
Sm561 O590 2.396 . S
C562 Sm560 2.846 . S
C562 C563 1.506 . S
C562 O580 1.261 . S
C562 O581 1.242 . S
C563 C562 1.506 . S
C563 C564 1.358 . S
C563 C568 1.382 . S
C564 C563 1.358 . S
C564 C565 1.385 . S
C564 H592 0.930 . S
C565 C564 1.385 . S
C565 C566 1.395 . S
C565 H593 0.929 . S
C566 C565 1.395 . S
C566 C567 1.335 . S
C567 C566 1.335 . S
C567 C568 1.398 . S
C567 H594 0.930 . S
C568 C563 1.382 . S
C568 C567 1.398 . S
C568 H595 0.929 . S
C569 O582 1.271 . S
C569 O583 1.251 . S
C570 O584 1.252 . S
C570 O585 1.272 . S
C571 Sm561 2.846 . S
C571 C572 1.506 . S
C571 O586 1.261 . S
C571 O587 1.242 . S
C572 C571 1.506 . S
C572 C573 1.358 . S
C572 C577 1.382 . S
C573 C572 1.358 . S
C573 C574 1.385 . S
C573 H596 0.930 . S
C574 C573 1.385 . S
C574 C575 1.395 . S
C574 H597 0.929 . S
C575 C574 1.395 . S
C575 C576 1.335 . S
C576 C575 1.335 . S
C576 C577 1.398 . S
C576 H598 0.930 . S
C577 C572 1.382 . S
C577 C576 1.398 . S
C577 H599 0.929 . S
C578 O588 1.271 . S
C578 O589 1.251 . S
C579 O590 1.252 . S
C579 O591 1.272 . S
O580 Sm560 2.543 . S
O580 C562 1.261 . S
O581 Sm560 2.450 . S
O581 C562 1.242 . S
O582 Sm560 2.681 . S
O582 Sm561 2.386 . S
O582 C569 1.271 . S
O583 Sm560 2.464 . S
O583 C569 1.251 . S
O584 Sm560 2.396 . S
O584 C570 1.252 . S
O585 Sm561 2.408 . S
O585 C570 1.272 . S
O586 Sm561 2.543 . S
O586 C571 1.261 . S
O587 Sm561 2.450 . S
O587 C571 1.242 . S
O588 Sm560 2.386 . S
O588 Sm561 2.681 . S
O588 C578 1.271 . S
O589 Sm561 2.464 . S
O589 C578 1.251 . S
O590 Sm561 2.396 . S
O590 C579 1.252 . S
O591 Sm560 2.408 . S
O591 C579 1.272 . S
H592 C564 0.930 . S
H593 C565 0.929 . S
H594 C567 0.930 . S
H595 C568 0.929 . S
H596 C573 0.930 . S
H597 C574 0.929 . S
H598 C576 0.930 . S
H599 C577 0.929 . S
Sm600 C602 2.846 . S
Sm600 O620 2.543 . S
Sm600 O621 2.450 . S
Sm600 O622 2.681 . S
Sm600 O623 2.464 . S
Sm600 O624 2.396 . S
Sm600 O628 2.386 . S
Sm600 O631 2.408 . S
Sm601 C611 2.846 1_655 S
Sm601 O622 2.386 . S
Sm601 O625 2.408 . S
Sm601 O626 2.543 1_655 S
Sm601 O627 2.450 1_655 S
Sm601 O628 2.681 . S
Sm601 O629 2.464 1_565 S
Sm601 O630 2.396 . S
C602 Sm600 2.846 . S
C602 C603 1.506 . S
C602 O620 1.261 . S
C602 O621 1.242 . S
C603 C602 1.506 . S
C603 C604 1.358 . S
C603 C608 1.382 . S
C604 C603 1.358 . S
C604 C605 1.385 . S
C604 H632 0.930 1_565 S
C605 C604 1.385 . S
C605 C606 1.395 . S
C605 H633 0.929 1_565 S
C606 C605 1.395 . S
C606 C607 1.335 . S
C607 C606 1.335 . S
C607 C608 1.398 . S
C607 H634 0.930 . S
C608 C603 1.382 . S
C608 C607 1.398 . S
C608 H635 0.929 . S
C609 O622 1.271 . S
C609 O623 1.251 . S
C610 O624 1.252 . S
C610 O625 1.272 . S
C611 Sm601 2.846 1_455 S
C611 C612 1.506 . S
C611 O626 1.261 . S
C611 O627 1.242 . S
C612 C611 1.506 . S
C612 C613 1.358 . S
C612 C617 1.382 . S
C613 C612 1.358 . S
C613 C614 1.385 . S
C613 H636 0.930 . S
C614 C613 1.385 . S
C614 C615 1.395 . S
C614 H637 0.929 . S
C615 C614 1.395 . S
C615 C616 1.335 . S
C616 C615 1.335 . S
C616 C617 1.398 . S
C616 H638 0.930 . S
C617 C612 1.382 . S
C617 C616 1.398 . S
C617 H639 0.929 . S
C618 O628 1.271 1_545 S
C618 O629 1.251 . S
C619 O630 1.252 . S
C619 O631 1.272 . S
O620 Sm600 2.543 . S
O620 C602 1.261 . S
O621 Sm600 2.450 . S
O621 C602 1.242 . S
O622 Sm600 2.681 . S
O622 Sm601 2.386 . S
O622 C609 1.271 . S
O623 Sm600 2.464 . S
O623 C609 1.251 . S
O624 Sm600 2.396 . S
O624 C610 1.252 . S
O625 Sm601 2.408 . S
O625 C610 1.272 . S
O626 Sm601 2.543 1_455 S
O626 C611 1.261 . S
O627 Sm601 2.450 1_455 S
O627 C611 1.242 . S
O628 Sm600 2.386 . S
O628 Sm601 2.681 . S
O628 C618 1.271 1_565 S
O629 Sm601 2.464 1_545 S
O629 C618 1.251 . S
O630 Sm601 2.396 . S
O630 C619 1.252 . S
O631 Sm600 2.408 . S
O631 C619 1.272 . S
H632 C604 0.930 1_545 S
H633 C605 0.929 1_545 S
H634 C607 0.930 . S
H635 C608 0.929 . S
H636 C613 0.930 . S
H637 C614 0.929 . S
H638 C616 0.930 . S
H639 C617 0.929 . S
Sm640 C642 2.846 . S
Sm640 O660 2.543 . S
Sm640 O661 2.450 . S
Sm640 O662 2.681 . S
Sm640 O663 2.464 . S
Sm640 O664 2.396 . S
Sm640 O668 2.386 . S
Sm640 O671 2.408 . S
Sm641 C651 2.846 . S
Sm641 O662 2.386 . S
Sm641 O665 2.408 . S
Sm641 O666 2.543 . S
Sm641 O667 2.450 . S
Sm641 O668 2.681 . S
Sm641 O669 2.464 . S
Sm641 O670 2.396 . S
C642 Sm640 2.846 . S
C642 C643 1.506 . S
C642 O660 1.261 . S
C642 O661 1.242 . S
C643 C642 1.506 . S
C643 C644 1.358 . S
C643 C648 1.382 . S
C644 C643 1.358 . S
C644 C645 1.385 . S
C644 H672 0.930 . S
C645 C644 1.385 . S
C645 C646 1.395 . S
C645 H673 0.929 . S
C646 C645 1.395 . S
C646 C647 1.335 . S
C647 C646 1.335 . S
C647 C648 1.398 . S
C647 H674 0.930 . S
C648 C643 1.382 . S
C648 C647 1.398 . S
C648 H675 0.929 . S
C649 O662 1.271 . S
C649 O663 1.251 . S
C650 O664 1.252 . S
C650 O665 1.272 . S
C651 Sm641 2.846 . S
C651 C652 1.506 . S
C651 O666 1.261 . S
C651 O667 1.242 . S
C652 C651 1.506 . S
C652 C653 1.358 . S
C652 C657 1.382 . S
C653 C652 1.358 . S
C653 C654 1.385 . S
C653 H676 0.930 . S
C654 C653 1.385 . S
C654 C655 1.395 . S
C654 H677 0.929 . S
C655 C654 1.395 . S
C655 C656 1.335 . S
C656 C655 1.335 . S
C656 C657 1.398 . S
C656 H678 0.930 . S
C657 C652 1.382 . S
C657 C656 1.398 . S
C657 H679 0.929 . S
C658 O668 1.271 . S
C658 O669 1.251 . S
C659 O670 1.252 . S
C659 O671 1.272 . S
O660 Sm640 2.543 . S
O660 C642 1.261 . S
O661 Sm640 2.450 . S
O661 C642 1.242 . S
O662 Sm640 2.681 . S
O662 Sm641 2.386 . S
O662 C649 1.271 . S
O663 Sm640 2.464 . S
O663 C649 1.251 . S
O664 Sm640 2.396 . S
O664 C650 1.252 . S
O665 Sm641 2.408 . S
O665 C650 1.272 . S
O666 Sm641 2.543 . S
O666 C651 1.261 . S
O667 Sm641 2.450 . S
O667 C651 1.242 . S
O668 Sm640 2.386 . S
O668 Sm641 2.681 . S
O668 C658 1.271 . S
O669 Sm641 2.464 . S
O669 C658 1.251 . S
O670 Sm641 2.396 . S
O670 C659 1.252 . S
O671 Sm640 2.408 . S
O671 C659 1.272 . S
H672 C644 0.930 . S
H673 C645 0.929 . S
H674 C647 0.930 . S
H675 C648 0.929 . S
H676 C653 0.930 . S
H677 C654 0.929 . S
H678 C656 0.930 . S
H679 C657 0.929 . S
Sm680 C682 2.846 . S
Sm680 O700 2.543 . S
Sm680 O701 2.450 . S
Sm680 O702 2.681 . S
Sm680 O703 2.464 . S
Sm680 O704 2.396 . S
Sm680 O708 2.386 . S
Sm680 O711 2.408 . S
Sm681 C691 2.846 . S
Sm681 O702 2.386 . S
Sm681 O705 2.408 . S
Sm681 O706 2.543 . S
Sm681 O707 2.450 . S
Sm681 O708 2.681 . S
Sm681 O709 2.464 . S
Sm681 O710 2.396 . S
C682 Sm680 2.846 . S
C682 C683 1.506 . S
C682 O700 1.261 . S
C682 O701 1.242 . S
C683 C682 1.506 . S
C683 C684 1.358 . S
C683 C688 1.382 . S
C684 C683 1.358 . S
C684 C685 1.385 . S
C684 H712 0.930 . S
C685 C684 1.385 . S
C685 C686 1.395 . S
C685 H713 0.929 . S
C686 C685 1.395 . S
C686 C687 1.335 . S
C687 C686 1.335 . S
C687 C688 1.398 . S
C687 H714 0.930 . S
C688 C683 1.382 . S
C688 C687 1.398 . S
C688 H715 0.929 . S
C689 O702 1.271 . S
C689 O703 1.251 . S
C690 O704 1.252 . S
C690 O705 1.272 . S
C691 Sm681 2.846 . S
C691 C692 1.506 . S
C691 O706 1.261 . S
C691 O707 1.242 . S
C692 C691 1.506 . S
C692 C693 1.358 . S
C692 C697 1.382 . S
C693 C692 1.358 . S
C693 C694 1.385 . S
C693 H716 0.930 . S
C694 C693 1.385 . S
C694 C695 1.395 . S
C694 H717 0.929 . S
C695 C694 1.395 . S
C695 C696 1.335 . S
C696 C695 1.335 . S
C696 C697 1.398 . S
C696 H718 0.930 . S
C697 C692 1.382 . S
C697 C696 1.398 . S
C697 H719 0.929 . S
C698 O708 1.271 . S
C698 O709 1.251 . S
C699 O710 1.252 . S
C699 O711 1.272 . S
O700 Sm680 2.543 . S
O700 C682 1.261 . S
O701 Sm680 2.450 . S
O701 C682 1.242 . S
O702 Sm680 2.681 . S
O702 Sm681 2.386 . S
O702 C689 1.271 . S
O703 Sm680 2.464 . S
O703 C689 1.251 . S
O704 Sm680 2.396 . S
O704 C690 1.252 . S
O705 Sm681 2.408 . S
O705 C690 1.272 . S
O706 Sm681 2.543 . S
O706 C691 1.261 . S
O707 Sm681 2.450 . S
O707 C691 1.242 . S
O708 Sm680 2.386 . S
O708 Sm681 2.681 . S
O708 C698 1.271 . S
O709 Sm681 2.464 . S
O709 C698 1.251 . S
O710 Sm681 2.396 . S
O710 C699 1.252 . S
O711 Sm680 2.408 . S
O711 C699 1.272 . S
H712 C684 0.930 . S
H713 C685 0.929 . S
H714 C687 0.930 . S
H715 C688 0.929 . S
H716 C693 0.930 . S
H717 C694 0.929 . S
H718 C696 0.930 . S
H719 C697 0.929 . S
Sm720 C722 2.846 . S
Sm720 O740 2.543 . S
Sm720 O741 2.450 . S
Sm720 O742 2.681 . S
Sm720 O743 2.464 . S
Sm720 O744 2.396 . S
Sm720 O748 2.386 . S
Sm720 O751 2.408 . S
Sm721 C731 2.846 . S
Sm721 O742 2.386 . S
Sm721 O745 2.408 . S
Sm721 O746 2.543 . S
Sm721 O747 2.450 . S
Sm721 O748 2.681 . S
Sm721 O749 2.464 . S
Sm721 O750 2.396 . S
C722 Sm720 2.846 . S
C722 C723 1.506 . S
C722 O740 1.261 . S
C722 O741 1.242 . S
C723 C722 1.506 . S
C723 C724 1.358 . S
C723 C728 1.382 . S
C724 C723 1.358 . S
C724 C725 1.385 . S
C724 H752 0.930 . S
C725 C724 1.385 . S
C725 C726 1.395 . S
C725 H753 0.929 . S
C726 C725 1.395 . S
C726 C727 1.335 . S
C727 C726 1.335 . S
C727 C728 1.398 . S
C727 H754 0.930 . S
C728 C723 1.382 . S
C728 C727 1.398 . S
C728 H755 0.929 . S
C729 O742 1.271 . S
C729 O743 1.251 . S
C730 O744 1.252 . S
C730 O745 1.272 . S
C731 Sm721 2.846 . S
C731 C732 1.506 . S
C731 O746 1.261 . S
C731 O747 1.242 . S
C732 C731 1.506 . S
C732 C733 1.358 . S
C732 C737 1.382 . S
C733 C732 1.358 . S
C733 C734 1.385 . S
C733 H756 0.930 . S
C734 C733 1.385 . S
C734 C735 1.395 . S
C734 H757 0.929 . S
C735 C734 1.395 . S
C735 C736 1.335 . S
C736 C735 1.335 . S
C736 C737 1.398 . S
C736 H758 0.930 . S
C737 C732 1.382 . S
C737 C736 1.398 . S
C737 H759 0.929 . S
C738 O748 1.271 . S
C738 O749 1.251 . S
C739 O750 1.252 . S
C739 O751 1.272 . S
O740 Sm720 2.543 . S
O740 C722 1.261 . S
O741 Sm720 2.450 . S
O741 C722 1.242 . S
O742 Sm720 2.681 . S
O742 Sm721 2.386 . S
O742 C729 1.271 . S
O743 Sm720 2.464 . S
O743 C729 1.251 . S
O744 Sm720 2.396 . S
O744 C730 1.252 . S
O745 Sm721 2.408 . S
O745 C730 1.272 . S
O746 Sm721 2.543 . S
O746 C731 1.261 . S
O747 Sm721 2.450 . S
O747 C731 1.242 . S
O748 Sm720 2.386 . S
O748 Sm721 2.681 . S
O748 C738 1.271 . S
O749 Sm721 2.464 . S
O749 C738 1.251 . S
O750 Sm721 2.396 . S
O750 C739 1.252 . S
O751 Sm720 2.408 . S
O751 C739 1.272 . S
H752 C724 0.930 . S
H753 C725 0.929 . S
H754 C727 0.930 . S
H755 C728 0.929 . S
H756 C733 0.930 . S
H757 C734 0.929 . S
H758 C736 0.930 . S
H759 C737 0.929 . S
Sm760 C762 2.846 1_655 S
Sm760 O780 2.543 1_655 S
Sm760 O781 2.450 1_655 S
Sm760 O782 2.681 . S
Sm760 O783 2.464 . S
Sm760 O784 2.396 . S
Sm760 O788 2.386 . S
Sm760 O791 2.408 . S
Sm761 C771 2.846 . S
Sm761 O782 2.386 . S
Sm761 O785 2.408 . S
Sm761 O786 2.543 . S
Sm761 O787 2.450 . S
Sm761 O788 2.681 . S
Sm761 O789 2.464 . S
Sm761 O790 2.396 . S
C762 Sm760 2.846 1_455 S
C762 C763 1.506 . S
C762 O780 1.261 . S
C762 O781 1.242 . S
C763 C762 1.506 . S
C763 C764 1.358 . S
C763 C768 1.382 . S
C764 C763 1.358 . S
C764 C765 1.385 . S
C764 H792 0.930 . S
C765 C764 1.385 . S
C765 C766 1.395 . S
C765 H793 0.929 . S
C766 C765 1.395 . S
C766 C767 1.335 . S
C767 C766 1.335 . S
C767 C768 1.398 . S
C767 H794 0.930 . S
C768 C763 1.382 . S
C768 C767 1.398 . S
C768 H795 0.929 . S
C769 O782 1.271 . S
C769 O783 1.251 . S
C770 O784 1.252 . S
C770 O785 1.272 . S
C771 Sm761 2.846 . S
C771 C772 1.506 . S
C771 O786 1.261 . S
C771 O787 1.242 . S
C772 C771 1.506 . S
C772 C773 1.358 . S
C772 C777 1.382 . S
C773 C772 1.358 . S
C773 C774 1.385 . S
C773 H796 0.930 . S
C774 C773 1.385 . S
C774 C775 1.395 . S
C774 H797 0.929 . S
C775 C774 1.395 . S
C775 C776 1.335 . S
C776 C775 1.335 . S
C776 C777 1.398 . S
C776 H798 0.930 . S
C777 C772 1.382 . S
C777 C776 1.398 . S
C777 H799 0.929 . S
C778 O788 1.271 . S
C778 O789 1.251 . S
C779 O790 1.252 . S
C779 O791 1.272 . S
O780 Sm760 2.543 1_455 S
O780 C762 1.261 . S
O781 Sm760 2.450 1_455 S
O781 C762 1.242 . S
O782 Sm760 2.681 . S
O782 Sm761 2.386 . S
O782 C769 1.271 . S
O783 Sm760 2.464 . S
O783 C769 1.251 . S
O784 Sm760 2.396 . S
O784 C770 1.252 . S
O785 Sm761 2.408 . S
O785 C770 1.272 . S
O786 Sm761 2.543 . S
O786 C771 1.261 . S
O787 Sm761 2.450 . S
O787 C771 1.242 . S
O788 Sm760 2.386 . S
O788 Sm761 2.681 . S
O788 C778 1.271 . S
O789 Sm761 2.464 . S
O789 C778 1.251 . S
O790 Sm761 2.396 . S
O790 C779 1.252 . S
O791 Sm760 2.408 . S
O791 C779 1.272 . S
H792 C764 0.930 . S
H793 C765 0.929 . S
H794 C767 0.930 . S
H795 C768 0.929 . S
H796 C773 0.930 . S
H797 C774 0.929 . S
H798 C776 0.930 . S
H799 C777 0.929 . S
Sm800 C802 2.846 . S
Sm800 O820 2.543 . S
Sm800 O821 2.450 . S
Sm800 O822 2.681 . S
Sm800 O823 2.464 . S
Sm800 O824 2.396 . S
Sm800 O828 2.386 . S
Sm800 O831 2.408 . S
Sm801 C811 2.846 . S
Sm801 O822 2.386 . S
Sm801 O825 2.408 . S
Sm801 O826 2.543 . S
Sm801 O827 2.450 . S
Sm801 O828 2.681 . S
Sm801 O829 2.464 . S
Sm801 O830 2.396 . S
C802 Sm800 2.846 . S
C802 C803 1.506 . S
C802 O820 1.261 . S
C802 O821 1.242 . S
C803 C802 1.506 . S
C803 C804 1.358 . S
C803 C808 1.382 . S
C804 C803 1.358 . S
C804 C805 1.385 . S
C804 H832 0.930 . S
C805 C804 1.385 . S
C805 C806 1.395 . S
C805 H833 0.929 . S
C806 C805 1.395 . S
C806 C807 1.335 . S
C807 C806 1.335 . S
C807 C808 1.398 . S
C807 H834 0.930 . S
C808 C803 1.382 . S
C808 C807 1.398 . S
C808 H835 0.929 . S
C809 O822 1.271 . S
C809 O823 1.251 . S
C810 O824 1.252 . S
C810 O825 1.272 . S
C811 Sm801 2.846 . S
C811 C812 1.506 . S
C811 O826 1.261 . S
C811 O827 1.242 . S
C812 C811 1.506 . S
C812 C813 1.358 . S
C812 C817 1.382 . S
C813 C812 1.358 . S
C813 C814 1.385 . S
C813 H836 0.930 . S
C814 C813 1.385 . S
C814 C815 1.395 . S
C814 H837 0.929 . S
C815 C814 1.395 . S
C815 C816 1.335 . S
C816 C815 1.335 . S
C816 C817 1.398 . S
C816 H838 0.930 . S
C817 C812 1.382 . S
C817 C816 1.398 . S
C817 H839 0.929 . S
C818 O828 1.271 . S
C818 O829 1.251 . S
C819 O830 1.252 . S
C819 O831 1.272 . S
O820 Sm800 2.543 . S
O820 C802 1.261 . S
O821 Sm800 2.450 . S
O821 C802 1.242 . S
O822 Sm800 2.681 . S
O822 Sm801 2.386 . S
O822 C809 1.271 . S
O823 Sm800 2.464 . S
O823 C809 1.251 . S
O824 Sm800 2.396 . S
O824 C810 1.252 . S
O825 Sm801 2.408 . S
O825 C810 1.272 . S
O826 Sm801 2.543 . S
O826 C811 1.261 . S
O827 Sm801 2.450 . S
O827 C811 1.242 . S
O828 Sm800 2.386 . S
O828 Sm801 2.681 . S
O828 C818 1.271 . S
O829 Sm801 2.464 . S
O829 C818 1.251 . S
O830 Sm801 2.396 . S
O830 C819 1.252 . S
O831 Sm800 2.408 . S
O831 C819 1.272 . S
H832 C804 0.930 . S
H833 C805 0.929 . S
H834 C807 0.930 . S
H835 C808 0.929 . S
H836 C813 0.930 . S
H837 C814 0.929 . S
H838 C816 0.930 . S
H839 C817 0.929 . S
Sm840 C842 2.846 1_655 S
Sm840 O860 2.543 1_655 S
Sm840 O861 2.450 1_655 S
Sm840 O862 2.681 . S
Sm840 O863 2.464 . S
Sm840 O864 2.396 . S
Sm840 O868 2.386 . S
Sm840 O871 2.408 . S
Sm841 C851 2.846 . S
Sm841 O862 2.386 . S
Sm841 O865 2.408 . S
Sm841 O866 2.543 . S
Sm841 O867 2.450 . S
Sm841 O868 2.681 . S
Sm841 O869 2.464 . S
Sm841 O870 2.396 . S
C842 Sm840 2.846 1_455 S
C842 C843 1.506 . S
C842 O860 1.261 . S
C842 O861 1.242 . S
C843 C842 1.506 . S
C843 C844 1.358 . S
C843 C848 1.382 . S
C844 C843 1.358 . S
C844 C845 1.385 . S
C844 H872 0.930 . S
C845 C844 1.385 . S
C845 C846 1.395 . S
C845 H873 0.929 . S
C846 C845 1.395 . S
C846 C847 1.335 . S
C847 C846 1.335 . S
C847 C848 1.398 . S
C847 H874 0.930 . S
C848 C843 1.382 . S
C848 C847 1.398 . S
C848 H875 0.929 . S
C849 O862 1.271 . S
C849 O863 1.251 . S
C850 O864 1.252 . S
C850 O865 1.272 . S
C851 Sm841 2.846 . S
C851 C852 1.506 . S
C851 O866 1.261 . S
C851 O867 1.242 . S
C852 C851 1.506 . S
C852 C853 1.358 . S
C852 C857 1.382 . S
C853 C852 1.358 . S
C853 C854 1.385 . S
C853 H876 0.930 . S
C854 C853 1.385 . S
C854 C855 1.395 . S
C854 H877 0.929 . S
C855 C854 1.395 . S
C855 C856 1.335 . S
C856 C855 1.335 . S
C856 C857 1.398 . S
C856 H878 0.930 . S
C857 C852 1.382 . S
C857 C856 1.398 . S
C857 H879 0.929 . S
C858 O868 1.271 . S
C858 O869 1.251 . S
C859 O870 1.252 . S
C859 O871 1.272 . S
O860 Sm840 2.543 1_455 S
O860 C842 1.261 . S
O861 Sm840 2.450 1_455 S
O861 C842 1.242 . S
O862 Sm840 2.681 . S
O862 Sm841 2.386 . S
O862 C849 1.271 . S
O863 Sm840 2.464 . S
O863 C849 1.251 . S
O864 Sm840 2.396 . S
O864 C850 1.252 . S
O865 Sm841 2.408 . S
O865 C850 1.272 . S
O866 Sm841 2.543 . S
O866 C851 1.261 . S
O867 Sm841 2.450 . S
O867 C851 1.242 . S
O868 Sm840 2.386 . S
O868 Sm841 2.681 . S
O868 C858 1.271 . S
O869 Sm841 2.464 . S
O869 C858 1.251 . S
O870 Sm841 2.396 . S
O870 C859 1.252 . S
O871 Sm840 2.408 . S
O871 C859 1.272 . S
H872 C844 0.930 . S
H873 C845 0.929 . S
H874 C847 0.930 . S
H875 C848 0.929 . S
H876 C853 0.930 . S
H877 C854 0.929 . S
H878 C856 0.930 . S
H879 C857 0.929 . S
Sm880 C882 2.846 . S
Sm880 O900 2.543 . S
Sm880 O901 2.450 . S
Sm880 O902 2.681 . S
Sm880 O903 2.464 . S
Sm880 O904 2.396 . S
Sm880 O908 2.386 . S
Sm880 O911 2.408 . S
Sm881 C891 2.846 . S
Sm881 O902 2.386 . S
Sm881 O905 2.408 . S
Sm881 O906 2.543 . S
Sm881 O907 2.450 . S
Sm881 O908 2.681 . S
Sm881 O909 2.464 . S
Sm881 O910 2.396 . S
C882 Sm880 2.846 . S
C882 C883 1.506 . S
C882 O900 1.261 . S
C882 O901 1.242 . S
C883 C882 1.506 . S
C883 C884 1.358 . S
C883 C888 1.382 . S
C884 C883 1.358 . S
C884 C885 1.385 . S
C884 H912 0.930 . S
C885 C884 1.385 . S
C885 C886 1.395 . S
C885 H913 0.929 . S
C886 C885 1.395 . S
C886 C887 1.335 . S
C887 C886 1.335 . S
C887 C888 1.398 . S
C887 H914 0.930 . S
C888 C883 1.382 . S
C888 C887 1.398 . S
C888 H915 0.929 . S
C889 O902 1.271 . S
C889 O903 1.251 . S
C890 O904 1.252 . S
C890 O905 1.272 . S
C891 Sm881 2.846 . S
C891 C892 1.506 . S
C891 O906 1.261 . S
C891 O907 1.242 . S
C892 C891 1.506 . S
C892 C893 1.358 . S
C892 C897 1.382 . S
C893 C892 1.358 . S
C893 C894 1.385 . S
C893 H916 0.930 . S
C894 C893 1.385 . S
C894 C895 1.395 . S
C894 H917 0.929 . S
C895 C894 1.395 . S
C895 C896 1.335 . S
C896 C895 1.335 . S
C896 C897 1.398 . S
C896 H918 0.930 . S
C897 C892 1.382 . S
C897 C896 1.398 . S
C897 H919 0.929 . S
C898 O908 1.271 . S
C898 O909 1.251 . S
C899 O910 1.252 . S
C899 O911 1.272 . S
O900 Sm880 2.543 . S
O900 C882 1.261 . S
O901 Sm880 2.450 . S
O901 C882 1.242 . S
O902 Sm880 2.681 . S
O902 Sm881 2.386 . S
O902 C889 1.271 . S
O903 Sm880 2.464 . S
O903 C889 1.251 . S
O904 Sm880 2.396 . S
O904 C890 1.252 . S
O905 Sm881 2.408 . S
O905 C890 1.272 . S
O906 Sm881 2.543 . S
O906 C891 1.261 . S
O907 Sm881 2.450 . S
O907 C891 1.242 . S
O908 Sm880 2.386 . S
O908 Sm881 2.681 . S
O908 C898 1.271 . S
O909 Sm881 2.464 . S
O909 C898 1.251 . S
O910 Sm881 2.396 . S
O910 C899 1.252 . S
O911 Sm880 2.408 . S
O911 C899 1.272 . S
H912 C884 0.930 . S
H913 C885 0.929 . S
H914 C887 0.930 . S
H915 C888 0.929 . S
H916 C893 0.930 . S
H917 C894 0.929 . S
H918 C896 0.930 . S
H919 C897 0.929 . S
Sm920 C922 2.846 . S
Sm920 O940 2.543 . S
Sm920 O941 2.450 . S
Sm920 O942 2.681 . S
Sm920 O943 2.464 . S
Sm920 O944 2.396 . S
Sm920 O948 2.386 . S
Sm920 O951 2.408 . S
Sm921 C931 2.846 . S
Sm921 O942 2.386 . S
Sm921 O945 2.408 . S
Sm921 O946 2.543 . S
Sm921 O947 2.450 . S
Sm921 O948 2.681 . S
Sm921 O949 2.464 . S
Sm921 O950 2.396 . S
C922 Sm920 2.846 . S
C922 C923 1.506 . S
C922 O940 1.261 . S
C922 O941 1.242 . S
C923 C922 1.506 . S
C923 C924 1.358 . S
C923 C928 1.382 . S
C924 C923 1.358 . S
C924 C925 1.385 . S
C924 H952 0.930 . S
C925 C924 1.385 . S
C925 C926 1.395 . S
C925 H953 0.929 . S
C926 C925 1.395 . S
C926 C927 1.335 . S
C927 C926 1.335 . S
C927 C928 1.398 . S
C927 H954 0.930 . S
C928 C923 1.382 . S
C928 C927 1.398 . S
C928 H955 0.929 . S
C929 O942 1.271 . S
C929 O943 1.251 . S
C930 O944 1.252 . S
C930 O945 1.272 . S
C931 Sm921 2.846 . S
C931 C932 1.506 . S
C931 O946 1.261 . S
C931 O947 1.242 . S
C932 C931 1.506 . S
C932 C933 1.358 . S
C932 C937 1.382 . S
C933 C932 1.358 . S
C933 C934 1.385 . S
C933 H956 0.930 . S
C934 C933 1.385 . S
C934 C935 1.395 . S
C934 H957 0.929 . S
C935 C934 1.395 . S
C935 C936 1.335 . S
C936 C935 1.335 . S
C936 C937 1.398 . S
C936 H958 0.930 . S
C937 C932 1.382 . S
C937 C936 1.398 . S
C937 H959 0.929 . S
C938 O948 1.271 . S
C938 O949 1.251 . S
C939 O950 1.252 . S
C939 O951 1.272 . S
O940 Sm920 2.543 . S
O940 C922 1.261 . S
O941 Sm920 2.450 . S
O941 C922 1.242 . S
O942 Sm920 2.681 . S
O942 Sm921 2.386 . S
O942 C929 1.271 . S
O943 Sm920 2.464 . S
O943 C929 1.251 . S
O944 Sm920 2.396 . S
O944 C930 1.252 . S
O945 Sm921 2.408 . S
O945 C930 1.272 . S
O946 Sm921 2.543 . S
O946 C931 1.261 . S
O947 Sm921 2.450 . S
O947 C931 1.242 . S
O948 Sm920 2.386 . S
O948 Sm921 2.681 . S
O948 C938 1.271 . S
O949 Sm921 2.464 . S
O949 C938 1.251 . S
O950 Sm921 2.396 . S
O950 C939 1.252 . S
O951 Sm920 2.408 . S
O951 C939 1.272 . S
H952 C924 0.930 . S
H953 C925 0.929 . S
H954 C927 0.930 . S
H955 C928 0.929 . S
H956 C933 0.930 . S
H957 C934 0.929 . S
H958 C936 0.930 . S
H959 C937 0.929 . S
Sm960 C962 2.846 . S
Sm960 O980 2.543 . S
Sm960 O981 2.450 . S
Sm960 O982 2.681 . S
Sm960 O983 2.464 . S
Sm960 O984 2.396 . S
Sm960 O988 2.386 . S
Sm960 O991 2.408 . S
Sm961 C971 2.846 . S
Sm961 O982 2.386 . S
Sm961 O985 2.408 . S
Sm961 O986 2.543 . S
Sm961 O987 2.450 . S
Sm961 O988 2.681 . S
Sm961 O989 2.464 . S
Sm961 O990 2.396 . S
C962 Sm960 2.846 . S
C962 C963 1.506 . S
C962 O980 1.261 . S
C962 O981 1.242 . S
C963 C962 1.506 . S
C963 C964 1.358 . S
C963 C968 1.382 . S
C964 C963 1.358 . S
C964 C965 1.385 . S
C964 H992 0.930 . S
C965 C964 1.385 . S
C965 C966 1.395 . S
C965 H993 0.929 . S
C966 C965 1.395 . S
C966 C967 1.335 . S
C967 C966 1.335 . S
C967 C968 1.398 . S
C967 H994 0.930 . S
C968 C963 1.382 . S
C968 C967 1.398 . S
C968 H995 0.929 . S
C969 O982 1.271 . S
C969 O983 1.251 . S
C970 O984 1.252 . S
C970 O985 1.272 . S
C971 Sm961 2.846 . S
C971 C972 1.506 . S
C971 O986 1.261 . S
C971 O987 1.242 . S
C972 C971 1.506 . S
C972 C973 1.358 . S
C972 C977 1.382 . S
C973 C972 1.358 . S
C973 C974 1.385 . S
C973 H996 0.930 . S
C974 C973 1.385 . S
C974 C975 1.395 . S
C974 H997 0.929 . S
C975 C974 1.395 . S
C975 C976 1.335 . S
C976 C975 1.335 . S
C976 C977 1.398 . S
C976 H998 0.930 . S
C977 C972 1.382 . S
C977 C976 1.398 . S
C977 H999 0.929 . S
C978 O988 1.271 . S
C978 O989 1.251 . S
C979 O990 1.252 . S
C979 O991 1.272 . S
O980 Sm960 2.543 . S
O980 C962 1.261 . S
O981 Sm960 2.450 . S
O981 C962 1.242 . S
O982 Sm960 2.681 . S
O982 Sm961 2.386 . S
O982 C969 1.271 . S
O983 Sm960 2.464 . S
O983 C969 1.251 . S
O984 Sm960 2.396 . S
O984 C970 1.252 . S
O985 Sm961 2.408 . S
O985 C970 1.272 . S
O986 Sm961 2.543 . S
O986 C971 1.261 . S
O987 Sm961 2.450 . S
O987 C971 1.242 . S
O988 Sm960 2.386 . S
O988 Sm961 2.681 . S
O988 C978 1.271 . S
O989 Sm961 2.464 . S
O989 C978 1.251 . S
O990 Sm961 2.396 . S
O990 C979 1.252 . S
O991 Sm960 2.408 . S
O991 C979 1.272 . S
H992 C964 0.930 . S
H993 C965 0.929 . S
H994 C967 0.930 . S
H995 C968 0.929 . S
H996 C973 0.930 . S
H997 C974 0.929 . S
H998 C976 0.930 . S
H999 C977 0.929 . S
Sm1000 C1002 2.846 . S
Sm1000 O1020 2.543 . S
Sm1000 O1021 2.450 . S
Sm1000 O1022 2.681 . S
Sm1000 O1023 2.464 . S
Sm1000 O1024 2.396 . S
Sm1000 O1028 2.386 . S
Sm1000 O1031 2.408 . S
Sm1001 C1011 2.846 . S
Sm1001 O1022 2.386 . S
Sm1001 O1025 2.408 . S
Sm1001 O1026 2.543 . S
Sm1001 O1027 2.450 . S
Sm1001 O1028 2.681 . S
Sm1001 O1029 2.464 . S
Sm1001 O1030 2.396 . S
C1002 Sm1000 2.846 . S
C1002 C1003 1.506 . S
C1002 O1020 1.261 . S
C1002 O1021 1.242 . S
C1003 C1002 1.506 . S
C1003 C1004 1.358 . S
C1003 C1008 1.382 . S
C1004 C1003 1.358 . S
C1004 C1005 1.385 . S
C1004 H1032 0.930 . S
C1005 C1004 1.385 . S
C1005 C1006 1.395 . S
C1005 H1033 0.929 . S
C1006 C1005 1.395 . S
C1006 C1007 1.335 . S
C1007 C1006 1.335 . S
C1007 C1008 1.398 . S
C1007 H1034 0.930 . S
C1008 C1003 1.382 . S
C1008 C1007 1.398 . S
C1008 H1035 0.929 . S
C1009 O1022 1.271 . S
C1009 O1023 1.251 . S
C1010 O1024 1.252 . S
C1010 O1025 1.272 . S
C1011 Sm1001 2.846 . S
C1011 C1012 1.506 . S
C1011 O1026 1.261 . S
C1011 O1027 1.242 . S
C1012 C1011 1.506 . S
C1012 C1013 1.358 . S
C1012 C1017 1.382 . S
C1013 C1012 1.358 . S
C1013 C1014 1.385 . S
C1013 H1036 0.930 . S
C1014 C1013 1.385 . S
C1014 C1015 1.395 . S
C1014 H1037 0.929 . S
C1015 C1014 1.395 . S
C1015 C1016 1.335 . S
C1016 C1015 1.335 . S
C1016 C1017 1.398 . S
C1016 H1038 0.930 . S
C1017 C1012 1.382 . S
C1017 C1016 1.398 . S
C1017 H1039 0.929 . S
C1018 O1028 1.271 . S
C1018 O1029 1.251 . S
C1019 O1030 1.252 . S
C1019 O1031 1.272 . S
O1020 Sm1000 2.543 . S
O1020 C1002 1.261 . S
O1021 Sm1000 2.450 . S
O1021 C1002 1.242 . S
O1022 Sm1000 2.681 . S
O1022 Sm1001 2.386 . S
O1022 C1009 1.271 . S
O1023 Sm1000 2.464 . S
O1023 C1009 1.251 . S
O1024 Sm1000 2.396 . S
O1024 C1010 1.252 . S
O1025 Sm1001 2.408 . S
O1025 C1010 1.272 . S
O1026 Sm1001 2.543 . S
O1026 C1011 1.261 . S
O1027 Sm1001 2.450 . S
O1027 C1011 1.242 . S
O1028 Sm1000 2.386 . S
O1028 Sm1001 2.681 . S
O1028 C1018 1.271 . S
O1029 Sm1001 2.464 . S
O1029 C1018 1.251 . S
O1030 Sm1001 2.396 . S
O1030 C1019 1.252 . S
O1031 Sm1000 2.408 . S
O1031 C1019 1.272 . S
H1032 C1004 0.930 . S
H1033 C1005 0.929 . S
H1034 C1007 0.930 . S
H1035 C1008 0.929 . S
H1036 C1013 0.930 . S
H1037 C1014 0.929 . S
H1038 C1016 0.930 . S
H1039 C1017 0.929 . S
Sm1040 C1042 2.846 . S
Sm1040 O1060 2.543 . S
Sm1040 O1061 2.450 . S
Sm1040 O1062 2.681 . S
Sm1040 O1063 2.464 . S
Sm1040 O1064 2.396 . S
Sm1040 O1068 2.386 . S
Sm1040 O1071 2.408 . S
Sm1041 C1051 2.846 . S
Sm1041 O1062 2.386 . S
Sm1041 O1065 2.408 . S
Sm1041 O1066 2.543 . S
Sm1041 O1067 2.450 . S
Sm1041 O1068 2.681 . S
Sm1041 O1069 2.464 . S
Sm1041 O1070 2.396 . S
C1042 Sm1040 2.846 . S
C1042 C1043 1.506 . S
C1042 O1060 1.261 . S
C1042 O1061 1.242 . S
C1043 C1042 1.506 . S
C1043 C1044 1.358 . S
C1043 C1048 1.382 . S
C1044 C1043 1.358 . S
C1044 C1045 1.385 . S
C1044 H1072 0.930 . S
C1045 C1044 1.385 . S
C1045 C1046 1.395 . S
C1045 H1073 0.929 . S
C1046 C1045 1.395 . S
C1046 C1047 1.335 . S
C1047 C1046 1.335 . S
C1047 C1048 1.398 . S
C1047 H1074 0.930 . S
C1048 C1043 1.382 . S
C1048 C1047 1.398 . S
C1048 H1075 0.929 . S
C1049 O1062 1.271 . S
C1049 O1063 1.251 . S
C1050 O1064 1.252 . S
C1050 O1065 1.272 . S
C1051 Sm1041 2.846 . S
C1051 C1052 1.506 . S
C1051 O1066 1.261 . S
C1051 O1067 1.242 . S
C1052 C1051 1.506 . S
C1052 C1053 1.358 . S
C1052 C1057 1.382 . S
C1053 C1052 1.358 . S
C1053 C1054 1.385 . S
C1053 H1076 0.930 . S
C1054 C1053 1.385 . S
C1054 C1055 1.395 . S
C1054 H1077 0.929 . S
C1055 C1054 1.395 . S
C1055 C1056 1.335 . S
C1056 C1055 1.335 . S
C1056 C1057 1.398 . S
C1056 H1078 0.930 . S
C1057 C1052 1.382 . S
C1057 C1056 1.398 . S
C1057 H1079 0.929 . S
C1058 O1068 1.271 . S
C1058 O1069 1.251 . S
C1059 O1070 1.252 . S
C1059 O1071 1.272 . S
O1060 Sm1040 2.543 . S
O1060 C1042 1.261 . S
O1061 Sm1040 2.450 . S
O1061 C1042 1.242 . S
O1062 Sm1040 2.681 . S
O1062 Sm1041 2.386 . S
O1062 C1049 1.271 . S
O1063 Sm1040 2.464 . S
O1063 C1049 1.251 . S
O1064 Sm1040 2.396 . S
O1064 C1050 1.252 . S
O1065 Sm1041 2.408 . S
O1065 C1050 1.272 . S
O1066 Sm1041 2.543 . S
O1066 C1051 1.261 . S
O1067 Sm1041 2.450 . S
O1067 C1051 1.242 . S
O1068 Sm1040 2.386 . S
O1068 Sm1041 2.681 . S
O1068 C1058 1.271 . S
O1069 Sm1041 2.464 . S
O1069 C1058 1.251 . S
O1070 Sm1041 2.396 . S
O1070 C1059 1.252 . S
O1071 Sm1040 2.408 . S
O1071 C1059 1.272 . S
H1072 C1044 0.930 . S
H1073 C1045 0.929 . S
H1074 C1047 0.930 . S
H1075 C1048 0.929 . S
H1076 C1053 0.930 . S
H1077 C1054 0.929 . S
H1078 C1056 0.930 . S
H1079 C1057 0.929 . S
Sm1080 C1082 2.846 . S
Sm1080 O1100 2.543 . S
Sm1080 O1101 2.450 . S
Sm1080 O1102 2.681 . S
Sm1080 O1103 2.464 . S
Sm1080 O1104 2.396 . S
Sm1080 O1108 2.386 . S
Sm1080 O1111 2.408 . S
Sm1081 C1091 2.846 1_455 S
Sm1081 O1102 2.386 . S
Sm1081 O1105 2.408 . S
Sm1081 O1106 2.543 1_455 S
Sm1081 O1107 2.450 1_455 S
Sm1081 O1108 2.681 . S
Sm1081 O1109 2.464 . S
Sm1081 O1110 2.396 . S
C1082 Sm1080 2.846 . S
C1082 C1083 1.506 . S
C1082 O1100 1.261 . S
C1082 O1101 1.242 . S
C1083 C1082 1.506 . S
C1083 C1084 1.358 . S
C1083 C1088 1.382 . S
C1084 C1083 1.358 . S
C1084 C1085 1.385 . S
C1084 H1112 0.930 . S
C1085 C1084 1.385 . S
C1085 C1086 1.395 . S
C1085 H1113 0.929 . S
C1086 C1085 1.395 . S
C1086 C1087 1.335 . S
C1087 C1086 1.335 . S
C1087 C1088 1.398 . S
C1087 H1114 0.930 . S
C1088 C1083 1.382 . S
C1088 C1087 1.398 . S
C1088 H1115 0.929 . S
C1089 O1102 1.271 . S
C1089 O1103 1.251 . S
C1090 O1104 1.252 . S
C1090 O1105 1.272 . S
C1091 Sm1081 2.846 1_655 S
C1091 C1092 1.506 . S
C1091 O1106 1.261 . S
C1091 O1107 1.242 . S
C1092 C1091 1.506 . S
C1092 C1093 1.358 . S
C1092 C1097 1.382 . S
C1093 C1092 1.358 . S
C1093 C1094 1.385 . S
C1093 H1116 0.930 . S
C1094 C1093 1.385 . S
C1094 C1095 1.395 . S
C1094 H1117 0.929 . S
C1095 C1094 1.395 . S
C1095 C1096 1.335 . S
C1096 C1095 1.335 . S
C1096 C1097 1.398 . S
C1096 H1118 0.930 . S
C1097 C1092 1.382 . S
C1097 C1096 1.398 . S
C1097 H1119 0.929 . S
C1098 O1108 1.271 . S
C1098 O1109 1.251 . S
C1099 O1110 1.252 . S
C1099 O1111 1.272 . S
O1100 Sm1080 2.543 . S
O1100 C1082 1.261 . S
O1101 Sm1080 2.450 . S
O1101 C1082 1.242 . S
O1102 Sm1080 2.681 . S
O1102 Sm1081 2.386 . S
O1102 C1089 1.271 . S
O1103 Sm1080 2.464 . S
O1103 C1089 1.251 . S
O1104 Sm1080 2.396 . S
O1104 C1090 1.252 . S
O1105 Sm1081 2.408 . S
O1105 C1090 1.272 . S
O1106 Sm1081 2.543 1_655 S
O1106 C1091 1.261 . S
O1107 Sm1081 2.450 1_655 S
O1107 C1091 1.242 . S
O1108 Sm1080 2.386 . S
O1108 Sm1081 2.681 . S
O1108 C1098 1.271 . S
O1109 Sm1081 2.464 . S
O1109 C1098 1.251 . S
O1110 Sm1081 2.396 . S
O1110 C1099 1.252 . S
O1111 Sm1080 2.408 . S
O1111 C1099 1.272 . S
H1112 C1084 0.930 . S
H1113 C1085 0.929 . S
H1114 C1087 0.930 . S
H1115 C1088 0.929 . S
H1116 C1093 0.930 . S
H1117 C1094 0.929 . S
H1118 C1096 0.930 . S
H1119 C1097 0.929 . S
Sm1120 C1122 2.846 . S
Sm1120 O1140 2.543 . S
Sm1120 O1141 2.450 . S
Sm1120 O1142 2.681 . S
Sm1120 O1143 2.464 . S
Sm1120 O1144 2.396 . S
Sm1120 O1148 2.386 . S
Sm1120 O1151 2.408 . S
Sm1121 C1131 2.846 . S
Sm1121 O1142 2.386 . S
Sm1121 O1145 2.408 . S
Sm1121 O1146 2.543 . S
Sm1121 O1147 2.450 . S
Sm1121 O1148 2.681 . S
Sm1121 O1149 2.464 . S
Sm1121 O1150 2.396 . S
C1122 Sm1120 2.846 . S
C1122 C1123 1.506 . S
C1122 O1140 1.261 . S
C1122 O1141 1.242 . S
C1123 C1122 1.506 . S
C1123 C1124 1.358 . S
C1123 C1128 1.382 . S
C1124 C1123 1.358 . S
C1124 C1125 1.385 . S
C1124 H1152 0.930 . S
C1125 C1124 1.385 . S
C1125 C1126 1.395 . S
C1125 H1153 0.929 . S
C1126 C1125 1.395 . S
C1126 C1127 1.335 . S
C1127 C1126 1.335 . S
C1127 C1128 1.398 . S
C1127 H1154 0.930 . S
C1128 C1123 1.382 . S
C1128 C1127 1.398 . S
C1128 H1155 0.929 . S
C1129 O1142 1.271 . S
C1129 O1143 1.251 . S
C1130 O1144 1.252 . S
C1130 O1145 1.272 . S
C1131 Sm1121 2.846 . S
C1131 C1132 1.506 . S
C1131 O1146 1.261 . S
C1131 O1147 1.242 . S
C1132 C1131 1.506 . S
C1132 C1133 1.358 . S
C1132 C1137 1.382 . S
C1133 C1132 1.358 . S
C1133 C1134 1.385 . S
C1133 H1156 0.930 . S
C1134 C1133 1.385 . S
C1134 C1135 1.395 . S
C1134 H1157 0.929 . S
C1135 C1134 1.395 . S
C1135 C1136 1.335 . S
C1136 C1135 1.335 . S
C1136 C1137 1.398 . S
C1136 H1158 0.930 . S
C1137 C1132 1.382 . S
C1137 C1136 1.398 . S
C1137 H1159 0.929 . S
C1138 O1148 1.271 . S
C1138 O1149 1.251 . S
C1139 O1150 1.252 . S
C1139 O1151 1.272 . S
O1140 Sm1120 2.543 . S
O1140 C1122 1.261 . S
O1141 Sm1120 2.450 . S
O1141 C1122 1.242 . S
O1142 Sm1120 2.681 . S
O1142 Sm1121 2.386 . S
O1142 C1129 1.271 . S
O1143 Sm1120 2.464 . S
O1143 C1129 1.251 . S
O1144 Sm1120 2.396 . S
O1144 C1130 1.252 . S
O1145 Sm1121 2.408 . S
O1145 C1130 1.272 . S
O1146 Sm1121 2.543 . S
O1146 C1131 1.261 . S
O1147 Sm1121 2.450 . S
O1147 C1131 1.242 . S
O1148 Sm1120 2.386 . S
O1148 Sm1121 2.681 . S
O1148 C1138 1.271 . S
O1149 Sm1121 2.464 . S
O1149 C1138 1.251 . S
O1150 Sm1121 2.396 . S
O1150 C1139 1.252 . S
O1151 Sm1120 2.408 . S
O1151 C1139 1.272 . S
H1152 C1124 0.930 . S
H1153 C1125 0.929 . S
H1154 C1127 0.930 . S
H1155 C1128 0.929 . S
H1156 C1133 0.930 . S
H1157 C1134 0.929 . S
H1158 C1136 0.930 . S
H1159 C1137 0.929 . S
Sm1160 C1162 2.846 . S
Sm1160 O1180 2.543 . S
Sm1160 O1181 2.450 . S
Sm1160 O1182 2.681 . S
Sm1160 O1183 2.464 . S
Sm1160 O1184 2.396 . S
Sm1160 O1188 2.386 . S
Sm1160 O1191 2.408 . S
Sm1161 C1171 2.846 1_455 S
Sm1161 O1182 2.386 . S
Sm1161 O1185 2.408 . S
Sm1161 O1186 2.543 1_455 S
Sm1161 O1187 2.450 1_455 S
Sm1161 O1188 2.681 . S
Sm1161 O1189 2.464 . S
Sm1161 O1190 2.396 . S
C1162 Sm1160 2.846 . S
C1162 C1163 1.506 . S
C1162 O1180 1.261 . S
C1162 O1181 1.242 . S
C1163 C1162 1.506 . S
C1163 C1164 1.358 . S
C1163 C1168 1.382 . S
C1164 C1163 1.358 . S
C1164 C1165 1.385 . S
C1164 H1192 0.930 . S
C1165 C1164 1.385 . S
C1165 C1166 1.395 . S
C1165 H1193 0.929 . S
C1166 C1165 1.395 . S
C1166 C1167 1.335 . S
C1167 C1166 1.335 . S
C1167 C1168 1.398 . S
C1167 H1194 0.930 . S
C1168 C1163 1.382 . S
C1168 C1167 1.398 . S
C1168 H1195 0.929 . S
C1169 O1182 1.271 . S
C1169 O1183 1.251 . S
C1170 O1184 1.252 . S
C1170 O1185 1.272 . S
C1171 Sm1161 2.846 1_655 S
C1171 C1172 1.506 . S
C1171 O1186 1.261 . S
C1171 O1187 1.242 . S
C1172 C1171 1.506 . S
C1172 C1173 1.358 . S
C1172 C1177 1.382 . S
C1173 C1172 1.358 . S
C1173 C1174 1.385 . S
C1173 H1196 0.930 . S
C1174 C1173 1.385 . S
C1174 C1175 1.395 . S
C1174 H1197 0.929 . S
C1175 C1174 1.395 . S
C1175 C1176 1.335 . S
C1176 C1175 1.335 . S
C1176 C1177 1.398 . S
C1176 H1198 0.930 . S
C1177 C1172 1.382 . S
C1177 C1176 1.398 . S
C1177 H1199 0.929 . S
C1178 O1188 1.271 . S
C1178 O1189 1.251 . S
C1179 O1190 1.252 . S
C1179 O1191 1.272 . S
O1180 Sm1160 2.543 . S
O1180 C1162 1.261 . S
O1181 Sm1160 2.450 . S
O1181 C1162 1.242 . S
O1182 Sm1160 2.681 . S
O1182 Sm1161 2.386 . S
O1182 C1169 1.271 . S
O1183 Sm1160 2.464 . S
O1183 C1169 1.251 . S
O1184 Sm1160 2.396 . S
O1184 C1170 1.252 . S
O1185 Sm1161 2.408 . S
O1185 C1170 1.272 . S
O1186 Sm1161 2.543 1_655 S
O1186 C1171 1.261 . S
O1187 Sm1161 2.450 1_655 S
O1187 C1171 1.242 . S
O1188 Sm1160 2.386 . S
O1188 Sm1161 2.681 . S
O1188 C1178 1.271 . S
O1189 Sm1161 2.464 . S
O1189 C1178 1.251 . S
O1190 Sm1161 2.396 . S
O1190 C1179 1.252 . S
O1191 Sm1160 2.408 . S
O1191 C1179 1.272 . S
H1192 C1164 0.930 . S
H1193 C1165 0.929 . S
H1194 C1167 0.930 . S
H1195 C1168 0.929 . S
H1196 C1173 0.930 . S
H1197 C1174 0.929 . S
H1198 C1176 0.930 . S
H1199 C1177 0.929 . S
Sm1200 C1202 2.846 . S
Sm1200 O1220 2.543 . S
Sm1200 O1221 2.450 . S
Sm1200 O1222 2.681 . S
Sm1200 O1223 2.464 . S
Sm1200 O1224 2.396 . S
Sm1200 O1228 2.386 . S
Sm1200 O1231 2.408 . S
Sm1201 C1211 2.846 . S
Sm1201 O1222 2.386 . S
Sm1201 O1225 2.408 . S
Sm1201 O1226 2.543 . S
Sm1201 O1227 2.450 . S
Sm1201 O1228 2.681 . S
Sm1201 O1229 2.464 . S
Sm1201 O1230 2.396 . S
C1202 Sm1200 2.846 . S
C1202 C1203 1.506 . S
C1202 O1220 1.261 . S
C1202 O1221 1.242 . S
C1203 C1202 1.506 . S
C1203 C1204 1.358 . S
C1203 C1208 1.382 . S
C1204 C1203 1.358 . S
C1204 C1205 1.385 . S
C1204 H1232 0.930 . S
C1205 C1204 1.385 . S
C1205 C1206 1.395 . S
C1205 H1233 0.929 . S
C1206 C1205 1.395 . S
C1206 C1207 1.335 . S
C1207 C1206 1.335 . S
C1207 C1208 1.398 . S
C1207 H1234 0.930 . S
C1208 C1203 1.382 . S
C1208 C1207 1.398 . S
C1208 H1235 0.929 . S
C1209 O1222 1.271 . S
C1209 O1223 1.251 . S
C1210 O1224 1.252 . S
C1210 O1225 1.272 . S
C1211 Sm1201 2.846 . S
C1211 C1212 1.506 . S
C1211 O1226 1.261 . S
C1211 O1227 1.242 . S
C1212 C1211 1.506 . S
C1212 C1213 1.358 . S
C1212 C1217 1.382 . S
C1213 C1212 1.358 . S
C1213 C1214 1.385 . S
C1213 H1236 0.930 . S
C1214 C1213 1.385 . S
C1214 C1215 1.395 . S
C1214 H1237 0.929 . S
C1215 C1214 1.395 . S
C1215 C1216 1.335 . S
C1216 C1215 1.335 . S
C1216 C1217 1.398 . S
C1216 H1238 0.930 . S
C1217 C1212 1.382 . S
C1217 C1216 1.398 . S
C1217 H1239 0.929 . S
C1218 O1228 1.271 . S
C1218 O1229 1.251 . S
C1219 O1230 1.252 . S
C1219 O1231 1.272 . S
O1220 Sm1200 2.543 . S
O1220 C1202 1.261 . S
O1221 Sm1200 2.450 . S
O1221 C1202 1.242 . S
O1222 Sm1200 2.681 . S
O1222 Sm1201 2.386 . S
O1222 C1209 1.271 . S
O1223 Sm1200 2.464 . S
O1223 C1209 1.251 . S
O1224 Sm1200 2.396 . S
O1224 C1210 1.252 . S
O1225 Sm1201 2.408 . S
O1225 C1210 1.272 . S
O1226 Sm1201 2.543 . S
O1226 C1211 1.261 . S
O1227 Sm1201 2.450 . S
O1227 C1211 1.242 . S
O1228 Sm1200 2.386 . S
O1228 Sm1201 2.681 . S
O1228 C1218 1.271 . S
O1229 Sm1201 2.464 . S
O1229 C1218 1.251 . S
O1230 Sm1201 2.396 . S
O1230 C1219 1.252 . S
O1231 Sm1200 2.408 . S
O1231 C1219 1.272 . S
H1232 C1204 0.930 . S
H1233 C1205 0.929 . S
H1234 C1207 0.930 . S
H1235 C1208 0.929 . S
H1236 C1213 0.930 . S
H1237 C1214 0.929 . S
H1238 C1216 0.930 . S
H1239 C1217 0.929 . S
Sm1240 C1242 2.846 . S
Sm1240 O1260 2.543 . S
Sm1240 O1261 2.450 . S
Sm1240 O1262 2.681 . S
Sm1240 O1263 2.464 . S
Sm1240 O1264 2.396 . S
Sm1240 O1268 2.386 . S
Sm1240 O1271 2.408 . S
Sm1241 C1251 2.846 . S
Sm1241 O1262 2.386 . S
Sm1241 O1265 2.408 . S
Sm1241 O1266 2.543 . S
Sm1241 O1267 2.450 . S
Sm1241 O1268 2.681 . S
Sm1241 O1269 2.464 . S
Sm1241 O1270 2.396 . S
C1242 Sm1240 2.846 . S
C1242 C1243 1.506 . S
C1242 O1260 1.261 . S
C1242 O1261 1.242 . S
C1243 C1242 1.506 . S
C1243 C1244 1.358 . S
C1243 C1248 1.382 . S
C1244 C1243 1.358 . S
C1244 C1245 1.385 . S
C1244 H1272 0.930 . S
C1245 C1244 1.385 . S
C1245 C1246 1.395 . S
C1245 H1273 0.929 . S
C1246 C1245 1.395 . S
C1246 C1247 1.335 . S
C1247 C1246 1.335 . S
C1247 C1248 1.398 . S
C1247 H1274 0.930 . S
C1248 C1243 1.382 . S
C1248 C1247 1.398 . S
C1248 H1275 0.929 . S
C1249 O1262 1.271 . S
C1249 O1263 1.251 . S
C1250 O1264 1.252 . S
C1250 O1265 1.272 . S
C1251 Sm1241 2.846 . S
C1251 C1252 1.506 . S
C1251 O1266 1.261 . S
C1251 O1267 1.242 . S
C1252 C1251 1.506 . S
C1252 C1253 1.358 . S
C1252 C1257 1.382 . S
C1253 C1252 1.358 . S
C1253 C1254 1.385 . S
C1253 H1276 0.930 . S
C1254 C1253 1.385 . S
C1254 C1255 1.395 . S
C1254 H1277 0.929 . S
C1255 C1254 1.395 . S
C1255 C1256 1.335 . S
C1256 C1255 1.335 . S
C1256 C1257 1.398 . S
C1256 H1278 0.930 . S
C1257 C1252 1.382 . S
C1257 C1256 1.398 . S
C1257 H1279 0.929 . S
C1258 O1268 1.271 . S
C1258 O1269 1.251 . S
C1259 O1270 1.252 . S
C1259 O1271 1.272 . S
O1260 Sm1240 2.543 . S
O1260 C1242 1.261 . S
O1261 Sm1240 2.450 . S
O1261 C1242 1.242 . S
O1262 Sm1240 2.681 . S
O1262 Sm1241 2.386 . S
O1262 C1249 1.271 . S
O1263 Sm1240 2.464 . S
O1263 C1249 1.251 . S
O1264 Sm1240 2.396 . S
O1264 C1250 1.252 . S
O1265 Sm1241 2.408 . S
O1265 C1250 1.272 . S
O1266 Sm1241 2.543 . S
O1266 C1251 1.261 . S
O1267 Sm1241 2.450 . S
O1267 C1251 1.242 . S
O1268 Sm1240 2.386 . S
O1268 Sm1241 2.681 . S
O1268 C1258 1.271 . S
O1269 Sm1241 2.464 . S
O1269 C1258 1.251 . S
O1270 Sm1241 2.396 . S
O1270 C1259 1.252 . S
O1271 Sm1240 2.408 . S
O1271 C1259 1.272 . S
H1272 C1244 0.930 . S
H1273 C1245 0.929 . S
H1274 C1247 0.930 . S
H1275 C1248 0.929 . S
H1276 C1253 0.930 . S
H1277 C1254 0.929 . S
H1278 C1256 0.930 . S
H1279 C1257 0.929 . S
H1280 C1288 0.950 . S
H1281 C1293 0.950 . S
H1282 C1290 0.950 . S
H1283 C1292 0.950 . S
H1284 C1294 0.950 . S
H1285 C1296 0.950 . S
H1286 C1298 0.950 . S
H1287 C1299 0.950 . S
C1288 H1280 0.950 . S
C1288 C1289 1.386 . S
C1288 C1290 1.391 . S
C1289 C1288 1.386 . S
C1289 C1293 1.393 . S
C1290 H1282 0.950 . S
C1290 C1288 1.391 . S
C1290 C1291 1.400 . S
C1291 C1290 1.400 . S
C1291 C1292 1.398 . S
C1291 C1297 1.491 . S
C1292 H1283 0.950 . S
C1292 C1291 1.398 . S
C1292 C1293 1.391 . S
C1293 H1281 0.950 . S
C1293 C1289 1.393 . S
C1293 C1292 1.391 . S
C1294 H1284 0.950 . S
C1294 C1295 1.386 . S
C1294 C1296 1.391 . S
C1295 C1294 1.386 . S
C1295 C1299 1.393 . S
C1296 H1285 0.950 . S
C1296 C1294 1.391 . S
C1296 C1297 1.400 . S
C1297 C1291 1.491 . S
C1297 C1296 1.400 . S
C1297 C1298 1.398 . S
C1298 H1286 0.950 . S
C1298 C1297 1.398 . S
C1298 C1299 1.391 . S
C1299 H1287 0.950 . S
C1299 C1295 1.393 . S
C1299 C1298 1.391 . S
H1300 C1308 0.950 . S
H1301 C1313 0.950 . S
H1302 C1310 0.950 . S
H1303 C1312 0.950 . S
H1304 C1314 0.950 . S
H1305 C1316 0.950 . S
H1306 C1318 0.950 . S
H1307 C1319 0.950 . S
C1308 H1300 0.950 . S
C1308 C1309 1.386 . S
C1308 C1310 1.391 . S
C1309 C1308 1.386 . S
C1309 C1313 1.393 . S
C1310 H1302 0.950 . S
C1310 C1308 1.391 . S
C1310 C1311 1.400 . S
C1311 C1310 1.400 . S
C1311 C1312 1.398 . S
C1311 C1317 1.491 . S
C1312 H1303 0.950 . S
C1312 C1311 1.398 . S
C1312 C1313 1.391 . S
C1313 H1301 0.950 . S
C1313 C1309 1.393 . S
C1313 C1312 1.391 . S
C1314 H1304 0.950 . S
C1314 C1315 1.386 . S
C1314 C1316 1.391 . S
C1315 C1314 1.386 . S
C1315 C1319 1.393 . S
C1316 H1305 0.950 . S
C1316 C1314 1.391 . S
C1316 C1317 1.400 . S
C1317 C1311 1.491 . S
C1317 C1316 1.400 . S
C1317 C1318 1.398 . S
C1318 H1306 0.950 . S
C1318 C1317 1.398 . S
C1318 C1319 1.391 . S
C1319 H1307 0.950 . S
C1319 C1315 1.393 . S
C1319 C1318 1.391 . S
H1320 C1328 0.950 . S
H1321 C1333 0.950 . S
H1322 C1330 0.950 . S
H1323 C1332 0.950 . S
H1324 C1334 0.950 . S
H1325 C1336 0.950 . S
H1326 C1338 0.950 . S
H1327 C1339 0.950 . S
C1328 H1320 0.950 . S
C1328 C1329 1.386 . S
C1328 C1330 1.391 . S
C1329 C1328 1.386 . S
C1329 C1333 1.393 . S
C1330 H1322 0.950 . S
C1330 C1328 1.391 . S
C1330 C1331 1.400 . S
C1331 C1330 1.400 . S
C1331 C1332 1.398 . S
C1331 C1337 1.491 . S
C1332 H1323 0.950 . S
C1332 C1331 1.398 . S
C1332 C1333 1.391 . S
C1333 H1321 0.950 . S
C1333 C1329 1.393 . S
C1333 C1332 1.391 . S
C1334 H1324 0.950 . S
C1334 C1335 1.386 . S
C1334 C1336 1.391 . S
C1335 C1334 1.386 . S
C1335 C1339 1.393 . S
C1336 H1325 0.950 . S
C1336 C1334 1.391 . S
C1336 C1337 1.400 . S
C1337 C1331 1.491 . S
C1337 C1336 1.400 . S
C1337 C1338 1.398 . S
C1338 H1326 0.950 . S
C1338 C1337 1.398 . S
C1338 C1339 1.391 . S
C1339 H1327 0.950 . S
C1339 C1335 1.393 . S
C1339 C1338 1.391 . S
H1340 C1348 0.950 . S
H1341 C1353 0.950 . S
H1342 C1350 0.950 . S
H1343 C1352 0.950 . S
H1344 C1354 0.950 . S
H1345 C1356 0.950 . S
H1346 C1358 0.950 . S
H1347 C1359 0.950 . S
C1348 H1340 0.950 . S
C1348 C1349 1.386 . S
C1348 C1350 1.391 . S
C1349 C1348 1.386 . S
C1349 C1353 1.393 . S
C1350 H1342 0.950 . S
C1350 C1348 1.391 . S
C1350 C1351 1.400 . S
C1351 C1350 1.400 . S
C1351 C1352 1.398 . S
C1351 C1357 1.491 . S
C1352 H1343 0.950 . S
C1352 C1351 1.398 . S
C1352 C1353 1.391 . S
C1353 H1341 0.950 . S
C1353 C1349 1.393 . S
C1353 C1352 1.391 . S
C1354 H1344 0.950 . S
C1354 C1355 1.386 . S
C1354 C1356 1.391 . S
C1355 C1354 1.386 . S
C1355 C1359 1.393 . S
C1356 H1345 0.950 . S
C1356 C1354 1.391 . S
C1356 C1357 1.400 . S
C1357 C1351 1.491 . S
C1357 C1356 1.400 . S
C1357 C1358 1.398 . S
C1358 H1346 0.950 . S
C1358 C1357 1.398 . S
C1358 C1359 1.391 . S
C1359 H1347 0.950 . S
C1359 C1355 1.393 . S
C1359 C1358 1.391 . S
H1360 C1368 0.950 . S
H1361 C1373 0.950 . S
H1362 C1370 0.950 . S
H1363 C1372 0.950 . S
H1364 C1374 0.950 . S
H1365 C1376 0.950 . S
H1366 C1378 0.950 . S
H1367 C1379 0.950 . S
C1368 H1360 0.950 . S
C1368 C1369 1.386 . S
C1368 C1370 1.391 . S
C1369 C1368 1.386 . S
C1369 C1373 1.393 . S
C1370 H1362 0.950 . S
C1370 C1368 1.391 . S
C1370 C1371 1.400 . S
C1371 C1370 1.400 . S
C1371 C1372 1.398 . S
C1371 C1377 1.491 . S
C1372 H1363 0.950 . S
C1372 C1371 1.398 . S
C1372 C1373 1.391 . S
C1373 H1361 0.950 . S
C1373 C1369 1.393 . S
C1373 C1372 1.391 . S
C1374 H1364 0.950 . S
C1374 C1375 1.386 . S
C1374 C1376 1.391 . S
C1375 C1374 1.386 . S
C1375 C1379 1.393 . S
C1376 H1365 0.950 . S
C1376 C1374 1.391 . S
C1376 C1377 1.400 . S
C1377 C1371 1.491 . S
C1377 C1376 1.400 . S
C1377 C1378 1.398 . S
C1378 H1366 0.950 . S
C1378 C1377 1.398 . S
C1378 C1379 1.391 . S
C1379 H1367 0.950 . S
C1379 C1375 1.393 . S
C1379 C1378 1.391 . S
H1380 C1388 0.950 . S
H1381 C1393 0.950 . S
H1382 C1390 0.950 . S
H1383 C1392 0.950 . S
H1384 C1394 0.950 . S
H1385 C1396 0.950 . S
H1386 C1398 0.950 . S
H1387 C1399 0.950 . S
C1388 H1380 0.950 . S
C1388 C1389 1.386 . S
C1388 C1390 1.391 . S
C1389 C1388 1.386 . S
C1389 C1393 1.393 . S
C1390 H1382 0.950 . S
C1390 C1388 1.391 . S
C1390 C1391 1.400 . S
C1391 C1390 1.400 . S
C1391 C1392 1.398 . S
C1391 C1397 1.491 . S
C1392 H1383 0.950 . S
C1392 C1391 1.398 . S
C1392 C1393 1.391 . S
C1393 H1381 0.950 . S
C1393 C1389 1.393 . S
C1393 C1392 1.391 . S
C1394 H1384 0.950 . S
C1394 C1395 1.386 . S
C1394 C1396 1.391 . S
C1395 C1394 1.386 . S
C1395 C1399 1.393 . S
C1396 H1385 0.950 . S
C1396 C1394 1.391 . S
C1396 C1397 1.400 . S
C1397 C1391 1.491 . S
C1397 C1396 1.400 . S
C1397 C1398 1.398 . S
C1398 H1386 0.950 . S
C1398 C1397 1.398 . S
C1398 C1399 1.391 . S
C1399 H1387 0.950 . S
C1399 C1395 1.393 . S
C1399 C1398 1.391 . S
H1400 C1408 0.950 . S
H1401 C1413 0.950 . S
H1402 C1410 0.950 . S
H1403 C1412 0.950 . S
H1404 C1414 0.950 . S
H1405 C1416 0.950 . S
H1406 C1418 0.950 . S
H1407 C1419 0.950 . S
C1408 H1400 0.950 . S
C1408 C1409 1.386 . S
C1408 C1410 1.391 . S
C1409 C1408 1.386 . S
C1409 C1413 1.393 . S
C1410 H1402 0.950 . S
C1410 C1408 1.391 . S
C1410 C1411 1.400 . S
C1411 C1410 1.400 . S
C1411 C1412 1.398 . S
C1411 C1417 1.491 . S
C1412 H1403 0.950 . S
C1412 C1411 1.398 . S
C1412 C1413 1.391 . S
C1413 H1401 0.950 . S
C1413 C1409 1.393 . S
C1413 C1412 1.391 . S
C1414 H1404 0.950 . S
C1414 C1415 1.386 . S
C1414 C1416 1.391 . S
C1415 C1414 1.386 . S
C1415 C1419 1.393 . S
C1416 H1405 0.950 . S
C1416 C1414 1.391 . S
C1416 C1417 1.400 . S
C1417 C1411 1.491 . S
C1417 C1416 1.400 . S
C1417 C1418 1.398 . S
C1418 H1406 0.950 . S
C1418 C1417 1.398 . S
C1418 C1419 1.391 . S
C1419 H1407 0.950 . S
C1419 C1415 1.393 . S
C1419 C1418 1.391 . S
H1420 C1428 0.950 . S
H1421 C1433 0.950 . S
H1422 C1430 0.950 . S
H1423 C1432 0.950 . S
H1424 C1434 0.950 . S
H1425 C1436 0.950 . S
H1426 C1438 0.950 . S
H1427 C1439 0.950 . S
C1428 H1420 0.950 . S
C1428 C1429 1.386 . S
C1428 C1430 1.391 . S
C1429 C1428 1.386 . S
C1429 C1433 1.393 . S
C1430 H1422 0.950 . S
C1430 C1428 1.391 . S
C1430 C1431 1.400 . S
C1431 C1430 1.400 . S
C1431 C1432 1.398 . S
C1431 C1437 1.491 . S
C1432 H1423 0.950 . S
C1432 C1431 1.398 . S
C1432 C1433 1.391 . S
C1433 H1421 0.950 . S
C1433 C1429 1.393 . S
C1433 C1432 1.391 . S
C1434 H1424 0.950 . S
C1434 C1435 1.386 . S
C1434 C1436 1.391 . S
C1435 C1434 1.386 . S
C1435 C1439 1.393 . S
C1436 H1425 0.950 . S
C1436 C1434 1.391 . S
C1436 C1437 1.400 . S
C1437 C1431 1.491 . S
C1437 C1436 1.400 . S
C1437 C1438 1.398 . S
C1438 H1426 0.950 . S
C1438 C1437 1.398 . S
C1438 C1439 1.391 . S
C1439 H1427 0.950 . S
C1439 C1435 1.393 . S
C1439 C1438 1.391 . S
H1440 C1448 0.950 . S
H1441 C1453 0.950 . S
H1442 C1450 0.950 . S
H1443 C1452 0.950 . S
H1444 C1454 0.950 . S
H1445 C1456 0.950 . S
H1446 C1458 0.950 . S
H1447 C1459 0.950 . S
C1448 H1440 0.950 . S
C1448 C1449 1.386 . S
C1448 C1450 1.391 . S
C1449 C1448 1.386 . S
C1449 C1453 1.393 . S
C1450 H1442 0.950 . S
C1450 C1448 1.391 . S
C1450 C1451 1.400 . S
C1451 C1450 1.400 . S
C1451 C1452 1.398 . S
C1451 C1457 1.491 . S
C1452 H1443 0.950 . S
C1452 C1451 1.398 . S
C1452 C1453 1.391 . S
C1453 H1441 0.950 . S
C1453 C1449 1.393 . S
C1453 C1452 1.391 . S
C1454 H1444 0.950 . S
C1454 C1455 1.386 . S
C1454 C1456 1.391 . S
C1455 C1454 1.386 . S
C1455 C1459 1.393 . S
C1456 H1445 0.950 . S
C1456 C1454 1.391 . S
C1456 C1457 1.400 . S
C1457 C1451 1.491 . S
C1457 C1456 1.400 . S
C1457 C1458 1.398 . S
C1458 H1446 0.950 . S
C1458 C1457 1.398 . S
C1458 C1459 1.391 . S
C1459 H1447 0.950 . S
C1459 C1455 1.393 . S
C1459 C1458 1.391 . S
H1460 C1468 0.950 . S
H1461 C1473 0.950 . S
H1462 C1470 0.950 . S
H1463 C1472 0.950 . S
H1464 C1474 0.950 . S
H1465 C1476 0.950 . S
H1466 C1478 0.950 . S
H1467 C1479 0.950 . S
C1468 H1460 0.950 . S
C1468 C1469 1.386 . S
C1468 C1470 1.391 . S
C1469 C1468 1.386 . S
C1469 C1473 1.393 . S
C1470 H1462 0.950 . S
C1470 C1468 1.391 . S
C1470 C1471 1.400 . S
C1471 C1470 1.400 . S
C1471 C1472 1.398 . S
C1471 C1477 1.491 . S
C1472 H1463 0.950 . S
C1472 C1471 1.398 . S
C1472 C1473 1.391 . S
C1473 H1461 0.950 . S
C1473 C1469 1.393 . S
C1473 C1472 1.391 . S
C1474 H1464 0.950 . S
C1474 C1475 1.386 . S
C1474 C1476 1.391 . S
C1475 C1474 1.386 . S
C1475 C1479 1.393 . S
C1476 H1465 0.950 . S
C1476 C1474 1.391 . S
C1476 C1477 1.400 . S
C1477 C1471 1.491 . S
C1477 C1476 1.400 . S
C1477 C1478 1.398 . S
C1478 H1466 0.950 . S
C1478 C1477 1.398 . S
C1478 C1479 1.391 . S
C1479 H1467 0.950 . S
C1479 C1475 1.393 . S
C1479 C1478 1.391 . S
H1480 C1488 0.950 . S
H1481 C1493 0.950 . S
H1482 C1490 0.950 . S
H1483 C1492 0.950 . S
H1484 C1494 0.950 . S
H1485 C1496 0.950 . S
H1486 C1498 0.950 . S
H1487 C1499 0.950 . S
C1488 H1480 0.950 . S
C1488 C1489 1.386 . S
C1488 C1490 1.391 . S
C1489 C1488 1.386 . S
C1489 C1493 1.393 . S
C1490 H1482 0.950 . S
C1490 C1488 1.391 . S
C1490 C1491 1.400 . S
C1491 C1490 1.400 . S
C1491 C1492 1.398 . S
C1491 C1497 1.491 . S
C1492 H1483 0.950 . S
C1492 C1491 1.398 . S
C1492 C1493 1.391 . S
C1493 H1481 0.950 . S
C1493 C1489 1.393 . S
C1493 C1492 1.391 . S
C1494 H1484 0.950 . S
C1494 C1495 1.386 . S
C1494 C1496 1.391 . S
C1495 C1494 1.386 . S
C1495 C1499 1.393 . S
C1496 H1485 0.950 . S
C1496 C1494 1.391 . S
C1496 C1497 1.400 . S
C1497 C1491 1.491 . S
C1497 C1496 1.400 . S
C1497 C1498 1.398 . S
C1498 H1486 0.950 . S
C1498 C1497 1.398 . S
C1498 C1499 1.391 . S
C1499 H1487 0.950 . S
C1499 C1495 1.393 . S
C1499 C1498 1.391 . S
H1500 C1508 0.950 . S
H1501 C1513 0.950 . S
H1502 C1510 0.950 . S
H1503 C1512 0.950 . S
H1504 C1514 0.950 . S
H1505 C1516 0.950 . S
H1506 C1518 0.950 . S
H1507 C1519 0.950 . S
C1508 H1500 0.950 . S
C1508 C1509 1.386 . S
C1508 C1510 1.391 . S
C1509 C1508 1.386 . S
C1509 C1513 1.393 . S
C1510 H1502 0.950 . S
C1510 C1508 1.391 . S
C1510 C1511 1.400 . S
C1511 C1510 1.400 . S
C1511 C1512 1.398 . S
C1511 C1517 1.491 . S
C1512 H1503 0.950 . S
C1512 C1511 1.398 . S
C1512 C1513 1.391 . S
C1513 H1501 0.950 . S
C1513 C1509 1.393 . S
C1513 C1512 1.391 . S
C1514 H1504 0.950 . S
C1514 C1515 1.386 . S
C1514 C1516 1.391 . S
C1515 C1514 1.386 . S
C1515 C1519 1.393 . S
C1516 H1505 0.950 . S
C1516 C1514 1.391 . S
C1516 C1517 1.400 . S
C1517 C1511 1.491 . S
C1517 C1516 1.400 . S
C1517 C1518 1.398 . S
C1518 H1506 0.950 . S
C1518 C1517 1.398 . S
C1518 C1519 1.391 . S
C1519 H1507 0.950 . S
C1519 C1515 1.393 . S
C1519 C1518 1.391 . S
H1520 C1528 0.950 . S
H1521 C1533 0.950 . S
H1522 C1530 0.950 . S
H1523 C1532 0.950 . S
H1524 C1534 0.950 . S
H1525 C1536 0.950 . S
H1526 C1538 0.950 . S
H1527 C1539 0.950 . S
C1528 H1520 0.950 . S
C1528 C1529 1.386 . S
C1528 C1530 1.391 . S
C1529 C1528 1.386 . S
C1529 C1533 1.393 . S
C1530 H1522 0.950 . S
C1530 C1528 1.391 . S
C1530 C1531 1.400 . S
C1531 C1530 1.400 . S
C1531 C1532 1.398 . S
C1531 C1537 1.491 . S
C1532 H1523 0.950 . S
C1532 C1531 1.398 . S
C1532 C1533 1.391 . S
C1533 H1521 0.950 . S
C1533 C1529 1.393 . S
C1533 C1532 1.391 . S
C1534 H1524 0.950 . S
C1534 C1535 1.386 . S
C1534 C1536 1.391 . S
C1535 C1534 1.386 . S
C1535 C1539 1.393 . S
C1536 H1525 0.950 . S
C1536 C1534 1.391 . S
C1536 C1537 1.400 . S
C1537 C1531 1.491 . S
C1537 C1536 1.400 . S
C1537 C1538 1.398 . S
C1538 H1526 0.950 . S
C1538 C1537 1.398 . S
C1538 C1539 1.391 . S
C1539 H1527 0.950 . S
C1539 C1535 1.393 . S
C1539 C1538 1.391 . S
H1540 C1548 0.950 . S
H1541 C1553 0.950 . S
H1542 C1550 0.950 . S
H1543 C1552 0.950 . S
H1544 C1554 0.950 . S
H1545 C1556 0.950 . S
H1546 C1558 0.950 . S
H1547 C1559 0.950 . S
C1548 H1540 0.950 . S
C1548 C1549 1.386 . S
C1548 C1550 1.391 . S
C1549 C1548 1.386 . S
C1549 C1553 1.393 . S
C1550 H1542 0.950 . S
C1550 C1548 1.391 . S
C1550 C1551 1.400 . S
C1551 C1550 1.400 . S
C1551 C1552 1.398 . S
C1551 C1557 1.491 . S
C1552 H1543 0.950 . S
C1552 C1551 1.398 . S
C1552 C1553 1.391 . S
C1553 H1541 0.950 . S
C1553 C1549 1.393 . S
C1553 C1552 1.391 . S
C1554 H1544 0.950 . S
C1554 C1555 1.386 . S
C1554 C1556 1.391 . S
C1555 C1554 1.386 . S
C1555 C1559 1.393 . S
C1556 H1545 0.950 . S
C1556 C1554 1.391 . S
C1556 C1557 1.400 . S
C1557 C1551 1.491 . S
C1557 C1556 1.400 . S
C1557 C1558 1.398 . S
C1558 H1546 0.950 . S
C1558 C1557 1.398 . S
C1558 C1559 1.391 . S
C1559 H1547 0.950 . S
C1559 C1555 1.393 . S
C1559 C1558 1.391 . S
H1560 C1568 0.950 . S
H1561 C1573 0.950 . S
H1562 C1570 0.950 . S
H1563 C1572 0.950 . S
H1564 C1574 0.950 . S
H1565 C1576 0.950 . S
H1566 C1578 0.950 . S
H1567 C1579 0.950 . S
C1568 H1560 0.950 . S
C1568 C1569 1.386 . S
C1568 C1570 1.391 . S
C1569 C1568 1.386 . S
C1569 C1573 1.393 . S
C1570 H1562 0.950 . S
C1570 C1568 1.391 . S
C1570 C1571 1.400 . S
C1571 C1570 1.400 . S
C1571 C1572 1.398 . S
C1571 C1577 1.491 . S
C1572 H1563 0.950 . S
C1572 C1571 1.398 . S
C1572 C1573 1.391 . S
C1573 H1561 0.950 . S
C1573 C1569 1.393 . S
C1573 C1572 1.391 . S
C1574 H1564 0.950 . S
C1574 C1575 1.386 . S
C1574 C1576 1.391 . S
C1575 C1574 1.386 . S
C1575 C1579 1.393 . S
C1576 H1565 0.950 . S
C1576 C1574 1.391 . S
C1576 C1577 1.400 . S
C1577 C1571 1.491 . S
C1577 C1576 1.400 . S
C1577 C1578 1.398 . S
C1578 H1566 0.950 . S
C1578 C1577 1.398 . S
C1578 C1579 1.391 . S
C1579 H1567 0.950 . S
C1579 C1575 1.393 . S
C1579 C1578 1.391 . S
H1580 C1588 0.950 . S
H1581 C1593 0.950 . S
H1582 C1590 0.950 . S
H1583 C1592 0.950 . S
H1584 C1594 0.950 . S
H1585 C1596 0.950 . S
H1586 C1598 0.950 . S
H1587 C1599 0.950 . S
C1588 H1580 0.950 . S
C1588 C1589 1.386 . S
C1588 C1590 1.391 . S
C1589 C1588 1.386 . S
C1589 C1593 1.393 . S
C1590 H1582 0.950 . S
C1590 C1588 1.391 . S
C1590 C1591 1.400 . S
C1591 C1590 1.400 . S
C1591 C1592 1.398 . S
C1591 C1597 1.491 . S
C1592 H1583 0.950 . S
C1592 C1591 1.398 . S
C1592 C1593 1.391 . S
C1593 H1581 0.950 . S
C1593 C1589 1.393 . S
C1593 C1592 1.391 . S
C1594 H1584 0.950 . S
C1594 C1595 1.386 . S
C1594 C1596 1.391 . S
C1595 C1594 1.386 . S
C1595 C1599 1.393 . S
C1596 H1585 0.950 . S
C1596 C1594 1.391 . S
C1596 C1597 1.400 . S
C1597 C1591 1.491 . S
C1597 C1596 1.400 . S
C1597 C1598 1.398 . S
C1598 H1586 0.950 . S
C1598 C1597 1.398 . S
C1598 C1599 1.391 . S
C1599 H1587 0.950 . S
C1599 C1595 1.393 . S
C1599 C1598 1.391 . S
H1600 C1608 0.950 . S
H1601 C1613 0.950 . S
H1602 C1610 0.950 . S
H1603 C1612 0.950 . S
H1604 C1614 0.950 . S
H1605 C1616 0.950 . S
H1606 C1618 0.950 . S
H1607 C1619 0.950 . S
C1608 H1600 0.950 . S
C1608 C1609 1.386 . S
C1608 C1610 1.391 . S
C1609 C1608 1.386 . S
C1609 C1613 1.393 . S
C1610 H1602 0.950 . S
C1610 C1608 1.391 . S
C1610 C1611 1.400 . S
C1611 C1610 1.400 . S
C1611 C1612 1.398 . S
C1611 C1617 1.491 . S
C1612 H1603 0.950 . S
C1612 C1611 1.398 . S
C1612 C1613 1.391 . S
C1613 H1601 0.950 . S
C1613 C1609 1.393 . S
C1613 C1612 1.391 . S
C1614 H1604 0.950 . S
C1614 C1615 1.386 . S
C1614 C1616 1.391 . S
C1615 C1614 1.386 . S
C1615 C1619 1.393 . S
C1616 H1605 0.950 . S
C1616 C1614 1.391 . S
C1616 C1617 1.400 . S
C1617 C1611 1.491 . S
C1617 C1616 1.400 . S
C1617 C1618 1.398 . S
C1618 H1606 0.950 . S
C1618 C1617 1.398 . S
C1618 C1619 1.391 . S
C1619 H1607 0.950 . S
C1619 C1615 1.393 . S
C1619 C1618 1.391 . S
H1620 C1628 0.950 . S
H1621 C1633 0.950 . S
H1622 C1630 0.950 . S
H1623 C1632 0.950 . S
H1624 C1634 0.950 . S
H1625 C1636 0.950 . S
H1626 C1638 0.950 . S
H1627 C1639 0.950 . S
C1628 H1620 0.950 . S
C1628 C1629 1.386 . S
C1628 C1630 1.391 . S
C1629 C1628 1.386 . S
C1629 C1633 1.393 . S
C1630 H1622 0.950 . S
C1630 C1628 1.391 . S
C1630 C1631 1.400 . S
C1631 C1630 1.400 . S
C1631 C1632 1.398 . S
C1631 C1637 1.491 . S
C1632 H1623 0.950 . S
C1632 C1631 1.398 . S
C1632 C1633 1.391 . S
C1633 H1621 0.950 . S
C1633 C1629 1.393 . S
C1633 C1632 1.391 . S
C1634 H1624 0.950 . S
C1634 C1635 1.386 . S
C1634 C1636 1.391 . S
C1635 C1634 1.386 . S
C1635 C1639 1.393 . S
C1636 H1625 0.950 . S
C1636 C1634 1.391 . S
C1636 C1637 1.400 . S
C1637 C1631 1.491 . S
C1637 C1636 1.400 . S
C1637 C1638 1.398 . S
C1638 H1626 0.950 . S
C1638 C1637 1.398 . S
C1638 C1639 1.391 . S
C1639 H1627 0.950 . S
C1639 C1635 1.393 . S
C1639 C1638 1.391 . S
H1640 C1648 0.950 . S
H1641 C1653 0.950 . S
H1642 C1650 0.950 . S
H1643 C1652 0.950 . S
H1644 C1654 0.950 . S
H1645 C1656 0.950 . S
H1646 C1658 0.950 . S
H1647 C1659 0.950 . S
C1648 H1640 0.950 . S
C1648 C1649 1.386 . S
C1648 C1650 1.391 . S
C1649 C1648 1.386 . S
C1649 C1653 1.393 . S
C1650 H1642 0.950 . S
C1650 C1648 1.391 . S
C1650 C1651 1.400 . S
C1651 C1650 1.400 . S
C1651 C1652 1.398 . S
C1651 C1657 1.491 . S
C1652 H1643 0.950 . S
C1652 C1651 1.398 . S
C1652 C1653 1.391 . S
C1653 H1641 0.950 . S
C1653 C1649 1.393 . S
C1653 C1652 1.391 . S
C1654 H1644 0.950 . S
C1654 C1655 1.386 . S
C1654 C1656 1.391 . S
C1655 C1654 1.386 . S
C1655 C1659 1.393 . S
C1656 H1645 0.950 . S
C1656 C1654 1.391 . S
C1656 C1657 1.400 . S
C1657 C1651 1.491 . S
C1657 C1656 1.400 . S
C1657 C1658 1.398 . S
C1658 H1646 0.950 . S
C1658 C1657 1.398 . S
C1658 C1659 1.391 . S
C1659 H1647 0.950 . S
C1659 C1655 1.393 . S
C1659 C1658 1.391 . S
H1660 C1668 0.950 . S
H1661 C1673 0.950 . S
H1662 C1670 0.950 . S
H1663 C1672 0.950 . S
H1664 C1674 0.950 . S
H1665 C1676 0.950 . S
H1666 C1678 0.950 . S
H1667 C1679 0.950 . S
C1668 H1660 0.950 . S
C1668 C1669 1.386 . S
C1668 C1670 1.391 . S
C1669 C1668 1.386 . S
C1669 C1673 1.393 . S
C1670 H1662 0.950 . S
C1670 C1668 1.391 . S
C1670 C1671 1.400 . S
C1671 C1670 1.400 . S
C1671 C1672 1.398 . S
C1671 C1677 1.491 . S
C1672 H1663 0.950 . S
C1672 C1671 1.398 . S
C1672 C1673 1.391 . S
C1673 H1661 0.950 . S
C1673 C1669 1.393 . S
C1673 C1672 1.391 . S
C1674 H1664 0.950 . S
C1674 C1675 1.386 . S
C1674 C1676 1.391 . S
C1675 C1674 1.386 . S
C1675 C1679 1.393 . S
C1676 H1665 0.950 . S
C1676 C1674 1.391 . S
C1676 C1677 1.400 . S
C1677 C1671 1.491 . S
C1677 C1676 1.400 . S
C1677 C1678 1.398 . S
C1678 H1666 0.950 . S
C1678 C1677 1.398 . S
C1678 C1679 1.391 . S
C1679 H1667 0.950 . S
C1679 C1675 1.393 . S
C1679 C1678 1.391 . S
H1680 C1688 0.950 . S
H1681 C1693 0.950 . S
H1682 C1690 0.950 . S
H1683 C1692 0.950 . S
H1684 C1694 0.950 . S
H1685 C1696 0.950 . S
H1686 C1698 0.950 . S
H1687 C1699 0.950 . S
C1688 H1680 0.950 . S
C1688 C1689 1.386 . S
C1688 C1690 1.391 . S
C1689 C1688 1.386 . S
C1689 C1693 1.393 . S
C1690 H1682 0.950 . S
C1690 C1688 1.391 . S
C1690 C1691 1.400 . S
C1691 C1690 1.400 . S
C1691 C1692 1.398 . S
C1691 C1697 1.491 . S
C1692 H1683 0.950 . S
C1692 C1691 1.398 . S
C1692 C1693 1.391 . S
C1693 H1681 0.950 . S
C1693 C1689 1.393 . S
C1693 C1692 1.391 . S
C1694 H1684 0.950 . S
C1694 C1695 1.386 . S
C1694 C1696 1.391 . S
C1695 C1694 1.386 . S
C1695 C1699 1.393 . S
C1696 H1685 0.950 . S
C1696 C1694 1.391 . S
C1696 C1697 1.400 . S
C1697 C1691 1.491 . S
C1697 C1696 1.400 . S
C1697 C1698 1.398 . S
C1698 H1686 0.950 . S
C1698 C1697 1.398 . S
C1698 C1699 1.391 . S
C1699 H1687 0.950 . S
C1699 C1695 1.393 . S
C1699 C1698 1.391 . S
H1700 C1708 0.950 . S
H1701 C1713 0.950 . S
H1702 C1710 0.950 . S
H1703 C1712 0.950 . S
H1704 C1714 0.950 . S
H1705 C1716 0.950 . S
H1706 C1718 0.950 . S
H1707 C1719 0.950 . S
C1708 H1700 0.950 . S
C1708 C1709 1.386 . S
C1708 C1710 1.391 . S
C1709 C1708 1.386 . S
C1709 C1713 1.393 . S
C1710 H1702 0.950 . S
C1710 C1708 1.391 . S
C1710 C1711 1.400 . S
C1711 C1710 1.400 . S
C1711 C1712 1.398 . S
C1711 C1717 1.491 . S
C1712 H1703 0.950 . S
C1712 C1711 1.398 . S
C1712 C1713 1.391 . S
C1713 H1701 0.950 . S
C1713 C1709 1.393 . S
C1713 C1712 1.391 . S
C1714 H1704 0.950 . S
C1714 C1715 1.386 . S
C1714 C1716 1.391 . S
C1715 C1714 1.386 . S
C1715 C1719 1.393 . S
C1716 H1705 0.950 . S
C1716 C1714 1.391 . S
C1716 C1717 1.400 . S
C1717 C1711 1.491 . S
C1717 C1716 1.400 . S
C1717 C1718 1.398 . S
C1718 H1706 0.950 . S
C1718 C1717 1.398 . S
C1718 C1719 1.391 . S
C1719 H1707 0.950 . S
C1719 C1715 1.393 . S
C1719 C1718 1.391 . S
H1720 C1728 0.950 . S
H1721 C1733 0.950 . S
H1722 C1730 0.950 . S
H1723 C1732 0.950 . S
H1724 C1734 0.950 . S
H1725 C1736 0.950 . S
H1726 C1738 0.950 . S
H1727 C1739 0.950 . S
C1728 H1720 0.950 . S
C1728 C1729 1.386 . S
C1728 C1730 1.391 . S
C1729 C1728 1.386 . S
C1729 C1733 1.393 . S
C1730 H1722 0.950 . S
C1730 C1728 1.391 . S
C1730 C1731 1.400 . S
C1731 C1730 1.400 . S
C1731 C1732 1.398 . S
C1731 C1737 1.491 . S
C1732 H1723 0.950 . S
C1732 C1731 1.398 . S
C1732 C1733 1.391 . S
C1733 H1721 0.950 . S
C1733 C1729 1.393 . S
C1733 C1732 1.391 . S
C1734 H1724 0.950 . S
C1734 C1735 1.386 . S
C1734 C1736 1.391 . S
C1735 C1734 1.386 . S
C1735 C1739 1.393 . S
C1736 H1725 0.950 . S
C1736 C1734 1.391 . S
C1736 C1737 1.400 . S
C1737 C1731 1.491 . S
C1737 C1736 1.400 . S
C1737 C1738 1.398 . S
C1738 H1726 0.950 . S
C1738 C1737 1.398 . S
C1738 C1739 1.391 . S
C1739 H1727 0.950 . S
C1739 C1735 1.393 . S
C1739 C1738 1.391 . S
H1740 C1748 0.950 . S
H1741 C1753 0.950 . S
H1742 C1750 0.950 . S
H1743 C1752 0.950 . S
H1744 C1754 0.950 . S
H1745 C1756 0.950 . S
H1746 C1758 0.950 . S
H1747 C1759 0.950 . S
C1748 H1740 0.950 . S
C1748 C1749 1.386 . S
C1748 C1750 1.391 . S
C1749 C1748 1.386 . S
C1749 C1753 1.393 . S
C1750 H1742 0.950 . S
C1750 C1748 1.391 . S
C1750 C1751 1.400 . S
C1751 C1750 1.400 . S
C1751 C1752 1.398 . S
C1751 C1757 1.491 . S
C1752 H1743 0.950 . S
C1752 C1751 1.398 . S
C1752 C1753 1.391 . S
C1753 H1741 0.950 . S
C1753 C1749 1.393 . S
C1753 C1752 1.391 . S
C1754 H1744 0.950 . S
C1754 C1755 1.386 . S
C1754 C1756 1.391 . S
C1755 C1754 1.386 . S
C1755 C1759 1.393 . S
C1756 H1745 0.950 . S
C1756 C1754 1.391 . S
C1756 C1757 1.400 . S
C1757 C1751 1.491 . S
C1757 C1756 1.400 . S
C1757 C1758 1.398 . S
C1758 H1746 0.950 . S
C1758 C1757 1.398 . S
C1758 C1759 1.391 . S
C1759 H1747 0.950 . S
C1759 C1755 1.393 . S
C1759 C1758 1.391 . S
H1760 C1768 0.950 . S
H1761 C1773 0.950 . S
H1762 C1770 0.950 . S
H1763 C1772 0.950 . S
H1764 C1774 0.950 . S
H1765 C1776 0.950 . S
H1766 C1778 0.950 . S
H1767 C1779 0.950 . S
C1768 H1760 0.950 . S
C1768 C1769 1.386 . S
C1768 C1770 1.391 . S
C1769 C1768 1.386 . S
C1769 C1773 1.393 . S
C1770 H1762 0.950 . S
C1770 C1768 1.391 . S
C1770 C1771 1.400 . S
C1771 C1770 1.400 . S
C1771 C1772 1.398 . S
C1771 C1777 1.491 . S
C1772 H1763 0.950 . S
C1772 C1771 1.398 . S
C1772 C1773 1.391 . S
C1773 H1761 0.950 . S
C1773 C1769 1.393 . S
C1773 C1772 1.391 . S
C1774 H1764 0.950 . S
C1774 C1775 1.386 . S
C1774 C1776 1.391 . S
C1775 C1774 1.386 . S
C1775 C1779 1.393 . S
C1776 H1765 0.950 . S
C1776 C1774 1.391 . S
C1776 C1777 1.400 . S
C1777 C1771 1.491 . S
C1777 C1776 1.400 . S
C1777 C1778 1.398 . S
C1778 H1766 0.950 . S
C1778 C1777 1.398 . S
C1778 C1779 1.391 . S
C1779 H1767 0.950 . S
C1779 C1775 1.393 . S
C1779 C1778 1.391 . S
H1780 C1788 0.950 . S
H1781 C1793 0.950 . S
H1782 C1790 0.950 . S
H1783 C1792 0.950 . S
H1784 C1794 0.950 . S
H1785 C1796 0.950 . S
H1786 C1798 0.950 . S
H1787 C1799 0.950 . S
C1788 H1780 0.950 . S
C1788 C1789 1.386 . S
C1788 C1790 1.391 . S
C1789 C1788 1.386 . S
C1789 C1793 1.393 . S
C1790 H1782 0.950 . S
C1790 C1788 1.391 . S
C1790 C1791 1.400 . S
C1791 C1790 1.400 . S
C1791 C1792 1.398 . S
C1791 C1797 1.491 . S
C1792 H1783 0.950 . S
C1792 C1791 1.398 . S
C1792 C1793 1.391 . S
C1793 H1781 0.950 . S
C1793 C1789 1.393 . S
C1793 C1792 1.391 . S
C1794 H1784 0.950 . S
C1794 C1795 1.386 . S
C1794 C1796 1.391 . S
C1795 C1794 1.386 . S
C1795 C1799 1.393 . S
C1796 H1785 0.950 . S
C1796 C1794 1.391 . S
C1796 C1797 1.400 . S
C1797 C1791 1.491 . S
C1797 C1796 1.400 . S
C1797 C1798 1.398 . S
C1798 H1786 0.950 . S
C1798 C1797 1.398 . S
C1798 C1799 1.391 . S
C1799 H1787 0.950 . S
C1799 C1795 1.393 . S
C1799 C1798 1.391 . S
H1800 C1808 0.950 . S
H1801 C1813 0.950 . S
H1802 C1810 0.950 . S
H1803 C1812 0.950 . S
H1804 C1814 0.950 . S
H1805 C1816 0.950 . S
H1806 C1818 0.950 . S
H1807 C1819 0.950 . S
C1808 H1800 0.950 . S
C1808 C1809 1.386 . S
C1808 C1810 1.391 . S
C1809 C1808 1.386 . S
C1809 C1813 1.393 . S
C1810 H1802 0.950 . S
C1810 C1808 1.391 . S
C1810 C1811 1.400 . S
C1811 C1810 1.400 . S
C1811 C1812 1.398 . S
C1811 C1817 1.491 . S
C1812 H1803 0.950 . S
C1812 C1811 1.398 . S
C1812 C1813 1.391 . S
C1813 H1801 0.950 . S
C1813 C1809 1.393 . S
C1813 C1812 1.391 . S
C1814 H1804 0.950 . S
C1814 C1815 1.386 . S
C1814 C1816 1.391 . S
C1815 C1814 1.386 . S
C1815 C1819 1.393 . S
C1816 H1805 0.950 . S
C1816 C1814 1.391 . S
C1816 C1817 1.400 . S
C1817 C1811 1.491 . S
C1817 C1816 1.400 . S
C1817 C1818 1.398 . S
C1818 H1806 0.950 . S
C1818 C1817 1.398 . S
C1818 C1819 1.391 . S
C1819 H1807 0.950 . S
C1819 C1815 1.393 . S
C1819 C1818 1.391 . S
H1820 C1828 0.950 . S
H1821 C1833 0.950 . S
H1822 C1830 0.950 . S
H1823 C1832 0.950 . S
H1824 C1834 0.950 . S
H1825 C1836 0.950 . S
H1826 C1838 0.950 . S
H1827 C1839 0.950 . S
C1828 H1820 0.950 . S
C1828 C1829 1.386 . S
C1828 C1830 1.391 . S
C1829 C1828 1.386 . S
C1829 C1833 1.393 . S
C1830 H1822 0.950 . S
C1830 C1828 1.391 . S
C1830 C1831 1.400 . S
C1831 C1830 1.400 . S
C1831 C1832 1.398 . S
C1831 C1837 1.491 . S
C1832 H1823 0.950 . S
C1832 C1831 1.398 . S
C1832 C1833 1.391 . S
C1833 H1821 0.950 . S
C1833 C1829 1.393 . S
C1833 C1832 1.391 . S
C1834 H1824 0.950 . S
C1834 C1835 1.386 . S
C1834 C1836 1.391 . S
C1835 C1834 1.386 . S
C1835 C1839 1.393 . S
C1836 H1825 0.950 . S
C1836 C1834 1.391 . S
C1836 C1837 1.400 . S
C1837 C1831 1.491 . S
C1837 C1836 1.400 . S
C1837 C1838 1.398 . S
C1838 H1826 0.950 . S
C1838 C1837 1.398 . S
C1838 C1839 1.391 . S
C1839 H1827 0.950 . S
C1839 C1835 1.393 . S
C1839 C1838 1.391 . S
H1840 C1848 0.950 . S
H1841 C1853 0.950 . S
H1842 C1850 0.950 . S
H1843 C1852 0.950 . S
H1844 C1854 0.950 . S
H1845 C1856 0.950 . S
H1846 C1858 0.950 . S
H1847 C1859 0.950 . S
C1848 H1840 0.950 . S
C1848 C1849 1.386 . S
C1848 C1850 1.391 . S
C1849 C1848 1.386 . S
C1849 C1853 1.393 . S
C1850 H1842 0.950 . S
C1850 C1848 1.391 . S
C1850 C1851 1.400 . S
C1851 C1850 1.400 . S
C1851 C1852 1.398 . S
C1851 C1857 1.491 . S
C1852 H1843 0.950 . S
C1852 C1851 1.398 . S
C1852 C1853 1.391 . S
C1853 H1841 0.950 . S
C1853 C1849 1.393 . S
C1853 C1852 1.391 . S
C1854 H1844 0.950 . S
C1854 C1855 1.386 . S
C1854 C1856 1.391 . S
C1855 C1854 1.386 . S
C1855 C1859 1.393 . S
C1856 H1845 0.950 . S
C1856 C1854 1.391 . S
C1856 C1857 1.400 . S
C1857 C1851 1.491 . S
C1857 C1856 1.400 . S
C1857 C1858 1.398 . S
C1858 H1846 0.950 . S
C1858 C1857 1.398 . S
C1858 C1859 1.391 . S
C1859 H1847 0.950 . S
C1859 C1855 1.393 . S
C1859 C1858 1.391 . S
H1860 C1868 0.950 . S
H1861 C1873 0.950 . S
H1862 C1870 0.950 . S
H1863 C1872 0.950 . S
H1864 C1874 0.950 . S
H1865 C1876 0.950 . S
H1866 C1878 0.950 . S
H1867 C1879 0.950 . S
C1868 H1860 0.950 . S
C1868 C1869 1.386 . S
C1868 C1870 1.391 . S
C1869 C1868 1.386 . S
C1869 C1873 1.393 . S
C1870 H1862 0.950 . S
C1870 C1868 1.391 . S
C1870 C1871 1.400 . S
C1871 C1870 1.400 . S
C1871 C1872 1.398 . S
C1871 C1877 1.491 . S
C1872 H1863 0.950 . S
C1872 C1871 1.398 . S
C1872 C1873 1.391 . S
C1873 H1861 0.950 . S
C1873 C1869 1.393 . S
C1873 C1872 1.391 . S
C1874 H1864 0.950 . S
C1874 C1875 1.386 . S
C1874 C1876 1.391 . S
C1875 C1874 1.386 . S
C1875 C1879 1.393 . S
C1876 H1865 0.950 . S
C1876 C1874 1.391 . S
C1876 C1877 1.400 . S
C1877 C1871 1.491 . S
C1877 C1876 1.400 . S
C1877 C1878 1.398 . S
C1878 H1866 0.950 . S
C1878 C1877 1.398 . S
C1878 C1879 1.391 . S
C1879 H1867 0.950 . S
C1879 C1875 1.393 . S
C1879 C1878 1.391 . S
H1880 C1888 0.950 . S
H1881 C1893 0.950 . S
H1882 C1890 0.950 . S
H1883 C1892 0.950 . S
H1884 C1894 0.950 . S
H1885 C1896 0.950 . S
H1886 C1898 0.950 . S
H1887 C1899 0.950 . S
C1888 H1880 0.950 . S
C1888 C1889 1.386 . S
C1888 C1890 1.391 . S
C1889 C1888 1.386 . S
C1889 C1893 1.393 . S
C1890 H1882 0.950 . S
C1890 C1888 1.391 . S
C1890 C1891 1.400 . S
C1891 C1890 1.400 . S
C1891 C1892 1.398 . S
C1891 C1897 1.491 . S
C1892 H1883 0.950 . S
C1892 C1891 1.398 . S
C1892 C1893 1.391 . S
C1893 H1881 0.950 . S
C1893 C1889 1.393 . S
C1893 C1892 1.391 . S
C1894 H1884 0.950 . S
C1894 C1895 1.386 . S
C1894 C1896 1.391 . S
C1895 C1894 1.386 . S
C1895 C1899 1.393 . S
C1896 H1885 0.950 . S
C1896 C1894 1.391 . S
C1896 C1897 1.400 . S
C1897 C1891 1.491 . S
C1897 C1896 1.400 . S
C1897 C1898 1.398 . S
C1898 H1886 0.950 . S
C1898 C1897 1.398 . S
C1898 C1899 1.391 . S
C1899 H1887 0.950 . S
C1899 C1895 1.393 . S
C1899 C1898 1.391 . S
H1900 C1908 0.950 . S
H1901 C1913 0.950 . S
H1902 C1910 0.950 . S
H1903 C1912 0.950 . S
H1904 C1914 0.950 . S
H1905 C1916 0.950 . S
H1906 C1918 0.950 . S
H1907 C1919 0.950 . S
C1908 H1900 0.950 . S
C1908 C1909 1.386 . S
C1908 C1910 1.391 . S
C1909 C1908 1.386 . S
C1909 C1913 1.393 . S
C1910 H1902 0.950 . S
C1910 C1908 1.391 . S
C1910 C1911 1.400 . S
C1911 C1910 1.400 . S
C1911 C1912 1.398 . S
C1911 C1917 1.491 . S
C1912 H1903 0.950 . S
C1912 C1911 1.398 . S
C1912 C1913 1.391 . S
C1913 H1901 0.950 . S
C1913 C1909 1.393 . S
C1913 C1912 1.391 . S
C1914 H1904 0.950 . S
C1914 C1915 1.386 . S
C1914 C1916 1.391 . S
C1915 C1914 1.386 . S
C1915 C1919 1.393 . S
C1916 H1905 0.950 . S
C1916 C1914 1.391 . S
C1916 C1917 1.400 . S
C1917 C1911 1.491 . S
C1917 C1916 1.400 . S
C1917 C1918 1.398 . S
C1918 H1906 0.950 . S
C1918 C1917 1.398 . S
C1918 C1919 1.391 . S
C1919 H1907 0.950 . S
C1919 C1915 1.393 . S
C1919 C1918 1.391 . S
H1920 C1928 0.950 . S
H1921 C1933 0.950 . S
H1922 C1930 0.950 . S
H1923 C1932 0.950 . S
H1924 C1934 0.950 . S
H1925 C1936 0.950 . S
H1926 C1938 0.950 . S
H1927 C1939 0.950 . S
C1928 H1920 0.950 . S
C1928 C1929 1.386 . S
C1928 C1930 1.391 . S
C1929 C1928 1.386 . S
C1929 C1933 1.393 . S
C1930 H1922 0.950 . S
C1930 C1928 1.391 . S
C1930 C1931 1.400 . S
C1931 C1930 1.400 . S
C1931 C1932 1.398 . S
C1931 C1937 1.491 1_455 S
C1932 H1923 0.950 . S
C1932 C1931 1.398 . S
C1932 C1933 1.391 . S
C1933 H1921 0.950 . S
C1933 C1929 1.393 . S
C1933 C1932 1.391 . S
C1934 H1924 0.950 . S
C1934 C1935 1.386 . S
C1934 C1936 1.391 . S
C1935 C1934 1.386 . S
C1935 C1939 1.393 . S
C1936 H1925 0.950 . S
C1936 C1934 1.391 . S
C1936 C1937 1.400 . S
C1937 C1931 1.491 1_655 S
C1937 C1936 1.400 . S
C1937 C1938 1.398 . S
C1938 H1926 0.950 . S
C1938 C1937 1.398 . S
C1938 C1939 1.391 . S
C1939 H1927 0.950 . S
C1939 C1935 1.393 . S
C1939 C1938 1.391 . S
H1940 C1948 0.950 . S
H1941 C1953 0.950 . S
H1942 C1950 0.950 . S
H1943 C1952 0.950 . S
H1944 C1954 0.950 . S
H1945 C1956 0.950 . S
H1946 C1958 0.950 . S
H1947 C1959 0.950 . S
C1948 H1940 0.950 . S
C1948 C1949 1.386 . S
C1948 C1950 1.391 . S
C1949 C1948 1.386 . S
C1949 C1953 1.393 1_655 S
C1950 H1942 0.950 . S
C1950 C1948 1.391 . S
C1950 C1951 1.400 . S
C1951 C1950 1.400 . S
C1951 C1952 1.398 1_655 S
C1951 C1957 1.491 1_655 S
C1952 H1943 0.950 . S
C1952 C1951 1.398 1_455 S
C1952 C1953 1.391 . S
C1953 H1941 0.950 . S
C1953 C1949 1.393 1_455 S
C1953 C1952 1.391 . S
C1954 H1944 0.950 . S
C1954 C1955 1.386 . S
C1954 C1956 1.391 . S
C1955 C1954 1.386 . S
C1955 C1959 1.393 1_455 S
C1956 H1945 0.950 . S
C1956 C1954 1.391 . S
C1956 C1957 1.400 . S
C1957 C1951 1.491 1_455 S
C1957 C1956 1.400 . S
C1957 C1958 1.398 1_455 S
C1958 H1946 0.950 . S
C1958 C1957 1.398 1_655 S
C1958 C1959 1.391 . S
C1959 H1947 0.950 . S
C1959 C1955 1.393 1_655 S
C1959 C1958 1.391 . S
H1960 C1968 0.950 . S
H1961 C1973 0.950 . S
H1962 C1970 0.950 . S
H1963 C1972 0.950 . S
H1964 C1974 0.950 . S
H1965 C1976 0.950 . S
H1966 C1978 0.950 . S
H1967 C1979 0.950 . S
C1968 H1960 0.950 . S
C1968 C1969 1.386 . S
C1968 C1970 1.391 . S
C1969 C1968 1.386 . S
C1969 C1973 1.393 . S
C1970 H1962 0.950 . S
C1970 C1968 1.391 . S
C1970 C1971 1.400 . S
C1971 C1970 1.400 . S
C1971 C1972 1.398 . S
C1971 C1977 1.491 . S
C1972 H1963 0.950 . S
C1972 C1971 1.398 . S
C1972 C1973 1.391 . S
C1973 H1961 0.950 . S
C1973 C1969 1.393 . S
C1973 C1972 1.391 . S
C1974 H1964 0.950 . S
C1974 C1975 1.386 . S
C1974 C1976 1.391 . S
C1975 C1974 1.386 . S
C1975 C1979 1.393 . S
C1976 H1965 0.950 . S
C1976 C1974 1.391 . S
C1976 C1977 1.400 . S
C1977 C1971 1.491 . S
C1977 C1976 1.400 . S
C1977 C1978 1.398 . S
C1978 H1966 0.950 . S
C1978 C1977 1.398 . S
C1978 C1979 1.391 . S
C1979 H1967 0.950 . S
C1979 C1975 1.393 . S
C1979 C1978 1.391 . S
H1980 C1988 0.950 . S
H1981 C1993 0.950 . S
H1982 C1990 0.950 . S
H1983 C1992 0.950 . S
H1984 C1994 0.950 . S
H1985 C1996 0.950 . S
H1986 C1998 0.950 . S
H1987 C1999 0.950 . S
C1988 H1980 0.950 . S
C1988 C1989 1.386 . S
C1988 C1990 1.391 . S
C1989 C1988 1.386 . S
C1989 C1993 1.393 . S
C1990 H1982 0.950 . S
C1990 C1988 1.391 . S
C1990 C1991 1.400 . S
C1991 C1990 1.400 . S
C1991 C1992 1.398 . S
C1991 C1997 1.491 . S
C1992 H1983 0.950 . S
C1992 C1991 1.398 . S
C1992 C1993 1.391 . S
C1993 H1981 0.950 . S
C1993 C1989 1.393 . S
C1993 C1992 1.391 . S
C1994 H1984 0.950 . S
C1994 C1995 1.386 . S
C1994 C1996 1.391 . S
C1995 C1994 1.386 . S
C1995 C1999 1.393 . S
C1996 H1985 0.950 . S
C1996 C1994 1.391 . S
C1996 C1997 1.400 . S
C1997 C1991 1.491 . S
C1997 C1996 1.400 . S
C1997 C1998 1.398 . S
C1998 H1986 0.950 . S
C1998 C1997 1.398 . S
C1998 C1999 1.391 . S
C1999 H1987 0.950 . S
C1999 C1995 1.393 . S
C1999 C1998 1.391 . S
H2000 C2008 0.950 . S
H2001 C2013 0.950 . S
H2002 C2010 0.950 . S
H2003 C2012 0.950 . S
H2004 C2014 0.950 . S
H2005 C2016 0.950 . S
H2006 C2018 0.950 . S
H2007 C2019 0.950 . S
C2008 H2000 0.950 . S
C2008 C2009 1.386 . S
C2008 C2010 1.391 . S
C2009 C2008 1.386 . S
C2009 C2013 1.393 . S
C2010 H2002 0.950 . S
C2010 C2008 1.391 . S
C2010 C2011 1.400 . S
C2011 C2010 1.400 . S
C2011 C2012 1.398 . S
C2011 C2017 1.491 1_655 S
C2012 H2003 0.950 . S
C2012 C2011 1.398 . S
C2012 C2013 1.391 . S
C2013 H2001 0.950 . S
C2013 C2009 1.393 . S
C2013 C2012 1.391 . S
C2014 H2004 0.950 . S
C2014 C2015 1.386 . S
C2014 C2016 1.391 . S
C2015 C2014 1.386 . S
C2015 C2019 1.393 . S
C2016 H2005 0.950 . S
C2016 C2014 1.391 . S
C2016 C2017 1.400 . S
C2017 C2011 1.491 1_455 S
C2017 C2016 1.400 . S
C2017 C2018 1.398 . S
C2018 H2006 0.950 . S
C2018 C2017 1.398 . S
C2018 C2019 1.391 . S
C2019 H2007 0.950 . S
C2019 C2015 1.393 . S
C2019 C2018 1.391 . S
H2020 C2028 0.950 . S
H2021 C2033 0.950 . S
H2022 C2030 0.950 . S
H2023 C2032 0.950 . S
H2024 C2034 0.950 . S
H2025 C2036 0.950 . S
H2026 C2038 0.950 . S
H2027 C2039 0.950 . S
C2028 H2020 0.950 . S
C2028 C2029 1.386 . S
C2028 C2030 1.391 . S
C2029 C2028 1.386 . S
C2029 C2033 1.393 . S
C2030 H2022 0.950 . S
C2030 C2028 1.391 . S
C2030 C2031 1.400 . S
C2031 C2030 1.400 . S
C2031 C2032 1.398 . S
C2031 C2037 1.491 . S
C2032 H2023 0.950 . S
C2032 C2031 1.398 . S
C2032 C2033 1.391 . S
C2033 H2021 0.950 . S
C2033 C2029 1.393 . S
C2033 C2032 1.391 . S
C2034 H2024 0.950 . S
C2034 C2035 1.386 . S
C2034 C2036 1.391 . S
C2035 C2034 1.386 . S
C2035 C2039 1.393 . S
C2036 H2025 0.950 . S
C2036 C2034 1.391 . S
C2036 C2037 1.400 . S
C2037 C2031 1.491 . S
C2037 C2036 1.400 . S
C2037 C2038 1.398 . S
C2038 H2026 0.950 . S
C2038 C2037 1.398 . S
C2038 C2039 1.391 . S
C2039 H2027 0.950 . S
C2039 C2035 1.393 . S
C2039 C2038 1.391 . S
H2040 C2048 0.950 . S
H2041 C2053 0.950 . S
H2042 C2050 0.950 . S
H2043 C2052 0.950 . S
H2044 C2054 0.950 . S
H2045 C2056 0.950 . S
H2046 C2058 0.950 . S
H2047 C2059 0.950 . S
C2048 H2040 0.950 . S
C2048 C2049 1.386 . S
C2048 C2050 1.391 . S
C2049 C2048 1.386 . S
C2049 C2053 1.393 . S
C2050 H2042 0.950 . S
C2050 C2048 1.391 . S
C2050 C2051 1.400 . S
C2051 C2050 1.400 . S
C2051 C2052 1.398 . S
C2051 C2057 1.491 . S
C2052 H2043 0.950 . S
C2052 C2051 1.398 . S
C2052 C2053 1.391 . S
C2053 H2041 0.950 . S
C2053 C2049 1.393 . S
C2053 C2052 1.391 . S
C2054 H2044 0.950 . S
C2054 C2055 1.386 . S
C2054 C2056 1.391 . S
C2055 C2054 1.386 . S
C2055 C2059 1.393 . S
C2056 H2045 0.950 . S
C2056 C2054 1.391 . S
C2056 C2057 1.400 . S
C2057 C2051 1.491 . S
C2057 C2056 1.400 . S
C2057 C2058 1.398 . S
C2058 H2046 0.950 . S
C2058 C2057 1.398 . S
C2058 C2059 1.391 . S
C2059 H2047 0.950 . S
C2059 C2055 1.393 . S
C2059 C2058 1.391 . S
H2060 C2068 0.950 . S
H2061 C2073 0.950 . S
H2062 C2070 0.950 . S
H2063 C2072 0.950 . S
H2064 C2074 0.950 . S
H2065 C2076 0.950 . S
H2066 C2078 0.950 . S
H2067 C2079 0.950 . S
C2068 H2060 0.950 . S
C2068 C2069 1.386 1_655 S
C2068 C2070 1.391 . S
C2069 C2068 1.386 1_455 S
C2069 C2073 1.393 . S
C2070 H2062 0.950 . S
C2070 C2068 1.391 . S
C2070 C2071 1.400 1_655 S
C2071 C2070 1.400 1_455 S
C2071 C2072 1.398 . S
C2071 C2077 1.491 1_455 S
C2072 H2063 0.950 . S
C2072 C2071 1.398 . S
C2072 C2073 1.391 . S
C2073 H2061 0.950 . S
C2073 C2069 1.393 . S
C2073 C2072 1.391 . S
C2074 H2064 0.950 . S
C2074 C2075 1.386 1_455 S
C2074 C2076 1.391 . S
C2075 C2074 1.386 1_655 S
C2075 C2079 1.393 . S
C2076 H2065 0.950 . S
C2076 C2074 1.391 . S
C2076 C2077 1.400 1_455 S
C2077 C2071 1.491 1_655 S
C2077 C2076 1.400 1_655 S
C2077 C2078 1.398 . S
C2078 H2066 0.950 . S
C2078 C2077 1.398 . S
C2078 C2079 1.391 . S
C2079 H2067 0.950 . S
C2079 C2075 1.393 . S
C2079 C2078 1.391 . S
H2080 C2088 0.950 . S
H2081 C2093 0.950 . S
H2082 C2090 0.950 . S
H2083 C2092 0.950 . S
H2084 C2094 0.950 . S
H2085 C2096 0.950 . S
H2086 C2098 0.950 . S
H2087 C2099 0.950 . S
C2088 H2080 0.950 . S
C2088 C2089 1.386 . S
C2088 C2090 1.391 . S
C2089 C2088 1.386 . S
C2089 C2093 1.393 . S
C2090 H2082 0.950 . S
C2090 C2088 1.391 . S
C2090 C2091 1.400 . S
C2091 C2090 1.400 . S
C2091 C2092 1.398 . S
C2091 C2097 1.491 1_455 S
C2092 H2083 0.950 . S
C2092 C2091 1.398 . S
C2092 C2093 1.391 . S
C2093 H2081 0.950 . S
C2093 C2089 1.393 . S
C2093 C2092 1.391 . S
C2094 H2084 0.950 . S
C2094 C2095 1.386 . S
C2094 C2096 1.391 . S
C2095 C2094 1.386 . S
C2095 C2099 1.393 . S
C2096 H2085 0.950 . S
C2096 C2094 1.391 . S
C2096 C2097 1.400 . S
C2097 C2091 1.491 1_655 S
C2097 C2096 1.400 . S
C2097 C2098 1.398 . S
C2098 H2086 0.950 . S
C2098 C2097 1.398 . S
C2098 C2099 1.391 . S
C2099 H2087 0.950 . S
C2099 C2095 1.393 . S
C2099 C2098 1.391 . S
H2100 C2108 0.950 . S
H2101 C2113 0.950 . S
H2102 C2110 0.950 . S
H2103 C2112 0.950 . S
H2104 C2114 0.950 . S
H2105 C2116 0.950 . S
H2106 C2118 0.950 . S
H2107 C2119 0.950 . S
C2108 H2100 0.950 . S
C2108 C2109 1.386 . S
C2108 C2110 1.391 . S
C2109 C2108 1.386 . S
C2109 C2113 1.393 1_655 S
C2110 H2102 0.950 . S
C2110 C2108 1.391 . S
C2110 C2111 1.400 . S
C2111 C2110 1.400 . S
C2111 C2112 1.398 1_655 S
C2111 C2117 1.491 1_655 S
C2112 H2103 0.950 . S
C2112 C2111 1.398 1_455 S
C2112 C2113 1.391 . S
C2113 H2101 0.950 . S
C2113 C2109 1.393 1_455 S
C2113 C2112 1.391 . S
C2114 H2104 0.950 . S
C2114 C2115 1.386 . S
C2114 C2116 1.391 . S
C2115 C2114 1.386 . S
C2115 C2119 1.393 1_455 S
C2116 H2105 0.950 . S
C2116 C2114 1.391 . S
C2116 C2117 1.400 . S
C2117 C2111 1.491 1_455 S
C2117 C2116 1.400 . S
C2117 C2118 1.398 1_455 S
C2118 H2106 0.950 . S
C2118 C2117 1.398 1_655 S
C2118 C2119 1.391 . S
C2119 H2107 0.950 . S
C2119 C2115 1.393 1_655 S
C2119 C2118 1.391 . S
H2120 C2128 0.950 . S
H2121 C2133 0.950 . S
H2122 C2130 0.950 . S
H2123 C2132 0.950 . S
H2124 C2134 0.950 . S
H2125 C2136 0.950 . S
H2126 C2138 0.950 . S
H2127 C2139 0.950 . S
C2128 H2120 0.950 . S
C2128 C2129 1.386 . S
C2128 C2130 1.391 . S
C2129 C2128 1.386 . S
C2129 C2133 1.393 . S
C2130 H2122 0.950 . S
C2130 C2128 1.391 . S
C2130 C2131 1.400 . S
C2131 C2130 1.400 . S
C2131 C2132 1.398 . S
C2131 C2137 1.491 . S
C2132 H2123 0.950 . S
C2132 C2131 1.398 . S
C2132 C2133 1.391 . S
C2133 H2121 0.950 . S
C2133 C2129 1.393 . S
C2133 C2132 1.391 . S
C2134 H2124 0.950 . S
C2134 C2135 1.386 . S
C2134 C2136 1.391 . S
C2135 C2134 1.386 . S
C2135 C2139 1.393 . S
C2136 H2125 0.950 . S
C2136 C2134 1.391 . S
C2136 C2137 1.400 . S
C2137 C2131 1.491 . S
C2137 C2136 1.400 . S
C2137 C2138 1.398 . S
C2138 H2126 0.950 . S
C2138 C2137 1.398 . S
C2138 C2139 1.391 . S
C2139 H2127 0.950 . S
C2139 C2135 1.393 . S
C2139 C2138 1.391 . S
H2140 C2148 0.950 . S
H2141 C2153 0.950 . S
H2142 C2150 0.950 . S
H2143 C2152 0.950 . S
H2144 C2154 0.950 . S
H2145 C2156 0.950 . S
H2146 C2158 0.950 . S
H2147 C2159 0.950 . S
C2148 H2140 0.950 . S
C2148 C2149 1.386 . S
C2148 C2150 1.391 . S
C2149 C2148 1.386 . S
C2149 C2153 1.393 . S
C2150 H2142 0.950 . S
C2150 C2148 1.391 . S
C2150 C2151 1.400 . S
C2151 C2150 1.400 . S
C2151 C2152 1.398 . S
C2151 C2157 1.491 . S
C2152 H2143 0.950 . S
C2152 C2151 1.398 . S
C2152 C2153 1.391 . S
C2153 H2141 0.950 . S
C2153 C2149 1.393 . S
C2153 C2152 1.391 . S
C2154 H2144 0.950 . S
C2154 C2155 1.386 . S
C2154 C2156 1.391 . S
C2155 C2154 1.386 . S
C2155 C2159 1.393 . S
C2156 H2145 0.950 . S
C2156 C2154 1.391 . S
C2156 C2157 1.400 . S
C2157 C2151 1.491 . S
C2157 C2156 1.400 . S
C2157 C2158 1.398 . S
C2158 H2146 0.950 . S
C2158 C2157 1.398 . S
C2158 C2159 1.391 . S
C2159 H2147 0.950 . S
C2159 C2155 1.393 . S
C2159 C2158 1.391 . S
H2160 C2168 0.950 . S
H2161 C2173 0.950 . S
H2162 C2170 0.950 . S
H2163 C2172 0.950 . S
H2164 C2174 0.950 . S
H2165 C2176 0.950 . S
H2166 C2178 0.950 . S
H2167 C2179 0.950 . S
C2168 H2160 0.950 . S
C2168 C2169 1.386 . S
C2168 C2170 1.391 . S
C2169 C2168 1.386 . S
C2169 C2173 1.393 . S
C2170 H2162 0.950 . S
C2170 C2168 1.391 . S
C2170 C2171 1.400 . S
C2171 C2170 1.400 . S
C2171 C2172 1.398 . S
C2171 C2177 1.491 1_455 S
C2172 H2163 0.950 . S
C2172 C2171 1.398 . S
C2172 C2173 1.391 . S
C2173 H2161 0.950 . S
C2173 C2169 1.393 . S
C2173 C2172 1.391 . S
C2174 H2164 0.950 . S
C2174 C2175 1.386 . S
C2174 C2176 1.391 . S
C2175 C2174 1.386 . S
C2175 C2179 1.393 . S
C2176 H2165 0.950 . S
C2176 C2174 1.391 . S
C2176 C2177 1.400 . S
C2177 C2171 1.491 1_655 S
C2177 C2176 1.400 . S
C2177 C2178 1.398 . S
C2178 H2166 0.950 . S
C2178 C2177 1.398 . S
C2178 C2179 1.391 . S
C2179 H2167 0.950 . S
C2179 C2175 1.393 . S
C2179 C2178 1.391 . S
H2180 C2188 0.950 . S
H2181 C2193 0.950 . S
H2182 C2190 0.950 . S
H2183 C2192 0.950 . S
H2184 C2194 0.950 . S
H2185 C2196 0.950 . S
H2186 C2198 0.950 . S
H2187 C2199 0.950 . S
C2188 H2180 0.950 . S
C2188 C2189 1.386 . S
C2188 C2190 1.391 . S
C2189 C2188 1.386 . S
C2189 C2193 1.393 . S
C2190 H2182 0.950 . S
C2190 C2188 1.391 . S
C2190 C2191 1.400 . S
C2191 C2190 1.400 . S
C2191 C2192 1.398 . S
C2191 C2197 1.491 . S
C2192 H2183 0.950 . S
C2192 C2191 1.398 . S
C2192 C2193 1.391 . S
C2193 H2181 0.950 . S
C2193 C2189 1.393 . S
C2193 C2192 1.391 . S
C2194 H2184 0.950 . S
C2194 C2195 1.386 . S
C2194 C2196 1.391 . S
C2195 C2194 1.386 . S
C2195 C2199 1.393 . S
C2196 H2185 0.950 . S
C2196 C2194 1.391 . S
C2196 C2197 1.400 . S
C2197 C2191 1.491 . S
C2197 C2196 1.400 . S
C2197 C2198 1.398 . S
C2198 H2186 0.950 . S
C2198 C2197 1.398 . S
C2198 C2199 1.391 . S
C2199 H2187 0.950 . S
C2199 C2195 1.393 . S
C2199 C2198 1.391 . S
H2200 C2208 0.950 . S
H2201 C2213 0.950 . S
H2202 C2210 0.950 . S
H2203 C2212 0.950 . S
H2204 C2214 0.950 . S
H2205 C2216 0.950 . S
H2206 C2218 0.950 . S
H2207 C2219 0.950 . S
C2208 H2200 0.950 . S
C2208 C2209 1.386 . S
C2208 C2210 1.391 . S
C2209 C2208 1.386 . S
C2209 C2213 1.393 . S
C2210 H2202 0.950 . S
C2210 C2208 1.391 . S
C2210 C2211 1.400 . S
C2211 C2210 1.400 . S
C2211 C2212 1.398 . S
C2211 C2217 1.491 . S
C2212 H2203 0.950 . S
C2212 C2211 1.398 . S
C2212 C2213 1.391 . S
C2213 H2201 0.950 . S
C2213 C2209 1.393 . S
C2213 C2212 1.391 . S
C2214 H2204 0.950 . S
C2214 C2215 1.386 . S
C2214 C2216 1.391 . S
C2215 C2214 1.386 . S
C2215 C2219 1.393 . S
C2216 H2205 0.950 . S
C2216 C2214 1.391 . S
C2216 C2217 1.400 . S
C2217 C2211 1.491 . S
C2217 C2216 1.400 . S
C2217 C2218 1.398 . S
C2218 H2206 0.950 . S
C2218 C2217 1.398 . S
C2218 C2219 1.391 . S
C2219 H2207 0.950 . S
C2219 C2215 1.393 . S
C2219 C2218 1.391 . S
H2220 C2228 0.950 . S
H2221 C2233 0.950 . S
H2222 C2230 0.950 . S
H2223 C2232 0.950 . S
H2224 C2234 0.950 . S
H2225 C2236 0.950 . S
H2226 C2238 0.950 . S
H2227 C2239 0.950 . S
C2228 H2220 0.950 . S
C2228 C2229 1.386 . S
C2228 C2230 1.391 . S
C2229 C2228 1.386 . S
C2229 C2233 1.393 1_655 S
C2230 H2222 0.950 . S
C2230 C2228 1.391 . S
C2230 C2231 1.400 . S
C2231 C2230 1.400 . S
C2231 C2232 1.398 1_655 S
C2231 C2237 1.491 1_655 S
C2232 H2223 0.950 . S
C2232 C2231 1.398 1_455 S
C2232 C2233 1.391 . S
C2233 H2221 0.950 . S
C2233 C2229 1.393 1_455 S
C2233 C2232 1.391 . S
C2234 H2224 0.950 . S
C2234 C2235 1.386 . S
C2234 C2236 1.391 . S
C2235 C2234 1.386 . S
C2235 C2239 1.393 1_455 S
C2236 H2225 0.950 . S
C2236 C2234 1.391 . S
C2236 C2237 1.400 . S
C2237 C2231 1.491 1_455 S
C2237 C2236 1.400 . S
C2237 C2238 1.398 1_455 S
C2238 H2226 0.950 . S
C2238 C2237 1.398 1_655 S
C2238 C2239 1.391 . S
C2239 H2227 0.950 . S
C2239 C2235 1.393 1_655 S
C2239 C2238 1.391 . S
H2240 C2248 0.950 . S
H2241 C2253 0.950 . S
H2242 C2250 0.950 . S
H2243 C2252 0.950 . S
H2244 C2254 0.950 . S
H2245 C2256 0.950 . S
H2246 C2258 0.950 . S
H2247 C2259 0.950 . S
C2248 H2240 0.950 . S
C2248 C2249 1.386 . S
C2248 C2250 1.391 . S
C2249 C2248 1.386 . S
C2249 C2253 1.393 . S
C2250 H2242 0.950 . S
C2250 C2248 1.391 . S
C2250 C2251 1.400 . S
C2251 C2250 1.400 . S
C2251 C2252 1.398 . S
C2251 C2257 1.491 . S
C2252 H2243 0.950 . S
C2252 C2251 1.398 . S
C2252 C2253 1.391 . S
C2253 H2241 0.950 . S
C2253 C2249 1.393 . S
C2253 C2252 1.391 . S
C2254 H2244 0.950 . S
C2254 C2255 1.386 . S
C2254 C2256 1.391 . S
C2255 C2254 1.386 . S
C2255 C2259 1.393 . S
C2256 H2245 0.950 . S
C2256 C2254 1.391 . S
C2256 C2257 1.400 . S
C2257 C2251 1.491 . S
C2257 C2256 1.400 . S
C2257 C2258 1.398 . S
C2258 H2246 0.950 . S
C2258 C2257 1.398 . S
C2258 C2259 1.391 . S
C2259 H2247 0.950 . S
C2259 C2255 1.393 . S
C2259 C2258 1.391 . S
H2260 C2268 0.950 . S
H2261 C2273 0.950 . S
H2262 C2270 0.950 1_455 S
H2263 C2272 0.950 . S
H2264 C2274 0.950 . S
H2265 C2276 0.950 1_655 S
H2266 C2278 0.950 . S
H2267 C2279 0.950 . S
C2268 H2260 0.950 . S
C2268 C2269 1.386 1_565 S
C2268 C2270 1.391 . S
C2269 C2268 1.386 1_545 S
C2269 C2273 1.393 . S
C2270 H2262 0.950 1_655 S
C2270 C2268 1.391 . S
C2270 C2271 1.400 1_565 S
C2271 C2270 1.400 1_545 S
C2271 C2272 1.398 . S
C2271 C2277 1.491 1_645 S
C2272 H2263 0.950 . S
C2272 C2271 1.398 . S
C2272 C2273 1.391 . S
C2273 H2261 0.950 . S
C2273 C2269 1.393 . S
C2273 C2272 1.391 . S
C2274 H2264 0.950 . S
C2274 C2275 1.386 1_545 S
C2274 C2276 1.391 . S
C2275 C2274 1.386 1_565 S
C2275 C2279 1.393 . S
C2276 H2265 0.950 1_455 S
C2276 C2274 1.391 . S
C2276 C2277 1.400 1_545 S
C2277 C2271 1.491 1_465 S
C2277 C2276 1.400 1_565 S
C2277 C2278 1.398 . S
C2278 H2266 0.950 . S
C2278 C2277 1.398 . S
C2278 C2279 1.391 . S
C2279 H2267 0.950 . S
C2279 C2275 1.393 . S
C2279 C2278 1.391 . S
H2280 C2288 0.950 . S
H2281 C2293 0.950 . S
H2282 C2290 0.950 . S
H2283 C2292 0.950 . S
H2284 C2294 0.950 . S
H2285 C2296 0.950 . S
H2286 C2298 0.950 . S
H2287 C2299 0.950 . S
C2288 H2280 0.950 . S
C2288 C2289 1.386 . S
C2288 C2290 1.391 . S
C2289 C2288 1.386 . S
C2289 C2293 1.393 . S
C2290 H2282 0.950 . S
C2290 C2288 1.391 . S
C2290 C2291 1.400 . S
C2291 C2290 1.400 . S
C2291 C2292 1.398 . S
C2291 C2297 1.491 . S
C2292 H2283 0.950 . S
C2292 C2291 1.398 . S
C2292 C2293 1.391 . S
C2293 H2281 0.950 . S
C2293 C2289 1.393 . S
C2293 C2292 1.391 . S
C2294 H2284 0.950 . S
C2294 C2295 1.386 . S
C2294 C2296 1.391 . S
C2295 C2294 1.386 . S
C2295 C2299 1.393 . S
C2296 H2285 0.950 . S
C2296 C2294 1.391 . S
C2296 C2297 1.400 . S
C2297 C2291 1.491 . S
C2297 C2296 1.400 . S
C2297 C2298 1.398 . S
C2298 H2286 0.950 . S
C2298 C2297 1.398 . S
C2298 C2299 1.391 . S
C2299 H2287 0.950 . S
C2299 C2295 1.393 . S
C2299 C2298 1.391 . S
H2300 C2308 0.950 . S
H2301 C2313 0.950 . S
H2302 C2310 0.950 . S
H2303 C2312 0.950 . S
H2304 C2314 0.950 . S
H2305 C2316 0.950 . S
H2306 C2318 0.950 . S
H2307 C2319 0.950 . S
C2308 H2300 0.950 . S
C2308 C2309 1.386 1_565 S
C2308 C2310 1.391 . S
C2309 C2308 1.386 1_545 S
C2309 C2313 1.393 . S
C2310 H2302 0.950 . S
C2310 C2308 1.391 . S
C2310 C2311 1.400 1_565 S
C2311 C2310 1.400 1_545 S
C2311 C2312 1.398 . S
C2311 C2317 1.491 1_544 S
C2312 H2303 0.950 . S
C2312 C2311 1.398 . S
C2312 C2313 1.391 . S
C2313 H2301 0.950 . S
C2313 C2309 1.393 . S
C2313 C2312 1.391 . S
C2314 H2304 0.950 . S
C2314 C2315 1.386 1_545 S
C2314 C2316 1.391 . S
C2315 C2314 1.386 1_565 S
C2315 C2319 1.393 . S
C2316 H2305 0.950 . S
C2316 C2314 1.391 . S
C2316 C2317 1.400 1_545 S
C2317 C2311 1.491 1_566 S
C2317 C2316 1.400 1_565 S
C2317 C2318 1.398 . S
C2318 H2306 0.950 . S
C2318 C2317 1.398 . S
C2318 C2319 1.391 . S
C2319 H2307 0.950 . S
C2319 C2315 1.393 . S
C2319 C2318 1.391 . S
H2320 C2328 0.950 . S
H2321 C2333 0.950 . S
H2322 C2330 0.950 . S
H2323 C2332 0.950 . S
H2324 C2334 0.950 . S
H2325 C2336 0.950 . S
H2326 C2338 0.950 . S
H2327 C2339 0.950 . S
C2328 H2320 0.950 . S
C2328 C2329 1.386 . S
C2328 C2330 1.391 . S
C2329 C2328 1.386 . S
C2329 C2333 1.393 . S
C2330 H2322 0.950 . S
C2330 C2328 1.391 . S
C2330 C2331 1.400 . S
C2331 C2330 1.400 . S
C2331 C2332 1.398 . S
C2331 C2337 1.491 . S
C2332 H2323 0.950 . S
C2332 C2331 1.398 . S
C2332 C2333 1.391 . S
C2333 H2321 0.950 . S
C2333 C2329 1.393 . S
C2333 C2332 1.391 . S
C2334 H2324 0.950 . S
C2334 C2335 1.386 . S
C2334 C2336 1.391 . S
C2335 C2334 1.386 . S
C2335 C2339 1.393 . S
C2336 H2325 0.950 . S
C2336 C2334 1.391 . S
C2336 C2337 1.400 . S
C2337 C2331 1.491 . S
C2337 C2336 1.400 . S
C2337 C2338 1.398 . S
C2338 H2326 0.950 . S
C2338 C2337 1.398 . S
C2338 C2339 1.391 . S
C2339 H2327 0.950 . S
C2339 C2335 1.393 . S
C2339 C2338 1.391 . S
H2340 C2348 0.950 . S
H2341 C2353 0.954 . S
H2342 C2350 0.950 . S
H2343 C2352 0.950 . S
H2344 C2354 0.950 . S
H2345 C2356 0.950 . S
H2346 C2358 0.950 . S
H2347 C2359 0.954 . S
C2348 H2340 0.950 . S
C2348 C2349 1.386 . S
C2348 C2350 1.391 . S
C2349 C2348 1.386 . S
C2349 C2353 1.386 1_545 S
C2350 H2342 0.950 . S
C2350 C2348 1.391 . S
C2350 C2351 1.400 . S
C2351 C2350 1.400 . S
C2351 C2352 1.398 1_545 S
C2351 C2357 1.491 1_545 S
C2352 H2343 0.950 . S
C2352 C2351 1.398 1_565 S
C2352 C2353 1.394 . S
C2353 H2341 0.954 . S
C2353 C2349 1.386 1_565 S
C2353 C2352 1.394 . S
C2354 H2344 0.950 . S
C2354 C2355 1.386 . S
C2354 C2356 1.391 . S
C2355 C2354 1.386 . S
C2355 C2359 1.386 1_565 S
C2356 H2345 0.950 . S
C2356 C2354 1.391 . S
C2356 C2357 1.400 . S
C2357 C2351 1.491 1_565 S
C2357 C2356 1.400 . S
C2357 C2358 1.398 1_565 S
C2358 H2346 0.950 . S
C2358 C2357 1.398 1_545 S
C2358 C2359 1.394 . S
C2359 H2347 0.954 . S
C2359 C2355 1.386 1_545 S
C2359 C2358 1.394 . S
H2360 C2368 0.950 . S
H2361 C2373 0.950 . S
H2362 C2370 0.950 . S
H2363 C2372 0.950 . S
H2364 C2374 0.950 . S
H2365 C2376 0.950 . S
H2366 C2378 0.950 . S
H2367 C2379 0.950 . S
C2368 H2360 0.950 . S
C2368 C2369 1.386 . S
C2368 C2370 1.391 . S
C2369 C2368 1.386 . S
C2369 C2373 1.393 . S
C2370 H2362 0.950 . S
C2370 C2368 1.391 . S
C2370 C2371 1.400 . S
C2371 C2370 1.400 . S
C2371 C2372 1.398 . S
C2371 C2377 1.491 . S
C2372 H2363 0.950 . S
C2372 C2371 1.398 . S
C2372 C2373 1.391 . S
C2373 H2361 0.950 . S
C2373 C2369 1.393 . S
C2373 C2372 1.391 . S
C2374 H2364 0.950 . S
C2374 C2375 1.386 . S
C2374 C2376 1.391 . S
C2375 C2374 1.386 . S
C2375 C2379 1.393 . S
C2376 H2365 0.950 . S
C2376 C2374 1.391 . S
C2376 C2377 1.400 . S
C2377 C2371 1.491 . S
C2377 C2376 1.400 . S
C2377 C2378 1.398 . S
C2378 H2366 0.950 . S
C2378 C2377 1.398 . S
C2378 C2379 1.391 . S
C2379 H2367 0.950 . S
C2379 C2375 1.393 . S
C2379 C2378 1.391 . S
H2380 C2388 0.950 . S
H2381 C2393 0.950 . S
H2382 C2390 0.950 . S
H2383 C2392 0.950 . S
H2384 C2394 0.950 . S
H2385 C2396 0.950 . S
H2386 C2398 0.950 . S
H2387 C2399 0.950 . S
C2388 H2380 0.950 . S
C2388 C2389 1.386 1_665 S
C2388 C2390 1.391 . S
C2389 C2388 1.386 1_445 S
C2389 C2393 1.393 . S
C2390 H2382 0.950 . S
C2390 C2388 1.391 . S
C2390 C2391 1.400 1_665 S
C2391 C2390 1.400 1_445 S
C2391 C2392 1.398 . S
C2391 C2397 1.491 1_446 S
C2392 H2383 0.950 . S
C2392 C2391 1.398 . S
C2392 C2393 1.391 . S
C2393 H2381 0.950 . S
C2393 C2389 1.393 . S
C2393 C2392 1.391 . S
C2394 H2384 0.950 . S
C2394 C2395 1.386 1_445 S
C2394 C2396 1.391 . S
C2395 C2394 1.386 1_665 S
C2395 C2399 1.393 . S
C2396 H2385 0.950 . S
C2396 C2394 1.391 . S
C2396 C2397 1.400 1_445 S
C2397 C2391 1.491 1_664 S
C2397 C2396 1.400 1_665 S
C2397 C2398 1.398 . S
C2398 H2386 0.950 . S
C2398 C2397 1.398 . S
C2398 C2399 1.391 . S
C2399 H2387 0.950 . S
C2399 C2395 1.393 . S
C2399 C2398 1.391 . S
H2400 C2408 0.950 . S
H2401 C2413 0.950 . S
H2402 C2410 0.950 . S
H2403 C2412 0.950 . S
H2404 C2414 0.950 . S
H2405 C2416 0.950 . S
H2406 C2418 0.950 . S
H2407 C2419 0.950 . S
C2408 H2400 0.950 . S
C2408 C2409 1.386 . S
C2408 C2410 1.391 . S
C2409 C2408 1.386 . S
C2409 C2413 1.393 . S
C2410 H2402 0.950 . S
C2410 C2408 1.391 . S
C2410 C2411 1.400 . S
C2411 C2410 1.400 . S
C2411 C2412 1.398 . S
C2411 C2417 1.491 . S
C2412 H2403 0.950 . S
C2412 C2411 1.398 . S
C2412 C2413 1.391 . S
C2413 H2401 0.950 . S
C2413 C2409 1.393 . S
C2413 C2412 1.391 . S
C2414 H2404 0.950 . S
C2414 C2415 1.386 . S
C2414 C2416 1.391 . S
C2415 C2414 1.386 . S
C2415 C2419 1.393 . S
C2416 H2405 0.950 . S
C2416 C2414 1.391 . S
C2416 C2417 1.400 . S
C2417 C2411 1.491 . S
C2417 C2416 1.400 . S
C2417 C2418 1.398 . S
C2418 H2406 0.950 . S
C2418 C2417 1.398 . S
C2418 C2419 1.391 . S
C2419 H2407 0.950 . S
C2419 C2415 1.393 . S
C2419 C2418 1.391 . S
H2420 C2428 0.950 . S
H2421 C2433 0.950 . S
H2422 C2430 0.950 . S
H2423 C2432 0.950 . S
H2424 C2434 0.950 . S
H2425 C2436 0.950 . S
H2426 C2438 0.950 . S
H2427 C2439 0.950 . S
C2428 H2420 0.950 . S
C2428 C2429 1.386 . S
C2428 C2430 1.391 . S
C2429 C2428 1.386 . S
C2429 C2433 1.393 . S
C2430 H2422 0.950 . S
C2430 C2428 1.391 . S
C2430 C2431 1.400 . S
C2431 C2430 1.400 . S
C2431 C2432 1.398 . S
C2431 C2437 1.491 . S
C2432 H2423 0.950 . S
C2432 C2431 1.398 . S
C2432 C2433 1.391 . S
C2433 H2421 0.950 . S
C2433 C2429 1.393 . S
C2433 C2432 1.391 . S
C2434 H2424 0.950 . S
C2434 C2435 1.386 . S
C2434 C2436 1.391 . S
C2435 C2434 1.386 . S
C2435 C2439 1.393 . S
C2436 H2425 0.950 . S
C2436 C2434 1.391 . S
C2436 C2437 1.400 . S
C2437 C2431 1.491 . S
C2437 C2436 1.400 . S
C2437 C2438 1.398 . S
C2438 H2426 0.950 . S
C2438 C2437 1.398 . S
C2438 C2439 1.391 . S
C2439 H2427 0.950 . S
C2439 C2435 1.393 . S
C2439 C2438 1.391 . S
H2440 C2448 0.950 . S
H2441 C2453 0.950 . S
H2442 C2450 0.950 . S
H2443 C2452 0.950 . S
H2444 C2454 0.950 . S
H2445 C2456 0.950 . S
H2446 C2458 0.950 . S
H2447 C2459 0.950 . S
C2448 H2440 0.950 . S
C2448 C2449 1.386 . S
C2448 C2450 1.391 . S
C2449 C2448 1.386 . S
C2449 C2453 1.393 . S
C2450 H2442 0.950 . S
C2450 C2448 1.391 . S
C2450 C2451 1.400 . S
C2451 C2450 1.400 . S
C2451 C2452 1.398 . S
C2451 C2457 1.491 . S
C2452 H2443 0.950 . S
C2452 C2451 1.398 . S
C2452 C2453 1.391 . S
C2453 H2441 0.950 . S
C2453 C2449 1.393 . S
C2453 C2452 1.391 . S
C2454 H2444 0.950 . S
C2454 C2455 1.386 . S
C2454 C2456 1.391 . S
C2455 C2454 1.386 . S
C2455 C2459 1.393 . S
C2456 H2445 0.950 . S
C2456 C2454 1.391 . S
C2456 C2457 1.400 . S
C2457 C2451 1.491 . S
C2457 C2456 1.400 . S
C2457 C2458 1.398 . S
C2458 H2446 0.950 . S
C2458 C2457 1.398 . S
C2458 C2459 1.391 . S
C2459 H2447 0.950 . S
C2459 C2455 1.393 . S
C2459 C2458 1.391 . S
H2460 C2468 0.950 . S
H2461 C2473 0.950 . S
H2462 C2470 0.950 . S
H2463 C2472 0.950 . S
H2464 C2474 0.950 . S
H2465 C2476 0.950 . S
H2466 C2478 0.950 . S
H2467 C2479 0.950 . S
C2468 H2460 0.950 . S
C2468 C2469 1.386 . S
C2468 C2470 1.391 . S
C2469 C2468 1.386 . S
C2469 C2473 1.393 . S
C2470 H2462 0.950 . S
C2470 C2468 1.391 . S
C2470 C2471 1.400 . S
C2471 C2470 1.400 . S
C2471 C2472 1.398 . S
C2471 C2477 1.491 . S
C2472 H2463 0.950 . S
C2472 C2471 1.398 . S
C2472 C2473 1.391 . S
C2473 H2461 0.950 . S
C2473 C2469 1.393 . S
C2473 C2472 1.391 . S
C2474 H2464 0.950 . S
C2474 C2475 1.386 . S
C2474 C2476 1.391 . S
C2475 C2474 1.386 . S
C2475 C2479 1.393 . S
C2476 H2465 0.950 . S
C2476 C2474 1.391 . S
C2476 C2477 1.400 . S
C2477 C2471 1.491 . S
C2477 C2476 1.400 . S
C2477 C2478 1.398 . S
C2478 H2466 0.950 . S
C2478 C2477 1.398 . S
C2478 C2479 1.391 . S
C2479 H2467 0.950 . S
C2479 C2475 1.393 . S
C2479 C2478 1.391 . S
H2480 C2488 0.950 . S
H2481 C2493 0.950 . S
H2482 C2490 0.950 . S
H2483 C2492 0.950 . S
H2484 C2494 0.950 . S
H2485 C2496 0.950 . S
H2486 C2498 0.950 . S
H2487 C2499 0.950 . S
C2488 H2480 0.950 . S
C2488 C2489 1.386 . S
C2488 C2490 1.391 . S
C2489 C2488 1.386 . S
C2489 C2493 1.393 . S
C2490 H2482 0.950 . S
C2490 C2488 1.391 . S
C2490 C2491 1.400 . S
C2491 C2490 1.400 . S
C2491 C2492 1.398 . S
C2491 C2497 1.491 1_554 S
C2492 H2483 0.950 . S
C2492 C2491 1.398 . S
C2492 C2493 1.391 . S
C2493 H2481 0.950 . S
C2493 C2489 1.393 . S
C2493 C2492 1.391 . S
C2494 H2484 0.950 . S
C2494 C2495 1.386 . S
C2494 C2496 1.391 . S
C2495 C2494 1.386 . S
C2495 C2499 1.393 . S
C2496 H2485 0.950 . S
C2496 C2494 1.391 . S
C2496 C2497 1.400 . S
C2497 C2491 1.491 1_556 S
C2497 C2496 1.400 . S
C2497 C2498 1.398 . S
C2498 H2486 0.950 . S
C2498 C2497 1.398 . S
C2498 C2499 1.391 . S
C2499 H2487 0.950 . S
C2499 C2495 1.393 . S
C2499 C2498 1.391 . S
H2500 C2508 0.950 . S
H2501 C2513 0.950 . S
H2502 C2510 0.950 . S
H2503 C2512 0.950 . S
H2504 C2514 0.950 . S
H2505 C2516 0.950 . S
H2506 C2518 0.950 . S
H2507 C2519 0.950 . S
C2508 H2500 0.950 . S
C2508 C2509 1.386 1_455 S
C2508 C2510 1.391 . S
C2509 C2508 1.386 1_655 S
C2509 C2513 1.393 . S
C2510 H2502 0.950 . S
C2510 C2508 1.391 . S
C2510 C2511 1.400 1_455 S
C2511 C2510 1.400 1_655 S
C2511 C2512 1.398 . S
C2511 C2517 1.491 1_655 S
C2512 H2503 0.950 . S
C2512 C2511 1.398 . S
C2512 C2513 1.391 . S
C2513 H2501 0.950 . S
C2513 C2509 1.393 . S
C2513 C2512 1.391 . S
C2514 H2504 0.950 . S
C2514 C2515 1.386 1_655 S
C2514 C2516 1.391 . S
C2515 C2514 1.386 1_455 S
C2515 C2519 1.393 . S
C2516 H2505 0.950 . S
C2516 C2514 1.391 . S
C2516 C2517 1.400 1_655 S
C2517 C2511 1.491 1_455 S
C2517 C2516 1.400 1_455 S
C2517 C2518 1.398 . S
C2518 H2506 0.950 . S
C2518 C2517 1.398 . S
C2518 C2519 1.391 . S
C2519 H2507 0.950 . S
C2519 C2515 1.393 . S
C2519 C2518 1.391 . S
H2520 C2528 0.950 . S
H2521 C2533 0.950 . S
H2522 C2530 0.950 . S
H2523 C2532 0.950 . S
H2524 C2534 0.950 . S
H2525 C2536 0.950 . S
H2526 C2538 0.950 . S
H2527 C2539 0.950 . S
C2528 H2520 0.950 . S
C2528 C2529 1.386 . S
C2528 C2530 1.391 . S
C2529 C2528 1.386 . S
C2529 C2533 1.393 1_455 S
C2530 H2522 0.950 . S
C2530 C2528 1.391 . S
C2530 C2531 1.400 . S
C2531 C2530 1.400 . S
C2531 C2532 1.398 1_455 S
C2531 C2537 1.491 1_454 S
C2532 H2523 0.950 . S
C2532 C2531 1.398 1_655 S
C2532 C2533 1.391 . S
C2533 H2521 0.950 . S
C2533 C2529 1.393 1_655 S
C2533 C2532 1.391 . S
C2534 H2524 0.950 . S
C2534 C2535 1.386 . S
C2534 C2536 1.391 . S
C2535 C2534 1.386 . S
C2535 C2539 1.393 1_655 S
C2536 H2525 0.950 . S
C2536 C2534 1.391 . S
C2536 C2537 1.400 . S
C2537 C2531 1.491 1_656 S
C2537 C2536 1.400 . S
C2537 C2538 1.398 1_655 S
C2538 H2526 0.950 . S
C2538 C2537 1.398 1_455 S
C2538 C2539 1.391 . S
C2539 H2527 0.950 . S
C2539 C2535 1.393 1_455 S
C2539 C2538 1.391 . S
H2540 C2548 0.950 . S
H2541 C2553 0.950 . S
H2542 C2550 0.950 . S
H2543 C2552 0.950 . S
H2544 C2554 0.950 . S
H2545 C2556 0.950 . S
H2546 C2558 0.950 . S
H2547 C2559 0.950 . S
C2548 H2540 0.950 . S
C2548 C2549 1.386 . S
C2548 C2550 1.391 . S
C2549 C2548 1.386 . S
C2549 C2553 1.393 . S
C2550 H2542 0.950 . S
C2550 C2548 1.391 . S
C2550 C2551 1.400 . S
C2551 C2550 1.400 . S
C2551 C2552 1.398 . S
C2551 C2557 1.491 . S
C2552 H2543 0.950 . S
C2552 C2551 1.398 . S
C2552 C2553 1.391 . S
C2553 H2541 0.950 . S
C2553 C2549 1.393 . S
C2553 C2552 1.391 . S
C2554 H2544 0.950 . S
C2554 C2555 1.386 . S
C2554 C2556 1.391 . S
C2555 C2554 1.386 . S
C2555 C2559 1.393 . S
C2556 H2545 0.950 . S
C2556 C2554 1.391 . S
C2556 C2557 1.400 . S
C2557 C2551 1.491 . S
C2557 C2556 1.400 . S
C2557 C2558 1.398 . S
C2558 H2546 0.950 . S
C2558 C2557 1.398 . S
C2558 C2559 1.391 . S
C2559 H2547 0.950 . S
C2559 C2555 1.393 . S
C2559 C2558 1.391 . S
H2560 C2568 0.950 . S
H2561 C2573 0.950 . S
H2562 C2570 0.950 . S
H2563 C2572 0.950 . S
H2564 C2574 0.950 . S
H2565 C2576 0.950 . S
H2566 C2578 0.950 . S
H2567 C2579 0.950 . S
C2568 H2560 0.950 . S
C2568 C2569 1.386 . S
C2568 C2570 1.391 . S
C2569 C2568 1.386 . S
C2569 C2573 1.393 . S
C2570 H2562 0.950 . S
C2570 C2568 1.391 . S
C2570 C2571 1.400 . S
C2571 C2570 1.400 . S
C2571 C2572 1.398 . S
C2571 C2577 1.491 . S
C2572 H2563 0.950 . S
C2572 C2571 1.398 . S
C2572 C2573 1.391 . S
C2573 H2561 0.950 . S
C2573 C2569 1.393 . S
C2573 C2572 1.391 . S
C2574 H2564 0.950 . S
C2574 C2575 1.386 . S
C2574 C2576 1.391 . S
C2575 C2574 1.386 . S
C2575 C2579 1.393 . S
C2576 H2565 0.950 . S
C2576 C2574 1.391 . S
C2576 C2577 1.400 . S
C2577 C2571 1.491 . S
C2577 C2576 1.400 . S
C2577 C2578 1.398 . S
C2578 H2566 0.950 . S
C2578 C2577 1.398 . S
C2578 C2579 1.391 . S
C2579 H2567 0.950 . S
C2579 C2575 1.393 . S
C2579 C2578 1.391 . S
H2580 C2588 0.950 . S
H2581 C2593 0.950 . S
H2582 C2590 0.950 . S
H2583 C2592 0.950 . S
H2584 C2594 0.950 . S
H2585 C2596 0.950 . S
H2586 C2598 0.950 . S
H2587 C2599 0.950 . S
C2588 H2580 0.950 . S
C2588 C2589 1.386 . S
C2588 C2590 1.391 . S
C2589 C2588 1.386 . S
C2589 C2593 1.393 . S
C2590 H2582 0.950 . S
C2590 C2588 1.391 . S
C2590 C2591 1.400 . S
C2591 C2590 1.400 . S
C2591 C2592 1.398 . S
C2591 C2597 1.491 . S
C2592 H2583 0.950 . S
C2592 C2591 1.398 . S
C2592 C2593 1.391 . S
C2593 H2581 0.950 . S
C2593 C2589 1.393 . S
C2593 C2592 1.391 . S
C2594 H2584 0.950 . S
C2594 C2595 1.386 . S
C2594 C2596 1.391 . S
C2595 C2594 1.386 . S
C2595 C2599 1.393 . S
C2596 H2585 0.950 . S
C2596 C2594 1.391 . S
C2596 C2597 1.400 . S
C2597 C2591 1.491 . S
C2597 C2596 1.400 . S
C2597 C2598 1.398 . S
C2598 H2586 0.950 . S
C2598 C2597 1.398 . S
C2598 C2599 1.391 . S
C2599 H2587 0.950 . S
C2599 C2595 1.393 . S
C2599 C2598 1.391 . S
H2600 C2608 0.950 . S
H2601 C2613 0.950 . S
H2602 C2610 0.950 . S
H2603 C2612 0.950 . S
H2604 C2614 0.950 . S
H2605 C2616 0.950 . S
H2606 C2618 0.950 . S
H2607 C2619 0.950 . S
C2608 H2600 0.950 . S
C2608 C2609 1.386 . S
C2608 C2610 1.391 . S
C2609 C2608 1.386 . S
C2609 C2613 1.393 . S
C2610 H2602 0.950 . S
C2610 C2608 1.391 . S
C2610 C2611 1.400 . S
C2611 C2610 1.400 . S
C2611 C2612 1.398 . S
C2611 C2617 1.491 . S
C2612 H2603 0.950 . S
C2612 C2611 1.398 . S
C2612 C2613 1.391 . S
C2613 H2601 0.950 . S
C2613 C2609 1.393 . S
C2613 C2612 1.391 . S
C2614 H2604 0.950 . S
C2614 C2615 1.386 . S
C2614 C2616 1.391 . S
C2615 C2614 1.386 . S
C2615 C2619 1.393 . S
C2616 H2605 0.950 . S
C2616 C2614 1.391 . S
C2616 C2617 1.400 . S
C2617 C2611 1.491 . S
C2617 C2616 1.400 . S
C2617 C2618 1.398 . S
C2618 H2606 0.950 . S
C2618 C2617 1.398 . S
C2618 C2619 1.391 . S
C2619 H2607 0.950 . S
C2619 C2615 1.393 . S
C2619 C2618 1.391 . S
H2620 C2628 0.950 . S
H2621 C2633 0.950 . S
H2622 C2630 0.950 . S
H2623 C2632 0.950 . S
H2624 C2634 0.950 . S
H2625 C2636 0.950 . S
H2626 C2638 0.950 . S
H2627 C2639 0.950 . S
C2628 H2620 0.950 . S
C2628 C2629 1.386 . S
C2628 C2630 1.391 . S
C2629 C2628 1.386 . S
C2629 C2633 1.393 . S
C2630 H2622 0.950 . S
C2630 C2628 1.391 . S
C2630 C2631 1.400 . S
C2631 C2630 1.400 . S
C2631 C2632 1.398 . S
C2631 C2637 1.491 . S
C2632 H2623 0.950 . S
C2632 C2631 1.398 . S
C2632 C2633 1.391 . S
C2633 H2621 0.950 . S
C2633 C2629 1.393 . S
C2633 C2632 1.391 . S
C2634 H2624 0.950 . S
C2634 C2635 1.386 . S
C2634 C2636 1.391 . S
C2635 C2634 1.386 . S
C2635 C2639 1.393 . S
C2636 H2625 0.950 . S
C2636 C2634 1.391 . S
C2636 C2637 1.400 . S
C2637 C2631 1.491 . S
C2637 C2636 1.400 . S
C2637 C2638 1.398 . S
C2638 H2626 0.950 . S
C2638 C2637 1.398 . S
C2638 C2639 1.391 . S
C2639 H2627 0.950 . S
C2639 C2635 1.393 . S
C2639 C2638 1.391 . S
H2640 C2648 0.950 . S
H2641 C2653 0.950 . S
H2642 C2650 0.950 . S
H2643 C2652 0.950 . S
H2644 C2654 0.950 . S
H2645 C2656 0.950 . S
H2646 C2658 0.950 . S
H2647 C2659 0.950 . S
C2648 H2640 0.950 . S
C2648 C2649 1.386 . S
C2648 C2650 1.391 . S
C2649 C2648 1.386 . S
C2649 C2653 1.393 . S
C2650 H2642 0.950 . S
C2650 C2648 1.391 . S
C2650 C2651 1.400 . S
C2651 C2650 1.400 . S
C2651 C2652 1.398 . S
C2651 C2657 1.491 . S
C2652 H2643 0.950 . S
C2652 C2651 1.398 . S
C2652 C2653 1.391 . S
C2653 H2641 0.950 . S
C2653 C2649 1.393 . S
C2653 C2652 1.391 . S
C2654 H2644 0.950 . S
C2654 C2655 1.386 . S
C2654 C2656 1.391 . S
C2655 C2654 1.386 . S
C2655 C2659 1.393 . S
C2656 H2645 0.950 . S
C2656 C2654 1.391 . S
C2656 C2657 1.400 . S
C2657 C2651 1.491 . S
C2657 C2656 1.400 . S
C2657 C2658 1.398 . S
C2658 H2646 0.950 . S
C2658 C2657 1.398 . S
C2658 C2659 1.391 . S
C2659 H2647 0.950 . S
C2659 C2655 1.393 . S
C2659 C2658 1.391 . S
H2660 C2668 0.950 . S
H2661 C2673 0.950 . S
H2662 C2670 0.950 . S
H2663 C2672 0.950 . S
H2664 C2674 0.950 . S
H2665 C2676 0.950 . S
H2666 C2678 0.950 . S
H2667 C2679 0.950 . S
C2668 H2660 0.950 . S
C2668 C2669 1.386 . S
C2668 C2670 1.391 . S
C2669 C2668 1.386 . S
C2669 C2673 1.393 . S
C2670 H2662 0.950 . S
C2670 C2668 1.391 . S
C2670 C2671 1.400 . S
C2671 C2670 1.400 . S
C2671 C2672 1.398 . S
C2671 C2677 1.491 . S
C2672 H2663 0.950 . S
C2672 C2671 1.398 . S
C2672 C2673 1.391 . S
C2673 H2661 0.950 . S
C2673 C2669 1.393 . S
C2673 C2672 1.391 . S
C2674 H2664 0.950 . S
C2674 C2675 1.386 . S
C2674 C2676 1.391 . S
C2675 C2674 1.386 . S
C2675 C2679 1.393 . S
C2676 H2665 0.950 . S
C2676 C2674 1.391 . S
C2676 C2677 1.400 . S
C2677 C2671 1.491 . S
C2677 C2676 1.400 . S
C2677 C2678 1.398 . S
C2678 H2666 0.950 . S
C2678 C2677 1.398 . S
C2678 C2679 1.391 . S
C2679 H2667 0.950 . S
C2679 C2675 1.393 . S
C2679 C2678 1.391 . S
H2680 C2688 0.950 . S
H2681 C2693 0.950 . S
H2682 C2690 0.950 . S
H2683 C2692 0.950 . S
H2684 C2694 0.950 . S
H2685 C2696 0.950 . S
H2686 C2698 0.950 . S
H2687 C2699 0.950 . S
C2688 H2680 0.950 . S
C2688 C2689 1.386 . S
C2688 C2690 1.391 . S
C2689 C2688 1.386 . S
C2689 C2693 1.393 . S
C2690 H2682 0.950 . S
C2690 C2688 1.391 . S
C2690 C2691 1.400 . S
C2691 C2690 1.400 . S
C2691 C2692 1.398 . S
C2691 C2697 1.491 . S
C2692 H2683 0.950 . S
C2692 C2691 1.398 . S
C2692 C2693 1.391 . S
C2693 H2681 0.950 . S
C2693 C2689 1.393 . S
C2693 C2692 1.391 . S
C2694 H2684 0.950 . S
C2694 C2695 1.386 . S
C2694 C2696 1.391 . S
C2695 C2694 1.386 . S
C2695 C2699 1.393 . S
C2696 H2685 0.950 . S
C2696 C2694 1.391 . S
C2696 C2697 1.400 . S
C2697 C2691 1.491 . S
C2697 C2696 1.400 . S
C2697 C2698 1.398 . S
C2698 H2686 0.950 . S
C2698 C2697 1.398 . S
C2698 C2699 1.391 . S
C2699 H2687 0.950 . S
C2699 C2695 1.393 . S
C2699 C2698 1.391 . S
H2700 C2708 0.950 . S
H2701 C2713 0.950 . S
H2702 C2710 0.950 . S
H2703 C2712 0.950 . S
H2704 C2714 0.950 . S
H2705 C2716 0.950 . S
H2706 C2718 0.950 . S
H2707 C2719 0.950 . S
C2708 H2700 0.950 . S
C2708 C2709 1.386 . S
C2708 C2710 1.391 . S
C2709 C2708 1.386 . S
C2709 C2713 1.393 . S
C2710 H2702 0.950 . S
C2710 C2708 1.391 . S
C2710 C2711 1.400 . S
C2711 C2710 1.400 . S
C2711 C2712 1.398 . S
C2711 C2717 1.491 . S
C2712 H2703 0.950 . S
C2712 C2711 1.398 . S
C2712 C2713 1.391 . S
C2713 H2701 0.950 . S
C2713 C2709 1.393 . S
C2713 C2712 1.391 . S
C2714 H2704 0.950 . S
C2714 C2715 1.386 . S
C2714 C2716 1.391 . S
C2715 C2714 1.386 . S
C2715 C2719 1.393 . S
C2716 H2705 0.950 . S
C2716 C2714 1.391 . S
C2716 C2717 1.400 . S
C2717 C2711 1.491 . S
C2717 C2716 1.400 . S
C2717 C2718 1.398 . S
C2718 H2706 0.950 . S
C2718 C2717 1.398 . S
C2718 C2719 1.391 . S
C2719 H2707 0.950 . S
C2719 C2715 1.393 . S
C2719 C2718 1.391 . S
H2720 C2728 0.950 . S
H2721 C2733 0.950 . S
H2722 C2730 0.950 . S
H2723 C2732 0.950 . S
H2724 C2734 0.950 . S
H2725 C2736 0.950 . S
H2726 C2738 0.950 . S
H2727 C2739 0.950 . S
C2728 H2720 0.950 . S
C2728 C2729 1.386 . S
C2728 C2730 1.391 . S
C2729 C2728 1.386 . S
C2729 C2733 1.393 . S
C2730 H2722 0.950 . S
C2730 C2728 1.391 . S
C2730 C2731 1.400 . S
C2731 C2730 1.400 . S
C2731 C2732 1.398 . S
C2731 C2737 1.491 . S
C2732 H2723 0.950 . S
C2732 C2731 1.398 . S
C2732 C2733 1.391 . S
C2733 H2721 0.950 . S
C2733 C2729 1.393 . S
C2733 C2732 1.391 . S
C2734 H2724 0.950 . S
C2734 C2735 1.386 . S
C2734 C2736 1.391 . S
C2735 C2734 1.386 . S
C2735 C2739 1.393 . S
C2736 H2725 0.950 . S
C2736 C2734 1.391 . S
C2736 C2737 1.400 . S
C2737 C2731 1.491 . S
C2737 C2736 1.400 . S
C2737 C2738 1.398 . S
C2738 H2726 0.950 . S
C2738 C2737 1.398 . S
C2738 C2739 1.391 . S
C2739 H2727 0.950 . S
C2739 C2735 1.393 . S
C2739 C2738 1.391 . S
H2740 C2748 0.950 . S
H2741 C2753 0.950 . S
H2742 C2750 0.950 . S
H2743 C2752 0.950 . S
H2744 C2754 0.950 . S
H2745 C2756 0.950 . S
H2746 C2758 0.950 . S
H2747 C2759 0.950 . S
C2748 H2740 0.950 . S
C2748 C2749 1.386 . S
C2748 C2750 1.391 . S
C2749 C2748 1.386 . S
C2749 C2753 1.393 . S
C2750 H2742 0.950 . S
C2750 C2748 1.391 . S
C2750 C2751 1.400 . S
C2751 C2750 1.400 . S
C2751 C2752 1.398 . S
C2751 C2757 1.491 . S
C2752 H2743 0.950 . S
C2752 C2751 1.398 . S
C2752 C2753 1.391 . S
C2753 H2741 0.950 . S
C2753 C2749 1.393 . S
C2753 C2752 1.391 . S
C2754 H2744 0.950 . S
C2754 C2755 1.386 . S
C2754 C2756 1.391 . S
C2755 C2754 1.386 . S
C2755 C2759 1.393 . S
C2756 H2745 0.950 . S
C2756 C2754 1.391 . S
C2756 C2757 1.400 . S
C2757 C2751 1.491 . S
C2757 C2756 1.400 . S
C2757 C2758 1.398 . S
C2758 H2746 0.950 . S
C2758 C2757 1.398 . S
C2758 C2759 1.391 . S
C2759 H2747 0.950 . S
C2759 C2755 1.393 . S
C2759 C2758 1.391 . S
H2760 C2768 0.950 . S
H2761 C2773 0.950 . S
H2762 C2770 0.950 . S
H2763 C2772 0.950 . S
H2764 C2774 0.950 . S
H2765 C2776 0.950 . S
H2766 C2778 0.950 . S
H2767 C2779 0.950 . S
C2768 H2760 0.950 . S
C2768 C2769 1.386 . S
C2768 C2770 1.391 . S
C2769 C2768 1.386 . S
C2769 C2773 1.393 . S
C2770 H2762 0.950 . S
C2770 C2768 1.391 . S
C2770 C2771 1.400 . S
C2771 C2770 1.400 . S
C2771 C2772 1.398 . S
C2771 C2777 1.491 . S
C2772 H2763 0.950 . S
C2772 C2771 1.398 . S
C2772 C2773 1.391 . S
C2773 H2761 0.950 . S
C2773 C2769 1.393 . S
C2773 C2772 1.391 . S
C2774 H2764 0.950 . S
C2774 C2775 1.386 . S
C2774 C2776 1.391 . S
C2775 C2774 1.386 . S
C2775 C2779 1.393 . S
C2776 H2765 0.950 . S
C2776 C2774 1.391 . S
C2776 C2777 1.400 . S
C2777 C2771 1.491 . S
C2777 C2776 1.400 . S
C2777 C2778 1.398 . S
C2778 H2766 0.950 . S
C2778 C2777 1.398 . S
C2778 C2779 1.391 . S
C2779 H2767 0.950 . S
C2779 C2775 1.393 . S
C2779 C2778 1.391 . S
H2780 C2788 0.950 . S
H2781 C2793 0.950 . S
H2782 C2790 0.950 . S
H2783 C2792 0.950 . S
H2784 C2794 0.950 . S
H2785 C2796 0.950 . S
H2786 C2798 0.950 . S
H2787 C2799 0.950 . S
C2788 H2780 0.950 . S
C2788 C2789 1.386 . S
C2788 C2790 1.391 . S
C2789 C2788 1.386 . S
C2789 C2793 1.393 . S
C2790 H2782 0.950 . S
C2790 C2788 1.391 . S
C2790 C2791 1.400 . S
C2791 C2790 1.400 . S
C2791 C2792 1.398 . S
C2791 C2797 1.491 . S
C2792 H2783 0.950 . S
C2792 C2791 1.398 . S
C2792 C2793 1.391 . S
C2793 H2781 0.950 . S
C2793 C2789 1.393 . S
C2793 C2792 1.391 . S
C2794 H2784 0.950 . S
C2794 C2795 1.386 . S
C2794 C2796 1.391 . S
C2795 C2794 1.386 . S
C2795 C2799 1.393 . S
C2796 H2785 0.950 . S
C2796 C2794 1.391 . S
C2796 C2797 1.400 . S
C2797 C2791 1.491 . S
C2797 C2796 1.400 . S
C2797 C2798 1.398 . S
C2798 H2786 0.950 . S
C2798 C2797 1.398 . S
C2798 C2799 1.391 . S
C2799 H2787 0.950 . S
C2799 C2795 1.393 . S
C2799 C2798 1.391 . S
H2800 C2808 0.950 . S
H2801 C2813 0.950 . S
H2802 C2810 0.950 . S
H2803 C2812 0.950 . S
H2804 C2814 0.950 . S
H2805 C2816 0.950 . S
H2806 C2818 0.950 . S
H2807 C2819 0.950 . S
C2808 H2800 0.950 . S
C2808 C2809 1.386 . S
C2808 C2810 1.391 . S
C2809 C2808 1.386 . S
C2809 C2813 1.393 . S
C2810 H2802 0.950 . S
C2810 C2808 1.391 . S
C2810 C2811 1.400 . S
C2811 C2810 1.400 . S
C2811 C2812 1.398 . S
C2811 C2817 1.491 . S
C2812 H2803 0.950 . S
C2812 C2811 1.398 . S
C2812 C2813 1.391 . S
C2813 H2801 0.950 . S
C2813 C2809 1.393 . S
C2813 C2812 1.391 . S
C2814 H2804 0.950 . S
C2814 C2815 1.386 . S
C2814 C2816 1.391 . S
C2815 C2814 1.386 . S
C2815 C2819 1.393 . S
C2816 H2805 0.950 . S
C2816 C2814 1.391 . S
C2816 C2817 1.400 . S
C2817 C2811 1.491 . S
C2817 C2816 1.400 . S
C2817 C2818 1.398 . S
C2818 H2806 0.950 . S
C2818 C2817 1.398 . S
C2818 C2819 1.391 . S
C2819 H2807 0.950 . S
C2819 C2815 1.393 . S
C2819 C2818 1.391 . S
H2820 C2828 0.950 . S
H2821 C2833 0.950 . S
H2822 C2830 0.950 . S
H2823 C2832 0.950 . S
H2824 C2834 0.950 . S
H2825 C2836 0.950 . S
H2826 C2838 0.950 . S
H2827 C2839 0.950 . S
C2828 H2820 0.950 . S
C2828 C2829 1.386 . S
C2828 C2830 1.391 . S
C2829 C2828 1.386 . S
C2829 C2833 1.393 . S
C2830 H2822 0.950 . S
C2830 C2828 1.391 . S
C2830 C2831 1.400 . S
C2831 C2830 1.400 . S
C2831 C2832 1.398 . S
C2831 C2837 1.491 . S
C2832 H2823 0.950 . S
C2832 C2831 1.398 . S
C2832 C2833 1.391 . S
C2833 H2821 0.950 . S
C2833 C2829 1.393 . S
C2833 C2832 1.391 . S
C2834 H2824 0.950 . S
C2834 C2835 1.386 . S
C2834 C2836 1.391 . S
C2835 C2834 1.386 . S
C2835 C2839 1.393 . S
C2836 H2825 0.950 . S
C2836 C2834 1.391 . S
C2836 C2837 1.400 . S
C2837 C2831 1.491 . S
C2837 C2836 1.400 . S
C2837 C2838 1.398 . S
C2838 H2826 0.950 . S
C2838 C2837 1.398 . S
C2838 C2839 1.391 . S
C2839 H2827 0.950 . S
C2839 C2835 1.393 . S
C2839 C2838 1.391 . S
H2840 C2848 0.950 . S
H2841 C2853 0.950 . S
H2842 C2850 0.950 . S
H2843 C2852 0.950 . S
H2844 C2854 0.950 . S
H2845 C2856 0.950 . S
H2846 C2858 0.950 . S
H2847 C2859 0.950 . S
C2848 H2840 0.950 . S
C2848 C2849 1.386 . S
C2848 C2850 1.391 . S
C2849 C2848 1.386 . S
C2849 C2853 1.393 . S
C2850 H2842 0.950 . S
C2850 C2848 1.391 . S
C2850 C2851 1.400 . S
C2851 C2850 1.400 . S
C2851 C2852 1.398 . S
C2851 C2857 1.491 . S
C2852 H2843 0.950 . S
C2852 C2851 1.398 . S
C2852 C2853 1.391 . S
C2853 H2841 0.950 . S
C2853 C2849 1.393 . S
C2853 C2852 1.391 . S
C2854 H2844 0.950 . S
C2854 C2855 1.386 . S
C2854 C2856 1.391 . S
C2855 C2854 1.386 . S
C2855 C2859 1.393 . S
C2856 H2845 0.950 . S
C2856 C2854 1.391 . S
C2856 C2857 1.400 . S
C2857 C2851 1.491 . S
C2857 C2856 1.400 . S
C2857 C2858 1.398 . S
C2858 H2846 0.950 . S
C2858 C2857 1.398 . S
C2858 C2859 1.391 . S
C2859 H2847 0.950 . S
C2859 C2855 1.393 . S
C2859 C2858 1.391 . S
H2860 C2868 0.950 . S
H2861 C2873 0.950 . S
H2862 C2870 0.950 . S
H2863 C2872 0.950 . S
H2864 C2874 0.950 . S
H2865 C2876 0.950 . S
H2866 C2878 0.950 . S
H2867 C2879 0.950 . S
C2868 H2860 0.950 . S
C2868 C2869 1.386 . S
C2868 C2870 1.391 . S
C2869 C2868 1.386 . S
C2869 C2873 1.393 . S
C2870 H2862 0.950 . S
C2870 C2868 1.391 . S
C2870 C2871 1.400 . S
C2871 C2870 1.400 . S
C2871 C2872 1.398 . S
C2871 C2877 1.491 . S
C2872 H2863 0.950 . S
C2872 C2871 1.398 . S
C2872 C2873 1.391 . S
C2873 H2861 0.950 . S
C2873 C2869 1.393 . S
C2873 C2872 1.391 . S
C2874 H2864 0.950 . S
C2874 C2875 1.386 . S
C2874 C2876 1.391 . S
C2875 C2874 1.386 . S
C2875 C2879 1.393 . S
C2876 H2865 0.950 . S
C2876 C2874 1.391 . S
C2876 C2877 1.400 . S
C2877 C2871 1.491 . S
C2877 C2876 1.400 . S
C2877 C2878 1.398 . S
C2878 H2866 0.950 . S
C2878 C2877 1.398 . S
C2878 C2879 1.391 . S
C2879 H2867 0.950 . S
C2879 C2875 1.393 . S
C2879 C2878 1.391 . S
H2880 C2888 0.950 . S
H2881 C2893 0.950 . S
H2882 C2890 0.950 . S
H2883 C2892 0.950 . S
H2884 C2894 0.950 . S
H2885 C2896 0.950 . S
H2886 C2898 0.950 . S
H2887 C2899 0.950 . S
C2888 H2880 0.950 . S
C2888 C2889 1.386 . S
C2888 C2890 1.391 . S
C2889 C2888 1.386 . S
C2889 C2893 1.393 . S
C2890 H2882 0.950 . S
C2890 C2888 1.391 . S
C2890 C2891 1.400 . S
C2891 C2890 1.400 . S
C2891 C2892 1.398 . S
C2891 C2897 1.491 1_545 S
C2892 H2883 0.950 . S
C2892 C2891 1.398 . S
C2892 C2893 1.391 . S
C2893 H2881 0.950 . S
C2893 C2889 1.393 . S
C2893 C2892 1.391 . S
C2894 H2884 0.950 . S
C2894 C2895 1.386 . S
C2894 C2896 1.391 . S
C2895 C2894 1.386 . S
C2895 C2899 1.393 . S
C2896 H2885 0.950 . S
C2896 C2894 1.391 . S
C2896 C2897 1.400 . S
C2897 C2891 1.491 1_565 S
C2897 C2896 1.400 . S
C2897 C2898 1.398 . S
C2898 H2886 0.950 . S
C2898 C2897 1.398 . S
C2898 C2899 1.391 . S
C2899 H2887 0.950 . S
C2899 C2895 1.393 . S
C2899 C2898 1.391 . S
H2900 C2908 0.950 . S
H2901 C2913 0.950 . S
H2902 C2910 0.950 . S
H2903 C2912 0.950 . S
H2904 C2914 0.950 . S
H2905 C2916 0.950 . S
H2906 C2918 0.950 . S
H2907 C2919 0.950 . S
C2908 H2900 0.950 . S
C2908 C2909 1.386 . S
C2908 C2910 1.391 . S
C2909 C2908 1.386 . S
C2909 C2913 1.393 . S
C2910 H2902 0.950 . S
C2910 C2908 1.391 . S
C2910 C2911 1.400 . S
C2911 C2910 1.400 . S
C2911 C2912 1.398 . S
C2911 C2917 1.491 . S
C2912 H2903 0.950 . S
C2912 C2911 1.398 . S
C2912 C2913 1.391 . S
C2913 H2901 0.950 . S
C2913 C2909 1.393 . S
C2913 C2912 1.391 . S
C2914 H2904 0.950 . S
C2914 C2915 1.386 . S
C2914 C2916 1.391 . S
C2915 C2914 1.386 . S
C2915 C2919 1.393 . S
C2916 H2905 0.950 . S
C2916 C2914 1.391 . S
C2916 C2917 1.400 . S
C2917 C2911 1.491 . S
C2917 C2916 1.400 . S
C2917 C2918 1.398 . S
C2918 H2906 0.950 . S
C2918 C2917 1.398 . S
C2918 C2919 1.391 . S
C2919 H2907 0.950 . S
C2919 C2915 1.393 . S
C2919 C2918 1.391 . S
H2920 C2928 0.950 . S
H2921 C2933 0.950 . S
H2922 C2930 0.950 . S
H2923 C2932 0.950 1_565 S
H2924 C2934 0.950 . S
H2925 C2936 0.950 . S
H2926 C2938 0.950 1_545 S
H2927 C2939 0.950 . S
C2928 H2920 0.950 . S
C2928 C2929 1.386 . S
C2928 C2930 1.391 . S
C2929 C2928 1.386 . S
C2929 C2933 1.393 . S
C2930 H2922 0.950 . S
C2930 C2928 1.391 . S
C2930 C2931 1.400 . S
C2931 C2930 1.400 . S
C2931 C2932 1.398 . S
C2931 C2937 1.491 1_545 S
C2932 H2923 0.950 1_545 S
C2932 C2931 1.398 . S
C2932 C2933 1.391 . S
C2933 H2921 0.950 . S
C2933 C2929 1.393 . S
C2933 C2932 1.391 . S
C2934 H2924 0.950 . S
C2934 C2935 1.386 . S
C2934 C2936 1.391 . S
C2935 C2934 1.386 . S
C2935 C2939 1.393 . S
C2936 H2925 0.950 . S
C2936 C2934 1.391 . S
C2936 C2937 1.400 . S
C2937 C2931 1.491 1_565 S
C2937 C2936 1.400 . S
C2937 C2938 1.398 . S
C2938 H2926 0.950 1_565 S
C2938 C2937 1.398 . S
C2938 C2939 1.391 . S
C2939 H2927 0.950 . S
C2939 C2935 1.393 . S
C2939 C2938 1.391 . S
H2940 C2948 0.950 1_565 S
H2941 C2953 0.950 . S
H2942 C2950 0.943 1_565 S
H2943 C2952 0.950 . S
H2944 C2954 0.950 . S
H2945 C2956 0.950 . S
H2946 C2958 0.950 . S
H2947 C2959 0.950 . S
C2948 H2940 0.950 1_545 S
C2948 C2949 1.386 . S
C2948 C2950 1.391 1_556 S
C2949 C2948 1.386 . S
C2949 C2953 1.393 . S
C2950 H2942 0.943 1_545 S
C2950 C2948 1.391 1_554 S
C2950 C2951 1.400 1_554 S
C2951 C2950 1.400 1_556 S
C2951 C2952 1.398 . S
C2951 C2957 1.491 1_556 S
C2952 H2943 0.950 . S
C2952 C2951 1.398 . S
C2952 C2953 1.391 . S
C2953 H2941 0.950 . S
C2953 C2949 1.393 . S
C2953 C2952 1.391 . S
C2954 H2944 0.950 . S
C2954 C2955 1.386 . S
C2954 C2956 1.391 1_554 S
C2955 C2954 1.386 . S
C2955 C2959 1.393 . S
C2956 H2945 0.950 . S
C2956 C2954 1.391 1_556 S
C2956 C2957 1.400 1_556 S
C2957 C2951 1.491 1_554 S
C2957 C2956 1.400 1_554 S
C2957 C2958 1.398 . S
C2958 H2946 0.950 . S
C2958 C2957 1.398 . S
C2958 C2959 1.391 . S
C2959 H2947 0.950 . S
C2959 C2955 1.393 . S
C2959 C2958 1.391 . S
H2960 C2968 0.950 . S
H2961 C2973 0.950 . S
H2962 C2970 0.950 . S
H2963 C2972 0.950 . S
H2964 C2974 0.950 . S
H2965 C2976 0.950 . S
H2966 C2978 0.950 . S
H2967 C2979 0.950 . S
C2968 H2960 0.950 . S
C2968 C2969 1.386 . S
C2968 C2970 1.391 . S
C2969 C2968 1.386 . S
C2969 C2973 1.393 . S
C2970 H2962 0.950 . S
C2970 C2968 1.391 . S
C2970 C2971 1.400 . S
C2971 C2970 1.400 . S
C2971 C2972 1.398 . S
C2971 C2977 1.491 1_565 S
C2972 H2963 0.950 . S
C2972 C2971 1.398 . S
C2972 C2973 1.391 . S
C2973 H2961 0.950 . S
C2973 C2969 1.393 . S
C2973 C2972 1.391 . S
C2974 H2964 0.950 . S
C2974 C2975 1.386 . S
C2974 C2976 1.391 . S
C2975 C2974 1.386 . S
C2975 C2979 1.393 . S
C2976 H2965 0.950 . S
C2976 C2974 1.391 . S
C2976 C2977 1.400 . S
C2977 C2971 1.491 1_545 S
C2977 C2976 1.400 . S
C2977 C2978 1.398 . S
C2978 H2966 0.950 . S
C2978 C2977 1.398 . S
C2978 C2979 1.391 . S
C2979 H2967 0.950 . S
C2979 C2975 1.393 . S
C2979 C2978 1.391 . S
H2980 C2988 0.950 . S
H2981 C2993 0.950 . S
H2982 C2990 0.950 . S
H2983 C2992 0.950 . S
H2984 C2994 0.950 . S
H2985 C2996 0.950 . S
H2986 C2998 0.950 . S
H2987 C2999 0.950 . S
C2988 H2980 0.950 . S
C2988 C2989 1.386 . S
C2988 C2990 1.391 . S
C2989 C2988 1.386 . S
C2989 C2993 1.393 . S
C2990 H2982 0.950 . S
C2990 C2988 1.391 . S
C2990 C2991 1.400 . S
C2991 C2990 1.400 . S
C2991 C2992 1.398 . S
C2991 C2997 1.491 . S
C2992 H2983 0.950 . S
C2992 C2991 1.398 . S
C2992 C2993 1.391 . S
C2993 H2981 0.950 . S
C2993 C2989 1.393 . S
C2993 C2992 1.391 . S
C2994 H2984 0.950 . S
C2994 C2995 1.386 . S
C2994 C2996 1.391 . S
C2995 C2994 1.386 . S
C2995 C2999 1.393 . S
C2996 H2985 0.950 . S
C2996 C2994 1.391 . S
C2996 C2997 1.400 . S
C2997 C2991 1.491 . S
C2997 C2996 1.400 . S
C2997 C2998 1.398 . S
C2998 H2986 0.950 . S
C2998 C2997 1.398 . S
C2998 C2999 1.391 . S
C2999 H2987 0.950 . S
C2999 C2995 1.393 . S
C2999 C2998 1.391 . S
H3000 C3008 0.950 . S
H3001 C3013 0.950 . S
H3002 C3010 0.950 . S
H3003 C3012 0.950 . S
H3004 C3014 0.950 . S
H3005 C3016 0.950 . S
H3006 C3018 0.950 . S
H3007 C3019 0.950 . S
C3008 H3000 0.950 . S
C3008 C3009 1.386 . S
C3008 C3010 1.391 . S
C3009 C3008 1.386 . S
C3009 C3013 1.393 . S
C3010 H3002 0.950 . S
C3010 C3008 1.391 . S
C3010 C3011 1.400 . S
C3011 C3010 1.400 . S
C3011 C3012 1.398 . S
C3011 C3017 1.491 1_565 S
C3012 H3003 0.950 . S
C3012 C3011 1.398 . S
C3012 C3013 1.391 . S
C3013 H3001 0.950 . S
C3013 C3009 1.393 . S
C3013 C3012 1.391 . S
C3014 H3004 0.950 . S
C3014 C3015 1.386 . S
C3014 C3016 1.391 . S
C3015 C3014 1.386 . S
C3015 C3019 1.393 . S
C3016 H3005 0.950 . S
C3016 C3014 1.391 . S
C3016 C3017 1.400 . S
C3017 C3011 1.491 1_545 S
C3017 C3016 1.400 . S
C3017 C3018 1.398 . S
C3018 H3006 0.950 . S
C3018 C3017 1.398 . S
C3018 C3019 1.391 . S
C3019 H3007 0.950 . S
C3019 C3015 1.393 . S
C3019 C3018 1.391 . S
H3020 C3028 0.956 . S
H3021 C3033 0.950 . S
H3022 C3030 0.964 1_556 S
H3023 C3032 0.950 . S
H3024 C3034 0.950 . S
H3025 C3036 0.950 1_554 S
H3026 C3038 0.950 . S
H3027 C3039 0.950 . S
C3028 H3020 0.956 . S
C3028 C3029 1.379 1_545 S
C3028 C3030 1.391 . S
C3029 C3028 1.379 1_565 S
C3029 C3033 1.393 . S
C3030 H3022 0.964 1_554 S
C3030 C3028 1.391 . S
C3030 C3031 1.386 1_545 S
C3031 C3030 1.386 1_565 S
C3031 C3032 1.398 . S
C3031 C3037 1.491 1_554 S
C3032 H3023 0.950 . S
C3032 C3031 1.398 . S
C3032 C3033 1.391 . S
C3033 H3021 0.950 . S
C3033 C3029 1.393 . S
C3033 C3032 1.391 . S
C3034 H3024 0.950 . S
C3034 C3035 1.386 . S
C3034 C3036 1.391 . S
C3035 C3034 1.386 . S
C3035 C3039 1.393 1_565 S
C3036 H3025 0.950 1_556 S
C3036 C3034 1.391 . S
C3036 C3037 1.400 . S
C3037 C3031 1.491 1_556 S
C3037 C3036 1.400 . S
C3037 C3038 1.398 1_565 S
C3038 H3026 0.950 . S
C3038 C3037 1.398 1_545 S
C3038 C3039 1.391 . S
C3039 H3027 0.950 . S
C3039 C3035 1.393 1_545 S
C3039 C3038 1.391 . S
H3040 C3048 0.950 . S
H3041 C3053 0.950 . S
H3042 C3050 0.950 . S
H3043 C3052 0.950 . S
H3044 C3054 0.950 . S
H3045 C3056 0.950 . S
H3046 C3058 0.950 . S
H3047 C3059 0.950 . S
C3048 H3040 0.950 . S
C3048 C3049 1.386 . S
C3048 C3050 1.391 . S
C3049 C3048 1.386 . S
C3049 C3053 1.393 . S
C3050 H3042 0.950 . S
C3050 C3048 1.391 . S
C3050 C3051 1.400 . S
C3051 C3050 1.400 . S
C3051 C3052 1.398 . S
C3051 C3057 1.491 . S
C3052 H3043 0.950 . S
C3052 C3051 1.398 . S
C3052 C3053 1.391 . S
C3053 H3041 0.950 . S
C3053 C3049 1.393 . S
C3053 C3052 1.391 . S
C3054 H3044 0.950 . S
C3054 C3055 1.386 . S
C3054 C3056 1.391 . S
C3055 C3054 1.386 . S
C3055 C3059 1.393 . S
C3056 H3045 0.950 . S
C3056 C3054 1.391 . S
C3056 C3057 1.400 . S
C3057 C3051 1.491 . S
C3057 C3056 1.400 . S
C3057 C3058 1.398 . S
C3058 H3046 0.950 . S
C3058 C3057 1.398 . S
C3058 C3059 1.391 . S
C3059 H3047 0.950 . S
C3059 C3055 1.393 . S
C3059 C3058 1.391 . S
H3060 C3068 0.950 . S
H3061 C3073 0.950 . S
H3062 C3070 0.936 1_554 S
H3063 C3072 0.950 . S
H3064 C3074 0.950 . S
H3065 C3076 0.936 1_556 S
H3066 C3078 0.950 . S
H3067 C3079 0.950 . S
C3068 H3060 0.950 . S
C3068 C3069 1.386 . S
C3068 C3070 1.400 . S
C3069 C3068 1.386 . S
C3069 C3073 1.393 . S
C3070 H3062 0.936 1_556 S
C3070 C3068 1.400 . S
C3070 C3071 1.405 . S
C3071 C3070 1.405 . S
C3071 C3072 1.398 . S
C3071 C3077 1.491 1_556 S
C3072 H3063 0.950 . S
C3072 C3071 1.398 . S
C3072 C3073 1.391 . S
C3073 H3061 0.950 . S
C3073 C3069 1.393 . S
C3073 C3072 1.391 . S
C3074 H3064 0.950 . S
C3074 C3075 1.386 . S
C3074 C3076 1.401 . S
C3075 C3074 1.386 . S
C3075 C3079 1.393 . S
C3076 H3065 0.936 1_554 S
C3076 C3074 1.401 . S
C3076 C3077 1.405 . S
C3077 C3071 1.491 1_554 S
C3077 C3076 1.405 . S
C3077 C3078 1.398 . S
C3078 H3066 0.950 . S
C3078 C3077 1.398 . S
C3078 C3079 1.391 . S
C3079 H3067 0.950 . S
C3079 C3075 1.393 . S
C3079 C3078 1.391 . S
H3080 C3088 0.950 . S
H3081 C3093 0.950 . S
H3082 C3090 0.950 . S
H3083 C3092 0.950 . S
H3084 C3094 0.950 . S
H3085 C3096 0.950 . S
H3086 C3098 0.950 . S
H3087 C3099 0.950 . S
C3088 H3080 0.950 . S
C3088 C3089 1.386 . S
C3088 C3090 1.391 . S
C3089 C3088 1.386 . S
C3089 C3093 1.393 . S
C3090 H3082 0.950 . S
C3090 C3088 1.391 . S
C3090 C3091 1.400 . S
C3091 C3090 1.400 . S
C3091 C3092 1.398 . S
C3091 C3097 1.491 . S
C3092 H3083 0.950 . S
C3092 C3091 1.398 . S
C3092 C3093 1.391 . S
C3093 H3081 0.950 . S
C3093 C3089 1.393 . S
C3093 C3092 1.391 . S
C3094 H3084 0.950 . S
C3094 C3095 1.386 . S
C3094 C3096 1.391 . S
C3095 C3094 1.386 . S
C3095 C3099 1.393 . S
C3096 H3085 0.950 . S
C3096 C3094 1.391 . S
C3096 C3097 1.400 . S
C3097 C3091 1.491 . S
C3097 C3096 1.400 . S
C3097 C3098 1.398 . S
C3098 H3086 0.950 . S
C3098 C3097 1.398 . S
C3098 C3099 1.391 . S
C3099 H3087 0.950 . S
C3099 C3095 1.393 . S
C3099 C3098 1.391 . S
H3100 C3108 0.950 . S
H3101 C3113 0.950 . S
H3102 C3110 0.950 . S
H3103 C3112 0.950 . S
H3104 C3114 0.950 . S
H3105 C3116 0.950 . S
H3106 C3118 0.950 . S
H3107 C3119 0.950 . S
C3108 H3100 0.950 . S
C3108 C3109 1.386 . S
C3108 C3110 1.391 . S
C3109 C3108 1.386 . S
C3109 C3113 1.393 . S
C3110 H3102 0.950 . S
C3110 C3108 1.391 . S
C3110 C3111 1.400 . S
C3111 C3110 1.400 . S
C3111 C3112 1.398 . S
C3111 C3117 1.491 . S
C3112 H3103 0.950 . S
C3112 C3111 1.398 . S
C3112 C3113 1.391 . S
C3113 H3101 0.950 . S
C3113 C3109 1.393 . S
C3113 C3112 1.391 . S
C3114 H3104 0.950 . S
C3114 C3115 1.386 . S
C3114 C3116 1.391 . S
C3115 C3114 1.386 . S
C3115 C3119 1.393 . S
C3116 H3105 0.950 . S
C3116 C3114 1.391 . S
C3116 C3117 1.400 . S
C3117 C3111 1.491 . S
C3117 C3116 1.400 . S
C3117 C3118 1.398 . S
C3118 H3106 0.950 . S
C3118 C3117 1.398 . S
C3118 C3119 1.391 . S
C3119 H3107 0.950 . S
C3119 C3115 1.393 . S
C3119 C3118 1.391 . S
H3120 C3128 0.950 . S
H3121 C3133 0.950 . S
H3122 C3130 0.950 . S
H3123 C3132 0.950 . S
H3124 C3134 0.950 . S
H3125 C3136 0.950 . S
H3126 C3138 0.950 . S
H3127 C3139 0.950 . S
C3128 H3120 0.950 . S
C3128 C3129 1.386 . S
C3128 C3130 1.391 . S
C3129 C3128 1.386 . S
C3129 C3133 1.393 . S
C3130 H3122 0.950 . S
C3130 C3128 1.391 . S
C3130 C3131 1.400 . S
C3131 C3130 1.400 . S
C3131 C3132 1.398 . S
C3131 C3137 1.491 . S
C3132 H3123 0.950 . S
C3132 C3131 1.398 . S
C3132 C3133 1.391 . S
C3133 H3121 0.950 . S
C3133 C3129 1.393 . S
C3133 C3132 1.391 . S
C3134 H3124 0.950 . S
C3134 C3135 1.386 . S
C3134 C3136 1.391 . S
C3135 C3134 1.386 . S
C3135 C3139 1.393 . S
C3136 H3125 0.950 . S
C3136 C3134 1.391 . S
C3136 C3137 1.400 . S
C3137 C3131 1.491 . S
C3137 C3136 1.400 . S
C3137 C3138 1.398 . S
C3138 H3126 0.950 . S
C3138 C3137 1.398 . S
C3138 C3139 1.391 . S
C3139 H3127 0.950 . S
C3139 C3135 1.393 . S
C3139 C3138 1.391 . S
H3140 C3148 0.950 . S
H3141 C3153 0.950 . S
H3142 C3150 0.950 . S
H3143 C3152 0.940 1_554 S
H3144 C3154 0.950 . S
H3145 C3156 0.950 . S
H3146 C3158 0.940 1_556 S
H3147 C3159 0.950 . S
C3148 H3140 0.950 . S
C3148 C3149 1.386 . S
C3148 C3150 1.391 . S
C3149 C3148 1.386 . S
C3149 C3153 1.393 . S
C3150 H3142 0.950 . S
C3150 C3148 1.391 . S
C3150 C3151 1.400 . S
C3151 C3150 1.400 . S
C3151 C3152 1.398 . S
C3151 C3157 1.491 1_556 S
C3152 H3143 0.940 1_556 S
C3152 C3151 1.398 . S
C3152 C3153 1.391 . S
C3153 H3141 0.950 . S
C3153 C3149 1.393 . S
C3153 C3152 1.391 . S
C3154 H3144 0.950 . S
C3154 C3155 1.386 . S
C3154 C3156 1.391 . S
C3155 C3154 1.386 . S
C3155 C3159 1.393 . S
C3156 H3145 0.950 . S
C3156 C3154 1.391 . S
C3156 C3157 1.400 . S
C3157 C3151 1.491 1_554 S
C3157 C3156 1.400 . S
C3157 C3158 1.398 . S
C3158 H3146 0.940 1_554 S
C3158 C3157 1.398 . S
C3158 C3159 1.391 . S
C3159 H3147 0.950 . S
C3159 C3155 1.393 . S
C3159 C3158 1.391 . S
H3160 C3168 0.950 . S
H3161 C3173 0.950 . S
H3162 C3170 0.950 . S
H3163 C3172 0.950 . S
H3164 C3174 0.950 . S
H3165 C3176 0.950 . S
H3166 C3178 0.950 . S
H3167 C3179 0.950 . S
C3168 H3160 0.950 . S
C3168 C3169 1.386 . S
C3168 C3170 1.391 . S
C3169 C3168 1.386 . S
C3169 C3173 1.393 . S
C3170 H3162 0.950 . S
C3170 C3168 1.391 . S
C3170 C3171 1.400 . S
C3171 C3170 1.400 . S
C3171 C3172 1.398 . S
C3171 C3177 1.491 . S
C3172 H3163 0.950 . S
C3172 C3171 1.398 . S
C3172 C3173 1.391 . S
C3173 H3161 0.950 . S
C3173 C3169 1.393 . S
C3173 C3172 1.391 . S
C3174 H3164 0.950 . S
C3174 C3175 1.386 . S
C3174 C3176 1.391 . S
C3175 C3174 1.386 . S
C3175 C3179 1.393 . S
C3176 H3165 0.950 . S
C3176 C3174 1.391 . S
C3176 C3177 1.400 . S
C3177 C3171 1.491 . S
C3177 C3176 1.400 . S
C3177 C3178 1.398 . S
C3178 H3166 0.950 . S
C3178 C3177 1.398 . S
C3178 C3179 1.391 . S
C3179 H3167 0.950 . S
C3179 C3175 1.393 . S
C3179 C3178 1.391 . S
H3180 C3188 0.950 . S
H3181 C3193 0.950 . S
H3182 C3190 0.950 . S
H3183 C3192 0.950 . S
H3184 C3194 0.950 . S
H3185 C3196 0.950 . S
H3186 C3198 0.950 . S
H3187 C3199 0.950 . S
C3188 H3180 0.950 . S
C3188 C3189 1.386 . S
C3188 C3190 1.391 . S
C3189 C3188 1.386 . S
C3189 C3193 1.393 . S
C3190 H3182 0.950 . S
C3190 C3188 1.391 . S
C3190 C3191 1.400 . S
C3191 C3190 1.400 . S
C3191 C3192 1.398 . S
C3191 C3197 1.491 . S
C3192 H3183 0.950 . S
C3192 C3191 1.398 . S
C3192 C3193 1.391 . S
C3193 H3181 0.950 . S
C3193 C3189 1.393 . S
C3193 C3192 1.391 . S
C3194 H3184 0.950 . S
C3194 C3195 1.386 . S
C3194 C3196 1.391 . S
C3195 C3194 1.386 . S
C3195 C3199 1.393 . S
C3196 H3185 0.950 . S
C3196 C3194 1.391 . S
C3196 C3197 1.400 . S
C3197 C3191 1.491 . S
C3197 C3196 1.400 . S
C3197 C3198 1.398 . S
C3198 H3186 0.950 . S
C3198 C3197 1.398 . S
C3198 C3199 1.391 . S
C3199 H3187 0.950 . S
C3199 C3195 1.393 . S
C3199 C3198 1.391 . S
C1289 C6 0.447 . S
C1295 C1099 0.499 . S
C1309 C46 0.459 . S
C1315 C339 0.511 . S
C1329 C86 0.507 . S
C1335 C1019 0.561 . S
C1349 C419 0.561 . S
C1355 C126 0.507 . S
C1369 C166 0.504 . S
C1375 C1179 0.558 . S
C1389 C579 0.590 . S
C1395 C206 0.531 . S
C1409 C1259 0.591 . S
C1415 C246 0.533 . S
C1429 C286 0.447 . S
C1435 C499 0.500 . S
C1449 C335 0.444 . S
C1455 C770 0.499 . S
C1469 C375 0.502 . S
C1475 C10 0.562 . S
C1489 C690 0.579 . S
C1495 C415 0.519 . S
C1509 C90 0.529 . S
C1515 C455 0.471 . S
C1529 C495 0.514 . S
C1535 C850 0.574 . S
C1549 C535 0.455 . S
C1555 C250 0.512 . S
C1569 C575 0.478 . S
C1575 C930 0.530 . S
C1589 C170 0.533 . S
C1595 C615 0.481 . S
C1609 C459 0.586 . S
C1615 C646 0.526 . S
C1629 C979 0.515 . S
C1635 C686 0.458 . S
C1649 C379 0.496 . S
C1655 C726 0.442 . S
C1669 C766 0.478 . S
C1675 C1059 0.537 . S
C1689 C539 0.588 . S
C1695 C806 0.531 . S
C1709 C1219 0.587 . S
C1715 C846 0.527 . S
C1729 C619 0.559 . S
C1735 C886 0.499 . S
C1749 C926 0.502 . S
C1755 C1139 0.562 . S
C1769 C975 0.476 . S
C1775 C130 0.535 . S
C1789 C1015 0.477 . S
C1795 C650 0.537 . S
C1809 C1055 0.499 . S
C1815 C50 0.552 . S
C1829 C1095 0.526 . S
C1835 C730 0.582 . S
C1849 C210 0.498 . S
C1855 C1135 0.443 . S
C1869 C890 0.496 . S
C1875 C1175 0.443 . S
C1889 C1215 0.443 . S
C1895 C290 0.498 . S
C1909 C1255 0.526 . S
C1915 C810 0.585 . S
C1929 C18 2.623 . S
C1935 C738 2.623 . S
C1949 C778 2.625 . S
C1955 C58 2.627 . S
C1969 C98 2.623 . S
C1975 C658 2.622 . S
C1989 C138 2.628 . S
C1995 C698 2.630 . S
C2009 C898 2.636 . S
C2015 C178 2.639 . S
C2029 C218 2.623 . S
C2035 C938 2.623 . S
C2049 C818 2.627 . S
C2055 C258 2.625 . S
C2069 C298 2.624 . S
C2075 C858 2.623 . S
C2089 C1049 2.642 . S
C2095 C329 2.642 . S
C2109 C369 2.640 . S
C2115 C1089 2.638 . S
C2129 C409 2.638 . S
C2135 C969 2.636 . S
C2149 C449 2.640 . S
C2155 C1009 2.638 . S
C2169 C1209 2.641 . S
C2175 C489 2.642 . S
C2189 C1249 2.641 . S
C2195 C529 2.639 . S
C2209 C569 2.623 . S
C2215 C1129 2.622 . S
C2229 C609 2.639 . S
C2235 C1169 2.637 . S
C2249 C19 3.267 . S
C2255 C970 3.267 . S
C2269 C370 3.269 . S
C2275 C59 3.269 . S
C2289 C99 3.266 . S
C2295 C1050 3.266 . S
C2309 C139 3.266 . S
C2315 C450 3.266 . S
C2329 C1130 3.270 . S
C2335 C179 3.270 . S
C2349 C530 3.278 . S
C2355 C219 3.278 . S
C2369 C259 3.267 . S
C2375 C1210 3.267 . S
C2389 C299 3.275 . S
C2395 C610 3.275 . S
C2409 C659 3.272 . S
C2415 C330 3.272 . S
C2429 C739 3.278 . S
C2435 C410 3.278 . S
C2449 C819 3.265 . S
C2455 C490 3.265 . S
C2469 C570 3.266 . S
C2475 C899 3.266 . S
C2489 C699 3.269 . S
C2495 C1010 3.269 . S
C2509 C779 3.277 . S
C2515 C1090 3.277 . S
C2529 C1170 3.278 . S
C2535 C859 3.278 . S
C2549 C1250 3.267 . S
C2555 C939 3.267 . S
C2569 C9 4.567 . S
C2575 C209 4.567 . S
C2589 C249 4.569 . S
C2595 C49 4.570 . S
C2609 C289 4.566 . S
C2615 C89 4.566 . S
C2629 C169 4.576 . S
C2635 C129 4.577 . S
C2649 C338 4.574 . S
C2655 C538 4.573 . S
C2669 C378 4.569 . S
C2675 C578 4.570 . S
C2689 C618 4.573 . S
C2695 C418 4.572 . S
C2709 C458 4.567 . S
C2715 C498 4.566 . S
C2729 C649 4.577 . S
C2735 C849 4.577 . S
C2749 C689 4.573 . S
C2755 C889 4.574 . S
C2769 C729 4.566 . S
C2775 C929 4.567 . S
C2789 C809 4.577 . S
C2795 C769 4.577 . S
C2809 C978 4.576 . S
C2815 C1178 4.577 . S
C2829 C1018 4.566 . S
C2835 C1218 4.567 . S
C2849 C1258 4.577 . S
C2855 C1058 4.577 . S
C2869 C1098 4.569 . S
C2875 C1138 4.568 . S
C2889 C15 0.711 . S
C2895 C175 0.696 . S
C2909 C55 0.687 . S
C2915 C215 0.670 . S
C2929 C255 0.702 . S
C2935 C95 0.682 . S
C2949 C295 0.685 . S
C2955 C135 0.669 . S
C2969 C326 0.712 . S
C2975 C486 0.709 . S
C2989 C526 0.710 . S
C2995 C366 0.694 . S
C3009 C566 0.668 . S
C3015 C406 0.677 . S
C3029 C606 0.702 . S
C3035 C446 0.713 . S
C3049 C655 0.687 . S
C3055 C815 0.706 . S
C3069 C855 0.680 . S
C3075 C695 0.667 . S
C3089 C735 0.677 . S
C3095 C895 0.667 . S
C3109 C935 0.683 . S
C3115 C775 0.668 . S
C3129 C1126 0.702 . S
C3135 C966 0.682 . S
C3149 C1006 0.676 . S
C3155 C1166 0.667 . S
C3169 C1046 0.713 . S
C3175 C1206 0.702 . S
C3189 C1086 0.710 . S
C3195 C1246 0.694 . S
