# Generated by pormake.
# Topology rkf, (6)-cn, num edge types: 1
# Building blocks:
#     Node 0, Type 0, BuildingBlock: INOVEN_clean_sbu_0, # of connection points: 6
#     Node 1, Type 0, BuildingBlock: INOVEN_clean_sbu_0, # of connection points: 6
#     Node 2, Type 0, BuildingBlock: INOVEN_clean_sbu_0, # of connection points: 6
#     Node 3, Type 0, BuildingBlock: INOVEN_clean_sbu_0, # of connection points: 6
#     Node 4, Type 0, BuildingBlock: INOVEN_clean_sbu_0, # of connection points: 6
#     Node 5, Type 0, BuildingBlock: INOVEN_clean_sbu_0, # of connection points: 6
#     Edge 6, Type (0, 0), BuildingBlock: KIFKEQ_clean_linker_1, # of connection points: 2
#     Edge 7, Type (0, 0), BuildingBlock: KIFKEQ_clean_linker_1, # of connection points: 2
#     Edge 8, Type (0, 0), BuildingBlock: KIFKEQ_clean_linker_1, # of connection points: 2
#     Edge 9, Type (0, 0), BuildingBlock: KIFKEQ_clean_linker_1, # of connection points: 2
#     Edge 10, Type (0, 0), BuildingBlock: KIFKEQ_clean_linker_1, # of connection points: 2
#     Edge 11, Type (0, 0), BuildingBlock: KIFKEQ_clean_linker_1, # of connection points: 2
#     Edge 12, Type (0, 0), BuildingBlock: KIFKEQ_clean_linker_1, # of connection points: 2
#     Edge 13, Type (0, 0), BuildingBlock: KIFKEQ_clean_linker_1, # of connection points: 2
#     Edge 14, Type (0, 0), BuildingBlock: KIFKEQ_clean_linker_1, # of connection points: 2
#     Edge 15, Type (0, 0), BuildingBlock: KIFKEQ_clean_linker_1, # of connection points: 2
#     Edge 16, Type (0, 0), BuildingBlock: KIFKEQ_clean_linker_1, # of connection points: 2
#     Edge 17, Type (0, 0), BuildingBlock: KIFKEQ_clean_linker_1, # of connection points: 2
#     Edge 18, Type (0, 0), BuildingBlock: KIFKEQ_clean_linker_1, # of connection points: 2
#     Edge 19, Type (0, 0), BuildingBlock: KIFKEQ_clean_linker_1, # of connection points: 2
#     Edge 20, Type (0, 0), BuildingBlock: KIFKEQ_clean_linker_1, # of connection points: 2
#     Edge 21, Type (0, 0), BuildingBlock: KIFKEQ_clean_linker_1, # of connection points: 2
#     Edge 22, Type (0, 0), BuildingBlock: KIFKEQ_clean_linker_1, # of connection points: 2
#     Edge 23, Type (0, 0), BuildingBlock: KIFKEQ_clean_linker_1, # of connection points: 2
# Relax obj value: 0.670
# Max RMSD: 0.253
# Mean RMSD: 0.253
data_MOF--net-rkf--node1-INOVEN_clean_sbu_0--edge1-KIFKEQ_clean_linker_1
_symmetry_space_group_name_H-M    P1
_symmetry_Int_Tables_number       1
_symmetry_cell_setting            triclinic
loop_
_symmetry_equiv_pos_as_xyz
'x, y, z'
_cell_length_a     26.154375
_cell_length_b     26.239302
_cell_length_c     44.00338
_cell_angle_alpha  90.349561
_cell_angle_beta   89.683617
_cell_angle_gamma 120.41209
loop_
_atom_site_label
_atom_site_type_symbol
_atom_site_fract_x
_atom_site_fract_y
_atom_site_fract_z
_atom_type_partial_charge
Gd0 Gd 0.31036 0.03781 0.18162 0.0
Gd1 Gd 0.30313 0.14408 1.1659 0.0
C2 C 0.29777 0.11561 0.23577 0.0
C3 C 0.33837 0.95788 0.19086 0.0
C4 C 0.32224 0.91345 0.21478 0.0
C5 C 0.31335 0.92607 0.24469 0.0
C6 C 0.30736 0.85562 0.20698 0.0
C7 C 0.2697 0.82235 0.2581 0.0
C8 C 0.28116 0.8103 0.22846 0.0
C9 C 0.2876 0.88106 0.26614 0.0
C10 C 0.1995 0.01791 0.18584 0.0
C11 C 0.28261 0.05268 1.1108 0.0
C12 C 0.30092 0.23683 1.15003 0.0
C13 C 0.29286 0.27864 1.13197 0.0
C14 C 0.31519 0.33571 1.14372 0.0
C15 C 0.27316 0.26633 1.10189 0.0
C16 C 0.30343 0.37003 1.09459 0.0
C17 C 0.27776 0.31164 1.0834 0.0
C18 C 0.32074 0.38112 1.12521 0.0
C19 C 0.41163 0.16312 0.18049 0.0
O20 O 0.32296 0.08417 0.22798 0.0
O21 O 0.27481 0.13349 0.21467 0.0
O22 O 0.29413 0.94947 0.1737 0.0
O23 O 0.37259 0.01339 0.19879 0.0
O24 O 0.2213 -0.00401 0.20464 0.0
O25 O 0.23723 0.04878 1.16602 0.0
O26 O 0.28026 0.09998 1.11942 0.0
O27 O 0.29755 0.02403 1.13033 0.0
O28 O 0.34265 0.22612 1.14165 0.0
O29 O 0.2566 0.1936 1.16484 0.0
O30 O 0.38925 0.19265 0.19215 0.0
O31 O 0.37516 0.12365 1.16312 0.0
H32 H 0.3234 0.97012 0.25111 0.0
H33 H 0.31334 0.84499 0.18388 0.0
H34 H 0.26795 0.76558 0.22162 0.0
H35 H 0.27828 0.8918 0.28853 0.0
H36 H 0.33156 0.34597 0.16684 0.0
H37 H 0.2564 0.22248 1.09246 0.0
H38 H 0.26257 0.30115 1.06013 0.0
H39 H 0.34132 0.42538 1.13458 0.0
Gd40 Gd 0.35707 0.32941 0.51465 0.0
Gd41 Gd 0.24132 0.32653 0.49746 0.0
C42 C 0.26601 0.3265 0.56848 0.0
C43 C 0.46445 0.36685 0.53227 0.0
C44 C 0.49199 0.35935 0.55945 0.0
C45 C 0.46294 0.34763 0.58759 0.0
C46 C 0.54345 0.35574 0.55648 0.0
C47 C 0.53193 0.32074 0.60847 0.0
C48 C 0.56336 0.33655 0.58084 0.0
C49 C 0.48291 0.32875 0.61195 0.0
C50 C 0.26288 0.22079 0.51138 0.0
C51 C 0.30812 0.29073 0.44621 0.0
C52 C 0.14295 0.31727 0.48002 0.0
C53 C 0.12764 0.35923 0.46654 0.0
C54 C 0.09761 0.3811 0.48399 0.0
C55 C 0.14451 0.37944 0.4367 0.0
C56 C 0.10125 0.44238 0.44181 0.0
C57 C 0.13133 0.42028 0.42449 0.0
C58 C 0.08464 0.42239 0.47178 0.0
C59 C 0.34251 0.43314 0.49638 0.0
O60 O 0.32183 0.34214 0.56125 0.0
O61 O 0.22505 0.30804 0.54716 0.0
O62 O 0.43353 0.31858 0.51628 0.0
O63 O 0.43801 0.39772 0.53549 0.0
O64 O 0.31686 0.23116 0.50884 0.0
O65 O 0.26347 0.26645 0.52075 0.0
O66 O 0.25721 0.28441 0.45612 0.0
O67 O 0.35694 0.31763 0.46316 0.0
O68 O 0.16158 0.32855 0.50808 0.0
O69 O 0.17321 0.30037 0.46316 0.0
O70 O 0.29259 0.42647 0.50565 0.0
O71 O 0.33518 0.38482 0.48757 0.0
H72 H 0.42277 0.3496 0.59026 0.0
H73 H 0.56623 0.3645 0.53481 0.0
H74 H 0.60138 0.33106 0.57758 0.0
H75 H 0.45702 0.31602 0.63272 0.0
H76 H 0.08418 0.36627 0.50713 0.0
H77 H 0.16758 0.36351 0.42258 0.0
H78 H 0.14316 0.43297 0.40098 0.0
H79 H 0.06131 0.43827 0.48571 0.0
Gd80 Gd 0.08966 0.37221 0.84562 0.0
Gd81 Gd -0.00782 0.24939 0.83115 0.0
C82 C 0.01208 0.28244 0.90072 0.0
C83 C 0.15378 0.48517 0.85274 0.0
C84 C 0.18416 0.52207 0.87936 0.0
C85 C 0.15647 0.50719 0.9079 0.0
C86 C 0.24393 0.56656 0.87725 0.0
C87 C 0.25069 0.57285 0.93244 0.0
C88 C 0.27701 0.592 0.90363 0.0
C89 C 0.18928 0.53242 0.93413 0.0
C90 C 0.12004 0.29091 0.85729 0.0
C91 C 0.08964 0.32048 0.77786 0.0
C92 C 0.90881 0.14711 0.81487 0.0
C93 C 0.86088 0.08852 0.80527 0.0
C94 C 0.83544 0.04139 0.826 0.0
C95 C 0.8338 0.08228 0.77706 0.0
C96 C 0.75317 -0.01493 0.79148 0.0
C97 C 0.78073 0.03108 0.77019 0.0
C98 C 0.78192 -0.01016 0.81911 0.0
C99 C -0.03846 0.33324 0.83761 0.0
O100 O 0.04058 0.33876 0.89166 0.0
O101 O -0.00078 0.23968 0.88099 0.0
O102 O 0.17525 0.45251 0.84296 0.0
O103 O 0.09565 0.4565 0.85358 0.0
O104 O 0.13769 0.33822 0.87369 0.0
O105 O 0.08904 0.29024 0.83535 0.0
O106 O 0.04548 0.26887 0.78745 0.0
O107 O 0.11175 0.36813 0.79561 0.0
O108 O 0.91958 0.19548 0.80083 0.0
O109 O 0.94642 0.15401 0.83638 0.0
O110 O 0.93448 0.28333 0.85156 0.0
O111 O 0.00446 0.33716 0.8231 0.0
H112 H 0.11042 0.47281 0.91022 0.0
H113 H 0.26597 0.57875 0.85535 0.0
H114 H 0.32395 0.62361 0.90149 0.0
H115 H 0.16724 0.51564 0.95573 0.0
H116 H 0.85523 0.04555 0.84811 0.0
H117 H 0.85249 0.11788 0.76066 0.0
H118 H 0.76079 0.02788 0.74822 0.0
H119 H 0.76202 0.95483 0.83579 0.0
Gd120 Gd 0.88783 0.16908 0.1874 0.0
Gd121 Gd 0.78343 0.04964 0.17265 0.0
C122 C 0.8341 0.0681 0.24016 0.0
C123 C -0.04511 0.27701 0.20518 0.0
C124 C -0.04576 0.31651 0.22869 0.0
C125 C 0.93599 0.29687 0.25844 0.0
C126 C -0.03066 0.37415 0.22068 0.0
C127 C 0.95119 0.39363 0.2725 0.0
C128 C -0.03229 0.4124 0.24236 0.0
C129 C 0.93485 0.33518 0.28018 0.0
C130 C 0.91586 0.09194 1.16309 0.0
C131 C 0.8561 0.14129 1.11718 0.0
C132 C 0.69819 0.9459 1.15722 0.0
C133 C 0.67967 0.89751 1.13541 0.0
C134 C 0.63978 0.83976 1.14503 0.0
C135 C 0.70261 0.90746 1.10584 0.0
C136 C 0.64683 0.80156 1.09586 0.0
C137 C 0.68611 0.85977 1.08615 0.0
C138 C 0.62357 0.79201 1.12543 0.0
C139 C 0.75741 0.12718 0.19979 0.0
O140 O 0.8598 0.12584 0.23469 0.0
O141 O 0.8086 0.02951 0.21785 0.0
O142 O -0.03701 0.2338 0.21373 0.0
O143 O 0.91371 0.26099 0.18462 0.0
O144 O 0.94839 0.14865 1.15931 0.0
O145 O 0.8758 0.08067 0.18196 0.0
O146 O 0.82301 0.08469 1.1251 0.0
O147 O 0.87865 0.18319 1.13804 0.0
O148 O 0.70232 -0.005 1.14761 0.0
O149 O 0.74111 0.95466 0.17549 0.0
O150 O 0.73209 0.07174 0.2062 0.0
O151 O 0.79417 0.13833 0.17881 0.0
H152 H 0.92327 0.25224 0.26499 0.0
H153 H -0.01744 0.38963 0.19761 0.0
H154 H -0.0199 0.45681 0.2356 0.0
H155 H 0.92322 0.31943 0.3033 0.0
H156 H 0.62192 0.83153 0.16792 0.0
H157 H 0.73398 0.95179 1.09822 0.0
H158 H 0.70572 0.86829 1.06366 0.0
H159 H 0.59335 0.74768 1.13345 0.0
Gd160 Gd 0.804 0.88291 0.52047 0.0
Gd161 Gd 0.87729 0.82887 0.49583 0.0
C162 C 0.88229 0.852 0.56739 0.0
C163 C 0.72021 0.89082 0.5469 0.0
C164 C 0.68849 0.86695 0.57567 0.0
C165 C 0.7193 0.86608 0.60139 0.0
C166 C 0.62649 0.84016 0.5769 0.0
C167 C 0.62672 0.81285 0.62964 0.0
C168 C 0.59576 0.81348 0.60376 0.0
C169 C 0.68888 0.83962 0.62805 0.0
C170 C 0.914 0.95964 0.50277 0.0
C171 C 0.82563 0.88925 0.44799 0.0
C172 C 0.94854 0.79946 0.47108 0.0
C173 C 0.9515 0.7592 0.4485 0.0
C174 C -0.04039 0.7129 0.45832 0.0
C175 C -0.04614 0.77082 0.41729 0.0
C176 C -0.01932 0.69609 0.4065 0.0
C177 C -0.03172 0.73965 0.39655 0.0
C178 C -0.02629 0.68138 0.43751 0.0
C179 C 0.76235 0.75214 0.50871 0.0
O180 O 0.83299 0.85449 0.56371 0.0
O181 O 0.91351 0.85297 0.5434 0.0
O182 O 0.77625 0.93242 0.54877 0.0
O183 O 0.71054 0.85067 0.52638 0.0
O184 O 0.87133 -0.02845 0.50167 0.0
O185 O 0.89767 0.91224 0.51675 0.0
O186 O 0.85986 0.86583 0.45253 0.0
O187 O 0.79484 0.89528 0.47042 0.0
O188 O 0.91912 0.77579 0.49614 0.0
O189 O 0.94191 0.84271 0.46113 0.0
O190 O 0.80371 0.73947 0.512 0.0
O191 O 0.78313 0.8016 0.49658 0.0
H192 H 0.76705 0.88593 0.60097 0.0
H193 H 0.6019 0.83957 0.55704 0.0
H194 H 0.548 0.7935 0.60428 0.0
H195 H 0.7146 0.84177 0.64773 0.0
H196 H -0.04192 0.70303 0.48229 0.0
H197 H 0.94795 0.80626 0.40896 0.0
H198 H -0.02594 0.75307 0.37297 0.0
H199 H -0.01785 0.64763 0.44591 0.0
Gd200 Gd 0.01159 0.82307 0.85007 0.0
Gd201 Gd 0.13478 0.85267 0.83174 0.0
C202 C 0.11479 0.8731 0.90195 0.0
C203 C 0.90324 0.76925 0.86892 0.0
C204 C 0.86589 0.73482 0.89454 0.0
C205 C 0.88132 0.7541 0.92461 0.0
C206 C 0.81223 0.68272 0.88849 0.0
C207 C 0.78624 0.67307 0.94205 0.0
C208 C 0.77276 0.65191 0.91205 0.0
C209 C 0.84174 0.7236 0.94816 0.0
C210 C 0.0821 0.93474 0.83081 0.0
C211 C 0.03843 0.83464 0.77885 0.0
C212 C 0.24061 0.88553 0.81242 0.0
C213 C 0.28465 0.92359 0.78999 0.0
C214 C 0.34463 0.94389 0.79563 0.0
C215 C 0.26824 0.94245 0.76403 0.0
C216 C 0.37218 0.00338 0.74994 0.0
C217 C 0.31177 -0.01807 0.74405 0.0
C218 C 0.38819 -0.01635 0.77579 0.0
C219 C 0.06376 0.7424 0.85374 0.0
O220 O 0.05697 0.83874 0.89666 0.0
O221 O 0.15344 0.8903 0.87929 0.0
O222 O 0.93981 0.82597 0.87311 0.0
O223 O 0.92583 0.74358 0.85264 0.0
O224 O 0.02505 0.90563 0.8267 0.0
O225 O 0.09716 0.90555 0.84695 0.0
O226 O 0.09568 0.86032 0.78613 0.0
O227 O -0.00296 0.80935 0.7999 0.0
O228 O 0.19311 0.83846 0.80228 0.0
O229 O 0.22927 0.91295 0.83393 0.0
O230 O 0.11948 0.77442 0.8599 0.0
O231 O 0.04937 0.76929 0.8354 0.0
H232 H 0.92284 0.7939 0.92983 0.0
H233 H 0.79996 0.6669 0.86536 0.0
H234 H 0.73077 0.61289 0.90662 0.0
H235 H 0.85334 0.74187 0.97089 0.0
H236 H 0.35783 0.92978 0.81573 0.0
H237 H 0.22206 0.92761 0.75958 0.0
H238 H 0.29827 -0.00277 0.72454 0.0
H239 H 0.43435 -0.00065 0.78077 0.0
H240 H 0.00225 0.10737 1.1234 0.0
H241 H 0.86405 -0.02226 0.1812 0.0
H242 H 0.04679 0.04583 1.12023 0.0
H243 H 0.9094 0.91639 0.1786 0.0
H244 H 0.10659 -0.01226 0.22395 0.0
H245 H 0.00789 0.96438 0.20798 0.0
H246 H 0.05303 0.95251 1.11458 0.0
H247 H 0.15171 -0.02347 1.13062 0.0
C248 C -0.01964 0.0647 1.1345 0.0
C249 C 0.93177 0.04833 1.15365 0.0
C250 C 0.00517 0.02884 1.13236 0.0
C251 C -0.01784 -0.02297 1.14991 0.0
C252 C 0.92816 0.95643 1.16521 0.0
C253 C 0.90282 -0.00806 0.16696 0.0
C254 C 0.09429 -0.02234 0.20026 0.0
C255 C 0.13669 -0.01343 0.17829 0.0
C256 C 0.03762 0.96337 0.19106 0.0
C257 C 0.02377 0.95843 1.15987 0.0
C258 C 0.06315 0.9571 1.13864 0.0
C259 C 0.11977 -0.02814 1.14779 0.0
H260 H 0.00341 0.93666 0.50125 0.0
H261 H 0.93118 0.02894 0.45312 0.0
H262 H 0.09374 -0.01163 0.47203 0.0
H263 H 0.02334 0.08228 0.42413 0.0
H264 H 0.264 0.13803 0.4736 0.0
H265 H 0.18167 0.06632 0.44188 0.0
H266 H 0.07655 0.14188 0.47255 0.0
H267 H 0.15582 0.20931 0.5048 0.0
C268 C 0.00654 0.96722 0.48388 0.0
C269 C -0.03714 -0.01727 0.481 0.0
C270 C 0.0576 -0.00449 0.4663 0.0
C271 C 0.06714 0.04323 0.44802 0.0
C272 C 0.01782 0.04772 0.43949 0.0
C273 C -0.03378 0.01919 0.45697 0.0
C274 C 0.22295 0.13872 0.47336 0.0
C275 C 0.21491 0.17724 0.49242 0.0
C276 C 0.17689 0.09926 0.4545 0.0
C277 C 0.12273 0.09838 0.45458 0.0
C278 C 0.11767 0.14135 0.47148 0.0
C279 C 0.16256 0.1791 0.49079 0.0
H280 H 0.18678 0.00734 0.85879 0.0
H281 H 0.06224 0.0051 0.7939 0.0
H282 H 0.23481 0.11477 0.86262 0.0
H283 H 0.11126 0.1123 0.79699 0.0
H284 H 0.17863 0.29042 0.80702 0.0
H285 H 0.20701 0.21732 0.79504 0.0
H286 H 0.16898 0.15498 0.88765 0.0
H287 H 0.14043 0.22837 0.89957 0.0
C288 C 0.17115 0.03009 0.84449 0.0
C289 C 0.11976 -0.00155 0.82676 0.0
C290 C 0.19898 0.0914 0.84655 0.0
C291 C 0.17643 0.12139 0.83031 0.0
C292 C 0.12978 0.09012 0.80961 0.0
C293 C 0.10119 0.02881 0.80807 0.0
C294 C 0.17882 0.26263 0.82509 0.0
C295 C 0.15567 0.26294 0.85392 0.0
C296 C 0.1957 0.22148 0.8183 0.0
C297 C 0.18889 0.18007 0.84024 0.0
C298 C 0.17464 0.18668 0.87036 0.0
C299 C 0.15777 0.2281 0.87719 0.0
H300 H 0.29701 0.46937 1.10791 0.0
H301 H 0.33759 0.38419 1.035 0.0
H302 H 0.31272 0.54834 1.0736 0.0
H303 H 0.34789 0.45955 1.00028 0.0
H304 H 0.22599 0.58887 0.99136 0.0
H305 H 0.2581 0.55755 1.03523 0.0
H306 H 0.39495 0.55456 0.98099 0.0
H307 H 0.35876 0.57995 0.93646 0.0
C308 C 0.30961 0.46754 1.08463 0.0
C309 C 0.31474 0.41955 1.0741 0.0
C310 C 0.31822 0.51274 1.06486 0.0
C311 C 0.33113 0.5105 1.03398 0.0
C312 C 0.33892 0.46382 1.02391 0.0
C313 C 0.33135 0.41934 1.04373 0.0
C314 C 0.26378 0.58276 0.98893 0.0
C315 C 0.28734 0.58345 0.96005 0.0
C316 C 0.28282 0.56534 1.01429 0.0
C317 C 0.3271 0.5502 1.0113 0.0
C318 C 0.35857 0.56279 0.98371 0.0
C319 C 0.3384 0.57856 0.95816 0.0
H320 H -0.0039 0.44171 0.44935 0.0
H321 H 0.16271 0.53187 0.40112 0.0
H322 H -0.04827 0.4742 0.41171 0.0
H323 H 0.11759 0.55841 0.36187 0.0
H324 H 0.03706 0.51078 0.278 0.0
H325 H 0.06747 0.56598 0.32475 0.0
H326 H 0.91182 0.42614 0.36944 0.0
H327 H 0.87969 0.37398 0.32207 0.0
C328 C 0.02377 0.46949 0.43103 0.0
C329 C 0.08175 0.48036 0.42688 0.0
C330 C -0.00209 0.48735 0.40894 0.0
C331 C 0.02849 0.5129 0.38162 0.0
C332 C 0.09026 0.53527 0.38123 0.0
C333 C 0.11661 0.51935 0.4038 0.0
C334 C 0.00794 0.49307 0.29751 0.0
C335 C -0.04215 0.43601 0.29685 0.0
C336 C 0.02588 0.52471 0.32477 0.0
C337 C -0.00454 0.49884 0.35208 0.0
C338 C 0.939 0.44737 0.34973 0.0
C339 C 0.92046 0.41639 0.32235 0.0
H340 H 0.71645 0.86773 0.80066 0.0
H341 H 0.65755 -0.01727 0.76605 0.0
H342 H 0.63667 0.7849 0.77352 0.0
H343 H 0.58209 0.903 0.73693 0.0
H344 H 0.6474 0.75012 0.67232 0.0
H345 H 0.63769 0.7595 0.72595 0.0
H346 H 0.52029 0.82743 0.70884 0.0
H347 H 0.53622 0.82421 0.65472 0.0
C348 C 0.68571 0.87506 0.78768 0.0
C349 C 0.69541 0.93232 0.78377 0.0
C350 C 0.6402 0.82765 0.77166 0.0
C351 C 0.60577 0.83753 0.75046 0.0
C352 C 0.60864 0.8927 0.75157 0.0
C353 C 0.65297 0.93946 0.76807 0.0
C354 C 0.6188 0.76634 0.68006 0.0
C355 C 0.59683 0.79118 0.65946 0.0
C356 C 0.61241 0.77125 0.71121 0.0
C357 C 0.58323 0.80056 0.72215 0.0
C358 C 0.54801 0.8101 0.70136 0.0
C359 C 0.55619 0.80722 0.67009 0.0
H360 H 0.64826 0.70122 1.11053 0.0
H361 H 0.61792 0.78868 1.03594 0.0
H362 H 0.65287 0.63191 1.07496 0.0
H363 H 0.62472 0.72161 1.00042 0.0
H364 H 0.79906 0.657 1.00242 0.0
H365 H 0.7358 0.65699 1.04279 0.0
H366 H 0.60301 0.63135 0.97672 0.0
H367 H 0.66817 0.63552 0.93615 0.0
C368 C 0.64068 0.70442 1.08662 0.0
C369 C 0.63445 0.75126 1.07578 0.0
C370 C 0.64357 0.66489 1.06625 0.0
C371 C 0.64062 0.67192 1.03477 0.0
C372 C 0.62713 0.71446 1.02444 0.0
C373 C 0.62415 0.75374 1.04476 0.0
C374 C 0.75572 0.64985 0.99656 0.0
C375 C 0.73994 0.64921 0.96606 0.0
C376 C 0.71881 0.64889 1.01981 0.0
C377 C 0.66523 0.64662 1.01285 0.0
C378 C 0.64496 0.6352 0.98269 0.0
C379 C 0.68229 0.6371 0.9594 0.0
H380 H 0.07135 0.67564 0.41928 0.0
H381 H -0.0413 0.66838 0.3459 0.0
H382 H 0.14094 0.67545 0.38276 0.0
H383 H 0.03037 0.67297 0.30939 0.0
H384 H 0.28501 0.81901 0.31923 0.0
H385 H 0.20915 0.75792 0.35556 0.0
H386 H 0.09427 0.6524 0.28209 0.0
H387 H 0.16939 0.71661 0.24557 0.0
C388 C 0.06032 0.67218 0.39539 0.0
C389 C 0.01061 0.67473 0.38547 0.0
C390 C 0.10091 0.67303 0.37437 0.0
C391 C 0.09307 0.67744 0.34311 0.0
C392 C 0.03886 0.67072 0.33325 0.0
C393 C -0.0022 0.66882 0.35425 0.0
C394 C 0.24402 0.78202 0.31085 0.0
C395 C 0.23244 0.774 0.27956 0.0
C396 C 0.20048 0.74618 0.33176 0.0
C397 C 0.1445 0.70102 0.32182 0.0
C398 C 0.13611 0.68795 0.29054 0.0
C399 C 0.17956 0.72438 0.26957 0.0
H400 H 0.47179 0.10538 0.76707 0.0
H401 H 0.37565 0.00442 0.68812 0.0
H402 H 0.53806 0.18792 0.73437 0.0
H403 H 0.44052 0.08692 0.6556 0.0
H404 H 0.53194 0.33116 0.67042 0.0
H405 H 0.51451 0.25411 0.70652 0.0
H406 H 0.53867 0.15491 0.63484 0.0
H407 H 0.55374 0.23081 0.59852 0.0
C408 C 0.4658 0.10032 0.74268 0.0
C409 C 0.41811 0.04896 0.73007 0.0
C410 C 0.50355 0.14761 0.72401 0.0
C411 C 0.49435 0.14412 0.69246 0.0
C412 C 0.44936 0.09092 0.67978 0.0
C413 C 0.41158 0.04388 0.69841 0.0
C414 C 0.53528 0.29373 0.66258 0.0
C415 C 0.54257 0.28627 0.63154 0.0
C416 C 0.52586 0.24976 0.68332 0.0
C417 C 0.52377 0.19775 0.67331 0.0
C418 C 0.53886 0.19403 0.64303 0.0
C419 C 0.54808 0.23789 0.62227 0.0
H420 H 0.47496 0.13279 1.14388 0.0
H421 H 0.48303 0.2196 0.22892 0.0
H422 H 0.57379 0.14844 1.15292 0.0
H423 H 0.58203 0.23363 0.23849 0.0
H424 H 0.76204 0.21361 1.164 0.0
H425 H 0.68635 0.24197 1.16226 0.0
H426 H 0.60669 0.14243 0.244 0.0
H427 H 0.68148 0.11284 0.24542 0.0
C428 C 0.49824 0.15563 1.16439 0.0
C429 C 0.47183 0.17493 0.18578 0.0
C430 C 0.55486 0.16515 0.16939 0.0
C431 C 0.58545 0.19304 0.19615 0.0
C432 C 0.55931 0.21282 0.21753 0.0
C433 C 0.50298 0.20459 0.21213 0.0
C434 C 0.72982 0.19979 0.18226 0.0
C435 C 0.72637 0.15999 0.20447 0.0
C436 C 0.68669 0.21605 0.18125 0.0
C437 C 0.64075 0.19371 0.20281 0.0
C438 C 0.64198 0.16028 0.22724 0.0
C439 C 0.68446 0.14316 0.22795 0.0
H440 H 0.37308 0.53755 0.52574 0.0
H441 H 0.44424 0.44647 0.47426 0.0
H442 H 0.47481 0.62063 0.53405 0.0
H443 H 0.5442 0.52739 0.48339 0.0
H444 H 0.67147 0.76472 0.48853 0.0
H445 H 0.56574 0.69204 0.49098 0.0
H446 H 0.60454 0.57149 0.53773 0.0
H447 H 0.71056 0.64529 0.53653 0.0
C448 C 0.41027 0.53549 0.5162 0.0
C449 C 0.40128 0.48569 0.4997 0.0
C450 C 0.46799 0.58245 0.5211 0.0
C451 C 0.51658 0.57906 0.50992 0.0
C452 C 0.50719 0.53005 0.49276 0.0
C453 C 0.45006 0.48411 0.4874 0.0
C454 C 0.65729 0.72368 0.50043 0.0
C455 C 0.69885 0.71057 0.51261 0.0
C456 C 0.59694 0.68229 0.50178 0.0
C457 C 0.57768 0.6269 0.51472 0.0
C458 C 0.61891 0.61444 0.52787 0.0
C459 C 0.67924 0.65624 0.52698 0.0
H460 H 0.93743 0.36947 0.89141 0.0
H461 H -0.02827 0.41219 0.79619 0.0
H462 H 0.94527 0.46574 0.90108 0.0
H463 H -0.02239 0.50666 0.8055 0.0
H464 H -0.03848 0.66215 0.82569 0.0
H465 H 0.91691 0.5547 0.8261 0.0
H466 H 0.04395 0.57083 0.89332 0.0
H467 H 0.08899 0.67831 0.89272 0.0
C468 C 0.94444 0.39857 0.8725 0.0
C469 C -0.04619 0.38398 0.84308 0.0
C470 C 0.94913 0.45342 0.87801 0.0
C471 C -0.03849 0.49311 0.85397 0.0
C472 C -0.03297 0.47643 0.82432 0.0
C473 C -0.03607 0.42265 0.819 0.0
C474 C -0.02118 0.6426 0.84116 0.0
C475 C 0.02932 0.67826 0.85875 0.0
C476 C -0.04675 0.58127 0.84142 0.0
C477 C -0.02273 0.55483 0.85964 0.0
C478 C 0.02433 0.59022 0.8793 0.0
C479 C 0.05039 0.65161 0.87875 0.0
H480 H 0.23875 0.16874 0.25818 0.0
H481 H 0.35851 0.11038 0.28646 0.0
H482 H 0.24348 0.2096 0.30824 0.0
H483 H 0.3624 0.15091 0.33756 0.0
H484 H 0.40112 0.28932 0.41602 0.0
H485 H 0.39863 0.24367 0.36673 0.0
H486 H 0.21197 0.18312 0.35916 0.0
H487 H 0.21464 0.22904 0.40756 0.0
C488 C 0.26578 0.16392 0.27518 0.0
C489 C 0.29811 0.13577 0.26793 0.0
C490 C 0.26824 0.18733 0.30422 0.0
C491 C 0.30314 0.18371 0.32742 0.0
C492 C 0.33536 0.15518 0.32037 0.0
C493 C 0.33269 0.13133 0.29109 0.0
C494 C 0.35965 0.26657 0.40373 0.0
C495 C 0.30838 0.26405 0.41585 0.0
C496 C 0.35806 0.2398 0.3755 0.0
C497 C 0.30519 0.20983 0.35847 0.0
C498 C 0.25393 0.20666 0.37098 0.0
C499 C 0.25549 0.23318 0.39903 0.0
H500 H 0.33152 0.3749 0.62188 0.0
H501 H 0.15202 0.2753 0.58837 0.0
H502 H 0.29239 0.37452 0.67314 0.0
H503 H 0.11401 0.27575 0.6383 0.0
H504 H 0.05455 0.2323 0.73532 0.0
H505 H 0.10151 0.23323 0.68738 0.0
H506 H 0.23824 0.41411 0.70349 0.0
H507 H 0.19134 0.4129 0.75218 0.0
C508 C 0.28401 0.35273 0.62532 0.0
C509 C 0.24532 0.32513 0.60065 0.0
C510 C 0.26147 0.35287 0.65469 0.0
C511 C 0.1997 0.3248 0.66018 0.0
C512 C 0.16161 0.29698 0.63546 0.0
C513 C 0.18384 0.29715 0.60645 0.0
C514 C 0.09451 0.27254 0.72879 0.0
C515 C 0.1184 0.32276 0.74777 0.0
C516 C 0.12161 0.27312 0.70106 0.0
C517 C 0.17378 0.32392 0.6911 0.0
C518 C 0.19845 0.37399 0.7103 0.0
C519 C 0.17107 0.37348 0.73816 0.0
H520 H 0.92724 0.17327 0.91999 0.0
H521 H 0.04505 0.34885 0.9544 0.0
H522 H 0.88849 0.13973 0.97045 0.0
H523 H 0.00798 0.31439 1.00597 0.0
H524 H 0.89575 0.2504 1.09239 0.0
H525 H 0.93305 0.28504 1.04148 0.0
H526 H 0.89961 0.11077 1.01758 0.0
H527 H 0.85965 0.07573 1.06842 0.0
C528 C 0.94565 0.20493 0.93846 0.0
C529 C -0.01021 0.2641 0.93275 0.0
C530 C 0.92343 0.18525 0.96782 0.0
C531 C 0.94481 0.22359 0.99307 0.0
C532 C -0.0108 0.2831 0.98741 0.0
C533 C 0.011 0.30312 0.95771 0.0
C534 C 0.89568 0.21912 1.07619 0.0
C535 C 0.87394 0.15987 1.08472 0.0
C536 C 0.91797 0.23937 1.04682 0.0
C537 C 0.92025 0.20141 1.02474 0.0
C538 C 0.89803 0.14179 1.03331 0.0
C539 C 0.87492 0.12132 1.06269 0.0
H540 H 0.80943 0.95674 0.25447 0.0
H541 H 0.86128 0.1252 0.29633 0.0
H542 H 0.80854 0.91539 0.30386 0.0
H543 H 0.86013 0.08315 0.34635 0.0
H544 H 0.78374 0.96313 0.43271 0.0
H545 H 0.7889 0.00878 0.38367 0.0
H546 H 0.87523 0.92063 0.34455 0.0
H547 H 0.87038 0.87515 0.39365 0.0
C548 C 0.82071 -0.01476 0.27422 0.0
C549 C 0.83521 0.04459 0.27113 0.0
C550 C 0.82058 0.96136 0.3027 0.0
C551 C 0.83428 -0.00439 0.32937 0.0
C552 C 0.84884 0.0551 0.32643 0.0
C553 C 0.8498 0.0794 0.29768 0.0
C554 C 0.80346 0.95297 0.41365 0.0
C555 C 0.82593 0.91454 0.41733 0.0
C556 C 0.80702 -0.02016 0.38549 0.0
C557 C 0.83247 0.96866 0.35989 0.0
C558 C 0.85475 0.93004 0.36354 0.0
C559 C 0.85195 0.90381 0.39181 0.0
H560 H -0.01725 0.849 0.58179 0.0
H561 H 0.83583 0.85343 0.62412 0.0
H562 H 0.0215 0.8465 0.63153 0.0
H563 H 0.87547 0.85228 0.67418 0.0
H564 H 0.92444 0.78457 0.75814 0.0
H565 H 0.88866 0.79081 0.70846 0.0
H566 H 0.06904 0.89873 0.67708 0.0
H567 H 0.1053 0.89163 0.72732 0.0
C568 C -0.04138 0.84976 0.6017 0.0
C569 C 0.90564 0.85118 0.59856 0.0
C570 C -0.01862 0.8488 0.63047 0.0
C571 C -0.04792 0.84911 0.65737 0.0
C572 C 0.89924 0.85105 0.65424 0.0
C573 C 0.87643 0.85204 0.62537 0.0
C574 C -0.04304 0.80964 0.74078 0.0
C575 C 0.01819 0.83741 0.74714 0.0
C576 C 0.9361 0.81369 0.71207 0.0
C577 C -0.02454 0.84567 0.68831 0.0
C578 C 0.03692 0.87315 0.69448 0.0
C579 C 0.05794 0.86919 0.72344 0.0
H580 H 0.21962 -0.02778 0.91625 0.0
H581 H 0.06207 0.83181 0.95841 0.0
H582 H 0.25878 0.01501 0.96604 0.0
H583 H 0.10239 0.87446 1.00873 0.0
H584 H 0.23544 0.93726 1.09224 0.0
H585 H 0.19206 0.89322 1.04288 0.0
H586 H 0.2342 0.0645 1.00972 0.0
H587 H 0.27631 0.10839 1.0593 0.0
C588 C 0.19329 0.95008 0.93616 0.0
C589 C 0.13759 0.89804 0.93308 0.0
C590 C 0.21578 -0.02495 0.96481 0.0
C591 C 0.18401 0.94836 0.99157 0.0
C592 C 0.12836 0.89608 0.98866 0.0
C593 C 0.10511 0.87167 0.95978 0.0
C594 C 0.236 0.96575 1.07437 0.0
C595 C 0.26026 0.02673 1.07982 0.0
C596 C 0.21043 0.94026 1.04612 0.0
C597 C 0.20944 -0.02488 1.02217 0.0
C598 C 0.23437 0.03622 1.0275 0.0
C599 C 0.25868 0.06148 1.05598 0.0
loop_
_geom_bond_atom_site_label_1
_geom_bond_atom_site_label_2
_geom_bond_distance
_geom_bond_site_symmetry_2
_ccdc_geom_bond_type
Gd0 C3 2.818 . S
Gd0 O20 2.377 . S
Gd0 O22 2.448 . S
Gd0 O23 2.506 . S
Gd0 O24 2.435 . S
Gd0 O25 2.717 . S
Gd0 O27 2.395 1_554 S
Gd0 O31 2.327 . S
Gd1 C12 2.818 . S
Gd1 O21 2.395 1_556 S
Gd1 O25 2.327 1_556 S
Gd1 O26 2.377 . S
Gd1 O28 2.448 . S
Gd1 O29 2.506 . S
Gd1 O30 2.439 . S
Gd1 O31 2.717 1_556 S
C2 O20 1.240 . S
C2 O21 1.240 . S
C3 Gd0 2.818 . S
C3 C4 1.510 . S
C3 O22 1.249 . S
C3 O23 1.252 . S
C4 C3 1.510 . S
C4 C5 1.404 . S
C4 C6 1.352 . S
C5 C4 1.404 . S
C5 C9 1.389 . S
C5 H32 0.930 . S
C6 C4 1.352 . S
C6 C8 1.374 . S
C6 H33 0.931 . S
C7 C8 1.359 . S
C7 C9 1.364 . S
C8 C6 1.374 . S
C8 C7 1.359 . S
C8 H34 0.931 . S
C9 C5 1.389 . S
C9 C7 1.364 . S
C9 H35 0.931 1_545 S
C10 O24 1.256 . S
C10 O25 1.257 . S
C11 O26 1.240 . S
C11 O27 1.240 . S
C12 Gd1 2.818 . S
C12 C13 1.510 . S
C12 O28 1.249 . S
C12 O29 1.252 . S
C13 C12 1.510 . S
C13 C14 1.404 . S
C13 C15 1.352 . S
C14 C13 1.404 . S
C14 C18 1.389 . S
C14 H36 0.930 . S
C15 C13 1.352 . S
C15 C17 1.374 . S
C15 H37 0.931 . S
C16 C17 1.359 . S
C16 C18 1.364 . S
C17 C15 1.374 . S
C17 C16 1.359 . S
C17 H38 0.931 . S
C18 C14 1.389 . S
C18 C16 1.364 . S
C18 H39 0.931 . S
C19 O30 1.231 1_554 S
C19 O31 1.257 . S
O20 Gd0 2.377 . S
O20 C2 1.240 . S
O21 Gd1 2.395 1_554 S
O21 C2 1.240 . S
O22 Gd0 2.448 . S
O22 C3 1.249 . S
O23 Gd0 2.506 . S
O23 C3 1.252 . S
O24 Gd0 2.435 . S
O24 C10 1.256 . S
O25 Gd0 2.717 . S
O25 Gd1 2.327 1_554 S
O25 C10 1.257 . S
O26 Gd1 2.377 . S
O26 C11 1.240 . S
O27 Gd0 2.395 1_556 S
O27 C11 1.240 . S
O28 Gd1 2.448 . S
O28 C12 1.249 . S
O29 Gd1 2.506 . S
O29 C12 1.252 . S
O30 Gd1 2.439 . S
O30 C19 1.231 1_556 S
O31 Gd0 2.327 . S
O31 Gd1 2.717 1_554 S
O31 C19 1.257 . S
H32 C5 0.930 . S
H33 C6 0.931 . S
H34 C8 0.931 . S
H35 C9 0.931 1_565 S
H36 C14 0.930 . S
H37 C15 0.931 . S
H38 C17 0.931 . S
H39 C18 0.931 . S
Gd40 C43 2.818 . S
Gd40 O60 2.377 . S
Gd40 O62 2.448 . S
Gd40 O63 2.506 . S
Gd40 O64 2.435 . S
Gd40 O65 2.717 . S
Gd40 O67 2.395 . S
Gd40 O71 2.327 . S
Gd41 C52 2.818 . S
Gd41 O61 2.395 . S
Gd41 O65 2.327 . S
Gd41 O66 2.377 . S
Gd41 O68 2.448 . S
Gd41 O69 2.506 . S
Gd41 O70 2.435 . S
Gd41 O71 2.717 . S
C42 O60 1.240 . S
C42 O61 1.240 . S
C43 Gd40 2.818 . S
C43 C44 1.510 . S
C43 O62 1.249 . S
C43 O63 1.252 . S
C44 C43 1.510 . S
C44 C45 1.404 . S
C44 C46 1.352 . S
C45 C44 1.404 . S
C45 C49 1.389 . S
C45 H72 0.930 . S
C46 C44 1.352 . S
C46 C48 1.374 . S
C46 H73 0.931 . S
C47 C48 1.359 . S
C47 C49 1.364 . S
C48 C46 1.374 . S
C48 C47 1.359 . S
C48 H74 0.931 . S
C49 C45 1.389 . S
C49 C47 1.364 . S
C49 H75 0.931 . S
C50 O64 1.256 . S
C50 O65 1.257 . S
C51 O66 1.240 . S
C51 O67 1.240 . S
C52 Gd41 2.818 . S
C52 C53 1.510 . S
C52 O68 1.249 . S
C52 O69 1.252 . S
C53 C52 1.510 . S
C53 C54 1.404 . S
C53 C55 1.352 . S
C54 C53 1.404 . S
C54 C58 1.389 . S
C54 H76 0.930 . S
C55 C53 1.352 . S
C55 C57 1.374 . S
C55 H77 0.931 . S
C56 C57 1.359 . S
C56 C58 1.364 . S
C57 C55 1.374 . S
C57 C56 1.359 . S
C57 H78 0.931 . S
C58 C54 1.389 . S
C58 C56 1.364 . S
C58 H79 0.931 . S
C59 O70 1.256 . S
C59 O71 1.257 . S
O60 Gd40 2.377 . S
O60 C42 1.240 . S
O61 Gd41 2.395 . S
O61 C42 1.240 . S
O62 Gd40 2.448 . S
O62 C43 1.249 . S
O63 Gd40 2.506 . S
O63 C43 1.252 . S
O64 Gd40 2.435 . S
O64 C50 1.256 . S
O65 Gd40 2.717 . S
O65 Gd41 2.327 . S
O65 C50 1.257 . S
O66 Gd41 2.377 . S
O66 C51 1.240 . S
O67 Gd40 2.395 . S
O67 C51 1.240 . S
O68 Gd41 2.448 . S
O68 C52 1.249 . S
O69 Gd41 2.506 . S
O69 C52 1.252 . S
O70 Gd41 2.435 . S
O70 C59 1.256 . S
O71 Gd40 2.327 . S
O71 Gd41 2.717 . S
O71 C59 1.257 . S
H72 C45 0.930 . S
H73 C46 0.931 . S
H74 C48 0.931 . S
H75 C49 0.931 . S
H76 C54 0.930 . S
H77 C55 0.931 . S
H78 C57 0.931 . S
H79 C58 0.931 . S
Gd80 C83 2.818 . S
Gd80 O100 2.377 1_455 S
Gd80 O102 2.448 . S
Gd80 O103 2.506 . S
Gd80 O104 2.435 . S
Gd80 O105 2.717 1_455 S
Gd80 O107 2.395 . S
Gd80 O111 2.327 . S
Gd81 C92 2.818 . S
Gd81 O101 2.395 . S
Gd81 O105 2.327 . S
Gd81 O106 2.377 1_655 S
Gd81 O108 2.448 . S
Gd81 O109 2.506 . S
Gd81 O110 2.435 . S
Gd81 O111 2.717 1_655 S
C82 O100 1.240 . S
C82 O101 1.240 . S
C83 Gd80 2.818 . S
C83 C84 1.510 . S
C83 O102 1.249 . S
C83 O103 1.252 . S
C84 C83 1.510 . S
C84 C85 1.404 . S
C84 C86 1.352 . S
C85 C84 1.404 . S
C85 C89 1.389 . S
C85 H112 0.930 . S
C86 C84 1.352 . S
C86 C88 1.374 . S
C86 H113 0.931 . S
C87 C88 1.359 . S
C87 C89 1.364 . S
C88 C86 1.374 . S
C88 C87 1.359 . S
C88 H114 0.931 . S
C89 C85 1.389 . S
C89 C87 1.364 . S
C89 H115 0.931 . S
C90 O104 1.256 . S
C90 O105 1.257 1_455 S
C91 O106 1.240 . S
C91 O107 1.240 . S
C92 Gd81 2.818 . S
C92 C93 1.510 . S
C92 O108 1.249 . S
C92 O109 1.252 . S
C93 C92 1.510 . S
C93 C94 1.404 . S
C93 C95 1.352 . S
C94 C93 1.404 . S
C94 C98 1.389 . S
C94 H116 0.930 . S
C95 C93 1.352 . S
C95 C97 1.374 . S
C95 H117 0.931 . S
C96 C97 1.359 . S
C96 C98 1.364 . S
C97 C95 1.374 . S
C97 C96 1.359 . S
C97 H118 0.931 . S
C98 C94 1.389 . S
C98 C96 1.364 . S
C98 H119 0.931 . S
C99 O110 1.256 . S
C99 O111 1.257 1_655 S
O100 Gd80 2.377 1_655 S
O100 C82 1.240 . S
O101 Gd81 2.395 . S
O101 C82 1.240 . S
O102 Gd80 2.448 . S
O102 C83 1.249 . S
O103 Gd80 2.506 . S
O103 C83 1.252 . S
O104 Gd80 2.435 . S
O104 C90 1.256 . S
O105 Gd80 2.717 1_655 S
O105 Gd81 2.327 . S
O105 C90 1.257 1_655 S
O106 Gd81 2.377 1_455 S
O106 C91 1.240 . S
O107 Gd80 2.395 . S
O107 C91 1.240 . S
O108 Gd81 2.448 . S
O108 C92 1.249 . S
O109 Gd81 2.506 . S
O109 C92 1.252 . S
O110 Gd81 2.435 . S
O110 C99 1.256 . S
O111 Gd80 2.327 . S
O111 Gd81 2.717 1_455 S
O111 C99 1.257 1_455 S
H112 C85 0.930 . S
H113 C86 0.931 . S
H114 C88 0.931 . S
H115 C89 0.931 . S
H116 C94 0.930 . S
H117 C95 0.931 . S
H118 C97 0.931 . S
H119 C98 0.931 . S
Gd120 C123 2.818 . S
Gd120 O140 2.377 . S
Gd120 O142 2.448 . S
Gd120 O143 2.506 . S
Gd120 O144 2.435 . S
Gd120 O145 2.717 . S
Gd120 O147 2.395 1_554 S
Gd120 O151 2.327 . S
Gd121 C132 2.818 . S
Gd121 O141 2.395 1_556 S
Gd121 O145 2.327 1_566 S
Gd121 O146 2.377 1_565 S
Gd121 O148 2.448 . S
Gd121 O149 2.506 . S
Gd121 O150 2.439 . S
Gd121 O151 2.717 1_566 S
C122 O140 1.240 1_565 S
C122 O141 1.240 . S
C123 Gd120 2.818 . S
C123 C124 1.510 . S
C123 O142 1.249 . S
C123 O143 1.252 . S
C124 C123 1.510 . S
C124 C125 1.404 . S
C124 C126 1.352 . S
C125 C124 1.404 . S
C125 C129 1.389 . S
C125 H152 0.930 . S
C126 C124 1.352 . S
C126 C128 1.374 . S
C126 H153 0.931 . S
C127 C128 1.359 . S
C127 C129 1.364 . S
C128 C126 1.374 . S
C128 C127 1.359 . S
C128 H154 0.931 . S
C129 C125 1.389 . S
C129 C127 1.364 . S
C129 H155 0.931 . S
C130 O144 1.256 . S
C130 O145 1.257 . S
C131 O146 1.240 . S
C131 O147 1.240 . S
C132 Gd121 2.818 . S
C132 C133 1.510 . S
C132 O148 1.249 . S
C132 O149 1.252 . S
C133 C132 1.510 . S
C133 C134 1.404 . S
C133 C135 1.352 . S
C134 C133 1.404 . S
C134 C138 1.389 . S
C134 H156 0.930 . S
C135 C133 1.352 . S
C135 C137 1.374 . S
C135 H157 0.931 . S
C136 C137 1.359 . S
C136 C138 1.364 . S
C137 C135 1.374 . S
C137 C136 1.359 . S
C137 H158 0.931 . S
C138 C134 1.389 . S
C138 C136 1.364 . S
C138 H159 0.931 . S
C139 O150 1.231 1_554 S
C139 O151 1.257 1_565 S
O140 Gd120 2.377 . S
O140 C122 1.240 1_545 S
O141 Gd121 2.395 1_554 S
O141 C122 1.240 . S
O142 Gd120 2.448 . S
O142 C123 1.249 . S
O143 Gd120 2.506 . S
O143 C123 1.252 . S
O144 Gd120 2.435 . S
O144 C130 1.256 . S
O145 Gd120 2.717 . S
O145 Gd121 2.327 1_544 S
O145 C130 1.257 . S
O146 Gd121 2.377 1_545 S
O146 C131 1.240 . S
O147 Gd120 2.395 1_556 S
O147 C131 1.240 . S
O148 Gd121 2.448 . S
O148 C132 1.249 . S
O149 Gd121 2.506 . S
O149 C132 1.252 . S
O150 Gd121 2.439 . S
O150 C139 1.231 1_556 S
O151 Gd120 2.327 . S
O151 Gd121 2.717 1_544 S
O151 C139 1.257 1_545 S
H152 C125 0.930 . S
H153 C126 0.931 . S
H154 C128 0.931 . S
H155 C129 0.931 . S
H156 C134 0.930 . S
H157 C135 0.931 . S
H158 C137 0.931 . S
H159 C138 0.931 . S
Gd160 C163 2.818 . S
Gd160 O180 2.377 . S
Gd160 O182 2.448 . S
Gd160 O183 2.506 . S
Gd160 O184 2.435 . S
Gd160 O185 2.717 . S
Gd160 O187 2.395 . S
Gd160 O191 2.327 . S
Gd161 C172 2.818 1_655 S
Gd161 O181 2.395 . S
Gd161 O185 2.327 . S
Gd161 O186 2.377 . S
Gd161 O188 2.448 . S
Gd161 O189 2.506 1_655 S
Gd161 O190 2.435 . S
Gd161 O191 2.717 . S
C162 O180 1.240 . S
C162 O181 1.240 . S
C163 Gd160 2.818 . S
C163 C164 1.510 . S
C163 O182 1.249 . S
C163 O183 1.252 . S
C164 C163 1.510 . S
C164 C165 1.404 . S
C164 C166 1.352 . S
C165 C164 1.404 . S
C165 C169 1.389 . S
C165 H192 0.930 . S
C166 C164 1.352 . S
C166 C168 1.374 . S
C166 H193 0.931 . S
C167 C168 1.359 . S
C167 C169 1.364 . S
C168 C166 1.374 . S
C168 C167 1.359 . S
C168 H194 0.931 . S
C169 C165 1.389 . S
C169 C167 1.364 . S
C169 H195 0.931 . S
C170 O184 1.256 1_455 S
C170 O185 1.257 1_455 S
C171 O186 1.240 . S
C171 O187 1.240 . S
C172 Gd161 2.818 1_455 S
C172 C173 1.510 . S
C172 O188 1.249 1_455 S
C172 O189 1.252 . S
C173 C172 1.510 . S
C173 C174 1.404 . S
C173 C175 1.352 . S
C174 C173 1.404 . S
C174 C178 1.389 . S
C174 H196 0.930 1_455 S
C175 C173 1.352 . S
C175 C177 1.374 . S
C175 H197 0.931 . S
C176 C177 1.359 . S
C176 C178 1.364 . S
C177 C175 1.374 . S
C177 C176 1.359 . S
C177 H198 0.931 . S
C178 C174 1.389 . S
C178 C176 1.364 . S
C178 H199 0.931 . S
C179 O190 1.256 . S
C179 O191 1.257 . S
O180 Gd160 2.377 . S
O180 C162 1.240 . S
O181 Gd161 2.395 . S
O181 C162 1.240 . S
O182 Gd160 2.448 . S
O182 C163 1.249 . S
O183 Gd160 2.506 . S
O183 C163 1.252 . S
O184 Gd160 2.435 . S
O184 C170 1.256 1_655 S
O185 Gd160 2.717 . S
O185 Gd161 2.327 . S
O185 C170 1.257 1_655 S
O186 Gd161 2.377 . S
O186 C171 1.240 . S
O187 Gd160 2.395 . S
O187 C171 1.240 . S
O188 Gd161 2.448 . S
O188 C172 1.249 1_655 S
O189 Gd161 2.506 1_455 S
O189 C172 1.252 . S
O190 Gd161 2.435 . S
O190 C179 1.256 . S
O191 Gd160 2.327 . S
O191 Gd161 2.717 . S
O191 C179 1.257 . S
H192 C165 0.930 . S
H193 C166 0.931 . S
H194 C168 0.931 . S
H195 C169 0.931 . S
H196 C174 0.930 1_655 S
H197 C175 0.931 . S
H198 C177 0.931 . S
H199 C178 0.931 . S
Gd200 C203 2.818 . S
Gd200 O220 2.377 . S
Gd200 O222 2.448 . S
Gd200 O223 2.506 . S
Gd200 O224 2.435 . S
Gd200 O225 2.717 . S
Gd200 O227 2.395 . S
Gd200 O231 2.327 . S
Gd201 C212 2.818 1_565 S
Gd201 O221 2.395 . S
Gd201 O225 2.327 . S
Gd201 O226 2.377 . S
Gd201 O228 2.448 . S
Gd201 O229 2.506 1_565 S
Gd201 O230 2.435 . S
Gd201 O231 2.717 . S
C202 O220 1.240 . S
C202 O221 1.240 . S
C203 Gd200 2.818 . S
C203 C204 1.510 . S
C203 O222 1.249 . S
C203 O223 1.252 . S
C204 C203 1.510 . S
C204 C205 1.404 . S
C204 C206 1.352 . S
C205 C204 1.404 . S
C205 C209 1.389 . S
C205 H232 0.930 . S
C206 C204 1.352 . S
C206 C208 1.374 . S
C206 H233 0.931 . S
C207 C208 1.359 . S
C207 C209 1.364 . S
C208 C206 1.374 . S
C208 C207 1.359 . S
C208 H234 0.931 . S
C209 C205 1.389 . S
C209 C207 1.364 . S
C209 H235 0.931 1_455 S
C210 O224 1.256 1_545 S
C210 O225 1.257 1_545 S
C211 O226 1.240 . S
C211 O227 1.240 . S
C212 Gd201 2.818 1_545 S
C212 C213 1.510 . S
C212 O228 1.249 1_545 S
C212 O229 1.252 . S
C213 C212 1.510 . S
C213 C214 1.404 . S
C213 C215 1.352 . S
C214 C213 1.404 . S
C214 C218 1.389 . S
C214 H236 0.930 1_545 S
C215 C213 1.352 . S
C215 C217 1.374 . S
C215 H237 0.931 . S
C216 C217 1.359 . S
C216 C218 1.364 . S
C217 C215 1.374 . S
C217 C216 1.359 . S
C217 H238 0.931 . S
C218 C214 1.389 . S
C218 C216 1.364 . S
C218 H239 0.931 . S
C219 O230 1.256 . S
C219 O231 1.257 . S
O220 Gd200 2.377 . S
O220 C202 1.240 . S
O221 Gd201 2.395 . S
O221 C202 1.240 . S
O222 Gd200 2.448 . S
O222 C203 1.249 . S
O223 Gd200 2.506 . S
O223 C203 1.252 . S
O224 Gd200 2.435 . S
O224 C210 1.256 1_565 S
O225 Gd200 2.717 . S
O225 Gd201 2.327 . S
O225 C210 1.257 1_565 S
O226 Gd201 2.377 . S
O226 C211 1.240 . S
O227 Gd200 2.395 . S
O227 C211 1.240 . S
O228 Gd201 2.448 . S
O228 C212 1.249 1_565 S
O229 Gd201 2.506 1_545 S
O229 C212 1.252 . S
O230 Gd201 2.435 . S
O230 C219 1.256 . S
O231 Gd200 2.327 . S
O231 Gd201 2.717 . S
O231 C219 1.257 . S
H232 C205 0.930 . S
H233 C206 0.931 . S
H234 C208 0.931 . S
H235 C209 0.931 1_655 S
H236 C214 0.930 1_565 S
H237 C215 0.931 . S
H238 C217 0.931 . S
H239 C218 0.931 . S
H240 C248 0.950 . S
H241 C253 0.950 . S
H242 C250 0.950 . S
H243 C252 0.950 . S
H244 C254 0.950 . S
H245 C256 0.950 . S
H246 C258 0.950 . S
H247 C259 0.950 . S
C248 H240 0.950 . S
C248 C249 1.386 1_556 S
C248 C250 1.391 1_655 S
C249 C248 1.386 1_554 S
C249 C253 1.393 1_545 S
C250 H242 0.950 . S
C250 C248 1.391 1_455 S
C250 C251 1.400 1_556 S
C251 C250 1.400 1_554 S
C251 C252 1.398 . S
C251 C257 1.491 . S
C252 H243 0.950 . S
C252 C251 1.398 . S
C252 C253 1.391 1_445 S
C253 H241 0.950 . S
C253 C249 1.393 1_565 S
C253 C252 1.391 1_665 S
C254 H244 0.950 . S
C254 C255 1.386 . S
C254 C256 1.391 . S
C255 C254 1.386 . S
C255 C259 1.393 1_554 S
C256 H245 0.950 . S
C256 C254 1.391 . S
C256 C257 1.400 . S
C257 C251 1.491 . S
C257 C256 1.400 . S
C257 C258 1.398 1_554 S
C258 H246 0.950 . S
C258 C257 1.398 1_556 S
C258 C259 1.391 . S
C259 H247 0.950 . S
C259 C255 1.393 1_556 S
C259 C258 1.391 . S
H260 C268 0.950 . S
H261 C273 0.950 1_655 S
H262 C270 0.950 . S
H263 C272 0.950 . S
H264 C274 0.950 . S
H265 C276 0.950 . S
H266 C278 0.950 . S
H267 C279 0.950 . S
C268 H260 0.950 . S
C268 C269 1.386 . S
C268 C270 1.391 1_565 S
C269 C268 1.386 . S
C269 C273 1.393 . S
C270 H262 0.950 . S
C270 C268 1.391 1_545 S
C270 C271 1.400 . S
C271 C270 1.400 . S
C271 C272 1.398 . S
C271 C277 1.491 . S
C272 H263 0.950 . S
C272 C271 1.398 . S
C272 C273 1.391 1_545 S
C273 H261 0.950 1_455 S
C273 C269 1.393 . S
C273 C272 1.391 1_565 S
C274 H264 0.950 . S
C274 C275 1.386 . S
C274 C276 1.391 . S
C275 C274 1.386 . S
C275 C279 1.393 . S
C276 H265 0.950 . S
C276 C274 1.391 . S
C276 C277 1.400 . S
C277 C271 1.491 . S
C277 C276 1.400 . S
C277 C278 1.398 . S
C278 H266 0.950 . S
C278 C277 1.398 . S
C278 C279 1.391 . S
C279 H267 0.950 . S
C279 C275 1.393 . S
C279 C278 1.391 . S
H280 C288 0.950 . S
H281 C293 0.950 1_565 S
H282 C290 0.950 . S
H283 C292 0.950 . S
H284 C294 0.950 . S
H285 C296 0.950 . S
H286 C298 0.950 . S
H287 C299 0.950 . S
C288 H280 0.950 . S
C288 C289 1.386 . S
C288 C290 1.391 . S
C289 C288 1.386 . S
C289 C293 1.393 . S
C290 H282 0.950 . S
C290 C288 1.391 . S
C290 C291 1.400 . S
C291 C290 1.400 . S
C291 C292 1.398 . S
C291 C297 1.491 . S
C292 H283 0.950 . S
C292 C291 1.398 . S
C292 C293 1.391 . S
C293 H281 0.950 1_545 S
C293 C289 1.393 . S
C293 C292 1.391 . S
C294 H284 0.950 . S
C294 C295 1.386 1_655 S
C294 C296 1.391 1_655 S
C295 C294 1.386 1_455 S
C295 C299 1.393 . S
C296 H285 0.950 . S
C296 C294 1.391 1_455 S
C296 C297 1.400 . S
C297 C291 1.491 . S
C297 C296 1.400 . S
C297 C298 1.398 . S
C298 H286 0.950 . S
C298 C297 1.398 . S
C298 C299 1.391 . S
C299 H287 0.950 . S
C299 C295 1.393 . S
C299 C298 1.391 . S
H300 C308 0.950 . S
H301 C313 0.950 . S
H302 C310 0.950 . S
H303 C312 0.950 . S
H304 C314 0.950 . S
H305 C316 0.950 . S
H306 C318 0.950 . S
H307 C319 0.950 . S
C308 H300 0.950 . S
C308 C309 1.386 . S
C308 C310 1.391 . S
C309 C308 1.386 . S
C309 C313 1.393 . S
C310 H302 0.950 . S
C310 C308 1.391 . S
C310 C311 1.400 . S
C311 C310 1.400 . S
C311 C312 1.398 . S
C311 C317 1.491 . S
C312 H303 0.950 . S
C312 C311 1.398 . S
C312 C313 1.391 . S
C313 H301 0.950 . S
C313 C309 1.393 . S
C313 C312 1.391 . S
C314 H304 0.950 . S
C314 C315 1.386 . S
C314 C316 1.391 . S
C315 C314 1.386 . S
C315 C319 1.393 . S
C316 H305 0.950 . S
C316 C314 1.391 . S
C316 C317 1.400 . S
C317 C311 1.491 . S
C317 C316 1.400 . S
C317 C318 1.398 . S
C318 H306 0.950 . S
C318 C317 1.398 . S
C318 C319 1.391 . S
C319 H307 0.950 . S
C319 C315 1.393 . S
C319 C318 1.391 . S
H320 C328 0.950 . S
H321 C333 0.950 . S
H322 C330 0.950 . S
H323 C332 0.950 . S
H324 C334 0.950 . S
H325 C336 0.950 1_455 S
H326 C338 0.950 . S
H327 C339 0.950 . S
C328 H320 0.950 . S
C328 C329 1.386 . S
C328 C330 1.391 . S
C329 C328 1.386 . S
C329 C333 1.393 . S
C330 H322 0.950 . S
C330 C328 1.391 . S
C330 C331 1.400 . S
C331 C330 1.400 . S
C331 C332 1.398 . S
C331 C337 1.491 1_455 S
C332 H323 0.950 . S
C332 C331 1.398 . S
C332 C333 1.391 . S
C333 H321 0.950 . S
C333 C329 1.393 . S
C333 C332 1.391 . S
C334 H324 0.950 . S
C334 C335 1.386 . S
C334 C336 1.391 . S
C335 C334 1.386 . S
C335 C339 1.393 . S
C336 H325 0.950 1_655 S
C336 C334 1.391 . S
C336 C337 1.400 . S
C337 C331 1.491 1_655 S
C337 C336 1.400 . S
C337 C338 1.398 . S
C338 H326 0.950 . S
C338 C337 1.398 . S
C338 C339 1.391 . S
C339 H327 0.950 . S
C339 C335 1.393 . S
C339 C338 1.391 . S
H340 C348 0.950 . S
H341 C353 0.950 . S
H342 C350 0.950 . S
H343 C352 0.950 . S
H344 C354 0.950 . S
H345 C356 0.950 1_545 S
H346 C358 0.950 . S
H347 C359 0.950 . S
C348 H340 0.950 . S
C348 C349 1.386 . S
C348 C350 1.391 . S
C349 C348 1.386 . S
C349 C353 1.393 . S
C350 H342 0.950 . S
C350 C348 1.391 . S
C350 C351 1.400 . S
C351 C350 1.400 . S
C351 C352 1.398 . S
C351 C357 1.491 1_545 S
C352 H343 0.950 . S
C352 C351 1.398 . S
C352 C353 1.391 . S
C353 H341 0.950 . S
C353 C349 1.393 . S
C353 C352 1.391 . S
C354 H344 0.950 . S
C354 C355 1.386 . S
C354 C356 1.391 . S
C355 C354 1.386 . S
C355 C359 1.393 . S
C356 H345 0.950 1_565 S
C356 C354 1.391 . S
C356 C357 1.400 . S
C357 C351 1.491 1_565 S
C357 C356 1.400 . S
C357 C358 1.398 . S
C358 H346 0.950 . S
C358 C357 1.398 . S
C358 C359 1.391 . S
C359 H347 0.950 . S
C359 C355 1.393 . S
C359 C358 1.391 . S
H360 C368 0.950 . S
H361 C373 0.950 . S
H362 C370 0.950 . S
H363 C372 0.950 . S
H364 C374 0.950 . S
H365 C376 0.950 . S
H366 C378 0.950 . S
H367 C379 0.950 . S
C368 H360 0.950 . S
C368 C369 1.386 . S
C368 C370 1.391 . S
C369 C368 1.386 . S
C369 C373 1.393 . S
C370 H362 0.950 . S
C370 C368 1.391 . S
C370 C371 1.400 . S
C371 C370 1.400 . S
C371 C372 1.398 . S
C371 C377 1.491 . S
C372 H363 0.950 . S
C372 C371 1.398 . S
C372 C373 1.391 . S
C373 H361 0.950 . S
C373 C369 1.393 . S
C373 C372 1.391 . S
C374 H364 0.950 . S
C374 C375 1.386 . S
C374 C376 1.391 1_455 S
C375 C374 1.386 . S
C375 C379 1.393 1_455 S
C376 H365 0.950 . S
C376 C374 1.391 1_655 S
C376 C377 1.400 . S
C377 C371 1.491 . S
C377 C376 1.400 . S
C377 C378 1.398 . S
C378 H366 0.950 . S
C378 C377 1.398 . S
C378 C379 1.391 . S
C379 H367 0.950 . S
C379 C375 1.393 1_655 S
C379 C378 1.391 . S
H380 C388 0.950 . S
H381 C393 0.950 . S
H382 C390 0.950 . S
H383 C392 0.950 . S
H384 C394 0.950 . S
H385 C396 0.950 . S
H386 C398 0.950 . S
H387 C399 0.950 . S
C388 H380 0.950 . S
C388 C389 1.386 . S
C388 C390 1.391 . S
C389 C388 1.386 . S
C389 C393 1.393 . S
C390 H382 0.950 . S
C390 C388 1.391 . S
C390 C391 1.400 . S
C391 C390 1.400 . S
C391 C392 1.398 . S
C391 C397 1.491 . S
C392 H383 0.950 . S
C392 C391 1.398 . S
C392 C393 1.391 . S
C393 H381 0.950 . S
C393 C389 1.393 . S
C393 C392 1.391 . S
C394 H384 0.950 . S
C394 C395 1.386 . S
C394 C396 1.391 1_545 S
C395 C394 1.386 . S
C395 C399 1.393 1_545 S
C396 H385 0.950 . S
C396 C394 1.391 1_565 S
C396 C397 1.400 . S
C397 C391 1.491 . S
C397 C396 1.400 . S
C397 C398 1.398 . S
C398 H386 0.950 . S
C398 C397 1.398 . S
C398 C399 1.391 . S
C399 H387 0.950 . S
C399 C395 1.393 1_565 S
C399 C398 1.391 . S
H400 C408 0.950 . S
H401 C413 0.950 . S
H402 C410 0.950 . S
H403 C412 0.950 . S
H404 C414 0.950 . S
H405 C416 0.950 . S
H406 C418 0.950 . S
H407 C419 0.950 . S
C408 H400 0.950 . S
C408 C409 1.386 . S
C408 C410 1.391 . S
C409 C408 1.386 . S
C409 C413 1.393 . S
C410 H402 0.950 . S
C410 C408 1.391 . S
C410 C411 1.400 . S
C411 C410 1.400 . S
C411 C412 1.398 . S
C411 C417 1.491 . S
C412 H403 0.950 . S
C412 C411 1.398 . S
C412 C413 1.391 . S
C413 H401 0.950 . S
C413 C409 1.393 . S
C413 C412 1.391 . S
C414 H404 0.950 . S
C414 C415 1.386 . S
C414 C416 1.391 . S
C415 C414 1.386 . S
C415 C419 1.393 . S
C416 H405 0.950 . S
C416 C414 1.391 . S
C416 C417 1.400 . S
C417 C411 1.491 . S
C417 C416 1.400 . S
C417 C418 1.398 . S
C418 H406 0.950 . S
C418 C417 1.398 . S
C418 C419 1.391 . S
C419 H407 0.950 . S
C419 C415 1.393 . S
C419 C418 1.391 . S
H420 C428 0.948 . S
H421 C433 0.950 . S
H422 C430 0.959 . S
H423 C432 0.950 . S
H424 C434 0.950 . S
H425 C436 0.950 . S
H426 C438 0.950 . S
H427 C439 0.950 . S
C428 H420 0.948 . S
C428 C429 1.386 . S
C428 C430 1.391 . S
C429 C428 1.386 . S
C429 C433 1.393 . S
C430 H422 0.959 . S
C430 C428 1.391 . S
C430 C431 1.400 . S
C431 C430 1.400 . S
C431 C432 1.398 . S
C431 C437 1.491 . S
C432 H423 0.950 . S
C432 C431 1.398 . S
C432 C433 1.391 . S
C433 H421 0.950 . S
C433 C429 1.393 . S
C433 C432 1.391 . S
C434 H424 0.950 . S
C434 C435 1.386 . S
C434 C436 1.391 . S
C435 C434 1.386 . S
C435 C439 1.393 1_545 S
C436 H425 0.950 . S
C436 C434 1.391 . S
C436 C437 1.400 . S
C437 C431 1.491 . S
C437 C436 1.400 . S
C437 C438 1.398 . S
C438 H426 0.950 . S
C438 C437 1.398 . S
C438 C439 1.391 1_545 S
C439 H427 0.950 . S
C439 C435 1.393 1_565 S
C439 C438 1.391 1_565 S
H440 C448 0.950 . S
H441 C453 0.950 . S
H442 C450 0.950 . S
H443 C452 0.950 . S
H444 C454 0.950 . S
H445 C456 0.950 . S
H446 C458 0.950 . S
H447 C459 0.950 . S
C448 H440 0.950 . S
C448 C449 1.386 . S
C448 C450 1.391 . S
C449 C448 1.386 . S
C449 C453 1.393 . S
C450 H442 0.950 . S
C450 C448 1.391 . S
C450 C451 1.400 . S
C451 C450 1.400 . S
C451 C452 1.398 . S
C451 C457 1.491 . S
C452 H443 0.950 . S
C452 C451 1.398 . S
C452 C453 1.391 . S
C453 H441 0.950 . S
C453 C449 1.393 . S
C453 C452 1.391 . S
C454 H444 0.950 . S
C454 C455 1.386 . S
C454 C456 1.391 . S
C455 C454 1.386 . S
C455 C459 1.393 . S
C456 H445 0.950 . S
C456 C454 1.391 . S
C456 C457 1.400 . S
C457 C451 1.491 . S
C457 C456 1.400 . S
C457 C458 1.398 . S
C458 H446 0.950 . S
C458 C457 1.398 . S
C458 C459 1.391 . S
C459 H447 0.950 . S
C459 C455 1.393 . S
C459 C458 1.391 . S
H460 C468 0.950 . S
H461 C473 0.950 . S
H462 C470 0.950 . S
H463 C472 0.950 . S
H464 C474 0.950 . S
H465 C476 0.950 . S
H466 C478 0.950 . S
H467 C479 0.950 . S
C468 H460 0.950 . S
C468 C469 1.386 . S
C468 C470 1.391 . S
C469 C468 1.386 . S
C469 C473 1.393 . S
C470 H462 0.950 . S
C470 C468 1.391 . S
C470 C471 1.400 . S
C471 C470 1.400 . S
C471 C472 1.398 . S
C471 C477 1.491 . S
C472 H463 0.950 . S
C472 C471 1.398 . S
C472 C473 1.391 . S
C473 H461 0.950 . S
C473 C469 1.393 . S
C473 C472 1.391 . S
C474 H464 0.950 . S
C474 C475 1.386 . S
C474 C476 1.391 . S
C475 C474 1.386 . S
C475 C479 1.393 . S
C476 H465 0.950 . S
C476 C474 1.391 . S
C476 C477 1.400 . S
C477 C471 1.491 . S
C477 C476 1.400 . S
C477 C478 1.398 . S
C478 H466 0.950 . S
C478 C477 1.398 . S
C478 C479 1.391 . S
C479 H467 0.950 . S
C479 C475 1.393 . S
C479 C478 1.391 . S
H480 C488 0.950 . S
H481 C493 0.950 . S
H482 C490 0.950 . S
H483 C492 0.950 . S
H484 C494 0.950 . S
H485 C496 0.950 . S
H486 C498 0.950 . S
H487 C499 0.950 . S
C488 H480 0.950 . S
C488 C489 1.386 . S
C488 C490 1.391 . S
C489 C488 1.386 . S
C489 C493 1.393 . S
C490 H482 0.950 . S
C490 C488 1.391 . S
C490 C491 1.400 . S
C491 C490 1.400 . S
C491 C492 1.398 . S
C491 C497 1.491 . S
C492 H483 0.950 . S
C492 C491 1.398 . S
C492 C493 1.391 . S
C493 H481 0.950 . S
C493 C489 1.393 . S
C493 C492 1.391 . S
C494 H484 0.950 . S
C494 C495 1.386 . S
C494 C496 1.391 . S
C495 C494 1.386 . S
C495 C499 1.393 . S
C496 H485 0.950 . S
C496 C494 1.391 . S
C496 C497 1.400 . S
C497 C491 1.491 . S
C497 C496 1.400 . S
C497 C498 1.398 . S
C498 H486 0.950 . S
C498 C497 1.398 . S
C498 C499 1.391 . S
C499 H487 0.950 . S
C499 C495 1.393 . S
C499 C498 1.391 . S
H500 C508 0.950 . S
H501 C513 0.950 . S
H502 C510 0.950 . S
H503 C512 0.950 . S
H504 C514 0.950 . S
H505 C516 0.950 . S
H506 C518 0.950 . S
H507 C519 0.950 . S
C508 H500 0.950 . S
C508 C509 1.386 . S
C508 C510 1.391 . S
C509 C508 1.386 . S
C509 C513 1.393 . S
C510 H502 0.950 . S
C510 C508 1.391 . S
C510 C511 1.400 . S
C511 C510 1.400 . S
C511 C512 1.398 . S
C511 C517 1.491 . S
C512 H503 0.950 . S
C512 C511 1.398 . S
C512 C513 1.391 . S
C513 H501 0.950 . S
C513 C509 1.393 . S
C513 C512 1.391 . S
C514 H504 0.950 . S
C514 C515 1.386 . S
C514 C516 1.391 . S
C515 C514 1.386 . S
C515 C519 1.393 . S
C516 H505 0.950 . S
C516 C514 1.391 . S
C516 C517 1.400 . S
C517 C511 1.491 . S
C517 C516 1.400 . S
C517 C518 1.398 . S
C518 H506 0.950 . S
C518 C517 1.398 . S
C518 C519 1.391 . S
C519 H507 0.950 . S
C519 C515 1.393 . S
C519 C518 1.391 . S
H520 C528 0.950 . S
H521 C533 0.950 1_455 S
H522 C530 0.950 . S
H523 C532 0.950 . S
H524 C534 0.950 . S
H525 C536 0.950 . S
H526 C538 0.950 . S
H527 C539 0.950 . S
C528 H520 0.950 . S
C528 C529 1.386 . S
C528 C530 1.391 . S
C529 C528 1.386 . S
C529 C533 1.393 . S
C530 H522 0.950 . S
C530 C528 1.391 . S
C530 C531 1.400 . S
C531 C530 1.400 . S
C531 C532 1.398 . S
C531 C537 1.491 . S
C532 H523 0.950 . S
C532 C531 1.398 . S
C532 C533 1.391 . S
C533 H521 0.950 1_655 S
C533 C529 1.393 . S
C533 C532 1.391 . S
C534 H524 0.950 . S
C534 C535 1.386 . S
C534 C536 1.391 . S
C535 C534 1.386 . S
C535 C539 1.393 . S
C536 H525 0.950 . S
C536 C534 1.391 . S
C536 C537 1.400 . S
C537 C531 1.491 . S
C537 C536 1.400 . S
C537 C538 1.398 . S
C538 H526 0.950 . S
C538 C537 1.398 . S
C538 C539 1.391 . S
C539 H527 0.950 . S
C539 C535 1.393 . S
C539 C538 1.391 . S
H540 C548 0.950 . S
H541 C553 0.950 1_545 S
H542 C550 0.950 . S
H543 C552 0.950 . S
H544 C554 0.950 . S
H545 C556 0.950 . S
H546 C558 0.950 . S
H547 C559 0.950 . S
C548 H540 0.950 . S
C548 C549 1.386 . S
C548 C550 1.391 . S
C549 C548 1.386 . S
C549 C553 1.393 . S
C550 H542 0.950 . S
C550 C548 1.391 . S
C550 C551 1.400 . S
C551 C550 1.400 . S
C551 C552 1.398 . S
C551 C557 1.491 . S
C552 H543 0.950 . S
C552 C551 1.398 . S
C552 C553 1.391 . S
C553 H541 0.950 1_565 S
C553 C549 1.393 . S
C553 C552 1.391 . S
C554 H544 0.950 . S
C554 C555 1.386 . S
C554 C556 1.391 . S
C555 C554 1.386 . S
C555 C559 1.393 . S
C556 H545 0.950 . S
C556 C554 1.391 . S
C556 C557 1.400 . S
C557 C551 1.491 . S
C557 C556 1.400 . S
C557 C558 1.398 . S
C558 H546 0.950 . S
C558 C557 1.398 . S
C558 C559 1.391 . S
C559 H547 0.950 . S
C559 C555 1.393 . S
C559 C558 1.391 . S
H560 C568 0.950 . S
H561 C573 0.950 . S
H562 C570 0.950 . S
H563 C572 0.950 . S
H564 C574 0.950 . S
H565 C576 0.950 1_655 S
H566 C578 0.950 . S
H567 C579 0.950 . S
C568 H560 0.950 . S
C568 C569 1.386 . S
C568 C570 1.391 . S
C569 C568 1.386 . S
C569 C573 1.393 1_455 S
C570 H562 0.950 . S
C570 C568 1.391 . S
C570 C571 1.400 . S
C571 C570 1.400 . S
C571 C572 1.398 1_455 S
C571 C577 1.491 . S
C572 H563 0.950 . S
C572 C571 1.398 1_655 S
C572 C573 1.391 . S
C573 H561 0.950 . S
C573 C569 1.393 1_655 S
C573 C572 1.391 . S
C574 H564 0.950 . S
C574 C575 1.386 . S
C574 C576 1.391 . S
C575 C574 1.386 . S
C575 C579 1.393 . S
C576 H565 0.950 1_455 S
C576 C574 1.391 . S
C576 C577 1.400 . S
C577 C571 1.491 . S
C577 C576 1.400 . S
C577 C578 1.398 . S
C578 H566 0.950 . S
C578 C577 1.398 . S
C578 C579 1.391 . S
C579 H567 0.950 . S
C579 C575 1.393 . S
C579 C578 1.391 . S
H580 C588 0.950 . S
H581 C593 0.950 . S
H582 C590 0.950 . S
H583 C592 0.950 . S
H584 C594 0.950 . S
H585 C596 0.950 1_565 S
H586 C598 0.950 . S
H587 C599 0.950 . S
C588 H580 0.950 . S
C588 C589 1.386 . S
C588 C590 1.391 . S
C589 C588 1.386 . S
C589 C593 1.393 1_545 S
C590 H582 0.950 . S
C590 C588 1.391 . S
C590 C591 1.400 . S
C591 C590 1.400 . S
C591 C592 1.398 1_545 S
C591 C597 1.491 . S
C592 H583 0.950 . S
C592 C591 1.398 1_565 S
C592 C593 1.391 . S
C593 H581 0.950 . S
C593 C589 1.393 1_565 S
C593 C592 1.391 . S
C594 H584 0.950 . S
C594 C595 1.386 . S
C594 C596 1.391 . S
C595 C594 1.386 . S
C595 C599 1.393 . S
C596 H585 0.950 1_545 S
C596 C594 1.391 . S
C596 C597 1.400 . S
C597 C591 1.491 . S
C597 C596 1.400 . S
C597 C598 1.398 . S
C598 H586 0.950 . S
C598 C597 1.398 . S
C598 C599 1.391 . S
C599 H587 0.950 . S
C599 C595 1.393 . S
C599 C598 1.391 . S
C249 C130 0.597 . S
C255 C10 0.632 . S
C269 C170 0.673 . S
C275 C50 0.645 . S
C289 C210 0.656 . S
C295 C90 0.619 . S
C309 C16 0.782 . S
C315 C87 0.781 . S
C329 C56 0.764 . S
C335 C127 0.730 . S
C349 C96 0.790 . S
C355 C167 0.772 . S
C369 C136 0.789 . S
C375 C207 0.774 . S
C389 C176 0.783 . S
C395 C7 0.780 . S
C409 C216 0.760 . S
C415 C47 0.778 . S
C429 C19 1.335 . S
C435 C139 1.350 1_545 S
C449 C59 1.334 . S
C455 C179 1.326 . S
C469 C99 1.328 1_455 S
C475 C219 1.334 . S
C489 C2 4.045 . S
C495 C51 4.097 . S
C509 C42 4.051 . S
C515 C91 4.099 . S
C529 C82 4.044 . S
C535 C131 4.099 . S
C549 C122 4.043 . S
C555 C171 4.098 . S
C569 C162 4.044 1_455 S
C575 C211 4.097 . S
C589 C202 4.044 1_545 S
C595 C11 4.097 . S
