# Generated by pormake.
# Topology sxh, (6)-cn, num edge types: 1
# Building blocks:
#     Node 0, Type 0, BuildingBlock: IZENUY_clean_sbu_0, # of connection points: 6
#     Node 1, Type 0, BuildingBlock: IZENUY_clean_sbu_0, # of connection points: 6
#     Node 2, Type 0, BuildingBlock: IZENUY_clean_sbu_0, # of connection points: 6
#     Node 3, Type 0, BuildingBlock: IZENUY_clean_sbu_0, # of connection points: 6
#     Node 4, Type 0, BuildingBlock: IZENUY_clean_sbu_0, # of connection points: 6
#     Node 5, Type 0, BuildingBlock: IZENUY_clean_sbu_0, # of connection points: 6
#     Node 6, Type 0, BuildingBlock: IZENUY_clean_sbu_0, # of connection points: 6
#     Node 7, Type 0, BuildingBlock: IZENUY_clean_sbu_0, # of connection points: 6
#     Node 8, Type 0, BuildingBlock: IZENUY_clean_sbu_0, # of connection points: 6
#     Node 9, Type 0, BuildingBlock: IZENUY_clean_sbu_0, # of connection points: 6
#     Node 10, Type 0, BuildingBlock: IZENUY_clean_sbu_0, # of connection points: 6
#     Node 11, Type 0, BuildingBlock: IZENUY_clean_sbu_0, # of connection points: 6
#     Node 12, Type 0, BuildingBlock: IZENUY_clean_sbu_0, # of connection points: 6
#     Node 13, Type 0, BuildingBlock: IZENUY_clean_sbu_0, # of connection points: 6
#     Node 14, Type 0, BuildingBlock: IZENUY_clean_sbu_0, # of connection points: 6
#     Node 15, Type 0, BuildingBlock: IZENUY_clean_sbu_0, # of connection points: 6
#     Node 16, Type 0, BuildingBlock: IZENUY_clean_sbu_0, # of connection points: 6
#     Node 17, Type 0, BuildingBlock: IZENUY_clean_sbu_0, # of connection points: 6
#     Node 18, Type 0, BuildingBlock: IZENUY_clean_sbu_0, # of connection points: 6
#     Node 19, Type 0, BuildingBlock: IZENUY_clean_sbu_0, # of connection points: 6
#     Node 20, Type 0, BuildingBlock: IZENUY_clean_sbu_0, # of connection points: 6
#     Node 21, Type 0, BuildingBlock: IZENUY_clean_sbu_0, # of connection points: 6
#     Node 22, Type 0, BuildingBlock: IZENUY_clean_sbu_0, # of connection points: 6
#     Node 23, Type 0, BuildingBlock: IZENUY_clean_sbu_0, # of connection points: 6
#     Node 24, Type 0, BuildingBlock: IZENUY_clean_sbu_0, # of connection points: 6
#     Node 25, Type 0, BuildingBlock: IZENUY_clean_sbu_0, # of connection points: 6
#     Node 26, Type 0, BuildingBlock: IZENUY_clean_sbu_0, # of connection points: 6
#     Node 27, Type 0, BuildingBlock: IZENUY_clean_sbu_0, # of connection points: 6
#     Node 28, Type 0, BuildingBlock: IZENUY_clean_sbu_0, # of connection points: 6
#     Node 29, Type 0, BuildingBlock: IZENUY_clean_sbu_0, # of connection points: 6
#     Node 30, Type 0, BuildingBlock: IZENUY_clean_sbu_0, # of connection points: 6
#     Node 31, Type 0, BuildingBlock: IZENUY_clean_sbu_0, # of connection points: 6
#     Node 32, Type 0, BuildingBlock: IZENUY_clean_sbu_0, # of connection points: 6
#     Node 33, Type 0, BuildingBlock: IZENUY_clean_sbu_0, # of connection points: 6
#     Node 34, Type 0, BuildingBlock: IZENUY_clean_sbu_0, # of connection points: 6
#     Node 35, Type 0, BuildingBlock: IZENUY_clean_sbu_0, # of connection points: 6
#     Node 36, Type 0, BuildingBlock: IZENUY_clean_sbu_0, # of connection points: 6
#     Node 37, Type 0, BuildingBlock: IZENUY_clean_sbu_0, # of connection points: 6
#     Node 38, Type 0, BuildingBlock: IZENUY_clean_sbu_0, # of connection points: 6
#     Node 39, Type 0, BuildingBlock: IZENUY_clean_sbu_0, # of connection points: 6
#     Node 40, Type 0, BuildingBlock: IZENUY_clean_sbu_0, # of connection points: 6
#     Node 41, Type 0, BuildingBlock: IZENUY_clean_sbu_0, # of connection points: 6
#     Node 42, Type 0, BuildingBlock: IZENUY_clean_sbu_0, # of connection points: 6
#     Node 43, Type 0, BuildingBlock: IZENUY_clean_sbu_0, # of connection points: 6
#     Node 44, Type 0, BuildingBlock: IZENUY_clean_sbu_0, # of connection points: 6
#     Node 45, Type 0, BuildingBlock: IZENUY_clean_sbu_0, # of connection points: 6
#     Node 46, Type 0, BuildingBlock: IZENUY_clean_sbu_0, # of connection points: 6
#     Node 47, Type 0, BuildingBlock: IZENUY_clean_sbu_0, # of connection points: 6
#     Edge 48, Type (0, 0), BuildingBlock: OJICUG_clean_linker_0, # of connection points: 2
#     Edge 49, Type (0, 0), BuildingBlock: OJICUG_clean_linker_0, # of connection points: 2
#     Edge 50, Type (0, 0), BuildingBlock: OJICUG_clean_linker_0, # of connection points: 2
#     Edge 51, Type (0, 0), BuildingBlock: OJICUG_clean_linker_0, # of connection points: 2
#     Edge 52, Type (0, 0), BuildingBlock: OJICUG_clean_linker_0, # of connection points: 2
#     Edge 53, Type (0, 0), BuildingBlock: OJICUG_clean_linker_0, # of connection points: 2
#     Edge 54, Type (0, 0), BuildingBlock: OJICUG_clean_linker_0, # of connection points: 2
#     Edge 55, Type (0, 0), BuildingBlock: OJICUG_clean_linker_0, # of connection points: 2
#     Edge 56, Type (0, 0), BuildingBlock: OJICUG_clean_linker_0, # of connection points: 2
#     Edge 57, Type (0, 0), BuildingBlock: OJICUG_clean_linker_0, # of connection points: 2
#     Edge 58, Type (0, 0), BuildingBlock: OJICUG_clean_linker_0, # of connection points: 2
#     Edge 59, Type (0, 0), BuildingBlock: OJICUG_clean_linker_0, # of connection points: 2
#     Edge 60, Type (0, 0), BuildingBlock: OJICUG_clean_linker_0, # of connection points: 2
#     Edge 61, Type (0, 0), BuildingBlock: OJICUG_clean_linker_0, # of connection points: 2
#     Edge 62, Type (0, 0), BuildingBlock: OJICUG_clean_linker_0, # of connection points: 2
#     Edge 63, Type (0, 0), BuildingBlock: OJICUG_clean_linker_0, # of connection points: 2
#     Edge 64, Type (0, 0), BuildingBlock: OJICUG_clean_linker_0, # of connection points: 2
#     Edge 65, Type (0, 0), BuildingBlock: OJICUG_clean_linker_0, # of connection points: 2
#     Edge 66, Type (0, 0), BuildingBlock: OJICUG_clean_linker_0, # of connection points: 2
#     Edge 67, Type (0, 0), BuildingBlock: OJICUG_clean_linker_0, # of connection points: 2
#     Edge 68, Type (0, 0), BuildingBlock: OJICUG_clean_linker_0, # of connection points: 2
#     Edge 69, Type (0, 0), BuildingBlock: OJICUG_clean_linker_0, # of connection points: 2
#     Edge 70, Type (0, 0), BuildingBlock: OJICUG_clean_linker_0, # of connection points: 2
#     Edge 71, Type (0, 0), BuildingBlock: OJICUG_clean_linker_0, # of connection points: 2
#     Edge 72, Type (0, 0), BuildingBlock: OJICUG_clean_linker_0, # of connection points: 2
#     Edge 73, Type (0, 0), BuildingBlock: OJICUG_clean_linker_0, # of connection points: 2
#     Edge 74, Type (0, 0), BuildingBlock: OJICUG_clean_linker_0, # of connection points: 2
#     Edge 75, Type (0, 0), BuildingBlock: OJICUG_clean_linker_0, # of connection points: 2
#     Edge 76, Type (0, 0), BuildingBlock: OJICUG_clean_linker_0, # of connection points: 2
#     Edge 77, Type (0, 0), BuildingBlock: OJICUG_clean_linker_0, # of connection points: 2
#     Edge 78, Type (0, 0), BuildingBlock: OJICUG_clean_linker_0, # of connection points: 2
#     Edge 79, Type (0, 0), BuildingBlock: OJICUG_clean_linker_0, # of connection points: 2
#     Edge 80, Type (0, 0), BuildingBlock: OJICUG_clean_linker_0, # of connection points: 2
#     Edge 81, Type (0, 0), BuildingBlock: OJICUG_clean_linker_0, # of connection points: 2
#     Edge 82, Type (0, 0), BuildingBlock: OJICUG_clean_linker_0, # of connection points: 2
#     Edge 83, Type (0, 0), BuildingBlock: OJICUG_clean_linker_0, # of connection points: 2
#     Edge 84, Type (0, 0), BuildingBlock: OJICUG_clean_linker_0, # of connection points: 2
#     Edge 85, Type (0, 0), BuildingBlock: OJICUG_clean_linker_0, # of connection points: 2
#     Edge 86, Type (0, 0), BuildingBlock: OJICUG_clean_linker_0, # of connection points: 2
#     Edge 87, Type (0, 0), BuildingBlock: OJICUG_clean_linker_0, # of connection points: 2
#     Edge 88, Type (0, 0), BuildingBlock: OJICUG_clean_linker_0, # of connection points: 2
#     Edge 89, Type (0, 0), BuildingBlock: OJICUG_clean_linker_0, # of connection points: 2
#     Edge 90, Type (0, 0), BuildingBlock: OJICUG_clean_linker_0, # of connection points: 2
#     Edge 91, Type (0, 0), BuildingBlock: OJICUG_clean_linker_0, # of connection points: 2
#     Edge 92, Type (0, 0), BuildingBlock: OJICUG_clean_linker_0, # of connection points: 2
#     Edge 93, Type (0, 0), BuildingBlock: OJICUG_clean_linker_0, # of connection points: 2
#     Edge 94, Type (0, 0), BuildingBlock: OJICUG_clean_linker_0, # of connection points: 2
#     Edge 95, Type (0, 0), BuildingBlock: OJICUG_clean_linker_0, # of connection points: 2
#     Edge 96, Type (0, 0), BuildingBlock: OJICUG_clean_linker_0, # of connection points: 2
#     Edge 97, Type (0, 0), BuildingBlock: OJICUG_clean_linker_0, # of connection points: 2
#     Edge 98, Type (0, 0), BuildingBlock: OJICUG_clean_linker_0, # of connection points: 2
#     Edge 99, Type (0, 0), BuildingBlock: OJICUG_clean_linker_0, # of connection points: 2
#     Edge 100, Type (0, 0), BuildingBlock: OJICUG_clean_linker_0, # of connection points: 2
#     Edge 101, Type (0, 0), BuildingBlock: OJICUG_clean_linker_0, # of connection points: 2
#     Edge 102, Type (0, 0), BuildingBlock: OJICUG_clean_linker_0, # of connection points: 2
#     Edge 103, Type (0, 0), BuildingBlock: OJICUG_clean_linker_0, # of connection points: 2
#     Edge 104, Type (0, 0), BuildingBlock: OJICUG_clean_linker_0, # of connection points: 2
#     Edge 105, Type (0, 0), BuildingBlock: OJICUG_clean_linker_0, # of connection points: 2
#     Edge 106, Type (0, 0), BuildingBlock: OJICUG_clean_linker_0, # of connection points: 2
#     Edge 107, Type (0, 0), BuildingBlock: OJICUG_clean_linker_0, # of connection points: 2
#     Edge 108, Type (0, 0), BuildingBlock: OJICUG_clean_linker_0, # of connection points: 2
#     Edge 109, Type (0, 0), BuildingBlock: OJICUG_clean_linker_0, # of connection points: 2
#     Edge 110, Type (0, 0), BuildingBlock: OJICUG_clean_linker_0, # of connection points: 2
#     Edge 111, Type (0, 0), BuildingBlock: OJICUG_clean_linker_0, # of connection points: 2
#     Edge 112, Type (0, 0), BuildingBlock: OJICUG_clean_linker_0, # of connection points: 2
#     Edge 113, Type (0, 0), BuildingBlock: OJICUG_clean_linker_0, # of connection points: 2
#     Edge 114, Type (0, 0), BuildingBlock: OJICUG_clean_linker_0, # of connection points: 2
#     Edge 115, Type (0, 0), BuildingBlock: OJICUG_clean_linker_0, # of connection points: 2
#     Edge 116, Type (0, 0), BuildingBlock: OJICUG_clean_linker_0, # of connection points: 2
#     Edge 117, Type (0, 0), BuildingBlock: OJICUG_clean_linker_0, # of connection points: 2
#     Edge 118, Type (0, 0), BuildingBlock: OJICUG_clean_linker_0, # of connection points: 2
#     Edge 119, Type (0, 0), BuildingBlock: OJICUG_clean_linker_0, # of connection points: 2
#     Edge 120, Type (0, 0), BuildingBlock: OJICUG_clean_linker_0, # of connection points: 2
#     Edge 121, Type (0, 0), BuildingBlock: OJICUG_clean_linker_0, # of connection points: 2
#     Edge 122, Type (0, 0), BuildingBlock: OJICUG_clean_linker_0, # of connection points: 2
#     Edge 123, Type (0, 0), BuildingBlock: OJICUG_clean_linker_0, # of connection points: 2
#     Edge 124, Type (0, 0), BuildingBlock: OJICUG_clean_linker_0, # of connection points: 2
#     Edge 125, Type (0, 0), BuildingBlock: OJICUG_clean_linker_0, # of connection points: 2
#     Edge 126, Type (0, 0), BuildingBlock: OJICUG_clean_linker_0, # of connection points: 2
#     Edge 127, Type (0, 0), BuildingBlock: OJICUG_clean_linker_0, # of connection points: 2
#     Edge 128, Type (0, 0), BuildingBlock: OJICUG_clean_linker_0, # of connection points: 2
#     Edge 129, Type (0, 0), BuildingBlock: OJICUG_clean_linker_0, # of connection points: 2
#     Edge 130, Type (0, 0), BuildingBlock: OJICUG_clean_linker_0, # of connection points: 2
#     Edge 131, Type (0, 0), BuildingBlock: OJICUG_clean_linker_0, # of connection points: 2
#     Edge 132, Type (0, 0), BuildingBlock: OJICUG_clean_linker_0, # of connection points: 2
#     Edge 133, Type (0, 0), BuildingBlock: OJICUG_clean_linker_0, # of connection points: 2
#     Edge 134, Type (0, 0), BuildingBlock: OJICUG_clean_linker_0, # of connection points: 2
#     Edge 135, Type (0, 0), BuildingBlock: OJICUG_clean_linker_0, # of connection points: 2
#     Edge 136, Type (0, 0), BuildingBlock: OJICUG_clean_linker_0, # of connection points: 2
#     Edge 137, Type (0, 0), BuildingBlock: OJICUG_clean_linker_0, # of connection points: 2
#     Edge 138, Type (0, 0), BuildingBlock: OJICUG_clean_linker_0, # of connection points: 2
#     Edge 139, Type (0, 0), BuildingBlock: OJICUG_clean_linker_0, # of connection points: 2
#     Edge 140, Type (0, 0), BuildingBlock: OJICUG_clean_linker_0, # of connection points: 2
#     Edge 141, Type (0, 0), BuildingBlock: OJICUG_clean_linker_0, # of connection points: 2
#     Edge 142, Type (0, 0), BuildingBlock: OJICUG_clean_linker_0, # of connection points: 2
#     Edge 143, Type (0, 0), BuildingBlock: OJICUG_clean_linker_0, # of connection points: 2
#     Edge 144, Type (0, 0), BuildingBlock: OJICUG_clean_linker_0, # of connection points: 2
#     Edge 145, Type (0, 0), BuildingBlock: OJICUG_clean_linker_0, # of connection points: 2
#     Edge 146, Type (0, 0), BuildingBlock: OJICUG_clean_linker_0, # of connection points: 2
#     Edge 147, Type (0, 0), BuildingBlock: OJICUG_clean_linker_0, # of connection points: 2
#     Edge 148, Type (0, 0), BuildingBlock: OJICUG_clean_linker_0, # of connection points: 2
#     Edge 149, Type (0, 0), BuildingBlock: OJICUG_clean_linker_0, # of connection points: 2
#     Edge 150, Type (0, 0), BuildingBlock: OJICUG_clean_linker_0, # of connection points: 2
#     Edge 151, Type (0, 0), BuildingBlock: OJICUG_clean_linker_0, # of connection points: 2
#     Edge 152, Type (0, 0), BuildingBlock: OJICUG_clean_linker_0, # of connection points: 2
#     Edge 153, Type (0, 0), BuildingBlock: OJICUG_clean_linker_0, # of connection points: 2
#     Edge 154, Type (0, 0), BuildingBlock: OJICUG_clean_linker_0, # of connection points: 2
#     Edge 155, Type (0, 0), BuildingBlock: OJICUG_clean_linker_0, # of connection points: 2
#     Edge 156, Type (0, 0), BuildingBlock: OJICUG_clean_linker_0, # of connection points: 2
#     Edge 157, Type (0, 0), BuildingBlock: OJICUG_clean_linker_0, # of connection points: 2
#     Edge 158, Type (0, 0), BuildingBlock: OJICUG_clean_linker_0, # of connection points: 2
#     Edge 159, Type (0, 0), BuildingBlock: OJICUG_clean_linker_0, # of connection points: 2
#     Edge 160, Type (0, 0), BuildingBlock: OJICUG_clean_linker_0, # of connection points: 2
#     Edge 161, Type (0, 0), BuildingBlock: OJICUG_clean_linker_0, # of connection points: 2
#     Edge 162, Type (0, 0), BuildingBlock: OJICUG_clean_linker_0, # of connection points: 2
#     Edge 163, Type (0, 0), BuildingBlock: OJICUG_clean_linker_0, # of connection points: 2
#     Edge 164, Type (0, 0), BuildingBlock: OJICUG_clean_linker_0, # of connection points: 2
#     Edge 165, Type (0, 0), BuildingBlock: OJICUG_clean_linker_0, # of connection points: 2
#     Edge 166, Type (0, 0), BuildingBlock: OJICUG_clean_linker_0, # of connection points: 2
#     Edge 167, Type (0, 0), BuildingBlock: OJICUG_clean_linker_0, # of connection points: 2
#     Edge 168, Type (0, 0), BuildingBlock: OJICUG_clean_linker_0, # of connection points: 2
#     Edge 169, Type (0, 0), BuildingBlock: OJICUG_clean_linker_0, # of connection points: 2
#     Edge 170, Type (0, 0), BuildingBlock: OJICUG_clean_linker_0, # of connection points: 2
#     Edge 171, Type (0, 0), BuildingBlock: OJICUG_clean_linker_0, # of connection points: 2
#     Edge 172, Type (0, 0), BuildingBlock: OJICUG_clean_linker_0, # of connection points: 2
#     Edge 173, Type (0, 0), BuildingBlock: OJICUG_clean_linker_0, # of connection points: 2
#     Edge 174, Type (0, 0), BuildingBlock: OJICUG_clean_linker_0, # of connection points: 2
#     Edge 175, Type (0, 0), BuildingBlock: OJICUG_clean_linker_0, # of connection points: 2
#     Edge 176, Type (0, 0), BuildingBlock: OJICUG_clean_linker_0, # of connection points: 2
#     Edge 177, Type (0, 0), BuildingBlock: OJICUG_clean_linker_0, # of connection points: 2
#     Edge 178, Type (0, 0), BuildingBlock: OJICUG_clean_linker_0, # of connection points: 2
#     Edge 179, Type (0, 0), BuildingBlock: OJICUG_clean_linker_0, # of connection points: 2
#     Edge 180, Type (0, 0), BuildingBlock: OJICUG_clean_linker_0, # of connection points: 2
#     Edge 181, Type (0, 0), BuildingBlock: OJICUG_clean_linker_0, # of connection points: 2
#     Edge 182, Type (0, 0), BuildingBlock: OJICUG_clean_linker_0, # of connection points: 2
#     Edge 183, Type (0, 0), BuildingBlock: OJICUG_clean_linker_0, # of connection points: 2
#     Edge 184, Type (0, 0), BuildingBlock: OJICUG_clean_linker_0, # of connection points: 2
#     Edge 185, Type (0, 0), BuildingBlock: OJICUG_clean_linker_0, # of connection points: 2
#     Edge 186, Type (0, 0), BuildingBlock: OJICUG_clean_linker_0, # of connection points: 2
#     Edge 187, Type (0, 0), BuildingBlock: OJICUG_clean_linker_0, # of connection points: 2
#     Edge 188, Type (0, 0), BuildingBlock: OJICUG_clean_linker_0, # of connection points: 2
#     Edge 189, Type (0, 0), BuildingBlock: OJICUG_clean_linker_0, # of connection points: 2
#     Edge 190, Type (0, 0), BuildingBlock: OJICUG_clean_linker_0, # of connection points: 2
#     Edge 191, Type (0, 0), BuildingBlock: OJICUG_clean_linker_0, # of connection points: 2
# Relax obj value: 0.253
# Max RMSD: 0.279
# Mean RMSD: 0.277
data_MOF--net-sxh--node1-IZENUY_clean_sbu_0--edge1-OJICUG_clean_linker_0
_symmetry_space_group_name_H-M    P1
_symmetry_Int_Tables_number       1
_symmetry_cell_setting            triclinic
loop_
_symmetry_equiv_pos_as_xyz
'x, y, z'
_cell_length_a     39.94096
_cell_length_b     39.957582
_cell_length_c     40.006329
_cell_angle_alpha  89.933494
_cell_angle_beta   89.897022
_cell_angle_gamma 89.899205
loop_
_atom_site_label
_atom_site_type_symbol
_atom_site_fract_x
_atom_site_fract_y
_atom_site_fract_z
_atom_type_partial_charge
Fe0 Fe 0.06869 0.15598 0.28366 0.0
Fe1 Fe 0.12581 0.18635 0.32521 0.0
O2 O 0.09782 0.15256 0.31682 0.0
Fe3 Fe 0.10005 0.11717 0.34278 0.0
O4 O 0.09403 0.08772 0.31103 0.0
O5 O 0.07744 0.11373 0.26535 0.0
O6 O 0.09836 0.1746 0.25336 0.0
C7 C 0.11103 0.20307 0.25828 0.0
C8 C 0.03023 0.12699 0.33584 0.0
O9 O 0.11889 0.21069 0.28746 0.0
C10 C 0.1251 0.16045 0.38931 0.0
O11 O 0.05633 0.19725 0.30103 0.0
O12 O 0.09153 0.20845 0.34388 0.0
O13 O 0.05497 0.1173 0.35333 0.0
O14 O 0.03424 0.13926 0.3072 0.0
C15 C 0.16354 0.13187 0.31009 0.0
O16 O 0.14181 0.17378 0.3665 0.0
O17 O 0.10332 0.14025 0.38119 0.0
C18 C 0.06374 0.21222 0.32863 0.0
O19 O 0.15831 0.16289 0.30521 0.0
O20 O 0.14622 0.11445 0.33159 0.0
C21 C 0.08579 0.08717 0.28114 0.0
Fe22 Fe 0.94056 0.41945 0.33831 0.0
Fe23 Fe 0.97502 0.37804 0.28234 0.0
O24 O 0.94503 0.38247 0.31478 0.0
Fe25 Fe 0.91865 0.34778 0.32488 0.0
O26 O 0.88505 0.36856 0.30448 0.0
O27 O 0.89419 0.41922 0.32712 0.0
O28 O 0.94494 0.44731 0.30463 0.0
C29 C 0.95697 0.4466 0.27602 0.0
C30 C 0.91813 0.37703 0.38743 0.0
O31 O 0.96771 0.41971 0.26263 0.0
C32 C 0.98111 0.32365 0.32894 0.0
O33 O 0.98587 0.42241 0.34878 0.0
O34 O 1.0085 0.39497 0.30647 0.0
O35 O 0.90241 0.36144 0.36551 0.0
O36 O 0.93824 0.3986 0.37825 0.0
C37 C 0.93289 0.33059 0.25798 0.0
O38 O 0.98734 0.33717 0.3004 0.0
O39 O 0.95362 0.32778 0.34448 0.0
C40 C 1.01136 0.41068 0.33345 0.0
O41 O 0.94545 0.35904 0.2524 0.0
O42 O 0.92631 0.3228 0.28757 0.0
C43 C 0.87745 0.39928 0.30753 0.0
Fe44 Fe 0.06581 0.87851 0.25534 0.0
Fe45 Fe 0.12209 0.84789 0.21283 0.0
O46 O 0.09575 0.88272 0.22278 0.0
Fe47 Fe 0.10009 0.9196 0.19883 0.0
O48 O 0.09695 0.94755 0.23262 0.0
O49 O 0.0728 0.92053 0.27432 0.0
O50 O 0.0955 0.85984 0.28553 0.0
C51 C 0.10826 0.83136 0.28021 0.0
C52 C 0.02929 0.91129 0.20435 0.0
O53 O 0.11499 0.82344 0.25067 0.0
C54 C 0.12143 0.87666 0.14994 0.0
O55 O 0.05367 0.83737 0.2381 0.0
O56 O 0.08701 0.82761 0.19389 0.0
O57 O 0.05466 0.92341 0.18924 0.0
O58 O 0.03227 0.89495 0.23095 0.0
C59 C 0.16374 0.89928 0.22816 0.0
O60 O 0.13755 0.86125 0.17179 0.0
O61 O 0.10132 0.89831 0.15913 0.0
C62 C 0.05973 0.82354 0.20973 0.0
O63 O 0.15594 0.86881 0.23245 0.0
O64 O 0.14663 0.91892 0.2086 0.0
C65 C 0.08429 0.94716 0.261 0.0
Fe66 Fe 0.91477 0.68691 0.21422 0.0
Fe67 Fe 0.93987 0.61757 0.19599 0.0
O68 O 0.94242 0.65265 0.22231 0.0
Fe69 Fe 0.97154 0.65532 0.25554 0.0
O70 O 0.9419 0.67378 0.28608 0.0
O71 O 0.92173 0.71058 0.25232 0.0
O72 O 0.882 0.6636 0.23381 0.0
C73 C 0.87652 0.63271 0.22858 0.0
C74 C 0.97702 0.71216 0.21134 0.0
O75 O 0.89369 0.61538 0.20694 0.0
C76 C 1.00976 0.62644 0.20306 0.0
O77 O 0.89885 0.67517 0.17272 0.0
O78 O 0.93696 0.64114 0.15787 0.0
O79 O 0.98418 0.69674 0.2388 0.0
O80 O 0.94929 0.70885 0.19593 0.0
C81 C 0.95396 0.58661 0.25726 0.0
O82 O 0.98497 0.61711 0.18554 0.0
O83 O 1.00584 0.63865 0.23172 0.0
C84 C 0.91542 0.66174 0.14987 0.0
O85 O 0.94542 0.58768 0.22747 0.0
O86 O 0.96269 0.61283 0.27329 0.0
C87 C 0.92933 0.70242 0.28146 0.0
Fe88 Fe 0.32672 0.1225 0.18647 0.0
Fe89 Fe 0.34349 0.09751 0.11697 0.0
O90 O 0.31764 0.09521 0.15242 0.0
Fe91 Fe 0.28403 0.06649 0.15559 0.0
O92 O 0.25416 0.09598 0.17543 0.0
O93 O 0.28916 0.11575 0.21107 0.0
O94 O 0.30695 0.15564 0.16375 0.0
C95 C 0.31158 0.16129 0.13277 0.0
C96 C 0.32966 0.05981 0.21108 0.0
O97 O 0.33241 0.14374 0.11471 0.0
C98 C 0.33582 0.02782 0.12588 0.0
O99 O 0.36804 0.13842 0.17388 0.0
O100 O 0.38224 0.10049 0.1396 0.0
O101 O 0.30177 0.053 0.19625 0.0
O102 O 0.34518 0.08755 0.20773 0.0
C103 C 0.28135 0.08436 0.0872 0.0
O104 O 0.35384 0.05245 0.11694 0.0
O105 O 0.30694 0.03205 0.13767 0.0
C106 C 0.39066 0.12198 0.15995 0.0
O107 O 0.31155 0.09163 0.08766 0.0
O108 O 0.26537 0.07657 0.11382 0.0
C109 C 0.2597 0.10852 0.20383 0.0
Fe110 Fe 0.69718 0.44151 0.11762 0.0
Fe111 Fe 0.75675 0.47372 0.1554 0.0
O112 O 0.72341 0.44447 0.15282 0.0
Fe113 Fe 0.71502 0.41722 0.1873 0.0
O114 O 0.73389 0.38372 0.16437 0.0
O115 O 0.7075 0.39512 0.11604 0.0
O116 O 0.72895 0.44591 0.08795 0.0
C117 C 0.75843 0.45546 0.0866 0.0
C118 C 0.65043 0.41875 0.16211 0.0
O119 O 0.77412 0.46547 0.11257 0.0
C120 C 0.71346 0.47945 0.21285 0.0
O121 O 0.68727 0.48676 0.11625 0.0
O122 O 0.73251 0.50796 0.13954 0.0
O123 O 0.67306 0.40217 0.17593 0.0
O124 O 0.65871 0.43957 0.14093 0.0
C125 C 0.78285 0.43006 0.2012 0.0
O126 O 0.74087 0.48616 0.19717 0.0
O127 O 0.69745 0.45212 0.20932 0.0
C128 C 0.70424 0.51165 0.12639 0.0
O129 O 0.78748 0.44404 0.17324 0.0
O130 O 0.75369 0.42332 0.21016 0.0
C131 C 0.72879 0.37782 0.13364 0.0
Fe132 Fe 0.28572 0.97369 0.3765 0.0
Fe133 Fe 0.32712 0.91523 0.34842 0.0
O134 O 0.31707 0.94263 0.3823 0.0
Fe135 Fe 0.33982 0.93825 0.4199 0.0
O136 O 0.3047 0.94041 0.44632 0.0
O137 O 0.2669 0.97019 0.41919 0.0
O138 O 0.25447 0.94422 0.35979 0.0
C139 C 0.25967 0.92893 0.33258 0.0
C140 C 0.33642 1.00937 0.40949 0.0
O141 O 0.28914 0.92188 0.32424 0.0
C142 C 0.38971 0.91708 0.37789 0.0
O143 O 0.30271 0.98308 0.3346 0.0
O144 O 0.34683 0.94937 0.32702 0.0
O145 O 0.34888 0.98397 0.42444 0.0
O146 O 0.31178 1.00667 0.39044 0.0
C147 C 0.31056 0.87467 0.40035 0.0
O148 O 0.36801 0.90032 0.3629 0.0
O149 O 0.38022 0.93735 0.39934 0.0
C150 C 0.33138 0.97658 0.32167 0.0
O151 O 0.30678 0.88203 0.36983 0.0
O152 O 0.33059 0.8916 0.41946 0.0
C153 C 0.27812 0.95659 0.44578 0.0
Fe154 Fe 0.6961 0.59751 0.42081 0.0
Fe155 Fe 0.75593 0.56685 0.38219 0.0
O156 O 0.72221 0.59559 0.38543 0.0
Fe157 Fe 0.71345 0.62345 0.35164 0.0
O158 O 0.73277 0.65622 0.37511 0.0
O159 O 0.7068 0.64364 0.42366 0.0
O160 O 0.72791 0.59136 0.45023 0.0
C161 C 0.75812 0.58407 0.45077 0.0
C162 C 0.64931 0.62248 0.37763 0.0
O163 O 0.7742 0.57635 0.42421 0.0
C164 C 0.71137 0.56132 0.32564 0.0
O165 O 0.68592 0.55253 0.42046 0.0
O166 O 0.73282 0.53228 0.39946 0.0
O167 O 0.67193 0.63898 0.36386 0.0
O168 O 0.65757 0.60084 0.39796 0.0
C169 C 0.78065 0.60958 0.33477 0.0
O170 O 0.73876 0.55402 0.34112 0.0
O171 O 0.69554 0.58888 0.3294 0.0
C172 C 0.70396 0.52801 0.41127 0.0
O173 O 0.786 0.59646 0.36298 0.0
O174 O 0.75131 0.61725 0.32751 0.0
C175 C 0.72778 0.66137 0.4061 0.0
Fe176 Fe 0.18752 0.32535 0.12517 0.0
Fe177 Fe 0.11802 0.34104 0.09884 0.0
O178 O 0.1543 0.31607 0.0968 0.0
Fe179 Fe 0.1592 0.28316 0.06757 0.0
O180 O 0.17776 0.25307 0.09746 0.0
O181 O 0.21277 0.28796 0.1187 0.0
O182 O 0.16421 0.30473 0.15731 0.0
C183 C 0.13311 0.30921 0.16233 0.0
C184 C 0.21421 0.32951 0.06359 0.0
O185 O 0.11567 0.33069 0.14509 0.0
C186 C 0.12866 0.33432 0.02901 0.0
O187 O 0.17339 0.36645 0.14061 0.0
O188 O 0.14027 0.3801 0.10138 0.0
O189 O 0.20035 0.30133 0.05618 0.0
O190 O 0.20967 0.34461 0.09129 0.0
C191 C 0.09012 0.27861 0.08414 0.0
O192 O 0.11739 0.35096 0.05366 0.0
O193 O 0.14292 0.30661 0.03301 0.0
C194 C 0.16 0.38886 0.12335 0.0
O195 O 0.08952 0.30816 0.09367 0.0
O196 O 0.11715 0.26399 0.07508 0.0
C197 C 0.20577 0.25851 0.11092 0.0
Fe198 Fe 0.11773 0.69635 0.44199 0.0
Fe199 Fe 0.15754 0.75533 0.47285 0.0
O200 O 0.15358 0.72194 0.44393 0.0
Fe201 Fe 0.18727 0.71277 0.41592 0.0
O202 O 0.16378 0.73218 0.38316 0.0
O203 O 0.11543 0.70613 0.39567 0.0
O204 O 0.08862 0.72882 0.44683 0.0
C205 C 0.08853 0.75852 0.45589 0.0
C206 C 0.16077 0.64889 0.41816 0.0
O207 O 0.11518 0.7737 0.46485 0.0
C208 C 0.21385 0.71049 0.47767 0.0
O209 O 0.11706 0.68678 0.48724 0.0
O210 O 0.14136 0.73187 0.50748 0.0
O211 O 0.17451 0.67121 0.40114 0.0
O212 O 0.14048 0.65757 0.43974 0.0
C213 C 0.20357 0.78014 0.4286 0.0
O214 O 0.19897 0.73826 0.48467 0.0
O215 O 0.20977 0.69471 0.45029 0.0
C216 C 0.12775 0.7039 0.51173 0.0
O217 O 0.17593 0.78553 0.44298 0.0
O218 O 0.21136 0.75075 0.42147 0.0
C219 C 0.13283 0.72721 0.37798 0.0
Fe220 Fe 0.8797 0.7824 0.47332 0.0
Fe221 Fe 0.85128 0.82425 0.41538 0.0
O222 O 0.88453 0.81512 0.44381 0.0
Fe223 Fe 0.9208 0.83996 0.44149 0.0
O224 O 0.94932 0.80711 0.4472 0.0
O225 O 0.9217 0.76304 0.46586 0.0
O226 O 0.86113 0.75216 0.4437 0.0
C227 C 0.83317 0.75766 0.43009 0.0
C228 C 0.91014 0.83387 0.5114 0.0
O229 O 0.82614 0.78707 0.42221 0.0
C230 C 0.87884 0.88763 0.41625 0.0
O231 O 0.83855 0.80072 0.48461 0.0
O232 O 0.82903 0.84379 0.44915 0.0
O233 O 0.92129 0.85036 0.48656 0.0
O234 O 0.89605 0.80607 0.50768 0.0
C235 C 0.90578 0.80759 0.37833 0.0
O236 O 0.86522 0.86514 0.39943 0.0
O237 O 0.89858 0.87902 0.43831 0.0
C238 C 0.82452 0.8288 0.47697 0.0
O239 O 0.87466 0.8033 0.38342 0.0
O240 O 0.92323 0.82912 0.39537 0.0
C241 C 0.94872 0.77758 0.45682 0.0
Fe242 Fe 0.38063 0.75783 0.56566 0.0
Fe243 Fe 0.42091 0.69888 0.59633 0.0
O244 O 0.38494 0.72438 0.59445 0.0
Fe245 Fe 0.35142 0.71503 0.62255 0.0
O246 O 0.32912 0.69675 0.58828 0.0
O247 O 0.3393 0.7405 0.55387 0.0
O248 O 0.39681 0.73469 0.53085 0.0
C249 C 0.4111 0.70703 0.52662 0.0
C250 C 0.33404 0.78235 0.60925 0.0
O251 O 0.42211 0.69001 0.55108 0.0
C252 C 0.40578 0.72937 0.66023 0.0
O253 O 0.42293 0.77626 0.57358 0.0
O254 O 0.44983 0.73161 0.59221 0.0
O255 O 0.32677 0.75286 0.61669 0.0
O256 O 0.36217 0.78773 0.59583 0.0
C257 C 0.37829 0.6512 0.61983 0.0
O258 O 0.42286 0.70787 0.64275 0.0
O259 O 0.37485 0.73469 0.65509 0.0
C260 C 0.44967 0.76127 0.58289 0.0
O261 O 0.39809 0.66009 0.59787 0.0
O262 O 0.36496 0.67349 0.6373 0.0
C263 C 0.32486 0.7125 0.56085 0.0
Fe264 Fe 0.91537 0.85256 0.71417 0.0
Fe265 Fe 0.97208 0.88358 0.75577 0.0
O266 O 0.94304 0.88662 0.72249 0.0
Fe267 Fe 0.94059 0.92187 0.69634 0.0
O268 O 0.89436 0.92419 0.70721 0.0
O269 O 0.8826 0.87585 0.7339 0.0
O270 O 0.92231 0.82849 0.75209 0.0
C271 C 0.92978 0.83641 0.78129 0.0
C272 C 0.91605 0.87823 0.64996 0.0
O273 O 0.94236 0.86496 0.7861 0.0
C274 C 1.01049 0.91269 0.70356 0.0
O275 O 0.94992 0.83068 0.69574 0.0
O276 O 0.98477 0.84227 0.73874 0.0
O277 O 0.93774 0.89855 0.65805 0.0
O278 O 0.89943 0.8648 0.67276 0.0
C279 C 0.95443 0.95233 0.75784 0.0
O280 O 1.00654 0.90033 0.73218 0.0
O281 O 0.98571 0.92217 0.68603 0.0
C282 C 0.97768 0.82719 0.71111 0.0
O283 O 0.96309 0.92594 0.77376 0.0
O284 O 0.9461 0.95152 0.72798 0.0
C285 C 0.87712 0.90679 0.72875 0.0
Fe286 Fe 0.12315 0.69181 0.71361 0.0
Fe287 Fe 0.06629 0.66187 0.75574 0.0
O288 O 0.09665 0.65718 0.72367 0.0
Fe289 Fe 0.10136 0.61998 0.70043 0.0
O290 O 0.14766 0.62035 0.7118 0.0
O291 O 0.15663 0.6711 0.73429 0.0
O292 O 0.11531 0.71687 0.75084 0.0
C293 C 0.10833 0.70928 0.7804 0.0
C294 C 0.12384 0.66226 0.65119 0.0
O295 O 0.09556 0.6809 0.78598 0.0
C296 C 0.03049 0.62887 0.70445 0.0
O297 O 0.08836 0.71188 0.69369 0.0
O298 O 0.05433 0.70274 0.73752 0.0
O299 O 0.10384 0.64058 0.66038 0.0
O300 O 0.13949 0.67796 0.67308 0.0
C301 C 0.08419 0.59326 0.76267 0.0
O302 O 0.03312 0.64501 0.73119 0.0
O303 O 0.0561 0.61675 0.68964 0.0
C304 C 0.0608 0.71617 0.70901 0.0
O305 O 0.07311 0.62022 0.77565 0.0
O306 O 0.0969 0.59239 0.73435 0.0
C307 C 0.16431 0.6404 0.73133 0.0
Fe308 Fe 0.93985 0.12024 0.83955 0.0
Fe309 Fe 0.91806 0.19194 0.82533 0.0
O310 O 0.94431 0.157 0.81552 0.0
Fe311 Fe 0.97424 0.16099 0.78297 0.0
O312 O 0.96666 0.11922 0.76372 0.0
O313 O 0.94394 0.09203 0.80608 0.0
O314 O 0.89347 0.12073 0.82878 0.0
C315 C 0.87663 0.14059 0.80913 0.0
C316 C 1.01056 0.12835 0.83429 0.0
O317 O 0.88438 0.17116 0.80535 0.0
C318 C 0.98056 0.2158 0.82892 0.0
O319 O 0.93782 0.14155 0.87923 0.0
O320 O 0.90195 0.17872 0.86614 0.0
O321 O 1.00761 0.1439 0.80719 0.0
O322 O 0.98514 0.11694 0.84987 0.0
C323 C 0.93239 0.20875 0.7582 0.0
O324 O 0.95312 0.21192 0.84458 0.0
O325 O 0.9868 0.20189 0.8006 0.0
C326 C 0.91772 0.16329 0.88819 0.0
O327 O 0.92563 0.21659 0.78773 0.0
O328 O 0.94484 0.18016 0.75281 0.0
C329 C 0.95594 0.09246 0.77742 0.0
Fe330 Fe 0.12501 0.35301 0.82589 0.0
Fe331 Fe 0.06842 0.38447 0.78414 0.0
O332 O 0.09733 0.38721 0.81759 0.0
Fe333 Fe 0.09956 0.42226 0.844 0.0
O334 O 0.14591 0.42447 0.83382 0.0
O335 O 0.15796 0.37645 0.80678 0.0
O336 O 0.11855 0.32943 0.78759 0.0
C337 C 0.11102 0.33757 0.75841 0.0
C338 C 0.12356 0.37819 0.89029 0.0
O339 O 0.09834 0.36617 0.75377 0.0
C340 C 0.02969 0.41328 0.83632 0.0
O341 O 0.09042 0.33091 0.84377 0.0
O342 O 0.05585 0.34295 0.80064 0.0
O343 O 0.10193 0.39859 0.88209 0.0
O344 O 0.14039 0.36477 0.86761 0.0
C345 C 0.08607 0.45325 0.78262 0.0
O346 O 0.03382 0.40087 0.80777 0.0
O347 O 0.05435 0.42282 0.85389 0.0
C348 C 0.06286 0.32749 0.82811 0.0
O349 O 0.07724 0.42706 0.76657 0.0
O350 O 0.09452 0.45214 0.81244 0.0
C351 C 0.16349 0.40724 0.81246 0.0
Fe352 Fe 0.69645 0.94324 0.92062 0.0
Fe353 Fe 0.71314 0.91808 0.85111 0.0
O354 O 0.72239 0.94532 0.88515 0.0
Fe355 Fe 0.75635 0.97365 0.88203 0.0
O356 O 0.77465 0.96367 0.92397 0.0
O357 O 0.72842 0.9485 0.94995 0.0
O358 O 0.70682 0.89688 0.92286 0.0
C359 C 0.72769 0.87921 0.90501 0.0
C360 C 0.70491 1.01281 0.91158 0.0
O361 O 0.73238 0.88469 0.87402 0.0
C362 C 0.7114 0.98066 0.82597 0.0
O363 O 0.65764 0.94091 0.89796 0.0
O364 O 0.67153 0.90292 0.8636 0.0
O365 O 0.73365 1.00837 0.89954 0.0
O366 O 0.68678 0.98838 0.92077 0.0
C367 C 0.78048 0.93101 0.83426 0.0
O368 O 0.69534 0.95324 0.8295 0.0
O369 O 0.73917 0.98716 0.84111 0.0
C370 C 0.64905 0.91967 0.87744 0.0
O371 O 0.75097 0.9242 0.82681 0.0
O372 O 0.786 0.94369 0.8626 0.0
C373 C 0.75861 0.95571 0.95049 0.0
Fe374 Fe 0.28493 0.56863 0.88462 0.0
Fe375 Fe 0.34421 0.60106 0.92249 0.0
O376 O 0.31815 0.59798 0.88723 0.0
Fe377 Fe 0.32661 0.62513 0.85269 0.0
O378 O 0.28828 0.61857 0.82944 0.0
O379 O 0.25423 0.59792 0.86609 0.0
O380 O 0.26708 0.5773 0.92712 0.0
C381 C 0.28278 0.58686 0.95323 0.0
C382 C 0.32903 0.56264 0.82785 0.0
O383 O 0.3124 0.59607 0.95207 0.0
C384 C 0.39097 0.62445 0.87818 0.0
O385 O 0.30904 0.53464 0.90124 0.0
O386 O 0.35466 0.55588 0.92369 0.0
O387 O 0.34467 0.59023 0.83111 0.0
O388 O 0.30145 0.55587 0.84323 0.0
C389 C 0.31212 0.66451 0.90617 0.0
O390 O 0.38275 0.60358 0.89934 0.0
O391 O 0.36829 0.64075 0.86419 0.0
C392 C 0.33746 0.53093 0.91407 0.0
O393 O 0.33327 0.64732 0.92408 0.0
O394 O 0.30733 0.65853 0.87537 0.0
C395 C 0.25906 0.6117 0.83808 0.0
Fe396 Fe 0.69913 0.10001 0.61732 0.0
Fe397 Fe 0.71536 0.12518 0.68713 0.0
O398 O 0.7241 0.09696 0.65354 0.0
Fe399 Fe 0.75651 0.06684 0.65804 0.0
O400 O 0.77504 0.07317 0.61552 0.0
O401 O 0.7321 0.09541 0.58878 0.0
O402 O 0.70944 0.1463 0.61564 0.0
C403 C 0.731 0.16324 0.63306 0.0
C404 C 0.70453 0.02964 0.62765 0.0
O405 O 0.73567 0.15763 0.66391 0.0
C406 C 0.71166 0.06368 0.71429 0.0
O407 O 0.66011 0.1025 0.63975 0.0
O408 O 0.67412 0.14071 0.674 0.0
O409 O 0.73173 0.03293 0.64287 0.0
O410 O 0.689 0.05474 0.6156 0.0
C411 C 0.78251 0.11113 0.70287 0.0
O412 O 0.69635 0.09129 0.70967 0.0
O413 O 0.73945 0.05615 0.69975 0.0
C414 C 0.65164 0.12395 0.66029 0.0
O415 O 0.75327 0.11863 0.71104 0.0
O416 O 0.78749 0.09623 0.67551 0.0
C417 C 0.76101 0.08396 0.58893 0.0
Fe418 Fe 0.32836 0.41815 0.69097 0.0
Fe419 Fe 0.28567 0.47504 0.66176 0.0
O420 O 0.31817 0.4451 0.65675 0.0
Fe421 Fe 0.34183 0.44128 0.61964 0.0
O422 O 0.33174 0.39477 0.61955 0.0
O423 O 0.30836 0.38473 0.66969 0.0
O424 O 0.29074 0.42494 0.71582 0.0
C425 C 0.2611 0.43187 0.70836 0.0
C426 C 0.39114 0.41909 0.66179 0.0
O427 O 0.25549 0.44525 0.68028 0.0
C428 C 0.33651 0.51192 0.62911 0.0
O429 O 0.34762 0.45284 0.71171 0.0
O430 O 0.30337 0.48648 0.70288 0.0
O431 O 0.38184 0.43954 0.64054 0.0
O432 O 0.36928 0.40275 0.67698 0.0
C433 C 0.27942 0.45776 0.59292 0.0
O434 O 0.30999 0.50878 0.64562 0.0
O435 O 0.35152 0.48671 0.61651 0.0
C436 C 0.33185 0.48009 0.71639 0.0
O437 O 0.26623 0.46864 0.61987 0.0
O438 O 0.30783 0.44509 0.59206 0.0
C439 C 0.31218 0.37747 0.63906 0.0
Fe440 Fe 0.92111 0.69947 0.94161 0.0
Fe441 Fe 0.85144 0.71516 0.9157 0.0
O442 O 0.8849 0.72456 0.94372 0.0
Fe443 Fe 0.88035 0.7578 0.97265 0.0
O444 O 0.92235 0.77681 0.96447 0.0
O445 O 0.94978 0.73225 0.9466 0.0
O446 O 0.92328 0.70964 0.89532 0.0
C447 C 0.90575 0.73103 0.87806 0.0
C448 C 0.91087 0.70666 1.0114 0.0
O449 O 0.87465 0.73547 0.88319 0.0
C450 C 0.82513 0.71176 0.97757 0.0
O451 O 0.89888 0.66036 0.93927 0.0
O452 O 0.86525 0.67392 0.90044 0.0
O453 O 0.89697 0.73457 1.00733 0.0
O454 O 0.92176 0.68973 0.98678 0.0
C455 C 0.83343 0.78215 0.92929 0.0
O456 O 0.82941 0.69631 0.94999 0.0
O457 O 0.83928 0.73988 0.98461 0.0
C458 C 0.87889 0.65155 0.91756 0.0
O459 O 0.82634 0.75263 0.92197 0.0
O460 O 0.86148 0.7877 0.94267 0.0
C461 C 0.94931 0.76197 0.95561 0.0
Fe462 Fe 0.92296 0.34376 0.59679 0.0
Fe463 Fe 0.85343 0.32764 0.62303 0.0
O464 O 0.88703 0.31835 0.59494 0.0
Fe465 Fe 0.88283 0.28494 0.56618 0.0
O466 O 0.92526 0.26656 0.57374 0.0
O467 O 0.95189 0.31108 0.59259 0.0
O468 O 0.92498 0.33447 0.64324 0.0
C469 C 0.9078 0.31312 0.66082 0.0
C470 C 0.91292 0.33592 0.52701 0.0
O471 O 0.87687 0.308 0.65567 0.0
C472 C 0.82678 0.33009 0.56147 0.0
O473 O 0.90017 0.38257 0.59839 0.0
O474 O 0.86675 0.36925 0.63762 0.0
O475 O 0.89866 0.30829 0.53134 0.0
O476 O 0.92409 0.35283 0.55144 0.0
C477 C 0.83653 0.26024 0.60982 0.0
O478 O 0.83106 0.34592 0.58878 0.0
O479 O 0.84133 0.3021 0.5546 0.0
C480 C 0.88014 0.39148 0.62012 0.0
O481 O 0.82896 0.28969 0.6172 0.0
O482 O 0.8648 0.25502 0.59661 0.0
C483 C 0.9519 0.28152 0.58308 0.0
Fe484 Fe 0.1608 0.25743 0.56553 0.0
Fe485 Fe 0.11918 0.20027 0.59771 0.0
O486 O 0.15564 0.22496 0.59541 0.0
Fe487 Fe 0.18871 0.21589 0.62413 0.0
O488 O 0.21344 0.25339 0.61785 0.0
O489 O 0.17879 0.28807 0.59496 0.0
O490 O 0.11859 0.27671 0.57209 0.0
C491 C 0.09158 0.2625 0.58162 0.0
C492 C 0.21633 0.21154 0.56291 0.0
O493 O 0.09091 0.23324 0.59198 0.0
C494 C 0.16105 0.15246 0.62292 0.0
O495 O 0.14518 0.2332 0.53127 0.0
O496 O 0.1187 0.18976 0.55261 0.0
O497 O 0.21146 0.19654 0.59062 0.0
O498 O 0.20224 0.23948 0.55505 0.0
C499 C 0.134 0.23245 0.66105 0.0
O500 O 0.14114 0.16113 0.60103 0.0
O501 O 0.17493 0.17483 0.63969 0.0
C502 C 0.13056 0.20567 0.52771 0.0
O503 O 0.11653 0.2111 0.64384 0.0
O504 O 0.16511 0.23661 0.65608 0.0
C505 C 0.20602 0.28271 0.60999 0.0
Fe506 Fe 0.66062 0.28311 0.47263 0.0
Fe507 Fe 0.61988 0.33987 0.43844 0.0
O508 O 0.65659 0.31571 0.44274 0.0
Fe509 Fe 0.69148 0.32543 0.41641 0.0
O510 O 0.7159 0.28761 0.4238 0.0
O511 O 0.67927 0.25288 0.44301 0.0
O512 O 0.6186 0.26416 0.46551 0.0
C513 C 0.59188 0.27787 0.45465 0.0
C514 C 0.7156 0.32884 0.47879 0.0
O515 O 0.59158 0.30641 0.44233 0.0
C516 C 0.66289 0.38851 0.41633 0.0
O517 O 0.64406 0.30746 0.50612 0.0
O518 O 0.61669 0.34999 0.4838 0.0
O519 O 0.71168 0.34454 0.45142 0.0
O520 O 0.70175 0.30044 0.4849 0.0
C521 C 0.64 0.30979 0.37494 0.0
O522 O 0.64129 0.37951 0.43654 0.0
O523 O 0.67839 0.36646 0.40056 0.0
C524 C 0.62839 0.33451 0.50915 0.0
O525 O 0.62024 0.32934 0.39204 0.0
O526 O 0.67054 0.30564 0.38266 0.0
C527 C 0.70785 0.2581 0.43049 0.0
Fe528 Fe 0.62558 0.68879 0.82454 0.0
Fe529 Fe 0.59992 0.61911 0.84069 0.0
O530 O 0.59761 0.65514 0.81544 0.0
Fe531 Fe 0.56845 0.65943 0.78239 0.0
O532 O 0.59849 0.67782 0.75235 0.0
O533 O 0.61908 0.71352 0.7869 0.0
O534 O 0.65823 0.66562 0.8045 0.0
C535 C 0.66377 0.63472 0.80957 0.0
C536 C 0.56365 0.71496 0.82794 0.0
O537 O 0.64633 0.6172 0.83079 0.0
C538 C 0.52986 0.62906 0.83366 0.0
O539 O 0.6409 0.67536 0.86578 0.0
O540 O 0.60205 0.6417 0.87948 0.0
O541 O 0.55659 0.70067 0.79995 0.0
O542 O 0.59127 0.7108 0.84332 0.0
C543 C 0.58577 0.59053 0.77848 0.0
O544 O 0.55461 0.61807 0.85037 0.0
O545 O 0.53383 0.64317 0.8059 0.0
C546 C 0.6238 0.66174 0.88814 0.0
O547 O 0.5953 0.59027 0.80801 0.0
O548 O 0.57637 0.6173 0.76371 0.0
C549 C 0.6115 0.7061 0.75755 0.0
Fe550 Fe 0.41745 0.84945 0.82434 0.0
Fe551 Fe 0.43915 0.92108 0.83833 0.0
O552 O 0.44382 0.88425 0.81457 0.0
Fe553 Fe 0.47402 0.88001 0.7823 0.0
O554 O 0.4445 0.86147 0.75202 0.0
O555 O 0.42529 0.82486 0.7868 0.0
O556 O 0.38386 0.87028 0.80399 0.0
C557 C 0.37608 0.90089 0.80754 0.0
C558 C 0.47992 0.82535 0.82847 0.0
O559 O 0.39274 0.92062 0.82739 0.0
C560 C 0.51008 0.91251 0.83356 0.0
O561 O 0.40118 0.86292 0.86502 0.0
O562 O 0.43714 0.89984 0.87814 0.0
O563 O 0.4861 0.8389 0.79994 0.0
O564 O 0.45238 0.82934 0.84393 0.0
C565 C 0.45591 0.94873 0.77641 0.0
O566 O 0.48454 0.92447 0.84865 0.0
O567 O 0.50731 0.89644 0.80682 0.0
C568 C 0.41697 0.87821 0.88711 0.0
O569 O 0.44306 0.9491 0.80469 0.0
O570 O 0.46722 0.92203 0.76308 0.0
C571 C 0.43196 0.83294 0.7573 0.0
Fe572 Fe 0.60076 0.4223 0.69565 0.0
Fe573 Fe 0.56924 0.38174 0.75405 0.0
O574 O 0.59844 0.3861 0.72088 0.0
Fe575 Fe 0.62652 0.35244 0.71165 0.0
O576 O 0.65931 0.37576 0.73113 0.0
O577 O 0.64729 0.42378 0.70447 0.0
O578 O 0.59714 0.45095 0.72861 0.0
C579 C 0.58669 0.45079 0.75787 0.0
C580 C 0.62339 0.37919 0.64782 0.0
O581 O 0.57638 0.42419 0.77232 0.0
C582 C 0.5649 0.32557 0.7094 0.0
O583 O 0.55533 0.42424 0.6868 0.0
O584 O 0.53465 0.39733 0.73027 0.0
O585 O 0.64095 0.36573 0.66997 0.0
O586 O 0.60202 0.39968 0.65674 0.0
C587 C 0.61308 0.33573 0.77914 0.0
O588 O 0.55793 0.34019 0.73722 0.0
O589 O 0.59223 0.32994 0.69353 0.0
C590 C 0.53067 0.41247 0.70308 0.0
O591 O 0.59937 0.36379 0.78428 0.0
O592 O 0.62071 0.32823 0.74975 0.0
C593 C 0.66469 0.40661 0.7259 0.0
Fe594 Fe 0.41863 0.18982 0.71589 0.0
Fe595 Fe 0.44313 0.12023 0.6978 0.0
O596 O 0.44588 0.15529 0.72419 0.0
Fe597 Fe 0.47505 0.15768 0.75755 0.0
O598 O 0.44566 0.17628 0.78816 0.0
O599 O 0.42494 0.21299 0.75427 0.0
O600 O 0.38526 0.16676 0.7348 0.0
C601 C 0.37937 0.13601 0.72932 0.0
C602 C 0.4812 0.21473 0.71382 0.0
O603 O 0.39684 0.11839 0.70821 0.0
C604 C 0.51308 0.12862 0.70505 0.0
O605 O 0.40312 0.17855 0.67417 0.0
O606 O 0.44067 0.14372 0.65967 0.0
O607 O 0.48802 0.19913 0.74123 0.0
O608 O 0.45358 0.21164 0.69818 0.0
C609 C 0.45671 0.08907 0.75905 0.0
O610 O 0.48822 0.11935 0.68763 0.0
O611 O 0.50931 0.14095 0.73367 0.0
C612 C 0.41935 0.16445 0.65152 0.0
O613 O 0.44814 0.09031 0.72928 0.0
O614 O 0.46583 0.11515 0.7751 0.0
C615 C 0.43189 0.20434 0.7834 0.0
Fe616 Fe 0.82899 0.62476 0.68825 0.0
Fe617 Fe 0.84243 0.60157 0.61697 0.0
O618 O 0.81886 0.59779 0.6541 0.0
Fe619 Fe 0.78653 0.56789 0.65928 0.0
O620 O 0.7564 0.59791 0.67743 0.0
O621 O 0.79142 0.61775 0.71333 0.0
O622 O 0.80869 0.65813 0.66703 0.0
C623 C 0.81248 0.66541 0.63639 0.0
C624 C 0.83313 0.56281 0.71343 0.0
O625 O 0.83217 0.64815 0.6169 0.0
C626 C 0.83724 0.53084 0.62671 0.0
O627 O 0.86979 0.64016 0.67391 0.0
O628 O 0.88254 0.6031 0.63787 0.0
O629 O 0.80441 0.55657 0.7004 0.0
O630 O 0.84861 0.59016 0.70881 0.0
C631 C 0.78002 0.58502 0.59042 0.0
O632 O 0.85216 0.55601 0.6139 0.0
O633 O 0.81087 0.53412 0.64339 0.0
C634 C 0.89178 0.62347 0.65917 0.0
O635 O 0.8083 0.59792 0.58946 0.0
O636 O 0.76706 0.57397 0.6174 0.0
C637 C 0.76181 0.61089 0.70568 0.0
Fe638 Fe 0.21408 0.91812 0.68595 0.0
Fe639 Fe 0.19633 0.9436 0.6167 0.0
O640 O 0.22261 0.94571 0.65183 0.0
Fe641 Fe 0.25622 0.97459 0.65455 0.0
O642 O 0.28658 0.94506 0.67325 0.0
O643 O 0.25232 0.92408 0.70942 0.0
O644 O 0.23307 0.88499 0.66259 0.0
C645 C 0.22834 0.87965 0.63162 0.0
C646 C 0.21208 0.98045 0.71144 0.0
O647 O 0.20764 0.89749 0.61377 0.0
C648 C 0.20365 1.01322 0.62635 0.0
O649 O 0.17238 0.90262 0.67455 0.0
O650 O 0.15781 0.93996 0.63965 0.0
O651 O 0.23952 0.98746 0.69585 0.0
O652 O 0.19635 0.95288 0.70808 0.0
C653 C 0.25789 0.95767 0.58589 0.0
O654 O 0.18571 0.9886 0.61734 0.0
O655 O 0.23271 1.00907 0.63764 0.0
C656 C 0.14967 0.91871 0.66043 0.0
O657 O 0.2278 0.95008 0.58692 0.0
O658 O 0.2742 0.96527 0.61226 0.0
C659 C 0.28156 0.93106 0.70108 0.0
Fe660 Fe 0.78509 0.47546 0.87799 0.0
Fe661 Fe 0.82766 0.41854 0.84883 0.0
O662 O 0.81745 0.44547 0.88302 0.0
Fe663 Fe 0.84085 0.44156 0.92011 0.0
O664 O 0.80704 0.44687 0.94776 0.0
O665 O 0.76486 0.46847 0.91945 0.0
O666 O 0.75516 0.44588 0.85889 0.0
C667 C 0.76097 0.43304 0.83063 0.0
C668 C 0.83612 0.51218 0.9105 0.0
O669 O 0.79064 0.42613 0.82331 0.0
C670 C 0.8901 0.41794 0.87834 0.0
O671 O 0.80383 0.48729 0.8373 0.0
O672 O 0.84776 0.45303 0.82863 0.0
O673 O 0.85164 0.48685 0.9223 0.0
O674 O 0.80905 0.50907 0.89495 0.0
C675 C 0.80979 0.37826 0.90072 0.0
O676 O 0.86808 0.40213 0.863 0.0
O677 O 0.88096 0.4385 0.8995 0.0
C678 C 0.83256 0.48066 0.82422 0.0
O679 O 0.80682 0.38546 0.86993 0.0
O680 O 0.82924 0.39529 0.92058 0.0
C681 C 0.7783 0.45868 0.94666 0.0
Fe682 Fe 0.19908 0.10179 0.92028 0.0
Fe683 Fe 0.25531 0.06793 0.87817 0.0
O684 O 0.22285 0.09795 0.88317 0.0
Fe685 Fe 0.21274 0.12492 0.84895 0.0
O686 O 0.23214 0.15861 0.87043 0.0
O687 O 0.20782 0.14851 0.91998 0.0
O688 O 0.2334 0.09955 0.94767 0.0
C689 C 0.2612 0.08556 0.94724 0.0
C690 C 0.14966 0.12246 0.87767 0.0
O691 O 0.27388 0.07326 0.92065 0.0
C692 C 0.21011 0.06314 0.82297 0.0
O693 O 0.19042 0.05611 0.92423 0.0
O694 O 0.23047 0.03415 0.8931 0.0
O695 O 0.17139 0.13938 0.86281 0.0
O696 O 0.15911 0.10227 0.89914 0.0
C697 C 0.28052 0.11179 0.83265 0.0
O698 O 0.23859 0.05709 0.83654 0.0
O699 O 0.19405 0.09016 0.82777 0.0
C700 C 0.20467 0.03095 0.91065 0.0
O701 O 0.28577 0.09805 0.86069 0.0
O702 O 0.25093 0.11866 0.82476 0.0
C703 C 0.22762 0.16595 0.90091 0.0
Fe704 Fe 0.68802 0.82716 0.62275 0.0
Fe705 Fe 0.61823 0.84305 0.5973 0.0
O706 O 0.65433 0.81778 0.59499 0.0
Fe707 Fe 0.6586 0.78454 0.56594 0.0
O708 O 0.67747 0.75447 0.5956 0.0
O709 O 0.71268 0.7895 0.6167 0.0
O710 O 0.66499 0.80724 0.65556 0.0
C711 C 0.63399 0.81187 0.66097 0.0
C712 C 0.71412 0.83014 0.56073 0.0
O713 O 0.61632 0.83305 0.64363 0.0
C714 C 0.62798 0.83569 0.52746 0.0
O715 O 0.67459 0.86846 0.63793 0.0
O716 O 0.64067 0.88206 0.59938 0.0
O717 O 0.69974 0.80212 0.55384 0.0
O718 O 0.71001 0.84571 0.58826 0.0
C719 C 0.58967 0.78068 0.58338 0.0
O720 O 0.61719 0.85268 0.55208 0.0
O721 O 0.64198 0.80787 0.53152 0.0
C722 C 0.66088 0.89081 0.62092 0.0
O723 O 0.58942 0.81033 0.59265 0.0
O724 O 0.61649 0.76578 0.57417 0.0
C725 C 0.70517 0.76005 0.60963 0.0
Fe726 Fe 0.61858 0.19857 0.94055 0.0
Fe727 Fe 0.65649 0.25776 0.97309 0.0
O728 O 0.65386 0.22466 0.94361 0.0
Fe729 Fe 0.68838 0.21634 0.91635 0.0
O730 O 0.66552 0.23563 0.88311 0.0
O731 O 0.61676 0.20965 0.89441 0.0
O732 O 0.5889 0.23023 0.94593 0.0
C733 C 0.58775 0.25984 0.95508 0.0
C734 C 0.66269 0.15203 0.91656 0.0
O735 O 0.61391 0.27559 0.96451 0.0
C736 C 0.71348 0.21378 0.97868 0.0
O737 O 0.61776 0.18788 0.98556 0.0
O738 O 0.63995 0.23352 1.00705 0.0
O739 O 0.67699 0.17472 0.90057 0.0
O740 O 0.64172 0.16018 0.93764 0.0
C741 C 0.70296 0.2838 0.93004 0.0
O742 O 0.698 0.24125 0.98566 0.0
O743 O 0.71016 0.19823 0.95107 0.0
C744 C 0.62744 0.20493 1.01056 0.0
O745 O 0.67495 0.28858 0.94392 0.0
O746 O 0.71159 0.25464 0.92298 0.0
C747 C 0.63471 0.23068 0.87713 0.0
Fe748 Fe 0.37892 0.28598 0.9753 0.0
Fe749 Fe 0.34974 0.32883 0.91852 0.0
O750 O 0.38403 0.31837 0.94528 0.0
Fe751 Fe 0.42136 0.34164 0.94126 0.0
O752 O 0.44878 0.30759 0.94585 0.0
O753 O 0.42058 0.26592 0.96855 0.0
O754 O 0.3599 0.25589 0.94595 0.0
C755 C 0.33228 0.26182 0.93179 0.0
C756 C 0.41186 0.33683 1.01186 0.0
O757 O 0.32461 0.29149 0.9253 0.0
C758 C 0.37945 0.39131 0.9187 0.0
O759 O 0.33801 0.30426 0.98698 0.0
O760 O 0.32921 0.34839 0.95323 0.0
O761 O 0.4241 0.35204 0.98658 0.0
O762 O 0.39565 0.31017 1.00873 0.0
C763 C 0.40169 0.31123 0.87789 0.0
O764 O 0.3638 0.36952 0.90285 0.0
O765 O 0.40096 0.38193 0.93878 0.0
C766 C 0.32473 0.33289 0.98063 0.0
O767 O 0.37085 0.3085 0.88508 0.0
O768 O 0.42161 0.33055 0.89493 0.0
C769 C 0.44771 0.27905 0.95806 0.0
Fe770 Fe 0.85173 0.21294 0.12318 0.0
Fe771 Fe 0.88119 0.25591 0.06649 0.0
O772 O 0.88536 0.22232 0.0952 0.0
Fe773 Fe 0.92137 0.19676 0.09712 0.0
O774 O 0.89856 0.15799 0.0983 0.0
O775 O 0.86498 0.17118 0.13748 0.0
O776 O 0.82928 0.19508 0.08877 0.0
C777 C 0.82502 0.21113 0.06154 0.0
C778 C 0.90606 0.22679 0.16116 0.0
O779 O 0.83976 0.23897 0.05469 0.0
C780 C 0.95024 0.25911 0.08393 0.0
O781 O 0.82736 0.25101 0.11766 0.0
O782 O 0.86277 0.28588 0.09672 0.0
O783 O 0.92314 0.2054 0.14358 0.0
O784 O 0.87517 0.2322 0.15596 0.0
C785 C 0.91171 0.20506 0.02737 0.0
O786 O 0.9236 0.27411 0.07437 0.0
O787 O 0.95027 0.2295 0.09338 0.0
C788 C 0.83468 0.28051 0.11031 0.0
O789 O 0.89723 0.23263 0.03166 0.0
O790 O 0.92287 0.18811 0.05181 0.0
C791 C 0.87839 0.14902 0.11989 0.0
Fe792 Fe 0.44072 0.42026 0.20101 0.0
Fe793 Fe 0.41873 0.34853 0.21395 0.0
O794 O 0.44497 0.38313 0.22446 0.0
Fe795 Fe 0.47467 0.37844 0.25705 0.0
O796 O 0.46712 0.42003 0.27688 0.0
O797 O 0.44444 0.44785 0.23494 0.0
O798 O 0.39419 0.41981 0.21165 0.0
C799 C 0.37725 0.39982 0.23113 0.0
C800 C 0.51148 0.4118 0.20655 0.0
O801 O 0.38485 0.36911 0.23427 0.0
C802 C 0.4814 0.32467 0.21003 0.0
O803 O 0.43916 0.39966 0.16086 0.0
O804 O 0.40299 0.36268 0.17328 0.0
O805 O 0.50832 0.39564 0.23326 0.0
O806 O 0.48615 0.42358 0.19108 0.0
C807 C 0.43225 0.33067 0.2809 0.0
O808 O 0.45396 0.32875 0.19446 0.0
O809 O 0.48726 0.33777 0.23879 0.0
C810 C 0.41909 0.37819 0.15146 0.0
O811 O 0.42599 0.32323 0.25118 0.0
O812 O 0.44496 0.359 0.28678 0.0
C813 C 0.45643 0.44701 0.26354 0.0
Fe814 Fe 0.56801 0.15922 0.254 0.0
Fe815 Fe 0.59999 0.1175 0.19676 0.0
O816 O 0.59779 0.15398 0.22145 0.0
Fe817 Fe 0.62654 0.18703 0.21225 0.0
O818 O 0.62049 0.21173 0.24983 0.0
O819 O 0.59769 0.177 0.28447 0.0
O820 O 0.5744 0.11697 0.27311 0.0
C821 C 0.58423 0.08999 0.25906 0.0
C822 C 0.56526 0.21468 0.20824 0.0
O823 O 0.59485 0.08928 0.22988 0.0
C824 C 0.62453 0.15961 0.14887 0.0
O825 O 0.53361 0.14382 0.22993 0.0
O826 O 0.55468 0.11663 0.18683 0.0
O827 O 0.59293 0.20982 0.19312 0.0
O828 O 0.55758 0.2007 0.23624 0.0
C829 C 0.66363 0.13239 0.22828 0.0
O830 O 0.60273 0.13957 0.15762 0.0
O831 O 0.64173 0.17312 0.17114 0.0
C832 C 0.52986 0.12875 0.20272 0.0
O833 O 0.6463 0.11505 0.20695 0.0
O834 O 0.65863 0.16344 0.23267 0.0
C835 C 0.61271 0.20424 0.27914 0.0
Fe836 Fe 0.41631 0.6887 0.32342 0.0
Fe837 Fe 0.47227 0.65604 0.28159 0.0
O838 O 0.44342 0.65404 0.31527 0.0
Fe839 Fe 0.44073 0.61933 0.34214 0.0
O840 O 0.39436 0.61766 0.33237 0.0
O841 O 0.3829 0.6656 0.30486 0.0
O842 O 0.42297 0.71173 0.28488 0.0
C843 C 0.43014 0.70326 0.25572 0.0
C844 C 0.41743 0.66405 0.38801 0.0
O845 O 0.44244 0.67446 0.2512 0.0
C846 C 0.51066 0.62739 0.33391 0.0
O847 O 0.45141 0.71046 0.34075 0.0
O848 O 0.48551 0.69759 0.2974 0.0
O849 O 0.43887 0.6434 0.37991 0.0
O850 O 0.40084 0.6776 0.36531 0.0
C851 C 0.45376 0.58738 0.28118 0.0
O852 O 0.50672 0.63949 0.3052 0.0
O853 O 0.4859 0.61829 0.35168 0.0
C854 C 0.47893 0.71342 0.32476 0.0
O855 O 0.46294 0.61326 0.26471 0.0
O856 O 0.4452 0.58904 0.31097 0.0
C857 C 0.37691 0.63496 0.311 0.0
Fe858 Fe 0.6241 0.85119 0.32445 0.0
Fe859 Fe 0.56687 0.88141 0.2828 0.0
O860 O 0.59625 0.88518 0.31574 0.0
Fe861 Fe 0.59897 0.92107 0.34118 0.0
O862 O 0.64538 0.92245 0.33156 0.0
O863 O 0.6569 0.87438 0.3047 0.0
O864 O 0.61765 0.82723 0.28639 0.0
C865 C 0.60995 0.83507 0.25715 0.0
C866 C 0.62228 0.87771 0.38833 0.0
O867 O 0.59678 0.86343 0.25229 0.0
C868 C 0.52882 0.91174 0.33453 0.0
O869 O 0.58975 0.82893 0.34288 0.0
O870 O 0.5552 0.83984 0.29961 0.0
O871 O 0.60074 0.89812 0.37977 0.0
O872 O 0.63925 0.86393 0.36594 0.0
C873 C 0.58457 0.95032 0.27936 0.0
O874 O 0.53252 0.89723 0.30695 0.0
O875 O 0.55369 0.92292 0.35081 0.0
C876 C 0.56228 0.82487 0.32724 0.0
O877 O 0.57437 0.92389 0.26465 0.0
O878 O 0.5949 0.95011 0.30861 0.0
C879 C 0.66257 0.90516 0.31003 0.0
Fe880 Fe 0.21435 0.41544 0.35305 0.0
Fe881 Fe 0.25642 0.47187 0.38432 0.0
O882 O 0.22302 0.44273 0.3873 0.0
Fe883 Fe 0.19694 0.44 0.42269 0.0
O884 O 0.20754 0.39368 0.42455 0.0
O885 O 0.23356 0.38209 0.37591 0.0
O886 O 0.25266 0.42168 0.32945 0.0
C887 C 0.28194 0.42853 0.33779 0.0
C888 C 0.14998 0.41676 0.37879 0.0
O889 O 0.28691 0.44236 0.3657 0.0
C890 C 0.20419 0.50997 0.41377 0.0
O891 O 0.19642 0.45033 0.33132 0.0
O892 O 0.23979 0.4846 0.34297 0.0
O893 O 0.15831 0.43772 0.39973 0.0
O894 O 0.17262 0.40013 0.36503 0.0
C895 C 0.25856 0.45384 0.45304 0.0
O896 O 0.23262 0.50611 0.40091 0.0
O897 O 0.18686 0.48516 0.42359 0.0
C898 C 0.21212 0.47788 0.32783 0.0
O899 O 0.27432 0.46311 0.42677 0.0
O900 O 0.22884 0.44491 0.4521 0.0
C901 C 0.22871 0.37635 0.40678 0.0
Fe902 Fe 0.84348 0.09678 0.42042 0.0
Fe903 Fe 0.82699 0.12324 0.35116 0.0
O904 O 0.81807 0.09487 0.38458 0.0
Fe905 Fe 0.78494 0.0658 0.38031 0.0
O906 O 0.76627 0.07347 0.42251 0.0
O907 O 0.81093 0.09155 0.44941 0.0
O908 O 0.83336 0.14307 0.42286 0.0
C909 C 0.81191 0.16056 0.40568 0.0
C910 C 0.83644 0.02693 0.41001 0.0
O911 O 0.80685 0.1555 0.37475 0.0
C912 C 0.83045 0.06166 0.3245 0.0
O913 O 0.88223 0.09944 0.39768 0.0
O914 O 0.86832 0.1386 0.36442 0.0
O915 O 0.80848 0.03104 0.39631 0.0
O916 O 0.85333 0.05154 0.42089 0.0
C917 C 0.7599 0.10913 0.334 0.0
O918 O 0.84582 0.08926 0.32878 0.0
O919 O 0.80252 0.05431 0.33897 0.0
C920 C 0.89081 0.12156 0.37794 0.0
O921 O 0.78926 0.1169 0.32653 0.0
O922 O 0.75479 0.09595 0.36222 0.0
C923 C 0.78127 0.08229 0.44926 0.0
Fe924 Fe 0.19863 0.59844 0.11932 0.0
Fe925 Fe 0.21195 0.62235 0.19037 0.0
O926 O 0.22214 0.59499 0.15649 0.0
Fe927 Fe 0.25459 0.56504 0.16184 0.0
O928 O 0.27442 0.57127 0.12008 0.0
O929 O 0.23253 0.59336 0.09173 0.0
O930 O 0.20955 0.64481 0.11828 0.0
C931 C 0.22886 0.66232 0.13778 0.0
C932 C 0.20344 0.52794 0.12999 0.0
O933 O 0.23216 0.65548 0.1686 0.0
C934 C 0.20813 0.56063 0.2165 0.0
O935 O 0.15852 0.60128 0.13994 0.0
O936 O 0.17115 0.63789 0.17639 0.0
O937 O 0.23031 0.53115 0.14585 0.0
O938 O 0.18828 0.5531 0.11743 0.0
C939 C 0.27904 0.60872 0.20794 0.0
O940 O 0.19251 0.58793 0.21159 0.0
O941 O 0.23658 0.55395 0.20299 0.0
C942 C 0.14928 0.62181 0.1611 0.0
O943 O 0.2494 0.6157 0.21533 0.0
O944 O 0.28473 0.59488 0.18012 0.0
C945 C 0.26112 0.58121 0.09288 0.0
Fe946 Fe 0.82749 0.91685 0.18906 0.0
Fe947 Fe 0.78456 0.973 0.15897 0.0
O948 O 0.81729 0.9433 0.15447 0.0
Fe949 Fe 0.84116 0.93923 0.11757 0.0
O950 O 0.83104 0.89268 0.11794 0.0
O951 O 0.80759 0.88312 0.1682 0.0
O952 O 0.78984 0.92394 0.21386 0.0
C953 C 0.76018 0.93038 0.20606 0.0
C954 C 0.89037 0.91773 0.16024 0.0
O955 O 0.75465 0.94308 0.17766 0.0
C956 C 0.83529 1.00993 0.12629 0.0
O957 O 0.84663 0.9519 0.20923 0.0
O958 O 0.80216 0.98514 0.19996 0.0
O959 O 0.88115 0.93786 0.13866 0.0
O960 O 0.86843 0.90135 0.17526 0.0
C961 C 0.77875 0.95509 0.09034 0.0
O962 O 0.80859 1.00671 0.14247 0.0
O963 O 0.85074 0.98471 0.11421 0.0
C964 C 0.83078 0.97919 0.21342 0.0
O965 O 0.76532 0.96603 0.11713 0.0
O966 O 0.8073 0.94272 0.08973 0.0
C967 C 0.81139 0.8756 0.13761 0.0
Fe968 Fe 0.35257 0.2125 0.41712 0.0
Fe969 Fe 0.38299 0.25613 0.47263 0.0
O970 O 0.38642 0.22204 0.44452 0.0
Fe971 Fe 0.42191 0.19605 0.44286 0.0
O972 O 0.4242 0.2055 0.3964 0.0
O973 O 0.37569 0.23158 0.38387 0.0
O974 O 0.328 0.25031 0.42287 0.0
C975 C 0.33525 0.27988 0.42968 0.0
C976 C 0.37893 0.14851 0.41968 0.0
O977 O 0.36356 0.28556 0.4425 0.0
C978 C 0.41287 0.20532 0.51225 0.0
O979 O 0.3308 0.19481 0.45217 0.0
O980 O 0.34201 0.23885 0.48592 0.0
O981 O 0.39896 0.15733 0.44129 0.0
O982 O 0.36556 0.17084 0.40238 0.0
C983 C 0.45168 0.25839 0.45474 0.0
O984 O 0.40032 0.23377 0.50757 0.0
O985 O 0.42231 0.1871 0.48803 0.0
C986 C 0.32717 0.2109 0.47952 0.0
O987 O 0.42509 0.27438 0.46282 0.0
O988 O 0.4512 0.2282 0.44744 0.0
C989 C 0.40667 0.22641 0.37851 0.0
Fe990 Fe 0.42115 0.84119 0.09602 0.0
Fe991 Fe 0.35151 0.82469 0.12188 0.0
O992 O 0.38507 0.81596 0.09357 0.0
Fe993 Fe 0.3808 0.78323 0.06397 0.0
O994 O 0.42303 0.76439 0.07147 0.0
O995 O 0.44999 0.8086 0.09051 0.0
O996 O 0.42338 0.83042 0.14213 0.0
C997 C 0.40606 0.8087 0.15911 0.0
C998 C 0.41109 0.83517 0.02612 0.0
O999 O 0.375 0.80425 0.15407 0.0
C1000 C 0.32481 0.8286 0.06027 0.0
O1001 O 0.39864 0.88006 0.0991 0.0
O1002 O 0.36458 0.86593 0.1375 0.0
O1003 O 0.39705 0.80733 0.02982 0.0
O1004 O 0.42198 0.85167 0.05096 0.0
C1005 C 0.33486 0.7577 0.10792 0.0
O1006 O 0.32904 0.84369 0.08801 0.0
O1007 O 0.33943 0.80085 0.05264 0.0
C1008 C 0.37838 0.88849 0.12082 0.0
O1009 O 0.32713 0.78698 0.11555 0.0
O1010 O 0.36239 0.75252 0.09329 0.0
C1011 C 0.4498 0.77914 0.08075 0.0
Fe1012 Fe 0.65878 0.75632 0.06518 0.0
Fe1013 Fe 0.61812 0.6982 0.09683 0.0
O1014 O 0.65425 0.72336 0.09459 0.0
Fe1015 Fe 0.68766 0.71421 0.12285 0.0
O1016 O 0.71214 0.75189 0.11677 0.0
O1017 O 0.67702 0.78668 0.09478 0.0
O1018 O 0.61647 0.77513 0.07254 0.0
C1019 C 0.58965 0.76041 0.08188 0.0
C1020 C 0.71458 0.7108 0.06123 0.0
O1021 O 0.58941 0.73092 0.09165 0.0
C1022 C 0.66062 0.65057 0.12125 0.0
O1023 O 0.64283 0.73255 0.03081 0.0
O1024 O 0.61747 0.68823 0.05167 0.0
O1025 O 0.71018 0.69543 0.08884 0.0
O1026 O 0.70019 0.73875 0.05389 0.0
C1027 C 0.63312 0.72981 0.16034 0.0
O1028 O 0.64055 0.65923 0.09951 0.0
O1029 O 0.67429 0.67295 0.13816 0.0
C1030 C 0.6287 0.70482 0.02695 0.0
O1031 O 0.61573 0.70847 0.14304 0.0
O1032 O 0.66417 0.73435 0.15522 0.0
C1033 C 0.7045 0.78127 0.10935 0.0
Fe1034 Fe 0.15818 0.78517 0.97164 0.0
Fe1035 Fe 0.11802 0.84417 0.94082 0.0
O1036 O 0.15406 0.81873 0.94292 0.0
Fe1037 Fe 0.18781 0.82825 0.91516 0.0
O1038 O 0.21245 0.79045 0.92102 0.0
O1039 O 0.17714 0.75532 0.94164 0.0
O1040 O 0.11598 0.7667 0.96333 0.0
C1041 C 0.08927 0.78169 0.95396 0.0
C1042 C 0.2139 0.83051 0.97711 0.0
O1043 O 0.08915 0.81138 0.94469 0.0
C1044 C 0.16099 0.89201 0.91802 0.0
O1045 O 0.14156 0.80823 1.00627 0.0
O1046 O 0.11644 0.85302 0.9861 0.0
O1047 O 0.20984 0.84639 0.94973 0.0
O1048 O 0.19935 0.80252 0.98387 0.0
C1049 C 0.13379 0.81385 0.87693 0.0
O1050 O 0.14075 0.88307 0.93955 0.0
O1051 O 0.17437 0.86981 0.90051 0.0
C1052 C 0.12725 0.83587 1.01056 0.0
O1053 O 0.11645 0.8352 0.89437 0.0
O1054 O 0.16471 0.8087 0.88229 0.0
C1055 C 0.20528 0.76091 0.92829 0.0
C1056 C 0.05726 0.27204 0.34018 0.0
C1057 C 0.04297 0.24012 0.33838 0.0
H1058 H 0.04774 0.32468 0.33833 0.0
C1059 C 1.00826 0.23599 0.34008 0.0
H1060 H 0.08415 0.27539 0.3386 0.0
C1061 C 0.98767 0.26396 0.34082 0.0
C1062 C 1.00194 0.29589 0.33889 0.0
H1063 H 0.99716 0.21133 0.33869 0.0
H1064 H 0.96077 0.2606 0.33966 0.0
C1065 C 0.03666 0.30002 0.33994 0.0
C1066 C 0.03286 0.73562 0.20132 0.0
C1067 C 0.99811 0.73987 0.20183 0.0
H1068 H 0.08031 0.76014 0.20217 0.0
C1069 C 0.98387 0.77177 0.19856 0.0
H1070 H 0.04394 0.711 0.2038 0.0
C1071 C 1.00446 0.79969 0.19841 0.0
C1072 C 0.03913 0.7955 0.20048 0.0
H1073 H 0.95696 0.77524 0.19919 0.0
H1074 H 0.99335 0.82443 0.19878 0.0
C1075 C 0.05345 0.7635 0.20017 0.0
C1076 C 0.33769 1.00319 0.23366 0.0
C1077 C 0.33992 0.03786 0.23795 0.0
H1078 H 0.33449 0.95575 0.25816 0.0
C1079 C 0.34639 0.05147 0.26955 0.0
H1080 H 0.3328 0.99253 0.20929 0.0
C1081 C 0.34666 0.03066 0.29734 0.0
C1082 C 0.34145 0.99634 0.29327 0.0
H1083 H 0.348 0.0783 0.27314 0.0
H1084 H 0.3486 0.04153 0.32205 0.0
C1085 C 0.33885 0.98232 0.26136 0.0
C1086 C 0.70358 0.55561 0.26524 0.0
C1087 C 0.70294 0.54099 0.29707 0.0
H1088 H 0.70792 0.54663 0.21273 0.0
C1089 C 0.7004 0.50629 0.30075 0.0
H1090 H 0.70598 0.58247 0.26224 0.0
C1091 C 0.70069 0.48602 0.27259 0.0
C1092 C 0.70462 0.50051 0.24091 0.0
H1093 H 0.70008 0.4949 0.32533 0.0
H1094 H 0.70069 0.45907 0.27574 0.0
C1095 C 0.70491 0.53531 0.23714 0.0
C1096 C 0.30121 0.34482 0.03592 0.0
C1097 C 0.29691 0.34301 1.0013 0.0
H1098 H 0.27698 0.34294 0.08353 0.0
C1099 C 0.26484 0.34355 0.98726 0.0
H1100 H 0.32601 0.34432 0.04681 0.0
C1101 C 0.23706 0.34184 1.00803 0.0
C1102 C 0.24149 0.34057 0.04267 0.0
H1103 H 0.26138 0.34182 0.96045 0.0
H1104 H 0.21241 0.33921 0.99713 0.0
C1105 C 0.27338 0.34409 0.0567 0.0
C1106 C 0.30172 0.70143 0.50518 0.0
C1107 C 0.29728 0.70249 0.53985 0.0
H1108 H 0.27748 0.70183 0.4576 0.0
C1109 C 0.26527 0.69967 0.5539 0.0
H1110 H 0.32645 0.70361 0.49424 0.0
C1111 C 0.23746 0.69948 0.53315 0.0
C1112 C 0.24183 0.70111 0.49849 0.0
H1113 H 0.26165 0.70074 0.58073 0.0
H1114 H 0.21266 0.70024 0.5441 0.0
C1115 C 0.27394 0.70024 0.48443 0.0
C1116 C 0.76475 0.84081 0.4838 0.0
C1117 C 0.79688 0.83955 0.49767 0.0
H1118 H 0.71226 0.83857 0.49406 0.0
C1119 C 0.80141 0.84208 0.53223 0.0
H1120 H 0.76108 0.83857 0.45706 0.0
C1121 C 0.77368 0.84291 0.55318 0.0
C1122 C 0.74158 0.8402 0.53944 0.0
H1123 H 0.82624 0.84108 0.54302 0.0
H1124 H 0.7774 0.8423 0.58001 0.0
C1125 C 0.73704 0.84067 0.50477 0.0
C1126 C 0.03383 0.80411 0.70146 0.0
C1127 C 0.99909 0.79982 0.70111 0.0
H1128 H 0.08136 0.77961 0.70289 0.0
C1129 C 0.98511 0.76802 0.69651 0.0
H1130 H 0.04472 0.82865 0.70493 0.0
C1131 C 1.00585 0.74013 0.69608 0.0
C1132 C 0.04043 0.74428 0.69921 0.0
H1133 H 0.95821 0.76449 0.69642 0.0
H1134 H 0.99487 0.71538 0.69558 0.0
C1135 C 0.05459 0.77629 0.70005 0.0
C1136 C 0.98668 0.27578 0.83891 0.0
C1137 C 1.00112 0.24383 0.83827 0.0
H1138 H 0.99597 0.32835 0.83575 0.0
C1139 C 0.03581 0.23975 0.84019 0.0
H1140 H 0.95979 0.27905 0.83705 0.0
C1141 C 0.05628 0.26775 0.84024 0.0
C1142 C 0.04189 0.29962 0.83734 0.0
H1143 H 0.04702 0.21507 0.83958 0.0
H1144 H 0.08321 0.2644 0.83951 0.0
C1145 C 1.00714 0.30374 0.83797 0.0
C1146 C 0.70352 0.03705 0.80254 0.0
C1147 C 0.70213 1.0023 0.79844 0.0
H1148 H 0.70641 0.08446 0.77788 0.0
C1149 C 0.69755 0.98838 0.76665 0.0
H1150 H 0.70708 0.04795 0.82705 0.0
C1151 C 0.69799 1.00902 0.7387 0.0
C1152 C 0.70198 0.04354 0.7427 0.0
H1153 H 0.69672 0.96149 0.76319 0.0
H1154 H 0.6973 0.99795 0.71402 0.0
C1155 C 0.70298 0.05775 0.77464 0.0
C1156 C 0.33824 0.48566 0.77677 0.0
C1157 C 0.34108 0.49994 0.74494 0.0
H1158 H 0.33181 0.49534 0.82889 0.0
C1159 C 0.34583 0.53437 0.74109 0.0
H1160 H 0.33415 0.45901 0.77981 0.0
C1161 C 0.34521 0.55492 0.76903 0.0
C1162 C 0.33877 0.54098 0.80056 0.0
H1163 H 0.34787 0.54545 0.71645 0.0
H1164 H 0.34672 0.58179 0.76564 0.0
C1165 C 0.33668 0.50626 0.80459 0.0
C1166 C 0.73796 0.69845 1.00589 0.0
C1167 C 0.74242 0.70068 0.04049 0.0
H1168 H 0.76201 0.69909 0.95815 0.0
C1169 C 0.77454 0.6998 0.05438 0.0
H1170 H 0.71314 0.69915 0.99509 0.0
C1171 C 0.80227 0.70061 0.03344 0.0
C1172 C 0.79775 0.70133 0.99878 0.0
H1173 H 0.77815 0.70179 0.08115 0.0
H1174 H 0.82702 0.70296 0.0442 0.0
C1175 C 0.76572 0.69829 0.98497 0.0
C1176 C 0.80294 0.34191 0.50634 0.0
C1177 C 0.7987 0.33954 0.54095 0.0
H1178 H 0.77857 0.34148 0.45888 0.0
C1179 C 0.76666 0.33991 0.5552 0.0
H1180 H 0.82771 0.34152 0.49529 0.0
C1181 C 0.7388 0.33901 0.53457 0.0
C1182 C 0.74311 0.33872 0.49988 0.0
H1183 H 0.76327 0.33773 0.582 0.0
H1184 H 0.71416 0.33644 0.54557 0.0
C1185 C 0.77504 0.342 0.48574 0.0
C1186 C 0.27654 0.20207 0.55681 0.0
C1187 C 0.24447 0.20113 0.54282 0.0
H1188 H 0.32893 0.20624 0.54662 0.0
C1189 C 0.24019 0.19695 0.5084 0.0
H1190 H 0.27995 0.20563 0.58344 0.0
C1191 C 0.26802 0.19649 0.48759 0.0
C1192 C 0.29991 0.20126 0.50127 0.0
H1193 H 0.21538 0.19632 0.49753 0.0
H1194 H 0.26437 0.19566 0.46076 0.0
C1195 C 0.30431 0.20259 0.53593 0.0
C1196 C 0.53566 0.80232 0.8398 0.0
C1197 C 0.50098 0.7978 0.83853 0.0
H1198 H 0.58344 0.77824 0.83858 0.0
C1199 C 0.48707 0.76572 0.8404 0.0
H1200 H 0.54646 0.82711 0.83831 0.0
C1201 C 0.50799 0.73799 0.83971 0.0
C1202 C 0.54266 0.74252 0.83812 0.0
H1203 H 0.46022 0.76207 0.8391 0.0
H1204 H 0.49717 0.71321 0.83816 0.0
C1205 C 0.55659 0.77458 0.84009 0.0
C1206 C 0.53785 0.23743 0.70599 0.0
C1207 C 0.50314 0.24181 0.704 0.0
H1208 H 0.58541 0.26176 0.70787 0.0
C1209 C 0.48949 0.27343 0.69724 0.0
H1210 H 0.54855 0.21305 0.71108 0.0
C1211 C 0.51034 0.30116 0.69612 0.0
C1212 C 0.54478 0.29701 0.70067 0.0
H1213 H 0.46264 0.2771 0.6958 0.0
H1214 H 0.49948 0.32592 0.69385 0.0
C1215 C 0.55876 0.26504 0.70389 0.0
C1216 C 0.84541 0.55651 0.77292 0.0
C1217 C 0.84354 0.54219 0.74106 0.0
H1218 H 0.84314 0.54705 0.82546 0.0
C1219 C 0.84508 0.50751 0.7369 0.0
H1220 H 0.84396 0.5834 0.77624 0.0
C1221 C 0.84544 0.48694 0.76483 0.0
C1222 C 0.84328 0.50127 0.79669 0.0
H1223 H 0.84363 0.49641 0.71227 0.0
H1224 H 0.84398 0.46007 0.76148 0.0
C1225 C 0.84481 0.53595 0.80084 0.0
C1226 C 0.20383 0.03669 0.73482 0.0
C1227 C 0.20257 1.00195 0.73893 0.0
H1228 H 0.20596 0.08405 0.75948 0.0
C1229 C 0.19739 0.98791 0.77063 0.0
H1230 H 0.20776 0.04767 0.71039 0.0
C1231 C 0.19712 1.00848 0.79857 0.0
C1232 C 0.20096 0.04302 0.79457 0.0
H1233 H 0.19658 0.96101 0.77407 0.0
H1234 H 0.19599 0.99738 0.82325 0.0
C1235 C 0.20259 0.05731 0.76267 0.0
C1236 C 0.80086 0.19943 1.00652 0.0
C1237 C 0.79671 0.20223 0.04111 0.0
H1238 H 0.77647 0.19985 0.95905 0.0
C1239 C 0.76468 0.20303 0.05534 0.0
H1240 H 0.82563 0.19899 0.99546 0.0
C1241 C 0.73683 0.20449 0.03471 0.0
C1242 C 0.74108 0.20422 1.0 0.0
H1243 H 0.76136 0.20559 0.08212 0.0
H1244 H 0.71227 0.20778 0.0457 0.0
C1245 C 0.77294 0.19988 0.98592 0.0
C1246 C 0.5379 0.30249 0.20035 0.0
C1247 C 0.50321 0.2979 0.19922 0.0
H1248 H 0.58562 0.27836 0.20278 0.0
C1249 C 0.48964 0.26606 0.19389 0.0
H1250 H 0.54847 0.32708 0.20444 0.0
C1251 C 0.51063 0.23836 0.19375 0.0
C1252 C 0.54508 0.24276 0.19792 0.0
H1253 H 0.46278 0.26228 0.19323 0.0
H1254 H 0.49986 0.21351 0.19284 0.0
C1255 C 0.55895 0.27486 0.19923 0.0
C1256 C 0.50758 0.80038 0.34024 0.0
C1257 C 0.54209 0.7963 0.33598 0.0
H1258 H 0.45999 0.7761 0.34095 0.0
C1259 C 0.55622 0.76432 0.33345 0.0
H1260 H 0.49659 0.82512 0.34198 0.0
C1261 C 0.53545 0.73657 0.33193 0.0
C1262 C 0.50072 0.74082 0.3338 0.0
H1263 H 0.58291 0.76109 0.3297 0.0
H1264 H 0.54629 0.71213 0.32745 0.0
C1265 C 0.48687 0.77253 0.33968 0.0
C1266 C 0.19354 0.50661 0.24152 0.0
C1267 C 0.19881 0.54097 0.24523 0.0
H1268 H 0.19273 0.45913 0.26606 0.0
C1269 C 0.20258 0.55512 0.27697 0.0
H1270 H 0.19084 0.49561 0.21694 0.0
C1271 C 0.20462 0.53441 0.30474 0.0
C1272 C 0.20208 0.49973 0.30076 0.0
H1273 H 0.20711 0.5817 0.27989 0.0
H1274 H 0.21021 0.54522 0.32888 0.0
C1275 C 0.19464 0.48596 0.26943 0.0
C1276 C 0.84354 0.98598 0.27283 0.0
C1277 C 0.84067 1.0002 0.24095 0.0
H1278 H 0.84221 0.99543 0.32541 0.0
C1279 C 0.84096 0.03494 0.23674 0.0
H1280 H 0.84301 0.95907 0.27626 0.0
C1281 C 0.84132 0.05554 0.26462 0.0
C1282 C 0.84043 0.0412 0.29655 0.0
H1283 H 0.83868 0.04599 0.21213 0.0
H1284 H 0.83909 0.08237 0.26126 0.0
C1285 C 0.84293 1.00655 0.30073 0.0
C1286 C 0.26502 0.84087 0.0536 0.0
C1287 C 0.29709 0.83896 0.03953 0.0
H1288 H 0.21243 0.83939 0.04375 0.0
C1289 C 0.30151 0.84091 1.00489 0.0
H1290 H 0.26142 0.83911 0.08041 0.0
C1291 C 0.27372 0.84195 0.98414 0.0
C1292 C 0.24163 0.84005 0.99815 0.0
H1293 H 0.32628 0.83944 0.99393 0.0
H1294 H 0.27732 0.84098 0.9573 0.0
C1295 C 0.23722 0.84091 0.03283 0.0
C1296 C 0.05305 1.00068 0.26459 0.0
C1297 C 0.08085 0.98124 0.27473 0.0
H1298 H 0.03275 0.05024 0.25678 0.0
C1299 C 0.1107 0.99806 0.28184 0.0
H1300 H 0.03005 0.98845 0.25716 0.0
C1301 C 0.11343 0.03263 0.27745 0.0
C1302 C 0.08561 0.05243 0.26822 0.0
H1303 H 0.13262 0.9841 0.28932 0.0
H1304 H 0.13694 0.04442 0.28403 0.0
C1305 C 0.05514 0.03591 0.26218 0.0
C1306 C 0.92698 0.53173 0.26011 0.0
C1307 C 0.9546 0.55161 0.26954 0.0
H1308 H 0.90827 0.4832 0.24781 0.0
C1309 C 0.9853 0.53526 0.27513 0.0
H1310 H 0.90328 0.54345 0.25388 0.0
C1311 C 0.98781 0.5001 0.27217 0.0
C1312 C 0.96017 0.48057 0.26197 0.0
H1313 H 1.00754 0.54968 0.28065 0.0
H1314 H 1.01098 0.48795 0.27935 0.0
C1315 C 0.9301 0.49726 0.25518 0.0
C1316 C 0.26157 0.05499 0.03554 0.0
C1317 C 0.26826 0.08504 0.05255 0.0
H1318 H 0.25602 0.03077 0.98771 0.0
C1319 C 0.27808 0.11295 0.03321 0.0
H1320 H 0.25572 0.03249 0.04948 0.0
C1321 C 0.28241 0.11069 0.99863 0.0
C1322 C 0.27468 0.08128 0.98133 0.0
H1323 H 0.28525 0.13609 0.04535 0.0
H1324 H 0.2904 0.13265 0.98507 0.0
C1325 C 0.26393 0.05341 1.0003 0.0
C1326 C 0.77474 0.48946 1.00019 0.0
C1327 C 0.76385 0.46224 0.98042 0.0
H1328 H 0.78336 0.50874 0.04991 0.0
C1329 C 0.75584 0.43241 0.99687 0.0
H1330 H 0.78285 0.51241 0.98823 0.0
C1331 C 0.76036 0.429 0.03132 0.0
C1332 C 0.77047 0.45621 0.05146 0.0
H1333 H 0.74784 0.41091 0.98265 0.0
H1334 H 0.75336 0.40541 0.04277 0.0
C1335 C 0.77722 0.48676 0.03535 0.0
C1336 C 0.25568 0.93228 0.49704 0.0
C1337 C 0.2645 0.96146 0.47978 0.0
H1338 H 0.25219 0.90665 0.54362 0.0
C1339 C 0.27601 0.98893 0.4988 0.0
H1340 H 0.24715 0.91059 0.48343 0.0
C1341 C 0.27812 0.98714 0.53407 0.0
C1342 C 0.27052 0.95719 0.55099 0.0
H1343 H 0.28472 1.01132 0.48624 0.0
H1344 H 0.28464 1.00936 0.54808 0.0
C1345 C 0.25993 0.92969 0.53157 0.0
C1346 C 0.77917 0.5549 0.50219 0.0
C1347 C 0.7712 0.58479 0.48541 0.0
H1348 H 0.78628 0.53069 0.54984 0.0
C1349 C 0.76068 0.61231 0.50496 0.0
H1350 H 0.78563 0.53267 0.48809 0.0
C1351 C 0.75697 0.6098 0.53958 0.0
C1352 C 0.76602 0.58059 0.55663 0.0
H1353 H 0.7526 0.6353 0.49298 0.0
H1354 H 0.74836 0.6314 0.55332 0.0
C1355 C 0.7774 0.55312 0.53743 0.0
C1356 C 0.03792 0.26763 0.05252 0.0
C1357 C 0.05596 0.26467 0.08265 0.0
H1358 H 0.98945 0.27075 0.02901 0.0
C1359 C 0.03766 0.26568 0.11271 0.0
H1360 H 0.05121 0.26894 0.02892 0.0
C1361 C 1.00292 0.27012 0.11284 0.0
C1362 C 0.98465 0.27258 0.08287 0.0
H1363 H 0.05062 0.2654 0.13647 0.0
H1364 H 0.98995 0.26936 0.13662 0.0
C1365 C 1.0027 0.27095 0.05261 0.0
C1366 C 0.03549 0.76882 0.42739 0.0
C1367 C 0.05406 0.77186 0.45712 0.0
H1368 H 0.9876 0.76337 0.40434 0.0
C1369 C 0.03635 0.77057 0.48759 0.0
H1370 H 0.04823 0.76777 0.40349 0.0
C1371 C 1.00117 0.76705 0.48811 0.0
C1372 C 0.98285 0.76352 0.45822 0.0
H1373 H 0.04985 0.77082 0.51105 0.0
H1374 H 0.98811 0.76869 0.51181 0.0
C1375 C 1.00082 0.76411 0.42796 0.0
C1376 C 0.53747 0.76923 0.55181 0.0
C1377 C 0.55534 0.76707 0.58209 0.0
H1378 H 0.48913 0.7717 0.52799 0.0
C1379 C 0.53686 0.76891 0.61203 0.0
H1380 H 0.55088 0.76991 0.52826 0.0
C1381 C 0.5021 0.77322 0.61187 0.0
C1382 C 0.48401 0.77488 0.58176 0.0
H1383 H 0.54969 0.76927 0.63586 0.0
H1384 H 0.48898 0.77302 0.63559 0.0
C1385 C 0.50225 0.77252 0.55165 0.0
C1386 C 0.98502 1.00371 0.77656 0.0
C1387 C 0.95457 0.98719 0.77048 0.0
H1388 H 1.01014 0.05116 0.78146 0.0
C1389 C 0.9268 1.00698 0.76105 0.0
H1390 H 1.00738 0.98938 0.78212 0.0
C1391 C 0.92956 0.04155 0.75657 0.0
C1392 C 0.9594 0.05837 0.7637 0.0
H1393 H 0.90331 0.99518 0.75445 0.0
H1394 H 0.90767 0.05551 0.74901 0.0
C1395 C 0.98715 0.03892 0.774 0.0
C1396 C 0.05299 0.53991 0.76621 0.0
C1397 C 0.08051 0.55939 0.77684 0.0
H1398 H 0.03315 0.49035 0.75782 0.0
C1399 C 0.1103 0.54261 0.78453 0.0
H1400 H 0.03007 0.55213 0.75834 0.0
C1401 C 0.1133 0.50807 0.78012 0.0
C1402 C 0.08579 0.48825 0.77025 0.0
H1403 H 0.13204 0.55662 0.79227 0.0
H1404 H 0.13677 0.49632 0.78705 0.0
C1405 C 0.05534 0.5047 0.76372 0.0
C1406 C 0.77599 0.98687 0.03725 0.0
C1407 C 0.76507 0.95914 0.05634 0.0
H1408 H 0.78448 1.00752 0.98802 0.0
C1409 C 0.75718 0.92971 0.0392 0.0
H1410 H 0.78401 1.00952 0.04974 0.0
C1411 C 0.76151 0.92729 1.00462 0.0
C1412 C 0.77159 0.95505 0.98517 0.0
H1413 H 0.74903 0.90787 0.05286 0.0
H1414 H 0.75418 0.90416 0.99257 0.0
C1415 C 0.77844 0.98512 1.00205 0.0
C1416 C 0.28538 0.60768 0.04364 0.0
C1417 C 0.27582 0.57787 0.05923 0.0
H1418 H 0.28965 0.63556 0.99839 0.0
C1419 C 0.26411 0.55157 0.0387 0.0
H1420 H 0.2941 0.62848 0.05848 0.0
C1421 C 0.2623 0.55513 1.0036 0.0
C1422 C 0.27062 0.5857 0.98832 0.0
H1423 H 0.25485 0.52874 0.05002 0.0
H1424 H 0.2554 0.53379 0.98845 0.0
C1425 C 0.28156 0.61202 1.00921 0.0
C1426 C 0.76955 0.11163 0.50142 0.0
C1427 C 0.76742 0.08145 0.48348 0.0
H1428 H 0.77393 0.1358 0.54877 0.0
C1429 C 0.76901 0.05132 0.5018 0.0
H1430 H 0.77035 0.13531 0.48824 0.0
C1431 C 0.77195 0.05158 0.53699 0.0
C1432 C 0.77466 0.08195 0.55466 0.0
H1433 H 0.76945 0.02756 0.48878 0.0
H1434 H 0.77062 0.0281 0.55049 0.0
C1435 C 0.77374 0.11186 0.53608 0.0
C1436 C 0.25629 0.4315 0.54306 0.0
C1437 C 0.26518 0.46126 0.55908 0.0
H1438 H 0.25262 0.40426 0.49744 0.0
C1439 C 0.2766 0.48803 0.5389 0.0
H1440 H 0.24777 0.41036 0.55758 0.0
C1441 C 0.27864 0.48502 0.50374 0.0
C1442 C 0.27091 0.45455 0.48803 0.0
H1443 H 0.28538 0.51086 0.55053 0.0
H1444 H 0.28519 0.50672 0.48888 0.0
C1445 C 0.26035 0.42774 0.50857 0.0
C1446 C 0.03721 0.76977 0.98585 0.0
C1447 C 0.05486 0.76823 0.95535 0.0
H1448 H 0.98904 0.77166 1.01022 0.0
C1449 C 0.03617 0.77066 0.92564 0.0
H1450 H 0.05078 0.76997 1.00927 0.0
C1451 C 1.00139 0.77489 0.92625 0.0
C1452 C 0.98351 0.77591 0.95657 0.0
H1453 H 0.04883 0.77149 0.90169 0.0
H1454 H 0.98809 0.77509 0.90267 0.0
C1455 C 1.00199 0.773 0.98644 0.0
C1456 C 0.03905 0.27287 0.55038 0.0
C1457 C 0.0575 0.27665 0.58016 0.0
H1458 H 0.99025 0.26891 0.52771 0.0
C1459 C 0.03967 0.27628 0.61051 0.0
H1460 H 0.05201 0.27107 0.52663 0.0
C1461 C 1.00505 0.27134 0.61128 0.0
C1462 C 0.98634 0.26815 0.58167 0.0
H1463 H 0.05297 0.27722 0.63406 0.0
H1464 H 0.99244 0.27244 0.63526 0.0
C1465 C 1.00388 0.2693 0.55109 0.0
C1466 C 0.54059 0.25682 0.42904 0.0
C1467 C 0.55768 0.26447 0.45855 0.0
H1468 H 0.494 0.25415 0.40331 0.0
C1469 C 0.53848 0.27544 0.48619 0.0
H1470 H 0.55431 0.24863 0.40727 0.0
C1471 C 0.50323 0.27805 0.48431 0.0
C1472 C 0.48642 0.27137 0.45419 0.0
H1473 H 0.55093 0.28331 0.5089 0.0
H1474 H 0.48911 0.28406 0.50665 0.0
C1475 C 0.50599 0.26136 0.42649 0.0
C1476 C 0.55458 0.53818 0.76661 0.0
C1477 C 0.58475 0.55634 0.76464 0.0
H1478 H 0.53121 0.48959 0.76849 0.0
C1479 C 0.61492 0.53819 0.76622 0.0
H1480 H 0.53086 0.55136 0.76747 0.0
C1481 C 0.6151 0.50344 0.77012 0.0
C1482 C 0.58513 0.48505 0.77154 0.0
H1483 H 0.63866 0.55123 0.76672 0.0
H1484 H 0.639 0.49059 0.76979 0.0
C1485 C 0.55477 0.50295 0.76944 0.0
C1486 C 0.43028 1.00056 0.75681 0.0
C1487 C 0.45994 0.98293 0.76305 0.0
H1488 H 0.40478 0.04744 0.75618 0.0
C1489 C 0.48823 1.00156 0.77315 0.0
H1490 H 0.40799 0.98725 0.74947 0.0
C1491 C 0.48676 0.03677 0.77642 0.0
C1492 C 0.45647 0.05406 0.77133 0.0
H1493 H 0.51113 0.98868 0.77993 0.0
H1494 H 0.50948 0.0505 0.78175 0.0
C1495 C 0.42819 0.03504 0.76212 0.0
C1496 C 0.50115 0.27508 0.98901 0.0
C1497 C 0.48155 0.26468 0.96151 0.0
H1498 H 0.5508 0.2836 1.00861 0.0
C1499 C 0.49822 0.25749 0.93157 0.0
H1500 H 0.48902 0.28255 1.01208 0.0
C1501 C 0.53269 0.26242 0.92836 0.0
C1502 C 0.55265 0.27204 0.95584 0.0
H1503 H 0.48412 0.24992 0.90985 0.0
H1504 H 0.54433 0.256 0.90471 0.0
C1505 C 0.53634 0.27792 0.98646 0.0
C1506 C 0.48727 0.50055 0.26606 0.0
C1507 C 0.46002 0.481 0.27743 0.0
H1508 H 0.50665 0.55011 0.25639 0.0
C1509 C 0.43024 0.4977 0.28536 0.0
H1510 H 0.51018 0.48839 0.25803 0.0
C1511 C 0.42696 0.53218 0.28038 0.0
C1512 C 0.45417 0.55207 0.26964 0.0
H1513 H 0.40871 0.48368 0.29375 0.0
H1514 H 0.40348 0.54386 0.28748 0.0
C1515 C 0.48465 0.53571 0.26294 0.0
C1516 C 0.55253 0.0378 0.27022 0.0
C1517 C 0.5826 0.05597 0.27329 0.0
H1518 H 0.52929 0.98918 0.26733 0.0
C1519 C 0.61281 0.03784 0.2728 0.0
H1520 H 0.52885 0.05097 0.26855 0.0
C1521 C 0.61318 1.00316 0.26852 0.0
C1522 C 0.58329 0.98474 0.26598 0.0
H1523 H 0.63655 0.0509 0.27321 0.0
H1524 H 0.63707 0.99033 0.2695 0.0
C1525 C 0.55285 1.00258 0.26724 0.0
C1526 C 0.50246 0.76839 0.04954 0.0
C1527 C 0.48411 0.76544 0.07954 0.0
H1528 H 0.5512 0.77168 0.02644 0.0
C1529 C 0.50202 0.7668 0.10975 0.0
H1530 H 0.48944 0.76944 0.02583 0.0
C1531 C 0.53666 0.77171 0.11015 0.0
C1532 C 0.5553 0.77401 0.08033 0.0
H1533 H 0.48875 0.76649 0.1334 0.0
H1534 H 0.54936 0.77128 0.13406 0.0
C1535 C 0.53764 0.77199 0.04992 0.0
C1536 C 0.10828 0.22511 0.19813 0.0
C1537 C 0.11161 0.23074 0.23262 0.0
H1538 H 0.1118 0.2462 0.14873 0.0
C1539 C 0.11619 0.26423 0.24336 0.0
H1540 H 0.10469 0.19996 0.18877 0.0
C1541 C 0.11937 0.29077 0.22052 0.0
C1542 C 0.11766 0.28496 0.18608 0.0
H1543 H 0.11845 0.27002 0.26971 0.0
H1544 H 0.12525 0.31554 0.22978 0.0
C1545 C 0.11169 0.25183 0.1752 0.0
C1546 C 0.92053 0.24388 0.21949 0.0
C1547 C 0.92205 0.25024 0.18512 0.0
H1548 H 0.92288 0.26381 0.26892 0.0
C1549 C 0.929 0.28327 0.17453 0.0
H1550 H 0.91393 0.21917 0.22849 0.0
C1551 C 0.9337 0.30942 0.19771 0.0
C1552 C 0.93074 0.30332 0.23217 0.0
H1553 H 0.92877 0.28932 0.14815 0.0
H1554 H 0.9381 0.33457 0.18861 0.0
C1555 C 0.92501 0.2699 0.24261 0.0
C1556 C 0.12142 0.74471 0.3191 0.0
C1557 C 0.11733 0.75051 0.35336 0.0
H1558 H 0.12176 0.76509 0.26977 0.0
C1559 C 0.10873 0.78325 0.3637 0.0
H1560 H 0.12943 0.72032 0.31035 0.0
C1561 C 0.10483 0.80959 0.34042 0.0
C1562 C 0.1102 0.804 0.30614 0.0
H1563 H 0.10708 0.789 0.39009 0.0
H1564 H 0.09898 0.83448 0.34939 0.0
C1565 C 0.1177 0.77086 0.29591 0.0
C1566 C 0.92456 0.76344 0.29712 0.0
C1567 C 0.92839 0.72969 0.30752 0.0
H1568 H 0.91567 0.81469 0.31111 0.0
C1569 C 0.9304 0.72346 0.34203 0.0
H1570 H 0.92332 0.76968 0.2708 0.0
C1571 C 0.92645 0.74987 0.36521 0.0
C1572 C 0.92125 0.78327 0.3546 0.0
H1573 H 0.93336 0.69811 0.35115 0.0
H1574 H 0.92546 0.74384 0.3916 0.0
C1575 C 0.92086 0.78967 0.32022 0.0
C1576 C 0.22239 0.12458 0.29062 0.0
C1577 C 0.1885 0.11659 0.28687 0.0
H1578 H 0.27061 0.12851 0.2681 0.0
C1579 C 0.17787 0.1046 0.25536 0.0
H1580 H 0.23123 0.13524 0.31388 0.0
C1581 C 0.20046 0.10131 0.22824 0.0
C1582 C 0.23426 0.1105 0.23178 0.0
H1583 H 0.15158 0.09981 0.25102 0.0
H1584 H 0.19124 0.09267 0.20433 0.0
C1585 C 0.24483 0.12137 0.26378 0.0
C1586 C 0.80874 0.39233 0.24298 0.0
C1587 C 0.80965 0.42326 0.22638 0.0
H1588 H 0.82744 0.36143 0.28214 0.0
C1589 C 0.83027 0.44859 0.23982 0.0
H1590 H 0.79219 0.37269 0.23433 0.0
C1591 C 0.85028 0.44236 0.2685 0.0
C1592 C 0.85035 0.41067 0.28402 0.0
H1593 H 0.83019 0.47335 0.2288 0.0
H1594 H 0.86611 0.46197 0.27817 0.0
C1595 C 0.82855 0.38617 0.27106 0.0
C1596 C 0.21103 0.94745 0.29552 0.0
C1597 C 0.23346 0.92258 0.30682 0.0
H1598 H 0.17317 0.96083 0.25918 0.0
C1599 C 0.23572 0.89274 0.28845 0.0
H1600 H 0.20985 0.97143 0.30806 0.0
C1601 C 0.21529 0.88702 0.26079 0.0
C1602 C 0.19169 0.91097 0.2501 0.0
H1603 H 0.25348 0.87349 0.29564 0.0
H1604 H 0.2171 0.86296 0.24843 0.0
C1605 C 0.19055 0.94175 0.26718 0.0
C1606 C 0.79542 0.62281 0.27495 0.0
C1607 C 0.80602 0.61148 0.30682 0.0
H1608 H 0.80895 0.63697 0.22492 0.0
C1609 C 0.83969 0.60167 0.31016 0.0
H1610 H 0.76971 0.63038 0.27077 0.0
C1611 C 0.86219 0.60488 0.28297 0.0
C1612 C 0.85154 0.61741 0.25164 0.0
H1613 H 0.8489 0.59263 0.33396 0.0
H1614 H 0.88844 0.59962 0.28714 0.0
C1615 C 0.81775 0.62592 0.24805 0.0
C1616 C 0.26533 0.24303 0.12528 0.0
C1617 C 0.23369 0.23304 0.11289 0.0
H1618 H 0.31506 0.22869 0.1399 0.0
C1619 C 0.23045 0.19974 0.10194 0.0
H1620 H 0.26935 0.26841 0.13382 0.0
C1621 C 0.2575 0.17699 0.10487 0.0
C1622 C 0.28866 0.18698 0.11826 0.0
H1623 H 0.2068 0.19098 0.0921 0.0
H1624 H 0.25329 0.15099 0.09868 0.0
C1625 C 0.29211 0.22042 0.12814 0.0
C1626 C 0.23988 0.82977 0.44683 0.0
C1627 C 0.23007 0.80604 0.42263 0.0
H1628 H 0.27535 0.86845 0.46021 0.0
C1629 C 0.25042 0.80239 0.39414 0.0
H1630 H 0.22575 0.83226 0.46982 0.0
C1631 C 0.27859 0.82248 0.38908 0.0
C1632 C 0.28796 0.84718 0.41233 0.0
H1633 H 0.24441 0.78381 0.37538 0.0
H1634 H 0.29243 0.81956 0.36593 0.0
C1635 C 0.2687 0.84996 0.44177 0.0
C1636 C 0.77353 0.74276 0.41611 0.0
C1637 C 0.80531 0.73233 0.4279 0.0
H1638 H 0.72377 0.72893 0.40133 0.0
C1639 C 0.8088 0.69871 0.43777 0.0
H1640 H 0.76931 0.76843 0.40844 0.0
C1641 C 0.78185 0.67608 0.43423 0.0
C1642 C 0.75059 0.68653 0.42132 0.0
H1643 H 0.83257 0.68962 0.4471 0.0
H1644 H 0.78621 0.64987 0.43952 0.0
C1645 C 0.74685 0.72027 0.41266 0.0
C1646 C 0.28196 0.86373 0.6027 0.0
C1647 C 0.25107 0.85386 0.61693 0.0
H1648 H 0.33253 0.84969 0.58922 0.0
C1649 C 0.24797 0.8206 0.62758 0.0
H1650 H 0.28592 0.88963 0.59584 0.0
C1651 C 0.27481 0.79807 0.62471 0.0
C1652 C 0.30621 0.80793 0.61148 0.0
H1653 H 0.22526 0.81244 0.64 0.0
H1654 H 0.27101 0.77284 0.63388 0.0
C1655 C 0.3091 0.84104 0.59976 0.0
C1656 C 0.92431 0.77538 0.7968 0.0
C1657 C 0.92858 0.80901 0.80727 0.0
H1658 H 0.91499 0.72418 0.81072 0.0
C1659 C 0.93083 0.81504 0.84179 0.0
H1660 H 0.92283 0.76929 0.77047 0.0
C1661 C 0.92676 0.78858 0.86492 0.0
C1662 C 0.92121 0.75529 0.85426 0.0
H1663 H 0.93411 0.84031 0.85095 0.0
H1664 H 0.92596 0.7945 0.89132 0.0
C1665 C 0.92049 0.74908 0.81985 0.0
C1666 C 0.10614 0.7311 0.84048 0.0
C1667 C 0.11022 0.73677 0.80605 0.0
H1668 H 0.10981 0.75171 0.88996 0.0
C1669 C 0.1167 0.77 0.79545 0.0
H1670 H 0.10113 0.70612 0.84971 0.0
C1671 C 0.1208 0.79622 0.81843 0.0
C1672 C 0.11812 0.7903 0.85281 0.0
H1673 H 0.1197 0.77579 0.76916 0.0
H1674 H 0.12801 0.82073 0.80936 0.0
C1675 C 0.11044 0.75747 0.86352 0.0
C1676 C 0.93546 0.23051 0.698 0.0
C1677 C 0.93068 0.23618 0.73234 0.0
H1678 H 0.93269 0.25109 0.64836 0.0
C1679 C 0.92386 0.26943 0.74268 0.0
H1680 H 0.94079 0.20553 0.68894 0.0
C1681 C 0.92011 0.29563 0.71953 0.0
C1682 C 0.9235 0.28973 0.68522 0.0
H1683 H 0.92031 0.27525 0.76888 0.0
H1684 H 0.91257 0.32012 0.7284 0.0
C1685 C 0.93154 0.25688 0.67477 0.0
C1686 C 0.1129 0.28998 0.67457 0.0
C1687 C 0.11866 0.25663 0.68507 0.0
H1688 H 0.10569 0.34169 0.68874 0.0
C1689 C 0.12002 0.25035 0.71947 0.0
H1690 H 0.11327 0.29599 0.64816 0.0
C1691 C 0.11658 0.27658 0.74263 0.0
C1692 C 0.11205 0.31027 0.73231 0.0
H1693 H 0.12575 0.22541 0.72849 0.0
H1694 H 0.11853 0.27038 0.76892 0.0
C1695 C 0.10919 0.31639 0.69782 0.0
C1696 C 0.86241 0.93465 0.78302 0.0
C1697 C 0.85196 0.92206 0.7517 0.0
H1698 H 0.84879 0.9473 0.8338 0.0
C1699 C 0.81818 0.91364 0.74797 0.0
H1700 H 0.88864 0.93979 0.78733 0.0
C1701 C 0.79565 0.91704 0.77469 0.0
C1702 C 0.80603 0.92857 0.80651 0.0
H1703 H 0.80952 0.90252 0.72487 0.0
H1704 H 0.76996 0.90958 0.77042 0.0
C1705 C 0.83973 0.93814 0.81002 0.0
C1706 C 0.23417 0.64809 0.79442 0.0
C1707 C 0.23251 0.61797 0.81245 0.0
H1708 H 0.21581 0.67779 0.75414 0.0
C1709 C 0.21098 0.59271 0.80039 0.0
H1710 H 0.2513 0.66764 0.80207 0.0
C1711 C 0.19087 0.59825 0.77163 0.0
C1712 C 0.19158 0.6292 0.75469 0.0
H1713 H 0.21034 0.56851 0.81258 0.0
H1714 H 0.17429 0.57878 0.76307 0.0
C1715 C 0.21422 0.65359 0.7663 0.0
C1716 C 0.83017 0.09224 0.74105 0.0
C1717 C 0.80873 0.11747 0.72863 0.0
H1718 H 0.86665 0.07859 0.77873 0.0
C1719 C 0.80682 0.14773 0.74633 0.0
H1720 H 0.83094 0.06795 0.72909 0.0
C1721 C 0.82653 0.15341 0.7745 0.0
C1722 C 0.84922 0.1291 0.78634 0.0
H1723 H 0.78972 0.16725 0.73836 0.0
H1724 H 0.82485 0.17771 0.7864 0.0
C1725 C 0.85007 0.09799 0.76983 0.0
C1726 C 0.17913 0.43628 0.75918 0.0
C1727 C 0.1891 0.42262 0.79022 0.0
H1728 H 0.19332 0.4498 0.70882 0.0
C1729 C 0.22268 0.41327 0.794 0.0
H1730 H 0.15304 0.44215 0.75481 0.0
C1731 C 0.24547 0.41679 0.76753 0.0
C1732 C 0.23549 0.42933 0.73595 0.0
H1733 H 0.23093 0.40134 0.8169 0.0
H1734 H 0.27098 0.40858 0.77173 0.0
C1735 C 0.20204 0.43984 0.73244 0.0
C1736 C 0.78176 0.86389 0.9333 0.0
C1737 C 0.75068 0.85371 0.91983 0.0
H1738 H 0.83232 0.85009 0.94683 0.0
C1739 C 0.74732 0.82012 0.91046 0.0
H1740 H 0.78595 0.88998 0.93908 0.0
C1741 C 0.77405 0.79753 0.914 0.0
C1742 C 0.80559 0.80768 0.92657 0.0
H1743 H 0.72446 0.81166 0.89865 0.0
H1744 H 0.77007 0.77201 0.90586 0.0
C1745 C 0.80876 0.84118 0.93692 0.0
C1746 C 0.77579 0.24505 0.61891 0.0
C1747 C 0.8089 0.2345 0.61151 0.0
H1748 H 0.72498 0.23116 0.63019 0.0
C1749 C 0.81411 0.20014 0.60588 0.0
H1750 H 0.77025 0.27125 0.62312 0.0
C1751 C 0.78747 0.17712 0.60945 0.0
C1752 C 0.75474 0.18778 0.61792 0.0
H1753 H 0.83895 0.19089 0.60009 0.0
H1754 H 0.79294 0.15063 0.6076 0.0
C1755 C 0.74933 0.22213 0.62227 0.0
C1756 C 0.24329 0.33146 0.59145 0.0
C1757 C 0.23239 0.30856 0.61607 0.0
H1758 H 0.27962 0.3694 0.57803 0.0
C1759 C 0.25152 0.30564 0.64537 0.0
H1760 H 0.23016 0.33323 0.56786 0.0
C1761 C 0.2795 0.32579 0.65083 0.0
C1762 C 0.28982 0.34983 0.6272 0.0
H1763 H 0.24468 0.28761 0.66445 0.0
H1764 H 0.29241 0.32343 0.67453 0.0
C1765 C 0.27196 0.35167 0.5969 0.0
C1766 C 0.76863 0.24236 0.4234 0.0
C1767 C 0.73511 0.23209 0.42891 0.0
H1768 H 0.81951 0.22795 0.41302 0.0
C1769 C 0.72898 0.19765 0.43232 0.0
H1770 H 0.77476 0.26865 0.42097 0.0
C1771 C 0.75522 0.1743 0.42823 0.0
C1772 C 0.78835 0.18472 0.42144 0.0
H1773 H 0.70377 0.18867 0.43661 0.0
H1774 H 0.74919 0.14788 0.4283 0.0
C1775 C 0.79472 0.21908 0.41953 0.0
C1776 C 0.62281 0.79347 0.71968 0.0
C1777 C 0.61884 0.78805 0.68536 0.0
H1778 H 0.62357 0.77245 0.76875 0.0
C1779 C 0.61086 0.7553 0.67466 0.0
H1780 H 0.63035 0.81786 0.72872 0.0
C1781 C 0.60745 0.7286 0.69762 0.0
C1782 C 0.61278 0.73381 0.73194 0.0
H1783 H 0.60933 0.74985 0.6482 0.0
H1784 H 0.6021 0.70374 0.68835 0.0
C1785 C 0.61962 0.76695 0.74255 0.0
C1786 C 0.42546 0.77219 0.74163 0.0
C1787 C 0.43021 0.80581 0.73133 0.0
H1788 H 0.41524 0.72133 0.72732 0.0
C1789 C 0.43242 0.81224 0.69688 0.0
H1790 H 0.42398 0.76586 0.76792 0.0
C1791 C 0.42784 0.78617 0.6736 0.0
C1792 C 0.42177 0.75292 0.68407 0.0
H1793 H 0.43606 0.83755 0.68791 0.0
H1794 H 0.427 0.79239 0.64726 0.0
C1795 C 0.42112 0.74625 0.71839 0.0
C1796 C 0.60541 0.28387 0.86044 0.0
C1797 C 0.62035 0.25317 0.851 0.0
H1798 H 0.59152 0.33417 0.84597 0.0
C1799 C 0.63192 0.25016 0.81806 0.0
H1800 H 0.59777 0.28774 0.88613 0.0
C1801 C 0.62923 0.27688 0.79543 0.0
C1802 C 0.61528 0.30809 0.80488 0.0
H1803 H 0.64488 0.22762 0.81027 0.0
H1804 H 0.63909 0.27315 0.77048 0.0
C1805 C 0.60267 0.3109 0.83766 0.0
C1806 C 0.39469 0.24717 0.80868 0.0
C1807 C 0.42526 0.22984 0.81003 0.0
H1808 H 0.36426 0.28692 0.82709 0.0
C1809 C 0.45049 0.24264 0.83117 0.0
H1810 H 0.37514 0.239 0.79182 0.0
C1811 C 0.4445 0.27141 0.85121 0.0
C1812 C 0.41313 0.28766 0.85082 0.0
H1813 H 0.475 0.23104 0.83152 0.0
H1814 H 0.46402 0.28057 0.86743 0.0
C1815 C 0.38876 0.27531 0.82853 0.0
C1816 C 0.7228 0.62307 0.7923 0.0
C1817 C 0.68849 0.61939 0.7863 0.0
H1818 H 0.77231 0.62327 0.77205 0.0
C1819 C 0.6782 0.61138 0.75349 0.0
H1820 H 0.7315 0.63063 0.81678 0.0
C1821 C 0.70159 0.60762 0.72726 0.0
C1822 C 0.73591 0.61263 0.73302 0.0
H1823 H 0.65178 0.61009 0.74764 0.0
H1824 H 0.69266 0.60224 0.7023 0.0
C1825 C 0.74611 0.61954 0.76621 0.0
C1826 C 0.3295 0.9495 0.73916 0.0
C1827 C 0.30796 0.92442 0.72675 0.0
H1828 H 0.3661 0.96291 0.77674 0.0
C1829 C 0.30619 0.8941 0.74442 0.0
H1830 H 0.33021 0.97384 0.72726 0.0
C1831 C 0.32609 0.88821 0.77251 0.0
C1832 C 0.34876 0.91243 0.78444 0.0
H1833 H 0.28905 0.87467 0.7365 0.0
H1834 H 0.32448 0.86386 0.78436 0.0
C1835 C 0.34952 0.94358 0.76789 0.0
C1836 C 0.70083 0.43451 0.80868 0.0
C1837 C 0.73538 0.43083 0.80309 0.0
H1838 H 0.65134 0.43026 0.78804 0.0
C1839 C 0.74613 0.4244 0.76992 0.0
H1840 H 0.69147 0.43944 0.83362 0.0
C1841 C 0.7232 0.42005 0.74368 0.0
C1842 C 0.68872 0.4224 0.74952 0.0
H1843 H 0.77251 0.42167 0.76421 0.0
H1844 H 0.73242 0.41294 0.71921 0.0
C1845 C 0.67785 0.42993 0.78232 0.0
C1846 C 0.33984 0.10374 0.80914 0.0
C1847 C 0.30651 0.11453 0.8054 0.0
H1848 H 0.38903 0.10112 0.78717 0.0
C1849 C 0.29695 0.12742 0.77382 0.0
H1850 H 0.34826 0.09354 0.83277 0.0
C1851 C 0.32 0.13085 0.74756 0.0
C1852 C 0.35343 0.12109 0.75153 0.0
H1853 H 0.27156 0.13589 0.76944 0.0
H1854 H 0.31205 0.14295 0.72464 0.0
C1855 C 0.36303 0.10725 0.78262 0.0
C1856 C 0.74164 0.71065 0.59076 0.0
C1857 C 0.732 0.73435 0.61512 0.0
H1858 H 0.77718 0.67205 0.57685 0.0
C1859 C 0.75268 0.73805 0.64327 0.0
H1860 H 0.72727 0.70815 0.56797 0.0
C1861 C 0.78093 0.71792 0.64795 0.0
C1862 C 0.79002 0.69313 0.62462 0.0
H1863 H 0.74682 0.75665 0.66211 0.0
H1864 H 0.795 0.7208 0.67091 0.0
C1865 C 0.77057 0.69046 0.5954 0.0
C1866 C 0.7748 0.32831 0.88796 0.0
C1867 C 0.78647 0.35106 0.91219 0.0
H1868 H 0.73887 0.29132 0.87411 0.0
C1869 C 0.76959 0.35192 0.94315 0.0
H1870 H 0.78696 0.32653 0.86379 0.0
C1871 C 0.74075 0.3319 0.94882 0.0
C1872 C 0.72858 0.31033 0.92368 0.0
H1873 H 0.77827 0.36852 0.96254 0.0
H1874 H 0.7286 0.33262 0.97303 0.0
C1875 C 0.74658 0.30851 0.89357 0.0
C1876 C 0.2674 0.19161 0.94338 0.0
C1877 C 0.24935 0.19388 0.91324 0.0
H1878 H 0.30906 0.20996 0.97265 0.0
C1879 C 0.25906 0.21871 0.89017 0.0
H1880 H 0.26029 0.17315 0.96175 0.0
C1881 C 0.28659 0.2394 0.89612 0.0
C1882 C 0.30596 0.23603 0.92523 0.0
H1883 H 0.24604 0.22128 0.86656 0.0
H1884 H 0.29301 0.25807 0.87752 0.0
C1885 C 0.29569 0.21222 0.94923 0.0
C1886 C 0.7759 0.29642 0.12736 0.0
C1887 C 0.80686 0.30614 0.11304 0.0
H1888 H 0.72667 0.31078 0.14369 0.0
C1889 C 0.80919 0.33905 0.10057 0.0
H1890 H 0.77252 0.27138 0.13718 0.0
C1891 C 0.78194 0.36162 0.10375 0.0
C1892 C 0.75147 0.35187 0.11899 0.0
H1893 H 0.83224 0.34761 0.08916 0.0
H1894 H 0.7855 0.38738 0.09617 0.0
C1895 C 0.74897 0.31883 0.13049 0.0
C1896 C 0.41756 0.27125 0.29646 0.0
C1897 C 0.42936 0.30309 0.30652 0.0
H1898 H 0.40241 0.22172 0.31093 0.0
C1899 C 0.43865 0.307 0.34019 0.0
H1900 H 0.41024 0.26679 0.2708 0.0
C1901 C 0.43472 0.28037 0.36316 0.0
C1902 C 0.42196 0.24899 0.35307 0.0
H1903 H 0.44792 0.33084 0.34902 0.0
H1904 H 0.43962 0.28509 0.38931 0.0
C1905 C 0.41369 0.24487 0.31933 0.0
C1906 C 0.64718 0.2506 0.30204 0.0
C1907 C 0.61834 0.2307 0.30499 0.0
H1908 H 0.67561 0.29188 0.32029 0.0
C1909 C 0.59365 0.24068 0.32825 0.0
H1910 H 0.66629 0.24445 0.28377 0.0
C1911 C 0.5986 0.26919 0.34877 0.0
C1912 C 0.62847 0.2878 0.34692 0.0
H1913 H 0.5704 0.22691 0.33014 0.0
H1914 H 0.57975 0.2761 0.3668 0.0
C1915 C 0.65218 0.27841 0.32256 0.0
C1916 C 0.42637 0.75074 0.17189 0.0
C1917 C 0.42168 0.78419 0.18256 0.0
H1918 H 0.43299 0.69888 0.1859 0.0
C1919 C 0.42207 0.79059 0.21691 0.0
H1920 H 0.42487 0.74476 0.14553 0.0
C1921 C 0.42595 0.7643 0.23995 0.0
C1922 C 0.42919 0.7305 0.22955 0.0
H1923 H 0.41733 0.81566 0.22608 0.0
H1924 H 0.42529 0.77058 0.26628 0.0
C1925 C 0.43048 0.72426 0.19502 0.0
C1926 C 0.61732 0.77422 0.24186 0.0
C1927 C 0.61116 0.80757 0.23134 0.0
H1928 H 0.62777 0.72326 0.22796 0.0
C1929 C 0.60663 0.81316 0.19694 0.0
H1930 H 0.6206 0.76841 0.2681 0.0
C1931 C 0.61026 0.7866 0.17388 0.0
C1932 C 0.61767 0.75364 0.18454 0.0
H1933 H 0.60181 0.83819 0.18773 0.0
H1934 H 0.60933 0.79228 0.14742 0.0
C1935 C 0.62073 0.74785 0.2189 0.0
C1936 C 0.30641 0.39246 0.29349 0.0
C1937 C 0.3084 0.42229 0.31192 0.0
H1938 H 0.32482 0.36296 0.25303 0.0
C1939 C 0.33048 0.44733 0.30027 0.0
H1940 H 0.28892 0.37307 0.30082 0.0
C1941 C 0.35076 0.44185 0.27156 0.0
C1942 C 0.34976 0.41115 0.25426 0.0
H1943 H 0.33147 0.47132 0.31279 0.0
H1944 H 0.36777 0.46115 0.26333 0.0
C1945 C 0.3266 0.38698 0.26544 0.0
C1946 C 0.74497 0.11555 0.27299 0.0
C1947 C 0.73423 0.11031 0.30638 0.0
H1948 H 0.73133 0.1253 0.22187 0.0
C1949 C 0.69967 0.10677 0.31201 0.0
H1950 H 0.77135 0.11806 0.2672 0.0
C1951 C 0.67669 0.11049 0.28543 0.0
C1952 C 0.68757 0.11692 0.25236 0.0
H1953 H 0.69029 0.10271 0.3371 0.0
H1954 H 0.65017 0.11042 0.29112 0.0
C1955 C 0.72207 0.119 0.24655 0.0
C1956 C 0.3377 0.60011 0.23245 0.0
C1957 C 0.30465 0.61203 0.23529 0.0
H1958 H 0.38643 0.59699 0.25514 0.0
C1959 C 0.29498 0.62659 0.26608 0.0
H1960 H 0.34614 0.58858 0.20945 0.0
C1961 C 0.31773 0.63058 0.2924 0.0
C1962 C 0.35093 0.61969 0.28928 0.0
H1963 H 0.26978 0.63599 0.26971 0.0
H1964 H 0.30982 0.64395 0.31461 0.0
C1965 C 0.36057 0.60411 0.25906 0.0
C1966 C 0.69996 0.93341 0.22786 0.0
C1967 C 0.73432 0.92824 0.23341 0.0
H1968 H 0.65024 0.93086 0.24846 0.0
C1969 C 0.74465 0.92075 0.26646 0.0
H1970 H 0.69093 0.93926 0.20302 0.0
C1971 C 0.72147 0.91683 0.29259 0.0
C1972 C 0.68715 0.92069 0.28678 0.0
H1973 H 0.77087 0.91685 0.27218 0.0
H1974 H 0.73029 0.90885 0.31693 0.0
C1975 C 0.6767 0.92932 0.25415 0.0
C1976 C 0.30951 0.33827 0.43932 0.0
C1977 C 0.3073 0.30532 0.42706 0.0
H1978 H 0.28553 0.38645 0.4437 0.0
C1979 C 0.27632 0.29533 0.41309 0.0
H1980 H 0.33257 0.34701 0.45046 0.0
C1981 C 0.24924 0.31755 0.4101 0.0
C1982 C 0.25162 0.35064 0.42138 0.0
H1983 H 0.27305 0.27024 0.40344 0.0
H1984 H 0.22692 0.30932 0.39716 0.0
C1985 C 0.2821 0.36065 0.43629 0.0
C1986 C 0.29788 0.70857 0.08974 0.0
C1987 C 0.30871 0.73156 0.11423 0.0
H1988 H 0.26171 0.67043 0.07657 0.0
C1989 C 0.28964 0.7343 0.14365 0.0
H1990 H 0.31095 0.7069 0.06606 0.0
C1991 C 0.26178 0.71397 0.14932 0.0
C1992 C 0.25147 0.68988 0.1258 0.0
H1993 H 0.2964 0.75238 0.16264 0.0
H1994 H 0.2489 0.71631 0.17307 0.0
C1995 C 0.26932 0.68815 0.09541 0.0
C1996 C 0.75018 0.80421 0.14454 0.0
C1997 C 0.73092 0.80712 0.11532 0.0
H1998 H 0.79135 0.82184 0.17343 0.0
C1999 C 0.74189 0.82984 0.09056 0.0
H2000 H 0.74331 0.78628 0.1637 0.0
C2001 C 0.77074 0.84988 0.0958 0.0
C2002 C 0.78877 0.84803 0.12599 0.0
H2003 H 0.72869 0.8316 0.067 0.0
H2004 H 0.77844 0.86748 0.07684 0.0
C2005 C 0.77835 0.82418 0.14978 0.0
C2006 C 0.26388 0.74525 0.91063 0.0
C2007 C 0.23331 0.73552 0.92576 0.0
H2008 H 0.31305 0.73113 0.89404 0.0
C2009 C 0.23168 0.70302 0.93935 0.0
H2010 H 0.2667 0.76999 0.89993 0.0
C2011 C 0.25925 0.68078 0.93655 0.0
C2012 C 0.28929 0.69049 0.92047 0.0
H2013 H 0.20897 0.69452 0.95146 0.0
H2014 H 0.25625 0.65525 0.94508 0.0
C2015 C 0.29109 0.72317 0.90785 0.0
C2016 C 0.10989 0.15343 0.45028 0.0
C2017 C 0.12836 0.17021 0.42514 0.0
H2018 H 0.09591 0.15104 0.5023 0.0
C2019 C 0.14787 0.19772 0.43438 0.0
H2020 H 0.09449 0.13205 0.44405 0.0
C2021 C 0.14827 0.20873 0.46753 0.0
C2022 C 0.12939 0.19247 0.49274 0.0
H2023 H 0.16228 0.21131 0.41586 0.0
H2024 H 0.16355 0.23033 0.47326 0.0
C2025 C 0.11053 0.16431 0.48373 0.0
C2026 C 0.89616 0.33055 0.46697 0.0
C2027 C 0.91434 0.34806 0.4917 0.0
H2028 H 0.88258 0.32607 0.41551 0.0
C2029 C 0.93256 0.37645 0.4819 0.0
H2030 H 0.88139 0.30872 0.47329 0.0
C2031 C 0.93318 0.3864 0.44813 0.0
C2032 C 0.91531 0.36838 0.42354 0.0
H2033 H 0.94663 0.39064 0.50012 0.0
H2034 H 0.94803 0.40798 0.44121 0.0
C2035 C 0.89654 0.3406 0.43358 0.0
C2036 C 0.10651 0.88619 0.08925 0.0
C2037 C 0.12414 0.86795 0.11391 0.0
H2038 H 0.09349 0.89071 0.03716 0.0
C2039 C 0.14276 0.83997 0.10404 0.0
H2040 H 0.09179 0.90793 0.09607 0.0
C2041 C 0.14328 0.82998 0.07068 0.0
C2042 C 0.12545 0.84778 0.04585 0.0
H2043 H 0.15652 0.82528 0.1222 0.0
H2044 H 0.15795 0.80801 0.06448 0.0
C2045 C 0.10731 0.87631 0.0555 0.0
C2046 C 0.92934 0.65366 0.08887 0.0
C2047 C 0.91238 0.67176 0.11414 0.0
H2048 H 0.94232 0.65011 0.03672 0.0
C2049 C 0.89488 0.70073 0.10509 0.0
H2050 H 0.94319 0.63115 0.09498 0.0
C2051 C 0.89491 0.71178 0.07193 0.0
C2052 C 0.91214 0.69402 0.04655 0.0
H2053 H 0.88177 0.71539 0.12376 0.0
H2054 H 0.88121 0.7345 0.06628 0.0
C2055 C 0.92905 0.66454 0.05544 0.0
C2056 C 0.46966 0.14639 0.20625 0.0
C2057 C 0.49471 0.12725 0.18999 0.0
H2058 H 0.41793 0.16021 0.20946 0.0
C2059 C 0.48532 0.10771 0.16246 0.0
H2060 H 0.47567 0.16218 0.22738 0.0
C2061 C 0.45164 0.10668 0.15219 0.0
C2062 C 0.42667 0.1254 0.16902 0.0
H2063 H 0.50377 0.09287 0.14923 0.0
H2064 H 0.4451 0.09079 0.1313 0.0
C2065 C 0.4363 0.14556 0.19589 0.0
C2066 C 0.57228 0.39688 0.21106 0.0
C2067 C 0.54666 0.41436 0.19383 0.0
H2068 H 0.62415 0.38394 0.21448 0.0
C2069 C 0.55555 0.43246 0.16508 0.0
H2070 H 0.56686 0.38235 0.23328 0.0
C2071 C 0.58918 0.43337 0.15437 0.0
C2072 C 0.61454 0.41589 0.17193 0.0
H2073 H 0.53672 0.44601 0.15107 0.0
H2074 H 0.59536 0.44799 0.1324 0.0
C2075 C 0.60547 0.39747 0.20022 0.0
C2076 C 0.4505 0.93349 0.38562 0.0
C2077 C 0.42582 0.91455 0.36888 0.0
H2078 H 0.50254 0.94763 0.38828 0.0
C2079 C 0.43566 0.8946 0.34185 0.0
H2080 H 0.44372 0.94925 0.40658 0.0
C2081 C 0.46891 0.89408 0.33127 0.0
C2082 C 0.49374 0.91329 0.34745 0.0
H2083 H 0.41753 0.87975 0.32831 0.0
H2084 H 0.47501 0.87836 0.31007 0.0
C2085 C 0.4842 0.93271 0.37513 0.0
C2086 C 0.58818 0.60973 0.38692 0.0
C2087 C 0.6135 0.62574 0.36808 0.0
H2088 H 0.53584 0.59761 0.3913 0.0
C2089 C 0.60447 0.64245 0.33869 0.0
H2090 H 0.59435 0.59652 0.40976 0.0
C2091 C 0.57125 0.64244 0.3279 0.0
C2092 C 0.54581 0.62616 0.34639 0.0
H2093 H 0.62321 0.6548 0.32347 0.0
H2094 H 0.56563 0.65539 0.30478 0.0
C2095 C 0.55465 0.61014 0.37633 0.0
C2096 C 0.20511 0.46815 0.14894 0.0
C2097 C 0.19021 0.49294 0.12842 0.0
H2098 H 0.20723 0.41673 0.16386 0.0
C2099 C 0.16379 0.48331 0.10748 0.0
H2100 H 0.22531 0.4743 0.16586 0.0
C2101 C 0.15341 0.44964 0.10645 0.0
C2102 C 0.169 0.42494 0.12656 0.0
H2103 H 0.15162 0.50153 0.09152 0.0
H2104 H 0.13347 0.44286 0.08946 0.0
C2105 C 0.19464 0.43485 0.14809 0.0
C2106 C 0.20986 0.57039 0.39811 0.0
C2107 C 0.19163 0.54515 0.41499 0.0
H2108 H 0.21421 0.62218 0.38516 0.0
C2109 C 0.16204 0.55429 0.43161 0.0
H2110 H 0.23274 0.5646 0.38473 0.0
C2111 C 0.15156 0.58792 0.43197 0.0
C2112 C 0.17016 0.61299 0.41528 0.0
H2113 H 0.14729 0.53566 0.44465 0.0
H2114 H 0.12901 0.59434 0.44561 0.0
C2115 C 0.19918 0.60364 0.39804 0.0
C2116 C 0.88745 0.94852 0.43063 0.0
C2117 C 0.86988 0.92364 0.4127 0.0
H2118 H 0.89108 1.00061 0.44398 0.0
C2119 C 0.84227 0.93336 0.39351 0.0
H2120 H 0.90893 0.94188 0.44577 0.0
C2121 C 0.83189 0.96675 0.39295 0.0
C2122 C 0.84895 0.99171 0.41129 0.0
H2123 H 0.82809 0.91503 0.37953 0.0
H2124 H 0.81015 0.97289 0.37799 0.0
C2125 C 0.87724 0.98221 0.42978 0.0
C2126 C 0.38499 0.59045 0.60304 0.0
C2127 C 0.36967 0.61512 0.62339 0.0
H2128 H 0.38696 0.53843 0.58866 0.0
C2129 C 0.3448 0.60512 0.64586 0.0
H2130 H 0.40435 0.59732 0.58536 0.0
C2131 C 0.33482 0.57175 0.64746 0.0
C2132 C 0.34942 0.54695 0.62675 0.0
H2133 H 0.33249 0.62322 0.66188 0.0
H2134 H 0.31518 0.56555 0.6651 0.0
C2135 C 0.37507 0.55666 0.60481 0.0
C2136 C 0.89347 0.82971 0.57178 0.0
C2137 C 0.91153 0.8467 0.54647 0.0
H2138 H 0.88014 0.82644 0.62358 0.0
C2139 C 0.9297 0.87533 0.55544 0.0
H2140 H 0.87877 0.8077 0.56608 0.0
C2141 C 0.93044 0.88601 0.58892 0.0
C2142 C 0.91272 0.86857 0.61415 0.0
H2143 H 0.94367 0.88915 0.53677 0.0
H2144 H 0.94527 0.90779 0.59512 0.0
C2145 C 0.89393 0.84054 0.60498 0.0
C2146 C 0.14439 0.69936 0.60512 0.0
C2147 C 0.12643 0.67102 0.61509 0.0
H2148 H 0.15849 0.73184 0.56552 0.0
C2149 C 0.109 0.65262 0.59048 0.0
H2150 H 0.15796 0.71421 0.62322 0.0
C2151 C 0.10926 0.66271 0.55674 0.0
C2152 C 0.12665 0.69164 0.54701 0.0
H2153 H 0.09477 0.63061 0.59735 0.0
H2154 H 0.09557 0.64819 0.53849 0.0
C2155 C 0.14437 0.70957 0.57177 0.0
C2156 C 0.89578 0.19999 0.93394 0.0
C2157 C 0.91482 0.17222 0.92419 0.0
H2158 H 0.88017 0.23197 0.97339 0.0
C2159 C 0.93277 0.15445 0.94895 0.0
H2160 H 0.88174 0.21432 0.9157 0.0
C2161 C 0.93194 0.16458 0.98262 0.0
C2162 C 0.91341 0.19291 0.99214 0.0
H2163 H 0.94782 0.13289 0.94226 0.0
H2164 H 0.94606 0.15055 1.001 0.0
C2165 C 0.89517 0.21021 0.96725 0.0
C2166 C 0.10965 0.37583 0.98471 0.0
C2167 C 0.12733 0.34689 0.99385 0.0
H2168 H 0.09473 0.40849 0.94484 0.0
C2169 C 0.14511 0.32941 0.96866 0.0
H2170 H 0.09592 0.39003 1.00328 0.0
C2171 C 0.14492 0.34015 0.93543 0.0
C2172 C 0.12665 0.36854 0.92611 0.0
H2173 H 0.15942 0.30711 0.97449 0.0
H2174 H 0.15849 0.32571 0.91692 0.0
C2175 C 0.10916 0.38642 0.95118 0.0
C2176 C 0.58788 0.93513 0.88498 0.0
C2177 C 0.61307 0.91665 0.86813 0.0
H2178 H 0.53554 0.94854 0.88777 0.0
C2179 C 0.60375 0.89694 0.8409 0.0
H2180 H 0.59425 0.95073 0.90614 0.0
C2181 C 0.57056 0.89616 0.83025 0.0
C2182 C 0.54514 0.91479 0.84662 0.0
H2183 H 0.62226 0.88253 0.82723 0.0
H2184 H 0.56502 0.88066 0.80878 0.0
C2185 C 0.55421 0.93406 0.87445 0.0
C2186 C 0.45205 0.61007 0.88628 0.0
C2187 C 0.42684 0.62727 0.86831 0.0
H2188 H 0.50429 0.59698 0.88982 0.0
C2189 C 0.43606 0.64506 0.83961 0.0
H2190 H 0.44581 0.59599 0.90857 0.0
C2191 C 0.46931 0.64513 0.82871 0.0
C2192 C 0.49464 0.62769 0.84631 0.0
H2193 H 0.41746 0.6584 0.82507 0.0
H2194 H 0.47504 0.65912 0.80622 0.0
C2195 C 0.48561 0.61044 0.87552 0.0
C2196 C 0.59048 0.11073 0.65155 0.0
C2197 C 0.61582 0.12694 0.67007 0.0
H2198 H 0.53812 0.09849 0.64766 0.0
C2199 C 0.60684 0.14373 0.69942 0.0
H2200 H 0.59661 0.09743 0.62876 0.0
C2201 C 0.57368 0.1437 0.71046 0.0
C2202 C 0.54819 0.12732 0.69227 0.0
H2203 H 0.62559 0.15622 0.71442 0.0
H2204 H 0.56814 0.15673 0.73355 0.0
C2205 C 0.55697 0.11114 0.66239 0.0
C2206 C 0.43735 0.39564 0.69688 0.0
C2207 C 0.4273 0.41613 0.67033 0.0
H2208 H 0.47704 0.37863 0.72775 0.0
C2209 C 0.45189 0.43523 0.65349 0.0
H2210 H 0.41928 0.38063 0.71044 0.0
C2211 C 0.48568 0.43416 0.66346 0.0
C2212 C 0.49546 0.41421 0.69067 0.0
H2213 H 0.44496 0.45139 0.63288 0.0
H2214 H 0.50392 0.44926 0.65027 0.0
C2215 C 0.47074 0.39477 0.70691 0.0
C2216 C 0.88667 0.59052 0.93328 0.0
C2217 C 0.86996 0.61545 0.91438 0.0
H2218 H 0.8896 0.53833 0.94707 0.0
C2219 C 0.84321 0.60575 0.89415 0.0
H2220 H 0.90746 0.59715 0.94928 0.0
C2221 C 0.83285 0.57244 0.89334 0.0
C2222 C 0.84902 0.54732 0.91247 0.0
H2223 H 0.82968 0.62405 0.87939 0.0
H2224 H 0.81173 0.56656 0.87747 0.0
C2225 C 0.87645 0.55677 0.93218 0.0
C2226 C 0.87736 0.48606 0.60471 0.0
C2227 C 0.85005 0.49566 0.62462 0.0
H2228 H 0.9084 0.44553 0.58768 0.0
C2229 C 0.83396 0.47067 0.644 0.0
H2230 H 0.89044 0.5044 0.58963 0.0
C2231 C 0.84436 0.43737 0.64333 0.0
C2232 C 0.87106 0.42755 0.623 0.0
H2233 H 0.81289 0.47664 0.66 0.0
H2234 H 0.83093 0.41918 0.65831 0.0
C2235 C 0.88764 0.4523 0.60377 0.0
C2236 C 0.15102 0.09153 0.60988 0.0
C2237 C 0.17011 0.11646 0.62607 0.0
H2238 H 0.1462 0.03936 0.59723 0.0
C2239 C 0.19939 0.10688 0.64268 0.0
H2240 H 0.12825 0.09811 0.59674 0.0
C2241 C 0.2099 0.07353 0.64231 0.0
C2242 C 0.19121 0.04848 0.62579 0.0
H2243 H 0.21481 0.12531 0.65515 0.0
H2244 H 0.23299 0.0675 0.65514 0.0
C2245 C 0.16131 0.05785 0.60996 0.0
C2246 C 0.69985 0.43446 0.39516 0.0
C2247 C 0.67158 0.4246 0.41336 0.0
H2248 H 0.73207 0.47416 0.38051 0.0
C2249 C 0.653 0.44937 0.43053 0.0
H2250 H 0.71478 0.41622 0.38172 0.0
C2251 C 0.66289 0.48313 0.42986 0.0
C2252 C 0.69181 0.49274 0.41235 0.0
H2253 H 0.63101 0.4426 0.44488 0.0
H2254 H 0.64829 0.50151 0.44344 0.0
C2255 C 0.70987 0.46789 0.39477 0.0
C2256 C 0.6092 0.66379 0.98251 0.0
C2257 C 0.62752 0.69218 0.99185 0.0
H2258 H 0.5937 0.63182 0.94236 0.0
C2259 C 0.64595 0.70925 0.96686 0.0
H2260 H 0.59493 0.64994 1.00093 0.0
C2261 C 0.64573 0.69871 0.93362 0.0
C2262 C 0.62678 0.67094 0.92405 0.0
H2263 H 0.66076 0.73111 0.97284 0.0
H2264 H 0.65982 0.71287 0.91528 0.0
C2265 C 0.60867 0.65341 0.94892 0.0
C2266 C 0.43098 0.87642 0.98169 0.0
C2267 C 0.41263 0.84794 0.99102 0.0
H2268 H 0.44677 0.90843 0.94146 0.0
C2269 C 0.39456 0.83081 0.96596 0.0
H2270 H 0.445 0.89031 1.00018 0.0
C2271 C 0.39513 0.8413 0.93272 0.0
C2272 C 0.41403 0.86915 0.92312 0.0
H2273 H 0.37973 0.80891 0.97188 0.0
H2274 H 0.38122 0.82704 0.91439 0.0
C2275 C 0.43182 0.8868 0.94803 0.0
C2276 C 0.64469 0.34167 0.60251 0.0
C2277 C 0.62581 0.36958 0.61191 0.0
H2278 H 0.65969 0.30877 0.56382 0.0
C2279 C 0.60748 0.38679 0.58693 0.0
H2280 H 0.65889 0.32767 0.62088 0.0
C2281 C 0.60799 0.37604 0.55335 0.0
C2282 C 0.62646 0.34757 0.54419 0.0
H2283 H 0.5925 0.40846 0.59337 0.0
H2284 H 0.59374 0.38972 0.53481 0.0
C2285 C 0.64483 0.33075 0.56943 0.0
C2286 C 0.39814 0.2126 0.57275 0.0
C2287 C 0.41446 0.19372 0.54763 0.0
H2288 H 0.38623 0.218 0.6247 0.0
C2289 C 0.43097 0.16417 0.55697 0.0
H2290 H 0.38477 0.2354 0.56668 0.0
C2291 C 0.43181 0.15429 0.59065 0.0
C2292 C 0.4158 0.17352 0.61567 0.0
H2293 H 0.44354 0.14892 0.53842 0.0
H2294 H 0.44533 0.13169 0.59714 0.0
C2295 C 0.39864 0.20255 0.60619 0.0
C2296 C 0.97038 0.64648 0.70638 0.0
C2297 C 0.99558 0.62691 0.69088 0.0
H2298 H 0.91903 0.66124 0.70845 0.0
C2299 C 0.98641 0.60708 0.66341 0.0
H2300 H 0.97598 0.66252 0.72744 0.0
C2301 C 0.95281 0.60639 0.65249 0.0
C2302 C 0.92784 0.6258 0.66856 0.0
H2303 H 1.00495 0.59186 0.65074 0.0
H2304 H 0.94631 0.59033 0.63171 0.0
C2305 C 0.93732 0.64604 0.69538 0.0
C2306 C 0.05478 0.93071 0.66154 0.0
C2307 C 0.04574 0.91403 0.69108 0.0
H2308 H 0.09469 0.94518 0.62862 0.0
C2309 C 0.07116 0.89743 0.70933 0.0
H2310 H 0.03602 0.94353 0.64675 0.0
C2311 C 0.10451 0.89784 0.69878 0.0
C2312 C 0.11374 0.91521 0.66981 0.0
H2313 H 0.0654 0.88394 0.73212 0.0
H2314 H 0.12319 0.88522 0.71384 0.0
C2315 C 0.08843 0.93147 0.65115 0.0
C2316 C 0.936 0.3974 0.84088 0.0
C2317 C 0.92624 0.41501 0.86951 0.0
H2318 H 0.97548 0.38351 0.80804 0.0
C2319 C 0.95111 0.43187 0.88811 0.0
H2320 H 0.91769 0.38429 0.82586 0.0
C2321 C 0.98488 0.43138 0.87794 0.0
C2322 C 0.99439 0.41441 0.8487 0.0
H2323 H 0.94441 0.44581 0.91035 0.0
H2324 H 1.00333 0.44464 0.89263 0.0
C2325 C 0.96938 0.39726 0.83056 0.0
C2326 C 0.10384 0.14475 0.84163 0.0
C2327 C 0.11356 0.12481 0.86865 0.0
H2328 H 0.06483 0.1611 0.80985 0.0
C2329 C 0.08875 0.10586 0.88542 0.0
H2330 H 0.12202 0.15959 0.82805 0.0
C2331 C 0.05502 0.10672 0.87499 0.0
C2332 C 0.0456 0.12625 0.84733 0.0
H2333 H 0.09546 0.09007 0.9064 0.0
H2334 H 0.03657 0.09188 0.88818 0.0
C2335 C 0.07066 0.14534 0.8311 0.0
C2336 C 0.70701 0.96965 0.64568 0.0
C2337 C 0.69137 0.99468 0.62605 0.0
H2338 H 0.70958 0.9181 0.65991 0.0
C2339 C 0.66421 0.98534 0.60593 0.0
H2340 H 0.72786 0.97558 0.66189 0.0
C2341 C 0.65375 0.95171 0.60484 0.0
C2342 C 0.67001 0.9268 0.6241 0.0
H2343 H 0.65148 1.00377 0.59067 0.0
H2344 H 0.6332 0.94513 0.58851 0.0
C2345 C 0.69645 0.93641 0.64481 0.0
C2346 C 0.66298 0.05738 0.92871 0.0
C2347 C 0.6929 0.04815 0.91277 0.0
H2348 H 0.62991 0.09745 0.94225 0.0
C2349 C 0.71178 0.07335 0.89657 0.0
H2350 H 0.64772 0.03877 0.94116 0.0
C2351 C 0.7014 0.10675 0.89664 0.0
C2352 C 0.67201 0.11614 0.91326 0.0
H2353 H 0.73485 0.06738 0.88361 0.0
H2354 H 0.71688 0.12532 0.88437 0.0
C2355 C 0.65277 0.09104 0.92913 0.0
C2356 C 0.33174 0.47059 0.89849 0.0
C2357 C 0.35001 0.49566 0.91542 0.0
H2358 H 0.32686 0.41898 0.8856 0.0
C2359 C 0.37935 0.48616 0.93228 0.0
H2360 H 0.30907 0.47656 0.8849 0.0
C2361 C 0.38947 0.45234 0.93279 0.0
C2362 C 0.37074 0.42748 0.91604 0.0
H2363 H 0.39413 0.50463 0.9454 0.0
H2364 H 0.41179 0.44561 0.94661 0.0
C2365 C 0.34202 0.43725 0.8986 0.0
C2366 C 0.88617 0.08816 0.10391 0.0
C2367 C 0.86918 0.11303 0.12262 0.0
H2368 H 0.88927 0.036 0.09019 0.0
C2369 C 0.84194 0.10342 0.14232 0.0
H2370 H 0.90734 0.09479 0.08831 0.0
C2371 C 0.83144 0.0702 0.14289 0.0
C2372 C 0.848 0.04508 0.12409 0.0
H2373 H 0.82817 0.12172 0.15686 0.0
H2374 H 0.80996 0.06439 0.15838 0.0
C2375 C 0.87582 0.05446 0.1048 0.0
C2376 C 0.39566 0.34343 0.10525 0.0
C2377 C 0.41624 0.36981 0.11525 0.0
H2378 H 0.37845 0.31265 0.0659 0.0
C2379 C 0.43542 0.38654 0.09057 0.0
H2380 H 0.38061 0.32991 0.12331 0.0
C2381 C 0.43423 0.37663 0.05672 0.0
C2382 C 0.41409 0.34957 0.047 0.0
H2383 H 0.4517 0.40703 0.09747 0.0
H2384 H 0.44935 0.38972 0.03843 0.0
C2385 C 0.39469 0.33345 0.07193 0.0
C2386 C 0.6437 0.20968 0.07082 0.0
C2387 C 0.62662 0.19182 0.04555 0.0
H2388 H 0.65719 0.21331 0.12243 0.0
C2389 C 0.61024 0.16206 0.05448 0.0
H2390 H 0.65693 0.23265 0.06521 0.0
C2391 C 0.61029 0.1511 0.08793 0.0
C2392 C 0.62717 0.16935 0.11304 0.0
H2393 H 0.59707 0.14757 0.03583 0.0
H2394 H 0.59678 0.12846 0.09421 0.0
C2395 C 0.6442 0.19851 0.10388 0.0
C2396 C 0.39574 0.70195 0.43302 0.0
C2397 C 0.41414 0.67363 0.42375 0.0
H2398 H 0.38079 0.7347 0.47215 0.0
C2399 C 0.43143 0.65562 0.44882 0.0
H2400 H 0.38231 0.71646 0.41448 0.0
C2401 C 0.43061 0.666 0.48234 0.0
C2402 C 0.41278 0.69484 0.49145 0.0
H2403 H 0.44594 0.63358 0.4425 0.0
H2404 H 0.44419 0.65171 0.50093 0.0
C2405 C 0.3952 0.71248 0.46628 0.0
C2406 C 0.60791 0.88677 0.44913 0.0
C2407 C 0.62539 0.86862 0.42425 0.0
H2408 H 0.59488 0.89101 0.50125 0.0
C2409 C 0.64385 0.84047 0.43387 0.0
H2410 H 0.59334 0.90868 0.44253 0.0
C2411 C 0.64422 0.83018 0.4672 0.0
C2412 C 0.62647 0.84792 0.49222 0.0
H2413 H 0.65743 0.82583 0.41551 0.0
H2414 H 0.65865 0.80802 0.47324 0.0
C2415 C 0.6086 0.87666 0.4828 0.0
C2416 C 0.05524 0.43147 0.37493 0.0
C2417 C 0.04638 0.41274 0.34665 0.0
H2418 H 0.09495 0.44742 0.40736 0.0
C2419 C 0.0719 0.39433 0.33021 0.0
H2420 H 0.03647 0.44574 0.38833 0.0
C2421 C 0.10501 0.3948 0.34124 0.0
C2422 C 0.11409 0.41396 0.36895 0.0
H2423 H 0.06648 0.37921 0.30843 0.0
H2424 H 0.12362 0.38059 0.32752 0.0
C2425 C 0.08878 0.43222 0.38584 0.0
C2426 C 0.98553 0.10844 0.37718 0.0
C2427 C 0.99498 0.126 0.3483 0.0
H2428 H 0.94518 0.09331 0.40924 0.0
C2429 C 0.96994 0.14366 0.33052 0.0
H2430 H 1.004 0.09479 0.39158 0.0
C2431 C 0.93651 0.14334 0.34081 0.0
C2432 C 0.92684 0.12501 0.36901 0.0
H2433 H 0.97605 0.1579 0.30828 0.0
H2434 H 0.91811 0.15676 0.32609 0.0
C2435 C 0.95179 0.10776 0.38729 0.0
C2436 C 0.10337 0.64233 0.19841 0.0
C2437 C 0.11314 0.62467 0.16983 0.0
H2438 H 0.06393 0.65624 0.23123 0.0
C2439 C 0.0883 0.60779 0.15122 0.0
H2440 H 0.12165 0.65546 0.21344 0.0
C2441 C 0.05451 0.60831 0.16135 0.0
C2442 C 0.04501 0.62531 0.19057 0.0
H2443 H 0.09502 0.59382 0.12901 0.0
H2444 H 0.03605 0.59503 0.14668 0.0
C2445 C 0.07 0.64247 0.2087 0.0
C2446 C 0.96906 0.89454 0.20729 0.0
C2447 C 0.99426 0.91362 0.19126 0.0
H2448 H 0.91763 0.88039 0.20997 0.0
C2449 C 0.98503 0.93325 0.16361 0.0
H2450 H 0.97473 0.87871 0.22854 0.0
C2451 C 0.95138 0.93418 0.15294 0.0
C2452 C 0.92643 0.91522 0.16949 0.0
H2453 H 1.00358 0.94807 0.15054 0.0
H2454 H 0.94484 0.95003 0.13196 0.0
C2455 C 0.93594 0.89522 0.19654 0.0
C2456 C 0.33638 0.06919 0.39087 0.0
C2457 C 0.34971 0.04429 0.41238 0.0
H2458 H 0.33507 0.12056 0.37602 0.0
C2459 C 0.3742 0.05397 0.43552 0.0
H2460 H 0.31758 0.0632 0.37236 0.0
C2461 C 0.38428 0.08774 0.43748 0.0
C2462 C 0.37019 0.11243 0.41625 0.0
H2463 H 0.38508 0.03574 0.45236 0.0
H2464 H 0.40275 0.09461 0.45602 0.0
C2465 C 0.34643 0.10248 0.39275 0.0
C2466 C 0.38822 0.9496 0.10815 0.0
C2467 C 0.36912 0.92445 0.12414 0.0
H2468 H 0.39312 1.00193 0.09612 0.0
C2469 C 0.33979 0.93383 0.14085 0.0
H2470 H 0.41103 0.94319 0.09493 0.0
C2471 C 0.3293 0.96721 0.1409 0.0
C2472 C 0.34805 0.99249 0.12467 0.0
H2473 H 0.32436 0.91525 0.15318 0.0
H2474 H 0.30621 0.9731 0.15387 0.0
C2475 C 0.37795 0.98328 0.10864 0.0
C2476 C 0.65195 0.5896 0.10706 0.0
C2477 C 0.66991 0.61462 0.1244 0.0
H2478 H 0.64827 0.53741 0.09399 0.0
C2479 C 0.69825 0.60519 0.14261 0.0
H2480 H 0.62991 0.59607 0.09268 0.0
C2481 C 0.70895 0.57193 0.14281 0.0
C2482 C 0.69144 0.54677 0.12517 0.0
H2483 H 0.71277 0.62365 0.15605 0.0
H2484 H 0.7313 0.56608 0.15695 0.0
C2485 C 0.66246 0.55598 0.10763 0.0
C2486 C 0.1652 0.98641 0.93408 0.0
C2487 C 0.19164 0.99592 0.91298 0.0
H2488 H 0.13467 0.94603 0.95224 0.0
C2489 C 0.20662 0.97098 0.89269 0.0
H2490 H 0.15298 1.00473 0.94988 0.0
C2491 C 0.19607 0.93777 0.89368 0.0
C2492 C 0.17025 0.92801 0.91516 0.0
H2493 H 0.22694 0.97692 0.87574 0.0
H2494 H 0.20866 0.91961 0.87795 0.0
C2495 C 0.15472 0.95275 0.93526 0.0
loop_
_geom_bond_atom_site_label_1
_geom_bond_atom_site_label_2
_geom_bond_distance
_geom_bond_site_symmetry_2
_ccdc_geom_bond_type
Fe0 O2 1.918 . S
Fe0 O5 1.997 . S
Fe0 O6 2.002 . S
Fe0 O11 1.976 . S
Fe0 O14 1.996 1_455 S
Fe1 O2 1.918 . S
Fe1 O9 1.997 . S
Fe1 O12 1.996 . S
Fe1 O16 1.976 . S
Fe1 O19 2.002 . S
O2 Fe0 1.918 . S
O2 Fe1 1.918 . S
O2 Fe3 1.918 . S
Fe3 O2 1.918 . S
Fe3 O4 2.002 . S
Fe3 O13 1.976 . S
Fe3 O17 1.996 . S
Fe3 O20 1.997 . S
O4 Fe3 2.002 . S
O4 C21 1.295 . S
O5 Fe0 1.997 . S
O5 C21 1.235 . S
O6 Fe0 2.002 . S
O6 C7 1.295 . S
C7 O6 1.295 . S
C7 O9 1.235 . S
C8 O13 1.287 1_655 S
C8 O14 1.255 . S
O9 Fe1 1.997 . S
O9 C7 1.235 . S
C10 O16 1.287 . S
C10 O17 1.255 . S
O11 Fe0 1.976 . S
O11 C18 1.287 . S
O12 Fe1 1.996 . S
O12 C18 1.255 . S
O13 Fe3 1.976 . S
O13 C8 1.287 1_455 S
O14 Fe0 1.996 1_655 S
O14 C8 1.255 . S
C15 O19 1.295 . S
C15 O20 1.235 . S
O16 Fe1 1.976 . S
O16 C10 1.287 . S
O17 Fe3 1.996 . S
O17 C10 1.255 . S
C18 O11 1.287 . S
C18 O12 1.255 . S
O19 Fe1 2.002 . S
O19 C15 1.295 . S
O20 Fe3 1.997 . S
O20 C15 1.235 . S
C21 O4 1.295 . S
C21 O5 1.235 . S
Fe22 O24 1.918 . S
Fe22 O27 1.997 . S
Fe22 O28 2.002 . S
Fe22 O33 1.976 . S
Fe22 O36 1.996 . S
Fe23 O24 1.918 . S
Fe23 O31 1.997 . S
Fe23 O34 1.996 1_655 S
Fe23 O38 1.976 . S
Fe23 O41 2.002 . S
O24 Fe22 1.918 . S
O24 Fe23 1.918 . S
O24 Fe25 1.918 . S
Fe25 O24 1.918 . S
Fe25 O26 2.002 . S
Fe25 O35 1.976 . S
Fe25 O39 1.996 . S
Fe25 O42 1.997 . S
O26 Fe25 2.002 . S
O26 C43 1.295 . S
O27 Fe22 1.997 . S
O27 C43 1.235 . S
O28 Fe22 2.002 . S
O28 C29 1.295 . S
C29 O28 1.295 . S
C29 O31 1.235 . S
C30 O35 1.287 . S
C30 O36 1.255 . S
O31 Fe23 1.997 . S
O31 C29 1.235 . S
C32 O38 1.287 . S
C32 O39 1.255 . S
O33 Fe22 1.976 . S
O33 C40 1.287 1_655 S
O34 Fe23 1.996 1_455 S
O34 C40 1.255 . S
O35 Fe25 1.976 . S
O35 C30 1.287 . S
O36 Fe22 1.996 . S
O36 C30 1.255 . S
C37 O41 1.295 . S
C37 O42 1.235 . S
O38 Fe23 1.976 . S
O38 C32 1.287 . S
O39 Fe25 1.996 . S
O39 C32 1.255 . S
C40 O33 1.287 1_455 S
C40 O34 1.255 . S
O41 Fe23 2.002 . S
O41 C37 1.295 . S
O42 Fe25 1.997 . S
O42 C37 1.235 . S
C43 O26 1.295 . S
C43 O27 1.235 . S
Fe44 O46 1.918 . S
Fe44 O49 1.997 . S
Fe44 O50 2.002 . S
Fe44 O55 1.976 . S
Fe44 O58 1.996 1_455 S
Fe45 O46 1.918 . S
Fe45 O53 1.997 . S
Fe45 O56 1.996 . S
Fe45 O60 1.976 . S
Fe45 O63 2.002 . S
O46 Fe44 1.918 . S
O46 Fe45 1.918 . S
O46 Fe47 1.918 . S
Fe47 O46 1.918 . S
Fe47 O48 2.002 . S
Fe47 O57 1.976 . S
Fe47 O61 1.996 . S
Fe47 O64 1.997 . S
O48 Fe47 2.002 . S
O48 C65 1.295 . S
O49 Fe44 1.997 . S
O49 C65 1.235 . S
O50 Fe44 2.002 . S
O50 C51 1.295 . S
C51 O50 1.295 . S
C51 O53 1.235 . S
C52 O57 1.287 1_655 S
C52 O58 1.255 . S
O53 Fe45 1.997 . S
O53 C51 1.235 . S
C54 O60 1.287 . S
C54 O61 1.255 . S
O55 Fe44 1.976 . S
O55 C62 1.287 . S
O56 Fe45 1.996 . S
O56 C62 1.255 . S
O57 Fe47 1.976 . S
O57 C52 1.287 1_455 S
O58 Fe44 1.996 1_655 S
O58 C52 1.255 . S
C59 O63 1.295 . S
C59 O64 1.235 . S
O60 Fe45 1.976 . S
O60 C54 1.287 . S
O61 Fe47 1.996 . S
O61 C54 1.255 . S
C62 O55 1.287 . S
C62 O56 1.255 . S
O63 Fe45 2.002 . S
O63 C59 1.295 . S
O64 Fe47 1.997 . S
O64 C59 1.235 . S
C65 O48 1.295 . S
C65 O49 1.235 . S
Fe66 O68 1.918 . S
Fe66 O71 1.997 . S
Fe66 O72 2.002 . S
Fe66 O77 1.976 . S
Fe66 O80 1.996 . S
Fe67 O68 1.918 . S
Fe67 O75 1.997 . S
Fe67 O78 1.996 . S
Fe67 O82 1.976 . S
Fe67 O85 2.002 . S
O68 Fe66 1.918 . S
O68 Fe67 1.918 . S
O68 Fe69 1.918 . S
Fe69 O68 1.918 . S
Fe69 O70 2.002 . S
Fe69 O79 1.976 . S
Fe69 O83 1.996 1_655 S
Fe69 O86 1.997 . S
O70 Fe69 2.002 . S
O70 C87 1.295 . S
O71 Fe66 1.997 . S
O71 C87 1.235 . S
O72 Fe66 2.002 . S
O72 C73 1.295 . S
C73 O72 1.295 . S
C73 O75 1.235 . S
C74 O79 1.287 . S
C74 O80 1.255 . S
O75 Fe67 1.997 . S
O75 C73 1.235 . S
C76 O82 1.287 1_455 S
C76 O83 1.255 . S
O77 Fe66 1.976 . S
O77 C84 1.287 . S
O78 Fe67 1.996 . S
O78 C84 1.255 . S
O79 Fe69 1.976 . S
O79 C74 1.287 . S
O80 Fe66 1.996 . S
O80 C74 1.255 . S
C81 O85 1.295 . S
C81 O86 1.235 . S
O82 Fe67 1.976 . S
O82 C76 1.287 1_655 S
O83 Fe69 1.996 1_455 S
O83 C76 1.255 . S
C84 O77 1.287 . S
C84 O78 1.255 . S
O85 Fe67 2.002 . S
O85 C81 1.295 . S
O86 Fe69 1.997 . S
O86 C81 1.235 . S
C87 O70 1.295 . S
C87 O71 1.235 . S
Fe88 O90 1.918 . S
Fe88 O93 1.997 . S
Fe88 O94 2.002 . S
Fe88 O99 1.976 . S
Fe88 O102 1.996 . S
Fe89 O90 1.918 . S
Fe89 O97 1.997 . S
Fe89 O100 1.996 . S
Fe89 O104 1.976 . S
Fe89 O107 2.002 . S
O90 Fe88 1.918 . S
O90 Fe89 1.918 . S
O90 Fe91 1.918 . S
Fe91 O90 1.918 . S
Fe91 O92 2.002 . S
Fe91 O101 1.976 . S
Fe91 O105 1.996 1_545 S
Fe91 O108 1.997 . S
O92 Fe91 2.002 . S
O92 C109 1.295 . S
O93 Fe88 1.997 . S
O93 C109 1.235 . S
O94 Fe88 2.002 . S
O94 C95 1.295 . S
C95 O94 1.295 . S
C95 O97 1.235 . S
C96 O101 1.287 . S
C96 O102 1.255 . S
O97 Fe89 1.997 . S
O97 C95 1.235 . S
C98 O104 1.287 1_565 S
C98 O105 1.255 . S
O99 Fe88 1.976 . S
O99 C106 1.287 . S
O100 Fe89 1.996 . S
O100 C106 1.255 . S
O101 Fe91 1.976 . S
O101 C96 1.287 . S
O102 Fe88 1.996 . S
O102 C96 1.255 . S
C103 O107 1.295 . S
C103 O108 1.235 . S
O104 Fe89 1.976 . S
O104 C98 1.287 1_545 S
O105 Fe91 1.996 1_565 S
O105 C98 1.255 . S
C106 O99 1.287 . S
C106 O100 1.255 . S
O107 Fe89 2.002 . S
O107 C103 1.295 . S
O108 Fe91 1.997 . S
O108 C103 1.235 . S
C109 O92 1.295 . S
C109 O93 1.235 . S
Fe110 O112 1.918 . S
Fe110 O115 1.997 . S
Fe110 O116 2.002 . S
Fe110 O121 1.976 . S
Fe110 O124 1.996 . S
Fe111 O112 1.918 . S
Fe111 O119 1.997 . S
Fe111 O122 1.996 . S
Fe111 O126 1.976 . S
Fe111 O129 2.002 . S
O112 Fe110 1.918 . S
O112 Fe111 1.918 . S
O112 Fe113 1.918 . S
Fe113 O112 1.918 . S
Fe113 O114 2.002 . S
Fe113 O123 1.976 . S
Fe113 O127 1.996 . S
Fe113 O130 1.997 . S
O114 Fe113 2.002 . S
O114 C131 1.295 . S
O115 Fe110 1.997 . S
O115 C131 1.235 . S
O116 Fe110 2.002 . S
O116 C117 1.295 . S
C117 O116 1.295 . S
C117 O119 1.235 . S
C118 O123 1.287 . S
C118 O124 1.255 . S
O119 Fe111 1.997 . S
O119 C117 1.235 . S
C120 O126 1.287 . S
C120 O127 1.255 . S
O121 Fe110 1.976 . S
O121 C128 1.287 . S
O122 Fe111 1.996 . S
O122 C128 1.255 . S
O123 Fe113 1.976 . S
O123 C118 1.287 . S
O124 Fe110 1.996 . S
O124 C118 1.255 . S
C125 O129 1.295 . S
C125 O130 1.235 . S
O126 Fe111 1.976 . S
O126 C120 1.287 . S
O127 Fe113 1.996 . S
O127 C120 1.255 . S
C128 O121 1.287 . S
C128 O122 1.255 . S
O129 Fe111 2.002 . S
O129 C125 1.295 . S
O130 Fe113 1.997 . S
O130 C125 1.235 . S
C131 O114 1.295 . S
C131 O115 1.235 . S
Fe132 O134 1.918 . S
Fe132 O137 1.997 . S
Fe132 O138 2.002 . S
Fe132 O143 1.976 . S
Fe132 O146 1.996 1_565 S
Fe133 O134 1.918 . S
Fe133 O141 1.997 . S
Fe133 O144 1.996 . S
Fe133 O148 1.976 . S
Fe133 O151 2.002 . S
O134 Fe132 1.918 . S
O134 Fe133 1.918 . S
O134 Fe135 1.918 . S
Fe135 O134 1.918 . S
Fe135 O136 2.002 . S
Fe135 O145 1.976 . S
Fe135 O149 1.996 . S
Fe135 O152 1.997 . S
O136 Fe135 2.002 . S
O136 C153 1.295 . S
O137 Fe132 1.997 . S
O137 C153 1.235 . S
O138 Fe132 2.002 . S
O138 C139 1.295 . S
C139 O138 1.295 . S
C139 O141 1.235 . S
C140 O145 1.287 1_545 S
C140 O146 1.255 . S
O141 Fe133 1.997 . S
O141 C139 1.235 . S
C142 O148 1.287 . S
C142 O149 1.255 . S
O143 Fe132 1.976 . S
O143 C150 1.287 . S
O144 Fe133 1.996 . S
O144 C150 1.255 . S
O145 Fe135 1.976 . S
O145 C140 1.287 1_565 S
O146 Fe132 1.996 1_545 S
O146 C140 1.255 . S
C147 O151 1.295 . S
C147 O152 1.235 . S
O148 Fe133 1.976 . S
O148 C142 1.287 . S
O149 Fe135 1.996 . S
O149 C142 1.255 . S
C150 O143 1.287 . S
C150 O144 1.255 . S
O151 Fe133 2.002 . S
O151 C147 1.295 . S
O152 Fe135 1.997 . S
O152 C147 1.235 . S
C153 O136 1.295 . S
C153 O137 1.235 . S
Fe154 O156 1.918 . S
Fe154 O159 1.997 . S
Fe154 O160 2.002 . S
Fe154 O165 1.976 . S
Fe154 O168 1.996 . S
Fe155 O156 1.918 . S
Fe155 O163 1.997 . S
Fe155 O166 1.996 . S
Fe155 O170 1.976 . S
Fe155 O173 2.002 . S
O156 Fe154 1.918 . S
O156 Fe155 1.918 . S
O156 Fe157 1.918 . S
Fe157 O156 1.918 . S
Fe157 O158 2.002 . S
Fe157 O167 1.976 . S
Fe157 O171 1.996 . S
Fe157 O174 1.997 . S
O158 Fe157 2.002 . S
O158 C175 1.295 . S
O159 Fe154 1.997 . S
O159 C175 1.235 . S
O160 Fe154 2.002 . S
O160 C161 1.295 . S
C161 O160 1.295 . S
C161 O163 1.235 . S
C162 O167 1.287 . S
C162 O168 1.255 . S
O163 Fe155 1.997 . S
O163 C161 1.235 . S
C164 O170 1.287 . S
C164 O171 1.255 . S
O165 Fe154 1.976 . S
O165 C172 1.287 . S
O166 Fe155 1.996 . S
O166 C172 1.255 . S
O167 Fe157 1.976 . S
O167 C162 1.287 . S
O168 Fe154 1.996 . S
O168 C162 1.255 . S
C169 O173 1.295 . S
C169 O174 1.235 . S
O170 Fe155 1.976 . S
O170 C164 1.287 . S
O171 Fe157 1.996 . S
O171 C164 1.255 . S
C172 O165 1.287 . S
C172 O166 1.255 . S
O173 Fe155 2.002 . S
O173 C169 1.295 . S
O174 Fe157 1.997 . S
O174 C169 1.235 . S
C175 O158 1.295 . S
C175 O159 1.235 . S
Fe176 O178 1.918 . S
Fe176 O181 1.997 . S
Fe176 O182 2.002 . S
Fe176 O187 1.976 . S
Fe176 O190 1.996 . S
Fe177 O178 1.918 . S
Fe177 O185 1.997 . S
Fe177 O188 1.996 . S
Fe177 O192 1.976 . S
Fe177 O195 2.002 . S
O178 Fe176 1.918 . S
O178 Fe177 1.918 . S
O178 Fe179 1.918 . S
Fe179 O178 1.918 . S
Fe179 O180 2.002 . S
Fe179 O189 1.976 . S
Fe179 O193 1.996 1_554 S
Fe179 O196 1.997 . S
O180 Fe179 2.002 . S
O180 C197 1.295 . S
O181 Fe176 1.997 . S
O181 C197 1.235 . S
O182 Fe176 2.002 . S
O182 C183 1.295 . S
C183 O182 1.295 . S
C183 O185 1.235 . S
C184 O189 1.287 . S
C184 O190 1.255 . S
O185 Fe177 1.997 . S
O185 C183 1.235 . S
C186 O192 1.287 1_556 S
C186 O193 1.255 . S
O187 Fe176 1.976 . S
O187 C194 1.287 . S
O188 Fe177 1.996 . S
O188 C194 1.255 . S
O189 Fe179 1.976 . S
O189 C184 1.287 . S
O190 Fe176 1.996 . S
O190 C184 1.255 . S
C191 O195 1.295 . S
C191 O196 1.235 . S
O192 Fe177 1.976 . S
O192 C186 1.287 1_554 S
O193 Fe179 1.996 1_556 S
O193 C186 1.255 . S
C194 O187 1.287 . S
C194 O188 1.255 . S
O195 Fe177 2.002 . S
O195 C191 1.295 . S
O196 Fe179 1.997 . S
O196 C191 1.235 . S
C197 O180 1.295 . S
C197 O181 1.235 . S
Fe198 O200 1.918 . S
Fe198 O203 1.997 . S
Fe198 O204 2.002 . S
Fe198 O209 1.976 . S
Fe198 O212 1.996 . S
Fe199 O200 1.918 . S
Fe199 O207 1.997 . S
Fe199 O210 1.996 . S
Fe199 O214 1.976 . S
Fe199 O217 2.002 . S
O200 Fe198 1.918 . S
O200 Fe199 1.918 . S
O200 Fe201 1.918 . S
Fe201 O200 1.918 . S
Fe201 O202 2.002 . S
Fe201 O211 1.976 . S
Fe201 O215 1.996 . S
Fe201 O218 1.997 . S
O202 Fe201 2.002 . S
O202 C219 1.295 . S
O203 Fe198 1.997 . S
O203 C219 1.235 . S
O204 Fe198 2.002 . S
O204 C205 1.295 . S
C205 O204 1.295 . S
C205 O207 1.235 . S
C206 O211 1.287 . S
C206 O212 1.255 . S
O207 Fe199 1.997 . S
O207 C205 1.235 . S
C208 O214 1.287 . S
C208 O215 1.255 . S
O209 Fe198 1.976 . S
O209 C216 1.287 . S
O210 Fe199 1.996 . S
O210 C216 1.255 . S
O211 Fe201 1.976 . S
O211 C206 1.287 . S
O212 Fe198 1.996 . S
O212 C206 1.255 . S
C213 O217 1.295 . S
C213 O218 1.235 . S
O214 Fe199 1.976 . S
O214 C208 1.287 . S
O215 Fe201 1.996 . S
O215 C208 1.255 . S
C216 O209 1.287 . S
C216 O210 1.255 . S
O217 Fe199 2.002 . S
O217 C213 1.295 . S
O218 Fe201 1.997 . S
O218 C213 1.235 . S
C219 O202 1.295 . S
C219 O203 1.235 . S
Fe220 O222 1.918 . S
Fe220 O225 1.997 . S
Fe220 O226 2.002 . S
Fe220 O231 1.976 . S
Fe220 O234 1.996 . S
Fe221 O222 1.918 . S
Fe221 O229 1.997 . S
Fe221 O232 1.996 . S
Fe221 O236 1.976 . S
Fe221 O239 2.002 . S
O222 Fe220 1.918 . S
O222 Fe221 1.918 . S
O222 Fe223 1.918 . S
Fe223 O222 1.918 . S
Fe223 O224 2.002 . S
Fe223 O233 1.976 . S
Fe223 O237 1.996 . S
Fe223 O240 1.997 . S
O224 Fe223 2.002 . S
O224 C241 1.295 . S
O225 Fe220 1.997 . S
O225 C241 1.235 . S
O226 Fe220 2.002 . S
O226 C227 1.295 . S
C227 O226 1.295 . S
C227 O229 1.235 . S
C228 O233 1.287 . S
C228 O234 1.255 . S
O229 Fe221 1.997 . S
O229 C227 1.235 . S
C230 O236 1.287 . S
C230 O237 1.255 . S
O231 Fe220 1.976 . S
O231 C238 1.287 . S
O232 Fe221 1.996 . S
O232 C238 1.255 . S
O233 Fe223 1.976 . S
O233 C228 1.287 . S
O234 Fe220 1.996 . S
O234 C228 1.255 . S
C235 O239 1.295 . S
C235 O240 1.235 . S
O236 Fe221 1.976 . S
O236 C230 1.287 . S
O237 Fe223 1.996 . S
O237 C230 1.255 . S
C238 O231 1.287 . S
C238 O232 1.255 . S
O239 Fe221 2.002 . S
O239 C235 1.295 . S
O240 Fe223 1.997 . S
O240 C235 1.235 . S
C241 O224 1.295 . S
C241 O225 1.235 . S
Fe242 O244 1.918 . S
Fe242 O247 1.997 . S
Fe242 O248 2.002 . S
Fe242 O253 1.976 . S
Fe242 O256 1.996 . S
Fe243 O244 1.918 . S
Fe243 O251 1.997 . S
Fe243 O254 1.996 . S
Fe243 O258 1.976 . S
Fe243 O261 2.002 . S
O244 Fe242 1.918 . S
O244 Fe243 1.918 . S
O244 Fe245 1.918 . S
Fe245 O244 1.918 . S
Fe245 O246 2.002 . S
Fe245 O255 1.976 . S
Fe245 O259 1.996 . S
Fe245 O262 1.997 . S
O246 Fe245 2.002 . S
O246 C263 1.295 . S
O247 Fe242 1.997 . S
O247 C263 1.235 . S
O248 Fe242 2.002 . S
O248 C249 1.295 . S
C249 O248 1.295 . S
C249 O251 1.235 . S
C250 O255 1.287 . S
C250 O256 1.255 . S
O251 Fe243 1.997 . S
O251 C249 1.235 . S
C252 O258 1.287 . S
C252 O259 1.255 . S
O253 Fe242 1.976 . S
O253 C260 1.287 . S
O254 Fe243 1.996 . S
O254 C260 1.255 . S
O255 Fe245 1.976 . S
O255 C250 1.287 . S
O256 Fe242 1.996 . S
O256 C250 1.255 . S
C257 O261 1.295 . S
C257 O262 1.235 . S
O258 Fe243 1.976 . S
O258 C252 1.287 . S
O259 Fe245 1.996 . S
O259 C252 1.255 . S
C260 O253 1.287 . S
C260 O254 1.255 . S
O261 Fe243 2.002 . S
O261 C257 1.295 . S
O262 Fe245 1.997 . S
O262 C257 1.235 . S
C263 O246 1.295 . S
C263 O247 1.235 . S
Fe264 O266 1.918 . S
Fe264 O269 1.997 . S
Fe264 O270 2.002 . S
Fe264 O275 1.976 . S
Fe264 O278 1.996 . S
Fe265 O266 1.918 . S
Fe265 O273 1.997 . S
Fe265 O276 1.996 . S
Fe265 O280 1.976 1_655 S
Fe265 O283 2.002 . S
O266 Fe264 1.918 . S
O266 Fe265 1.918 . S
O266 Fe267 1.918 . S
Fe267 O266 1.918 . S
Fe267 O268 2.002 . S
Fe267 O277 1.976 . S
Fe267 O281 1.996 . S
Fe267 O284 1.997 . S
O268 Fe267 2.002 . S
O268 C285 1.295 . S
O269 Fe264 1.997 . S
O269 C285 1.235 . S
O270 Fe264 2.002 . S
O270 C271 1.295 . S
C271 O270 1.295 . S
C271 O273 1.235 . S
C272 O277 1.287 . S
C272 O278 1.255 . S
O273 Fe265 1.997 . S
O273 C271 1.235 . S
C274 O280 1.287 . S
C274 O281 1.255 1_455 S
O275 Fe264 1.976 . S
O275 C282 1.287 . S
O276 Fe265 1.996 . S
O276 C282 1.255 . S
O277 Fe267 1.976 . S
O277 C272 1.287 . S
O278 Fe264 1.996 . S
O278 C272 1.255 . S
C279 O283 1.295 . S
C279 O284 1.235 . S
O280 Fe265 1.976 1_455 S
O280 C274 1.287 . S
O281 Fe267 1.996 . S
O281 C274 1.255 1_655 S
C282 O275 1.287 . S
C282 O276 1.255 . S
O283 Fe265 2.002 . S
O283 C279 1.295 . S
O284 Fe267 1.997 . S
O284 C279 1.235 . S
C285 O268 1.295 . S
C285 O269 1.235 . S
Fe286 O288 1.918 . S
Fe286 O291 1.997 . S
Fe286 O292 2.002 . S
Fe286 O297 1.976 . S
Fe286 O300 1.996 . S
Fe287 O288 1.918 . S
Fe287 O295 1.997 . S
Fe287 O298 1.996 . S
Fe287 O302 1.976 1_455 S
Fe287 O305 2.002 . S
O288 Fe286 1.918 . S
O288 Fe287 1.918 . S
O288 Fe289 1.918 . S
Fe289 O288 1.918 . S
Fe289 O290 2.002 . S
Fe289 O299 1.976 . S
Fe289 O303 1.996 . S
Fe289 O306 1.997 . S
O290 Fe289 2.002 . S
O290 C307 1.295 . S
O291 Fe286 1.997 . S
O291 C307 1.235 . S
O292 Fe286 2.002 . S
O292 C293 1.295 . S
C293 O292 1.295 . S
C293 O295 1.235 . S
C294 O299 1.287 . S
C294 O300 1.255 . S
O295 Fe287 1.997 . S
O295 C293 1.235 . S
C296 O302 1.287 . S
C296 O303 1.255 1_655 S
O297 Fe286 1.976 . S
O297 C304 1.287 . S
O298 Fe287 1.996 . S
O298 C304 1.255 . S
O299 Fe289 1.976 . S
O299 C294 1.287 . S
O300 Fe286 1.996 . S
O300 C294 1.255 . S
C301 O305 1.295 . S
C301 O306 1.235 . S
O302 Fe287 1.976 1_655 S
O302 C296 1.287 . S
O303 Fe289 1.996 . S
O303 C296 1.255 1_455 S
C304 O297 1.287 . S
C304 O298 1.255 . S
O305 Fe287 2.002 . S
O305 C301 1.295 . S
O306 Fe289 1.997 . S
O306 C301 1.235 . S
C307 O290 1.295 . S
C307 O291 1.235 . S
Fe308 O310 1.918 . S
Fe308 O313 1.997 . S
Fe308 O314 2.002 . S
Fe308 O319 1.976 . S
Fe308 O322 1.996 . S
Fe309 O310 1.918 . S
Fe309 O317 1.997 . S
Fe309 O320 1.996 . S
Fe309 O324 1.976 . S
Fe309 O327 2.002 . S
O310 Fe308 1.918 . S
O310 Fe309 1.918 . S
O310 Fe311 1.918 . S
Fe311 O310 1.918 . S
Fe311 O312 2.002 . S
Fe311 O321 1.976 1_655 S
Fe311 O325 1.996 . S
Fe311 O328 1.997 . S
O312 Fe311 2.002 . S
O312 C329 1.295 . S
O313 Fe308 1.997 . S
O313 C329 1.235 . S
O314 Fe308 2.002 . S
O314 C315 1.295 . S
C315 O314 1.295 . S
C315 O317 1.235 . S
C316 O321 1.287 . S
C316 O322 1.255 1_455 S
O317 Fe309 1.997 . S
O317 C315 1.235 . S
C318 O324 1.287 . S
C318 O325 1.255 . S
O319 Fe308 1.976 . S
O319 C326 1.287 . S
O320 Fe309 1.996 . S
O320 C326 1.255 . S
O321 Fe311 1.976 1_455 S
O321 C316 1.287 . S
O322 Fe308 1.996 . S
O322 C316 1.255 1_655 S
C323 O327 1.295 . S
C323 O328 1.235 . S
O324 Fe309 1.976 . S
O324 C318 1.287 . S
O325 Fe311 1.996 . S
O325 C318 1.255 . S
C326 O319 1.287 . S
C326 O320 1.255 . S
O327 Fe309 2.002 . S
O327 C323 1.295 . S
O328 Fe311 1.997 . S
O328 C323 1.235 . S
C329 O312 1.295 . S
C329 O313 1.235 . S
Fe330 O332 1.918 . S
Fe330 O335 1.997 . S
Fe330 O336 2.002 . S
Fe330 O341 1.976 . S
Fe330 O344 1.996 . S
Fe331 O332 1.918 . S
Fe331 O339 1.997 . S
Fe331 O342 1.996 . S
Fe331 O346 1.976 1_455 S
Fe331 O349 2.002 . S
O332 Fe330 1.918 . S
O332 Fe331 1.918 . S
O332 Fe333 1.918 . S
Fe333 O332 1.918 . S
Fe333 O334 2.002 . S
Fe333 O343 1.976 . S
Fe333 O347 1.996 . S
Fe333 O350 1.997 . S
O334 Fe333 2.002 . S
O334 C351 1.295 . S
O335 Fe330 1.997 . S
O335 C351 1.235 . S
O336 Fe330 2.002 . S
O336 C337 1.295 . S
C337 O336 1.295 . S
C337 O339 1.235 . S
C338 O343 1.287 . S
C338 O344 1.255 . S
O339 Fe331 1.997 . S
O339 C337 1.235 . S
C340 O346 1.287 . S
C340 O347 1.255 1_655 S
O341 Fe330 1.976 . S
O341 C348 1.287 . S
O342 Fe331 1.996 . S
O342 C348 1.255 . S
O343 Fe333 1.976 . S
O343 C338 1.287 . S
O344 Fe330 1.996 . S
O344 C338 1.255 . S
C345 O349 1.295 . S
C345 O350 1.235 . S
O346 Fe331 1.976 1_655 S
O346 C340 1.287 . S
O347 Fe333 1.996 . S
O347 C340 1.255 1_455 S
C348 O341 1.287 . S
C348 O342 1.255 . S
O349 Fe331 2.002 . S
O349 C345 1.295 . S
O350 Fe333 1.997 . S
O350 C345 1.235 . S
C351 O334 1.295 . S
C351 O335 1.235 . S
Fe352 O354 1.918 . S
Fe352 O357 1.997 . S
Fe352 O358 2.002 . S
Fe352 O363 1.976 . S
Fe352 O366 1.996 . S
Fe353 O354 1.918 . S
Fe353 O361 1.997 . S
Fe353 O364 1.996 . S
Fe353 O368 1.976 . S
Fe353 O371 2.002 . S
O354 Fe352 1.918 . S
O354 Fe353 1.918 . S
O354 Fe355 1.918 . S
Fe355 O354 1.918 . S
Fe355 O356 2.002 . S
Fe355 O365 1.976 1_565 S
Fe355 O369 1.996 . S
Fe355 O372 1.997 . S
O356 Fe355 2.002 . S
O356 C373 1.295 . S
O357 Fe352 1.997 . S
O357 C373 1.235 . S
O358 Fe352 2.002 . S
O358 C359 1.295 . S
C359 O358 1.295 . S
C359 O361 1.235 . S
C360 O365 1.287 . S
C360 O366 1.255 1_545 S
O361 Fe353 1.997 . S
O361 C359 1.235 . S
C362 O368 1.287 . S
C362 O369 1.255 . S
O363 Fe352 1.976 . S
O363 C370 1.287 . S
O364 Fe353 1.996 . S
O364 C370 1.255 . S
O365 Fe355 1.976 1_545 S
O365 C360 1.287 . S
O366 Fe352 1.996 . S
O366 C360 1.255 1_565 S
C367 O371 1.295 . S
C367 O372 1.235 . S
O368 Fe353 1.976 . S
O368 C362 1.287 . S
O369 Fe355 1.996 . S
O369 C362 1.255 . S
C370 O363 1.287 . S
C370 O364 1.255 . S
O371 Fe353 2.002 . S
O371 C367 1.295 . S
O372 Fe355 1.997 . S
O372 C367 1.235 . S
C373 O356 1.295 . S
C373 O357 1.235 . S
Fe374 O376 1.918 . S
Fe374 O379 1.997 . S
Fe374 O380 2.002 . S
Fe374 O385 1.976 . S
Fe374 O388 1.996 . S
Fe375 O376 1.918 . S
Fe375 O383 1.997 . S
Fe375 O386 1.996 . S
Fe375 O390 1.976 . S
Fe375 O393 2.002 . S
O376 Fe374 1.918 . S
O376 Fe375 1.918 . S
O376 Fe377 1.918 . S
Fe377 O376 1.918 . S
Fe377 O378 2.002 . S
Fe377 O387 1.976 . S
Fe377 O391 1.996 . S
Fe377 O394 1.997 . S
O378 Fe377 2.002 . S
O378 C395 1.295 . S
O379 Fe374 1.997 . S
O379 C395 1.235 . S
O380 Fe374 2.002 . S
O380 C381 1.295 . S
C381 O380 1.295 . S
C381 O383 1.235 . S
C382 O387 1.287 . S
C382 O388 1.255 . S
O383 Fe375 1.997 . S
O383 C381 1.235 . S
C384 O390 1.287 . S
C384 O391 1.255 . S
O385 Fe374 1.976 . S
O385 C392 1.287 . S
O386 Fe375 1.996 . S
O386 C392 1.255 . S
O387 Fe377 1.976 . S
O387 C382 1.287 . S
O388 Fe374 1.996 . S
O388 C382 1.255 . S
C389 O393 1.295 . S
C389 O394 1.235 . S
O390 Fe375 1.976 . S
O390 C384 1.287 . S
O391 Fe377 1.996 . S
O391 C384 1.255 . S
C392 O385 1.287 . S
C392 O386 1.255 . S
O393 Fe375 2.002 . S
O393 C389 1.295 . S
O394 Fe377 1.997 . S
O394 C389 1.235 . S
C395 O378 1.295 . S
C395 O379 1.235 . S
Fe396 O398 1.918 . S
Fe396 O401 1.997 . S
Fe396 O402 2.002 . S
Fe396 O407 1.976 . S
Fe396 O410 1.996 . S
Fe397 O398 1.918 . S
Fe397 O405 1.997 . S
Fe397 O408 1.996 . S
Fe397 O412 1.976 . S
Fe397 O415 2.002 . S
O398 Fe396 1.918 . S
O398 Fe397 1.918 . S
O398 Fe399 1.918 . S
Fe399 O398 1.918 . S
Fe399 O400 2.002 . S
Fe399 O409 1.976 1_545 S
Fe399 O413 1.996 . S
Fe399 O416 1.997 . S
O400 Fe399 2.002 . S
O400 C417 1.295 . S
O401 Fe396 1.997 . S
O401 C417 1.235 . S
O402 Fe396 2.002 . S
O402 C403 1.295 . S
C403 O402 1.295 . S
C403 O405 1.235 . S
C404 O409 1.287 . S
C404 O410 1.255 1_565 S
O405 Fe397 1.997 . S
O405 C403 1.235 . S
C406 O412 1.287 . S
C406 O413 1.255 . S
O407 Fe396 1.976 . S
O407 C414 1.287 . S
O408 Fe397 1.996 . S
O408 C414 1.255 . S
O409 Fe399 1.976 1_565 S
O409 C404 1.287 . S
O410 Fe396 1.996 . S
O410 C404 1.255 1_545 S
C411 O415 1.295 . S
C411 O416 1.235 . S
O412 Fe397 1.976 . S
O412 C406 1.287 . S
O413 Fe399 1.996 . S
O413 C406 1.255 . S
C414 O407 1.287 . S
C414 O408 1.255 . S
O415 Fe397 2.002 . S
O415 C411 1.295 . S
O416 Fe399 1.997 . S
O416 C411 1.235 . S
C417 O400 1.295 . S
C417 O401 1.235 . S
Fe418 O420 1.918 . S
Fe418 O423 1.997 . S
Fe418 O424 2.002 . S
Fe418 O429 1.976 . S
Fe418 O432 1.996 . S
Fe419 O420 1.918 . S
Fe419 O427 1.997 . S
Fe419 O430 1.996 . S
Fe419 O434 1.976 . S
Fe419 O437 2.002 . S
O420 Fe418 1.918 . S
O420 Fe419 1.918 . S
O420 Fe421 1.918 . S
Fe421 O420 1.918 . S
Fe421 O422 2.002 . S
Fe421 O431 1.976 . S
Fe421 O435 1.996 . S
Fe421 O438 1.997 . S
O422 Fe421 2.002 . S
O422 C439 1.295 . S
O423 Fe418 1.997 . S
O423 C439 1.235 . S
O424 Fe418 2.002 . S
O424 C425 1.295 . S
C425 O424 1.295 . S
C425 O427 1.235 . S
C426 O431 1.287 . S
C426 O432 1.255 . S
O427 Fe419 1.997 . S
O427 C425 1.235 . S
C428 O434 1.287 . S
C428 O435 1.255 . S
O429 Fe418 1.976 . S
O429 C436 1.287 . S
O430 Fe419 1.996 . S
O430 C436 1.255 . S
O431 Fe421 1.976 . S
O431 C426 1.287 . S
O432 Fe418 1.996 . S
O432 C426 1.255 . S
C433 O437 1.295 . S
C433 O438 1.235 . S
O434 Fe419 1.976 . S
O434 C428 1.287 . S
O435 Fe421 1.996 . S
O435 C428 1.255 . S
C436 O429 1.287 . S
C436 O430 1.255 . S
O437 Fe419 2.002 . S
O437 C433 1.295 . S
O438 Fe421 1.997 . S
O438 C433 1.235 . S
C439 O422 1.295 . S
C439 O423 1.235 . S
Fe440 O442 1.918 . S
Fe440 O445 1.997 . S
Fe440 O446 2.002 . S
Fe440 O451 1.976 . S
Fe440 O454 1.996 . S
Fe441 O442 1.918 . S
Fe441 O449 1.997 . S
Fe441 O452 1.996 . S
Fe441 O456 1.976 . S
Fe441 O459 2.002 . S
O442 Fe440 1.918 . S
O442 Fe441 1.918 . S
O442 Fe443 1.918 . S
Fe443 O442 1.918 . S
Fe443 O444 2.002 . S
Fe443 O453 1.976 1_556 S
Fe443 O457 1.996 . S
Fe443 O460 1.997 . S
O444 Fe443 2.002 . S
O444 C461 1.295 . S
O445 Fe440 1.997 . S
O445 C461 1.235 . S
O446 Fe440 2.002 . S
O446 C447 1.295 . S
C447 O446 1.295 . S
C447 O449 1.235 . S
C448 O453 1.287 . S
C448 O454 1.255 1_554 S
O449 Fe441 1.997 . S
O449 C447 1.235 . S
C450 O456 1.287 . S
C450 O457 1.255 . S
O451 Fe440 1.976 . S
O451 C458 1.287 . S
O452 Fe441 1.996 . S
O452 C458 1.255 . S
O453 Fe443 1.976 1_554 S
O453 C448 1.287 . S
O454 Fe440 1.996 . S
O454 C448 1.255 1_556 S
C455 O459 1.295 . S
C455 O460 1.235 . S
O456 Fe441 1.976 . S
O456 C450 1.287 . S
O457 Fe443 1.996 . S
O457 C450 1.255 . S
C458 O451 1.287 . S
C458 O452 1.255 . S
O459 Fe441 2.002 . S
O459 C455 1.295 . S
O460 Fe443 1.997 . S
O460 C455 1.235 . S
C461 O444 1.295 . S
C461 O445 1.235 . S
Fe462 O464 1.918 . S
Fe462 O467 1.997 . S
Fe462 O468 2.002 . S
Fe462 O473 1.976 . S
Fe462 O476 1.996 . S
Fe463 O464 1.918 . S
Fe463 O471 1.997 . S
Fe463 O474 1.996 . S
Fe463 O478 1.976 . S
Fe463 O481 2.002 . S
O464 Fe462 1.918 . S
O464 Fe463 1.918 . S
O464 Fe465 1.918 . S
Fe465 O464 1.918 . S
Fe465 O466 2.002 . S
Fe465 O475 1.976 . S
Fe465 O479 1.996 . S
Fe465 O482 1.997 . S
O466 Fe465 2.002 . S
O466 C483 1.295 . S
O467 Fe462 1.997 . S
O467 C483 1.235 . S
O468 Fe462 2.002 . S
O468 C469 1.295 . S
C469 O468 1.295 . S
C469 O471 1.235 . S
C470 O475 1.287 . S
C470 O476 1.255 . S
O471 Fe463 1.997 . S
O471 C469 1.235 . S
C472 O478 1.287 . S
C472 O479 1.255 . S
O473 Fe462 1.976 . S
O473 C480 1.287 . S
O474 Fe463 1.996 . S
O474 C480 1.255 . S
O475 Fe465 1.976 . S
O475 C470 1.287 . S
O476 Fe462 1.996 . S
O476 C470 1.255 . S
C477 O481 1.295 . S
C477 O482 1.235 . S
O478 Fe463 1.976 . S
O478 C472 1.287 . S
O479 Fe465 1.996 . S
O479 C472 1.255 . S
C480 O473 1.287 . S
C480 O474 1.255 . S
O481 Fe463 2.002 . S
O481 C477 1.295 . S
O482 Fe465 1.997 . S
O482 C477 1.235 . S
C483 O466 1.295 . S
C483 O467 1.235 . S
Fe484 O486 1.918 . S
Fe484 O489 1.997 . S
Fe484 O490 2.002 . S
Fe484 O495 1.976 . S
Fe484 O498 1.996 . S
Fe485 O486 1.918 . S
Fe485 O493 1.997 . S
Fe485 O496 1.996 . S
Fe485 O500 1.976 . S
Fe485 O503 2.002 . S
O486 Fe484 1.918 . S
O486 Fe485 1.918 . S
O486 Fe487 1.918 . S
Fe487 O486 1.918 . S
Fe487 O488 2.002 . S
Fe487 O497 1.976 . S
Fe487 O501 1.996 . S
Fe487 O504 1.997 . S
O488 Fe487 2.002 . S
O488 C505 1.295 . S
O489 Fe484 1.997 . S
O489 C505 1.235 . S
O490 Fe484 2.002 . S
O490 C491 1.295 . S
C491 O490 1.295 . S
C491 O493 1.235 . S
C492 O497 1.287 . S
C492 O498 1.255 . S
O493 Fe485 1.997 . S
O493 C491 1.235 . S
C494 O500 1.287 . S
C494 O501 1.255 . S
O495 Fe484 1.976 . S
O495 C502 1.287 . S
O496 Fe485 1.996 . S
O496 C502 1.255 . S
O497 Fe487 1.976 . S
O497 C492 1.287 . S
O498 Fe484 1.996 . S
O498 C492 1.255 . S
C499 O503 1.295 . S
C499 O504 1.235 . S
O500 Fe485 1.976 . S
O500 C494 1.287 . S
O501 Fe487 1.996 . S
O501 C494 1.255 . S
C502 O495 1.287 . S
C502 O496 1.255 . S
O503 Fe485 2.002 . S
O503 C499 1.295 . S
O504 Fe487 1.997 . S
O504 C499 1.235 . S
C505 O488 1.295 . S
C505 O489 1.235 . S
Fe506 O508 1.918 . S
Fe506 O511 1.997 . S
Fe506 O512 2.002 . S
Fe506 O517 1.976 . S
Fe506 O520 1.996 . S
Fe507 O508 1.918 . S
Fe507 O515 1.997 . S
Fe507 O518 1.996 . S
Fe507 O522 1.976 . S
Fe507 O525 2.002 . S
O508 Fe506 1.918 . S
O508 Fe507 1.918 . S
O508 Fe509 1.918 . S
Fe509 O508 1.918 . S
Fe509 O510 2.002 . S
Fe509 O519 1.976 . S
Fe509 O523 1.996 . S
Fe509 O526 1.997 . S
O510 Fe509 2.002 . S
O510 C527 1.295 . S
O511 Fe506 1.997 . S
O511 C527 1.235 . S
O512 Fe506 2.002 . S
O512 C513 1.295 . S
C513 O512 1.295 . S
C513 O515 1.235 . S
C514 O519 1.287 . S
C514 O520 1.255 . S
O515 Fe507 1.997 . S
O515 C513 1.235 . S
C516 O522 1.287 . S
C516 O523 1.255 . S
O517 Fe506 1.976 . S
O517 C524 1.287 . S
O518 Fe507 1.996 . S
O518 C524 1.255 . S
O519 Fe509 1.976 . S
O519 C514 1.287 . S
O520 Fe506 1.996 . S
O520 C514 1.255 . S
C521 O525 1.295 . S
C521 O526 1.235 . S
O522 Fe507 1.976 . S
O522 C516 1.287 . S
O523 Fe509 1.996 . S
O523 C516 1.255 . S
C524 O517 1.287 . S
C524 O518 1.255 . S
O525 Fe507 2.002 . S
O525 C521 1.295 . S
O526 Fe509 1.997 . S
O526 C521 1.235 . S
C527 O510 1.295 . S
C527 O511 1.235 . S
Fe528 O530 1.918 . S
Fe528 O533 1.997 . S
Fe528 O534 2.002 . S
Fe528 O539 1.976 . S
Fe528 O542 1.996 . S
Fe529 O530 1.918 . S
Fe529 O537 1.997 . S
Fe529 O540 1.996 . S
Fe529 O544 1.976 . S
Fe529 O547 2.002 . S
O530 Fe528 1.918 . S
O530 Fe529 1.918 . S
O530 Fe531 1.918 . S
Fe531 O530 1.918 . S
Fe531 O532 2.002 . S
Fe531 O541 1.976 . S
Fe531 O545 1.996 . S
Fe531 O548 1.997 . S
O532 Fe531 2.002 . S
O532 C549 1.295 . S
O533 Fe528 1.997 . S
O533 C549 1.235 . S
O534 Fe528 2.002 . S
O534 C535 1.295 . S
C535 O534 1.295 . S
C535 O537 1.235 . S
C536 O541 1.287 . S
C536 O542 1.255 . S
O537 Fe529 1.997 . S
O537 C535 1.235 . S
C538 O544 1.287 . S
C538 O545 1.255 . S
O539 Fe528 1.976 . S
O539 C546 1.287 . S
O540 Fe529 1.996 . S
O540 C546 1.255 . S
O541 Fe531 1.976 . S
O541 C536 1.287 . S
O542 Fe528 1.996 . S
O542 C536 1.255 . S
C543 O547 1.295 . S
C543 O548 1.235 . S
O544 Fe529 1.976 . S
O544 C538 1.287 . S
O545 Fe531 1.996 . S
O545 C538 1.255 . S
C546 O539 1.287 . S
C546 O540 1.255 . S
O547 Fe529 2.002 . S
O547 C543 1.295 . S
O548 Fe531 1.997 . S
O548 C543 1.235 . S
C549 O532 1.295 . S
C549 O533 1.235 . S
Fe550 O552 1.918 . S
Fe550 O555 1.997 . S
Fe550 O556 2.002 . S
Fe550 O561 1.976 . S
Fe550 O564 1.996 . S
Fe551 O552 1.918 . S
Fe551 O559 1.997 . S
Fe551 O562 1.996 . S
Fe551 O566 1.976 . S
Fe551 O569 2.002 . S
O552 Fe550 1.918 . S
O552 Fe551 1.918 . S
O552 Fe553 1.918 . S
Fe553 O552 1.918 . S
Fe553 O554 2.002 . S
Fe553 O563 1.976 . S
Fe553 O567 1.996 . S
Fe553 O570 1.997 . S
O554 Fe553 2.002 . S
O554 C571 1.295 . S
O555 Fe550 1.997 . S
O555 C571 1.235 . S
O556 Fe550 2.002 . S
O556 C557 1.295 . S
C557 O556 1.295 . S
C557 O559 1.235 . S
C558 O563 1.287 . S
C558 O564 1.255 . S
O559 Fe551 1.997 . S
O559 C557 1.235 . S
C560 O566 1.287 . S
C560 O567 1.255 . S
O561 Fe550 1.976 . S
O561 C568 1.287 . S
O562 Fe551 1.996 . S
O562 C568 1.255 . S
O563 Fe553 1.976 . S
O563 C558 1.287 . S
O564 Fe550 1.996 . S
O564 C558 1.255 . S
C565 O569 1.295 . S
C565 O570 1.235 . S
O566 Fe551 1.976 . S
O566 C560 1.287 . S
O567 Fe553 1.996 . S
O567 C560 1.255 . S
C568 O561 1.287 . S
C568 O562 1.255 . S
O569 Fe551 2.002 . S
O569 C565 1.295 . S
O570 Fe553 1.997 . S
O570 C565 1.235 . S
C571 O554 1.295 . S
C571 O555 1.235 . S
Fe572 O574 1.918 . S
Fe572 O577 1.997 . S
Fe572 O578 2.002 . S
Fe572 O583 1.976 . S
Fe572 O586 1.996 . S
Fe573 O574 1.918 . S
Fe573 O581 1.997 . S
Fe573 O584 1.996 . S
Fe573 O588 1.976 . S
Fe573 O591 2.002 . S
O574 Fe572 1.918 . S
O574 Fe573 1.918 . S
O574 Fe575 1.918 . S
Fe575 O574 1.918 . S
Fe575 O576 2.002 . S
Fe575 O585 1.976 . S
Fe575 O589 1.996 . S
Fe575 O592 1.997 . S
O576 Fe575 2.002 . S
O576 C593 1.295 . S
O577 Fe572 1.997 . S
O577 C593 1.235 . S
O578 Fe572 2.002 . S
O578 C579 1.295 . S
C579 O578 1.295 . S
C579 O581 1.235 . S
C580 O585 1.287 . S
C580 O586 1.255 . S
O581 Fe573 1.997 . S
O581 C579 1.235 . S
C582 O588 1.287 . S
C582 O589 1.255 . S
O583 Fe572 1.976 . S
O583 C590 1.287 . S
O584 Fe573 1.996 . S
O584 C590 1.255 . S
O585 Fe575 1.976 . S
O585 C580 1.287 . S
O586 Fe572 1.996 . S
O586 C580 1.255 . S
C587 O591 1.295 . S
C587 O592 1.235 . S
O588 Fe573 1.976 . S
O588 C582 1.287 . S
O589 Fe575 1.996 . S
O589 C582 1.255 . S
C590 O583 1.287 . S
C590 O584 1.255 . S
O591 Fe573 2.002 . S
O591 C587 1.295 . S
O592 Fe575 1.997 . S
O592 C587 1.235 . S
C593 O576 1.295 . S
C593 O577 1.235 . S
Fe594 O596 1.918 . S
Fe594 O599 1.997 . S
Fe594 O600 2.002 . S
Fe594 O605 1.976 . S
Fe594 O608 1.996 . S
Fe595 O596 1.918 . S
Fe595 O603 1.997 . S
Fe595 O606 1.996 . S
Fe595 O610 1.976 . S
Fe595 O613 2.002 . S
O596 Fe594 1.918 . S
O596 Fe595 1.918 . S
O596 Fe597 1.918 . S
Fe597 O596 1.918 . S
Fe597 O598 2.002 . S
Fe597 O607 1.976 . S
Fe597 O611 1.996 . S
Fe597 O614 1.997 . S
O598 Fe597 2.002 . S
O598 C615 1.295 . S
O599 Fe594 1.997 . S
O599 C615 1.235 . S
O600 Fe594 2.002 . S
O600 C601 1.295 . S
C601 O600 1.295 . S
C601 O603 1.235 . S
C602 O607 1.287 . S
C602 O608 1.255 . S
O603 Fe595 1.997 . S
O603 C601 1.235 . S
C604 O610 1.287 . S
C604 O611 1.255 . S
O605 Fe594 1.976 . S
O605 C612 1.287 . S
O606 Fe595 1.996 . S
O606 C612 1.255 . S
O607 Fe597 1.976 . S
O607 C602 1.287 . S
O608 Fe594 1.996 . S
O608 C602 1.255 . S
C609 O613 1.295 . S
C609 O614 1.235 . S
O610 Fe595 1.976 . S
O610 C604 1.287 . S
O611 Fe597 1.996 . S
O611 C604 1.255 . S
C612 O605 1.287 . S
C612 O606 1.255 . S
O613 Fe595 2.002 . S
O613 C609 1.295 . S
O614 Fe597 1.997 . S
O614 C609 1.235 . S
C615 O598 1.295 . S
C615 O599 1.235 . S
Fe616 O618 1.918 . S
Fe616 O621 1.997 . S
Fe616 O622 2.002 . S
Fe616 O627 1.976 . S
Fe616 O630 1.996 . S
Fe617 O618 1.918 . S
Fe617 O625 1.997 . S
Fe617 O628 1.996 . S
Fe617 O632 1.976 . S
Fe617 O635 2.002 . S
O618 Fe616 1.918 . S
O618 Fe617 1.918 . S
O618 Fe619 1.918 . S
Fe619 O618 1.918 . S
Fe619 O620 2.002 . S
Fe619 O629 1.976 . S
Fe619 O633 1.996 . S
Fe619 O636 1.997 . S
O620 Fe619 2.002 . S
O620 C637 1.295 . S
O621 Fe616 1.997 . S
O621 C637 1.235 . S
O622 Fe616 2.002 . S
O622 C623 1.295 . S
C623 O622 1.295 . S
C623 O625 1.235 . S
C624 O629 1.287 . S
C624 O630 1.255 . S
O625 Fe617 1.997 . S
O625 C623 1.235 . S
C626 O632 1.287 . S
C626 O633 1.255 . S
O627 Fe616 1.976 . S
O627 C634 1.287 . S
O628 Fe617 1.996 . S
O628 C634 1.255 . S
O629 Fe619 1.976 . S
O629 C624 1.287 . S
O630 Fe616 1.996 . S
O630 C624 1.255 . S
C631 O635 1.295 . S
C631 O636 1.235 . S
O632 Fe617 1.976 . S
O632 C626 1.287 . S
O633 Fe619 1.996 . S
O633 C626 1.255 . S
C634 O627 1.287 . S
C634 O628 1.255 . S
O635 Fe617 2.002 . S
O635 C631 1.295 . S
O636 Fe619 1.997 . S
O636 C631 1.235 . S
C637 O620 1.295 . S
C637 O621 1.235 . S
Fe638 O640 1.918 . S
Fe638 O643 1.997 . S
Fe638 O644 2.002 . S
Fe638 O649 1.976 . S
Fe638 O652 1.996 . S
Fe639 O640 1.918 . S
Fe639 O647 1.997 . S
Fe639 O650 1.996 . S
Fe639 O654 1.976 . S
Fe639 O657 2.002 . S
O640 Fe638 1.918 . S
O640 Fe639 1.918 . S
O640 Fe641 1.918 . S
Fe641 O640 1.918 . S
Fe641 O642 2.002 . S
Fe641 O651 1.976 . S
Fe641 O655 1.996 1_565 S
Fe641 O658 1.997 . S
O642 Fe641 2.002 . S
O642 C659 1.295 . S
O643 Fe638 1.997 . S
O643 C659 1.235 . S
O644 Fe638 2.002 . S
O644 C645 1.295 . S
C645 O644 1.295 . S
C645 O647 1.235 . S
C646 O651 1.287 . S
C646 O652 1.255 . S
O647 Fe639 1.997 . S
O647 C645 1.235 . S
C648 O654 1.287 1_545 S
C648 O655 1.255 . S
O649 Fe638 1.976 . S
O649 C656 1.287 . S
O650 Fe639 1.996 . S
O650 C656 1.255 . S
O651 Fe641 1.976 . S
O651 C646 1.287 . S
O652 Fe638 1.996 . S
O652 C646 1.255 . S
C653 O657 1.295 . S
C653 O658 1.235 . S
O654 Fe639 1.976 . S
O654 C648 1.287 1_565 S
O655 Fe641 1.996 1_545 S
O655 C648 1.255 . S
C656 O649 1.287 . S
C656 O650 1.255 . S
O657 Fe639 2.002 . S
O657 C653 1.295 . S
O658 Fe641 1.997 . S
O658 C653 1.235 . S
C659 O642 1.295 . S
C659 O643 1.235 . S
Fe660 O662 1.918 . S
Fe660 O665 1.997 . S
Fe660 O666 2.002 . S
Fe660 O671 1.976 . S
Fe660 O674 1.996 . S
Fe661 O662 1.918 . S
Fe661 O669 1.997 . S
Fe661 O672 1.996 . S
Fe661 O676 1.976 . S
Fe661 O679 2.002 . S
O662 Fe660 1.918 . S
O662 Fe661 1.918 . S
O662 Fe663 1.918 . S
Fe663 O662 1.918 . S
Fe663 O664 2.002 . S
Fe663 O673 1.976 . S
Fe663 O677 1.996 . S
Fe663 O680 1.997 . S
O664 Fe663 2.002 . S
O664 C681 1.295 . S
O665 Fe660 1.997 . S
O665 C681 1.235 . S
O666 Fe660 2.002 . S
O666 C667 1.295 . S
C667 O666 1.295 . S
C667 O669 1.235 . S
C668 O673 1.287 . S
C668 O674 1.255 . S
O669 Fe661 1.997 . S
O669 C667 1.235 . S
C670 O676 1.287 . S
C670 O677 1.255 . S
O671 Fe660 1.976 . S
O671 C678 1.287 . S
O672 Fe661 1.996 . S
O672 C678 1.255 . S
O673 Fe663 1.976 . S
O673 C668 1.287 . S
O674 Fe660 1.996 . S
O674 C668 1.255 . S
C675 O679 1.295 . S
C675 O680 1.235 . S
O676 Fe661 1.976 . S
O676 C670 1.287 . S
O677 Fe663 1.996 . S
O677 C670 1.255 . S
C678 O671 1.287 . S
C678 O672 1.255 . S
O679 Fe661 2.002 . S
O679 C675 1.295 . S
O680 Fe663 1.997 . S
O680 C675 1.235 . S
C681 O664 1.295 . S
C681 O665 1.235 . S
Fe682 O684 1.918 . S
Fe682 O687 1.997 . S
Fe682 O688 2.002 . S
Fe682 O693 1.976 . S
Fe682 O696 1.996 . S
Fe683 O684 1.918 . S
Fe683 O691 1.997 . S
Fe683 O694 1.996 1_545 S
Fe683 O698 1.976 . S
Fe683 O701 2.002 . S
O684 Fe682 1.918 . S
O684 Fe683 1.918 . S
O684 Fe685 1.918 . S
Fe685 O684 1.918 . S
Fe685 O686 2.002 . S
Fe685 O695 1.976 . S
Fe685 O699 1.996 . S
Fe685 O702 1.997 . S
O686 Fe685 2.002 . S
O686 C703 1.295 . S
O687 Fe682 1.997 . S
O687 C703 1.235 . S
O688 Fe682 2.002 . S
O688 C689 1.295 . S
C689 O688 1.295 . S
C689 O691 1.235 . S
C690 O695 1.287 . S
C690 O696 1.255 . S
O691 Fe683 1.997 . S
O691 C689 1.235 . S
C692 O698 1.287 . S
C692 O699 1.255 . S
O693 Fe682 1.976 . S
O693 C700 1.287 1_545 S
O694 Fe683 1.996 1_565 S
O694 C700 1.255 . S
O695 Fe685 1.976 . S
O695 C690 1.287 . S
O696 Fe682 1.996 . S
O696 C690 1.255 . S
C697 O701 1.295 . S
C697 O702 1.235 . S
O698 Fe683 1.976 . S
O698 C692 1.287 . S
O699 Fe685 1.996 . S
O699 C692 1.255 . S
C700 O693 1.287 1_565 S
C700 O694 1.255 . S
O701 Fe683 2.002 . S
O701 C697 1.295 . S
O702 Fe685 1.997 . S
O702 C697 1.235 . S
C703 O686 1.295 . S
C703 O687 1.235 . S
Fe704 O706 1.918 . S
Fe704 O709 1.997 . S
Fe704 O710 2.002 . S
Fe704 O715 1.976 . S
Fe704 O718 1.996 . S
Fe705 O706 1.918 . S
Fe705 O713 1.997 . S
Fe705 O716 1.996 . S
Fe705 O720 1.976 . S
Fe705 O723 2.002 . S
O706 Fe704 1.918 . S
O706 Fe705 1.918 . S
O706 Fe707 1.918 . S
Fe707 O706 1.918 . S
Fe707 O708 2.002 . S
Fe707 O717 1.976 . S
Fe707 O721 1.996 . S
Fe707 O724 1.997 . S
O708 Fe707 2.002 . S
O708 C725 1.295 . S
O709 Fe704 1.997 . S
O709 C725 1.235 . S
O710 Fe704 2.002 . S
O710 C711 1.295 . S
C711 O710 1.295 . S
C711 O713 1.235 . S
C712 O717 1.287 . S
C712 O718 1.255 . S
O713 Fe705 1.997 . S
O713 C711 1.235 . S
C714 O720 1.287 . S
C714 O721 1.255 . S
O715 Fe704 1.976 . S
O715 C722 1.287 . S
O716 Fe705 1.996 . S
O716 C722 1.255 . S
O717 Fe707 1.976 . S
O717 C712 1.287 . S
O718 Fe704 1.996 . S
O718 C712 1.255 . S
C719 O723 1.295 . S
C719 O724 1.235 . S
O720 Fe705 1.976 . S
O720 C714 1.287 . S
O721 Fe707 1.996 . S
O721 C714 1.255 . S
C722 O715 1.287 . S
C722 O716 1.255 . S
O723 Fe705 2.002 . S
O723 C719 1.295 . S
O724 Fe707 1.997 . S
O724 C719 1.235 . S
C725 O708 1.295 . S
C725 O709 1.235 . S
Fe726 O728 1.918 . S
Fe726 O731 1.997 . S
Fe726 O732 2.002 . S
Fe726 O737 1.976 . S
Fe726 O740 1.996 . S
Fe727 O728 1.918 . S
Fe727 O735 1.997 . S
Fe727 O738 1.996 1_556 S
Fe727 O742 1.976 . S
Fe727 O745 2.002 . S
O728 Fe726 1.918 . S
O728 Fe727 1.918 . S
O728 Fe729 1.918 . S
Fe729 O728 1.918 . S
Fe729 O730 2.002 . S
Fe729 O739 1.976 . S
Fe729 O743 1.996 . S
Fe729 O746 1.997 . S
O730 Fe729 2.002 . S
O730 C747 1.295 . S
O731 Fe726 1.997 . S
O731 C747 1.235 . S
O732 Fe726 2.002 . S
O732 C733 1.295 . S
C733 O732 1.295 . S
C733 O735 1.235 . S
C734 O739 1.287 . S
C734 O740 1.255 . S
O735 Fe727 1.997 . S
O735 C733 1.235 . S
C736 O742 1.287 . S
C736 O743 1.255 . S
O737 Fe726 1.976 . S
O737 C744 1.287 1_556 S
O738 Fe727 1.996 1_554 S
O738 C744 1.255 . S
O739 Fe729 1.976 . S
O739 C734 1.287 . S
O740 Fe726 1.996 . S
O740 C734 1.255 . S
C741 O745 1.295 . S
C741 O746 1.235 . S
O742 Fe727 1.976 . S
O742 C736 1.287 . S
O743 Fe729 1.996 . S
O743 C736 1.255 . S
C744 O737 1.287 1_554 S
C744 O738 1.255 . S
O745 Fe727 2.002 . S
O745 C741 1.295 . S
O746 Fe729 1.997 . S
O746 C741 1.235 . S
C747 O730 1.295 . S
C747 O731 1.235 . S
Fe748 O750 1.918 . S
Fe748 O753 1.997 . S
Fe748 O754 2.002 . S
Fe748 O759 1.976 . S
Fe748 O762 1.996 1_556 S
Fe749 O750 1.918 . S
Fe749 O757 1.997 . S
Fe749 O760 1.996 . S
Fe749 O764 1.976 . S
Fe749 O767 2.002 . S
O750 Fe748 1.918 . S
O750 Fe749 1.918 . S
O750 Fe751 1.918 . S
Fe751 O750 1.918 . S
Fe751 O752 2.002 . S
Fe751 O761 1.976 . S
Fe751 O765 1.996 . S
Fe751 O768 1.997 . S
O752 Fe751 2.002 . S
O752 C769 1.295 . S
O753 Fe748 1.997 . S
O753 C769 1.235 . S
O754 Fe748 2.002 . S
O754 C755 1.295 . S
C755 O754 1.295 . S
C755 O757 1.235 . S
C756 O761 1.287 1_554 S
C756 O762 1.255 . S
O757 Fe749 1.997 . S
O757 C755 1.235 . S
C758 O764 1.287 . S
C758 O765 1.255 . S
O759 Fe748 1.976 . S
O759 C766 1.287 . S
O760 Fe749 1.996 . S
O760 C766 1.255 . S
O761 Fe751 1.976 . S
O761 C756 1.287 1_556 S
O762 Fe748 1.996 1_554 S
O762 C756 1.255 . S
C763 O767 1.295 . S
C763 O768 1.235 . S
O764 Fe749 1.976 . S
O764 C758 1.287 . S
O765 Fe751 1.996 . S
O765 C758 1.255 . S
C766 O759 1.287 . S
C766 O760 1.255 . S
O767 Fe749 2.002 . S
O767 C763 1.295 . S
O768 Fe751 1.997 . S
O768 C763 1.235 . S
C769 O752 1.295 . S
C769 O753 1.235 . S
Fe770 O772 1.918 . S
Fe770 O775 1.997 . S
Fe770 O776 2.002 . S
Fe770 O781 1.976 . S
Fe770 O784 1.996 . S
Fe771 O772 1.918 . S
Fe771 O779 1.997 . S
Fe771 O782 1.996 . S
Fe771 O786 1.976 . S
Fe771 O789 2.002 1_554 S
O772 Fe770 1.918 . S
O772 Fe771 1.918 . S
O772 Fe773 1.918 . S
Fe773 O772 1.918 . S
Fe773 O774 2.002 . S
Fe773 O783 1.976 . S
Fe773 O787 1.996 . S
Fe773 O790 1.997 . S
O774 Fe773 2.002 . S
O774 C791 1.295 . S
O775 Fe770 1.997 . S
O775 C791 1.235 . S
O776 Fe770 2.002 . S
O776 C777 1.295 . S
C777 O776 1.295 . S
C777 O779 1.235 . S
C778 O783 1.287 . S
C778 O784 1.255 . S
O779 Fe771 1.997 . S
O779 C777 1.235 . S
C780 O786 1.287 . S
C780 O787 1.255 . S
O781 Fe770 1.976 . S
O781 C788 1.287 . S
O782 Fe771 1.996 . S
O782 C788 1.255 . S
O783 Fe773 1.976 . S
O783 C778 1.287 . S
O784 Fe770 1.996 . S
O784 C778 1.255 . S
C785 O789 1.295 . S
C785 O790 1.235 1_556 S
O786 Fe771 1.976 . S
O786 C780 1.287 . S
O787 Fe773 1.996 . S
O787 C780 1.255 . S
C788 O781 1.287 . S
C788 O782 1.255 . S
O789 Fe771 2.002 1_556 S
O789 C785 1.295 . S
O790 Fe773 1.997 . S
O790 C785 1.235 1_554 S
C791 O774 1.295 . S
C791 O775 1.235 . S
Fe792 O794 1.918 . S
Fe792 O797 1.997 . S
Fe792 O798 2.002 . S
Fe792 O803 1.976 . S
Fe792 O806 1.996 . S
Fe793 O794 1.918 . S
Fe793 O801 1.997 . S
Fe793 O804 1.996 . S
Fe793 O808 1.976 . S
Fe793 O811 2.002 . S
O794 Fe792 1.918 . S
O794 Fe793 1.918 . S
O794 Fe795 1.918 . S
Fe795 O794 1.918 . S
Fe795 O796 2.002 . S
Fe795 O805 1.976 . S
Fe795 O809 1.996 . S
Fe795 O812 1.997 . S
O796 Fe795 2.002 . S
O796 C813 1.295 . S
O797 Fe792 1.997 . S
O797 C813 1.235 . S
O798 Fe792 2.002 . S
O798 C799 1.295 . S
C799 O798 1.295 . S
C799 O801 1.235 . S
C800 O805 1.287 . S
C800 O806 1.255 . S
O801 Fe793 1.997 . S
O801 C799 1.235 . S
C802 O808 1.287 . S
C802 O809 1.255 . S
O803 Fe792 1.976 . S
O803 C810 1.287 . S
O804 Fe793 1.996 . S
O804 C810 1.255 . S
O805 Fe795 1.976 . S
O805 C800 1.287 . S
O806 Fe792 1.996 . S
O806 C800 1.255 . S
C807 O811 1.295 . S
C807 O812 1.235 . S
O808 Fe793 1.976 . S
O808 C802 1.287 . S
O809 Fe795 1.996 . S
O809 C802 1.255 . S
C810 O803 1.287 . S
C810 O804 1.255 . S
O811 Fe793 2.002 . S
O811 C807 1.295 . S
O812 Fe795 1.997 . S
O812 C807 1.235 . S
C813 O796 1.295 . S
C813 O797 1.235 . S
Fe814 O816 1.918 . S
Fe814 O819 1.997 . S
Fe814 O820 2.002 . S
Fe814 O825 1.976 . S
Fe814 O828 1.996 . S
Fe815 O816 1.918 . S
Fe815 O823 1.997 . S
Fe815 O826 1.996 . S
Fe815 O830 1.976 . S
Fe815 O833 2.002 . S
O816 Fe814 1.918 . S
O816 Fe815 1.918 . S
O816 Fe817 1.918 . S
Fe817 O816 1.918 . S
Fe817 O818 2.002 . S
Fe817 O827 1.976 . S
Fe817 O831 1.996 . S
Fe817 O834 1.997 . S
O818 Fe817 2.002 . S
O818 C835 1.295 . S
O819 Fe814 1.997 . S
O819 C835 1.235 . S
O820 Fe814 2.002 . S
O820 C821 1.295 . S
C821 O820 1.295 . S
C821 O823 1.235 . S
C822 O827 1.287 . S
C822 O828 1.255 . S
O823 Fe815 1.997 . S
O823 C821 1.235 . S
C824 O830 1.287 . S
C824 O831 1.255 . S
O825 Fe814 1.976 . S
O825 C832 1.287 . S
O826 Fe815 1.996 . S
O826 C832 1.255 . S
O827 Fe817 1.976 . S
O827 C822 1.287 . S
O828 Fe814 1.996 . S
O828 C822 1.255 . S
C829 O833 1.295 . S
C829 O834 1.235 . S
O830 Fe815 1.976 . S
O830 C824 1.287 . S
O831 Fe817 1.996 . S
O831 C824 1.255 . S
C832 O825 1.287 . S
C832 O826 1.255 . S
O833 Fe815 2.002 . S
O833 C829 1.295 . S
O834 Fe817 1.997 . S
O834 C829 1.235 . S
C835 O818 1.295 . S
C835 O819 1.235 . S
Fe836 O838 1.918 . S
Fe836 O841 1.997 . S
Fe836 O842 2.002 . S
Fe836 O847 1.976 . S
Fe836 O850 1.996 . S
Fe837 O838 1.918 . S
Fe837 O845 1.997 . S
Fe837 O848 1.996 . S
Fe837 O852 1.976 . S
Fe837 O855 2.002 . S
O838 Fe836 1.918 . S
O838 Fe837 1.918 . S
O838 Fe839 1.918 . S
Fe839 O838 1.918 . S
Fe839 O840 2.002 . S
Fe839 O849 1.976 . S
Fe839 O853 1.996 . S
Fe839 O856 1.997 . S
O840 Fe839 2.002 . S
O840 C857 1.295 . S
O841 Fe836 1.997 . S
O841 C857 1.235 . S
O842 Fe836 2.002 . S
O842 C843 1.295 . S
C843 O842 1.295 . S
C843 O845 1.235 . S
C844 O849 1.287 . S
C844 O850 1.255 . S
O845 Fe837 1.997 . S
O845 C843 1.235 . S
C846 O852 1.287 . S
C846 O853 1.255 . S
O847 Fe836 1.976 . S
O847 C854 1.287 . S
O848 Fe837 1.996 . S
O848 C854 1.255 . S
O849 Fe839 1.976 . S
O849 C844 1.287 . S
O850 Fe836 1.996 . S
O850 C844 1.255 . S
C851 O855 1.295 . S
C851 O856 1.235 . S
O852 Fe837 1.976 . S
O852 C846 1.287 . S
O853 Fe839 1.996 . S
O853 C846 1.255 . S
C854 O847 1.287 . S
C854 O848 1.255 . S
O855 Fe837 2.002 . S
O855 C851 1.295 . S
O856 Fe839 1.997 . S
O856 C851 1.235 . S
C857 O840 1.295 . S
C857 O841 1.235 . S
Fe858 O860 1.918 . S
Fe858 O863 1.997 . S
Fe858 O864 2.002 . S
Fe858 O869 1.976 . S
Fe858 O872 1.996 . S
Fe859 O860 1.918 . S
Fe859 O867 1.997 . S
Fe859 O870 1.996 . S
Fe859 O874 1.976 . S
Fe859 O877 2.002 . S
O860 Fe858 1.918 . S
O860 Fe859 1.918 . S
O860 Fe861 1.918 . S
Fe861 O860 1.918 . S
Fe861 O862 2.002 . S
Fe861 O871 1.976 . S
Fe861 O875 1.996 . S
Fe861 O878 1.997 . S
O862 Fe861 2.002 . S
O862 C879 1.295 . S
O863 Fe858 1.997 . S
O863 C879 1.235 . S
O864 Fe858 2.002 . S
O864 C865 1.295 . S
C865 O864 1.295 . S
C865 O867 1.235 . S
C866 O871 1.287 . S
C866 O872 1.255 . S
O867 Fe859 1.997 . S
O867 C865 1.235 . S
C868 O874 1.287 . S
C868 O875 1.255 . S
O869 Fe858 1.976 . S
O869 C876 1.287 . S
O870 Fe859 1.996 . S
O870 C876 1.255 . S
O871 Fe861 1.976 . S
O871 C866 1.287 . S
O872 Fe858 1.996 . S
O872 C866 1.255 . S
C873 O877 1.295 . S
C873 O878 1.235 . S
O874 Fe859 1.976 . S
O874 C868 1.287 . S
O875 Fe861 1.996 . S
O875 C868 1.255 . S
C876 O869 1.287 . S
C876 O870 1.255 . S
O877 Fe859 2.002 . S
O877 C873 1.295 . S
O878 Fe861 1.997 . S
O878 C873 1.235 . S
C879 O862 1.295 . S
C879 O863 1.235 . S
Fe880 O882 1.918 . S
Fe880 O885 1.997 . S
Fe880 O886 2.002 . S
Fe880 O891 1.976 . S
Fe880 O894 1.996 . S
Fe881 O882 1.918 . S
Fe881 O889 1.997 . S
Fe881 O892 1.996 . S
Fe881 O896 1.976 . S
Fe881 O899 2.002 . S
O882 Fe880 1.918 . S
O882 Fe881 1.918 . S
O882 Fe883 1.918 . S
Fe883 O882 1.918 . S
Fe883 O884 2.002 . S
Fe883 O893 1.976 . S
Fe883 O897 1.996 . S
Fe883 O900 1.997 . S
O884 Fe883 2.002 . S
O884 C901 1.295 . S
O885 Fe880 1.997 . S
O885 C901 1.235 . S
O886 Fe880 2.002 . S
O886 C887 1.295 . S
C887 O886 1.295 . S
C887 O889 1.235 . S
C888 O893 1.287 . S
C888 O894 1.255 . S
O889 Fe881 1.997 . S
O889 C887 1.235 . S
C890 O896 1.287 . S
C890 O897 1.255 . S
O891 Fe880 1.976 . S
O891 C898 1.287 . S
O892 Fe881 1.996 . S
O892 C898 1.255 . S
O893 Fe883 1.976 . S
O893 C888 1.287 . S
O894 Fe880 1.996 . S
O894 C888 1.255 . S
C895 O899 1.295 . S
C895 O900 1.235 . S
O896 Fe881 1.976 . S
O896 C890 1.287 . S
O897 Fe883 1.996 . S
O897 C890 1.255 . S
C898 O891 1.287 . S
C898 O892 1.255 . S
O899 Fe881 2.002 . S
O899 C895 1.295 . S
O900 Fe883 1.997 . S
O900 C895 1.235 . S
C901 O884 1.295 . S
C901 O885 1.235 . S
Fe902 O904 1.918 . S
Fe902 O907 1.997 . S
Fe902 O908 2.002 . S
Fe902 O913 1.976 . S
Fe902 O916 1.996 . S
Fe903 O904 1.918 . S
Fe903 O911 1.997 . S
Fe903 O914 1.996 . S
Fe903 O918 1.976 . S
Fe903 O921 2.002 . S
O904 Fe902 1.918 . S
O904 Fe903 1.918 . S
O904 Fe905 1.918 . S
Fe905 O904 1.918 . S
Fe905 O906 2.002 . S
Fe905 O915 1.976 1_545 S
Fe905 O919 1.996 . S
Fe905 O922 1.997 . S
O906 Fe905 2.002 . S
O906 C923 1.295 . S
O907 Fe902 1.997 . S
O907 C923 1.235 . S
O908 Fe902 2.002 . S
O908 C909 1.295 . S
C909 O908 1.295 . S
C909 O911 1.235 . S
C910 O915 1.287 . S
C910 O916 1.255 1_565 S
O911 Fe903 1.997 . S
O911 C909 1.235 . S
C912 O918 1.287 . S
C912 O919 1.255 . S
O913 Fe902 1.976 . S
O913 C920 1.287 . S
O914 Fe903 1.996 . S
O914 C920 1.255 . S
O915 Fe905 1.976 1_565 S
O915 C910 1.287 . S
O916 Fe902 1.996 . S
O916 C910 1.255 1_545 S
C917 O921 1.295 . S
C917 O922 1.235 . S
O918 Fe903 1.976 . S
O918 C912 1.287 . S
O919 Fe905 1.996 . S
O919 C912 1.255 . S
C920 O913 1.287 . S
C920 O914 1.255 . S
O921 Fe903 2.002 . S
O921 C917 1.295 . S
O922 Fe905 1.997 . S
O922 C917 1.235 . S
C923 O906 1.295 . S
C923 O907 1.235 . S
Fe924 O926 1.918 . S
Fe924 O929 1.997 . S
Fe924 O930 2.002 . S
Fe924 O935 1.976 . S
Fe924 O938 1.996 . S
Fe925 O926 1.918 . S
Fe925 O933 1.997 . S
Fe925 O936 1.996 . S
Fe925 O940 1.976 . S
Fe925 O943 2.002 . S
O926 Fe924 1.918 . S
O926 Fe925 1.918 . S
O926 Fe927 1.918 . S
Fe927 O926 1.918 . S
Fe927 O928 2.002 . S
Fe927 O937 1.976 . S
Fe927 O941 1.996 . S
Fe927 O944 1.997 . S
O928 Fe927 2.002 . S
O928 C945 1.295 . S
O929 Fe924 1.997 . S
O929 C945 1.235 . S
O930 Fe924 2.002 . S
O930 C931 1.295 . S
C931 O930 1.295 . S
C931 O933 1.235 . S
C932 O937 1.287 . S
C932 O938 1.255 . S
O933 Fe925 1.997 . S
O933 C931 1.235 . S
C934 O940 1.287 . S
C934 O941 1.255 . S
O935 Fe924 1.976 . S
O935 C942 1.287 . S
O936 Fe925 1.996 . S
O936 C942 1.255 . S
O937 Fe927 1.976 . S
O937 C932 1.287 . S
O938 Fe924 1.996 . S
O938 C932 1.255 . S
C939 O943 1.295 . S
C939 O944 1.235 . S
O940 Fe925 1.976 . S
O940 C934 1.287 . S
O941 Fe927 1.996 . S
O941 C934 1.255 . S
C942 O935 1.287 . S
C942 O936 1.255 . S
O943 Fe925 2.002 . S
O943 C939 1.295 . S
O944 Fe927 1.997 . S
O944 C939 1.235 . S
C945 O928 1.295 . S
C945 O929 1.235 . S
Fe946 O948 1.918 . S
Fe946 O951 1.997 . S
Fe946 O952 2.002 . S
Fe946 O957 1.976 . S
Fe946 O960 1.996 . S
Fe947 O948 1.918 . S
Fe947 O955 1.997 . S
Fe947 O958 1.996 . S
Fe947 O962 1.976 1_565 S
Fe947 O965 2.002 . S
O948 Fe946 1.918 . S
O948 Fe947 1.918 . S
O948 Fe949 1.918 . S
Fe949 O948 1.918 . S
Fe949 O950 2.002 . S
Fe949 O959 1.976 . S
Fe949 O963 1.996 . S
Fe949 O966 1.997 . S
O950 Fe949 2.002 . S
O950 C967 1.295 . S
O951 Fe946 1.997 . S
O951 C967 1.235 . S
O952 Fe946 2.002 . S
O952 C953 1.295 . S
C953 O952 1.295 . S
C953 O955 1.235 . S
C954 O959 1.287 . S
C954 O960 1.255 . S
O955 Fe947 1.997 . S
O955 C953 1.235 . S
C956 O962 1.287 . S
C956 O963 1.255 1_545 S
O957 Fe946 1.976 . S
O957 C964 1.287 . S
O958 Fe947 1.996 . S
O958 C964 1.255 . S
O959 Fe949 1.976 . S
O959 C954 1.287 . S
O960 Fe946 1.996 . S
O960 C954 1.255 . S
C961 O965 1.295 . S
C961 O966 1.235 . S
O962 Fe947 1.976 1_545 S
O962 C956 1.287 . S
O963 Fe949 1.996 . S
O963 C956 1.255 1_565 S
C964 O957 1.287 . S
C964 O958 1.255 . S
O965 Fe947 2.002 . S
O965 C961 1.295 . S
O966 Fe949 1.997 . S
O966 C961 1.235 . S
C967 O950 1.295 . S
C967 O951 1.235 . S
Fe968 O970 1.918 . S
Fe968 O973 1.997 . S
Fe968 O974 2.002 . S
Fe968 O979 1.976 . S
Fe968 O982 1.996 . S
Fe969 O970 1.918 . S
Fe969 O977 1.997 . S
Fe969 O980 1.996 . S
Fe969 O984 1.976 . S
Fe969 O987 2.002 . S
O970 Fe968 1.918 . S
O970 Fe969 1.918 . S
O970 Fe971 1.918 . S
Fe971 O970 1.918 . S
Fe971 O972 2.002 . S
Fe971 O981 1.976 . S
Fe971 O985 1.996 . S
Fe971 O988 1.997 . S
O972 Fe971 2.002 . S
O972 C989 1.295 . S
O973 Fe968 1.997 . S
O973 C989 1.235 . S
O974 Fe968 2.002 . S
O974 C975 1.295 . S
C975 O974 1.295 . S
C975 O977 1.235 . S
C976 O981 1.287 . S
C976 O982 1.255 . S
O977 Fe969 1.997 . S
O977 C975 1.235 . S
C978 O984 1.287 . S
C978 O985 1.255 . S
O979 Fe968 1.976 . S
O979 C986 1.287 . S
O980 Fe969 1.996 . S
O980 C986 1.255 . S
O981 Fe971 1.976 . S
O981 C976 1.287 . S
O982 Fe968 1.996 . S
O982 C976 1.255 . S
C983 O987 1.295 . S
C983 O988 1.235 . S
O984 Fe969 1.976 . S
O984 C978 1.287 . S
O985 Fe971 1.996 . S
O985 C978 1.255 . S
C986 O979 1.287 . S
C986 O980 1.255 . S
O987 Fe969 2.002 . S
O987 C983 1.295 . S
O988 Fe971 1.997 . S
O988 C983 1.235 . S
C989 O972 1.295 . S
C989 O973 1.235 . S
Fe990 O992 1.918 . S
Fe990 O995 1.997 . S
Fe990 O996 2.002 . S
Fe990 O1001 1.976 . S
Fe990 O1004 1.996 . S
Fe991 O992 1.918 . S
Fe991 O999 1.997 . S
Fe991 O1002 1.996 . S
Fe991 O1006 1.976 . S
Fe991 O1009 2.002 . S
O992 Fe990 1.918 . S
O992 Fe991 1.918 . S
O992 Fe993 1.918 . S
Fe993 O992 1.918 . S
Fe993 O994 2.002 . S
Fe993 O1003 1.976 1_554 S
Fe993 O1007 1.996 . S
Fe993 O1010 1.997 . S
O994 Fe993 2.002 . S
O994 C1011 1.295 . S
O995 Fe990 1.997 . S
O995 C1011 1.235 . S
O996 Fe990 2.002 . S
O996 C997 1.295 . S
C997 O996 1.295 . S
C997 O999 1.235 . S
C998 O1003 1.287 . S
C998 O1004 1.255 1_556 S
O999 Fe991 1.997 . S
O999 C997 1.235 . S
C1000 O1006 1.287 . S
C1000 O1007 1.255 . S
O1001 Fe990 1.976 . S
O1001 C1008 1.287 . S
O1002 Fe991 1.996 . S
O1002 C1008 1.255 . S
O1003 Fe993 1.976 1_556 S
O1003 C998 1.287 . S
O1004 Fe990 1.996 . S
O1004 C998 1.255 1_554 S
C1005 O1009 1.295 . S
C1005 O1010 1.235 . S
O1006 Fe991 1.976 . S
O1006 C1000 1.287 . S
O1007 Fe993 1.996 . S
O1007 C1000 1.255 . S
C1008 O1001 1.287 . S
C1008 O1002 1.255 . S
O1009 Fe991 2.002 . S
O1009 C1005 1.295 . S
O1010 Fe993 1.997 . S
O1010 C1005 1.235 . S
C1011 O994 1.295 . S
C1011 O995 1.235 . S
Fe1012 O1014 1.918 . S
Fe1012 O1017 1.997 . S
Fe1012 O1018 2.002 . S
Fe1012 O1023 1.976 1_554 S
Fe1012 O1026 1.996 . S
Fe1013 O1014 1.918 . S
Fe1013 O1021 1.997 . S
Fe1013 O1024 1.996 . S
Fe1013 O1028 1.976 . S
Fe1013 O1031 2.002 . S
O1014 Fe1012 1.918 . S
O1014 Fe1013 1.918 . S
O1014 Fe1015 1.918 . S
Fe1015 O1014 1.918 . S
Fe1015 O1016 2.002 . S
Fe1015 O1025 1.976 . S
Fe1015 O1029 1.996 . S
Fe1015 O1032 1.997 . S
O1016 Fe1015 2.002 . S
O1016 C1033 1.295 . S
O1017 Fe1012 1.997 . S
O1017 C1033 1.235 . S
O1018 Fe1012 2.002 . S
O1018 C1019 1.295 . S
C1019 O1018 1.295 . S
C1019 O1021 1.235 . S
C1020 O1025 1.287 . S
C1020 O1026 1.255 . S
O1021 Fe1013 1.997 . S
O1021 C1019 1.235 . S
C1022 O1028 1.287 . S
C1022 O1029 1.255 . S
O1023 Fe1012 1.976 1_556 S
O1023 C1030 1.287 . S
O1024 Fe1013 1.996 . S
O1024 C1030 1.255 1_554 S
O1025 Fe1015 1.976 . S
O1025 C1020 1.287 . S
O1026 Fe1012 1.996 . S
O1026 C1020 1.255 . S
C1027 O1031 1.295 . S
C1027 O1032 1.235 . S
O1028 Fe1013 1.976 . S
O1028 C1022 1.287 . S
O1029 Fe1015 1.996 . S
O1029 C1022 1.255 . S
C1030 O1023 1.287 . S
C1030 O1024 1.255 1_556 S
O1031 Fe1013 2.002 . S
O1031 C1027 1.295 . S
O1032 Fe1015 1.997 . S
O1032 C1027 1.235 . S
C1033 O1016 1.295 . S
C1033 O1017 1.235 . S
Fe1034 O1036 1.918 . S
Fe1034 O1039 1.997 . S
Fe1034 O1040 2.002 . S
Fe1034 O1045 1.976 1_556 S
Fe1034 O1048 1.996 . S
Fe1035 O1036 1.918 . S
Fe1035 O1043 1.997 . S
Fe1035 O1046 1.996 . S
Fe1035 O1050 1.976 . S
Fe1035 O1053 2.002 . S
O1036 Fe1034 1.918 . S
O1036 Fe1035 1.918 . S
O1036 Fe1037 1.918 . S
Fe1037 O1036 1.918 . S
Fe1037 O1038 2.002 . S
Fe1037 O1047 1.976 . S
Fe1037 O1051 1.996 . S
Fe1037 O1054 1.997 . S
O1038 Fe1037 2.002 . S
O1038 C1055 1.295 . S
O1039 Fe1034 1.997 . S
O1039 C1055 1.235 . S
O1040 Fe1034 2.002 . S
O1040 C1041 1.295 . S
C1041 O1040 1.295 . S
C1041 O1043 1.235 . S
C1042 O1047 1.287 . S
C1042 O1048 1.255 . S
O1043 Fe1035 1.997 . S
O1043 C1041 1.235 . S
C1044 O1050 1.287 . S
C1044 O1051 1.255 . S
O1045 Fe1034 1.976 1_554 S
O1045 C1052 1.287 . S
O1046 Fe1035 1.996 . S
O1046 C1052 1.255 1_556 S
O1047 Fe1037 1.976 . S
O1047 C1042 1.287 . S
O1048 Fe1034 1.996 . S
O1048 C1042 1.255 . S
C1049 O1053 1.295 . S
C1049 O1054 1.235 . S
O1050 Fe1035 1.976 . S
O1050 C1044 1.287 . S
O1051 Fe1037 1.996 . S
O1051 C1044 1.255 . S
C1052 O1045 1.287 . S
C1052 O1046 1.255 1_554 S
O1053 Fe1035 2.002 . S
O1053 C1049 1.295 . S
O1054 Fe1037 1.997 . S
O1054 C1049 1.235 . S
C1055 O1038 1.295 . S
C1055 O1039 1.235 . S
C1056 C1057 1.387 . S
C1056 H1060 0.950 . S
C1056 C1065 1.390 1_455 S
C1057 C1056 1.387 . S
C1057 C1059 1.387 . S
H1058 C1065 0.950 . S
C1059 C1057 1.387 . S
C1059 C1061 1.390 1_455 S
C1059 H1063 0.950 . S
H1060 C1056 0.950 . S
C1061 C1059 1.390 1_655 S
C1061 C1062 1.387 . S
C1061 H1064 0.950 . S
C1062 C1061 1.387 . S
C1062 C1065 1.387 . S
H1063 C1059 0.950 . S
H1064 C1061 0.950 . S
C1065 C1056 1.390 1_655 S
C1065 H1058 0.950 . S
C1065 C1062 1.387 . S
C1066 C1067 1.387 . S
C1066 H1070 0.950 . S
C1066 C1075 1.390 1_655 S
C1067 C1066 1.387 . S
C1067 C1069 1.387 . S
H1068 C1075 0.950 . S
C1069 C1067 1.387 . S
C1069 C1071 1.390 1_655 S
C1069 H1073 0.950 . S
H1070 C1066 0.950 . S
C1071 C1069 1.390 1_455 S
C1071 C1072 1.387 . S
C1071 H1074 0.950 . S
C1072 C1071 1.387 . S
C1072 C1075 1.387 . S
H1073 C1069 0.950 . S
H1074 C1071 0.950 . S
C1075 C1066 1.390 1_455 S
C1075 H1068 0.950 . S
C1075 C1072 1.387 . S
C1076 C1077 1.387 . S
C1076 H1080 0.950 . S
C1076 C1085 1.390 1_545 S
C1077 C1076 1.387 . S
C1077 C1079 1.387 . S
H1078 C1085 0.950 . S
C1079 C1077 1.387 . S
C1079 C1081 1.390 1_545 S
C1079 H1083 0.950 . S
H1080 C1076 0.950 . S
C1081 C1079 1.390 1_565 S
C1081 C1082 1.387 . S
C1081 H1084 0.950 . S
C1082 C1081 1.387 . S
C1082 C1085 1.387 . S
H1083 C1079 0.950 . S
H1084 C1081 0.950 . S
C1085 C1076 1.390 1_565 S
C1085 H1078 0.950 . S
C1085 C1082 1.387 . S
C1086 C1087 1.387 . S
C1086 H1090 0.950 . S
C1086 C1095 1.390 . S
C1087 C1086 1.387 . S
C1087 C1089 1.387 . S
H1088 C1095 0.950 . S
C1089 C1087 1.387 . S
C1089 C1091 1.390 . S
C1089 H1093 0.950 . S
H1090 C1086 0.950 . S
C1091 C1089 1.390 . S
C1091 C1092 1.387 . S
C1091 H1094 0.950 . S
C1092 C1091 1.387 . S
C1092 C1095 1.387 . S
H1093 C1089 0.950 . S
H1094 C1091 0.950 . S
C1095 C1086 1.390 . S
C1095 H1088 0.950 . S
C1095 C1092 1.387 . S
C1096 C1097 1.387 . S
C1096 H1100 0.950 . S
C1096 C1105 1.390 1_556 S
C1097 C1096 1.387 . S
C1097 C1099 1.387 . S
H1098 C1105 0.950 . S
C1099 C1097 1.387 . S
C1099 C1101 1.390 1_556 S
C1099 H1103 0.950 . S
H1100 C1096 0.950 . S
C1101 C1099 1.390 1_554 S
C1101 C1102 1.387 . S
C1101 H1104 0.950 . S
C1102 C1101 1.387 . S
C1102 C1105 1.387 . S
H1103 C1099 0.950 . S
H1104 C1101 0.950 . S
C1105 C1096 1.390 1_554 S
C1105 H1098 0.950 . S
C1105 C1102 1.387 . S
C1106 C1107 1.387 . S
C1106 H1110 0.950 . S
C1106 C1115 1.390 . S
C1107 C1106 1.387 . S
C1107 C1109 1.387 . S
H1108 C1115 0.950 . S
C1109 C1107 1.387 . S
C1109 C1111 1.390 . S
C1109 H1113 0.950 . S
H1110 C1106 0.950 . S
C1111 C1109 1.390 . S
C1111 C1112 1.387 . S
C1111 H1114 0.950 . S
C1112 C1111 1.387 . S
C1112 C1115 1.387 . S
H1113 C1109 0.950 . S
H1114 C1111 0.950 . S
C1115 C1106 1.390 . S
C1115 H1108 0.950 . S
C1115 C1112 1.387 . S
C1116 C1117 1.387 . S
C1116 H1120 0.950 . S
C1116 C1125 1.390 . S
C1117 C1116 1.387 . S
C1117 C1119 1.387 . S
H1118 C1125 0.950 . S
C1119 C1117 1.387 . S
C1119 C1121 1.390 . S
C1119 H1123 0.950 . S
H1120 C1116 0.950 . S
C1121 C1119 1.390 . S
C1121 C1122 1.387 . S
C1121 H1124 0.950 . S
C1122 C1121 1.387 . S
C1122 C1125 1.387 . S
H1123 C1119 0.950 . S
H1124 C1121 0.950 . S
C1125 C1116 1.390 . S
C1125 H1118 0.950 . S
C1125 C1122 1.387 . S
C1126 C1127 1.387 . S
C1126 H1130 0.950 . S
C1126 C1135 1.390 1_655 S
C1127 C1126 1.387 . S
C1127 C1129 1.387 . S
H1128 C1135 0.950 . S
C1129 C1127 1.387 . S
C1129 C1131 1.390 1_655 S
C1129 H1133 0.950 . S
H1130 C1126 0.950 . S
C1131 C1129 1.390 1_455 S
C1131 C1132 1.387 . S
C1131 H1134 0.950 . S
C1132 C1131 1.387 . S
C1132 C1135 1.387 . S
H1133 C1129 0.950 . S
H1134 C1131 0.950 . S
C1135 C1126 1.390 1_455 S
C1135 H1128 0.950 . S
C1135 C1132 1.387 . S
C1136 C1137 1.387 . S
C1136 H1140 0.950 . S
C1136 C1145 1.390 1_655 S
C1137 C1136 1.387 . S
C1137 C1139 1.387 . S
H1138 C1145 0.950 . S
C1139 C1137 1.387 . S
C1139 C1141 1.390 1_655 S
C1139 H1143 0.950 . S
H1140 C1136 0.950 . S
C1141 C1139 1.390 1_455 S
C1141 C1142 1.387 . S
C1141 H1144 0.950 . S
C1142 C1141 1.387 . S
C1142 C1145 1.387 . S
H1143 C1139 0.950 . S
H1144 C1141 0.950 . S
C1145 C1136 1.390 1_455 S
C1145 H1138 0.950 . S
C1145 C1142 1.387 . S
C1146 C1147 1.387 . S
C1146 H1150 0.950 . S
C1146 C1155 1.390 1_565 S
C1147 C1146 1.387 . S
C1147 C1149 1.387 . S
H1148 C1155 0.950 . S
C1149 C1147 1.387 . S
C1149 C1151 1.390 1_565 S
C1149 H1153 0.950 . S
H1150 C1146 0.950 . S
C1151 C1149 1.390 1_545 S
C1151 C1152 1.387 . S
C1151 H1154 0.950 . S
C1152 C1151 1.387 . S
C1152 C1155 1.387 . S
H1153 C1149 0.950 . S
H1154 C1151 0.950 . S
C1155 C1146 1.390 1_545 S
C1155 H1148 0.950 . S
C1155 C1152 1.387 . S
C1156 C1157 1.387 . S
C1156 H1160 0.950 . S
C1156 C1165 1.390 . S
C1157 C1156 1.387 . S
C1157 C1159 1.387 . S
H1158 C1165 0.950 . S
C1159 C1157 1.387 . S
C1159 C1161 1.390 . S
C1159 H1163 0.950 . S
H1160 C1156 0.950 . S
C1161 C1159 1.390 . S
C1161 C1162 1.387 . S
C1161 H1164 0.950 . S
C1162 C1161 1.387 . S
C1162 C1165 1.387 . S
H1163 C1159 0.950 . S
H1164 C1161 0.950 . S
C1165 C1156 1.390 . S
C1165 H1158 0.950 . S
C1165 C1162 1.387 . S
C1166 C1167 1.387 . S
C1166 H1170 0.950 . S
C1166 C1175 1.390 1_554 S
C1167 C1166 1.387 . S
C1167 C1169 1.387 . S
H1168 C1175 0.950 . S
C1169 C1167 1.387 . S
C1169 C1171 1.390 1_554 S
C1169 H1173 0.950 . S
H1170 C1166 0.950 . S
C1171 C1169 1.390 1_556 S
C1171 C1172 1.387 . S
C1171 H1174 0.950 . S
C1172 C1171 1.387 . S
C1172 C1175 1.387 . S
H1173 C1169 0.950 . S
H1174 C1171 0.950 . S
C1175 C1166 1.390 1_556 S
C1175 H1168 0.950 . S
C1175 C1172 1.387 . S
C1176 C1177 1.387 . S
C1176 H1180 0.950 . S
C1176 C1185 1.390 . S
C1177 C1176 1.387 . S
C1177 C1179 1.387 . S
H1178 C1185 0.950 . S
C1179 C1177 1.387 . S
C1179 C1181 1.390 . S
C1179 H1183 0.950 . S
H1180 C1176 0.950 . S
C1181 C1179 1.390 . S
C1181 C1182 1.387 . S
C1181 H1184 0.950 . S
C1182 C1181 1.387 . S
C1182 C1185 1.387 . S
H1183 C1179 0.950 . S
H1184 C1181 0.950 . S
C1185 C1176 1.390 . S
C1185 H1178 0.950 . S
C1185 C1182 1.387 . S
C1186 C1187 1.387 . S
C1186 H1190 0.950 . S
C1186 C1195 1.390 . S
C1187 C1186 1.387 . S
C1187 C1189 1.387 . S
H1188 C1195 0.950 . S
C1189 C1187 1.387 . S
C1189 C1191 1.390 . S
C1189 H1193 0.950 . S
H1190 C1186 0.950 . S
C1191 C1189 1.390 . S
C1191 C1192 1.387 . S
C1191 H1194 0.950 . S
C1192 C1191 1.387 . S
C1192 C1195 1.387 . S
H1193 C1189 0.950 . S
H1194 C1191 0.950 . S
C1195 C1186 1.390 . S
C1195 H1188 0.950 . S
C1195 C1192 1.387 . S
C1196 C1197 1.387 . S
C1196 H1200 0.950 . S
C1196 C1205 1.390 . S
C1197 C1196 1.387 . S
C1197 C1199 1.387 . S
H1198 C1205 0.950 . S
C1199 C1197 1.387 . S
C1199 C1201 1.390 . S
C1199 H1203 0.950 . S
H1200 C1196 0.950 . S
C1201 C1199 1.390 . S
C1201 C1202 1.387 . S
C1201 H1204 0.950 . S
C1202 C1201 1.387 . S
C1202 C1205 1.387 . S
H1203 C1199 0.950 . S
H1204 C1201 0.950 . S
C1205 C1196 1.390 . S
C1205 H1198 0.950 . S
C1205 C1202 1.387 . S
C1206 C1207 1.387 . S
C1206 H1210 0.950 . S
C1206 C1215 1.390 . S
C1207 C1206 1.387 . S
C1207 C1209 1.387 . S
H1208 C1215 0.950 . S
C1209 C1207 1.387 . S
C1209 C1211 1.390 . S
C1209 H1213 0.950 . S
H1210 C1206 0.950 . S
C1211 C1209 1.390 . S
C1211 C1212 1.387 . S
C1211 H1214 0.950 . S
C1212 C1211 1.387 . S
C1212 C1215 1.387 . S
H1213 C1209 0.950 . S
H1214 C1211 0.950 . S
C1215 C1206 1.390 . S
C1215 H1208 0.950 . S
C1215 C1212 1.387 . S
C1216 C1217 1.387 . S
C1216 H1220 0.950 . S
C1216 C1225 1.390 . S
C1217 C1216 1.387 . S
C1217 C1219 1.387 . S
H1218 C1225 0.950 . S
C1219 C1217 1.387 . S
C1219 C1221 1.390 . S
C1219 H1223 0.950 . S
H1220 C1216 0.950 . S
C1221 C1219 1.390 . S
C1221 C1222 1.387 . S
C1221 H1224 0.950 . S
C1222 C1221 1.387 . S
C1222 C1225 1.387 . S
H1223 C1219 0.950 . S
H1224 C1221 0.950 . S
C1225 C1216 1.390 . S
C1225 H1218 0.950 . S
C1225 C1222 1.387 . S
C1226 C1227 1.387 . S
C1226 H1230 0.950 . S
C1226 C1235 1.390 1_565 S
C1227 C1226 1.387 . S
C1227 C1229 1.387 . S
H1228 C1235 0.950 . S
C1229 C1227 1.387 . S
C1229 C1231 1.390 1_565 S
C1229 H1233 0.950 . S
H1230 C1226 0.950 . S
C1231 C1229 1.390 1_545 S
C1231 C1232 1.387 . S
C1231 H1234 0.950 . S
C1232 C1231 1.387 . S
C1232 C1235 1.387 . S
H1233 C1229 0.950 . S
H1234 C1231 0.950 . S
C1235 C1226 1.390 1_545 S
C1235 H1228 0.950 . S
C1235 C1232 1.387 . S
C1236 C1237 1.387 . S
C1236 H1240 0.950 . S
C1236 C1245 1.390 1_554 S
C1237 C1236 1.387 . S
C1237 C1239 1.387 . S
H1238 C1245 0.950 . S
C1239 C1237 1.387 . S
C1239 C1241 1.390 1_554 S
C1239 H1243 0.950 . S
H1240 C1236 0.950 . S
C1241 C1239 1.390 1_556 S
C1241 C1242 1.387 . S
C1241 H1244 0.950 . S
C1242 C1241 1.387 . S
C1242 C1245 1.387 . S
H1243 C1239 0.950 . S
H1244 C1241 0.950 . S
C1245 C1236 1.390 1_556 S
C1245 H1238 0.950 . S
C1245 C1242 1.387 . S
C1246 C1247 1.387 . S
C1246 H1250 0.950 . S
C1246 C1255 1.390 . S
C1247 C1246 1.387 . S
C1247 C1249 1.387 . S
H1248 C1255 0.950 . S
C1249 C1247 1.387 . S
C1249 C1251 1.390 . S
C1249 H1253 0.950 . S
H1250 C1246 0.950 . S
C1251 C1249 1.390 . S
C1251 C1252 1.387 . S
C1251 H1254 0.950 . S
C1252 C1251 1.387 . S
C1252 C1255 1.387 . S
H1253 C1249 0.950 . S
H1254 C1251 0.950 . S
C1255 C1246 1.390 . S
C1255 H1248 0.950 . S
C1255 C1252 1.387 . S
C1256 C1257 1.387 . S
C1256 H1260 0.950 . S
C1256 C1265 1.390 . S
C1257 C1256 1.387 . S
C1257 C1259 1.387 . S
H1258 C1265 0.950 . S
C1259 C1257 1.387 . S
C1259 C1261 1.390 . S
C1259 H1263 0.950 . S
H1260 C1256 0.950 . S
C1261 C1259 1.390 . S
C1261 C1262 1.387 . S
C1261 H1264 0.950 . S
C1262 C1261 1.387 . S
C1262 C1265 1.387 . S
H1263 C1259 0.950 . S
H1264 C1261 0.950 . S
C1265 C1256 1.390 . S
C1265 H1258 0.950 . S
C1265 C1262 1.387 . S
C1266 C1267 1.387 . S
C1266 H1270 0.950 . S
C1266 C1275 1.390 . S
C1267 C1266 1.387 . S
C1267 C1269 1.387 . S
H1268 C1275 0.950 . S
C1269 C1267 1.387 . S
C1269 C1271 1.390 . S
C1269 H1273 0.950 . S
H1270 C1266 0.950 . S
C1271 C1269 1.390 . S
C1271 C1272 1.387 . S
C1271 H1274 0.950 . S
C1272 C1271 1.387 . S
C1272 C1275 1.387 . S
H1273 C1269 0.950 . S
H1274 C1271 0.950 . S
C1275 C1266 1.390 . S
C1275 H1268 0.950 . S
C1275 C1272 1.387 . S
C1276 C1277 1.387 . S
C1276 H1280 0.950 . S
C1276 C1285 1.390 1_565 S
C1277 C1276 1.387 . S
C1277 C1279 1.387 . S
H1278 C1285 0.950 . S
C1279 C1277 1.387 . S
C1279 C1281 1.390 1_565 S
C1279 H1283 0.950 . S
H1280 C1276 0.950 . S
C1281 C1279 1.390 1_545 S
C1281 C1282 1.387 . S
C1281 H1284 0.950 . S
C1282 C1281 1.387 . S
C1282 C1285 1.387 . S
H1283 C1279 0.950 . S
H1284 C1281 0.950 . S
C1285 C1276 1.390 1_545 S
C1285 H1278 0.950 . S
C1285 C1282 1.387 . S
C1286 C1287 1.387 . S
C1286 H1290 0.950 . S
C1286 C1295 1.390 1_554 S
C1287 C1286 1.387 . S
C1287 C1289 1.387 . S
H1288 C1295 0.950 . S
C1289 C1287 1.387 . S
C1289 C1291 1.390 1_554 S
C1289 H1293 0.950 . S
H1290 C1286 0.950 . S
C1291 C1289 1.390 1_556 S
C1291 C1292 1.387 . S
C1291 H1294 0.950 . S
C1292 C1291 1.387 . S
C1292 C1295 1.387 . S
H1293 C1289 0.950 . S
H1294 C1291 0.950 . S
C1295 C1286 1.390 1_556 S
C1295 H1288 0.950 . S
C1295 C1292 1.387 . S
C1296 C1297 1.387 . S
C1296 H1300 0.950 1_455 S
C1296 C1305 1.390 1_565 S
C1297 C1296 1.387 . S
C1297 C1299 1.387 . S
H1298 C1305 0.950 1_655 S
C1299 C1297 1.387 . S
C1299 C1301 1.390 1_565 S
C1299 H1303 0.950 . S
H1300 C1296 0.950 1_655 S
C1301 C1299 1.390 1_545 S
C1301 C1302 1.387 . S
C1301 H1304 0.950 . S
C1302 C1301 1.387 . S
C1302 C1305 1.387 . S
H1303 C1299 0.950 . S
H1304 C1301 0.950 . S
C1305 C1296 1.390 1_545 S
C1305 H1298 0.950 1_455 S
C1305 C1302 1.387 . S
C1306 C1307 1.387 . S
C1306 H1310 0.950 . S
C1306 C1315 1.390 . S
C1307 C1306 1.387 . S
C1307 C1309 1.387 . S
H1308 C1315 0.950 . S
C1309 C1307 1.387 . S
C1309 C1311 1.390 . S
C1309 H1313 0.950 1_655 S
H1310 C1306 0.950 . S
C1311 C1309 1.390 . S
C1311 C1312 1.387 . S
C1311 H1314 0.950 1_655 S
C1312 C1311 1.387 . S
C1312 C1315 1.387 . S
H1313 C1309 0.950 1_455 S
H1314 C1311 0.950 1_455 S
C1315 C1306 1.390 . S
C1315 H1308 0.950 . S
C1315 C1312 1.387 . S
C1316 C1317 1.387 . S
C1316 H1320 0.950 1_545 S
C1316 C1325 1.390 1_554 S
C1317 C1316 1.387 . S
C1317 C1319 1.387 . S
H1318 C1325 0.950 1_565 S
C1319 C1317 1.387 . S
C1319 C1321 1.390 1_554 S
C1319 H1323 0.950 . S
H1320 C1316 0.950 1_565 S
C1321 C1319 1.390 1_556 S
C1321 C1322 1.387 . S
C1321 H1324 0.950 . S
C1322 C1321 1.387 . S
C1322 C1325 1.387 . S
H1323 C1319 0.950 . S
H1324 C1321 0.950 . S
C1325 C1316 1.390 1_556 S
C1325 H1318 0.950 1_545 S
C1325 C1322 1.387 . S
C1326 C1327 1.387 . S
C1326 H1330 0.950 . S
C1326 C1335 1.390 1_556 S
C1327 C1326 1.387 . S
C1327 C1329 1.387 . S
H1328 C1335 0.950 . S
C1329 C1327 1.387 . S
C1329 C1331 1.390 1_556 S
C1329 H1333 0.950 . S
H1330 C1326 0.950 . S
C1331 C1329 1.390 1_554 S
C1331 C1332 1.387 . S
C1331 H1334 0.950 . S
C1332 C1331 1.387 . S
C1332 C1335 1.387 . S
H1333 C1329 0.950 . S
H1334 C1331 0.950 . S
C1335 C1326 1.390 1_554 S
C1335 H1328 0.950 . S
C1335 C1332 1.387 . S
C1336 C1337 1.387 . S
C1336 H1340 0.950 . S
C1336 C1345 1.390 . S
C1337 C1336 1.387 . S
C1337 C1339 1.387 . S
H1338 C1345 0.950 . S
C1339 C1337 1.387 . S
C1339 C1341 1.390 . S
C1339 H1343 0.950 1_565 S
H1340 C1336 0.950 . S
C1341 C1339 1.390 . S
C1341 C1342 1.387 . S
C1341 H1344 0.950 1_565 S
C1342 C1341 1.387 . S
C1342 C1345 1.387 . S
H1343 C1339 0.950 1_545 S
H1344 C1341 0.950 1_545 S
C1345 C1336 1.390 . S
C1345 H1338 0.950 . S
C1345 C1342 1.387 . S
C1346 C1347 1.387 . S
C1346 H1350 0.950 . S
C1346 C1355 1.390 . S
C1347 C1346 1.387 . S
C1347 C1349 1.387 . S
H1348 C1355 0.950 . S
C1349 C1347 1.387 . S
C1349 C1351 1.390 . S
C1349 H1353 0.950 . S
H1350 C1346 0.950 . S
C1351 C1349 1.390 . S
C1351 C1352 1.387 . S
C1351 H1354 0.950 . S
C1352 C1351 1.387 . S
C1352 C1355 1.387 . S
H1353 C1349 0.950 . S
H1354 C1351 0.950 . S
C1355 C1346 1.390 . S
C1355 H1348 0.950 . S
C1355 C1352 1.387 . S
C1356 C1357 1.387 . S
C1356 H1360 0.950 1_554 S
C1356 C1365 1.390 1_455 S
C1357 C1356 1.387 . S
C1357 C1359 1.387 . S
H1358 C1365 0.950 1_556 S
C1359 C1357 1.387 . S
C1359 C1361 1.390 1_455 S
C1359 H1363 0.950 . S
H1360 C1356 0.950 1_556 S
C1361 C1359 1.390 1_655 S
C1361 C1362 1.387 . S
C1361 H1364 0.950 . S
C1362 C1361 1.387 . S
C1362 C1365 1.387 . S
H1363 C1359 0.950 . S
H1364 C1361 0.950 . S
C1365 C1356 1.390 1_655 S
C1365 H1358 0.950 1_554 S
C1365 C1362 1.387 . S
C1366 C1367 1.387 . S
C1366 H1370 0.950 . S
C1366 C1375 1.390 1_455 S
C1367 C1366 1.387 . S
C1367 C1369 1.387 . S
H1368 C1375 0.950 . S
C1369 C1367 1.387 . S
C1369 C1371 1.390 1_455 S
C1369 H1373 0.950 . S
H1370 C1366 0.950 . S
C1371 C1369 1.390 1_655 S
C1371 C1372 1.387 . S
C1371 H1374 0.950 . S
C1372 C1371 1.387 . S
C1372 C1375 1.387 . S
H1373 C1369 0.950 . S
H1374 C1371 0.950 . S
C1375 C1366 1.390 1_655 S
C1375 H1368 0.950 . S
C1375 C1372 1.387 . S
C1376 C1377 1.387 . S
C1376 H1380 0.950 . S
C1376 C1385 1.390 . S
C1377 C1376 1.387 . S
C1377 C1379 1.387 . S
H1378 C1385 0.950 . S
C1379 C1377 1.387 . S
C1379 C1381 1.390 . S
C1379 H1383 0.950 . S
H1380 C1376 0.950 . S
C1381 C1379 1.390 . S
C1381 C1382 1.387 . S
C1381 H1384 0.950 . S
C1382 C1381 1.387 . S
C1382 C1385 1.387 . S
H1383 C1379 0.950 . S
H1384 C1381 0.950 . S
C1385 C1376 1.390 . S
C1385 H1378 0.950 . S
C1385 C1382 1.387 . S
C1386 C1387 1.387 . S
C1386 H1390 0.950 1_655 S
C1386 C1395 1.390 1_565 S
C1387 C1386 1.387 . S
C1387 C1389 1.387 . S
H1388 C1395 0.950 1_455 S
C1389 C1387 1.387 . S
C1389 C1391 1.390 1_565 S
C1389 H1393 0.950 . S
H1390 C1386 0.950 1_455 S
C1391 C1389 1.390 1_545 S
C1391 C1392 1.387 . S
C1391 H1394 0.950 . S
C1392 C1391 1.387 . S
C1392 C1395 1.387 . S
H1393 C1389 0.950 . S
H1394 C1391 0.950 . S
C1395 C1386 1.390 1_545 S
C1395 H1388 0.950 1_655 S
C1395 C1392 1.387 . S
C1396 C1397 1.387 . S
C1396 H1400 0.950 1_455 S
C1396 C1405 1.390 . S
C1397 C1396 1.387 . S
C1397 C1399 1.387 . S
H1398 C1405 0.950 1_655 S
C1399 C1397 1.387 . S
C1399 C1401 1.390 . S
C1399 H1403 0.950 . S
H1400 C1396 0.950 1_655 S
C1401 C1399 1.390 . S
C1401 C1402 1.387 . S
C1401 H1404 0.950 . S
C1402 C1401 1.387 . S
C1402 C1405 1.387 . S
H1403 C1399 0.950 . S
H1404 C1401 0.950 . S
C1405 C1396 1.390 . S
C1405 H1398 0.950 1_455 S
C1405 C1402 1.387 . S
C1406 C1407 1.387 . S
C1406 H1410 0.950 1_565 S
C1406 C1415 1.390 1_554 S
C1407 C1406 1.387 . S
C1407 C1409 1.387 . S
H1408 C1415 0.950 1_545 S
C1409 C1407 1.387 . S
C1409 C1411 1.390 1_554 S
C1409 H1413 0.950 . S
H1410 C1406 0.950 1_545 S
C1411 C1409 1.390 1_556 S
C1411 C1412 1.387 . S
C1411 H1414 0.950 . S
C1412 C1411 1.387 . S
C1412 C1415 1.387 . S
H1413 C1409 0.950 . S
H1414 C1411 0.950 . S
C1415 C1406 1.390 1_556 S
C1415 H1408 0.950 1_565 S
C1415 C1412 1.387 . S
C1416 C1417 1.387 . S
C1416 H1420 0.950 . S
C1416 C1425 1.390 1_554 S
C1417 C1416 1.387 . S
C1417 C1419 1.387 . S
H1418 C1425 0.950 . S
C1419 C1417 1.387 . S
C1419 C1421 1.390 1_554 S
C1419 H1423 0.950 . S
H1420 C1416 0.950 . S
C1421 C1419 1.390 1_556 S
C1421 C1422 1.387 . S
C1421 H1424 0.950 . S
C1422 C1421 1.387 . S
C1422 C1425 1.387 . S
H1423 C1419 0.950 . S
H1424 C1421 0.950 . S
C1425 C1416 1.390 1_556 S
C1425 H1418 0.950 . S
C1425 C1422 1.387 . S
C1426 C1427 1.387 . S
C1426 H1430 0.950 . S
C1426 C1435 1.390 . S
C1427 C1426 1.387 . S
C1427 C1429 1.387 . S
H1428 C1435 0.950 . S
C1429 C1427 1.387 . S
C1429 C1431 1.390 . S
C1429 H1433 0.950 1_545 S
H1430 C1426 0.950 . S
C1431 C1429 1.390 . S
C1431 C1432 1.387 . S
C1431 H1434 0.950 1_545 S
C1432 C1431 1.387 . S
C1432 C1435 1.387 . S
H1433 C1429 0.950 1_565 S
H1434 C1431 0.950 1_565 S
C1435 C1426 1.390 . S
C1435 H1428 0.950 . S
C1435 C1432 1.387 . S
C1436 C1437 1.387 . S
C1436 H1440 0.950 . S
C1436 C1445 1.390 . S
C1437 C1436 1.387 . S
C1437 C1439 1.387 . S
H1438 C1445 0.950 . S
C1439 C1437 1.387 . S
C1439 C1441 1.390 . S
C1439 H1443 0.950 . S
H1440 C1436 0.950 . S
C1441 C1439 1.390 . S
C1441 C1442 1.387 . S
C1441 H1444 0.950 . S
C1442 C1441 1.387 . S
C1442 C1445 1.387 . S
H1443 C1439 0.950 . S
H1444 C1441 0.950 . S
C1445 C1436 1.390 . S
C1445 H1438 0.950 . S
C1445 C1442 1.387 . S
C1446 C1447 1.387 . S
C1446 H1450 0.950 1_556 S
C1446 C1455 1.390 1_455 S
C1447 C1446 1.387 . S
C1447 C1449 1.387 . S
H1448 C1455 0.950 1_554 S
C1449 C1447 1.387 . S
C1449 C1451 1.390 1_455 S
C1449 H1453 0.950 . S
H1450 C1446 0.950 1_554 S
C1451 C1449 1.390 1_655 S
C1451 C1452 1.387 . S
C1451 H1454 0.950 . S
C1452 C1451 1.387 . S
C1452 C1455 1.387 . S
H1453 C1449 0.950 . S
H1454 C1451 0.950 . S
C1455 C1446 1.390 1_655 S
C1455 H1448 0.950 1_556 S
C1455 C1452 1.387 . S
C1456 C1457 1.387 . S
C1456 H1460 0.950 . S
C1456 C1465 1.390 1_455 S
C1457 C1456 1.387 . S
C1457 C1459 1.387 . S
H1458 C1465 0.950 . S
C1459 C1457 1.387 . S
C1459 C1461 1.390 1_455 S
C1459 H1463 0.950 . S
H1460 C1456 0.950 . S
C1461 C1459 1.390 1_655 S
C1461 C1462 1.387 . S
C1461 H1464 0.950 . S
C1462 C1461 1.387 . S
C1462 C1465 1.387 . S
H1463 C1459 0.950 . S
H1464 C1461 0.950 . S
C1465 C1456 1.390 1_655 S
C1465 H1458 0.950 . S
C1465 C1462 1.387 . S
C1466 C1467 1.387 . S
C1466 H1470 0.950 . S
C1466 C1475 1.390 . S
C1467 C1466 1.387 . S
C1467 C1469 1.387 . S
H1468 C1475 0.950 . S
C1469 C1467 1.387 . S
C1469 C1471 1.390 . S
C1469 H1473 0.950 . S
H1470 C1466 0.950 . S
C1471 C1469 1.390 . S
C1471 C1472 1.387 . S
C1471 H1474 0.950 . S
C1472 C1471 1.387 . S
C1472 C1475 1.387 . S
H1473 C1469 0.950 . S
H1474 C1471 0.950 . S
C1475 C1466 1.390 . S
C1475 H1468 0.950 . S
C1475 C1472 1.387 . S
C1476 C1477 1.387 . S
C1476 H1480 0.950 . S
C1476 C1485 1.390 . S
C1477 C1476 1.387 . S
C1477 C1479 1.387 . S
H1478 C1485 0.950 . S
C1479 C1477 1.387 . S
C1479 C1481 1.390 . S
C1479 H1483 0.950 . S
H1480 C1476 0.950 . S
C1481 C1479 1.390 . S
C1481 C1482 1.387 . S
C1481 H1484 0.950 . S
C1482 C1481 1.387 . S
C1482 C1485 1.387 . S
H1483 C1479 0.950 . S
H1484 C1481 0.950 . S
C1485 C1476 1.390 . S
C1485 H1478 0.950 . S
C1485 C1482 1.387 . S
C1486 C1487 1.387 . S
C1486 H1490 0.950 . S
C1486 C1495 1.390 1_565 S
C1487 C1486 1.387 . S
C1487 C1489 1.387 . S
H1488 C1495 0.950 . S
C1489 C1487 1.387 . S
C1489 C1491 1.390 1_565 S
C1489 H1493 0.950 . S
H1490 C1486 0.950 . S
C1491 C1489 1.390 1_545 S
C1491 C1492 1.387 . S
C1491 H1494 0.950 . S
C1492 C1491 1.387 . S
C1492 C1495 1.387 . S
H1493 C1489 0.950 . S
H1494 C1491 0.950 . S
C1495 C1486 1.390 1_545 S
C1495 H1488 0.950 . S
C1495 C1492 1.387 . S
C1496 C1497 1.387 . S
C1496 H1500 0.950 1_556 S
C1496 C1505 1.390 . S
C1497 C1496 1.387 . S
C1497 C1499 1.387 . S
H1498 C1505 0.950 1_554 S
C1499 C1497 1.387 . S
C1499 C1501 1.390 . S
C1499 H1503 0.950 . S
H1500 C1496 0.950 1_554 S
C1501 C1499 1.390 . S
C1501 C1502 1.387 . S
C1501 H1504 0.950 . S
C1502 C1501 1.387 . S
C1502 C1505 1.387 . S
H1503 C1499 0.950 . S
H1504 C1501 0.950 . S
C1505 C1496 1.390 . S
C1505 H1498 0.950 1_556 S
C1505 C1502 1.387 . S
C1506 C1507 1.387 . S
C1506 H1510 0.950 . S
C1506 C1515 1.390 . S
C1507 C1506 1.387 . S
C1507 C1509 1.387 . S
H1508 C1515 0.950 . S
C1509 C1507 1.387 . S
C1509 C1511 1.390 . S
C1509 H1513 0.950 . S
H1510 C1506 0.950 . S
C1511 C1509 1.390 . S
C1511 C1512 1.387 . S
C1511 H1514 0.950 . S
C1512 C1511 1.387 . S
C1512 C1515 1.387 . S
H1513 C1509 0.950 . S
H1514 C1511 0.950 . S
C1515 C1506 1.390 . S
C1515 H1508 0.950 . S
C1515 C1512 1.387 . S
C1516 C1517 1.387 . S
C1516 H1520 0.950 . S
C1516 C1525 1.390 1_545 S
C1517 C1516 1.387 . S
C1517 C1519 1.387 . S
H1518 C1525 0.950 . S
C1519 C1517 1.387 . S
C1519 C1521 1.390 1_545 S
C1519 H1523 0.950 . S
H1520 C1516 0.950 . S
C1521 C1519 1.390 1_565 S
C1521 C1522 1.387 . S
C1521 H1524 0.950 . S
C1522 C1521 1.387 . S
C1522 C1525 1.387 . S
H1523 C1519 0.950 . S
H1524 C1521 0.950 . S
C1525 C1516 1.390 1_565 S
C1525 H1518 0.950 . S
C1525 C1522 1.387 . S
C1526 C1527 1.387 . S
C1526 H1530 0.950 1_554 S
C1526 C1535 1.390 . S
C1527 C1526 1.387 . S
C1527 C1529 1.387 . S
H1528 C1535 0.950 1_556 S
C1529 C1527 1.387 . S
C1529 C1531 1.390 . S
C1529 H1533 0.950 . S
H1530 C1526 0.950 1_556 S
C1531 C1529 1.390 . S
C1531 C1532 1.387 . S
C1531 H1534 0.950 . S
C1532 C1531 1.387 . S
C1532 C1535 1.387 . S
H1533 C1529 0.950 . S
H1534 C1531 0.950 . S
C1535 C1526 1.390 . S
C1535 H1528 0.950 1_554 S
C1535 C1532 1.387 . S
C1536 C1537 1.387 . S
C1536 H1540 0.950 . S
C1536 C1545 1.390 . S
C1537 C1536 1.387 . S
C1537 C1539 1.387 . S
H1538 C1545 0.950 . S
C1539 C1537 1.387 . S
C1539 C1541 1.390 . S
C1539 H1543 0.950 . S
H1540 C1536 0.950 . S
C1541 C1539 1.390 . S
C1541 C1542 1.387 . S
C1541 H1544 0.950 . S
C1542 C1541 1.387 . S
C1542 C1545 1.387 . S
H1543 C1539 0.950 . S
H1544 C1541 0.950 . S
C1545 C1536 1.390 . S
C1545 H1538 0.950 . S
C1545 C1542 1.387 . S
C1546 C1547 1.387 . S
C1546 H1550 0.950 . S
C1546 C1555 1.390 . S
C1547 C1546 1.387 . S
C1547 C1549 1.387 . S
H1548 C1555 0.950 . S
C1549 C1547 1.387 . S
C1549 C1551 1.390 . S
C1549 H1553 0.950 . S
H1550 C1546 0.950 . S
C1551 C1549 1.390 . S
C1551 C1552 1.387 . S
C1551 H1554 0.950 . S
C1552 C1551 1.387 . S
C1552 C1555 1.387 . S
H1553 C1549 0.950 . S
H1554 C1551 0.950 . S
C1555 C1546 1.390 . S
C1555 H1548 0.950 . S
C1555 C1552 1.387 . S
C1556 C1557 1.387 . S
C1556 H1560 0.950 . S
C1556 C1565 1.390 . S
C1557 C1556 1.387 . S
C1557 C1559 1.387 . S
H1558 C1565 0.950 . S
C1559 C1557 1.387 . S
C1559 C1561 1.390 . S
C1559 H1563 0.950 . S
H1560 C1556 0.950 . S
C1561 C1559 1.390 . S
C1561 C1562 1.387 . S
C1561 H1564 0.950 . S
C1562 C1561 1.387 . S
C1562 C1565 1.387 . S
H1563 C1559 0.950 . S
H1564 C1561 0.950 . S
C1565 C1556 1.390 . S
C1565 H1558 0.950 . S
C1565 C1562 1.387 . S
C1566 C1567 1.387 . S
C1566 H1570 0.950 . S
C1566 C1575 1.390 . S
C1567 C1566 1.387 . S
C1567 C1569 1.387 . S
H1568 C1575 0.950 . S
C1569 C1567 1.387 . S
C1569 C1571 1.390 . S
C1569 H1573 0.950 . S
H1570 C1566 0.950 . S
C1571 C1569 1.390 . S
C1571 C1572 1.387 . S
C1571 H1574 0.950 . S
C1572 C1571 1.387 . S
C1572 C1575 1.387 . S
H1573 C1569 0.950 . S
H1574 C1571 0.950 . S
C1575 C1566 1.390 . S
C1575 H1568 0.950 . S
C1575 C1572 1.387 . S
C1576 C1577 1.387 . S
C1576 H1580 0.950 . S
C1576 C1585 1.390 . S
C1577 C1576 1.387 . S
C1577 C1579 1.387 . S
H1578 C1585 0.950 . S
C1579 C1577 1.387 . S
C1579 C1581 1.390 . S
C1579 H1583 0.950 . S
H1580 C1576 0.950 . S
C1581 C1579 1.390 . S
C1581 C1582 1.387 . S
C1581 H1584 0.950 . S
C1582 C1581 1.387 . S
C1582 C1585 1.387 . S
H1583 C1579 0.950 . S
H1584 C1581 0.950 . S
C1585 C1576 1.390 . S
C1585 H1578 0.950 . S
C1585 C1582 1.387 . S
C1586 C1587 1.387 . S
C1586 H1590 0.950 . S
C1586 C1595 1.390 . S
C1587 C1586 1.387 . S
C1587 C1589 1.387 . S
H1588 C1595 0.950 . S
C1589 C1587 1.387 . S
C1589 C1591 1.390 . S
C1589 H1593 0.950 . S
H1590 C1586 0.950 . S
C1591 C1589 1.390 . S
C1591 C1592 1.387 . S
C1591 H1594 0.950 . S
C1592 C1591 1.387 . S
C1592 C1595 1.387 . S
H1593 C1589 0.950 . S
H1594 C1591 0.950 . S
C1595 C1586 1.390 . S
C1595 H1588 0.950 . S
C1595 C1592 1.387 . S
C1596 C1597 1.387 . S
C1596 H1600 0.950 . S
C1596 C1605 1.390 . S
C1597 C1596 1.387 . S
C1597 C1599 1.387 . S
H1598 C1605 0.950 . S
C1599 C1597 1.387 . S
C1599 C1601 1.390 . S
C1599 H1603 0.950 . S
H1600 C1596 0.950 . S
C1601 C1599 1.390 . S
C1601 C1602 1.387 . S
C1601 H1604 0.950 . S
C1602 C1601 1.387 . S
C1602 C1605 1.387 . S
H1603 C1599 0.950 . S
H1604 C1601 0.950 . S
C1605 C1596 1.390 . S
C1605 H1598 0.950 . S
C1605 C1602 1.387 . S
C1606 C1607 1.387 . S
C1606 H1610 0.950 . S
C1606 C1615 1.390 . S
C1607 C1606 1.387 . S
C1607 C1609 1.387 . S
H1608 C1615 0.950 . S
C1609 C1607 1.387 . S
C1609 C1611 1.390 . S
C1609 H1613 0.950 . S
H1610 C1606 0.950 . S
C1611 C1609 1.390 . S
C1611 C1612 1.387 . S
C1611 H1614 0.950 . S
C1612 C1611 1.387 . S
C1612 C1615 1.387 . S
H1613 C1609 0.950 . S
H1614 C1611 0.950 . S
C1615 C1606 1.390 . S
C1615 H1608 0.950 . S
C1615 C1612 1.387 . S
C1616 C1617 1.387 . S
C1616 H1620 0.950 . S
C1616 C1625 1.390 . S
C1617 C1616 1.387 . S
C1617 C1619 1.387 . S
H1618 C1625 0.950 . S
C1619 C1617 1.387 . S
C1619 C1621 1.390 . S
C1619 H1623 0.950 . S
H1620 C1616 0.950 . S
C1621 C1619 1.390 . S
C1621 C1622 1.387 . S
C1621 H1624 0.950 . S
C1622 C1621 1.387 . S
C1622 C1625 1.387 . S
H1623 C1619 0.950 . S
H1624 C1621 0.950 . S
C1625 C1616 1.390 . S
C1625 H1618 0.950 . S
C1625 C1622 1.387 . S
C1626 C1627 1.387 . S
C1626 H1630 0.950 . S
C1626 C1635 1.390 . S
C1627 C1626 1.387 . S
C1627 C1629 1.387 . S
H1628 C1635 0.950 . S
C1629 C1627 1.387 . S
C1629 C1631 1.390 . S
C1629 H1633 0.950 . S
H1630 C1626 0.950 . S
C1631 C1629 1.390 . S
C1631 C1632 1.387 . S
C1631 H1634 0.950 . S
C1632 C1631 1.387 . S
C1632 C1635 1.387 . S
H1633 C1629 0.950 . S
H1634 C1631 0.950 . S
C1635 C1626 1.390 . S
C1635 H1628 0.950 . S
C1635 C1632 1.387 . S
C1636 C1637 1.387 . S
C1636 H1640 0.950 . S
C1636 C1645 1.390 . S
C1637 C1636 1.387 . S
C1637 C1639 1.387 . S
H1638 C1645 0.950 . S
C1639 C1637 1.387 . S
C1639 C1641 1.390 . S
C1639 H1643 0.950 . S
H1640 C1636 0.950 . S
C1641 C1639 1.390 . S
C1641 C1642 1.387 . S
C1641 H1644 0.950 . S
C1642 C1641 1.387 . S
C1642 C1645 1.387 . S
H1643 C1639 0.950 . S
H1644 C1641 0.950 . S
C1645 C1636 1.390 . S
C1645 H1638 0.950 . S
C1645 C1642 1.387 . S
C1646 C1647 1.387 . S
C1646 H1650 0.950 . S
C1646 C1655 1.390 . S
C1647 C1646 1.387 . S
C1647 C1649 1.387 . S
H1648 C1655 0.950 . S
C1649 C1647 1.387 . S
C1649 C1651 1.390 . S
C1649 H1653 0.950 . S
H1650 C1646 0.950 . S
C1651 C1649 1.390 . S
C1651 C1652 1.387 . S
C1651 H1654 0.950 . S
C1652 C1651 1.387 . S
C1652 C1655 1.387 . S
H1653 C1649 0.950 . S
H1654 C1651 0.950 . S
C1655 C1646 1.390 . S
C1655 H1648 0.950 . S
C1655 C1652 1.387 . S
C1656 C1657 1.387 . S
C1656 H1660 0.950 . S
C1656 C1665 1.390 . S
C1657 C1656 1.387 . S
C1657 C1659 1.387 . S
H1658 C1665 0.950 . S
C1659 C1657 1.387 . S
C1659 C1661 1.390 . S
C1659 H1663 0.950 . S
H1660 C1656 0.950 . S
C1661 C1659 1.390 . S
C1661 C1662 1.387 . S
C1661 H1664 0.950 . S
C1662 C1661 1.387 . S
C1662 C1665 1.387 . S
H1663 C1659 0.950 . S
H1664 C1661 0.950 . S
C1665 C1656 1.390 . S
C1665 H1658 0.950 . S
C1665 C1662 1.387 . S
C1666 C1667 1.387 . S
C1666 H1670 0.950 . S
C1666 C1675 1.390 . S
C1667 C1666 1.387 . S
C1667 C1669 1.387 . S
H1668 C1675 0.950 . S
C1669 C1667 1.387 . S
C1669 C1671 1.390 . S
C1669 H1673 0.950 . S
H1670 C1666 0.950 . S
C1671 C1669 1.390 . S
C1671 C1672 1.387 . S
C1671 H1674 0.950 . S
C1672 C1671 1.387 . S
C1672 C1675 1.387 . S
H1673 C1669 0.950 . S
H1674 C1671 0.950 . S
C1675 C1666 1.390 . S
C1675 H1668 0.950 . S
C1675 C1672 1.387 . S
C1676 C1677 1.387 . S
C1676 H1680 0.950 . S
C1676 C1685 1.390 . S
C1677 C1676 1.387 . S
C1677 C1679 1.387 . S
H1678 C1685 0.950 . S
C1679 C1677 1.387 . S
C1679 C1681 1.390 . S
C1679 H1683 0.950 . S
H1680 C1676 0.950 . S
C1681 C1679 1.390 . S
C1681 C1682 1.387 . S
C1681 H1684 0.950 . S
C1682 C1681 1.387 . S
C1682 C1685 1.387 . S
H1683 C1679 0.950 . S
H1684 C1681 0.950 . S
C1685 C1676 1.390 . S
C1685 H1678 0.950 . S
C1685 C1682 1.387 . S
C1686 C1687 1.387 . S
C1686 H1690 0.950 . S
C1686 C1695 1.390 . S
C1687 C1686 1.387 . S
C1687 C1689 1.387 . S
H1688 C1695 0.950 . S
C1689 C1687 1.387 . S
C1689 C1691 1.390 . S
C1689 H1693 0.950 . S
H1690 C1686 0.950 . S
C1691 C1689 1.390 . S
C1691 C1692 1.387 . S
C1691 H1694 0.950 . S
C1692 C1691 1.387 . S
C1692 C1695 1.387 . S
H1693 C1689 0.950 . S
H1694 C1691 0.950 . S
C1695 C1686 1.390 . S
C1695 H1688 0.950 . S
C1695 C1692 1.387 . S
C1696 C1697 1.387 . S
C1696 H1700 0.950 . S
C1696 C1705 1.390 . S
C1697 C1696 1.387 . S
C1697 C1699 1.387 . S
H1698 C1705 0.950 . S
C1699 C1697 1.387 . S
C1699 C1701 1.390 . S
C1699 H1703 0.950 . S
H1700 C1696 0.950 . S
C1701 C1699 1.390 . S
C1701 C1702 1.387 . S
C1701 H1704 0.950 . S
C1702 C1701 1.387 . S
C1702 C1705 1.387 . S
H1703 C1699 0.950 . S
H1704 C1701 0.950 . S
C1705 C1696 1.390 . S
C1705 H1698 0.950 . S
C1705 C1702 1.387 . S
C1706 C1707 1.387 . S
C1706 H1710 0.950 . S
C1706 C1715 1.390 . S
C1707 C1706 1.387 . S
C1707 C1709 1.387 . S
H1708 C1715 0.950 . S
C1709 C1707 1.387 . S
C1709 C1711 1.390 . S
C1709 H1713 0.950 . S
H1710 C1706 0.950 . S
C1711 C1709 1.390 . S
C1711 C1712 1.387 . S
C1711 H1714 0.950 . S
C1712 C1711 1.387 . S
C1712 C1715 1.387 . S
H1713 C1709 0.950 . S
H1714 C1711 0.950 . S
C1715 C1706 1.390 . S
C1715 H1708 0.950 . S
C1715 C1712 1.387 . S
C1716 C1717 1.387 . S
C1716 H1720 0.950 . S
C1716 C1725 1.390 . S
C1717 C1716 1.387 . S
C1717 C1719 1.387 . S
H1718 C1725 0.950 . S
C1719 C1717 1.387 . S
C1719 C1721 1.390 . S
C1719 H1723 0.950 . S
H1720 C1716 0.950 . S
C1721 C1719 1.390 . S
C1721 C1722 1.387 . S
C1721 H1724 0.950 . S
C1722 C1721 1.387 . S
C1722 C1725 1.387 . S
H1723 C1719 0.950 . S
H1724 C1721 0.950 . S
C1725 C1716 1.390 . S
C1725 H1718 0.950 . S
C1725 C1722 1.387 . S
C1726 C1727 1.387 . S
C1726 H1730 0.950 . S
C1726 C1735 1.390 . S
C1727 C1726 1.387 . S
C1727 C1729 1.387 . S
H1728 C1735 0.950 . S
C1729 C1727 1.387 . S
C1729 C1731 1.390 . S
C1729 H1733 0.950 . S
H1730 C1726 0.950 . S
C1731 C1729 1.390 . S
C1731 C1732 1.387 . S
C1731 H1734 0.950 . S
C1732 C1731 1.387 . S
C1732 C1735 1.387 . S
H1733 C1729 0.950 . S
H1734 C1731 0.950 . S
C1735 C1726 1.390 . S
C1735 H1728 0.950 . S
C1735 C1732 1.387 . S
C1736 C1737 1.387 . S
C1736 H1740 0.950 . S
C1736 C1745 1.390 . S
C1737 C1736 1.387 . S
C1737 C1739 1.387 . S
H1738 C1745 0.950 . S
C1739 C1737 1.387 . S
C1739 C1741 1.390 . S
C1739 H1743 0.950 . S
H1740 C1736 0.950 . S
C1741 C1739 1.390 . S
C1741 C1742 1.387 . S
C1741 H1744 0.950 . S
C1742 C1741 1.387 . S
C1742 C1745 1.387 . S
H1743 C1739 0.950 . S
H1744 C1741 0.950 . S
C1745 C1736 1.390 . S
C1745 H1738 0.950 . S
C1745 C1742 1.387 . S
C1746 C1747 1.387 . S
C1746 H1750 0.950 . S
C1746 C1755 1.390 . S
C1747 C1746 1.387 . S
C1747 C1749 1.387 . S
H1748 C1755 0.950 . S
C1749 C1747 1.387 . S
C1749 C1751 1.390 . S
C1749 H1753 0.950 . S
H1750 C1746 0.950 . S
C1751 C1749 1.390 . S
C1751 C1752 1.387 . S
C1751 H1754 0.950 . S
C1752 C1751 1.387 . S
C1752 C1755 1.387 . S
H1753 C1749 0.950 . S
H1754 C1751 0.950 . S
C1755 C1746 1.390 . S
C1755 H1748 0.950 . S
C1755 C1752 1.387 . S
C1756 C1757 1.387 . S
C1756 H1760 0.950 . S
C1756 C1765 1.390 . S
C1757 C1756 1.387 . S
C1757 C1759 1.387 . S
H1758 C1765 0.950 . S
C1759 C1757 1.387 . S
C1759 C1761 1.390 . S
C1759 H1763 0.950 . S
H1760 C1756 0.950 . S
C1761 C1759 1.390 . S
C1761 C1762 1.387 . S
C1761 H1764 0.950 . S
C1762 C1761 1.387 . S
C1762 C1765 1.387 . S
H1763 C1759 0.950 . S
H1764 C1761 0.950 . S
C1765 C1756 1.390 . S
C1765 H1758 0.950 . S
C1765 C1762 1.387 . S
C1766 C1767 1.387 . S
C1766 H1770 0.950 . S
C1766 C1775 1.390 . S
C1767 C1766 1.387 . S
C1767 C1769 1.387 . S
H1768 C1775 0.950 . S
C1769 C1767 1.387 . S
C1769 C1771 1.390 . S
C1769 H1773 0.950 . S
H1770 C1766 0.950 . S
C1771 C1769 1.390 . S
C1771 C1772 1.387 . S
C1771 H1774 0.950 . S
C1772 C1771 1.387 . S
C1772 C1775 1.387 . S
H1773 C1769 0.950 . S
H1774 C1771 0.950 . S
C1775 C1766 1.390 . S
C1775 H1768 0.950 . S
C1775 C1772 1.387 . S
C1776 C1777 1.387 . S
C1776 H1780 0.950 . S
C1776 C1785 1.390 . S
C1777 C1776 1.387 . S
C1777 C1779 1.387 . S
H1778 C1785 0.950 . S
C1779 C1777 1.387 . S
C1779 C1781 1.390 . S
C1779 H1783 0.950 . S
H1780 C1776 0.950 . S
C1781 C1779 1.390 . S
C1781 C1782 1.387 . S
C1781 H1784 0.950 . S
C1782 C1781 1.387 . S
C1782 C1785 1.387 . S
H1783 C1779 0.950 . S
H1784 C1781 0.950 . S
C1785 C1776 1.390 . S
C1785 H1778 0.950 . S
C1785 C1782 1.387 . S
C1786 C1787 1.387 . S
C1786 H1790 0.950 . S
C1786 C1795 1.390 . S
C1787 C1786 1.387 . S
C1787 C1789 1.387 . S
H1788 C1795 0.950 . S
C1789 C1787 1.387 . S
C1789 C1791 1.390 . S
C1789 H1793 0.950 . S
H1790 C1786 0.950 . S
C1791 C1789 1.390 . S
C1791 C1792 1.387 . S
C1791 H1794 0.950 . S
C1792 C1791 1.387 . S
C1792 C1795 1.387 . S
H1793 C1789 0.950 . S
H1794 C1791 0.950 . S
C1795 C1786 1.390 . S
C1795 H1788 0.950 . S
C1795 C1792 1.387 . S
C1796 C1797 1.387 . S
C1796 H1800 0.950 . S
C1796 C1805 1.390 . S
C1797 C1796 1.387 . S
C1797 C1799 1.387 . S
H1798 C1805 0.950 . S
C1799 C1797 1.387 . S
C1799 C1801 1.390 . S
C1799 H1803 0.950 . S
H1800 C1796 0.950 . S
C1801 C1799 1.390 . S
C1801 C1802 1.387 . S
C1801 H1804 0.950 . S
C1802 C1801 1.387 . S
C1802 C1805 1.387 . S
H1803 C1799 0.950 . S
H1804 C1801 0.950 . S
C1805 C1796 1.390 . S
C1805 H1798 0.950 . S
C1805 C1802 1.387 . S
C1806 C1807 1.387 . S
C1806 H1810 0.950 . S
C1806 C1815 1.390 . S
C1807 C1806 1.387 . S
C1807 C1809 1.387 . S
H1808 C1815 0.950 . S
C1809 C1807 1.387 . S
C1809 C1811 1.390 . S
C1809 H1813 0.950 . S
H1810 C1806 0.950 . S
C1811 C1809 1.390 . S
C1811 C1812 1.387 . S
C1811 H1814 0.950 . S
C1812 C1811 1.387 . S
C1812 C1815 1.387 . S
H1813 C1809 0.950 . S
H1814 C1811 0.950 . S
C1815 C1806 1.390 . S
C1815 H1808 0.950 . S
C1815 C1812 1.387 . S
C1816 C1817 1.387 . S
C1816 H1820 0.950 . S
C1816 C1825 1.390 . S
C1817 C1816 1.387 . S
C1817 C1819 1.387 . S
H1818 C1825 0.950 . S
C1819 C1817 1.387 . S
C1819 C1821 1.390 . S
C1819 H1823 0.950 . S
H1820 C1816 0.950 . S
C1821 C1819 1.390 . S
C1821 C1822 1.387 . S
C1821 H1824 0.950 . S
C1822 C1821 1.387 . S
C1822 C1825 1.387 . S
H1823 C1819 0.950 . S
H1824 C1821 0.950 . S
C1825 C1816 1.390 . S
C1825 H1818 0.950 . S
C1825 C1822 1.387 . S
C1826 C1827 1.387 . S
C1826 H1830 0.950 . S
C1826 C1835 1.390 . S
C1827 C1826 1.387 . S
C1827 C1829 1.387 . S
H1828 C1835 0.950 . S
C1829 C1827 1.387 . S
C1829 C1831 1.390 . S
C1829 H1833 0.950 . S
H1830 C1826 0.950 . S
C1831 C1829 1.390 . S
C1831 C1832 1.387 . S
C1831 H1834 0.950 . S
C1832 C1831 1.387 . S
C1832 C1835 1.387 . S
H1833 C1829 0.950 . S
H1834 C1831 0.950 . S
C1835 C1826 1.390 . S
C1835 H1828 0.950 . S
C1835 C1832 1.387 . S
C1836 C1837 1.387 . S
C1836 H1840 0.950 . S
C1836 C1845 1.390 . S
C1837 C1836 1.387 . S
C1837 C1839 1.387 . S
H1838 C1845 0.950 . S
C1839 C1837 1.387 . S
C1839 C1841 1.390 . S
C1839 H1843 0.950 . S
H1840 C1836 0.950 . S
C1841 C1839 1.390 . S
C1841 C1842 1.387 . S
C1841 H1844 0.950 . S
C1842 C1841 1.387 . S
C1842 C1845 1.387 . S
H1843 C1839 0.950 . S
H1844 C1841 0.950 . S
C1845 C1836 1.390 . S
C1845 H1838 0.950 . S
C1845 C1842 1.387 . S
C1846 C1847 1.387 . S
C1846 H1850 0.950 . S
C1846 C1855 1.390 . S
C1847 C1846 1.387 . S
C1847 C1849 1.387 . S
H1848 C1855 0.950 . S
C1849 C1847 1.387 . S
C1849 C1851 1.390 . S
C1849 H1853 0.950 . S
H1850 C1846 0.950 . S
C1851 C1849 1.390 . S
C1851 C1852 1.387 . S
C1851 H1854 0.950 . S
C1852 C1851 1.387 . S
C1852 C1855 1.387 . S
H1853 C1849 0.950 . S
H1854 C1851 0.950 . S
C1855 C1846 1.390 . S
C1855 H1848 0.950 . S
C1855 C1852 1.387 . S
C1856 C1857 1.387 . S
C1856 H1860 0.950 . S
C1856 C1865 1.390 . S
C1857 C1856 1.387 . S
C1857 C1859 1.387 . S
H1858 C1865 0.950 . S
C1859 C1857 1.387 . S
C1859 C1861 1.390 . S
C1859 H1863 0.950 . S
H1860 C1856 0.950 . S
C1861 C1859 1.390 . S
C1861 C1862 1.387 . S
C1861 H1864 0.950 . S
C1862 C1861 1.387 . S
C1862 C1865 1.387 . S
H1863 C1859 0.950 . S
H1864 C1861 0.950 . S
C1865 C1856 1.390 . S
C1865 H1858 0.950 . S
C1865 C1862 1.387 . S
C1866 C1867 1.387 . S
C1866 H1870 0.950 . S
C1866 C1875 1.390 . S
C1867 C1866 1.387 . S
C1867 C1869 1.387 . S
H1868 C1875 0.950 . S
C1869 C1867 1.387 . S
C1869 C1871 1.390 . S
C1869 H1873 0.950 . S
H1870 C1866 0.950 . S
C1871 C1869 1.390 . S
C1871 C1872 1.387 . S
C1871 H1874 0.950 . S
C1872 C1871 1.387 . S
C1872 C1875 1.387 . S
H1873 C1869 0.950 . S
H1874 C1871 0.950 . S
C1875 C1866 1.390 . S
C1875 H1868 0.950 . S
C1875 C1872 1.387 . S
C1876 C1877 1.387 . S
C1876 H1880 0.950 . S
C1876 C1885 1.390 . S
C1877 C1876 1.387 . S
C1877 C1879 1.387 . S
H1878 C1885 0.950 . S
C1879 C1877 1.387 . S
C1879 C1881 1.390 . S
C1879 H1883 0.950 . S
H1880 C1876 0.950 . S
C1881 C1879 1.390 . S
C1881 C1882 1.387 . S
C1881 H1884 0.950 . S
C1882 C1881 1.387 . S
C1882 C1885 1.387 . S
H1883 C1879 0.950 . S
H1884 C1881 0.950 . S
C1885 C1876 1.390 . S
C1885 H1878 0.950 . S
C1885 C1882 1.387 . S
C1886 C1887 1.387 . S
C1886 H1890 0.950 . S
C1886 C1895 1.390 . S
C1887 C1886 1.387 . S
C1887 C1889 1.387 . S
H1888 C1895 0.950 . S
C1889 C1887 1.387 . S
C1889 C1891 1.390 . S
C1889 H1893 0.950 . S
H1890 C1886 0.950 . S
C1891 C1889 1.390 . S
C1891 C1892 1.387 . S
C1891 H1894 0.950 . S
C1892 C1891 1.387 . S
C1892 C1895 1.387 . S
H1893 C1889 0.950 . S
H1894 C1891 0.950 . S
C1895 C1886 1.390 . S
C1895 H1888 0.950 . S
C1895 C1892 1.387 . S
C1896 C1897 1.387 . S
C1896 H1900 0.950 . S
C1896 C1905 1.390 . S
C1897 C1896 1.387 . S
C1897 C1899 1.387 . S
H1898 C1905 0.950 . S
C1899 C1897 1.387 . S
C1899 C1901 1.390 . S
C1899 H1903 0.950 . S
H1900 C1896 0.950 . S
C1901 C1899 1.390 . S
C1901 C1902 1.387 . S
C1901 H1904 0.950 . S
C1902 C1901 1.387 . S
C1902 C1905 1.387 . S
H1903 C1899 0.950 . S
H1904 C1901 0.950 . S
C1905 C1896 1.390 . S
C1905 H1898 0.950 . S
C1905 C1902 1.387 . S
C1906 C1907 1.387 . S
C1906 H1910 0.950 . S
C1906 C1915 1.390 . S
C1907 C1906 1.387 . S
C1907 C1909 1.387 . S
H1908 C1915 0.950 . S
C1909 C1907 1.387 . S
C1909 C1911 1.390 . S
C1909 H1913 0.950 . S
H1910 C1906 0.950 . S
C1911 C1909 1.390 . S
C1911 C1912 1.387 . S
C1911 H1914 0.950 . S
C1912 C1911 1.387 . S
C1912 C1915 1.387 . S
H1913 C1909 0.950 . S
H1914 C1911 0.950 . S
C1915 C1906 1.390 . S
C1915 H1908 0.950 . S
C1915 C1912 1.387 . S
C1916 C1917 1.387 . S
C1916 H1920 0.950 . S
C1916 C1925 1.390 . S
C1917 C1916 1.387 . S
C1917 C1919 1.387 . S
H1918 C1925 0.950 . S
C1919 C1917 1.387 . S
C1919 C1921 1.390 . S
C1919 H1923 0.950 . S
H1920 C1916 0.950 . S
C1921 C1919 1.390 . S
C1921 C1922 1.387 . S
C1921 H1924 0.950 . S
C1922 C1921 1.387 . S
C1922 C1925 1.387 . S
H1923 C1919 0.950 . S
H1924 C1921 0.950 . S
C1925 C1916 1.390 . S
C1925 H1918 0.950 . S
C1925 C1922 1.387 . S
C1926 C1927 1.387 . S
C1926 H1930 0.950 . S
C1926 C1935 1.390 . S
C1927 C1926 1.387 . S
C1927 C1929 1.387 . S
H1928 C1935 0.950 . S
C1929 C1927 1.387 . S
C1929 C1931 1.390 . S
C1929 H1933 0.950 . S
H1930 C1926 0.950 . S
C1931 C1929 1.390 . S
C1931 C1932 1.387 . S
C1931 H1934 0.950 . S
C1932 C1931 1.387 . S
C1932 C1935 1.387 . S
H1933 C1929 0.950 . S
H1934 C1931 0.950 . S
C1935 C1926 1.390 . S
C1935 H1928 0.950 . S
C1935 C1932 1.387 . S
C1936 C1937 1.387 . S
C1936 H1940 0.950 . S
C1936 C1945 1.390 . S
C1937 C1936 1.387 . S
C1937 C1939 1.387 . S
H1938 C1945 0.950 . S
C1939 C1937 1.387 . S
C1939 C1941 1.390 . S
C1939 H1943 0.950 . S
H1940 C1936 0.950 . S
C1941 C1939 1.390 . S
C1941 C1942 1.387 . S
C1941 H1944 0.950 . S
C1942 C1941 1.387 . S
C1942 C1945 1.387 . S
H1943 C1939 0.950 . S
H1944 C1941 0.950 . S
C1945 C1936 1.390 . S
C1945 H1938 0.950 . S
C1945 C1942 1.387 . S
C1946 C1947 1.387 . S
C1946 H1950 0.950 . S
C1946 C1955 1.390 . S
C1947 C1946 1.387 . S
C1947 C1949 1.387 . S
H1948 C1955 0.950 . S
C1949 C1947 1.387 . S
C1949 C1951 1.390 . S
C1949 H1953 0.950 . S
H1950 C1946 0.950 . S
C1951 C1949 1.390 . S
C1951 C1952 1.387 . S
C1951 H1954 0.950 . S
C1952 C1951 1.387 . S
C1952 C1955 1.387 . S
H1953 C1949 0.950 . S
H1954 C1951 0.950 . S
C1955 C1946 1.390 . S
C1955 H1948 0.950 . S
C1955 C1952 1.387 . S
C1956 C1957 1.387 . S
C1956 H1960 0.950 . S
C1956 C1965 1.390 . S
C1957 C1956 1.387 . S
C1957 C1959 1.387 . S
H1958 C1965 0.950 . S
C1959 C1957 1.387 . S
C1959 C1961 1.390 . S
C1959 H1963 0.950 . S
H1960 C1956 0.950 . S
C1961 C1959 1.390 . S
C1961 C1962 1.387 . S
C1961 H1964 0.950 . S
C1962 C1961 1.387 . S
C1962 C1965 1.387 . S
H1963 C1959 0.950 . S
H1964 C1961 0.950 . S
C1965 C1956 1.390 . S
C1965 H1958 0.950 . S
C1965 C1962 1.387 . S
C1966 C1967 1.387 . S
C1966 H1970 0.950 . S
C1966 C1975 1.390 . S
C1967 C1966 1.387 . S
C1967 C1969 1.387 . S
H1968 C1975 0.950 . S
C1969 C1967 1.387 . S
C1969 C1971 1.390 . S
C1969 H1973 0.950 . S
H1970 C1966 0.950 . S
C1971 C1969 1.390 . S
C1971 C1972 1.387 . S
C1971 H1974 0.950 . S
C1972 C1971 1.387 . S
C1972 C1975 1.387 . S
H1973 C1969 0.950 . S
H1974 C1971 0.950 . S
C1975 C1966 1.390 . S
C1975 H1968 0.950 . S
C1975 C1972 1.387 . S
C1976 C1977 1.387 . S
C1976 H1980 0.950 . S
C1976 C1985 1.390 . S
C1977 C1976 1.387 . S
C1977 C1979 1.387 . S
H1978 C1985 0.950 . S
C1979 C1977 1.387 . S
C1979 C1981 1.390 . S
C1979 H1983 0.950 . S
H1980 C1976 0.950 . S
C1981 C1979 1.390 . S
C1981 C1982 1.387 . S
C1981 H1984 0.950 . S
C1982 C1981 1.387 . S
C1982 C1985 1.387 . S
H1983 C1979 0.950 . S
H1984 C1981 0.950 . S
C1985 C1976 1.390 . S
C1985 H1978 0.950 . S
C1985 C1982 1.387 . S
C1986 C1987 1.387 . S
C1986 H1990 0.950 . S
C1986 C1995 1.390 . S
C1987 C1986 1.387 . S
C1987 C1989 1.387 . S
H1988 C1995 0.950 . S
C1989 C1987 1.387 . S
C1989 C1991 1.390 . S
C1989 H1993 0.950 . S
H1990 C1986 0.950 . S
C1991 C1989 1.390 . S
C1991 C1992 1.387 . S
C1991 H1994 0.950 . S
C1992 C1991 1.387 . S
C1992 C1995 1.387 . S
H1993 C1989 0.950 . S
H1994 C1991 0.950 . S
C1995 C1986 1.390 . S
C1995 H1988 0.950 . S
C1995 C1992 1.387 . S
C1996 C1997 1.387 . S
C1996 H2000 0.950 . S
C1996 C2005 1.390 . S
C1997 C1996 1.387 . S
C1997 C1999 1.387 . S
H1998 C2005 0.950 . S
C1999 C1997 1.387 . S
C1999 C2001 1.390 . S
C1999 H2003 0.950 . S
H2000 C1996 0.950 . S
C2001 C1999 1.390 . S
C2001 C2002 1.387 . S
C2001 H2004 0.950 . S
C2002 C2001 1.387 . S
C2002 C2005 1.387 . S
H2003 C1999 0.950 . S
H2004 C2001 0.950 . S
C2005 C1996 1.390 . S
C2005 H1998 0.950 . S
C2005 C2002 1.387 . S
C2006 C2007 1.387 . S
C2006 H2010 0.950 . S
C2006 C2015 1.390 . S
C2007 C2006 1.387 . S
C2007 C2009 1.387 . S
H2008 C2015 0.950 . S
C2009 C2007 1.387 . S
C2009 C2011 1.390 . S
C2009 H2013 0.950 . S
H2010 C2006 0.950 . S
C2011 C2009 1.390 . S
C2011 C2012 1.387 . S
C2011 H2014 0.950 . S
C2012 C2011 1.387 . S
C2012 C2015 1.387 . S
H2013 C2009 0.950 . S
H2014 C2011 0.950 . S
C2015 C2006 1.390 . S
C2015 H2008 0.950 . S
C2015 C2012 1.387 . S
C2016 C2017 1.387 . S
C2016 H2020 0.950 . S
C2016 C2025 1.390 . S
C2017 C2016 1.387 . S
C2017 C2019 1.387 . S
H2018 C2025 0.950 . S
C2019 C2017 1.387 . S
C2019 C2021 1.390 . S
C2019 H2023 0.950 . S
H2020 C2016 0.950 . S
C2021 C2019 1.390 . S
C2021 C2022 1.387 . S
C2021 H2024 0.950 . S
C2022 C2021 1.387 . S
C2022 C2025 1.387 . S
H2023 C2019 0.950 . S
H2024 C2021 0.950 . S
C2025 C2016 1.390 . S
C2025 H2018 0.950 . S
C2025 C2022 1.387 . S
C2026 C2027 1.387 . S
C2026 H2030 0.950 . S
C2026 C2035 1.390 . S
C2027 C2026 1.387 . S
C2027 C2029 1.387 . S
H2028 C2035 0.950 . S
C2029 C2027 1.387 . S
C2029 C2031 1.390 . S
C2029 H2033 0.950 . S
H2030 C2026 0.950 . S
C2031 C2029 1.390 . S
C2031 C2032 1.387 . S
C2031 H2034 0.950 . S
C2032 C2031 1.387 . S
C2032 C2035 1.387 . S
H2033 C2029 0.950 . S
H2034 C2031 0.950 . S
C2035 C2026 1.390 . S
C2035 H2028 0.950 . S
C2035 C2032 1.387 . S
C2036 C2037 1.387 . S
C2036 H2040 0.950 . S
C2036 C2045 1.390 . S
C2037 C2036 1.387 . S
C2037 C2039 1.387 . S
H2038 C2045 0.950 . S
C2039 C2037 1.387 . S
C2039 C2041 1.390 . S
C2039 H2043 0.950 . S
H2040 C2036 0.950 . S
C2041 C2039 1.390 . S
C2041 C2042 1.387 . S
C2041 H2044 0.950 . S
C2042 C2041 1.387 . S
C2042 C2045 1.387 . S
H2043 C2039 0.950 . S
H2044 C2041 0.950 . S
C2045 C2036 1.390 . S
C2045 H2038 0.950 . S
C2045 C2042 1.387 . S
C2046 C2047 1.387 . S
C2046 H2050 0.950 . S
C2046 C2055 1.390 . S
C2047 C2046 1.387 . S
C2047 C2049 1.387 . S
H2048 C2055 0.950 . S
C2049 C2047 1.387 . S
C2049 C2051 1.390 . S
C2049 H2053 0.950 . S
H2050 C2046 0.950 . S
C2051 C2049 1.390 . S
C2051 C2052 1.387 . S
C2051 H2054 0.950 . S
C2052 C2051 1.387 . S
C2052 C2055 1.387 . S
H2053 C2049 0.950 . S
H2054 C2051 0.950 . S
C2055 C2046 1.390 . S
C2055 H2048 0.950 . S
C2055 C2052 1.387 . S
C2056 C2057 1.387 . S
C2056 H2060 0.950 . S
C2056 C2065 1.390 . S
C2057 C2056 1.387 . S
C2057 C2059 1.387 . S
H2058 C2065 0.950 . S
C2059 C2057 1.387 . S
C2059 C2061 1.390 . S
C2059 H2063 0.950 . S
H2060 C2056 0.950 . S
C2061 C2059 1.390 . S
C2061 C2062 1.387 . S
C2061 H2064 0.950 . S
C2062 C2061 1.387 . S
C2062 C2065 1.387 . S
H2063 C2059 0.950 . S
H2064 C2061 0.950 . S
C2065 C2056 1.390 . S
C2065 H2058 0.950 . S
C2065 C2062 1.387 . S
C2066 C2067 1.387 . S
C2066 H2070 0.950 . S
C2066 C2075 1.390 . S
C2067 C2066 1.387 . S
C2067 C2069 1.387 . S
H2068 C2075 0.950 . S
C2069 C2067 1.387 . S
C2069 C2071 1.390 . S
C2069 H2073 0.950 . S
H2070 C2066 0.950 . S
C2071 C2069 1.390 . S
C2071 C2072 1.387 . S
C2071 H2074 0.950 . S
C2072 C2071 1.387 . S
C2072 C2075 1.387 . S
H2073 C2069 0.950 . S
H2074 C2071 0.950 . S
C2075 C2066 1.390 . S
C2075 H2068 0.950 . S
C2075 C2072 1.387 . S
C2076 C2077 1.387 . S
C2076 H2080 0.950 . S
C2076 C2085 1.390 . S
C2077 C2076 1.387 . S
C2077 C2079 1.387 . S
H2078 C2085 0.950 . S
C2079 C2077 1.387 . S
C2079 C2081 1.390 . S
C2079 H2083 0.950 . S
H2080 C2076 0.950 . S
C2081 C2079 1.390 . S
C2081 C2082 1.387 . S
C2081 H2084 0.950 . S
C2082 C2081 1.387 . S
C2082 C2085 1.387 . S
H2083 C2079 0.950 . S
H2084 C2081 0.950 . S
C2085 C2076 1.390 . S
C2085 H2078 0.950 . S
C2085 C2082 1.387 . S
C2086 C2087 1.387 . S
C2086 H2090 0.950 . S
C2086 C2095 1.390 . S
C2087 C2086 1.387 . S
C2087 C2089 1.387 . S
H2088 C2095 0.950 . S
C2089 C2087 1.387 . S
C2089 C2091 1.390 . S
C2089 H2093 0.950 . S
H2090 C2086 0.950 . S
C2091 C2089 1.390 . S
C2091 C2092 1.387 . S
C2091 H2094 0.950 . S
C2092 C2091 1.387 . S
C2092 C2095 1.387 . S
H2093 C2089 0.950 . S
H2094 C2091 0.950 . S
C2095 C2086 1.390 . S
C2095 H2088 0.950 . S
C2095 C2092 1.387 . S
C2096 C2097 1.387 . S
C2096 H2100 0.950 . S
C2096 C2105 1.390 . S
C2097 C2096 1.387 . S
C2097 C2099 1.387 . S
H2098 C2105 0.950 . S
C2099 C2097 1.387 . S
C2099 C2101 1.390 . S
C2099 H2103 0.950 . S
H2100 C2096 0.950 . S
C2101 C2099 1.390 . S
C2101 C2102 1.387 . S
C2101 H2104 0.950 . S
C2102 C2101 1.387 . S
C2102 C2105 1.387 . S
H2103 C2099 0.950 . S
H2104 C2101 0.950 . S
C2105 C2096 1.390 . S
C2105 H2098 0.950 . S
C2105 C2102 1.387 . S
C2106 C2107 1.387 . S
C2106 H2110 0.950 . S
C2106 C2115 1.390 . S
C2107 C2106 1.387 . S
C2107 C2109 1.387 . S
H2108 C2115 0.950 . S
C2109 C2107 1.387 . S
C2109 C2111 1.390 . S
C2109 H2113 0.950 . S
H2110 C2106 0.950 . S
C2111 C2109 1.390 . S
C2111 C2112 1.387 . S
C2111 H2114 0.950 . S
C2112 C2111 1.387 . S
C2112 C2115 1.387 . S
H2113 C2109 0.950 . S
H2114 C2111 0.950 . S
C2115 C2106 1.390 . S
C2115 H2108 0.950 . S
C2115 C2112 1.387 . S
C2116 C2117 1.387 . S
C2116 H2120 0.950 . S
C2116 C2125 1.390 . S
C2117 C2116 1.387 . S
C2117 C2119 1.387 . S
H2118 C2125 0.950 . S
C2119 C2117 1.387 . S
C2119 C2121 1.390 . S
C2119 H2123 0.950 . S
H2120 C2116 0.950 . S
C2121 C2119 1.390 . S
C2121 C2122 1.387 . S
C2121 H2124 0.950 . S
C2122 C2121 1.387 . S
C2122 C2125 1.387 . S
H2123 C2119 0.950 . S
H2124 C2121 0.950 . S
C2125 C2116 1.390 . S
C2125 H2118 0.950 . S
C2125 C2122 1.387 . S
C2126 C2127 1.387 . S
C2126 H2130 0.950 . S
C2126 C2135 1.390 . S
C2127 C2126 1.387 . S
C2127 C2129 1.387 . S
H2128 C2135 0.950 . S
C2129 C2127 1.387 . S
C2129 C2131 1.390 . S
C2129 H2133 0.950 . S
H2130 C2126 0.950 . S
C2131 C2129 1.390 . S
C2131 C2132 1.387 . S
C2131 H2134 0.950 . S
C2132 C2131 1.387 . S
C2132 C2135 1.387 . S
H2133 C2129 0.950 . S
H2134 C2131 0.950 . S
C2135 C2126 1.390 . S
C2135 H2128 0.950 . S
C2135 C2132 1.387 . S
C2136 C2137 1.387 . S
C2136 H2140 0.950 . S
C2136 C2145 1.390 . S
C2137 C2136 1.387 . S
C2137 C2139 1.387 . S
H2138 C2145 0.950 . S
C2139 C2137 1.387 . S
C2139 C2141 1.390 . S
C2139 H2143 0.950 . S
H2140 C2136 0.950 . S
C2141 C2139 1.390 . S
C2141 C2142 1.387 . S
C2141 H2144 0.950 . S
C2142 C2141 1.387 . S
C2142 C2145 1.387 . S
H2143 C2139 0.950 . S
H2144 C2141 0.950 . S
C2145 C2136 1.390 . S
C2145 H2138 0.950 . S
C2145 C2142 1.387 . S
C2146 C2147 1.387 . S
C2146 H2150 0.950 . S
C2146 C2155 1.390 . S
C2147 C2146 1.387 . S
C2147 C2149 1.387 . S
H2148 C2155 0.950 . S
C2149 C2147 1.387 . S
C2149 C2151 1.390 . S
C2149 H2153 0.950 . S
H2150 C2146 0.950 . S
C2151 C2149 1.390 . S
C2151 C2152 1.387 . S
C2151 H2154 0.950 . S
C2152 C2151 1.387 . S
C2152 C2155 1.387 . S
H2153 C2149 0.950 . S
H2154 C2151 0.950 . S
C2155 C2146 1.390 . S
C2155 H2148 0.950 . S
C2155 C2152 1.387 . S
C2156 C2157 1.387 . S
C2156 H2160 0.950 . S
C2156 C2165 1.390 . S
C2157 C2156 1.387 . S
C2157 C2159 1.387 . S
H2158 C2165 0.950 . S
C2159 C2157 1.387 . S
C2159 C2161 1.390 . S
C2159 H2163 0.950 . S
H2160 C2156 0.950 . S
C2161 C2159 1.390 . S
C2161 C2162 1.387 . S
C2161 H2164 0.950 . S
C2162 C2161 1.387 . S
C2162 C2165 1.387 . S
H2163 C2159 0.950 . S
H2164 C2161 0.950 . S
C2165 C2156 1.390 . S
C2165 H2158 0.950 . S
C2165 C2162 1.387 . S
C2166 C2167 1.387 . S
C2166 H2170 0.950 . S
C2166 C2175 1.390 . S
C2167 C2166 1.387 . S
C2167 C2169 1.387 . S
H2168 C2175 0.950 . S
C2169 C2167 1.387 . S
C2169 C2171 1.390 . S
C2169 H2173 0.950 . S
H2170 C2166 0.950 . S
C2171 C2169 1.390 . S
C2171 C2172 1.387 . S
C2171 H2174 0.950 . S
C2172 C2171 1.387 . S
C2172 C2175 1.387 . S
H2173 C2169 0.950 . S
H2174 C2171 0.950 . S
C2175 C2166 1.390 . S
C2175 H2168 0.950 . S
C2175 C2172 1.387 . S
C2176 C2177 1.387 . S
C2176 H2180 0.950 . S
C2176 C2185 1.390 . S
C2177 C2176 1.387 . S
C2177 C2179 1.387 . S
H2178 C2185 0.950 . S
C2179 C2177 1.387 . S
C2179 C2181 1.390 . S
C2179 H2183 0.950 . S
H2180 C2176 0.950 . S
C2181 C2179 1.390 . S
C2181 C2182 1.387 . S
C2181 H2184 0.950 . S
C2182 C2181 1.387 . S
C2182 C2185 1.387 . S
H2183 C2179 0.950 . S
H2184 C2181 0.950 . S
C2185 C2176 1.390 . S
C2185 H2178 0.950 . S
C2185 C2182 1.387 . S
C2186 C2187 1.387 . S
C2186 H2190 0.950 . S
C2186 C2195 1.390 . S
C2187 C2186 1.387 . S
C2187 C2189 1.387 . S
H2188 C2195 0.950 . S
C2189 C2187 1.387 . S
C2189 C2191 1.390 . S
C2189 H2193 0.950 . S
H2190 C2186 0.950 . S
C2191 C2189 1.390 . S
C2191 C2192 1.387 . S
C2191 H2194 0.950 . S
C2192 C2191 1.387 . S
C2192 C2195 1.387 . S
H2193 C2189 0.950 . S
H2194 C2191 0.950 . S
C2195 C2186 1.390 . S
C2195 H2188 0.950 . S
C2195 C2192 1.387 . S
C2196 C2197 1.387 . S
C2196 H2200 0.950 . S
C2196 C2205 1.390 . S
C2197 C2196 1.387 . S
C2197 C2199 1.387 . S
H2198 C2205 0.950 . S
C2199 C2197 1.387 . S
C2199 C2201 1.390 . S
C2199 H2203 0.950 . S
H2200 C2196 0.950 . S
C2201 C2199 1.390 . S
C2201 C2202 1.387 . S
C2201 H2204 0.950 . S
C2202 C2201 1.387 . S
C2202 C2205 1.387 . S
H2203 C2199 0.950 . S
H2204 C2201 0.950 . S
C2205 C2196 1.390 . S
C2205 H2198 0.950 . S
C2205 C2202 1.387 . S
C2206 C2207 1.387 . S
C2206 H2210 0.950 . S
C2206 C2215 1.390 . S
C2207 C2206 1.387 . S
C2207 C2209 1.387 . S
H2208 C2215 0.950 . S
C2209 C2207 1.387 . S
C2209 C2211 1.390 . S
C2209 H2213 0.950 . S
H2210 C2206 0.950 . S
C2211 C2209 1.390 . S
C2211 C2212 1.387 . S
C2211 H2214 0.950 . S
C2212 C2211 1.387 . S
C2212 C2215 1.387 . S
H2213 C2209 0.950 . S
H2214 C2211 0.950 . S
C2215 C2206 1.390 . S
C2215 H2208 0.950 . S
C2215 C2212 1.387 . S
C2216 C2217 1.387 . S
C2216 H2220 0.950 . S
C2216 C2225 1.390 . S
C2217 C2216 1.387 . S
C2217 C2219 1.387 . S
H2218 C2225 0.950 . S
C2219 C2217 1.387 . S
C2219 C2221 1.390 . S
C2219 H2223 0.950 . S
H2220 C2216 0.950 . S
C2221 C2219 1.390 . S
C2221 C2222 1.387 . S
C2221 H2224 0.950 . S
C2222 C2221 1.387 . S
C2222 C2225 1.387 . S
H2223 C2219 0.950 . S
H2224 C2221 0.950 . S
C2225 C2216 1.390 . S
C2225 H2218 0.950 . S
C2225 C2222 1.387 . S
C2226 C2227 1.387 . S
C2226 H2230 0.950 . S
C2226 C2235 1.390 . S
C2227 C2226 1.387 . S
C2227 C2229 1.387 . S
H2228 C2235 0.950 . S
C2229 C2227 1.387 . S
C2229 C2231 1.390 . S
C2229 H2233 0.950 . S
H2230 C2226 0.950 . S
C2231 C2229 1.390 . S
C2231 C2232 1.387 . S
C2231 H2234 0.950 . S
C2232 C2231 1.387 . S
C2232 C2235 1.387 . S
H2233 C2229 0.950 . S
H2234 C2231 0.950 . S
C2235 C2226 1.390 . S
C2235 H2228 0.950 . S
C2235 C2232 1.387 . S
C2236 C2237 1.387 . S
C2236 H2240 0.950 . S
C2236 C2245 1.390 . S
C2237 C2236 1.387 . S
C2237 C2239 1.387 . S
H2238 C2245 0.950 . S
C2239 C2237 1.387 . S
C2239 C2241 1.390 . S
C2239 H2243 0.950 . S
H2240 C2236 0.950 . S
C2241 C2239 1.390 . S
C2241 C2242 1.387 . S
C2241 H2244 0.950 . S
C2242 C2241 1.387 . S
C2242 C2245 1.387 . S
H2243 C2239 0.950 . S
H2244 C2241 0.950 . S
C2245 C2236 1.390 . S
C2245 H2238 0.950 . S
C2245 C2242 1.387 . S
C2246 C2247 1.387 . S
C2246 H2250 0.950 . S
C2246 C2255 1.390 . S
C2247 C2246 1.387 . S
C2247 C2249 1.387 . S
H2248 C2255 0.950 . S
C2249 C2247 1.387 . S
C2249 C2251 1.390 . S
C2249 H2253 0.950 . S
H2250 C2246 0.950 . S
C2251 C2249 1.390 . S
C2251 C2252 1.387 . S
C2251 H2254 0.950 . S
C2252 C2251 1.387 . S
C2252 C2255 1.387 . S
H2253 C2249 0.950 . S
H2254 C2251 0.950 . S
C2255 C2246 1.390 . S
C2255 H2248 0.950 . S
C2255 C2252 1.387 . S
C2256 C2257 1.387 . S
C2256 H2260 0.950 . S
C2256 C2265 1.390 . S
C2257 C2256 1.387 . S
C2257 C2259 1.387 . S
H2258 C2265 0.950 . S
C2259 C2257 1.387 . S
C2259 C2261 1.390 . S
C2259 H2263 0.950 . S
H2260 C2256 0.950 . S
C2261 C2259 1.390 . S
C2261 C2262 1.387 . S
C2261 H2264 0.950 . S
C2262 C2261 1.387 . S
C2262 C2265 1.387 . S
H2263 C2259 0.950 . S
H2264 C2261 0.950 . S
C2265 C2256 1.390 . S
C2265 H2258 0.950 . S
C2265 C2262 1.387 . S
C2266 C2267 1.387 . S
C2266 H2270 0.950 . S
C2266 C2275 1.390 . S
C2267 C2266 1.387 . S
C2267 C2269 1.387 . S
H2268 C2275 0.950 . S
C2269 C2267 1.387 . S
C2269 C2271 1.390 . S
C2269 H2273 0.950 . S
H2270 C2266 0.950 . S
C2271 C2269 1.390 . S
C2271 C2272 1.387 . S
C2271 H2274 0.950 . S
C2272 C2271 1.387 . S
C2272 C2275 1.387 . S
H2273 C2269 0.950 . S
H2274 C2271 0.950 . S
C2275 C2266 1.390 . S
C2275 H2268 0.950 . S
C2275 C2272 1.387 . S
C2276 C2277 1.387 . S
C2276 H2280 0.950 . S
C2276 C2285 1.390 . S
C2277 C2276 1.387 . S
C2277 C2279 1.387 . S
H2278 C2285 0.950 . S
C2279 C2277 1.387 . S
C2279 C2281 1.390 . S
C2279 H2283 0.950 . S
H2280 C2276 0.950 . S
C2281 C2279 1.390 . S
C2281 C2282 1.387 . S
C2281 H2284 0.950 . S
C2282 C2281 1.387 . S
C2282 C2285 1.387 . S
H2283 C2279 0.950 . S
H2284 C2281 0.950 . S
C2285 C2276 1.390 . S
C2285 H2278 0.950 . S
C2285 C2282 1.387 . S
C2286 C2287 1.387 . S
C2286 H2290 0.950 . S
C2286 C2295 1.390 . S
C2287 C2286 1.387 . S
C2287 C2289 1.387 . S
H2288 C2295 0.950 . S
C2289 C2287 1.387 . S
C2289 C2291 1.390 . S
C2289 H2293 0.950 . S
H2290 C2286 0.950 . S
C2291 C2289 1.390 . S
C2291 C2292 1.387 . S
C2291 H2294 0.950 . S
C2292 C2291 1.387 . S
C2292 C2295 1.387 . S
H2293 C2289 0.950 . S
H2294 C2291 0.950 . S
C2295 C2286 1.390 . S
C2295 H2288 0.950 . S
C2295 C2292 1.387 . S
C2296 C2297 1.387 . S
C2296 H2300 0.950 . S
C2296 C2305 1.390 . S
C2297 C2296 1.387 . S
C2297 C2299 1.387 . S
H2298 C2305 0.950 . S
C2299 C2297 1.387 . S
C2299 C2301 1.390 . S
C2299 H2303 0.950 . S
H2300 C2296 0.950 . S
C2301 C2299 1.390 . S
C2301 C2302 1.387 . S
C2301 H2304 0.950 . S
C2302 C2301 1.387 . S
C2302 C2305 1.387 . S
H2303 C2299 0.950 . S
H2304 C2301 0.950 . S
C2305 C2296 1.390 . S
C2305 H2298 0.950 . S
C2305 C2302 1.387 . S
C2306 C2307 1.387 . S
C2306 H2310 0.950 . S
C2306 C2315 1.390 . S
C2307 C2306 1.387 . S
C2307 C2309 1.387 . S
H2308 C2315 0.950 . S
C2309 C2307 1.387 . S
C2309 C2311 1.390 . S
C2309 H2313 0.950 . S
H2310 C2306 0.950 . S
C2311 C2309 1.390 . S
C2311 C2312 1.387 . S
C2311 H2314 0.950 . S
C2312 C2311 1.387 . S
C2312 C2315 1.387 . S
H2313 C2309 0.950 . S
H2314 C2311 0.950 . S
C2315 C2306 1.390 . S
C2315 H2308 0.950 . S
C2315 C2312 1.387 . S
C2316 C2317 1.387 . S
C2316 H2320 0.950 . S
C2316 C2325 1.390 . S
C2317 C2316 1.387 . S
C2317 C2319 1.387 . S
H2318 C2325 0.950 . S
C2319 C2317 1.387 . S
C2319 C2321 1.390 . S
C2319 H2323 0.950 . S
H2320 C2316 0.950 . S
C2321 C2319 1.390 . S
C2321 C2322 1.387 . S
C2321 H2324 0.950 . S
C2322 C2321 1.387 . S
C2322 C2325 1.387 . S
H2323 C2319 0.950 . S
H2324 C2321 0.950 . S
C2325 C2316 1.390 . S
C2325 H2318 0.950 . S
C2325 C2322 1.387 . S
C2326 C2327 1.387 . S
C2326 H2330 0.950 . S
C2326 C2335 1.390 . S
C2327 C2326 1.387 . S
C2327 C2329 1.387 . S
H2328 C2335 0.950 . S
C2329 C2327 1.387 . S
C2329 C2331 1.390 . S
C2329 H2333 0.950 . S
H2330 C2326 0.950 . S
C2331 C2329 1.390 . S
C2331 C2332 1.387 . S
C2331 H2334 0.950 . S
C2332 C2331 1.387 . S
C2332 C2335 1.387 . S
H2333 C2329 0.950 . S
H2334 C2331 0.950 . S
C2335 C2326 1.390 . S
C2335 H2328 0.950 . S
C2335 C2332 1.387 . S
C2336 C2337 1.387 . S
C2336 H2340 0.950 . S
C2336 C2345 1.390 . S
C2337 C2336 1.387 . S
C2337 C2339 1.387 . S
H2338 C2345 0.950 . S
C2339 C2337 1.387 . S
C2339 C2341 1.390 . S
C2339 H2343 0.950 . S
H2340 C2336 0.950 . S
C2341 C2339 1.390 . S
C2341 C2342 1.387 . S
C2341 H2344 0.950 . S
C2342 C2341 1.387 . S
C2342 C2345 1.387 . S
H2343 C2339 0.950 . S
H2344 C2341 0.950 . S
C2345 C2336 1.390 . S
C2345 H2338 0.950 . S
C2345 C2342 1.387 . S
C2346 C2347 1.387 . S
C2346 H2350 0.950 . S
C2346 C2355 1.390 . S
C2347 C2346 1.387 . S
C2347 C2349 1.387 . S
H2348 C2355 0.950 . S
C2349 C2347 1.387 . S
C2349 C2351 1.390 . S
C2349 H2353 0.950 . S
H2350 C2346 0.950 . S
C2351 C2349 1.390 . S
C2351 C2352 1.387 . S
C2351 H2354 0.950 . S
C2352 C2351 1.387 . S
C2352 C2355 1.387 . S
H2353 C2349 0.950 . S
H2354 C2351 0.950 . S
C2355 C2346 1.390 . S
C2355 H2348 0.950 . S
C2355 C2352 1.387 . S
C2356 C2357 1.387 . S
C2356 H2360 0.950 . S
C2356 C2365 1.390 . S
C2357 C2356 1.387 . S
C2357 C2359 1.387 . S
H2358 C2365 0.950 . S
C2359 C2357 1.387 . S
C2359 C2361 1.390 . S
C2359 H2363 0.950 . S
H2360 C2356 0.950 . S
C2361 C2359 1.390 . S
C2361 C2362 1.387 . S
C2361 H2364 0.950 . S
C2362 C2361 1.387 . S
C2362 C2365 1.387 . S
H2363 C2359 0.950 . S
H2364 C2361 0.950 . S
C2365 C2356 1.390 . S
C2365 H2358 0.950 . S
C2365 C2362 1.387 . S
C2366 C2367 1.387 . S
C2366 H2370 0.950 . S
C2366 C2375 1.390 . S
C2367 C2366 1.387 . S
C2367 C2369 1.387 . S
H2368 C2375 0.950 . S
C2369 C2367 1.387 . S
C2369 C2371 1.390 . S
C2369 H2373 0.950 . S
H2370 C2366 0.950 . S
C2371 C2369 1.390 . S
C2371 C2372 1.387 . S
C2371 H2374 0.950 . S
C2372 C2371 1.387 . S
C2372 C2375 1.387 . S
H2373 C2369 0.950 . S
H2374 C2371 0.950 . S
C2375 C2366 1.390 . S
C2375 H2368 0.950 . S
C2375 C2372 1.387 . S
C2376 C2377 1.387 . S
C2376 H2380 0.950 . S
C2376 C2385 1.390 . S
C2377 C2376 1.387 . S
C2377 C2379 1.387 . S
H2378 C2385 0.950 . S
C2379 C2377 1.387 . S
C2379 C2381 1.390 . S
C2379 H2383 0.950 . S
H2380 C2376 0.950 . S
C2381 C2379 1.390 . S
C2381 C2382 1.387 . S
C2381 H2384 0.950 . S
C2382 C2381 1.387 . S
C2382 C2385 1.387 . S
H2383 C2379 0.950 . S
H2384 C2381 0.950 . S
C2385 C2376 1.390 . S
C2385 H2378 0.950 . S
C2385 C2382 1.387 . S
C2386 C2387 1.387 . S
C2386 H2390 0.950 . S
C2386 C2395 1.390 . S
C2387 C2386 1.387 . S
C2387 C2389 1.387 . S
H2388 C2395 0.950 . S
C2389 C2387 1.387 . S
C2389 C2391 1.390 . S
C2389 H2393 0.950 . S
H2390 C2386 0.950 . S
C2391 C2389 1.390 . S
C2391 C2392 1.387 . S
C2391 H2394 0.950 . S
C2392 C2391 1.387 . S
C2392 C2395 1.387 . S
H2393 C2389 0.950 . S
H2394 C2391 0.950 . S
C2395 C2386 1.390 . S
C2395 H2388 0.950 . S
C2395 C2392 1.387 . S
C2396 C2397 1.387 . S
C2396 H2400 0.950 . S
C2396 C2405 1.390 . S
C2397 C2396 1.387 . S
C2397 C2399 1.387 . S
H2398 C2405 0.950 . S
C2399 C2397 1.387 . S
C2399 C2401 1.390 . S
C2399 H2403 0.950 . S
H2400 C2396 0.950 . S
C2401 C2399 1.390 . S
C2401 C2402 1.387 . S
C2401 H2404 0.950 . S
C2402 C2401 1.387 . S
C2402 C2405 1.387 . S
H2403 C2399 0.950 . S
H2404 C2401 0.950 . S
C2405 C2396 1.390 . S
C2405 H2398 0.950 . S
C2405 C2402 1.387 . S
C2406 C2407 1.387 . S
C2406 H2410 0.950 . S
C2406 C2415 1.390 . S
C2407 C2406 1.387 . S
C2407 C2409 1.387 . S
H2408 C2415 0.950 . S
C2409 C2407 1.387 . S
C2409 C2411 1.390 . S
C2409 H2413 0.950 . S
H2410 C2406 0.950 . S
C2411 C2409 1.390 . S
C2411 C2412 1.387 . S
C2411 H2414 0.950 . S
C2412 C2411 1.387 . S
C2412 C2415 1.387 . S
H2413 C2409 0.950 . S
H2414 C2411 0.950 . S
C2415 C2406 1.390 . S
C2415 H2408 0.950 . S
C2415 C2412 1.387 . S
C2416 C2417 1.387 . S
C2416 H2420 0.950 . S
C2416 C2425 1.390 . S
C2417 C2416 1.387 . S
C2417 C2419 1.387 . S
H2418 C2425 0.950 . S
C2419 C2417 1.387 . S
C2419 C2421 1.390 . S
C2419 H2423 0.950 . S
H2420 C2416 0.950 . S
C2421 C2419 1.390 . S
C2421 C2422 1.387 . S
C2421 H2424 0.950 . S
C2422 C2421 1.387 . S
C2422 C2425 1.387 . S
H2423 C2419 0.950 . S
H2424 C2421 0.950 . S
C2425 C2416 1.390 . S
C2425 H2418 0.950 . S
C2425 C2422 1.387 . S
C2426 C2427 1.387 . S
C2426 H2430 0.950 . S
C2426 C2435 1.390 . S
C2427 C2426 1.387 . S
C2427 C2429 1.387 . S
H2428 C2435 0.950 . S
C2429 C2427 1.387 . S
C2429 C2431 1.390 . S
C2429 H2433 0.950 . S
H2430 C2426 0.950 . S
C2431 C2429 1.390 . S
C2431 C2432 1.387 . S
C2431 H2434 0.950 . S
C2432 C2431 1.387 . S
C2432 C2435 1.387 . S
H2433 C2429 0.950 . S
H2434 C2431 0.950 . S
C2435 C2426 1.390 . S
C2435 H2428 0.950 . S
C2435 C2432 1.387 . S
C2436 C2437 1.387 . S
C2436 H2440 0.950 . S
C2436 C2445 1.390 . S
C2437 C2436 1.387 . S
C2437 C2439 1.387 . S
H2438 C2445 0.950 . S
C2439 C2437 1.387 . S
C2439 C2441 1.390 . S
C2439 H2443 0.950 . S
H2440 C2436 0.950 . S
C2441 C2439 1.390 . S
C2441 C2442 1.387 . S
C2441 H2444 0.950 . S
C2442 C2441 1.387 . S
C2442 C2445 1.387 . S
H2443 C2439 0.950 . S
H2444 C2441 0.950 . S
C2445 C2436 1.390 . S
C2445 H2438 0.950 . S
C2445 C2442 1.387 . S
C2446 C2447 1.387 . S
C2446 H2450 0.950 . S
C2446 C2455 1.390 . S
C2447 C2446 1.387 . S
C2447 C2449 1.387 . S
H2448 C2455 0.950 . S
C2449 C2447 1.387 . S
C2449 C2451 1.390 . S
C2449 H2453 0.950 . S
H2450 C2446 0.950 . S
C2451 C2449 1.390 . S
C2451 C2452 1.387 . S
C2451 H2454 0.950 . S
C2452 C2451 1.387 . S
C2452 C2455 1.387 . S
H2453 C2449 0.950 . S
H2454 C2451 0.950 . S
C2455 C2446 1.390 . S
C2455 H2448 0.950 . S
C2455 C2452 1.387 . S
C2456 C2457 1.387 . S
C2456 H2460 0.950 . S
C2456 C2465 1.390 . S
C2457 C2456 1.387 . S
C2457 C2459 1.387 . S
H2458 C2465 0.950 . S
C2459 C2457 1.387 . S
C2459 C2461 1.390 . S
C2459 H2463 0.950 . S
H2460 C2456 0.950 . S
C2461 C2459 1.390 . S
C2461 C2462 1.387 . S
C2461 H2464 0.950 . S
C2462 C2461 1.387 . S
C2462 C2465 1.387 . S
H2463 C2459 0.950 . S
H2464 C2461 0.950 . S
C2465 C2456 1.390 . S
C2465 H2458 0.950 . S
C2465 C2462 1.387 . S
C2466 C2467 1.387 . S
C2466 H2470 0.950 . S
C2466 C2475 1.390 . S
C2467 C2466 1.387 . S
C2467 C2469 1.387 . S
H2468 C2475 0.950 . S
C2469 C2467 1.387 . S
C2469 C2471 1.390 . S
C2469 H2473 0.950 . S
H2470 C2466 0.950 . S
C2471 C2469 1.390 . S
C2471 C2472 1.387 . S
C2471 H2474 0.950 . S
C2472 C2471 1.387 . S
C2472 C2475 1.387 . S
H2473 C2469 0.950 . S
H2474 C2471 0.950 . S
C2475 C2466 1.390 . S
C2475 H2468 0.950 . S
C2475 C2472 1.387 . S
C2476 C2477 1.387 . S
C2476 H2480 0.950 . S
C2476 C2485 1.390 . S
C2477 C2476 1.387 . S
C2477 C2479 1.387 . S
H2478 C2485 0.950 . S
C2479 C2477 1.387 . S
C2479 C2481 1.390 . S
C2479 H2483 0.950 . S
H2480 C2476 0.950 . S
C2481 C2479 1.390 . S
C2481 C2482 1.387 . S
C2481 H2484 0.950 . S
C2482 C2481 1.387 . S
C2482 C2485 1.387 . S
H2483 C2479 0.950 . S
H2484 C2481 0.950 . S
C2485 C2476 1.390 . S
C2485 H2478 0.950 . S
C2485 C2482 1.387 . S
C2486 C2487 1.387 . S
C2486 H2490 0.950 . S
C2486 C2495 1.390 . S
C2487 C2486 1.387 . S
C2487 C2489 1.387 . S
H2488 C2495 0.950 . S
C2489 C2487 1.387 . S
C2489 C2491 1.390 . S
C2489 H2493 0.950 . S
H2490 C2486 0.950 . S
C2491 C2489 1.390 . S
C2491 C2492 1.387 . S
C2491 H2494 0.950 . S
C2492 C2491 1.387 . S
C2492 C2495 1.387 . S
H2493 C2489 0.950 . S
H2494 C2491 0.950 . S
C2495 C2486 1.390 . S
C2495 H2488 0.950 . S
C2495 C2492 1.387 . S
C1057 C18 0.550 . S
C1062 C32 0.551 . S
C1067 C74 0.550 . S
C1072 C62 0.550 . S
C1077 C96 0.544 . S
C1082 C150 0.544 . S
C1087 C164 0.547 . S
C1092 C120 0.548 . S
C1097 C766 0.538 . S
C1102 C184 0.537 . S
C1107 C263 0.598 . S
C1112 C208 0.589 . S
C1117 C238 0.536 . S
C1122 C712 0.536 . S
C1127 C282 0.550 . S
C1132 C304 0.550 . S
C1137 C318 0.558 . S
C1142 C348 0.557 . S
C1147 C362 0.545 . S
C1152 C406 0.545 . S
C1157 C436 0.555 . S
C1162 C382 0.555 . S
C1167 C1020 0.547 . S
C1172 C450 0.548 . S
C1177 C472 0.547 . S
C1182 C514 0.547 . S
C1187 C492 0.547 . S
C1192 C986 0.548 . S
C1197 C558 0.551 . S
C1202 C536 0.550 . S
C1207 C602 0.551 . S
C1212 C582 0.551 . S
C1217 C624 0.546 . S
C1222 C678 0.546 . S
C1227 C646 0.550 . S
C1232 C692 0.549 . S
C1237 C777 0.595 . S
C1242 C736 0.587 . S
C1247 C802 0.551 . S
C1252 C822 0.551 . S
C1257 C876 0.557 . S
C1262 C854 0.558 . S
C1267 C934 0.545 . S
C1272 C898 0.545 . S
C1277 C964 0.555 . S
C1282 C912 0.555 . S
C1287 C1000 0.548 . S
C1292 C1042 0.548 . S
C1297 C65 1.639 . S
C1302 C21 1.639 . S
C1307 C81 1.639 . S
C1312 C29 1.639 . S
C1317 C103 1.637 . S
C1322 C689 1.636 . S
C1327 C681 1.636 . S
C1332 C117 1.636 . S
C1337 C153 1.640 . S
C1342 C653 1.641 . S
C1347 C161 1.636 . S
C1352 C631 1.637 . S
C1357 C191 1.607 . S
C1362 C780 1.635 . S
C1367 C205 1.647 . S
C1372 C241 1.647 . S
C1377 C719 1.607 . S
C1382 C260 1.635 . S
C1387 C279 1.676 . S
C1392 C329 1.676 . S
C1397 C301 1.675 . S
C1402 C345 1.675 . S
C1407 C961 1.667 . S
C1412 C373 1.667 . S
C1417 C945 1.674 . S
C1422 C381 1.675 . S
C1427 C923 1.675 . S
C1432 C417 1.674 . S
C1437 C433 1.663 . S
C1442 C895 1.663 . S
C1447 C1041 1.681 . S
C1452 C461 1.681 . S
C1457 C491 1.679 . S
C1462 C483 1.679 . S
C1467 C513 1.677 . S
C1472 C983 1.677 . S
C1477 C543 1.639 . S
C1482 C579 1.639 . S
C1487 C565 1.639 . S
C1492 C609 1.639 . S
C1497 C769 1.643 . S
C1502 C733 1.643 . S
C1507 C813 1.676 . S
C1512 C851 1.676 . S
C1517 C821 1.675 . S
C1522 C873 1.675 . S
C1527 C1011 1.679 . S
C1532 C1019 1.679 . S
C1537 C7 1.797 . S
C1542 C183 1.825 . S
C1547 C778 1.771 . S
C1552 C37 1.803 . S
C1557 C219 1.830 . S
C1562 C51 1.802 . S
C1567 C87 1.794 . S
C1572 C235 1.821 . S
C1577 C15 1.823 . S
C1582 C109 1.796 . S
C1587 C125 1.808 . S
C1592 C43 1.836 . S
C1597 C139 1.798 . S
C1602 C59 1.825 . S
C1607 C169 1.793 . S
C1612 C73 1.820 . S
C1617 C197 1.788 . S
C1622 C95 1.815 . S
C1627 C213 1.790 . S
C1632 C147 1.817 . S
C1637 C227 1.798 . S
C1642 C175 1.826 . S
C1647 C645 1.784 . S
C1652 C250 1.796 . S
C1657 C271 1.774 . S
C1662 C447 1.817 . S
C1667 C293 1.776 . S
C1672 C1049 1.819 . S
C1677 C323 1.778 . S
C1682 C469 1.821 . S
C1687 C499 1.818 . S
C1692 C337 1.774 . S
C1697 C285 1.816 . S
C1702 C367 1.773 . S
C1707 C395 1.776 . S
C1712 C307 1.819 . S
C1717 C411 1.780 . S
C1722 C315 1.823 . S
C1727 C351 1.827 . S
C1732 C425 1.783 . S
C1737 C359 1.820 . S
C1742 C455 1.776 . S
C1747 C477 1.774 . S
C1752 C403 1.817 . S
C1757 C505 1.777 . S
C1762 C439 1.820 . S
C1767 C527 1.782 . S
C1772 C909 1.825 . S
C1777 C711 1.823 . S
C1782 C549 1.796 . S
C1787 C571 1.802 . S
C1792 C252 1.770 . S
C1797 C747 1.830 . S
C1802 C587 1.802 . S
C1807 C615 1.791 . S
C1812 C763 1.819 . S
C1817 C535 1.823 . S
C1822 C637 1.796 . S
C1827 C659 1.812 . S
C1832 C557 1.839 . S
C1837 C667 1.797 . S
C1842 C593 1.825 . S
C1847 C697 1.793 . S
C1852 C601 1.821 . S
C1857 C725 1.788 . S
C1862 C623 1.816 . S
C1867 C675 1.814 . S
C1872 C741 1.787 . S
C1877 C703 1.829 . S
C1882 C755 1.801 . S
C1887 C788 1.794 . S
C1892 C131 1.781 . S
C1897 C807 1.774 . S
C1902 C989 1.817 . S
C1907 C835 1.779 . S
C1912 C521 1.822 . S
C1917 C997 1.823 . S
C1922 C843 1.780 . S
C1927 C865 1.773 . S
C1932 C1027 1.817 . S
C1937 C887 1.774 . S
C1942 C799 1.816 . S
C1947 C917 1.773 . S
C1952 C829 1.817 . S
C1957 C939 1.780 . S
C1962 C857 1.823 . S
C1967 C953 1.786 . S
C1972 C879 1.830 . S
C1977 C975 1.778 . S
C1982 C901 1.822 . S
C1987 C1005 1.772 . S
C1992 C931 1.815 . S
C1997 C1033 1.780 . S
C2002 C967 1.823 . S
C2007 C1055 1.781 . S
C2012 C389 1.825 . S
C2017 C10 1.600 . S
C2022 C502 1.572 . S
C2027 C470 1.567 . S
C2032 C30 1.596 . S
C2037 C54 1.597 . S
C2042 C1052 1.569 . S
C2047 C84 1.597 . S
C2052 C448 1.569 . S
C2057 C832 1.574 . S
C2062 C106 1.602 . S
C2067 C800 1.562 . S
C2072 C118 1.590 . S
C2077 C142 1.605 . S
C2082 C868 1.577 . S
C2087 C162 1.609 . S
C2092 C846 1.580 . S
C2097 C932 1.575 . S
C2102 C194 1.603 . S
C2107 C890 1.563 . S
C2112 C206 1.592 . S
C2117 C230 1.604 . S
C2122 C910 1.577 . S
C2127 C257 1.631 . S
C2132 C428 1.600 . S
C2137 C228 1.549 . S
C2142 C272 1.594 . S
C2147 C294 1.594 . S
C2152 C216 1.548 . S
C2157 C326 1.624 . S
C2162 C785 1.567 . S
C2167 C186 1.543 . S
C2172 C338 1.587 . S
C2177 C370 1.596 . S
C2182 C560 1.551 . S
C2187 C384 1.591 . S
C2192 C538 1.547 . S
C2197 C414 1.596 . S
C2202 C604 1.550 . S
C2207 C426 1.599 . S
C2212 C590 1.557 . S
C2217 C458 1.590 . S
C2222 C668 1.544 . S
C2227 C626 1.544 . S
C2232 C480 1.590 . S
C2237 C494 1.590 . S
C2242 C648 1.544 . S
C2247 C516 1.593 . S
C2252 C172 1.549 . S
C2257 C1030 1.572 . S
C2262 C546 1.600 . S
C2267 C998 1.567 . S
C2272 C568 1.595 . S
C2277 C580 1.598 . S
C2282 C524 1.571 . S
C2287 C978 1.570 . S
C2292 C612 1.598 . S
C2297 C296 1.574 . S
C2302 C634 1.602 . S
C2307 C274 1.561 . S
C2312 C656 1.589 . S
C2317 C670 1.605 . S
C2322 C340 1.577 . S
C2327 C690 1.611 . S
C2332 C316 1.582 . S
C2337 C404 1.573 . S
C2342 C722 1.602 . S
C2347 C360 1.564 . S
C2352 C734 1.592 . S
C2357 C392 1.574 . S
C2362 C758 1.603 . S
C2367 C791 1.631 . S
C2372 C956 1.601 . S
C2377 C810 1.594 . S
C2382 C756 1.548 . S
C2387 C744 1.548 . S
C2392 C824 1.594 . S
C2397 C844 1.624 . S
C2402 C249 1.569 . S
C2407 C866 1.586 . S
C2412 C714 1.541 . S
C2417 C40 1.551 . S
C2422 C888 1.596 . S
C2427 C8 1.545 . S
C2432 C920 1.590 . S
C2437 C942 1.596 . S
C2442 C76 1.550 . S
C2447 C52 1.554 . S
C2452 C954 1.599 . S
C2457 C140 1.546 . S
C2462 C976 1.590 . S
C2467 C1008 1.589 . S
C2472 C98 1.544 . S
C2477 C1022 1.590 . S
C2482 C128 1.544 . S
C2487 C700 1.547 . S
C2492 C1044 1.593 . S
