# Generated by pormake.
# Topology vmg, (6)-cn, num edge types: 1
# Building blocks:
#     Node 0, Type 0, BuildingBlock: OJICUG_clean_sbu_0, # of connection points: 6
#     Node 1, Type 0, BuildingBlock: OJICUG_clean_sbu_0, # of connection points: 6
#     Node 2, Type 0, BuildingBlock: OJICUG_clean_sbu_0, # of connection points: 6
#     Node 3, Type 0, BuildingBlock: OJICUG_clean_sbu_0, # of connection points: 6
#     Node 4, Type 0, BuildingBlock: OJICUG_clean_sbu_0, # of connection points: 6
#     Node 5, Type 0, BuildingBlock: OJICUG_clean_sbu_0, # of connection points: 6
#     Node 6, Type 0, BuildingBlock: OJICUG_clean_sbu_0, # of connection points: 6
#     Node 7, Type 0, BuildingBlock: OJICUG_clean_sbu_0, # of connection points: 6
#     Edge 8, Type (0, 0), BuildingBlock: AJUNOK_clean_linker_0, # of connection points: 2
#     Edge 9, Type (0, 0), BuildingBlock: AJUNOK_clean_linker_0, # of connection points: 2
#     Edge 10, Type (0, 0), BuildingBlock: AJUNOK_clean_linker_0, # of connection points: 2
#     Edge 11, Type (0, 0), BuildingBlock: AJUNOK_clean_linker_0, # of connection points: 2
#     Edge 12, Type (0, 0), BuildingBlock: AJUNOK_clean_linker_0, # of connection points: 2
#     Edge 13, Type (0, 0), BuildingBlock: AJUNOK_clean_linker_0, # of connection points: 2
#     Edge 14, Type (0, 0), BuildingBlock: AJUNOK_clean_linker_0, # of connection points: 2
#     Edge 15, Type (0, 0), BuildingBlock: AJUNOK_clean_linker_0, # of connection points: 2
#     Edge 16, Type (0, 0), BuildingBlock: AJUNOK_clean_linker_0, # of connection points: 2
#     Edge 17, Type (0, 0), BuildingBlock: AJUNOK_clean_linker_0, # of connection points: 2
#     Edge 18, Type (0, 0), BuildingBlock: AJUNOK_clean_linker_0, # of connection points: 2
#     Edge 19, Type (0, 0), BuildingBlock: AJUNOK_clean_linker_0, # of connection points: 2
#     Edge 20, Type (0, 0), BuildingBlock: AJUNOK_clean_linker_0, # of connection points: 2
#     Edge 21, Type (0, 0), BuildingBlock: AJUNOK_clean_linker_0, # of connection points: 2
#     Edge 22, Type (0, 0), BuildingBlock: AJUNOK_clean_linker_0, # of connection points: 2
#     Edge 23, Type (0, 0), BuildingBlock: AJUNOK_clean_linker_0, # of connection points: 2
#     Edge 24, Type (0, 0), BuildingBlock: AJUNOK_clean_linker_0, # of connection points: 2
#     Edge 25, Type (0, 0), BuildingBlock: AJUNOK_clean_linker_0, # of connection points: 2
#     Edge 26, Type (0, 0), BuildingBlock: AJUNOK_clean_linker_0, # of connection points: 2
#     Edge 27, Type (0, 0), BuildingBlock: AJUNOK_clean_linker_0, # of connection points: 2
#     Edge 28, Type (0, 0), BuildingBlock: AJUNOK_clean_linker_0, # of connection points: 2
#     Edge 29, Type (0, 0), BuildingBlock: AJUNOK_clean_linker_0, # of connection points: 2
#     Edge 30, Type (0, 0), BuildingBlock: AJUNOK_clean_linker_0, # of connection points: 2
#     Edge 31, Type (0, 0), BuildingBlock: AJUNOK_clean_linker_0, # of connection points: 2
# Relax obj value: 0.217
# Max RMSD: 0.229
# Mean RMSD: 0.229
data_MOF--net-vmg--node1-OJICUG_clean_sbu_0--edge1-AJUNOK_clean_linker_0
_symmetry_space_group_name_H-M    P1
_symmetry_Int_Tables_number       1
_symmetry_cell_setting            triclinic
loop_
_symmetry_equiv_pos_as_xyz
'x, y, z'
_cell_length_a     22.436776
_cell_length_b     33.235656
_cell_length_c     21.158339
_cell_angle_alpha  89.989597
_cell_angle_beta   103.77862
_cell_angle_gamma 89.968815
loop_
_atom_site_label
_atom_site_type_symbol
_atom_site_fract_x
_atom_site_fract_y
_atom_site_fract_z
_atom_type_partial_charge
Sc0 Sc 0.14051 0.39714 0.05927 0.0
Sc1 Sc 0.24366 0.46657 0.13691 0.0
Sc2 Sc 0.24956 0.36826 0.19536 0.0
O3 O 0.21405 0.40954 0.12935 0.0
C4 C 0.10884 0.34675 0.17347 0.0
C5 C 0.10009 0.47702 0.08508 0.0
C6 C 0.23443 0.44786 0.27701 0.0
C7 C 0.21942 0.46021 -0.00621 0.0
C8 C 0.22356 0.32369 0.05319 0.0
C9 C 0.36778 0.41657 0.19221 0.0
O10 O 0.09912 0.35413 0.11296 0.0
O11 O 0.15341 0.49169 0.08965 0.0
O12 O 0.25488 0.41178 0.27595 0.0
O13 O 0.17009 0.44077 -0.00593 0.0
O14 O 0.24441 0.32351 0.11564 0.0
O15 O 0.33781 0.44951 0.18238 0.0
O16 O 0.18818 0.35105 0.02337 0.0
O17 O 0.26316 0.46246 0.04418 0.0
O18 O 0.34125 0.38252 0.18822 0.0
O19 O 0.09518 0.4413 0.10206 0.0
O20 O 0.16108 0.35255 0.2114 0.0
O21 O 0.2221 0.47076 0.22776 0.0
Sc22 Sc 0.75497 0.36871 0.26126 0.0
Sc23 Sc 0.75986 0.46677 0.31942 0.0
Sc24 Sc 0.86205 0.39761 0.39858 0.0
O25 O 0.78933 0.40979 0.32772 0.0
C26 C 0.78228 0.32276 0.4027 0.0
C27 C 0.63645 0.41642 0.26397 0.0
C28 C 0.78024 0.46008 0.4619 0.0
C29 C 0.76942 0.44883 0.18 0.0
C30 C 0.89577 0.34786 0.28457 0.0
C31 C 0.90259 0.47725 0.37446 0.0
O32 O 0.7614 0.32312 0.34023 0.0
O33 O 0.66628 0.44944 0.2719 0.0
O34 O 0.8305 0.44114 0.46325 0.0
O35 O 0.7483 0.41292 0.18117 0.0
O36 O 0.90447 0.35487 0.34514 0.0
O37 O 0.8493 0.49208 0.36936 0.0
O38 O 0.84399 0.35395 0.24575 0.0
O39 O 0.78402 0.47113 0.22982 0.0
O40 O 0.90709 0.44187 0.35595 0.0
O41 O 0.6632 0.38238 0.26875 0.0
O42 O 0.81463 0.35109 0.43355 0.0
O43 O 0.73771 0.462 0.41051 0.0
Sc44 Sc 0.75533 0.64251 0.76168 0.0
Sc45 Sc 0.75991 0.54373 0.81637 0.0
Sc46 Sc 0.86311 0.61186 0.89826 0.0
O47 O 0.79036 0.60049 0.82662 0.0
C48 C 0.8965 0.66291 0.78475 0.0
C49 C 0.77027 0.56365 0.67793 0.0
C50 C 0.90215 0.53117 0.87421 0.0
C51 C 0.6368 0.59454 0.76264 0.0
C52 C 0.78298 0.68713 0.90376 0.0
C53 C 0.77952 0.54953 0.95957 0.0
O54 O 0.84404 0.65812 0.74661 0.0
O55 O 0.78482 0.54056 0.72683 0.0
O56 O 0.90944 0.56682 0.85808 0.0
O57 O 0.66358 0.62854 0.76897 0.0
O58 O 0.8164 0.6589 0.93349 0.0
O59 O 0.73754 0.54718 0.90767 0.0
O60 O 0.76142 0.68717 0.84148 0.0
O61 O 0.66666 0.56155 0.76883 0.0
O62 O 0.82959 0.56884 0.96176 0.0
O63 O 0.74872 0.59935 0.68028 0.0
O64 O 0.90662 0.65393 0.84482 0.0
O65 O 0.84803 0.51736 0.86615 0.0
Sc66 Sc 0.14026 0.61193 0.55905 0.0
Sc67 Sc 0.24472 0.54323 0.63805 0.0
Sc68 Sc 0.24902 0.64177 0.69534 0.0
O69 O 0.21374 0.6 0.62987 0.0
C70 C 0.22279 0.68588 0.55301 0.0
C71 C 0.22036 0.5493 0.4944 0.0
C72 C 0.36807 0.59388 0.69282 0.0
C73 C 0.10124 0.53117 0.58462 0.0
C74 C 0.10813 0.66314 0.6726 0.0
C75 C 0.23471 0.56242 0.77791 0.0
O76 O 0.18761 0.6584 0.52347 0.0
O77 O 0.26396 0.54684 0.54496 0.0
O78 O 0.34108 0.62778 0.68884 0.0
O79 O 0.09382 0.56709 0.5996 0.0
O80 O 0.16044 0.6578 0.71076 0.0
O81 O 0.22326 0.53918 0.72909 0.0
O82 O 0.09808 0.65455 0.61252 0.0
O83 O 0.15536 0.51743 0.59135 0.0
O84 O 0.25433 0.59866 0.77642 0.0
O85 O 0.17103 0.56875 0.49448 0.0
O86 O 0.24381 0.68619 0.61538 0.0
O87 O 0.33853 0.56083 0.68308 0.0
Sc88 Sc 0.6443 0.8952 0.05941 0.0
Sc89 Sc 0.74424 0.96602 0.13813 0.0
Sc90 Sc 0.74959 0.869 0.19969 0.0
O91 O 0.71534 0.909 0.13139 0.0
C92 C 0.60939 0.84753 0.17484 0.0
C93 C 0.60147 0.9755 0.08107 0.0
C94 C 0.73449 0.95029 0.27792 0.0
C95 C 0.72555 0.95763 -0.00426 0.0
C96 C 0.72666 0.82099 0.06064 0.0
C97 C 0.86745 0.91641 0.19657 0.0
O98 O 0.60219 0.85282 0.11393 0.0
O99 O 0.65486 0.9903 0.08697 0.0
O100 O 0.75585 0.91436 0.27799 0.0
O101 O 0.6757 0.93823 -0.00582 0.0
O102 O 0.74473 0.82218 0.12329 0.0
O103 O 0.83763 0.94943 0.18745 0.0
O104 O 0.69429 0.84862 0.0276 0.0
O105 O 0.76751 0.9603 0.04754 0.0
O106 O 0.84098 0.88235 0.19176 0.0
O107 O 0.59593 0.93973 0.09757 0.0
O108 O 0.66028 0.85482 0.21448 0.0
O109 O 0.71908 0.9717 0.22714 0.0
Sc110 Sc 0.2534 0.86884 0.25726 0.0
Sc111 Sc 0.25839 0.96537 0.32123 0.0
Sc112 Sc 0.35915 0.89435 0.39803 0.0
O113 O 0.28789 0.90847 0.32622 0.0
C114 C 0.27589 0.82029 0.39572 0.0
C115 C 0.13511 0.91616 0.26286 0.0
C116 C 0.2777 0.95556 0.4634 0.0
C117 C 0.26965 0.9506 0.18097 0.0
C118 C 0.39371 0.84706 0.28177 0.0
C119 C 0.40153 0.975 0.37757 0.0
O120 O 0.25748 0.82174 0.3331 0.0
O121 O 0.16486 0.94911 0.2731 0.0
O122 O 0.32791 0.93669 0.46448 0.0
O123 O 0.24876 0.91451 0.17975 0.0
O124 O 0.40174 0.85265 0.34273 0.0
O125 O 0.34799 0.98953 0.37214 0.0
O126 O 0.34252 0.85424 0.24269 0.0
O127 O 0.28232 0.97216 0.23177 0.0
O128 O 0.40752 0.9393 0.36096 0.0
O129 O 0.16165 0.88225 0.2643 0.0
O130 O 0.30905 0.84752 0.42883 0.0
O131 O 0.23571 0.9583 0.41174 0.0
Sc132 Sc 0.25354 0.14147 0.75713 0.0
Sc133 Sc 0.25912 0.04443 0.81963 0.0
Sc134 Sc 0.36065 0.11538 0.89704 0.0
O135 O 0.28901 0.1013 0.82532 0.0
C136 C 0.39357 0.16358 0.78073 0.0
C137 C 0.26728 0.06023 0.67857 0.0
C138 C 0.40266 0.03403 0.87605 0.0
C139 C 0.13537 0.09419 0.76365 0.0
C140 C 0.2772 0.18948 0.89576 0.0
C141 C 0.28162 0.05311 0.96317 0.0
O142 O 0.34238 0.15631 0.7416 0.0
O143 O 0.28143 0.03834 0.72892 0.0
O144 O 0.41062 0.0701 0.86191 0.0
O145 O 0.16201 0.12807 0.76523 0.0
O146 O 0.31032 0.16205 0.92842 0.0
O147 O 0.23878 0.04958 0.91215 0.0
O148 O 0.25853 0.18827 0.83324 0.0
O149 O 0.16516 0.06121 0.77364 0.0
O150 O 0.33042 0.07311 0.96316 0.0
O151 O 0.24711 0.0964 0.67874 0.0
O152 O 0.40201 0.15741 0.84153 0.0
O153 O 0.3486 0.02001 0.86797 0.0
Sc154 Sc 0.64321 0.11487 0.55907 0.0
Sc155 Sc 0.74383 0.04478 0.64081 0.0
Sc156 Sc 0.74883 0.14245 0.69929 0.0
O157 O 0.71409 0.10167 0.63215 0.0
C158 C 0.72582 0.18937 0.55969 0.0
C159 C 0.72627 0.05238 0.49768 0.0
C160 C 0.86704 0.09457 0.69808 0.0
C161 C 0.60135 0.03373 0.58102 0.0
C162 C 0.60824 0.16403 0.67361 0.0
C163 C 0.73305 0.06236 0.77981 0.0
O164 O 0.69274 0.16186 0.5273 0.0
O165 O 0.76746 0.04918 0.55008 0.0
O166 O 0.8405 0.12864 0.69233 0.0
O167 O 0.59326 0.06982 0.59461 0.0
O168 O 0.65959 0.15768 0.71305 0.0
O169 O 0.71807 0.04019 0.72988 0.0
O170 O 0.59982 0.1568 0.61304 0.0
O171 O 0.65549 0.01974 0.58989 0.0
O172 O 0.75462 0.09812 0.77883 0.0
O173 O 0.67658 0.0722 0.49513 0.0
O174 O 0.74465 0.18841 0.62219 0.0
O175 O 0.83705 0.06166 0.68992 0.0
C176 C 0.53441 0.38246 0.22393 0.0
C177 C 0.568 0.41756 0.24645 0.0
C178 C 0.47006 0.38257 0.20631 0.0
C179 C 0.43618 0.41778 0.21025 0.0
H180 H 0.55791 0.35453 0.21934 0.0
H181 H 0.44678 0.3547 0.18907 0.0
S182 S 0.5015 0.51744 0.26935 0.0
N183 N 0.56202 0.48838 0.27376 0.0
N184 N 0.44134 0.48857 0.2406 0.0
C185 C 0.46906 0.4531 0.23311 0.0
C186 C 0.53473 0.45299 0.2512 0.0
C187 C 0.53446 0.62859 0.72458 0.0
C188 C 0.56837 0.59335 0.74557 0.0
C189 C 0.47008 0.62838 0.70749 0.0
C190 C 0.43651 0.59292 0.71053 0.0
H191 H 0.55774 0.65671 0.72077 0.0
H192 H 0.44653 0.65635 0.69139 0.0
S193 S 0.50285 0.49277 0.76569 0.0
N194 N 0.56306 0.52211 0.77056 0.0
N195 N 0.4424 0.52171 0.73846 0.0
C196 C 0.46975 0.55745 0.73194 0.0
C197 C 0.53542 0.55768 0.74944 0.0
C198 C 0.03319 0.88348 0.21837 0.0
C199 C 0.06693 0.91727 0.24696 0.0
C200 C 0.96893 0.88358 0.20231 0.0
C201 C 0.93553 0.91749 0.21397 0.0
H202 H 0.05649 0.85669 0.20766 0.0
H203 H 0.94528 0.85688 0.17993 0.0
S204 S 0.00146 0.01271 0.29236 0.0
N205 N 0.06177 0.985 0.28926 0.0
N206 N 0.941 0.98517 0.25884 0.0
C207 C 0.96852 0.95137 0.24324 0.0
C208 C 0.03411 0.95126 0.25978 0.0
C209 C 0.03327 0.12832 0.72602 0.0
C210 C 0.06701 0.09318 0.74799 0.0
C211 C 0.96898 0.1284 0.71016 0.0
C212 C 0.93532 0.09332 0.71542 0.0
H213 H 0.05658 0.15617 0.72047 0.0
H214 H 0.94556 0.15627 0.69309 0.0
S215 S 0.00112 0.99357 0.77358 0.0
N216 N 0.06147 0.02242 0.77611 0.0
N217 N 0.94079 0.0226 0.74633 0.0
C218 C 0.96833 0.05796 0.73786 0.0
C219 C 0.03397 0.05788 0.75412 0.0
C220 C 0.26344 0.25407 0.04077 0.0
C221 C 0.23856 0.29035 0.01222 0.0
C222 C 0.27482 0.22181 0.00252 0.0
C223 C 0.26205 0.22425 0.93381 0.0
H224 H 0.27351 0.25025 0.09309 0.0
H225 H 0.29373 0.19454 0.02751 0.0
S226 S 0.19918 0.31334 0.83453 0.0
N227 N 0.20334 0.32733 0.91026 0.0
N228 N 0.22455 0.26658 0.83915 0.0
C229 C 0.23762 0.26045 0.90454 0.0
C230 C 0.22609 0.29345 0.94344 0.0
C231 C 0.72116 0.26157 0.41829 0.0
C232 C 0.76961 0.28825 0.44275 0.0
C233 C 0.70736 0.23011 0.45675 0.0
C234 C 0.74142 0.22382 0.52145 0.0
H235 H 0.69303 0.26528 0.36937 0.0
H236 H 0.66911 0.21069 0.43541 0.0
S237 S 0.8759 0.28342 0.60758 0.0
N238 N 0.85405 0.30491 0.53545 0.0
N239 N 0.82742 0.24605 0.60704 0.0
C240 C 0.79047 0.24992 0.5463 0.0
C241 C 0.80476 0.28193 0.50717 0.0
C242 C 0.71147 0.78168 0.95652 0.0
C243 C 0.742 0.78613 0.02287 0.0
C244 C 0.72504 0.75 0.91839 0.0
C245 C 0.76975 0.72113 0.94468 0.0
H246 H 0.67628 0.80284 0.93337 0.0
H247 H 0.69985 0.74807 0.868 0.0
S248 S 0.86488 0.71959 0.11535 0.0
N249 N 0.82003 0.75921 0.11264 0.0
N250 N 0.84606 0.69977 0.0418 0.0
C251 C 0.80101 0.72529 0.01107 0.0
C252 C 0.78699 0.75762 0.04986 0.0
C253 C 0.26214 0.75553 0.54046 0.0
C254 C 0.23735 0.71927 0.51189 0.0
C255 C 0.27333 0.78783 0.50225 0.0
C256 C 0.26052 0.78547 0.43352 0.0
H257 H 0.27234 0.7593 0.59278 0.0
H258 H 0.29222 0.81505 0.52732 0.0
S259 S 0.19743 0.69655 0.33414 0.0
N260 N 0.20181 0.68244 0.40988 0.0
N261 N 0.2228 0.7433 0.33879 0.0
C262 C 0.23603 0.74933 0.40419 0.0
C263 C 0.22463 0.71627 0.44309 0.0
C264 C 0.01087 0.5323 0.93706 0.0
C265 C 0.95256 0.51398 0.92505 0.0
C266 C 0.05719 0.52226 -0.00853 0.0
C267 C 0.04734 0.49324 0.0361 0.0
H268 H 0.02083 0.55511 0.90444 0.0
H269 H 0.10158 0.53651 -0.00276 0.0
S270 S 0.90309 0.436 0.02746 0.0
N271 N 0.88779 0.46502 0.96231 0.0
N272 N 0.97444 0.44656 0.06549 0.0
C273 C 0.98904 0.47484 0.02515 0.0
C274 C 0.94201 0.48479 0.96921 0.0
C275 C 0.9917 0.53149 0.52398 0.0
C276 C 0.04999 0.51307 0.53591 0.0
C277 C 0.94531 0.52149 0.46957 0.0
C278 C 0.95498 0.49229 0.42516 0.0
H279 H 0.9821 0.55472 0.55612 0.0
H280 H 0.90121 0.53624 0.46322 0.0
S281 S 0.09794 0.43296 0.43611 0.0
N282 N 0.1137 0.46266 0.50037 0.0
N283 N 0.02689 0.44398 0.39763 0.0
C284 C 0.01276 0.47301 0.43705 0.0
C285 C 0.05989 0.48306 0.49278 0.0
C286 C 0.55933 0.02111 -0.01208 0.0
C287 C 0.54903 0.99232 0.03268 0.0
C288 C 0.5126 0.03216 0.93451 0.0
C289 C 0.45353 0.01512 0.92397 0.0
H290 H 0.6042 0.03456 -0.00698 0.0
H291 H 0.52266 0.05494 0.90189 0.0
S292 S 0.40334 0.93728 0.02617 0.0
N293 N 0.47549 0.94651 0.06287 0.0
N294 N 0.38794 0.9669 0.96179 0.0
C295 C 0.44281 0.98575 0.9678 0.0
C296 C 0.49026 0.97476 0.02259 0.0
C297 C 0.44387 0.02001 0.47138 0.0
C298 C 0.45414 0.99205 0.4254 0.0
C299 C 0.49104 0.03099 0.52438 0.0
C300 C 0.5505 0.01472 0.53333 0.0
H301 H 0.39872 0.03279 0.46758 0.0
H302 H 0.48101 0.05313 0.55803 0.0
S303 S 0.60086 0.93927 0.42741 0.0
N304 N 0.52812 0.94789 0.39226 0.0
N305 N 0.61653 0.96819 0.49264 0.0
C306 C 0.56125 0.98622 0.48825 0.0
C307 C 0.51334 0.97529 0.43385 0.0
C308 C 0.9951 0.34012 0.1622 0.0
C309 C 0.0552 0.33741 0.2017 0.0
C310 C 0.94362 0.34045 0.18912 0.0
C311 C 0.94963 0.33815 0.25692 0.0
H312 H 0.98756 0.3444 0.11014 0.0
H313 H 0.89899 0.34494 0.15643 0.0
S314 S 0.09587 0.32319 0.38118 0.0
N315 N 0.11692 0.32682 0.31179 0.0
N316 N 0.02042 0.32755 0.36222 0.0
C317 C 0.00905 0.33204 0.29658 0.0
C318 C 0.06161 0.33163 0.26909 0.0
C319 C 0.06137 0.67061 0.76871 0.0
C320 C 0.05494 0.6733 0.70091 0.0
C321 C 0.01008 0.67049 0.79594 0.0
C322 C 0.94987 0.67315 0.75669 0.0
H323 H 0.10612 0.66593 0.80106 0.0
H324 H 0.01784 0.6658 0.84792 0.0
S325 S 0.90838 0.68902 0.57755 0.0
N326 N 0.98384 0.68479 0.59611 0.0
N327 N 0.88768 0.68471 0.64704 0.0
C328 C 0.94312 0.67971 0.68943 0.0
C329 C 0.99547 0.67973 0.66167 0.0
C330 C 0.50772 0.84033 0.29507 0.0
C331 C 0.44803 0.83784 0.25466 0.0
C332 C 0.5598 0.84049 0.26911 0.0
C333 C 0.55479 0.83821 0.20145 0.0
H334 H 0.51445 0.84455 0.34705 0.0
H335 H 0.60414 0.84474 0.30246 0.0
S336 S 0.40977 0.82416 0.07506 0.0
N337 N 0.38767 0.82769 0.14386 0.0
N338 N 0.48524 0.82815 0.09528 0.0
C339 C 0.49573 0.83242 0.1609 0.0
C340 C 0.44258 0.8322 0.18739 0.0
C341 C 0.49428 0.17071 0.65993 0.0
C342 C 0.55394 0.17401 0.70019 0.0
C343 C 0.44229 0.17055 0.68596 0.0
C344 C 0.44744 0.17366 0.75352 0.0
H345 H 0.48757 0.16567 0.60813 0.0
H346 H 0.39804 0.16544 0.65292 0.0
S347 S 0.59204 0.19133 0.87892 0.0
N348 N 0.61418 0.18673 0.81027 0.0
N349 N 0.5167 0.18635 0.85904 0.0
C350 C 0.50631 0.18079 0.79368 0.0
C351 C 0.55937 0.18099 0.76711 0.0
C352 C 0.27424 0.51131 0.94086 0.0
C353 C 0.22144 0.48759 0.93877 0.0
C354 C 0.27672 0.53893 0.89137 0.0
C355 C 0.22645 0.54389 0.83822 0.0
H356 H 0.3146 0.50814 -0.01949 0.0
H357 H 0.31927 0.55473 0.8929 0.0
S358 S 0.0761 0.49203 0.81044 0.0
N359 N 0.11652 0.47304 0.87952 0.0
N360 N 0.1215 0.52505 0.7872 0.0
C361 C 0.17268 0.52179 0.83659 0.0
C362 C 0.17013 0.49354 0.8865 0.0
C363 C 0.82936 0.496 0.56505 0.0
C364 C 0.77641 0.48781 0.51591 0.0
C365 C 0.82814 0.52384 0.6143 0.0
C366 C 0.77418 0.54489 0.61623 0.0
H367 H 0.87217 0.48067 0.56594 0.0
H368 H 0.86925 0.5278 0.65286 0.0
S369 S 0.62322 0.53549 0.4996 0.0
N370 N 0.66819 0.50404 0.47212 0.0
N371 N 0.66687 0.55634 0.56534 0.0
C372 C 0.72144 0.53813 0.56679 0.0
C373 C 0.72226 0.50951 0.51664 0.0
C374 C 0.82357 0.49496 0.12121 0.0
C375 C 0.77417 0.46847 0.11902 0.0
C376 C 0.82417 0.5215 0.0702 0.0
C377 C 0.77522 0.52282 0.01466 0.0
H378 H 0.86162 0.49594 0.16379 0.0
H379 H 0.86349 0.54111 0.07464 0.0
S380 S 0.63507 0.45872 -0.01515 0.0
N381 N 0.67556 0.44443 0.05711 0.0
N382 N 0.67601 0.49406 0.9601 0.0
C383 C 0.72586 0.49569 0.01124 0.0
C384 C 0.72564 0.46845 0.06348 0.0
C385 C 0.27592 0.46998 0.39154 0.0
C386 C 0.22637 0.4667 0.33721 0.0
C387 C 0.27393 0.4973 0.44159 0.0
C388 C 0.22238 0.52236 0.43888 0.0
H389 H 0.3176 0.453 0.39373 0.0
H390 H 0.31364 0.4991 0.48226 0.0
S391 S 0.07874 0.52216 0.30784 0.0
N392 N 0.12303 0.48832 0.2847 0.0
N393 N 0.11909 0.53981 0.37791 0.0
C394 C 0.17173 0.51812 0.38535 0.0
C395 C 0.17373 0.49018 0.33493 0.0
C396 C 0.67588 0.99303 0.89221 0.0
C397 C 0.72903 0.98515 0.94133 0.0
C398 C 0.67649 0.02097 0.84292 0.0
C399 C 0.72997 0.0425 0.84097 0.0
H400 H 0.6333 0.97748 0.89152 0.0
H401 H 0.63518 0.02483 0.80457 0.0
S402 S 0.88148 0.03355 0.95684 0.0
N403 N 0.83711 1.00178 -0.01545 0.0
N404 N 0.83727 0.05437 0.89136 0.0
C405 C 0.78301 0.03586 0.89014 0.0
C406 C 0.78282 0.00709 0.94029 0.0
C407 C 0.32488 0.01894 0.61633 0.0
C408 C 0.27081 0.03992 0.61796 0.0
C409 C 0.32635 0.99102 0.5672 0.0
C410 C 0.27345 0.98259 0.5181 0.0
H411 H 0.36606 0.02333 0.65462 0.0
H412 H 0.36938 0.97603 0.56788 0.0
S413 S 0.11947 0.02898 0.50246 0.0
N414 N 0.16311 0.0504 0.56767 0.0
N415 N 0.16477 0.99775 0.47503 0.0
C416 C 0.21894 1.00377 0.51915 0.0
C417 C 0.21792 0.03255 0.569 0.0
C418 C 0.22787 0.97331 0.06656 0.0
C419 C 0.2769 0.97106 0.1216 0.0
C420 C 0.22921 1.00066 0.01634 0.0
C421 C 0.27971 0.02668 0.01938 0.0
H422 H 0.1871 0.95528 0.0637 0.0
H423 H 0.18998 1.00151 0.97504 0.0
S424 S 0.42201 0.02931 0.15209 0.0
N425 N 0.37875 0.99482 0.17521 0.0
N426 N 0.38163 0.04615 0.08143 0.0
C427 C 0.32983 0.02361 0.07375 0.0
C428 C 0.32838 0.99575 0.12451 0.0
C429 C 0.68136 0.02442 0.38705 0.0
C430 C 0.73063 0.02591 0.4423 0.0
C431 C 0.68154 0.99763 0.33625 0.0
C432 C 0.73078 0.97097 0.33841 0.0
H433 H 0.64194 0.04396 0.38281 0.0
H434 H 0.64311 0.99834 0.29403 0.0
S435 S 0.87149 0.96246 0.47089 0.0
N436 N 0.83064 0.99781 0.49581 0.0
N437 N 0.83022 0.9476 0.39935 0.0
C438 C 0.77995 0.97143 0.39336 0.0
C439 C 0.78018 0.99897 0.44533 0.0
loop_
_geom_bond_atom_site_label_1
_geom_bond_atom_site_label_2
_geom_bond_distance
_geom_bond_site_symmetry_2
_ccdc_geom_bond_type
Sc0 O3 2.025 . S
Sc0 O10 2.105 . S
Sc0 O13 2.105 1_554 S
Sc0 O16 2.105 . S
Sc0 O19 2.105 . S
Sc1 O3 2.025 . S
Sc1 O11 2.105 . S
Sc1 O15 2.105 . S
Sc1 O17 2.105 . S
Sc1 O21 2.105 . S
Sc2 O3 2.025 . S
Sc2 O12 2.105 . S
Sc2 O14 2.105 . S
Sc2 O18 2.105 . S
Sc2 O20 2.105 . S
O3 Sc0 2.025 . S
O3 Sc1 2.025 . S
O3 Sc2 2.025 . S
C4 O10 1.268 . S
C4 O20 1.268 . S
C5 O11 1.268 . S
C5 O19 1.268 . S
C6 O12 1.268 . S
C6 O21 1.268 . S
C7 O13 1.268 . S
C7 O17 1.268 1_556 S
C8 O14 1.268 . S
C8 O16 1.268 . S
C9 O15 1.268 . S
C9 O18 1.268 . S
O10 Sc0 2.105 . S
O10 C4 1.268 . S
O11 Sc1 2.105 . S
O11 C5 1.268 . S
O12 Sc2 2.105 . S
O12 C6 1.268 . S
O13 Sc0 2.105 1_556 S
O13 C7 1.268 . S
O14 Sc2 2.105 . S
O14 C8 1.268 . S
O15 Sc1 2.105 . S
O15 C9 1.268 . S
O16 Sc0 2.105 . S
O16 C8 1.268 . S
O17 Sc1 2.105 . S
O17 C7 1.268 1_554 S
O18 Sc2 2.105 . S
O18 C9 1.268 . S
O19 Sc0 2.105 . S
O19 C5 1.268 . S
O20 Sc2 2.105 . S
O20 C4 1.268 . S
O21 Sc1 2.105 . S
O21 C6 1.268 . S
Sc22 O25 2.025 . S
Sc22 O32 2.105 . S
Sc22 O35 2.105 . S
Sc22 O38 2.105 . S
Sc22 O41 2.105 . S
Sc23 O25 2.025 . S
Sc23 O33 2.105 . S
Sc23 O37 2.105 . S
Sc23 O39 2.105 . S
Sc23 O43 2.105 . S
Sc24 O25 2.025 . S
Sc24 O34 2.105 . S
Sc24 O36 2.105 . S
Sc24 O40 2.105 . S
Sc24 O42 2.105 . S
O25 Sc22 2.025 . S
O25 Sc23 2.025 . S
O25 Sc24 2.025 . S
C26 O32 1.268 . S
C26 O42 1.268 . S
C27 O33 1.268 . S
C27 O41 1.268 . S
C28 O34 1.268 . S
C28 O43 1.268 . S
C29 O35 1.268 . S
C29 O39 1.268 . S
C30 O36 1.268 . S
C30 O38 1.268 . S
C31 O37 1.268 . S
C31 O40 1.268 . S
O32 Sc22 2.105 . S
O32 C26 1.268 . S
O33 Sc23 2.105 . S
O33 C27 1.268 . S
O34 Sc24 2.105 . S
O34 C28 1.268 . S
O35 Sc22 2.105 . S
O35 C29 1.268 . S
O36 Sc24 2.105 . S
O36 C30 1.268 . S
O37 Sc23 2.105 . S
O37 C31 1.268 . S
O38 Sc22 2.105 . S
O38 C30 1.268 . S
O39 Sc23 2.105 . S
O39 C29 1.268 . S
O40 Sc24 2.105 . S
O40 C31 1.268 . S
O41 Sc22 2.105 . S
O41 C27 1.268 . S
O42 Sc24 2.105 . S
O42 C26 1.268 . S
O43 Sc23 2.105 . S
O43 C28 1.268 . S
Sc44 O47 2.025 . S
Sc44 O54 2.105 . S
Sc44 O57 2.105 . S
Sc44 O60 2.105 . S
Sc44 O63 2.105 . S
Sc45 O47 2.025 . S
Sc45 O55 2.105 . S
Sc45 O59 2.105 . S
Sc45 O61 2.105 . S
Sc45 O65 2.105 . S
Sc46 O47 2.025 . S
Sc46 O56 2.105 . S
Sc46 O58 2.105 . S
Sc46 O62 2.105 1_556 S
Sc46 O64 2.105 . S
O47 Sc44 2.025 . S
O47 Sc45 2.025 . S
O47 Sc46 2.025 . S
C48 O54 1.268 . S
C48 O64 1.268 . S
C49 O55 1.268 . S
C49 O63 1.268 . S
C50 O56 1.268 . S
C50 O65 1.268 . S
C51 O57 1.268 . S
C51 O61 1.268 . S
C52 O58 1.268 . S
C52 O60 1.268 . S
C53 O59 1.268 1_554 S
C53 O62 1.268 . S
O54 Sc44 2.105 . S
O54 C48 1.268 . S
O55 Sc45 2.105 . S
O55 C49 1.268 . S
O56 Sc46 2.105 . S
O56 C50 1.268 . S
O57 Sc44 2.105 . S
O57 C51 1.268 . S
O58 Sc46 2.105 . S
O58 C52 1.268 . S
O59 Sc45 2.105 . S
O59 C53 1.268 1_556 S
O60 Sc44 2.105 . S
O60 C52 1.268 . S
O61 Sc45 2.105 . S
O61 C51 1.268 . S
O62 Sc46 2.105 1_554 S
O62 C53 1.268 . S
O63 Sc44 2.105 . S
O63 C49 1.268 . S
O64 Sc46 2.105 . S
O64 C48 1.268 . S
O65 Sc45 2.105 . S
O65 C50 1.268 . S
Sc66 O69 2.025 . S
Sc66 O76 2.105 . S
Sc66 O79 2.105 . S
Sc66 O82 2.105 . S
Sc66 O85 2.105 . S
Sc67 O69 2.025 . S
Sc67 O77 2.105 . S
Sc67 O81 2.105 . S
Sc67 O83 2.105 . S
Sc67 O87 2.105 . S
Sc68 O69 2.025 . S
Sc68 O78 2.105 . S
Sc68 O80 2.105 . S
Sc68 O84 2.105 . S
Sc68 O86 2.105 . S
O69 Sc66 2.025 . S
O69 Sc67 2.025 . S
O69 Sc68 2.025 . S
C70 O76 1.268 . S
C70 O86 1.268 . S
C71 O77 1.268 . S
C71 O85 1.268 . S
C72 O78 1.268 . S
C72 O87 1.268 . S
C73 O79 1.268 . S
C73 O83 1.268 . S
C74 O80 1.268 . S
C74 O82 1.268 . S
C75 O81 1.268 . S
C75 O84 1.268 . S
O76 Sc66 2.105 . S
O76 C70 1.268 . S
O77 Sc67 2.105 . S
O77 C71 1.268 . S
O78 Sc68 2.105 . S
O78 C72 1.268 . S
O79 Sc66 2.105 . S
O79 C73 1.268 . S
O80 Sc68 2.105 . S
O80 C74 1.268 . S
O81 Sc67 2.105 . S
O81 C75 1.268 . S
O82 Sc66 2.105 . S
O82 C74 1.268 . S
O83 Sc67 2.105 . S
O83 C73 1.268 . S
O84 Sc68 2.105 . S
O84 C75 1.268 . S
O85 Sc66 2.105 . S
O85 C71 1.268 . S
O86 Sc68 2.105 . S
O86 C70 1.268 . S
O87 Sc67 2.105 . S
O87 C72 1.268 . S
Sc88 O91 2.025 . S
Sc88 O98 2.105 . S
Sc88 O101 2.105 1_554 S
Sc88 O104 2.105 . S
Sc88 O107 2.105 . S
Sc89 O91 2.025 . S
Sc89 O99 2.105 . S
Sc89 O103 2.105 . S
Sc89 O105 2.105 . S
Sc89 O109 2.105 . S
Sc90 O91 2.025 . S
Sc90 O100 2.105 . S
Sc90 O102 2.105 . S
Sc90 O106 2.105 . S
Sc90 O108 2.105 . S
O91 Sc88 2.025 . S
O91 Sc89 2.025 . S
O91 Sc90 2.025 . S
C92 O98 1.268 . S
C92 O108 1.268 . S
C93 O99 1.268 . S
C93 O107 1.268 . S
C94 O100 1.268 . S
C94 O109 1.268 . S
C95 O101 1.268 . S
C95 O105 1.268 1_556 S
C96 O102 1.268 . S
C96 O104 1.268 . S
C97 O103 1.268 . S
C97 O106 1.268 . S
O98 Sc88 2.105 . S
O98 C92 1.268 . S
O99 Sc89 2.105 . S
O99 C93 1.268 . S
O100 Sc90 2.105 . S
O100 C94 1.268 . S
O101 Sc88 2.105 1_556 S
O101 C95 1.268 . S
O102 Sc90 2.105 . S
O102 C96 1.268 . S
O103 Sc89 2.105 . S
O103 C97 1.268 . S
O104 Sc88 2.105 . S
O104 C96 1.268 . S
O105 Sc89 2.105 . S
O105 C95 1.268 1_554 S
O106 Sc90 2.105 . S
O106 C97 1.268 . S
O107 Sc88 2.105 . S
O107 C93 1.268 . S
O108 Sc90 2.105 . S
O108 C92 1.268 . S
O109 Sc89 2.105 . S
O109 C94 1.268 . S
Sc110 O113 2.025 . S
Sc110 O120 2.105 . S
Sc110 O123 2.105 . S
Sc110 O126 2.105 . S
Sc110 O129 2.105 . S
Sc111 O113 2.025 . S
Sc111 O121 2.105 . S
Sc111 O125 2.105 . S
Sc111 O127 2.105 . S
Sc111 O131 2.105 . S
Sc112 O113 2.025 . S
Sc112 O122 2.105 . S
Sc112 O124 2.105 . S
Sc112 O128 2.105 . S
Sc112 O130 2.105 . S
O113 Sc110 2.025 . S
O113 Sc111 2.025 . S
O113 Sc112 2.025 . S
C114 O120 1.268 . S
C114 O130 1.268 . S
C115 O121 1.268 . S
C115 O129 1.268 . S
C116 O122 1.268 . S
C116 O131 1.268 . S
C117 O123 1.268 . S
C117 O127 1.268 . S
C118 O124 1.268 . S
C118 O126 1.268 . S
C119 O125 1.268 . S
C119 O128 1.268 . S
O120 Sc110 2.105 . S
O120 C114 1.268 . S
O121 Sc111 2.105 . S
O121 C115 1.268 . S
O122 Sc112 2.105 . S
O122 C116 1.268 . S
O123 Sc110 2.105 . S
O123 C117 1.268 . S
O124 Sc112 2.105 . S
O124 C118 1.268 . S
O125 Sc111 2.105 . S
O125 C119 1.268 . S
O126 Sc110 2.105 . S
O126 C118 1.268 . S
O127 Sc111 2.105 . S
O127 C117 1.268 . S
O128 Sc112 2.105 . S
O128 C119 1.268 . S
O129 Sc110 2.105 . S
O129 C115 1.268 . S
O130 Sc112 2.105 . S
O130 C114 1.268 . S
O131 Sc111 2.105 . S
O131 C116 1.268 . S
Sc132 O135 2.025 . S
Sc132 O142 2.105 . S
Sc132 O145 2.105 . S
Sc132 O148 2.105 . S
Sc132 O151 2.105 . S
Sc133 O135 2.025 . S
Sc133 O143 2.105 . S
Sc133 O147 2.105 . S
Sc133 O149 2.105 . S
Sc133 O153 2.105 . S
Sc134 O135 2.025 . S
Sc134 O144 2.105 . S
Sc134 O146 2.105 . S
Sc134 O150 2.105 1_556 S
Sc134 O152 2.105 . S
O135 Sc132 2.025 . S
O135 Sc133 2.025 . S
O135 Sc134 2.025 . S
C136 O142 1.268 . S
C136 O152 1.268 . S
C137 O143 1.268 . S
C137 O151 1.268 . S
C138 O144 1.268 . S
C138 O153 1.268 . S
C139 O145 1.268 . S
C139 O149 1.268 . S
C140 O146 1.268 . S
C140 O148 1.268 . S
C141 O147 1.268 1_554 S
C141 O150 1.268 . S
O142 Sc132 2.105 . S
O142 C136 1.268 . S
O143 Sc133 2.105 . S
O143 C137 1.268 . S
O144 Sc134 2.105 . S
O144 C138 1.268 . S
O145 Sc132 2.105 . S
O145 C139 1.268 . S
O146 Sc134 2.105 . S
O146 C140 1.268 . S
O147 Sc133 2.105 . S
O147 C141 1.268 1_556 S
O148 Sc132 2.105 . S
O148 C140 1.268 . S
O149 Sc133 2.105 . S
O149 C139 1.268 . S
O150 Sc134 2.105 1_554 S
O150 C141 1.268 . S
O151 Sc132 2.105 . S
O151 C137 1.268 . S
O152 Sc134 2.105 . S
O152 C136 1.268 . S
O153 Sc133 2.105 . S
O153 C138 1.268 . S
Sc154 O157 2.025 . S
Sc154 O164 2.105 . S
Sc154 O167 2.105 . S
Sc154 O170 2.105 . S
Sc154 O173 2.105 . S
Sc155 O157 2.025 . S
Sc155 O165 2.105 . S
Sc155 O169 2.105 . S
Sc155 O171 2.105 . S
Sc155 O175 2.105 . S
Sc156 O157 2.025 . S
Sc156 O166 2.105 . S
Sc156 O168 2.105 . S
Sc156 O172 2.105 . S
Sc156 O174 2.105 . S
O157 Sc154 2.025 . S
O157 Sc155 2.025 . S
O157 Sc156 2.025 . S
C158 O164 1.268 . S
C158 O174 1.268 . S
C159 O165 1.268 . S
C159 O173 1.268 . S
C160 O166 1.268 . S
C160 O175 1.268 . S
C161 O167 1.268 . S
C161 O171 1.268 . S
C162 O168 1.268 . S
C162 O170 1.268 . S
C163 O169 1.268 . S
C163 O172 1.268 . S
O164 Sc154 2.105 . S
O164 C158 1.268 . S
O165 Sc155 2.105 . S
O165 C159 1.268 . S
O166 Sc156 2.105 . S
O166 C160 1.268 . S
O167 Sc154 2.105 . S
O167 C161 1.268 . S
O168 Sc156 2.105 . S
O168 C162 1.268 . S
O169 Sc155 2.105 . S
O169 C163 1.268 . S
O170 Sc154 2.105 . S
O170 C162 1.268 . S
O171 Sc155 2.105 . S
O171 C161 1.268 . S
O172 Sc156 2.105 . S
O172 C163 1.268 . S
O173 Sc154 2.105 . S
O173 C159 1.268 . S
O174 Sc156 2.105 . S
O174 C158 1.268 . S
O175 Sc155 2.105 . S
O175 C160 1.268 . S
C176 C177 1.369 . S
C176 C178 1.419 . S
C176 H180 0.930 . S
C177 C176 1.369 . S
C177 C186 1.429 . S
C178 C176 1.419 . S
C178 C179 1.363 . S
C178 H181 0.929 . S
C179 C178 1.363 . S
C179 C185 1.428 . S
H180 C176 0.930 . S
H181 C178 0.929 . S
S182 N183 1.613 . S
S182 N184 1.610 . S
N183 S182 1.613 . S
N183 C186 1.350 . S
N184 S182 1.610 . S
N184 C185 1.351 . S
C185 C179 1.428 . S
C185 N184 1.351 . S
C185 C186 1.434 . S
C186 C177 1.429 . S
C186 N183 1.350 . S
C186 C185 1.434 . S
C187 C188 1.369 . S
C187 C189 1.419 . S
C187 H191 0.930 . S
C188 C187 1.369 . S
C188 C197 1.429 . S
C189 C187 1.419 . S
C189 C190 1.363 . S
C189 H192 0.929 . S
C190 C189 1.363 . S
C190 C196 1.428 . S
H191 C187 0.930 . S
H192 C189 0.929 . S
S193 N194 1.613 . S
S193 N195 1.610 . S
N194 S193 1.613 . S
N194 C197 1.350 . S
N195 S193 1.610 . S
N195 C196 1.351 . S
C196 C190 1.428 . S
C196 N195 1.351 . S
C196 C197 1.434 . S
C197 C188 1.429 . S
C197 N194 1.350 . S
C197 C196 1.434 . S
C198 C199 1.369 . S
C198 C200 1.419 1_455 S
C198 H202 0.930 . S
C199 C198 1.369 . S
C199 C208 1.429 . S
C200 C198 1.419 1_655 S
C200 C201 1.363 . S
C200 H203 0.929 . S
C201 C200 1.363 . S
C201 C207 1.428 . S
H202 C198 0.930 . S
H203 C200 0.929 . S
S204 N205 1.613 1_655 S
S204 N206 1.610 . S
N205 S204 1.613 1_455 S
N205 C208 1.350 . S
N206 S204 1.610 . S
N206 C207 1.351 . S
C207 C201 1.428 . S
C207 N206 1.351 . S
C207 C208 1.434 1_655 S
C208 C199 1.429 . S
C208 N205 1.350 . S
C208 C207 1.434 1_455 S
C209 C210 1.369 . S
C209 C211 1.419 1_455 S
C209 H213 0.930 . S
C210 C209 1.369 . S
C210 C219 1.429 . S
C211 C209 1.419 1_655 S
C211 C212 1.363 . S
C211 H214 0.929 . S
C212 C211 1.363 . S
C212 C218 1.428 . S
H213 C209 0.930 . S
H214 C211 0.929 . S
S215 N216 1.599 1_665 S
S215 N217 1.595 1_565 S
N216 S215 1.599 1_445 S
N216 C219 1.350 . S
N217 S215 1.595 1_545 S
N217 C218 1.351 . S
C218 C212 1.428 . S
C218 N217 1.351 . S
C218 C219 1.434 1_655 S
C219 C210 1.429 . S
C219 N216 1.350 . S
C219 C218 1.434 1_455 S
C220 C221 1.369 . S
C220 C222 1.419 . S
C220 H224 0.930 . S
C221 C220 1.369 . S
C221 C230 1.429 1_554 S
C222 C220 1.419 . S
C222 C223 1.363 1_554 S
C222 H225 0.929 . S
C223 C222 1.363 1_556 S
C223 C229 1.428 . S
H224 C220 0.930 . S
H225 C222 0.929 . S
S226 N227 1.613 . S
S226 N228 1.610 . S
N227 S226 1.613 . S
N227 C230 1.350 . S
N228 S226 1.610 . S
N228 C229 1.351 . S
C229 C223 1.428 . S
C229 N228 1.351 . S
C229 C230 1.434 . S
C230 C221 1.429 1_556 S
C230 N227 1.350 . S
C230 C229 1.434 . S
C231 C232 1.369 . S
C231 C233 1.419 . S
C231 H235 0.930 . S
C232 C231 1.369 . S
C232 C241 1.429 . S
C233 C231 1.419 . S
C233 C234 1.363 . S
C233 H236 0.929 . S
C234 C233 1.363 . S
C234 C240 1.428 . S
H235 C231 0.930 . S
H236 C233 0.929 . S
S237 N238 1.613 . S
S237 N239 1.610 . S
N238 S237 1.613 . S
N238 C241 1.350 . S
N239 S237 1.610 . S
N239 C240 1.351 . S
C240 C234 1.428 . S
C240 N239 1.351 . S
C240 C241 1.434 . S
C241 C232 1.429 . S
C241 N238 1.350 . S
C241 C240 1.434 . S
C242 C243 1.369 1_556 S
C242 C244 1.419 . S
C242 H246 0.930 . S
C243 C242 1.369 1_554 S
C243 C252 1.429 . S
C244 C242 1.419 . S
C244 C245 1.363 . S
C244 H247 0.929 . S
C245 C244 1.363 . S
C245 C251 1.428 1_556 S
H246 C242 0.930 . S
H247 C244 0.929 . S
S248 N249 1.613 . S
S248 N250 1.610 . S
N249 S248 1.613 . S
N249 C252 1.350 . S
N250 S248 1.610 . S
N250 C251 1.351 . S
C251 C245 1.428 1_554 S
C251 N250 1.351 . S
C251 C252 1.434 . S
C252 C243 1.429 . S
C252 N249 1.350 . S
C252 C251 1.434 . S
C253 C254 1.369 . S
C253 C255 1.419 . S
C253 H257 0.930 . S
C254 C253 1.369 . S
C254 C263 1.429 . S
C255 C253 1.419 . S
C255 C256 1.363 . S
C255 H258 0.929 . S
C256 C255 1.363 . S
C256 C262 1.428 . S
H257 C253 0.930 . S
H258 C255 0.929 . S
S259 N260 1.613 . S
S259 N261 1.610 . S
N260 S259 1.613 . S
N260 C263 1.350 . S
N261 S259 1.610 . S
N261 C262 1.351 . S
C262 C256 1.428 . S
C262 N261 1.351 . S
C262 C263 1.434 . S
C263 C254 1.429 . S
C263 N260 1.350 . S
C263 C262 1.434 . S
C264 C265 1.369 . S
C264 C266 1.419 1_656 S
C264 H268 0.930 . S
C265 C264 1.369 . S
C265 C274 1.429 . S
C266 C264 1.419 1_454 S
C266 C267 1.363 . S
C266 H269 0.929 . S
C267 C266 1.363 . S
C267 C273 1.428 . S
H268 C264 0.930 . S
H269 C266 0.929 . S
S270 N271 1.613 . S
S270 N272 1.610 1_656 S
N271 S270 1.613 . S
N271 C274 1.350 . S
N272 S270 1.610 1_454 S
N272 C273 1.351 . S
C273 C267 1.428 . S
C273 N272 1.351 . S
C273 C274 1.434 1_454 S
C274 C265 1.429 . S
C274 N271 1.350 . S
C274 C273 1.434 1_656 S
C275 C276 1.369 . S
C275 C277 1.419 1_455 S
C275 H279 0.930 . S
C276 C275 1.369 . S
C276 C285 1.429 . S
C277 C275 1.419 1_655 S
C277 C278 1.363 . S
C277 H280 0.929 . S
C278 C277 1.363 . S
C278 C284 1.428 . S
H279 C275 0.930 . S
H280 C277 0.929 . S
S281 N282 1.613 . S
S281 N283 1.610 1_455 S
N282 S281 1.613 . S
N282 C285 1.350 . S
N283 S281 1.610 1_655 S
N283 C284 1.351 . S
C284 C278 1.428 . S
C284 N283 1.351 . S
C284 C285 1.434 1_655 S
C285 C276 1.429 . S
C285 N282 1.350 . S
C285 C284 1.434 1_455 S
C286 C287 1.369 1_556 S
C286 C288 1.419 . S
C286 H290 0.930 . S
C287 C286 1.369 1_554 S
C287 C296 1.429 1_565 S
C288 C286 1.419 . S
C288 C289 1.363 1_565 S
C288 H291 0.929 . S
C289 C288 1.363 1_545 S
C289 C295 1.428 1_556 S
H290 C286 0.930 . S
H291 C288 0.929 . S
S292 N293 1.613 . S
S292 N294 1.610 . S
N293 S292 1.613 . S
N293 C296 1.350 . S
N294 S292 1.610 . S
N294 C295 1.351 . S
C295 C289 1.428 1_554 S
C295 N294 1.351 . S
C295 C296 1.434 . S
C296 C287 1.429 1_545 S
C296 N293 1.350 . S
C296 C295 1.434 . S
C297 C298 1.369 . S
C297 C299 1.419 . S
C297 H301 0.930 . S
C298 C297 1.369 . S
C298 C307 1.426 1_565 S
C299 C297 1.419 . S
C299 C300 1.363 1_565 S
C299 H302 0.929 . S
C300 C299 1.363 1_545 S
C300 C306 1.428 . S
H301 C297 0.930 . S
H302 C299 0.929 . S
S303 N304 1.614 . S
S303 N305 1.610 . S
N304 S303 1.614 . S
N304 C307 1.350 . S
N305 S303 1.610 . S
N305 C306 1.351 . S
C306 C300 1.428 . S
C306 N305 1.351 . S
C306 C307 1.436 . S
C307 C298 1.426 1_545 S
C307 N304 1.350 . S
C307 C306 1.436 . S
C308 C309 1.369 1_655 S
C308 C310 1.419 . S
C308 H312 0.930 . S
C309 C308 1.369 1_455 S
C309 C318 1.429 . S
C310 C308 1.419 . S
C310 C311 1.363 . S
C310 H313 0.929 . S
C311 C310 1.363 . S
C311 C317 1.428 1_655 S
H312 C308 0.930 . S
H313 C310 0.929 . S
S314 N315 1.613 . S
S314 N316 1.610 . S
N315 S314 1.613 . S
N315 C318 1.350 . S
N316 S314 1.610 . S
N316 C317 1.351 . S
C317 C311 1.428 1_455 S
C317 N316 1.351 . S
C317 C318 1.434 . S
C318 C309 1.429 . S
C318 N315 1.350 . S
C318 C317 1.434 . S
C319 C320 1.369 . S
C319 C321 1.419 1_455 S
C319 H323 0.930 . S
C320 C319 1.369 . S
C320 C329 1.429 . S
C321 C319 1.419 1_655 S
C321 C322 1.363 . S
C321 H324 0.929 . S
C322 C321 1.363 . S
C322 C328 1.428 . S
H323 C319 0.930 . S
H324 C321 0.929 . S
S325 N326 1.613 1_655 S
S325 N327 1.610 . S
N326 S325 1.613 1_455 S
N326 C329 1.350 . S
N327 S325 1.610 . S
N327 C328 1.351 . S
C328 C322 1.428 . S
C328 N327 1.351 . S
C328 C329 1.434 1_655 S
C329 C320 1.429 . S
C329 N326 1.350 . S
C329 C328 1.434 1_455 S
C330 C331 1.369 . S
C330 C332 1.419 . S
C330 H334 0.930 . S
C331 C330 1.369 . S
C331 C340 1.429 . S
C332 C330 1.419 . S
C332 C333 1.363 . S
C332 H335 0.929 . S
C333 C332 1.363 . S
C333 C339 1.428 . S
H334 C330 0.930 . S
H335 C332 0.929 . S
S336 N337 1.613 . S
S336 N338 1.610 . S
N337 S336 1.613 . S
N337 C340 1.350 . S
N338 S336 1.610 . S
N338 C339 1.351 . S
C339 C333 1.428 . S
C339 N338 1.351 . S
C339 C340 1.434 . S
C340 C331 1.429 . S
C340 N337 1.350 . S
C340 C339 1.434 . S
C341 C342 1.369 . S
C341 C343 1.419 . S
C341 H345 0.930 . S
C342 C341 1.369 . S
C342 C351 1.429 . S
C343 C341 1.419 . S
C343 C344 1.363 . S
C343 H346 0.929 . S
C344 C343 1.363 . S
C344 C350 1.428 . S
H345 C341 0.930 . S
H346 C343 0.929 . S
S347 N348 1.613 . S
S347 N349 1.610 . S
N348 S347 1.613 . S
N348 C351 1.350 . S
N349 S347 1.610 . S
N349 C350 1.351 . S
C350 C344 1.428 . S
C350 N349 1.351 . S
C350 C351 1.434 . S
C351 C342 1.429 . S
C351 N348 1.350 . S
C351 C350 1.434 . S
C352 C353 1.369 . S
C352 C354 1.419 . S
C352 H356 0.930 . S
C353 C352 1.369 . S
C353 C362 1.429 . S
C354 C352 1.419 . S
C354 C355 1.363 . S
C354 H357 0.929 . S
C355 C354 1.363 . S
C355 C361 1.428 . S
H356 C352 0.930 . S
H357 C354 0.929 . S
S358 N359 1.613 . S
S358 N360 1.610 . S
N359 S358 1.613 . S
N359 C362 1.350 . S
N360 S358 1.610 . S
N360 C361 1.351 . S
C361 C355 1.428 . S
C361 N360 1.351 . S
C361 C362 1.434 . S
C362 C353 1.429 . S
C362 N359 1.350 . S
C362 C361 1.434 . S
C363 C364 1.369 . S
C363 C365 1.419 . S
C363 H367 0.930 . S
C364 C363 1.369 . S
C364 C373 1.429 . S
C365 C363 1.419 . S
C365 C366 1.363 . S
C365 H368 0.929 . S
C366 C365 1.363 . S
C366 C372 1.428 . S
H367 C363 0.930 . S
H368 C365 0.929 . S
S369 N370 1.613 . S
S369 N371 1.610 . S
N370 S369 1.613 . S
N370 C373 1.350 . S
N371 S369 1.610 . S
N371 C372 1.351 . S
C372 C366 1.428 . S
C372 N371 1.351 . S
C372 C373 1.434 . S
C373 C364 1.429 . S
C373 N370 1.350 . S
C373 C372 1.434 . S
C374 C375 1.369 . S
C374 C376 1.419 . S
C374 H378 0.930 . S
C375 C374 1.369 . S
C375 C384 1.429 . S
C376 C374 1.419 . S
C376 C377 1.363 . S
C376 H379 0.929 . S
C377 C376 1.363 . S
C377 C383 1.428 . S
H378 C374 0.930 . S
H379 C376 0.929 . S
S380 N381 1.613 . S
S380 N382 1.610 . S
N381 S380 1.613 . S
N381 C384 1.350 . S
N382 S380 1.610 . S
N382 C383 1.351 . S
C383 C377 1.428 . S
C383 N382 1.351 . S
C383 C384 1.434 . S
C384 C375 1.429 . S
C384 N381 1.350 . S
C384 C383 1.434 . S
C385 C386 1.369 . S
C385 C387 1.419 . S
C385 H389 0.930 . S
C386 C385 1.369 . S
C386 C395 1.429 . S
C387 C385 1.419 . S
C387 C388 1.363 . S
C387 H390 0.929 . S
C388 C387 1.363 . S
C388 C394 1.428 . S
H389 C385 0.930 . S
H390 C387 0.929 . S
S391 N392 1.613 . S
S391 N393 1.610 . S
N392 S391 1.613 . S
N392 C395 1.350 . S
N393 S391 1.610 . S
N393 C394 1.351 . S
C394 C388 1.428 . S
C394 N393 1.351 . S
C394 C395 1.434 . S
C395 C386 1.429 . S
C395 N392 1.350 . S
C395 C394 1.434 . S
C396 C397 1.369 . S
C396 C398 1.419 . S
C396 H400 0.930 . S
C397 C396 1.369 . S
C397 C406 1.429 . S
C398 C396 1.419 . S
C398 C399 1.363 1_565 S
C398 H401 0.929 . S
C399 C398 1.363 1_545 S
C399 C405 1.428 . S
H400 C396 0.930 . S
H401 C398 0.929 . S
S402 N403 1.615 . S
S402 N404 1.593 1_554 S
N403 S402 1.615 . S
N403 C406 1.350 1_544 S
N404 S402 1.593 1_556 S
N404 C405 1.351 . S
C405 C399 1.428 . S
C405 N404 1.351 . S
C405 C406 1.434 1_545 S
C406 C397 1.429 . S
C406 N403 1.350 1_566 S
C406 C405 1.434 1_565 S
C407 C408 1.369 . S
C407 C409 1.419 1_545 S
C407 H411 0.930 . S
C408 C407 1.369 . S
C408 C417 1.429 1_545 S
C409 C407 1.419 1_565 S
C409 C410 1.363 . S
C409 H412 0.929 . S
C410 C409 1.363 . S
C410 C416 1.428 . S
H411 C407 0.930 . S
H412 C409 0.929 . S
S413 N414 1.613 . S
S413 N415 1.610 . S
N414 S413 1.613 . S
N414 C417 1.350 . S
N415 S413 1.610 . S
N415 C416 1.351 . S
C416 C410 1.428 . S
C416 N415 1.351 . S
C416 C417 1.434 . S
C417 C408 1.429 1_565 S
C417 N414 1.350 . S
C417 C416 1.434 . S
C418 C419 1.369 . S
C418 C420 1.419 1_565 S
C418 H422 0.930 . S
C419 C418 1.369 . S
C419 C428 1.429 1_565 S
C420 C418 1.419 1_545 S
C420 C421 1.363 . S
C420 H423 0.929 . S
C421 C420 1.363 . S
C421 C427 1.428 . S
H422 C418 0.930 . S
H423 C420 0.929 . S
S424 N425 1.613 . S
S424 N426 1.610 . S
N425 S424 1.613 . S
N425 C428 1.350 . S
N426 S424 1.610 . S
N426 C427 1.351 . S
C427 C421 1.428 . S
C427 N426 1.351 . S
C427 C428 1.434 . S
C428 C419 1.429 1_545 S
C428 N425 1.350 . S
C428 C427 1.434 . S
C429 C430 1.369 . S
C429 C431 1.418 . S
C429 H433 0.930 . S
C430 C429 1.369 . S
C430 C439 1.429 . S
C431 C429 1.418 . S
C431 C432 1.363 1_545 S
C431 H434 0.929 1_545 S
C432 C431 1.363 1_565 S
C432 C438 1.428 1_565 S
H433 C429 0.930 . S
H434 C431 0.929 1_565 S
S435 N436 1.613 . S
S435 N437 1.610 1_545 S
N436 S435 1.613 . S
N436 C439 1.350 . S
N437 S435 1.610 1_565 S
N437 C438 1.351 1_565 S
C438 C432 1.428 1_545 S
C438 N437 1.351 1_545 S
C438 C439 1.434 . S
C439 C430 1.429 . S
C439 N436 1.350 . S
C439 C438 1.434 . S
C177 C27 1.425 . S
C179 C9 1.421 . S
C188 C51 1.424 . S
C190 C72 1.421 . S
C199 C115 1.428 . S
C201 C97 1.420 . S
C210 C139 1.423 . S
C212 C160 1.421 . S
C221 C8 1.617 . S
C223 C140 1.619 . S
C232 C26 1.618 . S
C234 C158 1.618 . S
C243 C96 1.620 . S
C245 C52 1.616 . S
C254 C70 1.620 . S
C256 C114 1.617 . S
C265 C50 1.059 . S
C267 C5 1.051 . S
C276 C73 1.048 . S
C278 C31 1.060 . S
C287 C93 1.062 . S
C289 C138 1.049 . S
C298 C119 1.059 . S
C300 C161 1.051 . S
C309 C4 1.856 . S
C311 C30 1.858 . S
C320 C74 1.858 . S
C322 C48 1.857 . S
C331 C118 1.856 . S
C333 C92 1.857 . S
C342 C162 1.855 . S
C344 C136 1.857 . S
C353 C7 1.314 . S
C355 C75 1.425 . S
C364 C28 1.309 . S
C366 C49 1.426 . S
C375 C29 1.428 . S
C377 C53 1.306 . S
C386 C6 1.424 . S
C388 C71 1.312 . S
C397 C95 1.300 . S
C399 C163 1.429 . S
C408 C137 1.425 . S
C410 C116 1.313 . S
C419 C117 1.424 . S
C421 C141 1.314 . S
C430 C159 1.314 . S
C432 C94 1.425 . S
