# Generated by pormake.
# Topology mer, (4)-cn, num edge types: 1
# Building blocks:
#     Node 0, Type 0, BuildingBlock: ESEHIV_clean_sbu_0, # of connection points: 4
#     Node 1, Type 0, BuildingBlock: ESEHIV_clean_sbu_0, # of connection points: 4
#     Node 2, Type 0, BuildingBlock: ESEHIV_clean_sbu_0, # of connection points: 4
#     Node 3, Type 0, BuildingBlock: ESEHIV_clean_sbu_0, # of connection points: 4
#     Node 4, Type 0, BuildingBlock: ESEHIV_clean_sbu_0, # of connection points: 4
#     Node 5, Type 0, BuildingBlock: ESEHIV_clean_sbu_0, # of connection points: 4
#     Node 6, Type 0, BuildingBlock: ESEHIV_clean_sbu_0, # of connection points: 4
#     Node 7, Type 0, BuildingBlock: ESEHIV_clean_sbu_0, # of connection points: 4
#     Node 8, Type 0, BuildingBlock: ESEHIV_clean_sbu_0, # of connection points: 4
#     Node 9, Type 0, BuildingBlock: ESEHIV_clean_sbu_0, # of connection points: 4
#     Node 10, Type 0, BuildingBlock: ESEHIV_clean_sbu_0, # of connection points: 4
#     Node 11, Type 0, BuildingBlock: ESEHIV_clean_sbu_0, # of connection points: 4
#     Node 12, Type 0, BuildingBlock: ESEHIV_clean_sbu_0, # of connection points: 4
#     Node 13, Type 0, BuildingBlock: ESEHIV_clean_sbu_0, # of connection points: 4
#     Node 14, Type 0, BuildingBlock: ESEHIV_clean_sbu_0, # of connection points: 4
#     Node 15, Type 0, BuildingBlock: ESEHIV_clean_sbu_0, # of connection points: 4
#     Node 16, Type 0, BuildingBlock: ESEHIV_clean_sbu_0, # of connection points: 4
#     Node 17, Type 0, BuildingBlock: ESEHIV_clean_sbu_0, # of connection points: 4
#     Node 18, Type 0, BuildingBlock: ESEHIV_clean_sbu_0, # of connection points: 4
#     Node 19, Type 0, BuildingBlock: ESEHIV_clean_sbu_0, # of connection points: 4
#     Node 20, Type 0, BuildingBlock: ESEHIV_clean_sbu_0, # of connection points: 4
#     Node 21, Type 0, BuildingBlock: ESEHIV_clean_sbu_0, # of connection points: 4
#     Node 22, Type 0, BuildingBlock: ESEHIV_clean_sbu_0, # of connection points: 4
#     Node 23, Type 0, BuildingBlock: ESEHIV_clean_sbu_0, # of connection points: 4
#     Node 24, Type 0, BuildingBlock: ESEHIV_clean_sbu_0, # of connection points: 4
#     Node 25, Type 0, BuildingBlock: ESEHIV_clean_sbu_0, # of connection points: 4
#     Node 26, Type 0, BuildingBlock: ESEHIV_clean_sbu_0, # of connection points: 4
#     Node 27, Type 0, BuildingBlock: ESEHIV_clean_sbu_0, # of connection points: 4
#     Node 28, Type 0, BuildingBlock: ESEHIV_clean_sbu_0, # of connection points: 4
#     Node 29, Type 0, BuildingBlock: ESEHIV_clean_sbu_0, # of connection points: 4
#     Node 30, Type 0, BuildingBlock: ESEHIV_clean_sbu_0, # of connection points: 4
#     Node 31, Type 0, BuildingBlock: ESEHIV_clean_sbu_0, # of connection points: 4
#     Edge 32, Type (0, 0), None
#     Edge 33, Type (0, 0), None
#     Edge 34, Type (0, 0), None
#     Edge 35, Type (0, 0), None
#     Edge 36, Type (0, 0), None
#     Edge 37, Type (0, 0), None
#     Edge 38, Type (0, 0), None
#     Edge 39, Type (0, 0), None
#     Edge 40, Type (0, 0), None
#     Edge 41, Type (0, 0), None
#     Edge 42, Type (0, 0), None
#     Edge 43, Type (0, 0), None
#     Edge 44, Type (0, 0), None
#     Edge 45, Type (0, 0), None
#     Edge 46, Type (0, 0), None
#     Edge 47, Type (0, 0), None
#     Edge 48, Type (0, 0), None
#     Edge 49, Type (0, 0), None
#     Edge 50, Type (0, 0), None
#     Edge 51, Type (0, 0), None
#     Edge 52, Type (0, 0), None
#     Edge 53, Type (0, 0), None
#     Edge 54, Type (0, 0), None
#     Edge 55, Type (0, 0), None
#     Edge 56, Type (0, 0), None
#     Edge 57, Type (0, 0), None
#     Edge 58, Type (0, 0), None
#     Edge 59, Type (0, 0), None
#     Edge 60, Type (0, 0), None
#     Edge 61, Type (0, 0), None
#     Edge 62, Type (0, 0), None
#     Edge 63, Type (0, 0), None
#     Edge 64, Type (0, 0), None
#     Edge 65, Type (0, 0), None
#     Edge 66, Type (0, 0), None
#     Edge 67, Type (0, 0), None
#     Edge 68, Type (0, 0), None
#     Edge 69, Type (0, 0), None
#     Edge 70, Type (0, 0), None
#     Edge 71, Type (0, 0), None
#     Edge 72, Type (0, 0), None
#     Edge 73, Type (0, 0), None
#     Edge 74, Type (0, 0), None
#     Edge 75, Type (0, 0), None
#     Edge 76, Type (0, 0), None
#     Edge 77, Type (0, 0), None
#     Edge 78, Type (0, 0), None
#     Edge 79, Type (0, 0), None
#     Edge 80, Type (0, 0), None
#     Edge 81, Type (0, 0), None
#     Edge 82, Type (0, 0), None
#     Edge 83, Type (0, 0), None
#     Edge 84, Type (0, 0), None
#     Edge 85, Type (0, 0), None
#     Edge 86, Type (0, 0), None
#     Edge 87, Type (0, 0), None
#     Edge 88, Type (0, 0), None
#     Edge 89, Type (0, 0), None
#     Edge 90, Type (0, 0), None
#     Edge 91, Type (0, 0), None
#     Edge 92, Type (0, 0), None
#     Edge 93, Type (0, 0), None
#     Edge 94, Type (0, 0), None
#     Edge 95, Type (0, 0), None
# Relax obj value: 0.089
# Max RMSD: 0.236
# Mean RMSD: 0.236
data_MOF--net-mer--node1-ESEHIV_clean_sbu_0--edge1-none
_symmetry_space_group_name_H-M    P1
_symmetry_Int_Tables_number       1
_symmetry_cell_setting            triclinic
loop_
_symmetry_equiv_pos_as_xyz
'x, y, z'
_cell_length_a     36.706906
_cell_length_b     36.71572
_cell_length_c     23.440651
_cell_angle_alpha  89.998339
_cell_angle_beta   89.999088
_cell_angle_gamma 89.999673
loop_
_atom_site_label
_atom_site_type_symbol
_atom_site_fract_x
_atom_site_fract_y
_atom_site_fract_z
_atom_type_partial_charge
Cu0 Cu 0.14543 0.28979 0.4206 0.0
N1 N 0.15455 0.24076 0.40596 0.0
N2 N 0.18343 0.18827 0.39141 0.0
C3 C 0.18715 0.22403 0.40338 0.0
C4 C 0.14738 0.18216 0.38628 0.0
C5 C 0.1296 0.21471 0.39535 0.0
O6 O 0.18082 0.31941 0.38114 0.0
C7 C 0.15461 0.33042 0.52259 0.0
O8 O 0.15955 0.35816 0.4881 0.0
H9 H 0.21282 0.23779 0.41036 0.0
H10 H 0.10047 0.21908 0.39463 0.0
N11 N 0.09862 0.30113 0.3949 0.0
N12 N 0.04027 0.31773 0.39563 0.0
C13 C 0.07176 0.31679 0.42532 0.0
C14 C 0.08348 0.29196 0.34449 0.0
C15 C 0.04733 0.30214 0.34482 0.0
C16 C 0.18485 0.31707 0.32747 0.0
O17 O 0.16531 0.29371 0.29817 0.0
H18 H 0.07483 0.32553 0.46912 0.0
H19 H 0.09723 0.27729 0.31083 0.0
O20 O 0.14846 0.2989 0.50207 0.0
H21 H 0.13476 0.15613 0.37749 0.0
H22 H 0.02763 0.29729 0.31135 0.0
Cu23 Cu 0.73686 0.14528 0.4208 0.0
N24 N 0.78591 0.15442 0.40628 0.0
N25 N 0.8384 0.18332 0.39177 0.0
C26 C 0.80261 0.18702 0.40359 0.0
C27 C 0.84456 0.14727 0.38684 0.0
C28 C 0.812 0.12948 0.39589 0.0
O29 O 0.70726 0.18071 0.38136 0.0
C30 C 0.69616 0.15447 0.52276 0.0
O31 O 0.66844 0.15951 0.48825 0.0
H32 H 0.78881 0.21269 0.4104 0.0
H33 H 0.80767 0.10035 0.39531 0.0
N34 N 0.72555 0.09851 0.39494 0.0
N35 N 0.70885 0.0402 0.39538 0.0
C36 C 0.70972 0.07165 0.42514 0.0
C37 C 0.73491 0.0834 0.3446 0.0
C38 C 0.72467 0.04728 0.34475 0.0
C39 C 0.70959 0.18472 0.32769 0.0
O40 O 0.73292 0.16515 0.29838 0.0
H41 H 0.7008 0.07471 0.46886 0.0
H42 H 0.74974 0.09716 0.31111 0.0
O43 O 0.72768 0.14824 0.50226 0.0
H44 H 0.87062 0.13467 0.37822 0.0
H45 H 0.72964 0.0276 0.31129 0.0
Cu46 Cu 0.88123 0.73687 0.42053 0.0
N47 N 0.8721 0.78591 0.40602 0.0
N48 N 0.84322 0.83841 0.39153 0.0
C49 C 0.8395 0.80262 0.40329 0.0
C50 C 0.87928 0.84456 0.38669 0.0
C51 C 0.89706 0.812 0.39572 0.0
O52 O 0.84583 0.70727 0.38105 0.0
C53 C 0.87202 0.69615 0.52245 0.0
O54 O 0.86703 0.66845 0.48792 0.0
H55 H 0.81382 0.78883 0.41004 0.0
H56 H 0.9262 0.80765 0.3952 0.0
N57 N 0.92803 0.72557 0.39474 0.0
N58 N 0.98637 0.70892 0.39527 0.0
C59 C 0.95489 0.70977 0.42498 0.0
C60 C 0.94318 0.73493 0.34441 0.0
C61 C 0.97931 0.72472 0.34462 0.0
C62 C 0.84187 0.70954 0.32736 0.0
O63 O 0.86149 0.73282 0.29803 0.0
H64 H 0.95181 0.70086 0.46871 0.0
H65 H 0.92943 0.74975 0.3109 0.0
O66 O 0.87823 0.72768 0.50199 0.0
H67 H 0.8919 0.87061 0.37814 0.0
H68 H 0.99901 0.7297 0.31119 0.0
Cu69 Cu 0.28984 0.88119 0.4204 0.0
N70 N 0.24079 0.87206 0.40581 0.0
N71 N 0.1883 0.84317 0.39129 0.0
C72 C 0.22408 0.83946 0.40319 0.0
C73 C 0.18216 0.87922 0.38624 0.0
C74 C 0.21473 0.897 0.39529 0.0
O75 O 0.31946 0.84579 0.38092 0.0
C76 C 0.33053 0.87199 0.52235 0.0
O77 O 0.35826 0.86704 0.48783 0.0
H78 H 0.23785 0.8138 0.4101 0.0
H79 H 0.21908 0.92613 0.39463 0.0
N80 N 0.30116 0.92799 0.39467 0.0
N81 N 0.31776 0.98632 0.39535 0.0
C82 C 0.31685 0.95484 0.42504 0.0
C83 C 0.29193 0.94312 0.34429 0.0
C84 C 0.30211 0.97926 0.34459 0.0
C85 C 0.31712 0.84178 0.32725 0.0
O86 O 0.29378 0.86134 0.29794 0.0
H87 H 0.32565 0.95177 0.46883 0.0
H88 H 0.27722 0.92937 0.31066 0.0
O89 O 0.29899 0.87816 0.50186 0.0
H90 H 0.15612 0.89183 0.37753 0.0
H91 H 0.29721 0.99896 0.31113 0.0
Cu92 Cu 0.14552 0.73691 0.7046 0.0
N93 N 0.15464 0.78595 0.71911 0.0
N94 N 0.18349 0.83846 0.73359 0.0
C95 C 0.18724 0.80267 0.7219 0.0
C96 C 0.14742 0.84461 0.73831 0.0
C97 C 0.12967 0.81204 0.72928 0.0
O98 O 0.18093 0.70731 0.74408 0.0
C99 C 0.15479 0.69623 0.60265 0.0
O100 O 0.15982 0.66852 0.63717 0.0
H101 H 0.21293 0.78888 0.71524 0.0
H102 H 0.10053 0.8077 0.7297 0.0
N103 N 0.09872 0.72561 0.7304 0.0
N104 N 0.0404 0.7089 0.72991 0.0
C105 C 0.07189 0.70971 0.70022 0.0
C106 C 0.08355 0.73507 0.78066 0.0
C107 C 0.04743 0.72481 0.78048 0.0
C108 C 0.18479 0.7095 0.7978 0.0
O109 O 0.16508 0.73269 0.82714 0.0
H110 H 0.07499 0.70072 0.65654 0.0
H111 H 0.09727 0.74998 0.81409 0.0
O112 O 0.14853 0.72774 0.62314 0.0
H113 H 0.13479 0.87067 0.74676 0.0
H114 H 0.02772 0.72985 0.81387 0.0
Cu115 Cu 0.28964 0.14537 0.70478 0.0
N116 N 0.24058 0.15449 0.71928 0.0
N117 N 0.18807 0.18335 0.73376 0.0
C118 C 0.22387 0.18708 0.72209 0.0
C119 C 0.1819 0.14729 0.73847 0.0
C120 C 0.21448 0.12952 0.72944 0.0
O121 O 0.31924 0.18076 0.7443 0.0
C122 C 0.33035 0.15467 0.60285 0.0
O123 O 0.35806 0.15969 0.63738 0.0
H124 H 0.23767 0.21276 0.71544 0.0
H125 H 0.21881 0.10039 0.72985 0.0
N126 N 0.30094 0.09857 0.73053 0.0
N127 N 0.31768 0.04027 0.73 0.0
C128 C 0.31686 0.07176 0.70034 0.0
C129 C 0.29146 0.08338 0.78077 0.0
C130 C 0.30173 0.04727 0.78055 0.0
C131 C 0.31705 0.1846 0.79801 0.0
O132 O 0.29387 0.16487 0.82735 0.0
H133 H 0.32588 0.07488 0.65667 0.0
H134 H 0.27653 0.09707 0.8142 0.0
O135 O 0.29882 0.14841 0.62333 0.0
H136 H 0.15583 0.13466 0.74691 0.0
H137 H 0.29669 0.02754 0.81392 0.0
Cu138 Cu 0.88113 0.2895 0.70503 0.0
N139 N 0.87202 0.24045 0.71953 0.0
N140 N 0.84318 0.18793 0.73398 0.0
C141 C 0.83943 0.22373 0.72232 0.0
C142 C 0.87926 0.18179 0.7387 0.0
C143 C 0.89701 0.21437 0.72969 0.0
O144 O 0.84573 0.31909 0.74454 0.0
C145 C 0.87185 0.33022 0.60312 0.0
O146 O 0.86685 0.35792 0.63766 0.0
H147 H 0.81374 0.23751 0.71565 0.0
H148 H 0.92615 0.21872 0.7301 0.0
N149 N 0.92794 0.30081 0.73077 0.0
N150 N 0.98625 0.31755 0.73021 0.0
C151 C 0.95475 0.31672 0.70056 0.0
C152 C 0.94313 0.29137 0.78102 0.0
C153 C 0.97925 0.30163 0.78079 0.0
C154 C 0.84188 0.31691 0.79826 0.0
O155 O 0.8616 0.29372 0.8276 0.0
H156 H 0.95163 0.32572 0.65688 0.0
H157 H 0.92944 0.27645 0.81447 0.0
O158 O 0.87809 0.2987 0.62358 0.0
H159 H 0.8919 0.15573 0.74713 0.0
H160 H 0.99898 0.29661 0.81416 0.0
Cu161 Cu 0.73696 0.88107 0.70473 0.0
N162 N 0.78602 0.87195 0.71919 0.0
N163 N 0.83854 0.8431 0.73368 0.0
C164 C 0.80273 0.83936 0.722 0.0
C165 C 0.84469 0.87916 0.73839 0.0
C166 C 0.81212 0.89692 0.72935 0.0
O167 O 0.70738 0.84563 0.74419 0.0
C168 C 0.69623 0.87184 0.6028 0.0
O169 O 0.66853 0.86677 0.63733 0.0
H170 H 0.78893 0.81368 0.71535 0.0
H171 H 0.80777 0.92605 0.72977 0.0
N172 N 0.72565 0.92783 0.73061 0.0
N173 N 0.70891 0.98613 0.73024 0.0
C174 C 0.70972 0.95467 0.7005 0.0
C175 C 0.73514 0.94297 0.78088 0.0
C176 C 0.72487 0.97908 0.78077 0.0
C177 C 0.70963 0.84171 0.79789 0.0
O178 O 0.73286 0.86137 0.82722 0.0
H179 H 0.70069 0.9516 0.65683 0.0
H180 H 0.75008 0.92923 0.81427 0.0
O181 O 0.72775 0.8781 0.62327 0.0
H182 H 0.87076 0.89179 0.74683 0.0
H183 H 0.72992 0.99877 0.81418 0.0
Cu184 Cu 0.89706 0.71409 0.69554 0.0
N185 N 0.89154 0.7613 0.72351 0.0
N186 N 0.8648 0.8151 0.73676 0.0
C187 C 0.85988 0.7798 0.72301 0.0
C188 C 0.90076 0.81915 0.74644 0.0
C189 C 0.91726 0.78584 0.73792 0.0
O190 O 0.86781 0.68059 0.74119 0.0
C191 C 0.87468 0.69018 0.5843 0.0
O192 O 0.87471 0.657 0.60518 0.0
H193 H 0.83428 0.76803 0.70949 0.0
H194 H 0.9462 0.78068 0.73875 0.0
N195 N 0.94599 0.69986 0.69387 0.0
N196 N 1.00592 0.69862 0.70887 0.0
C197 C 0.97321 0.7089 0.72975 0.0
C198 C 0.96219 0.68273 0.64975 0.0
C199 C 0.99922 0.68201 0.65876 0.0
C200 C 0.86953 0.68092 0.79554 0.0
O201 O 0.89183 0.70362 0.82113 0.0
H202 H 0.96934 0.72441 0.76848 0.0
H203 H 0.9483 0.67314 0.61201 0.0
O204 O 0.88152 0.71707 0.61661 0.0
H205 H 0.91438 0.84453 0.75615 0.0
H206 H 0.0196 0.67163 0.62964 0.0
Cu207 Cu 0.31254 0.89698 0.69545 0.0
N208 N 0.2653 0.89146 0.72339 0.0
N209 N 0.21149 0.86473 0.73664 0.0
C210 C 0.2468 0.8598 0.72295 0.0
C211 C 0.20742 0.90069 0.74623 0.0
C212 C 0.24074 0.91718 0.7377 0.0
O213 O 0.34602 0.8677 0.74107 0.0
C214 C 0.33648 0.87464 0.5842 0.0
O215 O 0.36966 0.87467 0.60511 0.0
H216 H 0.2586 0.8342 0.7095 0.0
H217 H 0.2459 0.94612 0.73846 0.0
N218 N 0.32678 0.9459 0.69386 0.0
N219 N 0.32798 1.0058 0.70893 0.0
C220 C 0.3177 0.97309 0.72976 0.0
C221 C 0.34393 0.96212 0.64978 0.0
C222 C 0.34463 0.99914 0.65884 0.0
C223 C 0.34568 0.86939 0.79542 0.0
O224 O 0.32299 0.89169 0.82104 0.0
H225 H 0.30216 0.9692 0.76845 0.0
H226 H 0.35354 0.94825 0.61203 0.0
O227 O 0.30957 0.88148 0.61649 0.0
H228 H 0.18203 0.91431 0.75587 0.0
H229 H 0.35502 0.01953 0.62975 0.0
Cu230 Cu 0.12957 0.31238 0.69566 0.0
N231 N 0.13509 0.26516 0.72359 0.0
N232 N 0.16181 0.21135 0.73682 0.0
C233 C 0.16674 0.24665 0.72313 0.0
C234 C 0.12584 0.20729 0.74643 0.0
C235 C 0.10935 0.24061 0.73791 0.0
O236 O 0.15886 0.34585 0.74129 0.0
C237 C 0.15194 0.33635 0.58444 0.0
O238 O 0.1519 0.36952 0.60538 0.0
H239 H 0.19235 0.25843 0.70967 0.0
H240 H 0.08041 0.24578 0.73868 0.0
N241 N 0.08064 0.32662 0.69405 0.0
N242 N 0.02073 0.32784 0.70913 0.0
C243 C 0.05344 0.31757 0.72997 0.0
C244 C 0.06442 0.34375 0.64996 0.0
C245 C 0.02739 0.34447 0.65902 0.0
C246 C 0.15714 0.34554 0.79564 0.0
O247 O 0.13482 0.32287 0.82125 0.0
H248 H 0.05734 0.30205 0.76868 0.0
H249 H 0.07829 0.35335 0.6122 0.0
O250 O 0.1451 0.30943 0.61671 0.0
H251 H 0.1122 0.18191 0.75608 0.0
H252 H 1.007 0.35485 0.62993 0.0
Cu253 Cu 0.71414 0.12943 0.69585 0.0
N254 N 0.76138 0.13493 0.72376 0.0
N255 N 0.81519 0.16166 0.73701 0.0
C256 C 0.77987 0.16659 0.72338 0.0
C257 C 0.81928 0.12569 0.7465 0.0
C258 C 0.78596 0.10919 0.73797 0.0
O259 O 0.68069 0.15874 0.74148 0.0
C260 C 0.69021 0.15181 0.58461 0.0
O261 O 0.65702 0.15185 0.60553 0.0
H262 H 0.76807 0.1922 0.71002 0.0
H263 H 0.78081 0.08026 0.73864 0.0
N264 N 0.69985 0.08053 0.69427 0.0
N265 N 0.69861 0.02062 0.70927 0.0
C266 C 0.70896 0.05331 0.7301 0.0
C267 C 0.6826 0.06435 0.65025 0.0
C268 C 0.68187 0.02733 0.65926 0.0
C269 C 0.68102 0.15702 0.79583 0.0
O270 O 0.70368 0.13469 0.82142 0.0
H271 H 0.72458 0.05716 0.76872 0.0
H272 H 0.67292 0.07825 0.61257 0.0
O273 O 0.7171 0.14493 0.61689 0.0
H274 H 0.84468 0.11206 0.75606 0.0
H275 H 0.6714 1.00697 0.6302 0.0
Cu276 Cu 0.89692 0.31232 0.43005 0.0
N277 N 0.89137 0.26513 0.40199 0.0
N278 N 0.86464 0.21134 0.38869 0.0
C279 C 0.85973 0.2466 0.40267 0.0
C280 C 0.90057 0.20734 0.37866 0.0
C281 C 0.91707 0.24065 0.3872 0.0
O282 O 0.86773 0.34587 0.38441 0.0
C283 C 0.87449 0.3362 0.54128 0.0
O284 O 0.87456 0.36939 0.52041 0.0
H285 H 0.83417 0.25832 0.41646 0.0
H286 H 0.94599 0.24587 0.38608 0.0
N287 N 0.94586 0.32651 0.43184 0.0
N288 N 1.00578 0.32785 0.41682 0.0
C289 C 0.97308 0.31762 0.39586 0.0
C290 C 0.96206 0.34348 0.47611 0.0
C291 C 0.99908 0.34427 0.46708 0.0
C292 C 0.86946 0.34556 0.33006 0.0
O293 O 0.89175 0.32285 0.30447 0.0
H294 H 0.96922 0.30227 0.35698 0.0
H295 H 0.94816 0.35293 0.51394 0.0
O296 O 0.88132 0.30931 0.50896 0.0
H297 H 0.91417 0.18201 0.36864 0.0
H298 H 0.01946 0.35457 0.49628 0.0
Cu299 Cu 0.71416 0.89689 0.4297 0.0
N300 N 0.76139 0.89138 0.40174 0.0
N301 N 0.81521 0.86466 0.38848 0.0
C302 C 0.77991 0.85973 0.40224 0.0
C303 C 0.81925 0.90061 0.37879 0.0
C304 C 0.78593 0.9171 0.38731 0.0
O305 O 0.68067 0.86762 0.38407 0.0
C306 C 0.69026 0.87449 0.54095 0.0
O307 O 0.65707 0.87446 0.52006 0.0
H308 H 0.76814 0.83414 0.41577 0.0
H309 H 0.78075 0.94603 0.38647 0.0
N310 N 0.6999 0.9458 0.43136 0.0
N311 N 0.69861 1.00571 0.4164 0.0
C312 C 0.70893 0.97303 0.39551 0.0
C313 C 0.68273 0.96197 0.47547 0.0
C314 C 0.68197 0.99899 0.46648 0.0
C315 C 0.68099 0.86935 0.32972 0.0
O316 O 0.70367 0.89167 0.30413 0.0
H317 H 0.72447 0.96919 0.3568 0.0
H318 H 0.67312 0.94805 0.51319 0.0
O319 O 0.71715 0.88136 0.50865 0.0
H320 H 0.84463 0.91424 0.36905 0.0
H321 H 0.67155 0.01934 0.4956 0.0
Cu322 Cu 0.12973 0.71418 0.42958 0.0
N323 N 0.13529 0.76138 0.40155 0.0
N324 N 0.16204 0.81517 0.38825 0.0
C325 C 0.16694 0.7799 0.40216 0.0
C326 C 0.1261 0.81919 0.37834 0.0
C327 C 0.10959 0.78589 0.3869 0.0
O328 O 0.15896 0.68064 0.38396 0.0
C329 C 0.15214 0.69027 0.5408 0.0
O330 O 0.15212 0.65709 0.5199 0.0
H331 H 0.19251 0.76815 0.41585 0.0
H332 H 0.08066 0.78071 0.38589 0.0
N333 N 0.08079 0.69998 0.43131 0.0
N334 N 0.02087 0.69871 0.41635 0.0
C335 C 0.05356 0.70897 0.39541 0.0
C336 C 0.06461 0.68291 0.47549 0.0
C337 C 0.02758 0.68217 0.4665 0.0
C338 C 0.15722 0.68094 0.32961 0.0
O339 O 0.13491 0.70362 0.304 0.0
H340 H 0.05742 0.72441 0.35662 0.0
H341 H 0.07851 0.67337 0.51326 0.0
O342 O 0.14529 0.71717 0.50851 0.0
H343 H 0.1125 0.84455 0.36842 0.0
H344 H 1.00721 0.67181 0.49567 0.0
Cu345 Cu 0.31241 0.12965 0.42977 0.0
N346 N 0.26521 0.13524 0.40171 0.0
N347 N 0.21143 0.16201 0.38837 0.0
C348 C 0.2467 0.16688 0.40239 0.0
C349 C 0.20741 0.1261 0.37832 0.0
C350 C 0.24071 0.10957 0.3869 0.0
O351 O 0.34598 0.15885 0.38417 0.0
C352 C 0.33631 0.15204 0.541 0.0
O353 O 0.36951 0.152 0.52012 0.0
H354 H 0.25845 0.19243 0.41619 0.0
H355 H 0.2459 0.08065 0.38576 0.0
N356 N 0.32659 0.08072 0.43152 0.0
N357 N 0.32791 0.02081 0.41651 0.0
C358 C 0.31766 0.0535 0.39557 0.0
C359 C 0.3436 0.06452 0.47576 0.0
C360 C 0.34437 0.0275 0.46674 0.0
C361 C 0.34568 0.15713 0.32982 0.0
O362 O 0.32296 0.13486 0.30421 0.0
H363 H 0.30227 0.05736 0.35672 0.0
H364 H 0.35309 0.07841 0.51356 0.0
O365 O 0.30941 0.14521 0.5087 0.0
H366 H 0.18206 0.11252 0.36827 0.0
H367 H 0.3547 1.00713 0.49592 0.0
Cu368 Cu 0.64547 0.78958 0.9205 0.0
N369 N 0.65461 0.74054 0.90598 0.0
N370 N 0.68349 0.68804 0.89151 0.0
C371 C 0.68721 0.72383 0.90329 0.0
C372 C 0.64743 0.68189 0.88662 0.0
C373 C 0.62965 0.71446 0.89564 0.0
O374 O 0.68088 0.81918 0.88101 0.0
C375 C 0.65469 0.83029 1.02242 0.0
O376 O 0.65969 0.85799 0.98789 0.0
H377 H 0.71289 0.73761 0.91008 0.0
H378 H 0.60051 0.7188 0.89508 0.0
N379 N 0.59867 0.80088 0.89472 0.0
N380 N 0.54034 0.81753 0.89528 0.0
C381 C 0.57181 0.81667 0.92499 0.0
C382 C 0.58353 0.79154 0.84439 0.0
C383 C 0.54739 0.80176 0.84461 0.0
C384 C 0.68484 0.8169 0.82733 0.0
O385 O 0.66524 0.79361 0.79801 0.0
H386 H 0.57489 0.82556 0.96872 0.0
H387 H 0.59728 0.77675 0.81086 0.0
O388 O 0.64848 0.79876 1.00195 0.0
H389 H 0.63481 0.65584 0.87805 0.0
H390 H 0.52769 0.7968 0.81118 0.0
Cu391 Cu 0.23686 0.64528 0.92038 0.0
N392 N 0.2859 0.65441 0.90579 0.0
N393 N 0.3384 0.68329 0.89127 0.0
C394 C 0.30262 0.687 0.90319 0.0
C395 C 0.34453 0.64725 0.88619 0.0
C396 C 0.31196 0.62947 0.89524 0.0
O397 O 0.20724 0.68067 0.88091 0.0
C398 C 0.19617 0.65448 1.02234 0.0
O399 O 0.16844 0.65943 0.98783 0.0
H400 H 0.28885 0.71266 0.91012 0.0
H401 H 0.30761 0.60034 0.89456 0.0
N402 N 0.22553 0.59848 0.89467 0.0
N403 N 0.20893 0.54014 0.89536 0.0
C404 C 0.20984 0.57162 0.92505 0.0
C405 C 0.23475 0.58334 0.84427 0.0
C406 C 0.22457 0.5472 0.84459 0.0
C407 C 0.20958 0.68469 0.82724 0.0
O408 O 0.23293 0.66515 0.79793 0.0
H409 H 0.20106 0.5747 0.96884 0.0
H410 H 0.24944 0.5971 0.81064 0.0
O411 O 0.22771 0.64831 1.00185 0.0
H412 H 0.37057 0.63464 0.87746 0.0
H413 H 0.22945 0.52751 0.81112 0.0
Cu414 Cu 0.38126 0.23668 0.92059 0.0
N415 N 0.37214 0.28571 0.90594 0.0
N416 N 0.34326 0.33819 0.89139 0.0
C417 C 0.33954 0.30243 0.90337 0.0
C418 C 0.37931 0.34431 0.88625 0.0
C419 C 0.39709 0.31175 0.89532 0.0
O420 O 0.34587 0.20705 0.88113 0.0
C421 C 0.37208 0.19604 1.02258 0.0
O422 O 0.36713 0.16831 0.98809 0.0
H423 H 0.31387 0.28868 0.91036 0.0
H424 H 0.42622 0.30738 0.89459 0.0
N425 N 0.42807 0.22533 0.89489 0.0
N426 N 0.48642 0.20873 0.89562 0.0
C427 C 0.45493 0.20967 0.9253 0.0
C428 C 0.44321 0.2345 0.84448 0.0
C429 C 0.47936 0.22432 0.84481 0.0
C430 C 0.34185 0.20939 0.82746 0.0
O431 O 0.36138 0.23275 0.79816 0.0
H432 H 0.45186 0.20093 0.96911 0.0
H433 H 0.42946 0.24917 0.81082 0.0
O434 O 0.37823 0.22757 1.00206 0.0
H435 H 0.39192 0.37033 0.87746 0.0
H436 H 0.49906 0.22917 0.81134 0.0
Cu437 Cu 0.78984 0.38115 0.92082 0.0
N438 N 0.74079 0.37202 0.90629 0.0
N439 N 0.6883 0.34312 0.89176 0.0
C440 C 0.72409 0.33942 0.9036 0.0
C441 C 0.68214 0.37917 0.88683 0.0
C442 C 0.7147 0.39696 0.89588 0.0
O443 O 0.81944 0.34573 0.88138 0.0
C444 C 0.83054 0.37196 1.02277 0.0
O445 O 0.85826 0.36693 0.98826 0.0
H446 H 0.73788 0.31375 0.91042 0.0
H447 H 0.71904 0.42609 0.8953 0.0
N448 N 0.80116 0.42793 0.89497 0.0
N449 N 0.81785 0.48624 0.89543 0.0
C450 C 0.81697 0.45478 0.92519 0.0
C451 C 0.79182 0.44304 0.84462 0.0
C452 C 0.80205 0.47916 0.84478 0.0
C453 C 0.8171 0.34171 0.82771 0.0
O454 O 0.79376 0.36128 0.7984 0.0
H455 H 0.82588 0.45173 0.96892 0.0
H456 H 0.777 0.42928 0.81112 0.0
O457 O 0.79901 0.37819 1.00228 0.0
H458 H 0.65609 0.39177 0.87819 0.0
H459 H 0.79709 0.49884 0.81132 0.0
Cu460 Cu 0.64556 0.23693 0.20501 0.0
N461 N 0.65467 0.28598 0.21951 0.0
N462 N 0.68351 0.3385 0.23398 0.0
C463 C 0.68726 0.3027 0.22231 0.0
C464 C 0.64743 0.34464 0.23871 0.0
C465 C 0.62968 0.31206 0.22969 0.0
O466 O 0.68096 0.20734 0.24453 0.0
C467 C 0.65484 0.19622 0.1031 0.0
O468 O 0.65983 0.16852 0.13765 0.0
H469 H 0.71295 0.28892 0.21564 0.0
H470 H 0.60054 0.30771 0.2301 0.0
N471 N 0.59875 0.22562 0.23075 0.0
N472 N 0.54043 0.20889 0.2302 0.0
C473 C 0.57193 0.20972 0.20054 0.0
C474 C 0.58356 0.23506 0.28101 0.0
C475 C 0.54744 0.2248 0.28078 0.0
C476 C 0.68481 0.20953 0.29825 0.0
O477 O 0.6651 0.23272 0.32758 0.0
H478 H 0.57505 0.20073 0.15686 0.0
H479 H 0.59726 0.24997 0.31446 0.0
O480 O 0.6486 0.22774 0.12356 0.0
H481 H 0.63479 0.3707 0.24715 0.0
H482 H 0.52771 0.22982 0.31415 0.0
Cu483 Cu 0.78975 0.64538 0.20477 0.0
N484 N 0.74069 0.6545 0.21925 0.0
N485 N 0.68817 0.68335 0.23372 0.0
C486 C 0.72398 0.68708 0.22201 0.0
C487 C 0.68202 0.64729 0.23849 0.0
C488 C 0.7146 0.62953 0.22947 0.0
O489 O 0.81934 0.68081 0.24423 0.0
C490 C 0.83047 0.65461 0.10284 0.0
O491 O 0.85818 0.65967 0.13736 0.0
H492 H 0.73777 0.71276 0.21532 0.0
H493 H 0.71895 0.6004 0.22993 0.0
N494 N 0.80106 0.59861 0.23064 0.0
N495 N 0.81779 0.5403 0.23024 0.0
C496 C 0.81697 0.57177 0.2005 0.0
C497 C 0.79161 0.58347 0.28093 0.0
C498 C 0.80187 0.54736 0.2808 0.0
C499 C 0.81708 0.68474 0.29793 0.0
O500 O 0.79384 0.66508 0.32726 0.0
H501 H 0.82597 0.57484 0.15682 0.0
H502 H 0.77669 0.59721 0.31434 0.0
O503 O 0.79895 0.64835 0.12332 0.0
H504 H 0.65596 0.63466 0.24697 0.0
H505 H 0.79683 0.52767 0.31422 0.0
Cu506 Cu 0.38118 0.78956 0.20461 0.0
N507 N 0.37206 0.74052 0.21913 0.0
N508 N 0.34321 0.68801 0.23361 0.0
C509 C 0.33946 0.7238 0.22191 0.0
C510 C 0.37927 0.68186 0.23837 0.0
C511 C 0.39703 0.71444 0.22935 0.0
O512 O 0.34577 0.81917 0.2441 0.0
C513 C 0.37191 0.83024 0.10266 0.0
O514 O 0.36688 0.85795 0.13717 0.0
H515 H 0.31377 0.73759 0.21521 0.0
H516 H 0.42617 0.71878 0.22979 0.0
N517 N 0.42798 0.80086 0.23039 0.0
N518 N 0.4863 0.81756 0.22988 0.0
C519 C 0.45482 0.81674 0.20018 0.0
C520 C 0.44315 0.79143 0.28067 0.0
C521 C 0.47927 0.80168 0.28047 0.0
C522 C 0.34191 0.81697 0.29781 0.0
O523 O 0.3616 0.79377 0.32715 0.0
H524 H 0.45172 0.82571 0.1565 0.0
H525 H 0.42943 0.77654 0.31412 0.0
O526 O 0.37816 0.79873 0.12315 0.0
H527 H 0.39191 0.65581 0.24685 0.0
H528 H 0.49898 0.79665 0.31386 0.0
Cu529 Cu 0.23706 0.3811 0.20478 0.0
N530 N 0.28611 0.37197 0.21928 0.0
N531 N 0.33863 0.34311 0.23376 0.0
C532 C 0.30282 0.33938 0.22208 0.0
C533 C 0.34479 0.37917 0.23847 0.0
C534 C 0.31222 0.39694 0.22944 0.0
O535 O 0.20746 0.34571 0.2443 0.0
C536 C 0.19635 0.37179 0.10286 0.0
O537 O 0.16864 0.36678 0.13739 0.0
H538 H 0.28902 0.3137 0.21543 0.0
H539 H 0.30788 0.42607 0.22985 0.0
N540 N 0.22576 0.4279 0.23053 0.0
N541 N 0.20902 0.4862 0.22999 0.0
C542 C 0.20984 0.4547 0.20033 0.0
C543 C 0.23523 0.44309 0.28076 0.0
C544 C 0.22496 0.4792 0.28055 0.0
C545 C 0.20964 0.34187 0.29802 0.0
O546 O 0.23283 0.36159 0.32735 0.0
H547 H 0.20082 0.45158 0.15666 0.0
H548 H 0.25016 0.42939 0.3142 0.0
O549 O 0.22787 0.37805 0.12333 0.0
H550 H 0.37086 0.3918 0.2469 0.0
H551 H 0.23001 0.49892 0.31391 0.0
Cu552 Cu 0.39712 0.21408 0.19564 0.0
N553 N 0.39161 0.2613 0.22357 0.0
N554 N 0.36489 0.31511 0.23681 0.0
C555 C 0.35995 0.27981 0.22312 0.0
C556 C 0.40086 0.31916 0.24641 0.0
C557 C 0.41734 0.28585 0.2379 0.0
O558 O 0.36783 0.18061 0.24128 0.0
C559 C 0.37474 0.19012 0.08443 0.0
O560 O 0.37478 0.15694 0.10537 0.0
H561 H 0.33434 0.26803 0.20966 0.0
H562 H 0.44628 0.28068 0.23867 0.0
N563 N 0.44604 0.19984 0.19403 0.0
N564 N 0.50596 0.19861 0.20911 0.0
C565 C 0.47324 0.20888 0.22995 0.0
C566 C 0.46227 0.18271 0.14994 0.0
C567 C 0.49929 0.18199 0.159 0.0
C568 C 0.36954 0.18093 0.29563 0.0
O569 O 0.39186 0.2036 0.32124 0.0
H570 H 0.46935 0.2244 0.26866 0.0
H571 H 0.44839 0.17311 0.11218 0.0
O572 O 0.38159 0.21703 0.1167 0.0
H573 H 0.41449 0.34454 0.25607 0.0
H574 H 0.51969 0.17161 0.1299 0.0
Cu575 Cu 0.81255 0.397 0.19586 0.0
N576 N 0.76531 0.3915 0.22378 0.0
N577 N 0.7115 0.36477 0.23702 0.0
C578 C 0.74682 0.35984 0.22337 0.0
C579 C 0.70742 0.40073 0.24656 0.0
C580 C 0.74074 0.41723 0.23804 0.0
O581 O 0.84601 0.36771 0.2415 0.0
C582 C 0.83649 0.37462 0.08462 0.0
O583 O 0.86967 0.37459 0.10554 0.0
H584 H 0.75862 0.33424 0.20997 0.0
H585 H 0.7459 0.44617 0.23875 0.0
N586 N 0.82683 0.44591 0.19426 0.0
N587 N 0.82808 0.50582 0.20925 0.0
C588 C 0.81774 0.47313 0.23009 0.0
C589 C 0.84406 0.46209 0.15022 0.0
C590 C 0.84479 0.49911 0.15923 0.0
C591 C 0.84568 0.36942 0.29585 0.0
O592 O 0.823 0.39175 0.32144 0.0
H593 H 0.80214 0.46928 0.26874 0.0
H594 H 0.85371 0.44819 0.11252 0.0
O595 O 0.80959 0.3815 0.1169 0.0
H596 H 0.68203 0.41436 0.25616 0.0
H597 H 0.85524 0.51947 0.13015 0.0
Cu598 Cu 0.62964 0.81235 0.19551 0.0
N599 N 0.63517 0.76514 0.2235 0.0
N600 N 0.66191 0.71135 0.23677 0.0
C601 C 0.66683 0.74664 0.223 0.0
C602 C 0.62595 0.7073 0.24647 0.0
C603 C 0.60945 0.7406 0.23794 0.0
O604 O 0.65889 0.84585 0.24116 0.0
C605 C 0.65204 0.83626 0.08427 0.0
O606 O 0.652 0.86944 0.10515 0.0
H607 H 0.69242 0.75841 0.20946 0.0
H608 H 0.58051 0.74577 0.23878 0.0
N609 N 0.58072 0.82658 0.19382 0.0
N610 N 0.52079 0.82782 0.20881 0.0
C611 C 0.55349 0.81755 0.22971 0.0
C612 C 0.56452 0.84368 0.14968 0.0
C613 C 0.52749 0.84441 0.15869 0.0
C614 C 0.65718 0.84552 0.29551 0.0
O615 O 0.63488 0.82281 0.3211 0.0
H616 H 0.55736 0.80206 0.26845 0.0
H617 H 0.57841 0.85326 0.11193 0.0
O618 O 0.6452 0.80936 0.11658 0.0
H619 H 0.61233 0.68192 0.25622 0.0
H620 H 0.50711 0.85478 0.12955 0.0
Cu621 Cu 0.21417 0.62948 0.19544 0.0
N622 N 0.2614 0.63501 0.22338 0.0
N623 N 0.31521 0.66174 0.23665 0.0
C624 C 0.2799 0.66667 0.22294 0.0
C625 C 0.31928 0.62578 0.24624 0.0
C626 C 0.28596 0.60928 0.2377 0.0
O627 O 0.18068 0.65877 0.24107 0.0
C628 C 0.19023 0.65183 0.0842 0.0
O629 O 0.15704 0.6518 0.10511 0.0
H630 H 0.26811 0.69226 0.20949 0.0
H631 H 0.2808 0.58035 0.23846 0.0
N632 N 0.19993 0.58057 0.19385 0.0
N633 N 0.19872 0.52066 0.20891 0.0
C634 C 0.209 0.55337 0.22975 0.0
C635 C 0.18279 0.56435 0.14976 0.0
C636 C 0.18208 0.52733 0.15882 0.0
C637 C 0.18103 0.65708 0.29542 0.0
O638 O 0.20372 0.63479 0.32103 0.0
H639 H 0.22454 0.55726 0.26845 0.0
H640 H 0.17317 0.57822 0.11202 0.0
O641 O 0.21713 0.64499 0.11648 0.0
H642 H 0.34467 0.61216 0.25589 0.0
H643 H 0.17169 0.50694 0.12973 0.0
Cu644 Cu 0.39697 0.81228 0.92959 0.0
N645 N 0.39141 0.76508 0.90156 0.0
N646 N 0.36465 0.7113 0.88824 0.0
C647 C 0.35976 0.74657 0.90217 0.0
C648 C 0.40059 0.70727 0.87831 0.0
C649 C 0.4171 0.74057 0.88688 0.0
O650 O 0.36776 0.84582 0.88396 0.0
C651 C 0.37455 0.83619 1.0408 0.0
O652 O 0.37459 0.86937 1.0199 0.0
H653 H 0.33419 0.75831 0.91587 0.0
H654 H 0.44604 0.74576 0.88585 0.0
N655 N 0.44591 0.82647 0.93133 0.0
N656 N 0.50584 0.82774 0.91637 0.0
C657 C 0.47314 0.81749 0.89542 0.0
C658 C 0.4621 0.84352 0.97553 0.0
C659 C 0.49913 0.84426 0.96654 0.0
C660 C 0.36949 0.84553 0.82961 0.0
O661 O 0.39178 0.82283 0.804 0.0
H662 H 0.46928 0.80207 0.85662 0.0
H663 H 0.4482 0.85305 1.0133 0.0
O664 O 0.3814 0.80929 1.00851 0.0
H665 H 0.41419 0.68192 0.86837 0.0
H666 H 0.5195 0.8546 0.99572 0.0
Cu667 Cu 0.21428 0.39681 0.92977 0.0
N668 N 0.26147 0.39122 0.90171 0.0
N669 N 0.31525 0.36445 0.88836 0.0
C670 C 0.27999 0.35958 0.90239 0.0
C671 C 0.31927 0.40037 0.8783 0.0
C672 C 0.28597 0.41689 0.88688 0.0
O673 O 0.1807 0.36762 0.88418 0.0
C674 C 0.19038 0.37442 1.04101 0.0
O675 O 0.15719 0.37446 1.02013 0.0
H676 H 0.26825 0.33404 0.9162 0.0
H677 H 0.28078 0.44581 0.88573 0.0
N678 N 0.2001 0.44575 0.93153 0.0
N679 N 0.19879 0.50566 0.91652 0.0
C680 C 0.20903 0.47296 0.89557 0.0
C681 C 0.1831 0.46194 0.97577 0.0
C682 C 0.18233 0.49896 0.96675 0.0
C683 C 0.18101 0.36933 0.82983 0.0
O684 O 0.20373 0.3916 0.80421 0.0
H685 H 0.22441 0.4691 0.85672 0.0
H686 H 0.17361 0.44805 1.01358 0.0
O687 O 0.21728 0.38125 1.0087 0.0
H688 H 0.34462 0.41395 0.86823 0.0
H689 H 0.17201 0.51933 0.99594 0.0
Cu690 Cu 0.62977 0.21412 0.93003 0.0
N691 N 0.63533 0.26131 0.90197 0.0
N692 N 0.66206 0.31511 0.88868 0.0
C693 C 0.66697 0.27985 0.90266 0.0
C694 C 0.62613 0.3191 0.87864 0.0
C695 C 0.60963 0.2858 0.88718 0.0
O696 O 0.65896 0.18057 0.88439 0.0
C697 C 0.6522 0.19024 1.04126 0.0
O698 O 0.65212 0.15705 1.0204 0.0
H699 H 0.69252 0.26812 0.91646 0.0
H700 H 0.58071 0.28058 0.88605 0.0
N701 N 0.58083 0.19994 0.93182 0.0
N702 N 0.52091 0.1986 0.9168 0.0
C703 C 0.55361 0.20883 0.89584 0.0
C704 C 0.56463 0.18298 0.9761 0.0
C705 C 0.52761 0.18219 0.96707 0.0
C706 C 0.65723 0.18089 0.83004 0.0
O707 O 0.63495 0.20361 0.80445 0.0
H708 H 0.55748 0.22419 0.85696 0.0
H709 H 0.57852 0.17352 1.01393 0.0
O710 O 0.64537 0.21713 1.00894 0.0
H711 H 0.61253 0.34444 0.86862 0.0
H712 H 0.50723 0.17189 0.99627 0.0
Cu713 Cu 0.81254 0.62955 0.92975 0.0
N714 N 0.76531 0.63506 0.90177 0.0
N715 N 0.7115 0.66179 0.88849 0.0
C716 C 0.74679 0.66671 0.90226 0.0
C717 C 0.70745 0.62583 0.87879 0.0
C718 C 0.74077 0.60934 0.88734 0.0
O719 O 0.84603 0.65882 0.8841 0.0
C720 C 0.83644 0.65196 1.04099 0.0
O721 O 0.86963 0.65197 1.02009 0.0
H722 H 0.75856 0.6923 0.91579 0.0
H723 H 0.74595 0.58041 0.88649 0.0
N724 N 0.82679 0.58064 0.93142 0.0
N725 N 0.82808 0.52073 0.91646 0.0
C726 C 0.81777 0.55341 0.89556 0.0
C727 C 0.84395 0.56447 0.97554 0.0
C728 C 0.8447 0.52745 0.96655 0.0
C729 C 0.8457 0.65709 0.82975 0.0
O730 O 0.82302 0.63478 0.80417 0.0
H731 H 0.80224 0.55726 0.85683 0.0
H732 H 0.85354 0.57838 1.01327 0.0
O733 O 0.80955 0.64509 1.00869 0.0
H734 H 0.68208 0.61221 0.86904 0.0
H735 H 0.85511 0.50709 0.99568 0.0
loop_
_geom_bond_atom_site_label_1
_geom_bond_atom_site_label_2
_geom_bond_distance
_geom_bond_site_symmetry_2
_ccdc_geom_bond_type
Cu0 N1 1.999 . S
Cu0 O6 1.974 . S
Cu0 N11 1.985 . S
Cu0 O20 1.959 . S
N1 Cu0 1.999 . S
N1 C3 1.263 . S
N1 C5 1.389 . S
N2 C3 1.358 . S
N2 C4 1.400 . S
C3 N1 1.263 . S
C3 N2 1.358 . S
C3 H9 0.930 . S
C4 N2 1.400 . S
C4 C5 1.351 . S
C4 H21 0.930 . S
C5 N1 1.389 . S
C5 C4 1.351 . S
C5 H10 0.930 . S
O6 Cu0 1.974 . S
O6 C16 1.282 . S
C7 O8 1.261 . S
C7 O20 1.251 . S
O8 C7 1.261 . S
H9 C3 0.930 . S
H10 C5 0.930 . S
N11 Cu0 1.985 . S
N11 C13 1.335 . S
N11 C14 1.390 . S
N12 C13 1.345 . S
N12 C15 1.336 . S
C13 N11 1.335 . S
C13 N12 1.345 . S
C13 H18 0.930 . S
C14 N11 1.390 . S
C14 C15 1.346 . S
C14 H19 0.930 . S
C15 N12 1.336 . S
C15 C14 1.346 . S
C15 H22 0.929 . S
C16 O6 1.282 . S
C16 O17 1.216 . S
O17 C16 1.216 . S
H18 C13 0.930 . S
H19 C14 0.930 . S
O20 Cu0 1.959 . S
O20 C7 1.251 . S
H21 C4 0.930 . S
H22 C15 0.929 . S
Cu23 N24 1.999 . S
Cu23 O29 1.974 . S
Cu23 N34 1.985 . S
Cu23 O43 1.959 . S
N24 Cu23 1.999 . S
N24 C26 1.263 . S
N24 C28 1.389 . S
N25 C26 1.358 . S
N25 C27 1.400 . S
C26 N24 1.263 . S
C26 N25 1.358 . S
C26 H32 0.930 . S
C27 N25 1.400 . S
C27 C28 1.351 . S
C27 H44 0.930 . S
C28 N24 1.389 . S
C28 C27 1.351 . S
C28 H33 0.930 . S
O29 Cu23 1.974 . S
O29 C39 1.282 . S
C30 O31 1.261 . S
C30 O43 1.251 . S
O31 C30 1.261 . S
H32 C26 0.930 . S
H33 C28 0.930 . S
N34 Cu23 1.985 . S
N34 C36 1.335 . S
N34 C37 1.390 . S
N35 C36 1.345 . S
N35 C38 1.336 . S
C36 N34 1.335 . S
C36 N35 1.345 . S
C36 H41 0.930 . S
C37 N34 1.390 . S
C37 C38 1.346 . S
C37 H42 0.930 . S
C38 N35 1.336 . S
C38 C37 1.346 . S
C38 H45 0.929 . S
C39 O29 1.282 . S
C39 O40 1.216 . S
O40 C39 1.216 . S
H41 C36 0.930 . S
H42 C37 0.930 . S
O43 Cu23 1.959 . S
O43 C30 1.251 . S
H44 C27 0.930 . S
H45 C38 0.929 . S
Cu46 N47 1.999 . S
Cu46 O52 1.974 . S
Cu46 N57 1.985 . S
Cu46 O66 1.959 . S
N47 Cu46 1.999 . S
N47 C49 1.263 . S
N47 C51 1.389 . S
N48 C49 1.358 . S
N48 C50 1.400 . S
C49 N47 1.263 . S
C49 N48 1.358 . S
C49 H55 0.930 . S
C50 N48 1.400 . S
C50 C51 1.351 . S
C50 H67 0.930 . S
C51 N47 1.389 . S
C51 C50 1.351 . S
C51 H56 0.930 . S
O52 Cu46 1.974 . S
O52 C62 1.282 . S
C53 O54 1.261 . S
C53 O66 1.251 . S
O54 C53 1.261 . S
H55 C49 0.930 . S
H56 C51 0.930 . S
N57 Cu46 1.985 . S
N57 C59 1.335 . S
N57 C60 1.390 . S
N58 C59 1.345 . S
N58 C61 1.336 . S
C59 N57 1.335 . S
C59 N58 1.345 . S
C59 H64 0.930 . S
C60 N57 1.390 . S
C60 C61 1.346 . S
C60 H65 0.930 . S
C61 N58 1.336 . S
C61 C60 1.346 . S
C61 H68 0.929 . S
C62 O52 1.282 . S
C62 O63 1.216 . S
O63 C62 1.216 . S
H64 C59 0.930 . S
H65 C60 0.930 . S
O66 Cu46 1.959 . S
O66 C53 1.251 . S
H67 C50 0.930 . S
H68 C61 0.929 . S
Cu69 N70 1.999 . S
Cu69 O75 1.974 . S
Cu69 N80 1.985 . S
Cu69 O89 1.959 . S
N70 Cu69 1.999 . S
N70 C72 1.263 . S
N70 C74 1.389 . S
N71 C72 1.358 . S
N71 C73 1.400 . S
C72 N70 1.263 . S
C72 N71 1.358 . S
C72 H78 0.930 . S
C73 N71 1.400 . S
C73 C74 1.351 . S
C73 H90 0.930 . S
C74 N70 1.389 . S
C74 C73 1.351 . S
C74 H79 0.930 . S
O75 Cu69 1.974 . S
O75 C85 1.282 . S
C76 O77 1.261 . S
C76 O89 1.251 . S
O77 C76 1.261 . S
H78 C72 0.930 . S
H79 C74 0.930 . S
N80 Cu69 1.985 . S
N80 C82 1.335 . S
N80 C83 1.390 . S
N81 C82 1.345 . S
N81 C84 1.336 . S
C82 N80 1.335 . S
C82 N81 1.345 . S
C82 H87 0.930 . S
C83 N80 1.390 . S
C83 C84 1.346 . S
C83 H88 0.930 . S
C84 N81 1.336 . S
C84 C83 1.346 . S
C84 H91 0.929 . S
C85 O75 1.282 . S
C85 O86 1.216 . S
O86 C85 1.216 . S
H87 C82 0.930 . S
H88 C83 0.930 . S
O89 Cu69 1.959 . S
O89 C76 1.251 . S
H90 C73 0.930 . S
H91 C84 0.929 . S
Cu92 N93 1.999 . S
Cu92 O98 1.974 . S
Cu92 N103 1.985 . S
Cu92 O112 1.959 . S
N93 Cu92 1.999 . S
N93 C95 1.263 . S
N93 C97 1.389 . S
N94 C95 1.358 . S
N94 C96 1.400 . S
C95 N93 1.263 . S
C95 N94 1.358 . S
C95 H101 0.930 . S
C96 N94 1.400 . S
C96 C97 1.351 . S
C96 H113 0.930 . S
C97 N93 1.389 . S
C97 C96 1.351 . S
C97 H102 0.930 . S
O98 Cu92 1.974 . S
O98 C108 1.282 . S
C99 O100 1.261 . S
C99 O112 1.251 . S
O100 C99 1.261 . S
H101 C95 0.930 . S
H102 C97 0.930 . S
N103 Cu92 1.985 . S
N103 C105 1.335 . S
N103 C106 1.390 . S
N104 C105 1.345 . S
N104 C107 1.336 . S
C105 N103 1.335 . S
C105 N104 1.345 . S
C105 H110 0.930 . S
C106 N103 1.390 . S
C106 C107 1.346 . S
C106 H111 0.930 . S
C107 N104 1.336 . S
C107 C106 1.346 . S
C107 H114 0.929 . S
C108 O98 1.282 . S
C108 O109 1.216 . S
O109 C108 1.216 . S
H110 C105 0.930 . S
H111 C106 0.930 . S
O112 Cu92 1.959 . S
O112 C99 1.251 . S
H113 C96 0.930 . S
H114 C107 0.929 . S
Cu115 N116 1.999 . S
Cu115 O121 1.974 . S
Cu115 N126 1.985 . S
Cu115 O135 1.959 . S
N116 Cu115 1.999 . S
N116 C118 1.263 . S
N116 C120 1.389 . S
N117 C118 1.358 . S
N117 C119 1.400 . S
C118 N116 1.263 . S
C118 N117 1.358 . S
C118 H124 0.930 . S
C119 N117 1.400 . S
C119 C120 1.351 . S
C119 H136 0.930 . S
C120 N116 1.389 . S
C120 C119 1.351 . S
C120 H125 0.930 . S
O121 Cu115 1.974 . S
O121 C131 1.282 . S
C122 O123 1.261 . S
C122 O135 1.251 . S
O123 C122 1.261 . S
H124 C118 0.930 . S
H125 C120 0.930 . S
N126 Cu115 1.985 . S
N126 C128 1.335 . S
N126 C129 1.390 . S
N127 C128 1.345 . S
N127 C130 1.336 . S
C128 N126 1.335 . S
C128 N127 1.345 . S
C128 H133 0.930 . S
C129 N126 1.390 . S
C129 C130 1.346 . S
C129 H134 0.930 . S
C130 N127 1.336 . S
C130 C129 1.346 . S
C130 H137 0.929 . S
C131 O121 1.282 . S
C131 O132 1.216 . S
O132 C131 1.216 . S
H133 C128 0.930 . S
H134 C129 0.930 . S
O135 Cu115 1.959 . S
O135 C122 1.251 . S
H136 C119 0.930 . S
H137 C130 0.929 . S
Cu138 N139 1.999 . S
Cu138 O144 1.974 . S
Cu138 N149 1.985 . S
Cu138 O158 1.959 . S
N139 Cu138 1.999 . S
N139 C141 1.263 . S
N139 C143 1.389 . S
N140 C141 1.358 . S
N140 C142 1.400 . S
C141 N139 1.263 . S
C141 N140 1.358 . S
C141 H147 0.930 . S
C142 N140 1.400 . S
C142 C143 1.351 . S
C142 H159 0.930 . S
C143 N139 1.389 . S
C143 C142 1.351 . S
C143 H148 0.930 . S
O144 Cu138 1.974 . S
O144 C154 1.282 . S
C145 O146 1.261 . S
C145 O158 1.251 . S
O146 C145 1.261 . S
H147 C141 0.930 . S
H148 C143 0.930 . S
N149 Cu138 1.985 . S
N149 C151 1.335 . S
N149 C152 1.390 . S
N150 C151 1.345 . S
N150 C153 1.336 . S
C151 N149 1.335 . S
C151 N150 1.345 . S
C151 H156 0.930 . S
C152 N149 1.390 . S
C152 C153 1.346 . S
C152 H157 0.930 . S
C153 N150 1.336 . S
C153 C152 1.346 . S
C153 H160 0.929 . S
C154 O144 1.282 . S
C154 O155 1.216 . S
O155 C154 1.216 . S
H156 C151 0.930 . S
H157 C152 0.930 . S
O158 Cu138 1.959 . S
O158 C145 1.251 . S
H159 C142 0.930 . S
H160 C153 0.929 . S
Cu161 N162 1.999 . S
Cu161 O167 1.974 . S
Cu161 N172 1.985 . S
Cu161 O181 1.959 . S
N162 Cu161 1.999 . S
N162 C164 1.263 . S
N162 C166 1.389 . S
N163 C164 1.358 . S
N163 C165 1.400 . S
C164 N162 1.263 . S
C164 N163 1.358 . S
C164 H170 0.930 . S
C165 N163 1.400 . S
C165 C166 1.351 . S
C165 H182 0.930 . S
C166 N162 1.389 . S
C166 C165 1.351 . S
C166 H171 0.930 . S
O167 Cu161 1.974 . S
O167 C177 1.282 . S
C168 O169 1.261 . S
C168 O181 1.251 . S
O169 C168 1.261 . S
H170 C164 0.930 . S
H171 C166 0.930 . S
N172 Cu161 1.985 . S
N172 C174 1.335 . S
N172 C175 1.390 . S
N173 C174 1.345 . S
N173 C176 1.336 . S
C174 N172 1.335 . S
C174 N173 1.345 . S
C174 H179 0.930 . S
C175 N172 1.390 . S
C175 C176 1.346 . S
C175 H180 0.930 . S
C176 N173 1.336 . S
C176 C175 1.346 . S
C176 H183 0.929 . S
C177 O167 1.282 . S
C177 O178 1.216 . S
O178 C177 1.216 . S
H179 C174 0.930 . S
H180 C175 0.930 . S
O181 Cu161 1.959 . S
O181 C168 1.251 . S
H182 C165 0.930 . S
H183 C176 0.929 . S
Cu184 N185 1.999 . S
Cu184 O190 1.974 . S
Cu184 N195 1.985 . S
Cu184 O204 1.959 . S
N185 Cu184 1.999 . S
N185 C187 1.263 . S
N185 C189 1.389 . S
N186 C187 1.358 . S
N186 C188 1.400 . S
C187 N185 1.263 . S
C187 N186 1.358 . S
C187 H193 0.930 . S
C188 N186 1.400 . S
C188 C189 1.351 . S
C188 H205 0.930 . S
C189 N185 1.389 . S
C189 C188 1.351 . S
C189 H194 0.930 . S
O190 Cu184 1.974 . S
O190 C200 1.282 . S
C191 O192 1.261 . S
C191 O204 1.251 . S
O192 C191 1.261 . S
H193 C187 0.930 . S
H194 C189 0.930 . S
N195 Cu184 1.985 . S
N195 C197 1.335 . S
N195 C198 1.390 . S
N196 C197 1.345 . S
N196 C199 1.336 . S
C197 N195 1.335 . S
C197 N196 1.345 . S
C197 H202 0.930 . S
C198 N195 1.390 . S
C198 C199 1.346 . S
C198 H203 0.930 . S
C199 N196 1.336 . S
C199 C198 1.346 . S
C199 H206 0.929 . S
C200 O190 1.282 . S
C200 O201 1.216 . S
O201 C200 1.216 . S
H202 C197 0.930 . S
H203 C198 0.930 . S
O204 Cu184 1.959 . S
O204 C191 1.251 . S
H205 C188 0.930 . S
H206 C199 0.929 . S
Cu207 N208 1.999 . S
Cu207 O213 1.974 . S
Cu207 N218 1.985 . S
Cu207 O227 1.959 . S
N208 Cu207 1.999 . S
N208 C210 1.263 . S
N208 C212 1.389 . S
N209 C210 1.358 . S
N209 C211 1.400 . S
C210 N208 1.263 . S
C210 N209 1.358 . S
C210 H216 0.930 . S
C211 N209 1.400 . S
C211 C212 1.351 . S
C211 H228 0.930 . S
C212 N208 1.389 . S
C212 C211 1.351 . S
C212 H217 0.930 . S
O213 Cu207 1.974 . S
O213 C223 1.282 . S
C214 O215 1.261 . S
C214 O227 1.251 . S
O215 C214 1.261 . S
H216 C210 0.930 . S
H217 C212 0.930 . S
N218 Cu207 1.985 . S
N218 C220 1.335 . S
N218 C221 1.390 . S
N219 C220 1.345 . S
N219 C222 1.336 . S
C220 N218 1.335 . S
C220 N219 1.345 . S
C220 H225 0.930 . S
C221 N218 1.390 . S
C221 C222 1.346 . S
C221 H226 0.930 . S
C222 N219 1.336 . S
C222 C221 1.346 . S
C222 H229 0.929 . S
C223 O213 1.282 . S
C223 O224 1.216 . S
O224 C223 1.216 . S
H225 C220 0.930 . S
H226 C221 0.930 . S
O227 Cu207 1.959 . S
O227 C214 1.251 . S
H228 C211 0.930 . S
H229 C222 0.929 . S
Cu230 N231 1.999 . S
Cu230 O236 1.974 . S
Cu230 N241 1.985 . S
Cu230 O250 1.959 . S
N231 Cu230 1.999 . S
N231 C233 1.263 . S
N231 C235 1.389 . S
N232 C233 1.358 . S
N232 C234 1.400 . S
C233 N231 1.263 . S
C233 N232 1.358 . S
C233 H239 0.930 . S
C234 N232 1.400 . S
C234 C235 1.351 . S
C234 H251 0.930 . S
C235 N231 1.389 . S
C235 C234 1.351 . S
C235 H240 0.930 . S
O236 Cu230 1.974 . S
O236 C246 1.282 . S
C237 O238 1.261 . S
C237 O250 1.251 . S
O238 C237 1.261 . S
H239 C233 0.930 . S
H240 C235 0.930 . S
N241 Cu230 1.985 . S
N241 C243 1.335 . S
N241 C244 1.390 . S
N242 C243 1.345 . S
N242 C245 1.336 . S
C243 N241 1.335 . S
C243 N242 1.345 . S
C243 H248 0.930 . S
C244 N241 1.390 . S
C244 C245 1.346 . S
C244 H249 0.930 . S
C245 N242 1.336 . S
C245 C244 1.346 . S
C245 H252 0.929 . S
C246 O236 1.282 . S
C246 O247 1.216 . S
O247 C246 1.216 . S
H248 C243 0.930 . S
H249 C244 0.930 . S
O250 Cu230 1.959 . S
O250 C237 1.251 . S
H251 C234 0.930 . S
H252 C245 0.929 . S
Cu253 N254 1.999 . S
Cu253 O259 1.974 . S
Cu253 N264 1.985 . S
Cu253 O273 1.959 . S
N254 Cu253 1.999 . S
N254 C256 1.263 . S
N254 C258 1.389 . S
N255 C256 1.358 . S
N255 C257 1.400 . S
C256 N254 1.263 . S
C256 N255 1.358 . S
C256 H262 0.930 . S
C257 N255 1.400 . S
C257 C258 1.351 . S
C257 H274 0.930 . S
C258 N254 1.389 . S
C258 C257 1.351 . S
C258 H263 0.930 . S
O259 Cu253 1.974 . S
O259 C269 1.282 . S
C260 O261 1.261 . S
C260 O273 1.251 . S
O261 C260 1.261 . S
H262 C256 0.930 . S
H263 C258 0.930 . S
N264 Cu253 1.985 . S
N264 C266 1.335 . S
N264 C267 1.390 . S
N265 C266 1.345 . S
N265 C268 1.336 . S
C266 N264 1.335 . S
C266 N265 1.345 . S
C266 H271 0.930 . S
C267 N264 1.390 . S
C267 C268 1.346 . S
C267 H272 0.930 . S
C268 N265 1.336 . S
C268 C267 1.346 . S
C268 H275 0.929 . S
C269 O259 1.282 . S
C269 O270 1.216 . S
O270 C269 1.216 . S
H271 C266 0.930 . S
H272 C267 0.930 . S
O273 Cu253 1.959 . S
O273 C260 1.251 . S
H274 C257 0.930 . S
H275 C268 0.929 . S
Cu276 N277 1.999 . S
Cu276 O282 1.974 . S
Cu276 N287 1.985 . S
Cu276 O296 1.959 . S
N277 Cu276 1.999 . S
N277 C279 1.263 . S
N277 C281 1.389 . S
N278 C279 1.358 . S
N278 C280 1.400 . S
C279 N277 1.263 . S
C279 N278 1.358 . S
C279 H285 0.930 . S
C280 N278 1.400 . S
C280 C281 1.351 . S
C280 H297 0.930 . S
C281 N277 1.389 . S
C281 C280 1.351 . S
C281 H286 0.930 . S
O282 Cu276 1.974 . S
O282 C292 1.282 . S
C283 O284 1.261 . S
C283 O296 1.251 . S
O284 C283 1.261 . S
H285 C279 0.930 . S
H286 C281 0.930 . S
N287 Cu276 1.985 . S
N287 C289 1.335 . S
N287 C290 1.390 . S
N288 C289 1.345 . S
N288 C291 1.336 . S
C289 N287 1.335 . S
C289 N288 1.345 . S
C289 H294 0.930 . S
C290 N287 1.390 . S
C290 C291 1.346 . S
C290 H295 0.930 . S
C291 N288 1.336 . S
C291 C290 1.346 . S
C291 H298 0.929 . S
C292 O282 1.282 . S
C292 O293 1.216 . S
O293 C292 1.216 . S
H294 C289 0.930 . S
H295 C290 0.930 . S
O296 Cu276 1.959 . S
O296 C283 1.251 . S
H297 C280 0.930 . S
H298 C291 0.929 . S
Cu299 N300 1.999 . S
Cu299 O305 1.974 . S
Cu299 N310 1.985 . S
Cu299 O319 1.959 . S
N300 Cu299 1.999 . S
N300 C302 1.263 . S
N300 C304 1.389 . S
N301 C302 1.358 . S
N301 C303 1.400 . S
C302 N300 1.263 . S
C302 N301 1.358 . S
C302 H308 0.930 . S
C303 N301 1.400 . S
C303 C304 1.351 . S
C303 H320 0.930 . S
C304 N300 1.389 . S
C304 C303 1.351 . S
C304 H309 0.930 . S
O305 Cu299 1.974 . S
O305 C315 1.282 . S
C306 O307 1.261 . S
C306 O319 1.251 . S
O307 C306 1.261 . S
H308 C302 0.930 . S
H309 C304 0.930 . S
N310 Cu299 1.985 . S
N310 C312 1.335 . S
N310 C313 1.390 . S
N311 C312 1.345 . S
N311 C314 1.336 . S
C312 N310 1.335 . S
C312 N311 1.345 . S
C312 H317 0.930 . S
C313 N310 1.390 . S
C313 C314 1.346 . S
C313 H318 0.930 . S
C314 N311 1.336 . S
C314 C313 1.346 . S
C314 H321 0.929 . S
C315 O305 1.282 . S
C315 O316 1.216 . S
O316 C315 1.216 . S
H317 C312 0.930 . S
H318 C313 0.930 . S
O319 Cu299 1.959 . S
O319 C306 1.251 . S
H320 C303 0.930 . S
H321 C314 0.929 . S
Cu322 N323 1.999 . S
Cu322 O328 1.974 . S
Cu322 N333 1.985 . S
Cu322 O342 1.959 . S
N323 Cu322 1.999 . S
N323 C325 1.263 . S
N323 C327 1.389 . S
N324 C325 1.358 . S
N324 C326 1.400 . S
C325 N323 1.263 . S
C325 N324 1.358 . S
C325 H331 0.930 . S
C326 N324 1.400 . S
C326 C327 1.351 . S
C326 H343 0.930 . S
C327 N323 1.389 . S
C327 C326 1.351 . S
C327 H332 0.930 . S
O328 Cu322 1.974 . S
O328 C338 1.282 . S
C329 O330 1.261 . S
C329 O342 1.251 . S
O330 C329 1.261 . S
H331 C325 0.930 . S
H332 C327 0.930 . S
N333 Cu322 1.985 . S
N333 C335 1.335 . S
N333 C336 1.390 . S
N334 C335 1.345 . S
N334 C337 1.336 . S
C335 N333 1.335 . S
C335 N334 1.345 . S
C335 H340 0.930 . S
C336 N333 1.390 . S
C336 C337 1.346 . S
C336 H341 0.930 . S
C337 N334 1.336 . S
C337 C336 1.346 . S
C337 H344 0.929 . S
C338 O328 1.282 . S
C338 O339 1.216 . S
O339 C338 1.216 . S
H340 C335 0.930 . S
H341 C336 0.930 . S
O342 Cu322 1.959 . S
O342 C329 1.251 . S
H343 C326 0.930 . S
H344 C337 0.929 . S
Cu345 N346 1.999 . S
Cu345 O351 1.974 . S
Cu345 N356 1.985 . S
Cu345 O365 1.959 . S
N346 Cu345 1.999 . S
N346 C348 1.263 . S
N346 C350 1.389 . S
N347 C348 1.358 . S
N347 C349 1.400 . S
C348 N346 1.263 . S
C348 N347 1.358 . S
C348 H354 0.930 . S
C349 N347 1.400 . S
C349 C350 1.351 . S
C349 H366 0.930 . S
C350 N346 1.389 . S
C350 C349 1.351 . S
C350 H355 0.930 . S
O351 Cu345 1.974 . S
O351 C361 1.282 . S
C352 O353 1.261 . S
C352 O365 1.251 . S
O353 C352 1.261 . S
H354 C348 0.930 . S
H355 C350 0.930 . S
N356 Cu345 1.985 . S
N356 C358 1.335 . S
N356 C359 1.390 . S
N357 C358 1.345 . S
N357 C360 1.336 . S
C358 N356 1.335 . S
C358 N357 1.345 . S
C358 H363 0.930 . S
C359 N356 1.390 . S
C359 C360 1.346 . S
C359 H364 0.930 . S
C360 N357 1.336 . S
C360 C359 1.346 . S
C360 H367 0.929 . S
C361 O351 1.282 . S
C361 O362 1.216 . S
O362 C361 1.216 . S
H363 C358 0.930 . S
H364 C359 0.930 . S
O365 Cu345 1.959 . S
O365 C352 1.251 . S
H366 C349 0.930 . S
H367 C360 0.929 . S
Cu368 N369 1.999 . S
Cu368 O374 1.974 . S
Cu368 N379 1.985 . S
Cu368 O388 1.959 . S
N369 Cu368 1.999 . S
N369 C371 1.263 . S
N369 C373 1.389 . S
N370 C371 1.358 . S
N370 C372 1.400 . S
C371 N369 1.263 . S
C371 N370 1.358 . S
C371 H377 0.930 . S
C372 N370 1.400 . S
C372 C373 1.351 . S
C372 H389 0.930 . S
C373 N369 1.389 . S
C373 C372 1.351 . S
C373 H378 0.930 . S
O374 Cu368 1.974 . S
O374 C384 1.282 . S
C375 O376 1.261 . S
C375 O388 1.251 . S
O376 C375 1.261 . S
H377 C371 0.930 . S
H378 C373 0.930 . S
N379 Cu368 1.985 . S
N379 C381 1.335 . S
N379 C382 1.390 . S
N380 C381 1.345 . S
N380 C383 1.336 . S
C381 N379 1.335 . S
C381 N380 1.345 . S
C381 H386 0.930 . S
C382 N379 1.390 . S
C382 C383 1.346 . S
C382 H387 0.930 . S
C383 N380 1.336 . S
C383 C382 1.346 . S
C383 H390 0.929 . S
C384 O374 1.282 . S
C384 O385 1.216 . S
O385 C384 1.216 . S
H386 C381 0.930 . S
H387 C382 0.930 . S
O388 Cu368 1.959 . S
O388 C375 1.251 . S
H389 C372 0.930 . S
H390 C383 0.929 . S
Cu391 N392 1.999 . S
Cu391 O397 1.974 . S
Cu391 N402 1.985 . S
Cu391 O411 1.959 . S
N392 Cu391 1.999 . S
N392 C394 1.263 . S
N392 C396 1.389 . S
N393 C394 1.358 . S
N393 C395 1.400 . S
C394 N392 1.263 . S
C394 N393 1.358 . S
C394 H400 0.930 . S
C395 N393 1.400 . S
C395 C396 1.351 . S
C395 H412 0.930 . S
C396 N392 1.389 . S
C396 C395 1.351 . S
C396 H401 0.930 . S
O397 Cu391 1.974 . S
O397 C407 1.282 . S
C398 O399 1.261 . S
C398 O411 1.251 . S
O399 C398 1.261 . S
H400 C394 0.930 . S
H401 C396 0.930 . S
N402 Cu391 1.985 . S
N402 C404 1.335 . S
N402 C405 1.390 . S
N403 C404 1.345 . S
N403 C406 1.336 . S
C404 N402 1.335 . S
C404 N403 1.345 . S
C404 H409 0.930 . S
C405 N402 1.390 . S
C405 C406 1.346 . S
C405 H410 0.930 . S
C406 N403 1.336 . S
C406 C405 1.346 . S
C406 H413 0.929 . S
C407 O397 1.282 . S
C407 O408 1.216 . S
O408 C407 1.216 . S
H409 C404 0.930 . S
H410 C405 0.930 . S
O411 Cu391 1.959 . S
O411 C398 1.251 . S
H412 C395 0.930 . S
H413 C406 0.929 . S
Cu414 N415 1.999 . S
Cu414 O420 1.974 . S
Cu414 N425 1.985 . S
Cu414 O434 1.959 . S
N415 Cu414 1.999 . S
N415 C417 1.263 . S
N415 C419 1.389 . S
N416 C417 1.358 . S
N416 C418 1.400 . S
C417 N415 1.263 . S
C417 N416 1.358 . S
C417 H423 0.930 . S
C418 N416 1.400 . S
C418 C419 1.351 . S
C418 H435 0.930 . S
C419 N415 1.389 . S
C419 C418 1.351 . S
C419 H424 0.930 . S
O420 Cu414 1.974 . S
O420 C430 1.282 . S
C421 O422 1.261 . S
C421 O434 1.251 . S
O422 C421 1.261 . S
H423 C417 0.930 . S
H424 C419 0.930 . S
N425 Cu414 1.985 . S
N425 C427 1.335 . S
N425 C428 1.390 . S
N426 C427 1.345 . S
N426 C429 1.336 . S
C427 N425 1.335 . S
C427 N426 1.345 . S
C427 H432 0.930 . S
C428 N425 1.390 . S
C428 C429 1.346 . S
C428 H433 0.930 . S
C429 N426 1.336 . S
C429 C428 1.346 . S
C429 H436 0.929 . S
C430 O420 1.282 . S
C430 O431 1.216 . S
O431 C430 1.216 . S
H432 C427 0.930 . S
H433 C428 0.930 . S
O434 Cu414 1.959 . S
O434 C421 1.251 . S
H435 C418 0.930 . S
H436 C429 0.929 . S
Cu437 N438 1.999 . S
Cu437 O443 1.974 . S
Cu437 N448 1.985 . S
Cu437 O457 1.959 . S
N438 Cu437 1.999 . S
N438 C440 1.263 . S
N438 C442 1.389 . S
N439 C440 1.358 . S
N439 C441 1.400 . S
C440 N438 1.263 . S
C440 N439 1.358 . S
C440 H446 0.930 . S
C441 N439 1.400 . S
C441 C442 1.351 . S
C441 H458 0.930 . S
C442 N438 1.389 . S
C442 C441 1.351 . S
C442 H447 0.930 . S
O443 Cu437 1.974 . S
O443 C453 1.282 . S
C444 O445 1.261 . S
C444 O457 1.251 . S
O445 C444 1.261 . S
H446 C440 0.930 . S
H447 C442 0.930 . S
N448 Cu437 1.985 . S
N448 C450 1.335 . S
N448 C451 1.390 . S
N449 C450 1.345 . S
N449 C452 1.336 . S
C450 N448 1.335 . S
C450 N449 1.345 . S
C450 H455 0.930 . S
C451 N448 1.390 . S
C451 C452 1.346 . S
C451 H456 0.930 . S
C452 N449 1.336 . S
C452 C451 1.346 . S
C452 H459 0.929 . S
C453 O443 1.282 . S
C453 O454 1.216 . S
O454 C453 1.216 . S
H455 C450 0.930 . S
H456 C451 0.930 . S
O457 Cu437 1.959 . S
O457 C444 1.251 . S
H458 C441 0.930 . S
H459 C452 0.929 . S
Cu460 N461 1.999 . S
Cu460 O466 1.974 . S
Cu460 N471 1.985 . S
Cu460 O480 1.959 . S
N461 Cu460 1.999 . S
N461 C463 1.263 . S
N461 C465 1.389 . S
N462 C463 1.358 . S
N462 C464 1.400 . S
C463 N461 1.263 . S
C463 N462 1.358 . S
C463 H469 0.930 . S
C464 N462 1.400 . S
C464 C465 1.351 . S
C464 H481 0.930 . S
C465 N461 1.389 . S
C465 C464 1.351 . S
C465 H470 0.930 . S
O466 Cu460 1.974 . S
O466 C476 1.282 . S
C467 O468 1.261 . S
C467 O480 1.251 . S
O468 C467 1.261 . S
H469 C463 0.930 . S
H470 C465 0.930 . S
N471 Cu460 1.985 . S
N471 C473 1.335 . S
N471 C474 1.390 . S
N472 C473 1.345 . S
N472 C475 1.336 . S
C473 N471 1.335 . S
C473 N472 1.345 . S
C473 H478 0.930 . S
C474 N471 1.390 . S
C474 C475 1.346 . S
C474 H479 0.930 . S
C475 N472 1.336 . S
C475 C474 1.346 . S
C475 H482 0.929 . S
C476 O466 1.282 . S
C476 O477 1.216 . S
O477 C476 1.216 . S
H478 C473 0.930 . S
H479 C474 0.930 . S
O480 Cu460 1.959 . S
O480 C467 1.251 . S
H481 C464 0.930 . S
H482 C475 0.929 . S
Cu483 N484 1.999 . S
Cu483 O489 1.974 . S
Cu483 N494 1.985 . S
Cu483 O503 1.959 . S
N484 Cu483 1.999 . S
N484 C486 1.263 . S
N484 C488 1.389 . S
N485 C486 1.358 . S
N485 C487 1.400 . S
C486 N484 1.263 . S
C486 N485 1.358 . S
C486 H492 0.930 . S
C487 N485 1.400 . S
C487 C488 1.351 . S
C487 H504 0.930 . S
C488 N484 1.389 . S
C488 C487 1.351 . S
C488 H493 0.930 . S
O489 Cu483 1.974 . S
O489 C499 1.282 . S
C490 O491 1.261 . S
C490 O503 1.251 . S
O491 C490 1.261 . S
H492 C486 0.930 . S
H493 C488 0.930 . S
N494 Cu483 1.985 . S
N494 C496 1.335 . S
N494 C497 1.390 . S
N495 C496 1.345 . S
N495 C498 1.336 . S
C496 N494 1.335 . S
C496 N495 1.345 . S
C496 H501 0.930 . S
C497 N494 1.390 . S
C497 C498 1.346 . S
C497 H502 0.930 . S
C498 N495 1.336 . S
C498 C497 1.346 . S
C498 H505 0.929 . S
C499 O489 1.282 . S
C499 O500 1.216 . S
O500 C499 1.216 . S
H501 C496 0.930 . S
H502 C497 0.930 . S
O503 Cu483 1.959 . S
O503 C490 1.251 . S
H504 C487 0.930 . S
H505 C498 0.929 . S
Cu506 N507 1.999 . S
Cu506 O512 1.974 . S
Cu506 N517 1.985 . S
Cu506 O526 1.959 . S
N507 Cu506 1.999 . S
N507 C509 1.263 . S
N507 C511 1.389 . S
N508 C509 1.358 . S
N508 C510 1.400 . S
C509 N507 1.263 . S
C509 N508 1.358 . S
C509 H515 0.930 . S
C510 N508 1.400 . S
C510 C511 1.351 . S
C510 H527 0.930 . S
C511 N507 1.389 . S
C511 C510 1.351 . S
C511 H516 0.930 . S
O512 Cu506 1.974 . S
O512 C522 1.282 . S
C513 O514 1.261 . S
C513 O526 1.251 . S
O514 C513 1.261 . S
H515 C509 0.930 . S
H516 C511 0.930 . S
N517 Cu506 1.985 . S
N517 C519 1.335 . S
N517 C520 1.390 . S
N518 C519 1.345 . S
N518 C521 1.336 . S
C519 N517 1.335 . S
C519 N518 1.345 . S
C519 H524 0.930 . S
C520 N517 1.390 . S
C520 C521 1.346 . S
C520 H525 0.930 . S
C521 N518 1.336 . S
C521 C520 1.346 . S
C521 H528 0.929 . S
C522 O512 1.282 . S
C522 O523 1.216 . S
O523 C522 1.216 . S
H524 C519 0.930 . S
H525 C520 0.930 . S
O526 Cu506 1.959 . S
O526 C513 1.251 . S
H527 C510 0.930 . S
H528 C521 0.929 . S
Cu529 N530 1.999 . S
Cu529 O535 1.974 . S
Cu529 N540 1.985 . S
Cu529 O549 1.959 . S
N530 Cu529 1.999 . S
N530 C532 1.263 . S
N530 C534 1.389 . S
N531 C532 1.358 . S
N531 C533 1.400 . S
C532 N530 1.263 . S
C532 N531 1.358 . S
C532 H538 0.930 . S
C533 N531 1.400 . S
C533 C534 1.351 . S
C533 H550 0.930 . S
C534 N530 1.389 . S
C534 C533 1.351 . S
C534 H539 0.930 . S
O535 Cu529 1.974 . S
O535 C545 1.282 . S
C536 O537 1.261 . S
C536 O549 1.251 . S
O537 C536 1.261 . S
H538 C532 0.930 . S
H539 C534 0.930 . S
N540 Cu529 1.985 . S
N540 C542 1.335 . S
N540 C543 1.390 . S
N541 C542 1.345 . S
N541 C544 1.336 . S
C542 N540 1.335 . S
C542 N541 1.345 . S
C542 H547 0.930 . S
C543 N540 1.390 . S
C543 C544 1.346 . S
C543 H548 0.930 . S
C544 N541 1.336 . S
C544 C543 1.346 . S
C544 H551 0.929 . S
C545 O535 1.282 . S
C545 O546 1.216 . S
O546 C545 1.216 . S
H547 C542 0.930 . S
H548 C543 0.930 . S
O549 Cu529 1.959 . S
O549 C536 1.251 . S
H550 C533 0.930 . S
H551 C544 0.929 . S
Cu552 N553 1.999 . S
Cu552 O558 1.974 . S
Cu552 N563 1.985 . S
Cu552 O572 1.959 . S
N553 Cu552 1.999 . S
N553 C555 1.263 . S
N553 C557 1.389 . S
N554 C555 1.358 . S
N554 C556 1.400 . S
C555 N553 1.263 . S
C555 N554 1.358 . S
C555 H561 0.930 . S
C556 N554 1.400 . S
C556 C557 1.351 . S
C556 H573 0.930 . S
C557 N553 1.389 . S
C557 C556 1.351 . S
C557 H562 0.930 . S
O558 Cu552 1.974 . S
O558 C568 1.282 . S
C559 O560 1.261 . S
C559 O572 1.251 . S
O560 C559 1.261 . S
H561 C555 0.930 . S
H562 C557 0.930 . S
N563 Cu552 1.985 . S
N563 C565 1.335 . S
N563 C566 1.390 . S
N564 C565 1.345 . S
N564 C567 1.336 . S
C565 N563 1.335 . S
C565 N564 1.345 . S
C565 H570 0.930 . S
C566 N563 1.390 . S
C566 C567 1.346 . S
C566 H571 0.930 . S
C567 N564 1.336 . S
C567 C566 1.346 . S
C567 H574 0.929 . S
C568 O558 1.282 . S
C568 O569 1.216 . S
O569 C568 1.216 . S
H570 C565 0.930 . S
H571 C566 0.930 . S
O572 Cu552 1.959 . S
O572 C559 1.251 . S
H573 C556 0.930 . S
H574 C567 0.929 . S
Cu575 N576 1.999 . S
Cu575 O581 1.974 . S
Cu575 N586 1.985 . S
Cu575 O595 1.959 . S
N576 Cu575 1.999 . S
N576 C578 1.263 . S
N576 C580 1.389 . S
N577 C578 1.358 . S
N577 C579 1.400 . S
C578 N576 1.263 . S
C578 N577 1.358 . S
C578 H584 0.930 . S
C579 N577 1.400 . S
C579 C580 1.351 . S
C579 H596 0.930 . S
C580 N576 1.389 . S
C580 C579 1.351 . S
C580 H585 0.930 . S
O581 Cu575 1.974 . S
O581 C591 1.282 . S
C582 O583 1.261 . S
C582 O595 1.251 . S
O583 C582 1.261 . S
H584 C578 0.930 . S
H585 C580 0.930 . S
N586 Cu575 1.985 . S
N586 C588 1.335 . S
N586 C589 1.390 . S
N587 C588 1.345 . S
N587 C590 1.336 . S
C588 N586 1.335 . S
C588 N587 1.345 . S
C588 H593 0.930 . S
C589 N586 1.390 . S
C589 C590 1.346 . S
C589 H594 0.930 . S
C590 N587 1.336 . S
C590 C589 1.346 . S
C590 H597 0.929 . S
C591 O581 1.282 . S
C591 O592 1.216 . S
O592 C591 1.216 . S
H593 C588 0.930 . S
H594 C589 0.930 . S
O595 Cu575 1.959 . S
O595 C582 1.251 . S
H596 C579 0.930 . S
H597 C590 0.929 . S
Cu598 N599 1.999 . S
Cu598 O604 1.974 . S
Cu598 N609 1.985 . S
Cu598 O618 1.959 . S
N599 Cu598 1.999 . S
N599 C601 1.263 . S
N599 C603 1.389 . S
N600 C601 1.358 . S
N600 C602 1.400 . S
C601 N599 1.263 . S
C601 N600 1.358 . S
C601 H607 0.930 . S
C602 N600 1.400 . S
C602 C603 1.351 . S
C602 H619 0.930 . S
C603 N599 1.389 . S
C603 C602 1.351 . S
C603 H608 0.930 . S
O604 Cu598 1.974 . S
O604 C614 1.282 . S
C605 O606 1.261 . S
C605 O618 1.251 . S
O606 C605 1.261 . S
H607 C601 0.930 . S
H608 C603 0.930 . S
N609 Cu598 1.985 . S
N609 C611 1.335 . S
N609 C612 1.390 . S
N610 C611 1.345 . S
N610 C613 1.336 . S
C611 N609 1.335 . S
C611 N610 1.345 . S
C611 H616 0.930 . S
C612 N609 1.390 . S
C612 C613 1.346 . S
C612 H617 0.930 . S
C613 N610 1.336 . S
C613 C612 1.346 . S
C613 H620 0.929 . S
C614 O604 1.282 . S
C614 O615 1.216 . S
O615 C614 1.216 . S
H616 C611 0.930 . S
H617 C612 0.930 . S
O618 Cu598 1.959 . S
O618 C605 1.251 . S
H619 C602 0.930 . S
H620 C613 0.929 . S
Cu621 N622 1.999 . S
Cu621 O627 1.974 . S
Cu621 N632 1.985 . S
Cu621 O641 1.959 . S
N622 Cu621 1.999 . S
N622 C624 1.263 . S
N622 C626 1.389 . S
N623 C624 1.358 . S
N623 C625 1.400 . S
C624 N622 1.263 . S
C624 N623 1.358 . S
C624 H630 0.930 . S
C625 N623 1.400 . S
C625 C626 1.351 . S
C625 H642 0.930 . S
C626 N622 1.389 . S
C626 C625 1.351 . S
C626 H631 0.930 . S
O627 Cu621 1.974 . S
O627 C637 1.282 . S
C628 O629 1.261 . S
C628 O641 1.251 . S
O629 C628 1.261 . S
H630 C624 0.930 . S
H631 C626 0.930 . S
N632 Cu621 1.985 . S
N632 C634 1.335 . S
N632 C635 1.390 . S
N633 C634 1.345 . S
N633 C636 1.336 . S
C634 N632 1.335 . S
C634 N633 1.345 . S
C634 H639 0.930 . S
C635 N632 1.390 . S
C635 C636 1.346 . S
C635 H640 0.930 . S
C636 N633 1.336 . S
C636 C635 1.346 . S
C636 H643 0.929 . S
C637 O627 1.282 . S
C637 O638 1.216 . S
O638 C637 1.216 . S
H639 C634 0.930 . S
H640 C635 0.930 . S
O641 Cu621 1.959 . S
O641 C628 1.251 . S
H642 C625 0.930 . S
H643 C636 0.929 . S
Cu644 N645 1.999 . S
Cu644 O650 1.974 . S
Cu644 N655 1.985 . S
Cu644 O664 1.959 . S
N645 Cu644 1.999 . S
N645 C647 1.263 . S
N645 C649 1.389 . S
N646 C647 1.358 . S
N646 C648 1.400 . S
C647 N645 1.263 . S
C647 N646 1.358 . S
C647 H653 0.930 . S
C648 N646 1.400 . S
C648 C649 1.351 . S
C648 H665 0.930 . S
C649 N645 1.389 . S
C649 C648 1.351 . S
C649 H654 0.930 . S
O650 Cu644 1.974 . S
O650 C660 1.282 . S
C651 O652 1.261 . S
C651 O664 1.251 . S
O652 C651 1.261 . S
H653 C647 0.930 . S
H654 C649 0.930 . S
N655 Cu644 1.985 . S
N655 C657 1.335 . S
N655 C658 1.390 . S
N656 C657 1.345 . S
N656 C659 1.336 . S
C657 N655 1.335 . S
C657 N656 1.345 . S
C657 H662 0.930 . S
C658 N655 1.390 . S
C658 C659 1.346 . S
C658 H663 0.930 . S
C659 N656 1.336 . S
C659 C658 1.346 . S
C659 H666 0.929 . S
C660 O650 1.282 . S
C660 O661 1.216 . S
O661 C660 1.216 . S
H662 C657 0.930 . S
H663 C658 0.930 . S
O664 Cu644 1.959 . S
O664 C651 1.251 . S
H665 C648 0.930 . S
H666 C659 0.929 . S
Cu667 N668 1.999 . S
Cu667 O673 1.974 . S
Cu667 N678 1.985 . S
Cu667 O687 1.959 . S
N668 Cu667 1.999 . S
N668 C670 1.263 . S
N668 C672 1.389 . S
N669 C670 1.358 . S
N669 C671 1.400 . S
C670 N668 1.263 . S
C670 N669 1.358 . S
C670 H676 0.930 . S
C671 N669 1.400 . S
C671 C672 1.351 . S
C671 H688 0.930 . S
C672 N668 1.389 . S
C672 C671 1.351 . S
C672 H677 0.930 . S
O673 Cu667 1.974 . S
O673 C683 1.282 . S
C674 O675 1.261 . S
C674 O687 1.251 . S
O675 C674 1.261 . S
H676 C670 0.930 . S
H677 C672 0.930 . S
N678 Cu667 1.985 . S
N678 C680 1.335 . S
N678 C681 1.390 . S
N679 C680 1.345 . S
N679 C682 1.336 . S
C680 N678 1.335 . S
C680 N679 1.345 . S
C680 H685 0.930 . S
C681 N678 1.390 . S
C681 C682 1.346 . S
C681 H686 0.930 . S
C682 N679 1.336 . S
C682 C681 1.346 . S
C682 H689 0.929 . S
C683 O673 1.282 . S
C683 O684 1.216 . S
O684 C683 1.216 . S
H685 C680 0.930 . S
H686 C681 0.930 . S
O687 Cu667 1.959 . S
O687 C674 1.251 . S
H688 C671 0.930 . S
H689 C682 0.929 . S
Cu690 N691 1.999 . S
Cu690 O696 1.974 . S
Cu690 N701 1.985 . S
Cu690 O710 1.959 . S
N691 Cu690 1.999 . S
N691 C693 1.263 . S
N691 C695 1.389 . S
N692 C693 1.358 . S
N692 C694 1.400 . S
C693 N691 1.263 . S
C693 N692 1.358 . S
C693 H699 0.930 . S
C694 N692 1.400 . S
C694 C695 1.351 . S
C694 H711 0.930 . S
C695 N691 1.389 . S
C695 C694 1.351 . S
C695 H700 0.930 . S
O696 Cu690 1.974 . S
O696 C706 1.282 . S
C697 O698 1.261 . S
C697 O710 1.251 . S
O698 C697 1.261 . S
H699 C693 0.930 . S
H700 C695 0.930 . S
N701 Cu690 1.985 . S
N701 C703 1.335 . S
N701 C704 1.390 . S
N702 C703 1.345 . S
N702 C705 1.336 . S
C703 N701 1.335 . S
C703 N702 1.345 . S
C703 H708 0.930 . S
C704 N701 1.390 . S
C704 C705 1.346 . S
C704 H709 0.930 . S
C705 N702 1.336 . S
C705 C704 1.346 . S
C705 H712 0.929 . S
C706 O696 1.282 . S
C706 O707 1.216 . S
O707 C706 1.216 . S
H708 C703 0.930 . S
H709 C704 0.930 . S
O710 Cu690 1.959 . S
O710 C697 1.251 . S
H711 C694 0.930 . S
H712 C705 0.929 . S
Cu713 N714 1.999 . S
Cu713 O719 1.974 . S
Cu713 N724 1.985 . S
Cu713 O733 1.959 . S
N714 Cu713 1.999 . S
N714 C716 1.263 . S
N714 C718 1.389 . S
N715 C716 1.358 . S
N715 C717 1.400 . S
C716 N714 1.263 . S
C716 N715 1.358 . S
C716 H722 0.930 . S
C717 N715 1.400 . S
C717 C718 1.351 . S
C717 H734 0.930 . S
C718 N714 1.389 . S
C718 C717 1.351 . S
C718 H723 0.930 . S
O719 Cu713 1.974 . S
O719 C729 1.282 . S
C720 O721 1.261 . S
C720 O733 1.251 . S
O721 C720 1.261 . S
H722 C716 0.930 . S
H723 C718 0.930 . S
N724 Cu713 1.985 . S
N724 C726 1.335 . S
N724 C727 1.390 . S
N725 C726 1.345 . S
N725 C728 1.336 . S
C726 N724 1.335 . S
C726 N725 1.345 . S
C726 H731 0.930 . S
C727 N724 1.390 . S
C727 C728 1.346 . S
C727 H732 0.930 . S
C728 N725 1.336 . S
C728 C727 1.346 . S
C728 H735 0.929 . S
C729 O719 1.282 . S
C729 O730 1.216 . S
O730 C729 1.216 . S
H731 C726 0.930 . S
H732 C727 0.930 . S
O733 Cu713 1.959 . S
O733 C720 1.251 . S
H734 C717 0.930 . S
H735 C728 0.929 . S
N347 N2 1.917 . S
N25 N278 1.917 . S
N48 N301 1.917 . S
N324 N71 1.917 . S
N94 N209 1.917 . S
N117 N232 1.917 . S
N255 N140 1.917 . S
N186 N163 1.917 . S
N370 N715 1.917 . S
N393 N646 1.917 . S
N416 N669 1.917 . S
N692 N439 1.917 . S
N462 N577 1.917 . S
N485 N600 1.917 . S
N623 N508 1.917 . S
N531 N554 1.917 . S
N288 N12 2.175 1_655 S
N35 N311 2.175 1_545 S
N334 N58 2.175 1_455 S
N81 N357 2.175 1_565 S
N104 N196 2.175 1_455 S
N219 N127 2.175 1_565 S
N242 N150 2.175 1_455 S
N265 N173 2.175 1_545 S
N380 N656 2.175 . S
N679 N403 2.175 . S
N426 N702 2.175 . S
N449 N725 2.175 . S
N564 N472 2.175 . S
N495 N587 2.175 . S
N518 N610 2.175 . S
N541 N633 2.175 . S
C7 C237 1.578 . S
C260 C30 1.578 . S
C53 C191 1.578 . S
C214 C76 1.578 . S
C329 C99 1.578 . S
C352 C122 1.578 . S
C283 C145 1.578 . S
C168 C306 1.578 . S
C605 C375 1.578 1_554 S
C398 C628 1.578 1_556 S
C559 C421 1.578 1_554 S
C582 C444 1.578 1_554 S
C467 C697 1.578 1_554 S
C490 C720 1.578 1_554 S
C651 C513 1.578 1_556 S
C674 C536 1.578 1_556 S
C545 C16 1.465 . S
C476 C39 1.465 . S
C499 C62 1.465 . S
C522 C85 1.465 . S
C407 C108 1.465 . S
C131 C430 1.465 . S
C154 C453 1.465 . S
C177 C384 1.465 . S
C200 C729 1.465 . S
C660 C223 1.465 . S
C246 C683 1.465 . S
C269 C706 1.465 . S
C591 C292 1.465 . S
C614 C315 1.465 . S
C338 C637 1.465 . S
C361 C568 1.465 . S
