# Generated by pormake.
# Topology uki, (4)-cn, num edge types: 1
# Building blocks:
#     Node 0, Type 0, BuildingBlock: QUQFOY_clean_sbu_1, # of connection points: 4
#     Node 1, Type 0, BuildingBlock: QUQFOY_clean_sbu_1, # of connection points: 4
#     Node 2, Type 0, BuildingBlock: QUQFOY_clean_sbu_1, # of connection points: 4
#     Node 3, Type 0, BuildingBlock: QUQFOY_clean_sbu_1, # of connection points: 4
#     Node 4, Type 0, BuildingBlock: QUQFOY_clean_sbu_1, # of connection points: 4
#     Node 5, Type 0, BuildingBlock: QUQFOY_clean_sbu_1, # of connection points: 4
#     Node 6, Type 0, BuildingBlock: QUQFOY_clean_sbu_1, # of connection points: 4
#     Node 7, Type 0, BuildingBlock: QUQFOY_clean_sbu_1, # of connection points: 4
#     Node 8, Type 0, BuildingBlock: QUQFOY_clean_sbu_1, # of connection points: 4
#     Node 9, Type 0, BuildingBlock: QUQFOY_clean_sbu_1, # of connection points: 4
#     Node 10, Type 0, BuildingBlock: QUQFOY_clean_sbu_1, # of connection points: 4
#     Node 11, Type 0, BuildingBlock: QUQFOY_clean_sbu_1, # of connection points: 4
#     Node 12, Type 0, BuildingBlock: QUQFOY_clean_sbu_1, # of connection points: 4
#     Node 13, Type 0, BuildingBlock: QUQFOY_clean_sbu_1, # of connection points: 4
#     Node 14, Type 0, BuildingBlock: QUQFOY_clean_sbu_1, # of connection points: 4
#     Node 15, Type 0, BuildingBlock: QUQFOY_clean_sbu_1, # of connection points: 4
#     Edge 16, Type (0, 0), BuildingBlock: TEMPAE_clean_linker_10, # of connection points: 2
#     Edge 17, Type (0, 0), BuildingBlock: TEMPAE_clean_linker_10, # of connection points: 2
#     Edge 18, Type (0, 0), BuildingBlock: TEMPAE_clean_linker_10, # of connection points: 2
#     Edge 19, Type (0, 0), BuildingBlock: TEMPAE_clean_linker_10, # of connection points: 2
#     Edge 20, Type (0, 0), BuildingBlock: TEMPAE_clean_linker_10, # of connection points: 2
#     Edge 21, Type (0, 0), BuildingBlock: TEMPAE_clean_linker_10, # of connection points: 2
#     Edge 22, Type (0, 0), BuildingBlock: TEMPAE_clean_linker_10, # of connection points: 2
#     Edge 23, Type (0, 0), BuildingBlock: TEMPAE_clean_linker_10, # of connection points: 2
#     Edge 24, Type (0, 0), BuildingBlock: TEMPAE_clean_linker_10, # of connection points: 2
#     Edge 25, Type (0, 0), BuildingBlock: TEMPAE_clean_linker_10, # of connection points: 2
#     Edge 26, Type (0, 0), BuildingBlock: TEMPAE_clean_linker_10, # of connection points: 2
#     Edge 27, Type (0, 0), BuildingBlock: TEMPAE_clean_linker_10, # of connection points: 2
#     Edge 28, Type (0, 0), BuildingBlock: TEMPAE_clean_linker_10, # of connection points: 2
#     Edge 29, Type (0, 0), BuildingBlock: TEMPAE_clean_linker_10, # of connection points: 2
#     Edge 30, Type (0, 0), BuildingBlock: TEMPAE_clean_linker_10, # of connection points: 2
#     Edge 31, Type (0, 0), BuildingBlock: TEMPAE_clean_linker_10, # of connection points: 2
#     Edge 32, Type (0, 0), BuildingBlock: TEMPAE_clean_linker_10, # of connection points: 2
#     Edge 33, Type (0, 0), BuildingBlock: TEMPAE_clean_linker_10, # of connection points: 2
#     Edge 34, Type (0, 0), BuildingBlock: TEMPAE_clean_linker_10, # of connection points: 2
#     Edge 35, Type (0, 0), BuildingBlock: TEMPAE_clean_linker_10, # of connection points: 2
#     Edge 36, Type (0, 0), BuildingBlock: TEMPAE_clean_linker_10, # of connection points: 2
#     Edge 37, Type (0, 0), BuildingBlock: TEMPAE_clean_linker_10, # of connection points: 2
#     Edge 38, Type (0, 0), BuildingBlock: TEMPAE_clean_linker_10, # of connection points: 2
#     Edge 39, Type (0, 0), BuildingBlock: TEMPAE_clean_linker_10, # of connection points: 2
#     Edge 40, Type (0, 0), BuildingBlock: TEMPAE_clean_linker_10, # of connection points: 2
#     Edge 41, Type (0, 0), BuildingBlock: TEMPAE_clean_linker_10, # of connection points: 2
#     Edge 42, Type (0, 0), BuildingBlock: TEMPAE_clean_linker_10, # of connection points: 2
#     Edge 43, Type (0, 0), BuildingBlock: TEMPAE_clean_linker_10, # of connection points: 2
#     Edge 44, Type (0, 0), BuildingBlock: TEMPAE_clean_linker_10, # of connection points: 2
#     Edge 45, Type (0, 0), BuildingBlock: TEMPAE_clean_linker_10, # of connection points: 2
#     Edge 46, Type (0, 0), BuildingBlock: TEMPAE_clean_linker_10, # of connection points: 2
#     Edge 47, Type (0, 0), BuildingBlock: TEMPAE_clean_linker_10, # of connection points: 2
# Relax obj value: 0.032
# Max RMSD: 0.129
# Mean RMSD: 0.129
data_MOF--net-uki--node1-QUQFOY_clean_sbu_1--edge1-TEMPAE_clean_linker_10
_symmetry_space_group_name_H-M    P1
_symmetry_Int_Tables_number       1
_symmetry_cell_setting            triclinic
loop_
_symmetry_equiv_pos_as_xyz
'x, y, z'
_cell_length_a     32.906244
_cell_length_b     32.936869
_cell_length_c     74.282024
_cell_angle_alpha  90.017153
_cell_angle_beta   90.011036
_cell_angle_gamma 90.002105
loop_
_atom_site_label
_atom_site_type_symbol
_atom_site_fract_x
_atom_site_fract_y
_atom_site_fract_z
_atom_type_partial_charge
O0 O 0.1163 0.29046 0.29337 0.0
Cd1 Cd 0.08745 0.25868 0.31346 0.0
Cd2 Cd 0.07924 0.20642 0.28709 0.0
O3 O 0.12489 0.23948 0.27454 0.0
O4 O 0.10971 0.27873 0.33698 0.0
O5 O 0.12196 0.21729 0.32619 0.0
C6 C 0.12866 0.24453 0.33836 0.0
C7 C 0.07402 0.13704 0.2913 0.0
C8 C 0.13135 0.27632 0.2789 0.0
C9 C 1.00465 0.25077 0.29885 0.0
O10 O 0.02251 0.23168 0.28628 0.0
O11 O 0.02427 0.26186 0.3128 0.0
O12 O 0.07272 0.15241 0.27533 0.0
O13 O 0.08267 0.16064 0.30466 0.0
O14 O 0.3003 0.88992 0.72013 0.0
Cd15 Cd 0.27224 0.9158 0.69814 0.0
Cd16 Cd 0.21866 0.93959 0.72475 0.0
O17 O 0.25324 0.90114 0.74072 0.0
O18 O 0.29328 0.8868 0.67638 0.0
O19 O 0.22933 0.88265 0.6854 0.0
C20 C 0.25749 0.87149 0.67432 0.0
C21 C 0.14885 0.94815 0.72916 0.0
C22 C 0.28736 0.88608 0.73618 0.0
C23 C 0.26893 1.00403 0.70537 0.0
O24 O 0.24465 0.994 0.71786 0.0
O25 O 0.28332 0.97738 0.69475 0.0
O26 O 0.17499 0.95983 0.74096 0.0
O27 O 0.16215 0.92844 0.71532 0.0
O28 O 0.88923 0.71534 0.29362 0.0
Cd29 Cd 0.91813 0.74707 0.31373 0.0
Cd30 Cd 0.92651 0.79926 0.28735 0.0
O31 O 0.88077 0.76632 0.27479 0.0
O32 O 0.89566 0.72725 0.33724 0.0
O33 O 0.88376 0.78869 0.3264 0.0
C34 C 0.87687 0.76156 0.33858 0.0
C35 C 0.93203 0.86863 0.29151 0.0
C36 C 0.87424 0.72949 0.27914 0.0
C37 C 1.00096 0.75467 0.29912 0.0
O38 O 0.98314 0.77379 0.28655 0.0
O39 O 0.98132 0.74367 0.31307 0.0
O40 O 0.93323 0.85319 0.27555 0.0
O41 O 0.92332 0.84514 0.30489 0.0
O42 O 0.71429 0.12227 0.72419 0.0
Cd43 Cd 0.73731 0.09658 0.70109 0.0
Cd44 Cd 0.7928 0.06877 0.72714 0.0
O45 O 0.76012 0.10562 0.74457 0.0
O46 O 0.71062 0.12945 0.68183 0.0
O47 O 0.77732 0.12704 0.68539 0.0
C48 C 0.74618 0.14184 0.67707 0.0
C49 C 0.86242 0.05729 0.73087 0.0
C50 C 0.72712 0.12331 0.74033 0.0
C51 C 0.7382 0.00804 0.70708 0.0
O52 O 0.76469 0.01641 0.71892 0.0
O53 O 0.72255 0.03589 0.69745 0.0
O54 O 0.83619 0.0445 0.74238 0.0
O55 O 0.84944 0.0796 0.71777 0.0
O56 O 0.12019 0.21341 0.97455 0.0
Cd57 Cd 0.09392 0.23953 0.95228 0.0
Cd58 Cd 0.07277 0.29411 0.97961 0.0
O59 O 0.11224 0.26032 0.99544 0.0
O60 O 0.12429 0.21276 0.93226 0.0
O61 O 0.12601 0.27908 0.93701 0.0
C62 C 0.13884 0.24787 0.92812 0.0
C63 C 0.06252 0.36361 0.98374 0.0
C64 C 0.12597 0.22596 0.99052 0.0
C65 C 0.00676 0.24355 0.96062 0.0
O66 O 0.01842 0.26749 0.97297 0.0
O67 O 0.03211 0.22869 0.94949 0.0
O68 O 0.05183 0.33753 0.99573 0.0
O69 O 0.08258 0.35058 0.96995 0.0
O70 O 0.21615 0.88546 0.04305 0.0
Cd71 Cd 0.24576 0.9116 0.06452 0.0
Cd72 Cd 0.29865 0.92901 0.03878 0.0
O73 O 0.26686 0.88651 0.02368 0.0
O74 O 0.22494 0.88415 0.08673 0.0
O75 O 0.28793 0.87695 0.07681 0.0
C76 C 0.26001 0.86689 0.08821 0.0
C77 C 0.36857 0.93506 0.04151 0.0
C78 C 0.23077 0.87605 0.02775 0.0
C79 C 0.25027 0.99803 0.05423 0.0
O80 O 0.27173 0.98476 0.0413 0.0
O81 O 0.23847 0.97418 0.06666 0.0
O82 O 0.35085 0.9408 0.02624 0.0
O83 O 0.34705 0.92204 0.05487 0.0
O84 O 0.89186 0.79863 0.97009 0.0
Cd85 Cd 0.91861 0.76825 0.94896 0.0
Cd86 Cd 0.93567 0.71525 0.97648 0.0
O87 O 0.89489 0.75072 0.99083 0.0
O88 O 0.89199 0.7885 0.92646 0.0
O89 O 0.88442 0.72574 0.93656 0.0
C90 C 0.87494 0.75338 0.92492 0.0
C91 C 0.9439 0.64576 0.98141 0.0
C92 C 0.8835 0.78589 0.98583 0.0
C93 C 0.00497 0.76244 0.95888 0.0
O94 O 0.99152 0.7403 0.97151 0.0
O95 O 0.9811 0.7761 0.94686 0.0
O96 O 0.95301 0.67211 0.99355 0.0
O97 O 0.9263 0.65859 0.96694 0.0
O98 O 0.79019 0.12412 0.04213 0.0
Cd99 Cd 0.76046 0.09674 0.06322 0.0
Cd100 Cd 0.70778 0.08176 0.0373 0.0
O101 O 0.73941 0.12532 0.02278 0.0
O102 O 0.78114 0.1228 0.08582 0.0
O103 O 0.71833 0.13085 0.07578 0.0
C104 C 0.74615 0.14022 0.08735 0.0
C105 C 0.63825 0.07514 0.04101 0.0
C106 C 0.77567 0.13491 0.027 0.0
C107 C 0.75615 0.01147 0.0513 0.0
O108 O 0.73498 0.02607 0.03856 0.0
O109 O 0.76749 0.03396 0.06432 0.0
O110 O 0.65465 0.07098 0.02535 0.0
O111 O 0.66079 0.08704 0.05425 0.0
O112 O 0.62352 0.79588 0.79096 0.0
Cd113 Cd 0.59733 0.76885 0.8131 0.0
Cd114 Cd 0.57433 0.71438 0.78692 0.0
O115 O 0.61296 0.74796 0.7707 0.0
O116 O 0.62645 0.7906 0.83471 0.0
O117 O 0.63035 0.72637 0.82616 0.0
C118 C 0.6418 0.75491 0.83699 0.0
C119 C 0.56539 0.64449 0.78327 0.0
C120 C 0.6277 0.78233 0.77502 0.0
C121 C 0.50937 0.76605 0.80516 0.0
O122 O 0.51989 0.74117 0.79299 0.0
O123 O 0.53557 0.78047 0.81601 0.0
O124 O 0.55424 0.66996 0.77111 0.0
O125 O 0.58486 0.65844 0.79705 0.0
O126 O 0.7908 0.38951 0.21863 0.0
Cd127 Cd 0.75914 0.4181 0.19845 0.0
Cd128 Cd 0.70672 0.4265 0.22471 0.0
O129 O 0.73946 0.38066 0.23725 0.0
O130 O 0.77883 0.39504 0.17502 0.0
O131 O 0.71741 0.38345 0.18602 0.0
C132 C 0.74452 0.37614 0.17385 0.0
C133 C 0.6373 0.43213 0.22053 0.0
C134 C 0.77641 0.37431 0.23301 0.0
C135 C 0.75153 0.50086 0.21302 0.0
O136 O 0.73235 0.48303 0.22557 0.0
O137 O 0.76252 0.48127 0.19905 0.0
O138 O 0.65273 0.43328 0.2365 0.0
O139 O 0.66083 0.42346 0.20715 0.0
O140 O 0.38588 0.21263 0.78992 0.0
Cd141 Cd 0.41147 0.2349 0.81316 0.0
Cd142 Cd 0.44105 0.28979 0.78728 0.0
O143 O 0.40317 0.25858 0.76974 0.0
O144 O 0.37685 0.20914 0.83207 0.0
O145 O 0.38134 0.27573 0.82857 0.0
C146 C 0.36516 0.24501 0.83666 0.0
C147 C 0.45413 0.35907 0.7836 0.0
C148 C 0.38491 0.22584 0.77385 0.0
C149 C 0.5002 0.23363 0.80754 0.0
O150 O 0.49265 0.26022 0.79563 0.0
O151 O 0.47179 0.21876 0.81711 0.0
O152 O 0.46655 0.33258 0.77213 0.0
O153 O 0.43147 0.34659 0.79668 0.0
O154 O 0.21509 0.61642 0.21876 0.0
Cd155 Cd 0.24682 0.58788 0.19858 0.0
Cd156 Cd 0.29916 0.57929 0.22489 0.0
O157 O 0.26628 0.62496 0.2375 0.0
O158 O 0.22731 0.61104 0.17513 0.0
O159 O 0.28868 0.6225 0.18622 0.0
C160 C 0.26167 0.62987 0.17402 0.0
C161 C 0.36862 0.57385 0.22077 0.0
C162 C 0.22938 0.63141 0.23321 0.0
C163 C 0.25438 0.50501 0.21303 0.0
O164 O 0.27361 0.52272 0.22561 0.0
O165 O 0.24336 0.52472 0.1991 0.0
O166 O 0.35312 0.57247 0.23672 0.0
O167 O 0.34513 0.58265 0.20739 0.0
O168 O 0.62104 0.71257 0.47071 0.0
Cd169 Cd 0.59644 0.74244 0.44895 0.0
Cd170 Cd 0.57376 0.7946 0.47621 0.0
O171 O 0.61165 0.75877 0.49186 0.0
O172 O 0.62586 0.72175 0.42724 0.0
O173 O 0.63121 0.78505 0.43692 0.0
C174 C 0.64232 0.75713 0.42571 0.0
C175 C 0.56497 0.86409 0.48113 0.0
C176 C 0.62547 0.72445 0.4869 0.0
C177 C 0.50844 0.74651 0.45627 0.0
O178 O 0.51919 0.76935 0.46917 0.0
O179 O 0.53461 0.73288 0.44522 0.0
O180 O 0.55354 0.83754 0.49278 0.0
O181 O 0.5849 0.8514 0.46724 0.0
O182 O 0.71598 0.37822 0.53488 0.0
Cd183 Cd 0.73887 0.40473 0.55782 0.0
Cd184 Cd 0.79331 0.4328 0.53122 0.0
O185 O 0.7612 0.39452 0.51419 0.0
O186 O 0.71261 0.37163 0.57711 0.0
O187 O 0.77933 0.37508 0.5736 0.0
C188 C 0.74836 0.35989 0.5819 0.0
C189 C 0.86253 0.44596 0.52718 0.0
C190 C 0.72853 0.37657 0.51872 0.0
C191 C 0.73815 0.49307 0.55136 0.0
O192 O 0.76422 0.48474 0.53933 0.0
O193 O 0.72339 0.46529 0.5613 0.0
O194 O 0.83578 0.45766 0.51566 0.0
O195 O 0.85037 0.42371 0.54044 0.0
O196 O 0.38667 0.29677 0.46989 0.0
Cd197 Cd 0.41078 0.2678 0.44778 0.0
Cd198 Cd 0.43705 0.21592 0.47487 0.0
O199 O 0.39897 0.2509 0.49087 0.0
O200 O 0.37978 0.28831 0.42648 0.0
O201 O 0.37632 0.22469 0.43589 0.0
C202 C 0.36409 0.25259 0.42491 0.0
C203 C 0.44784 0.14685 0.4802 0.0
C204 C 0.38362 0.28471 0.4861 0.0
C205 C 0.49949 0.26542 0.45372 0.0
O206 O 0.49048 0.24221 0.46674 0.0
O207 O 0.47204 0.27882 0.44324 0.0
O208 O 0.45966 0.17415 0.49143 0.0
O209 O 0.42659 0.1585 0.46652 0.0
O210 O 0.29583 0.62427 0.53882 0.0
Cd211 Cd 0.2678 0.59802 0.56071 0.0
Cd212 Cd 0.21427 0.57523 0.5337 0.0
O213 O 0.24861 0.61463 0.51812 0.0
O214 O 0.28972 0.62621 0.58251 0.0
O215 O 0.22563 0.6314 0.57381 0.0
C216 C 0.25421 0.64198 0.5848 0.0
C217 C 0.14478 0.56525 0.52891 0.0
C218 C 0.2829 0.62908 0.52281 0.0
C219 C 0.26476 0.51024 0.5527 0.0
O220 O 0.24089 0.52092 0.54016 0.0
O221 O 0.27862 0.5363 0.56374 0.0
O222 O 0.17143 0.55473 0.51712 0.0
O223 O 0.1573 0.58481 0.54293 0.0
C224 C 0.15749 0.3453 0.27136 0.0
C225 C 0.15365 0.3042 0.26667 0.0
C226 C 0.17555 0.37329 0.25968 0.0
C227 C 0.1907 0.36001 0.24284 0.0
C228 C 0.18767 0.31848 0.23806 0.0
C229 C 0.169 0.29101 0.25002 0.0
C230 C 0.17812 0.41731 0.26537 0.0
C231 C 0.2039 0.30321 0.22031 0.0
C232 C 0.20239 0.44983 0.21151 0.0
C233 C 0.24172 0.46254 0.216 0.0
C234 C 0.18624 0.41393 0.21886 0.0
C235 C 0.21032 0.39018 0.23069 0.0
C236 C 0.25153 0.40066 0.23352 0.0
C237 C 0.2666 0.43695 0.22629 0.0
C238 C 0.14215 0.40389 0.21549 0.0
C239 C 0.27859 0.37586 0.24571 0.0
H240 H 0.14575 0.35594 0.28415 0.0
H241 H 0.16609 0.25936 0.24625 0.0
H242 H 0.21038 0.427 0.266 0.0
H243 H 0.16268 0.43685 0.2553 0.0
H244 H 0.16402 0.4228 0.27873 0.0
H245 H 0.20028 0.26984 0.21882 0.0
H246 H 0.1878 0.3184 0.20906 0.0
H247 H 0.2366 0.31091 0.21902 0.0
H248 H 0.18307 0.46964 0.2036 0.0
H249 H 0.29723 0.44656 0.2296 0.0
H250 H 0.12398 0.41255 0.22748 0.0
H251 H 0.13802 0.37082 0.21334 0.0
H252 H 0.12993 0.42045 0.20364 0.0
H253 H 0.2706 0.38216 0.25995 0.0
H254 H 0.31122 0.38332 0.24374 0.0
H255 H 0.27416 0.34291 0.24334 0.0
C256 C 0.4616 0.82464 0.80474 0.0
C257 C 0.46775 0.78259 0.80412 0.0
C258 C 0.42649 0.842 0.79716 0.0
C259 C 0.39692 0.81653 0.78907 0.0
C260 C 0.40069 0.77387 0.79065 0.0
C261 C 0.43628 0.75741 0.79802 0.0
C262 C 0.42364 0.88762 0.79585 0.0
C263 C 0.36953 0.74551 0.78263 0.0
C264 C 0.30183 0.8627 0.76788 0.0
C265 C 0.31388 0.86633 0.7498 0.0
C266 C 0.32828 0.84635 0.78092 0.0
C267 C 0.36772 0.83371 0.77576 0.0
C268 C 0.37979 0.83693 0.75751 0.0
C269 C 0.35276 0.85296 0.74481 0.0
C270 C 0.31423 0.84297 0.8002 0.0
C271 C 0.42157 0.82377 0.75136 0.0
H272 H 0.48597 0.8442 0.80937 0.0
H273 H 0.44092 0.72482 0.79765 0.0
H274 H 0.43259 0.89728 0.7821 0.0
H275 H 0.39205 0.89811 0.79817 0.0
H276 H 0.44405 0.90287 0.80567 0.0
H277 H 0.37232 0.71432 0.78819 0.0
H278 H 0.33825 0.75674 0.7851 0.0
H279 H 0.37403 0.74388 0.76784 0.0
H280 H 0.27189 0.87301 0.7719 0.0
H281 H 0.36251 0.8556 0.73092 0.0
H282 H 0.3333 0.86258 0.80892 0.0
H283 H 0.3179 0.81134 0.80505 0.0
H284 H 0.28194 0.85208 0.80185 0.0
H285 H 0.44524 0.84068 0.7589 0.0
H286 H 0.4264 0.82894 0.73673 0.0
H287 H 0.42601 0.791 0.75418 0.0
C288 C 0.80341 0.55615 0.21155 0.0
C289 C 0.76413 0.54333 0.21605 0.0
C290 C 0.81951 0.59205 0.21893 0.0
C291 C 0.79543 0.61568 0.23082 0.0
C292 C 0.75426 0.60508 0.23367 0.0
C293 C 0.73924 0.5688 0.2264 0.0
C294 C 0.86355 0.60222 0.21554 0.0
C295 C 0.7272 0.62975 0.24591 0.0
C296 C 0.84828 0.66048 0.27152 0.0
C297 C 0.85198 0.70162 0.26689 0.0
C298 C 0.83028 0.63249 0.2598 0.0
C299 C 0.81504 0.64583 0.24299 0.0
C300 C 0.81792 0.68739 0.23827 0.0
C301 C 0.83655 0.71485 0.25026 0.0
C302 C 0.82788 0.58844 0.26543 0.0
C303 C 0.80158 0.70273 0.22055 0.0
H304 H 0.82273 0.53643 0.20359 0.0
H305 H 0.70865 0.5591 0.22972 0.0
H306 H 0.8676 0.63531 0.21344 0.0
H307 H 0.88181 0.59351 0.2275 0.0
H308 H 0.87575 0.58577 0.20365 0.0
H309 H 0.69458 0.6222 0.24397 0.0
H310 H 0.7353 0.6234 0.26014 0.0
H311 H 0.73153 0.66272 0.24358 0.0
H312 H 0.8601 0.64979 0.28429 0.0
H313 H 0.83935 0.74654 0.24653 0.0
H314 H 0.84333 0.56901 0.25532 0.0
H315 H 0.79565 0.57865 0.26607 0.0
H316 H 0.84207 0.58291 0.27877 0.0
H317 H 0.81763 0.68759 0.20926 0.0
H318 H 0.80517 0.7361 0.21909 0.0
H319 H 0.76889 0.695 0.21929 0.0
C320 C 0.57469 0.242 0.80448 0.0
C321 C 0.54151 0.2163 0.80767 0.0
C322 C 0.61147 0.22662 0.79783 0.0
C323 C 0.61463 0.18471 0.79387 0.0
C324 C 0.58296 0.15808 0.79919 0.0
C325 C 0.5467 0.17425 0.8062 0.0
C326 C 0.64488 0.25599 0.79292 0.0
C327 C 0.58508 0.11318 0.7953 0.0
C328 C 0.66386 0.15987 0.74914 0.0
C329 C 0.70089 0.14224 0.75429 0.0
C330 C 0.63599 0.17387 0.76193 0.0
C331 C 0.64539 0.17083 0.78049 0.0
C332 C 0.68334 0.15454 0.78587 0.0
C333 C 0.7106 0.14014 0.77269 0.0
C334 C 0.59594 0.19115 0.7555 0.0
C335 C 0.69471 0.15141 0.80549 0.0
H336 H 0.57074 0.27458 0.80573 0.0
H337 H 0.521 0.15435 0.80857 0.0
H338 H 0.67523 0.24276 0.79573 0.0
H339 H 0.64329 0.2627 0.77829 0.0
H340 H 0.64189 0.28508 0.80038 0.0
H341 H 0.56227 0.09587 0.80322 0.0
H342 H 0.579 0.108 0.78078 0.0
H343 H 0.61577 0.10103 0.79829 0.0
H344 H 0.65597 0.16186 0.735 0.0
H345 H 0.7391 0.12653 0.77683 0.0
H346 H 0.59256 0.22292 0.76022 0.0
H347 H 0.57036 0.17338 0.7612 0.0
H348 H 0.59321 0.19089 0.74059 0.0
H349 H 0.68828 0.18036 0.81258 0.0
H350 H 0.7273 0.14365 0.80734 0.0
H351 H 0.67609 0.1275 0.812 0.0
C352 C 0.26041 0.06984 0.04524 0.0
C353 C 0.23553 0.04025 0.05313 0.0
C354 C 0.24409 0.10651 0.03898 0.0
C355 C 0.2017 0.11321 0.04026 0.0
C356 C 0.17727 0.08537 0.05001 0.0
C357 C 0.19463 0.04918 0.05648 0.0
C358 C 0.2715 0.13573 0.0291 0.0
C359 C 0.13196 0.09125 0.05168 0.0
C360 C 0.15587 0.21069 0.02113 0.0
C361 C 0.14656 0.19847 1.00349 0.0
C362 C 0.17391 0.18345 0.03341 0.0
C363 C 0.18225 0.14309 0.02792 0.0
C364 C 0.17283 0.13075 0.01015 0.0
C365 C 0.15544 0.15853 0.9982 0.0
C366 C 0.18405 0.19776 0.05217 0.0
C367 C 0.18101 0.08797 1.00368 0.0
H368 H 0.29222 0.06311 0.04283 0.0
H369 H 0.17533 0.02629 0.06255 0.0
H370 H 0.26798 0.13113 0.01438 0.0
H371 H 0.26323 0.16764 0.03215 0.0
H372 H 0.30396 0.1309 0.03262 0.0
H373 H 0.11891 0.07214 0.06257 0.0
H374 H 0.1244 0.12348 0.05438 0.0
H375 H 0.11721 0.0826 0.0388 0.0
H376 H 0.14907 0.24145 0.02535 0.0
H377 H 0.14826 0.14856 0.98466 0.0
H378 H 0.21697 0.19356 0.05482 0.0
H379 H 0.1674 0.17923 0.06222 0.0
H380 H 0.17622 0.23022 0.05427 0.0
H381 H 0.21405 0.08144 1.00434 0.0
H382 H 0.17064 0.08294 0.98962 0.0
H383 H 0.16537 0.06576 0.01251 0.0
C384 C 0.21697 0.84857 0.99662 0.0
C385 C 0.20404 0.85575 0.01437 0.0
C386 C 0.19018 0.83235 0.98368 0.0
C387 C 0.14956 0.82344 0.98859 0.0
C388 C 0.13666 0.83005 0.00655 0.0
C389 C 0.16401 0.84588 0.01916 0.0
C390 C 0.2051 0.82529 0.96473 0.0
C391 C 0.09366 0.82086 0.01246 0.0
C392 C 0.05687 0.81753 0.9587 0.0
C393 C 0.04753 0.77621 0.96029 0.0
C394 C 0.09279 0.83321 0.96627 0.0
C395 C 0.1199 0.80673 0.97536 0.0
C396 C 0.11294 0.76435 0.97485 0.0
C397 C 0.0766 0.74964 0.96747 0.0
C398 C 0.0991 0.87857 0.96643 0.0
C399 C 0.14137 0.73487 0.98398 0.0
H400 H 0.24779 0.8562 0.99276 0.0
H401 H 0.1536 0.85119 0.03281 0.0
H402 H 0.19872 0.7936 0.96052 0.0
H403 H 0.18858 0.84554 0.95531 0.0
H404 H 0.23821 0.83112 0.96336 0.0
H405 H 0.08837 0.82831 0.02686 0.0
H406 H 0.07178 0.83845 1.00419 0.0
H407 H 0.0869 0.78819 0.0104 0.0
H408 H 0.03433 0.83816 0.95325 0.0
H409 H 0.06948 0.71758 0.96859 0.0
H410 H 0.13151 0.88628 0.96418 0.0
H411 H 0.09032 0.89074 0.97981 0.0
H412 H 0.08037 0.89396 0.95602 0.0
H413 H 0.17355 0.74334 0.98161 0.0
H414 H 0.13647 0.70327 0.97921 0.0
H415 H 0.13598 0.73564 0.99873 0.0
C416 C 0.8553 0.85398 0.99354 0.0
C417 C 0.86253 0.81358 0.99858 0.0
C418 C 0.83746 0.88163 1.00546 0.0
C419 C 0.82603 0.86864 0.02291 0.0
C420 C 0.83286 0.82786 0.02813 0.0
C421 C 0.85123 0.80078 0.01591 0.0
C422 C 0.83085 0.92489 0.99931 0.0
C423 C 0.82068 0.8129 0.04655 0.0
C424 C 0.8118 0.96017 0.05296 0.0
C425 C 0.77112 0.96949 0.04931 0.0
C426 C 0.8296 0.92477 0.04589 0.0
C427 C 0.80584 0.89815 0.03518 0.0
C428 C 0.76361 0.90516 0.03338 0.0
C429 C 0.74684 0.94099 0.04032 0.0
C430 C 0.87471 0.9184 0.04818 0.0
C431 C 0.73693 0.87723 0.02243 0.0
H432 H 0.86405 0.86435 0.98024 0.0
H433 H 0.85676 0.76965 0.01994 0.0
H434 H 0.79793 0.93216 0.99947 0.0
H435 H 0.84618 0.94625 0.00866 0.0
H436 H 0.84261 0.93037 0.9855 0.0
H437 H 0.82831 0.78036 0.04859 0.0
H438 H 0.83614 0.83109 0.05709 0.0
H439 H 0.7875 0.81695 0.04849 0.0
H440 H 0.83065 0.98224 0.05986 0.0
H441 H 0.7152 0.94803 0.03765 0.0
H442 H 0.89053 0.92778 0.03565 0.0
H443 H 0.88179 0.88592 0.05052 0.0
H444 H 0.88707 0.9366 0.05952 0.0
H445 H 0.74228 0.88285 0.00789 0.0
H446 H 0.70416 0.8823 0.02525 0.0
H447 H 0.74433 0.84496 0.02516 0.0
C448 C 0.79154 0.16054 0.99579 0.0
C449 C 0.8029 0.1553 0.01387 0.0
C450 C 0.81934 0.17581 0.98304 0.0
C451 C 0.85934 0.18576 0.98853 0.0
C452 C 0.8705 0.18149 0.00685 0.0
C453 C 0.84219 0.16653 0.01924 0.0
C454 C 0.80625 0.18037 0.96368 0.0
C455 C 0.91274 0.192 0.01339 0.0
C456 C 0.95516 0.1882 0.96061 0.0
C457 C 0.96416 0.2297 0.96134 0.0
C458 C 0.91843 0.17335 0.96773 0.0
C459 C 0.89025 0.20085 0.97549 0.0
C460 C 0.89709 0.24312 0.97401 0.0
C461 C 0.93418 0.25703 0.96709 0.0
C462 C 0.91221 0.12806 0.96891 0.0
C463 C 0.86758 0.27359 0.98172 0.0
H464 H 0.76131 0.15179 0.99149 0.0
H465 H 0.8513 0.16283 0.03317 0.0
H466 H 0.81397 0.2111 0.95862 0.0
H467 H 0.82285 0.15815 0.95521 0.0
H468 H 0.77311 0.17528 0.96193 0.0
H469 H 0.91655 0.1867 0.02806 0.0
H470 H 0.93561 0.17349 1.0061 0.0
H471 H 0.91946 0.22438 0.01055 0.0
H472 H 0.97837 0.16702 0.95624 0.0
H473 H 0.94105 0.28923 0.96753 0.0
H474 H 0.88014 0.11992 0.96608 0.0
H475 H 0.91935 0.11773 0.98278 0.0
H476 H 0.93222 0.11141 0.95939 0.0
H477 H 0.83573 0.26457 0.97892 0.0
H478 H 0.87284 0.30451 0.97621 0.0
H479 H 0.8714 0.27492 0.99656 0.0
C480 C 0.66238 0.84669 0.76628 0.0
C481 C 0.64684 0.80872 0.76122 0.0
C482 C 0.67677 0.87423 0.75344 0.0
C483 C 0.67603 0.8636 0.73496 0.0
C484 C 0.66165 0.82485 0.72971 0.0
C485 C 0.64703 0.79786 0.74292 0.0
C486 C 0.6921 0.91516 0.7597 0.0
C487 C 0.66079 0.81229 0.71018 0.0
C488 C 0.67963 0.96041 0.70799 0.0
C489 C 0.7217 0.96642 0.70717 0.0
C490 C 0.66362 0.92435 0.71522 0.0
C491 C 0.69048 0.89379 0.72148 0.0
C492 C 0.73267 0.89757 0.71822 0.0
C493 C 0.74783 0.93408 0.71124 0.0
C494 C 0.6184 0.92139 0.71828 0.0
C495 C 0.76234 0.86535 0.72421 0.0
H496 H 0.66254 0.85541 0.78035 0.0
H497 H 0.63498 0.76864 0.73885 0.0
H498 H 0.72416 0.91938 0.75549 0.0
H499 H 0.67397 0.93974 0.75339 0.0
H500 H 0.6904 0.91871 0.77455 0.0
H501 H 0.65361 0.77954 0.70853 0.0
H502 H 0.63743 0.83023 0.70293 0.0
H503 H 0.69045 0.81866 0.70367 0.0
H504 H 0.65938 0.98544 0.7049 0.0
H505 H 0.78043 0.93864 0.71046 0.0
H506 H 0.61164 0.92853 0.73257 0.0
H507 H 0.6073 0.8902 0.71557 0.0
H508 H 0.60134 0.94305 0.70966 0.0
H509 H 0.76746 0.86817 0.73892 0.0
H510 H 0.79213 0.86854 0.71731 0.0
H511 H 0.75017 0.8345 0.72158 0.0
C512 C 0.93672 0.23855 0.28539 0.0
C513 C 0.9621 0.26325 0.29587 0.0
C514 C 0.90035 0.25361 0.2782 0.0
C515 C 0.8896 0.29462 0.28128 0.0
C516 C 0.9131 0.31843 0.29333 0.0
C517 C 0.94908 0.30228 0.30062 0.0
C518 C 0.87583 0.22684 0.26578 0.0
C519 C 0.90274 0.36229 0.29697 0.0
C520 C 0.84539 0.34842 0.24075 0.0
C521 C 0.80413 0.35192 0.24527 0.0
C522 C 0.87322 0.33018 0.25246 0.0
C523 C 0.85961 0.31448 0.26914 0.0
C524 C 0.81792 0.31719 0.27375 0.0
C525 C 0.79062 0.33607 0.26177 0.0
C526 C 0.91742 0.32798 0.24696 0.0
C527 C 0.80231 0.30038 0.29132 0.0
H528 H 0.94656 0.20812 0.28189 0.0
H529 H 0.96871 0.32145 0.3087 0.0
H530 H 0.84279 0.23107 0.26806 0.0
H531 H 0.88235 0.23527 0.2516 0.0
H532 H 0.8834 0.19422 0.26758 0.0
H533 H 0.919 0.37414 0.30898 0.0
H534 H 0.9116 0.38092 0.28516 0.0
H535 H 0.86959 0.36618 0.299 0.0
H536 H 0.85629 0.36056 0.22808 0.0
H537 H 0.75884 0.33871 0.2654 0.0
H538 H 0.92726 0.29581 0.24616 0.0
H539 H 0.93668 0.34316 0.2572 0.0
H540 H 0.92315 0.34253 0.23371 0.0
H541 H 0.81002 0.26768 0.29242 0.0
H542 H 0.76888 0.30392 0.29271 0.0
H543 H 0.8173 0.31608 0.30275 0.0
C544 C 0.32695 0.05233 0.70542 0.0
C545 C 0.2849 0.04586 0.70567 0.0
C546 C 0.34356 0.08821 0.71257 0.0
C547 C 0.31731 0.11827 0.71977 0.0
C548 C 0.27479 0.11416 0.71753 0.0
C549 C 0.25905 0.07768 0.71074 0.0
C550 C 0.38907 0.09134 0.71461 0.0
C551 C 0.2457 0.14599 0.72442 0.0
C552 C 0.3496 0.16227 0.76461 0.0
C553 C 0.36504 0.20049 0.75983 0.0
C554 C 0.33406 0.13565 0.75166 0.0
C555 C 0.33315 0.14757 0.73334 0.0
C556 C 0.34736 0.18662 0.7284 0.0
C557 C 0.36352 0.21255 0.7417 0.0
C558 C 0.31926 0.0943 0.75763 0.0
C559 C 0.34622 0.20067 0.70908 0.0
H560 H 0.34699 0.02769 0.70157 0.0
H561 H 0.22645 0.07279 0.71078 0.0
H562 H 0.39967 0.12271 0.71193 0.0
H563 H 0.39754 0.08364 0.72866 0.0
H564 H 0.40521 0.07017 0.70542 0.0
H565 H 0.21523 0.14296 0.71811 0.0
H566 H 0.24213 0.14249 0.7392 0.0
H567 H 0.25749 0.17699 0.72181 0.0
H568 H 0.35051 0.1525 0.77853 0.0
H569 H 0.37537 0.24201 0.73787 0.0
H570 H 0.3363 0.07013 0.75046 0.0
H571 H 0.28665 0.09064 0.75421 0.0
H572 H 0.32289 0.08949 0.77234 0.0
H573 H 0.36946 0.184 0.70119 0.0
H574 H 0.35241 0.23371 0.70785 0.0
H575 H 0.31621 0.19401 0.70293 0.0
C576 C 0.05641 0.70301 0.30082 0.0
C577 C 0.04348 0.74211 0.29614 0.0
C578 C 0.09237 0.68685 0.29351 0.0
C579 C 0.11594 0.7107 0.28152 0.0
C580 C 0.10527 0.75175 0.2785 0.0
C581 C 0.06893 0.76683 0.28571 0.0
C582 C 0.10264 0.64294 0.29708 0.0
C583 C 0.12986 0.77856 0.26614 0.0
C584 C 0.21501 0.66937 0.26203 0.0
C585 C 0.20158 0.65367 0.24548 0.0
C586 C 0.18764 0.68813 0.27402 0.0
C587 C 0.14598 0.69088 0.26938 0.0
C588 C 0.13245 0.67532 0.25265 0.0
C589 C 0.16034 0.65719 0.24093 0.0
C590 C 0.20317 0.70479 0.29165 0.0
C591 C 0.08828 0.67757 0.24711 0.0
H592 H 0.03673 0.68383 0.30886 0.0
H593 H 0.05916 0.79731 0.28226 0.0
H594 H 0.09379 0.62441 0.28523 0.0
H595 H 0.13578 0.63897 0.29913 0.0
H596 H 0.08632 0.63103 0.30906 0.0
H597 H 0.12231 0.81118 0.26797 0.0
H598 H 0.16289 0.77429 0.26845 0.0
H599 H 0.12341 0.77021 0.25195 0.0
H600 H 0.24678 0.66671 0.26569 0.0
H601 H 0.1495 0.64517 0.22823 0.0
H602 H 0.18803 0.68909 0.30303 0.0
H603 H 0.19558 0.73752 0.29278 0.0
H604 H 0.23658 0.70112 0.29309 0.0
H605 H 0.06896 0.66233 0.25731 0.0
H606 H 0.0826 0.66311 0.23383 0.0
H607 H 0.07845 0.70974 0.24635 0.0
C608 C 0.74737 0.56704 0.54709 0.0
C609 C 0.72152 0.53464 0.55139 0.0
C610 C 0.73176 0.60381 0.54059 0.0
C611 C 0.68933 0.60785 0.53806 0.0
C612 C 0.66292 0.57703 0.54446 0.0
C613 C 0.67942 0.54068 0.55119 0.0
C614 C 0.76104 0.63615 0.53436 0.0
C615 C 0.61749 0.5802 0.54214 0.0
C616 C 0.64566 0.70581 0.51859 0.0
C617 C 0.6442 0.69636 0.50015 0.0
C618 C 0.66049 0.67755 0.53122 0.0
C619 C 0.67386 0.63897 0.52524 0.0
C620 C 0.67303 0.62962 0.50663 0.0
C621 C 0.65842 0.65839 0.49437 0.0
C622 C 0.66129 0.68868 0.55092 0.0
C623 C 0.68719 0.58891 0.4996 0.0
H624 H 0.78001 0.56244 0.54738 0.0
H625 H 0.65938 0.51559 0.55445 0.0
H626 H 0.76469 0.63404 0.51953 0.0
H627 H 0.74935 0.66693 0.53751 0.0
H628 H 0.79146 0.63248 0.54064 0.0
H629 H 0.60108 0.55827 0.55087 0.0
H630 H 0.60668 0.61132 0.54522 0.0
H631 H 0.60956 0.57356 0.52791 0.0
H632 H 0.63462 0.73502 0.52321 0.0
H633 H 0.65755 0.65069 0.48019 0.0
H634 H 0.69205 0.68353 0.55658 0.0
H635 H 0.63998 0.66891 0.55846 0.0
H636 H 0.65259 0.72085 0.55324 0.0
H637 H 0.71955 0.58403 0.50318 0.0
H638 H 0.68407 0.58632 0.48475 0.0
H639 H 0.66933 0.56417 0.50593 0.0
C640 C 0.66518 0.33956 0.51047 0.0
C641 C 0.70229 0.35659 0.50505 0.0
C642 C 0.6372 0.32474 0.49791 0.0
C643 C 0.64662 0.32618 0.47932 0.0
C644 C 0.68474 0.34163 0.47369 0.0
C645 C 0.71206 0.35703 0.48663 0.0
C646 C 0.59695 0.30847 0.50462 0.0
C647 C 0.69624 0.34292 0.45405 0.0
C648 C 0.57371 0.25492 0.45676 0.0
C649 C 0.54132 0.28128 0.45313 0.0
C650 C 0.6111 0.26986 0.46296 0.0
C651 C 0.6155 0.31199 0.46617 0.0
C652 C 0.58451 0.33902 0.46046 0.0
C653 C 0.54775 0.32326 0.4538 0.0
C654 C 0.64388 0.24008 0.46819 0.0
C655 C 0.58787 0.38414 0.46362 0.0
H656 H 0.65725 0.3388 0.52463 0.0
H657 H 0.74064 0.3701 0.48228 0.0
H658 H 0.57157 0.32598 0.49858 0.0
H659 H 0.59325 0.27633 0.50047 0.0
H660 H 0.59418 0.31011 0.5195 0.0
H661 H 0.72923 0.34868 0.45215 0.0
H662 H 0.68814 0.31402 0.44726 0.0
H663 H 0.67912 0.36758 0.44727 0.0
H664 H 0.56874 0.22239 0.45616 0.0
H665 H 0.52259 0.34364 0.45112 0.0
H666 H 0.64241 0.23446 0.4829 0.0
H667 H 0.67447 0.25238 0.46508 0.0
H668 H 0.64004 0.21055 0.46116 0.0
H669 H 0.58253 0.39061 0.47809 0.0
H670 H 0.56518 0.40138 0.4556 0.0
H671 H 0.61872 0.39526 0.46021 0.0
C672 C 0.25525 0.43715 0.54597 0.0
C673 C 0.28066 0.46839 0.5521 0.0
C674 C 0.27151 0.40096 0.53914 0.0
C675 C 0.31421 0.39639 0.5381 0.0
C676 C 0.33975 0.42581 0.54625 0.0
C677 C 0.32256 0.46151 0.55331 0.0
C678 C 0.24305 0.36999 0.53105 0.0
C679 C 0.38541 0.42214 0.54549 0.0
C680 C 0.35985 0.30027 0.51766 0.0
C681 C 0.36425 0.31189 0.49956 0.0
C682 C 0.34342 0.32721 0.53048 0.0
C683 C 0.33161 0.36671 0.52507 0.0
C684 C 0.33577 0.37839 0.50681 0.0
C685 C 0.35177 0.35086 0.49434 0.0
C686 C 0.33896 0.31358 0.54977 0.0
C687 C 0.32358 0.42023 0.5004 0.0
H688 H 0.22275 0.44236 0.54517 0.0
H689 H 0.34228 0.48571 0.55798 0.0
H690 H 0.24216 0.37405 0.51622 0.0
H691 H 0.2537 0.33866 0.53381 0.0
H692 H 0.21163 0.37342 0.53631 0.0
H693 H 0.40043 0.4425 0.55539 0.0
H694 H 0.39523 0.39046 0.54806 0.0
H695 H 0.39604 0.43062 0.53182 0.0
H696 H 0.36944 0.27024 0.52184 0.0
H697 H 0.35506 0.3603 0.48044 0.0
H698 H 0.30711 0.31773 0.55431 0.0
H699 H 0.35838 0.33257 0.55861 0.0
H700 H 0.3476 0.28125 0.55162 0.0
H701 H 0.29069 0.42518 0.50284 0.0
H702 H 0.32965 0.42477 0.48583 0.0
H703 H 0.34041 0.44376 0.50807 0.0
C704 C 0.43532 0.75702 0.46262 0.0
C705 C 0.46632 0.73125 0.45654 0.0
C706 C 0.39895 0.74121 0.46949 0.0
C707 C 0.39396 0.69861 0.47061 0.0
C708 C 0.42306 0.67273 0.46244 0.0
C709 C 0.45896 0.68947 0.45535 0.0
C710 C 0.36833 0.77002 0.4776 0.0
C711 C 0.41888 0.62716 0.46325 0.0
C712 C 0.34883 0.66142 0.51452 0.0
C713 C 0.30972 0.64905 0.50939 0.0
C714 C 0.37623 0.67738 0.50197 0.0
C715 C 0.36428 0.68163 0.48375 0.0
C716 C 0.32457 0.67012 0.47846 0.0
C717 C 0.29776 0.65374 0.49134 0.0
C718 C 0.41829 0.68931 0.50826 0.0
C719 C 0.31064 0.67465 0.45922 0.0
H720 H 0.44092 0.78943 0.46342 0.0
H721 H 0.48298 0.66948 0.45073 0.0
H722 H 0.33683 0.75964 0.47494 0.0
H723 H 0.37261 0.77104 0.49241 0.0
H724 H 0.37199 0.80132 0.47226 0.0
H725 H 0.43899 0.61189 0.45332 0.0
H726 H 0.42739 0.61651 0.47691 0.0
H727 H 0.38704 0.61769 0.46074 0.0
H728 H 0.35851 0.65796 0.52838 0.0
H729 H 0.26763 0.64422 0.48723 0.0
H730 H 0.42349 0.72209 0.50573 0.0
H731 H 0.4416 0.67219 0.50059 0.0
H732 H 0.42296 0.6834 0.52284 0.0
H733 H 0.31567 0.70622 0.45451 0.0
H734 H 0.27798 0.66697 0.45753 0.0
H735 H 0.32882 0.65446 0.45039 0.0
C736 C 0.32703 0.27034 0.3966 0.0
C737 C 0.33115 0.24506 0.41167 0.0
C738 C 0.29392 0.26632 0.38479 0.0
C739 C 0.26348 0.23696 0.38836 0.0
C740 C 0.26784 0.21082 0.40339 0.0
C741 C 0.30189 0.21487 0.41475 0.0
C742 C 0.29107 0.29416 0.36869 0.0
C743 C 0.23575 0.1797 0.40789 0.0
C744 C 0.16069 0.26301 0.36786 0.0
C745 C 0.16015 0.2385 0.35243 0.0
C746 C 0.19314 0.26121 0.38016 0.0
C747 C 0.22645 0.23503 0.37672 0.0
C748 C 0.22545 0.2093 0.36144 0.0
C749 C 0.19211 0.21101 0.3496 0.0
C750 C 0.19245 0.28844 0.39651 0.0
C751 C 0.26059 0.18154 0.35705 0.0
H752 H 0.34963 0.29362 0.3941 0.0
H753 H 0.30469 0.1955 0.42648 0.0
H754 H 0.28652 0.27615 0.35622 0.0
H755 H 0.26441 0.3145 0.37016 0.0
H756 H 0.31869 0.3132 0.36704 0.0
H757 H 0.24451 0.16043 0.41953 0.0
H758 H 0.20677 0.19532 0.41113 0.0
H759 H 0.2299 0.15982 0.39612 0.0
H760 H 0.13603 0.2842 0.37017 0.0
H761 H 0.1921 0.19222 0.33761 0.0
H762 H 0.21634 0.31202 0.39524 0.0
H763 H 0.19919 0.27064 0.40884 0.0
H764 H 0.16265 0.30381 0.39825 0.0
H765 H 0.28781 0.20003 0.3538 0.0
H766 H 0.25393 0.16136 0.34544 0.0
H767 H 0.26839 0.16247 0.36886 0.0
C768 C 0.21887 0.70419 0.59639 0.0
C769 C 0.24771 0.67332 0.59886 0.0
C770 C 0.2163 0.73707 0.60846 0.0
C771 C 0.24246 0.73854 0.62361 0.0
C772 C 0.27015 0.7063 0.62663 0.0
C773 C 0.27284 0.67444 0.61409 0.0
C774 C 0.18702 0.7712 0.60451 0.0
C775 C 0.29788 0.70602 0.64283 0.0
C776 C 0.27493 0.83836 0.64503 0.0
C777 C 0.25015 0.84009 0.66036 0.0
C778 C 0.27131 0.80651 0.63254 0.0
C779 C 0.24301 0.77486 0.6357 0.0
C780 C 0.21724 0.77693 0.65096 0.0
C781 C 0.22076 0.80981 0.66299 0.0
C782 C 0.29866 0.80615 0.61622 0.0
C783 C 0.18734 0.74344 0.65506 0.0
H784 H 0.19964 0.70367 0.58454 0.0
H785 H 0.29505 0.65056 0.61611 0.0
H786 H 0.16777 0.77753 0.61644 0.0
H787 H 0.20432 0.79933 0.60153 0.0
H788 H 0.16697 0.76432 0.59287 0.0
H789 H 0.31477 0.67697 0.64415 0.0
H790 H 0.32024 0.73111 0.64172 0.0
H791 H 0.28008 0.71114 0.65531 0.0
H792 H 0.29755 0.8618 0.64288 0.0
H793 H 0.20179 0.81079 0.67492 0.0
H794 H 0.28046 0.80144 0.60382 0.0
H795 H 0.32046 0.78056 0.61723 0.0
H796 H 0.31618 0.83481 0.61482 0.0
H797 H 0.16763 0.73754 0.64323 0.0
H798 H 0.16777 0.75073 0.66681 0.0
H799 H 0.2041 0.71494 0.65796 0.0
C800 C 0.67825 0.73897 0.39715 0.0
C801 C 0.675 0.76418 0.4123 0.0
C802 C 0.71119 0.74241 0.38521 0.0
C803 C 0.74233 0.77108 0.38872 0.0
C804 C 0.73882 0.79718 0.40381 0.0
C805 C 0.70495 0.79374 0.4153 0.0
C806 C 0.71313 0.71464 0.36905 0.0
C807 C 0.77165 0.82759 0.40824 0.0
C808 C 0.84444 0.74318 0.36801 0.0
C809 C 0.84539 0.76787 0.35264 0.0
C810 C 0.81205 0.74541 0.38032 0.0
C811 C 0.77923 0.77225 0.37698 0.0
C812 C 0.78062 0.7981 0.36175 0.0
C813 C 0.81389 0.79592 0.34988 0.0
C814 C 0.81232 0.718 0.39661 0.0
C815 C 0.746 0.82657 0.35746 0.0
H816 H 0.65512 0.71618 0.39471 0.0
H817 H 0.70283 0.81305 0.42709 0.0
H818 H 0.7179 0.73263 0.3566 0.0
H819 H 0.73932 0.69367 0.37041 0.0
H820 H 0.68504 0.69626 0.36746 0.0
H821 H 0.7635 0.847 0.41992 0.0
H822 H 0.80034 0.81134 0.41137 0.0
H823 H 0.77773 0.84739 0.39647 0.0
H824 H 0.86874 0.72155 0.37027 0.0
H825 H 0.8142 0.81485 0.33794 0.0
H826 H 0.78783 0.69502 0.39535 0.0
H827 H 0.80618 0.73583 0.40899 0.0
H828 H 0.84175 0.70189 0.39824 0.0
H829 H 0.71835 0.80865 0.35427 0.0
H830 H 0.75291 0.84663 0.34584 0.0
H831 H 0.73876 0.84578 0.3693 0.0
C832 C 0.78296 0.17395 0.65107 0.0
C833 C 0.75043 0.17391 0.66324 0.0
C834 C 0.7859 0.2039 0.63759 0.0
C835 C 0.7565 0.23536 0.63677 0.0
C836 C 0.72449 0.23612 0.64951 0.0
C837 C 0.72143 0.20499 0.66234 0.0
C838 C 0.81961 0.20114 0.62388 0.0
C839 C 0.69322 0.2697 0.64953 0.0
C840 C 0.77821 0.33268 0.61052 0.0
C841 C 0.75298 0.32759 0.59551 0.0
C842 C 0.78012 0.30272 0.62404 0.0
C843 C 0.75753 0.26627 0.62205 0.0
C844 C 0.73353 0.26045 0.60643 0.0
C845 C 0.73087 0.29154 0.59356 0.0
C846 C 0.80485 0.31079 0.64077 0.0
C847 C 0.71008 0.22162 0.60342 0.0
H848 H 0.80534 0.14985 0.65175 0.0
H849 H 0.69654 0.20533 0.67191 0.0
H850 H 0.80639 0.1973 0.61023 0.0
H851 H 0.83752 0.22965 0.62372 0.0
H852 H 0.8405 0.17535 0.62657 0.0
H853 H 0.67261 0.26796 0.66135 0.0
H854 H 0.70848 0.29975 0.64958 0.0
H855 H 0.67454 0.26797 0.63713 0.0
H856 H 0.79513 0.36072 0.61202 0.0
H857 H 0.71167 0.28754 0.58183 0.0
H858 H 0.82684 0.28583 0.64306 0.0
H859 H 0.78442 0.31182 0.65265 0.0
H860 H 0.82178 0.33992 0.63998 0.0
H861 H 0.73025 0.19495 0.60531 0.0
H862 H 0.69655 0.22011 0.58973 0.0
H863 H 0.68522 0.2192 0.61344 0.0
C864 C 0.20295 0.22219 0.91463 0.0
C865 C 0.17184 0.25123 0.91469 0.0
C866 C 0.23525 0.22456 0.90234 0.0
C867 C 0.23563 0.2558 0.88924 0.0
C868 C 0.20409 0.28518 0.88918 0.0
C869 C 0.17297 0.28305 0.90219 0.0
C870 C 0.26888 0.19342 0.90334 0.0
C871 C 0.2025 0.31802 0.87504 0.0
C872 C 0.33535 0.27624 0.8645 0.0
C873 C 0.33173 0.25007 0.84973 0.0
C874 C 0.30414 0.27884 0.87745 0.0
C875 C 0.26792 0.25604 0.87509 0.0
C876 C 0.26363 0.23104 0.85968 0.0
C877 C 0.29592 0.2277 0.84742 0.0
C878 C 0.31061 0.3046 0.89401 0.0
C879 C 0.22512 0.20731 0.85625 0.0
H880 H 0.2024 0.1979 0.92448 0.0
H881 H 0.14886 0.30548 0.90224 0.0
H882 H 0.26831 0.17398 0.89115 0.0
H883 H 0.2989 0.20875 0.90373 0.0
H884 H 0.2661 0.17357 0.91536 0.0
H885 H 0.17633 0.33887 0.87699 0.0
H886 H 0.23093 0.33608 0.87523 0.0
H887 H 0.20008 0.30398 0.86149 0.0
H888 H 0.36318 0.29339 0.86628 0.0
H889 H 0.29302 0.2078 0.83586 0.0
H890 H 0.31049 0.28496 0.90614 0.0
H891 H 0.28544 0.3267 0.89555 0.0
H892 H 0.33982 0.32149 0.89356 0.0
H893 H 0.22184 0.18307 0.8665 0.0
H894 H 0.2249 0.19298 0.84271 0.0
H895 H 0.19823 0.22748 0.85743 0.0
C896 C 0.24352 0.66366 0.14486 0.0
C897 C 0.26813 0.66193 0.16025 0.0
C898 C 0.24597 0.69654 0.13283 0.0
C899 C 0.27298 0.72905 0.13648 0.0
C900 C 0.2987 0.72692 0.15175 0.0
C901 C 0.29629 0.69319 0.16333 0.0
C902 C 0.2187 0.69705 0.11648 0.0
C903 C 0.32735 0.76119 0.15636 0.0
C904 C 0.29591 0.80393 0.0986 0.0
C905 C 0.26657 0.8341 0.10162 0.0
C906 C 0.29881 0.76982 0.10996 0.0
C907 C 0.27237 0.76625 0.12493 0.0
C908 C 0.24396 0.79759 0.12848 0.0
C909 C 0.24106 0.83082 0.11667 0.0
C910 C 0.32899 0.73681 0.10549 0.0
C911 C 0.21585 0.79556 0.14452 0.0
H912 H 0.22179 0.63957 0.14236 0.0
H913 H 0.31516 0.69229 0.17529 0.0
H914 H 0.196 0.72178 0.11781 0.0
H915 H 0.23677 0.70329 0.10418 0.0
H916 H 0.20223 0.6679 0.11465 0.0
H917 H 0.34708 0.75384 0.16805 0.0
H918 H 0.34693 0.76854 0.14465 0.0
H919 H 0.30956 0.78887 0.15958 0.0
H920 H 0.31544 0.80605 0.08689 0.0
H921 H 0.21842 0.85408 0.11911 0.0
H922 H 0.31248 0.7084 0.10215 0.0
H923 H 0.34853 0.73025 0.1173 0.0
H924 H 0.34872 0.74503 0.09392 0.0
H925 H 0.19459 0.76967 0.14295 0.0
H926 H 0.19777 0.82379 0.14619 0.0
H927 H 0.23358 0.79026 0.15701 0.0
C928 C 0.81146 0.71881 0.91421 0.0
C929 C 0.84308 0.7465 0.9111 0.0
C930 C 0.77806 0.7162 0.90241 0.0
C931 C 0.77677 0.74114 0.88686 0.0
C932 C 0.80971 0.76761 0.88321 0.0
C933 C 0.84212 0.77038 0.89548 0.0
C934 C 0.74325 0.68826 0.90704 0.0
C935 C 0.81016 0.79399 0.86659 0.0
C936 C 0.7033 0.71792 0.84841 0.0
C937 C 0.67371 0.74811 0.8508 0.0
C938 C 0.73667 0.7147 0.8602 0.0
C939 C 0.73999 0.74167 0.87501 0.0
C940 C 0.70909 0.77091 0.87794 0.0
C941 C 0.67669 0.77413 0.86569 0.0
C942 C 0.76931 0.68371 0.85635 0.0
C943 C 0.7108 0.79962 0.89378 0.0
H944 H 0.81181 0.70058 0.92636 0.0
H945 H 0.86655 0.79172 0.89296 0.0
H946 H 0.71568 0.70656 0.90992 0.0
H947 H 0.73599 0.66824 0.89547 0.0
H948 H 0.74996 0.66903 0.91896 0.0
H949 H 0.83964 0.80993 0.8648 0.0
H950 H 0.8041 0.77538 0.85442 0.0
H951 H 0.78572 0.81709 0.86751 0.0
H952 H 0.70138 0.69797 0.83683 0.0
H953 H 0.65383 0.79741 0.86766 0.0
H954 H 0.77508 0.66478 0.86842 0.0
H955 H 0.79815 0.6995 0.85304 0.0
H956 H 0.76115 0.66347 0.84494 0.0
H957 H 0.71545 0.7824 0.90645 0.0
H958 H 0.68267 0.81805 0.89508 0.0
H959 H 0.73698 0.82055 0.89224 0.0
C960 C 0.71039 0.20296 0.09805 0.0
C961 C 0.73963 0.17263 0.10095 0.0
C962 C 0.70756 0.23683 0.10955 0.0
C963 C 0.73399 0.24002 0.12455 0.0
C964 C 0.76228 0.2085 0.12798 0.0
C965 C 0.7651 0.1755 0.11603 0.0
C966 C 0.67752 0.27004 0.1052 0.0
C967 C 0.79035 0.21011 0.14405 0.0
C968 C 0.76296 0.34238 0.14472 0.0
C969 C 0.73821 0.34408 0.16007 0.0
C970 C 0.7606 0.30954 0.13265 0.0
C971 C 0.73353 0.27704 0.13622 0.0
C972 C 0.70771 0.2791 0.15146 0.0
C973 C 0.71004 0.31279 0.16308 0.0
C974 C 0.78797 0.30909 0.11634 0.0
C975 C 0.67899 0.24485 0.15597 0.0
H976 H 0.69087 0.20117 0.08632 0.0
H977 H 0.78767 0.15212 0.11838 0.0
H978 H 0.658 0.27648 0.11703 0.0
H979 H 0.69414 0.29844 0.10197 0.0
H980 H 0.65775 0.26211 0.0936 0.0
H981 H 0.80827 0.18175 0.14564 0.0
H982 H 0.81178 0.2359 0.14258 0.0
H983 H 0.77263 0.21534 0.15655 0.0
H984 H 0.78471 0.36648 0.14228 0.0
H985 H 0.69108 0.31366 0.175 0.0
H986 H 0.76993 0.30312 0.104 0.0
H987 H 0.81052 0.28421 0.11763 0.0
H988 H 0.80462 0.33817 0.11462 0.0
H989 H 0.65935 0.23772 0.14425 0.0
H990 H 0.65931 0.25207 0.16769 0.0
H991 H 0.69671 0.21706 0.1591 0.0
C992 C 0.9379 0.94175 0.28309 0.0
C993 C 0.9481 0.90975 0.29461 0.0
C994 C 0.95823 0.97918 0.28422 0.0
C995 C 0.99091 0.98379 0.29652 0.0
C996 C 1.00091 0.95157 0.30832 0.0
C997 C 0.97876 0.91521 0.30747 0.0
C998 C 0.94547 0.01339 0.27194 0.0
C999 C 0.03654 0.95456 0.32107 0.0
C1000 C 0.06779 0.06407 0.28265 0.0
C1001 C 0.05823 0.09582 0.29442 0.0
C1002 C 0.04756 0.02659 0.28384 0.0
C1003 C 0.01561 0.02168 0.29647 0.0
C1004 C 0.0063 0.05361 0.30855 0.0
C1005 C 0.02836 0.09002 0.30761 0.0
C1006 C 0.0596 0.99269 0.27125 0.0
C1007 C 0.97145 0.05028 0.32169 0.0
H1008 H 0.9144 0.93728 0.27305 0.0
H1009 H 0.98726 0.89001 0.31608 0.0
H1010 H 0.94159 0.04186 0.27975 0.0
H1011 H 0.96946 0.01894 0.26175 0.0
H1012 H 0.9166 0.00659 0.26479 0.0
H1013 H 0.03945 0.9273 0.32978 0.0
H1014 H 0.06502 0.95813 0.31322 0.0
H1015 H 0.03358 0.98172 0.32979 0.0
H1016 H 0.09069 0.06878 0.27237 0.0
H1017 H 0.02032 0.11501 0.31643 0.0
H1018 H 0.03504 0.98739 0.2613 0.0
H1019 H 0.06391 0.96403 0.27887 0.0
H1020 H 0.08806 0.99966 0.26382 0.0
H1021 H 0.94251 0.04692 0.31416 0.0
H1022 H 0.96907 0.07732 0.33058 0.0
H1023 H 0.97493 0.0229 0.33023 0.0
C1024 C 0.93511 0.06 0.72069 0.0
C1025 C 0.90511 0.04321 0.73182 0.0
C1026 C 0.97482 0.04422 0.72057 0.0
C1027 C 0.98445 0.01044 0.73159 0.0
C1028 C 0.95434 0.99361 0.74294 0.0
C1029 C 0.9152 0.01042 0.74304 0.0
C1030 C 0.00639 0.06348 0.70856 0.0
C1031 C 0.96324 0.95732 0.75473 0.0
C1032 C 0.07641 0.94675 0.71855 0.0
C1033 C 0.10583 0.96098 0.73066 0.0
C1034 C 0.03654 0.96211 0.71888 0.0
C1035 C 0.02613 0.99285 0.73141 0.0
C1036 C 0.05555 0.00685 0.74383 0.0
C1037 C 0.09488 0.99052 0.7434 0.0
C1038 C 0.00571 0.94585 0.70566 0.0
C1039 C 0.04579 0.03984 0.75729 0.0
H1040 H 0.92749 0.08528 0.71198 0.0
H1041 H 0.89211 0.99697 0.75156 0.0
H1042 H 0.033 0.07312 0.71669 0.0
H1043 H 0.01741 0.04099 0.69857 0.0
H1044 H 0.99438 0.09031 0.70122 0.0
H1045 H 0.93635 0.94769 0.76271 0.0
H1046 H 0.97329 0.93139 0.74629 0.0
H1047 H 0.9884 0.96442 0.76415 0.0
H1048 H 0.08466 0.92398 0.70867 0.0
H1049 H 0.11748 1.00196 0.75273 0.0
H1050 H 0.99537 0.9706 0.69663 0.0
H1051 H 0.97858 0.9345 0.71297 0.0
H1052 H 0.01815 0.92083 0.69728 0.0
H1053 H 0.03632 0.06781 0.7501 0.0
H1054 H 0.07209 0.04725 0.76607 0.0
H1055 H 0.01997 0.0304 0.76593 0.0
C1056 C 0.01547 0.41544 0.99649 0.0
C1057 C 0.04774 0.406 0.98486 0.0
C1058 C 0.99733 0.45395 0.99635 0.0
C1059 C 0.01236 0.48414 0.98457 0.0
C1060 C 0.04581 0.47528 0.9732 0.0
C1061 C 0.06284 0.43611 0.97333 0.0
C1062 C 0.96138 0.46198 0.00849 0.0
C1063 C 0.06328 0.50703 0.96077 0.0
C1064 C 0.94459 0.57298 0.97138 0.0
C1065 C 0.95807 0.60329 0.9832 0.0
C1066 C 0.96145 0.53376 0.9719 0.0
C1067 C 0.99313 0.52504 0.98424 0.0
C1068 C 0.00646 0.55541 0.99634 0.0
C1069 C 0.98847 0.59397 0.99581 0.0
C1070 C 0.94576 0.50181 0.95909 0.0
C1071 C 0.04055 0.54754 0.00951 0.0
H1072 H 1.0033 0.39222 1.00531 0.0
H1073 H 0.0877 0.42897 0.9643 0.0
H1074 H 0.968 0.48784 0.01759 0.0
H1075 H 0.93457 0.47055 1.00026 0.0
H1076 H 0.9533 0.43516 0.01682 0.0
H1077 H 0.09037 0.49584 0.95335 0.0
H1078 H 0.03997 0.51655 0.95084 0.0
H1079 H 0.07203 0.53441 0.96857 0.0
H1080 H 0.92118 0.58002 0.9616 0.0
H1081 H 0.99942 0.61734 1.00487 0.0
H1082 H 0.93597 0.47453 0.9667 0.0
H1083 H 0.97042 0.49219 0.94984 0.0
H1084 H 0.91975 0.51287 0.95091 0.0
H1085 H 0.03263 0.52176 0.01845 0.0
H1086 H 0.04736 0.57446 0.01801 0.0
H1087 H 0.06852 0.53893 1.0021 0.0
C1088 C 0.41826 0.97661 0.0585 0.0
C1089 C 0.4103 0.94998 0.04422 0.0
C1090 C 0.45498 0.99823 0.05938 0.0
C1091 C 0.48504 0.99172 0.04605 0.0
C1092 C 0.47798 0.96293 0.03219 0.0
C1093 C 0.44021 0.94317 0.03118 0.0
C1094 C 0.46059 0.02976 0.07394 0.0
C1095 C 0.50988 0.9538 0.01816 0.0
C1096 C 0.56411 0.07159 0.03413 0.0
C1097 C 0.59745 0.05855 0.04426 0.0
C1098 C 0.52659 0.05135 0.03534 0.0
C1099 C 0.52324 0.01601 0.04617 0.0
C1100 C 0.55697 1.003 0.05649 0.0
C1101 C 0.59346 0.02498 0.05568 0.0
C1102 C 0.49088 0.06718 0.02469 0.0
C1103 C 0.55531 0.96459 0.06756 0.0
H1104 H 0.39464 0.98257 0.06834 0.0
H1105 H 0.4338 0.92281 0.02006 0.0
H1106 H 0.48907 0.02408 0.0815 0.0
H1107 H 0.46333 0.06025 0.0677 0.0
H1108 H 0.43483 0.03024 0.0836 0.0
H1109 H 0.5015 0.92735 0.00965 0.0
H1110 H 0.51404 0.98055 0.00929 0.0
H1111 H 0.53955 0.94753 0.0247 0.0
H1112 H 0.56754 0.09731 0.02515 0.0
H1113 H 0.61974 0.0144 0.06315 0.0
H1114 H 0.4636 0.06942 0.03343 0.0
H1115 H 0.48354 0.04577 0.01363 0.0
H1116 H 0.49708 0.09748 0.01873 0.0
H1117 H 0.52961 0.96576 0.0772 0.0
H1118 H 0.58383 0.95929 0.07521 0.0
H1119 H 0.54997 0.93821 0.05856 0.0
C1120 C 0.50146 0.41113 0.77119 0.0
C1121 C 0.46875 0.40153 0.78255 0.0
C1122 C 0.51854 0.45012 0.77107 0.0
C1123 C 0.5021 0.48056 0.78235 0.0
C1124 C 0.46847 0.47139 0.79356 0.0
C1125 C 0.4524 0.43183 0.79365 0.0
C1126 C 0.55465 0.45854 0.75908 0.0
C1127 C 0.44963 0.50332 0.80552 0.0
C1128 C 0.56654 0.57259 0.79448 0.0
C1129 C 0.55219 0.60156 0.78221 0.0
C1130 C 0.55095 0.53284 0.79451 0.0
C1131 C 0.51982 0.52213 0.78221 0.0
C1132 C 0.50562 0.55114 0.76966 0.0
C1133 C 0.52222 0.59033 0.76971 0.0
C1134 C 0.56743 0.50243 0.80785 0.0
C1135 C 0.47217 0.54107 0.75645 0.0
H1136 H 0.51456 0.38781 0.76269 0.0
H1137 H 0.42717 0.42459 0.80246 0.0
H1138 H 0.54734 0.48332 0.7495 0.0
H1139 H 0.58077 0.4689 0.76734 0.0
H1140 H 0.56411 0.43138 0.75126 0.0
H1141 H 0.423 0.49158 0.81309 0.0
H1142 H 0.47247 0.51459 0.8153 0.0
H1143 H 0.43978 0.52966 0.7973 0.0
H1144 H 0.58964 0.58109 0.80418 0.0
H1145 H 0.51066 0.6126 0.76027 0.0
H1146 H 0.57859 0.47508 0.80066 0.0
H1147 H 0.54283 0.49243 0.81705 0.0
H1148 H 0.59267 0.51508 0.81605 0.0
H1149 H 0.48132 0.51504 0.74789 0.0
H1150 H 0.46452 0.56712 0.74758 0.0
H1151 H 0.44437 0.53185 0.76385 0.0
C1152 C 0.56408 0.43781 0.22889 0.0
C1153 C 0.59616 0.44818 0.21744 0.0
C1154 C 0.52659 0.4581 0.22776 0.0
C1155 C 0.52204 0.49089 0.21556 0.0
C1156 C 0.55435 0.50107 0.20382 0.0
C1157 C 0.59075 0.47897 0.20465 0.0
C1158 C 0.49229 0.44516 0.23997 0.0
C1159 C 0.5514 0.53683 0.19116 0.0
C1160 C 0.41578 0.52838 0.20442 0.0
C1161 C 0.40989 0.55807 0.21768 0.0
C1162 C 0.45223 0.50637 0.20348 0.0
C1163 C 0.4841 0.51554 0.21562 0.0
C1164 C 0.47909 0.54729 0.22833 0.0
C1165 C 0.44157 0.56749 0.22952 0.0
C1166 C 0.45566 0.47172 0.19025 0.0
C1167 C 0.51294 0.55918 0.241 0.0
H1168 H 0.56851 0.41421 0.23888 0.0
H1169 H 0.61602 0.4876 0.1961 0.0
H1170 H 0.48664 0.46899 0.25022 0.0
H1171 H 0.46385 0.44136 0.23211 0.0
H1172 H 0.49907 0.41623 0.24705 0.0
H1173 H 0.57875 0.53989 0.1825 0.0
H1174 H 0.52429 0.53395 0.1824 0.0
H1175 H 0.54773 0.56518 0.19908 0.0
H1176 H 0.39083 0.52047 0.19555 0.0
H1177 H 0.43678 0.59025 0.23986 0.0
H1178 H 0.45902 0.44271 0.19771 0.0
H1179 H 0.48311 0.47532 0.18175 0.0
H1180 H 0.42865 0.46942 0.18133 0.0
H1181 H 0.5182 0.5345 0.25088 0.0
H1182 H 0.50589 0.5875 0.24851 0.0
H1183 H 0.54167 0.56363 0.23343 0.0
C1184 C 0.4942 0.09565 0.49397 0.0
C1185 C 0.46236 0.10447 0.48201 0.0
C1186 C 0.51211 0.05704 0.49446 0.0
C1187 C 0.49736 0.02618 0.48295 0.0
C1188 C 0.46431 0.03443 0.47127 0.0
C1189 C 0.44742 0.07363 0.47082 0.0
C1190 C 0.54756 0.04961 0.50696 0.0
C1191 C 0.4472 1.00201 0.45906 0.0
C1192 C 0.56534 0.9367 0.47089 0.0
C1193 C 0.55113 0.90674 0.48271 0.0
C1194 C 0.54869 0.97602 0.47106 0.0
C1195 C 0.51661 0.98527 0.48312 0.0
C1196 C 0.50271 0.95535 0.4953 0.0
C1197 C 0.52038 0.91662 0.49506 0.0
C1198 C 0.56491 0.00745 0.45814 0.0
C1199 C 0.4683 0.96385 0.50823 0.0
H1200 H 0.50621 0.11938 0.50257 0.0
H1201 H 0.42287 0.08025 0.46154 0.0
H1202 H 0.54068 0.02403 0.51618 0.0
H1203 H 0.57475 0.04087 0.49902 0.0
H1204 H 0.55517 0.07676 0.51517 0.0
H1205 H 0.42035 0.0128 0.45135 0.0
H1206 H 0.47082 0.99196 0.44938 0.0
H1207 H 0.4382 0.97506 0.46709 0.0
H1208 H 0.58904 0.92926 0.4613 0.0
H1209 H 0.50893 0.89358 0.50416 0.0
H1210 H 0.57441 0.03503 0.46562 0.0
H1211 H 0.54062 0.01668 0.44863 0.0
H1212 H 0.59123 0.99605 0.45026 0.0
H1213 H 0.47588 0.9902 0.5169 0.0
H1214 H 0.4614 0.93742 0.51699 0.0
H1215 H 0.44047 0.9719 0.50058 0.0
C1216 C 0.93526 0.4461 0.53738 0.0
C1217 C 0.90476 0.46132 0.52607 0.0
C1218 C 0.97437 0.46331 0.53743 0.0
C1219 C 0.98286 0.49696 0.52614 0.0
C1220 C 0.95229 0.51213 0.51457 0.0
C1221 C 0.91378 0.49392 0.51456 0.0
C1222 C 0.00649 0.44577 0.54968 0.0
C1223 C 0.95997 0.54822 0.50249 0.0
C1224 C 0.07205 0.56456 0.53911 0.0
C1225 C 0.10225 0.55102 0.52723 0.0
C1226 C 0.03277 0.54776 0.53869 0.0
C1227 C 0.0238 0.51621 0.52633 0.0
C1228 C 0.05399 0.5029 0.51414 0.0
C1229 C 0.09267 0.52071 0.51462 0.0
C1230 C 1.00105 0.56333 0.55165 0.0
C1231 C 0.0458 0.46906 0.50089 0.0
H1232 H 0.92847 0.42098 0.54631 0.0
H1233 H 0.8903 0.50615 0.50588 0.0
H1234 H 0.03363 0.43699 0.54171 0.0
H1235 H 0.01636 0.46903 0.55956 0.0
H1236 H 0.99546 0.41872 0.55715 0.0
H1237 H 0.93291 0.55636 0.49431 0.0
H1238 H 0.96874 0.57491 0.51075 0.0
H1239 H 0.98564 0.54175 0.49325 0.0
H1240 H 0.07925 0.58791 0.54889 0.0
H1241 H 0.1159 0.50978 0.50548 0.0
H1242 H 0.99156 0.53859 0.56086 0.0
H1243 H 0.97362 0.57323 0.54415 0.0
H1244 H 0.01231 0.5892 0.55985 0.0
H1245 H 0.03741 0.44098 0.50826 0.0
H1246 H 0.07251 0.46243 0.49223 0.0
H1247 H 0.01973 0.47708 0.49212 0.0
loop_
_geom_bond_atom_site_label_1
_geom_bond_atom_site_label_2
_geom_bond_distance
_geom_bond_site_symmetry_2
_ccdc_geom_bond_type
O0 Cd1 2.223 . S
O0 C8 1.315 . S
Cd1 O0 2.223 . S
Cd1 O4 2.297 . S
Cd1 O5 2.439 . S
Cd1 O11 2.240 . S
Cd2 O3 2.240 . S
Cd2 O10 2.223 . S
Cd2 O12 2.297 . S
Cd2 O13 2.439 . S
O3 Cd2 2.240 . S
O3 C8 1.279 . S
O4 Cd1 2.297 . S
O4 C6 1.247 . S
O5 Cd1 2.439 . S
O5 C6 1.208 . S
C6 O4 1.247 . S
C6 O5 1.208 . S
C7 O12 1.247 . S
C7 O13 1.208 . S
C8 O0 1.315 . S
C8 O3 1.279 . S
C9 O10 1.315 . S
C9 O11 1.279 . S
O10 Cd2 2.223 . S
O10 C9 1.315 . S
O11 Cd1 2.240 . S
O11 C9 1.279 . S
O12 Cd2 2.297 . S
O12 C7 1.247 . S
O13 Cd2 2.439 . S
O13 C7 1.208 . S
O14 Cd15 2.223 . S
O14 C22 1.315 . S
Cd15 O14 2.223 . S
Cd15 O18 2.297 . S
Cd15 O19 2.439 . S
Cd15 O25 2.240 . S
Cd16 O17 2.240 . S
Cd16 O24 2.223 . S
Cd16 O26 2.297 . S
Cd16 O27 2.439 . S
O17 Cd16 2.240 . S
O17 C22 1.279 . S
O18 Cd15 2.297 . S
O18 C20 1.247 . S
O19 Cd15 2.439 . S
O19 C20 1.208 . S
C20 O18 1.247 . S
C20 O19 1.208 . S
C21 O26 1.247 . S
C21 O27 1.208 . S
C22 O14 1.315 . S
C22 O17 1.279 . S
C23 O24 1.315 . S
C23 O25 1.279 . S
O24 Cd16 2.223 . S
O24 C23 1.315 . S
O25 Cd15 2.240 . S
O25 C23 1.279 . S
O26 Cd16 2.297 . S
O26 C21 1.247 . S
O27 Cd16 2.439 . S
O27 C21 1.208 . S
O28 Cd29 2.223 . S
O28 C36 1.315 . S
Cd29 O28 2.223 . S
Cd29 O32 2.297 . S
Cd29 O33 2.439 . S
Cd29 O39 2.240 . S
Cd30 O31 2.240 . S
Cd30 O38 2.223 . S
Cd30 O40 2.297 . S
Cd30 O41 2.439 . S
O31 Cd30 2.240 . S
O31 C36 1.279 . S
O32 Cd29 2.297 . S
O32 C34 1.247 . S
O33 Cd29 2.439 . S
O33 C34 1.208 . S
C34 O32 1.247 . S
C34 O33 1.208 . S
C35 O40 1.247 . S
C35 O41 1.208 . S
C36 O28 1.315 . S
C36 O31 1.279 . S
C37 O38 1.315 . S
C37 O39 1.279 . S
O38 Cd30 2.223 . S
O38 C37 1.315 . S
O39 Cd29 2.240 . S
O39 C37 1.279 . S
O40 Cd30 2.297 . S
O40 C35 1.247 . S
O41 Cd30 2.439 . S
O41 C35 1.208 . S
O42 Cd43 2.223 . S
O42 C50 1.315 . S
Cd43 O42 2.223 . S
Cd43 O46 2.297 . S
Cd43 O47 2.439 . S
Cd43 O53 2.240 . S
Cd44 O45 2.240 . S
Cd44 O52 2.223 . S
Cd44 O54 2.297 . S
Cd44 O55 2.439 . S
O45 Cd44 2.240 . S
O45 C50 1.279 . S
O46 Cd43 2.297 . S
O46 C48 1.247 . S
O47 Cd43 2.439 . S
O47 C48 1.208 . S
C48 O46 1.247 . S
C48 O47 1.208 . S
C49 O54 1.247 . S
C49 O55 1.208 . S
C50 O42 1.315 . S
C50 O45 1.279 . S
C51 O52 1.315 . S
C51 O53 1.279 . S
O52 Cd44 2.223 . S
O52 C51 1.315 . S
O53 Cd43 2.240 . S
O53 C51 1.279 . S
O54 Cd44 2.297 . S
O54 C49 1.247 . S
O55 Cd44 2.439 . S
O55 C49 1.208 . S
O56 Cd57 2.223 . S
O56 C64 1.315 . S
Cd57 O56 2.223 . S
Cd57 O60 2.297 . S
Cd57 O61 2.439 . S
Cd57 O67 2.240 . S
Cd58 O59 2.240 . S
Cd58 O66 2.223 . S
Cd58 O68 2.297 . S
Cd58 O69 2.439 . S
O59 Cd58 2.240 . S
O59 C64 1.279 . S
O60 Cd57 2.297 . S
O60 C62 1.247 . S
O61 Cd57 2.439 . S
O61 C62 1.208 . S
C62 O60 1.247 . S
C62 O61 1.208 . S
C63 O68 1.247 . S
C63 O69 1.208 . S
C64 O56 1.315 . S
C64 O59 1.279 . S
C65 O66 1.315 . S
C65 O67 1.279 . S
O66 Cd58 2.223 . S
O66 C65 1.315 . S
O67 Cd57 2.240 . S
O67 C65 1.279 . S
O68 Cd58 2.297 . S
O68 C63 1.247 . S
O69 Cd58 2.439 . S
O69 C63 1.208 . S
O70 Cd71 2.223 . S
O70 C78 1.315 . S
Cd71 O70 2.223 . S
Cd71 O74 2.297 . S
Cd71 O75 2.439 . S
Cd71 O81 2.240 . S
Cd72 O73 2.240 . S
Cd72 O80 2.223 . S
Cd72 O82 2.297 . S
Cd72 O83 2.439 . S
O73 Cd72 2.240 . S
O73 C78 1.279 . S
O74 Cd71 2.297 . S
O74 C76 1.247 . S
O75 Cd71 2.439 . S
O75 C76 1.208 . S
C76 O74 1.247 . S
C76 O75 1.208 . S
C77 O82 1.247 . S
C77 O83 1.208 . S
C78 O70 1.315 . S
C78 O73 1.279 . S
C79 O80 1.315 . S
C79 O81 1.279 . S
O80 Cd72 2.223 . S
O80 C79 1.315 . S
O81 Cd71 2.240 . S
O81 C79 1.279 . S
O82 Cd72 2.297 . S
O82 C77 1.247 . S
O83 Cd72 2.439 . S
O83 C77 1.208 . S
O84 Cd85 2.223 . S
O84 C92 1.315 . S
Cd85 O84 2.223 . S
Cd85 O88 2.297 . S
Cd85 O89 2.439 . S
Cd85 O95 2.240 . S
Cd86 O87 2.240 . S
Cd86 O94 2.223 . S
Cd86 O96 2.297 . S
Cd86 O97 2.439 . S
O87 Cd86 2.240 . S
O87 C92 1.279 . S
O88 Cd85 2.297 . S
O88 C90 1.247 . S
O89 Cd85 2.439 . S
O89 C90 1.208 . S
C90 O88 1.247 . S
C90 O89 1.208 . S
C91 O96 1.247 . S
C91 O97 1.208 . S
C92 O84 1.315 . S
C92 O87 1.279 . S
C93 O94 1.315 . S
C93 O95 1.279 . S
O94 Cd86 2.223 . S
O94 C93 1.315 . S
O95 Cd85 2.240 . S
O95 C93 1.279 . S
O96 Cd86 2.297 . S
O96 C91 1.247 . S
O97 Cd86 2.439 . S
O97 C91 1.208 . S
O98 Cd99 2.223 . S
O98 C106 1.315 . S
Cd99 O98 2.223 . S
Cd99 O102 2.297 . S
Cd99 O103 2.439 . S
Cd99 O109 2.240 . S
Cd100 O101 2.240 . S
Cd100 O108 2.223 . S
Cd100 O110 2.297 . S
Cd100 O111 2.439 . S
O101 Cd100 2.240 . S
O101 C106 1.279 . S
O102 Cd99 2.297 . S
O102 C104 1.247 . S
O103 Cd99 2.439 . S
O103 C104 1.208 . S
C104 O102 1.247 . S
C104 O103 1.208 . S
C105 O110 1.247 . S
C105 O111 1.208 . S
C106 O98 1.315 . S
C106 O101 1.279 . S
C107 O108 1.315 . S
C107 O109 1.279 . S
O108 Cd100 2.223 . S
O108 C107 1.315 . S
O109 Cd99 2.240 . S
O109 C107 1.279 . S
O110 Cd100 2.297 . S
O110 C105 1.247 . S
O111 Cd100 2.439 . S
O111 C105 1.208 . S
O112 Cd113 2.223 . S
O112 C120 1.315 . S
Cd113 O112 2.223 . S
Cd113 O116 2.297 . S
Cd113 O117 2.439 . S
Cd113 O123 2.240 . S
Cd114 O115 2.240 . S
Cd114 O122 2.223 . S
Cd114 O124 2.297 . S
Cd114 O125 2.439 . S
O115 Cd114 2.240 . S
O115 C120 1.279 . S
O116 Cd113 2.297 . S
O116 C118 1.247 . S
O117 Cd113 2.439 . S
O117 C118 1.208 . S
C118 O116 1.247 . S
C118 O117 1.208 . S
C119 O124 1.247 . S
C119 O125 1.208 . S
C120 O112 1.315 . S
C120 O115 1.279 . S
C121 O122 1.315 . S
C121 O123 1.279 . S
O122 Cd114 2.223 . S
O122 C121 1.315 . S
O123 Cd113 2.240 . S
O123 C121 1.279 . S
O124 Cd114 2.297 . S
O124 C119 1.247 . S
O125 Cd114 2.439 . S
O125 C119 1.208 . S
O126 Cd127 2.223 . S
O126 C134 1.315 . S
Cd127 O126 2.223 . S
Cd127 O130 2.297 . S
Cd127 O131 2.439 . S
Cd127 O137 2.240 . S
Cd128 O129 2.240 . S
Cd128 O136 2.223 . S
Cd128 O138 2.297 . S
Cd128 O139 2.439 . S
O129 Cd128 2.240 . S
O129 C134 1.279 . S
O130 Cd127 2.297 . S
O130 C132 1.247 . S
O131 Cd127 2.439 . S
O131 C132 1.208 . S
C132 O130 1.247 . S
C132 O131 1.208 . S
C133 O138 1.247 . S
C133 O139 1.208 . S
C134 O126 1.315 . S
C134 O129 1.279 . S
C135 O136 1.315 . S
C135 O137 1.279 . S
O136 Cd128 2.223 . S
O136 C135 1.315 . S
O137 Cd127 2.240 . S
O137 C135 1.279 . S
O138 Cd128 2.297 . S
O138 C133 1.247 . S
O139 Cd128 2.439 . S
O139 C133 1.208 . S
O140 Cd141 2.223 . S
O140 C148 1.315 . S
Cd141 O140 2.223 . S
Cd141 O144 2.297 . S
Cd141 O145 2.439 . S
Cd141 O151 2.240 . S
Cd142 O143 2.240 . S
Cd142 O150 2.223 . S
Cd142 O152 2.297 . S
Cd142 O153 2.439 . S
O143 Cd142 2.240 . S
O143 C148 1.279 . S
O144 Cd141 2.297 . S
O144 C146 1.247 . S
O145 Cd141 2.439 . S
O145 C146 1.208 . S
C146 O144 1.247 . S
C146 O145 1.208 . S
C147 O152 1.247 . S
C147 O153 1.208 . S
C148 O140 1.315 . S
C148 O143 1.279 . S
C149 O150 1.315 . S
C149 O151 1.279 . S
O150 Cd142 2.223 . S
O150 C149 1.315 . S
O151 Cd141 2.240 . S
O151 C149 1.279 . S
O152 Cd142 2.297 . S
O152 C147 1.247 . S
O153 Cd142 2.439 . S
O153 C147 1.208 . S
O154 Cd155 2.223 . S
O154 C162 1.315 . S
Cd155 O154 2.223 . S
Cd155 O158 2.297 . S
Cd155 O159 2.439 . S
Cd155 O165 2.240 . S
Cd156 O157 2.240 . S
Cd156 O164 2.223 . S
Cd156 O166 2.297 . S
Cd156 O167 2.439 . S
O157 Cd156 2.240 . S
O157 C162 1.279 . S
O158 Cd155 2.297 . S
O158 C160 1.247 . S
O159 Cd155 2.439 . S
O159 C160 1.208 . S
C160 O158 1.247 . S
C160 O159 1.208 . S
C161 O166 1.247 . S
C161 O167 1.208 . S
C162 O154 1.315 . S
C162 O157 1.279 . S
C163 O164 1.315 . S
C163 O165 1.279 . S
O164 Cd156 2.223 . S
O164 C163 1.315 . S
O165 Cd155 2.240 . S
O165 C163 1.279 . S
O166 Cd156 2.297 . S
O166 C161 1.247 . S
O167 Cd156 2.439 . S
O167 C161 1.208 . S
O168 Cd169 2.223 . S
O168 C176 1.315 . S
Cd169 O168 2.223 . S
Cd169 O172 2.297 . S
Cd169 O173 2.439 . S
Cd169 O179 2.240 . S
Cd170 O171 2.240 . S
Cd170 O178 2.223 . S
Cd170 O180 2.297 . S
Cd170 O181 2.439 . S
O171 Cd170 2.240 . S
O171 C176 1.279 . S
O172 Cd169 2.297 . S
O172 C174 1.247 . S
O173 Cd169 2.439 . S
O173 C174 1.208 . S
C174 O172 1.247 . S
C174 O173 1.208 . S
C175 O180 1.247 . S
C175 O181 1.208 . S
C176 O168 1.315 . S
C176 O171 1.279 . S
C177 O178 1.315 . S
C177 O179 1.279 . S
O178 Cd170 2.223 . S
O178 C177 1.315 . S
O179 Cd169 2.240 . S
O179 C177 1.279 . S
O180 Cd170 2.297 . S
O180 C175 1.247 . S
O181 Cd170 2.439 . S
O181 C175 1.208 . S
O182 Cd183 2.223 . S
O182 C190 1.315 . S
Cd183 O182 2.223 . S
Cd183 O186 2.297 . S
Cd183 O187 2.439 . S
Cd183 O193 2.240 . S
Cd184 O185 2.240 . S
Cd184 O192 2.223 . S
Cd184 O194 2.297 . S
Cd184 O195 2.439 . S
O185 Cd184 2.240 . S
O185 C190 1.279 . S
O186 Cd183 2.297 . S
O186 C188 1.247 . S
O187 Cd183 2.439 . S
O187 C188 1.208 . S
C188 O186 1.247 . S
C188 O187 1.208 . S
C189 O194 1.247 . S
C189 O195 1.208 . S
C190 O182 1.315 . S
C190 O185 1.279 . S
C191 O192 1.315 . S
C191 O193 1.279 . S
O192 Cd184 2.223 . S
O192 C191 1.315 . S
O193 Cd183 2.240 . S
O193 C191 1.279 . S
O194 Cd184 2.297 . S
O194 C189 1.247 . S
O195 Cd184 2.439 . S
O195 C189 1.208 . S
O196 Cd197 2.223 . S
O196 C204 1.315 . S
Cd197 O196 2.223 . S
Cd197 O200 2.297 . S
Cd197 O201 2.439 . S
Cd197 O207 2.240 . S
Cd198 O199 2.240 . S
Cd198 O206 2.223 . S
Cd198 O208 2.297 . S
Cd198 O209 2.439 . S
O199 Cd198 2.240 . S
O199 C204 1.279 . S
O200 Cd197 2.297 . S
O200 C202 1.247 . S
O201 Cd197 2.439 . S
O201 C202 1.208 . S
C202 O200 1.247 . S
C202 O201 1.208 . S
C203 O208 1.247 . S
C203 O209 1.208 . S
C204 O196 1.315 . S
C204 O199 1.279 . S
C205 O206 1.315 . S
C205 O207 1.279 . S
O206 Cd198 2.223 . S
O206 C205 1.315 . S
O207 Cd197 2.240 . S
O207 C205 1.279 . S
O208 Cd198 2.297 . S
O208 C203 1.247 . S
O209 Cd198 2.439 . S
O209 C203 1.208 . S
O210 Cd211 2.223 . S
O210 C218 1.315 . S
Cd211 O210 2.223 . S
Cd211 O214 2.297 . S
Cd211 O215 2.439 . S
Cd211 O221 2.240 . S
Cd212 O213 2.240 . S
Cd212 O220 2.223 . S
Cd212 O222 2.297 . S
Cd212 O223 2.439 . S
O213 Cd212 2.240 . S
O213 C218 1.279 . S
O214 Cd211 2.297 . S
O214 C216 1.247 . S
O215 Cd211 2.439 . S
O215 C216 1.208 . S
C216 O214 1.247 . S
C216 O215 1.208 . S
C217 O222 1.247 . S
C217 O223 1.208 . S
C218 O210 1.315 . S
C218 O213 1.279 . S
C219 O220 1.315 . S
C219 O221 1.279 . S
O220 Cd212 2.223 . S
O220 C219 1.315 . S
O221 Cd211 2.240 . S
O221 C219 1.279 . S
O222 Cd212 2.297 . S
O222 C217 1.247 . S
O223 Cd212 2.439 . S
O223 C217 1.208 . S
C224 C225 1.391 . S
C224 C226 1.394 . S
C224 H240 0.931 . S
C225 C224 1.391 . S
C225 C229 1.376 . S
C226 C224 1.394 . S
C226 C227 1.369 . S
C226 C230 1.531 . S
C227 C226 1.369 . S
C227 C228 1.410 . S
C227 C235 1.503 . S
C228 C227 1.410 . S
C228 C229 1.392 . S
C228 C231 1.511 . S
C229 C225 1.376 . S
C229 C228 1.392 . S
C229 H241 0.929 . S
C230 C226 1.531 . S
C230 H242 0.960 . S
C230 H243 0.962 . S
C230 H244 0.960 . S
C231 C228 1.511 . S
C231 H245 0.961 . S
C231 H246 0.961 . S
C231 H247 0.961 . S
C232 C233 1.370 . S
C232 C234 1.363 . S
C232 H248 0.931 . S
C233 C232 1.370 . S
C233 C237 1.408 . S
C234 C232 1.363 . S
C234 C235 1.370 . S
C234 C238 1.524 . S
C235 C227 1.503 . S
C235 C234 1.370 . S
C235 C236 1.403 . S
C236 C235 1.403 . S
C236 C237 1.404 . S
C236 C239 1.539 . S
C237 C233 1.408 . S
C237 C236 1.404 . S
C237 H249 0.930 . S
C238 C234 1.524 . S
C238 H250 0.956 . S
C238 H251 0.961 . S
C238 H252 0.961 . S
C239 C236 1.539 . S
C239 H253 0.958 . S
C239 H254 0.961 . S
C239 H255 0.960 . S
H240 C224 0.931 . S
H241 C229 0.929 . S
H242 C230 0.960 . S
H243 C230 0.962 . S
H244 C230 0.960 . S
H245 C231 0.961 . S
H246 C231 0.961 . S
H247 C231 0.961 . S
H248 C232 0.931 . S
H249 C237 0.930 . S
H250 C238 0.956 . S
H251 C238 0.961 . S
H252 C238 0.961 . S
H253 C239 0.958 . S
H254 C239 0.961 . S
H255 C239 0.960 . S
C256 C257 1.391 . S
C256 C258 1.394 . S
C256 H272 0.931 . S
C257 C256 1.391 . S
C257 C261 1.376 . S
C258 C256 1.394 . S
C258 C259 1.369 . S
C258 C262 1.531 . S
C259 C258 1.369 . S
C259 C260 1.410 . S
C259 C267 1.503 . S
C260 C259 1.410 . S
C260 C261 1.392 . S
C260 C263 1.511 . S
C261 C257 1.376 . S
C261 C260 1.392 . S
C261 H273 0.929 . S
C262 C258 1.531 . S
C262 H274 0.960 . S
C262 H275 0.962 . S
C262 H276 0.960 . S
C263 C260 1.511 . S
C263 H277 0.961 . S
C263 H278 0.961 . S
C263 H279 0.961 . S
C264 C265 1.370 . S
C264 C266 1.363 . S
C264 H280 0.931 . S
C265 C264 1.370 . S
C265 C269 1.408 . S
C266 C264 1.363 . S
C266 C267 1.370 . S
C266 C270 1.524 . S
C267 C259 1.503 . S
C267 C266 1.370 . S
C267 C268 1.403 . S
C268 C267 1.403 . S
C268 C269 1.404 . S
C268 C271 1.539 . S
C269 C265 1.408 . S
C269 C268 1.404 . S
C269 H281 0.930 . S
C270 C266 1.524 . S
C270 H282 0.956 . S
C270 H283 0.961 . S
C270 H284 0.961 . S
C271 C268 1.539 . S
C271 H285 0.958 . S
C271 H286 0.961 . S
C271 H287 0.960 . S
H272 C256 0.931 . S
H273 C261 0.929 . S
H274 C262 0.960 . S
H275 C262 0.962 . S
H276 C262 0.960 . S
H277 C263 0.961 . S
H278 C263 0.961 . S
H279 C263 0.961 . S
H280 C264 0.931 . S
H281 C269 0.930 . S
H282 C270 0.956 . S
H283 C270 0.961 . S
H284 C270 0.961 . S
H285 C271 0.958 . S
H286 C271 0.961 . S
H287 C271 0.960 . S
C288 C289 1.391 . S
C288 C290 1.394 . S
C288 H304 0.931 . S
C289 C288 1.391 . S
C289 C293 1.376 . S
C290 C288 1.394 . S
C290 C291 1.369 . S
C290 C294 1.531 . S
C291 C290 1.369 . S
C291 C292 1.410 . S
C291 C299 1.503 . S
C292 C291 1.410 . S
C292 C293 1.392 . S
C292 C295 1.511 . S
C293 C289 1.376 . S
C293 C292 1.392 . S
C293 H305 0.929 . S
C294 C290 1.531 . S
C294 H306 0.960 . S
C294 H307 0.962 . S
C294 H308 0.960 . S
C295 C292 1.511 . S
C295 H309 0.961 . S
C295 H310 0.961 . S
C295 H311 0.961 . S
C296 C297 1.370 . S
C296 C298 1.363 . S
C296 H312 0.931 . S
C297 C296 1.370 . S
C297 C301 1.408 . S
C298 C296 1.363 . S
C298 C299 1.370 . S
C298 C302 1.524 . S
C299 C291 1.503 . S
C299 C298 1.370 . S
C299 C300 1.403 . S
C300 C299 1.403 . S
C300 C301 1.404 . S
C300 C303 1.539 . S
C301 C297 1.408 . S
C301 C300 1.404 . S
C301 H313 0.930 . S
C302 C298 1.524 . S
C302 H314 0.956 . S
C302 H315 0.961 . S
C302 H316 0.961 . S
C303 C300 1.539 . S
C303 H317 0.958 . S
C303 H318 0.961 . S
C303 H319 0.960 . S
H304 C288 0.931 . S
H305 C293 0.929 . S
H306 C294 0.960 . S
H307 C294 0.962 . S
H308 C294 0.960 . S
H309 C295 0.961 . S
H310 C295 0.961 . S
H311 C295 0.961 . S
H312 C296 0.931 . S
H313 C301 0.930 . S
H314 C302 0.956 . S
H315 C302 0.961 . S
H316 C302 0.961 . S
H317 C303 0.958 . S
H318 C303 0.961 . S
H319 C303 0.960 . S
C320 C321 1.391 . S
C320 C322 1.394 . S
C320 H336 0.931 . S
C321 C320 1.391 . S
C321 C325 1.376 . S
C322 C320 1.394 . S
C322 C323 1.369 . S
C322 C326 1.531 . S
C323 C322 1.369 . S
C323 C324 1.410 . S
C323 C331 1.503 . S
C324 C323 1.410 . S
C324 C325 1.392 . S
C324 C327 1.511 . S
C325 C321 1.376 . S
C325 C324 1.392 . S
C325 H337 0.929 . S
C326 C322 1.531 . S
C326 H338 0.960 . S
C326 H339 0.962 . S
C326 H340 0.960 . S
C327 C324 1.511 . S
C327 H341 0.961 . S
C327 H342 0.961 . S
C327 H343 0.961 . S
C328 C329 1.370 . S
C328 C330 1.363 . S
C328 H344 0.931 . S
C329 C328 1.370 . S
C329 C333 1.408 . S
C330 C328 1.363 . S
C330 C331 1.370 . S
C330 C334 1.524 . S
C331 C323 1.503 . S
C331 C330 1.370 . S
C331 C332 1.403 . S
C332 C331 1.403 . S
C332 C333 1.404 . S
C332 C335 1.539 . S
C333 C329 1.408 . S
C333 C332 1.404 . S
C333 H345 0.930 . S
C334 C330 1.524 . S
C334 H346 0.956 . S
C334 H347 0.961 . S
C334 H348 0.961 . S
C335 C332 1.539 . S
C335 H349 0.958 . S
C335 H350 0.961 . S
C335 H351 0.960 . S
H336 C320 0.931 . S
H337 C325 0.929 . S
H338 C326 0.960 . S
H339 C326 0.962 . S
H340 C326 0.960 . S
H341 C327 0.961 . S
H342 C327 0.961 . S
H343 C327 0.961 . S
H344 C328 0.931 . S
H345 C333 0.930 . S
H346 C334 0.956 . S
H347 C334 0.961 . S
H348 C334 0.961 . S
H349 C335 0.958 . S
H350 C335 0.961 . S
H351 C335 0.960 . S
C352 C353 1.383 1_545 S
C352 C354 1.394 . S
C352 H368 0.931 . S
C353 C352 1.383 1_565 S
C353 C357 1.374 1_565 S
C354 C352 1.394 . S
C354 C355 1.369 . S
C354 C358 1.531 1_554 S
C355 C354 1.369 . S
C355 C356 1.410 . S
C355 C363 1.503 1_554 S
C356 C355 1.410 . S
C356 C357 1.392 . S
C356 C359 1.511 . S
C357 C353 1.374 1_545 S
C357 C356 1.392 . S
C357 H369 0.929 1_545 S
C358 C354 1.531 1_556 S
C358 H370 0.960 . S
C358 H371 0.962 1_556 S
C358 H372 0.960 . S
C359 C356 1.511 . S
C359 H373 0.961 . S
C359 H374 0.961 . S
C359 H375 0.960 . S
C360 C361 1.370 1_554 S
C360 C362 1.363 . S
C360 H376 0.931 . S
C361 C360 1.370 1_556 S
C361 C365 1.408 . S
C362 C360 1.363 . S
C362 C363 1.370 1_554 S
C362 C366 1.524 . S
C363 C355 1.503 1_556 S
C363 C362 1.370 1_556 S
C363 C364 1.403 . S
C364 C363 1.403 . S
C364 C365 1.404 . S
C364 C367 1.539 . S
C365 C361 1.408 . S
C365 C364 1.404 . S
C365 H377 0.930 . S
C366 C362 1.524 . S
C366 H378 0.956 . S
C366 H379 0.961 . S
C366 H380 0.961 . S
C367 C364 1.539 . S
C367 H381 0.958 . S
C367 H382 0.961 . S
C367 H383 0.960 . S
H368 C352 0.931 . S
H369 C357 0.929 1_565 S
H370 C358 0.960 . S
H371 C358 0.962 1_554 S
H372 C358 0.960 . S
H373 C359 0.961 . S
H374 C359 0.961 . S
H375 C359 0.960 . S
H376 C360 0.931 . S
H377 C365 0.930 . S
H378 C366 0.956 . S
H379 C366 0.961 . S
H380 C366 0.961 . S
H381 C367 0.958 . S
H382 C367 0.961 . S
H383 C367 0.960 . S
C384 C385 1.391 1_556 S
C384 C386 1.394 . S
C384 H400 0.931 . S
C385 C384 1.391 1_554 S
C385 C389 1.376 . S
C386 C384 1.394 . S
C386 C387 1.393 . S
C386 C390 1.531 . S
C387 C386 1.393 . S
C387 C388 1.373 1_556 S
C387 C395 1.516 . S
C388 C387 1.373 1_554 S
C388 C389 1.392 . S
C388 C391 1.511 . S
C389 C385 1.376 . S
C389 C388 1.392 . S
C389 H401 0.929 . S
C390 C386 1.531 . S
C390 H402 0.960 . S
C390 H403 0.962 . S
C390 H404 0.960 . S
C391 C388 1.511 . S
C391 H405 0.961 . S
C391 H406 0.961 . S
C391 H407 0.961 . S
C392 C393 1.370 . S
C392 C394 1.363 . S
C392 H408 0.931 1_455 S
C393 C392 1.370 . S
C393 C397 1.408 . S
C394 C392 1.363 . S
C394 C395 1.370 . S
C394 C398 1.524 . S
C395 C387 1.516 . S
C395 C394 1.370 . S
C395 C396 1.403 . S
C396 C395 1.403 . S
C396 C397 1.404 . S
C396 C399 1.539 . S
C397 C393 1.408 . S
C397 C396 1.404 . S
C397 H409 0.930 . S
C398 C394 1.524 . S
C398 H410 0.956 . S
C398 H411 0.961 1_556 S
C398 H412 0.961 . S
C399 C396 1.539 . S
C399 H413 0.958 . S
C399 H414 0.961 . S
C399 H415 0.960 1_556 S
H400 C384 0.931 . S
H401 C389 0.929 . S
H402 C390 0.960 . S
H403 C390 0.962 . S
H404 C390 0.960 . S
H405 C391 0.961 . S
H406 C391 0.961 . S
H407 C391 0.961 . S
H408 C392 0.931 1_655 S
H409 C397 0.930 . S
H410 C398 0.956 . S
H411 C398 0.961 1_554 S
H412 C398 0.961 . S
H413 C399 0.958 . S
H414 C399 0.961 . S
H415 C399 0.960 1_554 S
C416 C417 1.391 . S
C416 C418 1.394 . S
C416 H432 0.931 . S
C417 C416 1.391 . S
C417 C421 1.376 1_556 S
C418 C416 1.394 . S
C418 C419 1.369 . S
C418 C422 1.531 . S
C419 C418 1.369 . S
C419 C420 1.410 1_556 S
C419 C427 1.503 1_556 S
C420 C419 1.410 1_554 S
C420 C421 1.392 . S
C420 C423 1.511 . S
C421 C417 1.376 1_554 S
C421 C420 1.392 . S
C421 H433 0.929 . S
C422 C418 1.531 . S
C422 H434 0.960 . S
C422 H435 0.962 . S
C422 H436 0.960 . S
C423 C420 1.511 . S
C423 H437 0.961 . S
C423 H438 0.961 . S
C423 H439 0.961 . S
C424 C425 1.370 . S
C424 C426 1.363 . S
C424 H440 0.931 . S
C425 C424 1.370 . S
C425 C429 1.408 . S
C426 C424 1.363 . S
C426 C427 1.370 . S
C426 C430 1.524 . S
C427 C419 1.503 1_554 S
C427 C426 1.370 . S
C427 C428 1.407 . S
C428 C427 1.407 . S
C428 C429 1.410 . S
C428 C431 1.530 1_554 S
C429 C425 1.408 . S
C429 C428 1.410 . S
C429 H441 0.930 . S
C430 C426 1.524 . S
C430 H442 0.956 . S
C430 H443 0.961 . S
C430 H444 0.961 . S
C431 C428 1.530 1_556 S
C431 H445 0.958 . S
C431 H446 0.961 . S
C431 H447 0.960 . S
H432 C416 0.931 . S
H433 C421 0.929 . S
H434 C422 0.960 . S
H435 C422 0.962 . S
H436 C422 0.960 . S
H437 C423 0.961 . S
H438 C423 0.961 . S
H439 C423 0.961 . S
H440 C424 0.931 . S
H441 C429 0.930 . S
H442 C430 0.956 . S
H443 C430 0.961 . S
H444 C430 0.961 . S
H445 C431 0.958 . S
H446 C431 0.961 . S
H447 C431 0.960 . S
C448 C449 1.391 . S
C448 C450 1.394 . S
C448 H464 0.931 . S
C449 C448 1.391 . S
C449 C453 1.376 . S
C450 C448 1.394 . S
C450 C451 1.369 . S
C450 C454 1.531 1_554 S
C451 C450 1.369 . S
C451 C452 1.410 . S
C451 C459 1.503 1_554 S
C452 C451 1.410 . S
C452 C453 1.392 . S
C452 C455 1.511 . S
C453 C449 1.376 . S
C453 C452 1.392 . S
C453 H465 0.929 . S
C454 C450 1.531 1_556 S
C454 H466 0.958 1_556 S
C454 H467 0.962 . S
C454 H468 0.960 1_556 S
C455 C452 1.511 . S
C455 H469 0.961 . S
C455 H470 0.991 . S
C455 H471 0.961 . S
C456 C457 1.385 . S
C456 C458 1.363 . S
C456 H472 0.931 . S
C457 C456 1.385 . S
C457 C461 1.443 . S
C458 C456 1.363 . S
C458 C459 1.370 . S
C458 C462 1.524 . S
C459 C451 1.503 1_556 S
C459 C458 1.370 . S
C459 C460 1.403 1_556 S
C460 C459 1.403 1_554 S
C460 C461 1.392 1_554 S
C460 C463 1.539 . S
C461 C457 1.443 . S
C461 C460 1.392 1_556 S
C461 H473 0.912 1_656 S
C462 C458 1.524 . S
C462 H474 0.956 . S
C462 H475 0.961 . S
C462 H476 0.961 . S
C463 C460 1.539 . S
C463 H477 0.958 . S
C463 H478 0.961 . S
C463 H479 0.960 . S
H464 C448 0.931 . S
H465 C453 0.929 . S
H466 C454 0.958 1_554 S
H467 C454 0.962 . S
H468 C454 0.960 1_554 S
H469 C455 0.961 . S
H470 C455 0.991 . S
H471 C455 0.961 . S
H472 C456 0.931 . S
H473 C461 0.912 1_454 S
H474 C462 0.956 . S
H475 C462 0.961 . S
H476 C462 0.961 . S
H477 C463 0.958 . S
H478 C463 0.961 . S
H479 C463 0.960 . S
C480 C481 1.391 . S
C480 C482 1.394 . S
C480 H496 0.931 . S
C481 C480 1.391 . S
C481 C485 1.376 . S
C482 C480 1.394 . S
C482 C483 1.369 . S
C482 C486 1.531 . S
C483 C482 1.369 . S
C483 C484 1.410 . S
C483 C491 1.503 . S
C484 C483 1.410 . S
C484 C485 1.392 . S
C484 C487 1.511 . S
C485 C481 1.376 . S
C485 C484 1.392 . S
C485 H497 0.929 . S
C486 C482 1.531 . S
C486 H498 0.960 . S
C486 H499 0.962 . S
C486 H500 0.960 . S
C487 C484 1.511 . S
C487 H501 0.961 . S
C487 H502 0.961 . S
C487 H503 0.961 . S
C488 C489 1.370 . S
C488 C490 1.363 . S
C488 H504 0.931 1_565 S
C489 C488 1.370 . S
C489 C493 1.408 . S
C490 C488 1.363 . S
C490 C491 1.370 . S
C490 C494 1.524 . S
C491 C483 1.503 . S
C491 C490 1.370 . S
C491 C492 1.403 . S
C492 C491 1.403 . S
C492 C493 1.404 . S
C492 C495 1.539 . S
C493 C489 1.408 . S
C493 C492 1.404 . S
C493 H505 0.930 . S
C494 C490 1.524 . S
C494 H506 0.956 . S
C494 H507 0.961 . S
C494 H508 0.961 . S
C495 C492 1.539 . S
C495 H509 0.958 . S
C495 H510 0.961 . S
C495 H511 0.960 . S
H496 C480 0.931 . S
H497 C485 0.929 . S
H498 C486 0.960 . S
H499 C486 0.962 . S
H500 C486 0.960 . S
H501 C487 0.961 . S
H502 C487 0.961 . S
H503 C487 0.961 . S
H504 C488 0.931 1_545 S
H505 C493 0.930 . S
H506 C494 0.956 . S
H507 C494 0.961 . S
H508 C494 0.961 . S
H509 C495 0.958 . S
H510 C495 0.961 . S
H511 C495 0.960 . S
C512 C513 1.391 . S
C512 C514 1.394 . S
C512 H528 0.931 . S
C513 C512 1.391 . S
C513 C517 1.376 . S
C514 C512 1.394 . S
C514 C515 1.369 . S
C514 C518 1.531 . S
C515 C514 1.369 . S
C515 C516 1.410 . S
C515 C523 1.503 . S
C516 C515 1.410 . S
C516 C517 1.392 . S
C516 C519 1.511 . S
C517 C513 1.376 . S
C517 C516 1.392 . S
C517 H529 0.915 1_655 S
C518 C514 1.531 . S
C518 H530 0.960 . S
C518 H531 0.962 . S
C518 H532 0.960 . S
C519 C516 1.511 . S
C519 H533 0.961 . S
C519 H534 0.961 . S
C519 H535 0.961 . S
C520 C521 1.370 . S
C520 C522 1.363 . S
C520 H536 0.931 . S
C521 C520 1.370 . S
C521 C525 1.408 . S
C522 C520 1.363 . S
C522 C523 1.370 . S
C522 C526 1.524 . S
C523 C515 1.503 . S
C523 C522 1.370 . S
C523 C524 1.403 . S
C524 C523 1.403 . S
C524 C525 1.404 . S
C524 C527 1.539 . S
C525 C521 1.408 . S
C525 C524 1.404 . S
C525 H537 0.930 . S
C526 C522 1.524 . S
C526 H538 0.956 . S
C526 H539 0.961 . S
C526 H540 0.961 . S
C527 C524 1.539 . S
C527 H541 0.958 . S
C527 H542 0.961 . S
C527 H543 0.960 . S
H528 C512 0.931 . S
H529 C517 0.915 1_455 S
H530 C518 0.960 . S
H531 C518 0.962 . S
H532 C518 0.960 . S
H533 C519 0.961 . S
H534 C519 0.961 . S
H535 C519 0.961 . S
H536 C520 0.931 . S
H537 C525 0.930 . S
H538 C526 0.956 . S
H539 C526 0.961 . S
H540 C526 0.961 . S
H541 C527 0.958 . S
H542 C527 0.961 . S
H543 C527 0.960 . S
C544 C545 1.391 . S
C544 C546 1.416 . S
C544 H560 0.909 1_545 S
C545 C544 1.391 . S
C545 C549 1.399 . S
C546 C544 1.416 . S
C546 C547 1.369 . S
C546 C550 1.531 . S
C547 C546 1.369 . S
C547 C548 1.410 . S
C547 C555 1.503 . S
C548 C547 1.410 . S
C548 C549 1.392 . S
C548 C551 1.511 . S
C549 C545 1.399 . S
C549 C548 1.392 . S
C549 H561 0.929 . S
C550 C546 1.531 . S
C550 H562 0.960 . S
C550 H563 0.962 . S
C550 H564 0.960 . S
C551 C548 1.511 . S
C551 H565 0.961 . S
C551 H566 0.961 . S
C551 H567 0.961 . S
C552 C553 1.370 . S
C552 C554 1.363 . S
C552 H568 0.931 . S
C553 C552 1.370 . S
C553 C557 1.408 . S
C554 C552 1.363 . S
C554 C555 1.370 . S
C554 C558 1.524 . S
C555 C547 1.503 . S
C555 C554 1.370 . S
C555 C556 1.403 . S
C556 C555 1.403 . S
C556 C557 1.404 . S
C556 C559 1.539 . S
C557 C553 1.408 . S
C557 C556 1.404 . S
C557 H569 0.930 . S
C558 C554 1.524 . S
C558 H570 0.956 . S
C558 H571 0.961 . S
C558 H572 0.961 . S
C559 C556 1.539 . S
C559 H573 0.958 . S
C559 H574 0.961 . S
C559 H575 0.960 . S
H560 C544 0.909 1_565 S
H561 C549 0.929 . S
H562 C550 0.960 . S
H563 C550 0.962 . S
H564 C550 0.960 . S
H565 C551 0.961 . S
H566 C551 0.961 . S
H567 C551 0.961 . S
H568 C552 0.931 . S
H569 C557 0.930 . S
H570 C558 0.956 . S
H571 C558 0.961 . S
H572 C558 0.961 . S
H573 C559 0.958 . S
H574 C559 0.961 . S
H575 C559 0.960 . S
C576 C577 1.383 1_455 S
C576 C578 1.394 . S
C576 H592 0.941 . S
C577 C576 1.383 1_655 S
C577 C581 1.366 1_655 S
C578 C576 1.394 . S
C578 C579 1.369 . S
C578 C582 1.531 . S
C579 C578 1.369 . S
C579 C580 1.410 . S
C579 C587 1.503 . S
C580 C579 1.410 . S
C580 C581 1.392 . S
C580 C583 1.511 . S
C581 C577 1.366 1_455 S
C581 C580 1.392 . S
C581 H593 0.929 . S
C582 C578 1.531 . S
C582 H594 0.960 . S
C582 H595 0.962 . S
C582 H596 0.960 . S
C583 C580 1.511 . S
C583 H597 0.961 . S
C583 H598 0.961 . S
C583 H599 0.961 . S
C584 C585 1.370 . S
C584 C586 1.363 . S
C584 H600 0.931 . S
C585 C584 1.370 . S
C585 C589 1.408 . S
C586 C584 1.363 . S
C586 C587 1.370 . S
C586 C590 1.524 . S
C587 C579 1.503 . S
C587 C586 1.370 . S
C587 C588 1.403 . S
C588 C587 1.403 . S
C588 C589 1.404 . S
C588 C591 1.539 . S
C589 C585 1.408 . S
C589 C588 1.404 . S
C589 H601 0.930 . S
C590 C586 1.524 . S
C590 H602 0.956 . S
C590 H603 0.961 . S
C590 H604 0.961 . S
C591 C588 1.539 . S
C591 H605 0.958 . S
C591 H606 0.961 . S
C591 H607 0.960 . S
H592 C576 0.941 . S
H593 C581 0.929 . S
H594 C582 0.960 . S
H595 C582 0.962 . S
H596 C582 0.960 . S
H597 C583 0.961 . S
H598 C583 0.961 . S
H599 C583 0.961 . S
H600 C584 0.931 . S
H601 C589 0.930 . S
H602 C590 0.956 . S
H603 C590 0.961 . S
H604 C590 0.961 . S
H605 C591 0.958 . S
H606 C591 0.961 . S
H607 C591 0.960 . S
C608 C609 1.391 . S
C608 C610 1.394 . S
C608 H624 0.931 . S
C609 C608 1.391 . S
C609 C613 1.376 . S
C610 C608 1.394 . S
C610 C611 1.369 . S
C610 C614 1.531 . S
C611 C610 1.369 . S
C611 C612 1.410 . S
C611 C619 1.503 . S
C612 C611 1.410 . S
C612 C613 1.392 . S
C612 C615 1.511 . S
C613 C609 1.376 . S
C613 C612 1.392 . S
C613 H625 0.929 . S
C614 C610 1.531 . S
C614 H626 0.960 . S
C614 H627 0.962 . S
C614 H628 0.960 . S
C615 C612 1.511 . S
C615 H629 0.961 . S
C615 H630 0.961 . S
C615 H631 0.961 . S
C616 C617 1.370 . S
C616 C618 1.363 . S
C616 H632 0.931 . S
C617 C616 1.370 . S
C617 C621 1.408 . S
C618 C616 1.363 . S
C618 C619 1.370 . S
C618 C622 1.524 . S
C619 C611 1.503 . S
C619 C618 1.370 . S
C619 C620 1.403 . S
C620 C619 1.403 . S
C620 C621 1.404 . S
C620 C623 1.539 . S
C621 C617 1.408 . S
C621 C620 1.404 . S
C621 H633 0.930 . S
C622 C618 1.524 . S
C622 H634 0.956 . S
C622 H635 0.961 . S
C622 H636 0.961 . S
C623 C620 1.539 . S
C623 H637 0.958 . S
C623 H638 0.961 . S
C623 H639 0.960 . S
H624 C608 0.931 . S
H625 C613 0.929 . S
H626 C614 0.960 . S
H627 C614 0.962 . S
H628 C614 0.960 . S
H629 C615 0.961 . S
H630 C615 0.961 . S
H631 C615 0.961 . S
H632 C616 0.931 . S
H633 C621 0.930 . S
H634 C622 0.956 . S
H635 C622 0.961 . S
H636 C622 0.961 . S
H637 C623 0.958 . S
H638 C623 0.961 . S
H639 C623 0.960 . S
C640 C641 1.391 . S
C640 C642 1.394 . S
C640 H656 0.931 . S
C641 C640 1.391 . S
C641 C645 1.376 . S
C642 C640 1.394 . S
C642 C643 1.369 . S
C642 C646 1.531 . S
C643 C642 1.369 . S
C643 C644 1.410 . S
C643 C651 1.503 . S
C644 C643 1.410 . S
C644 C645 1.392 . S
C644 C647 1.511 . S
C645 C641 1.376 . S
C645 C644 1.392 . S
C645 H657 0.929 . S
C646 C642 1.531 . S
C646 H658 0.960 . S
C646 H659 0.962 . S
C646 H660 0.960 . S
C647 C644 1.511 . S
C647 H661 0.961 . S
C647 H662 0.961 . S
C647 H663 0.961 . S
C648 C649 1.370 . S
C648 C650 1.363 . S
C648 H664 0.931 . S
C649 C648 1.370 . S
C649 C653 1.408 . S
C650 C648 1.363 . S
C650 C651 1.370 . S
C650 C654 1.524 . S
C651 C643 1.503 . S
C651 C650 1.370 . S
C651 C652 1.403 . S
C652 C651 1.403 . S
C652 C653 1.404 . S
C652 C655 1.539 . S
C653 C649 1.408 . S
C653 C652 1.404 . S
C653 H665 0.930 . S
C654 C650 1.524 . S
C654 H666 0.956 . S
C654 H667 0.961 . S
C654 H668 0.961 . S
C655 C652 1.539 . S
C655 H669 0.958 . S
C655 H670 0.961 . S
C655 H671 0.960 . S
H656 C640 0.931 . S
H657 C645 0.929 . S
H658 C646 0.960 . S
H659 C646 0.962 . S
H660 C646 0.960 . S
H661 C647 0.961 . S
H662 C647 0.961 . S
H663 C647 0.961 . S
H664 C648 0.931 . S
H665 C653 0.930 . S
H666 C654 0.956 . S
H667 C654 0.961 . S
H668 C654 0.961 . S
H669 C655 0.958 . S
H670 C655 0.961 . S
H671 C655 0.960 . S
C672 C673 1.391 . S
C672 C674 1.394 . S
C672 H688 0.931 . S
C673 C672 1.391 . S
C673 C677 1.376 . S
C674 C672 1.394 . S
C674 C675 1.369 . S
C674 C678 1.531 . S
C675 C674 1.369 . S
C675 C676 1.410 . S
C675 C683 1.503 . S
C676 C675 1.410 . S
C676 C677 1.392 . S
C676 C679 1.511 . S
C677 C673 1.376 . S
C677 C676 1.392 . S
C677 H689 0.929 . S
C678 C674 1.531 . S
C678 H690 0.960 . S
C678 H691 0.962 . S
C678 H692 0.960 . S
C679 C676 1.511 . S
C679 H693 0.961 . S
C679 H694 0.961 . S
C679 H695 0.961 . S
C680 C681 1.370 . S
C680 C682 1.363 . S
C680 H696 0.931 . S
C681 C680 1.370 . S
C681 C685 1.408 . S
C682 C680 1.363 . S
C682 C683 1.370 . S
C682 C686 1.524 . S
C683 C675 1.503 . S
C683 C682 1.370 . S
C683 C684 1.403 . S
C684 C683 1.403 . S
C684 C685 1.404 . S
C684 C687 1.539 . S
C685 C681 1.408 . S
C685 C684 1.404 . S
C685 H697 0.930 . S
C686 C682 1.524 . S
C686 H698 0.956 . S
C686 H699 0.961 . S
C686 H700 0.961 . S
C687 C684 1.539 . S
C687 H701 0.958 . S
C687 H702 0.961 . S
C687 H703 0.960 . S
H688 C672 0.931 . S
H689 C677 0.929 . S
H690 C678 0.960 . S
H691 C678 0.962 . S
H692 C678 0.960 . S
H693 C679 0.961 . S
H694 C679 0.961 . S
H695 C679 0.961 . S
H696 C680 0.931 . S
H697 C685 0.930 . S
H698 C686 0.956 . S
H699 C686 0.961 . S
H700 C686 0.961 . S
H701 C687 0.958 . S
H702 C687 0.961 . S
H703 C687 0.960 . S
C704 C705 1.391 . S
C704 C706 1.394 . S
C704 H720 0.931 . S
C705 C704 1.391 . S
C705 C709 1.376 . S
C706 C704 1.394 . S
C706 C707 1.369 . S
C706 C710 1.531 . S
C707 C706 1.369 . S
C707 C708 1.410 . S
C707 C715 1.503 . S
C708 C707 1.410 . S
C708 C709 1.392 . S
C708 C711 1.511 . S
C709 C705 1.376 . S
C709 C708 1.392 . S
C709 H721 0.929 . S
C710 C706 1.531 . S
C710 H722 0.960 . S
C710 H723 0.962 . S
C710 H724 0.960 . S
C711 C708 1.511 . S
C711 H725 0.961 . S
C711 H726 0.961 . S
C711 H727 0.961 . S
C712 C713 1.370 . S
C712 C714 1.363 . S
C712 H728 0.931 . S
C713 C712 1.370 . S
C713 C717 1.408 . S
C714 C712 1.363 . S
C714 C715 1.370 . S
C714 C718 1.524 . S
C715 C707 1.503 . S
C715 C714 1.370 . S
C715 C716 1.403 . S
C716 C715 1.403 . S
C716 C717 1.404 . S
C716 C719 1.539 . S
C717 C713 1.408 . S
C717 C716 1.404 . S
C717 H729 0.930 . S
C718 C714 1.524 . S
C718 H730 0.956 . S
C718 H731 0.961 . S
C718 H732 0.961 . S
C719 C716 1.539 . S
C719 H733 0.958 . S
C719 H734 0.961 . S
C719 H735 0.960 . S
H720 C704 0.931 . S
H721 C709 0.929 . S
H722 C710 0.960 . S
H723 C710 0.962 . S
H724 C710 0.960 . S
H725 C711 0.961 . S
H726 C711 0.961 . S
H727 C711 0.961 . S
H728 C712 0.931 . S
H729 C717 0.930 . S
H730 C718 0.956 . S
H731 C718 0.961 . S
H732 C718 0.961 . S
H733 C719 0.958 . S
H734 C719 0.961 . S
H735 C719 0.960 . S
C736 C737 1.391 . S
C736 C738 1.394 . S
C736 H752 0.931 . S
C737 C736 1.391 . S
C737 C741 1.376 . S
C738 C736 1.394 . S
C738 C739 1.369 . S
C738 C742 1.531 . S
C739 C738 1.369 . S
C739 C740 1.410 . S
C739 C747 1.503 . S
C740 C739 1.410 . S
C740 C741 1.392 . S
C740 C743 1.511 . S
C741 C737 1.376 . S
C741 C740 1.392 . S
C741 H753 0.929 . S
C742 C738 1.531 . S
C742 H754 0.960 . S
C742 H755 0.962 . S
C742 H756 0.960 . S
C743 C740 1.511 . S
C743 H757 0.961 . S
C743 H758 0.961 . S
C743 H759 0.961 . S
C744 C745 1.370 . S
C744 C746 1.363 . S
C744 H760 0.931 . S
C745 C744 1.370 . S
C745 C749 1.408 . S
C746 C744 1.363 . S
C746 C747 1.370 . S
C746 C750 1.524 . S
C747 C739 1.503 . S
C747 C746 1.370 . S
C747 C748 1.403 . S
C748 C747 1.403 . S
C748 C749 1.404 . S
C748 C751 1.539 . S
C749 C745 1.408 . S
C749 C748 1.404 . S
C749 H761 0.930 . S
C750 C746 1.524 . S
C750 H762 0.956 . S
C750 H763 0.961 . S
C750 H764 0.961 . S
C751 C748 1.539 . S
C751 H765 0.958 . S
C751 H766 0.961 . S
C751 H767 0.960 . S
H752 C736 0.931 . S
H753 C741 0.929 . S
H754 C742 0.960 . S
H755 C742 0.962 . S
H756 C742 0.960 . S
H757 C743 0.961 . S
H758 C743 0.961 . S
H759 C743 0.961 . S
H760 C744 0.931 . S
H761 C749 0.930 . S
H762 C750 0.956 . S
H763 C750 0.961 . S
H764 C750 0.961 . S
H765 C751 0.958 . S
H766 C751 0.961 . S
H767 C751 0.960 . S
C768 C769 1.391 . S
C768 C770 1.394 . S
C768 H784 0.931 . S
C769 C768 1.391 . S
C769 C773 1.376 . S
C770 C768 1.394 . S
C770 C771 1.369 . S
C770 C774 1.531 . S
C771 C770 1.369 . S
C771 C772 1.410 . S
C771 C779 1.503 . S
C772 C771 1.410 . S
C772 C773 1.392 . S
C772 C775 1.511 . S
C773 C769 1.376 . S
C773 C772 1.392 . S
C773 H785 0.929 . S
C774 C770 1.531 . S
C774 H786 0.960 . S
C774 H787 0.962 . S
C774 H788 0.960 . S
C775 C772 1.511 . S
C775 H789 0.961 . S
C775 H790 0.961 . S
C775 H791 0.961 . S
C776 C777 1.370 . S
C776 C778 1.363 . S
C776 H792 0.931 . S
C777 C776 1.370 . S
C777 C781 1.408 . S
C778 C776 1.363 . S
C778 C779 1.370 . S
C778 C782 1.524 . S
C779 C771 1.503 . S
C779 C778 1.370 . S
C779 C780 1.403 . S
C780 C779 1.403 . S
C780 C781 1.404 . S
C780 C783 1.539 . S
C781 C777 1.408 . S
C781 C780 1.404 . S
C781 H793 0.930 . S
C782 C778 1.524 . S
C782 H794 0.956 . S
C782 H795 0.961 . S
C782 H796 0.961 . S
C783 C780 1.539 . S
C783 H797 0.958 . S
C783 H798 0.961 . S
C783 H799 0.960 . S
H784 C768 0.931 . S
H785 C773 0.929 . S
H786 C774 0.960 . S
H787 C774 0.962 . S
H788 C774 0.960 . S
H789 C775 0.961 . S
H790 C775 0.961 . S
H791 C775 0.961 . S
H792 C776 0.931 . S
H793 C781 0.930 . S
H794 C782 0.956 . S
H795 C782 0.961 . S
H796 C782 0.961 . S
H797 C783 0.958 . S
H798 C783 0.961 . S
H799 C783 0.960 . S
C800 C801 1.391 . S
C800 C802 1.394 . S
C800 H816 0.931 . S
C801 C800 1.391 . S
C801 C805 1.376 . S
C802 C800 1.394 . S
C802 C803 1.369 . S
C802 C806 1.531 . S
C803 C802 1.369 . S
C803 C804 1.410 . S
C803 C811 1.503 . S
C804 C803 1.410 . S
C804 C805 1.392 . S
C804 C807 1.511 . S
C805 C801 1.376 . S
C805 C804 1.392 . S
C805 H817 0.929 . S
C806 C802 1.531 . S
C806 H818 0.960 . S
C806 H819 0.962 . S
C806 H820 0.960 . S
C807 C804 1.511 . S
C807 H821 0.961 . S
C807 H822 0.961 . S
C807 H823 0.961 . S
C808 C809 1.370 . S
C808 C810 1.363 . S
C808 H824 0.931 . S
C809 C808 1.370 . S
C809 C813 1.408 . S
C810 C808 1.363 . S
C810 C811 1.370 . S
C810 C814 1.524 . S
C811 C803 1.503 . S
C811 C810 1.370 . S
C811 C812 1.403 . S
C812 C811 1.403 . S
C812 C813 1.404 . S
C812 C815 1.539 . S
C813 C809 1.408 . S
C813 C812 1.404 . S
C813 H825 0.930 . S
C814 C810 1.524 . S
C814 H826 0.956 . S
C814 H827 0.961 . S
C814 H828 0.961 . S
C815 C812 1.539 . S
C815 H829 0.958 . S
C815 H830 0.961 . S
C815 H831 0.960 . S
H816 C800 0.931 . S
H817 C805 0.929 . S
H818 C806 0.960 . S
H819 C806 0.962 . S
H820 C806 0.960 . S
H821 C807 0.961 . S
H822 C807 0.961 . S
H823 C807 0.961 . S
H824 C808 0.931 . S
H825 C813 0.930 . S
H826 C814 0.956 . S
H827 C814 0.961 . S
H828 C814 0.961 . S
H829 C815 0.958 . S
H830 C815 0.961 . S
H831 C815 0.960 . S
C832 C833 1.391 . S
C832 C834 1.394 . S
C832 H848 0.931 . S
C833 C832 1.391 . S
C833 C837 1.376 . S
C834 C832 1.394 . S
C834 C835 1.369 . S
C834 C838 1.531 . S
C835 C834 1.369 . S
C835 C836 1.410 . S
C835 C843 1.503 . S
C836 C835 1.410 . S
C836 C837 1.392 . S
C836 C839 1.511 . S
C837 C833 1.376 . S
C837 C836 1.392 . S
C837 H849 0.929 . S
C838 C834 1.531 . S
C838 H850 0.960 . S
C838 H851 0.962 . S
C838 H852 0.960 . S
C839 C836 1.511 . S
C839 H853 0.961 . S
C839 H854 0.961 . S
C839 H855 0.961 . S
C840 C841 1.370 . S
C840 C842 1.363 . S
C840 H856 0.931 . S
C841 C840 1.370 . S
C841 C845 1.408 . S
C842 C840 1.363 . S
C842 C843 1.370 . S
C842 C846 1.524 . S
C843 C835 1.503 . S
C843 C842 1.370 . S
C843 C844 1.403 . S
C844 C843 1.403 . S
C844 C845 1.404 . S
C844 C847 1.539 . S
C845 C841 1.408 . S
C845 C844 1.404 . S
C845 H857 0.930 . S
C846 C842 1.524 . S
C846 H858 0.956 . S
C846 H859 0.961 . S
C846 H860 0.961 . S
C847 C844 1.539 . S
C847 H861 0.958 . S
C847 H862 0.961 . S
C847 H863 0.960 . S
H848 C832 0.931 . S
H849 C837 0.929 . S
H850 C838 0.960 . S
H851 C838 0.962 . S
H852 C838 0.960 . S
H853 C839 0.961 . S
H854 C839 0.961 . S
H855 C839 0.961 . S
H856 C840 0.931 . S
H857 C845 0.930 . S
H858 C846 0.956 . S
H859 C846 0.961 . S
H860 C846 0.961 . S
H861 C847 0.958 . S
H862 C847 0.961 . S
H863 C847 0.960 . S
C864 C865 1.391 . S
C864 C866 1.394 . S
C864 H880 0.931 . S
C865 C864 1.391 . S
C865 C869 1.376 . S
C866 C864 1.394 . S
C866 C867 1.369 . S
C866 C870 1.531 . S
C867 C866 1.369 . S
C867 C868 1.410 . S
C867 C875 1.503 . S
C868 C867 1.410 . S
C868 C869 1.392 . S
C868 C871 1.511 . S
C869 C865 1.376 . S
C869 C868 1.392 . S
C869 H881 0.929 . S
C870 C866 1.531 . S
C870 H882 0.960 . S
C870 H883 0.962 . S
C870 H884 0.960 . S
C871 C868 1.511 . S
C871 H885 0.961 . S
C871 H886 0.961 . S
C871 H887 0.961 . S
C872 C873 1.370 . S
C872 C874 1.363 . S
C872 H888 0.931 . S
C873 C872 1.370 . S
C873 C877 1.408 . S
C874 C872 1.363 . S
C874 C875 1.370 . S
C874 C878 1.524 . S
C875 C867 1.503 . S
C875 C874 1.370 . S
C875 C876 1.403 . S
C876 C875 1.403 . S
C876 C877 1.404 . S
C876 C879 1.539 . S
C877 C873 1.408 . S
C877 C876 1.404 . S
C877 H889 0.930 . S
C878 C874 1.524 . S
C878 H890 0.956 . S
C878 H891 0.961 . S
C878 H892 0.961 . S
C879 C876 1.539 . S
C879 H893 0.958 . S
C879 H894 0.961 . S
C879 H895 0.960 . S
H880 C864 0.931 . S
H881 C869 0.929 . S
H882 C870 0.960 . S
H883 C870 0.962 . S
H884 C870 0.960 . S
H885 C871 0.961 . S
H886 C871 0.961 . S
H887 C871 0.961 . S
H888 C872 0.931 . S
H889 C877 0.930 . S
H890 C878 0.956 . S
H891 C878 0.961 . S
H892 C878 0.961 . S
H893 C879 0.958 . S
H894 C879 0.961 . S
H895 C879 0.960 . S
C896 C897 1.391 . S
C896 C898 1.394 . S
C896 H912 0.931 . S
C897 C896 1.391 . S
C897 C901 1.376 . S
C898 C896 1.394 . S
C898 C899 1.369 . S
C898 C902 1.531 . S
C899 C898 1.369 . S
C899 C900 1.410 . S
C899 C907 1.503 . S
C900 C899 1.410 . S
C900 C901 1.392 . S
C900 C903 1.511 . S
C901 C897 1.376 . S
C901 C900 1.392 . S
C901 H913 0.929 . S
C902 C898 1.531 . S
C902 H914 0.960 . S
C902 H915 0.962 . S
C902 H916 0.960 . S
C903 C900 1.511 . S
C903 H917 0.961 . S
C903 H918 0.961 . S
C903 H919 0.961 . S
C904 C905 1.370 . S
C904 C906 1.363 . S
C904 H920 0.931 . S
C905 C904 1.370 . S
C905 C909 1.408 . S
C906 C904 1.363 . S
C906 C907 1.370 . S
C906 C910 1.524 . S
C907 C899 1.503 . S
C907 C906 1.370 . S
C907 C908 1.403 . S
C908 C907 1.403 . S
C908 C909 1.404 . S
C908 C911 1.539 . S
C909 C905 1.408 . S
C909 C908 1.404 . S
C909 H921 0.930 . S
C910 C906 1.524 . S
C910 H922 0.956 . S
C910 H923 0.961 . S
C910 H924 0.961 . S
C911 C908 1.539 . S
C911 H925 0.958 . S
C911 H926 0.961 . S
C911 H927 0.960 . S
H912 C896 0.931 . S
H913 C901 0.929 . S
H914 C902 0.960 . S
H915 C902 0.962 . S
H916 C902 0.960 . S
H917 C903 0.961 . S
H918 C903 0.961 . S
H919 C903 0.961 . S
H920 C904 0.931 . S
H921 C909 0.930 . S
H922 C910 0.956 . S
H923 C910 0.961 . S
H924 C910 0.961 . S
H925 C911 0.958 . S
H926 C911 0.961 . S
H927 C911 0.960 . S
C928 C929 1.391 . S
C928 C930 1.394 . S
C928 H944 0.931 . S
C929 C928 1.391 . S
C929 C933 1.376 . S
C930 C928 1.394 . S
C930 C931 1.369 . S
C930 C934 1.531 . S
C931 C930 1.369 . S
C931 C932 1.410 . S
C931 C939 1.503 . S
C932 C931 1.410 . S
C932 C933 1.392 . S
C932 C935 1.511 . S
C933 C929 1.376 . S
C933 C932 1.392 . S
C933 H945 0.929 . S
C934 C930 1.531 . S
C934 H946 0.960 . S
C934 H947 0.962 . S
C934 H948 0.960 . S
C935 C932 1.511 . S
C935 H949 0.961 . S
C935 H950 0.961 . S
C935 H951 0.961 . S
C936 C937 1.370 . S
C936 C938 1.363 . S
C936 H952 0.931 . S
C937 C936 1.370 . S
C937 C941 1.408 . S
C938 C936 1.363 . S
C938 C939 1.370 . S
C938 C942 1.524 . S
C939 C931 1.503 . S
C939 C938 1.370 . S
C939 C940 1.403 . S
C940 C939 1.403 . S
C940 C941 1.404 . S
C940 C943 1.539 . S
C941 C937 1.408 . S
C941 C940 1.404 . S
C941 H953 0.930 . S
C942 C938 1.524 . S
C942 H954 0.956 . S
C942 H955 0.961 . S
C942 H956 0.961 . S
C943 C940 1.539 . S
C943 H957 0.958 . S
C943 H958 0.961 . S
C943 H959 0.960 . S
H944 C928 0.931 . S
H945 C933 0.929 . S
H946 C934 0.960 . S
H947 C934 0.962 . S
H948 C934 0.960 . S
H949 C935 0.961 . S
H950 C935 0.961 . S
H951 C935 0.961 . S
H952 C936 0.931 . S
H953 C941 0.930 . S
H954 C942 0.956 . S
H955 C942 0.961 . S
H956 C942 0.961 . S
H957 C943 0.958 . S
H958 C943 0.961 . S
H959 C943 0.960 . S
C960 C961 1.391 . S
C960 C962 1.394 . S
C960 H976 0.931 . S
C961 C960 1.391 . S
C961 C965 1.376 . S
C962 C960 1.394 . S
C962 C963 1.369 . S
C962 C966 1.531 . S
C963 C962 1.369 . S
C963 C964 1.410 . S
C963 C971 1.503 . S
C964 C963 1.410 . S
C964 C965 1.392 . S
C964 C967 1.511 . S
C965 C961 1.376 . S
C965 C964 1.392 . S
C965 H977 0.929 . S
C966 C962 1.531 . S
C966 H978 0.960 . S
C966 H979 0.962 . S
C966 H980 0.960 . S
C967 C964 1.511 . S
C967 H981 0.961 . S
C967 H982 0.961 . S
C967 H983 0.961 . S
C968 C969 1.370 . S
C968 C970 1.363 . S
C968 H984 0.931 . S
C969 C968 1.370 . S
C969 C973 1.408 . S
C970 C968 1.363 . S
C970 C971 1.370 . S
C970 C974 1.524 . S
C971 C963 1.503 . S
C971 C970 1.370 . S
C971 C972 1.403 . S
C972 C971 1.403 . S
C972 C973 1.404 . S
C972 C975 1.539 . S
C973 C969 1.408 . S
C973 C972 1.404 . S
C973 H985 0.930 . S
C974 C970 1.524 . S
C974 H986 0.956 . S
C974 H987 0.961 . S
C974 H988 0.961 . S
C975 C972 1.539 . S
C975 H989 0.958 . S
C975 H990 0.961 . S
C975 H991 0.960 . S
H976 C960 0.931 . S
H977 C965 0.929 . S
H978 C966 0.960 . S
H979 C966 0.962 . S
H980 C966 0.960 . S
H981 C967 0.961 . S
H982 C967 0.961 . S
H983 C967 0.961 . S
H984 C968 0.931 . S
H985 C973 0.930 . S
H986 C974 0.956 . S
H987 C974 0.961 . S
H988 C974 0.961 . S
H989 C975 0.958 . S
H990 C975 0.961 . S
H991 C975 0.960 . S
C992 C993 1.391 . S
C992 C994 1.394 . S
C992 H1008 0.931 . S
C993 C992 1.391 . S
C993 C997 1.376 . S
C994 C992 1.394 . S
C994 C995 1.369 . S
C994 C998 1.531 1_565 S
C995 C994 1.369 . S
C995 C996 1.410 1_655 S
C995 C1003 1.503 1_665 S
C996 C995 1.410 1_455 S
C996 C997 1.392 1_455 S
C996 C999 1.511 . S
C997 C993 1.376 . S
C997 C996 1.392 1_655 S
C997 H1009 0.929 . S
C998 C994 1.531 1_545 S
C998 H1010 0.960 . S
C998 H1011 0.962 . S
C998 H1012 0.960 . S
C999 C996 1.511 . S
C999 H1013 0.961 . S
C999 H1014 0.961 . S
C999 H1015 0.961 . S
C1000 C1001 1.370 . S
C1000 C1002 1.363 . S
C1000 H1016 0.931 . S
C1001 C1000 1.370 . S
C1001 C1005 1.408 . S
C1002 C1000 1.363 . S
C1002 C1003 1.370 . S
C1002 C1006 1.524 1_545 S
C1003 C995 1.503 1_445 S
C1003 C1002 1.370 . S
C1003 C1004 1.403 1_455 S
C1004 C1003 1.403 1_655 S
C1004 C1005 1.404 1_655 S
C1004 C1007 1.539 . S
C1005 C1001 1.408 . S
C1005 C1004 1.404 1_455 S
C1005 H1017 0.930 . S
C1006 C1002 1.524 1_565 S
C1006 H1018 0.956 . S
C1006 H1019 0.961 . S
C1006 H1020 0.961 1_565 S
C1007 C1004 1.539 . S
C1007 H1021 0.958 . S
C1007 H1022 0.961 . S
C1007 H1023 0.960 . S
H1008 C992 0.931 . S
H1009 C997 0.929 . S
H1010 C998 0.960 . S
H1011 C998 0.962 . S
H1012 C998 0.960 . S
H1013 C999 0.961 . S
H1014 C999 0.961 . S
H1015 C999 0.961 . S
H1016 C1000 0.931 . S
H1017 C1005 0.930 . S
H1018 C1006 0.956 . S
H1019 C1006 0.961 . S
H1020 C1006 0.961 1_545 S
H1021 C1007 0.958 . S
H1022 C1007 0.961 . S
H1023 C1007 0.960 . S
C1024 C1025 1.391 . S
C1024 C1026 1.394 . S
C1024 H1040 0.931 . S
C1025 C1024 1.391 . S
C1025 C1029 1.376 . S
C1026 C1024 1.394 . S
C1026 C1027 1.369 . S
C1026 C1030 1.531 1_655 S
C1027 C1026 1.369 . S
C1027 C1028 1.410 1_545 S
C1027 C1035 1.503 1_645 S
C1028 C1027 1.410 1_565 S
C1028 C1029 1.392 1_565 S
C1028 C1031 1.511 . S
C1029 C1025 1.376 . S
C1029 C1028 1.392 1_545 S
C1029 H1041 0.929 1_545 S
C1030 C1026 1.531 1_455 S
C1030 H1042 0.960 . S
C1030 H1043 0.962 . S
C1030 H1044 0.960 . S
C1031 C1028 1.511 . S
C1031 H1045 0.961 . S
C1031 H1046 0.961 . S
C1031 H1047 0.961 . S
C1032 C1033 1.370 . S
C1032 C1034 1.363 . S
C1032 H1048 0.931 . S
C1033 C1032 1.370 . S
C1033 C1037 1.408 . S
C1034 C1032 1.363 . S
C1034 C1035 1.370 . S
C1034 C1038 1.524 1_565 S
C1035 C1027 1.503 1_465 S
C1035 C1034 1.370 . S
C1035 C1036 1.403 . S
C1036 C1035 1.403 . S
C1036 C1037 1.404 . S
C1036 C1039 1.539 . S
C1037 C1033 1.408 . S
C1037 C1036 1.404 . S
C1037 H1049 0.930 . S
C1038 C1034 1.524 1_545 S
C1038 H1050 0.956 . S
C1038 H1051 0.961 . S
C1038 H1052 0.961 . S
C1039 C1036 1.539 . S
C1039 H1053 0.958 . S
C1039 H1054 0.961 . S
C1039 H1055 0.960 1_455 S
H1040 C1024 0.931 . S
H1041 C1029 0.929 1_565 S
H1042 C1030 0.960 . S
H1043 C1030 0.962 . S
H1044 C1030 0.960 . S
H1045 C1031 0.961 . S
H1046 C1031 0.961 . S
H1047 C1031 0.961 . S
H1048 C1032 0.931 . S
H1049 C1037 0.930 . S
H1050 C1038 0.956 . S
H1051 C1038 0.961 . S
H1052 C1038 0.961 . S
H1053 C1039 0.958 . S
H1054 C1039 0.961 . S
H1055 C1039 0.960 1_655 S
C1056 C1057 1.391 . S
C1056 C1058 1.394 1_455 S
C1056 H1072 0.931 . S
C1057 C1056 1.391 . S
C1057 C1061 1.376 . S
C1058 C1056 1.394 1_655 S
C1058 C1059 1.369 1_655 S
C1058 C1062 1.531 . S
C1059 C1058 1.369 1_455 S
C1059 C1060 1.410 . S
C1059 C1067 1.503 1_455 S
C1060 C1059 1.410 . S
C1060 C1061 1.392 . S
C1060 C1063 1.511 . S
C1061 C1057 1.376 . S
C1061 C1060 1.392 . S
C1061 H1073 0.929 . S
C1062 C1058 1.531 . S
C1062 H1074 0.944 1_556 S
C1062 H1075 0.962 . S
C1062 H1076 0.960 1_556 S
C1063 C1060 1.511 . S
C1063 H1077 0.961 . S
C1063 H1078 0.961 . S
C1063 H1079 0.961 . S
C1064 C1065 1.370 . S
C1064 C1066 1.363 . S
C1064 H1080 0.931 . S
C1065 C1064 1.370 . S
C1065 C1069 1.408 . S
C1066 C1064 1.363 . S
C1066 C1067 1.370 . S
C1066 C1070 1.524 . S
C1067 C1059 1.503 1_655 S
C1067 C1066 1.370 . S
C1067 C1068 1.405 . S
C1068 C1067 1.405 . S
C1068 C1069 1.410 . S
C1068 C1071 1.531 1_656 S
C1069 C1065 1.408 . S
C1069 C1068 1.410 . S
C1069 H1081 0.930 . S
C1070 C1066 1.524 . S
C1070 H1082 0.956 . S
C1070 H1083 0.961 . S
C1070 H1084 0.961 . S
C1071 C1068 1.531 1_454 S
C1071 H1085 0.958 . S
C1071 H1086 0.961 . S
C1071 H1087 0.959 . S
H1072 C1056 0.931 . S
H1073 C1061 0.929 . S
H1074 C1062 0.944 1_554 S
H1075 C1062 0.962 . S
H1076 C1062 0.960 1_554 S
H1077 C1063 0.961 . S
H1078 C1063 0.961 . S
H1079 C1063 0.961 . S
H1080 C1064 0.931 . S
H1081 C1069 0.930 . S
H1082 C1070 0.956 . S
H1083 C1070 0.961 . S
H1084 C1070 0.961 . S
H1085 C1071 0.958 . S
H1086 C1071 0.961 . S
H1087 C1071 0.959 . S
C1088 C1089 1.391 . S
C1088 C1090 1.394 . S
C1088 H1104 0.931 . S
C1089 C1088 1.391 . S
C1089 C1093 1.376 . S
C1090 C1088 1.394 . S
C1090 C1091 1.369 . S
C1090 C1094 1.531 1_565 S
C1091 C1090 1.369 . S
C1091 C1092 1.410 . S
C1091 C1099 1.503 1_565 S
C1092 C1091 1.410 . S
C1092 C1093 1.392 . S
C1092 C1095 1.499 1_554 S
C1093 C1089 1.376 . S
C1093 C1092 1.392 . S
C1093 H1105 0.929 . S
C1094 C1090 1.531 1_545 S
C1094 H1106 0.960 . S
C1094 H1107 0.962 . S
C1094 H1108 0.960 . S
C1095 C1092 1.499 1_556 S
C1095 H1109 0.975 . S
C1095 H1110 0.964 . S
C1095 H1111 0.956 1_556 S
C1096 C1097 1.370 . S
C1096 C1098 1.363 . S
C1096 H1112 0.931 . S
C1097 C1096 1.370 . S
C1097 C1101 1.408 . S
C1098 C1096 1.363 . S
C1098 C1099 1.370 . S
C1098 C1102 1.524 . S
C1099 C1091 1.503 1_545 S
C1099 C1098 1.370 . S
C1099 C1100 1.403 1_545 S
C1100 C1099 1.403 1_565 S
C1100 C1101 1.404 1_565 S
C1100 C1103 1.539 . S
C1101 C1097 1.408 . S
C1101 C1100 1.404 1_545 S
C1101 H1113 0.930 1_545 S
C1102 C1098 1.524 . S
C1102 H1114 0.956 . S
C1102 H1115 0.961 . S
C1102 H1116 0.961 . S
C1103 C1100 1.539 . S
C1103 H1117 0.958 . S
C1103 H1118 0.961 . S
C1103 H1119 0.960 . S
H1104 C1088 0.931 . S
H1105 C1093 0.929 . S
H1106 C1094 0.960 . S
H1107 C1094 0.962 . S
H1108 C1094 0.960 . S
H1109 C1095 0.975 . S
H1110 C1095 0.964 . S
H1111 C1095 0.956 1_554 S
H1112 C1096 0.931 . S
H1113 C1101 0.930 1_565 S
H1114 C1102 0.956 . S
H1115 C1102 0.961 . S
H1116 C1102 0.961 . S
H1117 C1103 0.958 . S
H1118 C1103 0.961 . S
H1119 C1103 0.960 . S
C1120 C1121 1.391 . S
C1120 C1122 1.394 . S
C1120 H1136 0.931 . S
C1121 C1120 1.391 . S
C1121 C1125 1.376 . S
C1122 C1120 1.394 . S
C1122 C1123 1.369 . S
C1122 C1126 1.531 . S
C1123 C1122 1.369 . S
C1123 C1124 1.410 . S
C1123 C1131 1.503 . S
C1124 C1123 1.410 . S
C1124 C1125 1.392 . S
C1124 C1127 1.511 . S
C1125 C1121 1.376 . S
C1125 C1124 1.392 . S
C1125 H1137 0.929 . S
C1126 C1122 1.531 . S
C1126 H1138 0.960 . S
C1126 H1139 0.962 . S
C1126 H1140 0.960 . S
C1127 C1124 1.511 . S
C1127 H1141 0.961 . S
C1127 H1142 0.961 . S
C1127 H1143 0.961 . S
C1128 C1129 1.370 . S
C1128 C1130 1.363 . S
C1128 H1144 0.931 . S
C1129 C1128 1.370 . S
C1129 C1133 1.408 . S
C1130 C1128 1.363 . S
C1130 C1131 1.370 . S
C1130 C1134 1.524 . S
C1131 C1123 1.503 . S
C1131 C1130 1.370 . S
C1131 C1132 1.403 . S
C1132 C1131 1.403 . S
C1132 C1133 1.404 . S
C1132 C1135 1.539 . S
C1133 C1129 1.408 . S
C1133 C1132 1.404 . S
C1133 H1145 0.930 . S
C1134 C1130 1.524 . S
C1134 H1146 0.956 . S
C1134 H1147 0.961 . S
C1134 H1148 0.961 . S
C1135 C1132 1.539 . S
C1135 H1149 0.958 . S
C1135 H1150 0.961 . S
C1135 H1151 0.960 . S
H1136 C1120 0.931 . S
H1137 C1125 0.929 . S
H1138 C1126 0.960 . S
H1139 C1126 0.962 . S
H1140 C1126 0.960 . S
H1141 C1127 0.961 . S
H1142 C1127 0.961 . S
H1143 C1127 0.961 . S
H1144 C1128 0.931 . S
H1145 C1133 0.930 . S
H1146 C1134 0.956 . S
H1147 C1134 0.961 . S
H1148 C1134 0.961 . S
H1149 C1135 0.958 . S
H1150 C1135 0.961 . S
H1151 C1135 0.960 . S
C1152 C1153 1.391 . S
C1152 C1154 1.394 . S
C1152 H1168 0.931 . S
C1153 C1152 1.391 . S
C1153 C1157 1.376 . S
C1154 C1152 1.394 . S
C1154 C1155 1.369 . S
C1154 C1158 1.531 . S
C1155 C1154 1.369 . S
C1155 C1156 1.410 . S
C1155 C1163 1.503 . S
C1156 C1155 1.410 . S
C1156 C1157 1.392 . S
C1156 C1159 1.511 . S
C1157 C1153 1.376 . S
C1157 C1156 1.392 . S
C1157 H1169 0.929 . S
C1158 C1154 1.531 . S
C1158 H1170 0.960 . S
C1158 H1171 0.962 . S
C1158 H1172 0.960 . S
C1159 C1156 1.511 . S
C1159 H1173 0.961 . S
C1159 H1174 0.961 . S
C1159 H1175 0.961 . S
C1160 C1161 1.370 . S
C1160 C1162 1.363 . S
C1160 H1176 0.931 . S
C1161 C1160 1.370 . S
C1161 C1165 1.408 . S
C1162 C1160 1.363 . S
C1162 C1163 1.370 . S
C1162 C1166 1.524 . S
C1163 C1155 1.503 . S
C1163 C1162 1.370 . S
C1163 C1164 1.403 . S
C1164 C1163 1.403 . S
C1164 C1165 1.404 . S
C1164 C1167 1.539 . S
C1165 C1161 1.408 . S
C1165 C1164 1.404 . S
C1165 H1177 0.930 . S
C1166 C1162 1.524 . S
C1166 H1178 0.956 . S
C1166 H1179 0.961 . S
C1166 H1180 0.961 . S
C1167 C1164 1.539 . S
C1167 H1181 0.958 . S
C1167 H1182 0.961 . S
C1167 H1183 0.960 . S
H1168 C1152 0.931 . S
H1169 C1157 0.929 . S
H1170 C1158 0.960 . S
H1171 C1158 0.962 . S
H1172 C1158 0.960 . S
H1173 C1159 0.961 . S
H1174 C1159 0.961 . S
H1175 C1159 0.961 . S
H1176 C1160 0.931 . S
H1177 C1165 0.930 . S
H1178 C1166 0.956 . S
H1179 C1166 0.961 . S
H1180 C1166 0.961 . S
H1181 C1167 0.958 . S
H1182 C1167 0.961 . S
H1183 C1167 0.960 . S
C1184 C1185 1.391 . S
C1184 C1186 1.394 . S
C1184 H1200 0.931 . S
C1185 C1184 1.391 . S
C1185 C1189 1.376 . S
C1186 C1184 1.394 . S
C1186 C1187 1.369 . S
C1186 C1190 1.531 . S
C1187 C1186 1.369 . S
C1187 C1188 1.410 . S
C1187 C1195 1.503 1_545 S
C1188 C1187 1.410 . S
C1188 C1189 1.392 . S
C1188 C1191 1.511 1_545 S
C1189 C1185 1.376 . S
C1189 C1188 1.392 . S
C1189 H1201 0.929 . S
C1190 C1186 1.531 . S
C1190 H1202 0.960 . S
C1190 H1203 0.962 . S
C1190 H1204 0.960 . S
C1191 C1188 1.511 1_565 S
C1191 H1205 0.961 1_565 S
C1191 H1206 0.961 . S
C1191 H1207 0.961 . S
C1192 C1193 1.370 . S
C1192 C1194 1.363 . S
C1192 H1208 0.931 . S
C1193 C1192 1.370 . S
C1193 C1197 1.408 . S
C1194 C1192 1.363 . S
C1194 C1195 1.370 . S
C1194 C1198 1.524 1_565 S
C1195 C1187 1.503 1_565 S
C1195 C1194 1.370 . S
C1195 C1196 1.403 . S
C1196 C1195 1.403 . S
C1196 C1197 1.404 . S
C1196 C1199 1.539 . S
C1197 C1193 1.408 . S
C1197 C1196 1.404 . S
C1197 H1209 0.930 . S
C1198 C1194 1.524 1_545 S
C1198 H1210 0.956 . S
C1198 H1211 0.961 . S
C1198 H1212 0.961 . S
C1199 C1196 1.539 . S
C1199 H1213 0.958 . S
C1199 H1214 0.961 . S
C1199 H1215 0.960 . S
H1200 C1184 0.931 . S
H1201 C1189 0.929 . S
H1202 C1190 0.960 . S
H1203 C1190 0.962 . S
H1204 C1190 0.960 . S
H1205 C1191 0.961 1_545 S
H1206 C1191 0.961 . S
H1207 C1191 0.961 . S
H1208 C1192 0.931 . S
H1209 C1197 0.930 . S
H1210 C1198 0.956 . S
H1211 C1198 0.961 . S
H1212 C1198 0.961 . S
H1213 C1199 0.958 . S
H1214 C1199 0.961 . S
H1215 C1199 0.960 . S
C1216 C1217 1.391 . S
C1216 C1218 1.394 . S
C1216 H1232 0.931 . S
C1217 C1216 1.391 . S
C1217 C1221 1.376 . S
C1218 C1216 1.394 . S
C1218 C1219 1.369 . S
C1218 C1222 1.531 . S
C1219 C1218 1.369 . S
C1219 C1220 1.410 . S
C1219 C1227 1.503 1_655 S
C1220 C1219 1.410 . S
C1220 C1221 1.392 . S
C1220 C1223 1.511 . S
C1221 C1217 1.376 . S
C1221 C1220 1.392 . S
C1221 H1233 0.929 . S
C1222 C1218 1.531 . S
C1222 H1234 0.960 1_655 S
C1222 H1235 0.962 . S
C1222 H1236 0.960 . S
C1223 C1220 1.511 . S
C1223 H1237 0.961 . S
C1223 H1238 0.961 . S
C1223 H1239 0.961 . S
C1224 C1225 1.370 . S
C1224 C1226 1.363 . S
C1224 H1240 0.931 . S
C1225 C1224 1.370 . S
C1225 C1229 1.408 . S
C1226 C1224 1.363 . S
C1226 C1227 1.370 . S
C1226 C1230 1.524 1_455 S
C1227 C1219 1.503 1_455 S
C1227 C1226 1.370 . S
C1227 C1228 1.403 . S
C1228 C1227 1.403 . S
C1228 C1229 1.404 . S
C1228 C1231 1.539 . S
C1229 C1225 1.408 . S
C1229 C1228 1.404 . S
C1229 H1241 0.930 . S
C1230 C1226 1.524 1_655 S
C1230 H1242 0.956 . S
C1230 H1243 0.961 . S
C1230 H1244 0.961 . S
C1231 C1228 1.539 . S
C1231 H1245 0.958 . S
C1231 H1246 0.961 . S
C1231 H1247 0.960 . S
H1232 C1216 0.931 . S
H1233 C1221 0.929 . S
H1234 C1222 0.960 1_455 S
H1235 C1222 0.962 . S
H1236 C1222 0.960 . S
H1237 C1223 0.961 . S
H1238 C1223 0.961 . S
H1239 C1223 0.961 . S
H1240 C1224 0.931 . S
H1241 C1229 0.930 . S
H1242 C1230 0.956 . S
H1243 C1230 0.961 . S
H1244 C1230 0.961 . S
H1245 C1231 0.958 . S
H1246 C1231 0.961 . S
H1247 C1231 0.960 . S
C225 C8 1.301 . S
C233 C163 1.311 . S
C257 C121 1.285 . S
C265 C22 1.276 . S
C289 C135 1.320 . S
C297 C36 1.299 . S
C321 C149 1.329 . S
C329 C50 1.298 . S
C353 C79 1.307 . S
C361 C64 1.266 . S
C385 C78 1.294 . S
C393 C93 1.306 1_455 S
C417 C92 1.273 . S
C425 C107 1.305 1_565 S
C449 C106 1.247 . S
C457 C65 1.289 1_655 S
C481 C120 1.306 . S
C489 C51 1.313 1_565 S
C513 C9 1.321 1_655 S
C521 C134 1.299 . S
C545 C23 1.318 1_545 S
C553 C148 1.292 . S
C577 C37 1.328 . S
C585 C162 1.266 . S
C609 C191 1.323 . S
C617 C176 1.273 . S
C641 C190 1.239 . S
C649 C205 1.312 . S
C673 C219 1.292 . S
C681 C204 1.266 . S
C705 C177 1.337 . S
C713 C218 1.293 . S
C737 C202 1.460 . S
C745 C6 1.479 . S
C769 C216 1.487 . S
C777 C20 1.484 . S
C801 C174 1.490 . S
C809 C34 1.481 . S
C833 C48 1.457 . S
C841 C188 1.474 . S
C865 C62 1.456 . S
C873 C146 1.476 . S
C897 C160 1.456 . S
C905 C76 1.469 . S
C929 C90 1.454 . S
C937 C118 1.473 . S
C961 C104 1.486 . S
C969 C132 1.484 . S
C993 C35 1.413 . S
C1001 C7 1.404 . S
C1025 C49 1.380 . S
C1033 C21 1.398 . S
C1057 C63 1.391 . S
C1065 C91 1.393 . S
C1089 C77 1.411 . S
C1097 C105 1.398 . S
C1121 C147 1.394 . S
C1129 C119 1.394 . S
C1153 C133 1.380 . S
C1161 C161 1.399 . S
C1185 C203 1.398 . S
C1193 C175 1.395 . S
C1217 C189 1.403 . S
C1225 C217 1.395 . S
