# Generated by pormake.
# Topology uoy, (4)-cn, num edge types: 1
# Building blocks:
#     Node 0, Type 0, BuildingBlock: QUQFOY_clean_sbu_3, # of connection points: 4
#     Node 1, Type 0, BuildingBlock: QUQFOY_clean_sbu_3, # of connection points: 4
#     Node 2, Type 0, BuildingBlock: QUQFOY_clean_sbu_3, # of connection points: 4
#     Node 3, Type 0, BuildingBlock: QUQFOY_clean_sbu_3, # of connection points: 4
#     Node 4, Type 0, BuildingBlock: QUQFOY_clean_sbu_3, # of connection points: 4
#     Node 5, Type 0, BuildingBlock: QUQFOY_clean_sbu_3, # of connection points: 4
#     Node 6, Type 0, BuildingBlock: QUQFOY_clean_sbu_3, # of connection points: 4
#     Node 7, Type 0, BuildingBlock: QUQFOY_clean_sbu_3, # of connection points: 4
#     Node 8, Type 0, BuildingBlock: QUQFOY_clean_sbu_3, # of connection points: 4
#     Node 9, Type 0, BuildingBlock: QUQFOY_clean_sbu_3, # of connection points: 4
#     Node 10, Type 0, BuildingBlock: QUQFOY_clean_sbu_3, # of connection points: 4
#     Node 11, Type 0, BuildingBlock: QUQFOY_clean_sbu_3, # of connection points: 4
#     Node 12, Type 0, BuildingBlock: QUQFOY_clean_sbu_3, # of connection points: 4
#     Node 13, Type 0, BuildingBlock: QUQFOY_clean_sbu_3, # of connection points: 4
#     Node 14, Type 0, BuildingBlock: QUQFOY_clean_sbu_3, # of connection points: 4
#     Node 15, Type 0, BuildingBlock: QUQFOY_clean_sbu_3, # of connection points: 4
#     Edge 16, Type (0, 0), BuildingBlock: ZUJKAS_clean_linker_0, # of connection points: 2
#     Edge 17, Type (0, 0), BuildingBlock: ZUJKAS_clean_linker_0, # of connection points: 2
#     Edge 18, Type (0, 0), BuildingBlock: ZUJKAS_clean_linker_0, # of connection points: 2
#     Edge 19, Type (0, 0), BuildingBlock: ZUJKAS_clean_linker_0, # of connection points: 2
#     Edge 20, Type (0, 0), BuildingBlock: ZUJKAS_clean_linker_0, # of connection points: 2
#     Edge 21, Type (0, 0), BuildingBlock: ZUJKAS_clean_linker_0, # of connection points: 2
#     Edge 22, Type (0, 0), BuildingBlock: ZUJKAS_clean_linker_0, # of connection points: 2
#     Edge 23, Type (0, 0), BuildingBlock: ZUJKAS_clean_linker_0, # of connection points: 2
#     Edge 24, Type (0, 0), BuildingBlock: ZUJKAS_clean_linker_0, # of connection points: 2
#     Edge 25, Type (0, 0), BuildingBlock: ZUJKAS_clean_linker_0, # of connection points: 2
#     Edge 26, Type (0, 0), BuildingBlock: ZUJKAS_clean_linker_0, # of connection points: 2
#     Edge 27, Type (0, 0), BuildingBlock: ZUJKAS_clean_linker_0, # of connection points: 2
#     Edge 28, Type (0, 0), BuildingBlock: ZUJKAS_clean_linker_0, # of connection points: 2
#     Edge 29, Type (0, 0), BuildingBlock: ZUJKAS_clean_linker_0, # of connection points: 2
#     Edge 30, Type (0, 0), BuildingBlock: ZUJKAS_clean_linker_0, # of connection points: 2
#     Edge 31, Type (0, 0), BuildingBlock: ZUJKAS_clean_linker_0, # of connection points: 2
#     Edge 32, Type (0, 0), BuildingBlock: ZUJKAS_clean_linker_0, # of connection points: 2
#     Edge 33, Type (0, 0), BuildingBlock: ZUJKAS_clean_linker_0, # of connection points: 2
#     Edge 34, Type (0, 0), BuildingBlock: ZUJKAS_clean_linker_0, # of connection points: 2
#     Edge 35, Type (0, 0), BuildingBlock: ZUJKAS_clean_linker_0, # of connection points: 2
#     Edge 36, Type (0, 0), BuildingBlock: ZUJKAS_clean_linker_0, # of connection points: 2
#     Edge 37, Type (0, 0), BuildingBlock: ZUJKAS_clean_linker_0, # of connection points: 2
#     Edge 38, Type (0, 0), BuildingBlock: ZUJKAS_clean_linker_0, # of connection points: 2
#     Edge 39, Type (0, 0), BuildingBlock: ZUJKAS_clean_linker_0, # of connection points: 2
#     Edge 40, Type (0, 0), BuildingBlock: ZUJKAS_clean_linker_0, # of connection points: 2
#     Edge 41, Type (0, 0), BuildingBlock: ZUJKAS_clean_linker_0, # of connection points: 2
#     Edge 42, Type (0, 0), BuildingBlock: ZUJKAS_clean_linker_0, # of connection points: 2
#     Edge 43, Type (0, 0), BuildingBlock: ZUJKAS_clean_linker_0, # of connection points: 2
#     Edge 44, Type (0, 0), BuildingBlock: ZUJKAS_clean_linker_0, # of connection points: 2
#     Edge 45, Type (0, 0), BuildingBlock: ZUJKAS_clean_linker_0, # of connection points: 2
#     Edge 46, Type (0, 0), BuildingBlock: ZUJKAS_clean_linker_0, # of connection points: 2
#     Edge 47, Type (0, 0), BuildingBlock: ZUJKAS_clean_linker_0, # of connection points: 2
# Relax obj value: 0.037
# Max RMSD: 0.063
# Mean RMSD: 0.063
data_MOF--net-uoy--node1-QUQFOY_clean_sbu_3--edge1-ZUJKAS_clean_linker_0
_symmetry_space_group_name_H-M    P1
_symmetry_Int_Tables_number       1
_symmetry_cell_setting            triclinic
loop_
_symmetry_equiv_pos_as_xyz
'x, y, z'
_cell_length_a     36.173116
_cell_length_b     36.192315
_cell_length_c     142.71731
_cell_angle_alpha  90.031576
_cell_angle_beta   89.966446
_cell_angle_gamma 90.046399
loop_
_atom_site_label
_atom_site_type_symbol
_atom_site_fract_x
_atom_site_fract_y
_atom_site_fract_z
_atom_type_partial_charge
C0 C 0.27288 0.19321 0.19281 0.0
O1 O 0.28233 0.21696 0.18672 0.0
Cd2 Cd 0.28372 0.20052 0.17049 0.0
O3 O 0.26194 0.16116 0.19038 0.0
Cd4 Cd 0.24738 0.12304 0.17661 0.0
C5 C 0.3379 0.12145 0.17101 0.0
O6 O 0.22354 0.17502 0.16794 0.0
O7 O 0.22944 0.12474 0.16002 0.0
O8 O 0.19651 0.10658 0.18682 0.0
C9 C 0.21861 0.15801 0.1603 0.0
O10 O 0.3339 0.15534 0.16881 0.0
C11 C 0.19321 0.07366 0.1839 0.0
O12 O 0.31107 0.10303 0.17443 0.0
O13 O 0.21629 0.06284 0.17777 0.0
C14 C 0.80234 0.76736 0.44322 0.0
O15 O 0.78468 0.78724 0.43743 0.0
Cd16 Cd 0.8066 0.795 0.42167 0.0
O17 O 0.83191 0.75096 0.44078 0.0
Cd18 Cd 0.87282 0.74029 0.42738 0.0
C19 C 0.89308 0.83141 0.42612 0.0
O20 O 0.82267 0.73428 0.41635 0.0
O21 O 0.87748 0.73541 0.41034 0.0
O22 O 0.87432 0.67849 0.43376 0.0
C23 C 0.84297 0.73152 0.40915 0.0
O24 O 0.86043 0.83552 0.42295 0.0
C25 C 0.90896 0.67408 0.43299 0.0
O26 O 0.90446 0.79981 0.42879 0.0
O27 O 0.9274 0.70108 0.42972 0.0
C28 C 0.24413 0.31738 0.69677 0.0
O29 O 0.22734 0.29729 0.69083 0.0
Cd30 Cd 0.23028 0.30892 0.67425 0.0
O31 O 0.26347 0.34481 0.6941 0.0
Cd32 Cd 0.28332 0.37705 0.67991 0.0
C33 C 0.19478 0.39706 0.67406 0.0
O34 O 0.29365 0.32144 0.67085 0.0
O35 O 0.29717 0.3728 0.66322 0.0
O36 O 0.34224 0.38228 0.6878 0.0
C37 C 0.30039 0.33791 0.66321 0.0
O38 O 0.19198 0.3634 0.67154 0.0
C39 C 0.34685 0.41638 0.68611 0.0
O40 O 0.22401 0.40907 0.67802 0.0
O41 O 0.32108 0.4328 0.68172 0.0
C42 C 0.69485 0.71966 0.93944 0.0
O43 O 0.71133 0.70476 0.93255 0.0
Cd44 Cd 0.68488 0.70687 0.91716 0.0
O45 O 0.66439 0.73663 0.93827 0.0
Cd46 Cd 0.61985 0.75574 0.92627 0.0
C47 C 0.60004 0.6663 0.92159 0.0
O48 O 0.66725 0.77013 0.91496 0.0
O49 O 0.61132 0.77239 0.90977 0.0
O50 O 0.61963 0.81231 0.93531 0.0
C51 C 0.64548 0.77769 0.9083 0.0
O52 O 0.63196 0.66495 0.91783 0.0
C53 C 0.58505 0.81769 0.93486 0.0
O54 O 0.5888 0.69567 0.92562 0.0
O55 O 0.56597 0.79316 0.93069 0.0
C56 C 0.25367 0.28929 0.03851 0.0
O57 O 0.2727 0.27101 0.04436 0.0
Cd58 Cd 0.28078 0.29351 0.06006 0.0
O59 O 0.2384 0.31953 0.04088 0.0
Cd60 Cd 0.22887 0.36093 0.05423 0.0
C61 C 0.32068 0.37837 0.05565 0.0
O62 O 0.2205 0.31156 0.06546 0.0
O63 O 0.22321 0.36691 0.07114 0.0
O64 O 0.16657 0.36292 0.04828 0.0
C65 C 0.21757 0.33276 0.07249 0.0
O66 O 0.32359 0.34536 0.05865 0.0
C67 C 0.16298 0.39773 0.04861 0.0
O68 O 0.28941 0.3912 0.05313 0.0
O69 O 0.19089 0.41621 0.05134 0.0
C70 C 0.67841 0.76272 0.28597 0.0
O71 O 0.69858 0.78056 0.29167 0.0
Cd72 Cd 0.68703 0.78152 0.3082 0.0
O73 O 0.65156 0.74312 0.28891 0.0
Cd74 Cd 0.6218 0.72374 0.3036 0.0
C75 C 0.5965 0.81214 0.30779 0.0
O76 O 0.67802 0.71875 0.31277 0.0
O77 O 0.62675 0.71567 0.32048 0.0
O78 O 0.62099 0.66255 0.29674 0.0
C79 C 0.66173 0.71356 0.32052 0.0
O80 O 0.6304 0.81759 0.3098 0.0
C81 C 0.58748 0.65562 0.29868 0.0
O82 O 0.58552 0.78075 0.30483 0.0
O83 O 0.56916 0.68113 0.30269 0.0
C84 C 0.21948 0.20035 0.54356 0.0
O85 O 0.20356 0.21843 0.55003 0.0
Cd86 Cd 0.20044 0.1942 0.56561 0.0
O87 O 0.23408 0.16905 0.54525 0.0
Cd88 Cd 0.24623 0.12505 0.55799 0.0
C89 C 0.15466 0.11204 0.56167 0.0
O90 O 0.26221 0.17368 0.56874 0.0
O91 O 0.25926 0.11939 0.57489 0.0
O92 O 0.30387 0.11868 0.54956 0.0
C93 C 0.26706 0.15334 0.57583 0.0
O94 O 0.15468 0.14453 0.5651 0.0
C95 C 0.30638 0.08391 0.55039 0.0
O96 O 0.18398 0.0984 0.55813 0.0
O97 O 0.28 0.06759 0.55459 0.0
C98 C 0.80825 0.7215 0.78963 0.0
O99 O 0.78447 0.70932 0.7954 0.0
Cd100 Cd 0.7972 0.71011 0.81191 0.0
O101 O 0.83809 0.73638 0.79246 0.0
Cd102 Cd 0.87036 0.75564 0.80671 0.0
C103 C 0.88214 0.66625 0.81258 0.0
O104 O 0.8144 0.77285 0.81481 0.0
O105 O 0.86386 0.77235 0.82326 0.0
O106 O 0.88018 0.81123 0.79773 0.0
C107 C 0.82973 0.77986 0.82258 0.0
O108 O 0.84785 0.6662 0.81464 0.0
C109 C 0.91363 0.8159 0.8001 0.0
O110 O 0.89742 0.6947 0.80902 0.0
O111 O 0.9279 0.79141 0.80536 0.0
C112 C 0.79533 0.68354 0.69119 0.0
O113 O 0.80795 0.70584 0.68511 0.0
Cd114 Cd 0.81077 0.68735 0.66895 0.0
O115 O 0.78179 0.65252 0.68878 0.0
Cd116 Cd 0.76579 0.61478 0.67517 0.0
C117 C 0.85671 0.60381 0.67078 0.0
O118 O 0.74912 0.66723 0.66565 0.0
O119 O 0.75123 0.61483 0.65842 0.0
O120 O 0.70945 0.60695 0.68399 0.0
C121 C 0.74355 0.64901 0.65821 0.0
O122 O 0.85649 0.63727 0.668 0.0
C123 C 0.70581 0.57265 0.68243 0.0
O124 O 0.82778 0.58895 0.6742 0.0
O125 O 0.73103 0.55714 0.67762 0.0
C126 C 0.31415 0.25657 0.94152 0.0
O127 O 0.29396 0.2698 0.93507 0.0
Cd128 Cd 0.31665 0.27392 0.91939 0.0
O129 O 0.34638 0.24444 0.93968 0.0
Cd130 Cd 0.38922 0.23348 0.92656 0.0
C131 C 0.39624 0.32516 0.92297 0.0
O132 O 0.34101 0.21357 0.91614 0.0
O133 O 0.39332 0.22508 0.90947 0.0
O134 O 0.39904 0.17649 0.93493 0.0
C135 C 0.3608 0.21223 0.90885 0.0
O136 O 0.36355 0.32298 0.91969 0.0
C137 C 0.4338 0.17536 0.93386 0.0
O138 O 0.41202 0.29685 0.92644 0.0
O139 O 0.4486 0.20208 0.92945 0.0
C140 C 0.72226 0.83697 0.18826 0.0
O141 O 0.7066 0.81851 0.18182 0.0
Cd142 Cd 0.71224 0.83471 0.16563 0.0
O143 O 0.74248 0.86474 0.18629 0.0
Cd144 Cd 0.76678 0.90003 0.17287 0.0
C145 C 0.67965 0.92443 0.16683 0.0
O146 O 0.77679 0.84551 0.16355 0.0
O147 O 0.78477 0.89688 0.15625 0.0
O148 O 0.8214 0.90242 0.18273 0.0
C149 C 0.78605 0.86189 0.15608 0.0
O150 O 0.67574 0.89114 0.16409 0.0
C151 C 0.83033 0.93521 0.18056 0.0
O152 O 0.70949 0.93502 0.17076 0.0
O153 O 0.80895 0.95233 0.17499 0.0
C154 C 0.18809 0.2415 0.44641 0.0
O155 O 0.20979 0.22354 0.44111 0.0
Cd156 Cd 0.192 0.21086 0.42525 0.0
O157 O 0.15707 0.25287 0.44338 0.0
Cd158 Cd 0.11834 0.25537 0.42934 0.0
C159 C 0.11087 0.16265 0.42899 0.0
O160 O 0.16933 0.26812 0.41892 0.0
O161 O 0.11778 0.25361 0.4122 0.0
O162 O 0.10789 0.31668 0.43528 0.0
C163 C 0.15076 0.26507 0.41145 0.0
O164 O 0.14437 0.16284 0.42622 0.0
C165 C 0.07337 0.31744 0.43381 0.0
O166 O 0.09468 0.19265 0.43122 0.0
O167 O 0.05892 0.28864 0.43024 0.0
C168 C 0.75836 0.81821 0.54079 0.0
O169 O 0.77398 0.79837 0.54696 0.0
Cd170 Cd 0.77547 0.81628 0.56306 0.0
O171 O 0.74221 0.84818 0.54305 0.0
Cd172 Cd 0.72614 0.88621 0.55679 0.0
C173 C 0.81691 0.90207 0.56101 0.0
O174 O 0.71279 0.833 0.56619 0.0
O175 O 0.71276 0.88439 0.57378 0.0
O176 O 0.66862 0.89258 0.54833 0.0
C177 C 0.70706 0.84982 0.57381 0.0
O178 O 0.8184 0.86852 0.56368 0.0
C179 C 0.66405 0.92663 0.55005 0.0
O180 O 0.78702 0.91554 0.55775 0.0
O181 O 0.68922 0.94266 0.55477 0.0
C182 C 0.17109 0.2748 0.79451 0.0
O183 O 0.19041 0.2898 0.80088 0.0
Cd184 Cd 0.17213 0.2861 0.81699 0.0
O185 O 0.1417 0.25725 0.79656 0.0
Cd186 Cd 0.10468 0.23847 0.81016 0.0
C187 C 0.08661 0.32709 0.81556 0.0
O188 O 0.15718 0.2224 0.81967 0.0
O189 O 0.10554 0.22727 0.82716 0.0
O190 O 0.09956 0.18096 0.80169 0.0
C191 C 0.1392 0.21751 0.82717 0.0
O192 O 0.11938 0.32798 0.81881 0.0
C193 C 0.06525 0.17635 0.80306 0.0
O194 O 0.07452 0.29859 0.81131 0.0
O195 O 0.04848 0.20145 0.80762 0.0
C196 C 0.72704 0.67348 0.03624 0.0
O197 O 0.70739 0.69592 0.04092 0.0
Cd198 Cd 0.69337 0.68446 0.05708 0.0
O199 O 0.74016 0.6446 0.04007 0.0
Cd200 Cd 0.74416 0.61243 0.05515 0.0
C201 C 0.65136 0.59906 0.05566 0.0
O202 O 0.75172 0.66873 0.06399 0.0
O203 O 0.74661 0.61881 0.07221 0.0
O204 O 0.80765 0.60474 0.05053 0.0
C205 C 0.75264 0.65333 0.07195 0.0
O206 O 0.64885 0.63371 0.05708 0.0
C207 C 0.80914 0.57011 0.05175 0.0
O208 O 0.68276 0.58392 0.05438 0.0
O209 O 0.77975 0.5543 0.05457 0.0
C210 C 0.31053 0.22067 0.29072 0.0
O211 O 0.28691 0.20901 0.29659 0.0
Cd212 Cd 0.30518 0.19882 0.31251 0.0
O213 O 0.34287 0.22986 0.29334 0.0
Cd214 Cd 0.38103 0.23805 0.3074 0.0
C215 C 0.38418 0.14576 0.3095 0.0
O216 O 0.33115 0.25633 0.31762 0.0
O217 O 0.38184 0.24057 0.32454 0.0
O218 O 0.39314 0.2973 0.30039 0.0
C219 C 0.34959 0.25408 0.32513 0.0
O220 O 0.35065 0.14824 0.31219 0.0
C221 C 0.42774 0.29744 0.30178 0.0
O222 O 0.4019 0.1743 0.30682 0.0
O223 O 0.44144 0.26915 0.30576 0.0
H224 H 0.20823 0.26072 0.07745 0.0
H225 H 0.1954 0.23626 0.09304 0.0
H226 H 0.19237 0.34706 0.10418 0.0
H227 H 0.20589 0.37184 0.0886 0.0
H228 H 0.23822 0.30157 0.11383 0.0
H229 H 0.10267 0.23326 0.10905 0.0
H230 H 0.13565 0.21925 0.10036 0.0
H231 H 0.1207 0.26665 0.10082 0.0
C232 C 0.20446 0.27993 0.0832 0.0
C233 C 0.20822 0.31817 0.08183 0.0
C234 C 0.19671 0.26592 0.09208 0.0
C235 C 0.19219 0.28992 0.09971 0.0
C236 C 0.19537 0.32817 0.09834 0.0
H237 H 0.19533 0.22941 0.15903 0.0
H238 H 0.18205 0.26412 0.14472 0.0
C239 C 0.20326 0.34222 0.08946 0.0
C240 C 0.18827 0.27472 0.10924 0.0
H241 H 0.139 0.21281 0.12226 0.0
C242 C 0.21613 0.28276 0.11576 0.0
C243 C 0.15941 0.25017 0.11169 0.0
C244 C 0.12771 0.24211 0.10513 0.0
C245 C 0.21709 0.26529 0.12449 0.0
C246 C 0.18909 0.23956 0.12679 0.0
C247 C 0.1604 0.23255 0.12043 0.0
C248 C 0.19109 0.21768 0.13546 0.0
C249 C 0.24908 0.27304 0.131 0.0
C250 C 0.19896 0.17981 0.13495 0.0
C251 C 0.20647 0.15988 0.14309 0.0
C252 C 0.20621 0.17764 0.15184 0.0
C253 C 0.19616 0.21511 0.15236 0.0
C254 C 0.18856 0.23497 0.14422 0.0
H255 H 0.27161 0.28864 0.12748 0.0
H256 H 0.2392 0.28972 0.13703 0.0
H257 H 0.26066 0.24686 0.1338 0.0
H258 H 0.20095 0.16609 0.12821 0.0
H259 H 0.21385 0.13097 0.14248 0.0
H260 H 0.87906 0.72807 0.39232 0.0
H261 H 0.85117 0.72192 0.37673 0.0
H262 H 0.74287 0.71626 0.3893 0.0
H263 H 0.77026 0.72274 0.40484 0.0
H264 H 0.80292 0.66488 0.36942 0.0
H265 H 0.73683 0.80324 0.37053 0.0
H266 H 0.77351 0.78998 0.37841 0.0
H267 H 0.72693 0.77476 0.38052 0.0
C268 C 0.84932 0.72546 0.39175 0.0
C269 C 0.82678 0.72627 0.39977 0.0
C270 C 0.8335 0.72186 0.38287 0.0
C271 C 0.79503 0.7192 0.38192 0.0
C272 C 0.7726 0.71892 0.38992 0.0
H273 H 0.63385 0.70637 0.33817 0.0
H274 H 0.66841 0.70475 0.35287 0.0
C275 C 0.78831 0.72254 0.39878 0.0
C276 C 0.77796 0.71744 0.37256 0.0
H277 H 0.71786 0.763 0.35828 0.0
C278 C 0.78455 0.68639 0.36692 0.0
C279 C 0.75423 0.74574 0.36937 0.0
C280 C 0.74765 0.7805 0.37498 0.0
C281 C 0.76683 0.68231 0.35823 0.0
C282 C 0.74237 0.7102 0.35517 0.0
C283 C 0.73644 0.74156 0.36073 0.0
C284 C 0.72214 0.7075 0.34624 0.0
C285 C 0.77349 0.64785 0.35253 0.0
C286 C 0.7411 0.70934 0.33769 0.0
C287 C 0.72146 0.71035 0.32928 0.0
C288 C 0.68259 0.70973 0.32933 0.0
C289 C 0.66377 0.70697 0.33791 0.0
C290 C 0.68342 0.70601 0.3463 0.0
H291 H 0.78726 0.6259 0.3567 0.0
H292 H 0.74703 0.63685 0.34973 0.0
H293 H 0.79152 0.65469 0.34648 0.0
H294 H 0.77099 0.71111 0.33753 0.0
H295 H 0.73668 0.7125 0.32276 0.0
H296 H 0.28695 0.22443 0.57925 0.0
H297 H 0.30122 0.25258 0.59435 0.0
H298 H 0.28657 0.14724 0.60798 0.0
H299 H 0.27256 0.11855 0.59282 0.0
H300 H 0.24957 0.25175 0.60922 0.0
H301 H 0.38391 0.18869 0.61941 0.0
H302 H 0.36748 0.18912 0.60745 0.0
H303 H 0.34825 0.15717 0.61574 0.0
C304 C 0.28719 0.20709 0.58544 0.0
C305 C 0.27838 0.16934 0.58488 0.0
C306 C 0.29547 0.22321 0.59404 0.0
C307 C 0.29523 0.20189 0.60222 0.0
C308 C 0.28749 0.16396 0.60169 0.0
H309 H 0.29901 0.26316 0.66078 0.0
H310 H 0.30103 0.22935 0.64593 0.0
C311 C 0.27924 0.14771 0.59305 0.0
C312 C 0.29937 0.22034 0.61137 0.0
H313 H 0.35443 0.22672 0.63071 0.0
C314 C 0.27256 0.24642 0.61391 0.0
C315 C 0.32926 0.21294 0.61745 0.0
C316 C 0.35909 0.18566 0.61488 0.0
C317 C 0.27471 0.26535 0.62243 0.0
C318 C 0.30489 0.25845 0.62847 0.0
C319 C 0.33153 0.23203 0.62599 0.0
C320 C 0.30858 0.27827 0.63743 0.0
C321 C 0.24433 0.29214 0.62498 0.0
C322 C 0.31334 0.31672 0.63753 0.0
C323 C 0.31197 0.33609 0.64597 0.0
C324 C 0.30603 0.31722 0.65443 0.0
C325 C 0.30337 0.27844 0.65436 0.0
C326 C 0.30463 0.25912 0.6459 0.0
H327 H 0.21913 0.28777 0.62067 0.0
H328 H 0.23673 0.28951 0.63249 0.0
H329 H 0.25417 0.32079 0.62377 0.0
H330 H 0.31695 0.33181 0.63104 0.0
H331 H 0.31451 0.36595 0.64583 0.0
H332 H 0.75677 0.79828 0.82281 0.0
H333 H 0.71908 0.81398 0.83645 0.0
H334 H 0.81524 0.80542 0.85419 0.0
H335 H 0.85326 0.79026 0.84057 0.0
H336 H 0.71021 0.7658 0.85093 0.0
H337 H 0.76544 0.89838 0.86422 0.0
H338 H 0.77428 0.882 0.85247 0.0
H339 H 0.80119 0.86501 0.86215 0.0
C340 C 0.77002 0.80036 0.8296 0.0
C341 C 0.80789 0.79274 0.83065 0.0
C342 C 0.74848 0.8095 0.83736 0.0
C343 C 0.76449 0.81134 0.84629 0.0
C344 C 0.80254 0.80502 0.84732 0.0
H345 H 0.71737 0.78444 0.90302 0.0
H346 H 0.74108 0.79924 0.88747 0.0
C347 C 0.82415 0.79598 0.83955 0.0
C348 C 0.74081 0.81469 0.85466 0.0
H349 H 0.73226 0.86063 0.87541 0.0
C350 C 0.71435 0.78701 0.8562 0.0
C351 C 0.7464 0.84242 0.86148 0.0
C352 C 0.77313 0.87385 0.85996 0.0
C353 C 0.69508 0.78476 0.86469 0.0
C354 C 0.70206 0.8114 0.87172 0.0
C355 C 0.72707 0.84027 0.86998 0.0
C356 C 0.68708 0.80701 0.88126 0.0
C357 C 0.66928 0.75253 0.86628 0.0
C358 C 0.64887 0.80734 0.88293 0.0
C359 C 0.63517 0.79847 0.8918 0.0
C360 C 0.65958 0.78951 0.89911 0.0
C361 C 0.69787 0.79097 0.8975 0.0
C362 C 0.71148 0.79962 0.88865 0.0
H363 H 0.67201 0.73107 0.86075 0.0
H364 H 0.67468 0.73951 0.87319 0.0
H365 H 0.64029 0.76253 0.86625 0.0
H366 H 0.62969 0.81355 0.87732 0.0
H367 H 0.60556 0.79798 0.89288 0.0
H368 H 0.70721 0.87584 0.59183 0.0
H369 H 0.70298 0.83897 0.60621 0.0
H370 H 0.68587 0.74054 0.58973 0.0
H371 H 0.69042 0.77689 0.57537 0.0
H372 H 0.64692 0.78543 0.61327 0.0
H373 H 0.78385 0.72388 0.60469 0.0
H374 H 0.76696 0.76526 0.59909 0.0
H375 H 0.74931 0.72087 0.59567 0.0
C376 C 0.70203 0.84644 0.59129 0.0
C377 C 0.69976 0.8291 0.5825 0.0
C378 C 0.69951 0.8255 0.59949 0.0
C379 C 0.69465 0.7871 0.59896 0.0
C380 C 0.6901 0.77012 0.59023 0.0
H381 H 0.72949 0.61751 0.64116 0.0
H382 H 0.71157 0.64918 0.6267 0.0
C383 C 0.69275 0.79093 0.58205 0.0
C384 C 0.69766 0.76434 0.60748 0.0
H385 H 0.75414 0.70226 0.61827 0.0
C386 C 0.67023 0.76711 0.61438 0.0
C387 C 0.72813 0.74053 0.60883 0.0
C388 C 0.75895 0.73752 0.60173 0.0
C389 C 0.67252 0.74647 0.62268 0.0
C390 C 0.70337 0.72314 0.6241 0.0
C391 C 0.73043 0.72001 0.61711 0.0
C392 C 0.70973 0.70354 0.63301 0.0
C393 C 0.6419 0.74964 0.62981 0.0
C394 C 0.71459 0.7237 0.64131 0.0
C395 C 0.72484 0.70577 0.64954 0.0
C396 C 0.73077 0.6674 0.64959 0.0
C397 C 0.72521 0.64712 0.64132 0.0
C398 C 0.71487 0.66511 0.63308 0.0
H399 H 0.6157 0.75908 0.62654 0.0
H400 H 0.63688 0.72282 0.63337 0.0
H401 H 0.64988 0.77027 0.6352 0.0
H402 H 0.71169 0.75349 0.64134 0.0
H403 H 0.72896 0.72215 0.65581 0.0
H404 H 0.36662 0.25096 0.89265 0.0
H405 H 0.32909 0.24265 0.87855 0.0
H406 H 0.28094 0.14407 0.89049 0.0
H407 H 0.31629 0.15424 0.9049 0.0
H408 H 0.3206 0.19519 0.86557 0.0
H409 H 0.18941 0.19946 0.88563 0.0
H410 H 0.23351 0.20813 0.89103 0.0
H411 H 0.21809 0.16142 0.889 0.0
C412 C 0.34828 0.22734 0.89219 0.0
C413 C 0.34384 0.20341 0.89981 0.0
C414 C 0.32682 0.22258 0.88415 0.0
C415 C 0.30128 0.19336 0.88358 0.0
C416 C 0.29926 0.16767 0.89093 0.0
H417 H 0.19124 0.16456 0.82928 0.0
H418 H 0.22884 0.15255 0.84321 0.0
C419 C 0.31975 0.17318 0.89909 0.0
C420 C 0.27584 0.19098 0.87546 0.0
H421 H 0.18461 0.18694 0.86945 0.0
C422 C 0.29084 0.19344 0.86641 0.0
C423 C 0.23693 0.18923 0.87658 0.0
C424 C 0.21851 0.18981 0.88608 0.0
C425 C 0.26815 0.19525 0.85847 0.0
C426 C 0.22931 0.19232 0.85958 0.0
C427 C 0.21436 0.18881 0.86861 0.0
C428 C 0.20351 0.1957 0.85156 0.0
C429 C 0.28614 0.20227 0.84909 0.0
C430 C 0.17478 0.22184 0.85187 0.0
C431 C 0.15221 0.22746 0.84408 0.0
C432 C 0.15863 0.20761 0.83581 0.0
C433 C 0.18622 0.18043 0.83559 0.0
C434 C 0.20794 0.1739 0.84349 0.0
H435 H 0.31403 0.21478 0.84988 0.0
H436 H 0.28958 0.17565 0.84533 0.0
H437 H 0.26912 0.221 0.8447 0.0
H438 H 0.17063 0.23885 0.85803 0.0
H439 H 0.13112 0.24868 0.84435 0.0
H440 H 0.76744 0.72691 0.0731 0.0
H441 H 0.781 0.7629 0.08716 0.0
H442 H 0.76963 0.66486 0.10409 0.0
H443 H 0.75646 0.62839 0.09002 0.0
H444 H 0.7341 0.77118 0.10247 0.0
H445 H 0.8682 0.70937 0.11302 0.0
H446 H 0.84884 0.70341 0.10145 0.0
H447 H 0.83177 0.67646 0.11111 0.0
C448 C 0.76803 0.71292 0.07981 0.0
C449 C 0.76088 0.67483 0.08047 0.0
C450 C 0.77586 0.73352 0.08781 0.0
C451 C 0.77686 0.71638 0.09661 0.0
C452 C 0.76976 0.67837 0.09732 0.0
H453 H 0.78414 0.78729 0.15368 0.0
H454 H 0.78596 0.75337 0.13889 0.0
C455 C 0.76194 0.65768 0.0893 0.0
C456 C 0.78294 0.73885 0.10509 0.0
H457 H 0.83924 0.74935 0.12408 0.0
C458 C 0.75727 0.7667 0.10715 0.0
C459 C 0.81319 0.73276 0.11116 0.0
C460 C 0.8423 0.7041 0.10906 0.0
C461 C 0.76041 0.78804 0.1153 0.0
C462 C 0.79043 0.7817 0.12142 0.0
C463 C 0.81639 0.75415 0.11932 0.0
C464 C 0.79389 0.80203 0.13033 0.0
C465 C 0.73089 0.81629 0.11744 0.0
C466 C 0.79893 0.84046 0.13038 0.0
C467 C 0.79772 0.85998 0.13882 0.0
C468 C 0.79162 0.84124 0.1473 0.0
C469 C 0.7886 0.80252 0.14725 0.0
C470 C 0.78975 0.78307 0.13882 0.0
H471 H 0.70585 0.8123 0.11304 0.0
H472 H 0.72264 0.81496 0.12493 0.0
H473 H 0.74192 0.84436 0.11604 0.0
H474 H 0.80276 0.85541 0.12388 0.0
H475 H 0.80048 0.88978 0.13866 0.0
H476 H 0.13921 0.22455 0.3957 0.0
H477 H 0.17396 0.22807 0.38102 0.0
H478 H 0.23504 0.32155 0.39176 0.0
H479 H 0.20225 0.31612 0.4067 0.0
H480 H 0.18158 0.27511 0.36794 0.0
H481 H 0.31891 0.25848 0.38453 0.0
H482 H 0.27655 0.25355 0.39104 0.0
H483 H 0.29546 0.29877 0.38874 0.0
C484 C 0.16005 0.24583 0.39489 0.0
C485 C 0.16856 0.26978 0.4023 0.0
C486 C 0.17987 0.24788 0.38652 0.0
C487 C 0.20788 0.27444 0.38537 0.0
C488 C 0.21466 0.29989 0.3926 0.0
H489 H 0.29941 0.30729 0.32918 0.0
H490 H 0.26645 0.31637 0.34398 0.0
C491 C 0.1957 0.29705 0.40108 0.0
C492 C 0.23016 0.27497 0.37666 0.0
H493 H 0.31864 0.27363 0.36838 0.0
C494 C 0.21157 0.27461 0.36803 0.0
C495 C 0.26931 0.27376 0.37679 0.0
C496 C 0.29119 0.27075 0.38577 0.0
C497 C 0.23089 0.27248 0.35954 0.0
C498 C 0.27005 0.27282 0.35966 0.0
C499 C 0.28865 0.27378 0.36829 0.0
C500 C 0.29234 0.26999 0.35098 0.0
C501 C 0.20894 0.2682 0.3506 0.0
C502 C 0.31971 0.2426 0.3502 0.0
C503 C 0.33964 0.23846 0.3419 0.0
C504 C 0.3319 0.26113 0.33419 0.0
C505 C 0.3054 0.28921 0.33503 0.0
C506 C 0.28631 0.29412 0.34343 0.0
H507 H 0.1809 0.25687 0.35199 0.0
H508 H 0.20541 0.29568 0.34728 0.0
H509 H 0.22314 0.24962 0.34557 0.0
H510 H 0.32502 0.22377 0.35595 0.0
H511 H 0.35992 0.21655 0.34138 0.0
H512 H 0.27998 0.14637 0.20751 0.0
H513 H 0.2773 0.16139 0.22413 0.0
H514 H 0.26108 0.27651 0.21739 0.0
H515 H 0.2656 0.26175 0.20066 0.0
H516 H 0.30723 0.27111 0.23107 0.0
H517 H 0.18909 0.18181 0.23978 0.0
H518 H 0.22397 0.15428 0.23427 0.0
H519 H 0.20219 0.19122 0.22781 0.0
C520 C 0.27582 0.17489 0.20957 0.0
C521 C 0.27281 0.2029 0.20282 0.0
C522 C 0.27383 0.18339 0.21907 0.0
C523 C 0.26765 0.21988 0.222 0.0
C524 C 0.26534 0.24809 0.21527 0.0
H525 H 0.24183 0.23077 0.28314 0.0
H526 H 0.22663 0.239 0.26653 0.0
C527 C 0.2681 0.23968 0.20574 0.0
C528 C 0.26582 0.2284 0.23213 0.0
H529 H 0.2317 0.19468 0.25267 0.0
C530 C 0.29011 0.25497 0.23578 0.0
C531 C 0.24254 0.20842 0.23828 0.0
C532 C 0.21269 0.18271 0.23479 0.0
C533 C 0.294 0.25979 0.24547 0.0
C534 C 0.27424 0.23629 0.25162 0.0
C535 C 0.24763 0.21204 0.24796 0.0
C536 C 0.28322 0.23383 0.26172 0.0
C537 C 0.31973 0.28959 0.24897 0.0
C538 C 0.31988 0.22758 0.2645 0.0
C539 C 0.32862 0.22352 0.27394 0.0
C540 C 0.3007 0.22448 0.28077 0.0
C541 C 0.26384 0.22981 0.27799 0.0
C542 C 0.25518 0.23467 0.26853 0.0
H543 H 0.32004 0.3135 0.24409 0.0
H544 H 0.31167 0.29956 0.25604 0.0
H545 H 0.34831 0.27854 0.24929 0.0
H546 H 0.34179 0.2252 0.25937 0.0
H547 H 0.35721 0.21894 0.27588 0.0
H548 H 0.82426 0.71657 0.45612 0.0
H549 H 0.80918 0.71519 0.47277 0.0
H550 H 0.7379 0.80966 0.46921 0.0
H551 H 0.75221 0.81077 0.45246 0.0
H552 H 0.82705 0.7719 0.48422 0.0
H553 H 0.67658 0.74448 0.48642 0.0
H554 H 0.70317 0.73566 0.47594 0.0
H555 H 0.68782 0.78174 0.47863 0.0
C556 C 0.80486 0.73669 0.45884 0.0
C557 C 0.78966 0.76404 0.45301 0.0
C558 C 0.79618 0.73573 0.46834 0.0
C559 C 0.77222 0.76209 0.47219 0.0
C560 C 0.75582 0.78854 0.46633 0.0
H561 H 0.72826 0.85438 0.52586 0.0
H562 H 0.73034 0.83616 0.50941 0.0
C563 C 0.76425 0.78933 0.45678 0.0
C564 C 0.76831 0.76486 0.48246 0.0
H565 H 0.70526 0.76961 0.5002 0.0
C566 C 0.80049 0.7708 0.48774 0.0
C567 C 0.73359 0.76358 0.48699 0.0
C568 C 0.69836 0.75566 0.48171 0.0
C569 C 0.7988 0.77692 0.49741 0.0
C570 C 0.76402 0.77655 0.50191 0.0
C571 C 0.73186 0.7698 0.49668 0.0
C572 C 0.76048 0.78556 0.51193 0.0
C573 C 0.83407 0.78525 0.50266 0.0
C574 C 0.77633 0.76273 0.51877 0.0
C575 C 0.77546 0.77315 0.52818 0.0
C576 C 0.75853 0.80647 0.53089 0.0
C577 C 0.74174 0.82867 0.52401 0.0
C578 C 0.7427 0.81824 0.51462 0.0
H579 H 0.85741 0.79154 0.49786 0.0
H580 H 0.83015 0.80906 0.50747 0.0
H581 H 0.84184 0.76089 0.50695 0.0
H582 H 0.78979 0.73716 0.5168 0.0
H583 H 0.78832 0.75528 0.53332 0.0
H584 H 0.19717 0.26885 0.70548 0.0
H585 H 0.18944 0.25974 0.72238 0.0
H586 H 0.27636 0.33858 0.72773 0.0
H587 H 0.28391 0.34839 0.71094 0.0
H588 H 0.24026 0.2376 0.73634 0.0
H589 H 0.18829 0.38013 0.74237 0.0
H590 H 0.19179 0.36009 0.73083 0.0
H591 H 0.23229 0.37784 0.73658 0.0
C592 C 0.21473 0.28413 0.71026 0.0
C593 C 0.24081 0.30969 0.70689 0.0
C594 C 0.2103 0.27886 0.71989 0.0
C595 C 0.23188 0.29903 0.72626 0.0
C596 C 0.25891 0.32341 0.72291 0.0
H597 H 0.22858 0.31463 0.78711 0.0
H598 H 0.24665 0.31883 0.7706 0.0
C599 C 0.26322 0.32887 0.71331 0.0
C600 C 0.22559 0.29526 0.73642 0.0
H601 H 0.19878 0.34342 0.75581 0.0
C602 C 0.23117 0.26067 0.74061 0.0
C603 C 0.21379 0.32553 0.74193 0.0
C604 C 0.20585 0.36293 0.73771 0.0
C605 C 0.22541 0.25559 0.75024 0.0
C606 C 0.2134 0.2858 0.75572 0.0
C607 C 0.20824 0.32045 0.75155 0.0
C608 C 0.20397 0.28166 0.7657 0.0
C609 C 0.23238 0.21807 0.75448 0.0
C610 C 0.17383 0.25966 0.76833 0.0
C611 C 0.16332 0.25736 0.7777 0.0
C612 C 0.18275 0.27713 0.78461 0.0
C613 C 0.21311 0.29904 0.78196 0.0
C614 C 0.2235 0.30144 0.77255 0.0
H615 H 0.25025 0.20074 0.74992 0.0
H616 H 0.2456 0.22069 0.76147 0.0
H617 H 0.2056 0.20352 0.7554 0.0
H618 H 0.15802 0.24479 0.76309 0.0
H619 H 0.13981 0.24022 0.7795 0.0
H620 H 0.77437 0.63555 0.02486 0.0
H621 H 0.78576 0.64553 0.0082 0.0
H622 H 0.70913 0.7368 0.00834 0.0
H623 H 0.69805 0.72753 0.02505 0.0
H624 H 0.73394 0.63945 -0.00526 0.0
H625 H 0.79486 0.77943 -0.00643 0.0
H626 H 0.79212 0.75278 0.00425 0.0
H627 H 0.75274 0.77867 0.0002 0.0
C628 C 0.76022 0.65804 0.02138 0.0
C629 C 0.73514 0.68069 0.02627 0.0
C630 C 0.76693 0.66377 0.01187 0.0
C631 C 0.74879 0.69227 0.00708 0.0
C632 C 0.72419 0.71528 0.01196 0.0
H633 H 0.67012 0.75436 0.95515 0.0
H634 H 0.6925 0.74706 0.97111 0.0
C635 C 0.71758 0.70971 0.02149 0.0
C636 C 0.75231 0.69549 -0.00319 0.0
H637 H 0.76536 0.75816 0.97929 0.0
C638 C 0.7417 0.6651 0.99133 0.0
C639 C 0.76269 0.72891 -0.00758 0.0
C640 C 0.77663 0.76166 -0.00208 0.0
C641 C 0.73841 0.66811 0.98158 0.0
C642 C 0.74638 0.70231 0.97726 0.0
C643 C 0.75921 0.73202 0.98267 0.0
C644 C 0.73636 0.70917 0.96741 0.0
C645 C 0.724 0.63554 0.97607 0.0
C646 C 0.7542 0.69075 0.96004 0.0
C647 C 0.74135 0.69471 0.95086 0.0
C648 C 0.71048 0.71714 0.94897 0.0
C649 C 0.69371 0.73659 0.95636 0.0
C650 C 0.70659 0.73266 0.96549 0.0
H651 H 0.71496 0.61248 0.98067 0.0
H652 H 0.7003 0.64405 0.97162 0.0
H653 H 0.7461 0.62511 0.97137 0.0
H654 H 0.77747 0.67274 0.96142 0.0
H655 H 0.75499 0.67958 0.9453 0.0
H656 H 0.20182 0.31035 0.02582 0.0
H657 H 0.20033 0.29606 0.00912 0.0
H658 H 0.29655 0.22681 0.01232 0.0
H659 H 0.29763 0.24019 0.02911 0.0
H660 H 0.25549 0.31647 -0.00219 0.0
H661 H 0.23439 0.1655 -0.00538 0.0
H662 H 0.22494 0.19048 0.00532 0.0
H663 H 0.27146 0.17692 0.00245 0.0
C664 C 0.22225 0.29148 0.023 0.0
C665 C 0.2501 0.27664 0.02874 0.0
C666 C 0.22123 0.28324 0.01347 0.0
C667 C 0.24811 0.26017 0.0095 0.0
C668 C 0.27501 0.244 0.01528 0.0
H669 H 0.34933 0.22769 0.95673 0.0
H670 H 0.32773 0.22675 0.97292 0.0
C671 C 0.27579 0.2519 0.02486 0.0
C672 C 0.25113 0.25734 -0.00079 0.0
H673 H 0.2603 0.19627 0.98114 0.0
C674 C 0.25582 0.29023 -0.00587 0.0
C675 C 0.25169 0.22305 -0.00553 0.0
C676 C 0.24498 0.18702 -0.00051 0.0
C677 C 0.26274 0.28971 0.98449 0.0
C678 C 0.26457 0.25539 0.97981 0.0
C679 C 0.25881 0.22251 0.9848 0.0
C680 C 0.27551 0.2532 0.96989 0.0
C681 C 0.26978 0.32576 0.97947 0.0
C682 C 0.25292 0.26796 0.96285 0.0
C683 C 0.26524 0.26878 0.95357 0.0
C684 C 0.3003 0.25475 0.95123 0.0
C685 C 0.32231 0.239 0.9583 0.0
C686 C 0.30996 0.23819 0.96754 0.0
H687 H 0.27351 0.34918 0.98442 0.0
H688 H 0.29478 0.32367 0.97499 0.0
H689 H 0.24591 0.33216 0.97487 0.0
H690 H 0.22607 0.27937 0.96455 0.0
H691 H 0.24752 0.28082 0.94828 0.0
H692 H 0.64337 0.72516 0.27194 0.0
H693 H 0.65257 0.73192 0.25507 0.0
H694 H 0.73724 0.81355 0.26007 0.0
H695 H 0.72873 0.80662 0.27696 0.0
H696 H 0.64264 0.79599 0.24497 0.0
H697 H 0.78631 0.7448 0.24114 0.0
H698 H 0.75887 0.73633 0.25149 0.0
H699 H 0.7815 0.78014 0.24988 0.0
C700 C 0.66425 0.74429 0.26946 0.0
C701 C 0.68534 0.76537 0.27579 0.0
C702 C 0.66945 0.74806 0.25983 0.0
C703 C 0.69589 0.77284 0.25635 0.0
C704 C 0.71726 0.79367 0.26263 0.0
H705 H 0.75473 0.86802 0.20363 0.0
H706 H 0.74717 0.84998 0.21999 0.0
C707 C 0.71218 0.78984 0.27228 0.0
C708 C 0.69942 0.77874 0.24616 0.0
H709 H 0.76127 0.77788 0.22812 0.0
C710 C 0.66843 0.79163 0.24124 0.0
C711 C 0.73313 0.77297 0.24137 0.0
C712 C 0.76676 0.75746 0.24622 0.0
C713 C 0.6706 0.80017 0.23169 0.0
C714 C 0.70453 0.79523 0.22695 0.0
C715 C 0.73534 0.78167 0.23182 0.0
C716 C 0.70902 0.80545 0.21703 0.0
C717 C 0.637 0.81558 0.22679 0.0
C718 C 0.6902 0.78609 0.20998 0.0
C719 C 0.6944 0.79631 0.20061 0.0
C720 C 0.71756 0.82601 0.19816 0.0
C721 C 0.73656 0.84511 0.20527 0.0
C722 C 0.7324 0.83481 0.21462 0.0
H723 H 0.6152 0.82416 0.23183 0.0
H724 H 0.64466 0.83973 0.2224 0.0
H725 H 0.6252 0.79412 0.22211 0.0
H726 H 0.67239 0.76303 0.21174 0.0
H727 H 0.6795 0.78095 0.1953 0.0
H728 H 0.23911 0.20521 0.45712 0.0
H729 H 0.24906 0.21227 0.474 0.0
H730 H 0.17024 0.30161 0.47468 0.0
H731 H 0.15932 0.29408 0.45791 0.0
H732 H 0.26985 0.27075 0.4859 0.0
H733 H 0.12491 0.22526 0.49224 0.0
H734 H 0.1467 0.22158 0.48092 0.0
H735 H 0.12978 0.26545 0.48498 0.0
C736 C 0.22424 0.22662 0.46085 0.0
C737 C 0.19791 0.24858 0.45626 0.0
C738 C 0.23002 0.2307 0.47047 0.0
C739 C 0.20978 0.25695 0.47558 0.0
C740 C 0.18545 0.28064 0.47088 0.0
H741 H 0.18384 0.26114 0.53654 0.0
H742 H 0.18446 0.28319 0.52031 0.0
C743 C 0.17929 0.27628 0.46131 0.0
C744 C 0.21184 0.25728 0.4859 0.0
H745 H 0.16115 0.23806 0.50545 0.0
C746 C 0.24605 0.26398 0.4902 0.0
C747 C 0.18063 0.24846 0.49145 0.0
C748 C 0.14348 0.23946 0.48719 0.0
C749 C 0.25008 0.26121 0.49994 0.0
C750 C 0.21918 0.25116 0.50544 0.0
C751 C 0.18468 0.24601 0.50118 0.0
C752 C 0.22263 0.24141 0.51542 0.0
C753 C 0.28744 0.2684 0.50427 0.0
C754 C 0.24382 0.21066 0.51798 0.0
C755 C 0.24327 0.19781 0.52717 0.0
C756 C 0.22139 0.21546 0.53398 0.0
C757 C 0.20093 0.24694 0.53146 0.0
C758 C 0.20136 0.25967 0.52222 0.0
H759 H 0.30465 0.28651 0.49973 0.0
H760 H 0.28468 0.28143 0.51128 0.0
H761 H 0.30223 0.24176 0.50512 0.0
H762 H 0.2597 0.19569 0.51278 0.0
H763 H 0.25947 0.17359 0.52889 0.0
H764 H 0.80076 0.63732 0.70598 0.0
H765 H 0.79448 0.65257 0.72253 0.0
H766 H 0.77909 0.7675 0.71544 0.0
H767 H 0.78737 0.75246 0.69879 0.0
H768 H 0.82105 0.76272 0.72994 0.0
H769 H 0.70195 0.67196 0.73653 0.0
H770 H 0.73854 0.64478 0.73166 0.0
H771 H 0.71826 0.6815 0.72483 0.0
C772 C 0.79617 0.66586 0.70796 0.0
C773 C 0.79433 0.69372 0.70115 0.0
C774 C 0.79208 0.67449 0.7174 0.0
C775 C 0.78486 0.71095 0.7202 0.0
C776 C 0.78407 0.73908 0.71342 0.0
H777 H 0.7415 0.72567 0.78074 0.0
H778 H 0.73091 0.73 0.76379 0.0
C779 C 0.789 0.73054 0.70394 0.0
C780 C 0.78008 0.71943 0.73026 0.0
H781 H 0.74077 0.68517 0.75015 0.0
C782 C 0.80291 0.74632 0.73434 0.0
C783 C 0.75541 0.6991 0.73599 0.0
C784 C 0.72687 0.6731 0.73198 0.0
C785 C 0.80399 0.75117 0.74407 0.0
C786 C 0.78293 0.72733 0.74986 0.0
C787 C 0.75776 0.70272 0.74574 0.0
C788 C 0.78884 0.72535 0.7601 0.0
C789 C 0.82811 0.78145 0.74802 0.0
C790 C 0.82468 0.72016 0.76362 0.0
C791 C 0.83078 0.71835 0.77323 0.0
C792 C 0.80099 0.72043 0.77951 0.0
C793 C 0.76488 0.72386 0.77601 0.0
C794 C 0.75886 0.72654 0.76636 0.0
H795 H 0.82966 0.80523 0.74311 0.0
H796 H 0.81769 0.7915 0.75488 0.0
H797 H 0.85664 0.77082 0.74895 0.0
H798 H 0.84806 0.71748 0.75893 0.0
H799 H 0.85884 0.71521 0.77576 0.0
H800 H 0.16104 0.01812 0.17396 0.0
H801 H 0.09995 0.99142 0.17669 0.0
H802 H 0.09186 0.05091 0.20283 0.0
H803 H 0.15219 0.07929 0.19986 0.0
H804 H 0.06513 0.95101 0.1893 0.0
H805 H 0.00481 0.09216 0.18925 0.0
H806 H 0.05259 0.08367 0.18645 0.0
H807 H 0.03749 0.08434 0.19847 0.0
C808 C 0.14655 0.02494 0.18037 0.0
C809 C 0.16098 0.05119 0.18662 0.0
C810 C 0.1116 0.00972 0.18193 0.0
C811 C 0.09081 0.02011 0.18982 0.0
C812 C 0.10682 0.04355 0.19653 0.0
H813 H 0.8728 0.91333 0.19535 0.0
H814 H 0.93499 0.93494 0.19934 0.0
C815 C 0.14141 0.05945 0.19487 0.0
C816 C 0.05153 0.00867 0.19055 0.0
H817 H 0.96352 0.04269 0.19108 0.0
C818 C 0.04287 0.97099 0.18976 0.0
C819 C 0.02251 0.03491 0.19102 0.0
C820 C 0.02969 0.07603 0.19126 0.0
C821 C 0.0061 0.95887 0.1891 0.0
C822 C 0.97711 0.98511 0.18961 0.0
C823 C 0.98576 0.02263 0.19075 0.0
C824 C 0.9379 0.9748 0.18805 0.0
C825 C -0.0011 0.91835 0.18734 0.0
C826 C 0.91795 0.99171 0.18078 0.0
C827 C 0.88209 0.98017 0.17867 0.0
C828 C 0.86572 0.95119 0.18371 0.0
C829 C 0.88499 0.93545 0.19127 0.0
C830 C 0.92062 0.94752 0.1935 0.0
H831 H 0.02404 0.90384 0.1848 0.0
H832 H 0.99021 0.90499 0.19398 0.0
H833 H 0.97657 0.91447 0.1821 0.0
H834 H 0.93062 0.01298 0.17651 0.0
H835 H 0.86791 0.99277 0.1728 0.0
H836 H 0.00212 0.33313 0.42862 0.0
H837 H 0.97013 0.39259 0.43026 0.0
H838 H 0.06445 0.43738 0.44484 0.0
H839 H 0.09644 0.37837 0.44329 0.0
H840 H 0.99269 0.4577 0.45251 0.0
H841 H 0.00719 0.48192 0.41415 0.0
H842 H 0.98523 0.43942 0.41758 0.0
H843 H 0.03315 0.4468 0.42025 0.0
C844 C 0.01577 0.3555 0.43229 0.0
C845 C 0.05193 0.35128 0.43572 0.0
C846 C 0.99754 0.38939 0.4332 0.0
C847 C 0.01522 0.41934 0.43756 0.0
C848 C 0.05045 0.41456 0.44143 0.0
H849 H 0.98063 0.6531 0.43003 0.0
H850 H 0.00693 0.59133 0.43215 0.0
C851 C 0.06871 0.38087 0.4405 0.0
C852 C -0.00148 0.45653 0.4375 0.0
H853 H 0.97746 0.52819 0.42295 0.0
C854 C 0.9891 0.47313 0.44606 0.0
C855 C 0.99461 0.47662 0.42907 0.0
C856 C 0.00579 0.46054 0.41973 0.0
C857 C 0.97558 0.50946 0.4464 0.0
C858 C 0.97132 0.52936 0.43795 0.0
C859 C 0.98082 0.51274 0.42941 0.0
C860 C 0.9567 0.56743 0.43773 0.0
C861 C 0.96668 0.52655 0.45577 0.0
C862 C 0.91994 0.57436 0.44028 0.0
C863 C 0.90486 0.6095 0.43906 0.0
C864 C 0.92628 0.63825 0.43524 0.0
C865 C 0.96349 0.63153 0.43299 0.0
C866 C 0.97852 0.5963 0.43419 0.0
H867 H 0.97935 0.51091 0.46165 0.0
H868 H 0.97645 0.55563 0.45607 0.0
H869 H 0.93627 0.52659 0.4568 0.0
H870 H 0.90252 0.55227 0.44288 0.0
H871 H 0.87609 0.61383 0.44086 0.0
H872 H 0.40643 0.38689 0.69508 0.0
H873 H 0.46768 0.41435 0.6968 0.0
H874 H 0.42846 0.515 0.68407 0.0
H875 H 0.36707 0.48751 0.68218 0.0
H876 H 0.4899 0.48558 0.67539 0.0
H877 H 0.51195 0.49389 0.7138 0.0
H878 H 0.49704 0.44927 0.70978 0.0
H879 H 0.46669 0.48831 0.70864 0.0
C880 C 0.4106 0.41514 0.69281 0.0
C881 C 0.38199 0.43499 0.68844 0.0
C882 C 0.44559 0.43087 0.69386 0.0
C883 C 0.45249 0.46679 0.69064 0.0
C884 C 0.42357 0.48726 0.68664 0.0
H885 H 0.64993 0.59918 0.6933 0.0
H886 H 0.58968 0.57075 0.69606 0.0
C887 C 0.38854 0.47154 0.68557 0.0
C888 C 0.49069 0.48132 0.69044 0.0
H889 H 0.56521 0.50221 0.70413 0.0
C890 C 0.50631 0.4894 0.68168 0.0
C891 C 0.51193 0.48626 0.69866 0.0
C892 C 0.496 0.47931 0.70827 0.0
C893 C 0.54276 0.50205 0.68089 0.0
C894 C 0.56436 0.50606 0.68908 0.0
C895 C 0.54867 0.49846 0.69787 0.0
C896 C 0.60258 0.52034 0.68861 0.0
C897 C 0.55762 0.5117 0.67131 0.0
C898 C 0.63019 0.50071 0.68382 0.0
C899 C 0.6647 0.5169 0.6822 0.0
C900 C 0.672 0.55294 0.68537 0.0
C901 C 0.64504 0.57149 0.6907 0.0
C902 C 0.61063 0.55528 0.69231 0.0
H903 H 0.53519 0.51455 0.66604 0.0
H904 H 0.57355 0.53793 0.67154 0.0
H905 H 0.57651 0.48946 0.66892 0.0
H906 H 0.62454 0.47344 0.68103 0.0
H907 H 0.685 0.50187 0.67812 0.0
H908 H 0.40903 0.11787 0.94441 0.0
H909 H 0.44051 0.05963 0.94746 0.0
H910 H 0.53791 0.10041 0.9334 0.0
H911 H 0.5063 0.15893 0.9302 0.0
H912 H 0.51164 0.0353 0.92613 0.0
H913 H 0.52284 0.02398 0.96472 0.0
H914 H 0.47712 0.03583 0.96089 0.0
H915 H 0.51469 0.06742 0.95884 0.0
C916 C 0.43744 0.11481 0.94214 0.0
C917 C 0.45511 0.14286 0.93699 0.0
C918 C 0.45551 0.08158 0.94397 0.0
C919 C 0.49166 0.07585 0.94075 0.0
C920 C 0.51006 0.10446 0.936 0.0
H921 H 0.61941 0.87317 0.94444 0.0
H922 H 0.59635 0.93589 0.94696 0.0
C923 C 0.49199 0.13783 0.93418 0.0
C924 C 0.50796 0.03843 0.94118 0.0
H925 H 0.52831 0.96726 0.95601 0.0
C926 C 0.51574 0.02061 0.93267 0.0
C927 C 0.51327 0.01936 0.94972 0.0
C928 C 0.50689 0.03775 0.95907 0.0
C929 C 0.52758 0.98382 0.93246 0.0
C930 C 0.53123 0.96422 0.94097 0.0
C931 C 0.52477 0.9823 0.9495 0.0
C932 C 0.54251 0.92505 0.941 0.0
C933 C 0.53598 0.96609 0.92312 0.0
C934 C 0.51919 0.89798 0.93717 0.0
C935 C 0.53221 0.86211 0.93572 0.0
C936 C 0.5688 0.85292 0.93806 0.0
C937 C 0.59116 0.87949 0.9425 0.0
C938 C 0.57806 0.9153 0.94397 0.0
H939 H 0.53912 0.98693 0.91746 0.0
H940 H 0.5617 0.94943 0.92351 0.0
H941 H 0.51297 0.94729 0.92118 0.0
H942 H 0.4915 0.90508 0.93492 0.0
H943 H 0.5143 0.84222 0.93232 0.0
H944 H 0.09858 0.3632 0.04406 0.0
H945 H 0.03725 0.3908 0.0427 0.0
H946 H 0.08393 0.49885 0.04739 0.0
H947 H 0.14569 0.47146 0.04885 0.0
H948 H 0.0079 0.43786 0.05868 0.0
H949 H 0.01056 0.50621 0.02374 0.0
H950 H 0.0394 0.46691 0.02651 0.0
H951 H 0.05052 0.51159 0.03115 0.0
C952 C 0.09599 0.39292 0.04466 0.0
C953 C 0.12695 0.41518 0.04661 0.0
C954 C 0.06092 0.40857 0.04388 0.0
C955 C 0.05628 0.44674 0.04491 0.0
C956 C 0.08721 0.46931 0.04648 0.0
H957 H 0.87687 0.5995 0.04828 0.0
H958 H 0.93525 0.56697 0.04626 0.0
C959 C 0.12237 0.45364 0.04734 0.0
C960 C 0.01871 0.46244 0.04523 0.0
H961 H 0.95858 0.51768 0.03336 0.0
C962 C 0.99687 0.45512 0.05313 0.0
C963 C 0.00481 0.48493 0.03798 0.0
C964 C 0.02731 0.49286 0.02931 0.0
C965 C 0.96164 0.47074 0.05412 0.0
C966 C 0.94759 0.4934 0.04687 0.0
C967 C 0.96933 0.50015 0.03889 0.0
C968 C 0.91151 0.51238 0.04772 0.0
C969 C 0.94053 0.46406 0.0631 0.0
C970 C 0.8786 0.49243 0.04909 0.0
C971 C 0.84508 0.51103 0.05038 0.0
C972 C 0.84396 0.54982 0.05016 0.0
C973 C 0.8768 0.56958 0.0485 0.0
C974 C 0.91022 0.55104 0.04732 0.0
H975 H 0.95886 0.45405 0.0688 0.0
H976 H 0.92654 0.48965 0.06551 0.0
H977 H 0.91911 0.44266 0.06186 0.0
H978 H 0.87887 0.46251 0.04921 0.0
H979 H 0.82015 0.4951 0.05155 0.0
H980 H 0.51921 0.63005 0.30379 0.0
H981 H 0.49648 0.56645 0.30269 0.0
H982 H 0.59748 0.53372 0.28895 0.0
H983 H 0.62037 0.59719 0.28995 0.0
H984 H 0.53119 0.50279 0.28102 0.0
H985 H 0.54096 0.48403 0.31956 0.0
H986 H 0.5145 0.52356 0.31597 0.0
H987 H 0.56318 0.52177 0.31349 0.0
C988 C 0.53638 0.60943 0.30042 0.0
C989 C 0.5717 0.61854 0.29703 0.0
C990 C 0.52345 0.57312 0.29985 0.0
C991 C 0.54564 0.54541 0.29589 0.0
C992 C 0.58011 0.55474 0.29208 0.0
H993 H 0.49996 0.31178 0.30637 0.0
H994 H 0.53377 0.36974 0.30385 0.0
C995 C 0.5931 0.591 0.29267 0.0
C996 C 0.53352 0.50643 0.29607 0.0
H997 H 0.51039 0.43668 0.31102 0.0
C998 C 0.52685 0.48817 0.28757 0.0
C999 C 0.52875 0.48729 0.30462 0.0
C1000 C 0.53753 0.50497 0.31394 0.0
C1001 C 0.51394 0.45158 0.28741 0.0
C1002 C 0.50727 0.43313 0.29598 0.0
C1003 C 0.51541 0.45095 0.30446 0.0
C1004 C 0.48915 0.39653 0.29639 0.0
C1005 C 0.50742 0.43308 0.27808 0.0
C1006 C 0.4531 0.39239 0.29295 0.0
C1007 C 0.4338 0.35953 0.29439 0.0
C1008 C 0.45011 0.33021 0.29935 0.0
C1009 C 0.48673 0.33386 0.30251 0.0
C1010 C 0.50603 0.36691 0.30108 0.0
H1011 H 0.52441 0.44589 0.27246 0.0
H1012 H 0.51386 0.40311 0.27841 0.0
H1013 H 0.47792 0.43622 0.27612 0.0
H1014 H 0.43926 0.41514 0.2895 0.0
H1015 H 0.40563 0.35759 0.29187 0.0
H1016 H 0.64168 0.99641 0.5548 0.0
H1017 H 0.58024 0.02326 0.55241 0.0
H1018 H 0.54659 0.92608 0.53714 0.0
H1019 H 0.60784 0.89914 0.53942 0.0
H1020 H 0.5201 0.99617 0.52956 0.0
H1021 H 0.49291 0.97699 0.56761 0.0
H1022 H 0.53384 0.00292 0.56481 0.0
H1023 H 0.53103 0.95493 0.56167 0.0
C1024 C 0.62143 0.98106 0.55079 0.0
C1025 C 0.6294 0.94547 0.54741 0.0
C1026 C 0.58637 0.99637 0.54945 0.0
C1027 C 0.55887 0.97632 0.54473 0.0
C1028 C 0.56747 0.94186 0.54083 0.0
H1029 H 0.3239 0.01115 0.55311 0.0
H1030 H 0.38383 0.98175 0.55027 0.0
C1031 C 0.60244 0.92651 0.54217 0.0
C1032 C 0.52032 0.98969 0.54456 0.0
H1033 H 0.44691 0.00761 0.55884 0.0
C1034 C 0.50398 -0.00132 0.53594 0.0
C1035 C 0.49927 0.99207 0.55289 0.0
C1036 C 0.51492 0.98094 0.56227 0.0
C1037 C 0.46722 0.01104 0.53548 0.0
C1038 C 0.44662 0.01464 0.54386 0.0
C1039 C 0.46279 0.00481 0.55243 0.0
C1040 C 0.40885 0.03024 0.54406 0.0
C1041 C 0.45067 0.01984 0.52604 0.0
C1042 C 0.40292 0.06695 0.54132 0.0
C1043 C 0.3688 0.08376 0.54293 0.0
C1044 C 0.34009 0.06423 0.54737 0.0
C1045 C 0.34549 0.02689 0.54968 0.0
C1046 C 0.37968 0.01009 0.54807 0.0
H1047 H 0.46575 0.00569 0.52029 0.0
H1048 H 0.42109 0.01168 0.52575 0.0
H1049 H 0.45247 0.05005 0.5248 0.0
H1050 H 0.42524 0.08321 0.53838 0.0
H1051 H 0.36551 0.11258 0.54106 0.0
H1052 H 0.09573 0.11874 0.79353 0.0
H1053 H 0.06831 0.05831 0.7906 0.0
H1054 H 0.9658 0.09513 0.80291 0.0
H1055 H 0.99336 0.15572 0.80605 0.0
H1056 H 0.99196 0.03199 0.81081 0.0
H1057 H 0.99296 0.01803 0.77216 0.0
H1058 H 0.03708 0.03114 0.77686 0.0
H1059 H -0.00163 0.062 0.77799 0.0
C1060 C 0.06711 0.11427 0.79546 0.0
C1061 C 0.04675 0.14192 0.80008 0.0
C1062 C 0.05139 0.07976 0.7937 0.0
C1063 C 0.01492 0.07237 0.79644 0.0
C1064 C 0.99397 0.10041 0.8007 0.0
H1065 H 0.88898 0.87177 0.78895 0.0
H1066 H 0.91593 0.93328 0.78728 0.0
C1067 C 0.00972 0.13498 0.80248 0.0
C1068 C 0.00029 0.03426 0.79588 0.0
H1069 H 0.98481 0.96215 0.78094 0.0
C1070 C 0.99011 0.01683 0.80427 0.0
C1071 C 0.99785 0.01461 0.78733 0.0
C1072 C 0.0068 0.03251 0.77806 0.0
C1073 C 0.9781 0.98006 0.80438 0.0
C1074 C 0.97701 0.95994 0.79589 0.0
C1075 C 0.98641 0.97752 0.78746 0.0
C1076 C 0.96421 0.92119 0.79566 0.0
C1077 C 0.96616 0.96322 0.81358 0.0
C1078 C 0.98334 0.89363 0.80059 0.0
C1079 C 0.96796 0.85842 0.80159 0.0
C1080 C 0.9333 0.85033 0.79765 0.0
C1081 C 0.91559 0.87725 0.79214 0.0
C1082 C 0.93096 0.91239 0.79115 0.0
H1083 H 0.96063 0.98464 0.81898 0.0
H1084 H 0.94084 0.94623 0.81267 0.0
H1085 H 0.98847 0.94499 0.81623 0.0
H1086 H 0.0094 0.89983 0.80397 0.0
H1087 H 0.98236 0.83818 0.80582 0.0
H1088 H 0.61408 0.91214 0.15789 0.0
H1089 H 0.55978 0.95191 0.15763 0.0
H1090 H 0.61873 0.03475 0.1734 0.0
H1091 H 0.67339 0.99486 0.1738 0.0
H1092 H 0.55051 0.01622 0.18103 0.0
H1093 H 0.53682 0.04658 0.14315 0.0
H1094 H 0.54145 -0.00184 0.14559 0.0
H1095 H 0.57901 0.02904 0.14824 0.0
C1096 C 0.61579 0.939 0.16121 0.0
C1097 C 0.64811 0.95025 0.1659 0.0
C1098 C 0.58474 0.96183 0.16098 0.0
C1099 C 0.58539 0.99644 0.16539 0.0
C1100 C 0.61781 0.00819 0.1699 0.0
H1101 H 0.40066 0.15167 0.16348 0.0
H1102 H 0.46171 0.12321 0.16214 0.0
C1103 C 0.649 0.98538 0.17012 0.0
C1104 C 0.55118 0.01875 0.16596 0.0
H1105 H 0.48319 0.05764 0.15264 0.0
C1106 C 0.536 0.02568 0.17483 0.0
C1107 C 0.53249 0.03129 0.15786 0.0
C1108 C 0.54844 0.02623 0.14817 0.0
C1109 C 0.50189 0.04364 0.17582 0.0
C1110 C 0.48228 0.05444 0.16771 0.0
C1111 C 0.4981 0.04883 0.15884 0.0
C1112 C 0.44507 0.07121 0.1683 0.0
C1113 C 0.48706 0.05082 0.18554 0.0
C1114 C 0.41538 0.05108 0.17205 0.0
C1115 C 0.38043 0.06719 0.17282 0.0
C1116 C 0.37452 0.10374 0.16983 0.0
C1117 C 0.40424 0.12353 0.16589 0.0
C1118 C 0.43915 0.10734 0.16511 0.0
H1119 H 0.50928 0.04967 0.1909 0.0
H1120 H 0.47341 0.07825 0.18593 0.0
H1121 H 0.46623 0.0294 0.18729 0.0
H1122 H 0.41929 0.02289 0.17439 0.0
H1123 H 0.35817 0.05109 0.17584 0.0
H1124 H 0.87978 0.90114 0.41966 0.0
H1125 H 0.92012 0.95505 0.42066 0.0
H1126 H 0.00241 0.89009 0.43497 0.0
H1127 H 0.96214 0.83568 0.43403 0.0
H1128 H 0.9849 0.96206 0.44332 0.0
H1129 H 0.01742 0.96953 0.40532 0.0
H1130 H 0.96905 0.96592 0.40807 0.0
H1131 H -0.0005 0.92827 0.41081 0.0
C1132 C 0.90646 0.89816 0.42301 0.0
C1133 C 0.91778 0.86399 0.42673 0.0
C1134 C 0.92952 0.92901 0.42355 0.0
C1135 C 0.96432 0.92636 0.4278 0.0
C1136 C 0.97565 0.89254 0.43163 0.0
H1137 H 0.13555 0.09424 0.4238 0.0
H1138 H 0.10155 0.03593 0.42414 0.0
C1139 C 0.95265 0.86151 0.43106 0.0
C1140 C 0.98858 0.95918 0.42828 0.0
H1141 H 0.03478 0.02121 0.41461 0.0
C1142 C 0.99607 0.97491 0.43706 0.0
C1143 C 0.00331 0.97555 0.4201 0.0
C1144 C 0.99726 0.95885 0.41053 0.0
C1145 C 0.01714 0.00737 0.43785 0.0
C1146 C 0.03068 0.02451 0.42964 0.0
C1147 C 0.02406 0.00813 0.42088 0.0
C1148 C 0.05164 0.05961 0.42992 0.0
C1149 C 0.02486 0.02301 0.44745 0.0
C1150 C 0.0347 0.09226 0.43303 0.0
C1151 C 0.054 0.12573 0.43283 0.0
C1152 C 0.09057 0.12713 0.42948 0.0
C1153 C 0.10747 0.09422 0.42643 0.0
C1154 C 0.08811 0.06084 0.42662 0.0
H1155 H 0.02039 0.00212 0.45305 0.0
H1156 H 0.05369 0.03341 0.44793 0.0
H1157 H 0.00592 0.04654 0.44879 0.0
H1158 H 0.00632 0.09196 0.43546 0.0
H1159 H 0.04013 0.15054 0.4352 0.0
H1160 H 0.14289 0.39302 0.66033 0.0
H1161 H 0.08769 0.43117 0.65852 0.0
H1162 H 0.1179 0.49307 0.68323 0.0
H1163 H 0.17429 0.45629 0.68472 0.0
H1164 H 0.0314 0.43588 0.66916 0.0
H1165 H 0.09069 0.57626 0.66671 0.0
H1166 H 0.11899 0.53536 0.66603 0.0
H1167 H 0.1053 0.55377 0.67725 0.0
C1168 C 0.13803 0.4152 0.66528 0.0
C1169 C 0.1629 0.42184 0.67264 0.0
C1170 C 0.10645 0.43696 0.66425 0.0
C1171 C 0.09874 0.46541 0.67065 0.0
C1172 C 0.1237 0.47214 0.67801 0.0
H1173 H 0.87695 0.54513 0.68159 0.0
H1174 H 0.93557 0.51172 0.68129 0.0
C1175 C 0.15582 0.45093 0.67891 0.0
C1176 C 0.06335 0.4861 0.66999 0.0
H1177 H 0.02598 0.57266 0.67031 0.0
C1178 C 0.03032 0.46583 0.6693 0.0
C1179 C 0.06178 0.52519 0.67002 0.0
C1180 C 0.09614 0.54887 0.66994 0.0
C1181 C 0.99585 0.48341 0.66881 0.0
C1182 C 0.99413 0.5224 0.66945 0.0
C1183 C 0.02718 0.54275 0.66995 0.0
C1184 C 0.95844 0.54267 0.66965 0.0
C1185 C 0.96181 0.45988 0.6674 0.0
C1186 C 0.95221 0.5722 0.66347 0.0
C1187 C 0.91911 0.59203 0.66381 0.0
C1188 C 0.89139 0.58239 0.67027 0.0
C1189 C 0.89757 0.55279 0.67643 0.0
C1190 C 0.931 0.5335 0.67622 0.0
H1191 H 0.96869 0.43344 0.66384 0.0
H1192 H 0.94972 0.45297 0.67433 0.0
H1193 H 0.94062 0.47448 0.66317 0.0
H1194 H 0.97299 0.57992 0.65836 0.0
H1195 H 0.9151 0.61473 0.65898 0.0
H1196 H 0.37057 0.39142 0.91643 0.0
H1197 H 0.4029 0.45069 0.91617 0.0
H1198 H 0.49848 0.39994 0.92878 0.0
H1199 H 0.46626 0.34051 0.92919 0.0
H1200 H 0.47804 0.46734 0.93709 0.0
H1201 H 0.48747 0.47904 0.89835 0.0
H1202 H 0.44159 0.4715 0.90279 0.0
H1203 H 0.47611 0.43625 0.90418 0.0
C1204 C 0.39851 0.39275 0.91913 0.0
C1205 C 0.41588 0.36111 0.92279 0.0
C1206 C 0.41698 0.42666 0.91894 0.0
C1207 C 0.45323 0.42955 0.92234 0.0
C1208 C 0.47053 0.3982 0.92609 0.0
H1209 H 0.61559 0.59954 0.91359 0.0
H1210 H 0.57829 0.54342 0.91395 0.0
C1211 C 0.45209 0.36426 0.9263 0.0
C1212 C 0.47303 0.46534 0.92207 0.0
H1213 H 0.50695 0.53092 0.90718 0.0
C1214 C 0.48436 0.48131 0.93056 0.0
C1215 C 0.48146 0.48325 0.91353 0.0
C1216 C 0.47135 0.46656 0.90418 0.0
C1217 C 0.50388 0.51484 0.93074 0.0
C1218 C 0.51178 0.53304 0.9222 0.0
C1219 C 0.5005 0.51704 0.91371 0.0
C1220 C 0.53353 0.5677 0.92189 0.0
C1221 C 0.51677 0.52998 0.94004 0.0
C1222 C 0.52042 0.60016 0.92612 0.0
C1223 C 0.54175 0.63244 0.92595 0.0
C1224 C 0.57648 0.63278 0.9215 0.0
C1225 C 0.58906 0.60031 0.91711 0.0
C1226 C 0.56777 0.56816 0.91729 0.0
H1227 H 0.51564 0.50878 0.94566 0.0
H1228 H 0.54551 0.54057 0.93952 0.0
H1229 H 0.49864 0.55329 0.94213 0.0
H1230 H 0.49373 0.60052 0.92956 0.0
H1231 H 0.53114 0.65698 0.92936 0.0
H1232 H 0.57995 0.6235 0.05559 0.0
H1233 H 0.52354 0.5866 0.05521 0.0
H1234 H 0.58846 0.48671 0.05497 0.0
H1235 H 0.64531 0.5235 0.05512 0.0
H1236 H 0.53208 0.48478 0.04223 0.0
H1237 H 0.47874 0.52998 0.07682 0.0
H1238 H 0.48822 0.5677 0.06903 0.0
H1239 H 0.52553 0.53898 0.07308 0.0
C1240 C 0.58234 0.59367 0.05549 0.0
C1241 C 0.6172 0.57645 0.05545 0.0
C1242 C 0.54999 0.57262 0.05533 0.0
C1243 C 0.55177 0.53392 0.05526 0.0
C1244 C 0.58648 0.51658 0.05509 0.0
H1245 H 0.39244 0.35665 0.05778 0.0
H1246 H 0.44792 0.39503 0.05719 0.0
C1247 C 0.61893 0.53764 0.05518 0.0
C1248 C 0.5174 0.51158 0.05519 0.0
H1249 H 0.43736 0.49556 0.06725 0.0
C1250 C 0.51145 0.48701 0.04772 0.0
C1251 C 0.4905 0.51455 0.06236 0.0
C1252 C 0.49616 0.53895 0.07082 0.0
C1253 C 0.47912 0.46565 0.04718 0.0
C1254 C 0.45221 0.46888 0.05431 0.0
C1255 C 0.45801 0.49348 0.06176 0.0
C1256 C 0.4185 0.44579 0.05437 0.0
C1257 C 0.4737 0.44002 0.03896 0.0
C1258 C 0.38358 0.46181 0.05307 0.0
C1259 C 0.35168 0.43993 0.05337 0.0
C1260 C 0.35425 0.40175 0.05511 0.0
C1261 C 0.3894 0.38595 0.05643 0.0
C1262 C 0.4212 0.40776 0.05606 0.0
H1263 H 0.49328 0.44612 0.03316 0.0
H1264 H 0.47829 0.41111 0.04127 0.0
H1265 H 0.44499 0.44203 0.03625 0.0
H1266 H 0.38105 0.49122 0.05182 0.0
H1267 H 0.32505 0.45298 0.05235 0.0
H1268 H 0.35774 0.08029 0.31643 0.0
H1269 H 0.38873 0.02019 0.3165 0.0
H1270 H 0.48307 0.06822 0.30261 0.0
H1271 H 0.45247 0.12845 0.30251 0.0
H1272 H 0.45343 0.99788 0.2948 0.0
H1273 H 0.48213 0.99487 0.33314 0.0
H1274 H 0.43575 0.00589 0.32952 0.0
H1275 H 0.47273 0.03729 0.32692 0.0
C1276 C 0.38508 0.07813 0.31339 0.0
C1277 C 0.40268 0.10925 0.30949 0.0
C1278 C 0.40274 0.04379 0.31346 0.0
C1279 C 0.4382 0.03997 0.30962 0.0
C1280 C 0.45568 0.07075 0.30562 0.0
H1281 H 0.61101 0.88191 0.31405 0.0
H1282 H 0.56909 0.93451 0.31462 0.0
C1283 C 0.43818 0.10514 0.30559 0.0
C1284 C 0.45731 0.00391 0.30976 0.0
H1285 H 0.5015 0.9435 0.32428 0.0
C1286 C 0.46372 0.98573 0.30124 0.0
C1287 C 0.47076 0.98848 0.31819 0.0
C1288 C 0.46532 0.00759 0.32748 0.0
C1289 C 0.48384 0.95261 0.30089 0.0
C1290 C 0.49756 0.93727 0.30931 0.0
C1291 C 0.49065 0.95523 0.31786 0.0
C1292 C 0.52186 0.90439 0.30932 0.0
C1293 C 0.49146 0.93505 0.29149 0.0
C1294 C 0.50897 0.8698 0.30629 0.0
C1295 C 0.53296 0.8395 0.30592 0.0
C1296 C 0.57019 0.84335 0.30862 0.0
C1297 C 0.5826 0.8779 0.31188 0.0
C1298 C 0.55866 0.90805 0.31223 0.0
H1299 H 0.48486 0.95392 0.28559 0.0
H1300 H 0.52092 0.92672 0.29094 0.0
H1301 H 0.47425 0.90984 0.29074 0.0
H1302 H 0.48046 0.86633 0.30414 0.0
H1303 H 0.52246 0.81325 0.30343 0.0
H1304 H 0.88436 0.88288 0.56812 0.0
H1305 H 0.94079 0.91984 0.56841 0.0
H1306 H 0.8832 0.01015 0.55522 0.0
H1307 H 0.82642 0.97325 0.55483 0.0
H1308 H 0.95231 0.99244 0.54692 0.0
H1309 H 0.96359 0.0088 0.58549 0.0
H1310 H 0.95813 0.96188 0.58162 0.0
H1311 H 0.92137 0.99446 0.5798 0.0
C1312 C 0.88351 0.91068 0.56533 0.0
C1313 C 0.85076 0.92512 0.56147 0.0
C1314 C 0.9158 0.93181 0.56554 0.0
C1315 C 0.91601 0.96784 0.56194 0.0
C1316 C 0.88349 0.98242 0.55808 0.0
H1317 H 0.08786 0.13216 0.56903 0.0
H1318 H 0.03014 0.09722 0.56883 0.0
C1319 C 0.85108 0.96131 0.55788 0.0
C1320 C 0.95053 0.98984 0.56198 0.0
H1321 H 0.01567 0.02721 0.57647 0.0
C1322 C 0.96613 0.00021 0.55337 0.0
C1323 C 0.96825 0.00013 0.57042 0.0
C1324 C 0.95188 0.99108 0.57987 0.0
C1325 C -0.00059 0.02012 0.55296 0.0
C1326 C 0.01769 0.02946 0.5614 0.0
C1327 C 0.00175 0.01964 0.57001 0.0
C1328 C 0.05295 0.05027 0.56145 0.0
C1329 C 0.01447 0.03146 0.54353 0.0
C1330 C 0.08505 0.03519 0.55746 0.0
C1331 C 0.11822 0.05509 0.55756 0.0
C1332 C 0.11985 0.09039 0.56168 0.0
C1333 C 0.08765 0.10513 0.56577 0.0
C1334 C 0.05459 0.08521 0.56567 0.0
H1335 H 0.99305 0.02984 0.53797 0.0
H1336 H 0.02552 0.06008 0.54377 0.0
H1337 H 0.03744 0.01269 0.54156 0.0
H1338 H 0.08448 0.00796 0.55432 0.0
H1339 H 0.14251 0.04285 0.55439 0.0
H1340 H 0.86895 0.61086 0.8251 0.0
H1341 H 0.90413 0.55377 0.82718 0.0
H1342 H 0.97812 0.58676 0.80497 0.0
H1343 H 0.94427 0.6447 0.80323 0.0
H1344 H 0.91402 0.49874 0.81616 0.0
H1345 H 0.05205 0.55643 0.82382 0.0
H1346 H 0.01117 0.58487 0.82353 0.0
H1347 H 0.03525 0.57348 0.81284 0.0
C1348 C 0.89304 0.6061 0.82075 0.0
C1349 C 0.90407 0.63233 0.81405 0.0
C1350 C 0.91309 0.57345 0.82194 0.0
C1351 C 0.94426 0.56615 0.81636 0.0
C1352 C 0.95501 0.59221 0.80959 0.0
H1353 H 0.03028 0.34843 0.80407 0.0
H1354 H 0.99472 0.40571 0.80483 0.0
C1355 C 0.93546 0.62524 0.80854 0.0
C1356 C 0.96428 0.53049 0.81728 0.0
H1357 H 0.05046 0.49288 0.81899 0.0
C1358 C 0.94383 0.4975 0.8169 0.0
C1359 C 0.00311 0.52869 0.81844 0.0
C1360 C 0.02656 0.5628 0.81979 0.0
C1361 C 0.96116 0.46287 0.81737 0.0
C1362 C 0.00022 0.4611 0.81784 0.0
C1363 C 0.02057 0.49409 0.81849 0.0
C1364 C 0.02071 0.42553 0.81756 0.0
C1365 C 0.93723 0.42869 0.81753 0.0
C1366 C 0.04805 0.41797 0.82428 0.0
C1367 C 0.06917 0.38576 0.82368 0.0
C1368 C 0.06301 0.36019 0.81644 0.0
C1369 C 0.03525 0.36739 0.80981 0.0
C1370 C 0.0147 0.40003 0.81028 0.0
H1371 H 0.90946 0.43473 0.82048 0.0
H1372 H 0.9332 0.41866 0.81025 0.0
H1373 H 0.95004 0.40626 0.82172 0.0
H1374 H 0.05332 0.4372 0.82994 0.0
H1375 H 0.09036 0.38087 0.8289 0.0
loop_
_geom_bond_atom_site_label_1
_geom_bond_atom_site_label_2
_geom_bond_distance
_geom_bond_site_symmetry_2
_ccdc_geom_bond_type
C0 O1 1.306 . S
C0 O3 1.160 . S
O1 C0 1.306 . S
O1 Cd2 2.228 . S
Cd2 O1 2.228 . S
Cd2 O6 2.273 . S
Cd2 O10 2.277 . S
O3 C0 1.160 . S
O3 Cd4 2.203 . S
Cd4 O3 2.203 . S
Cd4 O6 2.411 . S
Cd4 O7 2.333 . S
Cd4 O8 2.352 . S
Cd4 O12 2.277 . S
Cd4 O13 2.356 . S
C5 O10 1.209 . S
C5 O12 1.226 . S
O6 Cd2 2.273 . S
O6 Cd4 2.411 . S
O6 C9 1.320 . S
O7 Cd4 2.333 . S
O7 C9 1.214 . S
O8 Cd4 2.352 . S
O8 C11 1.258 . S
C9 O6 1.320 . S
C9 O7 1.214 . S
O10 Cd2 2.277 . S
O10 C5 1.209 . S
C11 O8 1.258 . S
C11 O13 1.282 . S
O12 Cd4 2.277 . S
O12 C5 1.226 . S
O13 Cd4 2.356 . S
O13 C11 1.282 . S
C14 O15 1.306 . S
C14 O17 1.160 . S
O15 C14 1.306 . S
O15 Cd16 2.228 . S
Cd16 O15 2.228 . S
Cd16 O20 2.273 . S
Cd16 O24 2.277 . S
O17 C14 1.160 . S
O17 Cd18 2.203 . S
Cd18 O17 2.203 . S
Cd18 O20 2.411 . S
Cd18 O21 2.333 . S
Cd18 O22 2.352 . S
Cd18 O26 2.277 . S
Cd18 O27 2.356 . S
C19 O24 1.209 . S
C19 O26 1.226 . S
O20 Cd16 2.273 . S
O20 Cd18 2.411 . S
O20 C23 1.320 . S
O21 Cd18 2.333 . S
O21 C23 1.214 . S
O22 Cd18 2.352 . S
O22 C25 1.258 . S
C23 O20 1.320 . S
C23 O21 1.214 . S
O24 Cd16 2.277 . S
O24 C19 1.209 . S
C25 O22 1.258 . S
C25 O27 1.282 . S
O26 Cd18 2.277 . S
O26 C19 1.226 . S
O27 Cd18 2.356 . S
O27 C25 1.282 . S
C28 O29 1.306 . S
C28 O31 1.160 . S
O29 C28 1.306 . S
O29 Cd30 2.228 . S
Cd30 O29 2.228 . S
Cd30 O34 2.273 . S
Cd30 O38 2.277 . S
O31 C28 1.160 . S
O31 Cd32 2.203 . S
Cd32 O31 2.203 . S
Cd32 O34 2.411 . S
Cd32 O35 2.333 . S
Cd32 O36 2.352 . S
Cd32 O40 2.277 . S
Cd32 O41 2.356 . S
C33 O38 1.209 . S
C33 O40 1.226 . S
O34 Cd30 2.273 . S
O34 Cd32 2.411 . S
O34 C37 1.320 . S
O35 Cd32 2.333 . S
O35 C37 1.214 . S
O36 Cd32 2.352 . S
O36 C39 1.258 . S
C37 O34 1.320 . S
C37 O35 1.214 . S
O38 Cd30 2.277 . S
O38 C33 1.209 . S
C39 O36 1.258 . S
C39 O41 1.282 . S
O40 Cd32 2.277 . S
O40 C33 1.226 . S
O41 Cd32 2.356 . S
O41 C39 1.282 . S
C42 O43 1.306 . S
C42 O45 1.160 . S
O43 C42 1.306 . S
O43 Cd44 2.228 . S
Cd44 O43 2.228 . S
Cd44 O48 2.273 . S
Cd44 O52 2.277 . S
O45 C42 1.160 . S
O45 Cd46 2.203 . S
Cd46 O45 2.203 . S
Cd46 O48 2.411 . S
Cd46 O49 2.333 . S
Cd46 O50 2.352 . S
Cd46 O54 2.277 . S
Cd46 O55 2.356 . S
C47 O52 1.209 . S
C47 O54 1.226 . S
O48 Cd44 2.273 . S
O48 Cd46 2.411 . S
O48 C51 1.320 . S
O49 Cd46 2.333 . S
O49 C51 1.214 . S
O50 Cd46 2.352 . S
O50 C53 1.258 . S
C51 O48 1.320 . S
C51 O49 1.214 . S
O52 Cd44 2.277 . S
O52 C47 1.209 . S
C53 O50 1.258 . S
C53 O55 1.282 . S
O54 Cd46 2.277 . S
O54 C47 1.226 . S
O55 Cd46 2.356 . S
O55 C53 1.282 . S
C56 O57 1.306 . S
C56 O59 1.160 . S
O57 C56 1.306 . S
O57 Cd58 2.228 . S
Cd58 O57 2.228 . S
Cd58 O62 2.273 . S
Cd58 O66 2.277 . S
O59 C56 1.160 . S
O59 Cd60 2.203 . S
Cd60 O59 2.203 . S
Cd60 O62 2.411 . S
Cd60 O63 2.333 . S
Cd60 O64 2.352 . S
Cd60 O68 2.277 . S
Cd60 O69 2.356 . S
C61 O66 1.209 . S
C61 O68 1.226 . S
O62 Cd58 2.273 . S
O62 Cd60 2.411 . S
O62 C65 1.320 . S
O63 Cd60 2.333 . S
O63 C65 1.214 . S
O64 Cd60 2.352 . S
O64 C67 1.258 . S
C65 O62 1.320 . S
C65 O63 1.214 . S
O66 Cd58 2.277 . S
O66 C61 1.209 . S
C67 O64 1.258 . S
C67 O69 1.282 . S
O68 Cd60 2.277 . S
O68 C61 1.226 . S
O69 Cd60 2.356 . S
O69 C67 1.282 . S
C70 O71 1.306 . S
C70 O73 1.160 . S
O71 C70 1.306 . S
O71 Cd72 2.228 . S
Cd72 O71 2.228 . S
Cd72 O76 2.273 . S
Cd72 O80 2.277 . S
O73 C70 1.160 . S
O73 Cd74 2.203 . S
Cd74 O73 2.203 . S
Cd74 O76 2.411 . S
Cd74 O77 2.333 . S
Cd74 O78 2.352 . S
Cd74 O82 2.277 . S
Cd74 O83 2.356 . S
C75 O80 1.209 . S
C75 O82 1.226 . S
O76 Cd72 2.273 . S
O76 Cd74 2.411 . S
O76 C79 1.320 . S
O77 Cd74 2.333 . S
O77 C79 1.214 . S
O78 Cd74 2.352 . S
O78 C81 1.258 . S
C79 O76 1.320 . S
C79 O77 1.214 . S
O80 Cd72 2.277 . S
O80 C75 1.209 . S
C81 O78 1.258 . S
C81 O83 1.282 . S
O82 Cd74 2.277 . S
O82 C75 1.226 . S
O83 Cd74 2.356 . S
O83 C81 1.282 . S
C84 O85 1.306 . S
C84 O87 1.160 . S
O85 C84 1.306 . S
O85 Cd86 2.228 . S
Cd86 O85 2.228 . S
Cd86 O90 2.273 . S
Cd86 O94 2.277 . S
O87 C84 1.160 . S
O87 Cd88 2.203 . S
Cd88 O87 2.203 . S
Cd88 O90 2.411 . S
Cd88 O91 2.333 . S
Cd88 O92 2.352 . S
Cd88 O96 2.277 . S
Cd88 O97 2.356 . S
C89 O94 1.209 . S
C89 O96 1.226 . S
O90 Cd86 2.273 . S
O90 Cd88 2.411 . S
O90 C93 1.320 . S
O91 Cd88 2.333 . S
O91 C93 1.214 . S
O92 Cd88 2.352 . S
O92 C95 1.258 . S
C93 O90 1.320 . S
C93 O91 1.214 . S
O94 Cd86 2.277 . S
O94 C89 1.209 . S
C95 O92 1.258 . S
C95 O97 1.282 . S
O96 Cd88 2.277 . S
O96 C89 1.226 . S
O97 Cd88 2.356 . S
O97 C95 1.282 . S
C98 O99 1.306 . S
C98 O101 1.160 . S
O99 C98 1.306 . S
O99 Cd100 2.228 . S
Cd100 O99 2.228 . S
Cd100 O104 2.273 . S
Cd100 O108 2.277 . S
O101 C98 1.160 . S
O101 Cd102 2.203 . S
Cd102 O101 2.203 . S
Cd102 O104 2.411 . S
Cd102 O105 2.333 . S
Cd102 O106 2.352 . S
Cd102 O110 2.277 . S
Cd102 O111 2.356 . S
C103 O108 1.209 . S
C103 O110 1.226 . S
O104 Cd100 2.273 . S
O104 Cd102 2.411 . S
O104 C107 1.320 . S
O105 Cd102 2.333 . S
O105 C107 1.214 . S
O106 Cd102 2.352 . S
O106 C109 1.258 . S
C107 O104 1.320 . S
C107 O105 1.214 . S
O108 Cd100 2.277 . S
O108 C103 1.209 . S
C109 O106 1.258 . S
C109 O111 1.282 . S
O110 Cd102 2.277 . S
O110 C103 1.226 . S
O111 Cd102 2.356 . S
O111 C109 1.282 . S
C112 O113 1.306 . S
C112 O115 1.160 . S
O113 C112 1.306 . S
O113 Cd114 2.228 . S
Cd114 O113 2.228 . S
Cd114 O118 2.273 . S
Cd114 O122 2.277 . S
O115 C112 1.160 . S
O115 Cd116 2.203 . S
Cd116 O115 2.203 . S
Cd116 O118 2.411 . S
Cd116 O119 2.333 . S
Cd116 O120 2.352 . S
Cd116 O124 2.277 . S
Cd116 O125 2.356 . S
C117 O122 1.209 . S
C117 O124 1.226 . S
O118 Cd114 2.273 . S
O118 Cd116 2.411 . S
O118 C121 1.320 . S
O119 Cd116 2.333 . S
O119 C121 1.214 . S
O120 Cd116 2.352 . S
O120 C123 1.258 . S
C121 O118 1.320 . S
C121 O119 1.214 . S
O122 Cd114 2.277 . S
O122 C117 1.209 . S
C123 O120 1.258 . S
C123 O125 1.282 . S
O124 Cd116 2.277 . S
O124 C117 1.226 . S
O125 Cd116 2.356 . S
O125 C123 1.282 . S
C126 O127 1.306 . S
C126 O129 1.160 . S
O127 C126 1.306 . S
O127 Cd128 2.228 . S
Cd128 O127 2.228 . S
Cd128 O132 2.273 . S
Cd128 O136 2.277 . S
O129 C126 1.160 . S
O129 Cd130 2.203 . S
Cd130 O129 2.203 . S
Cd130 O132 2.411 . S
Cd130 O133 2.333 . S
Cd130 O134 2.352 . S
Cd130 O138 2.277 . S
Cd130 O139 2.356 . S
C131 O136 1.209 . S
C131 O138 1.226 . S
O132 Cd128 2.273 . S
O132 Cd130 2.411 . S
O132 C135 1.320 . S
O133 Cd130 2.333 . S
O133 C135 1.214 . S
O134 Cd130 2.352 . S
O134 C137 1.258 . S
C135 O132 1.320 . S
C135 O133 1.214 . S
O136 Cd128 2.277 . S
O136 C131 1.209 . S
C137 O134 1.258 . S
C137 O139 1.282 . S
O138 Cd130 2.277 . S
O138 C131 1.226 . S
O139 Cd130 2.356 . S
O139 C137 1.282 . S
C140 O141 1.306 . S
C140 O143 1.160 . S
O141 C140 1.306 . S
O141 Cd142 2.228 . S
Cd142 O141 2.228 . S
Cd142 O146 2.273 . S
Cd142 O150 2.277 . S
O143 C140 1.160 . S
O143 Cd144 2.203 . S
Cd144 O143 2.203 . S
Cd144 O146 2.411 . S
Cd144 O147 2.333 . S
Cd144 O148 2.352 . S
Cd144 O152 2.277 . S
Cd144 O153 2.356 . S
C145 O150 1.209 . S
C145 O152 1.226 . S
O146 Cd142 2.273 . S
O146 Cd144 2.411 . S
O146 C149 1.320 . S
O147 Cd144 2.333 . S
O147 C149 1.214 . S
O148 Cd144 2.352 . S
O148 C151 1.258 . S
C149 O146 1.320 . S
C149 O147 1.214 . S
O150 Cd142 2.277 . S
O150 C145 1.209 . S
C151 O148 1.258 . S
C151 O153 1.282 . S
O152 Cd144 2.277 . S
O152 C145 1.226 . S
O153 Cd144 2.356 . S
O153 C151 1.282 . S
C154 O155 1.306 . S
C154 O157 1.160 . S
O155 C154 1.306 . S
O155 Cd156 2.228 . S
Cd156 O155 2.228 . S
Cd156 O160 2.273 . S
Cd156 O164 2.277 . S
O157 C154 1.160 . S
O157 Cd158 2.203 . S
Cd158 O157 2.203 . S
Cd158 O160 2.411 . S
Cd158 O161 2.333 . S
Cd158 O162 2.352 . S
Cd158 O166 2.277 . S
Cd158 O167 2.356 . S
C159 O164 1.209 . S
C159 O166 1.226 . S
O160 Cd156 2.273 . S
O160 Cd158 2.411 . S
O160 C163 1.320 . S
O161 Cd158 2.333 . S
O161 C163 1.214 . S
O162 Cd158 2.352 . S
O162 C165 1.258 . S
C163 O160 1.320 . S
C163 O161 1.214 . S
O164 Cd156 2.277 . S
O164 C159 1.209 . S
C165 O162 1.258 . S
C165 O167 1.282 . S
O166 Cd158 2.277 . S
O166 C159 1.226 . S
O167 Cd158 2.356 . S
O167 C165 1.282 . S
C168 O169 1.306 . S
C168 O171 1.160 . S
O169 C168 1.306 . S
O169 Cd170 2.228 . S
Cd170 O169 2.228 . S
Cd170 O174 2.273 . S
Cd170 O178 2.277 . S
O171 C168 1.160 . S
O171 Cd172 2.203 . S
Cd172 O171 2.203 . S
Cd172 O174 2.411 . S
Cd172 O175 2.333 . S
Cd172 O176 2.352 . S
Cd172 O180 2.277 . S
Cd172 O181 2.356 . S
C173 O178 1.209 . S
C173 O180 1.226 . S
O174 Cd170 2.273 . S
O174 Cd172 2.411 . S
O174 C177 1.320 . S
O175 Cd172 2.333 . S
O175 C177 1.214 . S
O176 Cd172 2.352 . S
O176 C179 1.258 . S
C177 O174 1.320 . S
C177 O175 1.214 . S
O178 Cd170 2.277 . S
O178 C173 1.209 . S
C179 O176 1.258 . S
C179 O181 1.282 . S
O180 Cd172 2.277 . S
O180 C173 1.226 . S
O181 Cd172 2.356 . S
O181 C179 1.282 . S
C182 O183 1.306 . S
C182 O185 1.160 . S
O183 C182 1.306 . S
O183 Cd184 2.228 . S
Cd184 O183 2.228 . S
Cd184 O188 2.273 . S
Cd184 O192 2.277 . S
O185 C182 1.160 . S
O185 Cd186 2.203 . S
Cd186 O185 2.203 . S
Cd186 O188 2.411 . S
Cd186 O189 2.333 . S
Cd186 O190 2.352 . S
Cd186 O194 2.277 . S
Cd186 O195 2.356 . S
C187 O192 1.209 . S
C187 O194 1.226 . S
O188 Cd184 2.273 . S
O188 Cd186 2.411 . S
O188 C191 1.320 . S
O189 Cd186 2.333 . S
O189 C191 1.214 . S
O190 Cd186 2.352 . S
O190 C193 1.258 . S
C191 O188 1.320 . S
C191 O189 1.214 . S
O192 Cd184 2.277 . S
O192 C187 1.209 . S
C193 O190 1.258 . S
C193 O195 1.282 . S
O194 Cd186 2.277 . S
O194 C187 1.226 . S
O195 Cd186 2.356 . S
O195 C193 1.282 . S
C196 O197 1.306 . S
C196 O199 1.160 . S
O197 C196 1.306 . S
O197 Cd198 2.228 . S
Cd198 O197 2.228 . S
Cd198 O202 2.273 . S
Cd198 O206 2.277 . S
O199 C196 1.160 . S
O199 Cd200 2.203 . S
Cd200 O199 2.203 . S
Cd200 O202 2.411 . S
Cd200 O203 2.333 . S
Cd200 O204 2.352 . S
Cd200 O208 2.277 . S
Cd200 O209 2.356 . S
C201 O206 1.209 . S
C201 O208 1.226 . S
O202 Cd198 2.273 . S
O202 Cd200 2.411 . S
O202 C205 1.320 . S
O203 Cd200 2.333 . S
O203 C205 1.214 . S
O204 Cd200 2.352 . S
O204 C207 1.258 . S
C205 O202 1.320 . S
C205 O203 1.214 . S
O206 Cd198 2.277 . S
O206 C201 1.209 . S
C207 O204 1.258 . S
C207 O209 1.282 . S
O208 Cd200 2.277 . S
O208 C201 1.226 . S
O209 Cd200 2.356 . S
O209 C207 1.282 . S
C210 O211 1.306 . S
C210 O213 1.160 . S
O211 C210 1.306 . S
O211 Cd212 2.228 . S
Cd212 O211 2.228 . S
Cd212 O216 2.273 . S
Cd212 O220 2.277 . S
O213 C210 1.160 . S
O213 Cd214 2.203 . S
Cd214 O213 2.203 . S
Cd214 O216 2.411 . S
Cd214 O217 2.333 . S
Cd214 O218 2.352 . S
Cd214 O222 2.277 . S
Cd214 O223 2.356 . S
C215 O220 1.209 . S
C215 O222 1.226 . S
O216 Cd212 2.273 . S
O216 Cd214 2.411 . S
O216 C219 1.320 . S
O217 Cd214 2.333 . S
O217 C219 1.214 . S
O218 Cd214 2.352 . S
O218 C221 1.258 . S
C219 O216 1.320 . S
C219 O217 1.214 . S
O220 Cd212 2.277 . S
O220 C215 1.209 . S
C221 O218 1.258 . S
C221 O223 1.282 . S
O222 Cd214 2.277 . S
O222 C215 1.226 . S
O223 Cd214 2.356 . S
O223 C221 1.282 . S
H224 C232 0.929 . S
H225 C234 0.930 . S
H226 C236 0.930 . S
H227 C239 0.929 . S
H228 C242 0.930 . S
H229 C244 0.960 . S
H230 C244 0.960 . S
H231 C244 0.960 . S
C232 H224 0.929 . S
C232 C233 1.377 . S
C232 C234 1.384 . S
C233 C232 1.377 . S
C233 C239 1.390 . S
C234 H225 0.930 . S
C234 C232 1.384 . S
C234 C235 1.372 . S
C235 C234 1.372 . S
C235 C236 1.400 . S
C235 C240 1.490 . S
C236 H226 0.930 . S
C236 C235 1.400 . S
C236 C239 1.386 . S
H237 C253 0.930 . S
H238 C254 0.931 . S
C239 H227 0.929 . S
C239 C233 1.390 . S
C239 C236 1.386 . S
C240 C235 1.490 . S
C240 C242 1.395 . S
C240 C243 1.403 . S
H241 C247 0.930 . S
C242 H228 0.930 . S
C242 C240 1.395 . S
C242 C245 1.403 . S
C243 C240 1.403 . S
C243 C244 1.524 . S
C243 C247 1.400 . S
C244 H229 0.960 . S
C244 H230 0.960 . S
C244 H231 0.960 . S
C244 C243 1.524 . S
C245 C242 1.403 . S
C245 C246 1.392 . S
C245 C249 1.495 . S
C246 C245 1.392 . S
C246 C247 1.385 . S
C246 C248 1.478 . S
C247 H241 0.930 . S
C247 C243 1.400 . S
C247 C246 1.385 . S
C248 C246 1.478 . S
C248 C250 1.381 . S
C248 C254 1.383 . S
C249 C245 1.495 . S
C249 H255 0.959 . S
C249 H256 0.961 . S
C249 H257 0.960 . S
C250 C248 1.381 . S
C250 C251 1.394 . S
C250 H258 0.930 . S
C251 C250 1.394 . S
C251 C252 1.383 . S
C251 H259 0.929 . S
C252 C251 1.383 . S
C252 C253 1.377 . S
C253 H237 0.930 . S
C253 C252 1.377 . S
C253 C254 1.379 . S
C254 H238 0.931 . S
C254 C248 1.383 . S
C254 C253 1.379 . S
H255 C249 0.959 . S
H256 C249 0.961 . S
H257 C249 0.960 . S
H258 C250 0.930 . S
H259 C251 0.929 . S
H260 C268 0.929 . S
H261 C270 0.930 . S
H262 C272 0.930 . S
H263 C275 0.929 . S
H264 C278 0.930 . S
H265 C280 0.960 . S
H266 C280 0.960 . S
H267 C280 0.960 . S
C268 H260 0.929 . S
C268 C269 1.377 . S
C268 C270 1.384 . S
C269 C268 1.377 . S
C269 C275 1.390 . S
C270 H261 0.930 . S
C270 C268 1.384 . S
C270 C271 1.372 . S
C271 C270 1.372 . S
C271 C272 1.400 . S
C271 C276 1.490 . S
C272 H262 0.930 . S
C272 C271 1.400 . S
C272 C275 1.386 . S
H273 C289 0.930 . S
H274 C290 0.931 . S
C275 H263 0.929 . S
C275 C269 1.390 . S
C275 C272 1.386 . S
C276 C271 1.490 . S
C276 C278 1.395 . S
C276 C279 1.403 . S
H277 C283 0.930 . S
C278 H264 0.930 . S
C278 C276 1.395 . S
C278 C281 1.403 . S
C279 C276 1.403 . S
C279 C280 1.524 . S
C279 C283 1.400 . S
C280 H265 0.960 . S
C280 H266 0.960 . S
C280 H267 0.960 . S
C280 C279 1.524 . S
C281 C278 1.403 . S
C281 C282 1.392 . S
C281 C285 1.495 . S
C282 C281 1.392 . S
C282 C283 1.385 . S
C282 C284 1.478 . S
C283 H277 0.930 . S
C283 C279 1.400 . S
C283 C282 1.385 . S
C284 C282 1.478 . S
C284 C286 1.381 . S
C284 C290 1.383 . S
C285 C281 1.495 . S
C285 H291 0.959 . S
C285 H292 0.961 . S
C285 H293 0.960 . S
C286 C284 1.381 . S
C286 C287 1.394 . S
C286 H294 0.930 . S
C287 C286 1.394 . S
C287 C288 1.383 . S
C287 H295 0.929 . S
C288 C287 1.383 . S
C288 C289 1.377 . S
C289 H273 0.930 . S
C289 C288 1.377 . S
C289 C290 1.379 . S
C290 H274 0.931 . S
C290 C284 1.383 . S
C290 C289 1.379 . S
H291 C285 0.959 . S
H292 C285 0.961 . S
H293 C285 0.960 . S
H294 C286 0.930 . S
H295 C287 0.929 . S
H296 C304 0.929 . S
H297 C306 0.930 . S
H298 C308 0.930 . S
H299 C311 0.929 . S
H300 C314 0.930 . S
H301 C316 0.960 . S
H302 C316 0.960 . S
H303 C316 0.960 . S
C304 H296 0.929 . S
C304 C305 1.377 . S
C304 C306 1.384 . S
C305 C304 1.377 . S
C305 C311 1.390 . S
C306 H297 0.930 . S
C306 C304 1.384 . S
C306 C307 1.372 . S
C307 C306 1.372 . S
C307 C308 1.400 . S
C307 C312 1.490 . S
C308 H298 0.930 . S
C308 C307 1.400 . S
C308 C311 1.386 . S
H309 C325 0.930 . S
H310 C326 0.931 . S
C311 H299 0.929 . S
C311 C305 1.390 . S
C311 C308 1.386 . S
C312 C307 1.490 . S
C312 C314 1.395 . S
C312 C315 1.403 . S
H313 C319 0.930 . S
C314 H300 0.930 . S
C314 C312 1.395 . S
C314 C317 1.403 . S
C315 C312 1.403 . S
C315 C316 1.524 . S
C315 C319 1.400 . S
C316 H301 0.960 . S
C316 H302 0.960 . S
C316 H303 0.960 . S
C316 C315 1.524 . S
C317 C314 1.403 . S
C317 C318 1.392 . S
C317 C321 1.495 . S
C318 C317 1.392 . S
C318 C319 1.385 . S
C318 C320 1.478 . S
C319 H313 0.930 . S
C319 C315 1.400 . S
C319 C318 1.385 . S
C320 C318 1.478 . S
C320 C322 1.381 . S
C320 C326 1.383 . S
C321 C317 1.495 . S
C321 H327 0.959 . S
C321 H328 0.961 . S
C321 H329 0.960 . S
C322 C320 1.381 . S
C322 C323 1.394 . S
C322 H330 0.930 . S
C323 C322 1.394 . S
C323 C324 1.383 . S
C323 H331 0.929 . S
C324 C323 1.383 . S
C324 C325 1.377 . S
C325 H309 0.930 . S
C325 C324 1.377 . S
C325 C326 1.379 . S
C326 H310 0.931 . S
C326 C320 1.383 . S
C326 C325 1.379 . S
H327 C321 0.959 . S
H328 C321 0.961 . S
H329 C321 0.960 . S
H330 C322 0.930 . S
H331 C323 0.929 . S
H332 C340 0.929 . S
H333 C342 0.930 . S
H334 C344 0.930 . S
H335 C347 0.929 . S
H336 C350 0.930 . S
H337 C352 0.960 . S
H338 C352 0.960 . S
H339 C352 0.960 . S
C340 H332 0.929 . S
C340 C341 1.377 . S
C340 C342 1.384 . S
C341 C340 1.377 . S
C341 C347 1.390 . S
C342 H333 0.930 . S
C342 C340 1.384 . S
C342 C343 1.372 . S
C343 C342 1.372 . S
C343 C344 1.400 . S
C343 C348 1.490 . S
C344 H334 0.930 . S
C344 C343 1.400 . S
C344 C347 1.386 . S
H345 C361 0.930 . S
H346 C362 0.931 . S
C347 H335 0.929 . S
C347 C341 1.390 . S
C347 C344 1.386 . S
C348 C343 1.490 . S
C348 C350 1.395 . S
C348 C351 1.403 . S
H349 C355 0.930 . S
C350 H336 0.930 . S
C350 C348 1.395 . S
C350 C353 1.403 . S
C351 C348 1.403 . S
C351 C352 1.524 . S
C351 C355 1.400 . S
C352 H337 0.960 . S
C352 H338 0.960 . S
C352 H339 0.960 . S
C352 C351 1.524 . S
C353 C350 1.403 . S
C353 C354 1.392 . S
C353 C357 1.495 . S
C354 C353 1.392 . S
C354 C355 1.385 . S
C354 C356 1.478 . S
C355 H349 0.930 . S
C355 C351 1.400 . S
C355 C354 1.385 . S
C356 C354 1.478 . S
C356 C358 1.381 . S
C356 C362 1.383 . S
C357 C353 1.495 . S
C357 H363 0.959 . S
C357 H364 0.961 . S
C357 H365 0.960 . S
C358 C356 1.381 . S
C358 C359 1.394 . S
C358 H366 0.930 . S
C359 C358 1.394 . S
C359 C360 1.383 . S
C359 H367 0.929 . S
C360 C359 1.383 . S
C360 C361 1.377 . S
C361 H345 0.930 . S
C361 C360 1.377 . S
C361 C362 1.379 . S
C362 H346 0.931 . S
C362 C356 1.383 . S
C362 C361 1.379 . S
H363 C357 0.959 . S
H364 C357 0.961 . S
H365 C357 0.960 . S
H366 C358 0.930 . S
H367 C359 0.929 . S
H368 C376 0.929 . S
H369 C378 0.930 . S
H370 C380 0.930 . S
H371 C383 0.929 . S
H372 C386 0.930 . S
H373 C388 0.960 . S
H374 C388 0.960 . S
H375 C388 0.960 . S
C376 H368 0.929 . S
C376 C377 1.377 . S
C376 C378 1.384 . S
C377 C376 1.377 . S
C377 C383 1.390 . S
C378 H369 0.930 . S
C378 C376 1.384 . S
C378 C379 1.372 . S
C379 C378 1.372 . S
C379 C380 1.400 . S
C379 C384 1.490 . S
C380 H370 0.930 . S
C380 C379 1.400 . S
C380 C383 1.386 . S
H381 C397 0.930 . S
H382 C398 0.931 . S
C383 H371 0.929 . S
C383 C377 1.390 . S
C383 C380 1.386 . S
C384 C379 1.490 . S
C384 C386 1.395 . S
C384 C387 1.403 . S
H385 C391 0.930 . S
C386 H372 0.930 . S
C386 C384 1.395 . S
C386 C389 1.403 . S
C387 C384 1.403 . S
C387 C388 1.524 . S
C387 C391 1.400 . S
C388 H373 0.960 . S
C388 H374 0.960 . S
C388 H375 0.960 . S
C388 C387 1.524 . S
C389 C386 1.403 . S
C389 C390 1.392 . S
C389 C393 1.495 . S
C390 C389 1.392 . S
C390 C391 1.385 . S
C390 C392 1.478 . S
C391 H385 0.930 . S
C391 C387 1.400 . S
C391 C390 1.385 . S
C392 C390 1.478 . S
C392 C394 1.381 . S
C392 C398 1.383 . S
C393 C389 1.495 . S
C393 H399 0.959 . S
C393 H400 0.961 . S
C393 H401 0.960 . S
C394 C392 1.381 . S
C394 C395 1.394 . S
C394 H402 0.930 . S
C395 C394 1.394 . S
C395 C396 1.383 . S
C395 H403 0.929 . S
C396 C395 1.383 . S
C396 C397 1.377 . S
C397 H381 0.930 . S
C397 C396 1.377 . S
C397 C398 1.379 . S
C398 H382 0.931 . S
C398 C392 1.383 . S
C398 C397 1.379 . S
H399 C393 0.959 . S
H400 C393 0.961 . S
H401 C393 0.960 . S
H402 C394 0.930 . S
H403 C395 0.929 . S
H404 C412 0.929 . S
H405 C414 0.930 . S
H406 C416 0.930 . S
H407 C419 0.929 . S
H408 C422 0.930 . S
H409 C424 0.960 . S
H410 C424 0.960 . S
H411 C424 0.960 . S
C412 H404 0.929 . S
C412 C413 1.377 . S
C412 C414 1.384 . S
C413 C412 1.377 . S
C413 C419 1.390 . S
C414 H405 0.930 . S
C414 C412 1.384 . S
C414 C415 1.372 . S
C415 C414 1.372 . S
C415 C416 1.400 . S
C415 C420 1.490 . S
C416 H406 0.930 . S
C416 C415 1.400 . S
C416 C419 1.386 . S
H417 C433 0.930 . S
H418 C434 0.931 . S
C419 H407 0.929 . S
C419 C413 1.390 . S
C419 C416 1.386 . S
C420 C415 1.490 . S
C420 C422 1.395 . S
C420 C423 1.403 . S
H421 C427 0.930 . S
C422 H408 0.930 . S
C422 C420 1.395 . S
C422 C425 1.403 . S
C423 C420 1.403 . S
C423 C424 1.524 . S
C423 C427 1.400 . S
C424 H409 0.960 . S
C424 H410 0.960 . S
C424 H411 0.960 . S
C424 C423 1.524 . S
C425 C422 1.403 . S
C425 C426 1.392 . S
C425 C429 1.495 . S
C426 C425 1.392 . S
C426 C427 1.385 . S
C426 C428 1.478 . S
C427 H421 0.930 . S
C427 C423 1.400 . S
C427 C426 1.385 . S
C428 C426 1.478 . S
C428 C430 1.381 . S
C428 C434 1.383 . S
C429 C425 1.495 . S
C429 H435 0.959 . S
C429 H436 0.961 . S
C429 H437 0.960 . S
C430 C428 1.381 . S
C430 C431 1.394 . S
C430 H438 0.930 . S
C431 C430 1.394 . S
C431 C432 1.383 . S
C431 H439 0.929 . S
C432 C431 1.383 . S
C432 C433 1.377 . S
C433 H417 0.930 . S
C433 C432 1.377 . S
C433 C434 1.379 . S
C434 H418 0.931 . S
C434 C428 1.383 . S
C434 C433 1.379 . S
H435 C429 0.959 . S
H436 C429 0.961 . S
H437 C429 0.960 . S
H438 C430 0.930 . S
H439 C431 0.929 . S
H440 C448 0.929 . S
H441 C450 0.930 . S
H442 C452 0.930 . S
H443 C455 0.929 . S
H444 C458 0.930 . S
H445 C460 0.960 . S
H446 C460 0.960 . S
H447 C460 0.960 . S
C448 H440 0.929 . S
C448 C449 1.377 . S
C448 C450 1.384 . S
C449 C448 1.377 . S
C449 C455 1.390 . S
C450 H441 0.930 . S
C450 C448 1.384 . S
C450 C451 1.372 . S
C451 C450 1.372 . S
C451 C452 1.400 . S
C451 C456 1.490 . S
C452 H442 0.930 . S
C452 C451 1.400 . S
C452 C455 1.386 . S
H453 C469 0.930 . S
H454 C470 0.931 . S
C455 H443 0.929 . S
C455 C449 1.390 . S
C455 C452 1.386 . S
C456 C451 1.490 . S
C456 C458 1.395 . S
C456 C459 1.403 . S
H457 C463 0.930 . S
C458 H444 0.930 . S
C458 C456 1.395 . S
C458 C461 1.403 . S
C459 C456 1.403 . S
C459 C460 1.524 . S
C459 C463 1.400 . S
C460 H445 0.960 . S
C460 H446 0.960 . S
C460 H447 0.960 . S
C460 C459 1.524 . S
C461 C458 1.403 . S
C461 C462 1.392 . S
C461 C465 1.495 . S
C462 C461 1.392 . S
C462 C463 1.385 . S
C462 C464 1.478 . S
C463 H457 0.930 . S
C463 C459 1.400 . S
C463 C462 1.385 . S
C464 C462 1.478 . S
C464 C466 1.381 . S
C464 C470 1.383 . S
C465 C461 1.495 . S
C465 H471 0.959 . S
C465 H472 0.961 . S
C465 H473 0.960 . S
C466 C464 1.381 . S
C466 C467 1.394 . S
C466 H474 0.930 . S
C467 C466 1.394 . S
C467 C468 1.383 . S
C467 H475 0.929 . S
C468 C467 1.383 . S
C468 C469 1.377 . S
C469 H453 0.930 . S
C469 C468 1.377 . S
C469 C470 1.379 . S
C470 H454 0.931 . S
C470 C464 1.383 . S
C470 C469 1.379 . S
H471 C465 0.959 . S
H472 C465 0.961 . S
H473 C465 0.960 . S
H474 C466 0.930 . S
H475 C467 0.929 . S
H476 C484 0.929 . S
H477 C486 0.930 . S
H478 C488 0.930 . S
H479 C491 0.929 . S
H480 C494 0.930 . S
H481 C496 0.960 . S
H482 C496 0.960 . S
H483 C496 0.960 . S
C484 H476 0.929 . S
C484 C485 1.377 . S
C484 C486 1.384 . S
C485 C484 1.377 . S
C485 C491 1.390 . S
C486 H477 0.930 . S
C486 C484 1.384 . S
C486 C487 1.372 . S
C487 C486 1.372 . S
C487 C488 1.400 . S
C487 C492 1.490 . S
C488 H478 0.930 . S
C488 C487 1.400 . S
C488 C491 1.386 . S
H489 C505 0.930 . S
H490 C506 0.931 . S
C491 H479 0.929 . S
C491 C485 1.390 . S
C491 C488 1.386 . S
C492 C487 1.490 . S
C492 C494 1.395 . S
C492 C495 1.403 . S
H493 C499 0.930 . S
C494 H480 0.930 . S
C494 C492 1.395 . S
C494 C497 1.403 . S
C495 C492 1.403 . S
C495 C496 1.524 . S
C495 C499 1.400 . S
C496 H481 0.960 . S
C496 H482 0.960 . S
C496 H483 0.960 . S
C496 C495 1.524 . S
C497 C494 1.403 . S
C497 C498 1.392 . S
C497 C501 1.495 . S
C498 C497 1.392 . S
C498 C499 1.385 . S
C498 C500 1.478 . S
C499 H493 0.930 . S
C499 C495 1.400 . S
C499 C498 1.385 . S
C500 C498 1.478 . S
C500 C502 1.381 . S
C500 C506 1.383 . S
C501 C497 1.495 . S
C501 H507 0.959 . S
C501 H508 0.961 . S
C501 H509 0.960 . S
C502 C500 1.381 . S
C502 C503 1.394 . S
C502 H510 0.930 . S
C503 C502 1.394 . S
C503 C504 1.383 . S
C503 H511 0.929 . S
C504 C503 1.383 . S
C504 C505 1.377 . S
C505 H489 0.930 . S
C505 C504 1.377 . S
C505 C506 1.379 . S
C506 H490 0.931 . S
C506 C500 1.383 . S
C506 C505 1.379 . S
H507 C501 0.959 . S
H508 C501 0.961 . S
H509 C501 0.960 . S
H510 C502 0.930 . S
H511 C503 0.929 . S
H512 C520 0.929 . S
H513 C522 0.930 . S
H514 C524 0.930 . S
H515 C527 0.929 . S
H516 C530 0.930 . S
H517 C532 0.960 . S
H518 C532 0.960 . S
H519 C532 0.960 . S
C520 H512 0.929 . S
C520 C521 1.377 . S
C520 C522 1.384 . S
C521 C520 1.377 . S
C521 C527 1.390 . S
C522 H513 0.930 . S
C522 C520 1.384 . S
C522 C523 1.372 . S
C523 C522 1.372 . S
C523 C524 1.400 . S
C523 C528 1.490 . S
C524 H514 0.930 . S
C524 C523 1.400 . S
C524 C527 1.386 . S
H525 C541 0.930 . S
H526 C542 0.931 . S
C527 H515 0.929 . S
C527 C521 1.390 . S
C527 C524 1.386 . S
C528 C523 1.490 . S
C528 C530 1.395 . S
C528 C531 1.403 . S
H529 C535 0.930 . S
C530 H516 0.930 . S
C530 C528 1.395 . S
C530 C533 1.403 . S
C531 C528 1.403 . S
C531 C532 1.524 . S
C531 C535 1.400 . S
C532 H517 0.960 . S
C532 H518 0.960 . S
C532 H519 0.960 . S
C532 C531 1.524 . S
C533 C530 1.403 . S
C533 C534 1.392 . S
C533 C537 1.495 . S
C534 C533 1.392 . S
C534 C535 1.385 . S
C534 C536 1.478 . S
C535 H529 0.930 . S
C535 C531 1.400 . S
C535 C534 1.385 . S
C536 C534 1.478 . S
C536 C538 1.381 . S
C536 C542 1.383 . S
C537 C533 1.495 . S
C537 H543 0.959 . S
C537 H544 0.961 . S
C537 H545 0.960 . S
C538 C536 1.381 . S
C538 C539 1.394 . S
C538 H546 0.930 . S
C539 C538 1.394 . S
C539 C540 1.383 . S
C539 H547 0.929 . S
C540 C539 1.383 . S
C540 C541 1.377 . S
C541 H525 0.930 . S
C541 C540 1.377 . S
C541 C542 1.379 . S
C542 H526 0.931 . S
C542 C536 1.383 . S
C542 C541 1.379 . S
H543 C537 0.959 . S
H544 C537 0.961 . S
H545 C537 0.960 . S
H546 C538 0.930 . S
H547 C539 0.929 . S
H548 C556 0.929 . S
H549 C558 0.930 . S
H550 C560 0.930 . S
H551 C563 0.929 . S
H552 C566 0.930 . S
H553 C568 0.960 . S
H554 C568 0.960 . S
H555 C568 0.960 . S
C556 H548 0.929 . S
C556 C557 1.377 . S
C556 C558 1.384 . S
C557 C556 1.377 . S
C557 C563 1.390 . S
C558 H549 0.930 . S
C558 C556 1.384 . S
C558 C559 1.372 . S
C559 C558 1.372 . S
C559 C560 1.400 . S
C559 C564 1.490 . S
C560 H550 0.930 . S
C560 C559 1.400 . S
C560 C563 1.386 . S
H561 C577 0.930 . S
H562 C578 0.931 . S
C563 H551 0.929 . S
C563 C557 1.390 . S
C563 C560 1.386 . S
C564 C559 1.490 . S
C564 C566 1.395 . S
C564 C567 1.403 . S
H565 C571 0.930 . S
C566 H552 0.930 . S
C566 C564 1.395 . S
C566 C569 1.403 . S
C567 C564 1.403 . S
C567 C568 1.524 . S
C567 C571 1.400 . S
C568 H553 0.960 . S
C568 H554 0.960 . S
C568 H555 0.960 . S
C568 C567 1.524 . S
C569 C566 1.403 . S
C569 C570 1.392 . S
C569 C573 1.495 . S
C570 C569 1.392 . S
C570 C571 1.385 . S
C570 C572 1.478 . S
C571 H565 0.930 . S
C571 C567 1.400 . S
C571 C570 1.385 . S
C572 C570 1.478 . S
C572 C574 1.381 . S
C572 C578 1.383 . S
C573 C569 1.495 . S
C573 H579 0.959 . S
C573 H580 0.961 . S
C573 H581 0.960 . S
C574 C572 1.381 . S
C574 C575 1.394 . S
C574 H582 0.930 . S
C575 C574 1.394 . S
C575 C576 1.383 . S
C575 H583 0.929 . S
C576 C575 1.383 . S
C576 C577 1.377 . S
C577 H561 0.930 . S
C577 C576 1.377 . S
C577 C578 1.379 . S
C578 H562 0.931 . S
C578 C572 1.383 . S
C578 C577 1.379 . S
H579 C573 0.959 . S
H580 C573 0.961 . S
H581 C573 0.960 . S
H582 C574 0.930 . S
H583 C575 0.929 . S
H584 C592 0.929 . S
H585 C594 0.930 . S
H586 C596 0.930 . S
H587 C599 0.929 . S
H588 C602 0.930 . S
H589 C604 0.960 . S
H590 C604 0.960 . S
H591 C604 0.960 . S
C592 H584 0.929 . S
C592 C593 1.377 . S
C592 C594 1.384 . S
C593 C592 1.377 . S
C593 C599 1.390 . S
C594 H585 0.930 . S
C594 C592 1.384 . S
C594 C595 1.372 . S
C595 C594 1.372 . S
C595 C596 1.400 . S
C595 C600 1.490 . S
C596 H586 0.930 . S
C596 C595 1.400 . S
C596 C599 1.386 . S
H597 C613 0.930 . S
H598 C614 0.931 . S
C599 H587 0.929 . S
C599 C593 1.390 . S
C599 C596 1.386 . S
C600 C595 1.490 . S
C600 C602 1.395 . S
C600 C603 1.403 . S
H601 C607 0.930 . S
C602 H588 0.930 . S
C602 C600 1.395 . S
C602 C605 1.403 . S
C603 C600 1.403 . S
C603 C604 1.524 . S
C603 C607 1.400 . S
C604 H589 0.960 . S
C604 H590 0.960 . S
C604 H591 0.960 . S
C604 C603 1.524 . S
C605 C602 1.403 . S
C605 C606 1.392 . S
C605 C609 1.495 . S
C606 C605 1.392 . S
C606 C607 1.385 . S
C606 C608 1.478 . S
C607 H601 0.930 . S
C607 C603 1.400 . S
C607 C606 1.385 . S
C608 C606 1.478 . S
C608 C610 1.381 . S
C608 C614 1.383 . S
C609 C605 1.495 . S
C609 H615 0.959 . S
C609 H616 0.961 . S
C609 H617 0.960 . S
C610 C608 1.381 . S
C610 C611 1.394 . S
C610 H618 0.930 . S
C611 C610 1.394 . S
C611 C612 1.383 . S
C611 H619 0.929 . S
C612 C611 1.383 . S
C612 C613 1.377 . S
C613 H597 0.930 . S
C613 C612 1.377 . S
C613 C614 1.379 . S
C614 H598 0.931 . S
C614 C608 1.383 . S
C614 C613 1.379 . S
H615 C609 0.959 . S
H616 C609 0.961 . S
H617 C609 0.960 . S
H618 C610 0.930 . S
H619 C611 0.929 . S
H620 C628 0.929 . S
H621 C630 0.930 . S
H622 C632 0.930 . S
H623 C635 0.929 . S
H624 C638 0.930 . S
H625 C640 0.960 . S
H626 C640 0.960 . S
H627 C640 0.960 . S
C628 H620 0.929 . S
C628 C629 1.377 . S
C628 C630 1.384 . S
C629 C628 1.377 . S
C629 C635 1.390 . S
C630 H621 0.930 . S
C630 C628 1.384 . S
C630 C631 1.372 . S
C631 C630 1.372 . S
C631 C632 1.400 . S
C631 C636 1.490 . S
C632 H622 0.930 . S
C632 C631 1.400 . S
C632 C635 1.386 . S
H633 C649 0.930 . S
H634 C650 0.931 . S
C635 H623 0.929 . S
C635 C629 1.390 . S
C635 C632 1.386 . S
C636 C631 1.490 . S
C636 C638 1.395 . S
C636 C639 1.403 . S
H637 C643 0.930 . S
C638 H624 0.930 . S
C638 C636 1.395 . S
C638 C641 1.403 1_554 S
C639 C636 1.403 . S
C639 C640 1.524 . S
C639 C643 1.400 1_554 S
C640 H625 0.960 . S
C640 H626 0.960 . S
C640 H627 0.960 . S
C640 C639 1.524 . S
C641 C638 1.403 1_556 S
C641 C642 1.392 . S
C641 C645 1.495 . S
C642 C641 1.392 . S
C642 C643 1.385 . S
C642 C644 1.478 . S
C643 H637 0.930 . S
C643 C639 1.400 1_556 S
C643 C642 1.385 . S
C644 C642 1.478 . S
C644 C646 1.381 . S
C644 C650 1.383 . S
C645 C641 1.495 . S
C645 H651 0.959 . S
C645 H652 0.961 . S
C645 H653 0.960 . S
C646 C644 1.381 . S
C646 C647 1.394 . S
C646 H654 0.930 . S
C647 C646 1.394 . S
C647 C648 1.383 . S
C647 H655 0.929 . S
C648 C647 1.383 . S
C648 C649 1.377 . S
C649 H633 0.930 . S
C649 C648 1.377 . S
C649 C650 1.379 . S
C650 H634 0.931 . S
C650 C644 1.383 . S
C650 C649 1.379 . S
H651 C645 0.959 . S
H652 C645 0.961 . S
H653 C645 0.960 . S
H654 C646 0.930 . S
H655 C647 0.929 . S
H656 C664 0.929 . S
H657 C666 0.930 . S
H658 C668 0.930 . S
H659 C671 0.929 . S
H660 C674 0.930 . S
H661 C676 0.960 . S
H662 C676 0.960 . S
H663 C676 0.960 . S
C664 H656 0.929 . S
C664 C665 1.377 . S
C664 C666 1.384 . S
C665 C664 1.377 . S
C665 C671 1.390 . S
C666 H657 0.930 . S
C666 C664 1.384 . S
C666 C667 1.372 . S
C667 C666 1.372 . S
C667 C668 1.400 . S
C667 C672 1.490 . S
C668 H658 0.930 . S
C668 C667 1.400 . S
C668 C671 1.386 . S
H669 C685 0.930 . S
H670 C686 0.931 . S
C671 H659 0.929 . S
C671 C665 1.390 . S
C671 C668 1.386 . S
C672 C667 1.490 . S
C672 C674 1.395 . S
C672 C675 1.403 . S
H673 C679 0.930 . S
C674 H660 0.930 . S
C674 C672 1.395 . S
C674 C677 1.403 1_554 S
C675 C672 1.403 . S
C675 C676 1.524 . S
C675 C679 1.400 1_554 S
C676 H661 0.960 . S
C676 H662 0.960 . S
C676 H663 0.960 . S
C676 C675 1.524 . S
C677 C674 1.403 1_556 S
C677 C678 1.392 . S
C677 C681 1.495 . S
C678 C677 1.392 . S
C678 C679 1.385 . S
C678 C680 1.478 . S
C679 H673 0.930 . S
C679 C675 1.400 1_556 S
C679 C678 1.385 . S
C680 C678 1.478 . S
C680 C682 1.381 . S
C680 C686 1.383 . S
C681 C677 1.495 . S
C681 H687 0.959 . S
C681 H688 0.961 . S
C681 H689 0.960 . S
C682 C680 1.381 . S
C682 C683 1.394 . S
C682 H690 0.930 . S
C683 C682 1.394 . S
C683 C684 1.383 . S
C683 H691 0.929 . S
C684 C683 1.383 . S
C684 C685 1.377 . S
C685 H669 0.930 . S
C685 C684 1.377 . S
C685 C686 1.379 . S
C686 H670 0.931 . S
C686 C680 1.383 . S
C686 C685 1.379 . S
H687 C681 0.959 . S
H688 C681 0.961 . S
H689 C681 0.960 . S
H690 C682 0.930 . S
H691 C683 0.929 . S
H692 C700 0.929 . S
H693 C702 0.930 . S
H694 C704 0.930 . S
H695 C707 0.929 . S
H696 C710 0.930 . S
H697 C712 0.960 . S
H698 C712 0.960 . S
H699 C712 0.960 . S
C700 H692 0.929 . S
C700 C701 1.377 . S
C700 C702 1.384 . S
C701 C700 1.377 . S
C701 C707 1.390 . S
C702 H693 0.930 . S
C702 C700 1.384 . S
C702 C703 1.372 . S
C703 C702 1.372 . S
C703 C704 1.400 . S
C703 C708 1.490 . S
C704 H694 0.930 . S
C704 C703 1.400 . S
C704 C707 1.386 . S
H705 C721 0.930 . S
H706 C722 0.931 . S
C707 H695 0.929 . S
C707 C701 1.390 . S
C707 C704 1.386 . S
C708 C703 1.490 . S
C708 C710 1.395 . S
C708 C711 1.403 . S
H709 C715 0.930 . S
C710 H696 0.930 . S
C710 C708 1.395 . S
C710 C713 1.403 . S
C711 C708 1.403 . S
C711 C712 1.524 . S
C711 C715 1.400 . S
C712 H697 0.960 . S
C712 H698 0.960 . S
C712 H699 0.960 . S
C712 C711 1.524 . S
C713 C710 1.403 . S
C713 C714 1.392 . S
C713 C717 1.495 . S
C714 C713 1.392 . S
C714 C715 1.385 . S
C714 C716 1.478 . S
C715 H709 0.930 . S
C715 C711 1.400 . S
C715 C714 1.385 . S
C716 C714 1.478 . S
C716 C718 1.381 . S
C716 C722 1.383 . S
C717 C713 1.495 . S
C717 H723 0.959 . S
C717 H724 0.961 . S
C717 H725 0.960 . S
C718 C716 1.381 . S
C718 C719 1.394 . S
C718 H726 0.930 . S
C719 C718 1.394 . S
C719 C720 1.383 . S
C719 H727 0.929 . S
C720 C719 1.383 . S
C720 C721 1.377 . S
C721 H705 0.930 . S
C721 C720 1.377 . S
C721 C722 1.379 . S
C722 H706 0.931 . S
C722 C716 1.383 . S
C722 C721 1.379 . S
H723 C717 0.959 . S
H724 C717 0.961 . S
H725 C717 0.960 . S
H726 C718 0.930 . S
H727 C719 0.929 . S
H728 C736 0.929 . S
H729 C738 0.930 . S
H730 C740 0.930 . S
H731 C743 0.929 . S
H732 C746 0.930 . S
H733 C748 0.960 . S
H734 C748 0.960 . S
H735 C748 0.960 . S
C736 H728 0.929 . S
C736 C737 1.377 . S
C736 C738 1.384 . S
C737 C736 1.377 . S
C737 C743 1.390 . S
C738 H729 0.930 . S
C738 C736 1.384 . S
C738 C739 1.372 . S
C739 C738 1.372 . S
C739 C740 1.400 . S
C739 C744 1.490 . S
C740 H730 0.930 . S
C740 C739 1.400 . S
C740 C743 1.386 . S
H741 C757 0.930 . S
H742 C758 0.931 . S
C743 H731 0.929 . S
C743 C737 1.390 . S
C743 C740 1.386 . S
C744 C739 1.490 . S
C744 C746 1.395 . S
C744 C747 1.403 . S
H745 C751 0.930 . S
C746 H732 0.930 . S
C746 C744 1.395 . S
C746 C749 1.403 . S
C747 C744 1.403 . S
C747 C748 1.524 . S
C747 C751 1.400 . S
C748 H733 0.960 . S
C748 H734 0.960 . S
C748 H735 0.960 . S
C748 C747 1.524 . S
C749 C746 1.403 . S
C749 C750 1.392 . S
C749 C753 1.495 . S
C750 C749 1.392 . S
C750 C751 1.385 . S
C750 C752 1.478 . S
C751 H745 0.930 . S
C751 C747 1.400 . S
C751 C750 1.385 . S
C752 C750 1.478 . S
C752 C754 1.381 . S
C752 C758 1.383 . S
C753 C749 1.495 . S
C753 H759 0.959 . S
C753 H760 0.961 . S
C753 H761 0.960 . S
C754 C752 1.381 . S
C754 C755 1.394 . S
C754 H762 0.930 . S
C755 C754 1.394 . S
C755 C756 1.383 . S
C755 H763 0.929 . S
C756 C755 1.383 . S
C756 C757 1.377 . S
C757 H741 0.930 . S
C757 C756 1.377 . S
C757 C758 1.379 . S
C758 H742 0.931 . S
C758 C752 1.383 . S
C758 C757 1.379 . S
H759 C753 0.959 . S
H760 C753 0.961 . S
H761 C753 0.960 . S
H762 C754 0.930 . S
H763 C755 0.929 . S
H764 C772 0.929 . S
H765 C774 0.930 . S
H766 C776 0.930 . S
H767 C779 0.929 . S
H768 C782 0.930 . S
H769 C784 0.960 . S
H770 C784 0.960 . S
H771 C784 0.960 . S
C772 H764 0.929 . S
C772 C773 1.377 . S
C772 C774 1.384 . S
C773 C772 1.377 . S
C773 C779 1.390 . S
C774 H765 0.930 . S
C774 C772 1.384 . S
C774 C775 1.372 . S
C775 C774 1.372 . S
C775 C776 1.400 . S
C775 C780 1.490 . S
C776 H766 0.930 . S
C776 C775 1.400 . S
C776 C779 1.386 . S
H777 C793 0.930 . S
H778 C794 0.931 . S
C779 H767 0.929 . S
C779 C773 1.390 . S
C779 C776 1.386 . S
C780 C775 1.490 . S
C780 C782 1.395 . S
C780 C783 1.403 . S
H781 C787 0.930 . S
C782 H768 0.930 . S
C782 C780 1.395 . S
C782 C785 1.403 . S
C783 C780 1.403 . S
C783 C784 1.524 . S
C783 C787 1.400 . S
C784 H769 0.960 . S
C784 H770 0.960 . S
C784 H771 0.960 . S
C784 C783 1.524 . S
C785 C782 1.403 . S
C785 C786 1.392 . S
C785 C789 1.495 . S
C786 C785 1.392 . S
C786 C787 1.385 . S
C786 C788 1.478 . S
C787 H781 0.930 . S
C787 C783 1.400 . S
C787 C786 1.385 . S
C788 C786 1.478 . S
C788 C790 1.381 . S
C788 C794 1.383 . S
C789 C785 1.495 . S
C789 H795 0.959 . S
C789 H796 0.961 . S
C789 H797 0.960 . S
C790 C788 1.381 . S
C790 C791 1.394 . S
C790 H798 0.930 . S
C791 C790 1.394 . S
C791 C792 1.383 . S
C791 H799 0.929 . S
C792 C791 1.383 . S
C792 C793 1.377 . S
C793 H777 0.930 . S
C793 C792 1.377 . S
C793 C794 1.379 . S
C794 H778 0.931 . S
C794 C788 1.383 . S
C794 C793 1.379 . S
H795 C789 0.959 . S
H796 C789 0.961 . S
H797 C789 0.960 . S
H798 C790 0.930 . S
H799 C791 0.929 . S
H800 C808 0.929 . S
H801 C810 0.930 . S
H802 C812 0.930 . S
H803 C815 0.929 . S
H804 C818 0.930 . S
H805 C820 0.960 . S
H806 C820 0.960 1_455 S
H807 C820 0.960 1_455 S
C808 H800 0.929 . S
C808 C809 1.377 . S
C808 C810 1.384 . S
C809 C808 1.377 . S
C809 C815 1.390 . S
C810 H801 0.930 . S
C810 C808 1.384 . S
C810 C811 1.372 . S
C811 C810 1.372 . S
C811 C812 1.400 . S
C811 C816 1.490 . S
C812 H802 0.930 . S
C812 C811 1.400 . S
C812 C815 1.386 . S
H813 C829 0.930 . S
H814 C830 0.931 . S
C815 H803 0.929 . S
C815 C809 1.390 . S
C815 C812 1.386 . S
C816 C811 1.490 . S
C816 C818 1.395 1_545 S
C816 C819 1.403 . S
H817 C823 0.930 . S
C818 H804 0.930 . S
C818 C816 1.395 1_565 S
C818 C821 1.403 . S
C819 C816 1.403 . S
C819 C820 1.524 1_455 S
C819 C823 1.400 1_455 S
C820 H805 0.960 . S
C820 H806 0.960 1_655 S
C820 H807 0.960 1_655 S
C820 C819 1.524 1_655 S
C821 C818 1.403 . S
C821 C822 1.392 1_455 S
C821 C825 1.495 . S
C822 C821 1.392 1_655 S
C822 C823 1.385 1_565 S
C822 C824 1.478 . S
C823 H817 0.930 . S
C823 C819 1.400 1_655 S
C823 C822 1.385 1_545 S
C824 C822 1.478 . S
C824 C826 1.381 . S
C824 C830 1.383 . S
C825 C821 1.495 . S
C825 H831 0.959 . S
C825 H832 0.961 1_455 S
C825 H833 0.960 1_455 S
C826 C824 1.381 . S
C826 C827 1.394 . S
C826 H834 0.930 . S
C827 C826 1.394 . S
C827 C828 1.383 . S
C827 H835 0.929 . S
C828 C827 1.383 . S
C828 C829 1.377 . S
C829 H813 0.930 . S
C829 C828 1.377 . S
C829 C830 1.379 . S
C830 H814 0.931 . S
C830 C824 1.383 . S
C830 C829 1.379 . S
H831 C825 0.959 . S
H832 C825 0.961 1_655 S
H833 C825 0.960 1_655 S
H834 C826 0.930 . S
H835 C827 0.929 . S
H836 C844 0.929 . S
H837 C846 0.930 1_655 S
H838 C848 0.930 . S
H839 C851 0.929 . S
H840 C854 0.930 . S
H841 C856 0.960 . S
H842 C856 0.960 . S
H843 C856 0.960 . S
C844 H836 0.929 . S
C844 C845 1.377 . S
C844 C846 1.384 . S
C845 C844 1.377 . S
C845 C851 1.390 . S
C846 H837 0.930 1_455 S
C846 C844 1.384 . S
C846 C847 1.372 . S
C847 C846 1.372 . S
C847 C848 1.400 . S
C847 C852 1.490 . S
C848 H838 0.930 . S
C848 C847 1.400 . S
C848 C851 1.386 . S
H849 C865 0.930 . S
H850 C866 0.931 1_455 S
C851 H839 0.929 . S
C851 C845 1.390 . S
C851 C848 1.386 . S
C852 C847 1.490 . S
C852 C854 1.395 1_455 S
C852 C855 1.403 . S
H853 C859 0.930 . S
C854 H840 0.930 . S
C854 C852 1.395 1_655 S
C854 C857 1.403 . S
C855 C852 1.403 . S
C855 C856 1.524 . S
C855 C859 1.400 . S
C856 H841 0.960 . S
C856 H842 0.960 . S
C856 H843 0.960 . S
C856 C855 1.524 . S
C857 C854 1.403 . S
C857 C858 1.392 . S
C857 C861 1.495 . S
C858 C857 1.392 . S
C858 C859 1.385 1_655 S
C858 C860 1.478 . S
C859 H853 0.930 . S
C859 C855 1.400 . S
C859 C858 1.385 1_455 S
C860 C858 1.478 . S
C860 C862 1.381 . S
C860 C866 1.383 . S
C861 C857 1.495 . S
C861 H867 0.959 . S
C861 H868 0.961 . S
C861 H869 0.960 . S
C862 C860 1.381 . S
C862 C863 1.394 . S
C862 H870 0.930 . S
C863 C862 1.394 . S
C863 C864 1.383 . S
C863 H871 0.929 . S
C864 C863 1.383 . S
C864 C865 1.377 . S
C865 H849 0.930 . S
C865 C864 1.377 . S
C865 C866 1.379 . S
C866 H850 0.931 1_655 S
C866 C860 1.383 . S
C866 C865 1.379 . S
H867 C861 0.959 . S
H868 C861 0.961 . S
H869 C861 0.960 . S
H870 C862 0.930 . S
H871 C863 0.929 . S
H872 C880 0.929 . S
H873 C882 0.930 . S
H874 C884 0.930 . S
H875 C887 0.929 . S
H876 C890 0.930 . S
H877 C892 0.960 . S
H878 C892 0.960 . S
H879 C892 0.960 . S
C880 H872 0.929 . S
C880 C881 1.377 . S
C880 C882 1.384 . S
C881 C880 1.377 . S
C881 C887 1.390 . S
C882 H873 0.930 . S
C882 C880 1.384 . S
C882 C883 1.372 . S
C883 C882 1.372 . S
C883 C884 1.400 . S
C883 C888 1.490 . S
C884 H874 0.930 . S
C884 C883 1.400 . S
C884 C887 1.386 . S
H885 C901 0.930 . S
H886 C902 0.931 . S
C887 H875 0.929 . S
C887 C881 1.390 . S
C887 C884 1.386 . S
C888 C883 1.490 . S
C888 C890 1.395 . S
C888 C891 1.403 . S
H889 C895 0.930 . S
C890 H876 0.930 . S
C890 C888 1.395 . S
C890 C893 1.403 . S
C891 C888 1.403 . S
C891 C892 1.524 . S
C891 C895 1.400 . S
C892 H877 0.960 . S
C892 H878 0.960 . S
C892 H879 0.960 . S
C892 C891 1.524 . S
C893 C890 1.403 . S
C893 C894 1.392 . S
C893 C897 1.495 . S
C894 C893 1.392 . S
C894 C895 1.385 . S
C894 C896 1.478 . S
C895 H889 0.930 . S
C895 C891 1.400 . S
C895 C894 1.385 . S
C896 C894 1.478 . S
C896 C898 1.381 . S
C896 C902 1.383 . S
C897 C893 1.495 . S
C897 H903 0.959 . S
C897 H904 0.961 . S
C897 H905 0.960 . S
C898 C896 1.381 . S
C898 C899 1.394 . S
C898 H906 0.930 . S
C899 C898 1.394 . S
C899 C900 1.383 . S
C899 H907 0.929 . S
C900 C899 1.383 . S
C900 C901 1.377 . S
C901 H885 0.930 . S
C901 C900 1.377 . S
C901 C902 1.379 . S
C902 H886 0.931 . S
C902 C896 1.383 . S
C902 C901 1.379 . S
H903 C897 0.959 . S
H904 C897 0.961 . S
H905 C897 0.960 . S
H906 C898 0.930 . S
H907 C899 0.929 . S
H908 C916 0.929 . S
H909 C918 0.930 . S
H910 C920 0.930 . S
H911 C923 0.929 . S
H912 C926 0.930 . S
H913 C928 0.960 1_565 S
H914 C928 0.960 . S
H915 C928 0.960 . S
C916 H908 0.929 . S
C916 C917 1.377 . S
C916 C918 1.384 . S
C917 C916 1.377 . S
C917 C923 1.390 . S
C918 H909 0.930 . S
C918 C916 1.384 . S
C918 C919 1.372 . S
C919 C918 1.372 . S
C919 C920 1.400 . S
C919 C924 1.490 . S
C920 H910 0.930 . S
C920 C919 1.400 . S
C920 C923 1.386 . S
H921 C937 0.930 . S
H922 C938 0.931 . S
C923 H911 0.929 . S
C923 C917 1.390 . S
C923 C920 1.386 . S
C924 C919 1.490 . S
C924 C926 1.395 . S
C924 C927 1.403 . S
H925 C931 0.930 . S
C926 H912 0.930 . S
C926 C924 1.395 . S
C926 C929 1.403 1_545 S
C927 C924 1.403 . S
C927 C928 1.524 . S
C927 C931 1.400 1_545 S
C928 H913 0.960 1_545 S
C928 H914 0.960 . S
C928 H915 0.960 . S
C928 C927 1.524 . S
C929 C926 1.403 1_565 S
C929 C930 1.392 . S
C929 C933 1.495 . S
C930 C929 1.392 . S
C930 C931 1.385 . S
C930 C932 1.478 . S
C931 H925 0.930 . S
C931 C927 1.400 1_565 S
C931 C930 1.385 . S
C932 C930 1.478 . S
C932 C934 1.381 . S
C932 C938 1.383 . S
C933 C929 1.495 . S
C933 H939 0.959 1_565 S
C933 H940 0.961 . S
C933 H941 0.960 . S
C934 C932 1.381 . S
C934 C935 1.394 . S
C934 H942 0.930 . S
C935 C934 1.394 . S
C935 C936 1.383 . S
C935 H943 0.929 . S
C936 C935 1.383 . S
C936 C937 1.377 . S
C937 H921 0.930 . S
C937 C936 1.377 . S
C937 C938 1.379 . S
C938 H922 0.931 . S
C938 C932 1.383 . S
C938 C937 1.379 . S
H939 C933 0.959 1_545 S
H940 C933 0.961 . S
H941 C933 0.960 . S
H942 C934 0.930 . S
H943 C935 0.929 . S
H944 C952 0.929 . S
H945 C954 0.930 . S
H946 C956 0.930 . S
H947 C959 0.929 . S
H948 C962 0.930 . S
H949 C964 0.960 . S
H950 C964 0.960 . S
H951 C964 0.960 . S
C952 H944 0.929 . S
C952 C953 1.377 . S
C952 C954 1.384 . S
C953 C952 1.377 . S
C953 C959 1.390 . S
C954 H945 0.930 . S
C954 C952 1.384 . S
C954 C955 1.372 . S
C955 C954 1.372 . S
C955 C956 1.400 . S
C955 C960 1.490 . S
C956 H946 0.930 . S
C956 C955 1.400 . S
C956 C959 1.386 . S
H957 C973 0.930 . S
H958 C974 0.931 . S
C959 H947 0.929 . S
C959 C953 1.390 . S
C959 C956 1.386 . S
C960 C955 1.490 . S
C960 C962 1.395 . S
C960 C963 1.403 . S
H961 C967 0.930 . S
C962 H948 0.930 . S
C962 C960 1.395 . S
C962 C965 1.403 1_455 S
C963 C960 1.403 . S
C963 C964 1.524 . S
C963 C967 1.400 1_455 S
C964 H949 0.960 . S
C964 H950 0.960 . S
C964 H951 0.960 . S
C964 C963 1.524 . S
C965 C962 1.403 1_655 S
C965 C966 1.392 . S
C965 C969 1.495 . S
C966 C965 1.392 . S
C966 C967 1.385 . S
C966 C968 1.478 . S
C967 H961 0.930 . S
C967 C963 1.400 1_655 S
C967 C966 1.385 . S
C968 C966 1.478 . S
C968 C970 1.381 . S
C968 C974 1.383 . S
C969 C965 1.495 . S
C969 H975 0.959 . S
C969 H976 0.961 . S
C969 H977 0.960 . S
C970 C968 1.381 . S
C970 C971 1.394 . S
C970 H978 0.930 . S
C971 C970 1.394 . S
C971 C972 1.383 . S
C971 H979 0.929 . S
C972 C971 1.383 . S
C972 C973 1.377 . S
C973 H957 0.930 . S
C973 C972 1.377 . S
C973 C974 1.379 . S
C974 H958 0.931 . S
C974 C968 1.383 . S
C974 C973 1.379 . S
H975 C969 0.959 . S
H976 C969 0.961 . S
H977 C969 0.960 . S
H978 C970 0.930 . S
H979 C971 0.929 . S
H980 C988 0.929 . S
H981 C990 0.930 . S
H982 C992 0.930 . S
H983 C995 0.929 . S
H984 C998 0.930 . S
H985 C1000 0.960 . S
H986 C1000 0.960 . S
H987 C1000 0.960 . S
C988 H980 0.929 . S
C988 C989 1.377 . S
C988 C990 1.384 . S
C989 C988 1.377 . S
C989 C995 1.390 . S
C990 H981 0.930 . S
C990 C988 1.384 . S
C990 C991 1.372 . S
C991 C990 1.372 . S
C991 C992 1.400 . S
C991 C996 1.490 . S
C992 H982 0.930 . S
C992 C991 1.400 . S
C992 C995 1.386 . S
H993 C1009 0.930 . S
H994 C1010 0.931 . S
C995 H983 0.929 . S
C995 C989 1.390 . S
C995 C992 1.386 . S
C996 C991 1.490 . S
C996 C998 1.395 . S
C996 C999 1.403 . S
H997 C1003 0.930 . S
C998 H984 0.930 . S
C998 C996 1.395 . S
C998 C1001 1.403 . S
C999 C996 1.403 . S
C999 C1000 1.524 . S
C999 C1003 1.400 . S
C1000 H985 0.960 . S
C1000 H986 0.960 . S
C1000 H987 0.960 . S
C1000 C999 1.524 . S
C1001 C998 1.403 . S
C1001 C1002 1.392 . S
C1001 C1005 1.495 . S
C1002 C1001 1.392 . S
C1002 C1003 1.385 . S
C1002 C1004 1.478 . S
C1003 H997 0.930 . S
C1003 C999 1.400 . S
C1003 C1002 1.385 . S
C1004 C1002 1.478 . S
C1004 C1006 1.381 . S
C1004 C1010 1.383 . S
C1005 C1001 1.495 . S
C1005 H1011 0.959 . S
C1005 H1012 0.961 . S
C1005 H1013 0.960 . S
C1006 C1004 1.381 . S
C1006 C1007 1.394 . S
C1006 H1014 0.930 . S
C1007 C1006 1.394 . S
C1007 C1008 1.383 . S
C1007 H1015 0.929 . S
C1008 C1007 1.383 . S
C1008 C1009 1.377 . S
C1009 H993 0.930 . S
C1009 C1008 1.377 . S
C1009 C1010 1.379 . S
C1010 H994 0.931 . S
C1010 C1004 1.383 . S
C1010 C1009 1.379 . S
H1011 C1005 0.959 . S
H1012 C1005 0.961 . S
H1013 C1005 0.960 . S
H1014 C1006 0.930 . S
H1015 C1007 0.929 . S
H1016 C1024 0.929 . S
H1017 C1026 0.905 1_545 S
H1018 C1028 0.930 . S
H1019 C1031 0.929 . S
H1020 C1034 0.930 . S
H1021 C1036 0.960 . S
H1022 C1036 0.960 . S
H1023 C1036 0.960 . S
C1024 H1016 0.929 . S
C1024 C1025 1.377 . S
C1024 C1026 1.384 . S
C1025 C1024 1.377 . S
C1025 C1031 1.390 . S
C1026 H1017 0.905 1_565 S
C1026 C1024 1.384 . S
C1026 C1027 1.372 . S
C1027 C1026 1.372 . S
C1027 C1028 1.400 . S
C1027 C1032 1.490 . S
C1028 H1018 0.930 . S
C1028 C1027 1.400 . S
C1028 C1031 1.386 . S
H1029 C1045 0.930 . S
H1030 C1046 0.931 . S
C1031 H1019 0.929 . S
C1031 C1025 1.390 . S
C1031 C1028 1.386 . S
C1032 C1027 1.490 . S
C1032 C1034 1.395 1_565 S
C1032 C1035 1.403 . S
H1033 C1039 0.930 . S
C1034 H1020 0.930 . S
C1034 C1032 1.395 1_545 S
C1034 C1037 1.403 . S
C1035 C1032 1.403 . S
C1035 C1036 1.524 . S
C1035 C1039 1.400 . S
C1036 H1021 0.960 . S
C1036 H1022 0.960 . S
C1036 H1023 0.960 . S
C1036 C1035 1.524 . S
C1037 C1034 1.403 . S
C1037 C1038 1.392 . S
C1037 C1041 1.495 . S
C1038 C1037 1.392 . S
C1038 C1039 1.385 1_545 S
C1038 C1040 1.478 . S
C1039 H1033 0.930 . S
C1039 C1035 1.400 . S
C1039 C1038 1.385 1_565 S
C1040 C1038 1.478 . S
C1040 C1042 1.381 . S
C1040 C1046 1.383 . S
C1041 C1037 1.495 . S
C1041 H1047 0.959 . S
C1041 H1048 0.961 . S
C1041 H1049 0.960 . S
C1042 C1040 1.381 . S
C1042 C1043 1.394 . S
C1042 H1050 0.930 . S
C1043 C1042 1.394 . S
C1043 C1044 1.383 . S
C1043 H1051 0.929 . S
C1044 C1043 1.383 . S
C1044 C1045 1.377 . S
C1045 H1029 0.930 . S
C1045 C1044 1.377 . S
C1045 C1046 1.379 . S
C1046 H1030 0.931 . S
C1046 C1040 1.383 . S
C1046 C1045 1.379 . S
H1047 C1041 0.959 . S
H1048 C1041 0.961 . S
H1049 C1041 0.960 . S
H1050 C1042 0.930 . S
H1051 C1043 0.929 . S
H1052 C1060 0.929 . S
H1053 C1062 0.930 . S
H1054 C1064 0.930 1_655 S
H1055 C1067 0.929 . S
H1056 C1070 0.930 . S
H1057 C1072 0.960 1_655 S
H1058 C1072 0.960 . S
H1059 C1072 0.960 1_655 S
C1060 H1052 0.929 . S
C1060 C1061 1.377 . S
C1060 C1062 1.384 . S
C1061 C1060 1.377 . S
C1061 C1067 1.390 . S
C1062 H1053 0.930 . S
C1062 C1060 1.384 . S
C1062 C1063 1.372 . S
C1063 C1062 1.372 . S
C1063 C1064 1.400 . S
C1063 C1068 1.490 . S
C1064 H1054 0.930 1_455 S
C1064 C1063 1.400 . S
C1064 C1067 1.386 . S
H1065 C1081 0.930 . S
H1066 C1082 0.931 . S
C1067 H1055 0.929 . S
C1067 C1061 1.390 . S
C1067 C1064 1.386 . S
C1068 C1063 1.490 . S
C1068 C1070 1.395 . S
C1068 C1071 1.403 . S
H1069 C1075 0.930 . S
C1070 H1056 0.930 . S
C1070 C1068 1.395 . S
C1070 C1073 1.400 1_445 S
C1071 C1068 1.403 . S
C1071 C1072 1.524 . S
C1071 C1075 1.400 1_445 S
C1072 H1057 0.960 1_455 S
C1072 H1058 0.960 . S
C1072 H1059 0.960 1_455 S
C1072 C1071 1.524 . S
C1073 C1070 1.400 1_665 S
C1073 C1074 1.395 . S
C1073 C1077 1.496 . S
C1074 C1073 1.395 . S
C1074 C1075 1.385 . S
C1074 C1076 1.478 . S
C1075 H1069 0.930 . S
C1075 C1071 1.400 1_665 S
C1075 C1074 1.385 . S
C1076 C1074 1.478 . S
C1076 C1078 1.381 . S
C1076 C1082 1.383 . S
C1077 C1073 1.496 . S
C1077 H1083 0.959 1_655 S
C1077 H1084 0.961 . S
C1077 H1085 0.960 1_655 S
C1078 C1076 1.381 . S
C1078 C1079 1.394 . S
C1078 H1086 0.930 1_655 S
C1079 C1078 1.394 . S
C1079 C1080 1.383 . S
C1079 H1087 0.929 . S
C1080 C1079 1.383 . S
C1080 C1081 1.377 . S
C1081 H1065 0.930 . S
C1081 C1080 1.377 . S
C1081 C1082 1.379 . S
C1082 H1066 0.931 . S
C1082 C1076 1.383 . S
C1082 C1081 1.379 . S
H1083 C1077 0.959 1_455 S
H1084 C1077 0.961 . S
H1085 C1077 0.960 1_455 S
H1086 C1078 0.930 1_455 S
H1087 C1079 0.929 . S
H1088 C1096 0.929 . S
H1089 C1098 0.930 . S
H1090 C1100 0.930 . S
H1091 C1103 0.929 . S
H1092 C1106 0.930 . S
H1093 C1108 0.960 . S
H1094 C1108 0.960 . S
H1095 C1108 0.960 . S
C1096 H1088 0.929 . S
C1096 C1097 1.377 . S
C1096 C1098 1.384 . S
C1097 C1096 1.377 . S
C1097 C1103 1.390 . S
C1098 H1089 0.930 . S
C1098 C1096 1.384 . S
C1098 C1099 1.372 . S
C1099 C1098 1.372 . S
C1099 C1100 1.400 . S
C1099 C1104 1.490 . S
C1100 H1090 0.930 . S
C1100 C1099 1.400 . S
C1100 C1103 1.386 . S
H1101 C1117 0.930 . S
H1102 C1118 0.931 . S
C1103 H1091 0.929 . S
C1103 C1097 1.390 . S
C1103 C1100 1.386 . S
C1104 C1099 1.490 . S
C1104 C1106 1.395 . S
C1104 C1107 1.403 1_565 S
H1105 C1111 0.930 . S
C1106 H1092 0.930 . S
C1106 C1104 1.395 . S
C1106 C1109 1.403 . S
C1107 C1104 1.403 1_545 S
C1107 C1108 1.524 . S
C1107 C1111 1.400 . S
C1108 H1093 0.960 . S
C1108 H1094 0.960 . S
C1108 H1095 0.960 . S
C1108 C1107 1.524 . S
C1109 C1106 1.403 . S
C1109 C1110 1.392 1_565 S
C1109 C1113 1.495 . S
C1110 C1109 1.392 1_545 S
C1110 C1111 1.385 . S
C1110 C1112 1.478 . S
C1111 H1105 0.930 . S
C1111 C1107 1.400 . S
C1111 C1110 1.385 . S
C1112 C1110 1.478 . S
C1112 C1114 1.381 . S
C1112 C1118 1.383 . S
C1113 C1109 1.495 . S
C1113 H1119 0.959 . S
C1113 H1120 0.961 . S
C1113 H1121 0.960 . S
C1114 C1112 1.381 . S
C1114 C1115 1.394 . S
C1114 H1122 0.930 . S
C1115 C1114 1.394 . S
C1115 C1116 1.383 . S
C1115 H1123 0.929 . S
C1116 C1115 1.383 . S
C1116 C1117 1.377 . S
C1117 H1101 0.930 . S
C1117 C1116 1.377 . S
C1117 C1118 1.379 . S
C1118 H1102 0.931 . S
C1118 C1112 1.383 . S
C1118 C1117 1.379 . S
H1119 C1113 0.959 . S
H1120 C1113 0.961 . S
H1121 C1113 0.960 . S
H1122 C1114 0.930 . S
H1123 C1115 0.929 . S
H1124 C1132 0.929 . S
H1125 C1134 0.930 . S
H1126 C1136 0.930 1_455 S
H1127 C1139 0.929 . S
H1128 C1142 0.930 . S
H1129 C1144 0.960 . S
H1130 C1144 0.960 . S
H1131 C1144 0.960 . S
C1132 H1124 0.929 . S
C1132 C1133 1.377 . S
C1132 C1134 1.384 . S
C1133 C1132 1.377 . S
C1133 C1139 1.390 . S
C1134 H1125 0.930 . S
C1134 C1132 1.384 . S
C1134 C1135 1.372 . S
C1135 C1134 1.372 . S
C1135 C1136 1.400 . S
C1135 C1140 1.490 . S
C1136 H1126 0.930 1_655 S
C1136 C1135 1.400 . S
C1136 C1139 1.386 . S
H1137 C1153 0.930 . S
H1138 C1154 0.931 . S
C1139 H1127 0.929 . S
C1139 C1133 1.390 . S
C1139 C1136 1.386 . S
C1140 C1135 1.490 . S
C1140 C1142 1.395 . S
C1140 C1143 1.403 1_655 S
H1141 C1147 0.930 . S
C1142 H1128 0.930 . S
C1142 C1140 1.395 . S
C1142 C1145 1.403 1_565 S
C1143 C1140 1.403 1_455 S
C1143 C1144 1.524 . S
C1143 C1147 1.400 1_565 S
C1144 H1129 0.960 . S
C1144 H1130 0.960 . S
C1144 H1131 0.960 . S
C1144 C1143 1.524 . S
C1145 C1142 1.403 1_545 S
C1145 C1146 1.392 1_655 S
C1145 C1149 1.495 . S
C1146 C1145 1.392 1_455 S
C1146 C1147 1.385 . S
C1146 C1148 1.478 . S
C1147 H1141 0.930 . S
C1147 C1143 1.400 1_545 S
C1147 C1146 1.385 . S
C1148 C1146 1.478 . S
C1148 C1150 1.381 . S
C1148 C1154 1.383 . S
C1149 C1145 1.495 . S
C1149 H1155 0.959 . S
C1149 H1156 0.961 . S
C1149 H1157 0.960 . S
C1150 C1148 1.381 . S
C1150 C1151 1.394 . S
C1150 H1158 0.930 1_455 S
C1151 C1150 1.394 . S
C1151 C1152 1.383 . S
C1151 H1159 0.929 . S
C1152 C1151 1.383 . S
C1152 C1153 1.377 . S
C1153 H1137 0.930 . S
C1153 C1152 1.377 . S
C1153 C1154 1.379 . S
C1154 H1138 0.931 . S
C1154 C1148 1.383 . S
C1154 C1153 1.379 . S
H1155 C1149 0.959 . S
H1156 C1149 0.961 . S
H1157 C1149 0.960 . S
H1158 C1150 0.930 1_655 S
H1159 C1151 0.929 . S
H1160 C1168 0.929 . S
H1161 C1170 0.930 . S
H1162 C1172 0.930 . S
H1163 C1175 0.929 . S
H1164 C1178 0.930 . S
H1165 C1180 0.960 . S
H1166 C1180 0.960 . S
H1167 C1180 0.960 . S
C1168 H1160 0.929 . S
C1168 C1169 1.377 . S
C1168 C1170 1.384 . S
C1169 C1168 1.377 . S
C1169 C1175 1.390 . S
C1170 H1161 0.930 . S
C1170 C1168 1.384 . S
C1170 C1171 1.372 . S
C1171 C1170 1.372 . S
C1171 C1172 1.400 . S
C1171 C1176 1.490 . S
C1172 H1162 0.930 . S
C1172 C1171 1.400 . S
C1172 C1175 1.386 . S
H1173 C1189 0.930 . S
H1174 C1190 0.931 . S
C1175 H1163 0.929 . S
C1175 C1169 1.390 . S
C1175 C1172 1.386 . S
C1176 C1171 1.490 . S
C1176 C1178 1.395 . S
C1176 C1179 1.403 . S
H1177 C1183 0.930 . S
C1178 H1164 0.930 . S
C1178 C1176 1.395 . S
C1178 C1181 1.403 1_455 S
C1179 C1176 1.403 . S
C1179 C1180 1.524 . S
C1179 C1183 1.400 1_455 S
C1180 H1165 0.960 . S
C1180 H1166 0.960 . S
C1180 H1167 0.960 . S
C1180 C1179 1.524 . S
C1181 C1178 1.403 1_655 S
C1181 C1182 1.392 . S
C1181 C1185 1.495 . S
C1182 C1181 1.392 . S
C1182 C1183 1.385 . S
C1182 C1184 1.478 . S
C1183 H1177 0.930 . S
C1183 C1179 1.400 1_655 S
C1183 C1182 1.385 . S
C1184 C1182 1.478 . S
C1184 C1186 1.381 . S
C1184 C1190 1.383 . S
C1185 C1181 1.495 . S
C1185 H1191 0.959 . S
C1185 H1192 0.961 . S
C1185 H1193 0.960 . S
C1186 C1184 1.381 . S
C1186 C1187 1.394 . S
C1186 H1194 0.930 . S
C1187 C1186 1.394 . S
C1187 C1188 1.383 . S
C1187 H1195 0.929 . S
C1188 C1187 1.383 . S
C1188 C1189 1.377 . S
C1189 H1173 0.930 . S
C1189 C1188 1.377 . S
C1189 C1190 1.379 . S
C1190 H1174 0.931 . S
C1190 C1184 1.383 . S
C1190 C1189 1.379 . S
H1191 C1185 0.959 . S
H1192 C1185 0.961 . S
H1193 C1185 0.960 . S
H1194 C1186 0.930 . S
H1195 C1187 0.929 . S
H1196 C1204 0.929 . S
H1197 C1206 0.930 . S
H1198 C1208 0.930 . S
H1199 C1211 0.929 . S
H1200 C1214 0.930 . S
H1201 C1216 0.960 . S
H1202 C1216 0.960 . S
H1203 C1216 0.960 . S
C1204 H1196 0.929 . S
C1204 C1205 1.377 . S
C1204 C1206 1.384 . S
C1205 C1204 1.377 . S
C1205 C1211 1.390 . S
C1206 H1197 0.930 . S
C1206 C1204 1.384 . S
C1206 C1207 1.372 . S
C1207 C1206 1.372 . S
C1207 C1208 1.400 . S
C1207 C1212 1.490 . S
C1208 H1198 0.930 . S
C1208 C1207 1.400 . S
C1208 C1211 1.386 . S
H1209 C1225 0.930 . S
H1210 C1226 0.931 . S
C1211 H1199 0.929 . S
C1211 C1205 1.390 . S
C1211 C1208 1.386 . S
C1212 C1207 1.490 . S
C1212 C1214 1.395 . S
C1212 C1215 1.403 . S
H1213 C1219 0.930 . S
C1214 H1200 0.930 . S
C1214 C1212 1.395 . S
C1214 C1217 1.403 . S
C1215 C1212 1.403 . S
C1215 C1216 1.524 . S
C1215 C1219 1.400 . S
C1216 H1201 0.960 . S
C1216 H1202 0.960 . S
C1216 H1203 0.960 . S
C1216 C1215 1.524 . S
C1217 C1214 1.403 . S
C1217 C1218 1.392 . S
C1217 C1221 1.495 . S
C1218 C1217 1.392 . S
C1218 C1219 1.385 . S
C1218 C1220 1.478 . S
C1219 H1213 0.930 . S
C1219 C1215 1.400 . S
C1219 C1218 1.385 . S
C1220 C1218 1.478 . S
C1220 C1222 1.381 . S
C1220 C1226 1.383 . S
C1221 C1217 1.495 . S
C1221 H1227 0.959 . S
C1221 H1228 0.961 . S
C1221 H1229 0.960 . S
C1222 C1220 1.381 . S
C1222 C1223 1.394 . S
C1222 H1230 0.930 . S
C1223 C1222 1.394 . S
C1223 C1224 1.383 . S
C1223 H1231 0.929 . S
C1224 C1223 1.383 . S
C1224 C1225 1.377 . S
C1225 H1209 0.930 . S
C1225 C1224 1.377 . S
C1225 C1226 1.379 . S
C1226 H1210 0.931 . S
C1226 C1220 1.383 . S
C1226 C1225 1.379 . S
H1227 C1221 0.959 . S
H1228 C1221 0.961 . S
H1229 C1221 0.960 . S
H1230 C1222 0.930 . S
H1231 C1223 0.929 . S
H1232 C1240 0.929 . S
H1233 C1242 0.930 . S
H1234 C1244 0.930 . S
H1235 C1247 0.929 . S
H1236 C1250 0.930 . S
H1237 C1252 0.960 . S
H1238 C1252 0.960 . S
H1239 C1252 0.960 . S
C1240 H1232 0.929 . S
C1240 C1241 1.377 . S
C1240 C1242 1.384 . S
C1241 C1240 1.377 . S
C1241 C1247 1.390 . S
C1242 H1233 0.930 . S
C1242 C1240 1.384 . S
C1242 C1243 1.372 . S
C1243 C1242 1.372 . S
C1243 C1244 1.400 . S
C1243 C1248 1.490 . S
C1244 H1234 0.930 . S
C1244 C1243 1.400 . S
C1244 C1247 1.386 . S
H1245 C1261 0.930 . S
H1246 C1262 0.931 . S
C1247 H1235 0.929 . S
C1247 C1241 1.390 . S
C1247 C1244 1.386 . S
C1248 C1243 1.490 . S
C1248 C1250 1.395 . S
C1248 C1251 1.403 . S
H1249 C1255 0.930 . S
C1250 H1236 0.930 . S
C1250 C1248 1.395 . S
C1250 C1253 1.403 . S
C1251 C1248 1.403 . S
C1251 C1252 1.524 . S
C1251 C1255 1.400 . S
C1252 H1237 0.960 . S
C1252 H1238 0.960 . S
C1252 H1239 0.960 . S
C1252 C1251 1.524 . S
C1253 C1250 1.403 . S
C1253 C1254 1.392 . S
C1253 C1257 1.495 . S
C1254 C1253 1.392 . S
C1254 C1255 1.385 . S
C1254 C1256 1.478 . S
C1255 H1249 0.930 . S
C1255 C1251 1.400 . S
C1255 C1254 1.385 . S
C1256 C1254 1.478 . S
C1256 C1258 1.381 . S
C1256 C1262 1.383 . S
C1257 C1253 1.495 . S
C1257 H1263 0.959 . S
C1257 H1264 0.961 . S
C1257 H1265 0.960 . S
C1258 C1256 1.381 . S
C1258 C1259 1.394 . S
C1258 H1266 0.930 . S
C1259 C1258 1.394 . S
C1259 C1260 1.383 . S
C1259 H1267 0.929 . S
C1260 C1259 1.383 . S
C1260 C1261 1.377 . S
C1261 H1245 0.930 . S
C1261 C1260 1.377 . S
C1261 C1262 1.379 . S
C1262 H1246 0.931 . S
C1262 C1256 1.383 . S
C1262 C1261 1.379 . S
H1263 C1257 0.959 . S
H1264 C1257 0.961 . S
H1265 C1257 0.960 . S
H1266 C1258 0.930 . S
H1267 C1259 0.929 . S
H1268 C1276 0.929 . S
H1269 C1278 0.930 . S
H1270 C1280 0.930 . S
H1271 C1283 0.929 . S
H1272 C1286 0.930 . S
H1273 C1288 0.960 . S
H1274 C1288 0.960 . S
H1275 C1288 0.960 . S
C1276 H1268 0.929 . S
C1276 C1277 1.377 . S
C1276 C1278 1.384 . S
C1277 C1276 1.377 . S
C1277 C1283 1.390 . S
C1278 H1269 0.930 . S
C1278 C1276 1.384 . S
C1278 C1279 1.372 . S
C1279 C1278 1.372 . S
C1279 C1280 1.400 . S
C1279 C1284 1.490 . S
C1280 H1270 0.930 . S
C1280 C1279 1.400 . S
C1280 C1283 1.386 . S
H1281 C1297 0.930 . S
H1282 C1298 0.931 . S
C1283 H1271 0.929 . S
C1283 C1277 1.390 . S
C1283 C1280 1.386 . S
C1284 C1279 1.490 . S
C1284 C1286 1.395 . S
C1284 C1287 1.403 . S
H1285 C1291 0.930 . S
C1286 H1272 0.930 . S
C1286 C1284 1.395 . S
C1286 C1289 1.403 1_545 S
C1287 C1284 1.403 . S
C1287 C1288 1.524 . S
C1287 C1291 1.400 1_545 S
C1288 H1273 0.960 . S
C1288 H1274 0.960 . S
C1288 H1275 0.960 . S
C1288 C1287 1.524 . S
C1289 C1286 1.403 1_565 S
C1289 C1290 1.392 . S
C1289 C1293 1.495 . S
C1290 C1289 1.392 . S
C1290 C1291 1.385 . S
C1290 C1292 1.478 . S
C1291 H1285 0.930 . S
C1291 C1287 1.400 1_565 S
C1291 C1290 1.385 . S
C1292 C1290 1.478 . S
C1292 C1294 1.381 . S
C1292 C1298 1.383 . S
C1293 C1289 1.495 . S
C1293 H1299 0.959 . S
C1293 H1300 0.961 . S
C1293 H1301 0.960 . S
C1294 C1292 1.381 . S
C1294 C1295 1.394 . S
C1294 H1302 0.930 . S
C1295 C1294 1.394 . S
C1295 C1296 1.383 . S
C1295 H1303 0.929 . S
C1296 C1295 1.383 . S
C1296 C1297 1.377 . S
C1297 H1281 0.930 . S
C1297 C1296 1.377 . S
C1297 C1298 1.379 . S
C1298 H1282 0.931 . S
C1298 C1292 1.383 . S
C1298 C1297 1.379 . S
H1299 C1293 0.959 . S
H1300 C1293 0.961 . S
H1301 C1293 0.960 . S
H1302 C1294 0.930 . S
H1303 C1295 0.929 . S
H1304 C1312 0.929 . S
H1305 C1314 0.930 . S
H1306 C1316 0.930 1_545 S
H1307 C1319 0.929 . S
H1308 C1322 0.930 . S
H1309 C1324 0.960 . S
H1310 C1324 0.960 1_565 S
H1311 C1324 0.960 . S
C1312 H1304 0.929 . S
C1312 C1313 1.377 . S
C1312 C1314 1.384 . S
C1313 C1312 1.377 . S
C1313 C1319 1.390 . S
C1314 H1305 0.930 . S
C1314 C1312 1.384 . S
C1314 C1315 1.372 . S
C1315 C1314 1.372 . S
C1315 C1316 1.400 . S
C1315 C1320 1.490 . S
C1316 H1306 0.930 1_565 S
C1316 C1315 1.400 . S
C1316 C1319 1.386 . S
H1317 C1333 0.930 . S
H1318 C1334 0.931 . S
C1319 H1307 0.929 . S
C1319 C1313 1.390 . S
C1319 C1316 1.386 . S
C1320 C1315 1.490 . S
C1320 C1322 1.395 . S
C1320 C1323 1.387 1_565 S
H1321 C1327 0.930 . S
C1322 H1308 0.930 . S
C1322 C1320 1.395 . S
C1322 C1325 1.403 1_655 S
C1323 C1320 1.387 1_545 S
C1323 C1324 1.527 . S
C1323 C1327 1.413 1_655 S
C1324 H1309 0.960 . S
C1324 H1310 0.960 1_545 S
C1324 H1311 0.960 . S
C1324 C1323 1.527 . S
C1325 C1322 1.403 1_455 S
C1325 C1326 1.392 1_565 S
C1325 C1329 1.495 . S
C1326 C1325 1.392 1_545 S
C1326 C1327 1.385 . S
C1326 C1328 1.478 . S
C1327 H1321 0.930 . S
C1327 C1323 1.413 1_455 S
C1327 C1326 1.385 . S
C1328 C1326 1.478 . S
C1328 C1330 1.381 . S
C1328 C1334 1.383 . S
C1329 C1325 1.495 . S
C1329 H1335 0.959 . S
C1329 H1336 0.961 1_565 S
C1329 H1337 0.960 . S
C1330 C1328 1.381 . S
C1330 C1331 1.394 . S
C1330 H1338 0.930 1_545 S
C1331 C1330 1.394 . S
C1331 C1332 1.383 . S
C1331 H1339 0.929 . S
C1332 C1331 1.383 . S
C1332 C1333 1.377 . S
C1333 H1317 0.930 . S
C1333 C1332 1.377 . S
C1333 C1334 1.379 . S
C1334 H1318 0.931 . S
C1334 C1328 1.383 . S
C1334 C1333 1.379 . S
H1335 C1329 0.959 . S
H1336 C1329 0.961 1_545 S
H1337 C1329 0.960 . S
H1338 C1330 0.930 1_565 S
H1339 C1331 0.929 . S
H1340 C1348 0.929 . S
H1341 C1350 0.930 . S
H1342 C1352 0.930 . S
H1343 C1355 0.929 . S
H1344 C1358 0.930 . S
H1345 C1360 0.960 . S
H1346 C1360 0.960 . S
H1347 C1360 0.960 . S
C1348 H1340 0.929 . S
C1348 C1349 1.377 . S
C1348 C1350 1.384 . S
C1349 C1348 1.377 . S
C1349 C1355 1.390 . S
C1350 H1341 0.930 . S
C1350 C1348 1.384 . S
C1350 C1351 1.372 . S
C1351 C1350 1.372 . S
C1351 C1352 1.400 . S
C1351 C1356 1.490 . S
C1352 H1342 0.930 . S
C1352 C1351 1.400 . S
C1352 C1355 1.386 . S
H1353 C1369 0.930 . S
H1354 C1370 0.931 . S
C1355 H1343 0.929 . S
C1355 C1349 1.390 . S
C1355 C1352 1.386 . S
C1356 C1351 1.490 . S
C1356 C1358 1.395 . S
C1356 C1359 1.403 1_655 S
H1357 C1363 0.930 . S
C1358 H1344 0.930 . S
C1358 C1356 1.395 . S
C1358 C1361 1.403 . S
C1359 C1356 1.403 1_455 S
C1359 C1360 1.524 . S
C1359 C1363 1.400 . S
C1360 H1345 0.960 . S
C1360 H1346 0.960 . S
C1360 H1347 0.960 . S
C1360 C1359 1.524 . S
C1361 C1358 1.403 . S
C1361 C1362 1.392 1_655 S
C1361 C1365 1.495 . S
C1362 C1361 1.392 1_455 S
C1362 C1363 1.385 . S
C1362 C1364 1.478 . S
C1363 H1357 0.930 . S
C1363 C1359 1.400 . S
C1363 C1362 1.385 . S
C1364 C1362 1.478 . S
C1364 C1366 1.381 . S
C1364 C1370 1.383 . S
C1365 C1361 1.495 . S
C1365 H1371 0.959 . S
C1365 H1372 0.961 . S
C1365 H1373 0.960 . S
C1366 C1364 1.381 . S
C1366 C1367 1.394 . S
C1366 H1374 0.930 . S
C1367 C1366 1.394 . S
C1367 C1368 1.383 . S
C1367 H1375 0.929 . S
C1368 C1367 1.383 . S
C1368 C1369 1.377 . S
C1369 H1353 0.930 . S
C1369 C1368 1.377 . S
C1369 C1370 1.379 . S
C1370 H1354 0.931 . S
C1370 C1364 1.383 . S
C1370 C1369 1.379 . S
H1371 C1365 0.959 . S
H1372 C1365 0.961 . S
H1373 C1365 0.960 . S
H1374 C1366 0.930 . S
H1375 C1367 0.929 . S
C233 C65 1.300 . S
C252 C9 1.304 . S
C269 C23 1.298 . S
C288 C79 1.303 . S
C305 C93 1.299 . S
C324 C37 1.299 . S
C341 C107 1.298 . S
C360 C51 1.294 . S
C377 C177 1.300 . S
C396 C121 1.306 . S
C413 C135 1.300 . S
C432 C191 1.306 . S
C449 C205 1.296 . S
C468 C149 1.288 . S
C485 C163 1.301 . S
C504 C219 1.308 . S
C521 C0 1.361 . S
C540 C210 1.359 . S
C557 C14 1.363 . S
C576 C168 1.343 . S
C593 C28 1.359 . S
C612 C182 1.370 . S
C629 C196 1.364 . S
C648 C42 1.343 . S
C665 C56 1.362 . S
C684 C126 1.346 . S
C701 C70 1.364 . S
C720 C140 1.345 . S
C737 C154 1.358 . S
C756 C84 1.368 . S
C773 C112 1.360 . S
C792 C98 1.362 . S
C809 C11 1.619 . S
C828 C151 1.624 . S
C845 C165 1.617 . S
C864 C25 1.622 . S
C881 C39 1.619 . S
C900 C123 1.607 . S
C917 C137 1.620 . S
C936 C53 1.618 . S
C953 C67 1.619 . S
C972 C207 1.607 . S
C989 C81 1.619 . S
C1008 C221 1.624 . S
C1025 C179 1.618 . S
C1044 C95 1.624 . S
C1061 C193 1.621 . S
C1080 C109 1.611 . S
C1097 C145 1.371 . S
C1116 C5 1.367 . S
C1133 C19 1.371 . S
C1152 C159 1.364 . S
C1169 C33 1.371 . S
C1188 C117 1.371 . S
C1205 C131 1.370 . S
C1224 C47 1.362 . S
C1241 C201 1.369 . S
C1260 C61 1.362 . S
C1277 C215 1.371 . S
C1296 C75 1.363 . S
C1313 C173 1.371 . S
C1332 C89 1.362 . S
C1349 C103 1.371 . S
C1368 C187 1.369 . S
