# Generated by pormake.
# Topology uof, (4)-cn, num edge types: 1
# Building blocks:
#     Node 0, Type 0, BuildingBlock: ICAMEG_clean_sbu_1, # of connection points: 4
#     Node 1, Type 0, BuildingBlock: ICAMEG_clean_sbu_1, # of connection points: 4
#     Node 2, Type 0, BuildingBlock: ICAMEG_clean_sbu_1, # of connection points: 4
#     Node 3, Type 0, BuildingBlock: ICAMEG_clean_sbu_1, # of connection points: 4
#     Node 4, Type 0, BuildingBlock: ICAMEG_clean_sbu_1, # of connection points: 4
#     Node 5, Type 0, BuildingBlock: ICAMEG_clean_sbu_1, # of connection points: 4
#     Node 6, Type 0, BuildingBlock: ICAMEG_clean_sbu_1, # of connection points: 4
#     Node 7, Type 0, BuildingBlock: ICAMEG_clean_sbu_1, # of connection points: 4
#     Node 8, Type 0, BuildingBlock: ICAMEG_clean_sbu_1, # of connection points: 4
#     Node 9, Type 0, BuildingBlock: ICAMEG_clean_sbu_1, # of connection points: 4
#     Node 10, Type 0, BuildingBlock: ICAMEG_clean_sbu_1, # of connection points: 4
#     Node 11, Type 0, BuildingBlock: ICAMEG_clean_sbu_1, # of connection points: 4
#     Edge 12, Type (0, 0), None
#     Edge 13, Type (0, 0), None
#     Edge 14, Type (0, 0), None
#     Edge 15, Type (0, 0), None
#     Edge 16, Type (0, 0), None
#     Edge 17, Type (0, 0), None
#     Edge 18, Type (0, 0), None
#     Edge 19, Type (0, 0), None
#     Edge 20, Type (0, 0), None
#     Edge 21, Type (0, 0), None
#     Edge 22, Type (0, 0), None
#     Edge 23, Type (0, 0), None
#     Edge 24, Type (0, 0), None
#     Edge 25, Type (0, 0), None
#     Edge 26, Type (0, 0), None
#     Edge 27, Type (0, 0), None
#     Edge 28, Type (0, 0), None
#     Edge 29, Type (0, 0), None
#     Edge 30, Type (0, 0), None
#     Edge 31, Type (0, 0), None
#     Edge 32, Type (0, 0), None
#     Edge 33, Type (0, 0), None
#     Edge 34, Type (0, 0), None
#     Edge 35, Type (0, 0), None
# Relax obj value: 0.209
# Max RMSD: 0.165
# Mean RMSD: 0.165
data_MOF--net-uof--node1-ICAMEG_clean_sbu_1--edge1-none
_symmetry_space_group_name_H-M    P1
_symmetry_Int_Tables_number       1
_symmetry_cell_setting            triclinic
loop_
_symmetry_equiv_pos_as_xyz
'x, y, z'
_cell_length_a     15.916615
_cell_length_b     15.91639
_cell_length_c     37.353198
_cell_angle_alpha  90.000592
_cell_angle_beta   90.000886
_cell_angle_gamma 119.99715
loop_
_atom_site_label
_atom_site_type_symbol
_atom_site_fract_x
_atom_site_fract_y
_atom_site_fract_z
_atom_type_partial_charge
Co0 Co 0.24386 0.32095 0.17434 0.0
Co1 Co 0.16858 0.10894 0.22308 0.0
O2 O 0.22062 0.24877 0.21887 0.0
C3 C 0.45925 0.44764 0.18578 0.0
O4 O 0.476 0.3845 0.16949 0.0
C5 C 0.19205 0.17108 0.29816 0.0
O6 O 0.26701 0.25291 0.28764 0.0
O7 O 0.04425 0.08885 0.19163 0.0
O8 O 0.11029 0.21765 0.15431 0.0
H9 H 0.12915 0.77625 0.19839 0.0
H10 H 0.27227 0.42834 0.24251 0.0
O11 O 0.37282 0.42796 0.19276 0.0
H12 H 0.0065 0.43695 0.17886 0.0
H13 H 0.32613 0.62678 0.10551 0.0
H14 H 0.29394 0.30393 0.09724 0.0
H15 H 0.08213 0.35177 0.15354 0.0
H16 H 0.28579 0.52417 0.15839 0.0
O17 O 0.1301 0.11739 0.2744 0.0
H18 H 0.20149 0.95454 0.19119 0.0
H19 H 0.03298 0.9564 0.27667 0.0
H20 H 0.33929 0.40704 0.04394 0.0
H21 H 0.20772 0.52897 0.26677 0.0
H22 H 0.35298 0.56873 0.04734 0.0
H23 H 0.07898 0.53948 0.23456 0.0
O24 O 0.30631 0.24927 0.15355 0.0
H25 H 0.5303 0.30168 0.24582 0.0
H26 H 0.23197 -0.00045 0.27496 0.0
H27 H 0.38312 0.03097 0.30193 0.0
H28 H 0.53377 0.18473 0.28923 0.0
H29 H 0.37701 0.26527 0.21797 0.0
H30 H 0.9574 0.78011 0.28312 0.0
H31 H 0.01351 0.69239 0.24623 0.0
O32 O 0.21699 0.10231 0.17731 0.0
C33 C 0.03871 0.13217 0.16182 0.0
C34 C 0.10778 0.81714 0.21494 0.0
C35 C 0.00943 0.81869 0.26222 0.0
N36 N 0.11256 0.96707 0.22967 0.0
C37 C 0.14556 0.91714 0.21024 0.0
C38 C 0.04926 0.91867 0.25702 0.0
C39 C 0.0401 0.76831 0.24129 0.0
C40 C 0.21534 0.43232 0.2282 0.0
N41 N 0.18214 0.38595 0.19614 0.0
C42 C 0.17854 0.48836 0.24235 0.0
C43 C 0.10501 0.49342 0.22418 0.0
C44 C 0.06692 0.43974 0.1928 0.0
C45 C 0.10745 0.38735 0.17895 0.0
C46 C 0.31608 0.55449 0.10321 0.0
C47 C 0.29653 0.37233 0.0993 0.0
C48 C 0.28996 0.49388 0.13312 0.0
N49 N 0.2743 0.40096 0.13073 0.0
C50 C 0.32378 0.43134 0.06882 0.0
C51 C 0.33188 0.52231 0.0707 0.0
C52 C 0.28495 0.16107 0.15762 0.0
C53 C 0.46475 0.23424 0.25189 0.0
C54 C 0.29581 0.06452 0.26717 0.0
C55 C 0.38241 0.08258 0.28322 0.0
C56 C 0.46701 0.16881 0.27599 0.0
N57 N 0.29222 0.12988 0.24413 0.0
C58 C 0.3769 0.21288 0.23593 0.0
Co59 Co 0.92139 0.2444 0.50769 0.0
Co60 Co 0.05816 0.16914 0.55642 0.0
O61 O 0.97036 0.22117 0.55221 0.0
C62 C 0.01013 0.45979 0.51913 0.0
O63 O 0.09002 0.47653 0.50285 0.0
C64 C 0.01948 0.19258 0.6315 0.0
O65 O 0.0126 0.26755 0.62098 0.0
O66 O 0.95394 0.04481 0.52497 0.0
O67 O 0.89114 0.11083 0.48766 0.0
H68 H 0.35145 0.12976 0.53173 0.0
H69 H 0.84242 0.27281 0.57585 0.0
O70 O 0.94335 0.37336 0.52611 0.0
H71 H 0.56807 0.00706 0.5122 0.0
H72 H 0.69781 0.32667 0.43887 0.0
H73 H 0.98845 0.29446 0.43058 0.0
H74 H 0.72888 0.08267 0.48688 0.0
H75 H 0.76011 0.28635 0.49175 0.0
O76 O 0.01123 0.13064 0.60773 0.0
H77 H 0.24546 0.20206 0.52453 0.0
H78 H 0.07511 0.03352 0.61 0.0
H79 H 0.93064 0.33978 0.37728 0.0
H80 H 0.67725 0.20829 0.6001 0.0
H81 H 0.78264 0.35348 0.38069 0.0
H82 H 0.538 0.07955 0.56789 0.0
O83 O 0.0555 0.30685 0.48688 0.0
H84 H 0.2271 0.53086 0.57917 0.0
H85 H 0.23092 0.23252 0.60831 0.0
H86 H 0.35063 0.38366 0.63528 0.0
H87 H 0.34751 0.53432 0.62259 0.0
H88 H 0.11023 0.37756 0.55132 0.0
H89 H 0.17584 0.95796 0.61645 0.0
H90 H 0.31967 0.01409 0.57957 0.0
O91 O 0.1132 0.21757 0.51065 0.0
C92 C 0.90507 0.03925 0.49516 0.0
C93 C 0.28918 0.10837 0.54828 0.0
C94 C 0.18928 0.00999 0.59556 0.0
N95 N 0.14402 0.11312 0.56301 0.0
C96 C 0.22695 0.14614 0.54358 0.0
C97 C 0.12912 0.04981 0.59035 0.0
C98 C 0.27033 0.04068 0.57463 0.0
C99 C 0.78152 0.21589 0.56155 0.0
N100 N 0.79469 0.18268 0.52948 0.0
C101 C 0.68868 0.1791 0.57569 0.0
C102 C 0.6101 0.10558 0.55751 0.0
C103 C 0.62569 0.06747 0.52614 0.0
C104 C 0.71861 0.10799 0.5123 0.0
C105 C 0.76004 0.31661 0.43657 0.0
C106 C 0.92264 0.29705 0.43265 0.0
C107 C 0.79455 0.2905 0.46648 0.0
N108 N 0.87181 0.27484 0.46407 0.0
C109 C 0.89085 0.32429 0.40216 0.0
C110 C 0.80798 0.33239 0.40405 0.0
C111 C 0.12237 0.28552 0.49095 0.0
C112 C 0.229 0.46531 0.58524 0.0
C113 C 0.22978 0.29635 0.60051 0.0
C114 C 0.29832 0.38296 0.61657 0.0
C115 C 0.29668 0.46756 0.60935 0.0
N116 N 0.16084 0.29278 0.57747 0.0
C117 C 0.16252 0.37745 0.56927 0.0
Co118 Co 0.67555 0.92198 0.84103 0.0
Co119 Co 0.88757 0.05873 0.88975 0.0
O120 O 0.74775 0.97094 0.88555 0.0
C121 C 0.54886 0.01068 0.85249 0.0
O122 O 0.61198 0.09056 0.83619 0.0
C123 C 0.82546 0.02008 0.96483 0.0
O124 O 0.74364 0.01323 0.95431 0.0
O125 O 0.90766 0.95449 0.8583 0.0
O126 O 0.77886 0.89172 0.82099 0.0
H127 H 0.22023 0.35199 0.86506 0.0
H128 H 0.56821 0.84297 0.9092 0.0
O129 O 0.56855 0.94392 0.85946 0.0
H130 H 0.55949 0.56863 0.84549 0.0
H131 H 0.36964 0.69851 0.77223 0.0
H132 H 0.69255 0.98903 0.76393 0.0
H133 H 0.64472 0.72946 0.8202 0.0
H134 H 0.4723 0.76076 0.8251 0.0
O135 O 0.87914 0.01182 0.94107 0.0
H136 H 0.04193 0.24601 0.85786 0.0
H137 H 0.04014 0.07565 0.94333 0.0
H138 H 0.58939 0.93128 0.71063 0.0
H139 H 0.46753 0.67777 0.93344 0.0
H140 H 0.42767 0.78334 0.71405 0.0
H141 H 0.45696 0.53853 0.90118 0.0
O142 O 0.74719 0.0561 0.82023 0.0
H143 H 0.69486 0.22775 0.9125 0.0
H144 H 0.99697 0.23149 0.94164 0.0
H145 H 0.96558 0.35125 0.9686 0.0
H146 H 0.81184 0.34818 0.9559 0.0
H147 H 0.73124 0.11083 0.88465 0.0
H148 H 0.21643 0.17635 0.94977 0.0
H149 H 0.30412 0.32019 0.91289 0.0
O150 O 0.89417 0.11375 0.84398 0.0
C151 C 0.86435 0.90563 0.82849 0.0
C152 C 0.17936 0.28972 0.88161 0.0
C153 C 0.17784 0.1898 0.92888 0.0
N154 N 0.02944 0.14457 0.89634 0.0
C155 C 0.07935 0.2275 0.87691 0.0
C156 C 0.07786 0.12966 0.92368 0.0
C157 C 0.2282 0.27086 0.90795 0.0
C158 C 0.56421 0.78207 0.89489 0.0
N159 N 0.61057 0.79526 0.86282 0.0
C160 C 0.50814 0.68921 0.90902 0.0
C161 C 0.50305 0.61064 0.89082 0.0
C162 C 0.55672 0.62624 0.85944 0.0
C163 C 0.60915 0.71918 0.84562 0.0
C164 C 0.44194 0.76071 0.76992 0.0
C165 C 0.62413 0.92324 0.76599 0.0
C166 C 0.50258 0.79519 0.79983 0.0
N167 N 0.59552 0.87242 0.79742 0.0
C168 C 0.5651 0.89149 0.73551 0.0
C169 C 0.47411 0.80865 0.73741 0.0
C170 C 0.83539 0.12294 0.82429 0.0
C171 C 0.7623 0.22963 0.91856 0.0
C172 C 0.93201 0.23037 0.93384 0.0
C173 C 0.91396 0.29894 0.94989 0.0
C174 C 0.82774 0.29732 0.94266 0.0
N175 N 0.86664 0.16143 0.9108 0.0
C176 C 0.78365 0.16313 0.9026 0.0
Co177 Co 0.75209 0.67608 0.17434 0.0
Co178 Co 0.82737 0.8881 0.22308 0.0
O179 O 0.77533 0.74827 0.21887 0.0
C180 C 0.53669 0.54946 0.18579 0.0
O181 O 0.51994 0.61258 0.1695 0.0
C182 C 0.80391 0.82596 0.29816 0.0
O183 O 0.72895 0.74414 0.28763 0.0
O184 O 0.9517 0.90819 0.19163 0.0
O185 O 0.88565 0.77938 0.15431 0.0
H186 H 0.86679 0.22079 0.19839 0.0
H187 H 0.72367 0.56869 0.2425 0.0
O188 O 0.62312 0.56908 0.19275 0.0
H189 H 0.98945 0.56009 0.17887 0.0
H190 H 0.66982 0.37026 0.10551 0.0
H191 H 0.70199 0.6931 0.09724 0.0
H192 H 0.91382 0.64527 0.15354 0.0
H193 H 0.71015 0.47286 0.15839 0.0
O194 O 0.86585 0.87965 0.2744 0.0
H195 H 0.79446 0.0425 0.19119 0.0
H196 H 0.96298 0.04065 0.27667 0.0
H197 H 0.65664 0.58999 0.04393 0.0
H198 H 0.78821 0.46806 0.26677 0.0
H199 H 0.64296 0.42829 0.04733 0.0
H200 H 0.91696 0.45755 0.23456 0.0
O201 O 0.68964 0.74776 0.15354 0.0
H202 H 0.46566 0.69537 0.24582 0.0
H203 H 0.76399 0.99749 0.27496 0.0
H204 H 0.61285 0.96609 0.30193 0.0
H205 H 0.46219 0.81233 0.28923 0.0
H206 H 0.61894 0.73177 0.21797 0.0
H207 H 0.03856 0.21694 0.28312 0.0
H208 H 0.98244 0.30465 0.24623 0.0
O209 O 0.77896 0.89473 0.17731 0.0
C210 C 0.95724 0.86487 0.16182 0.0
C211 C 0.88817 0.1799 0.21494 0.0
C212 C 0.98653 0.17836 0.26222 0.0
N213 N 0.88339 0.02997 0.22967 0.0
C214 C 0.85038 0.0799 0.21024 0.0
C215 C 0.9467 0.07838 0.25702 0.0
C216 C 0.95585 0.22873 0.24129 0.0
C217 C 0.7806 0.56472 0.2282 0.0
N218 N 0.8138 0.61108 0.19613 0.0
C219 C 0.8174 0.50868 0.24235 0.0
C220 C 0.89093 0.50362 0.22418 0.0
C221 C 0.92902 0.55729 0.1928 0.0
C222 C 0.88849 0.60968 0.17895 0.0
C223 C 0.67987 0.44254 0.1032 0.0
C224 C 0.6994 0.6247 0.0993 0.0
C225 C 0.70599 0.50316 0.13312 0.0
N226 N 0.72164 0.59608 0.13072 0.0
C227 C 0.67216 0.56568 0.06881 0.0
C228 C 0.66406 0.47471 0.0707 0.0
C229 C 0.71099 0.83596 0.15761 0.0
C230 C 0.5312 0.76281 0.25189 0.0
C231 C 0.70016 0.93253 0.26717 0.0
C232 C 0.61355 0.91447 0.28322 0.0
C233 C 0.52895 0.82825 0.27599 0.0
N234 N 0.70373 0.86716 0.24413 0.0
C235 C 0.61905 0.78417 0.23593 0.0
Co236 Co 0.07457 0.75265 0.50769 0.0
Co237 Co 0.9378 0.82791 0.55642 0.0
O238 O 0.0256 0.77588 0.55221 0.0
C239 C 0.98577 0.53725 0.51915 0.0
O240 O 0.90589 0.52051 0.50286 0.0
C241 C 0.97649 0.80447 0.6315 0.0
O242 O 0.98337 0.72951 0.62097 0.0
O243 O 0.04203 0.95224 0.52497 0.0
O244 O 0.10482 0.88622 0.48766 0.0
H245 H 0.64452 0.8673 0.53172 0.0
H246 H 0.15354 0.72421 0.57585 0.0
O247 O 0.05261 0.62368 0.5261 0.0
H248 H 0.42788 0.99 0.51222 0.0
H249 H 0.29816 0.67039 0.43887 0.0
H250 H 0.0075 0.70257 0.43058 0.0
H251 H 0.26709 0.91438 0.48689 0.0
H252 H 0.23586 0.71071 0.49175 0.0
O253 O 0.98474 0.86641 0.60773 0.0
H254 H 0.75051 0.79498 0.52453 0.0
H255 H 0.92086 0.96353 0.61 0.0
H256 H 0.06531 0.65725 0.37728 0.0
H257 H 0.31871 0.78873 0.60011 0.0
H258 H 0.21332 0.64357 0.38069 0.0
H259 H 0.45796 0.9175 0.5679 0.0
O260 O 0.94046 0.6902 0.48688 0.0
H261 H 0.76885 0.4662 0.57917 0.0
H262 H 0.76505 0.76454 0.6083 0.0
H263 H 0.64534 0.61341 0.63528 0.0
H264 H 0.64844 0.46275 0.62259 0.0
H265 H 0.88572 0.61949 0.55132 0.0
H266 H 0.82013 0.0391 0.61645 0.0
H267 H 0.6763 0.98297 0.57956 0.0
O268 O 0.88276 0.77947 0.51065 0.0
C269 C 0.09089 0.95779 0.49516 0.0
C270 C 0.70679 0.88869 0.54828 0.0
C271 C 0.80669 0.98707 0.59555 0.0
N272 N 0.85195 0.88393 0.56301 0.0
C273 C 0.76902 0.85091 0.54358 0.0
C274 C 0.86685 0.94724 0.59035 0.0
C275 C 0.72564 0.95638 0.57462 0.0
C276 C 0.21444 0.78114 0.56155 0.0
N277 N 0.20127 0.81436 0.52949 0.0
C278 C 0.30728 0.81793 0.5757 0.0
C279 C 0.38586 0.89147 0.55752 0.0
C280 C 0.37027 0.92957 0.52615 0.0
C281 C 0.27735 0.88905 0.51231 0.0
C282 C 0.23593 0.68045 0.43656 0.0
C283 C 0.07332 0.69998 0.43265 0.0
C284 C 0.20142 0.70655 0.46648 0.0
N285 N 0.12415 0.72221 0.46407 0.0
C286 C 0.10511 0.67275 0.40216 0.0
C287 C 0.18798 0.66466 0.40405 0.0
C288 C 0.8736 0.71153 0.49095 0.0
C289 C 0.76696 0.53175 0.58524 0.0
C290 C 0.76618 0.70071 0.60051 0.0
C291 C 0.69765 0.6141 0.61657 0.0
C292 C 0.69928 0.5295 0.60934 0.0
N293 N 0.83512 0.70428 0.57747 0.0
C294 C 0.83344 0.6196 0.56927 0.0
Co295 Co 0.32042 0.07506 0.84103 0.0
Co296 Co 0.10839 0.93831 0.88976 0.0
O297 O 0.24821 0.0261 0.88555 0.0
C298 C 0.44704 0.98629 0.85251 0.0
O299 O 0.38392 0.90641 0.83621 0.0
C300 C 0.1705 0.97696 0.96483 0.0
O301 O 0.25233 0.98382 0.95431 0.0
O302 O 0.0883 0.04256 0.85831 0.0
O303 O 0.21711 0.10532 0.821 0.0
H304 H 0.77573 0.64506 0.86505 0.0
H305 H 0.42778 0.15406 0.9092 0.0
O306 O 0.42741 0.05311 0.85946 0.0
H307 H 0.43645 0.4284 0.84551 0.0
H308 H 0.62631 0.29855 0.77224 0.0
H309 H 0.30342 0.008 0.76393 0.0
H310 H 0.35124 0.26758 0.82021 0.0
H311 H 0.52366 0.2363 0.82511 0.0
O312 O 0.11682 0.98523 0.94107 0.0
H313 H 0.95402 0.75103 0.85786 0.0
H314 H 0.95583 0.92139 0.94333 0.0
H315 H 0.40657 0.06576 0.71063 0.0
H316 H 0.52845 0.31925 0.93345 0.0
H317 H 0.56829 0.21371 0.71406 0.0
H318 H 0.53899 0.4585 0.90121 0.0
O319 O 0.24876 0.94095 0.82023 0.0
H320 H 0.30109 0.76929 0.91251 0.0
H321 H -0.00102 0.76555 0.94163 0.0
H322 H 0.03036 0.64579 0.9686 0.0
H323 H 0.18411 0.64886 0.95591 0.0
H324 H 0.26471 0.8862 0.88466 0.0
H325 H 0.77953 0.8207 0.94977 0.0
H326 H 0.69183 0.67687 0.91288 0.0
O327 O 0.10178 0.88329 0.84398 0.0
C328 C 0.13162 0.09141 0.8285 0.0
C329 C 0.8166 0.70733 0.8816 0.0
C330 C 0.81812 0.80725 0.92888 0.0
N331 N 0.96652 0.85247 0.89634 0.0
C332 C 0.9166 0.76954 0.87691 0.0
C333 C 0.9181 0.86738 0.92368 0.0
C334 C 0.76776 0.72619 0.90794 0.0
C335 C 0.43177 0.21496 0.89489 0.0
N336 N 0.3854 0.20178 0.86283 0.0
C337 C 0.48783 0.30781 0.90903 0.0
C338 C 0.49291 0.38639 0.89084 0.0
C339 C 0.43923 0.37079 0.85947 0.0
C340 C 0.38681 0.27786 0.84563 0.0
C341 C 0.55401 0.23635 0.76992 0.0
C342 C 0.37183 0.07379 0.766 0.0
C343 C 0.49337 0.20186 0.79983 0.0
N344 N 0.40044 0.12463 0.79742 0.0
C345 C 0.43087 0.10555 0.73552 0.0
C346 C 0.52185 0.18839 0.73741 0.0
C347 C 0.16057 0.8741 0.82429 0.0
C348 C 0.23365 0.7674 0.91857 0.0
C349 C 0.06394 0.76666 0.93384 0.0
C350 C 0.08198 0.6981 0.94989 0.0
C351 C 0.1682 0.69971 0.94267 0.0
N352 N 0.12931 0.8356 0.9108 0.0
C353 C 0.2123 0.83391 0.90261 0.0
Co354 Co 0.6541 0.75336 0.4509 0.0
Co355 Co 0.8561 0.82272 0.39794 0.0
O356 O 0.72283 0.78009 0.40688 0.0
C357 C 0.54602 0.54266 0.42862 0.0
O358 O 0.62498 0.53622 0.43015 0.0
C359 C 0.79131 0.86966 0.33189 0.0
O360 O 0.70241 0.84562 0.34096 0.0
O361 O 0.89668 0.93458 0.43921 0.0
O362 O 0.76044 0.88678 0.47203 0.0
H363 H 0.1973 0.91647 0.42846 0.0
H364 H 0.52292 0.69542 0.38755 0.0
O365 O 0.54953 0.62287 0.43412 0.0
H366 H 0.58295 0.01854 0.42006 0.0
H367 H 0.38018 0.73099 0.52775 0.0
H368 H 0.62497 0.63141 0.5178 0.0
H369 H 0.65002 0.94013 0.45696 0.0
H370 H 0.48014 0.77381 0.47541 0.0
O371 O 0.85613 0.90362 0.35636 0.0
H372 H 0.02077 0.86513 0.43854 0.0
H373 H 0.9741 0.86846 0.33014 0.0
H374 H 0.52812 0.59322 0.57189 0.0
H375 H 0.44117 0.76293 0.35442 0.0
H376 H 0.40962 0.6507 0.57863 0.0
H377 H 0.46858 0.92286 0.36895 0.0
O378 O 0.73068 0.69641 0.47114 0.0
H379 H 0.60788 0.52533 0.32917 0.0
H380 H 0.94133 0.6994 0.37476 0.0
H381 H 0.88353 0.54508 0.3446 0.0
H382 H 0.71391 0.4539 0.32262 0.0
H383 H 0.66818 0.68115 0.3577 0.0
H384 H 0.13969 0.89944 0.31668 0.0
H385 H 0.25423 0.92993 0.36602 0.0
O386 O 0.85772 0.73808 0.43458 0.0
C387 C 0.85323 0.94552 0.46802 0.0
C388 C 0.14899 0.9068 0.40658 0.0
C389 C 0.11668 0.89771 0.34379 0.0
N390 N 0.99116 0.86835 0.38605 0.0
C391 C 0.05207 0.88036 0.41286 0.0
C392 C 0.02293 0.87933 0.35154 0.0
C393 C 0.18091 0.91381 0.37158 0.0
C394 C 0.5308 0.76258 0.39725 0.0
N395 N 0.58651 0.81007 0.4266 0.0
C396 C 0.48647 0.8022 0.37701 0.0
C397 C 0.50377 0.89392 0.38525 0.0
C398 C 0.56551 0.94544 0.4137 0.0
C399 C 0.60551 0.90154 0.43442 0.0
C400 C 0.43771 0.71389 0.5265 0.0
C401 C 0.57634 0.65966 0.51997 0.0
C402 C 0.49712 0.73904 0.4964 0.0
N403 N 0.57177 0.71914 0.49423 0.0
C404 C 0.51983 0.63559 0.55098 0.0
C405 C 0.45231 0.66596 0.55461 0.0
C406 C 0.80934 0.69804 0.46226 0.0
C407 C 0.68255 0.5651 0.33811 0.0
C408 C 0.87059 0.6666 0.36292 0.0
C409 C 0.83702 0.57645 0.34654 0.0
C410 C 0.74208 0.52523 0.33426 0.0
N411 N 0.81333 0.70824 0.36607 0.0
C412 C 0.71873 0.65562 0.35448 0.0
Co413 Co 0.89925 0.65463 0.78423 0.0
Co414 Co 0.0319 0.85664 0.73127 0.0
O415 O 0.94125 0.72337 0.74021 0.0
C416 C 0.00187 0.54656 0.76194 0.0
O417 O 0.08725 0.62552 0.76347 0.0
C418 C 0.92019 0.79187 0.66523 0.0
O419 O 0.85533 0.70296 0.67429 0.0
O420 O 0.96063 0.89723 0.77255 0.0
O421 O 0.87217 0.76098 0.80536 0.0
H422 H 0.27936 0.19783 0.7618 0.0
H423 H 0.82602 0.52347 0.72088 0.0
O424 O 0.92517 0.55006 0.76746 0.0
H425 H 0.56293 0.58349 0.7534 0.0
H426 H 0.64769 0.38071 0.86107 0.0
H427 H 0.99205 0.62549 0.85114 0.0
H428 H 0.70841 0.65058 0.7903 0.0
H429 H 0.70485 0.48066 0.80873 0.0
O430 O 0.95105 0.85669 0.6897 0.0
H431 H 0.15416 0.0213 0.77187 0.0
H432 H 0.10418 0.97464 0.66347 0.0
H433 H 0.93336 0.52864 0.90523 0.0
H434 H 0.67675 0.44171 0.68776 0.0
H435 H 0.75739 0.41017 0.91197 0.0
H436 H 0.54423 0.46911 0.70229 0.0
O437 O 0.03277 0.73119 0.80447 0.0
H438 H 0.08106 0.60839 0.66251 0.0
H439 H 0.24044 0.94185 0.7081 0.0
H440 H 0.33695 0.88404 0.67794 0.0
H441 H 0.2585 0.71441 0.65596 0.0
H442 H 0.98555 0.66871 0.69105 0.0
H443 H 0.23879 0.14023 0.65002 0.0
H444 H 0.32283 0.25476 0.69936 0.0
O445 O 0.11815 0.85824 0.76792 0.0
C446 C 0.90624 0.85379 0.80135 0.0
C447 C 0.24072 0.14953 0.73992 0.0
C448 C 0.21751 0.11722 0.67713 0.0
N449 N 0.12134 0.9917 0.71938 0.0
C450 C 0.17024 0.0526 0.7462 0.0
C451 C 0.14213 0.02347 0.68488 0.0
C452 C 0.26563 0.18144 0.70492 0.0
C453 C 0.76674 0.53135 0.73058 0.0
N454 N 0.77495 0.58706 0.75993 0.0
C455 C 0.68278 0.48701 0.71035 0.0
C456 C 0.60837 0.50431 0.71859 0.0
C457 C 0.6186 0.56606 0.74704 0.0
C458 C 0.70248 0.60606 0.76775 0.0
C459 C 0.72231 0.43824 0.85982 0.0
C460 C 0.91516 0.57686 0.85331 0.0
C461 C 0.75658 0.49764 0.82973 0.0
N462 N 0.85113 0.5723 0.82756 0.0
C463 C 0.88272 0.52036 0.88431 0.0
C464 C 0.78483 0.45285 0.88794 0.0
C465 C 0.1098 0.80985 0.7956 0.0
C466 C 0.11596 0.68306 0.67145 0.0
C467 C 0.2025 0.87111 0.69626 0.0
C468 C 0.25907 0.83753 0.67988 0.0
C469 C 0.21535 0.74259 0.6676 0.0
N470 N 0.10361 0.81386 0.69941 0.0
C471 C 0.06162 0.71925 0.68782 0.0
Co472 Co 0.24311 0.89971 0.11757 0.0
Co473 Co 0.17379 0.03239 0.0646 0.0
O474 O 0.21639 0.94173 0.07355 0.0
C475 C 0.45381 0.00239 0.09529 0.0
O476 O 0.4602 0.08777 0.09681 0.0
C477 C 0.1268 0.92065 -0.00144 0.0
O478 O 0.15082 0.85577 0.00762 0.0
O479 O 0.06194 0.96115 0.10588 0.0
O480 O 0.10967 0.87262 0.13868 0.0
H481 H 0.08004 0.27985 0.09512 0.0
H482 H 0.3012 0.82647 0.05425 0.0
O483 O 0.37363 0.92568 0.10081 0.0
H484 H 0.97787 0.56351 0.08659 0.0
H485 H 0.2654 0.64811 0.19441 0.0
H486 H 0.36507 0.9925 0.18446 0.0
H487 H 0.05627 0.70889 0.12356 0.0
H488 H 0.22252 0.70526 0.14209 0.0
O489 O 0.09286 0.95152 0.02303 0.0
H490 H 0.13134 0.15462 0.1052 0.0
H491 H 0.12811 0.1047 -0.0032 0.0
H492 H 0.40326 0.93381 0.23855 0.0
H493 H 0.23366 0.67731 0.02107 0.0
H494 H 0.34574 0.75784 0.24529 0.0
H495 H 0.0736 0.54489 0.0355 0.0
O496 O 0.30002 0.03322 0.13782 0.0
H497 H 0.47112 0.08142 -0.00418 0.0
H498 H 0.29715 0.24091 0.04142 0.0
H499 H 0.45145 0.33737 0.01124 0.0
H500 H 0.54257 0.25886 -0.01074 0.0
H501 H 0.31531 0.98596 0.02437 0.0
H502 H 0.09715 0.23933 -0.01666 0.0
H503 H 0.06664 0.32335 0.03268 0.0
O504 O 0.25846 0.11866 0.10124 0.0
C505 C 0.05097 0.90673 0.13468 0.0
C506 C 0.08972 0.24121 0.07325 0.0
C507 C 0.09886 0.21804 0.01045 0.0
N508 N 0.12818 0.12184 0.05271 0.0
C509 C 0.11615 0.17072 0.07952 0.0
C510 C 0.11723 0.14265 0.0182 0.0
C511 C 0.08274 0.26615 0.03825 0.0
C512 C 0.23398 0.76721 0.06392 0.0
N513 N 0.18643 0.77542 0.09325 0.0
C514 C 0.19435 0.68332 0.04365 0.0
C515 C 0.10257 0.60896 0.05183 0.0
C516 C 0.05101 0.61915 0.08027 0.0
C517 C 0.09491 0.70298 0.10102 0.0
C518 C 0.28251 0.72274 0.19316 0.0
C519 C 0.33679 0.91561 0.18664 0.0
C520 C 0.25734 0.75701 0.16307 0.0
N521 N 0.2773 0.85158 0.1609 0.0
C522 C 0.36087 0.88317 0.21764 0.0
C523 C 0.33048 0.78527 0.22127 0.0
C524 C 0.29844 0.11028 0.12893 0.0
C525 C 0.43136 0.11634 0.00477 0.0
C526 C 0.32993 0.20295 0.02958 0.0
C527 C 0.42007 0.25949 0.01319 0.0
C528 C 0.47125 0.21573 0.00091 0.0
N529 N 0.28826 0.10406 0.03273 0.0
C530 C 0.34086 0.06204 0.02114 0.0
Co531 Co 0.34186 0.24369 0.4509 0.0
Co532 Co 0.13986 0.17432 0.39794 0.0
O533 O 0.27313 0.21695 0.40688 0.0
C534 C 0.44992 0.45437 0.42861 0.0
O535 O 0.37098 0.46083 0.43015 0.0
C536 C 0.20465 0.12739 0.33189 0.0
O537 O 0.29355 0.15142 0.34096 0.0
O538 O 0.09928 0.06246 0.43921 0.0
O539 O 0.23553 0.11027 0.47203 0.0
H540 H 0.79866 0.08056 0.42846 0.0
H541 H 0.47304 0.30162 0.38756 0.0
O542 O 0.44642 0.37418 0.43413 0.0
H543 H 0.41301 0.97851 0.42006 0.0
H544 H 0.61579 0.26607 0.52775 0.0
H545 H 0.37099 0.36563 0.51781 0.0
H546 H 0.34594 0.05691 0.45697 0.0
H547 H 0.51583 0.22325 0.47541 0.0
O548 O 0.13983 0.09343 0.35636 0.0
H549 H 0.97519 0.1319 0.43854 0.0
H550 H 0.02186 0.12859 0.33014 0.0
H551 H 0.46784 0.40382 0.5719 0.0
H552 H 0.55478 0.23411 0.35443 0.0
H553 H 0.58634 0.34635 0.57864 0.0
H554 H 0.52738 0.07418 0.36896 0.0
O555 O 0.26529 0.30064 0.47114 0.0
H556 H 0.38807 0.47171 0.32917 0.0
H557 H 0.05463 0.29764 0.37477 0.0
H558 H 0.11242 0.45196 0.3446 0.0
H559 H 0.28205 0.54314 0.32262 0.0
H560 H 0.32777 0.31589 0.35771 0.0
H561 H 0.85627 0.09762 0.31668 0.0
H562 H 0.74173 0.06711 0.36601 0.0
O563 O 0.13824 0.25896 0.43458 0.0
C564 C 0.14273 0.05152 0.46802 0.0
C565 C 0.84696 0.09023 0.40658 0.0
C566 C 0.87928 0.09934 0.34379 0.0
N567 N 0.0048 0.12869 0.38604 0.0
C568 C 0.94389 0.11667 0.41286 0.0
C569 C 0.97303 0.11772 0.35154 0.0
C570 C 0.81505 0.08323 0.37158 0.0
C571 C 0.46515 0.23446 0.39725 0.0
N572 N 0.40945 0.18697 0.42661 0.0
C573 C 0.50949 0.19484 0.37702 0.0
C574 C 0.49218 0.10313 0.38525 0.0
C575 C 0.43044 0.05161 0.41371 0.0
C576 C 0.39045 0.0955 0.43442 0.0
C577 C 0.55826 0.28316 0.5265 0.0
C578 C 0.41962 0.33739 0.51998 0.0
C579 C 0.49885 0.25801 0.49641 0.0
N580 N 0.4242 0.27791 0.49424 0.0
C581 C 0.47613 0.36146 0.55098 0.0
C582 C 0.54365 0.33109 0.55462 0.0
C583 C 0.18662 0.299 0.46226 0.0
C584 C 0.3134 0.43194 0.33811 0.0
C585 C 0.12537 0.33044 0.36292 0.0
C586 C 0.15894 0.42059 0.34654 0.0
C587 C 0.25387 0.4718 0.33427 0.0
N588 N 0.18262 0.2888 0.36607 0.0
C589 C 0.27723 0.34142 0.35448 0.0
Co590 Co 0.09671 0.34241 0.78424 0.0
Co591 Co 0.96406 0.14041 0.73128 0.0
O592 O 0.0547 0.27367 0.74022 0.0
C593 C 0.99408 0.45047 0.76194 0.0
O594 O 0.90869 0.37152 0.76347 0.0
C595 C 0.07577 0.20518 0.66523 0.0
O596 O 0.14063 0.29408 0.6743 0.0
O597 O 0.03534 0.09981 0.77255 0.0
O598 O 0.12379 0.23606 0.80536 0.0
H599 H 0.71661 0.79921 0.76179 0.0
H600 H 0.16993 0.47357 0.72089 0.0
O601 O 0.07078 0.44697 0.76746 0.0
H602 H 0.43303 0.41356 0.7534 0.0
H603 H 0.34826 0.61634 0.86108 0.0
H604 H 0.00391 0.37155 0.85114 0.0
H605 H 0.28755 0.34647 0.7903 0.0
H606 H 0.2911 0.51639 0.80874 0.0
O607 O 0.04491 0.14036 0.6897 0.0
H608 H 0.84181 0.97574 0.77187 0.0
H609 H 0.89178 0.02241 0.66347 0.0
H610 H 0.0626 0.4684 0.90524 0.0
H611 H 0.31919 0.55533 0.68776 0.0
H612 H 0.23857 0.58688 0.91197 0.0
H613 H 0.45172 0.52793 0.7023 0.0
O614 O 0.96319 0.26585 0.80448 0.0
H615 H 0.91489 0.38864 0.66251 0.0
H616 H 0.75552 0.0552 0.7081 0.0
H617 H 0.65901 0.113 0.67794 0.0
H618 H 0.73745 0.28263 0.65596 0.0
H619 H 0.01041 0.32833 0.69105 0.0
H620 H 0.75716 0.85682 0.65001 0.0
H621 H 0.67313 0.74229 0.69935 0.0
O622 O 0.87781 0.13879 0.76792 0.0
C623 C 0.08973 0.14326 0.80135 0.0
C624 C 0.75525 0.84752 0.73992 0.0
C625 C 0.77845 0.87983 0.67712 0.0
N626 N 0.87463 0.00534 0.71938 0.0
C627 C 0.82573 0.94444 0.74619 0.0
C628 C 0.85383 0.97358 0.68487 0.0
C629 C 0.73033 0.8156 0.70492 0.0
C630 C 0.22921 0.46569 0.73059 0.0
N631 N 0.221 0.40998 0.75994 0.0
C632 C 0.31317 0.51003 0.71035 0.0
C633 C 0.38758 0.49273 0.71859 0.0
C634 C 0.37736 0.43099 0.74704 0.0
C635 C 0.29348 0.39099 0.76776 0.0
C636 C 0.27364 0.55881 0.85983 0.0
C637 C 0.08079 0.42018 0.85331 0.0
C638 C 0.23937 0.4994 0.82974 0.0
N639 N 0.14483 0.42475 0.82757 0.0
C640 C 0.11324 0.47668 0.88432 0.0
C641 C 0.21113 0.5442 0.88795 0.0
C642 C 0.88616 0.18719 0.7956 0.0
C643 C 0.88 0.31397 0.67145 0.0
C644 C 0.79345 0.12594 0.69626 0.0
C645 C 0.73688 0.15951 0.67988 0.0
C646 C 0.78061 0.25445 0.6676 0.0
N647 N 0.89235 0.18318 0.69941 0.0
C648 C 0.93433 0.27779 0.68782 0.0
Co649 Co 0.75284 0.09732 0.11756 0.0
Co650 Co 0.82216 0.96464 0.0646 0.0
O651 O 0.77956 0.05531 0.07354 0.0
C652 C 0.54214 0.99464 0.09528 0.0
O653 O 0.53573 0.90925 0.09681 0.0
C654 C 0.86916 0.07639 -0.00144 0.0
O655 O 0.84513 0.14127 0.00762 0.0
O656 O 0.93401 0.03588 0.10588 0.0
O657 O 0.88628 0.12442 0.13868 0.0
H658 H 0.91589 0.71717 0.09512 0.0
H659 H 0.69474 0.17056 0.05425 0.0
O660 O 0.62231 0.07134 0.1008 0.0
H661 H 0.01806 0.43352 0.08659 0.0
H662 H 0.73054 0.34892 0.19441 0.0
H663 H 0.63088 0.00453 0.18446 0.0
H664 H 0.93967 0.28815 0.12356 0.0
H665 H 0.77343 0.29177 0.14209 0.0
O666 O 0.90309 0.04551 0.02303 0.0
H667 H 0.86459 0.8424 0.1052 0.0
H668 H 0.86785 0.89234 -0.0032 0.0
H669 H 0.59269 0.06322 0.23854 0.0
H670 H 0.76228 0.31971 0.02106 0.0
H671 H 0.6502 0.2392 0.24528 0.0
H672 H 0.92233 0.45214 0.0355 0.0
O673 O 0.69593 0.96381 0.13781 0.0
H674 H 0.52484 0.91562 -0.00419 0.0
H675 H 0.6988 0.75612 0.04142 0.0
H676 H 0.5445 0.65966 0.01123 0.0
H677 H 0.45338 0.73818 -0.01076 0.0
H678 H 0.68064 0.01108 0.02437 0.0
H679 H 0.89881 0.75771 -0.01666 0.0
H680 H 0.92931 0.67368 0.03268 0.0
O681 O 0.73748 0.87837 0.10123 0.0
C682 C 0.94498 0.0903 0.13468 0.0
C683 C 0.90622 0.75581 0.07325 0.0
C684 C 0.89709 0.779 0.01045 0.0
N685 N 0.86777 0.87519 0.05271 0.0
C686 C 0.87979 0.8263 0.07952 0.0
C687 C 0.87873 0.85439 0.0182 0.0
C688 C 0.9132 0.73088 0.03825 0.0
C689 C 0.76196 0.22982 0.06392 0.0
N690 N 0.80951 0.22161 0.09325 0.0
C691 C 0.80159 0.31371 0.04364 0.0
C692 C 0.89337 0.38807 0.05183 0.0
C693 C 0.94492 0.37788 0.08027 0.0
C694 C 0.90103 0.29406 0.10102 0.0
C695 C 0.71343 0.27429 0.19316 0.0
C696 C 0.65915 0.08142 0.18663 0.0
C697 C 0.7386 0.24003 0.16307 0.0
N698 N 0.71865 0.14546 0.1609 0.0
C699 C 0.63508 0.11386 0.21763 0.0
C700 C 0.66547 0.21176 0.22127 0.0
C701 C 0.69751 0.88675 0.12892 0.0
C702 C 0.56459 0.8807 0.00475 0.0
C703 C 0.66602 0.79408 0.02957 0.0
C704 C 0.57589 0.73754 0.01318 0.0
C705 C 0.52471 0.7813 0.0009 0.0
N706 N 0.70769 0.89298 0.03273 0.0
C707 C 0.65509 0.93499 0.02114 0.0
loop_
_geom_bond_atom_site_label_1
_geom_bond_atom_site_label_2
_geom_bond_distance
_geom_bond_site_symmetry_2
_ccdc_geom_bond_type
Co0 O2 2.143 . S
Co0 O8 2.074 . S
Co0 O11 2.093 . S
Co0 O24 2.097 . S
Co0 N41 2.151 . S
Co0 N49 2.214 . S
Co1 O2 2.160 . S
Co1 O7 2.058 . S
Co1 O17 2.057 . S
Co1 O32 2.037 . S
Co1 N36 2.145 1_545 S
Co1 N57 2.257 . S
O2 Co0 2.143 . S
O2 Co1 2.160 . S
C3 O4 1.278 . S
C3 O11 1.224 . S
O4 C3 1.278 . S
C5 O6 1.245 . S
C5 O17 1.232 . S
O6 C5 1.245 . S
O7 Co1 2.058 . S
O7 C33 1.269 . S
O8 Co0 2.074 . S
O8 C33 1.257 . S
H9 C34 0.930 1_655 S
H10 C40 0.930 . S
O11 Co0 2.093 . S
O11 C3 1.224 . S
H12 C44 0.929 . S
H13 C46 0.930 . S
H14 C47 0.930 . S
H15 C45 0.929 . S
H16 C48 0.928 . S
O17 Co1 2.057 . S
O17 C5 1.232 . S
H18 C37 0.929 . S
H19 C38 0.937 . S
H20 C50 0.931 . S
H21 C42 0.929 . S
H22 C51 0.930 . S
H23 C43 0.931 . S
O24 Co0 2.097 . S
O24 C52 1.214 . S
H25 C53 0.929 . S
H26 C54 0.929 . S
H27 C55 0.930 . S
H28 C56 0.929 . S
H29 C58 0.930 . S
H30 C35 0.930 . S
H31 C39 0.930 1_655 S
O32 Co1 2.037 . S
O32 C52 1.234 . S
C33 O7 1.269 . S
C33 O8 1.257 . S
C34 H9 0.930 1_455 S
C34 C37 1.388 . S
C34 C39 1.418 . S
C35 H30 0.930 . S
C35 C38 1.404 . S
C35 C39 1.353 . S
N36 Co1 2.145 1_565 S
N36 C37 1.397 . S
N36 C38 1.334 . S
C37 H18 0.929 . S
C37 C34 1.388 . S
C37 N36 1.397 . S
C38 H19 0.937 . S
C38 C35 1.404 . S
C38 N36 1.334 . S
C39 H31 0.930 1_455 S
C39 C34 1.418 . S
C39 C35 1.353 . S
C40 H10 0.930 . S
C40 N41 1.330 . S
C40 C42 1.446 . S
N41 Co0 2.151 . S
N41 C40 1.330 . S
N41 C45 1.418 . S
C42 H21 0.929 . S
C42 C40 1.446 . S
C42 C43 1.332 . S
C43 H23 0.931 . S
C43 C42 1.332 . S
C43 C44 1.267 . S
C44 H12 0.929 . S
C44 C43 1.267 . S
C44 C45 1.251 . S
C45 H15 0.929 . S
C45 N41 1.418 . S
C45 C44 1.251 . S
C46 H13 0.930 . S
C46 C48 1.406 . S
C46 C51 1.261 . S
C47 H14 0.930 . S
C47 N49 1.325 . S
C47 C50 1.357 . S
C48 H16 0.928 . S
C48 C46 1.406 . S
C48 N49 1.261 . S
N49 Co0 2.214 . S
N49 C47 1.325 . S
N49 C48 1.261 . S
C50 H20 0.931 . S
C50 C47 1.357 . S
C50 C51 1.312 . S
C51 H22 0.930 . S
C51 C46 1.261 . S
C51 C50 1.312 . S
C52 O24 1.214 . S
C52 O32 1.234 . S
C53 H25 0.929 . S
C53 C56 1.391 . S
C53 C58 1.391 . S
C54 H26 0.929 . S
C54 C55 1.390 . S
C54 N57 1.391 . S
C55 H27 0.930 . S
C55 C54 1.390 . S
C55 C56 1.392 . S
C56 H28 0.929 . S
C56 C53 1.391 . S
C56 C55 1.392 . S
N57 Co1 2.257 . S
N57 C54 1.391 . S
N57 C58 1.388 . S
C58 H29 0.930 . S
C58 C53 1.391 . S
C58 N57 1.388 . S
Co59 O61 2.143 . S
Co59 O67 2.074 . S
Co59 O70 2.093 . S
Co59 O83 2.097 1_655 S
Co59 N100 2.151 . S
Co59 N108 2.214 . S
Co60 O61 2.160 1_455 S
Co60 O66 2.058 1_455 S
Co60 O76 2.057 . S
Co60 O91 2.037 . S
Co60 N95 2.145 . S
Co60 N116 2.257 . S
O61 Co59 2.143 . S
O61 Co60 2.160 1_655 S
C62 O63 1.278 . S
C62 O70 1.224 1_455 S
O63 C62 1.278 . S
C64 O65 1.245 . S
C64 O76 1.232 1_655 S
O65 C64 1.245 . S
O66 Co60 2.058 1_655 S
O66 C92 1.269 . S
O67 Co59 2.074 . S
O67 C92 1.257 . S
H68 C93 0.930 1_565 S
H69 C99 0.930 . S
O70 Co59 2.093 . S
O70 C62 1.224 1_655 S
H71 C103 0.929 . S
H72 C105 0.930 . S
H73 C106 0.930 . S
H74 C104 0.929 . S
H75 C107 0.928 . S
O76 Co60 2.057 . S
O76 C64 1.232 1_455 S
H77 C96 0.929 . S
H78 C97 0.929 . S
H79 C109 0.931 . S
H80 C101 0.929 . S
H81 C110 0.930 . S
H82 C102 0.931 . S
O83 Co59 2.097 1_455 S
O83 C111 1.214 . S
H84 C112 0.929 . S
H85 C113 0.929 . S
H86 C114 0.930 . S
H87 C115 0.929 . S
H88 C117 0.930 . S
H89 C94 0.930 . S
H90 C98 0.930 1_565 S
O91 Co60 2.037 . S
O91 C111 1.234 . S
C92 O66 1.269 . S
C92 O67 1.257 . S
C93 H68 0.930 1_545 S
C93 C96 1.388 . S
C93 C98 1.418 . S
C94 H89 0.930 . S
C94 C97 1.404 . S
C94 C98 1.353 . S
N95 Co60 2.145 . S
N95 C96 1.397 . S
N95 C97 1.334 . S
C96 H77 0.929 . S
C96 C93 1.388 . S
C96 N95 1.397 . S
C97 H78 0.929 . S
C97 C94 1.404 . S
C97 N95 1.334 . S
C98 H90 0.930 1_545 S
C98 C93 1.418 . S
C98 C94 1.353 . S
C99 H69 0.930 . S
C99 N100 1.330 . S
C99 C101 1.446 . S
N100 Co59 2.151 . S
N100 C99 1.330 . S
N100 C104 1.418 . S
C101 H80 0.929 . S
C101 C99 1.446 . S
C101 C102 1.332 . S
C102 H82 0.931 . S
C102 C101 1.332 . S
C102 C103 1.267 . S
C103 H71 0.929 . S
C103 C102 1.267 . S
C103 C104 1.251 . S
C104 H74 0.929 . S
C104 N100 1.418 . S
C104 C103 1.251 . S
C105 H72 0.930 . S
C105 C107 1.406 . S
C105 C110 1.261 . S
C106 H73 0.930 . S
C106 N108 1.325 . S
C106 C109 1.357 . S
C107 H75 0.928 . S
C107 C105 1.406 . S
C107 N108 1.261 . S
N108 Co59 2.214 . S
N108 C106 1.325 . S
N108 C107 1.261 . S
C109 H79 0.931 . S
C109 C106 1.357 . S
C109 C110 1.312 . S
C110 H81 0.930 . S
C110 C105 1.261 . S
C110 C109 1.312 . S
C111 O83 1.214 . S
C111 O91 1.234 . S
C112 H84 0.929 . S
C112 C115 1.391 . S
C112 C117 1.391 . S
C113 H85 0.929 . S
C113 C114 1.390 . S
C113 N116 1.391 . S
C114 H86 0.930 . S
C114 C113 1.390 . S
C114 C115 1.392 . S
C115 H87 0.929 . S
C115 C112 1.391 . S
C115 C114 1.392 . S
N116 Co60 2.257 . S
N116 C113 1.391 . S
N116 C117 1.388 . S
C117 H88 0.930 . S
C117 C112 1.391 . S
C117 N116 1.388 . S
Co118 O120 2.143 . S
Co118 O126 2.074 . S
Co118 O129 2.093 . S
Co118 O142 2.097 1_565 S
Co118 N159 2.151 . S
Co118 N167 2.214 . S
Co119 O120 2.160 1_545 S
Co119 O125 2.058 1_545 S
Co119 O135 2.057 . S
Co119 O150 2.037 . S
Co119 N154 2.145 1_655 S
Co119 N175 2.257 . S
O120 Co118 2.143 . S
O120 Co119 2.160 1_565 S
C121 O122 1.278 . S
C121 O129 1.224 1_545 S
O122 C121 1.278 . S
C123 O124 1.245 . S
C123 O135 1.232 1_565 S
O124 C123 1.245 . S
O125 Co119 2.058 1_565 S
O125 C151 1.269 . S
O126 Co118 2.074 . S
O126 C151 1.257 . S
H127 C152 0.930 . S
H128 C158 0.930 . S
O129 Co118 2.093 . S
O129 C121 1.224 1_565 S
H130 C162 0.929 . S
H131 C164 0.930 . S
H132 C165 0.930 . S
H133 C163 0.929 . S
H134 C166 0.928 . S
O135 Co119 2.057 . S
O135 C123 1.232 1_545 S
H136 C155 0.929 . S
H137 C156 0.929 . S
H138 C168 0.931 . S
H139 C160 0.929 . S
H140 C169 0.930 . S
H141 C161 0.931 . S
O142 Co118 2.097 1_545 S
O142 C170 1.214 . S
H143 C171 0.929 . S
H144 C172 0.929 . S
H145 C173 0.930 . S
H146 C174 0.929 . S
H147 C176 0.930 . S
H148 C153 0.930 . S
H149 C157 0.930 . S
O150 Co119 2.037 . S
O150 C170 1.234 . S
C151 O125 1.269 . S
C151 O126 1.257 . S
C152 H127 0.930 . S
C152 C155 1.388 . S
C152 C157 1.418 . S
C153 H148 0.930 . S
C153 C156 1.404 . S
C153 C157 1.353 . S
N154 Co119 2.145 1_455 S
N154 C155 1.397 . S
N154 C156 1.334 . S
C155 H136 0.929 . S
C155 C152 1.388 . S
C155 N154 1.397 . S
C156 H137 0.929 . S
C156 C153 1.404 . S
C156 N154 1.334 . S
C157 H149 0.930 . S
C157 C152 1.418 . S
C157 C153 1.353 . S
C158 H128 0.930 . S
C158 N159 1.330 . S
C158 C160 1.446 . S
N159 Co118 2.151 . S
N159 C158 1.330 . S
N159 C163 1.418 . S
C160 H139 0.929 . S
C160 C158 1.446 . S
C160 C161 1.332 . S
C161 H141 0.931 . S
C161 C160 1.332 . S
C161 C162 1.267 . S
C162 H130 0.929 . S
C162 C161 1.267 . S
C162 C163 1.251 . S
C163 H133 0.929 . S
C163 N159 1.418 . S
C163 C162 1.251 . S
C164 H131 0.930 . S
C164 C166 1.406 . S
C164 C169 1.261 . S
C165 H132 0.930 . S
C165 N167 1.325 . S
C165 C168 1.357 . S
C166 H134 0.928 . S
C166 C164 1.406 . S
C166 N167 1.261 . S
N167 Co118 2.214 . S
N167 C165 1.325 . S
N167 C166 1.261 . S
C168 H138 0.931 . S
C168 C165 1.357 . S
C168 C169 1.312 . S
C169 H140 0.930 . S
C169 C164 1.261 . S
C169 C168 1.312 . S
C170 O142 1.214 . S
C170 O150 1.234 . S
C171 H143 0.929 . S
C171 C174 1.391 . S
C171 C176 1.391 . S
C172 H144 0.929 . S
C172 C173 1.390 . S
C172 N175 1.391 . S
C173 H145 0.930 . S
C173 C172 1.390 . S
C173 C174 1.392 . S
C174 H146 0.929 . S
C174 C171 1.391 . S
C174 C173 1.392 . S
N175 Co119 2.257 . S
N175 C172 1.391 . S
N175 C176 1.388 . S
C176 H147 0.930 . S
C176 C171 1.391 . S
C176 N175 1.388 . S
Co177 O179 2.143 . S
Co177 O185 2.074 . S
Co177 O188 2.093 . S
Co177 O201 2.097 . S
Co177 N218 2.151 . S
Co177 N226 2.214 . S
Co178 O179 2.160 . S
Co178 O184 2.058 . S
Co178 O194 2.057 . S
Co178 O209 2.037 . S
Co178 N213 2.145 1_565 S
Co178 N234 2.257 . S
O179 Co177 2.143 . S
O179 Co178 2.160 . S
C180 O181 1.278 . S
C180 O188 1.224 . S
O181 C180 1.278 . S
C182 O183 1.245 . S
C182 O194 1.232 . S
O183 C182 1.245 . S
O184 Co178 2.058 . S
O184 C210 1.269 . S
O185 Co177 2.074 . S
O185 C210 1.257 . S
H186 C211 0.930 1_455 S
H187 C217 0.930 . S
O188 Co177 2.093 . S
O188 C180 1.224 . S
H189 C221 0.929 . S
H190 C223 0.930 . S
H191 C224 0.930 . S
H192 C222 0.929 . S
H193 C225 0.928 . S
O194 Co178 2.057 . S
O194 C182 1.232 . S
H195 C214 0.929 . S
H196 C215 0.936 . S
H197 C227 0.931 . S
H198 C219 0.929 . S
H199 C228 0.930 . S
H200 C220 0.931 . S
O201 Co177 2.097 . S
O201 C229 1.214 . S
H202 C230 0.929 . S
H203 C231 0.929 . S
H204 C232 0.930 . S
H205 C233 0.929 . S
H206 C235 0.930 . S
H207 C212 0.930 . S
H208 C216 0.930 1_455 S
O209 Co178 2.037 . S
O209 C229 1.234 . S
C210 O184 1.269 . S
C210 O185 1.257 . S
C211 H186 0.930 1_655 S
C211 C214 1.388 . S
C211 C216 1.418 . S
C212 H207 0.930 . S
C212 C215 1.404 . S
C212 C216 1.353 . S
N213 Co178 2.145 1_545 S
N213 C214 1.397 . S
N213 C215 1.334 . S
C214 H195 0.929 . S
C214 C211 1.388 . S
C214 N213 1.397 . S
C215 H196 0.936 . S
C215 C212 1.404 . S
C215 N213 1.334 . S
C216 H208 0.930 1_655 S
C216 C211 1.418 . S
C216 C212 1.353 . S
C217 H187 0.930 . S
C217 N218 1.330 . S
C217 C219 1.446 . S
N218 Co177 2.151 . S
N218 C217 1.330 . S
N218 C222 1.418 . S
C219 H198 0.929 . S
C219 C217 1.446 . S
C219 C220 1.332 . S
C220 H200 0.931 . S
C220 C219 1.332 . S
C220 C221 1.267 . S
C221 H189 0.929 . S
C221 C220 1.267 . S
C221 C222 1.251 . S
C222 H192 0.929 . S
C222 N218 1.418 . S
C222 C221 1.251 . S
C223 H190 0.930 . S
C223 C225 1.406 . S
C223 C228 1.261 . S
C224 H191 0.930 . S
C224 N226 1.325 . S
C224 C227 1.357 . S
C225 H193 0.928 . S
C225 C223 1.406 . S
C225 N226 1.261 . S
N226 Co177 2.214 . S
N226 C224 1.325 . S
N226 C225 1.261 . S
C227 H197 0.931 . S
C227 C224 1.357 . S
C227 C228 1.312 . S
C228 H199 0.930 . S
C228 C223 1.261 . S
C228 C227 1.312 . S
C229 O201 1.214 . S
C229 O209 1.234 . S
C230 H202 0.929 . S
C230 C233 1.391 . S
C230 C235 1.391 . S
C231 H203 0.929 . S
C231 C232 1.390 . S
C231 N234 1.391 . S
C232 H204 0.930 . S
C232 C231 1.390 . S
C232 C233 1.392 . S
C233 H205 0.929 . S
C233 C230 1.391 . S
C233 C232 1.392 . S
N234 Co178 2.257 . S
N234 C231 1.391 . S
N234 C235 1.388 . S
C235 H206 0.930 . S
C235 C230 1.391 . S
C235 N234 1.388 . S
Co236 O238 2.143 . S
Co236 O244 2.074 . S
Co236 O247 2.093 . S
Co236 O260 2.097 1_455 S
Co236 N277 2.151 . S
Co236 N285 2.214 . S
Co237 O238 2.160 1_655 S
Co237 O243 2.058 1_655 S
Co237 O253 2.057 . S
Co237 O268 2.037 . S
Co237 N272 2.145 . S
Co237 N293 2.257 . S
O238 Co236 2.143 . S
O238 Co237 2.160 1_455 S
C239 O240 1.278 . S
C239 O247 1.224 1_655 S
O240 C239 1.278 . S
C241 O242 1.245 . S
C241 O253 1.232 1_455 S
O242 C241 1.245 . S
O243 Co237 2.058 1_455 S
O243 C269 1.269 . S
O244 Co236 2.074 . S
O244 C269 1.257 . S
H245 C270 0.930 1_545 S
H246 C276 0.930 . S
O247 Co236 2.093 . S
O247 C239 1.224 1_455 S
H248 C280 0.929 . S
H249 C282 0.930 . S
H250 C283 0.930 . S
H251 C281 0.929 . S
H252 C284 0.928 . S
O253 Co237 2.057 . S
O253 C241 1.232 1_655 S
H254 C273 0.929 . S
H255 C274 0.929 . S
H256 C286 0.931 . S
H257 C278 0.929 . S
H258 C287 0.930 . S
H259 C279 0.931 . S
O260 Co236 2.097 1_655 S
O260 C288 1.214 . S
H261 C289 0.929 . S
H262 C290 0.929 . S
H263 C291 0.930 . S
H264 C292 0.929 . S
H265 C294 0.930 . S
H266 C271 0.930 . S
H267 C275 0.930 1_545 S
O268 Co237 2.037 . S
O268 C288 1.234 . S
C269 O243 1.269 . S
C269 O244 1.257 . S
C270 H245 0.930 1_565 S
C270 C273 1.388 . S
C270 C275 1.418 . S
C271 H266 0.930 . S
C271 C274 1.404 . S
C271 C275 1.353 . S
N272 Co237 2.145 . S
N272 C273 1.397 . S
N272 C274 1.334 . S
C273 H254 0.929 . S
C273 C270 1.388 . S
C273 N272 1.397 . S
C274 H255 0.929 . S
C274 C271 1.404 . S
C274 N272 1.334 . S
C275 H267 0.930 1_565 S
C275 C270 1.418 . S
C275 C271 1.353 . S
C276 H246 0.930 . S
C276 N277 1.330 . S
C276 C278 1.446 . S
N277 Co236 2.151 . S
N277 C276 1.330 . S
N277 C281 1.418 . S
C278 H257 0.929 . S
C278 C276 1.446 . S
C278 C279 1.332 . S
C279 H259 0.931 . S
C279 C278 1.332 . S
C279 C280 1.267 . S
C280 H248 0.929 . S
C280 C279 1.267 . S
C280 C281 1.251 . S
C281 H251 0.929 . S
C281 N277 1.418 . S
C281 C280 1.251 . S
C282 H249 0.930 . S
C282 C284 1.406 . S
C282 C287 1.261 . S
C283 H250 0.930 . S
C283 N285 1.325 . S
C283 C286 1.357 . S
C284 H252 0.928 . S
C284 C282 1.406 . S
C284 N285 1.261 . S
N285 Co236 2.214 . S
N285 C283 1.325 . S
N285 C284 1.261 . S
C286 H256 0.931 . S
C286 C283 1.357 . S
C286 C287 1.312 . S
C287 H258 0.930 . S
C287 C282 1.261 . S
C287 C286 1.312 . S
C288 O260 1.214 . S
C288 O268 1.234 . S
C289 H261 0.929 . S
C289 C292 1.391 . S
C289 C294 1.391 . S
C290 H262 0.929 . S
C290 C291 1.390 . S
C290 N293 1.391 . S
C291 H263 0.930 . S
C291 C290 1.390 . S
C291 C292 1.392 . S
C292 H264 0.929 . S
C292 C289 1.391 . S
C292 C291 1.392 . S
N293 Co237 2.257 . S
N293 C290 1.391 . S
N293 C294 1.388 . S
C294 H265 0.930 . S
C294 C289 1.391 . S
C294 N293 1.388 . S
Co295 O297 2.143 . S
Co295 O303 2.074 . S
Co295 O306 2.093 . S
Co295 O319 2.097 1_545 S
Co295 N336 2.151 . S
Co295 N344 2.214 . S
Co296 O297 2.160 1_565 S
Co296 O302 2.058 1_565 S
Co296 O312 2.057 . S
Co296 O327 2.037 . S
Co296 N331 2.145 1_455 S
Co296 N352 2.257 . S
O297 Co295 2.143 . S
O297 Co296 2.160 1_545 S
C298 O299 1.278 . S
C298 O306 1.224 1_565 S
O299 C298 1.278 . S
C300 O301 1.245 . S
C300 O312 1.232 1_545 S
O301 C300 1.245 . S
O302 Co296 2.058 1_545 S
O302 C328 1.269 . S
O303 Co295 2.074 . S
O303 C328 1.257 . S
H304 C329 0.930 . S
H305 C335 0.930 . S
O306 Co295 2.093 . S
O306 C298 1.224 1_545 S
H307 C339 0.929 . S
H308 C341 0.930 . S
H309 C342 0.930 . S
H310 C340 0.929 . S
H311 C343 0.928 . S
O312 Co296 2.057 . S
O312 C300 1.232 1_565 S
H313 C332 0.929 . S
H314 C333 0.937 . S
H315 C345 0.931 . S
H316 C337 0.929 . S
H317 C346 0.930 . S
H318 C338 0.931 . S
O319 Co295 2.097 1_565 S
O319 C347 1.214 . S
H320 C348 0.929 . S
H321 C349 0.929 . S
H322 C350 0.930 . S
H323 C351 0.929 . S
H324 C353 0.930 . S
H325 C330 0.930 . S
H326 C334 0.930 . S
O327 Co296 2.037 . S
O327 C347 1.234 . S
C328 O302 1.269 . S
C328 O303 1.257 . S
C329 H304 0.930 . S
C329 C332 1.388 . S
C329 C334 1.418 . S
C330 H325 0.930 . S
C330 C333 1.404 . S
C330 C334 1.353 . S
N331 Co296 2.145 1_655 S
N331 C332 1.397 . S
N331 C333 1.334 . S
C332 H313 0.929 . S
C332 C329 1.388 . S
C332 N331 1.397 . S
C333 H314 0.937 . S
C333 C330 1.404 . S
C333 N331 1.334 . S
C334 H326 0.930 . S
C334 C329 1.418 . S
C334 C330 1.353 . S
C335 H305 0.930 . S
C335 N336 1.330 . S
C335 C337 1.446 . S
N336 Co295 2.151 . S
N336 C335 1.330 . S
N336 C340 1.418 . S
C337 H316 0.929 . S
C337 C335 1.446 . S
C337 C338 1.332 . S
C338 H318 0.931 . S
C338 C337 1.332 . S
C338 C339 1.267 . S
C339 H307 0.929 . S
C339 C338 1.267 . S
C339 C340 1.251 . S
C340 H310 0.929 . S
C340 N336 1.418 . S
C340 C339 1.251 . S
C341 H308 0.930 . S
C341 C343 1.406 . S
C341 C346 1.261 . S
C342 H309 0.930 . S
C342 N344 1.325 . S
C342 C345 1.357 . S
C343 H311 0.928 . S
C343 C341 1.406 . S
C343 N344 1.261 . S
N344 Co295 2.214 . S
N344 C342 1.325 . S
N344 C343 1.261 . S
C345 H315 0.931 . S
C345 C342 1.357 . S
C345 C346 1.312 . S
C346 H317 0.930 . S
C346 C341 1.261 . S
C346 C345 1.312 . S
C347 O319 1.214 . S
C347 O327 1.234 . S
C348 H320 0.929 . S
C348 C351 1.391 . S
C348 C353 1.391 . S
C349 H321 0.929 . S
C349 C350 1.390 . S
C349 N352 1.391 . S
C350 H322 0.930 . S
C350 C349 1.390 . S
C350 C351 1.392 . S
C351 H323 0.929 . S
C351 C348 1.391 . S
C351 C350 1.392 . S
N352 Co296 2.257 . S
N352 C349 1.391 . S
N352 C353 1.388 . S
C353 H324 0.930 . S
C353 C348 1.391 . S
C353 N352 1.388 . S
Co354 O356 2.143 . S
Co354 O362 2.074 . S
Co354 O365 2.093 . S
Co354 O378 2.097 . S
Co354 N395 2.151 . S
Co354 N403 2.214 . S
Co355 O356 2.160 . S
Co355 O361 2.058 . S
Co355 O371 2.057 . S
Co355 O386 2.037 . S
Co355 N390 2.145 1_655 S
Co355 N411 2.257 . S
O356 Co354 2.143 . S
O356 Co355 2.160 . S
C357 O358 1.278 . S
C357 O365 1.224 . S
O358 C357 1.278 . S
C359 O360 1.245 . S
C359 O371 1.232 . S
O360 C359 1.245 . S
O361 Co355 2.058 . S
O361 C387 1.269 . S
O362 Co354 2.074 . S
O362 C387 1.257 . S
H363 C388 0.930 1_545 S
H364 C394 0.930 . S
O365 Co354 2.093 . S
O365 C357 1.224 . S
H366 C398 0.929 . S
H367 C400 0.930 . S
H368 C401 0.930 . S
H369 C399 0.929 . S
H370 C402 0.928 . S
O371 Co355 2.057 . S
O371 C359 1.232 . S
H372 C391 0.929 . S
H373 C392 0.937 . S
H374 C404 0.931 . S
H375 C396 0.929 . S
H376 C405 0.930 . S
H377 C397 0.931 . S
O378 Co354 2.097 . S
O378 C406 1.214 . S
H379 C407 0.929 . S
H380 C408 0.929 . S
H381 C409 0.930 . S
H382 C410 0.929 . S
H383 C412 0.930 . S
H384 C389 0.930 . S
H385 C393 0.930 1_545 S
O386 Co355 2.037 . S
O386 C406 1.234 . S
C387 O361 1.269 . S
C387 O362 1.257 . S
C388 H363 0.930 1_565 S
C388 C391 1.388 . S
C388 C393 1.418 . S
C389 H384 0.930 . S
C389 C392 1.404 . S
C389 C393 1.353 . S
N390 Co355 2.145 1_455 S
N390 C391 1.397 . S
N390 C392 1.334 . S
C391 H372 0.929 . S
C391 C388 1.388 . S
C391 N390 1.397 . S
C392 H373 0.937 . S
C392 C389 1.404 . S
C392 N390 1.334 . S
C393 H385 0.930 1_565 S
C393 C388 1.418 . S
C393 C389 1.353 . S
C394 H364 0.930 . S
C394 N395 1.330 . S
C394 C396 1.446 . S
N395 Co354 2.151 . S
N395 C394 1.330 . S
N395 C399 1.418 . S
C396 H375 0.929 . S
C396 C394 1.446 . S
C396 C397 1.332 . S
C397 H377 0.931 . S
C397 C396 1.332 . S
C397 C398 1.267 . S
C398 H366 0.929 . S
C398 C397 1.267 . S
C398 C399 1.251 . S
C399 H369 0.929 . S
C399 N395 1.418 . S
C399 C398 1.251 . S
C400 H367 0.930 . S
C400 C402 1.406 . S
C400 C405 1.261 . S
C401 H368 0.930 . S
C401 N403 1.325 . S
C401 C404 1.357 . S
C402 H370 0.928 . S
C402 C400 1.406 . S
C402 N403 1.261 . S
N403 Co354 2.214 . S
N403 C401 1.325 . S
N403 C402 1.261 . S
C404 H374 0.931 . S
C404 C401 1.357 . S
C404 C405 1.312 . S
C405 H376 0.930 . S
C405 C400 1.261 . S
C405 C404 1.312 . S
C406 O378 1.214 . S
C406 O386 1.234 . S
C407 H379 0.929 . S
C407 C410 1.391 . S
C407 C412 1.391 . S
C408 H380 0.929 . S
C408 C409 1.390 . S
C408 N411 1.391 . S
C409 H381 0.930 . S
C409 C408 1.390 . S
C409 C410 1.392 . S
C410 H382 0.929 . S
C410 C407 1.391 . S
C410 C409 1.392 . S
N411 Co355 2.257 . S
N411 C408 1.391 . S
N411 C412 1.388 . S
C412 H383 0.930 . S
C412 C407 1.391 . S
C412 N411 1.388 . S
Co413 O415 2.143 . S
Co413 O421 2.074 . S
Co413 O424 2.093 . S
Co413 O437 2.097 1_655 S
Co413 N454 2.151 . S
Co413 N462 2.214 . S
Co414 O415 2.160 1_455 S
Co414 O420 2.058 1_455 S
Co414 O430 2.057 . S
Co414 O445 2.037 . S
Co414 N449 2.145 1_565 S
Co414 N470 2.257 . S
O415 Co413 2.143 . S
O415 Co414 2.160 1_655 S
C416 O417 1.278 . S
C416 O424 1.224 1_455 S
O417 C416 1.278 . S
C418 O419 1.245 . S
C418 O430 1.232 1_655 S
O419 C418 1.245 . S
O420 Co414 2.058 1_655 S
O420 C446 1.269 . S
O421 Co413 2.074 . S
O421 C446 1.257 . S
H422 C447 0.930 . S
H423 C453 0.930 . S
O424 Co413 2.093 . S
O424 C416 1.224 1_655 S
H425 C457 0.929 . S
H426 C459 0.930 . S
H427 C460 0.930 . S
H428 C458 0.929 . S
H429 C461 0.928 . S
O430 Co414 2.057 . S
O430 C418 1.232 1_455 S
H431 C450 0.929 . S
H432 C451 0.937 . S
H433 C463 0.931 . S
H434 C455 0.929 . S
H435 C464 0.930 . S
H436 C456 0.931 . S
O437 Co413 2.097 1_455 S
O437 C465 1.214 . S
H438 C466 0.929 . S
H439 C467 0.929 . S
H440 C468 0.930 . S
H441 C469 0.929 . S
H442 C471 0.930 . S
H443 C448 0.930 . S
H444 C452 0.930 . S
O445 Co414 2.037 . S
O445 C465 1.234 . S
C446 O420 1.269 . S
C446 O421 1.257 . S
C447 H422 0.930 . S
C447 C450 1.388 . S
C447 C452 1.418 . S
C448 H443 0.930 . S
C448 C451 1.404 . S
C448 C452 1.353 . S
N449 Co414 2.145 1_545 S
N449 C450 1.397 . S
N449 C451 1.334 . S
C450 H431 0.929 . S
C450 C447 1.388 . S
C450 N449 1.397 . S
C451 H432 0.937 . S
C451 C448 1.404 . S
C451 N449 1.334 . S
C452 H444 0.930 . S
C452 C447 1.418 . S
C452 C448 1.353 . S
C453 H423 0.930 . S
C453 N454 1.330 . S
C453 C455 1.446 . S
N454 Co413 2.151 . S
N454 C453 1.330 . S
N454 C458 1.418 . S
C455 H434 0.929 . S
C455 C453 1.446 . S
C455 C456 1.332 . S
C456 H436 0.931 . S
C456 C455 1.332 . S
C456 C457 1.267 . S
C457 H425 0.929 . S
C457 C456 1.267 . S
C457 C458 1.251 . S
C458 H428 0.929 . S
C458 N454 1.418 . S
C458 C457 1.251 . S
C459 H426 0.930 . S
C459 C461 1.406 . S
C459 C464 1.261 . S
C460 H427 0.930 . S
C460 N462 1.325 . S
C460 C463 1.357 . S
C461 H429 0.928 . S
C461 C459 1.406 . S
C461 N462 1.261 . S
N462 Co413 2.214 . S
N462 C460 1.325 . S
N462 C461 1.261 . S
C463 H433 0.931 . S
C463 C460 1.357 . S
C463 C464 1.312 . S
C464 H435 0.930 . S
C464 C459 1.261 . S
C464 C463 1.312 . S
C465 O437 1.214 . S
C465 O445 1.234 . S
C466 H438 0.929 . S
C466 C469 1.391 . S
C466 C471 1.391 . S
C467 H439 0.929 . S
C467 C468 1.390 . S
C467 N470 1.391 . S
C468 H440 0.930 . S
C468 C467 1.390 . S
C468 C469 1.392 . S
C469 H441 0.929 . S
C469 C466 1.391 . S
C469 C468 1.392 . S
N470 Co414 2.257 . S
N470 C467 1.391 . S
N470 C471 1.388 . S
C471 H442 0.930 . S
C471 C466 1.391 . S
C471 N470 1.388 . S
Co472 O474 2.143 . S
Co472 O480 2.074 . S
Co472 O483 2.093 . S
Co472 O496 2.097 1_565 S
Co472 N513 2.151 . S
Co472 N521 2.214 . S
Co473 O474 2.160 1_545 S
Co473 O479 2.058 1_545 S
Co473 O489 2.057 . S
Co473 O504 2.037 . S
Co473 N508 2.145 . S
Co473 N529 2.257 . S
O474 Co472 2.143 . S
O474 Co473 2.160 1_565 S
C475 O476 1.278 . S
C475 O483 1.224 1_545 S
O476 C475 1.278 . S
C477 O478 1.245 . S
C477 O489 1.232 1_565 S
O478 C477 1.245 . S
O479 Co473 2.058 1_565 S
O479 C505 1.269 . S
O480 Co472 2.074 . S
O480 C505 1.257 . S
H481 C506 0.930 1_655 S
H482 C512 0.930 . S
O483 Co472 2.093 . S
O483 C475 1.224 1_565 S
H484 C516 0.929 . S
H485 C518 0.930 . S
H486 C519 0.930 . S
H487 C517 0.929 . S
H488 C520 0.928 . S
O489 Co473 2.057 . S
O489 C477 1.232 1_545 S
H490 C509 0.929 . S
H491 C510 0.929 . S
H492 C522 0.931 . S
H493 C514 0.929 . S
H494 C523 0.930 . S
H495 C515 0.931 . S
O496 Co472 2.097 1_545 S
O496 C524 1.214 . S
H497 C525 0.929 . S
H498 C526 0.929 . S
H499 C527 0.930 . S
H500 C528 0.929 . S
H501 C530 0.930 . S
H502 C507 0.930 . S
H503 C511 0.930 1_655 S
O504 Co473 2.037 . S
O504 C524 1.234 . S
C505 O479 1.269 . S
C505 O480 1.257 . S
C506 H481 0.930 1_455 S
C506 C509 1.388 . S
C506 C511 1.418 . S
C507 H502 0.930 . S
C507 C510 1.404 . S
C507 C511 1.353 . S
N508 Co473 2.145 . S
N508 C509 1.397 . S
N508 C510 1.334 . S
C509 H490 0.929 . S
C509 C506 1.388 . S
C509 N508 1.397 . S
C510 H491 0.929 . S
C510 C507 1.404 . S
C510 N508 1.334 . S
C511 H503 0.930 1_455 S
C511 C506 1.418 . S
C511 C507 1.353 . S
C512 H482 0.930 . S
C512 N513 1.330 . S
C512 C514 1.446 . S
N513 Co472 2.151 . S
N513 C512 1.330 . S
N513 C517 1.418 . S
C514 H493 0.929 . S
C514 C512 1.446 . S
C514 C515 1.332 . S
C515 H495 0.931 . S
C515 C514 1.332 . S
C515 C516 1.267 . S
C516 H484 0.929 . S
C516 C515 1.267 . S
C516 C517 1.251 . S
C517 H487 0.929 . S
C517 N513 1.418 . S
C517 C516 1.251 . S
C518 H485 0.930 . S
C518 C520 1.406 . S
C518 C523 1.261 . S
C519 H486 0.930 . S
C519 N521 1.325 . S
C519 C522 1.357 . S
C520 H488 0.928 . S
C520 C518 1.406 . S
C520 N521 1.261 . S
N521 Co472 2.214 . S
N521 C519 1.325 . S
N521 C520 1.261 . S
C522 H492 0.931 . S
C522 C519 1.357 . S
C522 C523 1.312 . S
C523 H494 0.930 . S
C523 C518 1.261 . S
C523 C522 1.312 . S
C524 O496 1.214 . S
C524 O504 1.234 . S
C525 H497 0.929 . S
C525 C528 1.391 . S
C525 C530 1.391 . S
C526 H498 0.929 . S
C526 C527 1.390 . S
C526 N529 1.391 . S
C527 H499 0.930 . S
C527 C526 1.390 . S
C527 C528 1.392 . S
C528 H500 0.929 . S
C528 C525 1.391 . S
C528 C527 1.392 . S
N529 Co473 2.257 . S
N529 C526 1.391 . S
N529 C530 1.388 . S
C530 H501 0.930 . S
C530 C525 1.391 . S
C530 N529 1.388 . S
Co531 O533 2.143 . S
Co531 O539 2.074 . S
Co531 O542 2.093 . S
Co531 O555 2.097 . S
Co531 N572 2.151 . S
Co531 N580 2.214 . S
Co532 O533 2.160 . S
Co532 O538 2.058 . S
Co532 O548 2.057 . S
Co532 O563 2.037 . S
Co532 N567 2.145 1_455 S
Co532 N588 2.257 . S
O533 Co531 2.143 . S
O533 Co532 2.160 . S
C534 O535 1.278 . S
C534 O542 1.224 . S
O535 C534 1.278 . S
C536 O537 1.245 . S
C536 O548 1.232 . S
O537 C536 1.245 . S
O538 Co532 2.058 . S
O538 C564 1.269 . S
O539 Co531 2.074 . S
O539 C564 1.257 . S
H540 C565 0.930 1_565 S
H541 C571 0.930 . S
O542 Co531 2.093 . S
O542 C534 1.224 . S
H543 C575 0.929 . S
H544 C577 0.930 . S
H545 C578 0.930 . S
H546 C576 0.929 . S
H547 C579 0.928 . S
O548 Co532 2.057 . S
O548 C536 1.232 . S
H549 C568 0.929 . S
H550 C569 0.936 . S
H551 C581 0.931 . S
H552 C573 0.929 . S
H553 C582 0.930 . S
H554 C574 0.931 . S
O555 Co531 2.097 . S
O555 C583 1.214 . S
H556 C584 0.929 . S
H557 C585 0.929 . S
H558 C586 0.930 . S
H559 C587 0.929 . S
H560 C589 0.930 . S
H561 C566 0.930 . S
H562 C570 0.930 1_565 S
O563 Co532 2.037 . S
O563 C583 1.234 . S
C564 O538 1.269 . S
C564 O539 1.257 . S
C565 H540 0.930 1_545 S
C565 C568 1.388 . S
C565 C570 1.418 . S
C566 H561 0.930 . S
C566 C569 1.404 . S
C566 C570 1.353 . S
N567 Co532 2.145 1_655 S
N567 C568 1.397 . S
N567 C569 1.334 . S
C568 H549 0.929 . S
C568 C565 1.388 . S
C568 N567 1.397 . S
C569 H550 0.936 . S
C569 C566 1.404 . S
C569 N567 1.334 . S
C570 H562 0.930 1_545 S
C570 C565 1.418 . S
C570 C566 1.353 . S
C571 H541 0.930 . S
C571 N572 1.330 . S
C571 C573 1.446 . S
N572 Co531 2.151 . S
N572 C571 1.330 . S
N572 C576 1.418 . S
C573 H552 0.929 . S
C573 C571 1.446 . S
C573 C574 1.332 . S
C574 H554 0.931 . S
C574 C573 1.332 . S
C574 C575 1.267 . S
C575 H543 0.929 . S
C575 C574 1.267 . S
C575 C576 1.251 . S
C576 H546 0.929 . S
C576 N572 1.418 . S
C576 C575 1.251 . S
C577 H544 0.930 . S
C577 C579 1.406 . S
C577 C582 1.261 . S
C578 H545 0.930 . S
C578 N580 1.325 . S
C578 C581 1.357 . S
C579 H547 0.928 . S
C579 C577 1.406 . S
C579 N580 1.261 . S
N580 Co531 2.214 . S
N580 C578 1.325 . S
N580 C579 1.261 . S
C581 H551 0.931 . S
C581 C578 1.357 . S
C581 C582 1.312 . S
C582 H553 0.930 . S
C582 C577 1.261 . S
C582 C581 1.312 . S
C583 O555 1.214 . S
C583 O563 1.234 . S
C584 H556 0.929 . S
C584 C587 1.391 . S
C584 C589 1.391 . S
C585 H557 0.929 . S
C585 C586 1.390 . S
C585 N588 1.391 . S
C586 H558 0.930 . S
C586 C585 1.390 . S
C586 C587 1.392 . S
C587 H559 0.929 . S
C587 C584 1.391 . S
C587 C586 1.392 . S
N588 Co532 2.257 . S
N588 C585 1.391 . S
N588 C589 1.388 . S
C589 H560 0.930 . S
C589 C584 1.391 . S
C589 N588 1.388 . S
Co590 O592 2.143 . S
Co590 O598 2.074 . S
Co590 O601 2.093 . S
Co590 O614 2.097 1_455 S
Co590 N631 2.151 . S
Co590 N639 2.214 . S
Co591 O592 2.160 1_655 S
Co591 O597 2.058 1_655 S
Co591 O607 2.057 . S
Co591 O622 2.037 . S
Co591 N626 2.145 1_545 S
Co591 N647 2.257 . S
O592 Co590 2.143 . S
O592 Co591 2.160 1_455 S
C593 O594 1.278 . S
C593 O601 1.224 1_655 S
O594 C593 1.278 . S
C595 O596 1.245 . S
C595 O607 1.232 1_455 S
O596 C595 1.245 . S
O597 Co591 2.058 1_455 S
O597 C623 1.269 . S
O598 Co590 2.074 . S
O598 C623 1.257 . S
H599 C624 0.930 . S
H600 C630 0.930 . S
O601 Co590 2.093 . S
O601 C593 1.224 1_455 S
H602 C634 0.929 . S
H603 C636 0.930 . S
H604 C637 0.930 . S
H605 C635 0.929 . S
H606 C638 0.928 . S
O607 Co591 2.057 . S
O607 C595 1.232 1_655 S
H608 C627 0.929 . S
H609 C628 0.929 . S
H610 C640 0.931 . S
H611 C632 0.929 . S
H612 C641 0.930 . S
H613 C633 0.931 . S
O614 Co590 2.097 1_655 S
O614 C642 1.214 . S
H615 C643 0.929 . S
H616 C644 0.929 . S
H617 C645 0.930 . S
H618 C646 0.929 . S
H619 C648 0.930 . S
H620 C625 0.930 . S
H621 C629 0.930 . S
O622 Co591 2.037 . S
O622 C642 1.234 . S
C623 O597 1.269 . S
C623 O598 1.257 . S
C624 H599 0.930 . S
C624 C627 1.388 . S
C624 C629 1.418 . S
C625 H620 0.930 . S
C625 C628 1.404 . S
C625 C629 1.353 . S
N626 Co591 2.145 1_565 S
N626 C627 1.397 . S
N626 C628 1.334 . S
C627 H608 0.929 . S
C627 C624 1.388 . S
C627 N626 1.397 . S
C628 H609 0.929 . S
C628 C625 1.404 . S
C628 N626 1.334 . S
C629 H621 0.930 . S
C629 C624 1.418 . S
C629 C625 1.353 . S
C630 H600 0.930 . S
C630 N631 1.330 . S
C630 C632 1.446 . S
N631 Co590 2.151 . S
N631 C630 1.330 . S
N631 C635 1.418 . S
C632 H611 0.929 . S
C632 C630 1.446 . S
C632 C633 1.332 . S
C633 H613 0.931 . S
C633 C632 1.332 . S
C633 C634 1.267 . S
C634 H602 0.929 . S
C634 C633 1.267 . S
C634 C635 1.251 . S
C635 H605 0.929 . S
C635 N631 1.418 . S
C635 C634 1.251 . S
C636 H603 0.930 . S
C636 C638 1.406 . S
C636 C641 1.261 . S
C637 H604 0.930 . S
C637 N639 1.325 . S
C637 C640 1.357 . S
C638 H606 0.928 . S
C638 C636 1.406 . S
C638 N639 1.261 . S
N639 Co590 2.214 . S
N639 C637 1.325 . S
N639 C638 1.261 . S
C640 H610 0.931 . S
C640 C637 1.357 . S
C640 C641 1.312 . S
C641 H612 0.930 . S
C641 C636 1.261 . S
C641 C640 1.312 . S
C642 O614 1.214 . S
C642 O622 1.234 . S
C643 H615 0.929 . S
C643 C646 1.391 . S
C643 C648 1.391 . S
C644 H616 0.929 . S
C644 C645 1.390 . S
C644 N647 1.391 . S
C645 H617 0.930 . S
C645 C644 1.390 . S
C645 C646 1.392 . S
C646 H618 0.929 . S
C646 C643 1.391 . S
C646 C645 1.392 . S
N647 Co591 2.257 . S
N647 C644 1.391 . S
N647 C648 1.388 . S
C648 H619 0.930 . S
C648 C643 1.391 . S
C648 N647 1.388 . S
Co649 O651 2.143 . S
Co649 O657 2.074 . S
Co649 O660 2.093 . S
Co649 O673 2.097 1_545 S
Co649 N690 2.151 . S
Co649 N698 2.214 . S
Co650 O651 2.160 1_565 S
Co650 O656 2.058 1_565 S
Co650 O666 2.057 . S
Co650 O681 2.037 . S
Co650 N685 2.145 . S
Co650 N706 2.257 . S
O651 Co649 2.143 . S
O651 Co650 2.160 1_545 S
C652 O653 1.278 . S
C652 O660 1.224 1_565 S
O653 C652 1.278 . S
C654 O655 1.245 . S
C654 O666 1.232 1_545 S
O655 C654 1.245 . S
O656 Co650 2.058 1_545 S
O656 C682 1.269 . S
O657 Co649 2.074 . S
O657 C682 1.257 . S
H658 C683 0.930 1_455 S
H659 C689 0.930 . S
O660 Co649 2.093 . S
O660 C652 1.224 1_545 S
H661 C693 0.929 . S
H662 C695 0.930 . S
H663 C696 0.930 . S
H664 C694 0.929 . S
H665 C697 0.928 . S
O666 Co650 2.057 . S
O666 C654 1.232 1_565 S
H667 C686 0.929 . S
H668 C687 0.929 . S
H669 C699 0.931 . S
H670 C691 0.929 . S
H671 C700 0.930 . S
H672 C692 0.931 . S
O673 Co649 2.097 1_565 S
O673 C701 1.214 . S
H674 C702 0.929 . S
H675 C703 0.929 . S
H676 C704 0.930 . S
H677 C705 0.929 . S
H678 C707 0.930 . S
H679 C684 0.930 . S
H680 C688 0.930 1_455 S
O681 Co650 2.037 . S
O681 C701 1.234 . S
C682 O656 1.269 . S
C682 O657 1.257 . S
C683 H658 0.930 1_655 S
C683 C686 1.388 . S
C683 C688 1.418 . S
C684 H679 0.930 . S
C684 C687 1.404 . S
C684 C688 1.353 . S
N685 Co650 2.145 . S
N685 C686 1.397 . S
N685 C687 1.334 . S
C686 H667 0.929 . S
C686 C683 1.388 . S
C686 N685 1.397 . S
C687 H668 0.929 . S
C687 C684 1.404 . S
C687 N685 1.334 . S
C688 H680 0.930 1_655 S
C688 C683 1.418 . S
C688 C684 1.353 . S
C689 H659 0.930 . S
C689 N690 1.330 . S
C689 C691 1.446 . S
N690 Co649 2.151 . S
N690 C689 1.330 . S
N690 C694 1.418 . S
C691 H670 0.929 . S
C691 C689 1.446 . S
C691 C692 1.332 . S
C692 H672 0.931 . S
C692 C691 1.332 . S
C692 C693 1.267 . S
C693 H661 0.929 . S
C693 C692 1.267 . S
C693 C694 1.251 . S
C694 H664 0.929 . S
C694 N690 1.418 . S
C694 C693 1.251 . S
C695 H662 0.930 . S
C695 C697 1.406 . S
C695 C700 1.261 . S
C696 H663 0.930 . S
C696 N698 1.325 . S
C696 C699 1.357 . S
C697 H665 0.928 . S
C697 C695 1.406 . S
C697 N698 1.261 . S
N698 Co649 2.214 . S
N698 C696 1.325 . S
N698 C697 1.261 . S
C699 H669 0.931 . S
C699 C696 1.357 . S
C699 C700 1.312 . S
C700 H671 0.930 . S
C700 C695 1.261 . S
C700 C699 1.312 . S
C701 O673 1.214 . S
C701 O681 1.234 . S
C702 H674 0.929 . S
C702 C705 1.391 . S
C702 C707 1.391 . S
C703 H675 0.929 . S
C703 C704 1.390 . S
C703 N706 1.391 . S
C704 H676 0.930 . S
C704 C703 1.390 . S
C704 C705 1.392 . S
C705 H677 0.929 . S
C705 C702 1.391 . S
C705 C704 1.392 . S
N706 Co650 2.257 . S
N706 C703 1.391 . S
N706 C707 1.388 . S
C707 H678 0.930 . S
C707 C702 1.391 . S
C707 N706 1.388 . S
C682 C33 2.133 1_655 S
C92 C387 2.134 1_545 S
C151 C446 2.134 . S
C210 C505 2.133 1_655 S
C564 C269 2.134 1_545 S
C328 C623 2.134 . S
C180 C3 1.437 . S
C239 C62 1.437 1_655 S
C298 C121 1.437 1_565 S
C357 C534 1.437 . S
C416 C593 1.437 1_455 S
C475 C652 1.437 1_545 S
C524 C52 0.841 . S
C111 C583 0.840 . S
C642 C170 0.840 . S
C701 C229 0.841 . S
C406 C288 0.841 . S
C347 C465 0.840 . S
C536 C5 2.177 . S
C64 C595 2.177 1_655 S
C654 C123 2.178 1_544 S
C182 C359 2.177 . S
C241 C418 2.178 1_455 S
C477 C300 2.178 1_564 S
