# Generated by pormake.
# Topology nov, (5)-cn, num edge types: 1
# Building blocks:
#     Node 0, Type 0, BuildingBlock: XOMCOT_clean_sbu_1, # of connection points: 5
#     Node 1, Type 0, BuildingBlock: XOMCOT_clean_sbu_1, # of connection points: 5
#     Node 2, Type 0, BuildingBlock: XOMCOT_clean_sbu_1, # of connection points: 5
#     Node 3, Type 0, BuildingBlock: XOMCOT_clean_sbu_1, # of connection points: 5
#     Node 4, Type 0, BuildingBlock: XOMCOT_clean_sbu_1, # of connection points: 5
#     Node 5, Type 0, BuildingBlock: XOMCOT_clean_sbu_1, # of connection points: 5
#     Node 6, Type 0, BuildingBlock: XOMCOT_clean_sbu_1, # of connection points: 5
#     Node 7, Type 0, BuildingBlock: XOMCOT_clean_sbu_1, # of connection points: 5
#     Edge 8, Type (0, 0), BuildingBlock: XUDNAN_clean_linker_2, # of connection points: 2
#     Edge 9, Type (0, 0), BuildingBlock: XUDNAN_clean_linker_2, # of connection points: 2
#     Edge 10, Type (0, 0), BuildingBlock: XUDNAN_clean_linker_2, # of connection points: 2
#     Edge 11, Type (0, 0), BuildingBlock: XUDNAN_clean_linker_2, # of connection points: 2
#     Edge 12, Type (0, 0), BuildingBlock: XUDNAN_clean_linker_2, # of connection points: 2
#     Edge 13, Type (0, 0), BuildingBlock: XUDNAN_clean_linker_2, # of connection points: 2
#     Edge 14, Type (0, 0), BuildingBlock: XUDNAN_clean_linker_2, # of connection points: 2
#     Edge 15, Type (0, 0), BuildingBlock: XUDNAN_clean_linker_2, # of connection points: 2
#     Edge 16, Type (0, 0), BuildingBlock: XUDNAN_clean_linker_2, # of connection points: 2
#     Edge 17, Type (0, 0), BuildingBlock: XUDNAN_clean_linker_2, # of connection points: 2
#     Edge 18, Type (0, 0), BuildingBlock: XUDNAN_clean_linker_2, # of connection points: 2
#     Edge 19, Type (0, 0), BuildingBlock: XUDNAN_clean_linker_2, # of connection points: 2
#     Edge 20, Type (0, 0), BuildingBlock: XUDNAN_clean_linker_2, # of connection points: 2
#     Edge 21, Type (0, 0), BuildingBlock: XUDNAN_clean_linker_2, # of connection points: 2
#     Edge 22, Type (0, 0), BuildingBlock: XUDNAN_clean_linker_2, # of connection points: 2
#     Edge 23, Type (0, 0), BuildingBlock: XUDNAN_clean_linker_2, # of connection points: 2
#     Edge 24, Type (0, 0), BuildingBlock: XUDNAN_clean_linker_2, # of connection points: 2
#     Edge 25, Type (0, 0), BuildingBlock: XUDNAN_clean_linker_2, # of connection points: 2
#     Edge 26, Type (0, 0), BuildingBlock: XUDNAN_clean_linker_2, # of connection points: 2
#     Edge 27, Type (0, 0), BuildingBlock: XUDNAN_clean_linker_2, # of connection points: 2
# Relax obj value: 0.129
# Max RMSD: 0.163
# Mean RMSD: 0.163
data_MOF--net-nov--node1-XOMCOT_clean_sbu_1--edge1-XUDNAN_clean_linker_2
_symmetry_space_group_name_H-M    P1
_symmetry_Int_Tables_number       1
_symmetry_cell_setting            triclinic
loop_
_symmetry_equiv_pos_as_xyz
'x, y, z'
_cell_length_a     27.122065
_cell_length_b     53.78572
_cell_length_c     28.168224
_cell_angle_alpha  90.420829
_cell_angle_beta   89.47727
_cell_angle_gamma 90.363659
loop_
_atom_site_label
_atom_site_type_symbol
_atom_site_fract_x
_atom_site_fract_y
_atom_site_fract_z
_atom_type_partial_charge
C0 C 0.09751 0.13872 0.06413 0.0
C1 C 0.09515 0.11904 0.03298 0.0
N2 N 0.0627 0.1023 0.05025 0.0
N3 N 0.06605 0.13474 0.10072 0.0
C4 C 0.04586 0.11208 0.09173 0.0
H5 H 0.11979 0.15531 0.05982 0.0
Co6 Co 0.05653 0.15833 0.14947 0.0
C7 C 0.94554 0.14907 0.15756 0.0
O8 O 0.93743 0.16547 0.12447 0.0
N9 N 0.04778 0.18178 0.19961 0.0
C10 C 1.01502 0.21125 0.2457 0.0
C11 C 1.0062 0.19457 0.20976 0.0
C12 C 0.08144 0.1911 0.23047 0.0
N13 N 0.06241 0.2092 0.25862 0.0
O14 O 0.09114 0.13664 0.19249 0.0
H15 H 0.97209 0.19308 0.19072 0.0
H16 H 0.1197 0.18561 0.23095 0.0
O17 O 0.99017 0.14358 0.16831 0.0
C18 C 0.13689 0.14118 0.18415 0.0
O19 O 0.14766 0.15836 0.15267 0.0
N20 N 0.03145 0.18156 0.10354 0.0
C21 C 0.02979 0.21494 0.0269 0.0
C22 C 1.00817 0.19125 0.02294 0.0
C23 C 1.00969 0.17481 0.06146 0.0
C24 C 0.0512 0.20494 0.10772 0.0
C25 C 0.0491 0.22199 0.07093 0.0
H26 H 0.99605 0.15607 0.05619 0.0
H27 H 0.07279 0.21024 0.13811 0.0
H28 H 1.01858 0.10324 0.11436 0.0
H29 H 0.11584 0.11709 1.00012 0.0
H30 H 0.98866 0.22423 0.26065 0.0
H31 H 0.99335 0.18478 0.98946 0.0
H32 H 0.0658 0.24014 0.07616 0.0
C33 C 0.63547 0.90484 0.60885 0.0
C34 C 0.63401 0.92809 0.58874 0.0
N35 N 0.58652 0.93514 0.58631 0.0
N36 N 0.58911 0.89724 0.61928 0.0
C37 C 0.56022 0.916 0.60462 0.0
H38 H 0.66836 0.8942 0.61559 0.0
Co39 Co 0.56958 0.86717 0.64733 0.0
C40 C 0.65535 0.85351 0.71021 0.0
O41 O 0.64117 0.83016 0.71278 0.0
N42 N 0.54878 0.83702 0.67554 0.0
C43 C 0.52204 0.79835 0.68786 0.0
C44 C 0.53748 0.81518 0.65416 0.0
C45 C 0.53847 0.8331 0.72206 0.0
N46 N 0.52277 0.80964 0.73069 0.0
O47 O 0.53162 0.88497 0.69429 0.0
H48 H 0.53975 0.81162 0.61641 0.0
H49 H 0.544 0.84708 0.74934 0.0
O50 O 0.62994 0.86892 0.68633 0.0
C51 C 0.48765 0.88575 0.67849 0.0
O52 O 0.47858 0.87583 0.63668 0.0
N53 N 0.60085 0.84984 0.59769 0.0
C54 C 0.62014 0.82021 0.51816 0.0
C55 C 0.65251 0.82036 0.55681 0.0
C56 C 0.64224 0.83546 0.59651 0.0
C57 C 0.57131 0.85117 0.55901 0.0
C58 C 0.58032 0.83666 0.51891 0.0
H59 H 0.66655 0.83465 0.62632 0.0
H60 H 0.53887 0.86275 0.56032 0.0
H61 H 0.52049 0.9156 0.60686 0.0
H62 H 0.66556 0.93914 0.57786 0.0
H63 H 0.51046 0.77936 0.68112 0.0
H64 H 0.68395 0.80806 0.5574 0.0
H65 H 0.55513 0.83767 0.48938 0.0
C66 C 0.10931 0.89642 0.95243 0.0
C67 C 0.10028 0.9193 0.97205 0.0
N68 N 0.06905 0.93152 0.94373 0.0
N69 N 0.08378 0.8938 0.91189 0.0
C70 C 0.05978 0.91566 0.90708 0.0
H71 H 0.13387 0.88261 0.9665 0.0
Co72 Co 0.08955 0.86446 0.87647 0.0
C73 C 0.99591 0.85531 0.82761 0.0
O74 O 1.00302 0.83193 0.83857 0.0
N75 N 0.09874 0.83433 0.84072 0.0
C76 C 0.10843 0.7949 0.81734 0.0
C77 C 0.10169 0.81047 0.85558 0.0
C78 C 0.105 0.8325 0.79287 0.0
N79 N 0.11061 0.80874 0.77792 0.0
O80 O 0.13104 0.88141 0.83154 0.0
H81 H 0.09866 0.80413 0.8916 0.0
H82 H 0.1043 0.84827 0.76923 0.0
O83 O 0.02809 0.8717 0.8402 0.0
C84 C 0.17525 0.87774 0.84499 0.0
O85 O 0.18188 0.86467 0.88364 0.0
N86 N 0.05387 0.84816 0.92485 0.0
C87 C 1.017 0.82642 0.00744 0.0
C88 C 0.98574 0.83975 0.97777 0.0
C89 C 1.00536 0.85128 0.9373 0.0
C90 C 0.08487 0.83639 0.95494 0.0
C91 C 0.06719 0.82501 0.99581 0.0
H92 H 0.98179 0.86334 0.91733 0.0
H93 H 0.12393 0.83585 0.9469 0.0
H94 H 0.03637 0.9199 0.87734 0.0
H95 H 0.11705 0.92672 1.00392 0.0
H96 H 0.11194 0.77487 0.81846 0.0
H97 H 0.94711 0.84201 0.98675 0.0
H98 H 0.09271 0.81515 0.01818 0.0
C99 C 0.5073 0.14141 0.45831 0.0
C100 C 0.50711 0.12201 0.48955 0.0
N101 N 0.52528 0.10185 0.46705 0.0
N102 N 0.52604 0.13373 0.41618 0.0
C103 C 0.5369 0.10946 0.42265 0.0
H104 H 0.49191 0.15958 0.46519 0.0
Co105 Co 0.52324 0.15197 0.35982 0.0
C106 C 0.6246 0.1556 0.32312 0.0
O107 O 0.61395 0.17934 0.32009 0.0
N108 N 0.51892 0.16937 0.30146 0.0
C109 C 0.52327 0.17262 0.22273 0.0
C110 C 0.53004 0.1573 0.26052 0.0
C111 C 0.50454 0.19221 0.28694 0.0
N112 N 0.507 0.19466 0.23914 0.0
O113 O 0.48952 0.1245 0.32902 0.0
H114 H 0.54305 0.13836 0.25821 0.0
H115 H 0.49208 0.20683 0.31029 0.0
O116 O 0.59169 0.14063 0.34015 0.0
C117 C 0.44448 0.12558 0.34293 0.0
O118 O 0.43268 0.1418 0.37614 0.0
N119 N 0.54818 0.17992 0.39332 0.0
C120 C 0.55806 0.21587 0.46553 0.0
C121 C 0.59478 0.19784 0.45768 0.0
C122 C 0.58913 0.17999 0.42138 0.0
C123 C 0.51282 0.19743 0.40025 0.0
C124 C 0.51814 0.21616 0.43414 0.0
H125 H 0.61514 0.16488 0.41906 0.0
H126 H 0.47773 0.19546 0.3828 0.0
H127 H 0.54934 0.0972 0.39441 0.0
H128 H 0.49258 0.1224 0.52547 0.0
H129 H 0.53102 0.16785 0.18607 0.0
H130 H 0.62575 0.19624 0.48138 0.0
H131 H 0.48901 0.22971 0.43755 0.0
C132 C 0.61066 0.63777 0.05536 0.0
C133 C 0.61168 0.61599 0.0295 0.0
N134 N 0.57803 0.6003 0.04821 0.0
N135 N 0.57696 0.63573 0.09061 0.0
C136 C 0.55734 0.61268 0.08519 0.0
H137 H 0.63356 0.65399 0.04932 0.0
Co138 Co 0.56659 0.66027 0.13672 0.0
C139 C 0.48871 0.6387 0.19807 0.0
O140 O 0.5202 0.63947 0.23322 0.0
N141 N 0.55596 0.68512 0.18327 0.0
C142 C 0.51764 0.71354 0.22755 0.0
C143 C 0.51295 0.69718 0.19027 0.0
C144 C 0.58638 0.6947 0.21667 0.0
N145 N 0.56385 0.71192 0.24431 0.0
O146 O 0.60624 0.64139 0.18059 0.0
H147 H 0.47997 0.69414 0.16966 0.0
H148 H 0.62397 0.68891 0.2215 0.0
O149 O 0.50333 0.6449 0.15641 0.0
C150 C 0.65055 0.64872 0.17252 0.0
O151 O 0.65775 0.66591 0.14022 0.0
N152 N 0.53511 0.67985 0.0916 0.0
C153 C 0.50555 0.71138 0.01925 0.0
C154 C 0.48077 0.68873 0.02703 0.0
C155 C 0.49603 0.67315 0.06395 0.0
C156 C 0.55996 0.70154 0.08361 0.0
C157 C 0.54524 0.71776 0.04831 0.0
H158 H 0.47773 0.65546 0.0693 0.0
H159 H 0.59211 0.7061 0.10445 0.0
H160 H 0.52965 0.60481 0.10865 0.0
H161 H 0.63533 0.61194 0.99928 0.0
H162 H 0.4892 0.72581 0.24098 0.0
H163 H 0.45031 0.68312 1.0047 0.0
H164 H 0.5658 0.73485 0.04272 0.0
C165 C 0.12761 0.41748 0.64331 0.0
C166 C 0.13048 0.43901 0.61797 0.0
N167 N 0.10104 0.43676 0.58001 0.0
N168 N 0.09694 0.4013 0.6214 0.0
C169 C 0.08139 0.41361 0.58252 0.0
H170 H 0.14433 0.41473 0.67739 0.0
Co171 Co 0.07499 0.37121 0.64783 0.0
C172 C 0.16585 0.35302 0.69862 0.0
O173 O 0.15626 0.32985 0.68649 0.0
N174 N 0.05222 0.34145 0.6761 0.0
C175 C 1.01773 0.30501 0.69497 0.0
C176 C 0.02636 0.32182 0.65896 0.0
C177 C 0.05694 0.33648 0.72282 0.0
N178 N 0.0376 0.31424 0.735 0.0
O179 O 0.03937 0.38922 0.69624 0.0
H180 H 1.01426 0.31955 0.6228 0.0
H181 H 0.07491 0.34895 0.74763 0.0
O182 O 0.13633 0.37024 0.6861 0.0
C183 C 0.99867 0.39587 0.6778 0.0
O184 O 0.99199 0.39156 0.63235 0.0
N185 N 0.10355 0.35374 0.5966 0.0
C186 C 0.12502 0.3251 0.5159 0.0
C187 C 0.16288 0.33312 0.54632 0.0
C188 C 0.15148 0.34803 0.58608 0.0
C189 C 0.06736 0.34791 0.56525 0.0
C190 C 0.07694 0.33328 0.52538 0.0
H191 H 0.18118 0.35487 0.60783 0.0
H192 H 0.03007 0.35401 0.57231 0.0
H193 H 0.05359 0.40648 0.5586 0.0
H194 H 0.15068 0.45562 0.6281 0.0
H195 H 0.99972 0.28707 0.6916 0.0
H196 H 0.20085 0.32804 0.53934 0.0
H197 H 0.04634 0.32778 0.50313 0.0
C198 C 0.62034 0.39057 0.95137 0.0
C199 C 0.61511 0.41355 0.97216 0.0
N200 N 0.58658 0.42742 0.94409 0.0
N201 N 0.59549 0.3899 0.91015 0.0
C202 C 0.57495 0.4127 0.9066 0.0
H203 H 0.64208 0.3754 0.96475 0.0
Co204 Co 0.60043 0.36263 0.86897 0.0
C205 C 0.50038 0.35549 0.83155 0.0
O206 O 0.50611 0.33218 0.84399 0.0
N207 N 0.60959 0.33523 0.82625 0.0
C208 C 0.64674 0.30374 0.78816 0.0
C209 C 0.6468 0.31861 0.82815 0.0
C210 C 0.58981 0.33097 0.78282 0.0
N211 N 0.61041 0.31146 0.7599 0.0
O212 O 0.63953 0.38234 0.82598 0.0
H213 H 0.67422 0.318 0.85568 0.0
H214 H 0.56249 0.34263 0.76668 0.0
O215 O 0.53598 0.37111 0.83812 0.0
C216 C 0.68393 0.37962 0.83997 0.0
O217 O 0.69121 0.36631 0.87819 0.0
N218 N 0.56681 0.34299 0.9152 0.0
C219 C 0.5268 0.31688 0.99193 0.0
C220 C 0.50439 0.33862 0.97613 0.0
C221 C 0.52507 0.35146 0.93775 0.0
C222 C 0.5898 0.32236 0.93173 0.0
C223 C 0.56981 0.3087 0.96913 0.0
H224 H 0.50818 0.36864 0.92693 0.0
H225 H 0.62514 0.31694 0.91798 0.0
H226 H 0.55386 0.41873 0.87639 0.0
H227 H 0.63157 0.41979 1.00508 0.0
H228 H 0.67163 0.28857 0.78038 0.0
H229 H 0.47166 0.34577 0.99366 0.0
H230 H 0.58926 0.29253 0.98172 0.0
C231 C 0.02849 0.63805 0.44639 0.0
C232 C 0.02622 0.61529 0.46771 0.0
N233 N 0.04582 0.5983 0.43785 0.0
N234 N 0.05015 0.63578 0.40328 0.0
C235 C 0.05912 0.61112 0.39855 0.0
H236 H 1.01371 0.65499 0.46124 0.0
Co237 Co 0.0573 0.662 0.36016 0.0
C238 C 0.15716 0.63615 0.34573 0.0
O239 O 0.16054 0.62893 0.39005 0.0
N240 N 0.06359 0.68815 0.31772 0.0
C241 C 0.09674 0.71826 0.27426 0.0
C242 C 0.10646 0.69891 0.30403 0.0
C243 C 0.02825 0.70132 0.29585 0.0
N244 N 0.04755 0.71977 0.26919 0.0
O245 O 1.01661 0.6438 0.31528 0.0
H246 H 0.14268 0.69319 0.31514 0.0
H247 H 0.9892 0.69781 0.29991 0.0
O248 O 0.11893 0.64803 0.33241 0.0
C249 C 0.9718 0.64847 0.32673 0.0
O250 O 0.9635 0.66263 0.36412 0.0
N251 N 0.09013 0.68167 0.40608 0.0
C252 C 0.11518 0.71427 0.47988 0.0
C253 C 0.15195 0.70119 0.45488 0.0
C254 C 0.13863 0.6849 0.41774 0.0
C255 C 0.05486 0.69569 0.42799 0.0
C256 C 0.06629 0.71165 0.46538 0.0
H257 H 0.16745 0.67552 0.39842 0.0
H258 H 1.01694 0.69398 0.41687 0.0
H259 H 0.07532 0.60278 0.36705 0.0
H260 H 1.01027 0.61149 0.50228 0.0
H261 H 0.12386 0.73002 0.25692 0.0
H262 H 0.19036 0.70324 0.46442 0.0
H263 H 0.03698 0.72194 0.48284 0.0
H264 H 0.05782 0.95593 0.02783 0.0
H265 H 0.04691 0.96519 0.87552 0.0
H266 H 0.03314 1.01026 0.88762 0.0
H267 H 0.96745 1.00462 0.06329 0.0
H268 H 1.00371 0.01404 0.11371 0.0
H269 H 1.00487 0.98218 0.09338 0.0
H270 H 0.1 0.9846 0.08535 0.0
H271 H 0.09915 0.0164 0.10541 0.0
H272 H 0.12766 1.00856 0.04926 0.0
H273 H 0.03331 0.05487 0.91571 0.0
H274 H 0.04422 0.09514 0.95735 0.0
H275 H 0.05454 0.05699 0.09161 0.0
C276 C 0.05175 0.96734 0.99699 0.0
C277 C 0.05358 0.95698 0.95061 0.0
C278 C 0.04509 0.97259 0.91132 0.0
C279 C 0.03743 0.99824 0.91792 0.0
C280 C 0.0377 1.00793 0.96408 0.0
C281 C 0.04406 0.99288 1.00299 0.0
C282 C 0.04674 1.00803 0.04858 0.0
C283 C 1.00308 1.00185 0.08169 0.0
C284 C 0.09633 1.00416 0.07359 0.0
C285 C 0.04268 0.03412 0.02918 0.0
C286 C 0.03703 0.03363 0.98037 0.0
C287 C 0.03672 0.05542 0.95395 0.0
C288 C 0.04311 0.07818 0.97782 0.0
C289 C 0.0496 0.0791 0.02765 0.0
C290 C 0.04832 0.05679 0.0537 0.0
H291 H 0.59382 0.06567 0.45247 0.0
H292 H 0.45434 0.08154 0.52238 0.0
H293 H 0.45357 0.03973 0.55747 0.0
H294 H 0.56854 0.99954 0.42746 0.0
H295 H 0.63083 0.99012 0.43948 0.0
H296 H 0.6191 0.02079 0.41705 0.0
H297 H 0.6651 0.04014 0.48868 0.0
H298 H 0.67678 1.00955 0.51142 0.0
H299 H 0.64573 0.03227 0.54813 0.0
H300 H 0.46908 0.99743 0.58798 0.0
H301 H 0.50045 0.95689 0.61312 0.0
H302 H 0.63027 0.96735 0.52383 0.0
C303 C 0.56292 0.0601 0.47463 0.0
C304 C 0.52425 0.07684 0.48495 0.0
C305 C 0.48463 0.06912 0.51458 0.0
C306 C 0.4837 0.04535 0.53441 0.0
C307 C 0.52271 0.02944 0.52435 0.0
C308 C 0.56162 0.03638 0.49518 0.0
C309 C 0.59986 0.01593 0.4921 0.0
C310 C 0.60486 1.00601 0.44098 0.0
C311 C 0.64982 0.02502 0.51124 0.0
C312 C 0.57654 0.99666 0.52457 0.0
C313 C 0.53187 1.00483 0.54238 0.0
C314 C 0.5038 0.99068 0.5739 0.0
C315 C 0.52187 0.96754 0.58778 0.0
C316 C 0.56775 0.95868 0.5703 0.0
C317 C 0.59523 0.97354 0.53808 0.0
H318 H 0.64588 0.56548 0.02656 0.0
H319 H 0.48879 0.57852 0.03502 0.0
H320 H 0.47292 0.53588 1.00374 0.0
H321 H 0.64786 0.5282 0.9203 0.0
H322 H 0.69433 0.50734 0.9416 0.0
H323 H 0.69275 0.53904 0.96262 0.0
H324 H 0.68753 0.52376 0.04961 0.0
H325 H 0.68964 0.49205 0.02888 0.0
H326 H 0.63948 0.50219 0.06656 0.0
H327 H 0.47559 0.49166 0.96826 0.0
H328 H 0.49604 0.44839 0.94339 0.0
H329 H 0.6509 0.46416 0.96448 0.0
C330 C 0.60819 0.55931 0.0216 0.0
C331 C 0.56846 0.5752 0.03264 0.0
C332 C 0.51956 0.56648 0.02672 0.0
C333 C 0.51035 0.54242 0.0087 0.0
C334 C 0.55051 0.52724 0.99761 0.0
C335 C 0.59845 0.53526 1.00474 0.0
C336 C 0.63517 0.51503 0.99295 0.0
C337 C 0.66955 0.52288 0.95192 0.0
C338 C 0.66467 0.50783 0.03713 0.0
C339 C 0.60059 0.49432 0.97782 0.0
C340 C 0.5519 0.50175 0.97989 0.0
C341 C 0.51359 0.48567 0.96679 0.0
C342 C 0.5254 0.46126 0.95242 0.0
C343 C 0.57489 0.45315 0.95218 0.0
C344 C 0.61278 0.47002 0.96453 0.0
H345 H 0.08585 0.48412 0.607 0.0
H346 H 0.08534 0.43501 0.48458 0.0
H347 H 0.06941 0.47127 0.43239 0.0
H348 H 0.98963 0.52533 0.56794 0.0
H349 H 1.01911 0.55234 0.59349 0.0
H350 H 0.02759 0.52226 0.61975 0.0
H351 H 0.12242 0.52761 0.61172 0.0
H352 H 0.11425 0.55761 0.5852 0.0
H353 H 0.14927 0.53406 0.55429 0.0
H354 H 0.05885 0.51479 0.39395 0.0
H355 H 0.04919 0.55948 0.37455 0.0
H356 H 0.05837 0.57802 0.52425 0.0
C357 C 0.08234 0.48095 0.56919 0.0
C358 C 0.08734 0.4569 0.54958 0.0
C359 C 0.08149 0.45337 0.50011 0.0
C360 C 0.0727 0.47384 0.47036 0.0
C361 C 0.06931 0.49752 0.49097 0.0
C362 C 0.07344 0.50095 0.53947 0.0
C363 C 0.06917 0.52796 0.55358 0.0
C364 C 1.02366 0.53221 0.58556 0.0
C365 C 0.1166 0.53735 0.57759 0.0
C366 C 0.0627 0.53948 0.50544 0.0
C367 C 0.06278 0.52184 0.46952 0.0
C368 C 0.05839 0.52866 0.42197 0.0
C369 C 0.05327 0.55408 0.41122 0.0
C370 C 0.05245 0.57227 0.44791 0.0
C371 C 0.05765 0.56464 0.4954 0.0
H372 H 0.41875 0.133 0.25124 0.0
H373 H 0.37383 0.09554 0.37993 0.0
H374 H 0.28995 0.08963 0.34793 0.0
H375 H 0.31828 0.1681 0.24362 0.0
H376 H 0.31248 0.16801 0.17993 0.0
H377 H 0.37168 0.16317 0.2062 0.0
H378 H 0.38101 0.12137 0.16099 0.0
H379 H 0.32213 0.1263 0.13352 0.0
H380 H 0.33317 0.09807 0.16571 0.0
H381 H 0.20664 0.0955 0.30852 0.0
H382 H 0.13447 0.11091 0.26385 0.0
H383 H 0.23433 0.14529 0.16225 0.0
C384 C 0.39212 0.12207 0.27114 0.0
C385 C 0.40324 0.11377 0.31718 0.0
C386 C 0.36646 0.10115 0.34382 0.0
C387 C 0.31854 0.09793 0.32605 0.0
C388 C 0.30776 0.10758 0.28155 0.0
C389 C 0.34386 0.11907 0.25409 0.0
C390 C 0.32156 0.13098 0.21077 0.0
C391 C 0.33159 0.15922 0.21015 0.0
C392 C 0.34059 0.11842 0.16504 0.0
C393 C 0.26733 0.12531 0.21909 0.0
C394 C 0.25987 0.1115 0.25963 0.0
C395 C 0.21221 0.10587 0.27611 0.0
C396 C 0.17134 0.11471 0.25063 0.0
C397 C 0.17846 0.12926 0.20946 0.0
C398 C 0.22726 0.13411 0.19342 0.0
H399 H 0.45696 0.87163 0.76678 0.0
H400 H 0.42099 0.91908 0.64883 0.0
H401 H 0.33797 0.92613 0.68309 0.0
H402 H 0.34617 0.84103 0.76878 0.0
H403 H 0.3416 0.83749 0.83226 0.0
H404 H 0.40106 0.8404 0.80423 0.0
H405 H 0.42196 0.87811 0.8584 0.0
H406 H 0.3625 0.87515 0.88698 0.0
H407 H 0.38078 0.9043 0.86076 0.0
H408 H 0.25438 0.92198 0.72269 0.0
H409 H 0.17956 0.90947 0.7682 0.0
H410 H 0.2705 0.86454 0.85959 0.0
C411 C 0.43245 0.88456 0.74974 0.0
C412 C 0.4456 0.89547 0.70607 0.0
C413 C 0.41174 0.91112 0.68303 0.0
C414 C 0.36446 0.91511 0.70208 0.0
C415 C 0.35152 0.90314 0.74412 0.0
C416 C 0.38478 0.88843 0.76803 0.0
C417 C 0.36001 0.87535 0.80934 0.0
C418 C 0.36235 0.8469 0.80325 0.0
C419 C 0.38266 0.88374 0.85668 0.0
C420 C 0.3077 0.88463 0.80438 0.0
C421 C 0.30336 0.90067 0.76668 0.0
C422 C 0.25754 0.90986 0.75298 0.0
C423 C 0.2152 0.90257 0.77878 0.0
C424 C 0.21912 0.88626 0.81772 0.0
C425 C 0.26615 0.8774 0.83054 0.0
H426 H 0.91867 0.82396 0.81375 0.0
H427 H 0.96138 0.90133 0.79742 0.0
H428 H 0.8776 0.91042 0.76663 0.0
H429 H 0.84577 0.81799 0.71044 0.0
H430 H 0.8013 0.79782 0.73878 0.0
H431 H 0.86424 0.79821 0.75842 0.0
H432 H 0.8346 0.80825 0.84421 0.0
H433 H 0.77155 0.80804 0.8248 0.0
H434 H 0.79623 0.83499 0.85489 0.0
H435 H 0.78653 0.90974 0.73557 0.0
H436 H 0.70141 0.8997 0.7095 0.0
H437 H 0.72237 0.82304 0.75122 0.0
C438 C 0.91099 0.84291 0.80363 0.0
C439 C 0.94701 0.86192 0.80778 0.0
C440 C 0.93456 0.88642 0.79437 0.0
C441 C 0.88702 0.89172 0.77695 0.0
C442 C 0.85239 0.87235 0.77364 0.0
C443 C 0.86419 0.84847 0.78692 0.0
C444 C 0.82131 0.8307 0.78099 0.0
C445 C 0.83392 0.80997 0.74501 0.0
C446 C 0.80497 0.81987 0.82908 0.0
C447 C 0.7831 0.84811 0.76176 0.0
C448 C 0.80127 0.87209 0.75752 0.0
C449 C 0.77215 0.89103 0.73913 0.0
C450 C 0.72376 0.88517 0.72448 0.0
C451 C 0.70488 0.86059 0.72848 0.0
C452 C 0.73518 0.84206 0.74787 0.0
H453 H 0.69256 0.18479 0.27934 0.0
H454 H 0.66924 0.10855 0.32367 0.0
H455 H 0.75192 0.09762 0.29016 0.0
H456 H 0.74902 0.17147 0.16955 0.0
H457 H 0.7901 0.19789 0.17267 0.0
H458 H 0.7312 0.19891 0.20241 0.0
H459 H 0.77456 0.20935 0.28188 0.0
H460 H 0.8337 0.20825 0.2524 0.0
H461 H 0.82182 0.189 0.30339 0.0
H462 H 0.84152 0.09632 0.24844 0.0
H463 H 0.91872 0.10434 0.20167 0.0
H464 H 0.87568 0.1812 0.18609 0.0
C465 C 0.70443 0.1657 0.28261 0.0
C466 C 0.67402 0.14757 0.30456 0.0
C467 C 0.6917 0.12285 0.30721 0.0
C468 C 0.73875 0.11653 0.2883 0.0
C469 C 0.76764 0.13512 0.26676 0.0
C470 C 0.75044 0.15919 0.26396 0.0
C471 C 0.78619 0.17601 0.23801 0.0
C472 C 0.76272 0.18668 0.193 0.0
C473 C 0.80518 0.19688 0.27089 0.0
C474 C 0.8265 0.15781 0.22584 0.0
C475 C 0.81617 0.13428 0.24288 0.0
C476 C 0.84945 0.11475 0.23508 0.0
C477 C 0.89338 0.11943 0.20868 0.0
C478 C 0.9031 0.14334 0.18984 0.0
C479 C 0.86926 0.16261 0.19944 0.0
H480 H 0.90481 0.68055 0.29423 0.0
H481 H 0.94057 0.60225 0.29459 0.0
H482 H 0.85885 0.59252 0.25877 0.0
H483 H 0.78031 0.67527 0.32583 0.0
H484 H 0.75993 0.69992 0.28783 0.0
H485 H 0.82171 0.70041 0.31068 0.0
H486 H 0.85799 0.70293 0.22535 0.0
H487 H 0.7963 0.70325 0.20233 0.0
H488 H 0.83952 0.68019 0.18155 0.0
H489 H 0.76764 0.59221 0.22754 0.0
H490 H 0.6853 0.60179 0.19372 0.0
H491 H 0.71445 0.68038 0.21366 0.0
C492 C 0.89599 0.66137 0.28572 0.0
C493 C 0.92912 0.64215 0.29649 0.0
C494 C 0.91601 0.61726 0.28559 0.0
C495 C 0.86945 0.61161 0.26584 0.0
C496 C 0.83685 0.63111 0.25699 0.0
C497 C 0.85037 0.65555 0.26576 0.0
C498 C 0.80986 0.67341 0.2531 0.0
C499 C 0.79192 0.68811 0.29698 0.0
C500 C 0.82693 0.69097 0.2132 0.0
C501 C 0.77084 0.65535 0.23611 0.0
C502 C 0.78638 0.63097 0.23893 0.0
C503 C 0.75545 0.61128 0.22516 0.0
C504 C 0.7085 0.6168 0.2066 0.0
C505 C 0.69335 0.64178 0.20175 0.0
C506 C 0.7248 0.66108 0.2175 0.0
H507 H 0.96697 0.37843 0.7642 0.0
H508 H 0.93062 0.42952 0.65186 0.0
H509 H 0.84683 0.43435 0.68544 0.0
H510 H 0.85863 0.3465 0.76257 0.0
H511 H 0.85275 0.34149 0.82556 0.0
H512 H 0.91275 0.34589 0.79923 0.0
H513 H 0.93025 0.38277 0.8564 0.0
H514 H 0.87055 0.37818 0.88371 0.0
H515 H 0.88732 0.40817 0.8602 0.0
H516 H 0.76268 0.42786 0.72286 0.0
H517 H 0.68777 0.41339 0.76618 0.0
H518 H 0.77951 0.36688 0.85389 0.0
C519 C 0.94216 0.39162 0.74828 0.0
C520 C 0.95549 0.40402 0.70607 0.0
C521 C 0.92126 0.42019 0.68473 0.0
C522 C 0.8735 0.42297 0.70342 0.0
C523 C 0.86042 0.40948 0.74365 0.0
C524 C 0.89405 0.39446 0.76638 0.0
C525 C 0.86934 0.38008 0.80613 0.0
C526 C 0.87363 0.35183 0.79784 0.0
C527 C 0.89063 0.38777 0.85448 0.0
C528 C 0.81654 0.38875 0.80113 0.0
C529 C 0.812 0.4058 0.76514 0.0
C530 C 0.76595 0.41491 0.75187 0.0
C531 C 0.72356 0.40652 0.7764 0.0
C532 C 0.72767 0.38923 0.81371 0.0
C533 C 0.77495 0.38044 0.82608 0.0
H534 H 0.43661 0.32383 0.7885 0.0
H535 H 0.45602 0.40178 0.82453 0.0
H536 H 0.37182 0.4103 0.79426 0.0
H537 H 0.36762 0.33254 0.68053 0.0
H538 H 0.32942 0.30557 0.69117 0.0
H539 H 0.3915 0.30666 0.71329 0.0
H540 H 0.35821 0.29804 0.79821 0.0
H541 H 0.29601 0.29727 0.7765 0.0
H542 H 0.3124 0.31836 0.82389 0.0
H543 H 0.28161 0.40889 0.76371 0.0
H544 H 0.19921 0.39865 0.73177 0.0
H545 H 0.24228 0.32146 0.71644 0.0
C546 C 0.42354 0.34282 0.78982 0.0
C547 C 0.45292 0.36218 0.80906 0.0
C548 C 0.43431 0.38671 0.80967 0.0
C549 C 0.38644 0.39163 0.7928 0.0
C550 C 0.35801 0.37184 0.77518 0.0
C551 C 0.3764 0.34797 0.77321 0.0
C552 C 0.33909 0.32969 0.75346 0.0
C553 C 0.35804 0.31793 0.70684 0.0
C554 C 0.32565 0.30967 0.79021 0.0
C555 C 0.2962 0.34683 0.74485 0.0
C556 C 0.30751 0.37108 0.75754 0.0
C557 C 0.27282 0.38998 0.75328 0.0
C558 C 0.22597 0.38398 0.73499 0.0
C559 C 0.21407 0.35928 0.72097 0.0
C560 C 0.24985 0.34055 0.7266 0.0
H561 H 0.25287 0.62492 0.36923 0.0
H562 H 0.16163 0.64393 0.24929 0.0
H563 H 0.23548 0.64355 0.197 0.0
H564 H 0.35348 0.66377 0.33758 0.0
H565 H 0.4001 0.64278 0.3581 0.0
H566 H 0.33961 0.64237 0.38489 0.0
H567 H 0.33139 0.59534 0.36583 0.0
H568 H 0.39193 0.59562 0.33892 0.0
H569 H 0.3397 0.58457 0.30554 0.0
H570 H 0.3212 0.64287 0.15815 0.0
H571 H 0.41008 0.64391 0.13764 0.0
H572 H 0.44518 0.62644 0.28359 0.0
C573 C 0.24813 0.62856 0.3318 0.0
C574 C 0.20103 0.63416 0.31339 0.0
C575 C 0.19704 0.63939 0.26431 0.0
C576 C 0.23888 0.6392 0.23427 0.0
C577 C 0.28479 0.63386 0.2537 0.0
C578 C 0.28959 0.62871 0.30144 0.0
C579 C 0.34334 0.62509 0.3142 0.0
C580 C 0.3601 0.64467 0.35085 0.0
C581 C 0.35209 0.59858 0.33218 0.0
C582 C 0.36818 0.62917 0.26635 0.0
C583 C 0.33382 0.63399 0.23174 0.0
C584 C 0.34829 0.63898 0.18503 0.0
C585 C 0.399 0.63945 0.17363 0.0
C586 C 0.435 0.63513 0.20879 0.0
C587 C 0.4189 0.62963 0.25562 0.0
H588 H 0.97307 0.28208 0.77811 0.0
H589 H 0.11603 0.31785 0.79282 0.0
H590 H 0.12848 0.29619 0.86836 0.0
H591 H 0.94023 0.28466 0.90354 0.0
H592 H 0.90981 0.25477 0.90359 0.0
H593 H 0.91157 0.27305 0.85024 0.0
H594 H 0.95128 0.23621 0.80455 0.0
H595 H 0.94982 0.21784 0.85779 0.0
H596 H 1.00727 0.22271 0.82644 0.0
H597 H 0.12779 0.26997 0.9395 0.0
H598 H 0.11238 0.24216 0.00652 0.0
H599 H 0.96776 0.2238 0.95042 0.0
C600 C 1.00692 0.28527 0.79735 0.0
C601 C 0.0435 0.30179 0.77972 0.0
C602 C 0.0872 0.30564 0.80598 0.0
C603 C 0.09478 0.29327 0.84876 0.0
C604 C 0.05817 0.27717 0.86516 0.0
C605 C 1.01491 0.2732 0.84068 0.0
C606 C 0.98147 0.25509 0.86714 0.0
C607 C 0.93289 0.26765 0.88201 0.0
C608 C 0.97191 0.23157 0.83718 0.0
C609 C 1.01302 0.24942 0.91002 0.0
C610 C 0.05713 0.26236 0.90773 0.0
C611 C 0.09308 0.26003 0.94218 0.0
C612 C 0.08364 0.24429 0.98047 0.0
C613 C 0.03823 0.23118 0.98477 0.0
C614 C 1.00267 0.23362 0.94852 0.0
H615 H 0.54633 0.79294 0.47854 0.0
H616 H 0.70402 0.80602 0.46869 0.0
H617 H 0.70852 0.77725 0.3994 0.0
H618 H 0.54729 0.72774 0.44369 0.0
H619 H 0.49073 0.73035 0.41105 0.0
H620 H 0.50158 0.75018 0.46174 0.0
H621 H 0.48715 0.78902 0.40976 0.0
H622 H 0.47644 0.76934 0.35893 0.0
H623 H 0.52333 0.79321 0.35637 0.0
H624 H 0.69332 0.74874 0.32707 0.0
H625 H 0.66039 0.72387 0.26001 0.0
H626 H 0.51297 0.7306 0.31956 0.0
C627 C 0.58193 0.7898 0.4619 0.0
C628 C 0.62478 0.80191 0.47865 0.0
C629 C 0.67076 0.79686 0.45646 0.0
C630 C 0.67359 0.78062 0.41708 0.0
C631 C 0.63019 0.76946 0.40082 0.0
C632 C 0.58532 0.77381 0.4229 0.0
C633 C 0.54359 0.76053 0.39799 0.0
C634 C 0.51939 0.74104 0.43056 0.0
C635 C 0.5054 0.77914 0.37968 0.0
C636 C 0.5716 0.74838 0.35763 0.0
C637 C 0.62156 0.75346 0.35986 0.0
C638 C 0.65429 0.74456 0.32529 0.0
C639 C 0.63527 0.73037 0.28739 0.0
C640 C 0.58397 0.7254 0.28424 0.0
C641 C 0.55218 0.73434 0.32035 0.0
H642 H 0.05506 0.83083 0.09558 0.0
H643 H 0.93996 0.79353 0.01633 0.0
H644 H 0.9229 0.76623 0.08512 0.0
H645 H 0.1061 0.78008 0.13807 0.0
H646 H 0.12252 0.79219 0.19567 0.0
H647 H 0.11594 0.81298 0.14672 0.0
H648 H 0.05117 0.83853 0.19415 0.0
H649 H 0.05794 0.81789 0.24379 0.0
H650 H 0.99784 0.82309 0.21908 0.0
H651 H 0.93139 0.73753 0.15515 0.0
H652 H 0.96463 0.71072 0.21826 0.0
H653 H 0.07448 0.76693 0.25068 0.0
C654 C 1.02501 0.81751 0.0935 0.0
C655 C 0.99868 0.81421 0.05103 0.0
C656 C 0.96001 0.79649 0.04898 0.0
C657 C 0.95016 0.78093 0.08786 0.0
C658 C 0.97879 0.78374 0.12854 0.0
C659 C 1.01497 0.80193 0.13176 0.0
C660 C 0.04565 0.799 0.17583 0.0
C661 C 0.10075 0.79586 0.16328 0.0
C662 C 0.03764 0.82093 0.21026 0.0
C663 C 1.02347 0.77534 0.19532 0.0
C664 C 0.98406 0.76709 0.16851 0.0
C665 C 0.96137 0.74415 0.17706 0.0
C666 C 0.98041 0.72904 0.21295 0.0
C667 C 1.0222 0.73682 0.23904 0.0
C668 C 0.04256 0.76059 0.23113 0.0
H669 H 0.66787 0.28948 0.69167 0.0
H670 H 0.51684 0.30788 0.72889 0.0
H671 H 0.48789 0.28654 0.6564 0.0
H672 H 0.65351 0.29772 0.56306 0.0
H673 H 0.69394 0.27234 0.54793 0.0
H674 H 0.70321 0.28974 0.60208 0.0
H675 H 0.69798 0.24894 0.6502 0.0
H676 H 0.68842 0.23145 0.59627 0.0
H677 H 0.64445 0.22913 0.64444 0.0
H678 H 0.47468 0.25996 0.58542 0.0
H679 H 0.47714 0.23318 0.51523 0.0
H680 H 0.63761 0.23481 0.51729 0.0
C681 C 0.62878 0.28909 0.68429 0.0
C682 C 0.59452 0.30034 0.71588 0.0
C683 C 0.54368 0.29964 0.70493 0.0
C684 C 0.52691 0.28744 0.664 0.0
C685 C 0.5615 0.27634 0.6339 0.0
C686 C 0.61142 0.27733 0.64299 0.0
C687 C 0.64055 0.26387 0.60439 0.0
C688 C 0.67483 0.282 0.57779 0.0
C689 C 0.66955 0.24205 0.62507 0.0
C690 C 0.59903 0.25471 0.57281 0.0
C691 C 0.55386 0.26206 0.59086 0.0
C692 C 0.50986 0.25469 0.57009 0.0
C693 C 0.51186 0.23961 0.52949 0.0
C694 C 0.55767 0.23232 0.50883 0.0
C695 C 0.60187 0.24004 0.53135 0.0
H696 H 0.52753 0.76067 0.75482 0.0
H697 H 0.49196 0.83386 0.81064 0.0
H698 H 0.47432 0.81557 0.889 0.0
H699 H 0.43527 0.72553 0.82419 0.0
H700 H 0.47616 0.69973 0.83312 0.0
H701 H 0.48177 0.71822 0.78021 0.0
H702 H 0.57372 0.72688 0.79876 0.0
H703 H 0.56845 0.70834 0.85148 0.0
H704 H 0.59008 0.74003 0.85557 0.0
H705 H 0.46725 0.78994 0.96285 0.0
H706 H 0.47397 0.75905 0.02712 0.0
H707 H 0.51243 0.70227 0.9237 0.0
C708 C 0.515 0.77281 0.78317 0.0
C709 C 0.51072 0.79876 0.77618 0.0
C710 C 0.49565 0.814 0.81487 0.0
C711 C 0.4852 0.80373 0.85954 0.0
C712 C 0.49005 0.77813 0.86518 0.0
C713 C 0.50468 0.76287 0.82807 0.0
C714 C 0.51042 0.73622 0.84436 0.0
C715 C 0.4737 0.7189 0.81895 0.0
C716 C 0.56383 0.72736 0.83712 0.0
C717 C 0.49754 0.73894 0.89664 0.0
C718 C 0.48551 0.76326 0.9078 0.0
C719 C 0.47575 0.77077 0.95439 0.0
C720 C 0.47949 0.75314 0.99061 0.0
C721 C 0.49258 0.72826 0.98007 0.0
C722 C 0.5008 0.721 0.9324 0.0
H723 H 0.08388 0.32605 0.42741 0.0
H724 H 0.18506 0.284 0.51352 0.0
H725 H 0.18841 0.25131 0.45126 0.0
H726 H 1.01264 0.27616 0.39372 0.0
H727 H 1.00038 0.28701 0.33462 0.0
H728 H 1.01347 0.309 0.38124 0.0
H729 H 0.08543 0.32753 0.33139 0.0
H730 H 0.07229 0.30568 0.28429 0.0
H731 H 0.13328 0.30735 0.30906 0.0
H732 H 0.1716 0.22056 0.38331 0.0
H733 H 0.13606 0.19535 0.31767 0.0
H734 H 0.04405 0.25746 0.27923 0.0
C735 C 0.10747 0.31019 0.43295 0.0
C736 C 0.13417 0.30762 0.47548 0.0
C737 C 0.16481 0.2866 0.481 0.0
C738 C 0.16674 0.26786 0.44588 0.0
C739 C 0.13813 0.27052 0.40529 0.0
C740 C 0.10942 0.29133 0.39863 0.0
C741 C 0.07834 0.28888 0.35452 0.0
C742 C 1.02296 0.29034 0.36679 0.0
C743 C 0.09325 0.30852 0.31763 0.0
C744 C 0.09262 0.26307 0.33816 0.0
C745 C 0.12778 0.25283 0.36722 0.0
C746 C 0.14455 0.22857 0.36003 0.0
C747 C 0.12429 0.21439 0.32267 0.0
C748 C 0.08713 0.22439 0.29359 0.0
C749 C 0.07205 0.2492 0.30112 0.0
H750 H 0.505 0.26764 0.99859 0.0
H751 H 0.5099 0.33603 0.08059 0.0
H752 H 0.49409 0.31225 0.15425 0.0
H753 H 0.40828 0.23554 0.07396 0.0
H754 H 0.43798 0.20592 0.06577 0.0
H755 H 0.44115 0.22886 0.01948 0.0
H756 H 0.53657 0.22631 0.01992 0.0
H757 H 0.53379 0.20367 0.06644 0.0
H758 H 0.56901 0.23188 0.0746 0.0
H759 H 0.4931 0.28012 0.21937 0.0
H760 H 0.50137 0.24306 0.26953 0.0
H761 H 0.49101 0.19606 0.14388 0.0
C762 C 0.50116 0.27762 0.03195 0.0
C763 C 0.50831 0.30356 0.03421 0.0
C764 C 0.50377 0.31613 0.07831 0.0
C765 C 0.49494 0.30278 0.12022 0.0
C766 C 0.48974 0.277 0.11705 0.0
C767 C 0.49167 0.26463 0.07383 0.0
C768 C 0.48884 0.23678 0.08011 0.0
C769 C 0.44122 0.22615 0.05856 0.0
C770 C 0.53478 0.22393 0.05904 0.0
C771 C 0.48767 0.23531 0.13366 0.0
C772 C 0.48774 0.25863 0.15448 0.0
C773 C 0.4917 0.26175 0.20349 0.0
C774 C 0.49632 0.24049 0.23179 0.0
C775 C 0.49701 0.21639 0.21098 0.0
C776 C 0.49118 0.21402 0.16131 0.0
H777 H 0.07402 0.71167 0.56797 0.0
H778 H 0.18015 0.75368 0.48472 0.0
H779 H 0.19024 0.78346 0.55191 0.0
H780 H 1.01488 0.7626 0.62367 0.0
H781 H 1.00662 0.74737 0.68 0.0
H782 H 1.00941 0.72921 0.62611 0.0
H783 H 0.08141 0.70347 0.65985 0.0
H784 H 0.07843 0.72134 0.71411 0.0
H785 H 0.13568 0.7193 0.68135 0.0
H786 H 0.18307 0.81041 0.62775 0.0
H787 H 0.16727 0.82874 0.70772 0.0
H788 H 0.06861 0.76753 0.74054 0.0
C789 C 0.09979 0.72701 0.56412 0.0
C790 C 0.12632 0.73048 0.52131 0.0
C791 C 0.15983 0.75066 0.51747 0.0
C792 C 0.16545 0.76771 0.55529 0.0
C793 C 0.13775 0.76406 0.59676 0.0
C794 C 0.10623 0.7439 0.60152 0.0
C795 C 0.08089 0.74382 0.64957 0.0
C796 C 1.02463 0.74588 0.64451 0.0
C797 C 0.09497 0.72061 0.67789 0.0
C798 C 0.10266 0.76718 0.67123 0.0
C799 C 0.13499 0.77884 0.64023 0.0
C800 C 0.15819 0.80125 0.65236 0.0
C801 C 0.14878 0.81163 0.69758 0.0
C802 C 0.11705 0.79942 0.73021 0.0
C803 C 0.09354 0.77706 0.71646 0.0
loop_
_geom_bond_atom_site_label_1
_geom_bond_atom_site_label_2
_geom_bond_distance
_geom_bond_site_symmetry_2
_ccdc_geom_bond_type
C0 C1 1.351 . S
C0 N3 1.368 . S
C0 H5 0.931 . S
C1 C0 1.351 . S
C1 N2 1.373 . S
C1 H29 0.930 . S
N2 C1 1.373 . S
N2 C4 1.340 . S
N3 C0 1.368 . S
N3 C4 1.321 . S
N3 Co6 2.135 . S
C4 N2 1.340 . S
C4 N3 1.321 . S
C4 H28 0.930 1_455 S
H5 C0 0.931 . S
Co6 N3 2.135 . S
Co6 N9 2.121 . S
Co6 O14 2.055 . S
Co6 O17 2.039 1_455 S
Co6 N20 2.140 . S
C7 O8 1.227 . S
C7 O17 1.265 . S
O8 C7 1.227 . S
N9 Co6 2.121 . S
N9 C11 1.375 1_455 S
N9 C12 1.313 . S
C10 C11 1.338 . S
C10 N13 1.377 1_655 S
C10 H30 0.930 . S
C11 N9 1.375 1_655 S
C11 C10 1.338 . S
C11 H15 0.931 . S
C12 N9 1.313 . S
C12 N13 1.344 . S
C12 H16 0.930 . S
N13 C10 1.377 1_455 S
N13 C12 1.344 . S
O14 Co6 2.055 . S
O14 C18 1.253 . S
H15 C11 0.931 . S
H16 C12 0.930 . S
O17 Co6 2.039 1_655 S
O17 C7 1.265 . S
C18 O14 1.253 . S
C18 O19 1.227 . S
O19 C18 1.227 . S
N20 Co6 2.140 . S
N20 C23 1.346 . S
N20 C24 1.345 . S
C21 C22 1.387 . S
C21 C25 1.391 . S
C22 C21 1.387 . S
C22 C23 1.369 . S
C22 H31 0.929 1_455 S
C23 N20 1.346 . S
C23 C22 1.369 . S
C23 H26 0.928 1_455 S
C24 N20 1.345 . S
C24 C25 1.371 . S
C24 H27 0.931 . S
C25 C21 1.391 . S
C25 C24 1.371 . S
C25 H32 0.930 . S
H26 C23 0.928 1_655 S
H27 C24 0.931 . S
H28 C4 0.930 1_655 S
H29 C1 0.930 . S
H30 C10 0.930 . S
H31 C22 0.929 1_655 S
H32 C25 0.930 . S
C33 C34 1.351 . S
C33 N36 1.368 . S
C33 H38 0.931 . S
C34 C33 1.351 . S
C34 N35 1.373 . S
C34 H62 0.930 . S
N35 C34 1.373 . S
N35 C37 1.340 . S
N36 C33 1.368 . S
N36 C37 1.321 . S
N36 Co39 2.135 . S
C37 N35 1.340 . S
C37 N36 1.321 . S
C37 H61 0.930 . S
H38 C33 0.931 . S
Co39 N36 2.135 . S
Co39 N42 2.121 . S
Co39 O47 2.055 . S
Co39 O50 2.039 . S
Co39 N53 2.140 . S
C40 O41 1.227 . S
C40 O50 1.265 . S
O41 C40 1.227 . S
N42 Co39 2.121 . S
N42 C44 1.375 . S
N42 C45 1.313 . S
C43 C44 1.338 . S
C43 N46 1.377 . S
C43 H63 0.930 . S
C44 N42 1.375 . S
C44 C43 1.338 . S
C44 H48 0.931 . S
C45 N42 1.313 . S
C45 N46 1.344 . S
C45 H49 0.930 . S
N46 C43 1.377 . S
N46 C45 1.344 . S
O47 Co39 2.055 . S
O47 C51 1.253 . S
H48 C44 0.931 . S
H49 C45 0.930 . S
O50 Co39 2.039 . S
O50 C40 1.265 . S
C51 O47 1.253 . S
C51 O52 1.227 . S
O52 C51 1.227 . S
N53 Co39 2.140 . S
N53 C56 1.346 . S
N53 C57 1.345 . S
C54 C55 1.387 . S
C54 C58 1.391 . S
C55 C54 1.387 . S
C55 C56 1.369 . S
C55 H64 0.929 . S
C56 N53 1.346 . S
C56 C55 1.369 . S
C56 H59 0.928 . S
C57 N53 1.345 . S
C57 C58 1.371 . S
C57 H60 0.931 . S
C58 C54 1.391 . S
C58 C57 1.371 . S
C58 H65 0.930 . S
H59 C56 0.928 . S
H60 C57 0.931 . S
H61 C37 0.930 . S
H62 C34 0.930 . S
H63 C43 0.930 . S
H64 C55 0.929 . S
H65 C58 0.930 . S
C66 C67 1.351 . S
C66 N69 1.368 . S
C66 H71 0.931 . S
C67 C66 1.351 . S
C67 N68 1.373 . S
C67 H95 0.930 . S
N68 C67 1.373 . S
N68 C70 1.340 . S
N69 C66 1.368 . S
N69 C70 1.321 . S
N69 Co72 2.135 . S
C70 N68 1.340 . S
C70 N69 1.321 . S
C70 H94 0.930 1_455 S
H71 C66 0.931 . S
Co72 N69 2.135 . S
Co72 N75 2.121 . S
Co72 O80 2.055 . S
Co72 O83 2.039 1_455 S
Co72 N86 2.140 . S
C73 O74 1.227 . S
C73 O83 1.265 . S
O74 C73 1.227 . S
N75 Co72 2.121 . S
N75 C77 1.375 1_455 S
N75 C78 1.313 . S
C76 C77 1.338 . S
C76 N79 1.377 1_655 S
C76 H96 0.930 . S
C77 N75 1.375 1_655 S
C77 C76 1.338 . S
C77 H81 0.931 . S
C78 N75 1.313 . S
C78 N79 1.344 . S
C78 H82 0.930 . S
N79 C76 1.377 1_455 S
N79 C78 1.344 . S
O80 Co72 2.055 . S
O80 C84 1.253 . S
H81 C77 0.931 . S
H82 C78 0.930 . S
O83 Co72 2.039 1_655 S
O83 C73 1.265 . S
C84 O80 1.253 . S
C84 O85 1.227 . S
O85 C84 1.227 . S
N86 Co72 2.140 . S
N86 C89 1.346 . S
N86 C90 1.345 . S
C87 C88 1.387 . S
C87 C91 1.391 . S
C88 C87 1.387 . S
C88 C89 1.369 . S
C88 H97 0.929 1_455 S
C89 N86 1.346 . S
C89 C88 1.369 . S
C89 H92 0.928 1_455 S
C90 N86 1.345 . S
C90 C91 1.371 . S
C90 H93 0.931 . S
C91 C87 1.391 . S
C91 C90 1.371 . S
C91 H98 0.930 . S
H92 C89 0.928 1_655 S
H93 C90 0.931 . S
H94 C70 0.930 1_655 S
H95 C67 0.930 . S
H96 C76 0.930 . S
H97 C88 0.929 1_655 S
H98 C91 0.930 . S
C99 C100 1.351 . S
C99 N102 1.368 . S
C99 H104 0.931 . S
C100 C99 1.351 . S
C100 N101 1.373 . S
C100 H128 0.930 . S
N101 C100 1.373 . S
N101 C103 1.340 . S
N102 C99 1.368 . S
N102 C103 1.321 . S
N102 Co105 2.135 . S
C103 N101 1.340 . S
C103 N102 1.321 . S
C103 H127 0.930 . S
H104 C99 0.931 . S
Co105 N102 2.135 . S
Co105 N108 2.121 . S
Co105 O113 2.055 . S
Co105 O116 2.039 . S
Co105 N119 2.140 . S
C106 O107 1.227 . S
C106 O116 1.265 . S
O107 C106 1.227 . S
N108 Co105 2.121 . S
N108 C110 1.375 . S
N108 C111 1.313 . S
C109 C110 1.338 . S
C109 N112 1.377 . S
C109 H129 0.930 . S
C110 N108 1.375 . S
C110 C109 1.338 . S
C110 H114 0.931 . S
C111 N108 1.313 . S
C111 N112 1.344 . S
C111 H115 0.930 . S
N112 C109 1.377 . S
N112 C111 1.344 . S
O113 Co105 2.055 . S
O113 C117 1.253 . S
H114 C110 0.931 . S
H115 C111 0.930 . S
O116 Co105 2.039 . S
O116 C106 1.265 . S
C117 O113 1.253 . S
C117 O118 1.227 . S
O118 C117 1.227 . S
N119 Co105 2.140 . S
N119 C122 1.346 . S
N119 C123 1.345 . S
C120 C121 1.387 . S
C120 C124 1.391 . S
C121 C120 1.387 . S
C121 C122 1.369 . S
C121 H130 0.929 . S
C122 N119 1.346 . S
C122 C121 1.369 . S
C122 H125 0.928 . S
C123 N119 1.345 . S
C123 C124 1.371 . S
C123 H126 0.931 . S
C124 C120 1.391 . S
C124 C123 1.371 . S
C124 H131 0.930 . S
H125 C122 0.928 . S
H126 C123 0.931 . S
H127 C103 0.930 . S
H128 C100 0.930 . S
H129 C109 0.930 . S
H130 C121 0.929 . S
H131 C124 0.930 . S
C132 C133 1.351 . S
C132 N135 1.368 . S
C132 H137 0.931 . S
C133 C132 1.351 . S
C133 N134 1.373 . S
C133 H161 0.930 . S
N134 C133 1.373 . S
N134 C136 1.340 . S
N135 C132 1.368 . S
N135 C136 1.321 . S
N135 Co138 2.135 . S
C136 N134 1.340 . S
C136 N135 1.321 . S
C136 H160 0.930 . S
H137 C132 0.931 . S
Co138 N135 2.135 . S
Co138 N141 2.121 . S
Co138 O146 2.055 . S
Co138 O149 2.039 . S
Co138 N152 2.140 . S
C139 O140 1.227 . S
C139 O149 1.265 . S
O140 C139 1.227 . S
N141 Co138 2.121 . S
N141 C143 1.375 . S
N141 C144 1.313 . S
C142 C143 1.338 . S
C142 N145 1.377 . S
C142 H162 0.930 . S
C143 N141 1.375 . S
C143 C142 1.338 . S
C143 H147 0.931 . S
C144 N141 1.313 . S
C144 N145 1.344 . S
C144 H148 0.930 . S
N145 C142 1.377 . S
N145 C144 1.344 . S
O146 Co138 2.055 . S
O146 C150 1.253 . S
H147 C143 0.931 . S
H148 C144 0.930 . S
O149 Co138 2.039 . S
O149 C139 1.265 . S
C150 O146 1.253 . S
C150 O151 1.227 . S
O151 C150 1.227 . S
N152 Co138 2.140 . S
N152 C155 1.346 . S
N152 C156 1.345 . S
C153 C154 1.387 . S
C153 C157 1.391 . S
C154 C153 1.387 . S
C154 C155 1.369 . S
C154 H163 0.929 . S
C155 N152 1.346 . S
C155 C154 1.369 . S
C155 H158 0.928 . S
C156 N152 1.345 . S
C156 C157 1.371 . S
C156 H159 0.931 . S
C157 C153 1.391 . S
C157 C156 1.371 . S
C157 H164 0.930 . S
H158 C155 0.928 . S
H159 C156 0.931 . S
H160 C136 0.930 . S
H161 C133 0.930 . S
H162 C142 0.930 . S
H163 C154 0.929 . S
H164 C157 0.930 . S
C165 C166 1.351 . S
C165 N168 1.368 1_655 S
C165 H170 0.931 . S
C166 C165 1.351 . S
C166 N167 1.373 1_655 S
C166 H194 0.930 . S
N167 C166 1.373 1_455 S
N167 C169 1.340 . S
N168 C165 1.368 1_455 S
N168 C169 1.321 . S
N168 Co171 2.135 . S
C169 N167 1.340 . S
C169 N168 1.321 . S
C169 H193 0.930 . S
H170 C165 0.931 . S
Co171 N168 2.135 . S
Co171 N174 2.121 . S
Co171 O179 2.055 1_455 S
Co171 O182 2.039 . S
Co171 N185 2.140 . S
C172 O173 1.227 . S
C172 O182 1.265 . S
O173 C172 1.227 . S
N174 Co171 2.121 . S
N174 C176 1.375 . S
N174 C177 1.313 . S
C175 C176 1.338 . S
C175 N178 1.377 . S
C175 H195 0.930 . S
C176 N174 1.375 . S
C176 C175 1.338 . S
C176 H180 0.931 . S
C177 N174 1.313 . S
C177 N178 1.344 . S
C177 H181 0.930 1_455 S
N178 C175 1.377 . S
N178 C177 1.344 . S
O179 Co171 2.055 1_655 S
O179 C183 1.253 . S
H180 C176 0.931 . S
H181 C177 0.930 1_655 S
O182 Co171 2.039 . S
O182 C172 1.265 . S
C183 O179 1.253 . S
C183 O184 1.227 . S
O184 C183 1.227 . S
N185 Co171 2.140 . S
N185 C188 1.346 . S
N185 C189 1.345 . S
C186 C187 1.387 . S
C186 C190 1.391 . S
C187 C186 1.387 . S
C187 C188 1.369 . S
C187 H196 0.929 . S
C188 N185 1.346 . S
C188 C187 1.369 . S
C188 H191 0.928 . S
C189 N185 1.345 . S
C189 C190 1.371 . S
C189 H192 0.931 . S
C190 C186 1.391 . S
C190 C189 1.371 . S
C190 H197 0.930 . S
H191 C188 0.928 . S
H192 C189 0.931 . S
H193 C169 0.930 . S
H194 C166 0.930 . S
H195 C175 0.930 . S
H196 C187 0.929 . S
H197 C190 0.930 . S
C198 C199 1.351 . S
C198 N201 1.368 . S
C198 H203 0.931 . S
C199 C198 1.351 . S
C199 N200 1.373 . S
C199 H227 0.930 . S
N200 C199 1.373 . S
N200 C202 1.340 . S
N201 C198 1.368 . S
N201 C202 1.321 . S
N201 Co204 2.135 . S
C202 N200 1.340 . S
C202 N201 1.321 . S
C202 H226 0.930 . S
H203 C198 0.931 . S
Co204 N201 2.135 . S
Co204 N207 2.121 . S
Co204 O212 2.055 . S
Co204 O215 2.039 . S
Co204 N218 2.140 . S
C205 O206 1.227 . S
C205 O215 1.265 . S
O206 C205 1.227 . S
N207 Co204 2.121 . S
N207 C209 1.375 . S
N207 C210 1.313 . S
C208 C209 1.338 . S
C208 N211 1.377 . S
C208 H228 0.930 . S
C209 N207 1.375 . S
C209 C208 1.338 . S
C209 H213 0.931 . S
C210 N207 1.313 . S
C210 N211 1.344 . S
C210 H214 0.930 . S
N211 C208 1.377 . S
N211 C210 1.344 . S
O212 Co204 2.055 . S
O212 C216 1.253 . S
H213 C209 0.931 . S
H214 C210 0.930 . S
O215 Co204 2.039 . S
O215 C205 1.265 . S
C216 O212 1.253 . S
C216 O217 1.227 . S
O217 C216 1.227 . S
N218 Co204 2.140 . S
N218 C221 1.346 . S
N218 C222 1.345 . S
C219 C220 1.387 . S
C219 C223 1.391 . S
C220 C219 1.387 . S
C220 C221 1.369 . S
C220 H229 0.929 . S
C221 N218 1.346 . S
C221 C220 1.369 . S
C221 H224 0.928 . S
C222 N218 1.345 . S
C222 C223 1.371 . S
C222 H225 0.931 . S
C223 C219 1.391 . S
C223 C222 1.371 . S
C223 H230 0.930 . S
H224 C221 0.928 . S
H225 C222 0.931 . S
H226 C202 0.930 . S
H227 C199 0.930 . S
H228 C208 0.930 . S
H229 C220 0.929 . S
H230 C223 0.930 . S
C231 C232 1.351 . S
C231 N234 1.368 1_655 S
C231 H236 0.931 . S
C232 C231 1.351 . S
C232 N233 1.373 1_655 S
C232 H260 0.930 . S
N233 C232 1.373 1_455 S
N233 C235 1.340 . S
N234 C231 1.368 1_455 S
N234 C235 1.321 . S
N234 Co237 2.135 . S
C235 N233 1.340 . S
C235 N234 1.321 . S
C235 H259 0.930 . S
H236 C231 0.931 . S
Co237 N234 2.135 . S
Co237 N240 2.121 . S
Co237 O245 2.055 1_455 S
Co237 O248 2.039 . S
Co237 N251 2.140 . S
C238 O239 1.227 . S
C238 O248 1.265 . S
O239 C238 1.227 . S
N240 Co237 2.121 . S
N240 C242 1.375 . S
N240 C243 1.313 . S
C241 C242 1.338 . S
C241 N244 1.377 . S
C241 H261 0.930 . S
C242 N240 1.375 . S
C242 C241 1.338 . S
C242 H246 0.931 . S
C243 N240 1.313 . S
C243 N244 1.344 . S
C243 H247 0.930 1_455 S
N244 C241 1.377 . S
N244 C243 1.344 . S
O245 Co237 2.055 1_655 S
O245 C249 1.253 . S
H246 C242 0.931 . S
H247 C243 0.930 1_655 S
O248 Co237 2.039 . S
O248 C238 1.265 . S
C249 O245 1.253 . S
C249 O250 1.227 . S
O250 C249 1.227 . S
N251 Co237 2.140 . S
N251 C254 1.346 . S
N251 C255 1.345 . S
C252 C253 1.387 . S
C252 C256 1.391 . S
C253 C252 1.387 . S
C253 C254 1.369 . S
C253 H262 0.929 . S
C254 N251 1.346 . S
C254 C253 1.369 . S
C254 H257 0.928 . S
C255 N251 1.345 . S
C255 C256 1.371 . S
C255 H258 0.931 . S
C256 C252 1.391 . S
C256 C255 1.371 . S
C256 H263 0.930 . S
H257 C254 0.928 . S
H258 C255 0.931 . S
H259 C235 0.930 . S
H260 C232 0.930 . S
H261 C241 0.930 . S
H262 C253 0.929 . S
H263 C256 0.930 . S
H264 C276 0.930 . S
H265 C278 0.930 . S
H266 C279 0.930 . S
H267 C283 0.959 1_546 S
H268 C283 0.959 1_545 S
H269 C283 0.961 . S
H270 C284 0.960 . S
H271 C284 0.961 . S
H272 C284 0.959 1_455 S
H273 C287 0.929 1_556 S
H274 C288 0.931 . S
H275 C290 0.930 . S
C276 H264 0.930 . S
C276 C277 1.399 1_655 S
C276 C281 1.396 1_655 S
C277 C276 1.399 1_455 S
C277 C278 1.376 . S
C278 H265 0.930 . S
C278 C277 1.376 . S
C278 C279 1.388 . S
C279 H266 0.930 . S
C279 C278 1.388 . S
C279 C280 1.390 . S
C280 C279 1.390 . S
C280 C281 1.406 . S
C280 C286 1.465 1_566 S
C281 C276 1.396 1_455 S
C281 C280 1.406 . S
C281 C282 1.508 1_456 S
C282 C281 1.508 1_654 S
C282 C283 1.502 . S
C282 C284 1.561 . S
C282 C285 1.515 1_665 S
C283 H267 0.959 1_564 S
C283 H268 0.959 1_565 S
C283 H269 0.961 . S
C283 C282 1.502 . S
C284 H270 0.960 . S
C284 H271 0.961 . S
C284 H272 0.959 1_655 S
C284 C282 1.561 . S
C285 C282 1.515 1_445 S
C285 C286 1.414 . S
C285 C290 1.386 1_455 S
C286 C280 1.465 1_544 S
C286 C285 1.414 . S
C286 C287 1.399 . S
C287 H273 0.929 1_554 S
C287 C286 1.399 . S
C287 C288 1.385 . S
C288 H274 0.931 . S
C288 C287 1.385 . S
C288 C289 1.389 . S
C289 C288 1.389 . S
C289 C290 1.387 1_455 S
C290 H275 0.930 . S
C290 C285 1.386 1_655 S
C290 C289 1.387 1_655 S
H291 C303 0.930 . S
H292 C305 0.930 . S
H293 C306 0.930 . S
H294 C310 0.959 . S
H295 C310 0.959 . S
H296 C310 0.961 1_545 S
H297 C311 0.960 . S
H298 C311 0.970 . S
H299 C311 0.959 . S
H300 C314 0.929 . S
H301 C315 0.931 . S
H302 C317 0.930 . S
C303 H291 0.930 . S
C303 C304 1.399 . S
C303 C308 1.399 . S
C304 C303 1.399 . S
C304 C305 1.376 . S
C305 H292 0.930 . S
C305 C304 1.376 . S
C305 C306 1.388 . S
C306 H293 0.930 . S
C306 C305 1.388 . S
C306 C307 1.390 . S
C307 C306 1.390 . S
C307 C308 1.394 . S
C307 C313 1.465 1_545 S
C308 C303 1.399 . S
C308 C307 1.394 . S
C308 C309 1.542 . S
C309 C308 1.542 . S
C309 C310 1.488 1_545 S
C309 C311 1.577 . S
C309 C312 1.500 1_545 S
C310 H294 0.959 . S
C310 H295 0.959 . S
C310 H296 0.961 1_565 S
C310 C309 1.488 1_565 S
C311 H297 0.960 . S
C311 H298 0.970 . S
C311 H299 0.959 . S
C311 C309 1.577 . S
C312 C309 1.500 1_565 S
C312 C313 1.396 . S
C312 C317 1.390 . S
C313 C307 1.465 1_565 S
C313 C312 1.396 . S
C313 C314 1.399 . S
C314 H300 0.929 . S
C314 C313 1.399 . S
C314 C315 1.385 . S
C315 H301 0.931 . S
C315 C314 1.385 . S
C315 C316 1.389 . S
C316 C315 1.389 . S
C316 C317 1.387 . S
C317 H302 0.930 . S
C317 C312 1.390 . S
C317 C316 1.387 . S
H318 C330 0.930 . S
H319 C332 0.930 . S
H320 C333 0.930 . S
H321 C337 0.959 . S
H322 C337 0.959 . S
H323 C337 0.961 . S
H324 C338 0.960 . S
H325 C338 0.961 . S
H326 C338 0.959 . S
H327 C341 0.929 . S
H328 C342 0.931 . S
H329 C344 0.930 . S
C330 H318 0.930 . S
C330 C331 1.399 . S
C330 C335 1.399 . S
C331 C330 1.399 . S
C331 C332 1.376 . S
C332 H319 0.930 . S
C332 C331 1.376 . S
C332 C333 1.388 1_554 S
C333 H320 0.930 . S
C333 C332 1.388 1_556 S
C333 C334 1.388 1_556 S
C334 C333 1.388 1_554 S
C334 C335 1.401 . S
C334 C340 1.460 1_554 S
C335 C330 1.399 . S
C335 C334 1.401 . S
C335 C336 1.516 . S
C336 C335 1.516 . S
C336 C337 1.502 . S
C336 C338 1.561 . S
C336 C339 1.526 1_554 S
C337 H321 0.959 . S
C337 H322 0.959 . S
C337 H323 0.961 . S
C337 C336 1.502 . S
C338 H324 0.960 . S
C338 H325 0.961 . S
C338 H326 0.959 . S
C338 C336 1.561 . S
C339 C336 1.526 1_556 S
C339 C340 1.396 . S
C339 C344 1.390 . S
C340 C334 1.460 1_556 S
C340 C339 1.396 . S
C340 C341 1.399 . S
C341 H327 0.929 . S
C341 C340 1.399 . S
C341 C342 1.385 . S
C342 H328 0.931 . S
C342 C341 1.385 . S
C342 C343 1.389 . S
C343 C342 1.389 . S
C343 C344 1.387 . S
C344 H329 0.930 . S
C344 C339 1.390 . S
C344 C343 1.387 . S
H345 C357 0.930 . S
H346 C359 0.930 . S
H347 C360 0.930 . S
H348 C364 0.959 . S
H349 C364 0.959 . S
H350 C364 0.961 . S
H351 C365 0.960 . S
H352 C365 0.961 . S
H353 C365 0.959 . S
H354 C368 0.929 . S
H355 C369 0.931 . S
H356 C371 0.930 . S
C357 H345 0.930 . S
C357 C358 1.399 . S
C357 C362 1.399 . S
C358 C357 1.399 . S
C358 C359 1.376 . S
C359 H346 0.930 . S
C359 C358 1.376 . S
C359 C360 1.388 . S
C360 H347 0.930 . S
C360 C359 1.388 . S
C360 C361 1.390 . S
C361 C360 1.390 . S
C361 C362 1.394 . S
C361 C367 1.465 . S
C362 C357 1.399 . S
C362 C361 1.394 . S
C362 C363 1.516 . S
C363 C362 1.516 . S
C363 C364 1.502 . S
C363 C365 1.561 . S
C363 C366 1.526 . S
C364 H348 0.959 . S
C364 H349 0.959 . S
C364 H350 0.961 . S
C364 C363 1.502 . S
C365 H351 0.960 . S
C365 H352 0.961 . S
C365 H353 0.959 . S
C365 C363 1.561 . S
C366 C363 1.526 . S
C366 C367 1.396 . S
C366 C371 1.390 . S
C367 C361 1.465 . S
C367 C366 1.396 . S
C367 C368 1.399 . S
C368 H354 0.929 . S
C368 C367 1.399 . S
C368 C369 1.385 . S
C369 H355 0.931 . S
C369 C368 1.385 . S
C369 C370 1.389 . S
C370 C369 1.389 . S
C370 C371 1.387 . S
C371 H356 0.930 . S
C371 C366 1.390 . S
C371 C370 1.387 . S
H372 C384 0.930 . S
H373 C386 0.930 . S
H374 C387 0.930 . S
H375 C391 0.959 . S
H376 C391 0.959 . S
H377 C391 0.961 . S
H378 C392 0.960 . S
H379 C392 0.961 . S
H380 C392 0.959 . S
H381 C395 0.929 . S
H382 C396 0.931 . S
H383 C398 0.930 . S
C384 H372 0.930 . S
C384 C385 1.399 . S
C384 C389 1.399 . S
C385 C384 1.399 . S
C385 C386 1.376 . S
C386 H373 0.930 . S
C386 C385 1.376 . S
C386 C387 1.388 . S
C387 H374 0.930 . S
C387 C386 1.388 . S
C387 C388 1.390 . S
C388 C387 1.390 . S
C388 C389 1.394 . S
C388 C394 1.465 . S
C389 C384 1.399 . S
C389 C388 1.394 . S
C389 C390 1.516 . S
C390 C389 1.516 . S
C390 C391 1.502 . S
C390 C392 1.561 . S
C390 C393 1.526 . S
C391 H375 0.959 . S
C391 H376 0.959 . S
C391 H377 0.961 . S
C391 C390 1.502 . S
C392 H378 0.960 . S
C392 H379 0.961 . S
C392 H380 0.959 . S
C392 C390 1.561 . S
C393 C390 1.526 . S
C393 C394 1.396 . S
C393 C398 1.390 . S
C394 C388 1.465 . S
C394 C393 1.396 . S
C394 C395 1.399 . S
C395 H381 0.929 . S
C395 C394 1.399 . S
C395 C396 1.385 . S
C396 H382 0.931 . S
C396 C395 1.385 . S
C396 C397 1.389 . S
C397 C396 1.389 . S
C397 C398 1.387 . S
C398 H383 0.930 . S
C398 C393 1.390 . S
C398 C397 1.387 . S
H399 C411 0.930 . S
H400 C413 0.930 . S
H401 C414 0.930 . S
H402 C418 0.959 . S
H403 C418 0.959 . S
H404 C418 0.961 . S
H405 C419 0.960 . S
H406 C419 0.961 . S
H407 C419 0.959 . S
H408 C422 0.929 . S
H409 C423 0.931 . S
H410 C425 0.930 . S
C411 H399 0.930 . S
C411 C412 1.399 . S
C411 C416 1.399 . S
C412 C411 1.399 . S
C412 C413 1.376 . S
C413 H400 0.930 . S
C413 C412 1.376 . S
C413 C414 1.388 . S
C414 H401 0.930 . S
C414 C413 1.388 . S
C414 C415 1.390 . S
C415 C414 1.390 . S
C415 C416 1.394 . S
C415 C421 1.465 . S
C416 C411 1.399 . S
C416 C415 1.394 . S
C416 C417 1.516 . S
C417 C416 1.516 . S
C417 C418 1.502 . S
C417 C419 1.561 . S
C417 C420 1.526 . S
C418 H402 0.959 . S
C418 H403 0.959 . S
C418 H404 0.961 . S
C418 C417 1.502 . S
C419 H405 0.960 . S
C419 H406 0.961 . S
C419 H407 0.959 . S
C419 C417 1.561 . S
C420 C417 1.526 . S
C420 C421 1.396 . S
C420 C425 1.390 . S
C421 C415 1.465 . S
C421 C420 1.396 . S
C421 C422 1.399 . S
C422 H408 0.929 . S
C422 C421 1.399 . S
C422 C423 1.385 . S
C423 H409 0.931 . S
C423 C422 1.385 . S
C423 C424 1.389 . S
C424 C423 1.389 . S
C424 C425 1.387 . S
C425 H410 0.930 . S
C425 C420 1.390 . S
C425 C424 1.387 . S
H426 C438 0.930 . S
H427 C440 0.930 . S
H428 C441 0.930 . S
H429 C445 0.959 . S
H430 C445 0.959 . S
H431 C445 0.961 . S
H432 C446 0.960 . S
H433 C446 0.961 . S
H434 C446 0.959 . S
H435 C449 0.929 . S
H436 C450 0.931 . S
H437 C452 0.930 . S
C438 H426 0.930 . S
C438 C439 1.399 . S
C438 C443 1.399 . S
C439 C438 1.399 . S
C439 C440 1.376 . S
C440 H427 0.930 . S
C440 C439 1.376 . S
C440 C441 1.388 . S
C441 H428 0.930 . S
C441 C440 1.388 . S
C441 C442 1.390 . S
C442 C441 1.390 . S
C442 C443 1.394 . S
C442 C448 1.465 . S
C443 C438 1.399 . S
C443 C442 1.394 . S
C443 C444 1.516 . S
C444 C443 1.516 . S
C444 C445 1.502 . S
C444 C446 1.561 . S
C444 C447 1.526 . S
C445 H429 0.959 . S
C445 H430 0.959 . S
C445 H431 0.961 . S
C445 C444 1.502 . S
C446 H432 0.960 . S
C446 H433 0.961 . S
C446 H434 0.959 . S
C446 C444 1.561 . S
C447 C444 1.526 . S
C447 C448 1.396 . S
C447 C452 1.390 . S
C448 C442 1.465 . S
C448 C447 1.396 . S
C448 C449 1.399 . S
C449 H435 0.929 . S
C449 C448 1.399 . S
C449 C450 1.385 . S
C450 H436 0.931 . S
C450 C449 1.385 . S
C450 C451 1.389 . S
C451 C450 1.389 . S
C451 C452 1.387 . S
C452 H437 0.930 . S
C452 C447 1.390 . S
C452 C451 1.387 . S
H453 C465 0.930 . S
H454 C467 0.930 . S
H455 C468 0.930 . S
H456 C472 0.959 . S
H457 C472 0.959 . S
H458 C472 0.961 . S
H459 C473 0.960 . S
H460 C473 0.961 . S
H461 C473 0.959 . S
H462 C476 0.929 . S
H463 C477 0.931 . S
H464 C479 0.930 . S
C465 H453 0.930 . S
C465 C466 1.399 . S
C465 C470 1.399 . S
C466 C465 1.399 . S
C466 C467 1.376 . S
C467 H454 0.930 . S
C467 C466 1.376 . S
C467 C468 1.388 . S
C468 H455 0.930 . S
C468 C467 1.388 . S
C468 C469 1.390 . S
C469 C468 1.390 . S
C469 C470 1.394 . S
C469 C475 1.465 . S
C470 C465 1.399 . S
C470 C469 1.394 . S
C470 C471 1.516 . S
C471 C470 1.516 . S
C471 C472 1.502 . S
C471 C473 1.561 . S
C471 C474 1.526 . S
C472 H456 0.959 . S
C472 H457 0.959 . S
C472 H458 0.961 . S
C472 C471 1.502 . S
C473 H459 0.960 . S
C473 H460 0.961 . S
C473 H461 0.959 . S
C473 C471 1.561 . S
C474 C471 1.526 . S
C474 C475 1.396 . S
C474 C479 1.390 . S
C475 C469 1.465 . S
C475 C474 1.396 . S
C475 C476 1.399 . S
C476 H462 0.929 . S
C476 C475 1.399 . S
C476 C477 1.385 . S
C477 H463 0.931 . S
C477 C476 1.385 . S
C477 C478 1.389 . S
C478 C477 1.389 . S
C478 C479 1.387 . S
C479 H464 0.930 . S
C479 C474 1.390 . S
C479 C478 1.387 . S
H480 C492 0.930 . S
H481 C494 0.930 . S
H482 C495 0.930 . S
H483 C499 0.959 . S
H484 C499 0.959 . S
H485 C499 0.961 . S
H486 C500 0.960 . S
H487 C500 0.961 . S
H488 C500 0.959 . S
H489 C503 0.929 . S
H490 C504 0.931 . S
H491 C506 0.930 . S
C492 H480 0.930 . S
C492 C493 1.399 . S
C492 C497 1.399 . S
C493 C492 1.399 . S
C493 C494 1.376 . S
C494 H481 0.930 . S
C494 C493 1.376 . S
C494 C495 1.388 . S
C495 H482 0.930 . S
C495 C494 1.388 . S
C495 C496 1.390 . S
C496 C495 1.390 . S
C496 C497 1.394 . S
C496 C502 1.465 . S
C497 C492 1.399 . S
C497 C496 1.394 . S
C497 C498 1.516 . S
C498 C497 1.516 . S
C498 C499 1.502 . S
C498 C500 1.561 . S
C498 C501 1.526 . S
C499 H483 0.959 . S
C499 H484 0.959 . S
C499 H485 0.961 . S
C499 C498 1.502 . S
C500 H486 0.960 . S
C500 H487 0.961 . S
C500 H488 0.959 . S
C500 C498 1.561 . S
C501 C498 1.526 . S
C501 C502 1.396 . S
C501 C506 1.390 . S
C502 C496 1.465 . S
C502 C501 1.396 . S
C502 C503 1.399 . S
C503 H489 0.929 . S
C503 C502 1.399 . S
C503 C504 1.385 . S
C504 H490 0.931 . S
C504 C503 1.385 . S
C504 C505 1.389 . S
C505 C504 1.389 . S
C505 C506 1.387 . S
C506 H491 0.930 . S
C506 C501 1.390 . S
C506 C505 1.387 . S
H507 C519 0.930 . S
H508 C521 0.930 . S
H509 C522 0.930 . S
H510 C526 0.959 . S
H511 C526 0.959 . S
H512 C526 0.961 . S
H513 C527 0.960 . S
H514 C527 0.961 . S
H515 C527 0.959 . S
H516 C530 0.929 . S
H517 C531 0.931 . S
H518 C533 0.930 . S
C519 H507 0.930 . S
C519 C520 1.399 . S
C519 C524 1.399 . S
C520 C519 1.399 . S
C520 C521 1.376 . S
C521 H508 0.930 . S
C521 C520 1.376 . S
C521 C522 1.388 . S
C522 H509 0.930 . S
C522 C521 1.388 . S
C522 C523 1.390 . S
C523 C522 1.390 . S
C523 C524 1.394 . S
C523 C529 1.465 . S
C524 C519 1.399 . S
C524 C523 1.394 . S
C524 C525 1.516 . S
C525 C524 1.516 . S
C525 C526 1.502 . S
C525 C527 1.561 . S
C525 C528 1.526 . S
C526 H510 0.959 . S
C526 H511 0.959 . S
C526 H512 0.961 . S
C526 C525 1.502 . S
C527 H513 0.960 . S
C527 H514 0.961 . S
C527 H515 0.959 . S
C527 C525 1.561 . S
C528 C525 1.526 . S
C528 C529 1.396 . S
C528 C533 1.390 . S
C529 C523 1.465 . S
C529 C528 1.396 . S
C529 C530 1.399 . S
C530 H516 0.929 . S
C530 C529 1.399 . S
C530 C531 1.385 . S
C531 H517 0.931 . S
C531 C530 1.385 . S
C531 C532 1.389 . S
C532 C531 1.389 . S
C532 C533 1.387 . S
C533 H518 0.930 . S
C533 C528 1.390 . S
C533 C532 1.387 . S
H534 C546 0.930 . S
H535 C548 0.930 . S
H536 C549 0.930 . S
H537 C553 0.959 . S
H538 C553 0.959 . S
H539 C553 0.961 . S
H540 C554 0.960 . S
H541 C554 0.961 . S
H542 C554 0.959 . S
H543 C557 0.929 . S
H544 C558 0.931 . S
H545 C560 0.930 . S
C546 H534 0.930 . S
C546 C547 1.399 . S
C546 C551 1.399 . S
C547 C546 1.399 . S
C547 C548 1.376 . S
C548 H535 0.930 . S
C548 C547 1.376 . S
C548 C549 1.388 . S
C549 H536 0.930 . S
C549 C548 1.388 . S
C549 C550 1.390 . S
C550 C549 1.390 . S
C550 C551 1.394 . S
C550 C556 1.465 . S
C551 C546 1.399 . S
C551 C550 1.394 . S
C551 C552 1.516 . S
C552 C551 1.516 . S
C552 C553 1.502 . S
C552 C554 1.561 . S
C552 C555 1.526 . S
C553 H537 0.959 . S
C553 H538 0.959 . S
C553 H539 0.961 . S
C553 C552 1.502 . S
C554 H540 0.960 . S
C554 H541 0.961 . S
C554 H542 0.959 . S
C554 C552 1.561 . S
C555 C552 1.526 . S
C555 C556 1.396 . S
C555 C560 1.390 . S
C556 C550 1.465 . S
C556 C555 1.396 . S
C556 C557 1.399 . S
C557 H543 0.929 . S
C557 C556 1.399 . S
C557 C558 1.385 . S
C558 H544 0.931 . S
C558 C557 1.385 . S
C558 C559 1.389 . S
C559 C558 1.389 . S
C559 C560 1.387 . S
C560 H545 0.930 . S
C560 C555 1.390 . S
C560 C559 1.387 . S
H561 C573 0.930 . S
H562 C575 0.930 . S
H563 C576 0.930 . S
H564 C580 0.959 . S
H565 C580 0.959 . S
H566 C580 0.961 . S
H567 C581 0.960 . S
H568 C581 0.961 . S
H569 C581 0.959 . S
H570 C584 0.929 . S
H571 C585 0.931 . S
H572 C587 0.930 . S
C573 H561 0.930 . S
C573 C574 1.399 . S
C573 C578 1.399 . S
C574 C573 1.399 . S
C574 C575 1.376 . S
C575 H562 0.930 . S
C575 C574 1.376 . S
C575 C576 1.388 . S
C576 H563 0.930 . S
C576 C575 1.388 . S
C576 C577 1.390 . S
C577 C576 1.390 . S
C577 C578 1.394 . S
C577 C583 1.465 . S
C578 C573 1.399 . S
C578 C577 1.394 . S
C578 C579 1.516 . S
C579 C578 1.516 . S
C579 C580 1.502 . S
C579 C581 1.561 . S
C579 C582 1.526 . S
C580 H564 0.959 . S
C580 H565 0.959 . S
C580 H566 0.961 . S
C580 C579 1.502 . S
C581 H567 0.960 . S
C581 H568 0.961 . S
C581 H569 0.959 . S
C581 C579 1.561 . S
C582 C579 1.526 . S
C582 C583 1.396 . S
C582 C587 1.390 . S
C583 C577 1.465 . S
C583 C582 1.396 . S
C583 C584 1.399 . S
C584 H570 0.929 . S
C584 C583 1.399 . S
C584 C585 1.385 . S
C585 H571 0.931 . S
C585 C584 1.385 . S
C585 C586 1.389 . S
C586 C585 1.389 . S
C586 C587 1.387 . S
C587 H572 0.930 . S
C587 C582 1.390 . S
C587 C586 1.387 . S
H588 C600 0.930 1_655 S
H589 C602 0.930 . S
H590 C603 0.930 . S
H591 C607 0.959 . S
H592 C607 0.959 . S
H593 C607 0.961 . S
H594 C608 0.960 . S
H595 C608 0.961 . S
H596 C608 0.959 . S
H597 C611 0.929 . S
H598 C612 0.931 . S
H599 C614 0.930 1_655 S
C600 H588 0.930 1_455 S
C600 C601 1.399 . S
C600 C605 1.399 . S
C601 C600 1.399 . S
C601 C602 1.376 . S
C602 H589 0.930 . S
C602 C601 1.376 . S
C602 C603 1.388 . S
C603 H590 0.930 . S
C603 C602 1.388 . S
C603 C604 1.390 . S
C604 C603 1.390 . S
C604 C605 1.394 . S
C604 C610 1.465 . S
C605 C600 1.399 . S
C605 C604 1.394 . S
C605 C606 1.516 1_455 S
C606 C605 1.516 1_655 S
C606 C607 1.502 . S
C606 C608 1.561 1_655 S
C606 C609 1.526 1_655 S
C607 H591 0.959 . S
C607 H592 0.959 . S
C607 H593 0.961 . S
C607 C606 1.502 . S
C608 H594 0.960 . S
C608 H595 0.961 . S
C608 H596 0.959 . S
C608 C606 1.561 1_455 S
C609 C606 1.526 1_455 S
C609 C610 1.396 . S
C609 C614 1.390 . S
C610 C604 1.465 . S
C610 C609 1.396 . S
C610 C611 1.399 . S
C611 H597 0.929 . S
C611 C610 1.399 . S
C611 C612 1.385 1_556 S
C612 H598 0.931 . S
C612 C611 1.385 1_554 S
C612 C613 1.389 1_554 S
C613 C612 1.389 1_556 S
C613 C614 1.387 . S
C614 H599 0.930 1_455 S
C614 C609 1.390 . S
C614 C613 1.387 . S
H615 C627 0.930 . S
H616 C629 0.930 . S
H617 C630 0.930 . S
H618 C634 0.959 . S
H619 C634 0.959 . S
H620 C634 0.961 . S
H621 C635 0.960 . S
H622 C635 0.961 . S
H623 C635 0.959 . S
H624 C638 0.929 . S
H625 C639 0.931 . S
H626 C641 0.930 . S
C627 H615 0.930 . S
C627 C628 1.399 . S
C627 C632 1.399 . S
C628 C627 1.399 . S
C628 C629 1.376 . S
C629 H616 0.930 . S
C629 C628 1.376 . S
C629 C630 1.388 . S
C630 H617 0.930 . S
C630 C629 1.388 . S
C630 C631 1.390 . S
C631 C630 1.390 . S
C631 C632 1.394 . S
C631 C637 1.465 . S
C632 C627 1.399 . S
C632 C631 1.394 . S
C632 C633 1.516 . S
C633 C632 1.516 . S
C633 C634 1.502 . S
C633 C635 1.561 . S
C633 C636 1.526 . S
C634 H618 0.959 . S
C634 H619 0.959 . S
C634 H620 0.961 . S
C634 C633 1.502 . S
C635 H621 0.960 . S
C635 H622 0.961 . S
C635 H623 0.959 . S
C635 C633 1.561 . S
C636 C633 1.526 . S
C636 C637 1.396 . S
C636 C641 1.390 . S
C637 C631 1.465 . S
C637 C636 1.396 . S
C637 C638 1.399 . S
C638 H624 0.929 . S
C638 C637 1.399 . S
C638 C639 1.385 . S
C639 H625 0.931 . S
C639 C638 1.385 . S
C639 C640 1.389 . S
C640 C639 1.389 . S
C640 C641 1.387 . S
C641 H626 0.930 . S
C641 C636 1.390 . S
C641 C640 1.387 . S
H642 C654 0.930 . S
H643 C656 0.930 1_655 S
H644 C657 0.930 1_655 S
H645 C661 0.959 . S
H646 C661 0.959 . S
H647 C661 0.961 . S
H648 C662 0.961 . S
H649 C662 0.961 . S
H650 C662 0.955 1_655 S
H651 C665 0.929 1_655 S
H652 C666 0.931 . S
H653 C668 0.930 . S
C654 H642 0.930 . S
C654 C655 1.399 . S
C654 C659 1.399 . S
C655 C654 1.399 . S
C655 C656 1.376 1_554 S
C656 H643 0.930 1_455 S
C656 C655 1.376 1_556 S
C656 C657 1.388 1_556 S
C657 H644 0.930 1_455 S
C657 C656 1.388 1_554 S
C657 C658 1.390 . S
C658 C657 1.390 . S
C658 C659 1.394 . S
C658 C664 1.465 . S
C659 C654 1.399 . S
C659 C658 1.394 . S
C659 C660 1.516 . S
C660 C659 1.516 . S
C660 C661 1.502 . S
C660 C662 1.565 . S
C660 C663 1.526 . S
C661 H645 0.959 . S
C661 H646 0.959 . S
C661 H647 0.961 . S
C661 C660 1.502 . S
C662 H648 0.961 . S
C662 H649 0.961 . S
C662 H650 0.955 1_455 S
C662 C660 1.565 . S
C663 C660 1.526 . S
C663 C664 1.396 . S
C663 C668 1.390 . S
C664 C658 1.465 . S
C664 C663 1.396 . S
C664 C665 1.399 . S
C665 H651 0.929 1_455 S
C665 C664 1.399 . S
C665 C666 1.385 . S
C666 H652 0.931 . S
C666 C665 1.385 . S
C666 C667 1.389 . S
C667 C666 1.389 . S
C667 C668 1.387 . S
C668 H653 0.930 . S
C668 C663 1.390 . S
C668 C667 1.387 . S
H669 C681 0.930 . S
H670 C683 0.930 . S
H671 C684 0.930 . S
H672 C688 0.959 . S
H673 C688 0.959 . S
H674 C688 0.961 . S
H675 C689 0.960 . S
H676 C689 0.961 . S
H677 C689 0.959 . S
H678 C692 0.929 . S
H679 C693 0.931 . S
H680 C695 0.930 . S
C681 H669 0.930 . S
C681 C682 1.399 . S
C681 C686 1.399 . S
C682 C681 1.399 . S
C682 C683 1.376 . S
C683 H670 0.930 . S
C683 C682 1.376 . S
C683 C684 1.388 . S
C684 H671 0.930 . S
C684 C683 1.388 . S
C684 C685 1.390 . S
C685 C684 1.390 . S
C685 C686 1.394 . S
C685 C691 1.465 . S
C686 C681 1.399 . S
C686 C685 1.394 . S
C686 C687 1.516 . S
C687 C686 1.516 . S
C687 C688 1.502 . S
C687 C689 1.561 . S
C687 C690 1.526 . S
C688 H672 0.959 . S
C688 H673 0.959 . S
C688 H674 0.961 . S
C688 C687 1.502 . S
C689 H675 0.960 . S
C689 H676 0.961 . S
C689 H677 0.959 . S
C689 C687 1.561 . S
C690 C687 1.526 . S
C690 C691 1.396 . S
C690 C695 1.390 . S
C691 C685 1.465 . S
C691 C690 1.396 . S
C691 C692 1.399 . S
C692 H678 0.929 . S
C692 C691 1.399 . S
C692 C693 1.385 . S
C693 H679 0.931 . S
C693 C692 1.385 . S
C693 C694 1.389 . S
C694 C693 1.389 . S
C694 C695 1.387 . S
C695 H680 0.930 . S
C695 C690 1.390 . S
C695 C694 1.387 . S
H696 C708 0.930 . S
H697 C710 0.930 . S
H698 C711 0.930 . S
H699 C715 0.959 . S
H700 C715 0.959 . S
H701 C715 0.961 . S
H702 C716 0.960 . S
H703 C716 0.961 . S
H704 C716 0.959 . S
H705 C719 0.929 . S
H706 C720 0.929 1_554 S
H707 C722 0.930 . S
C708 H696 0.930 . S
C708 C709 1.399 . S
C708 C713 1.399 . S
C709 C708 1.399 . S
C709 C710 1.376 . S
C710 H697 0.930 . S
C710 C709 1.376 . S
C710 C711 1.388 . S
C711 H698 0.930 . S
C711 C710 1.388 . S
C711 C712 1.390 . S
C712 C711 1.390 . S
C712 C713 1.394 . S
C712 C718 1.465 . S
C713 C708 1.399 . S
C713 C712 1.394 . S
C713 C714 1.516 . S
C714 C713 1.516 . S
C714 C715 1.502 . S
C714 C716 1.561 . S
C714 C717 1.526 . S
C715 H699 0.959 . S
C715 H700 0.959 . S
C715 H701 0.961 . S
C715 C714 1.502 . S
C716 H702 0.960 . S
C716 H703 0.961 . S
C716 H704 0.959 . S
C716 C714 1.561 . S
C717 C714 1.526 . S
C717 C718 1.396 . S
C717 C722 1.390 . S
C718 C712 1.465 . S
C718 C717 1.396 . S
C718 C719 1.399 . S
C719 H705 0.929 . S
C719 C718 1.399 . S
C719 C720 1.387 . S
C720 H706 0.929 1_556 S
C720 C719 1.387 . S
C720 C721 1.390 . S
C721 C720 1.390 . S
C721 C722 1.387 . S
C722 H707 0.930 . S
C722 C717 1.390 . S
C722 C721 1.387 . S
H723 C735 0.930 . S
H724 C737 0.930 . S
H725 C738 0.930 . S
H726 C742 0.970 . S
H727 C742 0.959 . S
H728 C742 0.961 . S
H729 C743 0.960 . S
H730 C743 0.961 . S
H731 C743 0.959 . S
H732 C746 0.929 . S
H733 C747 0.931 . S
H734 C749 0.930 . S
C735 H723 0.930 . S
C735 C736 1.399 . S
C735 C740 1.399 . S
C736 C735 1.399 . S
C736 C737 1.376 . S
C737 H724 0.930 . S
C737 C736 1.376 . S
C737 C738 1.388 . S
C738 H725 0.930 . S
C738 C737 1.388 . S
C738 C739 1.390 . S
C739 C738 1.390 . S
C739 C740 1.394 . S
C739 C745 1.465 . S
C740 C735 1.399 . S
C740 C739 1.394 . S
C740 C741 1.516 . S
C741 C740 1.516 . S
C741 C742 1.502 . S
C741 C743 1.561 . S
C741 C744 1.526 . S
C742 H726 0.970 . S
C742 H727 0.959 . S
C742 H728 0.961 . S
C742 C741 1.502 . S
C743 H729 0.960 . S
C743 H730 0.961 . S
C743 H731 0.959 . S
C743 C741 1.561 . S
C744 C741 1.526 . S
C744 C745 1.396 . S
C744 C749 1.390 . S
C745 C739 1.465 . S
C745 C744 1.396 . S
C745 C746 1.399 . S
C746 H732 0.929 . S
C746 C745 1.399 . S
C746 C747 1.385 . S
C747 H733 0.931 . S
C747 C746 1.385 . S
C747 C748 1.389 . S
C748 C747 1.389 . S
C748 C749 1.387 . S
C749 H734 0.930 . S
C749 C744 1.390 . S
C749 C748 1.387 . S
H750 C762 0.930 1_556 S
H751 C764 0.930 . S
H752 C765 0.930 . S
H753 C769 0.959 . S
H754 C769 0.959 . S
H755 C769 0.961 . S
H756 C770 0.960 . S
H757 C770 0.961 . S
H758 C770 0.959 . S
H759 C773 0.929 . S
H760 C774 0.931 . S
H761 C776 0.930 . S
C762 H750 0.930 1_554 S
C762 C763 1.399 . S
C762 C767 1.399 . S
C763 C762 1.399 . S
C763 C764 1.376 . S
C764 H751 0.930 . S
C764 C763 1.376 . S
C764 C765 1.388 . S
C765 H752 0.930 . S
C765 C764 1.388 . S
C765 C766 1.390 . S
C766 C765 1.390 . S
C766 C767 1.394 . S
C766 C772 1.465 . S
C767 C762 1.399 . S
C767 C766 1.394 . S
C767 C768 1.516 . S
C768 C767 1.516 . S
C768 C769 1.502 . S
C768 C770 1.561 . S
C768 C771 1.526 . S
C769 H753 0.959 . S
C769 H754 0.959 . S
C769 H755 0.961 . S
C769 C768 1.502 . S
C770 H756 0.960 . S
C770 H757 0.961 . S
C770 H758 0.959 . S
C770 C768 1.561 . S
C771 C768 1.526 . S
C771 C772 1.396 . S
C771 C776 1.390 . S
C772 C766 1.465 . S
C772 C771 1.396 . S
C772 C773 1.399 . S
C773 H759 0.929 . S
C773 C772 1.399 . S
C773 C774 1.385 . S
C774 H760 0.931 . S
C774 C773 1.385 . S
C774 C775 1.389 . S
C775 C774 1.389 . S
C775 C776 1.387 . S
C776 H761 0.930 . S
C776 C771 1.390 . S
C776 C775 1.387 . S
H777 C789 0.930 . S
H778 C791 0.930 . S
H779 C792 0.930 . S
H780 C796 0.959 . S
H781 C796 0.959 . S
H782 C796 0.961 . S
H783 C797 0.960 . S
H784 C797 0.961 . S
H785 C797 0.959 . S
H786 C800 0.929 . S
H787 C801 0.931 . S
H788 C803 0.930 . S
C789 H777 0.930 . S
C789 C790 1.399 . S
C789 C794 1.399 . S
C790 C789 1.399 . S
C790 C791 1.376 . S
C791 H778 0.930 . S
C791 C790 1.376 . S
C791 C792 1.388 . S
C792 H779 0.930 . S
C792 C791 1.388 . S
C792 C793 1.390 . S
C793 C792 1.390 . S
C793 C794 1.394 . S
C793 C799 1.465 . S
C794 C789 1.399 . S
C794 C793 1.394 . S
C794 C795 1.516 . S
C795 C794 1.516 . S
C795 C796 1.502 1_455 S
C795 C797 1.561 . S
C795 C798 1.526 . S
C796 H780 0.959 . S
C796 H781 0.959 . S
C796 H782 0.961 . S
C796 C795 1.502 1_655 S
C797 H783 0.960 . S
C797 H784 0.961 . S
C797 H785 0.959 . S
C797 C795 1.561 . S
C798 C795 1.526 . S
C798 C799 1.396 . S
C798 C803 1.390 . S
C799 C793 1.465 . S
C799 C798 1.396 . S
C799 C800 1.399 . S
C800 H786 0.929 . S
C800 C799 1.399 . S
C800 C801 1.385 . S
C801 H787 0.931 . S
C801 C800 1.385 . S
C801 C802 1.389 . S
C802 C801 1.389 . S
C802 C803 1.387 . S
C803 H788 0.930 . S
C803 C798 1.390 . S
C803 C802 1.387 . S
C277 N68 1.346 . S
C289 N2 1.359 . S
C304 N101 1.360 . S
C316 N35 1.346 . S
C331 N134 1.429 . S
C343 N200 1.408 . S
C358 N167 1.398 . S
C370 N233 1.356 . S
C385 C117 1.499 . S
C397 C18 1.483 . S
C412 C51 1.499 . S
C424 C84 1.490 . S
C439 C73 1.234 . S
C451 C40 1.252 . S
C466 C106 1.246 . S
C478 C7 1.250 . S
C493 C249 1.494 . S
C505 C150 1.497 . S
C520 C183 1.449 . S
C532 C216 1.468 . S
C547 C205 1.238 . S
C559 C172 1.252 . S
C574 C238 1.216 . S
C586 C139 1.206 . S
C601 N178 1.458 . S
C613 C21 1.544 1_556 S
C628 C54 1.550 . S
C640 N145 1.514 . S
C655 C87 1.547 1_554 S
C667 N244 1.499 . S
C682 N211 1.457 . S
C694 C120 1.544 . S
C709 N46 1.498 . S
C721 C153 1.547 1_556 S
C736 C186 1.545 . S
C748 N13 1.482 . S
C763 C219 1.548 1_554 S
C775 N112 1.489 . S
C790 C252 1.547 . S
C802 N79 1.508 . S
