# Generated by pormake.
# Topology wna, (6)-cn, num edge types: 1
# Building blocks:
#     Node 0, Type 0, BuildingBlock: PAMTOO_clean_sbu_0, # of connection points: 6
#     Node 1, Type 0, BuildingBlock: PAMTOO_clean_sbu_0, # of connection points: 6
#     Node 2, Type 0, BuildingBlock: PAMTOO_clean_sbu_0, # of connection points: 6
#     Node 3, Type 0, BuildingBlock: PAMTOO_clean_sbu_0, # of connection points: 6
#     Node 4, Type 0, BuildingBlock: PAMTOO_clean_sbu_0, # of connection points: 6
#     Node 5, Type 0, BuildingBlock: PAMTOO_clean_sbu_0, # of connection points: 6
#     Node 6, Type 0, BuildingBlock: PAMTOO_clean_sbu_0, # of connection points: 6
#     Node 7, Type 0, BuildingBlock: PAMTOO_clean_sbu_0, # of connection points: 6
#     Node 8, Type 0, BuildingBlock: PAMTOO_clean_sbu_0, # of connection points: 6
#     Node 9, Type 0, BuildingBlock: PAMTOO_clean_sbu_0, # of connection points: 6
#     Node 10, Type 0, BuildingBlock: PAMTOO_clean_sbu_0, # of connection points: 6
#     Node 11, Type 0, BuildingBlock: PAMTOO_clean_sbu_0, # of connection points: 6
#     Node 12, Type 0, BuildingBlock: PAMTOO_clean_sbu_0, # of connection points: 6
#     Node 13, Type 0, BuildingBlock: PAMTOO_clean_sbu_0, # of connection points: 6
#     Node 14, Type 0, BuildingBlock: PAMTOO_clean_sbu_0, # of connection points: 6
#     Node 15, Type 0, BuildingBlock: PAMTOO_clean_sbu_0, # of connection points: 6
#     Node 16, Type 0, BuildingBlock: PAMTOO_clean_sbu_0, # of connection points: 6
#     Node 17, Type 0, BuildingBlock: PAMTOO_clean_sbu_0, # of connection points: 6
#     Node 18, Type 0, BuildingBlock: PAMTOO_clean_sbu_0, # of connection points: 6
#     Node 19, Type 0, BuildingBlock: PAMTOO_clean_sbu_0, # of connection points: 6
#     Node 20, Type 0, BuildingBlock: PAMTOO_clean_sbu_0, # of connection points: 6
#     Node 21, Type 0, BuildingBlock: PAMTOO_clean_sbu_0, # of connection points: 6
#     Node 22, Type 0, BuildingBlock: PAMTOO_clean_sbu_0, # of connection points: 6
#     Node 23, Type 0, BuildingBlock: PAMTOO_clean_sbu_0, # of connection points: 6
#     Node 24, Type 0, BuildingBlock: PAMTOO_clean_sbu_0, # of connection points: 6
#     Node 25, Type 0, BuildingBlock: PAMTOO_clean_sbu_0, # of connection points: 6
#     Node 26, Type 0, BuildingBlock: PAMTOO_clean_sbu_0, # of connection points: 6
#     Node 27, Type 0, BuildingBlock: PAMTOO_clean_sbu_0, # of connection points: 6
#     Node 28, Type 0, BuildingBlock: PAMTOO_clean_sbu_0, # of connection points: 6
#     Node 29, Type 0, BuildingBlock: PAMTOO_clean_sbu_0, # of connection points: 6
#     Node 30, Type 0, BuildingBlock: PAMTOO_clean_sbu_0, # of connection points: 6
#     Node 31, Type 0, BuildingBlock: PAMTOO_clean_sbu_0, # of connection points: 6
#     Node 32, Type 0, BuildingBlock: PAMTOO_clean_sbu_0, # of connection points: 6
#     Node 33, Type 0, BuildingBlock: PAMTOO_clean_sbu_0, # of connection points: 6
#     Node 34, Type 0, BuildingBlock: PAMTOO_clean_sbu_0, # of connection points: 6
#     Node 35, Type 0, BuildingBlock: PAMTOO_clean_sbu_0, # of connection points: 6
#     Edge 36, Type (0, 0), BuildingBlock: CIFDUS_clean_linker_0, # of connection points: 2
#     Edge 37, Type (0, 0), BuildingBlock: CIFDUS_clean_linker_0, # of connection points: 2
#     Edge 38, Type (0, 0), BuildingBlock: CIFDUS_clean_linker_0, # of connection points: 2
#     Edge 39, Type (0, 0), BuildingBlock: CIFDUS_clean_linker_0, # of connection points: 2
#     Edge 40, Type (0, 0), BuildingBlock: CIFDUS_clean_linker_0, # of connection points: 2
#     Edge 41, Type (0, 0), BuildingBlock: CIFDUS_clean_linker_0, # of connection points: 2
#     Edge 42, Type (0, 0), BuildingBlock: CIFDUS_clean_linker_0, # of connection points: 2
#     Edge 43, Type (0, 0), BuildingBlock: CIFDUS_clean_linker_0, # of connection points: 2
#     Edge 44, Type (0, 0), BuildingBlock: CIFDUS_clean_linker_0, # of connection points: 2
#     Edge 45, Type (0, 0), BuildingBlock: CIFDUS_clean_linker_0, # of connection points: 2
#     Edge 46, Type (0, 0), BuildingBlock: CIFDUS_clean_linker_0, # of connection points: 2
#     Edge 47, Type (0, 0), BuildingBlock: CIFDUS_clean_linker_0, # of connection points: 2
#     Edge 48, Type (0, 0), BuildingBlock: CIFDUS_clean_linker_0, # of connection points: 2
#     Edge 49, Type (0, 0), BuildingBlock: CIFDUS_clean_linker_0, # of connection points: 2
#     Edge 50, Type (0, 0), BuildingBlock: CIFDUS_clean_linker_0, # of connection points: 2
#     Edge 51, Type (0, 0), BuildingBlock: CIFDUS_clean_linker_0, # of connection points: 2
#     Edge 52, Type (0, 0), BuildingBlock: CIFDUS_clean_linker_0, # of connection points: 2
#     Edge 53, Type (0, 0), BuildingBlock: CIFDUS_clean_linker_0, # of connection points: 2
#     Edge 54, Type (0, 0), BuildingBlock: CIFDUS_clean_linker_0, # of connection points: 2
#     Edge 55, Type (0, 0), BuildingBlock: CIFDUS_clean_linker_0, # of connection points: 2
#     Edge 56, Type (0, 0), BuildingBlock: CIFDUS_clean_linker_0, # of connection points: 2
#     Edge 57, Type (0, 0), BuildingBlock: CIFDUS_clean_linker_0, # of connection points: 2
#     Edge 58, Type (0, 0), BuildingBlock: CIFDUS_clean_linker_0, # of connection points: 2
#     Edge 59, Type (0, 0), BuildingBlock: CIFDUS_clean_linker_0, # of connection points: 2
#     Edge 60, Type (0, 0), BuildingBlock: CIFDUS_clean_linker_0, # of connection points: 2
#     Edge 61, Type (0, 0), BuildingBlock: CIFDUS_clean_linker_0, # of connection points: 2
#     Edge 62, Type (0, 0), BuildingBlock: CIFDUS_clean_linker_0, # of connection points: 2
#     Edge 63, Type (0, 0), BuildingBlock: CIFDUS_clean_linker_0, # of connection points: 2
#     Edge 64, Type (0, 0), BuildingBlock: CIFDUS_clean_linker_0, # of connection points: 2
#     Edge 65, Type (0, 0), BuildingBlock: CIFDUS_clean_linker_0, # of connection points: 2
#     Edge 66, Type (0, 0), BuildingBlock: CIFDUS_clean_linker_0, # of connection points: 2
#     Edge 67, Type (0, 0), BuildingBlock: CIFDUS_clean_linker_0, # of connection points: 2
#     Edge 68, Type (0, 0), BuildingBlock: CIFDUS_clean_linker_0, # of connection points: 2
#     Edge 69, Type (0, 0), BuildingBlock: CIFDUS_clean_linker_0, # of connection points: 2
#     Edge 70, Type (0, 0), BuildingBlock: CIFDUS_clean_linker_0, # of connection points: 2
#     Edge 71, Type (0, 0), BuildingBlock: CIFDUS_clean_linker_0, # of connection points: 2
#     Edge 72, Type (0, 0), BuildingBlock: CIFDUS_clean_linker_0, # of connection points: 2
#     Edge 73, Type (0, 0), BuildingBlock: CIFDUS_clean_linker_0, # of connection points: 2
#     Edge 74, Type (0, 0), BuildingBlock: CIFDUS_clean_linker_0, # of connection points: 2
#     Edge 75, Type (0, 0), BuildingBlock: CIFDUS_clean_linker_0, # of connection points: 2
#     Edge 76, Type (0, 0), BuildingBlock: CIFDUS_clean_linker_0, # of connection points: 2
#     Edge 77, Type (0, 0), BuildingBlock: CIFDUS_clean_linker_0, # of connection points: 2
#     Edge 78, Type (0, 0), BuildingBlock: CIFDUS_clean_linker_0, # of connection points: 2
#     Edge 79, Type (0, 0), BuildingBlock: CIFDUS_clean_linker_0, # of connection points: 2
#     Edge 80, Type (0, 0), BuildingBlock: CIFDUS_clean_linker_0, # of connection points: 2
#     Edge 81, Type (0, 0), BuildingBlock: CIFDUS_clean_linker_0, # of connection points: 2
#     Edge 82, Type (0, 0), BuildingBlock: CIFDUS_clean_linker_0, # of connection points: 2
#     Edge 83, Type (0, 0), BuildingBlock: CIFDUS_clean_linker_0, # of connection points: 2
#     Edge 84, Type (0, 0), BuildingBlock: CIFDUS_clean_linker_0, # of connection points: 2
#     Edge 85, Type (0, 0), BuildingBlock: CIFDUS_clean_linker_0, # of connection points: 2
#     Edge 86, Type (0, 0), BuildingBlock: CIFDUS_clean_linker_0, # of connection points: 2
#     Edge 87, Type (0, 0), BuildingBlock: CIFDUS_clean_linker_0, # of connection points: 2
#     Edge 88, Type (0, 0), BuildingBlock: CIFDUS_clean_linker_0, # of connection points: 2
#     Edge 89, Type (0, 0), BuildingBlock: CIFDUS_clean_linker_0, # of connection points: 2
#     Edge 90, Type (0, 0), BuildingBlock: CIFDUS_clean_linker_0, # of connection points: 2
#     Edge 91, Type (0, 0), BuildingBlock: CIFDUS_clean_linker_0, # of connection points: 2
#     Edge 92, Type (0, 0), BuildingBlock: CIFDUS_clean_linker_0, # of connection points: 2
#     Edge 93, Type (0, 0), BuildingBlock: CIFDUS_clean_linker_0, # of connection points: 2
#     Edge 94, Type (0, 0), BuildingBlock: CIFDUS_clean_linker_0, # of connection points: 2
#     Edge 95, Type (0, 0), BuildingBlock: CIFDUS_clean_linker_0, # of connection points: 2
#     Edge 96, Type (0, 0), BuildingBlock: CIFDUS_clean_linker_0, # of connection points: 2
#     Edge 97, Type (0, 0), BuildingBlock: CIFDUS_clean_linker_0, # of connection points: 2
#     Edge 98, Type (0, 0), BuildingBlock: CIFDUS_clean_linker_0, # of connection points: 2
#     Edge 99, Type (0, 0), BuildingBlock: CIFDUS_clean_linker_0, # of connection points: 2
#     Edge 100, Type (0, 0), BuildingBlock: CIFDUS_clean_linker_0, # of connection points: 2
#     Edge 101, Type (0, 0), BuildingBlock: CIFDUS_clean_linker_0, # of connection points: 2
#     Edge 102, Type (0, 0), BuildingBlock: CIFDUS_clean_linker_0, # of connection points: 2
#     Edge 103, Type (0, 0), BuildingBlock: CIFDUS_clean_linker_0, # of connection points: 2
#     Edge 104, Type (0, 0), BuildingBlock: CIFDUS_clean_linker_0, # of connection points: 2
#     Edge 105, Type (0, 0), BuildingBlock: CIFDUS_clean_linker_0, # of connection points: 2
#     Edge 106, Type (0, 0), BuildingBlock: CIFDUS_clean_linker_0, # of connection points: 2
#     Edge 107, Type (0, 0), BuildingBlock: CIFDUS_clean_linker_0, # of connection points: 2
#     Edge 108, Type (0, 0), BuildingBlock: CIFDUS_clean_linker_0, # of connection points: 2
#     Edge 109, Type (0, 0), BuildingBlock: CIFDUS_clean_linker_0, # of connection points: 2
#     Edge 110, Type (0, 0), BuildingBlock: CIFDUS_clean_linker_0, # of connection points: 2
#     Edge 111, Type (0, 0), BuildingBlock: CIFDUS_clean_linker_0, # of connection points: 2
#     Edge 112, Type (0, 0), BuildingBlock: CIFDUS_clean_linker_0, # of connection points: 2
#     Edge 113, Type (0, 0), BuildingBlock: CIFDUS_clean_linker_0, # of connection points: 2
#     Edge 114, Type (0, 0), BuildingBlock: CIFDUS_clean_linker_0, # of connection points: 2
#     Edge 115, Type (0, 0), BuildingBlock: CIFDUS_clean_linker_0, # of connection points: 2
#     Edge 116, Type (0, 0), BuildingBlock: CIFDUS_clean_linker_0, # of connection points: 2
#     Edge 117, Type (0, 0), BuildingBlock: CIFDUS_clean_linker_0, # of connection points: 2
#     Edge 118, Type (0, 0), BuildingBlock: CIFDUS_clean_linker_0, # of connection points: 2
#     Edge 119, Type (0, 0), BuildingBlock: CIFDUS_clean_linker_0, # of connection points: 2
#     Edge 120, Type (0, 0), BuildingBlock: CIFDUS_clean_linker_0, # of connection points: 2
#     Edge 121, Type (0, 0), BuildingBlock: CIFDUS_clean_linker_0, # of connection points: 2
#     Edge 122, Type (0, 0), BuildingBlock: CIFDUS_clean_linker_0, # of connection points: 2
#     Edge 123, Type (0, 0), BuildingBlock: CIFDUS_clean_linker_0, # of connection points: 2
#     Edge 124, Type (0, 0), BuildingBlock: CIFDUS_clean_linker_0, # of connection points: 2
#     Edge 125, Type (0, 0), BuildingBlock: CIFDUS_clean_linker_0, # of connection points: 2
#     Edge 126, Type (0, 0), BuildingBlock: CIFDUS_clean_linker_0, # of connection points: 2
#     Edge 127, Type (0, 0), BuildingBlock: CIFDUS_clean_linker_0, # of connection points: 2
#     Edge 128, Type (0, 0), BuildingBlock: CIFDUS_clean_linker_0, # of connection points: 2
#     Edge 129, Type (0, 0), BuildingBlock: CIFDUS_clean_linker_0, # of connection points: 2
#     Edge 130, Type (0, 0), BuildingBlock: CIFDUS_clean_linker_0, # of connection points: 2
#     Edge 131, Type (0, 0), BuildingBlock: CIFDUS_clean_linker_0, # of connection points: 2
#     Edge 132, Type (0, 0), BuildingBlock: CIFDUS_clean_linker_0, # of connection points: 2
#     Edge 133, Type (0, 0), BuildingBlock: CIFDUS_clean_linker_0, # of connection points: 2
#     Edge 134, Type (0, 0), BuildingBlock: CIFDUS_clean_linker_0, # of connection points: 2
#     Edge 135, Type (0, 0), BuildingBlock: CIFDUS_clean_linker_0, # of connection points: 2
#     Edge 136, Type (0, 0), BuildingBlock: CIFDUS_clean_linker_0, # of connection points: 2
#     Edge 137, Type (0, 0), BuildingBlock: CIFDUS_clean_linker_0, # of connection points: 2
#     Edge 138, Type (0, 0), BuildingBlock: CIFDUS_clean_linker_0, # of connection points: 2
#     Edge 139, Type (0, 0), BuildingBlock: CIFDUS_clean_linker_0, # of connection points: 2
#     Edge 140, Type (0, 0), BuildingBlock: CIFDUS_clean_linker_0, # of connection points: 2
#     Edge 141, Type (0, 0), BuildingBlock: CIFDUS_clean_linker_0, # of connection points: 2
#     Edge 142, Type (0, 0), BuildingBlock: CIFDUS_clean_linker_0, # of connection points: 2
#     Edge 143, Type (0, 0), BuildingBlock: CIFDUS_clean_linker_0, # of connection points: 2
# Relax obj value: 0.294
# Max RMSD: 0.231
# Mean RMSD: 0.207
data_MOF--net-wna--node1-PAMTOO_clean_sbu_0--edge1-CIFDUS_clean_linker_0
_symmetry_space_group_name_H-M    P1
_symmetry_Int_Tables_number       1
_symmetry_cell_setting            triclinic
loop_
_symmetry_equiv_pos_as_xyz
'x, y, z'
_cell_length_a     39.290108
_cell_length_b     39.048726
_cell_length_c     106.58288
_cell_angle_alpha  90.039516
_cell_angle_beta   89.935901
_cell_angle_gamma 119.89106
loop_
_atom_site_label
_atom_site_type_symbol
_atom_site_fract_x
_atom_site_fract_y
_atom_site_fract_z
_atom_type_partial_charge
Dy0 Dy 0.18989 0.28941 0.18525 0.0
Dy1 Dy 0.19335 0.2941 0.15516 0.0
C2 C 0.20566 0.22526 0.1698 0.0
O3 O 0.25716 0.32815 0.18117 0.0
O4 O 0.26034 0.32674 0.15986 0.0
O5 O 0.17348 0.25923 0.2032 0.0
O6 O 0.21079 0.32276 0.20256 0.0
O7 O 0.16355 0.33201 0.16025 0.0
O8 O 0.15886 0.32551 0.18156 0.0
O9 O 0.13328 0.23969 0.15837 0.0
O10 O 0.1296 0.23585 0.17993 0.0
O11 O 0.17363 0.27173 0.13622 0.0
O12 O 0.22177 0.33093 0.13904 0.0
C13 C 0.27903 0.33784 0.17078 0.0
O14 O 0.20473 0.24185 0.18051 0.0
O15 O 0.20216 0.2403 0.15895 0.0
C16 C 0.17775 0.2953 0.22214 0.0
C17 C 0.15744 0.29929 0.24754 0.0
C18 C 0.13509 0.26503 0.24028 0.0
C19 C 0.14519 0.263 0.22777 0.0
C20 C 0.1995 0.32983 0.22929 0.0
C21 C 0.18947 0.33184 0.24179 0.0
C22 C 0.19298 0.29161 0.2097 0.0
C23 C 0.15149 0.33936 0.17115 0.0
C24 C 0.11424 0.22116 0.16872 0.0
C25 C 0.18509 0.3193 0.12008 0.0
C26 C 0.16814 0.34972 0.0981 0.0
C27 C 0.17825 0.37104 0.10949 0.0
C28 C 0.1866 0.35605 0.12032 0.0
C29 C 0.17417 0.29758 0.10884 0.0
C30 C 0.16574 0.31249 0.09802 0.0
C31 C 0.19855 0.3049 0.13089 0.0
H32 H 0.11049 0.23916 0.24438 0.0
H33 H 0.12819 0.23565 0.22265 0.0
H34 H 0.22516 0.35502 0.22532 0.0
H35 H 0.20706 0.35891 0.24698 0.0
H36 H 0.18089 0.39996 0.10997 0.0
H37 H 0.19517 0.37372 0.12879 0.0
H38 H 0.17298 0.26929 0.10835 0.0
H39 H 0.15742 0.29476 0.08957 0.0
Dy40 Dy 0.83527 0.92756 0.1855 0.0
Dy41 Dy 0.83939 0.92383 0.15554 0.0
C42 C 0.90515 1.00529 0.17062 0.0
O43 O 0.79968 0.95822 0.17961 0.0
O44 O 0.79946 0.95202 0.15831 0.0
O45 O 0.86152 0.94331 0.20404 0.0
O46 O 0.79845 0.91528 0.20188 0.0
O47 O 0.79644 0.85717 0.16062 0.0
O48 O 0.79905 0.86002 0.182 0.0
O49 O 0.89608 0.92456 0.16122 0.0
O50 O 0.8876 0.91719 0.18258 0.0
O51 O 0.85061 0.89912 0.13894 0.0
O52 O 0.82941 0.94017 0.1369 0.0
C53 C 0.78898 0.9648 0.16844 0.0
O54 O 0.88486 0.98939 0.18101 0.0
O55 O 0.89354 0.98536 0.15984 0.0
C56 C 0.82242 0.90936 0.22204 0.0
C57 C 0.8096 0.88027 0.24704 0.0
C58 C 0.84629 0.91182 0.24334 0.0
C59 C 0.85254 0.92622 0.23102 0.0
C60 C 0.78604 0.87709 0.22561 0.0
C61 C 0.77977 0.86266 0.23794 0.0
C62 C 0.82781 0.9293 0.20973 0.0
C63 C 0.78659 0.83827 0.17162 0.0
C64 C 0.90838 0.92009 0.17235 0.0
C65 C 0.81539 0.89379 0.12018 0.0
C66 C 0.77598 0.84896 0.09847 0.0
C67 C 0.76519 0.83238 0.11059 0.0
C68 C 0.78476 0.85449 0.12132 0.0
C69 C 0.82561 0.91061 0.10816 0.0
C70 C 0.80624 0.88857 0.09746 0.0
C71 C 0.83924 0.91697 0.13112 0.0
H72 H 0.87019 0.92571 0.24999 0.0
H73 H 0.88072 0.95144 0.22862 0.0
H74 H 0.76196 0.86371 0.219 0.0
H75 H 0.75102 0.83857 0.24044 0.0
H76 H 0.74229 0.80195 0.11178 0.0
H77 H 0.77646 0.84066 0.13047 0.0
H78 H 0.8492 0.94079 0.10702 0.0
H79 H 0.81502 0.9027 0.08837 0.0
Dy80 Dy 0.20116 0.93934 0.18427 0.0
Dy81 Dy 0.20245 0.93319 0.15442 0.0
C82 C 0.12252 0.92489 0.16809 0.0
O83 O 0.17126 0.87107 0.18063 0.0
O84 O 0.16798 0.86625 0.15932 0.0
O85 O 0.18182 0.95214 0.20192 0.0
O86 O 0.21757 0.92404 0.20192 0.0
O87 O 0.26839 0.95943 0.15958 0.0
O88 O 0.26927 0.9707 0.1806 0.0
O89 O 0.20577 0.99292 0.15731 0.0
O90 O 0.212 1.00094 0.17872 0.0
O91 O 0.20822 0.95761 0.13573 0.0
O92 O 0.20324 0.90051 0.13811 0.0
C93 C 0.15945 0.84829 0.17038 0.0
O94 O 0.13973 0.92893 0.17913 0.0
O95 O 0.1408 0.92433 0.15764 0.0
C96 C 0.21021 0.94955 0.22171 0.0
C97 C 0.23076 0.96683 0.24738 0.0
C98 C 0.19142 0.94266 0.24375 0.0
C99 C 0.18133 0.93428 0.2311 0.0
C100 C 0.24956 0.97441 0.22519 0.0
C101 C 0.25971 0.98322 0.23793 0.0
C102 C 0.19791 0.93621 0.20865 0.0
C103 C 0.28916 0.97433 0.17005 0.0
C104 C 0.20982 1.01435 0.16746 0.0
C105 C 0.2396 0.93787 0.12024 0.0
C106 C 0.29057 0.95238 0.09944 0.0
C107 C 0.27175 0.9153 0.10542 0.0
C108 C 0.24655 0.90813 0.11563 0.0
C109 C 0.2589 0.97518 0.11443 0.0
C110 C 0.28411 0.98236 0.10419 0.0
C111 C 0.20957 0.92853 0.13022 0.0
H112 H 0.16833 0.92998 0.25074 0.0
H113 H 0.1508 0.91496 0.22865 0.0
H114 H 0.27239 0.98637 0.21811 0.0
H115 H 0.29031 1.00183 0.2404 0.0
H116 H 0.2754 0.89126 0.10195 0.0
H117 H 0.23169 0.87883 0.11972 0.0
H118 H 0.254 0.99871 0.11762 0.0
H119 H 0.29838 1.01141 0.09995 0.0
Dy120 Dy 0.38593 0.07588 0.33391 0.0
Dy121 Dy 0.30354 1.01369 0.34719 0.0
C122 C 0.36901 0.99556 0.34063 0.0
O123 O 0.34022 0.07045 0.32058 0.0
O124 O 0.29512 1.00738 0.32602 0.0
O125 O 0.44962 0.10734 0.33402 0.0
O126 O 0.4183 0.10517 0.31715 0.0
O127 O 0.29912 0.06799 0.34337 0.0
O128 O 0.36514 0.11393 0.34241 0.0
O129 O 0.33971 1.05105 0.36342 0.0
O130 O 0.40097 0.07881 0.35436 0.0
O131 O 0.25738 0.99536 0.36085 0.0
O132 O 0.25517 0.95347 0.34704 0.0
C133 C 0.30986 1.03627 0.3177 0.0
O134 O 0.36459 1.01258 0.33085 0.0
O135 O 0.34774 0.99393 0.35026 0.0
C136 C 0.46526 0.16706 0.32399 0.0
C137 C 0.44709 0.22812 0.32257 0.0
C138 C 0.44659 0.21065 0.33418 0.0
C139 C 0.45652 0.18122 0.33492 0.0
C140 C 0.47204 0.18837 0.31282 0.0
C141 C 0.4637 0.21923 0.31217 0.0
C142 C 0.45101 0.12451 0.32338 0.0
C143 C 0.32839 0.10478 0.3439 0.0
C144 C 0.37827 0.07224 0.36424 0.0
C145 C 0.19575 0.95048 0.35253 0.0
C146 C 0.11811 0.9316 0.3475 0.0
C147 C 0.14923 0.97016 0.34555 0.0
C148 C 0.18777 0.97947 0.34796 0.0
C149 C 0.16491 0.91172 0.35419 0.0
C150 C 0.1263 0.90226 0.35163 0.0
C151 C 0.23608 0.96078 0.35568 0.0
H152 H 0.4349 0.21623 0.3426 0.0
H153 H 0.4515 0.16575 0.34377 0.0
H154 H 0.47927 0.1783 0.30429 0.0
H155 H 0.46745 0.23374 0.30323 0.0
H156 H 0.14369 0.99314 0.34221 0.0
H157 H 0.2113 1.00947 0.34642 0.0
H158 H 0.17065 0.88896 0.35762 0.0
H159 H 0.10275 0.87234 0.35325 0.0
Dy160 Dy 0.07996 0.34005 0.33797 0.0
Dy161 Dy 0.15544 0.34135 0.35098 0.0
C162 C 0.14965 0.41716 0.34666 0.0
O163 O 0.10048 0.31013 0.32472 0.0
O164 O 0.16461 0.34733 0.32997 0.0
O165 O 1.02562 0.34144 0.33778 0.0
O166 O 1.05505 0.34426 0.32035 0.0
O167 O 0.11337 0.27697 0.34704 0.0
O168 O 1.05647 0.2799 0.34558 0.0
O169 O 0.11492 0.33145 0.36715 0.0
O170 O 1.07253 0.34957 0.35838 0.0
O171 O 0.18365 0.32176 0.36416 0.0
O172 O 0.21877 0.36909 0.35116 0.0
C173 C 0.1375 0.32614 0.32165 0.0
O174 O 0.13406 0.39812 0.3363 0.0
O175 O 0.15793 0.39872 0.3553 0.0
C176 C 0.9884 0.29715 0.32159 0.0
C177 C 0.93929 0.21854 0.31377 0.0
C178 C 0.94423 0.22815 0.32658 0.0
C179 C 0.96844 0.26691 0.33045 0.0
C180 C 0.98202 0.28797 0.30875 0.0
C181 C 0.95745 0.24892 0.30485 0.0
C182 C 1.02176 0.33517 0.3257 0.0
C183 C 1.0747 0.25976 0.34708 0.0
C184 C 0.08606 0.33935 0.36817 0.0
C185 C 0.23805 0.32193 0.35549 0.0
C186 C 0.261 0.26594 0.34987 0.0
C187 C 0.24408 0.27828 0.34057 0.0
C188 C 0.23246 0.30585 0.34339 0.0
C189 C 0.25722 0.31173 0.36455 0.0
C190 C 0.26862 0.28393 0.36177 0.0
C191 C 0.2183 0.34376 0.35926 0.0
H192 H 0.92958 0.20556 0.33366 0.0
H193 H 0.97288 0.27266 0.34043 0.0
H194 H 0.99757 0.31062 0.30175 0.0
H195 H 0.95369 0.24231 0.29491 0.0
H196 H 0.23864 0.26566 0.33124 0.0
H197 H 0.21742 0.31317 0.33627 0.0
H198 H 0.26142 0.32363 0.37397 0.0
H199 H 0.2814 0.27497 0.36917 0.0
Dy200 Dy 0.80237 0.77024 0.33416 0.0
Dy201 Dy 0.8154 0.84775 0.3502 0.0
C202 C 0.73282 0.76714 0.35053 0.0
O203 O 0.77684 0.80137 0.32367 0.0
O204 O 0.82332 0.86237 0.32967 0.0
O205 O 0.79119 0.71043 0.33209 0.0
O206 O 0.79723 0.74556 0.31569 0.0
O207 O 0.87579 0.8573 0.34737 0.0
O208 O 0.86472 0.8154 0.33077 0.0
O209 O 0.80989 0.80335 0.36459 0.0
O210 O 0.83028 0.76854 0.35235 0.0
O211 O 0.84146 0.89004 0.3652 0.0
O212 O 0.80186 0.89474 0.35207 0.0
C213 C 0.79889 0.8389 0.32111 0.0
O214 O 0.74903 0.74775 0.34579 0.0
O215 O 0.7505 0.80587 0.35096 0.0
C216 C 0.82958 0.70834 0.31536 0.0
C217 C 0.90134 0.71062 0.31083 0.0
C218 C 0.87448 0.68418 0.31968 0.0
C219 C 0.83888 0.68287 0.32186 0.0
C220 C 0.85481 0.73228 0.30574 0.0
C221 C 0.89039 0.73344 0.30351 0.0
C222 C 0.79758 0.71451 0.32002 0.0
C223 C 0.88857 0.84364 0.33835 0.0
C224 C 0.8232 0.7785 0.36346 0.0
C225 C 0.85453 0.95366 0.35981 0.0
C226 C 0.90766 1.03499 0.35708 0.0
C227 C 0.91148 1.00732 0.34964 0.0
C228 C 0.88507 0.96692 0.35099 0.0
C229 C 0.85071 0.98101 0.36728 0.0
C230 C 0.87706 1.02136 0.36594 0.0
C231 C 0.8266 0.91143 0.36128 0.0
H232 H 0.88197 0.66633 0.32557 0.0
H233 H 0.81991 0.66388 0.32924 0.0
H234 H 0.84826 0.7519 0.30041 0.0
H235 H 0.91004 0.75344 0.29644 0.0
H236 H 0.93438 1.01693 0.34262 0.0
H237 H 0.88829 0.94602 0.34513 0.0
H238 H 0.82732 0.97116 0.37415 0.0
H239 H 0.8736 1.0419 0.3719 0.0
Dy240 Dy 0.96835 0.81412 0.85332 0.0
Dy241 Dy 0.96947 0.8119 0.82333 0.0
C242 C 1.00612 0.76273 0.83916 0.0
O243 O 1.02449 0.87095 0.84857 0.0
O244 O 1.03115 0.86544 0.8274 0.0
O245 O 1.0009 0.82562 0.8706 0.0
O246 O 0.93861 0.80447 0.8713 0.0
O247 O 0.95714 0.8623 0.82697 0.0
O248 O 0.96094 0.86762 0.84846 0.0
O249 O 0.9016 0.77706 0.82791 0.0
O250 O 0.90214 0.77361 0.84926 0.0
O251 O 0.98315 0.8384 0.80483 0.0
O252 O 0.94889 0.77477 0.80674 0.0
C253 C 1.04507 0.88496 0.83813 0.0
O254 O 0.99242 0.77131 0.84944 0.0
O255 O 1.00107 0.7761 0.82822 0.0
C256 C 0.96769 0.79208 0.88915 0.0
C257 C 0.96864 0.75437 0.9118 0.0
C258 C 0.97332 0.74028 0.90009 0.0
C259 C 0.97291 0.75901 0.88886 0.0
C260 C 0.96259 0.80584 0.90074 0.0
C261 C 0.96316 0.78738 0.91191 0.0
C262 C 0.97042 0.81489 0.87776 0.0
C263 C 0.95691 0.88078 0.83738 0.0
C264 C 0.88157 0.76496 0.83867 0.0
C265 C 0.9794 0.79991 0.78658 0.0
C266 C 0.99535 0.79231 0.76097 0.0
C267 C 1.01436 0.82932 0.76702 0.0
C268 C 1.00637 0.83309 0.77963 0.0
C269 C 0.96156 0.76274 0.78068 0.0
C270 C 0.9695 0.75897 0.76808 0.0
C271 C 0.9647 0.80461 0.799 0.0
H272 H 0.97722 0.71475 0.89958 0.0
H273 H 0.97716 0.74803 0.88001 0.0
H274 H 0.95905 0.83162 0.9012 0.0
H275 H 0.96029 0.79976 0.92067 0.0
H276 H 1.03414 0.85576 0.76186 0.0
H277 H 1.02013 0.86231 0.78376 0.0
H278 H 0.94019 0.73662 0.78567 0.0
H279 H 0.95475 0.7299 0.76385 0.0
Dy280 Dy 0.32001 0.17755 0.85116 0.0
Dy281 Dy 0.32341 0.18152 0.82121 0.0
C282 C 0.37182 0.26697 0.83683 0.0
O283 O 0.26331 0.17891 0.8463 0.0
O284 O 0.27185 0.19174 0.82515 0.0
O285 O 0.30134 0.19106 0.86872 0.0
O286 O 0.33989 0.16679 0.86899 0.0
O287 O 0.2731 0.11869 0.82489 0.0
O288 O 0.26734 0.11653 0.84638 0.0
O289 O 0.36075 0.15197 0.82582 0.0
O290 O 0.35642 0.14581 0.8471 0.0
O291 O 0.29663 0.16608 0.80279 0.0
O292 O 0.36002 0.19862 0.80457 0.0
C293 C 0.25099 0.18615 0.83554 0.0
O294 O 0.36311 0.24445 0.84708 0.0
O295 O 0.35831 0.24885 0.82589 0.0
C296 C 0.3438 0.20744 0.88629 0.0
C297 C 0.38264 0.25732 0.90715 0.0
C298 C 0.39449 0.2706 0.89473 0.0
C299 C 0.37521 0.24595 0.88442 0.0
C300 C 0.33214 0.19405 0.89861 0.0
C301 C 0.35124 0.21858 0.90889 0.0
C302 C 0.32196 0.18089 0.87569 0.0
C303 C 0.25442 0.09973 0.83524 0.0
C304 C 0.36914 0.13903 0.83627 0.0
C305 C 0.3334 0.19943 0.78421 0.0
C306 C 0.34062 0.21898 0.75829 0.0
C307 C 0.30347 0.19536 0.76379 0.0
C308 C 0.29993 0.18561 0.77656 0.0
C309 C 0.37044 0.22425 0.77883 0.0
C310 C 0.37399 0.23399 0.76605 0.0
C311 C 0.33018 0.18231 0.79691 0.0
H312 H 0.41826 0.30028 0.89297 0.0
H313 H 0.38464 0.25702 0.87499 0.0
H314 H 0.30803 0.16445 0.9003 0.0
H315 H 0.34162 0.20691 0.91825 0.0
H316 H 0.27713 0.18288 0.75812 0.0
H317 H 0.27101 0.16574 0.78031 0.0
H318 H 0.39691 0.23496 0.78437 0.0
H319 H 0.40303 0.25278 0.76221 0.0
Dy320 Dy 0.95358 0.16933 0.85294 0.0
Dy321 Dy 0.95875 0.16457 0.82294 0.0
C322 C 0.86897 0.12818 0.83646 0.0
O323 O 0.94984 0.10932 0.84992 0.0
O324 O 0.94916 0.10364 0.82841 0.0
O325 O 0.94883 0.14558 0.87173 0.0
O326 O 0.94979 0.20073 0.86918 0.0
O327 O 1.01998 0.17638 0.82865 0.0
O328 O 1.01579 0.17826 0.85017 0.0
O329 O 0.98869 0.23234 0.82652 0.0
O330 O 0.98778 0.23665 0.84783 0.0
O331 O 0.9756 0.149 0.80531 0.0
O332 O 0.94584 0.18306 0.80532 0.0
C333 C 0.94871 0.0892 0.83971 0.0
O334 O 0.88732 0.14168 0.84739 0.0
O335 O 0.89108 0.13366 0.82631 0.0
C336 C 0.91642 0.16344 0.88755 0.0
C337 C 0.86763 0.14818 0.90912 0.0
C338 C 0.88369 0.18451 0.90269 0.0
C339 C 0.90771 0.19202 0.89212 0.0
C340 C 0.90023 0.12697 0.89388 0.0
C341 C 0.87612 0.11942 0.90449 0.0
C342 C 0.94567 0.17372 0.87718 0.0
C343 C 1.03563 0.17918 0.83989 0.0
C344 C 0.99836 0.25483 0.83676 0.0
C345 C 0.94334 0.14946 0.78626 0.0
C346 C 0.91198 0.12482 0.76181 0.0
C347 C 0.95264 0.14293 0.76395 0.0
C348 C 0.96805 0.15502 0.77602 0.0
C349 C 0.90262 0.13071 0.78428 0.0
C350 C 0.88708 0.11836 0.77217 0.0
C351 C 0.96156 0.16681 0.79852 0.0
H352 H 0.87866 0.20781 0.90603 0.0
H353 H 0.9203 0.22078 0.88771 0.0
H354 H 0.90671 0.10441 0.89078 0.0
H355 H 0.86413 0.09097 0.90906 0.0
H356 H 0.97266 0.14782 0.75628 0.0
H357 H 0.99957 0.16958 0.77731 0.0
H358 H 0.88294 0.12633 0.79201 0.0
H359 H 0.85565 0.10473 0.77087 0.0
Dy360 Dy 0.86232 0.10314 0.65876 0.0
Dy361 Dy 0.77825 1.04339 0.67177 0.0
C362 C 0.84238 1.01667 0.66757 0.0
O363 O 0.82848 0.05698 0.64438 0.0
O364 O 0.76552 1.03628 0.65091 0.0
O365 O 0.90808 0.1161 0.64536 0.0
O366 O 0.91081 0.16296 0.65701 0.0
O367 O 0.79324 0.10597 0.67132 0.0
O368 O 0.81792 0.11929 0.65216 0.0
O369 O 0.82274 0.05699 0.68678 0.0
O370 O 0.86753 0.11799 0.6794 0.0
O371 O 0.71864 0.99476 0.67202 0.0
O372 O 0.74072 1.03476 0.68778 0.0
C373 C 0.79047 1.03819 0.64225 0.0
O374 O 0.87 1.05399 0.66647 0.0
O375 O 0.80485 1.00558 0.66811 0.0
C376 C 0.97026 0.16566 0.65154 0.0
C377 C 1.04925 0.18688 0.65509 0.0
C378 C 1.01964 0.15698 0.66245 0.0
C379 C 0.98037 0.14648 0.6607 0.0
C380 C 0.99961 0.1957 0.64429 0.0
C381 C 1.03882 0.20627 0.64605 0.0
C382 C 0.92909 0.15277 0.6489 0.0
C383 C 0.79388 0.12062 0.66034 0.0
C384 C 0.85278 0.09241 0.68869 0.0
C385 C 0.70901 0.96625 0.69177 0.0
C386 C 0.72377 0.90359 0.69346 0.0
C387 C 0.68707 0.89686 0.68916 0.0
C388 C 0.67971 0.92824 0.68829 0.0
C389 C 0.74133 0.97052 0.69874 0.0
C390 C 0.74898 0.93934 0.69945 0.0
C391 C 0.71453 0.99964 0.68393 0.0
H392 H 1.02686 0.14186 0.66957 0.0
H393 H 0.95786 0.12305 0.66634 0.0
H394 H 0.99214 0.21048 0.63712 0.0
H395 H 1.06091 0.22907 0.64013 0.0
H396 H 0.66655 0.86893 0.68485 0.0
H397 H 0.65423 0.92404 0.68308 0.0
H398 H 0.76393 0.99931 0.70187 0.0
H399 H 0.77712 0.94512 0.70307 0.0
Dy400 Dy 1.04103 0.79355 0.66014 0.0
Dy401 Dy 0.11208 0.77993 0.66998 0.0
C402 C 0.12547 0.86665 0.66541 0.0
O403 O 0.07977 0.803 0.64327 0.0
O404 O 0.11094 0.76901 0.64932 0.0
O405 O 1.01794 0.82182 0.64834 0.0
O406 O 0.97952 0.77651 0.66146 0.0
O407 O 1.05609 0.72221 0.67024 0.0
O408 O 1.02698 0.73393 0.65368 0.0
O409 O 0.09716 0.80828 0.6855 0.0
O410 O 1.03243 0.78019 0.68093 0.0
O411 O 0.16974 0.78595 0.66887 0.0
O412 O 0.13204 0.75618 0.68474 0.0
C413 C 0.10156 0.78682 0.64063 0.0
O414 O 0.08758 0.85295 0.66656 0.0
O415 O 0.1401 0.84304 0.66433 0.0
C416 C 0.96916 0.83066 0.65838 0.0
C417 C 0.94033 0.88063 0.66617 0.0
C418 C 0.98037 0.89621 0.66337 0.0
C419 C 0.99467 0.87152 0.65961 0.0
C420 C 0.92935 0.81478 0.66141 0.0
C421 C 0.91506 0.83949 0.66533 0.0
C422 C 0.98375 0.80457 0.65386 0.0
C423 C 1.03226 0.70941 0.66061 0.0
C424 C 1.06117 0.79626 0.68913 0.0
C425 C 0.19794 0.80442 0.68876 0.0
C426 C 0.25469 0.87793 0.69845 0.0
C427 C 0.26613 0.85542 0.69112 0.0
C428 C 0.23785 0.81895 0.68623 0.0
C429 C 0.18712 0.82508 0.6972 0.0
C430 C 0.21523 0.86168 0.70193 0.0
C431 C 0.16798 0.77436 0.68045 0.0
H432 H 1.00064 0.92771 0.6637 0.0
H433 H 1.02563 0.88465 0.65746 0.0
H434 H 0.90923 0.7833 0.66064 0.0
H435 H 0.88419 0.82636 0.66761 0.0
H436 H 0.29644 0.86755 0.68824 0.0
H437 H 0.24683 0.80377 0.67965 0.0
H438 H 0.15659 0.8146 0.69937 0.0
H439 H 0.2058 0.87844 0.70762 0.0
Dy440 Dy 0.35663 0.27374 0.65694 0.0
Dy441 Dy 0.36525 0.35176 0.67072 0.0
C442 C 0.28192 0.28474 0.66066 0.0
O443 O 0.35208 0.30975 0.64122 0.0
O444 O 0.38092 0.37086 0.65069 0.0
O445 O 0.33185 0.22492 0.64398 0.0
O446 O 0.38277 0.23677 0.65511 0.0
O447 O 0.41834 0.34648 0.6733 0.0
O448 O 0.41689 0.32417 0.65395 0.0
O449 O 0.32811 0.30056 0.68296 0.0
O450 O 0.35852 0.26602 0.67794 0.0
O451 O 0.37585 0.41166 0.67123 0.0
O452 O 0.36934 0.38013 0.68854 0.0
C453 C 0.36703 0.34839 0.64064 0.0
O454 O 0.2944 0.25899 0.66065 0.0
O455 O 0.306 0.32273 0.66219 0.0
C456 C 0.33683 0.17083 0.65079 0.0
C457 C 0.29432 0.08976 0.65608 0.0
C458 C 0.29208 0.11704 0.66416 0.0
C459 C 0.31315 0.1573 0.66152 0.0
C460 C 0.34065 0.14408 0.643 0.0
C461 C 0.31953 0.1037 0.64563 0.0
C462 C 0.35573 0.2125 0.64739 0.0
C463 C 0.43721 0.34747 0.66315 0.0
C464 C 0.33873 0.27487 0.68601 0.0
C465 C 0.33153 0.41071 0.68639 0.0
C466 C 0.25476 0.39248 0.69274 0.0
C467 C 0.26598 0.39509 0.68013 0.0
C468 C 0.30387 0.4041 0.67698 0.0
C469 C 0.32107 0.41037 0.69902 0.0
C470 C 0.28292 0.40153 0.70218 0.0
C471 C 0.36703 0.40883 0.68314 0.0
H472 H 0.2735 0.10717 0.67241 0.0
H473 H 0.31022 0.17782 0.66767 0.0
H474 H 0.35903 0.15431 0.6347 0.0
H475 H 0.32169 0.08332 0.63923 0.0
H476 H 0.24514 0.38938 0.67265 0.0
H477 H 0.31066 0.40371 0.66714 0.0
H478 H 0.3417 0.41477 0.70644 0.0
H479 H 0.27499 0.40012 0.71198 0.0
Dy480 Dy 0.86114 0.62452 0.51702 0.0
Dy481 Dy 0.85987 0.63126 0.48708 0.0
C482 C 0.87247 0.5602 0.50016 0.0
O483 O 0.92864 0.65956 0.51212 0.0
O484 O 0.92659 0.66938 0.49112 0.0
O485 O 0.84676 0.59453 0.53503 0.0
O486 O 0.88401 0.65803 0.53419 0.0
O487 O 0.83368 0.67113 0.49289 0.0
O488 O 0.82982 0.66153 0.51408 0.0
O489 O 0.80428 0.57269 0.49092 0.0
O490 O 0.79951 0.57198 0.5124 0.0
O491 O 0.82765 0.61797 0.46966 0.0
O492 O 0.89083 0.6527 0.46931 0.0
C493 C 0.94792 0.67472 0.50139 0.0
O494 O 0.87204 0.57433 0.51141 0.0
O495 O 0.86894 0.57777 0.48992 0.0
C496 C 0.8515 0.63096 0.5539 0.0
C497 C 0.83359 0.63694 0.57946 0.0
C498 C 0.81556 0.60024 0.57322 0.0
C499 C 0.8245 0.59727 0.56064 0.0
C500 C 0.86855 0.66781 0.56001 0.0
C501 C 0.85963 0.67079 0.57258 0.0
C502 C 0.86658 0.62705 0.54143 0.0
C503 C 0.82213 0.677 0.50404 0.0
C504 C 0.78483 0.55546 0.50132 0.0
C505 C 0.8563 0.66242 0.45244 0.0
C506 C 0.8477 0.70111 0.43109 0.0
C507 C 0.82255 0.69188 0.44153 0.0
C508 C 0.82678 0.67279 0.45208 0.0
C509 C 0.88197 0.67241 0.44218 0.0
C510 C 0.87783 0.69156 0.43166 0.0
C511 C 0.85868 0.63808 0.46274 0.0
H512 H 0.7949 0.57356 0.5781 0.0
H513 H 0.81118 0.56831 0.55634 0.0
H514 H 0.89009 0.6943 0.55523 0.0
H515 H 0.87451 0.69951 0.57704 0.0
H516 H 0.79875 0.69833 0.44144 0.0
H517 H 0.80635 0.66533 0.4598 0.0
H518 H 0.90486 0.66462 0.44218 0.0
H519 H 0.89825 0.69876 0.42394 0.0
Dy520 Dy 0.50597 0.26232 0.51817 0.0
Dy521 Dy 0.51073 0.25852 0.48822 0.0
C522 C 0.57585 0.34006 0.50336 0.0
O523 O 0.46988 0.29231 0.51211 0.0
O524 O 0.47205 0.28813 0.49079 0.0
O525 O 0.53141 0.28039 0.53663 0.0
O526 O 0.46821 0.24678 0.53456 0.0
O527 O 0.46758 0.19193 0.49329 0.0
O528 O 0.47166 0.19479 0.51464 0.0
O529 O 0.5675 0.2599 0.49413 0.0
O530 O 0.55845 0.2522 0.51547 0.0
O531 O 0.52465 0.23559 0.4717 0.0
O532 O 0.49895 0.27273 0.46952 0.0
C533 C 0.46057 0.30008 0.50088 0.0
O534 O 0.55549 0.32414 0.51373 0.0
O535 O 0.56448 0.32015 0.49258 0.0
C536 C 0.49436 0.24316 0.55449 0.0
C537 C 0.49066 0.214 0.57916 0.0
C538 C 0.52337 0.22406 0.57138 0.0
C539 C 0.52523 0.23851 0.5592 0.0
C540 C 0.46136 0.23232 0.56213 0.0
C541 C 0.45946 0.21785 0.57429 0.0
C542 C 0.49761 0.26326 0.54237 0.0
C543 C 0.45872 0.17303 0.50428 0.0
C544 C 0.57955 0.25542 0.5053 0.0
C545 C 0.48866 0.2271 0.45291 0.0
C546 C 0.45031 0.18006 0.43146 0.0
C547 C 0.43693 0.16586 0.44371 0.0
C548 C 0.456 0.18906 0.45432 0.0
C549 C 0.50164 0.24152 0.44076 0.0
C550 C 0.4828 0.21839 0.43018 0.0
C551 C 0.51138 0.25152 0.46382 0.0
H552 H 0.54817 0.22194 0.57482 0.0
H553 H 0.5513 0.24697 0.55362 0.0
H554 H 0.43731 0.23595 0.55879 0.0
H555 H 0.43355 0.20985 0.57989 0.0
H556 H 0.41222 0.13645 0.44511 0.0
H557 H 0.44559 0.1771 0.4636 0.0
H558 H 0.52683 0.2707 0.43942 0.0
H559 H 0.49364 0.23073 0.42097 0.0
Dy560 Dy 0.87006 0.27129 0.51804 0.0
Dy561 Dy 0.87818 0.27821 0.48812 0.0
C562 C 0.79527 0.26412 0.50163 0.0
O563 O 0.83863 0.20465 0.5124 0.0
O564 O 0.84817 0.20985 0.49121 0.0
O565 O 0.85173 0.28162 0.53619 0.0
O566 O 0.88245 0.24863 0.5349 0.0
O567 O 0.94366 0.3019 0.49377 0.0
O568 O 0.9381 0.30258 0.51506 0.0
O569 O 0.87637 0.33446 0.49333 0.0
O570 O 0.88236 0.33435 0.51474 0.0
O571 O 0.89956 0.31401 0.47139 0.0
O572 O 0.86709 0.25051 0.46965 0.0
C573 C 0.83332 0.18691 0.50134 0.0
O574 O 0.80938 0.26199 0.51272 0.0
O575 O 0.81656 0.26973 0.49131 0.0
C576 C 0.88715 0.28148 0.55442 0.0
C577 C 0.91901 0.30622 0.57886 0.0
C578 C 0.88395 0.30513 0.57536 0.0
C579 C 0.86822 0.29282 0.56332 0.0
C580 C 0.92264 0.28334 0.55778 0.0
C581 C 0.93839 0.29561 0.56984 0.0
C582 C 0.86712 0.26386 0.54235 0.0
C583 C 0.96109 0.31152 0.50494 0.0
C584 C 0.88014 0.3518 0.50434 0.0
C585 C 0.91031 0.28709 0.45264 0.0
C586 C 0.95265 0.30035 0.42981 0.0
C587 C 0.97217 0.31919 0.44099 0.0
C588 C 0.9512 0.31278 0.45228 0.0
C589 C 0.8912 0.26704 0.44163 0.0
C590 C 0.91201 0.27353 0.43038 0.0
C591 C 0.88608 0.28409 0.46376 0.0
H592 H 0.86849 0.31367 0.58193 0.0
H593 H 0.84063 0.29133 0.56106 0.0
H594 H 0.93782 0.2744 0.55122 0.0
H595 H 0.96521 0.29564 0.5722 0.0
H596 H 1.00337 0.34013 0.44092 0.0
H597 H 0.96676 0.32884 0.46061 0.0
H598 H 0.85972 0.24723 0.44162 0.0
H599 H 0.89606 0.25791 0.42205 0.0
Dy600 Dy 1.03936 0.42502 0.66611 0.0
Dy601 Dy 0.96535 0.35473 0.68153 0.0
C602 C 1.04898 0.36014 0.68106 0.0
O603 O 1.00933 0.37198 0.65382 0.0
O604 O 0.94834 0.35125 0.66126 0.0
O605 O 0.08281 0.48567 0.66247 0.0
O606 O 1.07904 0.4395 0.65035 0.0
O607 O 0.95472 0.40568 0.68073 0.0
O608 O 0.98913 0.43538 0.66286 0.0
O609 O 1.00673 0.39141 0.69683 0.0
O610 O 1.04483 0.44869 0.68566 0.0
O611 O 0.9238 0.33252 0.69679 0.0
O612 O 0.9192 0.29347 0.68162 0.0
C613 C 0.97147 0.354 0.65199 0.0
O614 O 1.06535 0.39724 0.67769 0.0
O615 O 1.01086 0.3359 0.68052 0.0
C616 C 0.08613 0.49736 0.64111 0.0
C617 C 1.06146 0.5464 0.63032 0.0
C618 C 0.10127 0.5615 0.63325 0.0
C619 C 0.11354 0.53704 0.63877 0.0
C620 C 1.04804 0.48102 0.63616 0.0
C621 C 1.03568 0.50554 0.63081 0.0
C622 C 0.09251 0.47729 0.65168 0.0
C623 C 0.96317 0.43066 0.67143 0.0
C624 C 1.03288 0.4294 0.69639 0.0
C625 C 0.86053 0.28751 0.68945 0.0
C626 C 0.78159 0.26624 0.6852 0.0
C627 C 0.81165 0.30566 0.68383 0.0
C628 C 0.85075 0.31615 0.68586 0.0
C629 C 0.83072 0.24811 0.69077 0.0
C630 C 0.79153 0.23751 0.68865 0.0
C631 C 0.90187 0.29859 0.69131 0.0
H632 H 0.12147 0.59307 0.63305 0.0
H633 H 0.14293 0.55013 0.64259 0.0
H634 H 1.02636 0.45041 0.63792 0.0
H635 H 1.0048 0.49347 0.62873 0.0
H636 H 0.80498 0.32832 0.68101 0.0
H637 H 0.87339 0.34667 0.68457 0.0
H638 H 0.83777 0.22557 0.69342 0.0
H639 H 0.76896 0.20693 0.68986 0.0
Dy640 Dy 0.71948 0.67167 0.66361 0.0
Dy641 Dy 0.79018 0.6709 0.67921 0.0
C642 C 0.78461 0.74982 0.67725 0.0
O643 O 0.77562 0.70097 0.65297 0.0
O644 O 0.792 0.6563 0.65879 0.0
O645 O 0.66734 0.67617 0.66088 0.0
O646 O 0.70079 0.67519 0.64492 0.0
O647 O 0.74151 0.60867 0.67946 0.0
O648 O 0.70541 0.60859 0.66252 0.0
O649 O 0.75194 0.67524 0.69422 0.0
O650 O 0.69453 0.6515 0.68295 0.0
O651 O 0.81487 0.65577 0.69484 0.0
O652 O 0.85101 0.68537 0.67864 0.0
C653 C 0.79167 0.6798 0.65012 0.0
O654 O 0.74843 0.72885 0.67326 0.0
O655 O 0.80811 0.73521 0.67874 0.0
C656 C 0.632 0.63963 0.64316 0.0
C657 C 0.56959 0.56358 0.63888 0.0
C658 C 0.56456 0.58935 0.64685 0.0
C659 C 0.59563 0.62735 0.64895 0.0
C660 C 0.63469 0.616 0.63365 0.0
C661 C 0.60356 0.57799 0.63156 0.0
C662 C 0.66786 0.67217 0.64873 0.0
C663 C 0.7134 0.5898 0.67123 0.0
C664 C 0.71359 0.66084 0.69374 0.0
C665 C 0.85914 0.63508 0.68798 0.0
C666 C 0.88041 0.57633 0.68521 0.0
C667 C 0.84366 0.56682 0.69021 0.0
C668 C 0.83303 0.59579 0.69152 0.0
C669 C 0.89595 0.64466 0.68301 0.0
C670 C 0.90643 0.61548 0.68156 0.0
C671 C 0.84753 0.66562 0.68889 0.0
H672 H 0.53815 0.5787 0.65245 0.0
H673 H 0.59247 0.64542 0.65606 0.0
H674 H 0.66205 0.62511 0.62874 0.0
H675 H 0.60781 0.55854 0.62531 0.0
H676 H 0.8229 0.53679 0.69298 0.0
H677 H 0.80419 0.58723 0.69523 0.0
H678 H 0.9165 0.67468 0.68016 0.0
H679 H 0.93505 0.62363 0.67777 0.0
Dy680 Dy 0.46479 0.0941 0.67033 0.0
Dy681 Dy 0.47729 0.17711 0.68206 0.0
C682 C 0.39657 0.09813 0.68353 0.0
O683 O 0.48757 0.13831 0.6549 0.0
O684 O 0.45882 0.17264 0.66187 0.0
O685 O 0.4608 1.03702 0.67151 0.0
O686 O 0.44764 0.05592 0.65403 0.0
O687 O 0.53696 0.1923 0.67492 0.0
O688 O 0.52908 0.12982 0.67332 0.0
O689 O 0.49202 0.15012 0.69823 0.0
O690 O 0.46807 0.08631 0.69109 0.0
O691 O 0.50776 0.23129 0.69259 0.0
O692 O 0.45341 0.21642 0.68306 0.0
C693 C 0.47357 0.16181 0.65266 0.0
O694 O 0.40697 0.09098 0.67263 0.0
O695 O 0.42235 0.12759 0.6903 0.0
C696 C 0.49056 1.02981 0.65356 0.0
C697 C 0.56842 1.04621 0.65165 0.0
C698 C 0.54017 1.01178 0.65776 0.0
C699 C 0.50136 1.0035 0.65865 0.0
C700 C 0.51755 0.06095 0.64588 0.0
C701 C 0.55627 0.06899 0.6449 0.0
C702 C 0.45779 1.03229 0.65937 0.0
C703 C 0.5514 0.1684 0.67371 0.0
C704 C 0.48305 0.11314 0.70005 0.0
C705 C 0.50296 0.28354 0.68376 0.0
C706 C 0.54997 0.36169 0.67524 0.0
C707 C 0.53178 0.35397 0.68709 0.0
C708 C 0.5085 0.31522 0.69131 0.0
C709 C 0.5192 0.29091 0.67164 0.0
C710 C 0.5424 0.32978 0.66737 0.0
C711 C 0.48385 0.24355 0.68909 0.0
H712 H 0.54894 0.99351 0.6629 0.0
H713 H 0.48113 0.97934 0.66459 0.0
H714 H 0.51017 0.08182 0.6418 0.0
H715 H 0.57754 0.09562 0.64011 0.0
H716 H 0.53658 0.37802 0.69327 0.0
H717 H 0.49609 0.31004 0.70067 0.0
H718 H 0.51525 0.26667 0.66569 0.0
H719 H 0.55608 0.33489 0.65821 0.0
Dy720 Dy 0.63098 0.14432 0.18676 0.0
Dy721 Dy 0.62423 0.14124 0.1567 0.0
C722 C 0.66399 0.09193 0.17118 0.0
O723 O 0.68772 0.20087 0.18064 0.0
O724 O 0.68668 0.19232 0.15928 0.0
O725 O 0.66662 0.15306 0.20321 0.0
O726 O 0.60602 0.13768 0.20548 0.0
O727 O 0.6152 0.19407 0.16162 0.0
O728 O 0.62489 0.19827 0.18296 0.0
O729 O 0.55806 0.10523 0.16247 0.0
O730 O 0.563 0.10547 0.18381 0.0
O731 O 0.6293 0.16765 0.13838 0.0
O732 O 0.60541 0.10451 0.14003 0.0
C733 C 0.70453 0.21308 0.16945 0.0
O734 O 0.65116 0.09956 0.18178 0.0
O735 O 0.65799 0.1063 0.16054 0.0
C736 C 0.63663 0.12413 0.22281 0.0
C737 C 0.63927 0.08896 0.24594 0.0
C738 C 0.64125 0.0725 0.23433 0.0
C739 C 0.64004 0.08996 0.22289 0.0
C740 C 0.63423 0.14026 0.23431 0.0
C741 C 0.63565 0.1231 0.24568 0.0
C742 C 0.63857 0.14572 0.21113 0.0
C743 C 0.61845 0.21234 0.17249 0.0
C744 C 0.54029 0.09506 0.17358 0.0
C745 C 0.6303 0.13366 0.11986 0.0
C746 C 0.65615 0.13095 0.09516 0.0
C747 C 0.62844 0.14311 0.0973 0.0
C748 C 0.61577 0.14447 0.10948 0.0
C749 C 0.65805 0.12155 0.11785 0.0
C750 C 0.67091 0.1203 0.10562 0.0
C751 C 0.61452 0.1341 0.13245 0.0
H752 H 0.64361 1.04605 0.23406 0.0
H753 H 0.64222 0.07707 0.21413 0.0
H754 H 0.63215 0.16691 0.23451 0.0
H755 H 0.63491 0.13738 0.2543 0.0
H756 H 0.61686 0.15215 0.08956 0.0
H757 H 0.59429 0.15387 0.1108 0.0
H758 H 0.66957 0.11287 0.1257 0.0
H759 H 0.69203 0.11045 0.10436 0.0
Dy760 Dy 0.98245 0.5111 0.1837 0.0
Dy761 Dy 0.97855 0.50555 0.15383 0.0
C762 C 1.02943 0.59613 0.16744 0.0
O763 O 0.92576 0.51353 0.17913 0.0
O764 O 0.92986 0.51921 0.15765 0.0
O765 O 0.95986 0.51405 0.20205 0.0
O766 O 1.01548 0.51589 0.20051 0.0
O767 O 0.92668 0.44454 0.15948 0.0
O768 O 0.93157 0.44837 0.18098 0.0
O769 O 1.01467 0.47523 0.15828 0.0
O770 O 1.01786 0.47799 0.17958 0.0
O771 O 0.94917 0.49009 0.1358 0.0
O772 O 1.01222 0.51518 0.13679 0.0
C773 C 0.91139 0.51741 0.16822 0.0
O774 O 1.02053 0.57788 0.1785 0.0
O775 O 1.01667 0.57372 0.15713 0.0
C776 C 1.00621 0.54583 0.21885 0.0
C777 C 1.03177 0.58968 0.24161 0.0
C778 C 1.05378 0.57445 0.23591 0.0
C779 C 1.04113 0.55278 0.22473 0.0
C780 C 0.9846 0.5618 0.22436 0.0
C781 C 0.99727 0.58353 0.23556 0.0
C782 C 0.99043 0.51791 0.20805 0.0
C783 C 0.91323 0.42865 0.1707 0.0
C784 C 1.0267 0.46665 0.16882 0.0
C785 C 0.98597 0.51922 0.1171 0.0
C786 C 0.99462 0.55109 0.09269 0.0
C787 C 0.99902 0.51798 0.09485 0.0
C788 C 0.99473 0.5023 0.1069 0.0
C789 C 0.98168 0.5524 0.11512 0.0
C790 C 0.98604 0.56826 0.103 0.0
C791 C 0.98148 0.501 0.12955 0.0
H792 H 0.08011 0.57791 0.24033 0.0
H793 H 1.05811 0.54027 0.2209 0.0
H794 H 0.95732 0.55669 0.2202 0.0
H795 H 0.97974 0.59514 0.23956 0.0
H796 H 1.00637 0.50442 0.08724 0.0
H797 H 0.99833 0.47678 0.10825 0.0
H798 H 0.97492 0.56589 0.12289 0.0
H799 H 0.98222 0.59363 0.10167 0.0
Dy800 Dy 0.61341 0.49705 0.18367 0.0
Dy801 Dy 0.62001 0.49918 0.15369 0.0
C802 C 0.52979 0.46097 0.16722 0.0
O803 O 0.61445 0.43949 0.1788 0.0
O804 O 0.60671 0.43658 0.15741 0.0
O805 O 0.58509 0.46373 0.20041 0.0
O806 O 0.63126 0.52455 0.20209 0.0
O807 O 0.68097 0.50927 0.1595 0.0
O808 O 0.67359 0.50251 0.1809 0.0
O809 O 0.64979 0.56555 0.15858 0.0
O810 O 0.6422 0.56551 0.17979 0.0
O811 O 0.6409 0.49009 0.13581 0.0
O812 O 0.60573 0.51867 0.13649 0.0
C813 C 0.60967 0.42052 0.16797 0.0
O814 O 0.54804 0.47381 0.17817 0.0
O815 O 0.55202 0.46719 0.15703 0.0
C816 C 0.58577 0.49737 0.21922 0.0
C817 C 0.54806 0.49934 0.2418 0.0
C818 C 0.52767 0.48926 0.23027 0.0
C819 C 0.54632 0.48822 0.21909 0.0
C820 C 0.60619 0.50788 0.23063 0.0
C821 C 0.58767 0.50875 0.24174 0.0
C822 C 0.60571 0.49293 0.20802 0.0
C823 C 0.69495 0.5076 0.17069 0.0
C824 C 0.65591 0.58594 0.16912 0.0
C825 C 0.60953 0.49144 0.11673 0.0
C826 C 0.58263 0.46784 0.09181 0.0
C827 C 0.62284 0.4922 0.09435 0.0
C828 C 0.63606 0.50377 0.10665 0.0
C829 C 0.56933 0.4669 0.11432 0.0
C830 C 0.55602 0.45511 0.10198 0.0
C831 C 0.62497 0.50684 0.12939 0.0
H832 H 0.49733 0.48221 0.22986 0.0
H833 H 0.52979 0.47976 0.21042 0.0
H834 H 0.63643 0.51448 0.23101 0.0
H835 H 0.60431 0.51581 0.25038 0.0
H836 H 0.64424 0.50208 0.08684 0.0
H837 H 0.66721 0.52284 0.10829 0.0
H838 H 0.54827 0.45723 0.12194 0.0
H839 H 0.52481 0.43657 0.10038 0.0
Dy840 Dy 0.53154 0.4424 0.98824 0.0
Dy841 Dy 0.45468 0.37509 0.00333 0.0
C842 C 0.5249 0.3593 0.99607 0.0
O843 O 0.49656 0.39733 0.97333 0.0
O844 O 0.43631 0.36632 0.98313 0.0
O845 O 0.57973 0.4628 0.97517 0.0
O846 O 0.5698 0.50503 0.98546 0.0
O847 O 0.46106 0.43478 0.00334 0.0
O848 O 0.48066 0.45096 0.98369 0.0
O849 O 0.50424 0.3941 0.01658 0.0
O850 O 0.53923 0.45689 0.00905 0.0
O851 O 0.39818 0.32213 0.00466 0.0
O852 O 0.42093 0.362 0.02049 0.0
C853 C 0.4583 0.37277 0.97309 0.0
O854 O 0.54812 0.39748 0.99412 0.0
O855 O 0.48708 0.34374 0.99827 0.0
C856 C 0.63571 0.52155 0.98141 0.0
C857 C 0.71559 0.55496 0.98774 0.0
C858 C 0.6885 0.55341 0.99666 0.0
C859 C 0.64875 0.53652 0.99355 0.0
C860 C 0.66309 0.52483 0.97237 0.0
C861 C 0.70264 0.54123 0.97551 0.0
C862 C 0.59366 0.49978 0.97821 0.0
C863 C 0.45686 0.44827 0.99266 0.0
C864 C 0.53001 0.43137 0.01832 0.0
C865 C 0.39264 0.29385 0.02411 0.0
C866 C 0.39635 0.22461 0.02687 0.0
C867 C 0.35983 0.22259 0.02518 0.0
C868 C 0.35808 0.25718 0.02364 0.0
C869 C 0.42767 0.29586 0.02803 0.0
C870 C 0.42959 0.26146 0.02935 0.0
C871 C 0.39541 0.32658 0.01668 0.0
H872 H 0.69778 0.56374 0.00616 0.0
H873 H 0.62817 0.53418 1.00074 0.0
H874 H 0.65367 0.51357 0.96296 0.0
H875 H 0.72306 0.54259 0.96842 0.0
H876 H 0.33342 0.19446 0.02366 0.0
H877 H 0.33077 0.25512 0.02065 0.0
H878 H 0.45477 0.32389 0.02845 0.0
H879 H 0.45821 0.26437 0.03073 0.0
Dy880 Dy 0.69333 0.1143 0.99213 0.0
Dy881 Dy 0.75977 0.10234 0.0069 0.0
C882 C 0.77586 0.18826 0.99951 0.0
O883 O 0.73741 0.12205 0.97719 0.0
O884 O 0.76801 0.09153 0.98669 0.0
O885 O 0.67448 0.14363 0.97909 0.0
O886 O 0.63128 0.09285 0.98951 0.0
O887 O 0.70437 1.0446 0.0059 0.0
O888 O 0.68426 1.05482 0.98706 0.0
O889 O 0.73745 0.13044 0.02029 0.0
O890 O 0.67569 0.10162 0.0125 0.0
O891 O 0.81652 0.10642 0.00852 0.0
O892 O 0.77553 0.08381 0.02402 0.0
C893 C 0.76125 0.10732 0.97672 0.0
O894 O 0.73795 0.17512 0.99852 0.0
O895 O 0.79003 0.16439 1.00064 0.0
C896 C 0.61772 0.14424 0.98564 0.0
C897 C 0.58215 0.18989 0.99111 0.0
C898 C 0.61736 0.19796 0.99703 0.0
C899 C 0.63492 0.17527 0.99435 0.0
C900 C 0.58198 0.1352 0.98002 0.0
C901 C 0.56424 0.15778 0.98275 0.0
C902 C 0.63757 0.12214 0.98216 0.0
C903 C 0.68668 1.03093 0.99516 0.0
C904 C 0.7 0.11728 0.02198 0.0
C905 C 0.84097 0.13276 0.02828 0.0
C906 C 0.89859 0.20817 0.03659 0.0
C907 C 0.85867 0.19612 0.03784 0.0
C908 C 0.83019 0.1588 0.03373 0.0
C909 C 0.88071 0.14353 0.02792 0.0
C910 C 0.90935 0.18092 0.0321 0.0
C911 C 0.81221 0.09966 0.02056 0.0
H912 H 0.63151 0.22206 0.00367 0.0
H913 H 0.66232 0.18238 0.9989 0.0
H914 H 0.56821 0.1112 0.97332 0.0
H915 H 0.53724 0.15094 0.97799 0.0
H916 H 0.84954 0.21635 0.04134 0.0
H917 H 0.79986 0.15154 0.034 0.0
H918 H 0.88976 0.12425 0.02357 0.0
H919 H 0.93997 0.18955 0.0309 0.0
Dy920 Dy 1.01494 0.59843 0.99029 0.0
Dy921 Dy 1.02137 0.67688 1.00305 0.0
C922 C 0.93645 0.60341 0.99683 0.0
O923 O 1.02822 0.64314 0.97498 0.0
O924 O 0.99764 0.67406 0.9838 0.0
O925 O 1.00066 0.55942 0.9744 0.0
O926 O 1.02625 0.54973 0.99105 0.0
O927 O 1.07694 0.69199 0.99351 0.0
O928 O 1.07656 0.63495 0.99741 0.0
O929 O 1.03367 0.64316 0.01758 0.0
O930 O 0.99237 0.58205 0.00991 0.0
O931 O 1.04151 0.73946 1.00266 0.0
O932 O 1.02069 0.7066 0.01999 0.0
C933 C 1.01067 0.66428 0.97385 0.0
O934 O 0.95294 0.58632 0.99059 0.0
O935 O 0.95685 0.63605 0.00332 0.0
C936 C 0.97598 0.4943 0.98113 0.0
C937 C 0.91464 0.41616 0.98404 0.0
C938 C 0.90898 0.44782 0.98725 0.0
C939 C 0.93949 0.48657 0.98586 0.0
C940 C 0.98167 0.46293 0.9777 0.0
C941 C 0.95116 0.42403 0.97914 0.0
C942 C 1.00836 0.53506 0.98045 0.0
C943 C 0.0958 0.67319 0.99588 0.0
C944 C 1.01049 0.60525 0.01945 0.0
C945 C 1.00217 0.75392 0.01608 0.0
C946 C 0.93404 0.75949 0.01856 0.0
C947 C 0.95409 0.76819 0.00704 0.0
C948 C 0.98789 0.76543 0.0058 0.0
C949 C 0.98464 0.74957 0.02791 0.0
C950 C 0.95058 0.75203 0.02913 0.0
C951 C 1.02993 0.73944 0.01415 0.0
H952 H 0.88141 0.44265 0.99121 0.0
H953 H 0.93484 0.51053 0.98872 0.0
H954 H 1.00978 0.46849 0.97409 0.0
H955 H 0.95618 0.40011 0.97651 0.0
H956 H 0.94193 0.77387 0.99871 0.0
H957 H 1.00091 0.76937 0.99658 0.0
H958 H 0.99547 0.74117 0.03602 0.0
H959 H 0.93592 0.74581 0.03815 0.0
Dy960 Dy 0.5281 0.95548 0.85161 0.0
Dy961 Dy 0.53367 0.96611 0.82181 0.0
C962 C 0.54252 0.89285 0.83453 0.0
O963 O 0.59527 0.99827 0.84866 0.0
O964 O 0.60014 0.99726 0.82737 0.0
O965 O 0.49348 0.93802 0.86859 0.0
O966 O 0.5561 0.96147 0.86974 0.0
O967 O 0.50203 1.00144 0.82735 0.0
O968 O 0.50379 0.99859 0.8487 0.0
O969 O 0.47203 0.91232 0.82395 0.0
O970 O 0.47182 0.90006 0.84503 0.0
O971 O 0.51996 0.9468 0.80246 0.0
O972 O 0.56124 1.00801 0.80667 0.0
C973 C 0.61799 1.00811 0.83846 0.0
O974 O 0.53735 0.90417 0.84576 0.0
O975 O 0.54345 0.91312 0.82438 0.0
C976 C 0.52353 0.96514 0.88846 0.0
C977 C 0.51734 0.9826 0.91398 0.0
C978 C 0.55079 0.98183 0.90964 0.0
C979 C 0.55372 0.97298 0.89706 0.0
C980 C 0.49103 0.96793 0.89265 0.0
C981 C 0.48802 0.97659 0.90523 0.0
C982 C 0.52335 0.948 0.87597 0.0
C983 C 0.49343 1.01088 0.83846 0.0
C984 C 0.45471 0.88965 0.83387 0.0
C985 C 0.52824 0.99529 0.78694 0.0
C986 C 0.50716 1.01833 0.76423 0.0
C987 C 0.54392 1.04255 0.76987 0.0
C988 C 0.55429 1.03114 0.78103 0.0
C989 C 0.4911 0.97134 0.78151 0.0
C990 C 0.48068 0.98277 0.77031 0.0
C991 C 0.54225 0.98213 0.7979 0.0
H992 H 0.57381 0.98605 0.91611 0.0
H993 H 0.57885 0.97048 0.89418 0.0
H994 H 0.46707 0.96186 0.88635 0.0
H995 H 0.46215 0.97761 0.90818 0.0
H996 H 0.56541 0.06977 0.76542 0.0
H997 H 0.58334 1.04994 0.78486 0.0
H998 H 0.47035 0.94341 0.78576 0.0
H999 H 0.45193 0.96353 0.76636 0.0
Dy1000 Dy 0.1792 0.5963 0.85216 0.0
Dy1001 Dy 0.17679 0.59321 0.8222 0.0
C1002 C 0.24575 0.67445 0.83677 0.0
O1003 O 0.14378 0.6288 0.84739 0.0
O1004 O 0.13724 0.62038 0.8262 0.0
O1005 O 0.20721 0.60773 0.87051 0.0
O1006 O 0.14489 0.58639 0.869 0.0
O1007 O 0.13581 0.52616 0.82726 0.0
O1008 O 0.14219 0.52885 0.84856 0.0
O1009 O 0.23422 0.59488 0.82624 0.0
O1010 O 0.23247 0.58762 0.84763 0.0
O1011 O 0.18808 0.57191 0.80489 0.0
O1012 O 0.16127 0.60848 0.80426 0.0
C1013 C 0.12995 0.63441 0.83661 0.0
O1014 O 0.22835 0.65789 0.84749 0.0
O1015 O 0.23117 0.65524 0.82599 0.0
C1016 C 0.16755 0.57533 0.88868 0.0
C1017 C 0.15125 0.5429 0.91333 0.0
C1018 C 0.18772 0.5762 0.9104 0.0
C1019 C 0.19567 0.5922 0.89827 0.0
C1020 C 0.13149 0.54137 0.89145 0.0
C1021 C 0.1235 0.52533 0.90361 0.0
C1022 C 0.17452 0.59675 0.87656 0.0
C1023 C 0.12806 0.50716 0.83822 0.0
C1024 C 0.25011 0.59078 0.83664 0.0
C1025 C 0.14695 0.56297 0.7873 0.0
C1026 C 0.10705 0.5196 0.76549 0.0
C1027 C 0.11344 0.50076 0.77575 0.0
C1028 C 0.13312 0.52214 0.78652 0.0
C1029 C 0.13965 0.58159 0.77723 0.0
C1030 C 0.11988 0.56023 0.76649 0.0
C1031 C 0.1723 0.58735 0.7978 0.0
H1032 H 0.21015 0.59019 0.91753 0.0
H1033 H 0.22355 0.61861 0.89646 0.0
H1034 H 0.10894 0.52783 0.88434 0.0
H1035 H 0.09497 0.49991 0.90547 0.0
H1036 H 0.10441 0.46967 0.77533 0.0
H1037 H 0.13841 0.50687 0.79408 0.0
H1038 H 0.15011 0.61303 0.77755 0.0
H1039 H 0.11492 0.5757 0.75892 0.0
Dy1040 Dy 0.54508 0.6042 0.85051 0.0
Dy1041 Dy 0.54209 0.60921 0.82051 0.0
C1042 C 0.46427 0.59475 0.83688 0.0
O1043 O 0.51626 0.53739 0.84513 0.0
O1044 O 0.50694 0.54131 0.8242 0.0
O1045 O 0.52537 0.60967 0.8689 0.0
O1046 O 0.56617 0.58795 0.86713 0.0
O1047 O 0.60903 0.63534 0.82453 0.0
O1048 O 0.61221 0.63655 0.84592 0.0
O1049 O 0.54729 0.66834 0.82601 0.0
O1050 O 0.55425 0.66659 0.84741 0.0
O1051 O 0.54286 0.63618 0.8025 0.0
O1052 O 0.54338 0.58129 0.80312 0.0
C1053 C 0.50127 0.51899 0.83431 0.0
O1054 O 0.48285 0.59286 0.84702 0.0
O1055 O 0.48115 0.60039 0.82567 0.0
C1056 C 0.56353 0.61548 0.88708 0.0
C1057 C 0.5857 0.64208 0.91214 0.0
C1058 C 0.57462 0.66271 0.90376 0.0
C1059 C 0.56364 0.64957 0.89139 0.0
C1060 C 0.57548 0.59543 0.89532 0.0
C1061 C 0.58651 0.60856 0.90768 0.0
C1062 C 0.54616 0.59726 0.8748 0.0
C1063 C 0.63085 0.64528 0.83493 0.0
C1064 C 0.55167 0.68484 0.8372 0.0
C1065 C 0.57244 0.62175 0.78503 0.0
C1066 C 0.61883 0.63819 0.76284 0.0
C1067 C 0.62949 0.62677 0.77407 0.0
C1068 C 0.60661 0.61864 0.78501 0.0
C1069 C 0.56223 0.63396 0.77396 0.0
C1070 C 0.58505 0.64211 0.76304 0.0
C1071 C 0.54518 0.6092 0.79599 0.0
H1072 H 0.5732 0.68839 0.90685 0.0
H1073 H 0.55414 0.66548 0.88534 0.0
H1074 H 0.57525 0.56881 0.89229 0.0
H1075 H 0.59549 0.59228 0.91375 0.0
H1076 H 0.65496 0.62299 0.77435 0.0
H1077 H 0.61521 0.6091 0.79337 0.0
H1078 H 0.53601 0.63649 0.77368 0.0
H1079 H 0.57611 0.65151 0.75473 0.0
Dy1080 Dy 0.70675 0.74101 1.00063 0.0
Dy1081 Dy 0.62943 0.67189 0.01604 0.0
C1082 C 0.70528 0.66817 0.01156 0.0
O1083 O 0.65696 0.71947 0.98734 0.0
O1084 O 0.62358 0.65701 0.99527 0.0
O1085 O 0.76037 0.79701 0.99896 0.0
O1086 O 0.74265 0.75412 0.98394 0.0
O1087 O 0.61165 0.71583 0.01032 0.0
O1088 O 0.67118 0.76949 0.00433 0.0
O1089 O 0.66444 0.7179 0.03069 0.0
O1090 O 0.72474 0.75012 0.02089 0.0
O1091 O 0.58699 0.6507 0.03103 0.0
O1092 O 0.58404 0.61017 0.01664 0.0
C1093 C 0.63196 0.68186 0.98584 0.0
O1094 O 0.70085 0.68156 1.00087 0.0
O1095 O 0.68009 0.66284 0.0204 0.0
C1096 C 0.76335 0.8205 0.97871 0.0
C1097 C 0.74582 0.87871 0.97116 0.0
C1098 C 0.71997 0.83905 0.96827 0.0
C1099 C 0.72881 0.81011 0.97194 0.0
C1100 C 0.79129 0.86058 0.98022 0.0
C1101 C 0.78253 0.88962 0.97646 0.0
C1102 C 0.7644 0.79118 0.98713 0.0
C1103 C 0.63371 0.75312 0.00707 0.0
C1104 C 0.70259 0.74296 0.03094 0.0
C1105 C 0.52428 0.60405 0.0237 0.0
C1106 C 0.44492 0.58167 0.01974 0.0
C1107 C 0.47425 0.6216 0.01922 0.0
C1108 C 0.51352 0.63266 0.02109 0.0
C1109 C 0.49521 0.56404 0.024 0.0
C1110 C 0.45578 0.55289 0.02198 0.0
C1111 C 0.56579 0.61607 0.02589 0.0
H1112 H 0.69129 0.83012 0.96435 0.0
H1113 H 0.70664 0.77947 0.97069 0.0
H1114 H 0.81787 0.86924 0.98553 0.0
H1115 H 0.80254 0.92015 0.97893 0.0
H1116 H 0.46682 0.64434 0.01731 0.0
H1117 H 0.53546 0.6637 0.02059 0.0
H1118 H 0.50297 0.54152 0.02586 0.0
H1119 H 0.4337 0.52189 0.02246 0.0
Dy1120 Dy 0.38851 0.99498 1.00195 0.0
Dy1121 Dy 0.46153 0.99054 0.01452 0.0
C1122 C 0.46324 0.06992 0.00905 0.0
O1123 O 0.40931 0.96982 0.98715 0.0
O1124 O 0.473 0.99651 0.99356 0.0
O1125 O 0.34992 1.01981 1.00176 0.0
O1126 O 0.34644 0.98012 0.98702 0.0
O1127 O 0.41769 0.92872 0.00877 0.0
O1128 O 0.36312 0.93526 0.01062 0.0
O1129 O 0.42072 0.98092 0.03078 0.0
O1130 O 0.38519 1.00707 0.02219 0.0
O1131 O 0.48523 0.96896 0.02861 0.0
O1132 O 0.524 1.01217 0.01502 0.0
C1133 C 0.44596 0.98047 0.98478 0.0
O1134 O 0.44437 1.05075 0.99901 0.0
O1135 O 0.46974 1.05047 0.0178 0.0
C1136 C 0.28824 0.9646 0.99702 0.0
C1137 C 0.23383 0.88652 0.00348 0.0
C1138 C 0.255 0.91396 0.0129 0.0
C1139 C 0.28194 0.95285 0.0097 0.0
C1140 C 0.26288 0.93865 0.98787 0.0
C1141 C 0.23594 0.8997 0.99107 0.0
C1142 C 0.32789 0.99478 0.99314 0.0
C1143 C 0.37952 0.91309 0.01018 0.0
C1144 C 0.39559 0.9938 0.03191 0.0
C1145 C 0.53755 0.96257 0.02152 0.0
C1146 C 0.5581 0.90374 0.01891 0.0
C1147 C 0.53869 0.9111 0.00913 0.0
C1148 C 0.52824 0.9402 0.01046 0.0
C1149 C 0.5585 0.95659 0.03105 0.0
C1150 C 0.56873 0.92732 0.02976 0.0
C1151 C 0.52054 0.98771 0.02394 0.0
H1152 H 0.25355 0.90461 0.02255 0.0
H1153 H 0.30102 0.97214 0.01701 0.0
H1154 H 0.26723 0.94696 0.97805 0.0
H1155 H 0.21889 0.87917 0.9837 0.0
H1156 H 0.53005 0.89319 1.0007 0.0
H1157 H 0.51147 0.94411 1.0031 0.0
H1158 H 0.56554 0.97346 0.03968 0.0
H1159 H 0.58424 0.92256 0.03735 0.0
Dy1160 Dy 0.12999 0.4219 1.00027 0.0
Dy1161 Dy 0.14024 0.49809 0.01651 0.0
C1162 C 1.05902 0.4149 0.01694 0.0
O1163 O 0.106 0.45337 0.98916 0.0
O1164 O 0.15097 0.51379 0.99604 0.0
O1165 O 0.11115 0.36019 0.99752 0.0
O1166 O 0.13517 0.40114 0.98201 0.0
O1167 O 0.20138 0.50833 0.01505 0.0
O1168 O 0.19379 0.46568 0.99896 0.0
O1169 O 0.13572 0.45438 0.03107 0.0
O1170 O 0.15474 0.41796 0.01892 0.0
O1171 O 0.16589 0.54295 0.03089 0.0
O1172 O 0.12222 0.54181 0.01819 0.0
C1173 C 0.12817 0.49114 0.98704 0.0
O1174 O 1.07557 0.39725 0.01128 0.0
O1175 O 1.0759 0.45347 0.01814 0.0
C1176 C 0.15634 0.35501 0.98409 0.0
C1177 C 0.22819 0.35604 0.98262 0.0
C1178 C 0.20415 0.34056 0.99327 0.0
C1179 C 0.16851 0.33992 0.99399 0.0
C1180 C 0.17829 0.36651 0.97292 0.0
C1181 C 0.21411 0.36721 0.97221 0.0
C1182 C 0.12622 0.36633 0.98627 0.0
C1183 C 0.216 0.49407 0.00679 0.0
C1184 C 0.14791 0.42855 0.03 0.0
C1185 C 0.17198 0.60414 0.02529 0.0
C1186 C 0.21967 0.68668 0.02249 0.0
C1187 C 0.2136 0.66119 0.01233 0.0
C1188 C 0.19004 0.62025 0.01373 0.0
C1189 C 0.17766 0.62938 0.03539 0.0
C1190 C 0.20128 0.67025 0.03403 0.0
C1191 C 0.14762 0.56119 0.02703 0.0
H1192 H 0.21419 0.33187 1.00149 0.0
H1193 H 0.1522 0.33054 1.0027 0.0
H1194 H 0.16928 0.37788 0.9651 0.0
H1195 H 0.23174 0.37852 0.96379 0.0
H1196 H 0.22683 0.6729 1.00328 0.0
H1197 H 0.18597 0.60119 0.0058 0.0
H1198 H 0.16404 0.61743 0.04439 0.0
H1199 H 0.2057 0.68892 0.04208 0.0
Dy1200 Dy 0.3001 0.47852 0.51821 0.0
Dy1201 Dy 0.29986 0.47987 0.48825 0.0
C1202 C 0.33768 0.42929 0.50286 0.0
O1203 O 0.35858 0.53589 0.51339 0.0
O1204 O 0.36156 0.53005 0.49202 0.0
O1205 O 0.33034 0.4991 0.53603 0.0
O1206 O 0.27048 0.45146 0.53566 0.0
O1207 O 0.28973 0.53202 0.49342 0.0
O1208 O 0.28959 0.52985 0.51499 0.0
O1209 O 0.23339 0.44265 0.49277 0.0
O1210 O 0.23202 0.44359 0.51412 0.0
O1211 O 0.31012 0.50865 0.47015 0.0
O1212 O 0.28083 0.44484 0.4712 0.0
C1213 C 0.37741 0.54964 0.50252 0.0
O1214 O 0.32464 0.43712 0.51338 0.0
O1215 O 0.33199 0.4435 0.49215 0.0
C1216 C 0.31028 0.45169 0.55275 0.0
C1217 C 0.32505 0.41593 0.5738 0.0
C1218 C 0.28762 0.39852 0.5682 0.0
C1219 C 0.28033 0.41617 0.55788 0.0
C1220 C 0.34783 0.469 0.55826 0.0
C1221 C 0.35513 0.45133 0.56861 0.0
C1222 C 0.30131 0.47236 0.5426 0.0
C1223 C 0.28763 0.54684 0.50449 0.0
C1224 C 0.21236 0.43282 0.50328 0.0
C1225 C 0.30949 0.47435 0.45122 0.0
C1226 C 0.32601 0.47198 0.42531 0.0
C1227 C 0.3412 0.50822 0.43174 0.0
C1228 C 0.33296 0.50939 0.44449 0.0
C1229 C 0.29559 0.43807 0.44494 0.0
C1230 C 0.30388 0.43688 0.43218 0.0
C1231 C 0.29394 0.47561 0.46387 0.0
H1232 H 0.26346 0.3717 0.57202 0.0
H1233 H 0.25086 0.40234 0.55408 0.0
H1234 H 0.37151 0.49663 0.5547 0.0
H1235 H 0.38441 0.46549 0.57255 0.0
H1236 H 0.35889 0.53586 0.42684 0.0
H1237 H 0.34377 0.53791 0.44893 0.0
H1238 H 0.27677 0.4105 0.44973 0.0
H1239 H 0.29134 0.40843 0.42757 0.0
Dy1240 Dy 0.65467 0.84698 0.51966 0.0
Dy1241 Dy 0.64891 0.84644 0.48957 0.0
C1242 C 0.70053 0.9346 0.50434 0.0
O1243 O 0.60091 0.85458 0.51626 0.0
O1244 O 0.59667 0.85451 0.49472 0.0
O1245 O 0.69203 0.86085 0.53597 0.0
O1246 O 0.62982 0.83798 0.53845 0.0
O1247 O 0.59795 0.78413 0.49464 0.0
O1248 O 0.60407 0.78455 0.51612 0.0
O1249 O 0.68494 0.81464 0.4932 0.0
O1250 O 0.6895 0.81464 0.51452 0.0
O1251 O 0.61926 0.8363 0.47152 0.0
O1252 O 0.68129 0.85587 0.47231 0.0
C1253 C 0.58238 0.85544 0.50591 0.0
O1254 O 0.6915 0.91377 0.51493 0.0
O1255 O 0.68752 0.91468 0.49358 0.0
C1256 C 0.67192 0.87786 0.55514 0.0
C1257 C 0.69133 0.92164 0.57795 0.0
C1258 C 0.71524 0.93701 0.56721 0.0
C1259 C 0.70569 0.91543 0.55595 0.0
C1260 C 0.64741 0.86304 0.56571 0.0
C1261 C 0.65688 0.88461 0.57694 0.0
C1262 C 0.66371 0.85189 0.54398 0.0
C1263 C 0.58521 0.76643 0.50571 0.0
C1264 C 0.69754 0.80463 0.50342 0.0
C1265 C 0.65738 0.86733 0.45294 0.0
C1266 C 0.67237 0.89865 0.42815 0.0
C1267 C 0.63611 0.86541 0.4313 0.0
C1268 C 0.62879 0.84998 0.44351 0.0
C1269 C 0.69322 0.90127 0.44995 0.0
C1270 C 0.70055 0.91679 0.43772 0.0
C1271 C 0.65108 0.84627 0.4651 0.0
H1272 H 0.74165 0.96566 0.56752 0.0
H1273 H 0.72524 0.92779 0.54799 0.0
H1274 H 0.62142 0.83402 0.56541 0.0
H1275 H 0.6379 0.87149 0.58499 0.0
H1276 H 0.61339 0.851 0.42428 0.0
H1277 H 0.60107 0.82358 0.44548 0.0
H1278 H 0.71609 0.91514 0.45695 0.0
H1279 H 0.72893 0.94221 0.43568 0.0
Dy1280 Dy 0.28855 0.83343 0.51773 0.0
Dy1281 Dy 0.28419 0.83284 0.48779 0.0
C1282 C 0.19892 0.7937 0.50358 0.0
O1283 O 0.28323 0.77309 0.51289 0.0
O1284 O 0.27298 0.77075 0.49158 0.0
O1285 O 0.29448 0.81305 0.53621 0.0
O1286 O 0.28019 0.85959 0.53449 0.0
O1287 O 0.34651 0.84385 0.49182 0.0
O1288 O 0.35021 0.84423 0.51335 0.0
O1289 O 0.31243 0.89959 0.49207 0.0
O1290 O 0.32287 0.9015 0.51313 0.0
O1291 O 0.30358 0.82437 0.46958 0.0
O1292 O 0.26399 0.84778 0.47086 0.0
C1293 C 0.27716 0.75446 0.50194 0.0
O1294 O 0.22117 0.80408 0.51388 0.0
O1295 O 0.21716 0.80217 0.49252 0.0
C1296 C 0.26007 0.82185 0.55344 0.0
C1297 C 0.21614 0.80148 0.57621 0.0
C1298 C 0.1998 0.80538 0.56488 0.0
C1299 C 0.2215 0.81543 0.55363 0.0
C1300 C 0.27612 0.81736 0.56465 0.0
C1301 C 0.25457 0.80736 0.57586 0.0
C1302 C 0.28566 0.83678 0.54215 0.0
C1303 C 0.36625 0.84617 0.50224 0.0
C1304 C 0.32771 0.92094 0.50238 0.0
C1305 C 0.26653 0.81902 0.45121 0.0
C1306 C 0.23724 0.79245 0.42672 0.0
C1307 C 0.2778 0.81199 0.42913 0.0
C1308 C 0.29219 0.82507 0.44122 0.0
C1309 C 0.22588 0.79873 0.44897 0.0
C1310 C 0.21137 0.7854 0.43683 0.0
C1311 C 0.28369 0.83736 0.46345 0.0
H1312 H 0.17022 0.80067 0.5647 0.0
H1313 H 0.20835 0.81881 0.54513 0.0
H1314 H 0.30593 0.82264 0.56482 0.0
H1315 H 0.26861 0.80538 0.58434 0.0
H1316 H 0.29853 0.81733 0.42164 0.0
H1317 H 0.32367 0.84078 0.44271 0.0
H1318 H 0.20545 0.79387 0.45651 0.0
H1319 H 0.17997 0.77061 0.4353 0.0
Dy1320 Dy 0.19867 0.77187 0.32348 0.0
Dy1321 Dy 0.11439 0.70493 0.3358 0.0
C1322 C 0.18458 0.68611 0.33208 0.0
O1323 O 0.16916 0.73028 0.30756 0.0
O1324 O 0.10551 0.69576 0.31487 0.0
O1325 O 0.24942 0.79206 0.3116 0.0
O1326 O 0.24192 0.83426 0.32275 0.0
O1327 O 0.12096 0.76461 0.33528 0.0
O1328 O 0.15061 0.78263 0.31669 0.0
O1329 O 0.15827 0.72158 0.35111 0.0
O1330 O 0.19922 0.78424 0.34415 0.0
O1331 O 1.0567 0.65322 0.33488 0.0
O1332 O 1.0747 0.68924 0.35162 0.0
C1333 C 0.1316 0.70514 0.30582 0.0
O1334 O 0.21011 0.72359 0.32981 0.0
O1335 O 0.14679 0.67258 0.33345 0.0
C1336 C 0.30654 0.84615 0.31968 0.0
C1337 C 0.38652 0.87823 0.32585 0.0
C1338 C 0.35849 0.84036 0.33006 0.0
C1339 C 0.31883 0.82452 0.32705 0.0
C1340 C 0.33414 0.88434 0.31577 0.0
C1341 C 0.3738 0.90034 0.31885 0.0
C1342 C 0.26547 0.82842 0.31556 0.0
C1343 C 0.12372 0.78067 0.32437 0.0
C1344 C 0.18577 0.75802 0.35326 0.0
C1345 C 1.04583 0.62015 0.35386 0.0
C1346 C 1.05626 0.5547 0.35698 0.0
C1347 C 1.02097 0.54983 0.35196 0.0
C1348 C 1.01588 0.5825 0.35034 0.0
C1349 C 1.07772 0.62363 0.36087 0.0
C1350 C 0.08289 0.59108 0.36243 0.0
C1351 C 1.05059 0.65469 0.34685 0.0
H1352 H 0.36727 0.82289 0.33564 0.0
H1353 H 0.29785 0.79507 0.33026 0.0
H1354 H 0.32515 0.90148 0.3101 0.0
H1355 H 0.39466 0.92952 0.31541 0.0
H1356 H 0.9993 0.52172 0.34803 0.0
H1357 H 0.99095 0.57908 0.34498 0.0
H1358 H 0.10126 0.65228 0.36378 0.0
H1359 H 0.11017 0.59582 0.36648 0.0
Dy1360 Dy 0.3543 0.44703 0.32424 0.0
Dy1361 Dy 0.43623 0.45806 0.33489 0.0
C1362 C 0.42469 0.53101 0.33246 0.0
O1363 O 0.38555 0.44107 0.30738 0.0
O1364 O 0.44818 0.47846 0.31486 0.0
O1365 O 0.32129 0.45617 0.30978 0.0
O1366 O 0.292 0.42432 0.32666 0.0
O1367 O 0.4085 0.40233 0.32425 0.0
O1368 O 0.34529 0.38653 0.32828 0.0
O1369 O 0.39058 0.43004 0.34985 0.0
O1370 O 0.35623 0.46063 0.34486 0.0
O1371 O 0.49933 0.48619 0.33495 0.0
O1372 O 0.46532 0.43982 0.34833 0.0
C1373 C 0.42369 0.46216 0.30543 0.0
O1374 O 0.39839 0.51185 0.32373 0.0
O1375 O 0.43507 0.51221 0.3403 0.0
C1376 C 0.27381 0.46926 0.31825 0.0
C1377 C 0.25607 0.53045 0.32115 0.0
C1378 C 0.26149 0.51907 0.30914 0.0
C1379 C 0.27008 0.48865 0.30771 0.0
C1380 C 0.26651 0.4793 0.33024 0.0
C1381 C 0.25755 0.50952 0.33167 0.0
C1382 C 0.28973 0.44235 0.31666 0.0
C1383 C 0.37141 0.3761 0.32551 0.0
C1384 C 0.36743 0.4436 0.35323 0.0
C1385 C 0.52184 0.49656 0.35544 0.0
C1386 C 0.56946 0.56613 0.36881 0.0
C1387 C 0.58534 0.54364 0.36386 0.0
C1388 C 0.56165 0.50916 0.35711 0.0
C1389 C 0.5051 0.51649 0.36158 0.0
C1390 C 0.52884 0.55127 0.36816 0.0
C1391 C 0.49991 0.46892 0.34535 0.0
H1392 H 0.25967 0.53412 0.30086 0.0
H1393 H 0.27536 0.4813 0.29837 0.0
H1394 H 0.26917 0.46494 0.33858 0.0
H1395 H 0.25343 0.5176 0.34104 0.0
H1396 H 0.61669 0.55476 0.3641 0.0
H1397 H 0.575 0.49428 0.35234 0.0
H1398 H 0.47429 0.50707 0.36038 0.0
H1399 H 0.51603 0.56816 0.37186 0.0
Dy1400 Dy 0.69052 0.93369 0.32446 0.0
Dy1401 Dy 0.6962 1.01208 0.33757 0.0
C1402 C 0.61154 0.93584 0.33167 0.0
O1403 O 0.69735 0.97518 0.30875 0.0
O1404 O 0.67139 1.00958 0.31838 0.0
O1405 O 0.67384 0.89238 0.30913 0.0
O1406 O 0.703 0.88579 0.32544 0.0
O1407 O 0.75117 1.03256 0.32692 0.0
O1408 O 0.75503 0.97592 0.3262 0.0
O1409 O 0.71578 0.98311 0.35164 0.0
O1410 O 0.6753 0.92074 0.34487 0.0
O1411 O 0.72052 0.07534 0.33837 0.0
O1412 O 0.68433 1.03838 0.35358 0.0
C1413 C 0.68169 0.99815 0.30814 0.0
O1414 O 0.62793 0.91898 0.32532 0.0
O1415 O 0.63199 0.96906 0.33787 0.0
C1416 C 0.65108 0.82859 0.31656 0.0
C1417 C 0.58534 0.75229 0.31791 0.0
C1418 C 0.58957 0.78167 0.32641 0.0
C1419 C 0.6221 0.81954 0.32571 0.0
C1420 C 0.64733 0.79939 0.30814 0.0
C1421 C 0.61463 0.76142 0.30881 0.0
C1422 C 0.68318 0.86932 0.31523 0.0
C1423 C 0.77072 1.01416 0.32476 0.0
C1424 C 0.69481 0.94525 0.354 0.0
C1425 C 0.67118 0.08664 0.34636 0.0
C1426 C 0.5994 0.08501 0.34347 0.0
C1427 C 0.62 0.08322 0.33293 0.0
C1428 C 0.65556 0.08425 0.33435 0.0
C1429 C 0.65279 0.09229 0.3568 0.0
C1430 C 0.61713 0.09167 0.35536 0.0
C1431 C 0.69929 0.07278 0.34813 0.0
H1432 H 0.56731 0.77561 0.33343 0.0
H1433 H 0.62431 0.842 0.33217 0.0
H1434 H 0.66935 0.80609 0.30097 0.0
H1435 H 0.61233 0.73916 0.30225 0.0
H1436 H 0.60725 0.07751 0.32363 0.0
H1437 H 0.6688 0.07939 0.32611 0.0
H1438 H 0.66429 0.0939 0.36615 0.0
H1439 H 0.60236 0.09399 0.36363 0.0
H1440 H 0.20126 0.17048 0.15104 0.0
H1441 H 0.2186 0.19299 0.19083 0.0
H1442 H 0.22166 0.13294 0.19374 0.0
H1443 H 0.21829 0.07146 0.18546 0.0
H1444 H 0.20181 1.04835 0.14575 0.0
H1445 H 0.19977 0.10927 0.14261 0.0
C1446 C 0.20602 0.16263 0.16036 0.0
C1447 C 0.20968 0.18775 0.17065 0.0
C1448 C 0.20786 0.12686 0.16212 0.0
C1449 C 0.21558 0.17551 0.18258 0.0
C1450 C 0.21734 0.14055 0.18433 0.0
C1451 C 0.21445 0.0796 0.17608 0.0
C1452 C 0.21034 1.05406 0.1659 0.0
C1453 C 0.21333 0.11559 0.17423 0.0
C1454 C 0.20526 0.06639 0.15389 0.0
C1455 C 0.204 0.10173 0.15204 0.0
H1456 H 1.05895 0.17049 0.18695 0.0
H1457 H 1.07926 0.18027 0.14702 0.0
H1458 H 1.0193 0.11726 0.14381 0.0
H1459 H 0.95942 0.05678 0.1521 0.0
H1460 H 0.93864 1.04824 0.19203 0.0
H1461 H 0.99839 0.11119 0.19516 0.0
C1462 C 1.0504 0.15917 0.1775 0.0
C1463 C 1.07496 0.18163 0.16729 0.0
C1464 C 1.01476 0.12195 0.17559 0.0
C1465 C 1.06205 0.16499 0.15521 0.0
C1466 C 1.02723 0.12831 0.1533 0.0
C1467 C 0.96765 0.06854 0.16151 0.0
C1468 C 0.94303 1.04627 0.17176 0.0
C1469 C 1.00304 0.10611 0.16339 0.0
C1470 C 0.95567 0.06343 0.1838 0.0
C1471 C 0.99046 0.10003 0.18567 0.0
H1472 H 1.07034 0.92235 0.18708 0.0
H1473 H 0.08129 0.9224 0.14682 0.0
H1474 H 1.01881 0.92099 0.14448 0.0
H1475 H 0.95966 0.9205 0.1536 0.0
H1476 H 0.94761 0.91907 0.19382 0.0
H1477 H 1.01009 0.92018 0.19623 0.0
C1478 C 1.05919 0.92186 0.17775 0.0
C1479 C 0.08189 0.92241 0.16715 0.0
C1480 C 1.02211 0.92085 0.17638 0.0
C1481 C 1.06564 0.92186 0.15526 0.0
C1482 C 1.0294 0.92113 0.15387 0.0
C1483 C 0.97038 0.92028 0.16294 0.0
C1484 C 0.94755 0.91962 0.1735 0.0
C1485 C 1.00712 0.92071 0.16433 0.0
C1486 C 0.9633 0.91942 0.18542 0.0
C1487 C 0.99958 0.92013 0.18683 0.0
H1488 H 0.26468 0.10982 0.33665 0.0
H1489 H 0.37509 0.17285 0.35624 0.0
H1490 H 0.36412 0.22827 0.35984 0.0
H1491 H 0.32314 0.25876 0.3575 0.0
H1492 H 0.21408 0.19752 0.3371 0.0
H1493 H 0.22455 0.14164 0.3337 0.0
C1494 C 0.28614 0.13566 0.34175 0.0
C1495 C 0.32052 0.13733 0.34621 0.0
C1496 C 0.28005 0.16785 0.34357 0.0
C1497 C 0.34847 0.1711 0.35266 0.0
C1498 C 0.34221 0.20275 0.35474 0.0
C1499 C 0.30179 0.23332 0.35224 0.0
C1500 C 0.26821 0.23265 0.34743 0.0
C1501 C 0.30816 0.20149 0.35022 0.0
C1502 C 0.24067 0.19925 0.34069 0.0
C1503 C 0.24644 0.1671 0.33882 0.0
H1504 H 0.98741 0.07394 0.35393 0.0
H1505 H 0.88806 0.09257 0.35622 0.0
H1506 H 0.93115 0.16319 0.35322 0.0
H1507 H 0.99608 0.21916 0.35004 0.0
H1508 H 0.09697 0.20298 0.34797 0.0
H1509 H 1.05398 0.13153 0.35074 0.0
C1510 C 0.97526 0.0935 0.35371 0.0
C1511 C 0.93456 0.07799 0.35535 0.0
C1512 C 1.00034 0.13433 0.35203 0.0
C1513 C 0.9193 0.10376 0.35522 0.0
C1514 C 0.94387 0.14412 0.3534 0.0
C1515 C 1.00897 0.20023 0.35015 0.0
C1516 C 1.04981 0.21651 0.34876 0.0
C1517 C 0.98433 0.15965 0.35183 0.0
C1518 C 1.06567 0.19126 0.34903 0.0
C1519 C 1.04109 0.15044 0.3506 0.0
H1520 H 0.94846 0.91052 0.34837 0.0
H1521 H 0.92388 0.80775 0.32638 0.0
H1522 H 0.99302 0.82646 0.32703 0.0
H1523 H 1.06001 0.87006 0.33474 0.0
H1524 H 0.08464 0.97298 0.35654 0.0
H1525 H 1.01607 0.95638 0.35491 0.0
C1526 C 0.9583 0.89244 0.3436 0.0
C1527 C 0.93102 0.85774 0.33742 0.0
C1528 C 0.99811 0.90332 0.34397 0.0
C1529 C 0.94427 0.83476 0.33118 0.0
C1530 C 0.9838 0.84529 0.33158 0.0
C1531 C 1.05026 0.8888 0.3391 0.0
C1532 C 1.07711 0.9225 0.3458 0.0
C1533 C 1.01086 0.87914 0.33811 0.0
C1534 C 1.06442 0.94697 0.35127 0.0
C1535 C 1.02524 0.93743 0.35039 0.0
H1536 H 0.95568 0.93245 0.85598 0.0
H1537 H 0.95077 0.91618 0.81585 0.0
H1538 H 0.94748 0.97634 0.81292 0.0
H1539 H 0.94685 1.03578 0.82143 0.0
H1540 H 0.95099 1.05215 0.86152 0.0
H1541 H 0.95353 0.99143 0.86455 0.0
C1542 C 0.9537 0.94176 0.84657 0.0
C1543 C 0.95346 0.91845 0.83619 0.0
C1544 C 0.95167 0.97733 0.84483 0.0
C1545 C 0.95099 0.93234 0.82415 0.0
C1546 C 0.94912 0.96727 0.82241 0.0
C1547 C 0.94808 1.02617 0.83087 0.0
C1548 C 0.94855 1.04971 0.8412 0.0
C1549 C 0.94953 0.99036 0.83264 0.0
C1550 C 0.95038 1.03562 0.85327 0.0
C1551 C 0.95193 1.00046 0.85505 0.0
H1552 H 0.20049 1.04934 0.85359 0.0
H1553 H 0.22159 0.05592 0.81374 0.0
H1554 H 0.16159 0.99253 0.81083 0.0
H1555 H 0.10062 0.93351 0.81938 0.0
H1556 H 0.08035 0.92797 0.85932 0.0
H1557 H 0.14059 0.99053 0.86211 0.0
C1558 C 0.19233 1.03704 0.84424 0.0
C1559 C 0.21693 0.0587 0.83395 0.0
C1560 C 0.15683 0.99969 0.84252 0.0
C1561 C 0.20439 1.04106 0.82197 0.0
C1562 C 0.16952 1.00427 0.82025 0.0
C1563 C 0.10925 0.9457 0.82873 0.0
C1564 C 0.08452 0.92449 0.83908 0.0
C1565 C 0.14509 0.98299 0.83042 0.0
C1566 C 0.09752 0.94226 0.85103 0.0
C1567 C 0.13256 0.97868 0.8527 0.0
H1568 H 0.09023 0.18643 0.82124 0.0
H1569 H 1.07446 0.1772 0.86136 0.0
H1570 H 0.13697 0.17835 0.86376 0.0
H1571 H 0.1976 0.1811 0.85461 0.0
H1572 H 0.21352 0.19197 0.81448 0.0
H1573 H 0.15132 0.19109 0.81218 0.0
C1574 C 0.10029 0.18486 0.83056 0.0
C1575 C 1.07629 0.1818 0.84109 0.0
C1576 C 0.13727 0.18575 0.83196 0.0
C1577 C 0.0912 0.17975 0.85298 0.0
C1578 C 0.12743 0.18032 0.85439 0.0
C1579 C 0.18777 0.18344 0.84532 0.0
C1580 C 0.21173 0.18668 0.83474 0.0
C1581 C 0.15101 0.1832 0.84397 0.0
C1582 C 0.19705 0.18959 0.82291 0.0
C1583 C 0.16088 0.18901 0.82154 0.0
H1584 H 0.90775 1.02056 0.67764 0.0
H1585 H 0.80167 0.94368 0.65735 0.0
H1586 H 0.82198 0.89409 0.6555 0.0
H1587 H 0.87077 0.87378 0.65886 0.0
H1588 H 0.97539 0.94868 0.6802 0.0
H1589 H 0.95422 0.99737 0.68267 0.0
C1590 C 0.88896 0.99271 0.67295 0.0
C1591 C 0.85349 0.9858 0.66756 0.0
C1592 C 0.90025 0.96382 0.67222 0.0
C1593 C 0.82909 0.94954 0.66162 0.0
C1594 C 0.8406 0.92116 0.66057 0.0
C1595 C 0.88863 0.90028 0.66429 0.0
C1596 C 0.92495 0.90768 0.66916 0.0
C1597 C 0.87618 0.92805 0.66578 0.0
C1598 C 0.94774 0.94254 0.67607 0.0
C1599 C 0.93559 0.97039 0.67755 0.0
H1600 H 0.21741 1.05216 0.66228 0.0
H1601 H 0.31334 1.03138 0.65432 0.0
H1602 H 0.26962 0.96032 0.65708 0.0
H1603 H 0.20399 0.90449 0.66117 0.0
H1604 H 0.1078 0.92548 0.66869 0.0
H1605 H 0.15226 0.99653 0.66693 0.0
C1606 C 0.22889 1.03213 0.66132 0.0
C1607 C 0.2685 1.0469 0.65813 0.0
C1608 C 0.20364 0.99153 0.66284 0.0
C1609 C 0.28279 1.02057 0.65662 0.0
C1610 C 0.25789 0.98005 0.65826 0.0
C1611 C 0.19268 0.92454 0.66248 0.0
C1612 C 0.15257 0.90967 0.665 0.0
C1613 C 0.21821 0.96524 0.66127 0.0
C1614 C 0.1385 0.93613 0.6667 0.0
C1615 C 0.16388 0.97674 0.66568 0.0
H1616 H 0.11177 0.26064 0.65587 0.0
H1617 H 0.08014 0.13803 0.65806 0.0
H1618 H 0.14949 0.1571 0.65997 0.0
H1619 H 0.21947 0.20908 0.66055 0.0
H1620 H 0.24928 0.33146 0.65823 0.0
H1621 H 0.18043 0.3119 0.65678 0.0
C1622 C 0.12005 0.23806 0.65671 0.0
C1623 C 0.09096 0.19806 0.65677 0.0
C1624 C 0.15973 0.24918 0.65773 0.0
C1625 C 0.10205 0.16912 0.65809 0.0
C1626 C 0.14168 0.17998 0.6591 0.0
C1627 C 0.21087 0.23139 0.65966 0.0
C1628 C 0.23967 0.27163 0.65945 0.0
C1629 C 0.17085 0.21998 0.65884 0.0
C1630 C 0.22793 0.30022 0.65841 0.0
C1631 C 0.18845 0.28913 0.65757 0.0
H1632 H 0.87573 0.40038 0.4854 0.0
H1633 H 0.88511 0.39453 0.52557 0.0
H1634 H 0.88411 0.45622 0.52789 0.0
H1635 H 0.87971 0.51298 0.51879 0.0
H1636 H 0.87081 0.51953 0.47865 0.0
H1637 H 0.87256 0.4581 0.47624 0.0
C1638 C 0.87774 0.41249 0.4947 0.0
C1639 C 0.88061 0.39159 0.50528 0.0
C1640 C 0.87719 0.44896 0.49605 0.0
C1641 C 0.88298 0.40889 0.51715 0.0
C1642 C 0.88236 0.44463 0.51852 0.0
C1643 C 0.87834 0.5013 0.50946 0.0
C1644 C 0.87523 0.52218 0.49892 0.0
C1645 C 0.87938 0.46516 0.50808 0.0
C1646 C 0.87337 0.50527 0.48703 0.0
C1647 C 0.8743 0.46963 0.48562 0.0
H1648 H 0.63214 0.38932 0.48505 0.0
H1649 H 0.60665 0.38529 0.52457 0.0
H1650 H 0.66618 0.44852 0.52767 0.0
H1651 H 0.72777 0.50689 0.51951 0.0
H1652 H 0.75273 0.51161 0.47994 0.0
H1653 H 0.6931 0.4484 0.47681 0.0
C1654 C 0.63928 0.40214 0.49436 0.0
C1655 C 0.61347 0.38112 0.5045 0.0
C1656 C 0.67454 0.43974 0.49621 0.0
C1657 C 0.62471 0.39954 0.51642 0.0
C1658 C 0.65934 0.43628 0.51828 0.0
C1659 C 0.72034 0.49435 0.51017 0.0
C1660 C 0.74607 0.51548 0.50002 0.0
C1661 C 0.68487 0.45698 0.50829 0.0
C1662 C 0.73458 0.49737 0.48807 0.0
C1663 C 0.69996 0.46059 0.48621 0.0
H1664 H 0.63392 0.26192 0.48677 0.0
H1665 H 0.61562 0.24876 0.52677 0.0
H1666 H 0.67801 0.24974 0.5293 0.0
H1667 H 0.73984 0.25506 0.52035 0.0
H1668 H 0.75754 0.268 0.4803 0.0
H1669 H 0.69497 0.26631 0.47782 0.0
C1670 C 0.64326 0.2591 0.49608 0.0
C1671 C 0.61872 0.25514 0.50654 0.0
C1672 C 0.68 0.25968 0.49755 0.0
C1673 C 0.63272 0.25174 0.51844 0.0
C1674 C 0.66891 0.25234 0.51992 0.0
C1675 C 0.73015 0.25735 0.51103 0.0
C1676 C 0.75471 0.26157 0.50054 0.0
C1677 C 0.69315 0.25638 0.50958 0.0
C1678 C 0.7404 0.26461 0.48866 0.0
C1679 C 0.70412 0.2637 0.48719 0.0
H1680 H 0.92348 0.4418 0.69028 0.0
H1681 H 0.96363 0.47776 0.6523 0.0
H1682 H 0.94009 0.52512 0.653 0.0
H1683 H 0.91268 0.55993 0.66506 0.0
H1684 H 0.87331 0.52359 0.70306 0.0
H1685 H 0.89269 0.47326 0.70177 0.0
C1686 C 0.9269 0.45977 0.68211 0.0
C1687 C 0.94564 0.45652 0.6713 0.0
C1688 C 0.91416 0.48747 0.68267 0.0
C1689 C 0.94965 0.47997 0.66079 0.0
C1690 C 0.93631 0.50714 0.6612 0.0
C1691 C 0.90841 0.54095 0.67304 0.0
C1692 C 0.89176 0.54551 0.68416 0.0
C1693 C 0.91947 0.51188 0.67221 0.0
C1694 C 0.88589 0.52046 0.69438 0.0
C1695 C 0.89704 0.49176 0.69366 0.0
H1696 H 0.60946 0.41437 0.6895 0.0
H1697 H 0.5575 0.40054 0.65295 0.0
H1698 H 0.60417 0.47008 0.64813 0.0
H1699 H 0.65787 0.53599 0.655 0.0
H1700 H 0.71109 0.54619 0.69132 0.0
H1701 H 0.66581 0.47705 0.69549 0.0
C1702 C 0.60822 0.42663 0.68049 0.0
C1703 C 0.57943 0.4028 0.67174 0.0
C1704 C 0.6354 0.46606 0.67775 0.0
C1705 C 0.57918 0.41854 0.6599 0.0
C1706 C 0.60581 0.45827 0.65716 0.0
C1707 C 0.65975 0.52295 0.66376 0.0
C1708 C 0.6878 0.54656 0.67284 0.0
C1709 C 0.63374 0.48254 0.66611 0.0
C1710 C 0.68996 0.529 0.68412 0.0
C1711 C 0.66392 0.48935 0.68658 0.0
H1712 H 0.72587 0.20309 0.67228 0.0
H1713 H 0.74409 0.30501 0.69349 0.0
H1714 H 0.67511 0.28591 0.69078 0.0
H1715 H 0.60854 0.23786 0.6835 0.0
H1716 H 0.59043 0.13488 0.66295 0.0
H1717 H 0.66044 0.15736 0.664 0.0
C1718 C 0.7147 0.22106 0.67634 0.0
C1719 C 0.73999 0.25524 0.68315 0.0
C1720 C 0.67499 0.20979 0.67482 0.0
C1721 C 0.72526 0.27864 0.68815 0.0
C1722 C 0.68578 0.26767 0.68665 0.0
C1723 C 0.62004 0.22061 0.67914 0.0
C1724 C 0.59433 0.18471 0.6732 0.0
C1725 C 0.66025 0.23304 0.68012 0.0
C1726 C 0.60958 0.16248 0.66766 0.0
C1727 C 0.64957 0.17514 0.66832 0.0
H1728 H 0.60687 0.2573 0.15365 0.0
H1729 H 0.62548 0.25641 0.19349 0.0
H1730 H 0.62421 0.31779 0.19586 0.0
H1731 H 0.61863 0.37418 0.18687 0.0
H1732 H 0.59961 0.37496 0.14706 0.0
H1733 H 0.60021 0.3132 0.1447 0.0
C1734 C 0.61052 0.27024 0.16289 0.0
C1735 C 0.61622 0.25081 0.17335 0.0
C1736 C 0.60973 0.30661 0.16431 0.0
C1737 C 0.62094 0.26942 0.18515 0.0
C1738 C 0.62026 0.30512 0.18657 0.0
C1739 C 0.6144 0.36094 0.17765 0.0
C1740 C 0.60896 0.38053 0.16719 0.0
C1741 C 0.61476 0.32437 0.17625 0.0
C1742 C 0.60381 0.36174 0.15541 0.0
C1743 C 0.60418 0.32586 0.154 0.0
H1744 H 0.86282 0.37331 0.15247 0.0
H1745 H 0.87591 0.39051 0.19252 0.0
H1746 H 0.81529 0.32817 0.19582 0.0
H1747 H 0.75622 0.26727 0.18762 0.0
H1748 H 0.74363 0.24931 0.1476 0.0
H1749 H 0.80452 0.31149 0.14428 0.0
C1750 C 0.85274 0.36356 0.16196 0.0
C1751 C 0.87535 0.38796 0.17219 0.0
C1752 C 0.8169 0.32656 0.16391 0.0
C1753 C 0.8604 0.3735 0.18433 0.0
C1754 C 0.82514 0.33733 0.18628 0.0
C1755 C 0.76666 0.27665 0.17814 0.0
C1756 C 0.74404 0.2522 0.16792 0.0
C1757 C 0.80277 0.31334 0.17618 0.0
C1758 C 0.75931 0.26626 0.15578 0.0
C1759 C 0.79464 0.3024 0.15382 0.0
H1760 H 0.85504 0.50836 0.18683 0.0
H1761 H 0.87771 0.52821 0.14713 0.0
H1762 H 0.81583 0.52721 0.14424 0.0
H1763 H 0.75287 0.51974 0.15258 0.0
H1764 H 0.7299 0.50056 0.19225 0.0
H1765 H 0.79233 0.50234 0.19528 0.0
C1766 C 0.8468 0.51276 0.17753 0.0
C1767 C 0.87253 0.51849 0.16726 0.0
C1768 C 0.81002 0.51216 0.1758 0.0
C1769 C 0.85979 0.52378 0.15535 0.0
C1770 C 0.82379 0.52316 0.15363 0.0
C1771 C 0.76134 0.51606 0.16193 0.0
C1772 C 0.73536 0.51003 0.17213 0.0
C1773 C 0.79828 0.51721 0.16372 0.0
C1774 C 0.74819 0.50535 0.1841 0.0
C1775 C 0.78442 0.50633 0.18589 0.0
H1776 H 0.62127 0.27002 0.9917 0.0
H1777 H 0.50517 0.16867 0.99482 0.0
H1778 H 0.47733 0.21211 0.99729 0.0
H1779 H 0.48592 0.27887 0.99775 0.0
H1780 H 0.60223 0.38015 0.99392 0.0
H1781 H 0.63005 0.33666 0.99268 0.0
C1782 C 0.58993 0.25742 0.9931 0.0
C1783 C 0.56532 0.21614 0.99316 0.0
C1784 C 0.57416 0.28256 0.99432 0.0
C1785 C 0.52468 0.20031 0.99473 0.0
C1786 C 0.50879 0.22514 0.99615 0.0
C1787 C 0.5174 0.29154 0.99669 0.0
C1788 C 0.54189 0.33284 0.99587 0.0
C1789 C 0.53323 0.26633 0.99582 0.0
C1790 C 0.5826 0.34855 0.99452 0.0
C1791 C 0.59858 0.32368 0.99381 0.0
H1792 H 0.76439 0.24756 0.99074 0.0
H1793 H 0.85233 0.22434 0.00639 0.0
H1794 H 0.90274 0.29216 1.00263 0.0
H1795 H 0.92258 0.35806 0.9948 0.0
H1796 H 0.83616 0.38269 0.9789 0.0
H1797 H 0.7844 0.31484 0.98321 0.0
C1798 C 0.79445 0.25762 0.99353 0.0
C1799 C 0.80454 0.23083 0.99873 0.0
C1800 C 0.82364 0.29703 0.99139 0.0
C1801 C 0.84371 0.24422 1.00225 0.0
C1802 C 0.87268 0.28312 1.00016 0.0
C1803 C 0.89247 0.34845 0.99216 0.0
C1804 C 0.88322 0.37509 0.98643 0.0
C1805 C 0.86308 0.30964 0.99463 0.0
C1806 C 0.84394 0.3626 0.98334 0.0
C1807 C 0.81438 0.32386 0.98579 0.0
H1808 H 0.75672 0.51788 0.98319 0.0
H1809 H 0.76652 0.6225 1.00026 0.0
H1810 H 0.83541 0.64559 0.00547 0.0
H1811 H 0.89338 0.63725 0.00416 0.0
H1812 H 0.88304 0.5327 0.98658 0.0
H1813 H 0.81367 0.5083 0.98261 0.0
C1814 C 0.77402 0.5458 0.98802 0.0
C1815 C 0.75683 0.56866 0.99127 0.0
C1816 C 0.81338 0.55881 0.9909 0.0
C1817 C 0.77921 0.60438 0.99774 0.0
C1818 C 0.81853 0.61759 1.00067 0.0
C1819 C 0.8759 0.6089 0.99959 0.0
C1820 C 0.89356 0.58695 0.99563 0.0
C1821 C 0.83601 0.59518 0.99718 0.0
C1822 C 0.87038 0.55035 0.98968 0.0
C1823 C 0.83066 0.53635 0.98738 0.0
H1824 H 0.54705 0.84319 0.85298 0.0
H1825 H 0.54497 0.8553 0.81282 0.0
H1826 H 0.54781 0.79463 0.80999 0.0
H1827 H 0.54995 0.73598 0.81871 0.0
H1828 H 0.5535 0.72471 0.85887 0.0
H1829 H 0.55118 0.78564 0.86168 0.0
C1830 C 0.54737 0.83287 0.84356 0.0
C1831 C 0.54579 0.8551 0.83314 0.0
C1832 C 0.54928 0.79722 0.84192 0.0
C1833 C 0.54625 0.83999 0.82112 0.0
C1834 C 0.54783 0.80477 0.81946 0.0
C1835 C 0.55045 0.74675 0.82812 0.0
C1836 C 0.55206 0.72454 0.83854 0.0
C1837 C 0.54925 0.78279 0.82976 0.0
C1838 C 0.55249 0.74016 0.85056 0.0
C1839 C 0.55105 0.77544 0.85221 0.0
H1840 H 0.29573 0.72804 0.81768 0.0
H1841 H 0.28468 0.71463 0.85792 0.0
H1842 H 0.34532 0.77671 0.86063 0.0
H1843 H 0.40369 0.83641 0.85204 0.0
H1844 H 0.41536 0.85249 0.81197 0.0
H1845 H 0.35422 0.78982 0.80899 0.0
C1846 C 0.3063 0.73858 0.82707 0.0
C1847 C 0.28407 0.71514 0.83754 0.0
C1848 C 0.34234 0.77579 0.82871 0.0
C1849 C 0.29971 0.73072 0.84954 0.0
C1850 C 0.33505 0.76682 0.85116 0.0
C1851 C 0.39306 0.82653 0.84261 0.0
C1852 C 0.41537 0.85046 0.83228 0.0
C1853 C 0.35694 0.78985 0.84088 0.0
C1854 C 0.39981 0.83585 0.82022 0.0
C1855 C 0.36438 0.79946 0.81847 0.0
H1856 H 0.41295 0.59988 0.8192 0.0
H1857 H 0.42204 0.583 0.85876 0.0
H1858 H 0.35938 0.58018 0.86248 0.0
H1859 H 0.30011 0.58311 0.85475 0.0
H1860 H 0.29176 0.59957 0.81507 0.0
H1861 H 0.3538 0.60176 0.81149 0.0
C1862 C 0.40137 0.59535 0.82866 0.0
C1863 C 0.42355 0.59157 0.83861 0.0
C1864 C 0.36433 0.59371 0.83087 0.0
C1865 C 0.40678 0.58596 0.85075 0.0
C1866 C 0.37039 0.58438 0.85295 0.0
C1867 C 0.31159 0.58708 0.84529 0.0
C1868 C 0.28966 0.59107 0.83527 0.0
C1869 C 0.34856 0.5883 0.84312 0.0
C1870 C 0.30654 0.59625 0.82315 0.0
C1871 C 0.3427 0.59757 0.82101 0.0
H1872 H 0.5892 0.76116 0.02468 0.0
H1873 H 0.64029 0.80198 0.98811 0.0
H1874 H 0.61754 0.85003 0.98796 0.0
H1875 H 0.58951 0.88505 0.99926 0.0
H1876 H 0.54349 0.84794 0.03662 0.0
H1877 H 0.55862 0.79442 0.03563 0.0
C1878 C 0.59475 0.7803 0.01665 0.0
C1879 C 0.61606 0.77831 0.00642 0.0
C1880 C 0.58345 0.80912 0.01693 0.0
C1881 C 0.62382 0.80334 0.99608 0.0
C1882 C 0.61104 0.83084 0.99602 0.0
C1883 C 0.5825 0.86496 0.00711 0.0
C1884 C 0.56592 0.87057 0.01804 0.0
C1885 C 0.59189 0.83479 0.00656 0.0
C1886 C 0.557 0.84453 0.0282 0.0
C1887 C 0.5654 0.81384 0.02761 0.0
H1888 H 0.30882 0.87341 0.02172 0.0
H1889 H 0.39372 0.85577 1.00129 0.0
H1890 H 0.35114 0.7841 1.00291 0.0
H1891 H 0.29006 0.72653 0.01035 0.0
H1892 H 0.20741 0.74478 0.03192 0.0
H1893 H 0.24939 0.81614 0.02991 0.0
C1894 C 0.318 0.85387 0.01761 0.0
C1895 C 0.35427 0.86981 0.01135 0.0
C1896 C 0.29389 0.81282 0.01885 0.0
C1897 C 0.36597 0.84417 0.0062 0.0
C1898 C 0.3416 0.80322 0.00709 0.0
C1899 C 0.28097 0.7461 0.01447 0.0
C1900 C 0.24535 0.73019 0.02115 0.0
C1901 C 0.30548 0.78721 0.0134 0.0
C1902 C 0.2347 0.75611 0.02677 0.0
C1903 C 0.25858 0.79696 0.02557 0.0
H1904 H 0.27292 0.55541 0.0201 0.0
H1905 H 0.25503 0.46321 0.994 0.0
H1906 H 0.324 0.48191 0.99573 0.0
H1907 H 0.38934 0.52329 0.00514 0.0
H1908 H 0.40695 0.61545 0.03113 0.0
H1909 H 0.33831 0.59793 0.02893 0.0
C1910 C 0.2841 0.53956 0.01471 0.0
C1911 C 0.25867 0.50797 0.00695 0.0
C1912 C 0.32382 0.55032 0.01577 0.0
C1913 C 0.27385 0.48784 1.00001 0.0
C1914 C 0.31333 0.49834 1.00103 0.0
C1915 C 0.37802 0.53936 0.01035 0.0
C1916 C 0.40311 0.57054 0.0183 0.0
C1917 C 0.33851 0.52926 0.00899 0.0
C1918 C 0.38825 0.59151 0.02487 0.0
C1919 C 0.349 0.58145 0.02365 0.0
H1920 H 0.27847 0.59436 0.48594 0.0
H1921 H 0.29039 0.5873 0.52593 0.0
H1922 H 0.28808 0.64791 0.52889 0.0
H1923 H 0.2836 0.70545 0.52041 0.0
H1924 H 0.27014 0.71196 0.48049 0.0
H1925 H 0.272 0.65102 0.4775 0.0
C1926 C 0.28041 0.60578 0.49533 0.0
C1927 C 0.2846 0.58483 0.50565 0.0
C1928 C 0.27879 0.64162 0.49711 0.0
C1929 C 0.28704 0.60147 0.51767 0.0
C1930 C 0.28577 0.63674 0.51943 0.0
C1931 C 0.28081 0.69362 0.51103 0.0
C1932 C 0.27657 0.71459 0.50074 0.0
C1933 C 0.28174 0.65745 0.50926 0.0
C1934 C 0.27326 0.69757 0.48873 0.0
C1935 C 0.27442 0.66221 0.48696 0.0
H1936 H 0.53547 0.71238 0.48707 0.0
H1937 H 0.54745 0.72614 0.52724 0.0
H1938 H 0.48699 0.66324 0.53006 0.0
H1939 H 0.42819 0.60261 0.52137 0.0
H1940 H 0.41753 0.58834 0.48118 0.0
H1941 H 0.47798 0.65102 0.47842 0.0
C1942 C 0.52519 0.70177 0.49648 0.0
C1943 C 0.54745 0.72541 0.50689 0.0
C1944 C 0.48953 0.6644 0.49816 0.0
C1945 C 0.53224 0.70977 0.51891 0.0
C1946 C 0.49705 0.67325 0.52059 0.0
C1947 C 0.43896 0.6129 0.51198 0.0
C1948 C 0.41689 0.58922 0.50154 0.0
C1949 C 0.47503 0.65 0.51032 0.0
C1950 C 0.43269 0.60454 0.48954 0.0
C1951 C 0.46782 0.64103 0.48788 0.0
H1952 H 0.53082 0.85485 0.48721 0.0
H1953 H 0.5433 0.85626 0.52742 0.0
H1954 H 0.48042 0.85407 0.52999 0.0
H1955 H 0.41952 0.85053 0.52104 0.0
H1956 H 0.40739 0.8495 0.48081 0.0
H1957 H 0.4707 0.85275 0.47826 0.0
C1958 C 0.52014 0.85494 0.49658 0.0
C1959 C 0.54324 0.85593 0.50708 0.0
C1960 C 0.483 0.85361 0.49808 0.0
C1961 C 0.52744 0.85572 0.51904 0.0
C1962 C 0.49091 0.85437 0.52056 0.0
C1963 C 0.43059 0.85122 0.51167 0.0
C1964 C 0.40733 0.84981 0.50115 0.0
C1965 C 0.46804 0.85315 0.51018 0.0
C1966 C 0.42346 0.85061 0.4892 0.0
C1967 C 0.46019 0.85244 0.48769 0.0
H1968 H 0.24604 0.687 0.31996 0.0
H1969 H 0.15177 0.61907 0.34592 0.0
H1970 H 0.16697 0.56578 0.34538 0.0
H1971 H 0.20303 0.53582 0.33617 0.0
H1972 H 0.29602 0.60227 0.30965 0.0
H1973 H 0.28491 0.6583 0.3116 0.0
C1974 C 0.22932 0.66077 0.32564 0.0
C1975 C 0.19784 0.65691 0.33294 0.0
C1976 C 0.23738 0.62954 0.32498 0.0
C1977 C 0.17603 0.6226 0.34016 0.0
C1978 C 0.18454 0.59199 0.33982 0.0
C1979 C 0.22115 0.56273 0.33093 0.0
C1980 C 0.25002 0.56477 0.3227 0.0
C1981 C 0.21449 0.59471 0.33204 0.0
C1982 C 0.27308 0.59974 0.31588 0.0
C1983 C 0.26695 0.63188 0.31705 0.0
H1984 H 0.44364 0.57854 0.31215 0.0
H1985 H 0.46092 0.57988 0.35215 0.0
H1986 H 0.51058 0.64985 0.35125 0.0
H1987 H 0.55306 0.70871 0.33883 0.0
H1988 H 0.53976 0.7061 0.29863 0.0
H1989 H 0.48451 0.63852 0.29982 0.0
C1990 C 0.45756 0.59449 0.32069 0.0
C1991 C 0.44849 0.57436 0.3322 0.0
C1992 C 0.48722 0.63423 0.32003 0.0
C1993 C 0.46734 0.59498 0.34319 0.0
C1994 C 0.49587 0.63486 0.34267 0.0
C1995 C 0.53785 0.69343 0.33035 0.0
C1996 C 0.55068 0.71212 0.31866 0.0
C1997 C 0.50673 0.65447 0.3311 0.0
C1998 C 0.53078 0.69202 0.30773 0.0
C1999 C 0.49908 0.65352 0.30841 0.0
H2000 H 0.42783 0.8394 0.32405 0.0
H2001 H 0.44072 0.95288 0.33304 0.0
H2002 H 0.51126 0.98029 0.33608 0.0
H2003 H 0.56925 0.97245 0.3358 0.0
H2004 H 0.55697 0.85944 0.32614 0.0
H2005 H 0.48597 0.83116 0.32406 0.0
C2006 C 0.44596 0.86997 0.32689 0.0
C2007 C 0.429 0.89412 0.32835 0.0
C2008 C 0.4865 0.88553 0.32858 0.0
C2009 C 0.4531 0.93386 0.33177 0.0
C2010 C 0.49334 0.94945 0.33359 0.0
C2011 C 0.55102 0.94149 0.33338 0.0
C2012 C 0.56836 0.91804 0.33118 0.0
C2013 C 0.51038 0.92563 0.33196 0.0
C2014 C 0.54435 0.87816 0.32786 0.0
C2015 C 0.50376 0.86197 0.32667 0.0
H2016 H 0.34119 0.36479 0.15193 0.0
H2017 H 0.32664 0.36681 0.19195 0.0
H2018 H 0.39793 0.40306 0.19458 0.0
H2019 H 0.46763 0.43553 0.18592 0.0
H2020 H 0.48237 0.43318 0.14592 0.0
H2021 H 0.41102 0.39744 0.14325 0.0
C2022 C 0.35314 0.373 0.1613 0.0
C2023 C 0.32588 0.3618 0.17171 0.0
C2024 C 0.39596 0.39469 0.16289 0.0
C2025 C 0.34459 0.37388 0.18359 0.0
C2026 C 0.38635 0.39511 0.18515 0.0
C2027 C 0.45572 0.42754 0.17653 0.0
C2028 C 0.483 0.43848 0.16615 0.0
C2029 C 0.41292 0.40596 0.17493 0.0
C2030 C 0.46436 0.42641 0.15426 0.0
C2031 C 0.42258 0.40544 0.15268 0.0
H2032 H 0.69679 0.06159 0.15213 0.0
H2033 H 0.68403 0.06453 0.19224 0.0
H2034 H 0.719 1.02825 0.19512 0.0
H2035 H 0.7552 0.99439 0.18678 0.0
H2036 H 0.7672 0.98948 0.14675 0.0
H2037 H 0.73213 1.02603 0.1437 0.0
C2038 C 0.70131 1.05442 0.16157 0.0
C2039 C 0.68635 0.06717 0.17192 0.0
C2040 C 0.72222 1.03229 0.16333 0.0
C2041 C 0.69394 0.05626 0.18389 0.0
C2042 C 0.7145 1.03502 0.18562 0.0
C2043 C 0.7503 1.00097 0.1773 0.0
C2044 C 0.7651 0.98783 0.16705 0.0
C2045 C 0.7291 1.02262 0.17548 0.0
C2046 C 0.75715 0.99799 0.15502 0.0
C2047 C 0.73666 1.01944 0.15322 0.0
H2048 H 0.12661 0.78539 0.15175 0.0
H2049 H 0.13663 0.80106 0.19185 0.0
H2050 H 0.09999 0.72934 0.19469 0.0
H2051 H 1.06322 0.65897 0.18614 0.0
H2052 H 1.05326 0.64343 0.14603 0.0
H2053 H 0.09015 0.71511 0.1432 0.0
C2054 C 0.12108 0.7736 0.16119 0.0
C2055 C 0.13578 0.80124 0.17155 0.0
C2056 C 0.0991 0.7306 0.16288 0.0
C2057 C 0.12689 0.78276 0.18352 0.0
C2058 C 0.10542 0.74077 0.1852 0.0
C2059 C 1.06895 0.67079 0.1767 0.0
C2060 C 1.05418 0.64316 0.16633 0.0
C2061 C 0.09105 0.7138 0.17501 0.0
C2062 C 1.06316 0.66168 0.15436 0.0
C2063 C 0.08474 0.70366 0.15269 0.0
H2064 H 0.42909 0.26714 0.34078 0.0
H2065 H 0.41554 0.24063 0.30097 0.0
H2066 H 0.38202 0.27801 0.2986 0.0
H2067 H 0.36273 0.32415 0.30754 0.0
H2068 H 0.36844 0.3422 0.34749 0.0
H2069 H 0.3962 0.29906 0.35018 0.0
C2070 C 0.41792 0.26786 0.33158 0.0
C2071 C 0.42632 0.25129 0.32107 0.0
C2072 C 0.39602 0.28697 0.33033 0.0
C2073 C 0.41179 0.25436 0.30926 0.0
C2074 C 0.39153 0.27503 0.30788 0.0
C2075 C 0.36768 0.31645 0.31688 0.0
C2076 C 0.36362 0.33596 0.32731 0.0
C2077 C 0.38403 0.29195 0.31832 0.0
C2078 C 0.37084 0.3268 0.33937 0.0
C2079 C 0.38764 0.30298 0.34086 0.0
H2080 H 0.78868 0.05974 0.30465 0.0
H2081 H 0.84045 1.02386 0.33371 0.0
H2082 H 0.9043 0.08338 0.32998 0.0
H2083 H 0.93776 0.15312 0.3232 0.0
H2084 H 0.88199 0.19089 0.29599 0.0
H2085 H 0.82732 0.12344 0.29427 0.0
C2086 C 0.8144 0.06446 0.30987 0.0
C2087 C 0.81017 1.03835 0.31957 0.0
C2088 C 0.84972 0.09984 0.30837 0.0
C2089 C 0.84327 1.0439 0.32623 0.0
C2090 C 0.87941 0.07828 0.32429 0.0
C2091 C 0.91404 0.14626 0.31667 0.0
C2092 C 0.91315 0.17698 0.31001 0.0
C2093 C 0.88194 0.10776 0.31614 0.0
C2094 C 0.88305 0.1678 0.3013 0.0
C2095 C 0.85165 0.1293 0.30039 0.0
H2096 H 0.96995 0.78078 0.30823 0.0
H2097 H 0.92404 0.6552 0.31245 0.0
H2098 H 0.98983 0.66677 0.31658 0.0
H2099 H 1.05746 0.71251 0.32185 0.0
H2100 H 0.10706 0.83742 0.31597 0.0
H2101 H 1.04185 0.82641 0.30982 0.0
C2102 C 0.97443 0.75584 0.30969 0.0
C2103 C 0.9419 0.71718 0.31037 0.0
C2104 C 1.01254 0.76269 0.31198 0.0
C2105 C 0.94834 0.68527 0.31226 0.0
C2106 C 0.98593 0.69183 0.3146 0.0
C2107 C 1.05458 0.73719 0.31869 0.0
C2108 C 0.08694 0.77553 0.31912 0.0
C2109 C 1.01782 0.73041 0.31491 0.0
C2110 C 0.0824 0.80757 0.31557 0.0
C2111 C 1.04522 0.80121 0.31209 0.0
H2112 H 0.69293 0.67224 0.85371 0.0
H2113 H 0.67836 0.66991 0.81361 0.0
H2114 H 0.74965 0.70427 0.81089 0.0
H2115 H 0.81957 0.73702 0.81957 0.0
H2116 H 0.83357 0.73839 0.8597 0.0
H2117 H 0.76244 0.704 0.86234 0.0
C2118 C 0.70486 0.67896 0.84429 0.0
C2119 C 0.67763 0.66722 0.83391 0.0
C2120 C 0.74762 0.69946 0.84266 0.0
C2121 C 0.69632 0.67745 0.82197 0.0
C2122 C 0.73809 0.69761 0.82035 0.0
C2123 C 0.80753 0.7299 0.82896 0.0
C2124 C 0.83466 0.74153 0.8394 0.0
C2125 C 0.76467 0.7091 0.83057 0.0
C2126 C 0.81578 0.73088 0.8513 0.0
C2127 C 0.77407 0.71074 0.85289 0.0
H2128 H 0.39875 0.10501 0.85501 0.0
H2129 H 0.39566 0.11859 0.81497 0.0
H2130 H 0.43133 0.08295 0.81189 0.0
H2131 H 0.46477 1.04593 0.82008 0.0
H2132 H 0.46887 1.03279 0.86008 0.0
H2133 H 0.43322 0.06862 0.86325 0.0
C2134 C 0.40572 0.1005 0.84554 0.0
C2135 C 0.39316 0.11592 0.83527 0.0
C2136 C 0.42735 0.07915 0.84366 0.0
C2137 C 0.40379 0.10831 0.82326 0.0
C2138 C 0.42469 0.08738 0.82141 0.0
C2139 C 0.45822 1.05075 0.82957 0.0
C2140 C 0.47092 1.03538 0.83979 0.0
C2141 C 0.4369 0.07234 0.83148 0.0
C2142 C 0.46073 1.04323 0.85184 0.0
C2143 C 0.43978 0.06418 0.85372 0.0
H2144 H 1.03048 0.31903 0.85508 0.0
H2145 H 1.02159 0.30064 0.81509 0.0
H2146 H 1.05793 0.37204 0.81172 0.0
H2147 H 0.09431 0.44306 0.81975 0.0
H2148 H 0.10359 0.46117 0.85977 0.0
H2149 H 1.06672 0.38987 0.86309 0.0
C2150 C 1.03618 0.33016 0.84556 0.0
C2151 C 1.02188 0.30181 0.8354 0.0
C2152 C 1.05811 0.37302 0.84353 0.0
C2153 C 1.03104 0.31948 0.82329 0.0
C2154 C 1.05234 0.36131 0.82129 0.0
C2155 C 0.0884 0.43189 0.82927 0.0
C2156 C 0.10301 0.46018 0.83945 0.0
C2157 C 1.06636 0.38899 0.83128 0.0
C2158 C 0.09385 0.44242 0.85155 0.0
C2159 C 1.07226 0.40063 0.85353 0.0
H2160 H 0.77701 0.80117 0.6632 0.0
H2161 H 0.81418 0.78648 0.69976 0.0
H2162 H 0.80099 0.83721 0.7083 0.0
H2163 H 0.76572 0.87511 0.70598 0.0
H2164 H 0.72057 0.88037 0.66954 0.0
H2165 H 0.74764 0.84214 0.66048 0.0
C2166 C 0.78362 0.81029 0.67294 0.0
C2167 C 0.79621 0.7903 0.68089 0.0
C2168 C 0.77217 0.83598 0.67794 0.0
C2169 C 0.80485 0.80199 0.69347 0.0
C2170 C 0.79628 0.83017 0.6984 0.0
C2171 C 0.762 0.86784 0.69607 0.0
C2172 C 0.73988 0.8792 0.68854 0.0
C2173 C 0.77761 0.84548 0.69086 0.0
C2174 C 0.73589 0.8704 0.67565 0.0
C2175 C 0.75197 0.84916 0.6704 0.0
H2176 H 0.39987 1.04806 0.69992 0.0
H2177 H 0.31892 0.07287 0.68038 0.0
H2178 H 0.26464 1.00675 0.68563 0.0
H2179 H 0.24403 0.9385 0.69191 0.0
H2180 H 0.32776 0.91196 0.70891 0.0
H2181 H 0.37783 0.9821 0.70837 0.0
C2182 C 0.37023 1.03926 0.69705 0.0
C2183 C 0.3631 0.06479 0.68968 0.0
C2184 C 0.34015 1.00058 0.69937 0.0
C2185 C 0.32471 1.05331 0.68601 0.0
C2186 C 0.29396 1.01551 0.68891 0.0
C2187 C 0.27291 0.94833 0.69585 0.0
C2188 C 0.28241 0.92038 0.70047 0.0
C2189 C 0.30181 0.98828 0.69499 0.0
C2190 C 0.32004 0.93314 0.7053 0.0
C2191 C 0.34856 0.9731 0.70496 0.0
H2192 H 0.09891 0.39402 0.69989 0.0
H2193 H 1.05973 0.29988 0.67283 0.0
H2194 H 0.11983 0.29652 0.67618 0.0
H2195 H 0.18869 0.3308 0.68322 0.0
H2196 H 0.22916 0.4289 0.70889 0.0
H2197 H 0.16306 0.41994 0.70991 0.0
C2198 C 0.10304 0.37181 0.69508 0.0
C2199 C 1.07557 0.34746 0.68607 0.0
C2200 C 0.13817 0.37146 0.69663 0.0
C2201 C 0.08063 0.31869 0.67986 0.0
C2202 C 0.11518 0.31724 0.68164 0.0
C2203 C 0.18272 0.34966 0.68922 0.0
C2204 C 0.21373 0.3811 0.69573 0.0
C2205 C 0.14503 0.3451 0.68942 0.0
C2206 C 0.20574 0.40475 0.70374 0.0
C2207 C 0.16806 0.39978 0.70425 0.0
H2208 H 1.01103 0.70005 0.51999 0.0
H2209 H 0.9947 0.70343 0.48013 0.0
H2210 H 1.06569 0.73787 0.47703 0.0
H2211 H 0.13576 0.7685 0.48519 0.0
H2212 H 0.1525 0.76668 0.52507 0.0
H2213 H 0.08139 0.7319 0.52821 0.0
C2214 C 1.02252 0.70819 0.51056 0.0
C2215 C 0.99478 0.69787 0.50034 0.0
C2216 C 1.06528 0.72915 0.50869 0.0
C2217 C 1.01298 0.7099 0.48837 0.0
C2218 C 1.05461 0.73006 0.48652 0.0
C2219 C 0.12435 0.76075 0.49464 0.0
C2220 C 0.15215 0.77146 0.50484 0.0
C2221 C 0.08166 0.74011 0.49654 0.0
C2222 C 0.1341 0.75998 0.51685 0.0
C2223 C 0.09242 0.73957 0.51871 0.0
H2224 H 0.42659 0.32999 0.51904 0.0
H2225 H 0.44016 0.32545 0.47908 0.0
H2226 H 0.40586 0.36265 0.47582 0.0
H2227 H 0.37077 0.39866 0.48403 0.0
H2228 H 0.35668 0.40157 0.52407 0.0
H2229 H 0.39083 0.36457 0.52717 0.0
C2230 C 0.4222 0.33679 0.50954 0.0
C2231 C 0.43716 0.32353 0.49936 0.0
C2232 C 0.40152 0.3589 0.50759 0.0
C2233 C 0.42993 0.33402 0.48729 0.0
C2234 C 0.40989 0.35585 0.48536 0.0
C2235 C 0.37485 0.39135 0.4935 0.0
C2236 C 0.35978 0.40431 0.50377 0.0
C2237 C 0.39529 0.36884 0.49539 0.0
C2238 C 0.36675 0.39319 0.51578 0.0
C2239 C 0.38681 0.37151 0.51764 0.0
H2240 H 0.73526 0.99748 0.48531 0.0
H2241 H 0.72447 0.98233 0.52546 0.0
H2242 H 0.76174 1.05376 0.52827 0.0
H2243 H 0.79885 0.12383 0.51981 0.0
H2244 H 0.81146 0.13988 0.47977 0.0
H2245 H 0.77382 0.06816 0.47681 0.0
C2246 C 0.74084 1.00933 0.49475 0.0
C2247 C 0.72556 0.98175 0.50513 0.0
C2248 C 0.76357 1.0524 0.49647 0.0
C2249 C 0.73463 1.00043 0.51709 0.0
C2250 C 0.75647 1.04232 0.51878 0.0
C2251 C 0.79373 0.11214 0.51036 0.0
C2252 C 0.80941 0.13988 0.50006 0.0
C2253 C 0.77138 0.06919 0.5086 0.0
C2254 C 0.80101 0.12149 0.48806 0.0
C2255 C 0.77892 0.07949 0.48632 0.0
H2256 H 1.0381 0.69202 0.63662 0.0
H2257 H 1.00604 0.64132 0.67365 0.0
H2258 H 1.00514 0.58168 0.66628 0.0
H2259 H 1.02356 0.54919 0.65036 0.0
H2260 H 1.06694 0.60447 0.61447 0.0
H2261 H 1.05257 0.65707 0.62011 0.0
C2262 C 1.02936 0.66715 0.64291 0.0
C2263 C 1.02157 0.67045 0.65559 0.0
C2264 C 1.03116 0.63404 0.63876 0.0
C2265 C 1.01158 0.63889 0.66382 0.0
C2266 C 1.01125 0.60497 0.65961 0.0
C2267 C 1.02837 0.572 0.64362 0.0
C2268 C 1.0453 0.57287 0.63194 0.0
C2269 C 1.02235 0.6029 0.64724 0.0
C2270 C 1.0532 0.60318 0.6234 0.0
C2271 C 1.04524 0.6332 0.62668 0.0
H2272 H 0.46168 0.37938 0.64005 0.0
H2273 H 0.48952 0.40098 0.67949 0.0
H2274 H 0.53403 0.47079 0.67515 0.0
H2275 H 0.55881 0.52614 0.66059 0.0
H2276 H 0.52895 0.50604 0.62135 0.0
H2277 H 0.49045 0.43451 0.62518 0.0
C2278 C 0.4783 0.3991 0.64766 0.0
C2279 C 0.4722 0.38524 0.6601 0.0
C2280 C 0.50227 0.43937 0.64517 0.0
C2281 C 0.49374 0.41116 0.66986 0.0
C2282 C 0.51867 0.45106 0.66741 0.0
C2283 C 0.54342 0.50603 0.65292 0.0
C2284 C 0.54531 0.52087 0.64081 0.0
C2285 C 0.52186 0.46558 0.6552 0.0
C2286 C 0.52691 0.49486 0.63079 0.0
C2287 C 0.5053 0.45421 0.63297 0.0
H2288 H 0.73581 0.11434 0.67512 0.0
H2289 H 0.76913 0.12188 0.6362 0.0
H2290 H 0.70163 0.10123 0.62985 0.0
H2291 H 0.63123 0.07309 0.63563 0.0
H2292 H 0.59921 0.0589 0.6748 0.0
H2293 H 0.66789 0.0887 0.68081 0.0
C2294 C 0.72856 0.11202 0.66522 0.0
C2295 C 0.75732 0.11913 0.65616 0.0
C2296 C 0.68956 0.09761 0.66171 0.0
C2297 C 0.74752 0.11658 0.64338 0.0
C2298 C 0.7088 0.10422 0.63975 0.0
C2299 C 0.63954 0.07651 0.64545 0.0
C2300 C 0.61033 0.06298 0.65477 0.0
C2301 C 0.67926 0.09319 0.64886 0.0
C2302 C 0.62119 0.06797 0.66748 0.0
C2303 C 0.66043 0.08542 0.67092 0.0
H2304 H 0.35154 1.00725 0.18917 0.0
H2305 H 0.33701 0.99279 0.14909 0.0
H2306 H 0.4081 1.02635 0.14643 0.0
H2307 H 0.47772 0.06162 0.155 0.0
H2308 H 0.49308 0.07492 0.19505 0.0
H2309 H 0.42173 1.04149 0.19783 0.0
C2310 C 0.36344 1.01114 0.17978 0.0
C2311 C 0.33612 0.99617 0.16936 0.0
C2312 C 0.40632 1.03109 0.17817 0.0
C2313 C 0.35489 1.00281 0.15747 0.0
C2314 C 0.39659 1.02253 0.15588 0.0
C2315 C 0.46596 0.05735 0.16443 0.0
C2316 C 0.49344 0.07201 0.17478 0.0
C2317 C 0.4232 1.03709 0.16609 0.0
C2318 C 0.47494 0.06491 0.18672 0.0
C2319 C 0.43313 1.04539 0.18836 0.0
H2320 H 1.0578 0.43422 0.18759 0.0
H2321 H 1.05169 0.44487 0.14752 0.0
H2322 H 0.08749 0.40946 0.14438 0.0
H2323 H 0.12196 0.3734 0.15255 0.0
H2324 H 0.12763 0.36203 0.19259 0.0
H2325 H 0.09236 0.39806 0.19577 0.0
C2326 C 1.06413 0.42911 0.1781 0.0
C2327 C 1.05073 0.44365 0.16785 0.0
C2328 C 0.08558 0.40764 0.17618 0.0
C2329 C 1.06047 0.43522 0.1558 0.0
C2330 C 0.08146 0.41445 0.15392 0.0
C2331 C 0.1158 0.37864 0.16204 0.0
C2332 C 0.12886 0.36372 0.17227 0.0
C2333 C 0.09444 0.40016 0.16397 0.0
C2334 C 0.11912 0.37205 0.18433 0.0
C2335 C 0.09843 0.39315 0.18623 0.0
H2336 H 0.68588 0.64953 0.18799 0.0
H2337 H 0.6812 0.63296 0.14791 0.0
H2338 H 0.71817 0.70422 0.14486 0.0
H2339 H 0.75423 0.77468 0.15307 0.0
H2340 H 0.75957 0.79187 0.19311 0.0
H2341 H 0.72178 0.72044 0.19625 0.0
C2342 C 0.69255 0.66102 0.17852 0.0
C2343 C 0.67921 0.63309 0.16824 0.0
C2344 C 0.715 0.70402 0.17665 0.0
C2345 C 0.68978 0.65135 0.15622 0.0
C2346 C 0.7115 0.69316 0.15438 0.0
C2347 C 0.74727 0.7633 0.16256 0.0
C2348 C 0.76106 0.79132 0.17279 0.0
C2349 C 0.72467 0.7204 0.16446 0.0
C2350 C 0.7505 0.77329 0.18484 0.0
C2351 C 0.72837 0.73142 0.18671 0.0
H2352 H 0.41627 0.09452 0.99898 0.0
H2353 H 0.50218 0.12159 0.02813 0.0
H2354 H 0.4868 0.1702 0.03701 0.0
H2355 H 0.44626 0.20208 0.037 0.0
H2356 H 0.3604 0.17339 0.00761 0.0
H2357 H 0.37676 0.12616 0.99884 0.0
C2358 C 0.43207 0.11132 0.00719 0.0
C2359 C 0.46034 0.10454 0.0129 0.0
C2360 C 0.42196 0.1377 0.0125 0.0
C2361 C 0.4804 0.12653 0.02355 0.0
C2362 C 0.47129 0.1539 0.0287 0.0
C2363 C 0.43103 0.18539 0.02871 0.0
C2364 C 0.40182 0.19113 0.0231 0.0
C2365 C 0.44149 0.15908 0.02339 0.0
C2366 C 0.38217 0.16894 0.0124 0.0
C2367 C 0.39204 0.14241 0.00719 0.0
H2368 H 1.0546 0.36888 0.03575 0.0
H2369 H 0.98397 0.40065 0.01306 0.0
H2370 H 0.9244 0.34042 0.01982 0.0
H2371 H 0.8961 0.27208 0.02773 0.0
H2372 H 0.96907 0.23861 0.04861 0.0
H2373 H 1.02442 0.30585 0.04683 0.0
C2374 C 1.0259 0.36308 0.03263 0.0
C2375 C 1.02327 0.38865 0.02394 0.0
C2376 C 0.99261 0.32738 0.03582 0.0
C2377 C 0.98638 0.38129 0.01983 0.0
C2378 C 0.95255 0.34651 0.0235 0.0
C2379 C 0.92375 0.27984 0.03225 0.0
C2380 C 0.92878 0.25031 0.03813 0.0
C2381 C 0.95573 0.31824 0.03083 0.0
C2382 C 0.9648 0.2607 0.04386 0.0
C2383 C 0.99637 0.29909 0.04284 0.0
H2384 H 0.87047 0.69726 0.02915 0.0
H2385 H 0.9066 0.80471 0.00823 0.0
H2386 H 0.83809 0.78488 0.00428 0.0
H2387 H 0.76963 0.73464 0.00494 0.0
H2388 H 0.7309 0.62881 0.02679 0.0
H2389 H 0.79961 0.65024 0.03222 0.0
C2390 C 0.8633 0.7169 0.02407 0.0
C2391 C 0.89344 0.75222 0.01885 0.0
C2392 C 0.82385 0.70519 0.02179 0.0
C2393 C 0.88382 0.77719 0.01218 0.0
C2394 C 0.84478 0.76581 0.00988 0.0
C2395 C 0.77607 0.71623 0.01093 0.0
C2396 C 0.7456 0.67987 0.01525 0.0
C2397 C 0.81484 0.72933 0.01427 0.0
C2398 C 0.75419 0.65673 0.02326 0.0
C2399 C 0.79328 0.66908 0.02638 0.0
H2400 H 0.80576 0.1042 0.85484 0.0
H2401 H 0.82255 0.09972 0.81504 0.0
H2402 H 0.75147 0.06489 0.81194 0.0
H2403 H 0.68128 1.03367 0.82012 0.0
H2404 H 0.66428 1.03755 0.85992 0.0
H2405 H 0.73543 0.07297 0.86304 0.0
C2406 C 0.79435 0.0959 0.84541 0.0
C2407 C 0.82219 0.10597 0.83522 0.0
C2408 C 0.75163 0.07484 0.84354 0.0
C2409 C 0.80415 0.09358 0.82326 0.0
C2410 C 0.7625 0.07315 0.82141 0.0
C2411 C 0.69265 1.04215 0.82955 0.0
C2412 C 0.66477 1.03177 0.83974 0.0
C2413 C 0.73535 0.06328 0.83142 0.0
C2414 C 0.68275 1.04407 0.85171 0.0
C2415 C 0.72443 0.0648 0.85356 0.0
H2416 H 1.03721 0.73037 0.8206 0.0
H2417 H 1.0276 0.73764 0.86066 0.0
H2418 H 1.06286 0.70144 0.86373 0.0
H2419 H 0.09846 0.66633 0.8554 0.0
H2420 H 0.10614 0.65754 0.8153 0.0
H2421 H 1.07124 0.69397 0.81229 0.0
C2422 C 1.0425 0.72419 0.83008 0.0
C2423 C 1.02843 0.73807 0.84035 0.0
C2424 C 1.06339 0.70219 0.83192 0.0
C2425 C 1.03688 0.72841 0.85238 0.0
C2426 C 1.05759 0.70725 0.8542 0.0
C2427 C 0.09267 0.67207 0.84593 0.0
C2428 C 0.10628 0.65781 0.83563 0.0
C2429 C 1.07134 0.69371 0.84411 0.0
C2430 C 0.0971 0.66689 0.82361 0.0
C2431 C 1.07668 0.68829 0.82182 0.0
H2432 H 0.3973 0.33035 0.81846 0.0
H2433 H 0.40581 0.31343 0.85803 0.0
H2434 H 0.44437 0.38496 0.86097 0.0
H2435 H 0.47718 0.45559 0.85269 0.0
H2436 H 0.46833 0.47239 0.81312 0.0
H2437 H 0.43024 0.40087 0.81017 0.0
C2438 C 0.40746 0.34183 0.8278 0.0
C2439 C 0.39737 0.3139 0.83797 0.0
C2440 C 0.4305 0.38475 0.82956 0.0
C2441 C 0.41195 0.33197 0.84983 0.0
C2442 C 0.43451 0.37386 0.85158 0.0
C2443 C 0.46721 0.44408 0.84334 0.0
C2444 C 0.47706 0.47199 0.83316 0.0
C2445 C 0.44427 0.40114 0.84157 0.0
C2446 C 0.46248 0.45387 0.82131 0.0
C2447 C 0.44015 0.41199 0.81956 0.0
H2448 H 0.70322 0.88131 0.99002 0.0
H2449 H 0.75519 0.93707 0.95485 0.0
H2450 H 0.73372 0.9858 0.95824 0.0
H2451 H 0.70676 1.01617 0.97243 0.0
H2452 H 0.66157 0.96381 0.00865 0.0
H2453 H 0.67347 0.90961 0.00367 0.0
C2454 C 0.70912 0.90381 0.98303 0.0
C2455 C 0.73034 0.90591 0.9722 0.0
C2456 C 0.69776 0.93197 0.98525 0.0
C2457 C 0.73864 0.93518 0.96321 0.0
C2458 C 0.72638 0.96284 0.96516 0.0
C2459 C 0.69809 0.99202 0.97901 0.0
C2460 C 0.68293 0.99353 0.99083 0.0
C2461 C 0.70659 0.96193 0.97628 0.0
C2462 C 0.67289 0.96284 0.99945 0.0
C2463 C 0.67991 0.93206 0.99663 0.0
H2464 H 0.11732 0.71106 0.01746 0.0
H2465 H 0.16306 0.69337 0.9829 0.0
H2466 H 0.21716 0.76177 0.98353 0.0
H2467 H 0.2386 0.8295 0.99059 0.0
H2468 H 0.18395 0.84842 0.02296 0.0
H2469 H 0.145 0.7771 0.02633 0.0
C2470 C 0.14042 0.72182 0.01043 0.0
C2471 C 0.13619 0.69795 1.00004 0.0
C2472 C 0.16794 0.76211 0.01002 0.0
C2473 C 0.16594 0.71149 0.99098 0.0
C2474 C 0.19608 0.75089 0.99115 0.0
C2475 C 0.21817 0.81791 0.99839 0.0
C2476 C 0.21296 0.84385 0.00627 0.0
C2477 C 0.19517 0.77704 1.00002 0.0
C2478 C 0.18775 0.82883 0.01665 0.0
C2479 C 0.16562 0.78816 0.01859 0.0
H2480 H 0.2932 0.42295 0.97461 0.0
H2481 H 0.25584 0.31012 0.99231 0.0
H2482 H 0.32369 0.33061 0.9975 0.0
H2483 H 0.39183 0.38173 0.99842 0.0
H2484 H 0.43255 0.49164 0.9788 0.0
H2485 H 0.36431 0.47152 0.97306 0.0
C2486 C 0.29999 0.4024 0.97927 0.0
C2487 C 0.26947 0.36521 0.98324 0.0
C2488 C 0.33918 0.41422 0.98211 0.0
C2489 C 0.27874 0.33911 0.98938 0.0
C2490 C 0.31743 0.35081 0.99237 0.0
C2491 C 0.38592 0.40119 0.9928 0.0
C2492 C 0.4168 0.43817 0.98915 0.0
C2493 C 0.34755 0.38859 0.98908 0.0
C2494 C 0.40892 0.46312 0.98179 0.0
C2495 C 0.37011 0.45149 0.97847 0.0
H2496 H 0.14857 0.40335 0.52199 0.0
H2497 H 0.16599 0.40738 0.48196 0.0
H2498 H 0.09518 0.37257 0.47874 0.0
H2499 H 1.02496 0.33969 0.48677 0.0
H2500 H 1.00666 0.3351 0.52673 0.0
H2501 H 1.07774 0.36969 0.53007 0.0
C2502 C 0.13737 0.39676 0.51249 0.0
C2503 C 0.16544 0.40931 0.50227 0.0
C2504 C 0.09461 0.37574 0.51052 0.0
C2505 C 0.14753 0.39924 0.49022 0.0
C2506 C 0.10597 0.37883 0.48829 0.0
C2507 C 1.03601 0.34591 0.49629 0.0
C2508 C 1.00779 0.33341 0.50643 0.0
C2509 C 1.07863 0.36667 0.4983 0.0
C2510 C 1.0254 0.34317 0.51853 0.0
C2511 C 1.06705 0.36347 0.52051 0.0
H2512 H 0.72882 0.77132 0.52163 0.0
H2513 H 0.72187 0.78352 0.48168 0.0
H2514 H 0.7577 0.74814 0.47816 0.0
H2515 H 0.79237 0.71183 0.48599 0.0
H2516 H 0.7987 0.69876 0.52591 0.0
H2517 H 0.76343 0.73478 0.52947 0.0
C2518 C 0.73496 0.76654 0.51208 0.0
C2519 C 0.72137 0.7815 0.50198 0.0
C2520 C 0.75637 0.74513 0.50996 0.0
C2521 C 0.73083 0.77352 0.48985 0.0
C2522 C 0.75183 0.75279 0.48776 0.0
C2523 C 0.78638 0.71672 0.49554 0.0
C2524 C 0.79963 0.70138 0.50562 0.0
C2525 C 0.76503 0.73814 0.49768 0.0
C2526 C 0.79007 0.70917 0.51777 0.0
C2527 C 0.76939 0.73024 0.51987 0.0
H2528 H 0.36533 0.98461 0.52088 0.0
H2529 H 0.34535 0.96739 0.48105 0.0
H2530 H 0.38141 1.03873 0.47783 0.0
H2531 H 0.42053 0.10938 0.48587 0.0
H2532 H 0.43967 0.12676 0.52574 0.0
H2533 H 0.40365 0.05538 0.52897 0.0
C2534 C 0.36854 0.99599 0.51143 0.0
C2535 C 0.35123 0.96796 0.50127 0.0
C2536 C 0.39008 1.0389 0.50948 0.0
C2537 C 0.35716 0.98596 0.48926 0.0
C2538 C 0.37831 1.02777 0.48734 0.0
C2539 C 0.41701 0.09803 0.49534 0.0
C2540 C 0.43412 0.12608 0.5055 0.0
C2541 C 0.39523 1.05515 0.49731 0.0
C2542 C 0.42786 0.10814 0.51753 0.0
C2543 C 0.4068 0.06632 0.51946 0.0
H2544 H 0.09756 0.53014 0.37166 0.0
H2545 H 1.04716 0.51755 0.33476 0.0
H2546 H 1.07579 0.47814 0.32804 0.0
H2547 H 0.11502 0.44777 0.33233 0.0
H2548 H 0.16428 0.45668 0.36918 0.0
H2549 H 0.138 0.49895 0.376 0.0
C2550 C 0.09259 0.51842 0.3622 0.0
C2551 C 1.06952 0.5262 0.35383 0.0
C2552 C 0.10973 0.49604 0.35827 0.0
C2553 C 1.06362 0.51103 0.34156 0.0
C2554 C 0.08057 0.48902 0.33761 0.0
C2555 C 0.12043 0.45913 0.34185 0.0
C2556 C 0.14143 0.44889 0.35025 0.0
C2557 C 0.1038 0.48159 0.34584 0.0
C2558 C 0.14829 0.46422 0.36251 0.0
C2559 C 0.13284 0.48795 0.36645 0.0
H2560 H 0.72235 0.72597 0.37131 0.0
H2561 H 0.66039 0.75296 0.34328 0.0
H2562 H 0.59867 0.69414 0.34933 0.0
H2563 H 0.56747 0.62815 0.35872 0.0
H2564 H 0.63235 0.59779 0.38469 0.0
H2565 H 0.68774 0.66534 0.38366 0.0
C2566 C 0.69487 0.71975 0.36695 0.0
C2567 C 0.69538 0.74324 0.35692 0.0
C2568 C 0.66031 0.68501 0.37001 0.0
C2569 C 0.66021 0.73523 0.35113 0.0
C2570 C 0.62515 0.70143 0.35449 0.0
C2571 C 0.59308 0.63685 0.36457 0.0
C2572 C 0.5962 0.6082 0.37169 0.0
C2573 C 0.62544 0.67497 0.36337 0.0
C2574 C 0.62962 0.61948 0.37911 0.0
C2575 C 0.66128 0.65794 0.37844 0.0
H2576 H 0.42984 1.03078 0.32472 0.0
H2577 H 0.39887 0.97792 0.36156 0.0
H2578 H 0.46867 1.00259 0.36603 0.0
H2579 H 0.53825 1.0414 0.35946 0.0
H2580 H 0.56657 0.10415 0.32412 0.0
H2581 H 0.49724 0.07454 0.31931 0.0
C2582 C 0.43798 1.02451 0.3338 0.0
C2583 C 0.40912 1.00278 0.34285 0.0
C2584 C 0.47766 1.04147 0.33666 0.0
C2585 C 0.42055 0.99456 0.35443 0.0
C2586 C 0.4604 1.00916 0.35704 0.0
C2587 C 0.52937 1.04962 0.35088 0.0
C2588 C 0.55777 0.07436 0.34203 0.0
C2589 C 0.48924 1.0335 0.34831 0.0
C2590 C 0.54548 0.08428 0.33092 0.0
C2591 C 0.50584 0.06734 0.32814 0.0
H2592 H 0.12748 0.43415 0.05423 0.0
H2593 H 0.1823 0.38256 0.03197 0.0
H2594 H 0.19298 0.35368 0.05082 0.0
H2595 H 0.18794 0.34378 0.07373 0.0
H2596 H 0.1314 0.39375 0.09592 0.0
H2597 H 0.12086 0.42274 0.07709 0.0
C2598 C 0.14186 0.41668 0.05348 0.0
C2599 C 0.15418 0.41085 0.04161 0.0
C2600 C 0.14782 0.39986 0.0644 0.0
C2601 C 0.17245 0.38772 0.04091 0.0
C2602 C 0.17864 0.37114 0.05172 0.0
C2603 C 0.17286 0.36058 0.07448 0.0
C2604 C 0.16071 0.3665 0.08638 0.0
C2605 C 0.1665 0.37701 0.06353 0.0
C2606 C 0.14179 0.38906 0.08702 0.0
C2607 C 0.13547 0.40553 0.0762 0.0
H2608 H 0.66826 0.74019 0.05382 0.0
H2609 H 0.78063 0.79401 0.03504 0.0
H2610 H 0.81268 0.83075 0.05399 0.0
H2611 H 0.80946 0.84852 0.07591 0.0
H2612 H 0.69762 0.79544 0.09489 0.0
H2613 H 0.66522 0.75748 0.07603 0.0
C2614 C 0.69977 0.75984 0.05386 0.0
C2615 C 0.72174 0.76417 0.04287 0.0
C2616 C 0.71836 0.78116 0.0649 0.0
C2617 C 0.76266 0.78992 0.04324 0.0
C2618 C 0.78118 0.81108 0.05412 0.0
C2619 C 0.77793 0.82892 0.07593 0.0
C2620 C 0.75617 0.82519 0.08691 0.0
C2621 C 0.75937 0.80716 0.065 0.0
C2622 C 0.71537 0.79884 0.0867 0.0
C2623 C 0.69671 0.7772 0.07585 0.0
H2624 H 0.29441 0.99334 0.0782 0.0
H2625 H 0.34266 0.92609 0.09484 0.0
H2626 H 0.38033 0.9338 0.07574 0.0
H2627 H 0.39824 0.95808 0.0539 0.0
H2628 H 0.34955 1.0256 0.03763 0.0
H2629 H 0.31425 1.01982 0.05696 0.0
C2630 C 0.31362 0.98086 0.07777 0.0
C2631 C 0.31544 0.95907 0.08802 0.0
C2632 C 0.33528 0.98542 0.06674 0.0
C2633 C 0.3401 0.94257 0.08709 0.0
C2634 C 0.36188 0.94713 0.07616 0.0
C2635 C 0.38022 0.97185 0.05463 0.0
C2636 C 0.3767 0.99218 0.04422 0.0
C2637 C 0.35949 0.96822 0.06586 0.0
C2638 C 0.35292 1.00961 0.04539 0.0
C2639 C 0.33257 1.00634 0.05648 0.0
H2640 H 0.48467 0.17254 0.41001 0.0
H2641 H 0.37134 0.13161 0.42712 0.0
H2642 H 0.33914 0.09329 0.40829 0.0
H2643 H 0.34289 0.07333 0.38649 0.0
H2644 H 0.45672 0.11515 0.36951 0.0
H2645 H 0.48854 0.15103 0.38862 0.0
C2646 C 0.4529 0.15544 0.40963 0.0
C2647 C 0.43063 0.15536 0.42005 0.0
C2648 C 0.43447 0.13349 0.39871 0.0
C2649 C 0.38944 0.13218 0.41937 0.0
C2650 C 0.37091 0.11034 0.40854 0.0
C2651 C 0.37467 0.08997 0.38698 0.0
C2652 C 0.39716 0.09134 0.37644 0.0
C2653 C 0.39308 0.11095 0.39809 0.0
C2654 C 0.43839 0.11335 0.37737 0.0
C2655 C 0.45676 0.13407 0.38833 0.0
H2656 H 1.01625 0.33587 0.37374 0.0
H2657 H 0.11391 0.33269 0.39103 0.0
H2658 H 0.08225 0.32151 0.4115 0.0
H2659 H 1.02555 0.3101 0.42457 0.0
H2660 H 0.92752 0.31221 0.40717 0.0
H2661 H 0.96033 0.32594 0.38684 0.0
C2662 C 1.03083 0.33311 0.38199 0.0
C2663 C 1.06756 0.33522 0.38075 0.0
C2664 C 1.01213 0.32605 0.3938 0.0
C2665 C 0.08566 0.33116 0.39161 0.0
C2666 C 1.06752 0.3247 0.40337 0.0
C2667 C 1.01149 0.31388 0.41635 0.0
C2668 C 0.97383 0.30973 0.41747 0.0
C2669 C 1.03056 0.32171 0.40459 0.0
C2670 C 0.95609 0.31447 0.40663 0.0
C2671 C 0.97499 0.3226 0.39497 0.0
H2672 H 0.8152 0.79388 0.38806 0.0
H2673 H 0.84634 0.72305 0.36481 0.0
H2674 H 0.85667 0.69329 0.38348 0.0
H2675 H 0.85603 0.6864 0.40642 0.0
H2676 H 0.82657 0.75836 0.42974 0.0
H2677 H 0.816 0.78801 0.41107 0.0
C2678 C 0.82431 0.77199 0.38704 0.0
C2679 C 0.82996 0.76088 0.37496 0.0
C2680 C 0.83035 0.75491 0.39787 0.0
C2681 C 0.84179 0.73238 0.37392 0.0
C2682 C 0.8477 0.71523 0.38463 0.0
C2683 C 0.84779 0.70892 0.40747 0.0
C2684 C 0.84211 0.71992 0.41958 0.0
C2685 C 0.84206 0.72623 0.39666 0.0
C2686 C 0.83066 0.74872 0.42061 0.0
C2687 C 0.82481 0.76595 0.40991 0.0
H2688 H 1.01566 0.72323 0.91807 0.0
H2689 H 0.92447 0.74281 0.93295 0.0
H2690 H 0.92993 0.71758 0.95328 0.0
H2691 H 0.96137 0.69127 0.96712 0.0
H2692 H 1.05014 0.66829 0.95218 0.0
H2693 H 1.04435 0.69288 0.93164 0.0
C2694 C 0.99653 0.72146 0.92569 0.0
C2695 C 0.97006 0.73559 0.92391 0.0
C2696 C 0.99943 0.70635 0.93742 0.0
C2697 C 0.94582 0.73318 0.93402 0.0
C2698 C 0.94873 0.71849 0.94568 0.0
C2699 C 0.97951 0.69165 0.95938 0.0
C2700 C 1.00641 0.67822 0.96126 0.0
C2701 C 0.97572 0.70541 0.94754 0.0
C2702 C 1.02922 0.67845 0.95104 0.0
C2703 C 1.02596 0.69258 0.93928 0.0
H2704 H 0.34959 0.26458 0.92893 0.0
H2705 H 0.46157 0.30902 0.91049 0.0
H2706 H 0.49473 0.34963 0.92884 0.0
H2707 H 0.49232 0.37096 0.9506 0.0
H2708 H 0.37977 0.3253 0.96887 0.0
H2709 H 0.34696 0.28682 0.95028 0.0
C2710 C 0.38129 0.28291 0.92892 0.0
C2711 C 0.40287 0.28336 0.91826 0.0
C2712 C 0.40029 0.30608 0.93957 0.0
C2713 C 0.44395 0.30814 0.91843 0.0
C2714 C 0.46305 0.33129 0.929 0.0
C2715 C 0.4606 0.3528 0.9505 0.0
C2716 C 0.43879 0.35116 0.96126 0.0
C2717 C 0.44158 0.33034 0.93968 0.0
C2718 C 0.39761 0.32725 0.96085 0.0
C2719 C 0.37866 0.30509 0.95017 0.0
H2720 H 0.86551 0.10869 0.93082 0.0
H2721 H 0.81321 0.17136 0.91353 0.0
H2722 H 0.77568 0.16378 0.93257 0.0
H2723 H 0.75869 0.14111 0.95442 0.0
H2724 H 0.80982 0.07728 0.97167 0.0
H2725 H 0.84591 0.08301 0.95239 0.0
C2726 C 0.84553 0.12026 0.93112 0.0
C2727 C 0.84278 0.14098 0.92065 0.0
C2728 C 0.82364 0.11563 0.94217 0.0
C2729 C 0.81683 0.15601 0.92142 0.0
C2730 C 0.79503 0.15148 0.93233 0.0
C2731 C 0.77753 0.12821 0.95398 0.0
C2732 C 0.7815 0.10898 0.96463 0.0
C2733 C 0.79845 0.13169 0.94282 0.0
C2734 C 0.80616 0.09247 0.96374 0.0
C2735 C 0.82692 0.09574 0.95267 0.0
H2736 H 0.76477 0.96227 0.5881 0.0
H2737 H 0.64441 0.92895 0.59581 0.0
H2738 H 0.66361 0.96152 0.61629 0.0
H2739 H 0.71514 0.99947 0.63229 0.0
H2740 H 0.83524 1.03239 0.62384 0.0
H2741 H 0.81555 1.00064 0.60353 0.0
C2742 C 0.74269 0.96255 0.59414 0.0
C2743 C 0.70314 0.9431 0.59029 0.0
C2744 C 0.75391 0.98137 0.60592 0.0
C2745 C 0.67503 0.94324 0.59849 0.0
C2746 C 0.68603 0.96206 0.61023 0.0
C2747 C 0.73697 0.99973 0.626 0.0
C2748 C 0.77672 1.01855 0.62975 0.0
C2749 C 0.72545 0.98113 0.61411 0.0
C2750 C 0.80446 1.01843 0.62136 0.0
C2751 C 0.79326 1.00015 0.60966 0.0
H2752 H 0.16715 0.82794 0.58486 0.0
H2753 H 0.21494 0.75355 0.59524 0.0
H2754 H 0.18336 0.74179 0.61572 0.0
H2755 H 0.14396 0.75421 0.63111 0.0
H2756 H 0.09524 0.82775 0.62071 0.0
H2757 H 0.12464 0.83744 0.59989 0.0
C2758 C 0.17026 0.80868 0.5915 0.0
C2759 C 0.19397 0.79208 0.58841 0.0
C2760 C 0.15178 0.80182 0.60336 0.0
C2761 C 0.19771 0.76751 0.59733 0.0
C2762 C 0.17941 0.76052 0.60907 0.0
C2763 C 0.13955 0.77223 0.62429 0.0
C2764 C 0.11743 0.79036 0.62762 0.0
C2765 C 0.15675 0.77788 0.61227 0.0
C2766 C 0.11204 0.81339 0.61853 0.0
C2767 C 0.12898 0.81906 0.60657 0.0
H2768 H 0.36966 0.45272 0.59464 0.0
H2769 H 0.29644 0.3372 0.57855 0.0
H2770 H 0.3042 0.30642 0.59741 0.0
H2771 H 0.32958 0.31185 0.61886 0.0
H2772 H 0.40324 0.42728 0.63495 0.0
H2773 H 0.39809 0.45822 0.61569 0.0
C2774 C 0.35584 0.42082 0.59515 0.0
C2775 C 0.33217 0.39747 0.58512 0.0
C2776 C 0.36048 0.40313 0.60609 0.0
C2777 C 0.3142 0.35609 0.58614 0.0
C2778 C 0.31881 0.33837 0.59693 0.0
C2779 C 0.34487 0.34379 0.61814 0.0
C2780 C 0.36659 0.36706 0.62845 0.0
C2781 C 0.34151 0.36154 0.60703 0.0
C2782 C 0.38605 0.40846 0.62726 0.0
C2783 C 0.38311 0.42627 0.61622 0.0
H2784 H 1.0131 0.40295 0.72064 0.0
H2785 H 0.09217 0.50576 0.69901 0.0
H2786 H 0.12148 0.54228 0.71825 0.0
H2787 H 0.12575 0.54522 0.74122 0.0
H2788 H 1.04586 0.4434 0.76304 0.0
H2789 H 1.01643 0.40648 0.74379 0.0
C2790 C 1.03673 0.43334 0.72011 0.0
C2791 C 1.05026 0.45138 0.7083 0.0
C2792 C 1.05357 0.45448 0.73129 0.0
C2793 C 0.08093 0.49091 0.70789 0.0
C2794 C 0.09784 0.51194 0.71893 0.0
C2795 C 0.10154 0.51513 0.74181 0.0
C2796 C 0.08821 0.49732 0.75367 0.0
C2797 C 0.08444 0.49407 0.73068 0.0
C2798 C 1.05725 0.45791 0.75412 0.0
C2799 C 1.04018 0.43676 0.74308 0.0
H2800 H 0.74116 0.67918 0.71803 0.0
H2801 H 0.63406 0.62784 0.69641 0.0
H2802 H 0.59595 0.61657 0.71555 0.0
H2803 H 0.59228 0.62028 0.73851 0.0
H2804 H 0.69909 0.67271 0.76026 0.0
H2805 H 0.73747 0.68385 0.74112 0.0
C2806 C 0.70949 0.66554 0.71747 0.0
C2807 C 0.69078 0.65446 0.70565 0.0
C2808 C 0.68741 0.65906 0.72862 0.0
C2809 C 0.64958 0.63683 0.70526 0.0
C2810 C 0.62759 0.63029 0.71626 0.0
C2811 C 0.62399 0.63458 0.73911 0.0
C2812 C 0.64245 0.64551 0.75097 0.0
C2813 C 0.64612 0.64125 0.728 0.0
C2814 C 0.68369 0.66334 0.7514 0.0
C2815 C 0.70583 0.67001 0.7404 0.0
H2816 H 0.46111 1.03867 0.70867 0.0
H2817 H 0.51901 0.16088 0.72026 0.0
H2818 H 0.53029 0.14238 0.74102 0.0
H2819 H 0.5247 0.09185 0.75594 0.0
H2820 H 0.46788 0.96976 0.74436 0.0
H2821 H 0.45464 0.98786 0.72376 0.0
C2822 C 0.47623 0.06133 0.71572 0.0
C2823 C 0.48929 0.10123 0.71278 0.0
C2824 C 0.48266 1.05049 0.72774 0.0
C2825 C 0.50858 0.12997 0.72215 0.0
C2826 C 0.5151 0.11942 0.73407 0.0
C2827 C 0.50962 0.06915 0.74891 0.0
C2828 C 0.49742 1.02941 0.75181 0.0
C2829 C 0.50247 0.07981 0.73697 0.0
C2830 C 0.47723 1.00049 0.74256 0.0
C2831 C 0.46991 1.01087 0.73069 0.0
H2832 H 0.6828 1.05356 0.25203 0.0
H2833 H 0.60045 0.08438 0.26792 0.0
H2834 H 0.60701 0.06047 0.28836 0.0
H2835 H 0.63652 1.03124 0.30202 0.0
H2836 H 0.71619 0.99726 0.28594 0.0
H2837 H 0.70973 1.02129 0.26544 0.0
C2838 C 0.66578 1.05459 0.25989 0.0
C2839 C 0.6415 0.07142 0.25829 0.0
C2840 C 0.66921 1.04014 0.27171 0.0
C2841 C 0.62014 0.07263 0.26877 0.0
C2842 C 0.62365 0.05864 0.28052 0.0
C2843 C 0.65248 1.02906 0.29403 0.0
C2844 C 0.6769 1.01244 0.29561 0.0
C2845 C 0.64832 1.04261 0.28215 0.0
C2846 C 0.69706 1.0097 0.28507 0.0
C2847 C 0.69344 1.02355 0.2733 0.0
H2848 H 1.05633 0.65686 0.29728 0.0
H2849 H 0.17763 0.71319 0.28555 0.0
H2850 H 0.15761 0.6838 0.26481 0.0
H2851 H 0.10606 0.64147 0.24992 0.0
H2852 H 0.98474 0.58391 0.26154 0.0
H2853 H 1.00439 0.61488 0.28217 0.0
C2854 C 1.07843 0.66273 0.2902 0.0
C2855 C 0.11854 0.68725 0.29311 0.0
C2856 C 1.06672 0.64564 0.27817 0.0
C2857 C 0.14657 0.69455 0.2837 0.0
C2858 C 0.13516 0.67769 0.27178 0.0
C2859 C 0.08384 0.63544 0.25696 0.0
C2860 C 1.04389 0.61021 0.25407 0.0
C2861 C 0.09537 0.65304 0.26891 0.0
C2862 C 1.01566 0.60353 0.26334 0.0
C2863 C 1.0269 0.62102 0.27523 0.0
H2864 H 0.47196 0.44894 0.24952 0.0
H2865 H 0.58004 0.5507 0.26155 0.0
H2866 H 0.55136 0.54819 0.28201 0.0
H2867 H 0.49655 0.51605 0.29691 0.0
H2868 H 0.38723 0.41637 0.28481 0.0
H2869 H 0.41516 0.4197 0.26401 0.0
C2870 C 0.48912 0.47099 0.25652 0.0
C2871 C 0.52855 0.49956 0.25392 0.0
C2872 C 0.47221 0.46977 0.26834 0.0
C2873 C 0.55009 0.52765 0.26327 0.0
C2874 C 0.5336 0.52645 0.27501 0.0
C2875 C 0.47873 0.49508 0.28972 0.0
C2876 C 0.43986 0.4658 0.29251 0.0
C2877 C 0.49489 0.49734 0.27773 0.0
C2878 C 0.41718 0.43925 0.28298 0.0
C2879 C 0.43321 0.44107 0.27106 0.0
H2880 H 0.0879 0.29059 0.30197 0.0
H2881 H 0.21106 0.35526 0.3114 0.0
H2882 H 0.2281 0.35279 0.28945 0.0
H2883 H 0.20795 0.3326 0.26746 0.0
H2884 H 0.08459 0.26932 0.2582 0.0
H2885 H 1.0679 0.27066 0.28017 0.0
C2886 C 0.11853 0.304 0.29928 0.0
C2887 C 0.14812 0.32302 0.30841 0.0
C2888 C 0.12814 0.30273 0.28661 0.0
C2889 C 0.18761 0.34034 0.30464 0.0
C2890 C 0.19739 0.339 0.29205 0.0
C2891 C 0.1774 0.3194 0.2702 0.0
C2892 C 0.14762 0.30081 0.26107 0.0
C2893 C 0.1679 0.32046 0.28293 0.0
C2894 C 0.1082 0.28336 0.26495 0.0
C2895 C 0.09858 0.28428 0.27754 0.0
H2896 H 0.76708 0.79478 0.3 0.0
H2897 H 0.83573 0.91531 0.31278 0.0
H2898 H 0.84432 0.9387 0.29111 0.0
H2899 H 0.83444 0.92486 0.26846 0.0
H2900 H 0.76803 0.80409 0.2557 0.0
H2901 H 0.75626 0.78105 0.2774 0.0
C2902 C 0.78358 0.82622 0.29808 0.0
C2903 C 0.80074 0.85322 0.30806 0.0
C2904 C 0.78903 0.83946 0.28556 0.0
C2905 C 0.82223 0.89382 0.30532 0.0
C2906 C 0.82727 0.90724 0.29291 0.0
C2907 C 0.81766 0.89345 0.2704 0.0
C2908 C 0.80232 0.86632 0.26037 0.0
C2909 C 0.8113 0.8803 0.28294 0.0
C2910 C 0.77993 0.82577 0.26316 0.0
C2911 C 0.77331 0.81251 0.27559 0.0
H2912 H 0.25685 0.96664 0.30624 0.0
H2913 H 0.33183 0.09123 0.29909 0.0
H2914 H 0.31481 0.08095 0.27693 0.0
H2915 H 0.28003 1.03653 0.25924 0.0
H2916 H 0.20456 0.91215 0.26624 0.0
H2917 H 0.22029 0.92242 0.28859 0.0
C2918 C 0.26914 0.99161 0.29987 0.0
C2919 C 0.29571 1.02964 0.30444 0.0
C2920 C 0.25936 0.98553 0.28699 0.0
C2921 C 0.31139 0.06155 0.29594 0.0
C2922 C 0.30176 0.05573 0.2832 0.0
C2923 C 0.2672 1.01167 0.26565 0.0
C2924 C 0.24117 0.97363 0.26101 0.0
C2925 C 0.27615 1.01782 0.27856 0.0
C2926 C 0.22443 0.94182 0.26952 0.0
C2927 C 0.23349 0.94765 0.28233 0.0
H2928 H 1.06339 0.83041 0.7473 0.0
H2929 H 0.93989 0.74634 0.74351 0.0
H2930 H 0.94861 0.74066 0.72106 0.0
H2931 H 0.99158 0.75936 0.7023 0.0
H2932 H 0.11497 0.84376 0.70639 0.0
H2933 H 0.1058 0.84981 0.72869 0.0
C2934 C 1.03826 0.81106 0.74157 0.0
C2935 C 1.00107 0.78874 0.74721 0.0
C2936 C 1.04341 0.80802 0.72861 0.0
C2937 C 0.96905 0.76343 0.73955 0.0
C2938 C 0.97393 0.76037 0.72665 0.0
C2939 C 1.01637 0.77926 0.70806 0.0
C2940 C 1.05395 0.80089 0.7026 0.0
C2941 C 1.01101 0.78248 0.72104 0.0
C2942 C 0.08575 0.82639 0.71028 0.0
C2943 C 0.08057 0.82998 0.72309 0.0
H2944 H 0.38112 0.25059 0.70015 0.0
H2945 H 0.27993 0.26622 0.70133 0.0
H2946 H 0.27112 0.24972 0.72359 0.0
H2947 H 0.29418 0.23479 0.74306 0.0
H2948 H 0.39596 0.22009 0.74227 0.0
H2949 H 0.40285 0.23293 0.71971 0.0
C2950 C 0.35678 0.24968 0.70525 0.0
C2951 C 0.33116 0.25951 0.69906 0.0
C2952 C 0.35236 0.24105 0.71822 0.0
C2953 C 0.30011 0.25882 0.70585 0.0
C2954 C 0.2951 0.24952 0.71862 0.0
C2955 C 0.31764 0.23394 0.73796 0.0
C2956 C 0.3446 0.22669 0.74446 0.0
C2957 C 0.3214 0.24124 0.72495 0.0
C2958 C 0.37513 0.2263 0.73762 0.0
C2959 C 0.37893 0.2333 0.72466 0.0
H2960 H 0.94124 0.16625 0.73997 0.0
H2961 H 0.84631 0.05685 0.75433 0.0
H2962 H 0.82015 1.03713 0.73311 0.0
H2963 H 0.82429 1.05068 0.71047 0.0
H2964 H 0.9187 0.16038 0.69607 0.0
H2965 H 0.94521 0.17988 0.71726 0.0
C2966 C 0.91499 0.13793 0.73846 0.0
C2967 C 0.89588 0.11308 0.7488 0.0
C2968 C 0.90003 0.12674 0.7262 0.0
C2969 C 0.86147 0.0768 0.74663 0.0
C2970 C 0.84659 0.06538 0.73446 0.0
C2971 C 0.85069 0.07884 0.71192 0.0
C2972 C 0.86937 0.10394 0.7016 0.0
C2973 C 0.86562 0.09009 0.72417 0.0
C2974 C 0.90357 0.14039 0.70377 0.0
C2975 C 0.91879 0.15161 0.71591 0.0
H2976 H 0.80397 0.62392 0.63851 0.0
H2977 H 0.80428 0.73298 0.63171 0.0
H2978 H 0.81725 0.7296 0.6095 0.0
H2979 H 0.82605 0.69466 0.59173 0.0
H2980 H 0.82574 0.58549 0.5983 0.0
H2981 H 0.81464 0.58966 0.62065 0.0
C2982 C 0.80733 0.64716 0.63219 0.0
C2983 C 0.80318 0.6787 0.63685 0.0
C2984 C 0.81426 0.64477 0.61928 0.0
C2985 C 0.80724 0.70831 0.62845 0.0
C2986 C 0.81459 0.70639 0.6157 0.0
C2987 C 0.82394 0.67191 0.59804 0.0
C2988 C 0.82655 0.63968 0.59319 0.0
C2989 C 0.81776 0.67457 0.61096 0.0
C2990 C 0.82315 0.61031 0.60162 0.0
C2991 C 0.81712 0.61282 0.61447 0.0
H2992 H 0.50057 0.14332 0.63164 0.0
H2993 H 0.44634 0.2101 0.64415 0.0
H2994 H 0.4464 0.23168 0.62261 0.0
H2995 H 0.46287 0.23246 0.60022 0.0
H2996 H 0.51578 0.16432 0.58784 0.0
H2997 H 0.51561 0.14293 0.60934 0.0
C2998 C 0.48876 0.16264 0.6297 0.0
C2999 C 0.4736 0.17514 0.63957 0.0
C3000 C 0.48881 0.17489 0.61728 0.0
C3001 C 0.45834 0.20008 0.63679 0.0
C3002 C 0.45833 0.21243 0.62445 0.0
C3003 C 0.47396 0.21256 0.60218 0.0
C3004 C 0.48944 0.20019 0.59233 0.0
C3005 C 0.47355 0.20007 0.61461 0.0
C3006 C 0.50424 0.17488 0.59518 0.0
C3007 C 0.50395 0.1624 0.60749 0.0
H3008 H 1.01222 0.36954 0.63003 0.0
H3009 H 0.89456 0.30776 0.64505 0.0
H3010 H 0.86809 0.28735 0.62388 0.0
H3011 H 0.87827 0.28746 0.60106 0.0
H3012 H 0.99593 0.35128 0.58608 0.0
H3013 H 1.02234 0.36997 0.60726 0.0
C3014 C 0.98077 0.35134 0.62871 0.0
C3015 C 0.95546 0.34007 0.63917 0.0
C3016 C 0.96569 0.34006 0.61648 0.0
C3017 C 0.91478 0.31685 0.63721 0.0
C3018 C 0.89959 0.30519 0.62508 0.0
C3019 C 0.90968 0.30579 0.60239 0.0
C3020 C 0.93497 0.31785 0.59188 0.0
C3021 C 0.92475 0.31682 0.61464 0.0
C3022 C 0.97568 0.34103 0.59391 0.0
C3023 C 0.99085 0.35196 0.60605 0.0
H3024 H 0.74218 0.14197 0.0437 0.0
H3025 H 0.62449 0.09435 0.02937 0.0
H3026 H 0.60055 0.09417 0.0506 0.0
H3027 H 0.61298 0.10676 0.07337 0.0
H3028 H 0.731 0.15394 0.08743 0.0
H3029 H 0.7546 0.15436 0.06621 0.0
C3030 C 0.71129 0.13161 0.04515 0.0
C3031 C 0.68531 0.1183 0.03484 0.0
C3032 C 0.69766 0.13119 0.0574 0.0
C3033 C 0.6453 0.10489 0.03705 0.0
C3034 C 0.63154 0.1047 0.04922 0.0
C3035 C 0.64393 0.1174 0.0718 0.0
C3036 C 0.67009 0.13025 0.0821 0.0
C3037 C 0.65745 0.11771 0.05949 0.0
C3038 C 0.71 0.14334 0.07981 0.0
C3039 C 0.72362 0.14387 0.06763 0.0
H3040 H 0.9685 0.5106 0.07062 0.0
H3041 H 1.03217 0.62893 0.08557 0.0
H3042 H 1.04281 0.65598 0.06433 0.0
H3043 H 1.03517 0.64607 0.04147 0.0
H3044 H 0.97167 0.52762 0.02656 0.0
H3045 H 0.96052 0.50068 0.04781 0.0
C3046 C 0.98495 0.54232 0.06925 0.0
C3047 C 0.99959 0.56763 0.07974 0.0
C3048 C 0.99125 0.55769 0.057 0.0
C3049 C 1.02016 0.6087 0.07773 0.0
C3050 C 1.02653 0.6242 0.06556 0.0
C3051 C 1.01901 0.61434 0.04284 0.0
C3052 C 1.00445 0.58894 0.03238 0.0
C3053 C 1.0124 0.59899 0.05512 0.0
C3054 C 0.98329 0.54791 0.0344 0.0
C3055 C 0.97684 0.53245 0.04657 0.0
H3056 H 0.60751 0.51236 0.07028 0.0
H3057 H 0.52655 0.39488 0.08361 0.0
H3058 H 0.50417 0.37351 0.06219 0.0
H3059 H 0.50739 0.38774 0.03975 0.0
H3060 H 0.58746 0.50504 0.02609 0.0
H3061 H 0.61076 0.52667 0.04754 0.0
C3062 C 0.58516 0.482 0.0685 0.0
C3063 C 0.56875 0.45532 0.07864 0.0
C3064 C 0.57238 0.46979 0.05608 0.0
C3065 C 0.53938 0.41625 0.0761 0.0
C3066 C 0.52673 0.4039 0.06381 0.0
C3067 C 0.53013 0.41804 0.04139 0.0
C3068 C 0.54573 0.44464 0.03123 0.0
C3069 C 0.54301 0.43036 0.05374 0.0
C3070 C 0.57494 0.48385 0.03367 0.0
C3071 C 0.58824 0.49625 0.04596 0.0
H3072 H 0.45091 0.94059 0.92768 0.0
H3073 H 0.57126 1.03368 0.93115 0.0
H3074 H 0.56118 1.03992 0.95357 0.0
H3075 H 0.51683 1.02011 0.97219 0.0
H3076 H 0.39639 0.92725 0.96794 0.0
H3077 H 0.40792 0.91987 0.94597 0.0
C3078 C 0.47491 0.96257 0.93329 0.0
C3079 C 0.51165 0.98692 0.92765 0.0
C3080 C 0.46891 0.96595 0.94613 0.0
C3081 C 0.54264 1.01448 0.93521 0.0
C3082 C 0.53686 1.01811 0.94805 0.0
C3083 C 0.49333 0.99798 0.96648 0.0
C3084 C 0.45572 0.9744 0.97176 0.0
C3085 C 0.5 0.99408 0.95363 0.0
C3086 C 0.42553 0.94605 0.96416 0.0
C3087 C 0.43204 0.94177 0.95155 0.0
H3088 H 0.10187 0.44966 0.9651 0.0
H3089 H 0.16428 0.5685 0.9797 0.0
H3090 H 0.17619 0.59487 0.95835 0.0
H3091 H 0.17081 0.58432 0.93548 0.0
H3092 H 0.11067 0.46536 0.9209 0.0
H3093 H 0.09573 0.43916 0.94222 0.0
C3094 C 0.11771 0.48136 0.96364 0.0
C3095 C 0.1321 0.50701 0.97406 0.0
C3096 C 0.12509 0.49639 0.95129 0.0
C3097 C 0.15287 0.54799 0.97191 0.0
C3098 C 0.15979 0.56313 0.95967 0.0
C3099 C 0.15472 0.55263 0.93693 0.0
C3100 C 0.14206 0.52698 0.92647 0.0
C3101 C 0.14652 0.53763 0.94928 0.0
C3102 C 0.12051 0.48599 0.92866 0.0
C3103 C 0.11209 0.4709 0.9409 0.0
H3104 H 0.56768 0.59653 0.93345 0.0
H3105 H 0.62737 0.71789 0.92095 0.0
H3106 H 0.6441 0.74035 0.94257 0.0
H3107 H 0.64335 0.726 0.96489 0.0
H3108 H 0.58692 0.6051 0.97766 0.0
H3109 H 0.56721 0.58211 0.95608 0.0
C3110 C 0.58466 0.6279 0.93542 0.0
C3111 C 0.59612 0.6554 0.92547 0.0
C3112 C 0.59466 0.64075 0.94794 0.0
C3113 C 0.61756 0.69595 0.92833 0.0
C3114 C 0.62737 0.70888 0.94072 0.0
C3115 C 0.62678 0.69457 0.96302 0.0
C3116 C 0.61692 0.66739 0.97296 0.0
C3117 C 0.61619 0.68159 0.95058 0.0
C3118 C 0.59494 0.62678 0.97025 0.0
C3119 C 0.5838 0.6136 0.95789 0.0
H3120 H 0.34105 0.42094 0.4119 0.0
H3121 H 0.32287 0.52044 0.40731 0.0
H3122 H 0.33171 0.51924 0.38468 0.0
H3123 H 0.34612 0.49086 0.36604 0.0
H3124 H 0.36525 0.39203 0.37078 0.0
H3125 H 0.35363 0.39151 0.39329 0.0
C3126 C 0.33868 0.44218 0.40596 0.0
C3127 C 0.33157 0.47093 0.41142 0.0
C3128 C 0.34375 0.44132 0.39288 0.0
C3129 C 0.32906 0.49843 0.40349 0.0
C3130 C 0.33379 0.49757 0.39048 0.0
C3131 C 0.34728 0.46894 0.37199 0.0
C3132 C 0.35659 0.44156 0.3667 0.0
C3133 C 0.34133 0.46928 0.38505 0.0
C3134 C 0.35837 0.41361 0.37458 0.0
C3135 C 0.35177 0.4133 0.38749 0.0
H3136 H 0.71964 0.98848 0.37572 0.0
H3137 H 0.65893 0.86853 0.362 0.0
H3138 H 0.64714 0.84376 0.38351 0.0
H3139 H 0.65265 0.85586 0.40629 0.0
H3140 H 0.71178 0.97573 0.42007 0.0
H3141 H 0.72582 1.00056 0.39856 0.0
C3142 C 0.70409 0.9569 0.37741 0.0
C3143 C 0.69023 0.93049 0.36717 0.0
C3144 C 0.69697 0.94273 0.38988 0.0
C3145 C 0.66995 0.88965 0.36963 0.0
C3146 C 0.6631 0.8754 0.38197 0.0
C3147 C 0.6683 0.88745 0.40462 0.0
C3148 C 0.68095 0.91377 0.41491 0.0
C3149 C 0.6761 0.90163 0.39217 0.0
C3150 C 0.70194 0.95463 0.41244 0.0
C3151 C 0.70985 0.96892 0.4001 0.0
H3152 H 0.26662 0.83451 0.40511 0.0
H3153 H 0.1742 0.72273 0.41895 0.0
H3154 H 0.15048 0.70215 0.39753 0.0
H3155 H 0.15627 0.71566 0.37484 0.0
H3156 H 0.24841 0.82783 0.36105 0.0
H3157 H 0.27218 0.8482 0.38245 0.0
C3158 C 0.24146 0.8055 0.40344 0.0
C3159 C 0.22235 0.78016 0.41366 0.0
C3160 C 0.22798 0.79385 0.39109 0.0
C3161 C 0.1893 0.74298 0.41131 0.0
C3162 C 0.17585 0.7311 0.39904 0.0
C3163 C 0.18165 0.74453 0.37648 0.0
C3164 C 0.20055 0.77009 0.36629 0.0
C3165 C 0.195 0.75625 0.38885 0.0
C3166 C 0.23322 0.8075 0.36867 0.0
C3167 C 0.24686 0.81921 0.38093 0.0
loop_
_geom_bond_atom_site_label_1
_geom_bond_atom_site_label_2
_geom_bond_distance
_geom_bond_site_symmetry_2
_ccdc_geom_bond_type
Dy0 O3 2.307 . S
Dy0 O5 2.395 . S
Dy0 O6 2.379 . S
Dy0 O8 2.339 . S
Dy0 O10 2.298 . S
Dy0 O14 2.275 . S
Dy0 C22 2.738 . S
Dy1 O4 2.298 . S
Dy1 O7 2.275 . S
Dy1 O9 2.307 . S
Dy1 O11 2.395 . S
Dy1 O12 2.379 . S
Dy1 O15 2.339 . S
Dy1 C31 2.738 . S
C2 O14 1.254 . S
C2 O15 1.257 . S
O3 Dy0 2.307 . S
O3 C13 1.266 . S
O4 Dy1 2.298 . S
O4 C13 1.236 . S
O5 Dy0 2.395 . S
O5 C22 1.255 . S
O6 Dy0 2.379 . S
O6 C22 1.249 . S
O7 Dy1 2.275 . S
O7 C23 1.254 . S
O8 Dy0 2.339 . S
O8 C23 1.257 . S
O9 Dy1 2.307 . S
O9 C24 1.266 . S
O10 Dy0 2.298 . S
O10 C24 1.236 . S
O11 Dy1 2.395 . S
O11 C31 1.255 . S
O12 Dy1 2.379 . S
O12 C31 1.249 . S
C13 O3 1.266 . S
C13 O4 1.236 . S
O14 Dy0 2.275 . S
O14 C2 1.254 . S
O15 Dy1 2.339 . S
O15 C2 1.257 . S
C16 C19 1.344 . S
C16 C20 1.328 . S
C16 C22 1.516 . S
C17 C18 1.304 . S
C17 C21 1.323 . S
C18 C17 1.304 . S
C18 C19 1.371 . S
C18 H32 0.930 . S
C19 C16 1.344 . S
C19 C18 1.371 . S
C19 H33 0.931 . S
C20 C16 1.328 . S
C20 C21 1.433 . S
C20 H34 0.931 . S
C21 C17 1.323 . S
C21 C20 1.433 . S
C21 H35 0.933 . S
C22 Dy0 2.738 . S
C22 O5 1.255 . S
C22 O6 1.249 . S
C22 C16 1.516 . S
C23 O7 1.254 . S
C23 O8 1.257 . S
C24 O9 1.266 . S
C24 O10 1.236 . S
C25 C28 1.344 . S
C25 C29 1.328 . S
C25 C31 1.516 . S
C26 C27 1.304 . S
C26 C30 1.323 . S
C27 C26 1.304 . S
C27 C28 1.371 . S
C27 H36 0.930 . S
C28 C25 1.344 . S
C28 C27 1.371 . S
C28 H37 0.931 . S
C29 C25 1.328 . S
C29 C30 1.433 . S
C29 H38 0.931 . S
C30 C26 1.323 . S
C30 C29 1.433 . S
C30 H39 0.933 . S
C31 Dy1 2.738 . S
C31 O11 1.255 . S
C31 O12 1.249 . S
C31 C25 1.516 . S
H32 C18 0.930 . S
H33 C19 0.931 . S
H34 C20 0.931 . S
H35 C21 0.933 . S
H36 C27 0.930 . S
H37 C28 0.931 . S
H38 C29 0.931 . S
H39 C30 0.933 . S
Dy40 O43 2.307 . S
Dy40 O45 2.395 . S
Dy40 O46 2.379 . S
Dy40 O48 2.339 . S
Dy40 O50 2.298 . S
Dy40 O54 2.275 . S
Dy40 C62 2.738 . S
Dy41 O44 2.298 . S
Dy41 O47 2.275 . S
Dy41 O49 2.307 . S
Dy41 O51 2.395 . S
Dy41 O52 2.379 . S
Dy41 O55 2.339 . S
Dy41 C71 2.738 . S
C42 O54 1.254 . S
C42 O55 1.257 . S
O43 Dy40 2.307 . S
O43 C53 1.266 . S
O44 Dy41 2.298 . S
O44 C53 1.236 . S
O45 Dy40 2.395 . S
O45 C62 1.255 . S
O46 Dy40 2.379 . S
O46 C62 1.249 . S
O47 Dy41 2.275 . S
O47 C63 1.254 . S
O48 Dy40 2.339 . S
O48 C63 1.257 . S
O49 Dy41 2.307 . S
O49 C64 1.266 . S
O50 Dy40 2.298 . S
O50 C64 1.236 . S
O51 Dy41 2.395 . S
O51 C71 1.255 . S
O52 Dy41 2.379 . S
O52 C71 1.249 . S
C53 O43 1.266 . S
C53 O44 1.236 . S
O54 Dy40 2.275 . S
O54 C42 1.254 . S
O55 Dy41 2.339 . S
O55 C42 1.257 . S
C56 C59 1.344 . S
C56 C60 1.328 . S
C56 C62 1.516 . S
C57 C58 1.304 . S
C57 C61 1.323 . S
C58 C57 1.304 . S
C58 C59 1.371 . S
C58 H72 0.930 . S
C59 C56 1.344 . S
C59 C58 1.371 . S
C59 H73 0.931 . S
C60 C56 1.328 . S
C60 C61 1.433 . S
C60 H74 0.931 . S
C61 C57 1.323 . S
C61 C60 1.433 . S
C61 H75 0.933 . S
C62 Dy40 2.738 . S
C62 O45 1.255 . S
C62 O46 1.249 . S
C62 C56 1.516 . S
C63 O47 1.254 . S
C63 O48 1.257 . S
C64 O49 1.266 . S
C64 O50 1.236 . S
C65 C68 1.344 . S
C65 C69 1.328 . S
C65 C71 1.516 . S
C66 C67 1.304 . S
C66 C70 1.323 . S
C67 C66 1.304 . S
C67 C68 1.371 . S
C67 H76 0.930 . S
C68 C65 1.344 . S
C68 C67 1.371 . S
C68 H77 0.931 . S
C69 C65 1.328 . S
C69 C70 1.433 . S
C69 H78 0.931 . S
C70 C66 1.323 . S
C70 C69 1.433 . S
C70 H79 0.933 . S
C71 Dy41 2.738 . S
C71 O51 1.255 . S
C71 O52 1.249 . S
C71 C65 1.516 . S
H72 C58 0.930 . S
H73 C59 0.931 . S
H74 C60 0.931 . S
H75 C61 0.933 . S
H76 C67 0.930 . S
H77 C68 0.931 . S
H78 C69 0.931 . S
H79 C70 0.933 . S
Dy80 O83 2.307 . S
Dy80 O85 2.395 . S
Dy80 O86 2.379 . S
Dy80 O88 2.339 . S
Dy80 O90 2.298 . S
Dy80 O94 2.275 . S
Dy80 C102 2.738 . S
Dy81 O84 2.298 . S
Dy81 O87 2.275 . S
Dy81 O89 2.307 . S
Dy81 O91 2.395 . S
Dy81 O92 2.379 . S
Dy81 O95 2.339 . S
Dy81 C111 2.738 . S
C82 O94 1.254 . S
C82 O95 1.257 . S
O83 Dy80 2.307 . S
O83 C93 1.266 . S
O84 Dy81 2.298 . S
O84 C93 1.236 . S
O85 Dy80 2.395 . S
O85 C102 1.255 . S
O86 Dy80 2.379 . S
O86 C102 1.249 . S
O87 Dy81 2.275 . S
O87 C103 1.254 . S
O88 Dy80 2.339 . S
O88 C103 1.257 . S
O89 Dy81 2.307 . S
O89 C104 1.266 . S
O90 Dy80 2.298 . S
O90 C104 1.236 . S
O91 Dy81 2.395 . S
O91 C111 1.255 . S
O92 Dy81 2.379 . S
O92 C111 1.249 . S
C93 O83 1.266 . S
C93 O84 1.236 . S
O94 Dy80 2.275 . S
O94 C82 1.254 . S
O95 Dy81 2.339 . S
O95 C82 1.257 . S
C96 C99 1.344 . S
C96 C100 1.328 . S
C96 C102 1.516 . S
C97 C98 1.304 . S
C97 C101 1.323 . S
C98 C97 1.304 . S
C98 C99 1.371 . S
C98 H112 0.930 . S
C99 C96 1.344 . S
C99 C98 1.371 . S
C99 H113 0.931 . S
C100 C96 1.328 . S
C100 C101 1.433 . S
C100 H114 0.931 . S
C101 C97 1.323 . S
C101 C100 1.433 . S
C101 H115 0.933 . S
C102 Dy80 2.738 . S
C102 O85 1.255 . S
C102 O86 1.249 . S
C102 C96 1.516 . S
C103 O87 1.254 . S
C103 O88 1.257 . S
C104 O89 1.266 . S
C104 O90 1.236 . S
C105 C108 1.344 . S
C105 C109 1.328 . S
C105 C111 1.516 . S
C106 C107 1.304 . S
C106 C110 1.323 . S
C107 C106 1.304 . S
C107 C108 1.371 . S
C107 H116 0.930 . S
C108 C105 1.344 . S
C108 C107 1.371 . S
C108 H117 0.931 . S
C109 C105 1.328 . S
C109 C110 1.433 . S
C109 H118 0.931 . S
C110 C106 1.323 . S
C110 C109 1.433 . S
C110 H119 0.933 . S
C111 Dy81 2.738 . S
C111 O91 1.255 . S
C111 O92 1.249 . S
C111 C105 1.516 . S
H112 C98 0.930 . S
H113 C99 0.931 . S
H114 C100 0.931 . S
H115 C101 0.933 . S
H116 C107 0.930 . S
H117 C108 0.931 . S
H118 C109 0.931 . S
H119 C110 0.933 . S
Dy120 O123 2.307 . S
Dy120 O125 2.395 . S
Dy120 O126 2.379 . S
Dy120 O128 2.339 . S
Dy120 O130 2.298 . S
Dy120 O134 2.275 . S
Dy120 C142 2.738 . S
Dy121 O124 2.298 . S
Dy121 O127 2.275 . S
Dy121 O129 2.307 . S
Dy121 O131 2.395 . S
Dy121 O132 2.379 . S
Dy121 O135 2.339 . S
Dy121 C151 2.738 . S
C122 O134 1.254 . S
C122 O135 1.257 . S
O123 Dy120 2.307 . S
O123 C133 1.266 . S
O124 Dy121 2.298 . S
O124 C133 1.236 . S
O125 Dy120 2.395 . S
O125 C142 1.255 . S
O126 Dy120 2.379 . S
O126 C142 1.249 . S
O127 Dy121 2.275 . S
O127 C143 1.254 . S
O128 Dy120 2.339 . S
O128 C143 1.257 . S
O129 Dy121 2.307 . S
O129 C144 1.266 . S
O130 Dy120 2.298 . S
O130 C144 1.236 . S
O131 Dy121 2.395 . S
O131 C151 1.255 . S
O132 Dy121 2.379 . S
O132 C151 1.249 . S
C133 O123 1.266 . S
C133 O124 1.236 . S
O134 Dy120 2.275 . S
O134 C122 1.254 . S
O135 Dy121 2.339 . S
O135 C122 1.257 . S
C136 C139 1.344 . S
C136 C140 1.328 . S
C136 C142 1.516 . S
C137 C138 1.304 . S
C137 C141 1.323 . S
C138 C137 1.304 . S
C138 C139 1.371 . S
C138 H152 0.930 . S
C139 C136 1.344 . S
C139 C138 1.371 . S
C139 H153 0.931 . S
C140 C136 1.328 . S
C140 C141 1.433 . S
C140 H154 0.931 . S
C141 C137 1.323 . S
C141 C140 1.433 . S
C141 H155 0.933 . S
C142 Dy120 2.738 . S
C142 O125 1.255 . S
C142 O126 1.249 . S
C142 C136 1.516 . S
C143 O127 1.254 . S
C143 O128 1.257 . S
C144 O129 1.266 . S
C144 O130 1.236 . S
C145 C148 1.344 . S
C145 C149 1.328 . S
C145 C151 1.516 1_565 S
C146 C147 1.304 . S
C146 C150 1.323 . S
C147 C146 1.304 . S
C147 C148 1.371 . S
C147 H156 0.930 . S
C148 C145 1.344 . S
C148 C147 1.371 . S
C148 H157 0.931 1_565 S
C149 C145 1.328 . S
C149 C150 1.433 . S
C149 H158 0.931 . S
C150 C146 1.323 . S
C150 C149 1.433 . S
C150 H159 0.933 . S
C151 Dy121 2.738 . S
C151 O131 1.255 . S
C151 O132 1.249 . S
C151 C145 1.516 1_545 S
H152 C138 0.930 . S
H153 C139 0.931 . S
H154 C140 0.931 . S
H155 C141 0.933 . S
H156 C147 0.930 . S
H157 C148 0.931 1_545 S
H158 C149 0.931 . S
H159 C150 0.933 . S
Dy160 O163 2.307 . S
Dy160 O165 2.395 . S
Dy160 O166 2.379 . S
Dy160 O168 2.339 . S
Dy160 O170 2.298 . S
Dy160 O174 2.275 . S
Dy160 C182 2.738 . S
Dy161 O164 2.298 . S
Dy161 O167 2.275 . S
Dy161 O169 2.307 . S
Dy161 O171 2.395 . S
Dy161 O172 2.379 . S
Dy161 O175 2.339 . S
Dy161 C191 2.738 . S
C162 O174 1.254 . S
C162 O175 1.257 . S
O163 Dy160 2.307 . S
O163 C173 1.266 . S
O164 Dy161 2.298 . S
O164 C173 1.236 . S
O165 Dy160 2.395 . S
O165 C182 1.255 . S
O166 Dy160 2.379 . S
O166 C182 1.249 . S
O167 Dy161 2.275 . S
O167 C183 1.254 . S
O168 Dy160 2.339 . S
O168 C183 1.257 . S
O169 Dy161 2.307 . S
O169 C184 1.266 . S
O170 Dy160 2.298 . S
O170 C184 1.236 . S
O171 Dy161 2.395 . S
O171 C191 1.255 . S
O172 Dy161 2.379 . S
O172 C191 1.249 . S
C173 O163 1.266 . S
C173 O164 1.236 . S
O174 Dy160 2.275 . S
O174 C162 1.254 . S
O175 Dy161 2.339 . S
O175 C162 1.257 . S
C176 C179 1.344 . S
C176 C180 1.328 . S
C176 C182 1.516 . S
C177 C178 1.304 . S
C177 C181 1.323 . S
C178 C177 1.304 . S
C178 C179 1.371 . S
C178 H192 0.930 . S
C179 C176 1.344 . S
C179 C178 1.371 . S
C179 H193 0.931 . S
C180 C176 1.328 . S
C180 C181 1.433 . S
C180 H194 0.931 . S
C181 C177 1.323 . S
C181 C180 1.433 . S
C181 H195 0.933 . S
C182 Dy160 2.738 . S
C182 O165 1.255 . S
C182 O166 1.249 . S
C182 C176 1.516 . S
C183 O167 1.254 . S
C183 O168 1.257 . S
C184 O169 1.266 . S
C184 O170 1.236 . S
C185 C188 1.344 . S
C185 C189 1.328 . S
C185 C191 1.516 1_455 S
C186 C187 1.304 . S
C186 C190 1.323 . S
C187 C186 1.304 . S
C187 C188 1.371 . S
C187 H196 0.930 . S
C188 C185 1.344 . S
C188 C187 1.371 . S
C188 H197 0.931 1_455 S
C189 C185 1.328 . S
C189 C190 1.433 . S
C189 H198 0.931 . S
C190 C186 1.323 . S
C190 C189 1.433 . S
C190 H199 0.933 . S
C191 Dy161 2.738 . S
C191 O171 1.255 . S
C191 O172 1.249 . S
C191 C185 1.516 1_655 S
H192 C178 0.930 . S
H193 C179 0.931 . S
H194 C180 0.931 . S
H195 C181 0.933 . S
H196 C187 0.930 . S
H197 C188 0.931 1_655 S
H198 C189 0.931 . S
H199 C190 0.933 . S
Dy200 O203 2.307 . S
Dy200 O205 2.395 . S
Dy200 O206 2.379 . S
Dy200 O208 2.339 . S
Dy200 O210 2.298 . S
Dy200 O214 2.275 . S
Dy200 C222 2.738 . S
Dy201 O204 2.298 . S
Dy201 O207 2.275 . S
Dy201 O209 2.307 . S
Dy201 O211 2.395 . S
Dy201 O212 2.379 . S
Dy201 O215 2.339 . S
Dy201 C231 2.738 . S
C202 O214 1.254 . S
C202 O215 1.257 . S
O203 Dy200 2.307 . S
O203 C213 1.266 . S
O204 Dy201 2.298 . S
O204 C213 1.236 . S
O205 Dy200 2.395 . S
O205 C222 1.255 . S
O206 Dy200 2.379 . S
O206 C222 1.249 . S
O207 Dy201 2.275 . S
O207 C223 1.254 . S
O208 Dy200 2.339 . S
O208 C223 1.257 . S
O209 Dy201 2.307 . S
O209 C224 1.266 . S
O210 Dy200 2.298 . S
O210 C224 1.236 . S
O211 Dy201 2.395 . S
O211 C231 1.255 . S
O212 Dy201 2.379 . S
O212 C231 1.249 . S
C213 O203 1.266 . S
C213 O204 1.236 . S
O214 Dy200 2.275 . S
O214 C202 1.254 . S
O215 Dy201 2.339 . S
O215 C202 1.257 . S
C216 C219 1.344 . S
C216 C220 1.328 . S
C216 C222 1.516 . S
C217 C218 1.304 . S
C217 C221 1.323 . S
C218 C217 1.304 . S
C218 C219 1.371 . S
C218 H232 0.930 . S
C219 C216 1.344 . S
C219 C218 1.371 . S
C219 H233 0.931 . S
C220 C216 1.328 . S
C220 C221 1.433 . S
C220 H234 0.931 . S
C221 C217 1.323 . S
C221 C220 1.433 . S
C221 H235 0.933 . S
C222 Dy200 2.738 . S
C222 O205 1.255 . S
C222 O206 1.249 . S
C222 C216 1.516 . S
C223 O207 1.254 . S
C223 O208 1.257 . S
C224 O209 1.266 . S
C224 O210 1.236 . S
C225 C228 1.344 . S
C225 C229 1.328 . S
C225 C231 1.516 . S
C226 C227 1.304 . S
C226 C230 1.323 . S
C227 C226 1.304 . S
C227 C228 1.371 . S
C227 H236 0.930 . S
C228 C225 1.344 . S
C228 C227 1.371 . S
C228 H237 0.931 . S
C229 C225 1.328 . S
C229 C230 1.433 . S
C229 H238 0.931 . S
C230 C226 1.323 . S
C230 C229 1.433 . S
C230 H239 0.933 . S
C231 Dy201 2.738 . S
C231 O211 1.255 . S
C231 O212 1.249 . S
C231 C225 1.516 . S
H232 C218 0.930 . S
H233 C219 0.931 . S
H234 C220 0.931 . S
H235 C221 0.933 . S
H236 C227 0.930 . S
H237 C228 0.931 . S
H238 C229 0.931 . S
H239 C230 0.933 . S
Dy240 O243 2.307 . S
Dy240 O245 2.395 . S
Dy240 O246 2.379 . S
Dy240 O248 2.339 . S
Dy240 O250 2.298 . S
Dy240 O254 2.275 . S
Dy240 C262 2.738 . S
Dy241 O244 2.298 . S
Dy241 O247 2.275 . S
Dy241 O249 2.307 . S
Dy241 O251 2.395 . S
Dy241 O252 2.379 . S
Dy241 O255 2.339 . S
Dy241 C271 2.738 . S
C242 O254 1.254 . S
C242 O255 1.257 . S
O243 Dy240 2.307 . S
O243 C253 1.266 . S
O244 Dy241 2.298 . S
O244 C253 1.236 . S
O245 Dy240 2.395 . S
O245 C262 1.255 . S
O246 Dy240 2.379 . S
O246 C262 1.249 . S
O247 Dy241 2.275 . S
O247 C263 1.254 . S
O248 Dy240 2.339 . S
O248 C263 1.257 . S
O249 Dy241 2.307 . S
O249 C264 1.266 . S
O250 Dy240 2.298 . S
O250 C264 1.236 . S
O251 Dy241 2.395 . S
O251 C271 1.255 . S
O252 Dy241 2.379 . S
O252 C271 1.249 . S
C253 O243 1.266 . S
C253 O244 1.236 . S
O254 Dy240 2.275 . S
O254 C242 1.254 . S
O255 Dy241 2.339 . S
O255 C242 1.257 . S
C256 C259 1.344 . S
C256 C260 1.328 . S
C256 C262 1.516 . S
C257 C258 1.304 . S
C257 C261 1.323 . S
C258 C257 1.304 . S
C258 C259 1.371 . S
C258 H272 0.930 . S
C259 C256 1.344 . S
C259 C258 1.371 . S
C259 H273 0.931 . S
C260 C256 1.328 . S
C260 C261 1.433 . S
C260 H274 0.931 . S
C261 C257 1.323 . S
C261 C260 1.433 . S
C261 H275 0.933 . S
C262 Dy240 2.738 . S
C262 O245 1.255 . S
C262 O246 1.249 . S
C262 C256 1.516 . S
C263 O247 1.254 . S
C263 O248 1.257 . S
C264 O249 1.266 . S
C264 O250 1.236 . S
C265 C268 1.344 . S
C265 C269 1.328 . S
C265 C271 1.516 . S
C266 C267 1.304 . S
C266 C270 1.323 . S
C267 C266 1.304 . S
C267 C268 1.371 . S
C267 H276 0.930 . S
C268 C265 1.344 . S
C268 C267 1.371 . S
C268 H277 0.931 . S
C269 C265 1.328 . S
C269 C270 1.433 . S
C269 H278 0.931 . S
C270 C266 1.323 . S
C270 C269 1.433 . S
C270 H279 0.933 . S
C271 Dy241 2.738 . S
C271 O251 1.255 . S
C271 O252 1.249 . S
C271 C265 1.516 . S
H272 C258 0.930 . S
H273 C259 0.931 . S
H274 C260 0.931 . S
H275 C261 0.933 . S
H276 C267 0.930 . S
H277 C268 0.931 . S
H278 C269 0.931 . S
H279 C270 0.933 . S
Dy280 O283 2.307 . S
Dy280 O285 2.395 . S
Dy280 O286 2.379 . S
Dy280 O288 2.339 . S
Dy280 O290 2.298 . S
Dy280 O294 2.275 . S
Dy280 C302 2.738 . S
Dy281 O284 2.298 . S
Dy281 O287 2.275 . S
Dy281 O289 2.307 . S
Dy281 O291 2.395 . S
Dy281 O292 2.379 . S
Dy281 O295 2.339 . S
Dy281 C311 2.738 . S
C282 O294 1.254 . S
C282 O295 1.257 . S
O283 Dy280 2.307 . S
O283 C293 1.266 . S
O284 Dy281 2.298 . S
O284 C293 1.236 . S
O285 Dy280 2.395 . S
O285 C302 1.255 . S
O286 Dy280 2.379 . S
O286 C302 1.249 . S
O287 Dy281 2.275 . S
O287 C303 1.254 . S
O288 Dy280 2.339 . S
O288 C303 1.257 . S
O289 Dy281 2.307 . S
O289 C304 1.266 . S
O290 Dy280 2.298 . S
O290 C304 1.236 . S
O291 Dy281 2.395 . S
O291 C311 1.255 . S
O292 Dy281 2.379 . S
O292 C311 1.249 . S
C293 O283 1.266 . S
C293 O284 1.236 . S
O294 Dy280 2.275 . S
O294 C282 1.254 . S
O295 Dy281 2.339 . S
O295 C282 1.257 . S
C296 C299 1.344 . S
C296 C300 1.328 . S
C296 C302 1.516 . S
C297 C298 1.304 . S
C297 C301 1.323 . S
C298 C297 1.304 . S
C298 C299 1.371 . S
C298 H312 0.930 . S
C299 C296 1.344 . S
C299 C298 1.371 . S
C299 H313 0.931 . S
C300 C296 1.328 . S
C300 C301 1.433 . S
C300 H314 0.931 . S
C301 C297 1.323 . S
C301 C300 1.433 . S
C301 H315 0.933 . S
C302 Dy280 2.738 . S
C302 O285 1.255 . S
C302 O286 1.249 . S
C302 C296 1.516 . S
C303 O287 1.254 . S
C303 O288 1.257 . S
C304 O289 1.266 . S
C304 O290 1.236 . S
C305 C308 1.344 . S
C305 C309 1.328 . S
C305 C311 1.516 . S
C306 C307 1.304 . S
C306 C310 1.323 . S
C307 C306 1.304 . S
C307 C308 1.371 . S
C307 H316 0.930 . S
C308 C305 1.344 . S
C308 C307 1.371 . S
C308 H317 0.931 . S
C309 C305 1.328 . S
C309 C310 1.433 . S
C309 H318 0.931 . S
C310 C306 1.323 . S
C310 C309 1.433 . S
C310 H319 0.933 . S
C311 Dy281 2.738 . S
C311 O291 1.255 . S
C311 O292 1.249 . S
C311 C305 1.516 . S
H312 C298 0.930 . S
H313 C299 0.931 . S
H314 C300 0.931 . S
H315 C301 0.933 . S
H316 C307 0.930 . S
H317 C308 0.931 . S
H318 C309 0.931 . S
H319 C310 0.933 . S
Dy320 O323 2.307 . S
Dy320 O325 2.395 . S
Dy320 O326 2.379 . S
Dy320 O328 2.339 . S
Dy320 O330 2.298 . S
Dy320 O334 2.275 . S
Dy320 C342 2.738 . S
Dy321 O324 2.298 . S
Dy321 O327 2.275 . S
Dy321 O329 2.307 . S
Dy321 O331 2.395 . S
Dy321 O332 2.379 . S
Dy321 O335 2.339 . S
Dy321 C351 2.738 . S
C322 O334 1.254 . S
C322 O335 1.257 . S
O323 Dy320 2.307 . S
O323 C333 1.266 . S
O324 Dy321 2.298 . S
O324 C333 1.236 . S
O325 Dy320 2.395 . S
O325 C342 1.255 . S
O326 Dy320 2.379 . S
O326 C342 1.249 . S
O327 Dy321 2.275 . S
O327 C343 1.254 . S
O328 Dy320 2.339 . S
O328 C343 1.257 . S
O329 Dy321 2.307 . S
O329 C344 1.266 . S
O330 Dy320 2.298 . S
O330 C344 1.236 . S
O331 Dy321 2.395 . S
O331 C351 1.255 . S
O332 Dy321 2.379 . S
O332 C351 1.249 . S
C333 O323 1.266 . S
C333 O324 1.236 . S
O334 Dy320 2.275 . S
O334 C322 1.254 . S
O335 Dy321 2.339 . S
O335 C322 1.257 . S
C336 C339 1.344 . S
C336 C340 1.328 . S
C336 C342 1.516 . S
C337 C338 1.304 . S
C337 C341 1.323 . S
C338 C337 1.304 . S
C338 C339 1.371 . S
C338 H352 0.930 . S
C339 C336 1.344 . S
C339 C338 1.371 . S
C339 H353 0.931 . S
C340 C336 1.328 . S
C340 C341 1.433 . S
C340 H354 0.931 . S
C341 C337 1.323 . S
C341 C340 1.433 . S
C341 H355 0.933 . S
C342 Dy320 2.738 . S
C342 O325 1.255 . S
C342 O326 1.249 . S
C342 C336 1.516 . S
C343 O327 1.254 . S
C343 O328 1.257 . S
C344 O329 1.266 . S
C344 O330 1.236 . S
C345 C348 1.344 . S
C345 C349 1.328 . S
C345 C351 1.516 . S
C346 C347 1.304 . S
C346 C350 1.323 . S
C347 C346 1.304 . S
C347 C348 1.371 . S
C347 H356 0.930 . S
C348 C345 1.344 . S
C348 C347 1.371 . S
C348 H357 0.931 . S
C349 C345 1.328 . S
C349 C350 1.433 . S
C349 H358 0.931 . S
C350 C346 1.323 . S
C350 C349 1.433 . S
C350 H359 0.933 . S
C351 Dy321 2.738 . S
C351 O331 1.255 . S
C351 O332 1.249 . S
C351 C345 1.516 . S
H352 C338 0.930 . S
H353 C339 0.931 . S
H354 C340 0.931 . S
H355 C341 0.933 . S
H356 C347 0.930 . S
H357 C348 0.931 . S
H358 C349 0.931 . S
H359 C350 0.933 . S
Dy360 O363 2.307 . S
Dy360 O365 2.395 . S
Dy360 O366 2.379 . S
Dy360 O368 2.339 . S
Dy360 O370 2.298 . S
Dy360 O374 2.275 . S
Dy360 C382 2.738 . S
Dy361 O364 2.298 . S
Dy361 O367 2.275 . S
Dy361 O369 2.307 . S
Dy361 O371 2.395 . S
Dy361 O372 2.379 . S
Dy361 O375 2.339 . S
Dy361 C391 2.738 . S
C362 O374 1.254 . S
C362 O375 1.257 . S
O363 Dy360 2.307 . S
O363 C373 1.266 . S
O364 Dy361 2.298 . S
O364 C373 1.236 . S
O365 Dy360 2.395 . S
O365 C382 1.255 . S
O366 Dy360 2.379 . S
O366 C382 1.249 . S
O367 Dy361 2.275 . S
O367 C383 1.254 . S
O368 Dy360 2.339 . S
O368 C383 1.257 . S
O369 Dy361 2.307 . S
O369 C384 1.266 . S
O370 Dy360 2.298 . S
O370 C384 1.236 . S
O371 Dy361 2.395 . S
O371 C391 1.255 . S
O372 Dy361 2.379 . S
O372 C391 1.249 . S
C373 O363 1.266 . S
C373 O364 1.236 . S
O374 Dy360 2.275 . S
O374 C362 1.254 . S
O375 Dy361 2.339 . S
O375 C362 1.257 . S
C376 C379 1.344 . S
C376 C380 1.328 . S
C376 C382 1.516 1_545 S
C377 C378 1.304 . S
C377 C381 1.323 . S
C378 C377 1.304 . S
C378 C379 1.371 . S
C378 H392 0.930 . S
C379 C376 1.344 . S
C379 C378 1.371 . S
C379 H393 0.931 1_545 S
C380 C376 1.328 . S
C380 C381 1.433 . S
C380 H394 0.931 . S
C381 C377 1.323 . S
C381 C380 1.433 . S
C381 H395 0.933 . S
C382 Dy360 2.738 . S
C382 O365 1.255 . S
C382 O366 1.249 . S
C382 C376 1.516 1_565 S
C383 O367 1.254 . S
C383 O368 1.257 . S
C384 O369 1.266 . S
C384 O370 1.236 . S
C385 C388 1.344 . S
C385 C389 1.328 . S
C385 C391 1.516 . S
C386 C387 1.304 . S
C386 C390 1.323 . S
C387 C386 1.304 . S
C387 C388 1.371 . S
C387 H396 0.930 . S
C388 C385 1.344 . S
C388 C387 1.371 . S
C388 H397 0.931 . S
C389 C385 1.328 . S
C389 C390 1.433 . S
C389 H398 0.931 . S
C390 C386 1.323 . S
C390 C389 1.433 . S
C390 H399 0.933 . S
C391 Dy361 2.738 . S
C391 O371 1.255 . S
C391 O372 1.249 . S
C391 C385 1.516 . S
H392 C378 0.930 . S
H393 C379 0.931 1_565 S
H394 C380 0.931 . S
H395 C381 0.933 . S
H396 C387 0.930 . S
H397 C388 0.931 . S
H398 C389 0.931 . S
H399 C390 0.933 . S
Dy400 O403 2.307 . S
Dy400 O405 2.395 . S
Dy400 O406 2.379 . S
Dy400 O408 2.339 . S
Dy400 O410 2.298 . S
Dy400 O414 2.275 . S
Dy400 C422 2.738 . S
Dy401 O404 2.298 . S
Dy401 O407 2.275 . S
Dy401 O409 2.307 . S
Dy401 O411 2.395 . S
Dy401 O412 2.379 . S
Dy401 O415 2.339 . S
Dy401 C431 2.738 . S
C402 O414 1.254 . S
C402 O415 1.257 . S
O403 Dy400 2.307 . S
O403 C413 1.266 . S
O404 Dy401 2.298 . S
O404 C413 1.236 . S
O405 Dy400 2.395 . S
O405 C422 1.255 . S
O406 Dy400 2.379 . S
O406 C422 1.249 . S
O407 Dy401 2.275 . S
O407 C423 1.254 . S
O408 Dy400 2.339 . S
O408 C423 1.257 . S
O409 Dy401 2.307 . S
O409 C424 1.266 . S
O410 Dy400 2.298 . S
O410 C424 1.236 . S
O411 Dy401 2.395 . S
O411 C431 1.255 . S
O412 Dy401 2.379 . S
O412 C431 1.249 . S
C413 O403 1.266 . S
C413 O404 1.236 . S
O414 Dy400 2.275 . S
O414 C402 1.254 . S
O415 Dy401 2.339 . S
O415 C402 1.257 . S
C416 C419 1.344 . S
C416 C420 1.328 . S
C416 C422 1.516 1_655 S
C417 C418 1.304 . S
C417 C421 1.323 . S
C418 C417 1.304 . S
C418 C419 1.371 . S
C418 H432 0.930 . S
C419 C416 1.344 . S
C419 C418 1.371 . S
C419 H433 0.931 1_655 S
C420 C416 1.328 . S
C420 C421 1.433 . S
C420 H434 0.931 . S
C421 C417 1.323 . S
C421 C420 1.433 . S
C421 H435 0.933 . S
C422 Dy400 2.738 . S
C422 O405 1.255 . S
C422 O406 1.249 . S
C422 C416 1.516 1_455 S
C423 O407 1.254 . S
C423 O408 1.257 . S
C424 O409 1.266 . S
C424 O410 1.236 . S
C425 C428 1.344 . S
C425 C429 1.328 . S
C425 C431 1.516 . S
C426 C427 1.304 . S
C426 C430 1.323 . S
C427 C426 1.304 . S
C427 C428 1.371 . S
C427 H436 0.930 . S
C428 C425 1.344 . S
C428 C427 1.371 . S
C428 H437 0.931 . S
C429 C425 1.328 . S
C429 C430 1.433 . S
C429 H438 0.931 . S
C430 C426 1.323 . S
C430 C429 1.433 . S
C430 H439 0.933 . S
C431 Dy401 2.738 . S
C431 O411 1.255 . S
C431 O412 1.249 . S
C431 C425 1.516 . S
H432 C418 0.930 . S
H433 C419 0.931 1_455 S
H434 C420 0.931 . S
H435 C421 0.933 . S
H436 C427 0.930 . S
H437 C428 0.931 . S
H438 C429 0.931 . S
H439 C430 0.933 . S
Dy440 O443 2.307 . S
Dy440 O445 2.395 . S
Dy440 O446 2.379 . S
Dy440 O448 2.339 . S
Dy440 O450 2.298 . S
Dy440 O454 2.275 . S
Dy440 C462 2.738 . S
Dy441 O444 2.298 . S
Dy441 O447 2.275 . S
Dy441 O449 2.307 . S
Dy441 O451 2.395 . S
Dy441 O452 2.379 . S
Dy441 O455 2.339 . S
Dy441 C471 2.738 . S
C442 O454 1.254 . S
C442 O455 1.257 . S
O443 Dy440 2.307 . S
O443 C453 1.266 . S
O444 Dy441 2.298 . S
O444 C453 1.236 . S
O445 Dy440 2.395 . S
O445 C462 1.255 . S
O446 Dy440 2.379 . S
O446 C462 1.249 . S
O447 Dy441 2.275 . S
O447 C463 1.254 . S
O448 Dy440 2.339 . S
O448 C463 1.257 . S
O449 Dy441 2.307 . S
O449 C464 1.266 . S
O450 Dy440 2.298 . S
O450 C464 1.236 . S
O451 Dy441 2.395 . S
O451 C471 1.255 . S
O452 Dy441 2.379 . S
O452 C471 1.249 . S
C453 O443 1.266 . S
C453 O444 1.236 . S
O454 Dy440 2.275 . S
O454 C442 1.254 . S
O455 Dy441 2.339 . S
O455 C442 1.257 . S
C456 C459 1.344 . S
C456 C460 1.328 . S
C456 C462 1.516 . S
C457 C458 1.304 . S
C457 C461 1.323 . S
C458 C457 1.304 . S
C458 C459 1.371 . S
C458 H472 0.930 . S
C459 C456 1.344 . S
C459 C458 1.371 . S
C459 H473 0.931 . S
C460 C456 1.328 . S
C460 C461 1.433 . S
C460 H474 0.931 . S
C461 C457 1.323 . S
C461 C460 1.433 . S
C461 H475 0.933 . S
C462 Dy440 2.738 . S
C462 O445 1.255 . S
C462 O446 1.249 . S
C462 C456 1.516 . S
C463 O447 1.254 . S
C463 O448 1.257 . S
C464 O449 1.266 . S
C464 O450 1.236 . S
C465 C468 1.344 . S
C465 C469 1.328 . S
C465 C471 1.516 . S
C466 C467 1.304 . S
C466 C470 1.323 . S
C467 C466 1.304 . S
C467 C468 1.371 . S
C467 H476 0.930 . S
C468 C465 1.344 . S
C468 C467 1.371 . S
C468 H477 0.931 . S
C469 C465 1.328 . S
C469 C470 1.433 . S
C469 H478 0.931 . S
C470 C466 1.323 . S
C470 C469 1.433 . S
C470 H479 0.933 . S
C471 Dy441 2.738 . S
C471 O451 1.255 . S
C471 O452 1.249 . S
C471 C465 1.516 . S
H472 C458 0.930 . S
H473 C459 0.931 . S
H474 C460 0.931 . S
H475 C461 0.933 . S
H476 C467 0.930 . S
H477 C468 0.931 . S
H478 C469 0.931 . S
H479 C470 0.933 . S
Dy480 O483 2.307 . S
Dy480 O485 2.395 . S
Dy480 O486 2.379 . S
Dy480 O488 2.339 . S
Dy480 O490 2.298 . S
Dy480 O494 2.275 . S
Dy480 C502 2.738 . S
Dy481 O484 2.298 . S
Dy481 O487 2.275 . S
Dy481 O489 2.307 . S
Dy481 O491 2.395 . S
Dy481 O492 2.379 . S
Dy481 O495 2.339 . S
Dy481 C511 2.738 . S
C482 O494 1.254 . S
C482 O495 1.257 . S
O483 Dy480 2.307 . S
O483 C493 1.266 . S
O484 Dy481 2.298 . S
O484 C493 1.236 . S
O485 Dy480 2.395 . S
O485 C502 1.255 . S
O486 Dy480 2.379 . S
O486 C502 1.249 . S
O487 Dy481 2.275 . S
O487 C503 1.254 . S
O488 Dy480 2.339 . S
O488 C503 1.257 . S
O489 Dy481 2.307 . S
O489 C504 1.266 . S
O490 Dy480 2.298 . S
O490 C504 1.236 . S
O491 Dy481 2.395 . S
O491 C511 1.255 . S
O492 Dy481 2.379 . S
O492 C511 1.249 . S
C493 O483 1.266 . S
C493 O484 1.236 . S
O494 Dy480 2.275 . S
O494 C482 1.254 . S
O495 Dy481 2.339 . S
O495 C482 1.257 . S
C496 C499 1.344 . S
C496 C500 1.328 . S
C496 C502 1.516 . S
C497 C498 1.304 . S
C497 C501 1.323 . S
C498 C497 1.304 . S
C498 C499 1.371 . S
C498 H512 0.930 . S
C499 C496 1.344 . S
C499 C498 1.371 . S
C499 H513 0.931 . S
C500 C496 1.328 . S
C500 C501 1.433 . S
C500 H514 0.931 . S
C501 C497 1.323 . S
C501 C500 1.433 . S
C501 H515 0.933 . S
C502 Dy480 2.738 . S
C502 O485 1.255 . S
C502 O486 1.249 . S
C502 C496 1.516 . S
C503 O487 1.254 . S
C503 O488 1.257 . S
C504 O489 1.266 . S
C504 O490 1.236 . S
C505 C508 1.344 . S
C505 C509 1.328 . S
C505 C511 1.516 . S
C506 C507 1.304 . S
C506 C510 1.323 . S
C507 C506 1.304 . S
C507 C508 1.371 . S
C507 H516 0.930 . S
C508 C505 1.344 . S
C508 C507 1.371 . S
C508 H517 0.931 . S
C509 C505 1.328 . S
C509 C510 1.433 . S
C509 H518 0.931 . S
C510 C506 1.323 . S
C510 C509 1.433 . S
C510 H519 0.933 . S
C511 Dy481 2.738 . S
C511 O491 1.255 . S
C511 O492 1.249 . S
C511 C505 1.516 . S
H512 C498 0.930 . S
H513 C499 0.931 . S
H514 C500 0.931 . S
H515 C501 0.933 . S
H516 C507 0.930 . S
H517 C508 0.931 . S
H518 C509 0.931 . S
H519 C510 0.933 . S
Dy520 O523 2.307 . S
Dy520 O525 2.395 . S
Dy520 O526 2.379 . S
Dy520 O528 2.339 . S
Dy520 O530 2.298 . S
Dy520 O534 2.275 . S
Dy520 C542 2.738 . S
Dy521 O524 2.298 . S
Dy521 O527 2.275 . S
Dy521 O529 2.307 . S
Dy521 O531 2.395 . S
Dy521 O532 2.379 . S
Dy521 O535 2.339 . S
Dy521 C551 2.738 . S
C522 O534 1.254 . S
C522 O535 1.257 . S
O523 Dy520 2.307 . S
O523 C533 1.266 . S
O524 Dy521 2.298 . S
O524 C533 1.236 . S
O525 Dy520 2.395 . S
O525 C542 1.255 . S
O526 Dy520 2.379 . S
O526 C542 1.249 . S
O527 Dy521 2.275 . S
O527 C543 1.254 . S
O528 Dy520 2.339 . S
O528 C543 1.257 . S
O529 Dy521 2.307 . S
O529 C544 1.266 . S
O530 Dy520 2.298 . S
O530 C544 1.236 . S
O531 Dy521 2.395 . S
O531 C551 1.255 . S
O532 Dy521 2.379 . S
O532 C551 1.249 . S
C533 O523 1.266 . S
C533 O524 1.236 . S
O534 Dy520 2.275 . S
O534 C522 1.254 . S
O535 Dy521 2.339 . S
O535 C522 1.257 . S
C536 C539 1.344 . S
C536 C540 1.328 . S
C536 C542 1.516 . S
C537 C538 1.304 . S
C537 C541 1.323 . S
C538 C537 1.304 . S
C538 C539 1.371 . S
C538 H552 0.930 . S
C539 C536 1.344 . S
C539 C538 1.371 . S
C539 H553 0.931 . S
C540 C536 1.328 . S
C540 C541 1.433 . S
C540 H554 0.931 . S
C541 C537 1.323 . S
C541 C540 1.433 . S
C541 H555 0.933 . S
C542 Dy520 2.738 . S
C542 O525 1.255 . S
C542 O526 1.249 . S
C542 C536 1.516 . S
C543 O527 1.254 . S
C543 O528 1.257 . S
C544 O529 1.266 . S
C544 O530 1.236 . S
C545 C548 1.344 . S
C545 C549 1.328 . S
C545 C551 1.516 . S
C546 C547 1.304 . S
C546 C550 1.323 . S
C547 C546 1.304 . S
C547 C548 1.371 . S
C547 H556 0.930 . S
C548 C545 1.344 . S
C548 C547 1.371 . S
C548 H557 0.931 . S
C549 C545 1.328 . S
C549 C550 1.433 . S
C549 H558 0.931 . S
C550 C546 1.323 . S
C550 C549 1.433 . S
C550 H559 0.933 . S
C551 Dy521 2.738 . S
C551 O531 1.255 . S
C551 O532 1.249 . S
C551 C545 1.516 . S
H552 C538 0.930 . S
H553 C539 0.931 . S
H554 C540 0.931 . S
H555 C541 0.933 . S
H556 C547 0.930 . S
H557 C548 0.931 . S
H558 C549 0.931 . S
H559 C550 0.933 . S
Dy560 O563 2.307 . S
Dy560 O565 2.395 . S
Dy560 O566 2.379 . S
Dy560 O568 2.339 . S
Dy560 O570 2.298 . S
Dy560 O574 2.275 . S
Dy560 C582 2.738 . S
Dy561 O564 2.298 . S
Dy561 O567 2.275 . S
Dy561 O569 2.307 . S
Dy561 O571 2.395 . S
Dy561 O572 2.379 . S
Dy561 O575 2.339 . S
Dy561 C591 2.738 . S
C562 O574 1.254 . S
C562 O575 1.257 . S
O563 Dy560 2.307 . S
O563 C573 1.266 . S
O564 Dy561 2.298 . S
O564 C573 1.236 . S
O565 Dy560 2.395 . S
O565 C582 1.255 . S
O566 Dy560 2.379 . S
O566 C582 1.249 . S
O567 Dy561 2.275 . S
O567 C583 1.254 . S
O568 Dy560 2.339 . S
O568 C583 1.257 . S
O569 Dy561 2.307 . S
O569 C584 1.266 . S
O570 Dy560 2.298 . S
O570 C584 1.236 . S
O571 Dy561 2.395 . S
O571 C591 1.255 . S
O572 Dy561 2.379 . S
O572 C591 1.249 . S
C573 O563 1.266 . S
C573 O564 1.236 . S
O574 Dy560 2.275 . S
O574 C562 1.254 . S
O575 Dy561 2.339 . S
O575 C562 1.257 . S
C576 C579 1.344 . S
C576 C580 1.328 . S
C576 C582 1.516 . S
C577 C578 1.304 . S
C577 C581 1.323 . S
C578 C577 1.304 . S
C578 C579 1.371 . S
C578 H592 0.930 . S
C579 C576 1.344 . S
C579 C578 1.371 . S
C579 H593 0.931 . S
C580 C576 1.328 . S
C580 C581 1.433 . S
C580 H594 0.931 . S
C581 C577 1.323 . S
C581 C580 1.433 . S
C581 H595 0.933 . S
C582 Dy560 2.738 . S
C582 O565 1.255 . S
C582 O566 1.249 . S
C582 C576 1.516 . S
C583 O567 1.254 . S
C583 O568 1.257 . S
C584 O569 1.266 . S
C584 O570 1.236 . S
C585 C588 1.344 . S
C585 C589 1.328 . S
C585 C591 1.516 . S
C586 C587 1.304 . S
C586 C590 1.323 . S
C587 C586 1.304 . S
C587 C588 1.371 . S
C587 H596 0.930 . S
C588 C585 1.344 . S
C588 C587 1.371 . S
C588 H597 0.931 . S
C589 C585 1.328 . S
C589 C590 1.433 . S
C589 H598 0.931 . S
C590 C586 1.323 . S
C590 C589 1.433 . S
C590 H599 0.933 . S
C591 Dy561 2.738 . S
C591 O571 1.255 . S
C591 O572 1.249 . S
C591 C585 1.516 . S
H592 C578 0.930 . S
H593 C579 0.931 . S
H594 C580 0.931 . S
H595 C581 0.933 . S
H596 C587 0.930 . S
H597 C588 0.931 . S
H598 C589 0.931 . S
H599 C590 0.933 . S
Dy600 O603 2.307 . S
Dy600 O605 2.395 1_655 S
Dy600 O606 2.379 . S
Dy600 O608 2.339 . S
Dy600 O610 2.298 . S
Dy600 O614 2.275 . S
Dy600 C622 2.738 1_655 S
Dy601 O604 2.298 . S
Dy601 O607 2.275 . S
Dy601 O609 2.307 . S
Dy601 O611 2.395 . S
Dy601 O612 2.379 . S
Dy601 O615 2.339 . S
Dy601 C631 2.738 . S
C602 O614 1.254 . S
C602 O615 1.257 . S
O603 Dy600 2.307 . S
O603 C613 1.266 . S
O604 Dy601 2.298 . S
O604 C613 1.236 . S
O605 Dy600 2.395 1_455 S
O605 C622 1.255 . S
O606 Dy600 2.379 . S
O606 C622 1.249 1_655 S
O607 Dy601 2.275 . S
O607 C623 1.254 . S
O608 Dy600 2.339 . S
O608 C623 1.257 . S
O609 Dy601 2.307 . S
O609 C624 1.266 . S
O610 Dy600 2.298 . S
O610 C624 1.236 . S
O611 Dy601 2.395 . S
O611 C631 1.255 . S
O612 Dy601 2.379 . S
O612 C631 1.249 . S
C613 O603 1.266 . S
C613 O604 1.236 . S
O614 Dy600 2.275 . S
O614 C602 1.254 . S
O615 Dy601 2.339 . S
O615 C602 1.257 . S
C616 C619 1.344 . S
C616 C620 1.328 . S
C616 C622 1.516 . S
C617 C618 1.304 . S
C617 C621 1.323 . S
C618 C617 1.304 . S
C618 C619 1.371 . S
C618 H632 0.930 . S
C619 C616 1.344 . S
C619 C618 1.371 . S
C619 H633 0.931 . S
C620 C616 1.328 . S
C620 C621 1.433 . S
C620 H634 0.931 . S
C621 C617 1.323 . S
C621 C620 1.433 . S
C621 H635 0.933 . S
C622 Dy600 2.738 1_455 S
C622 O605 1.255 . S
C622 O606 1.249 1_455 S
C622 C616 1.516 . S
C623 O607 1.254 . S
C623 O608 1.257 . S
C624 O609 1.266 . S
C624 O610 1.236 . S
C625 C628 1.344 . S
C625 C629 1.328 . S
C625 C631 1.516 . S
C626 C627 1.304 . S
C626 C630 1.323 . S
C627 C626 1.304 . S
C627 C628 1.371 . S
C627 H636 0.930 . S
C628 C625 1.344 . S
C628 C627 1.371 . S
C628 H637 0.931 . S
C629 C625 1.328 . S
C629 C630 1.433 . S
C629 H638 0.931 . S
C630 C626 1.323 . S
C630 C629 1.433 . S
C630 H639 0.933 . S
C631 Dy601 2.738 . S
C631 O611 1.255 . S
C631 O612 1.249 . S
C631 C625 1.516 . S
H632 C618 0.930 . S
H633 C619 0.931 . S
H634 C620 0.931 . S
H635 C621 0.933 . S
H636 C627 0.930 . S
H637 C628 0.931 . S
H638 C629 0.931 . S
H639 C630 0.933 . S
Dy640 O643 2.307 . S
Dy640 O645 2.395 . S
Dy640 O646 2.379 . S
Dy640 O648 2.339 . S
Dy640 O650 2.298 . S
Dy640 O654 2.275 . S
Dy640 C662 2.738 . S
Dy641 O644 2.298 . S
Dy641 O647 2.275 . S
Dy641 O649 2.307 . S
Dy641 O651 2.395 . S
Dy641 O652 2.379 . S
Dy641 O655 2.339 . S
Dy641 C671 2.738 . S
C642 O654 1.254 . S
C642 O655 1.257 . S
O643 Dy640 2.307 . S
O643 C653 1.266 . S
O644 Dy641 2.298 . S
O644 C653 1.236 . S
O645 Dy640 2.395 . S
O645 C662 1.255 . S
O646 Dy640 2.379 . S
O646 C662 1.249 . S
O647 Dy641 2.275 . S
O647 C663 1.254 . S
O648 Dy640 2.339 . S
O648 C663 1.257 . S
O649 Dy641 2.307 . S
O649 C664 1.266 . S
O650 Dy640 2.298 . S
O650 C664 1.236 . S
O651 Dy641 2.395 . S
O651 C671 1.255 . S
O652 Dy641 2.379 . S
O652 C671 1.249 . S
C653 O643 1.266 . S
C653 O644 1.236 . S
O654 Dy640 2.275 . S
O654 C642 1.254 . S
O655 Dy641 2.339 . S
O655 C642 1.257 . S
C656 C659 1.344 . S
C656 C660 1.328 . S
C656 C662 1.516 . S
C657 C658 1.304 . S
C657 C661 1.323 . S
C658 C657 1.304 . S
C658 C659 1.371 . S
C658 H672 0.930 . S
C659 C656 1.344 . S
C659 C658 1.371 . S
C659 H673 0.931 . S
C660 C656 1.328 . S
C660 C661 1.433 . S
C660 H674 0.931 . S
C661 C657 1.323 . S
C661 C660 1.433 . S
C661 H675 0.933 . S
C662 Dy640 2.738 . S
C662 O645 1.255 . S
C662 O646 1.249 . S
C662 C656 1.516 . S
C663 O647 1.254 . S
C663 O648 1.257 . S
C664 O649 1.266 . S
C664 O650 1.236 . S
C665 C668 1.344 . S
C665 C669 1.328 . S
C665 C671 1.516 . S
C666 C667 1.304 . S
C666 C670 1.323 . S
C667 C666 1.304 . S
C667 C668 1.371 . S
C667 H676 0.930 . S
C668 C665 1.344 . S
C668 C667 1.371 . S
C668 H677 0.931 . S
C669 C665 1.328 . S
C669 C670 1.433 . S
C669 H678 0.931 . S
C670 C666 1.323 . S
C670 C669 1.433 . S
C670 H679 0.933 . S
C671 Dy641 2.738 . S
C671 O651 1.255 . S
C671 O652 1.249 . S
C671 C665 1.516 . S
H672 C658 0.930 . S
H673 C659 0.931 . S
H674 C660 0.931 . S
H675 C661 0.933 . S
H676 C667 0.930 . S
H677 C668 0.931 . S
H678 C669 0.931 . S
H679 C670 0.933 . S
Dy680 O683 2.307 . S
Dy680 O685 2.395 1_545 S
Dy680 O686 2.379 . S
Dy680 O688 2.339 . S
Dy680 O690 2.298 . S
Dy680 O694 2.275 . S
Dy680 C702 2.738 1_545 S
Dy681 O684 2.298 . S
Dy681 O687 2.275 . S
Dy681 O689 2.307 . S
Dy681 O691 2.395 . S
Dy681 O692 2.379 . S
Dy681 O695 2.339 . S
Dy681 C711 2.738 . S
C682 O694 1.254 . S
C682 O695 1.257 . S
O683 Dy680 2.307 . S
O683 C693 1.266 . S
O684 Dy681 2.298 . S
O684 C693 1.236 . S
O685 Dy680 2.395 1_565 S
O685 C702 1.255 . S
O686 Dy680 2.379 . S
O686 C702 1.249 1_545 S
O687 Dy681 2.275 . S
O687 C703 1.254 . S
O688 Dy680 2.339 . S
O688 C703 1.257 . S
O689 Dy681 2.307 . S
O689 C704 1.266 . S
O690 Dy680 2.298 . S
O690 C704 1.236 . S
O691 Dy681 2.395 . S
O691 C711 1.255 . S
O692 Dy681 2.379 . S
O692 C711 1.249 . S
C693 O683 1.266 . S
C693 O684 1.236 . S
O694 Dy680 2.275 . S
O694 C682 1.254 . S
O695 Dy681 2.339 . S
O695 C682 1.257 . S
C696 C699 1.344 . S
C696 C700 1.328 . S
C696 C702 1.516 . S
C697 C698 1.304 . S
C697 C701 1.323 . S
C698 C697 1.304 . S
C698 C699 1.371 . S
C698 H712 0.930 . S
C699 C696 1.344 . S
C699 C698 1.371 . S
C699 H713 0.931 . S
C700 C696 1.328 . S
C700 C701 1.433 . S
C700 H714 0.931 . S
C701 C697 1.323 . S
C701 C700 1.433 . S
C701 H715 0.933 . S
C702 Dy680 2.738 1_565 S
C702 O685 1.255 . S
C702 O686 1.249 1_565 S
C702 C696 1.516 . S
C703 O687 1.254 . S
C703 O688 1.257 . S
C704 O689 1.266 . S
C704 O690 1.236 . S
C705 C708 1.344 . S
C705 C709 1.328 . S
C705 C711 1.516 . S
C706 C707 1.304 . S
C706 C710 1.323 . S
C707 C706 1.304 . S
C707 C708 1.371 . S
C707 H716 0.930 . S
C708 C705 1.344 . S
C708 C707 1.371 . S
C708 H717 0.931 . S
C709 C705 1.328 . S
C709 C710 1.433 . S
C709 H718 0.931 . S
C710 C706 1.323 . S
C710 C709 1.433 . S
C710 H719 0.933 . S
C711 Dy681 2.738 . S
C711 O691 1.255 . S
C711 O692 1.249 . S
C711 C705 1.516 . S
H712 C698 0.930 . S
H713 C699 0.931 . S
H714 C700 0.931 . S
H715 C701 0.933 . S
H716 C707 0.930 . S
H717 C708 0.931 . S
H718 C709 0.931 . S
H719 C710 0.933 . S
Dy720 O723 2.307 . S
Dy720 O725 2.395 . S
Dy720 O726 2.379 . S
Dy720 O728 2.339 . S
Dy720 O730 2.298 . S
Dy720 O734 2.275 . S
Dy720 C742 2.738 . S
Dy721 O724 2.298 . S
Dy721 O727 2.275 . S
Dy721 O729 2.307 . S
Dy721 O731 2.395 . S
Dy721 O732 2.379 . S
Dy721 O735 2.339 . S
Dy721 C751 2.738 . S
C722 O734 1.254 . S
C722 O735 1.257 . S
O723 Dy720 2.307 . S
O723 C733 1.266 . S
O724 Dy721 2.298 . S
O724 C733 1.236 . S
O725 Dy720 2.395 . S
O725 C742 1.255 . S
O726 Dy720 2.379 . S
O726 C742 1.249 . S
O727 Dy721 2.275 . S
O727 C743 1.254 . S
O728 Dy720 2.339 . S
O728 C743 1.257 . S
O729 Dy721 2.307 . S
O729 C744 1.266 . S
O730 Dy720 2.298 . S
O730 C744 1.236 . S
O731 Dy721 2.395 . S
O731 C751 1.255 . S
O732 Dy721 2.379 . S
O732 C751 1.249 . S
C733 O723 1.266 . S
C733 O724 1.236 . S
O734 Dy720 2.275 . S
O734 C722 1.254 . S
O735 Dy721 2.339 . S
O735 C722 1.257 . S
C736 C739 1.344 . S
C736 C740 1.328 . S
C736 C742 1.516 . S
C737 C738 1.304 . S
C737 C741 1.323 . S
C738 C737 1.304 . S
C738 C739 1.371 . S
C738 H752 0.930 1_545 S
C739 C736 1.344 . S
C739 C738 1.371 . S
C739 H753 0.931 . S
C740 C736 1.328 . S
C740 C741 1.433 . S
C740 H754 0.931 . S
C741 C737 1.323 . S
C741 C740 1.433 . S
C741 H755 0.933 . S
C742 Dy720 2.738 . S
C742 O725 1.255 . S
C742 O726 1.249 . S
C742 C736 1.516 . S
C743 O727 1.254 . S
C743 O728 1.257 . S
C744 O729 1.266 . S
C744 O730 1.236 . S
C745 C748 1.344 . S
C745 C749 1.328 . S
C745 C751 1.516 . S
C746 C747 1.304 . S
C746 C750 1.323 . S
C747 C746 1.304 . S
C747 C748 1.371 . S
C747 H756 0.930 . S
C748 C745 1.344 . S
C748 C747 1.371 . S
C748 H757 0.931 . S
C749 C745 1.328 . S
C749 C750 1.433 . S
C749 H758 0.931 . S
C750 C746 1.323 . S
C750 C749 1.433 . S
C750 H759 0.933 . S
C751 Dy721 2.738 . S
C751 O731 1.255 . S
C751 O732 1.249 . S
C751 C745 1.516 . S
H752 C738 0.930 1_565 S
H753 C739 0.931 . S
H754 C740 0.931 . S
H755 C741 0.933 . S
H756 C747 0.930 . S
H757 C748 0.931 . S
H758 C749 0.931 . S
H759 C750 0.933 . S
Dy760 O763 2.307 . S
Dy760 O765 2.395 . S
Dy760 O766 2.379 . S
Dy760 O768 2.339 . S
Dy760 O770 2.298 . S
Dy760 O774 2.275 . S
Dy760 C782 2.738 . S
Dy761 O764 2.298 . S
Dy761 O767 2.275 . S
Dy761 O769 2.307 . S
Dy761 O771 2.395 . S
Dy761 O772 2.379 . S
Dy761 O775 2.339 . S
Dy761 C791 2.738 . S
C762 O774 1.254 . S
C762 O775 1.257 . S
O763 Dy760 2.307 . S
O763 C773 1.266 . S
O764 Dy761 2.298 . S
O764 C773 1.236 . S
O765 Dy760 2.395 . S
O765 C782 1.255 . S
O766 Dy760 2.379 . S
O766 C782 1.249 . S
O767 Dy761 2.275 . S
O767 C783 1.254 . S
O768 Dy760 2.339 . S
O768 C783 1.257 . S
O769 Dy761 2.307 . S
O769 C784 1.266 . S
O770 Dy760 2.298 . S
O770 C784 1.236 . S
O771 Dy761 2.395 . S
O771 C791 1.255 . S
O772 Dy761 2.379 . S
O772 C791 1.249 . S
C773 O763 1.266 . S
C773 O764 1.236 . S
O774 Dy760 2.275 . S
O774 C762 1.254 . S
O775 Dy761 2.339 . S
O775 C762 1.257 . S
C776 C779 1.344 . S
C776 C780 1.328 . S
C776 C782 1.516 . S
C777 C778 1.304 . S
C777 C781 1.323 . S
C778 C777 1.304 . S
C778 C779 1.371 . S
C778 H792 0.930 1_655 S
C779 C776 1.344 . S
C779 C778 1.371 . S
C779 H793 0.931 . S
C780 C776 1.328 . S
C780 C781 1.433 . S
C780 H794 0.931 . S
C781 C777 1.323 . S
C781 C780 1.433 . S
C781 H795 0.933 . S
C782 Dy760 2.738 . S
C782 O765 1.255 . S
C782 O766 1.249 . S
C782 C776 1.516 . S
C783 O767 1.254 . S
C783 O768 1.257 . S
C784 O769 1.266 . S
C784 O770 1.236 . S
C785 C788 1.344 . S
C785 C789 1.328 . S
C785 C791 1.516 . S
C786 C787 1.304 . S
C786 C790 1.323 . S
C787 C786 1.304 . S
C787 C788 1.371 . S
C787 H796 0.930 . S
C788 C785 1.344 . S
C788 C787 1.371 . S
C788 H797 0.931 . S
C789 C785 1.328 . S
C789 C790 1.433 . S
C789 H798 0.931 . S
C790 C786 1.323 . S
C790 C789 1.433 . S
C790 H799 0.933 . S
C791 Dy761 2.738 . S
C791 O771 1.255 . S
C791 O772 1.249 . S
C791 C785 1.516 . S
H792 C778 0.930 1_455 S
H793 C779 0.931 . S
H794 C780 0.931 . S
H795 C781 0.933 . S
H796 C787 0.930 . S
H797 C788 0.931 . S
H798 C789 0.931 . S
H799 C790 0.933 . S
Dy800 O803 2.307 . S
Dy800 O805 2.395 . S
Dy800 O806 2.379 . S
Dy800 O808 2.339 . S
Dy800 O810 2.298 . S
Dy800 O814 2.275 . S
Dy800 C822 2.738 . S
Dy801 O804 2.298 . S
Dy801 O807 2.275 . S
Dy801 O809 2.307 . S
Dy801 O811 2.395 . S
Dy801 O812 2.379 . S
Dy801 O815 2.339 . S
Dy801 C831 2.738 . S
C802 O814 1.254 . S
C802 O815 1.257 . S
O803 Dy800 2.307 . S
O803 C813 1.266 . S
O804 Dy801 2.298 . S
O804 C813 1.236 . S
O805 Dy800 2.395 . S
O805 C822 1.255 . S
O806 Dy800 2.379 . S
O806 C822 1.249 . S
O807 Dy801 2.275 . S
O807 C823 1.254 . S
O808 Dy800 2.339 . S
O808 C823 1.257 . S
O809 Dy801 2.307 . S
O809 C824 1.266 . S
O810 Dy800 2.298 . S
O810 C824 1.236 . S
O811 Dy801 2.395 . S
O811 C831 1.255 . S
O812 Dy801 2.379 . S
O812 C831 1.249 . S
C813 O803 1.266 . S
C813 O804 1.236 . S
O814 Dy800 2.275 . S
O814 C802 1.254 . S
O815 Dy801 2.339 . S
O815 C802 1.257 . S
C816 C819 1.344 . S
C816 C820 1.328 . S
C816 C822 1.516 . S
C817 C818 1.304 . S
C817 C821 1.323 . S
C818 C817 1.304 . S
C818 C819 1.371 . S
C818 H832 0.930 . S
C819 C816 1.344 . S
C819 C818 1.371 . S
C819 H833 0.931 . S
C820 C816 1.328 . S
C820 C821 1.433 . S
C820 H834 0.931 . S
C821 C817 1.323 . S
C821 C820 1.433 . S
C821 H835 0.933 . S
C822 Dy800 2.738 . S
C822 O805 1.255 . S
C822 O806 1.249 . S
C822 C816 1.516 . S
C823 O807 1.254 . S
C823 O808 1.257 . S
C824 O809 1.266 . S
C824 O810 1.236 . S
C825 C828 1.344 . S
C825 C829 1.328 . S
C825 C831 1.516 . S
C826 C827 1.304 . S
C826 C830 1.323 . S
C827 C826 1.304 . S
C827 C828 1.371 . S
C827 H836 0.930 . S
C828 C825 1.344 . S
C828 C827 1.371 . S
C828 H837 0.931 . S
C829 C825 1.328 . S
C829 C830 1.433 . S
C829 H838 0.931 . S
C830 C826 1.323 . S
C830 C829 1.433 . S
C830 H839 0.933 . S
C831 Dy801 2.738 . S
C831 O811 1.255 . S
C831 O812 1.249 . S
C831 C825 1.516 . S
H832 C818 0.930 . S
H833 C819 0.931 . S
H834 C820 0.931 . S
H835 C821 0.933 . S
H836 C827 0.930 . S
H837 C828 0.931 . S
H838 C829 0.931 . S
H839 C830 0.933 . S
Dy840 O843 2.307 . S
Dy840 O845 2.395 . S
Dy840 O846 2.379 . S
Dy840 O848 2.339 . S
Dy840 O850 2.298 1_556 S
Dy840 O854 2.275 . S
Dy840 C862 2.738 . S
Dy841 O844 2.298 1_554 S
Dy841 O847 2.275 . S
Dy841 O849 2.307 . S
Dy841 O851 2.395 . S
Dy841 O852 2.379 . S
Dy841 O855 2.339 . S
Dy841 C871 2.738 . S
C842 O854 1.239 1_554 S
C842 O855 1.281 . S
O843 Dy840 2.307 . S
O843 C853 1.266 . S
O844 Dy841 2.298 1_556 S
O844 C853 1.236 . S
O845 Dy840 2.395 . S
O845 C862 1.255 . S
O846 Dy840 2.379 . S
O846 C862 1.249 . S
O847 Dy841 2.275 . S
O847 C863 1.234 1_554 S
O848 Dy840 2.339 . S
O848 C863 1.290 . S
O849 Dy841 2.307 . S
O849 C864 1.266 . S
O850 Dy840 2.298 1_554 S
O850 C864 1.236 . S
O851 Dy841 2.395 . S
O851 C871 1.255 . S
O852 Dy841 2.379 . S
O852 C871 1.249 . S
C853 O843 1.266 . S
C853 O844 1.236 . S
O854 Dy840 2.275 . S
O854 C842 1.239 1_556 S
O855 Dy841 2.339 . S
O855 C842 1.281 . S
C856 C859 1.344 . S
C856 C860 1.324 1_554 S
C856 C862 1.516 1_554 S
C857 C858 1.304 . S
C857 C861 1.323 . S
C858 C857 1.304 . S
C858 C859 1.371 . S
C858 H872 0.930 . S
C859 C856 1.344 . S
C859 C858 1.371 . S
C859 H873 0.931 . S
C860 C856 1.324 1_556 S
C860 C861 1.429 1_556 S
C860 H874 0.939 . S
C861 C857 1.323 . S
C861 C860 1.429 1_554 S
C861 H875 0.925 1_554 S
C862 Dy840 2.738 . S
C862 O845 1.255 . S
C862 O846 1.249 . S
C862 C856 1.516 1_556 S
C863 O847 1.234 1_556 S
C863 O848 1.290 . S
C864 O849 1.266 . S
C864 O850 1.236 . S
C865 C868 1.344 . S
C865 C869 1.327 1_556 S
C865 C871 1.516 1_556 S
C866 C867 1.304 1_565 S
C866 C870 1.323 . S
C867 C866 1.304 1_545 S
C867 C868 1.371 . S
C867 H876 0.930 . S
C868 C865 1.344 . S
C868 C867 1.371 . S
C868 H877 0.931 . S
C869 C865 1.327 1_554 S
C869 C870 1.432 1_544 S
C869 H878 0.933 . S
C870 C866 1.323 . S
C870 C869 1.432 1_566 S
C870 H879 0.929 1_556 S
C871 Dy841 2.738 . S
C871 O851 1.255 . S
C871 O852 1.249 . S
C871 C865 1.516 1_554 S
H872 C858 0.930 . S
H873 C859 0.931 . S
H874 C860 0.939 . S
H875 C861 0.925 1_556 S
H876 C867 0.930 . S
H877 C868 0.931 . S
H878 C869 0.933 . S
H879 C870 0.929 1_554 S
Dy880 O883 2.307 . S
Dy880 O885 2.395 . S
Dy880 O886 2.379 . S
Dy880 O888 2.339 . S
Dy880 O890 2.298 1_556 S
Dy880 O894 2.275 . S
Dy880 C902 2.738 . S
Dy881 O884 2.298 1_554 S
Dy881 O887 2.275 . S
Dy881 O889 2.307 . S
Dy881 O891 2.395 . S
Dy881 O892 2.379 . S
Dy881 O895 2.339 . S
Dy881 C911 2.738 . S
C882 O894 1.239 1_554 S
C882 O895 1.281 . S
O883 Dy880 2.307 . S
O883 C893 1.266 . S
O884 Dy881 2.298 1_556 S
O884 C893 1.236 . S
O885 Dy880 2.395 . S
O885 C902 1.255 . S
O886 Dy880 2.379 . S
O886 C902 1.249 . S
O887 Dy881 2.275 . S
O887 C903 1.234 1_554 S
O888 Dy880 2.339 . S
O888 C903 1.290 . S
O889 Dy881 2.307 . S
O889 C904 1.266 . S
O890 Dy880 2.298 1_554 S
O890 C904 1.236 . S
O891 Dy881 2.395 . S
O891 C911 1.255 . S
O892 Dy881 2.379 . S
O892 C911 1.249 . S
C893 O883 1.266 . S
C893 O884 1.236 . S
O894 Dy880 2.275 . S
O894 C882 1.239 1_556 S
O895 Dy881 2.339 . S
O895 C882 1.281 . S
C896 C899 1.344 . S
C896 C900 1.324 1_554 S
C896 C902 1.516 1_554 S
C897 C898 1.304 . S
C897 C901 1.323 . S
C898 C897 1.304 . S
C898 C899 1.371 . S
C898 H912 0.930 . S
C899 C896 1.344 . S
C899 C898 1.371 . S
C899 H913 0.931 . S
C900 C896 1.324 1_556 S
C900 C901 1.429 1_556 S
C900 H914 0.939 . S
C901 C897 1.323 . S
C901 C900 1.429 1_554 S
C901 H915 0.925 1_554 S
C902 Dy880 2.738 . S
C902 O885 1.255 . S
C902 O886 1.249 . S
C902 C896 1.516 1_556 S
C903 O887 1.234 1_556 S
C903 O888 1.290 . S
C904 O889 1.266 . S
C904 O890 1.236 . S
C905 C908 1.344 . S
C905 C909 1.327 1_556 S
C905 C911 1.516 1_556 S
C906 C907 1.304 1_455 S
C906 C910 1.323 . S
C907 C906 1.304 1_655 S
C907 C908 1.371 . S
C907 H916 0.930 . S
C908 C905 1.344 . S
C908 C907 1.371 . S
C908 H917 0.931 . S
C909 C905 1.327 1_554 S
C909 C910 1.432 1_654 S
C909 H918 0.933 . S
C910 C906 1.323 . S
C910 C909 1.432 1_456 S
C910 H919 0.929 1_556 S
C911 Dy881 2.738 . S
C911 O891 1.255 . S
C911 O892 1.249 . S
C911 C905 1.516 1_554 S
H912 C898 0.930 . S
H913 C899 0.931 . S
H914 C900 0.939 . S
H915 C901 0.925 1_556 S
H916 C907 0.930 . S
H917 C908 0.931 . S
H918 C909 0.933 . S
H919 C910 0.929 1_554 S
Dy920 O923 2.307 . S
Dy920 O925 2.395 . S
Dy920 O926 2.379 . S
Dy920 O928 2.339 . S
Dy920 O930 2.298 1_556 S
Dy920 O934 2.275 . S
Dy920 C942 2.738 . S
Dy921 O924 2.298 1_554 S
Dy921 O927 2.275 . S
Dy921 O929 2.307 . S
Dy921 O931 2.395 . S
Dy921 O932 2.379 . S
Dy921 O935 2.339 . S
Dy921 C951 2.738 . S
C922 O934 1.239 1_554 S
C922 O935 1.281 . S
O923 Dy920 2.307 . S
O923 C933 1.266 . S
O924 Dy921 2.298 1_556 S
O924 C933 1.236 . S
O925 Dy920 2.395 . S
O925 C942 1.255 . S
O926 Dy920 2.379 . S
O926 C942 1.249 . S
O927 Dy921 2.275 . S
O927 C943 1.234 1_554 S
O928 Dy920 2.339 . S
O928 C943 1.290 . S
O929 Dy921 2.307 . S
O929 C944 1.266 . S
O930 Dy920 2.298 1_554 S
O930 C944 1.236 . S
O931 Dy921 2.395 . S
O931 C951 1.255 . S
O932 Dy921 2.379 . S
O932 C951 1.249 . S
C933 O923 1.266 . S
C933 O924 1.236 . S
O934 Dy920 2.275 . S
O934 C922 1.239 1_556 S
O935 Dy921 2.339 . S
O935 C922 1.281 . S
C936 C939 1.344 . S
C936 C940 1.324 1_554 S
C936 C942 1.516 1_554 S
C937 C938 1.304 . S
C937 C941 1.323 . S
C938 C937 1.304 . S
C938 C939 1.371 . S
C938 H952 0.930 . S
C939 C936 1.344 . S
C939 C938 1.371 . S
C939 H953 0.931 . S
C940 C936 1.324 1_556 S
C940 C941 1.429 1_556 S
C940 H954 0.939 . S
C941 C937 1.323 . S
C941 C940 1.429 1_554 S
C941 H955 0.925 1_554 S
C942 Dy920 2.738 . S
C942 O925 1.255 . S
C942 O926 1.249 . S
C942 C936 1.516 1_556 S
C943 O927 1.234 1_556 S
C943 O928 1.290 . S
C944 O929 1.266 . S
C944 O930 1.236 . S
C945 C948 1.344 . S
C945 C949 1.327 1_556 S
C945 C951 1.516 1_556 S
C946 C947 1.304 . S
C946 C950 1.323 . S
C947 C946 1.304 . S
C947 C948 1.371 . S
C947 H956 0.930 . S
C948 C945 1.344 . S
C948 C947 1.371 . S
C948 H957 0.931 . S
C949 C945 1.327 1_554 S
C949 C950 1.432 1_554 S
C949 H958 0.933 . S
C950 C946 1.323 . S
C950 C949 1.432 1_556 S
C950 H959 0.929 1_556 S
C951 Dy921 2.738 . S
C951 O931 1.255 . S
C951 O932 1.249 . S
C951 C945 1.516 1_554 S
H952 C938 0.930 . S
H953 C939 0.931 . S
H954 C940 0.939 . S
H955 C941 0.925 1_556 S
H956 C947 0.930 . S
H957 C948 0.931 . S
H958 C949 0.933 . S
H959 C950 0.929 1_554 S
Dy960 O963 2.307 . S
Dy960 O965 2.395 . S
Dy960 O966 2.379 . S
Dy960 O968 2.339 . S
Dy960 O970 2.298 . S
Dy960 O974 2.275 . S
Dy960 C982 2.738 . S
Dy961 O964 2.298 . S
Dy961 O967 2.275 . S
Dy961 O969 2.307 . S
Dy961 O971 2.395 . S
Dy961 O972 2.379 . S
Dy961 O975 2.339 . S
Dy961 C991 2.738 . S
C962 O974 1.254 . S
C962 O975 1.257 . S
O963 Dy960 2.307 . S
O963 C973 1.266 . S
O964 Dy961 2.298 . S
O964 C973 1.236 . S
O965 Dy960 2.395 . S
O965 C982 1.255 . S
O966 Dy960 2.379 . S
O966 C982 1.249 . S
O967 Dy961 2.275 . S
O967 C983 1.254 . S
O968 Dy960 2.339 . S
O968 C983 1.257 . S
O969 Dy961 2.307 . S
O969 C984 1.266 . S
O970 Dy960 2.298 . S
O970 C984 1.236 . S
O971 Dy961 2.395 . S
O971 C991 1.255 . S
O972 Dy961 2.379 . S
O972 C991 1.249 . S
C973 O963 1.266 . S
C973 O964 1.236 . S
O974 Dy960 2.275 . S
O974 C962 1.254 . S
O975 Dy961 2.339 . S
O975 C962 1.257 . S
C976 C979 1.344 . S
C976 C980 1.328 . S
C976 C982 1.516 . S
C977 C978 1.304 . S
C977 C981 1.323 . S
C978 C977 1.304 . S
C978 C979 1.371 . S
C978 H992 0.930 . S
C979 C976 1.344 . S
C979 C978 1.371 . S
C979 H993 0.931 . S
C980 C976 1.328 . S
C980 C981 1.433 . S
C980 H994 0.931 . S
C981 C977 1.323 . S
C981 C980 1.433 . S
C981 H995 0.933 . S
C982 Dy960 2.738 . S
C982 O965 1.255 . S
C982 O966 1.249 . S
C982 C976 1.516 . S
C983 O967 1.254 . S
C983 O968 1.257 . S
C984 O969 1.266 . S
C984 O970 1.236 . S
C985 C988 1.344 . S
C985 C989 1.328 . S
C985 C991 1.516 . S
C986 C987 1.304 . S
C986 C990 1.323 . S
C987 C986 1.304 . S
C987 C988 1.371 . S
C987 H996 0.930 1_565 S
C988 C985 1.344 . S
C988 C987 1.371 . S
C988 H997 0.931 . S
C989 C985 1.328 . S
C989 C990 1.433 . S
C989 H998 0.931 . S
C990 C986 1.323 . S
C990 C989 1.433 . S
C990 H999 0.933 . S
C991 Dy961 2.738 . S
C991 O971 1.255 . S
C991 O972 1.249 . S
C991 C985 1.516 . S
H992 C978 0.930 . S
H993 C979 0.931 . S
H994 C980 0.931 . S
H995 C981 0.933 . S
H996 C987 0.930 1_545 S
H997 C988 0.931 . S
H998 C989 0.931 . S
H999 C990 0.933 . S
Dy1000 O1003 2.307 . S
Dy1000 O1005 2.395 . S
Dy1000 O1006 2.379 . S
Dy1000 O1008 2.339 . S
Dy1000 O1010 2.298 . S
Dy1000 O1014 2.275 . S
Dy1000 C1022 2.738 . S
Dy1001 O1004 2.298 . S
Dy1001 O1007 2.275 . S
Dy1001 O1009 2.307 . S
Dy1001 O1011 2.395 . S
Dy1001 O1012 2.379 . S
Dy1001 O1015 2.339 . S
Dy1001 C1031 2.738 . S
C1002 O1014 1.254 . S
C1002 O1015 1.257 . S
O1003 Dy1000 2.307 . S
O1003 C1013 1.266 . S
O1004 Dy1001 2.298 . S
O1004 C1013 1.236 . S
O1005 Dy1000 2.395 . S
O1005 C1022 1.255 . S
O1006 Dy1000 2.379 . S
O1006 C1022 1.249 . S
O1007 Dy1001 2.275 . S
O1007 C1023 1.254 . S
O1008 Dy1000 2.339 . S
O1008 C1023 1.257 . S
O1009 Dy1001 2.307 . S
O1009 C1024 1.266 . S
O1010 Dy1000 2.298 . S
O1010 C1024 1.236 . S
O1011 Dy1001 2.395 . S
O1011 C1031 1.255 . S
O1012 Dy1001 2.379 . S
O1012 C1031 1.249 . S
C1013 O1003 1.266 . S
C1013 O1004 1.236 . S
O1014 Dy1000 2.275 . S
O1014 C1002 1.254 . S
O1015 Dy1001 2.339 . S
O1015 C1002 1.257 . S
C1016 C1019 1.344 . S
C1016 C1020 1.328 . S
C1016 C1022 1.516 . S
C1017 C1018 1.304 . S
C1017 C1021 1.323 . S
C1018 C1017 1.304 . S
C1018 C1019 1.371 . S
C1018 H1032 0.930 . S
C1019 C1016 1.344 . S
C1019 C1018 1.371 . S
C1019 H1033 0.931 . S
C1020 C1016 1.328 . S
C1020 C1021 1.433 . S
C1020 H1034 0.931 . S
C1021 C1017 1.323 . S
C1021 C1020 1.433 . S
C1021 H1035 0.933 . S
C1022 Dy1000 2.738 . S
C1022 O1005 1.255 . S
C1022 O1006 1.249 . S
C1022 C1016 1.516 . S
C1023 O1007 1.254 . S
C1023 O1008 1.257 . S
C1024 O1009 1.266 . S
C1024 O1010 1.236 . S
C1025 C1028 1.344 . S
C1025 C1029 1.328 . S
C1025 C1031 1.516 . S
C1026 C1027 1.304 . S
C1026 C1030 1.323 . S
C1027 C1026 1.304 . S
C1027 C1028 1.371 . S
C1027 H1036 0.930 1_455 S
C1028 C1025 1.344 . S
C1028 C1027 1.371 . S
C1028 H1037 0.931 . S
C1029 C1025 1.328 . S
C1029 C1030 1.433 . S
C1029 H1038 0.931 . S
C1030 C1026 1.323 . S
C1030 C1029 1.433 . S
C1030 H1039 0.933 . S
C1031 Dy1001 2.738 . S
C1031 O1011 1.255 . S
C1031 O1012 1.249 . S
C1031 C1025 1.516 . S
H1032 C1018 0.930 . S
H1033 C1019 0.931 . S
H1034 C1020 0.931 . S
H1035 C1021 0.933 . S
H1036 C1027 0.930 1_655 S
H1037 C1028 0.931 . S
H1038 C1029 0.931 . S
H1039 C1030 0.933 . S
Dy1040 O1043 2.307 . S
Dy1040 O1045 2.395 . S
Dy1040 O1046 2.379 . S
Dy1040 O1048 2.339 . S
Dy1040 O1050 2.298 . S
Dy1040 O1054 2.275 . S
Dy1040 C1062 2.738 . S
Dy1041 O1044 2.298 . S
Dy1041 O1047 2.275 . S
Dy1041 O1049 2.307 . S
Dy1041 O1051 2.395 . S
Dy1041 O1052 2.379 . S
Dy1041 O1055 2.339 . S
Dy1041 C1071 2.738 . S
C1042 O1054 1.254 . S
C1042 O1055 1.257 . S
O1043 Dy1040 2.307 . S
O1043 C1053 1.266 . S
O1044 Dy1041 2.298 . S
O1044 C1053 1.236 . S
O1045 Dy1040 2.395 . S
O1045 C1062 1.255 . S
O1046 Dy1040 2.379 . S
O1046 C1062 1.249 . S
O1047 Dy1041 2.275 . S
O1047 C1063 1.254 . S
O1048 Dy1040 2.339 . S
O1048 C1063 1.257 . S
O1049 Dy1041 2.307 . S
O1049 C1064 1.266 . S
O1050 Dy1040 2.298 . S
O1050 C1064 1.236 . S
O1051 Dy1041 2.395 . S
O1051 C1071 1.255 . S
O1052 Dy1041 2.379 . S
O1052 C1071 1.249 . S
C1053 O1043 1.266 . S
C1053 O1044 1.236 . S
O1054 Dy1040 2.275 . S
O1054 C1042 1.254 . S
O1055 Dy1041 2.339 . S
O1055 C1042 1.257 . S
C1056 C1059 1.344 . S
C1056 C1060 1.328 . S
C1056 C1062 1.516 . S
C1057 C1058 1.304 . S
C1057 C1061 1.323 . S
C1058 C1057 1.304 . S
C1058 C1059 1.371 . S
C1058 H1072 0.930 . S
C1059 C1056 1.344 . S
C1059 C1058 1.371 . S
C1059 H1073 0.931 . S
C1060 C1056 1.328 . S
C1060 C1061 1.433 . S
C1060 H1074 0.931 . S
C1061 C1057 1.323 . S
C1061 C1060 1.433 . S
C1061 H1075 0.933 . S
C1062 Dy1040 2.738 . S
C1062 O1045 1.255 . S
C1062 O1046 1.249 . S
C1062 C1056 1.516 . S
C1063 O1047 1.254 . S
C1063 O1048 1.257 . S
C1064 O1049 1.266 . S
C1064 O1050 1.236 . S
C1065 C1068 1.344 . S
C1065 C1069 1.328 . S
C1065 C1071 1.516 . S
C1066 C1067 1.304 . S
C1066 C1070 1.323 . S
C1067 C1066 1.304 . S
C1067 C1068 1.371 . S
C1067 H1076 0.930 . S
C1068 C1065 1.344 . S
C1068 C1067 1.371 . S
C1068 H1077 0.931 . S
C1069 C1065 1.328 . S
C1069 C1070 1.433 . S
C1069 H1078 0.931 . S
C1070 C1066 1.323 . S
C1070 C1069 1.433 . S
C1070 H1079 0.933 . S
C1071 Dy1041 2.738 . S
C1071 O1051 1.255 . S
C1071 O1052 1.249 . S
C1071 C1065 1.516 . S
H1072 C1058 0.930 . S
H1073 C1059 0.931 . S
H1074 C1060 0.931 . S
H1075 C1061 0.933 . S
H1076 C1067 0.930 . S
H1077 C1068 0.931 . S
H1078 C1069 0.931 . S
H1079 C1070 0.933 . S
Dy1080 O1083 2.307 . S
Dy1080 O1085 2.395 . S
Dy1080 O1086 2.379 . S
Dy1080 O1088 2.339 . S
Dy1080 O1090 2.298 1_556 S
Dy1080 O1094 2.275 . S
Dy1080 C1102 2.738 . S
Dy1081 O1084 2.298 1_554 S
Dy1081 O1087 2.275 . S
Dy1081 O1089 2.307 . S
Dy1081 O1091 2.395 . S
Dy1081 O1092 2.379 . S
Dy1081 O1095 2.339 . S
Dy1081 C1111 2.738 . S
C1082 O1094 1.234 1_554 S
C1082 O1095 1.290 . S
O1083 Dy1080 2.307 . S
O1083 C1093 1.266 . S
O1084 Dy1081 2.298 1_556 S
O1084 C1093 1.236 . S
O1085 Dy1080 2.395 . S
O1085 C1102 1.255 . S
O1086 Dy1080 2.379 . S
O1086 C1102 1.249 . S
O1087 Dy1081 2.275 . S
O1087 C1103 1.239 1_554 S
O1088 Dy1080 2.339 . S
O1088 C1103 1.281 . S
O1089 Dy1081 2.307 . S
O1089 C1104 1.266 . S
O1090 Dy1080 2.298 1_554 S
O1090 C1104 1.236 . S
O1091 Dy1081 2.395 . S
O1091 C1111 1.255 . S
O1092 Dy1081 2.379 . S
O1092 C1111 1.249 . S
C1093 O1083 1.266 . S
C1093 O1084 1.236 . S
O1094 Dy1080 2.275 . S
O1094 C1082 1.234 1_556 S
O1095 Dy1081 2.339 . S
O1095 C1082 1.290 . S
C1096 C1099 1.344 . S
C1096 C1100 1.327 1_554 S
C1096 C1102 1.516 1_554 S
C1097 C1098 1.304 1_545 S
C1097 C1101 1.323 . S
C1098 C1097 1.304 1_565 S
C1098 C1099 1.371 . S
C1098 H1112 0.930 . S
C1099 C1096 1.344 . S
C1099 C1098 1.371 . S
C1099 H1113 0.931 . S
C1100 C1096 1.327 1_556 S
C1100 C1101 1.432 1_566 S
C1100 H1114 0.933 . S
C1101 C1097 1.323 . S
C1101 C1100 1.432 1_544 S
C1101 H1115 0.929 1_554 S
C1102 Dy1080 2.738 . S
C1102 O1085 1.255 . S
C1102 O1086 1.249 . S
C1102 C1096 1.516 1_556 S
C1103 O1087 1.239 1_556 S
C1103 O1088 1.281 . S
C1104 O1089 1.266 . S
C1104 O1090 1.236 . S
C1105 C1108 1.344 . S
C1105 C1109 1.324 1_556 S
C1105 C1111 1.516 1_556 S
C1106 C1107 1.304 . S
C1106 C1110 1.323 . S
C1107 C1106 1.304 . S
C1107 C1108 1.371 . S
C1107 H1116 0.930 . S
C1108 C1105 1.344 . S
C1108 C1107 1.371 . S
C1108 H1117 0.931 . S
C1109 C1105 1.324 1_554 S
C1109 C1110 1.429 1_554 S
C1109 H1118 0.939 . S
C1110 C1106 1.323 . S
C1110 C1109 1.429 1_556 S
C1110 H1119 0.925 1_556 S
C1111 Dy1081 2.738 . S
C1111 O1091 1.255 . S
C1111 O1092 1.249 . S
C1111 C1105 1.516 1_554 S
H1112 C1098 0.930 . S
H1113 C1099 0.931 . S
H1114 C1100 0.933 . S
H1115 C1101 0.929 1_556 S
H1116 C1107 0.930 . S
H1117 C1108 0.931 . S
H1118 C1109 0.939 . S
H1119 C1110 0.925 1_554 S
Dy1120 O1123 2.307 . S
Dy1120 O1125 2.395 . S
Dy1120 O1126 2.379 . S
Dy1120 O1128 2.339 . S
Dy1120 O1130 2.298 1_556 S
Dy1120 O1134 2.275 . S
Dy1120 C1142 2.738 . S
Dy1121 O1124 2.298 1_554 S
Dy1121 O1127 2.275 . S
Dy1121 O1129 2.307 . S
Dy1121 O1131 2.395 . S
Dy1121 O1132 2.379 . S
Dy1121 O1135 2.339 . S
Dy1121 C1151 2.738 . S
C1122 O1134 1.234 1_554 S
C1122 O1135 1.290 . S
O1123 Dy1120 2.307 . S
O1123 C1133 1.266 . S
O1124 Dy1121 2.298 1_556 S
O1124 C1133 1.236 . S
O1125 Dy1120 2.395 . S
O1125 C1142 1.255 . S
O1126 Dy1120 2.379 . S
O1126 C1142 1.249 . S
O1127 Dy1121 2.275 . S
O1127 C1143 1.239 1_554 S
O1128 Dy1120 2.339 . S
O1128 C1143 1.281 . S
O1129 Dy1121 2.307 . S
O1129 C1144 1.266 . S
O1130 Dy1120 2.298 1_554 S
O1130 C1144 1.236 . S
O1131 Dy1121 2.395 . S
O1131 C1151 1.255 . S
O1132 Dy1121 2.379 . S
O1132 C1151 1.249 . S
C1133 O1123 1.266 . S
C1133 O1124 1.236 . S
O1134 Dy1120 2.275 . S
O1134 C1122 1.234 1_556 S
O1135 Dy1121 2.339 . S
O1135 C1122 1.290 . S
C1136 C1139 1.344 . S
C1136 C1140 1.327 1_554 S
C1136 C1142 1.516 1_554 S
C1137 C1138 1.304 1_655 S
C1137 C1141 1.323 . S
C1138 C1137 1.304 1_455 S
C1138 C1139 1.371 . S
C1138 H1152 0.930 . S
C1139 C1136 1.344 . S
C1139 C1138 1.371 . S
C1139 H1153 0.931 . S
C1140 C1136 1.327 1_556 S
C1140 C1141 1.432 1_456 S
C1140 H1154 0.933 . S
C1141 C1137 1.323 . S
C1141 C1140 1.432 1_654 S
C1141 H1155 0.929 1_554 S
C1142 Dy1120 2.738 . S
C1142 O1125 1.255 . S
C1142 O1126 1.249 . S
C1142 C1136 1.516 1_556 S
C1143 O1127 1.239 1_556 S
C1143 O1128 1.281 . S
C1144 O1129 1.266 . S
C1144 O1130 1.236 . S
C1145 C1148 1.344 . S
C1145 C1149 1.324 1_556 S
C1145 C1151 1.516 1_556 S
C1146 C1147 1.304 . S
C1146 C1150 1.323 . S
C1147 C1146 1.304 . S
C1147 C1148 1.371 . S
C1147 H1156 0.930 . S
C1148 C1145 1.344 . S
C1148 C1147 1.371 . S
C1148 H1157 0.931 . S
C1149 C1145 1.324 1_554 S
C1149 C1150 1.429 1_554 S
C1149 H1158 0.939 . S
C1150 C1146 1.323 . S
C1150 C1149 1.429 1_556 S
C1150 H1159 0.925 1_556 S
C1151 Dy1121 2.738 . S
C1151 O1131 1.255 . S
C1151 O1132 1.249 . S
C1151 C1145 1.516 1_554 S
H1152 C1138 0.930 . S
H1153 C1139 0.931 . S
H1154 C1140 0.933 . S
H1155 C1141 0.929 1_556 S
H1156 C1147 0.930 . S
H1157 C1148 0.931 . S
H1158 C1149 0.939 . S
H1159 C1150 0.925 1_554 S
Dy1160 O1163 2.307 . S
Dy1160 O1165 2.395 . S
Dy1160 O1166 2.379 . S
Dy1160 O1168 2.339 . S
Dy1160 O1170 2.298 1_556 S
Dy1160 O1174 2.275 . S
Dy1160 C1182 2.738 . S
Dy1161 O1164 2.298 1_554 S
Dy1161 O1167 2.275 . S
Dy1161 O1169 2.307 . S
Dy1161 O1171 2.395 . S
Dy1161 O1172 2.379 . S
Dy1161 O1175 2.339 . S
Dy1161 C1191 2.738 . S
C1162 O1174 1.234 1_554 S
C1162 O1175 1.290 . S
O1163 Dy1160 2.307 . S
O1163 C1173 1.266 . S
O1164 Dy1161 2.298 1_556 S
O1164 C1173 1.236 . S
O1165 Dy1160 2.395 . S
O1165 C1182 1.255 . S
O1166 Dy1160 2.379 . S
O1166 C1182 1.249 . S
O1167 Dy1161 2.275 . S
O1167 C1183 1.239 1_554 S
O1168 Dy1160 2.339 . S
O1168 C1183 1.281 . S
O1169 Dy1161 2.307 . S
O1169 C1184 1.266 . S
O1170 Dy1160 2.298 1_554 S
O1170 C1184 1.236 . S
O1171 Dy1161 2.395 . S
O1171 C1191 1.255 . S
O1172 Dy1161 2.379 . S
O1172 C1191 1.249 . S
C1173 O1163 1.266 . S
C1173 O1164 1.236 . S
O1174 Dy1160 2.275 . S
O1174 C1162 1.234 1_556 S
O1175 Dy1161 2.339 . S
O1175 C1162 1.290 . S
C1176 C1179 1.344 . S
C1176 C1180 1.327 1_554 S
C1176 C1182 1.516 1_554 S
C1177 C1178 1.304 . S
C1177 C1181 1.323 . S
C1178 C1177 1.304 . S
C1178 C1179 1.371 . S
C1178 H1192 0.930 . S
C1179 C1176 1.344 . S
C1179 C1178 1.371 . S
C1179 H1193 0.931 . S
C1180 C1176 1.327 1_556 S
C1180 C1181 1.432 1_556 S
C1180 H1194 0.933 . S
C1181 C1177 1.323 . S
C1181 C1180 1.432 1_554 S
C1181 H1195 0.929 1_554 S
C1182 Dy1160 2.738 . S
C1182 O1165 1.255 . S
C1182 O1166 1.249 . S
C1182 C1176 1.516 1_556 S
C1183 O1167 1.239 1_556 S
C1183 O1168 1.281 . S
C1184 O1169 1.266 . S
C1184 O1170 1.236 . S
C1185 C1188 1.344 . S
C1185 C1189 1.324 1_556 S
C1185 C1191 1.516 1_556 S
C1186 C1187 1.304 . S
C1186 C1190 1.323 . S
C1187 C1186 1.304 . S
C1187 C1188 1.371 . S
C1187 H1196 0.930 . S
C1188 C1185 1.344 . S
C1188 C1187 1.371 . S
C1188 H1197 0.931 . S
C1189 C1185 1.324 1_554 S
C1189 C1190 1.429 1_554 S
C1189 H1198 0.939 . S
C1190 C1186 1.323 . S
C1190 C1189 1.429 1_556 S
C1190 H1199 0.925 1_556 S
C1191 Dy1161 2.738 . S
C1191 O1171 1.255 . S
C1191 O1172 1.249 . S
C1191 C1185 1.516 1_554 S
H1192 C1178 0.930 . S
H1193 C1179 0.931 . S
H1194 C1180 0.933 . S
H1195 C1181 0.929 1_556 S
H1196 C1187 0.930 . S
H1197 C1188 0.931 . S
H1198 C1189 0.939 . S
H1199 C1190 0.925 1_554 S
Dy1200 O1203 2.307 . S
Dy1200 O1205 2.395 . S
Dy1200 O1206 2.379 . S
Dy1200 O1208 2.339 . S
Dy1200 O1210 2.298 . S
Dy1200 O1214 2.275 . S
Dy1200 C1222 2.738 . S
Dy1201 O1204 2.298 . S
Dy1201 O1207 2.275 . S
Dy1201 O1209 2.307 . S
Dy1201 O1211 2.395 . S
Dy1201 O1212 2.379 . S
Dy1201 O1215 2.339 . S
Dy1201 C1231 2.738 . S
C1202 O1214 1.254 . S
C1202 O1215 1.257 . S
O1203 Dy1200 2.307 . S
O1203 C1213 1.266 . S
O1204 Dy1201 2.298 . S
O1204 C1213 1.236 . S
O1205 Dy1200 2.395 . S
O1205 C1222 1.255 . S
O1206 Dy1200 2.379 . S
O1206 C1222 1.249 . S
O1207 Dy1201 2.275 . S
O1207 C1223 1.254 . S
O1208 Dy1200 2.339 . S
O1208 C1223 1.257 . S
O1209 Dy1201 2.307 . S
O1209 C1224 1.266 . S
O1210 Dy1200 2.298 . S
O1210 C1224 1.236 . S
O1211 Dy1201 2.395 . S
O1211 C1231 1.255 . S
O1212 Dy1201 2.379 . S
O1212 C1231 1.249 . S
C1213 O1203 1.266 . S
C1213 O1204 1.236 . S
O1214 Dy1200 2.275 . S
O1214 C1202 1.254 . S
O1215 Dy1201 2.339 . S
O1215 C1202 1.257 . S
C1216 C1219 1.344 . S
C1216 C1220 1.328 . S
C1216 C1222 1.516 . S
C1217 C1218 1.304 . S
C1217 C1221 1.323 . S
C1218 C1217 1.304 . S
C1218 C1219 1.371 . S
C1218 H1232 0.930 . S
C1219 C1216 1.344 . S
C1219 C1218 1.371 . S
C1219 H1233 0.931 . S
C1220 C1216 1.328 . S
C1220 C1221 1.433 . S
C1220 H1234 0.931 . S
C1221 C1217 1.323 . S
C1221 C1220 1.433 . S
C1221 H1235 0.933 . S
C1222 Dy1200 2.738 . S
C1222 O1205 1.255 . S
C1222 O1206 1.249 . S
C1222 C1216 1.516 . S
C1223 O1207 1.254 . S
C1223 O1208 1.257 . S
C1224 O1209 1.266 . S
C1224 O1210 1.236 . S
C1225 C1228 1.344 . S
C1225 C1229 1.328 . S
C1225 C1231 1.516 . S
C1226 C1227 1.304 . S
C1226 C1230 1.323 . S
C1227 C1226 1.304 . S
C1227 C1228 1.371 . S
C1227 H1236 0.930 . S
C1228 C1225 1.344 . S
C1228 C1227 1.371 . S
C1228 H1237 0.931 . S
C1229 C1225 1.328 . S
C1229 C1230 1.433 . S
C1229 H1238 0.931 . S
C1230 C1226 1.323 . S
C1230 C1229 1.433 . S
C1230 H1239 0.933 . S
C1231 Dy1201 2.738 . S
C1231 O1211 1.255 . S
C1231 O1212 1.249 . S
C1231 C1225 1.516 . S
H1232 C1218 0.930 . S
H1233 C1219 0.931 . S
H1234 C1220 0.931 . S
H1235 C1221 0.933 . S
H1236 C1227 0.930 . S
H1237 C1228 0.931 . S
H1238 C1229 0.931 . S
H1239 C1230 0.933 . S
Dy1240 O1243 2.307 . S
Dy1240 O1245 2.395 . S
Dy1240 O1246 2.379 . S
Dy1240 O1248 2.339 . S
Dy1240 O1250 2.298 . S
Dy1240 O1254 2.275 . S
Dy1240 C1262 2.738 . S
Dy1241 O1244 2.298 . S
Dy1241 O1247 2.275 . S
Dy1241 O1249 2.307 . S
Dy1241 O1251 2.395 . S
Dy1241 O1252 2.379 . S
Dy1241 O1255 2.339 . S
Dy1241 C1271 2.738 . S
C1242 O1254 1.254 . S
C1242 O1255 1.257 . S
O1243 Dy1240 2.307 . S
O1243 C1253 1.266 . S
O1244 Dy1241 2.298 . S
O1244 C1253 1.236 . S
O1245 Dy1240 2.395 . S
O1245 C1262 1.255 . S
O1246 Dy1240 2.379 . S
O1246 C1262 1.249 . S
O1247 Dy1241 2.275 . S
O1247 C1263 1.254 . S
O1248 Dy1240 2.339 . S
O1248 C1263 1.257 . S
O1249 Dy1241 2.307 . S
O1249 C1264 1.266 . S
O1250 Dy1240 2.298 . S
O1250 C1264 1.236 . S
O1251 Dy1241 2.395 . S
O1251 C1271 1.255 . S
O1252 Dy1241 2.379 . S
O1252 C1271 1.249 . S
C1253 O1243 1.266 . S
C1253 O1244 1.236 . S
O1254 Dy1240 2.275 . S
O1254 C1242 1.254 . S
O1255 Dy1241 2.339 . S
O1255 C1242 1.257 . S
C1256 C1259 1.344 . S
C1256 C1260 1.328 . S
C1256 C1262 1.516 . S
C1257 C1258 1.304 . S
C1257 C1261 1.323 . S
C1258 C1257 1.304 . S
C1258 C1259 1.371 . S
C1258 H1272 0.930 . S
C1259 C1256 1.344 . S
C1259 C1258 1.371 . S
C1259 H1273 0.931 . S
C1260 C1256 1.328 . S
C1260 C1261 1.433 . S
C1260 H1274 0.931 . S
C1261 C1257 1.323 . S
C1261 C1260 1.433 . S
C1261 H1275 0.933 . S
C1262 Dy1240 2.738 . S
C1262 O1245 1.255 . S
C1262 O1246 1.249 . S
C1262 C1256 1.516 . S
C1263 O1247 1.254 . S
C1263 O1248 1.257 . S
C1264 O1249 1.266 . S
C1264 O1250 1.236 . S
C1265 C1268 1.344 . S
C1265 C1269 1.328 . S
C1265 C1271 1.516 . S
C1266 C1267 1.304 . S
C1266 C1270 1.323 . S
C1267 C1266 1.304 . S
C1267 C1268 1.371 . S
C1267 H1276 0.930 . S
C1268 C1265 1.344 . S
C1268 C1267 1.371 . S
C1268 H1277 0.931 . S
C1269 C1265 1.328 . S
C1269 C1270 1.433 . S
C1269 H1278 0.931 . S
C1270 C1266 1.323 . S
C1270 C1269 1.433 . S
C1270 H1279 0.933 . S
C1271 Dy1241 2.738 . S
C1271 O1251 1.255 . S
C1271 O1252 1.249 . S
C1271 C1265 1.516 . S
H1272 C1258 0.930 . S
H1273 C1259 0.931 . S
H1274 C1260 0.931 . S
H1275 C1261 0.933 . S
H1276 C1267 0.930 . S
H1277 C1268 0.931 . S
H1278 C1269 0.931 . S
H1279 C1270 0.933 . S
Dy1280 O1283 2.307 . S
Dy1280 O1285 2.395 . S
Dy1280 O1286 2.379 . S
Dy1280 O1288 2.339 . S
Dy1280 O1290 2.298 . S
Dy1280 O1294 2.275 . S
Dy1280 C1302 2.738 . S
Dy1281 O1284 2.298 . S
Dy1281 O1287 2.275 . S
Dy1281 O1289 2.307 . S
Dy1281 O1291 2.395 . S
Dy1281 O1292 2.379 . S
Dy1281 O1295 2.339 . S
Dy1281 C1311 2.738 . S
C1282 O1294 1.254 . S
C1282 O1295 1.257 . S
O1283 Dy1280 2.307 . S
O1283 C1293 1.266 . S
O1284 Dy1281 2.298 . S
O1284 C1293 1.236 . S
O1285 Dy1280 2.395 . S
O1285 C1302 1.255 . S
O1286 Dy1280 2.379 . S
O1286 C1302 1.249 . S
O1287 Dy1281 2.275 . S
O1287 C1303 1.254 . S
O1288 Dy1280 2.339 . S
O1288 C1303 1.257 . S
O1289 Dy1281 2.307 . S
O1289 C1304 1.266 . S
O1290 Dy1280 2.298 . S
O1290 C1304 1.236 . S
O1291 Dy1281 2.395 . S
O1291 C1311 1.255 . S
O1292 Dy1281 2.379 . S
O1292 C1311 1.249 . S
C1293 O1283 1.266 . S
C1293 O1284 1.236 . S
O1294 Dy1280 2.275 . S
O1294 C1282 1.254 . S
O1295 Dy1281 2.339 . S
O1295 C1282 1.257 . S
C1296 C1299 1.344 . S
C1296 C1300 1.328 . S
C1296 C1302 1.516 . S
C1297 C1298 1.304 . S
C1297 C1301 1.323 . S
C1298 C1297 1.304 . S
C1298 C1299 1.371 . S
C1298 H1312 0.930 . S
C1299 C1296 1.344 . S
C1299 C1298 1.371 . S
C1299 H1313 0.931 . S
C1300 C1296 1.328 . S
C1300 C1301 1.433 . S
C1300 H1314 0.931 . S
C1301 C1297 1.323 . S
C1301 C1300 1.433 . S
C1301 H1315 0.933 . S
C1302 Dy1280 2.738 . S
C1302 O1285 1.255 . S
C1302 O1286 1.249 . S
C1302 C1296 1.516 . S
C1303 O1287 1.254 . S
C1303 O1288 1.257 . S
C1304 O1289 1.266 . S
C1304 O1290 1.236 . S
C1305 C1308 1.344 . S
C1305 C1309 1.328 . S
C1305 C1311 1.516 . S
C1306 C1307 1.304 . S
C1306 C1310 1.323 . S
C1307 C1306 1.304 . S
C1307 C1308 1.371 . S
C1307 H1316 0.930 . S
C1308 C1305 1.344 . S
C1308 C1307 1.371 . S
C1308 H1317 0.931 . S
C1309 C1305 1.328 . S
C1309 C1310 1.433 . S
C1309 H1318 0.931 . S
C1310 C1306 1.323 . S
C1310 C1309 1.433 . S
C1310 H1319 0.933 . S
C1311 Dy1281 2.738 . S
C1311 O1291 1.255 . S
C1311 O1292 1.249 . S
C1311 C1305 1.516 . S
H1312 C1298 0.930 . S
H1313 C1299 0.931 . S
H1314 C1300 0.931 . S
H1315 C1301 0.933 . S
H1316 C1307 0.930 . S
H1317 C1308 0.931 . S
H1318 C1309 0.931 . S
H1319 C1310 0.933 . S
Dy1320 O1323 2.307 . S
Dy1320 O1325 2.395 . S
Dy1320 O1326 2.379 . S
Dy1320 O1328 2.339 . S
Dy1320 O1330 2.298 . S
Dy1320 O1334 2.275 . S
Dy1320 C1342 2.738 . S
Dy1321 O1324 2.298 . S
Dy1321 O1327 2.275 . S
Dy1321 O1329 2.307 . S
Dy1321 O1331 2.395 1_455 S
Dy1321 O1332 2.379 . S
Dy1321 O1335 2.339 . S
Dy1321 C1351 2.738 1_455 S
C1322 O1334 1.254 . S
C1322 O1335 1.257 . S
O1323 Dy1320 2.307 . S
O1323 C1333 1.266 . S
O1324 Dy1321 2.298 . S
O1324 C1333 1.236 . S
O1325 Dy1320 2.395 . S
O1325 C1342 1.255 . S
O1326 Dy1320 2.379 . S
O1326 C1342 1.249 . S
O1327 Dy1321 2.275 . S
O1327 C1343 1.254 . S
O1328 Dy1320 2.339 . S
O1328 C1343 1.257 . S
O1329 Dy1321 2.307 . S
O1329 C1344 1.266 . S
O1330 Dy1320 2.298 . S
O1330 C1344 1.236 . S
O1331 Dy1321 2.395 1_655 S
O1331 C1351 1.255 . S
O1332 Dy1321 2.379 . S
O1332 C1351 1.249 1_455 S
C1333 O1323 1.266 . S
C1333 O1324 1.236 . S
O1334 Dy1320 2.275 . S
O1334 C1322 1.254 . S
O1335 Dy1321 2.339 . S
O1335 C1322 1.257 . S
C1336 C1339 1.344 . S
C1336 C1340 1.328 . S
C1336 C1342 1.516 . S
C1337 C1338 1.304 . S
C1337 C1341 1.323 . S
C1338 C1337 1.304 . S
C1338 C1339 1.371 . S
C1338 H1352 0.930 . S
C1339 C1336 1.344 . S
C1339 C1338 1.371 . S
C1339 H1353 0.931 . S
C1340 C1336 1.328 . S
C1340 C1341 1.433 . S
C1340 H1354 0.931 . S
C1341 C1337 1.323 . S
C1341 C1340 1.433 . S
C1341 H1355 0.933 . S
C1342 Dy1320 2.738 . S
C1342 O1325 1.255 . S
C1342 O1326 1.249 . S
C1342 C1336 1.516 . S
C1343 O1327 1.254 . S
C1343 O1328 1.257 . S
C1344 O1329 1.266 . S
C1344 O1330 1.236 . S
C1345 C1348 1.344 . S
C1345 C1349 1.328 . S
C1345 C1351 1.516 . S
C1346 C1347 1.304 . S
C1346 C1350 1.323 . S
C1347 C1346 1.304 . S
C1347 C1348 1.371 . S
C1347 H1356 0.930 . S
C1348 C1345 1.344 . S
C1348 C1347 1.371 . S
C1348 H1357 0.931 . S
C1349 C1345 1.328 . S
C1349 C1350 1.433 . S
C1349 H1358 0.931 . S
C1350 C1346 1.323 . S
C1350 C1349 1.433 . S
C1350 H1359 0.933 . S
C1351 Dy1321 2.738 1_655 S
C1351 O1331 1.255 . S
C1351 O1332 1.249 1_655 S
C1351 C1345 1.516 . S
H1352 C1338 0.930 . S
H1353 C1339 0.931 . S
H1354 C1340 0.931 . S
H1355 C1341 0.933 . S
H1356 C1347 0.930 . S
H1357 C1348 0.931 . S
H1358 C1349 0.931 . S
H1359 C1350 0.933 . S
Dy1360 O1363 2.307 . S
Dy1360 O1365 2.395 . S
Dy1360 O1366 2.379 . S
Dy1360 O1368 2.339 . S
Dy1360 O1370 2.298 . S
Dy1360 O1374 2.275 . S
Dy1360 C1382 2.738 . S
Dy1361 O1364 2.298 . S
Dy1361 O1367 2.275 . S
Dy1361 O1369 2.307 . S
Dy1361 O1371 2.395 . S
Dy1361 O1372 2.379 . S
Dy1361 O1375 2.339 . S
Dy1361 C1391 2.738 . S
C1362 O1374 1.254 . S
C1362 O1375 1.257 . S
O1363 Dy1360 2.307 . S
O1363 C1373 1.266 . S
O1364 Dy1361 2.298 . S
O1364 C1373 1.236 . S
O1365 Dy1360 2.395 . S
O1365 C1382 1.255 . S
O1366 Dy1360 2.379 . S
O1366 C1382 1.249 . S
O1367 Dy1361 2.275 . S
O1367 C1383 1.254 . S
O1368 Dy1360 2.339 . S
O1368 C1383 1.257 . S
O1369 Dy1361 2.307 . S
O1369 C1384 1.266 . S
O1370 Dy1360 2.298 . S
O1370 C1384 1.236 . S
O1371 Dy1361 2.395 . S
O1371 C1391 1.255 . S
O1372 Dy1361 2.379 . S
O1372 C1391 1.249 . S
C1373 O1363 1.266 . S
C1373 O1364 1.236 . S
O1374 Dy1360 2.275 . S
O1374 C1362 1.254 . S
O1375 Dy1361 2.339 . S
O1375 C1362 1.257 . S
C1376 C1379 1.344 . S
C1376 C1380 1.328 . S
C1376 C1382 1.516 . S
C1377 C1378 1.304 . S
C1377 C1381 1.323 . S
C1378 C1377 1.304 . S
C1378 C1379 1.371 . S
C1378 H1392 0.930 . S
C1379 C1376 1.344 . S
C1379 C1378 1.371 . S
C1379 H1393 0.931 . S
C1380 C1376 1.328 . S
C1380 C1381 1.433 . S
C1380 H1394 0.931 . S
C1381 C1377 1.323 . S
C1381 C1380 1.433 . S
C1381 H1395 0.933 . S
C1382 Dy1360 2.738 . S
C1382 O1365 1.255 . S
C1382 O1366 1.249 . S
C1382 C1376 1.516 . S
C1383 O1367 1.254 . S
C1383 O1368 1.257 . S
C1384 O1369 1.266 . S
C1384 O1370 1.236 . S
C1385 C1388 1.344 . S
C1385 C1389 1.328 . S
C1385 C1391 1.516 . S
C1386 C1387 1.304 . S
C1386 C1390 1.323 . S
C1387 C1386 1.304 . S
C1387 C1388 1.371 . S
C1387 H1396 0.930 . S
C1388 C1385 1.344 . S
C1388 C1387 1.371 . S
C1388 H1397 0.931 . S
C1389 C1385 1.328 . S
C1389 C1390 1.433 . S
C1389 H1398 0.931 . S
C1390 C1386 1.323 . S
C1390 C1389 1.433 . S
C1390 H1399 0.933 . S
C1391 Dy1361 2.738 . S
C1391 O1371 1.255 . S
C1391 O1372 1.249 . S
C1391 C1385 1.516 . S
H1392 C1378 0.930 . S
H1393 C1379 0.931 . S
H1394 C1380 0.931 . S
H1395 C1381 0.933 . S
H1396 C1387 0.930 . S
H1397 C1388 0.931 . S
H1398 C1389 0.931 . S
H1399 C1390 0.933 . S
Dy1400 O1403 2.307 . S
Dy1400 O1405 2.395 . S
Dy1400 O1406 2.379 . S
Dy1400 O1408 2.339 . S
Dy1400 O1410 2.298 . S
Dy1400 O1414 2.275 . S
Dy1400 C1422 2.738 . S
Dy1401 O1404 2.298 . S
Dy1401 O1407 2.275 . S
Dy1401 O1409 2.307 . S
Dy1401 O1411 2.395 1_565 S
Dy1401 O1412 2.379 . S
Dy1401 O1415 2.339 . S
Dy1401 C1431 2.738 1_565 S
C1402 O1414 1.254 . S
C1402 O1415 1.257 . S
O1403 Dy1400 2.307 . S
O1403 C1413 1.266 . S
O1404 Dy1401 2.298 . S
O1404 C1413 1.236 . S
O1405 Dy1400 2.395 . S
O1405 C1422 1.255 . S
O1406 Dy1400 2.379 . S
O1406 C1422 1.249 . S
O1407 Dy1401 2.275 . S
O1407 C1423 1.254 . S
O1408 Dy1400 2.339 . S
O1408 C1423 1.257 . S
O1409 Dy1401 2.307 . S
O1409 C1424 1.266 . S
O1410 Dy1400 2.298 . S
O1410 C1424 1.236 . S
O1411 Dy1401 2.395 1_545 S
O1411 C1431 1.255 . S
O1412 Dy1401 2.379 . S
O1412 C1431 1.249 1_565 S
C1413 O1403 1.266 . S
C1413 O1404 1.236 . S
O1414 Dy1400 2.275 . S
O1414 C1402 1.254 . S
O1415 Dy1401 2.339 . S
O1415 C1402 1.257 . S
C1416 C1419 1.344 . S
C1416 C1420 1.328 . S
C1416 C1422 1.516 . S
C1417 C1418 1.304 . S
C1417 C1421 1.323 . S
C1418 C1417 1.304 . S
C1418 C1419 1.371 . S
C1418 H1432 0.930 . S
C1419 C1416 1.344 . S
C1419 C1418 1.371 . S
C1419 H1433 0.931 . S
C1420 C1416 1.328 . S
C1420 C1421 1.433 . S
C1420 H1434 0.931 . S
C1421 C1417 1.323 . S
C1421 C1420 1.433 . S
C1421 H1435 0.933 . S
C1422 Dy1400 2.738 . S
C1422 O1405 1.255 . S
C1422 O1406 1.249 . S
C1422 C1416 1.516 . S
C1423 O1407 1.254 . S
C1423 O1408 1.257 . S
C1424 O1409 1.266 . S
C1424 O1410 1.236 . S
C1425 C1428 1.344 . S
C1425 C1429 1.328 . S
C1425 C1431 1.516 . S
C1426 C1427 1.304 . S
C1426 C1430 1.323 . S
C1427 C1426 1.304 . S
C1427 C1428 1.371 . S
C1427 H1436 0.930 . S
C1428 C1425 1.344 . S
C1428 C1427 1.371 . S
C1428 H1437 0.931 . S
C1429 C1425 1.328 . S
C1429 C1430 1.433 . S
C1429 H1438 0.931 . S
C1430 C1426 1.323 . S
C1430 C1429 1.433 . S
C1430 H1439 0.933 . S
C1431 Dy1401 2.738 1_545 S
C1431 O1411 1.255 . S
C1431 O1412 1.249 1_545 S
C1431 C1425 1.516 . S
H1432 C1418 0.930 . S
H1433 C1419 0.931 . S
H1434 C1420 0.931 . S
H1435 C1421 0.933 . S
H1436 C1427 0.930 . S
H1437 C1428 0.931 . S
H1438 C1429 0.931 . S
H1439 C1430 0.933 . S
H1440 C1446 0.930 . S
H1441 C1449 0.930 . S
H1442 C1450 0.930 . S
H1443 C1451 0.930 . S
H1444 C1454 0.930 . S
H1445 C1455 0.930 . S
C1446 H1440 0.930 . S
C1446 C1447 1.355 . S
C1446 C1448 1.415 . S
C1447 C1446 1.355 . S
C1447 C1449 1.419 . S
C1448 C1446 1.415 . S
C1448 C1453 1.425 . S
C1448 C1455 1.409 . S
C1449 H1441 0.930 . S
C1449 C1447 1.419 . S
C1449 C1450 1.362 . S
C1450 H1442 0.930 . S
C1450 C1449 1.362 . S
C1450 C1453 1.409 . S
C1451 H1443 0.930 . S
C1451 C1452 1.355 . S
C1451 C1453 1.415 . S
C1452 C1451 1.355 . S
C1452 C1454 1.419 . S
C1453 C1448 1.425 . S
C1453 C1450 1.409 . S
C1453 C1451 1.415 . S
C1454 H1444 0.930 . S
C1454 C1452 1.419 . S
C1454 C1455 1.362 . S
C1455 H1445 0.930 . S
C1455 C1448 1.409 . S
C1455 C1454 1.362 . S
H1456 C1462 0.930 . S
H1457 C1465 0.930 . S
H1458 C1466 0.930 . S
H1459 C1467 0.930 . S
H1460 C1470 0.928 1_565 S
H1461 C1471 0.930 . S
C1462 H1456 0.930 . S
C1462 C1463 1.355 . S
C1462 C1464 1.415 . S
C1463 C1462 1.355 . S
C1463 C1465 1.419 . S
C1464 C1462 1.415 . S
C1464 C1469 1.425 . S
C1464 C1471 1.409 . S
C1465 H1457 0.930 . S
C1465 C1463 1.419 . S
C1465 C1466 1.362 . S
C1466 H1458 0.930 . S
C1466 C1465 1.362 . S
C1466 C1469 1.409 . S
C1467 H1459 0.930 . S
C1467 C1468 1.355 . S
C1467 C1469 1.415 . S
C1468 C1467 1.355 . S
C1468 C1470 1.420 . S
C1469 C1464 1.425 . S
C1469 C1466 1.409 . S
C1469 C1467 1.415 . S
C1470 H1460 0.928 1_545 S
C1470 C1468 1.420 . S
C1470 C1471 1.363 . S
C1471 H1461 0.930 . S
C1471 C1464 1.409 . S
C1471 C1470 1.363 . S
H1472 C1478 0.930 . S
H1473 C1481 0.930 . S
H1474 C1482 0.930 . S
H1475 C1483 0.930 . S
H1476 C1486 0.930 . S
H1477 C1487 0.930 . S
C1478 H1472 0.930 . S
C1478 C1479 1.355 . S
C1478 C1480 1.415 . S
C1479 C1478 1.355 . S
C1479 C1481 1.419 . S
C1480 C1478 1.415 . S
C1480 C1485 1.425 . S
C1480 C1487 1.409 . S
C1481 H1473 0.930 . S
C1481 C1479 1.419 . S
C1481 C1482 1.362 . S
C1482 H1474 0.930 . S
C1482 C1481 1.362 . S
C1482 C1485 1.409 . S
C1483 H1475 0.930 . S
C1483 C1484 1.355 . S
C1483 C1485 1.415 . S
C1484 C1483 1.355 . S
C1484 C1486 1.419 . S
C1485 C1480 1.425 . S
C1485 C1482 1.409 . S
C1485 C1483 1.415 . S
C1486 H1476 0.930 . S
C1486 C1484 1.419 . S
C1486 C1487 1.362 . S
C1487 H1477 0.930 . S
C1487 C1480 1.409 . S
C1487 C1486 1.362 . S
H1488 C1494 0.930 . S
H1489 C1497 0.930 . S
H1490 C1498 0.930 . S
H1491 C1499 0.930 . S
H1492 C1502 0.930 . S
H1493 C1503 0.930 . S
C1494 H1488 0.930 . S
C1494 C1495 1.355 . S
C1494 C1496 1.415 . S
C1495 C1494 1.355 . S
C1495 C1497 1.419 . S
C1496 C1494 1.415 . S
C1496 C1501 1.425 . S
C1496 C1503 1.409 . S
C1497 H1489 0.930 . S
C1497 C1495 1.419 . S
C1497 C1498 1.362 . S
C1498 H1490 0.930 . S
C1498 C1497 1.362 . S
C1498 C1501 1.409 . S
C1499 H1491 0.930 . S
C1499 C1500 1.355 . S
C1499 C1501 1.415 . S
C1500 C1499 1.355 . S
C1500 C1502 1.419 . S
C1501 C1496 1.425 . S
C1501 C1498 1.409 . S
C1501 C1499 1.415 . S
C1502 H1492 0.930 . S
C1502 C1500 1.419 . S
C1502 C1503 1.362 . S
C1503 H1493 0.930 . S
C1503 C1496 1.409 . S
C1503 C1502 1.362 . S
H1504 C1510 0.930 . S
H1505 C1513 0.930 . S
H1506 C1514 0.930 . S
H1507 C1515 0.930 . S
H1508 C1518 0.930 . S
H1509 C1519 0.930 . S
C1510 H1504 0.930 . S
C1510 C1511 1.355 . S
C1510 C1512 1.415 . S
C1511 C1510 1.355 . S
C1511 C1513 1.419 . S
C1512 C1510 1.415 . S
C1512 C1517 1.425 . S
C1512 C1519 1.409 1_565 S
C1513 H1505 0.930 . S
C1513 C1511 1.419 . S
C1513 C1514 1.362 . S
C1514 H1506 0.930 . S
C1514 C1513 1.362 . S
C1514 C1517 1.409 . S
C1515 H1507 0.930 . S
C1515 C1516 1.355 . S
C1515 C1517 1.415 1_545 S
C1516 C1515 1.355 . S
C1516 C1518 1.419 . S
C1517 C1512 1.425 . S
C1517 C1514 1.409 . S
C1517 C1515 1.415 1_565 S
C1518 H1508 0.930 . S
C1518 C1516 1.419 . S
C1518 C1519 1.362 . S
C1519 H1509 0.930 . S
C1519 C1512 1.409 1_545 S
C1519 C1518 1.362 . S
H1520 C1526 0.930 . S
H1521 C1529 0.930 . S
H1522 C1530 0.930 . S
H1523 C1531 0.930 . S
H1524 C1534 0.930 . S
H1525 C1535 0.930 1_655 S
C1526 H1520 0.930 . S
C1526 C1527 1.355 . S
C1526 C1528 1.416 1_655 S
C1527 C1526 1.355 . S
C1527 C1529 1.419 . S
C1528 C1526 1.416 1_455 S
C1528 C1533 1.423 . S
C1528 C1535 1.409 . S
C1529 H1521 0.930 . S
C1529 C1527 1.419 . S
C1529 C1530 1.362 1_655 S
C1530 H1522 0.930 . S
C1530 C1529 1.362 1_455 S
C1530 C1533 1.409 . S
C1531 H1523 0.930 . S
C1531 C1532 1.355 . S
C1531 C1533 1.415 . S
C1532 C1531 1.355 . S
C1532 C1534 1.419 . S
C1533 C1528 1.423 . S
C1533 C1530 1.409 . S
C1533 C1531 1.415 . S
C1534 H1524 0.930 . S
C1534 C1532 1.419 . S
C1534 C1535 1.362 . S
C1535 H1525 0.930 1_455 S
C1535 C1528 1.409 . S
C1535 C1534 1.362 . S
H1536 C1542 0.930 . S
H1537 C1545 0.930 . S
H1538 C1546 0.930 . S
H1539 C1547 0.930 . S
H1540 C1550 0.930 1_545 S
H1541 C1551 0.930 . S
C1542 H1536 0.930 . S
C1542 C1543 1.355 . S
C1542 C1544 1.415 . S
C1543 C1542 1.355 . S
C1543 C1545 1.419 . S
C1544 C1542 1.415 . S
C1544 C1549 1.425 . S
C1544 C1551 1.409 . S
C1545 H1537 0.930 . S
C1545 C1543 1.419 . S
C1545 C1546 1.362 . S
C1546 H1538 0.930 . S
C1546 C1545 1.362 . S
C1546 C1549 1.409 . S
C1547 H1539 0.930 . S
C1547 C1548 1.355 . S
C1547 C1549 1.415 . S
C1548 C1547 1.355 . S
C1548 C1550 1.419 . S
C1549 C1544 1.425 . S
C1549 C1546 1.409 . S
C1549 C1547 1.415 . S
C1550 H1540 0.930 1_565 S
C1550 C1548 1.419 . S
C1550 C1551 1.362 . S
C1551 H1541 0.930 . S
C1551 C1544 1.409 . S
C1551 C1550 1.362 . S
H1552 C1558 0.930 . S
H1553 C1561 0.930 . S
H1554 C1562 0.930 . S
H1555 C1563 0.952 . S
H1556 C1566 0.930 . S
H1557 C1567 0.930 . S
C1558 H1552 0.930 . S
C1558 C1559 1.355 . S
C1558 C1560 1.415 . S
C1559 C1558 1.355 . S
C1559 C1561 1.419 1_565 S
C1560 C1558 1.415 . S
C1560 C1565 1.425 . S
C1560 C1567 1.409 . S
C1561 H1553 0.930 . S
C1561 C1559 1.419 1_545 S
C1561 C1562 1.362 1_545 S
C1562 H1554 0.930 . S
C1562 C1561 1.362 1_565 S
C1562 C1565 1.409 . S
C1563 H1555 0.952 . S
C1563 C1564 1.355 . S
C1563 C1565 1.415 . S
C1564 C1563 1.355 . S
C1564 C1566 1.419 . S
C1565 C1560 1.425 . S
C1565 C1562 1.409 . S
C1565 C1563 1.415 . S
C1566 H1556 0.930 . S
C1566 C1564 1.419 . S
C1566 C1567 1.362 . S
C1567 H1557 0.930 . S
C1567 C1560 1.409 . S
C1567 C1566 1.362 . S
H1568 C1574 0.930 1_655 S
H1569 C1577 0.930 . S
H1570 C1578 0.930 . S
H1571 C1579 0.930 . S
H1572 C1582 0.930 . S
H1573 C1583 0.930 . S
C1574 H1568 0.930 1_455 S
C1574 C1575 1.355 . S
C1574 C1576 1.415 . S
C1575 C1574 1.355 . S
C1575 C1577 1.419 . S
C1576 C1574 1.415 . S
C1576 C1581 1.425 . S
C1576 C1583 1.409 . S
C1577 H1569 0.930 . S
C1577 C1575 1.419 . S
C1577 C1578 1.362 . S
C1578 H1570 0.930 . S
C1578 C1577 1.362 . S
C1578 C1581 1.409 . S
C1579 H1571 0.930 . S
C1579 C1580 1.355 . S
C1579 C1581 1.415 . S
C1580 C1579 1.355 . S
C1580 C1582 1.419 . S
C1581 C1576 1.425 . S
C1581 C1578 1.409 . S
C1581 C1579 1.415 . S
C1582 H1572 0.930 . S
C1582 C1580 1.419 . S
C1582 C1583 1.362 . S
C1583 H1573 0.930 . S
C1583 C1576 1.409 . S
C1583 C1582 1.362 . S
H1584 C1590 0.930 . S
H1585 C1593 0.930 . S
H1586 C1594 0.930 . S
H1587 C1595 0.930 . S
H1588 C1598 0.930 . S
H1589 C1599 0.930 . S
C1590 H1584 0.930 . S
C1590 C1591 1.355 . S
C1590 C1592 1.415 . S
C1591 C1590 1.355 . S
C1591 C1593 1.419 . S
C1592 C1590 1.415 . S
C1592 C1597 1.425 . S
C1592 C1599 1.409 . S
C1593 H1585 0.930 . S
C1593 C1591 1.419 . S
C1593 C1594 1.362 . S
C1594 H1586 0.930 . S
C1594 C1593 1.362 . S
C1594 C1597 1.409 . S
C1595 H1587 0.930 . S
C1595 C1596 1.355 . S
C1595 C1597 1.415 . S
C1596 C1595 1.355 . S
C1596 C1598 1.419 . S
C1597 C1592 1.425 . S
C1597 C1594 1.409 . S
C1597 C1595 1.415 . S
C1598 H1588 0.930 . S
C1598 C1596 1.419 . S
C1598 C1599 1.362 . S
C1599 H1589 0.930 . S
C1599 C1592 1.409 . S
C1599 C1598 1.362 . S
H1600 C1606 0.930 . S
H1601 C1609 0.930 . S
H1602 C1610 0.930 . S
H1603 C1611 0.930 . S
H1604 C1614 0.930 . S
H1605 C1615 0.930 . S
C1606 H1600 0.930 . S
C1606 C1607 1.355 . S
C1606 C1608 1.415 . S
C1607 C1606 1.355 . S
C1607 C1609 1.419 . S
C1608 C1606 1.415 . S
C1608 C1613 1.425 . S
C1608 C1615 1.409 1_545 S
C1609 H1601 0.930 . S
C1609 C1607 1.419 . S
C1609 C1610 1.362 . S
C1610 H1602 0.930 . S
C1610 C1609 1.362 . S
C1610 C1613 1.409 . S
C1611 H1603 0.930 . S
C1611 C1612 1.355 . S
C1611 C1613 1.415 1_565 S
C1612 C1611 1.355 . S
C1612 C1614 1.419 . S
C1613 C1608 1.425 . S
C1613 C1610 1.409 . S
C1613 C1611 1.415 1_545 S
C1614 H1604 0.930 . S
C1614 C1612 1.419 . S
C1614 C1615 1.362 . S
C1615 H1605 0.930 . S
C1615 C1608 1.409 1_565 S
C1615 C1614 1.362 . S
H1616 C1622 0.930 . S
H1617 C1625 0.930 . S
H1618 C1626 0.930 . S
H1619 C1627 0.930 . S
H1620 C1630 0.930 . S
H1621 C1631 0.930 . S
C1622 H1616 0.930 . S
C1622 C1623 1.355 . S
C1622 C1624 1.415 . S
C1623 C1622 1.355 . S
C1623 C1625 1.419 . S
C1624 C1622 1.415 . S
C1624 C1629 1.425 . S
C1624 C1631 1.409 . S
C1625 H1617 0.930 . S
C1625 C1623 1.419 . S
C1625 C1626 1.362 . S
C1626 H1618 0.930 . S
C1626 C1625 1.362 . S
C1626 C1629 1.409 . S
C1627 H1619 0.930 . S
C1627 C1628 1.355 . S
C1627 C1629 1.415 1_455 S
C1628 C1627 1.355 . S
C1628 C1630 1.419 . S
C1629 C1624 1.425 . S
C1629 C1626 1.409 . S
C1629 C1627 1.415 1_655 S
C1630 H1620 0.930 . S
C1630 C1628 1.419 . S
C1630 C1631 1.362 1_455 S
C1631 H1621 0.930 . S
C1631 C1624 1.409 . S
C1631 C1630 1.362 1_655 S
H1632 C1638 0.930 . S
H1633 C1641 0.930 . S
H1634 C1642 0.930 . S
H1635 C1643 0.930 . S
H1636 C1646 0.930 . S
H1637 C1647 0.930 . S
C1638 H1632 0.930 . S
C1638 C1639 1.355 . S
C1638 C1640 1.415 . S
C1639 C1638 1.355 . S
C1639 C1641 1.419 . S
C1640 C1638 1.415 . S
C1640 C1645 1.425 . S
C1640 C1647 1.409 . S
C1641 H1633 0.930 . S
C1641 C1639 1.419 . S
C1641 C1642 1.362 . S
C1642 H1634 0.930 . S
C1642 C1641 1.362 . S
C1642 C1645 1.409 . S
C1643 H1635 0.930 . S
C1643 C1644 1.355 . S
C1643 C1645 1.415 . S
C1644 C1643 1.355 . S
C1644 C1646 1.419 . S
C1645 C1640 1.425 . S
C1645 C1642 1.409 . S
C1645 C1643 1.415 . S
C1646 H1636 0.930 . S
C1646 C1644 1.419 . S
C1646 C1647 1.362 . S
C1647 H1637 0.930 . S
C1647 C1640 1.409 . S
C1647 C1646 1.362 . S
H1648 C1654 0.930 . S
H1649 C1657 0.930 . S
H1650 C1658 0.930 . S
H1651 C1659 0.930 . S
H1652 C1662 0.930 . S
H1653 C1663 0.930 . S
C1654 H1648 0.930 . S
C1654 C1655 1.355 . S
C1654 C1656 1.415 . S
C1655 C1654 1.355 . S
C1655 C1657 1.419 . S
C1656 C1654 1.415 . S
C1656 C1661 1.425 . S
C1656 C1663 1.409 . S
C1657 H1649 0.930 . S
C1657 C1655 1.419 . S
C1657 C1658 1.362 . S
C1658 H1650 0.930 . S
C1658 C1657 1.362 . S
C1658 C1661 1.409 . S
C1659 H1651 0.930 . S
C1659 C1660 1.355 . S
C1659 C1661 1.415 . S
C1660 C1659 1.355 . S
C1660 C1662 1.419 . S
C1661 C1656 1.425 . S
C1661 C1658 1.409 . S
C1661 C1659 1.415 . S
C1662 H1652 0.930 . S
C1662 C1660 1.419 . S
C1662 C1663 1.362 . S
C1663 H1653 0.930 . S
C1663 C1656 1.409 . S
C1663 C1662 1.362 . S
H1664 C1670 0.930 . S
H1665 C1673 0.930 . S
H1666 C1674 0.930 . S
H1667 C1675 0.930 . S
H1668 C1678 0.930 . S
H1669 C1679 0.930 . S
C1670 H1664 0.930 . S
C1670 C1671 1.355 . S
C1670 C1672 1.415 . S
C1671 C1670 1.355 . S
C1671 C1673 1.419 . S
C1672 C1670 1.415 . S
C1672 C1677 1.425 . S
C1672 C1679 1.409 . S
C1673 H1665 0.930 . S
C1673 C1671 1.419 . S
C1673 C1674 1.362 . S
C1674 H1666 0.930 . S
C1674 C1673 1.362 . S
C1674 C1677 1.409 . S
C1675 H1667 0.930 . S
C1675 C1676 1.355 . S
C1675 C1677 1.415 . S
C1676 C1675 1.355 . S
C1676 C1678 1.419 . S
C1677 C1672 1.425 . S
C1677 C1674 1.409 . S
C1677 C1675 1.415 . S
C1678 H1668 0.930 . S
C1678 C1676 1.419 . S
C1678 C1679 1.362 . S
C1679 H1669 0.930 . S
C1679 C1672 1.409 . S
C1679 C1678 1.362 . S
H1680 C1686 0.930 . S
H1681 C1689 0.930 . S
H1682 C1690 0.930 . S
H1683 C1691 0.930 . S
H1684 C1694 0.930 . S
H1685 C1695 0.930 . S
C1686 H1680 0.930 . S
C1686 C1687 1.355 . S
C1686 C1688 1.415 . S
C1687 C1686 1.355 . S
C1687 C1689 1.419 . S
C1688 C1686 1.415 . S
C1688 C1693 1.425 . S
C1688 C1695 1.409 . S
C1689 H1681 0.930 . S
C1689 C1687 1.419 . S
C1689 C1690 1.362 . S
C1690 H1682 0.930 . S
C1690 C1689 1.362 . S
C1690 C1693 1.409 . S
C1691 H1683 0.930 . S
C1691 C1692 1.355 . S
C1691 C1693 1.415 . S
C1692 C1691 1.355 . S
C1692 C1694 1.419 . S
C1693 C1688 1.425 . S
C1693 C1690 1.409 . S
C1693 C1691 1.415 . S
C1694 H1684 0.930 . S
C1694 C1692 1.419 . S
C1694 C1695 1.362 . S
C1695 H1685 0.930 . S
C1695 C1688 1.409 . S
C1695 C1694 1.362 . S
H1696 C1702 0.930 . S
H1697 C1705 0.930 . S
H1698 C1706 0.930 . S
H1699 C1707 0.930 . S
H1700 C1710 0.930 . S
H1701 C1711 0.930 . S
C1702 H1696 0.930 . S
C1702 C1703 1.355 . S
C1702 C1704 1.415 . S
C1703 C1702 1.355 . S
C1703 C1705 1.419 . S
C1704 C1702 1.415 . S
C1704 C1709 1.425 . S
C1704 C1711 1.409 . S
C1705 H1697 0.930 . S
C1705 C1703 1.419 . S
C1705 C1706 1.362 . S
C1706 H1698 0.930 . S
C1706 C1705 1.362 . S
C1706 C1709 1.409 . S
C1707 H1699 0.930 . S
C1707 C1708 1.355 . S
C1707 C1709 1.415 . S
C1708 C1707 1.355 . S
C1708 C1710 1.419 . S
C1709 C1704 1.425 . S
C1709 C1706 1.409 . S
C1709 C1707 1.415 . S
C1710 H1700 0.930 . S
C1710 C1708 1.419 . S
C1710 C1711 1.362 . S
C1711 H1701 0.930 . S
C1711 C1704 1.409 . S
C1711 C1710 1.362 . S
H1712 C1718 0.930 . S
H1713 C1721 0.930 . S
H1714 C1722 0.930 . S
H1715 C1723 0.930 . S
H1716 C1726 0.930 . S
H1717 C1727 0.930 . S
C1718 H1712 0.930 . S
C1718 C1719 1.355 . S
C1718 C1720 1.415 . S
C1719 C1718 1.355 . S
C1719 C1721 1.419 . S
C1720 C1718 1.415 . S
C1720 C1725 1.425 . S
C1720 C1727 1.409 . S
C1721 H1713 0.930 . S
C1721 C1719 1.419 . S
C1721 C1722 1.362 . S
C1722 H1714 0.930 . S
C1722 C1721 1.362 . S
C1722 C1725 1.409 . S
C1723 H1715 0.930 . S
C1723 C1724 1.355 . S
C1723 C1725 1.415 . S
C1724 C1723 1.355 . S
C1724 C1726 1.419 . S
C1725 C1720 1.425 . S
C1725 C1722 1.409 . S
C1725 C1723 1.415 . S
C1726 H1716 0.930 . S
C1726 C1724 1.419 . S
C1726 C1727 1.362 . S
C1727 H1717 0.930 . S
C1727 C1720 1.409 . S
C1727 C1726 1.362 . S
H1728 C1734 0.930 . S
H1729 C1737 0.930 . S
H1730 C1738 0.930 . S
H1731 C1739 0.930 . S
H1732 C1742 0.930 . S
H1733 C1743 0.930 . S
C1734 H1728 0.930 . S
C1734 C1735 1.355 . S
C1734 C1736 1.415 . S
C1735 C1734 1.355 . S
C1735 C1737 1.419 . S
C1736 C1734 1.415 . S
C1736 C1741 1.425 . S
C1736 C1743 1.409 . S
C1737 H1729 0.930 . S
C1737 C1735 1.419 . S
C1737 C1738 1.362 . S
C1738 H1730 0.930 . S
C1738 C1737 1.362 . S
C1738 C1741 1.409 . S
C1739 H1731 0.930 . S
C1739 C1740 1.355 . S
C1739 C1741 1.415 . S
C1740 C1739 1.355 . S
C1740 C1742 1.419 . S
C1741 C1736 1.425 . S
C1741 C1738 1.409 . S
C1741 C1739 1.415 . S
C1742 H1732 0.930 . S
C1742 C1740 1.419 . S
C1742 C1743 1.362 . S
C1743 H1733 0.930 . S
C1743 C1736 1.409 . S
C1743 C1742 1.362 . S
H1744 C1750 0.930 . S
H1745 C1753 0.930 . S
H1746 C1754 0.930 . S
H1747 C1755 0.930 . S
H1748 C1758 0.930 . S
H1749 C1759 0.930 . S
C1750 H1744 0.930 . S
C1750 C1751 1.355 . S
C1750 C1752 1.415 . S
C1751 C1750 1.355 . S
C1751 C1753 1.419 . S
C1752 C1750 1.415 . S
C1752 C1757 1.425 . S
C1752 C1759 1.409 . S
C1753 H1745 0.930 . S
C1753 C1751 1.419 . S
C1753 C1754 1.362 . S
C1754 H1746 0.930 . S
C1754 C1753 1.362 . S
C1754 C1757 1.409 . S
C1755 H1747 0.930 . S
C1755 C1756 1.355 . S
C1755 C1757 1.415 . S
C1756 C1755 1.355 . S
C1756 C1758 1.419 . S
C1757 C1752 1.425 . S
C1757 C1754 1.409 . S
C1757 C1755 1.415 . S
C1758 H1748 0.930 . S
C1758 C1756 1.419 . S
C1758 C1759 1.362 . S
C1759 H1749 0.930 . S
C1759 C1752 1.409 . S
C1759 C1758 1.362 . S
H1760 C1766 0.930 . S
H1761 C1769 0.930 . S
H1762 C1770 0.930 . S
H1763 C1771 0.930 . S
H1764 C1774 0.930 . S
H1765 C1775 0.930 . S
C1766 H1760 0.930 . S
C1766 C1767 1.355 . S
C1766 C1768 1.415 . S
C1767 C1766 1.355 . S
C1767 C1769 1.419 . S
C1768 C1766 1.415 . S
C1768 C1773 1.425 . S
C1768 C1775 1.409 . S
C1769 H1761 0.930 . S
C1769 C1767 1.419 . S
C1769 C1770 1.362 . S
C1770 H1762 0.930 . S
C1770 C1769 1.362 . S
C1770 C1773 1.409 . S
C1771 H1763 0.930 . S
C1771 C1772 1.355 . S
C1771 C1773 1.415 . S
C1772 C1771 1.355 . S
C1772 C1774 1.419 . S
C1773 C1768 1.425 . S
C1773 C1770 1.409 . S
C1773 C1771 1.415 . S
C1774 H1764 0.930 . S
C1774 C1772 1.419 . S
C1774 C1775 1.362 . S
C1775 H1765 0.930 . S
C1775 C1768 1.409 . S
C1775 C1774 1.362 . S
H1776 C1782 0.930 . S
H1777 C1785 0.930 . S
H1778 C1786 0.918 1_556 S
H1779 C1787 0.960 . S
H1780 C1790 0.930 . S
H1781 C1791 0.930 . S
C1782 H1776 0.930 . S
C1782 C1783 1.355 . S
C1782 C1784 1.415 . S
C1783 C1782 1.355 . S
C1783 C1785 1.419 . S
C1784 C1782 1.415 . S
C1784 C1789 1.425 . S
C1784 C1791 1.409 . S
C1785 H1777 0.930 . S
C1785 C1783 1.419 . S
C1785 C1786 1.375 . S
C1786 H1778 0.918 1_554 S
C1786 C1785 1.375 . S
C1786 C1789 1.415 . S
C1787 H1779 0.960 . S
C1787 C1788 1.349 1_556 S
C1787 C1789 1.400 1_556 S
C1788 C1787 1.349 1_554 S
C1788 C1790 1.422 . S
C1789 C1784 1.425 . S
C1789 C1786 1.415 . S
C1789 C1787 1.400 1_554 S
C1790 H1780 0.930 . S
C1790 C1788 1.422 . S
C1790 C1791 1.362 . S
C1791 H1781 0.930 . S
C1791 C1784 1.409 . S
C1791 C1790 1.362 . S
H1792 C1798 0.930 . S
H1793 C1801 0.930 . S
H1794 C1802 0.930 . S
H1795 C1803 0.930 . S
H1796 C1806 0.926 1_556 S
H1797 C1807 0.930 . S
C1798 H1792 0.930 . S
C1798 C1799 1.347 1_556 S
C1798 C1800 1.409 1_556 S
C1799 C1798 1.347 1_554 S
C1799 C1801 1.435 . S
C1800 C1798 1.409 1_554 S
C1800 C1805 1.437 . S
C1800 C1807 1.404 1_554 S
C1801 H1793 0.930 . S
C1801 C1799 1.435 . S
C1801 C1802 1.362 . S
C1802 H1794 0.930 . S
C1802 C1801 1.362 . S
C1802 C1805 1.409 . S
C1803 H1795 0.930 . S
C1803 C1804 1.355 . S
C1803 C1805 1.415 . S
C1804 C1803 1.355 . S
C1804 C1806 1.427 . S
C1805 C1800 1.437 . S
C1805 C1802 1.409 . S
C1805 C1803 1.415 . S
C1806 H1796 0.926 1_554 S
C1806 C1804 1.427 . S
C1806 C1807 1.359 1_554 S
C1807 H1797 0.930 . S
C1807 C1800 1.404 1_556 S
C1807 C1806 1.359 1_556 S
H1808 C1814 0.930 . S
H1809 C1817 0.930 . S
H1810 C1818 0.930 . S
H1811 C1819 0.930 . S
H1812 C1822 0.930 . S
H1813 C1823 0.930 . S
C1814 H1808 0.930 . S
C1814 C1815 1.355 1_556 S
C1814 C1816 1.415 . S
C1815 C1814 1.355 1_554 S
C1815 C1817 1.419 . S
C1816 C1814 1.415 . S
C1816 C1821 1.425 1_556 S
C1816 C1823 1.409 . S
C1817 H1809 0.930 . S
C1817 C1815 1.419 . S
C1817 C1818 1.362 . S
C1818 H1810 0.930 . S
C1818 C1817 1.362 . S
C1818 C1821 1.409 . S
C1819 H1811 0.930 . S
C1819 C1820 1.291 1_554 S
C1819 C1821 1.415 . S
C1820 C1819 1.291 1_556 S
C1820 C1822 1.489 . S
C1821 C1816 1.425 1_554 S
C1821 C1818 1.409 . S
C1821 C1819 1.415 . S
C1822 H1812 0.930 . S
C1822 C1820 1.489 . S
C1822 C1823 1.362 . S
C1823 H1813 0.930 . S
C1823 C1816 1.409 . S
C1823 C1822 1.362 . S
H1824 C1830 0.930 . S
H1825 C1833 0.930 . S
H1826 C1834 0.930 . S
H1827 C1835 0.930 . S
H1828 C1838 0.930 . S
H1829 C1839 0.930 . S
C1830 H1824 0.930 . S
C1830 C1831 1.355 . S
C1830 C1832 1.415 . S
C1831 C1830 1.355 . S
C1831 C1833 1.419 . S
C1832 C1830 1.415 . S
C1832 C1837 1.425 . S
C1832 C1839 1.409 . S
C1833 H1825 0.930 . S
C1833 C1831 1.419 . S
C1833 C1834 1.362 . S
C1834 H1826 0.930 . S
C1834 C1833 1.362 . S
C1834 C1837 1.409 . S
C1835 H1827 0.930 . S
C1835 C1836 1.355 . S
C1835 C1837 1.415 . S
C1836 C1835 1.355 . S
C1836 C1838 1.419 . S
C1837 C1832 1.425 . S
C1837 C1834 1.409 . S
C1837 C1835 1.415 . S
C1838 H1828 0.930 . S
C1838 C1836 1.419 . S
C1838 C1839 1.362 . S
C1839 H1829 0.930 . S
C1839 C1832 1.409 . S
C1839 C1838 1.362 . S
H1840 C1846 0.930 . S
H1841 C1849 0.930 . S
H1842 C1850 0.930 . S
H1843 C1851 0.930 . S
H1844 C1854 0.930 . S
H1845 C1855 0.930 . S
C1846 H1840 0.930 . S
C1846 C1847 1.355 . S
C1846 C1848 1.415 . S
C1847 C1846 1.355 . S
C1847 C1849 1.419 . S
C1848 C1846 1.415 . S
C1848 C1853 1.425 . S
C1848 C1855 1.409 . S
C1849 H1841 0.930 . S
C1849 C1847 1.419 . S
C1849 C1850 1.362 . S
C1850 H1842 0.930 . S
C1850 C1849 1.362 . S
C1850 C1853 1.409 . S
C1851 H1843 0.930 . S
C1851 C1852 1.355 . S
C1851 C1853 1.415 . S
C1852 C1851 1.355 . S
C1852 C1854 1.419 . S
C1853 C1848 1.425 . S
C1853 C1850 1.409 . S
C1853 C1851 1.415 . S
C1854 H1844 0.930 . S
C1854 C1852 1.419 . S
C1854 C1855 1.362 . S
C1855 H1845 0.930 . S
C1855 C1848 1.409 . S
C1855 C1854 1.362 . S
H1856 C1862 0.930 . S
H1857 C1865 0.930 . S
H1858 C1866 0.930 . S
H1859 C1867 0.930 . S
H1860 C1870 0.930 . S
H1861 C1871 0.930 . S
C1862 H1856 0.930 . S
C1862 C1863 1.355 . S
C1862 C1864 1.415 . S
C1863 C1862 1.355 . S
C1863 C1865 1.419 . S
C1864 C1862 1.415 . S
C1864 C1869 1.425 . S
C1864 C1871 1.409 . S
C1865 H1857 0.930 . S
C1865 C1863 1.419 . S
C1865 C1866 1.362 . S
C1866 H1858 0.930 . S
C1866 C1865 1.362 . S
C1866 C1869 1.409 . S
C1867 H1859 0.930 . S
C1867 C1868 1.355 . S
C1867 C1869 1.415 . S
C1868 C1867 1.355 . S
C1868 C1870 1.419 . S
C1869 C1864 1.425 . S
C1869 C1866 1.409 . S
C1869 C1867 1.415 . S
C1870 H1860 0.930 . S
C1870 C1868 1.419 . S
C1870 C1871 1.362 . S
C1871 H1861 0.930 . S
C1871 C1864 1.409 . S
C1871 C1870 1.362 . S
H1872 C1878 0.930 . S
H1873 C1881 0.930 . S
H1874 C1882 0.930 . S
H1875 C1883 0.930 . S
H1876 C1886 0.930 . S
H1877 C1887 0.930 . S
C1878 H1872 0.930 . S
C1878 C1879 1.355 1_554 S
C1878 C1880 1.415 . S
C1879 C1878 1.355 1_556 S
C1879 C1881 1.419 . S
C1880 C1878 1.415 . S
C1880 C1885 1.425 1_554 S
C1880 C1887 1.409 . S
C1881 H1873 0.930 . S
C1881 C1879 1.419 . S
C1881 C1882 1.362 . S
C1882 H1874 0.930 . S
C1882 C1881 1.362 . S
C1882 C1885 1.409 . S
C1883 H1875 0.930 . S
C1883 C1884 1.355 . S
C1883 C1885 1.415 . S
C1884 C1883 1.355 . S
C1884 C1886 1.419 1_556 S
C1885 C1880 1.425 1_556 S
C1885 C1882 1.409 . S
C1885 C1883 1.415 . S
C1886 H1876 0.930 . S
C1886 C1884 1.419 1_554 S
C1886 C1887 1.362 . S
C1887 H1877 0.930 . S
C1887 C1880 1.409 . S
C1887 C1886 1.362 . S
H1888 C1894 0.930 . S
H1889 C1897 0.930 . S
H1890 C1898 0.930 . S
H1891 C1899 0.930 . S
H1892 C1902 0.934 . S
H1893 C1903 0.948 . S
C1894 H1888 0.930 . S
C1894 C1895 1.351 1_554 S
C1894 C1896 1.399 1_554 S
C1895 C1894 1.351 1_556 S
C1895 C1897 1.426 . S
C1896 C1894 1.399 1_556 S
C1896 C1901 1.459 . S
C1896 C1903 1.399 1_556 S
C1897 H1889 0.930 . S
C1897 C1895 1.426 . S
C1897 C1898 1.362 . S
C1898 H1890 0.930 . S
C1898 C1897 1.362 . S
C1898 C1901 1.409 . S
C1899 H1891 0.930 . S
C1899 C1900 1.355 . S
C1899 C1901 1.415 . S
C1900 C1899 1.355 . S
C1900 C1902 1.419 . S
C1901 C1896 1.459 . S
C1901 C1898 1.409 . S
C1901 C1899 1.415 . S
C1902 H1892 0.934 . S
C1902 C1900 1.419 . S
C1902 C1903 1.354 1_556 S
C1903 H1893 0.948 . S
C1903 C1896 1.399 1_554 S
C1903 C1902 1.354 1_554 S
H1904 C1910 0.930 . S
H1905 C1913 0.931 . S
H1906 C1914 0.935 . S
H1907 C1915 0.930 . S
H1908 C1918 0.930 . S
H1909 C1919 0.930 . S
C1910 H1904 0.930 . S
C1910 C1911 1.365 . S
C1910 C1912 1.415 . S
C1911 C1910 1.365 . S
C1911 C1913 1.417 1_556 S
C1912 C1910 1.415 . S
C1912 C1917 1.425 . S
C1912 C1919 1.409 . S
C1913 H1905 0.931 . S
C1913 C1911 1.417 1_554 S
C1913 C1914 1.361 1_554 S
C1914 H1906 0.935 . S
C1914 C1913 1.361 1_556 S
C1914 C1917 1.409 . S
C1915 H1907 0.930 . S
C1915 C1916 1.355 . S
C1915 C1917 1.415 . S
C1916 C1915 1.355 . S
C1916 C1918 1.419 . S
C1917 C1912 1.425 . S
C1917 C1914 1.409 . S
C1917 C1915 1.415 . S
C1918 H1908 0.930 . S
C1918 C1916 1.419 . S
C1918 C1919 1.362 . S
C1919 H1909 0.930 . S
C1919 C1912 1.409 . S
C1919 C1918 1.362 . S
H1920 C1926 0.930 . S
H1921 C1929 0.930 . S
H1922 C1930 0.930 . S
H1923 C1931 0.930 . S
H1924 C1934 0.930 . S
H1925 C1935 0.930 . S
C1926 H1920 0.930 . S
C1926 C1927 1.355 . S
C1926 C1928 1.415 . S
C1927 C1926 1.355 . S
C1927 C1929 1.419 . S
C1928 C1926 1.415 . S
C1928 C1933 1.425 . S
C1928 C1935 1.409 . S
C1929 H1921 0.930 . S
C1929 C1927 1.419 . S
C1929 C1930 1.362 . S
C1930 H1922 0.930 . S
C1930 C1929 1.362 . S
C1930 C1933 1.409 . S
C1931 H1923 0.930 . S
C1931 C1932 1.355 . S
C1931 C1933 1.415 . S
C1932 C1931 1.355 . S
C1932 C1934 1.419 . S
C1933 C1928 1.425 . S
C1933 C1930 1.409 . S
C1933 C1931 1.415 . S
C1934 H1924 0.930 . S
C1934 C1932 1.419 . S
C1934 C1935 1.362 . S
C1935 H1925 0.930 . S
C1935 C1928 1.409 . S
C1935 C1934 1.362 . S
H1936 C1942 0.930 . S
H1937 C1945 0.930 . S
H1938 C1946 0.930 . S
H1939 C1947 0.930 . S
H1940 C1950 0.930 . S
H1941 C1951 0.930 . S
C1942 H1936 0.930 . S
C1942 C1943 1.355 . S
C1942 C1944 1.415 . S
C1943 C1942 1.355 . S
C1943 C1945 1.419 . S
C1944 C1942 1.415 . S
C1944 C1949 1.425 . S
C1944 C1951 1.409 . S
C1945 H1937 0.930 . S
C1945 C1943 1.419 . S
C1945 C1946 1.362 . S
C1946 H1938 0.930 . S
C1946 C1945 1.362 . S
C1946 C1949 1.409 . S
C1947 H1939 0.930 . S
C1947 C1948 1.355 . S
C1947 C1949 1.415 . S
C1948 C1947 1.355 . S
C1948 C1950 1.419 . S
C1949 C1944 1.425 . S
C1949 C1946 1.409 . S
C1949 C1947 1.415 . S
C1950 H1940 0.930 . S
C1950 C1948 1.419 . S
C1950 C1951 1.362 . S
C1951 H1941 0.930 . S
C1951 C1944 1.409 . S
C1951 C1950 1.362 . S
H1952 C1958 0.930 . S
H1953 C1961 0.930 . S
H1954 C1962 0.930 . S
H1955 C1963 0.930 . S
H1956 C1966 0.930 . S
H1957 C1967 0.930 . S
C1958 H1952 0.930 . S
C1958 C1959 1.355 . S
C1958 C1960 1.415 . S
C1959 C1958 1.355 . S
C1959 C1961 1.419 . S
C1960 C1958 1.415 . S
C1960 C1965 1.425 . S
C1960 C1967 1.409 . S
C1961 H1953 0.930 . S
C1961 C1959 1.419 . S
C1961 C1962 1.362 . S
C1962 H1954 0.930 . S
C1962 C1961 1.362 . S
C1962 C1965 1.409 . S
C1963 H1955 0.930 . S
C1963 C1964 1.355 . S
C1963 C1965 1.415 . S
C1964 C1963 1.355 . S
C1964 C1966 1.419 . S
C1965 C1960 1.425 . S
C1965 C1962 1.409 . S
C1965 C1963 1.415 . S
C1966 H1956 0.930 . S
C1966 C1964 1.419 . S
C1966 C1967 1.362 . S
C1967 H1957 0.930 . S
C1967 C1960 1.409 . S
C1967 C1966 1.362 . S
H1968 C1974 0.930 . S
H1969 C1977 0.930 . S
H1970 C1978 0.930 . S
H1971 C1979 0.930 . S
H1972 C1982 0.930 . S
H1973 C1983 0.930 . S
C1974 H1968 0.930 . S
C1974 C1975 1.355 . S
C1974 C1976 1.415 . S
C1975 C1974 1.355 . S
C1975 C1977 1.419 . S
C1976 C1974 1.415 . S
C1976 C1981 1.425 . S
C1976 C1983 1.409 . S
C1977 H1969 0.930 . S
C1977 C1975 1.419 . S
C1977 C1978 1.362 . S
C1978 H1970 0.930 . S
C1978 C1977 1.362 . S
C1978 C1981 1.409 . S
C1979 H1971 0.930 . S
C1979 C1980 1.355 . S
C1979 C1981 1.415 . S
C1980 C1979 1.355 . S
C1980 C1982 1.419 . S
C1981 C1976 1.425 . S
C1981 C1978 1.409 . S
C1981 C1979 1.415 . S
C1982 H1972 0.930 . S
C1982 C1980 1.419 . S
C1982 C1983 1.362 . S
C1983 H1973 0.930 . S
C1983 C1976 1.409 . S
C1983 C1982 1.362 . S
H1984 C1990 0.930 . S
H1985 C1993 0.930 . S
H1986 C1994 0.930 . S
H1987 C1995 0.930 . S
H1988 C1998 0.930 . S
H1989 C1999 0.930 . S
C1990 H1984 0.930 . S
C1990 C1991 1.355 . S
C1990 C1992 1.415 . S
C1991 C1990 1.355 . S
C1991 C1993 1.419 . S
C1992 C1990 1.415 . S
C1992 C1997 1.425 . S
C1992 C1999 1.409 . S
C1993 H1985 0.930 . S
C1993 C1991 1.419 . S
C1993 C1994 1.362 . S
C1994 H1986 0.930 . S
C1994 C1993 1.362 . S
C1994 C1997 1.409 . S
C1995 H1987 0.930 . S
C1995 C1996 1.355 . S
C1995 C1997 1.415 . S
C1996 C1995 1.355 . S
C1996 C1998 1.419 . S
C1997 C1992 1.425 . S
C1997 C1994 1.409 . S
C1997 C1995 1.415 . S
C1998 H1988 0.930 . S
C1998 C1996 1.419 . S
C1998 C1999 1.362 . S
C1999 H1989 0.930 . S
C1999 C1992 1.409 . S
C1999 C1998 1.362 . S
H2000 C2006 0.930 . S
H2001 C2009 0.930 . S
H2002 C2010 0.930 . S
H2003 C2011 0.930 . S
H2004 C2014 0.930 . S
H2005 C2015 0.930 . S
C2006 H2000 0.930 . S
C2006 C2007 1.355 . S
C2006 C2008 1.415 . S
C2007 C2006 1.355 . S
C2007 C2009 1.419 . S
C2008 C2006 1.415 . S
C2008 C2013 1.425 . S
C2008 C2015 1.409 . S
C2009 H2001 0.930 . S
C2009 C2007 1.419 . S
C2009 C2010 1.362 . S
C2010 H2002 0.930 . S
C2010 C2009 1.362 . S
C2010 C2013 1.409 . S
C2011 H2003 0.930 . S
C2011 C2012 1.355 . S
C2011 C2013 1.415 . S
C2012 C2011 1.355 . S
C2012 C2014 1.419 . S
C2013 C2008 1.425 . S
C2013 C2010 1.409 . S
C2013 C2011 1.415 . S
C2014 H2004 0.930 . S
C2014 C2012 1.419 . S
C2014 C2015 1.362 . S
C2015 H2005 0.930 . S
C2015 C2008 1.409 . S
C2015 C2014 1.362 . S
H2016 C2022 0.930 . S
H2017 C2025 0.930 . S
H2018 C2026 0.930 . S
H2019 C2027 0.930 . S
H2020 C2030 0.930 . S
H2021 C2031 0.930 . S
C2022 H2016 0.930 . S
C2022 C2023 1.355 . S
C2022 C2024 1.415 . S
C2023 C2022 1.355 . S
C2023 C2025 1.419 . S
C2024 C2022 1.415 . S
C2024 C2029 1.425 . S
C2024 C2031 1.409 . S
C2025 H2017 0.930 . S
C2025 C2023 1.419 . S
C2025 C2026 1.362 . S
C2026 H2018 0.930 . S
C2026 C2025 1.362 . S
C2026 C2029 1.409 . S
C2027 H2019 0.930 . S
C2027 C2028 1.355 . S
C2027 C2029 1.415 . S
C2028 C2027 1.355 . S
C2028 C2030 1.419 . S
C2029 C2024 1.425 . S
C2029 C2026 1.409 . S
C2029 C2027 1.415 . S
C2030 H2020 0.930 . S
C2030 C2028 1.419 . S
C2030 C2031 1.362 . S
C2031 H2021 0.930 . S
C2031 C2024 1.409 . S
C2031 C2030 1.362 . S
H2032 C2038 0.930 . S
H2033 C2041 0.930 . S
H2034 C2042 0.930 . S
H2035 C2043 0.930 . S
H2036 C2046 0.930 . S
H2037 C2047 0.930 . S
C2038 H2032 0.930 . S
C2038 C2039 1.355 1_565 S
C2038 C2040 1.415 . S
C2039 C2038 1.355 1_545 S
C2039 C2041 1.419 . S
C2040 C2038 1.415 . S
C2040 C2045 1.425 . S
C2040 C2047 1.409 . S
C2041 H2033 0.930 . S
C2041 C2039 1.419 . S
C2041 C2042 1.362 . S
C2042 H2034 0.930 . S
C2042 C2041 1.362 . S
C2042 C2045 1.409 1_545 S
C2043 H2035 0.930 . S
C2043 C2044 1.355 . S
C2043 C2045 1.415 . S
C2044 C2043 1.355 . S
C2044 C2046 1.419 . S
C2045 C2040 1.425 . S
C2045 C2042 1.409 1_565 S
C2045 C2043 1.415 . S
C2046 H2036 0.930 . S
C2046 C2044 1.419 . S
C2046 C2047 1.362 . S
C2047 H2037 0.930 . S
C2047 C2040 1.409 . S
C2047 C2046 1.362 . S
H2048 C2054 0.930 . S
H2049 C2057 0.930 . S
H2050 C2058 0.930 1_655 S
H2051 C2059 0.930 . S
H2052 C2062 0.930 . S
H2053 C2063 0.930 . S
C2054 H2048 0.930 . S
C2054 C2055 1.355 . S
C2054 C2056 1.415 . S
C2055 C2054 1.355 . S
C2055 C2057 1.419 . S
C2056 C2054 1.415 . S
C2056 C2061 1.425 . S
C2056 C2063 1.409 . S
C2057 H2049 0.930 . S
C2057 C2055 1.419 . S
C2057 C2058 1.362 . S
C2058 H2050 0.930 1_455 S
C2058 C2057 1.362 . S
C2058 C2061 1.409 . S
C2059 H2051 0.930 . S
C2059 C2060 1.332 1_655 S
C2059 C2061 1.415 1_655 S
C2060 C2059 1.332 1_455 S
C2060 C2062 1.448 . S
C2061 C2056 1.425 . S
C2061 C2058 1.409 . S
C2061 C2059 1.415 1_455 S
C2062 H2052 0.930 . S
C2062 C2060 1.448 . S
C2062 C2063 1.362 . S
C2063 H2053 0.930 . S
C2063 C2056 1.409 . S
C2063 C2062 1.362 . S
H2064 C2070 0.930 . S
H2065 C2073 0.930 . S
H2066 C2074 0.930 . S
H2067 C2075 0.930 . S
H2068 C2078 0.930 . S
H2069 C2079 0.930 . S
C2070 H2064 0.930 . S
C2070 C2071 1.355 . S
C2070 C2072 1.415 . S
C2071 C2070 1.355 . S
C2071 C2073 1.419 . S
C2072 C2070 1.415 . S
C2072 C2077 1.425 . S
C2072 C2079 1.409 . S
C2073 H2065 0.930 . S
C2073 C2071 1.419 . S
C2073 C2074 1.362 . S
C2074 H2066 0.930 . S
C2074 C2073 1.362 . S
C2074 C2077 1.409 . S
C2075 H2067 0.930 . S
C2075 C2076 1.355 . S
C2075 C2077 1.415 . S
C2076 C2075 1.355 . S
C2076 C2078 1.419 . S
C2077 C2072 1.425 . S
C2077 C2074 1.409 . S
C2077 C2075 1.415 . S
C2078 H2068 0.930 . S
C2078 C2076 1.419 . S
C2078 C2079 1.362 . S
C2079 H2069 0.930 . S
C2079 C2072 1.409 . S
C2079 C2078 1.362 . S
H2080 C2086 0.933 . S
H2081 C2089 0.930 . S
H2082 C2090 0.930 . S
H2083 C2091 0.930 . S
H2084 C2094 0.930 . S
H2085 C2095 0.930 . S
C2086 H2080 0.933 . S
C2086 C2087 1.354 . S
C2086 C2088 1.411 1_565 S
C2087 C2086 1.354 . S
C2087 C2089 1.419 1_565 S
C2088 C2086 1.411 1_545 S
C2088 C2093 1.425 . S
C2088 C2095 1.409 . S
C2089 H2081 0.930 . S
C2089 C2087 1.419 1_545 S
C2089 C2090 1.362 . S
C2090 H2082 0.930 . S
C2090 C2089 1.362 . S
C2090 C2093 1.409 . S
C2091 H2083 0.930 . S
C2091 C2092 1.355 . S
C2091 C2093 1.415 . S
C2092 C2091 1.355 . S
C2092 C2094 1.419 . S
C2093 C2088 1.425 . S
C2093 C2090 1.409 . S
C2093 C2091 1.415 . S
C2094 H2084 0.930 . S
C2094 C2092 1.419 . S
C2094 C2095 1.362 . S
C2095 H2085 0.930 . S
C2095 C2088 1.409 . S
C2095 C2094 1.362 . S
H2096 C2102 0.930 . S
H2097 C2105 0.930 . S
H2098 C2106 0.930 . S
H2099 C2107 0.930 . S
H2100 C2110 0.930 . S
H2101 C2111 0.930 . S
C2102 H2096 0.930 . S
C2102 C2103 1.355 . S
C2102 C2104 1.415 . S
C2103 C2102 1.355 . S
C2103 C2105 1.419 . S
C2104 C2102 1.415 . S
C2104 C2109 1.425 . S
C2104 C2111 1.409 . S
C2105 H2097 0.930 . S
C2105 C2103 1.419 . S
C2105 C2106 1.362 . S
C2106 H2098 0.930 . S
C2106 C2105 1.362 . S
C2106 C2109 1.409 . S
C2107 H2099 0.930 . S
C2107 C2108 1.355 1_655 S
C2107 C2109 1.415 . S
C2108 C2107 1.355 1_455 S
C2108 C2110 1.419 . S
C2109 C2104 1.425 . S
C2109 C2106 1.409 . S
C2109 C2107 1.415 . S
C2110 H2100 0.930 . S
C2110 C2108 1.419 . S
C2110 C2111 1.362 1_455 S
C2111 H2101 0.930 . S
C2111 C2104 1.409 . S
C2111 C2110 1.362 1_655 S
H2112 C2118 0.930 . S
H2113 C2121 0.930 . S
H2114 C2122 0.930 . S
H2115 C2123 0.930 . S
H2116 C2126 0.930 . S
H2117 C2127 0.930 . S
C2118 H2112 0.930 . S
C2118 C2119 1.355 . S
C2118 C2120 1.415 . S
C2119 C2118 1.355 . S
C2119 C2121 1.419 . S
C2120 C2118 1.415 . S
C2120 C2125 1.425 . S
C2120 C2127 1.409 . S
C2121 H2113 0.930 . S
C2121 C2119 1.419 . S
C2121 C2122 1.362 . S
C2122 H2114 0.930 . S
C2122 C2121 1.362 . S
C2122 C2125 1.409 . S
C2123 H2115 0.930 . S
C2123 C2124 1.355 . S
C2123 C2125 1.415 . S
C2124 C2123 1.355 . S
C2124 C2126 1.419 . S
C2125 C2120 1.425 . S
C2125 C2122 1.409 . S
C2125 C2123 1.415 . S
C2126 H2116 0.930 . S
C2126 C2124 1.419 . S
C2126 C2127 1.362 . S
C2127 H2117 0.930 . S
C2127 C2120 1.409 . S
C2127 C2126 1.362 . S
H2128 C2134 0.930 . S
H2129 C2137 0.930 . S
H2130 C2138 0.930 1_565 S
H2131 C2139 0.930 . S
H2132 C2142 0.930 . S
H2133 C2143 0.930 . S
C2134 H2128 0.930 . S
C2134 C2135 1.355 . S
C2134 C2136 1.415 . S
C2135 C2134 1.355 . S
C2135 C2137 1.419 . S
C2136 C2134 1.415 . S
C2136 C2141 1.425 . S
C2136 C2143 1.409 . S
C2137 H2129 0.930 . S
C2137 C2135 1.419 . S
C2137 C2138 1.362 . S
C2138 H2130 0.930 1_545 S
C2138 C2137 1.362 . S
C2138 C2141 1.409 . S
C2139 H2131 0.930 . S
C2139 C2140 1.359 1_565 S
C2139 C2141 1.415 1_565 S
C2140 C2139 1.359 1_545 S
C2140 C2142 1.436 . S
C2141 C2136 1.425 . S
C2141 C2138 1.409 . S
C2141 C2139 1.415 1_545 S
C2142 H2132 0.930 . S
C2142 C2140 1.436 . S
C2142 C2143 1.362 . S
C2143 H2133 0.930 . S
C2143 C2136 1.409 . S
C2143 C2142 1.362 . S
H2144 C2150 0.930 . S
H2145 C2153 0.930 . S
H2146 C2154 0.930 1_455 S
H2147 C2155 0.930 . S
H2148 C2158 0.930 . S
H2149 C2159 0.930 . S
C2150 H2144 0.930 . S
C2150 C2151 1.355 . S
C2150 C2152 1.415 . S
C2151 C2150 1.355 . S
C2151 C2153 1.419 . S
C2152 C2150 1.415 . S
C2152 C2157 1.425 . S
C2152 C2159 1.409 . S
C2153 H2145 0.930 . S
C2153 C2151 1.419 . S
C2153 C2154 1.362 . S
C2154 H2146 0.930 1_655 S
C2154 C2153 1.362 . S
C2154 C2157 1.409 . S
C2155 H2147 0.930 . S
C2155 C2156 1.332 1_455 S
C2155 C2157 1.415 1_455 S
C2156 C2155 1.332 1_655 S
C2156 C2158 1.448 . S
C2157 C2152 1.425 . S
C2157 C2154 1.409 . S
C2157 C2155 1.415 1_655 S
C2158 H2148 0.930 . S
C2158 C2156 1.448 . S
C2158 C2159 1.362 . S
C2159 H2149 0.930 . S
C2159 C2152 1.409 . S
C2159 C2158 1.362 . S
H2160 C2166 0.930 . S
H2161 C2169 0.930 . S
H2162 C2170 0.930 . S
H2163 C2171 0.930 . S
H2164 C2174 0.930 . S
H2165 C2175 0.930 . S
C2166 H2160 0.930 . S
C2166 C2167 1.355 . S
C2166 C2168 1.415 . S
C2167 C2166 1.355 . S
C2167 C2169 1.419 . S
C2168 C2166 1.415 . S
C2168 C2173 1.425 . S
C2168 C2175 1.409 . S
C2169 H2161 0.930 . S
C2169 C2167 1.419 . S
C2169 C2170 1.362 . S
C2170 H2162 0.930 . S
C2170 C2169 1.362 . S
C2170 C2173 1.409 . S
C2171 H2163 0.930 . S
C2171 C2172 1.355 . S
C2171 C2173 1.415 . S
C2172 C2171 1.355 . S
C2172 C2174 1.419 . S
C2173 C2168 1.425 . S
C2173 C2170 1.409 . S
C2173 C2171 1.415 . S
C2174 H2164 0.930 . S
C2174 C2172 1.419 . S
C2174 C2175 1.362 . S
C2175 H2165 0.930 . S
C2175 C2168 1.409 . S
C2175 C2174 1.362 . S
H2176 C2182 0.930 . S
H2177 C2185 0.930 . S
H2178 C2186 0.930 . S
H2179 C2187 0.930 . S
H2180 C2190 0.930 . S
H2181 C2191 0.930 . S
C2182 H2176 0.930 . S
C2182 C2183 1.355 1_565 S
C2182 C2184 1.415 . S
C2183 C2182 1.355 1_545 S
C2183 C2185 1.419 . S
C2184 C2182 1.415 . S
C2184 C2189 1.425 . S
C2184 C2191 1.409 . S
C2185 H2177 0.930 . S
C2185 C2183 1.419 . S
C2185 C2186 1.362 1_545 S
C2186 H2178 0.930 . S
C2186 C2185 1.362 1_565 S
C2186 C2189 1.409 . S
C2187 H2179 0.930 . S
C2187 C2188 1.355 . S
C2187 C2189 1.415 . S
C2188 C2187 1.355 . S
C2188 C2190 1.419 . S
C2189 C2184 1.425 . S
C2189 C2186 1.409 . S
C2189 C2187 1.415 . S
C2190 H2180 0.930 . S
C2190 C2188 1.419 . S
C2190 C2191 1.362 . S
C2191 H2181 0.930 . S
C2191 C2184 1.409 . S
C2191 C2190 1.362 . S
H2192 C2198 0.930 1_655 S
H2193 C2201 0.930 . S
H2194 C2202 0.930 . S
H2195 C2203 0.930 . S
H2196 C2206 0.930 . S
H2197 C2207 0.930 . S
C2198 H2192 0.930 1_455 S
C2198 C2199 1.355 1_455 S
C2198 C2200 1.414 . S
C2199 C2198 1.355 1_655 S
C2199 C2201 1.419 1_655 S
C2200 C2198 1.414 . S
C2200 C2205 1.425 . S
C2200 C2207 1.409 . S
C2201 H2193 0.930 . S
C2201 C2199 1.419 1_455 S
C2201 C2202 1.362 . S
C2202 H2194 0.930 . S
C2202 C2201 1.362 . S
C2202 C2205 1.409 . S
C2203 H2195 0.930 . S
C2203 C2204 1.355 . S
C2203 C2205 1.415 . S
C2204 C2203 1.355 . S
C2204 C2206 1.419 . S
C2205 C2200 1.425 . S
C2205 C2202 1.409 . S
C2205 C2203 1.415 . S
C2206 H2196 0.930 . S
C2206 C2204 1.419 . S
C2206 C2207 1.362 . S
C2207 H2197 0.930 . S
C2207 C2200 1.409 . S
C2207 C2206 1.362 . S
H2208 C2214 0.930 . S
H2209 C2217 0.930 . S
H2210 C2218 0.930 . S
H2211 C2219 0.930 . S
H2212 C2222 0.930 . S
H2213 C2223 0.930 . S
C2214 H2208 0.930 . S
C2214 C2215 1.355 . S
C2214 C2216 1.415 . S
C2215 C2214 1.355 . S
C2215 C2217 1.419 . S
C2216 C2214 1.415 . S
C2216 C2221 1.425 1_655 S
C2216 C2223 1.409 1_655 S
C2217 H2209 0.930 . S
C2217 C2215 1.419 . S
C2217 C2218 1.362 . S
C2218 H2210 0.930 . S
C2218 C2217 1.362 . S
C2218 C2221 1.409 1_655 S
C2219 H2211 0.930 . S
C2219 C2220 1.355 . S
C2219 C2221 1.415 . S
C2220 C2219 1.355 . S
C2220 C2222 1.419 . S
C2221 C2216 1.425 1_455 S
C2221 C2218 1.409 1_455 S
C2221 C2219 1.415 . S
C2222 H2212 0.930 . S
C2222 C2220 1.419 . S
C2222 C2223 1.362 . S
C2223 H2213 0.930 . S
C2223 C2216 1.409 1_455 S
C2223 C2222 1.362 . S
H2224 C2230 0.930 . S
H2225 C2233 0.930 . S
H2226 C2234 0.930 . S
H2227 C2235 0.930 . S
H2228 C2238 0.930 . S
H2229 C2239 0.930 . S
C2230 H2224 0.930 . S
C2230 C2231 1.355 . S
C2230 C2232 1.415 . S
C2231 C2230 1.355 . S
C2231 C2233 1.419 . S
C2232 C2230 1.415 . S
C2232 C2237 1.425 . S
C2232 C2239 1.409 . S
C2233 H2225 0.930 . S
C2233 C2231 1.419 . S
C2233 C2234 1.362 . S
C2234 H2226 0.930 . S
C2234 C2233 1.362 . S
C2234 C2237 1.409 . S
C2235 H2227 0.930 . S
C2235 C2236 1.355 . S
C2235 C2237 1.415 . S
C2236 C2235 1.355 . S
C2236 C2238 1.419 . S
C2237 C2232 1.425 . S
C2237 C2234 1.409 . S
C2237 C2235 1.415 . S
C2238 H2228 0.930 . S
C2238 C2236 1.419 . S
C2238 C2239 1.362 . S
C2239 H2229 0.930 . S
C2239 C2232 1.409 . S
C2239 C2238 1.362 . S
H2240 C2246 0.930 . S
H2241 C2249 0.930 . S
H2242 C2250 0.930 . S
H2243 C2251 0.930 . S
H2244 C2254 0.930 . S
H2245 C2255 0.930 . S
C2246 H2240 0.930 . S
C2246 C2247 1.355 . S
C2246 C2248 1.415 . S
C2247 C2246 1.355 . S
C2247 C2249 1.419 . S
C2248 C2246 1.415 . S
C2248 C2253 1.425 1_565 S
C2248 C2255 1.409 1_565 S
C2249 H2241 0.930 . S
C2249 C2247 1.419 . S
C2249 C2250 1.362 . S
C2250 H2242 0.930 . S
C2250 C2249 1.362 . S
C2250 C2253 1.409 1_565 S
C2251 H2243 0.930 . S
C2251 C2252 1.355 . S
C2251 C2253 1.415 . S
C2252 C2251 1.355 . S
C2252 C2254 1.419 . S
C2253 C2248 1.425 1_545 S
C2253 C2250 1.409 1_545 S
C2253 C2251 1.415 . S
C2254 H2244 0.930 . S
C2254 C2252 1.419 . S
C2254 C2255 1.362 . S
C2255 H2245 0.930 . S
C2255 C2248 1.409 1_545 S
C2255 C2254 1.362 . S
H2256 C2262 0.930 . S
H2257 C2265 0.930 . S
H2258 C2266 0.930 . S
H2259 C2267 0.930 . S
H2260 C2270 0.930 . S
H2261 C2271 0.930 . S
C2262 H2256 0.930 . S
C2262 C2263 1.355 . S
C2262 C2264 1.415 . S
C2263 C2262 1.355 . S
C2263 C2265 1.419 . S
C2264 C2262 1.415 . S
C2264 C2269 1.425 . S
C2264 C2271 1.409 . S
C2265 H2257 0.930 . S
C2265 C2263 1.419 . S
C2265 C2266 1.362 . S
C2266 H2258 0.930 . S
C2266 C2265 1.362 . S
C2266 C2269 1.409 . S
C2267 H2259 0.930 . S
C2267 C2268 1.355 . S
C2267 C2269 1.415 . S
C2268 C2267 1.355 . S
C2268 C2270 1.419 . S
C2269 C2264 1.425 . S
C2269 C2266 1.409 . S
C2269 C2267 1.415 . S
C2270 H2260 0.930 . S
C2270 C2268 1.419 . S
C2270 C2271 1.362 . S
C2271 H2261 0.930 . S
C2271 C2264 1.409 . S
C2271 C2270 1.362 . S
H2272 C2278 0.930 . S
H2273 C2281 0.930 . S
H2274 C2282 0.930 . S
H2275 C2283 0.930 . S
H2276 C2286 0.930 . S
H2277 C2287 0.930 . S
C2278 H2272 0.930 . S
C2278 C2279 1.355 . S
C2278 C2280 1.415 . S
C2279 C2278 1.355 . S
C2279 C2281 1.419 . S
C2280 C2278 1.415 . S
C2280 C2285 1.425 . S
C2280 C2287 1.409 . S
C2281 H2273 0.930 . S
C2281 C2279 1.419 . S
C2281 C2282 1.362 . S
C2282 H2274 0.930 . S
C2282 C2281 1.362 . S
C2282 C2285 1.409 . S
C2283 H2275 0.930 . S
C2283 C2284 1.355 . S
C2283 C2285 1.415 . S
C2284 C2283 1.355 . S
C2284 C2286 1.419 . S
C2285 C2280 1.425 . S
C2285 C2282 1.409 . S
C2285 C2283 1.415 . S
C2286 H2276 0.930 . S
C2286 C2284 1.419 . S
C2286 C2287 1.362 . S
C2287 H2277 0.930 . S
C2287 C2280 1.409 . S
C2287 C2286 1.362 . S
H2288 C2294 0.930 . S
H2289 C2297 0.930 . S
H2290 C2298 0.930 . S
H2291 C2299 0.930 . S
H2292 C2302 0.930 . S
H2293 C2303 0.930 . S
C2294 H2288 0.930 . S
C2294 C2295 1.355 . S
C2294 C2296 1.415 . S
C2295 C2294 1.355 . S
C2295 C2297 1.419 . S
C2296 C2294 1.415 . S
C2296 C2301 1.425 . S
C2296 C2303 1.409 . S
C2297 H2289 0.930 . S
C2297 C2295 1.419 . S
C2297 C2298 1.362 . S
C2298 H2290 0.930 . S
C2298 C2297 1.362 . S
C2298 C2301 1.409 . S
C2299 H2291 0.930 . S
C2299 C2300 1.355 . S
C2299 C2301 1.415 . S
C2300 C2299 1.355 . S
C2300 C2302 1.419 . S
C2301 C2296 1.425 . S
C2301 C2298 1.409 . S
C2301 C2299 1.415 . S
C2302 H2292 0.930 . S
C2302 C2300 1.419 . S
C2302 C2303 1.362 . S
C2303 H2293 0.930 . S
C2303 C2296 1.409 . S
C2303 C2302 1.362 . S
H2304 C2310 0.930 . S
H2305 C2313 0.930 . S
H2306 C2314 0.930 . S
H2307 C2315 0.930 . S
H2308 C2318 0.930 . S
H2309 C2319 0.930 . S
C2310 H2304 0.930 . S
C2310 C2311 1.355 . S
C2310 C2312 1.415 . S
C2311 C2310 1.355 . S
C2311 C2313 1.419 . S
C2312 C2310 1.415 . S
C2312 C2317 1.425 . S
C2312 C2319 1.409 1_565 S
C2313 H2305 0.930 . S
C2313 C2311 1.419 . S
C2313 C2314 1.362 . S
C2314 H2306 0.930 . S
C2314 C2313 1.362 . S
C2314 C2317 1.409 . S
C2315 H2307 0.930 . S
C2315 C2316 1.355 1_565 S
C2315 C2317 1.415 . S
C2316 C2315 1.355 1_545 S
C2316 C2318 1.419 . S
C2317 C2312 1.425 . S
C2317 C2314 1.409 . S
C2317 C2315 1.415 . S
C2318 H2308 0.930 . S
C2318 C2316 1.419 . S
C2318 C2319 1.362 . S
C2319 H2309 0.930 . S
C2319 C2312 1.409 1_545 S
C2319 C2318 1.362 . S
H2320 C2326 0.930 . S
H2321 C2329 0.930 . S
H2322 C2330 0.930 . S
H2323 C2331 0.930 . S
H2324 C2334 0.930 . S
H2325 C2335 0.930 . S
C2326 H2320 0.930 . S
C2326 C2327 1.355 1_455 S
C2326 C2328 1.415 . S
C2327 C2326 1.355 1_655 S
C2327 C2329 1.419 . S
C2328 C2326 1.415 . S
C2328 C2333 1.425 . S
C2328 C2335 1.409 . S
C2329 H2321 0.930 . S
C2329 C2327 1.419 . S
C2329 C2330 1.362 . S
C2330 H2322 0.930 . S
C2330 C2329 1.362 . S
C2330 C2333 1.409 1_655 S
C2331 H2323 0.930 . S
C2331 C2332 1.355 . S
C2331 C2333 1.415 . S
C2332 C2331 1.355 . S
C2332 C2334 1.419 . S
C2333 C2328 1.425 . S
C2333 C2330 1.409 1_455 S
C2333 C2331 1.415 . S
C2334 H2324 0.930 . S
C2334 C2332 1.419 . S
C2334 C2335 1.362 . S
C2335 H2325 0.930 . S
C2335 C2328 1.409 . S
C2335 C2334 1.362 . S
H2336 C2342 0.930 . S
H2337 C2345 0.930 . S
H2338 C2346 0.930 . S
H2339 C2347 0.930 . S
H2340 C2350 0.930 . S
H2341 C2351 0.930 . S
C2342 H2336 0.930 . S
C2342 C2343 1.355 . S
C2342 C2344 1.415 . S
C2343 C2342 1.355 . S
C2343 C2345 1.419 . S
C2344 C2342 1.415 . S
C2344 C2349 1.425 . S
C2344 C2351 1.409 . S
C2345 H2337 0.930 . S
C2345 C2343 1.419 . S
C2345 C2346 1.362 . S
C2346 H2338 0.930 . S
C2346 C2345 1.362 . S
C2346 C2349 1.409 . S
C2347 H2339 0.930 . S
C2347 C2348 1.355 . S
C2347 C2349 1.415 . S
C2348 C2347 1.355 . S
C2348 C2350 1.419 . S
C2349 C2344 1.425 . S
C2349 C2346 1.409 . S
C2349 C2347 1.415 . S
C2350 H2340 0.930 . S
C2350 C2348 1.419 . S
C2350 C2351 1.362 . S
C2351 H2341 0.930 . S
C2351 C2344 1.409 . S
C2351 C2350 1.362 . S
H2352 C2358 0.930 . S
H2353 C2361 0.930 . S
H2354 C2362 0.930 . S
H2355 C2363 0.971 . S
H2356 C2366 0.930 1_545 S
H2357 C2367 0.930 . S
C2358 H2352 0.930 . S
C2358 C2359 1.355 1_556 S
C2358 C2360 1.415 . S
C2359 C2358 1.355 1_554 S
C2359 C2361 1.419 . S
C2360 C2358 1.415 . S
C2360 C2365 1.425 1_556 S
C2360 C2367 1.409 . S
C2361 H2353 0.930 . S
C2361 C2359 1.419 . S
C2361 C2362 1.362 . S
C2362 H2354 0.930 . S
C2362 C2361 1.362 . S
C2362 C2365 1.409 . S
C2363 H2355 0.971 . S
C2363 C2364 1.312 1_554 S
C2363 C2365 1.420 . S
C2364 C2363 1.312 1_556 S
C2364 C2366 1.419 . S
C2365 C2360 1.425 1_554 S
C2365 C2362 1.409 . S
C2365 C2363 1.420 . S
C2366 H2356 0.930 1_565 S
C2366 C2364 1.419 . S
C2366 C2367 1.362 . S
C2367 H2357 0.930 . S
C2367 C2360 1.409 . S
C2367 C2366 1.362 . S
H2368 C2374 0.930 . S
H2369 C2377 0.930 . S
H2370 C2378 0.930 . S
H2371 C2379 0.934 . S
H2372 C2382 0.930 . S
H2373 C2383 0.930 . S
C2374 H2368 0.930 . S
C2374 C2375 1.355 1_556 S
C2374 C2376 1.415 . S
C2375 C2374 1.355 1_554 S
C2375 C2377 1.419 . S
C2376 C2374 1.415 . S
C2376 C2381 1.392 1_556 S
C2376 C2383 1.409 . S
C2377 H2369 0.930 . S
C2377 C2375 1.419 . S
C2377 C2378 1.362 . S
C2378 H2370 0.930 . S
C2378 C2377 1.362 . S
C2378 C2381 1.446 . S
C2379 H2371 0.934 . S
C2379 C2380 1.350 1_554 S
C2379 C2381 1.413 . S
C2380 C2379 1.350 1_556 S
C2380 C2382 1.419 . S
C2381 C2376 1.392 1_554 S
C2381 C2378 1.446 . S
C2381 C2379 1.413 . S
C2382 H2372 0.930 . S
C2382 C2380 1.419 . S
C2382 C2383 1.362 . S
C2383 H2373 0.930 . S
C2383 C2376 1.409 . S
C2383 C2382 1.362 . S
H2384 C2390 0.930 . S
H2385 C2393 0.930 . S
H2386 C2394 0.930 . S
H2387 C2395 0.930 . S
H2388 C2398 0.930 . S
H2389 C2399 0.930 . S
C2390 H2384 0.930 . S
C2390 C2391 1.355 1_554 S
C2390 C2392 1.415 . S
C2391 C2390 1.355 1_556 S
C2391 C2393 1.419 . S
C2392 C2390 1.415 . S
C2392 C2397 1.425 1_554 S
C2392 C2399 1.409 . S
C2393 H2385 0.930 . S
C2393 C2391 1.419 . S
C2393 C2394 1.362 . S
C2394 H2386 0.930 . S
C2394 C2393 1.362 . S
C2394 C2397 1.409 . S
C2395 H2387 0.930 . S
C2395 C2396 1.355 1_556 S
C2395 C2397 1.415 . S
C2396 C2395 1.355 1_554 S
C2396 C2398 1.419 . S
C2397 C2392 1.425 1_556 S
C2397 C2394 1.409 . S
C2397 C2395 1.415 . S
C2398 H2388 0.930 . S
C2398 C2396 1.419 . S
C2398 C2399 1.362 . S
C2399 H2389 0.930 . S
C2399 C2392 1.409 . S
C2399 C2398 1.362 . S
H2400 C2406 0.930 . S
H2401 C2409 0.930 . S
H2402 C2410 0.930 1_565 S
H2403 C2411 0.930 . S
H2404 C2414 0.930 . S
H2405 C2415 0.930 . S
C2406 H2400 0.930 . S
C2406 C2407 1.355 . S
C2406 C2408 1.415 . S
C2407 C2406 1.355 . S
C2407 C2409 1.419 . S
C2408 C2406 1.415 . S
C2408 C2413 1.425 . S
C2408 C2415 1.409 . S
C2409 H2401 0.930 . S
C2409 C2407 1.419 . S
C2409 C2410 1.362 . S
C2410 H2402 0.930 1_545 S
C2410 C2409 1.362 . S
C2410 C2413 1.409 . S
C2411 H2403 0.930 . S
C2411 C2412 1.355 1_565 S
C2411 C2413 1.415 1_565 S
C2412 C2411 1.355 1_545 S
C2412 C2414 1.419 . S
C2413 C2408 1.425 . S
C2413 C2410 1.409 . S
C2413 C2411 1.415 1_545 S
C2414 H2404 0.930 . S
C2414 C2412 1.419 . S
C2414 C2415 1.362 . S
C2415 H2405 0.930 . S
C2415 C2408 1.409 . S
C2415 C2414 1.362 . S
H2416 C2422 0.930 . S
H2417 C2425 0.930 . S
H2418 C2426 0.930 1_455 S
H2419 C2427 0.930 . S
H2420 C2430 0.930 . S
H2421 C2431 0.930 . S
C2422 H2416 0.930 . S
C2422 C2423 1.355 . S
C2422 C2424 1.415 . S
C2423 C2422 1.355 . S
C2423 C2425 1.419 . S
C2424 C2422 1.415 . S
C2424 C2429 1.425 . S
C2424 C2431 1.409 . S
C2425 H2417 0.930 . S
C2425 C2423 1.419 . S
C2425 C2426 1.362 . S
C2426 H2418 0.930 1_655 S
C2426 C2425 1.362 . S
C2426 C2429 1.409 . S
C2427 H2419 0.930 . S
C2427 C2428 1.355 1_455 S
C2427 C2429 1.415 1_455 S
C2428 C2427 1.355 1_655 S
C2428 C2430 1.419 . S
C2429 C2424 1.425 . S
C2429 C2426 1.409 . S
C2429 C2427 1.415 1_655 S
C2430 H2420 0.930 . S
C2430 C2428 1.419 . S
C2430 C2431 1.362 . S
C2431 H2421 0.930 . S
C2431 C2424 1.409 . S
C2431 C2430 1.362 . S
H2432 C2438 0.930 . S
H2433 C2441 0.930 . S
H2434 C2442 0.930 . S
H2435 C2443 0.930 . S
H2436 C2446 0.930 . S
H2437 C2447 0.930 . S
C2438 H2432 0.930 . S
C2438 C2439 1.355 . S
C2438 C2440 1.415 . S
C2439 C2438 1.355 . S
C2439 C2441 1.419 . S
C2440 C2438 1.415 . S
C2440 C2445 1.425 . S
C2440 C2447 1.409 . S
C2441 H2433 0.930 . S
C2441 C2439 1.419 . S
C2441 C2442 1.362 . S
C2442 H2434 0.930 . S
C2442 C2441 1.362 . S
C2442 C2445 1.409 . S
C2443 H2435 0.930 . S
C2443 C2444 1.355 . S
C2443 C2445 1.415 . S
C2444 C2443 1.355 . S
C2444 C2446 1.419 . S
C2445 C2440 1.425 . S
C2445 C2442 1.409 . S
C2445 C2443 1.415 . S
C2446 H2436 0.930 . S
C2446 C2444 1.419 . S
C2446 C2447 1.362 . S
C2447 H2437 0.930 . S
C2447 C2440 1.409 . S
C2447 C2446 1.362 . S
H2448 C2454 0.930 . S
H2449 C2457 0.947 1_565 S
H2450 C2458 0.930 . S
H2451 C2459 0.930 . S
H2452 C2462 0.930 . S
H2453 C2463 0.930 . S
C2454 H2448 0.930 . S
C2454 C2455 1.355 . S
C2454 C2456 1.415 . S
C2455 C2454 1.355 . S
C2455 C2457 1.390 1_554 S
C2456 C2454 1.415 . S
C2456 C2461 1.392 1_554 S
C2456 C2463 1.409 . S
C2457 H2449 0.947 1_545 S
C2457 C2455 1.390 1_556 S
C2457 C2458 1.378 . S
C2458 H2450 0.930 . S
C2458 C2457 1.378 . S
C2458 C2461 1.426 . S
C2459 H2451 0.930 . S
C2459 C2460 1.375 . S
C2459 C2461 1.433 . S
C2460 C2459 1.375 . S
C2460 C2462 1.384 1_556 S
C2461 C2456 1.392 1_556 S
C2461 C2458 1.426 . S
C2461 C2459 1.433 . S
C2462 H2452 0.930 . S
C2462 C2460 1.384 1_554 S
C2462 C2463 1.362 . S
C2463 H2453 0.930 . S
C2463 C2456 1.409 . S
C2463 C2462 1.362 . S
H2464 C2470 0.951 . S
H2465 C2473 0.929 . S
H2466 C2474 0.930 . S
H2467 C2475 0.959 . S
H2468 C2478 0.930 . S
H2469 C2479 0.930 . S
C2470 H2464 0.951 . S
C2470 C2471 1.362 . S
C2470 C2472 1.398 1_556 S
C2471 C2470 1.362 . S
C2471 C2473 1.415 1_556 S
C2472 C2470 1.398 1_554 S
C2472 C2477 1.425 . S
C2472 C2479 1.409 . S
C2473 H2465 0.929 . S
C2473 C2471 1.415 1_554 S
C2473 C2474 1.368 . S
C2474 H2466 0.930 . S
C2474 C2473 1.368 . S
C2474 C2477 1.409 . S
C2475 H2467 0.959 . S
C2475 C2476 1.355 . S
C2475 C2477 1.415 . S
C2476 C2475 1.355 . S
C2476 C2478 1.419 . S
C2477 C2472 1.425 . S
C2477 C2474 1.409 . S
C2477 C2475 1.415 . S
C2478 H2468 0.930 . S
C2478 C2476 1.419 . S
C2478 C2479 1.362 . S
C2479 H2469 0.930 . S
C2479 C2472 1.409 . S
C2479 C2478 1.362 . S
H2480 C2486 0.930 . S
H2481 C2489 0.930 . S
H2482 C2490 0.930 . S
H2483 C2491 0.930 . S
H2484 C2494 0.930 . S
H2485 C2495 0.930 . S
C2486 H2480 0.930 . S
C2486 C2487 1.355 . S
C2486 C2488 1.415 . S
C2487 C2486 1.355 . S
C2487 C2489 1.419 . S
C2488 C2486 1.415 . S
C2488 C2493 1.425 . S
C2488 C2495 1.409 1_554 S
C2489 H2481 0.930 . S
C2489 C2487 1.419 . S
C2489 C2490 1.362 . S
C2490 H2482 0.930 . S
C2490 C2489 1.362 . S
C2490 C2493 1.409 . S
C2491 H2483 0.930 . S
C2491 C2492 1.355 1_554 S
C2491 C2493 1.415 . S
C2492 C2491 1.355 1_556 S
C2492 C2494 1.419 . S
C2493 C2488 1.425 . S
C2493 C2490 1.409 . S
C2493 C2491 1.415 . S
C2494 H2484 0.930 . S
C2494 C2492 1.419 . S
C2494 C2495 1.362 . S
C2495 H2485 0.930 . S
C2495 C2488 1.409 1_556 S
C2495 C2494 1.362 . S
H2496 C2502 0.930 . S
H2497 C2505 0.930 . S
H2498 C2506 0.930 . S
H2499 C2507 0.930 . S
H2500 C2510 0.930 . S
H2501 C2511 0.930 . S
C2502 H2496 0.930 . S
C2502 C2503 1.355 . S
C2502 C2504 1.415 . S
C2503 C2502 1.355 . S
C2503 C2505 1.419 . S
C2504 C2502 1.415 . S
C2504 C2509 1.425 1_455 S
C2504 C2511 1.409 1_455 S
C2505 H2497 0.930 . S
C2505 C2503 1.419 . S
C2505 C2506 1.362 . S
C2506 H2498 0.930 . S
C2506 C2505 1.362 . S
C2506 C2509 1.409 1_455 S
C2507 H2499 0.930 . S
C2507 C2508 1.355 . S
C2507 C2509 1.415 . S
C2508 C2507 1.355 . S
C2508 C2510 1.419 . S
C2509 C2504 1.425 1_655 S
C2509 C2506 1.409 1_655 S
C2509 C2507 1.415 . S
C2510 H2500 0.930 . S
C2510 C2508 1.419 . S
C2510 C2511 1.362 . S
C2511 H2501 0.930 . S
C2511 C2504 1.409 1_655 S
C2511 C2510 1.362 . S
H2512 C2518 0.930 . S
H2513 C2521 0.930 . S
H2514 C2522 0.930 . S
H2515 C2523 0.930 . S
H2516 C2526 0.930 . S
H2517 C2527 0.930 . S
C2518 H2512 0.930 . S
C2518 C2519 1.355 . S
C2518 C2520 1.415 . S
C2519 C2518 1.355 . S
C2519 C2521 1.419 . S
C2520 C2518 1.415 . S
C2520 C2525 1.425 . S
C2520 C2527 1.409 . S
C2521 H2513 0.930 . S
C2521 C2519 1.419 . S
C2521 C2522 1.362 . S
C2522 H2514 0.930 . S
C2522 C2521 1.362 . S
C2522 C2525 1.409 . S
C2523 H2515 0.930 . S
C2523 C2524 1.355 . S
C2523 C2525 1.415 . S
C2524 C2523 1.355 . S
C2524 C2526 1.419 . S
C2525 C2520 1.425 . S
C2525 C2522 1.409 . S
C2525 C2523 1.415 . S
C2526 H2516 0.930 . S
C2526 C2524 1.419 . S
C2526 C2527 1.362 . S
C2527 H2517 0.930 . S
C2527 C2520 1.409 . S
C2527 C2526 1.362 . S
H2528 C2534 0.930 . S
H2529 C2537 0.930 . S
H2530 C2538 0.930 . S
H2531 C2539 0.930 . S
H2532 C2542 0.930 . S
H2533 C2543 0.930 . S
C2534 H2528 0.930 . S
C2534 C2535 1.355 . S
C2534 C2536 1.415 . S
C2535 C2534 1.355 . S
C2535 C2537 1.419 . S
C2536 C2534 1.415 . S
C2536 C2541 1.425 1_565 S
C2536 C2543 1.409 1_565 S
C2537 H2529 0.930 . S
C2537 C2535 1.419 . S
C2537 C2538 1.362 . S
C2538 H2530 0.930 . S
C2538 C2537 1.362 . S
C2538 C2541 1.409 1_565 S
C2539 H2531 0.930 . S
C2539 C2540 1.355 . S
C2539 C2541 1.415 . S
C2540 C2539 1.355 . S
C2540 C2542 1.419 . S
C2541 C2536 1.425 1_545 S
C2541 C2538 1.409 1_545 S
C2541 C2539 1.415 . S
C2542 H2532 0.930 . S
C2542 C2540 1.419 . S
C2542 C2543 1.362 . S
C2543 H2533 0.930 . S
C2543 C2536 1.409 1_545 S
C2543 C2542 1.362 . S
H2544 C2550 0.930 . S
H2545 C2553 0.930 . S
H2546 C2554 0.930 . S
H2547 C2555 0.930 . S
H2548 C2558 0.930 . S
H2549 C2559 0.930 . S
C2550 H2544 0.930 . S
C2550 C2551 1.355 . S
C2550 C2552 1.415 . S
C2551 C2550 1.355 . S
C2551 C2553 1.419 . S
C2552 C2550 1.415 . S
C2552 C2557 1.425 . S
C2552 C2559 1.409 . S
C2553 H2545 0.930 . S
C2553 C2551 1.419 . S
C2553 C2554 1.362 . S
C2554 H2546 0.930 . S
C2554 C2553 1.362 . S
C2554 C2557 1.409 . S
C2555 H2547 0.930 . S
C2555 C2556 1.355 . S
C2555 C2557 1.415 . S
C2556 C2555 1.355 . S
C2556 C2558 1.419 . S
C2557 C2552 1.425 . S
C2557 C2554 1.409 . S
C2557 C2555 1.415 . S
C2558 H2548 0.930 . S
C2558 C2556 1.419 . S
C2558 C2559 1.362 . S
C2559 H2549 0.930 . S
C2559 C2552 1.409 . S
C2559 C2558 1.362 . S
H2560 C2566 0.930 . S
H2561 C2569 0.930 . S
H2562 C2570 0.930 . S
H2563 C2571 0.930 . S
H2564 C2574 0.930 . S
H2565 C2575 0.930 . S
C2566 H2560 0.930 . S
C2566 C2567 1.355 . S
C2566 C2568 1.415 . S
C2567 C2566 1.355 . S
C2567 C2569 1.419 . S
C2568 C2566 1.415 . S
C2568 C2573 1.425 . S
C2568 C2575 1.409 . S
C2569 H2561 0.930 . S
C2569 C2567 1.419 . S
C2569 C2570 1.362 . S
C2570 H2562 0.930 . S
C2570 C2569 1.362 . S
C2570 C2573 1.409 . S
C2571 H2563 0.930 . S
C2571 C2572 1.355 . S
C2571 C2573 1.415 . S
C2572 C2571 1.355 . S
C2572 C2574 1.419 . S
C2573 C2568 1.425 . S
C2573 C2570 1.409 . S
C2573 C2571 1.415 . S
C2574 H2564 0.930 . S
C2574 C2572 1.419 . S
C2574 C2575 1.362 . S
C2575 H2565 0.930 . S
C2575 C2568 1.409 . S
C2575 C2574 1.362 . S
H2576 C2582 0.930 . S
H2577 C2585 0.930 . S
H2578 C2586 0.930 . S
H2579 C2587 0.930 . S
H2580 C2590 0.930 . S
H2581 C2591 0.930 . S
C2582 H2576 0.930 . S
C2582 C2583 1.355 . S
C2582 C2584 1.415 . S
C2583 C2582 1.355 . S
C2583 C2585 1.419 . S
C2584 C2582 1.415 . S
C2584 C2589 1.425 . S
C2584 C2591 1.409 . S
C2585 H2577 0.930 . S
C2585 C2583 1.419 . S
C2585 C2586 1.362 . S
C2586 H2578 0.930 . S
C2586 C2585 1.362 . S
C2586 C2589 1.409 . S
C2587 H2579 0.930 . S
C2587 C2588 1.355 . S
C2587 C2589 1.415 . S
C2588 C2587 1.355 . S
C2588 C2590 1.419 . S
C2589 C2584 1.425 . S
C2589 C2586 1.409 . S
C2589 C2587 1.415 . S
C2590 H2580 0.930 . S
C2590 C2588 1.419 . S
C2590 C2591 1.362 . S
C2591 H2581 0.930 . S
C2591 C2584 1.409 . S
C2591 C2590 1.362 . S
H2592 C2598 0.930 . S
H2593 C2601 0.930 . S
H2594 C2602 0.930 . S
H2595 C2603 0.930 . S
H2596 C2606 0.930 . S
H2597 C2607 0.930 . S
C2598 H2592 0.930 . S
C2598 C2599 1.355 . S
C2598 C2600 1.415 . S
C2599 C2598 1.355 . S
C2599 C2601 1.419 . S
C2600 C2598 1.415 . S
C2600 C2605 1.425 . S
C2600 C2607 1.409 . S
C2601 H2593 0.930 . S
C2601 C2599 1.419 . S
C2601 C2602 1.362 . S
C2602 H2594 0.930 . S
C2602 C2601 1.362 . S
C2602 C2605 1.409 . S
C2603 H2595 0.930 . S
C2603 C2604 1.355 . S
C2603 C2605 1.415 . S
C2604 C2603 1.355 . S
C2604 C2606 1.419 . S
C2605 C2600 1.425 . S
C2605 C2602 1.409 . S
C2605 C2603 1.415 . S
C2606 H2596 0.930 . S
C2606 C2604 1.419 . S
C2606 C2607 1.362 . S
C2607 H2597 0.930 . S
C2607 C2600 1.409 . S
C2607 C2606 1.362 . S
H2608 C2614 0.930 . S
H2609 C2617 0.930 . S
H2610 C2618 0.930 . S
H2611 C2619 0.930 . S
H2612 C2622 0.930 . S
H2613 C2623 0.930 . S
C2614 H2608 0.930 . S
C2614 C2615 1.355 . S
C2614 C2616 1.415 . S
C2615 C2614 1.355 . S
C2615 C2617 1.419 . S
C2616 C2614 1.415 . S
C2616 C2621 1.425 . S
C2616 C2623 1.409 . S
C2617 H2609 0.930 . S
C2617 C2615 1.419 . S
C2617 C2618 1.362 . S
C2618 H2610 0.930 . S
C2618 C2617 1.362 . S
C2618 C2621 1.409 . S
C2619 H2611 0.930 . S
C2619 C2620 1.355 . S
C2619 C2621 1.415 . S
C2620 C2619 1.355 . S
C2620 C2622 1.419 . S
C2621 C2616 1.425 . S
C2621 C2618 1.409 . S
C2621 C2619 1.415 . S
C2622 H2612 0.930 . S
C2622 C2620 1.419 . S
C2622 C2623 1.362 . S
C2623 H2613 0.930 . S
C2623 C2616 1.409 . S
C2623 C2622 1.362 . S
H2624 C2630 0.930 . S
H2625 C2633 0.930 . S
H2626 C2634 0.930 . S
H2627 C2635 0.930 . S
H2628 C2638 0.930 . S
H2629 C2639 0.930 . S
C2630 H2624 0.930 . S
C2630 C2631 1.355 . S
C2630 C2632 1.415 . S
C2631 C2630 1.355 . S
C2631 C2633 1.419 . S
C2632 C2630 1.415 . S
C2632 C2637 1.425 . S
C2632 C2639 1.409 . S
C2633 H2625 0.930 . S
C2633 C2631 1.419 . S
C2633 C2634 1.362 . S
C2634 H2626 0.930 . S
C2634 C2633 1.362 . S
C2634 C2637 1.409 . S
C2635 H2627 0.930 . S
C2635 C2636 1.355 . S
C2635 C2637 1.415 . S
C2636 C2635 1.355 . S
C2636 C2638 1.419 . S
C2637 C2632 1.425 . S
C2637 C2634 1.409 . S
C2637 C2635 1.415 . S
C2638 H2628 0.930 . S
C2638 C2636 1.419 . S
C2638 C2639 1.362 . S
C2639 H2629 0.930 . S
C2639 C2632 1.409 . S
C2639 C2638 1.362 . S
H2640 C2646 0.930 . S
H2641 C2649 0.930 . S
H2642 C2650 0.930 . S
H2643 C2651 0.930 . S
H2644 C2654 0.930 . S
H2645 C2655 0.930 . S
C2646 H2640 0.930 . S
C2646 C2647 1.355 . S
C2646 C2648 1.415 . S
C2647 C2646 1.355 . S
C2647 C2649 1.419 . S
C2648 C2646 1.415 . S
C2648 C2653 1.425 . S
C2648 C2655 1.409 . S
C2649 H2641 0.930 . S
C2649 C2647 1.419 . S
C2649 C2650 1.362 . S
C2650 H2642 0.930 . S
C2650 C2649 1.362 . S
C2650 C2653 1.409 . S
C2651 H2643 0.930 . S
C2651 C2652 1.355 . S
C2651 C2653 1.415 . S
C2652 C2651 1.355 . S
C2652 C2654 1.419 . S
C2653 C2648 1.425 . S
C2653 C2650 1.409 . S
C2653 C2651 1.415 . S
C2654 H2644 0.930 . S
C2654 C2652 1.419 . S
C2654 C2655 1.362 . S
C2655 H2645 0.930 . S
C2655 C2648 1.409 . S
C2655 C2654 1.362 . S
H2656 C2662 0.930 . S
H2657 C2665 0.930 . S
H2658 C2666 0.930 . S
H2659 C2667 0.930 . S
H2660 C2670 0.930 . S
H2661 C2671 0.930 . S
C2662 H2656 0.930 . S
C2662 C2663 1.355 . S
C2662 C2664 1.415 . S
C2663 C2662 1.355 . S
C2663 C2665 1.419 . S
C2664 C2662 1.415 . S
C2664 C2669 1.425 . S
C2664 C2671 1.409 . S
C2665 H2657 0.930 . S
C2665 C2663 1.419 . S
C2665 C2666 1.362 . S
C2666 H2658 0.930 . S
C2666 C2665 1.362 . S
C2666 C2669 1.409 . S
C2667 H2659 0.930 . S
C2667 C2668 1.355 . S
C2667 C2669 1.415 . S
C2668 C2667 1.355 . S
C2668 C2670 1.419 . S
C2669 C2664 1.425 . S
C2669 C2666 1.409 . S
C2669 C2667 1.415 . S
C2670 H2660 0.930 . S
C2670 C2668 1.419 . S
C2670 C2671 1.362 . S
C2671 H2661 0.930 . S
C2671 C2664 1.409 . S
C2671 C2670 1.362 . S
H2672 C2678 0.930 . S
H2673 C2681 0.930 . S
H2674 C2682 0.930 . S
H2675 C2683 0.930 . S
H2676 C2686 0.930 . S
H2677 C2687 0.930 . S
C2678 H2672 0.930 . S
C2678 C2679 1.355 . S
C2678 C2680 1.415 . S
C2679 C2678 1.355 . S
C2679 C2681 1.419 . S
C2680 C2678 1.415 . S
C2680 C2685 1.425 . S
C2680 C2687 1.409 . S
C2681 H2673 0.930 . S
C2681 C2679 1.419 . S
C2681 C2682 1.362 . S
C2682 H2674 0.930 . S
C2682 C2681 1.362 . S
C2682 C2685 1.409 . S
C2683 H2675 0.930 . S
C2683 C2684 1.355 . S
C2683 C2685 1.415 . S
C2684 C2683 1.355 . S
C2684 C2686 1.419 . S
C2685 C2680 1.425 . S
C2685 C2682 1.409 . S
C2685 C2683 1.415 . S
C2686 H2676 0.930 . S
C2686 C2684 1.419 . S
C2686 C2687 1.362 . S
C2687 H2677 0.930 . S
C2687 C2680 1.409 . S
C2687 C2686 1.362 . S
H2688 C2694 0.930 . S
H2689 C2697 0.930 . S
H2690 C2698 0.930 . S
H2691 C2699 0.930 . S
H2692 C2702 0.930 . S
H2693 C2703 0.930 . S
C2694 H2688 0.930 . S
C2694 C2695 1.355 . S
C2694 C2696 1.415 . S
C2695 C2694 1.355 . S
C2695 C2697 1.419 . S
C2696 C2694 1.415 . S
C2696 C2701 1.425 . S
C2696 C2703 1.409 . S
C2697 H2689 0.930 . S
C2697 C2695 1.419 . S
C2697 C2698 1.362 . S
C2698 H2690 0.930 . S
C2698 C2697 1.362 . S
C2698 C2701 1.409 . S
C2699 H2691 0.930 . S
C2699 C2700 1.355 . S
C2699 C2701 1.415 . S
C2700 C2699 1.355 . S
C2700 C2702 1.419 . S
C2701 C2696 1.425 . S
C2701 C2698 1.409 . S
C2701 C2699 1.415 . S
C2702 H2692 0.930 . S
C2702 C2700 1.419 . S
C2702 C2703 1.362 . S
C2703 H2693 0.930 . S
C2703 C2696 1.409 . S
C2703 C2702 1.362 . S
H2704 C2710 0.930 . S
H2705 C2713 0.930 . S
H2706 C2714 0.930 . S
H2707 C2715 0.930 . S
H2708 C2718 0.930 . S
H2709 C2719 0.930 . S
C2710 H2704 0.930 . S
C2710 C2711 1.355 . S
C2710 C2712 1.415 . S
C2711 C2710 1.355 . S
C2711 C2713 1.419 . S
C2712 C2710 1.415 . S
C2712 C2717 1.425 . S
C2712 C2719 1.409 . S
C2713 H2705 0.930 . S
C2713 C2711 1.419 . S
C2713 C2714 1.362 . S
C2714 H2706 0.930 . S
C2714 C2713 1.362 . S
C2714 C2717 1.409 . S
C2715 H2707 0.930 . S
C2715 C2716 1.355 . S
C2715 C2717 1.415 . S
C2716 C2715 1.355 . S
C2716 C2718 1.419 . S
C2717 C2712 1.425 . S
C2717 C2714 1.409 . S
C2717 C2715 1.415 . S
C2718 H2708 0.930 . S
C2718 C2716 1.419 . S
C2718 C2719 1.362 . S
C2719 H2709 0.930 . S
C2719 C2712 1.409 . S
C2719 C2718 1.362 . S
H2720 C2726 0.930 . S
H2721 C2729 0.930 . S
H2722 C2730 0.930 . S
H2723 C2731 0.930 . S
H2724 C2734 0.930 . S
H2725 C2735 0.930 . S
C2726 H2720 0.930 . S
C2726 C2727 1.355 . S
C2726 C2728 1.415 . S
C2727 C2726 1.355 . S
C2727 C2729 1.419 . S
C2728 C2726 1.415 . S
C2728 C2733 1.425 . S
C2728 C2735 1.409 . S
C2729 H2721 0.930 . S
C2729 C2727 1.419 . S
C2729 C2730 1.362 . S
C2730 H2722 0.930 . S
C2730 C2729 1.362 . S
C2730 C2733 1.409 . S
C2731 H2723 0.930 . S
C2731 C2732 1.355 . S
C2731 C2733 1.415 . S
C2732 C2731 1.355 . S
C2732 C2734 1.419 . S
C2733 C2728 1.425 . S
C2733 C2730 1.409 . S
C2733 C2731 1.415 . S
C2734 H2724 0.930 . S
C2734 C2732 1.419 . S
C2734 C2735 1.362 . S
C2735 H2725 0.930 . S
C2735 C2728 1.409 . S
C2735 C2734 1.362 . S
H2736 C2742 0.930 . S
H2737 C2745 0.930 . S
H2738 C2746 0.930 . S
H2739 C2747 0.930 . S
H2740 C2750 0.930 . S
H2741 C2751 0.930 . S
C2742 H2736 0.930 . S
C2742 C2743 1.355 . S
C2742 C2744 1.415 . S
C2743 C2742 1.355 . S
C2743 C2745 1.419 . S
C2744 C2742 1.415 . S
C2744 C2749 1.425 . S
C2744 C2751 1.409 . S
C2745 H2737 0.930 . S
C2745 C2743 1.419 . S
C2745 C2746 1.362 . S
C2746 H2738 0.930 . S
C2746 C2745 1.362 . S
C2746 C2749 1.409 . S
C2747 H2739 0.930 . S
C2747 C2748 1.355 . S
C2747 C2749 1.415 . S
C2748 C2747 1.355 . S
C2748 C2750 1.419 . S
C2749 C2744 1.425 . S
C2749 C2746 1.409 . S
C2749 C2747 1.415 . S
C2750 H2740 0.930 . S
C2750 C2748 1.419 . S
C2750 C2751 1.362 . S
C2751 H2741 0.930 . S
C2751 C2744 1.409 . S
C2751 C2750 1.362 . S
H2752 C2758 0.930 . S
H2753 C2761 0.930 . S
H2754 C2762 0.930 . S
H2755 C2763 0.930 . S
H2756 C2766 0.930 . S
H2757 C2767 0.930 . S
C2758 H2752 0.930 . S
C2758 C2759 1.355 . S
C2758 C2760 1.415 . S
C2759 C2758 1.355 . S
C2759 C2761 1.419 . S
C2760 C2758 1.415 . S
C2760 C2765 1.425 . S
C2760 C2767 1.409 . S
C2761 H2753 0.930 . S
C2761 C2759 1.419 . S
C2761 C2762 1.362 . S
C2762 H2754 0.930 . S
C2762 C2761 1.362 . S
C2762 C2765 1.409 . S
C2763 H2755 0.930 . S
C2763 C2764 1.355 . S
C2763 C2765 1.415 . S
C2764 C2763 1.355 . S
C2764 C2766 1.419 . S
C2765 C2760 1.425 . S
C2765 C2762 1.409 . S
C2765 C2763 1.415 . S
C2766 H2756 0.930 . S
C2766 C2764 1.419 . S
C2766 C2767 1.362 . S
C2767 H2757 0.930 . S
C2767 C2760 1.409 . S
C2767 C2766 1.362 . S
H2768 C2774 0.930 . S
H2769 C2777 0.930 . S
H2770 C2778 0.930 . S
H2771 C2779 0.930 . S
H2772 C2782 0.930 . S
H2773 C2783 0.930 . S
C2774 H2768 0.930 . S
C2774 C2775 1.355 . S
C2774 C2776 1.415 . S
C2775 C2774 1.355 . S
C2775 C2777 1.419 . S
C2776 C2774 1.415 . S
C2776 C2781 1.425 . S
C2776 C2783 1.409 . S
C2777 H2769 0.930 . S
C2777 C2775 1.419 . S
C2777 C2778 1.362 . S
C2778 H2770 0.930 . S
C2778 C2777 1.362 . S
C2778 C2781 1.409 . S
C2779 H2771 0.930 . S
C2779 C2780 1.355 . S
C2779 C2781 1.415 . S
C2780 C2779 1.355 . S
C2780 C2782 1.419 . S
C2781 C2776 1.425 . S
C2781 C2778 1.409 . S
C2781 C2779 1.415 . S
C2782 H2772 0.930 . S
C2782 C2780 1.419 . S
C2782 C2783 1.362 . S
C2783 H2773 0.930 . S
C2783 C2776 1.409 . S
C2783 C2782 1.362 . S
H2784 C2790 0.930 . S
H2785 C2793 0.930 . S
H2786 C2794 0.930 . S
H2787 C2795 0.930 . S
H2788 C2798 0.930 . S
H2789 C2799 0.930 . S
C2790 H2784 0.930 . S
C2790 C2791 1.355 . S
C2790 C2792 1.415 . S
C2791 C2790 1.355 . S
C2791 C2793 1.419 1_655 S
C2792 C2790 1.415 . S
C2792 C2797 1.425 1_655 S
C2792 C2799 1.409 . S
C2793 H2785 0.930 . S
C2793 C2791 1.419 1_455 S
C2793 C2794 1.362 . S
C2794 H2786 0.930 . S
C2794 C2793 1.362 . S
C2794 C2797 1.409 . S
C2795 H2787 0.930 . S
C2795 C2796 1.355 . S
C2795 C2797 1.415 . S
C2796 C2795 1.355 . S
C2796 C2798 1.419 1_455 S
C2797 C2792 1.425 1_455 S
C2797 C2794 1.409 . S
C2797 C2795 1.415 . S
C2798 H2788 0.930 . S
C2798 C2796 1.419 1_655 S
C2798 C2799 1.362 . S
C2799 H2789 0.930 . S
C2799 C2792 1.409 . S
C2799 C2798 1.362 . S
H2800 C2806 0.930 . S
H2801 C2809 0.930 . S
H2802 C2810 0.930 . S
H2803 C2811 0.930 . S
H2804 C2814 0.930 . S
H2805 C2815 0.930 . S
C2806 H2800 0.930 . S
C2806 C2807 1.355 . S
C2806 C2808 1.415 . S
C2807 C2806 1.355 . S
C2807 C2809 1.419 . S
C2808 C2806 1.415 . S
C2808 C2813 1.425 . S
C2808 C2815 1.409 . S
C2809 H2801 0.930 . S
C2809 C2807 1.419 . S
C2809 C2810 1.362 . S
C2810 H2802 0.930 . S
C2810 C2809 1.362 . S
C2810 C2813 1.409 . S
C2811 H2803 0.930 . S
C2811 C2812 1.355 . S
C2811 C2813 1.415 . S
C2812 C2811 1.355 . S
C2812 C2814 1.419 . S
C2813 C2808 1.425 . S
C2813 C2810 1.409 . S
C2813 C2811 1.415 . S
C2814 H2804 0.930 . S
C2814 C2812 1.419 . S
C2814 C2815 1.362 . S
C2815 H2805 0.930 . S
C2815 C2808 1.409 . S
C2815 C2814 1.362 . S
H2816 C2822 0.930 1_565 S
H2817 C2825 0.930 . S
H2818 C2826 0.930 . S
H2819 C2827 0.930 . S
H2820 C2830 0.930 . S
H2821 C2831 0.930 . S
C2822 H2816 0.930 1_545 S
C2822 C2823 1.355 . S
C2822 C2824 1.415 1_545 S
C2823 C2822 1.355 . S
C2823 C2825 1.419 . S
C2824 C2822 1.415 1_565 S
C2824 C2829 1.428 1_565 S
C2824 C2831 1.406 . S
C2825 H2817 0.930 . S
C2825 C2823 1.419 . S
C2825 C2826 1.362 . S
C2826 H2818 0.930 . S
C2826 C2825 1.362 . S
C2826 C2829 1.409 . S
C2827 H2819 0.930 . S
C2827 C2828 1.355 1_545 S
C2827 C2829 1.415 . S
C2828 C2827 1.355 1_565 S
C2828 C2830 1.419 . S
C2829 C2824 1.428 1_545 S
C2829 C2826 1.409 . S
C2829 C2827 1.415 . S
C2830 H2820 0.930 . S
C2830 C2828 1.419 . S
C2830 C2831 1.362 . S
C2831 H2821 0.930 . S
C2831 C2824 1.406 . S
C2831 C2830 1.362 . S
H2832 C2838 0.930 . S
H2833 C2841 0.930 . S
H2834 C2842 0.930 . S
H2835 C2843 0.930 . S
H2836 C2846 0.930 . S
H2837 C2847 0.928 . S
C2838 H2832 0.930 . S
C2838 C2839 1.355 . S
C2838 C2840 1.415 1_545 S
C2839 C2838 1.355 . S
C2839 C2841 1.419 1_545 S
C2840 C2838 1.415 1_565 S
C2840 C2845 1.425 . S
C2840 C2847 1.416 1_565 S
C2841 H2833 0.930 . S
C2841 C2839 1.419 1_565 S
C2841 C2842 1.362 . S
C2842 H2834 0.930 . S
C2842 C2841 1.362 . S
C2842 C2845 1.409 . S
C2843 H2835 0.930 . S
C2843 C2844 1.355 . S
C2843 C2845 1.415 . S
C2844 C2843 1.355 . S
C2844 C2846 1.419 . S
C2845 C2840 1.425 . S
C2845 C2842 1.409 . S
C2845 C2843 1.415 . S
C2846 H2836 0.930 . S
C2846 C2844 1.419 . S
C2846 C2847 1.358 1_565 S
C2847 H2837 0.928 . S
C2847 C2840 1.416 1_545 S
C2847 C2846 1.358 1_545 S
H2848 C2854 0.930 . S
H2849 C2857 0.930 . S
H2850 C2858 0.928 . S
H2851 C2859 0.930 . S
H2852 C2862 0.930 . S
H2853 C2863 0.930 . S
C2854 H2848 0.930 . S
C2854 C2855 1.355 . S
C2854 C2856 1.415 . S
C2855 C2854 1.355 . S
C2855 C2857 1.419 . S
C2856 C2854 1.415 . S
C2856 C2861 1.425 . S
C2856 C2863 1.409 . S
C2857 H2849 0.930 . S
C2857 C2855 1.419 . S
C2857 C2858 1.363 1_455 S
C2858 H2850 0.928 . S
C2858 C2857 1.363 1_655 S
C2858 C2861 1.410 1_655 S
C2859 H2851 0.930 . S
C2859 C2860 1.355 . S
C2859 C2861 1.415 1_655 S
C2860 C2859 1.355 . S
C2860 C2862 1.419 1_655 S
C2861 C2856 1.425 . S
C2861 C2858 1.410 1_455 S
C2861 C2859 1.415 1_455 S
C2862 H2852 0.930 . S
C2862 C2860 1.419 1_455 S
C2862 C2863 1.362 . S
C2863 H2853 0.930 . S
C2863 C2856 1.409 . S
C2863 C2862 1.362 . S
H2864 C2870 0.930 . S
H2865 C2873 0.930 . S
H2866 C2874 0.930 . S
H2867 C2875 0.930 . S
H2868 C2878 0.930 . S
H2869 C2879 0.930 . S
C2870 H2864 0.930 . S
C2870 C2871 1.355 . S
C2870 C2872 1.415 . S
C2871 C2870 1.355 . S
C2871 C2873 1.419 . S
C2872 C2870 1.415 . S
C2872 C2877 1.425 . S
C2872 C2879 1.409 . S
C2873 H2865 0.930 . S
C2873 C2871 1.419 . S
C2873 C2874 1.362 . S
C2874 H2866 0.930 . S
C2874 C2873 1.362 . S
C2874 C2877 1.409 . S
C2875 H2867 0.930 . S
C2875 C2876 1.355 . S
C2875 C2877 1.415 . S
C2876 C2875 1.355 . S
C2876 C2878 1.419 . S
C2877 C2872 1.425 . S
C2877 C2874 1.409 . S
C2877 C2875 1.415 . S
C2878 H2868 0.930 . S
C2878 C2876 1.419 . S
C2878 C2879 1.362 . S
C2879 H2869 0.930 . S
C2879 C2872 1.409 . S
C2879 C2878 1.362 . S
H2880 C2886 0.930 . S
H2881 C2889 0.930 . S
H2882 C2890 0.930 . S
H2883 C2891 0.930 . S
H2884 C2894 0.930 . S
H2885 C2895 0.930 . S
C2886 H2880 0.930 . S
C2886 C2887 1.355 . S
C2886 C2888 1.415 . S
C2887 C2886 1.355 . S
C2887 C2889 1.419 . S
C2888 C2886 1.415 . S
C2888 C2893 1.425 . S
C2888 C2895 1.409 . S
C2889 H2881 0.930 . S
C2889 C2887 1.419 . S
C2889 C2890 1.362 . S
C2890 H2882 0.930 . S
C2890 C2889 1.362 . S
C2890 C2893 1.409 . S
C2891 H2883 0.930 . S
C2891 C2892 1.355 . S
C2891 C2893 1.415 1_455 S
C2892 C2891 1.355 . S
C2892 C2894 1.419 1_455 S
C2893 C2888 1.425 . S
C2893 C2890 1.409 . S
C2893 C2891 1.415 1_655 S
C2894 H2884 0.930 . S
C2894 C2892 1.419 1_655 S
C2894 C2895 1.362 . S
C2895 H2885 0.930 . S
C2895 C2888 1.409 . S
C2895 C2894 1.362 . S
H2896 C2902 0.930 . S
H2897 C2905 0.930 . S
H2898 C2906 0.930 . S
H2899 C2907 0.930 . S
H2900 C2910 0.930 . S
H2901 C2911 0.930 . S
C2902 H2896 0.930 . S
C2902 C2903 1.355 . S
C2902 C2904 1.415 . S
C2903 C2902 1.355 . S
C2903 C2905 1.419 . S
C2904 C2902 1.415 . S
C2904 C2909 1.425 . S
C2904 C2911 1.409 . S
C2905 H2897 0.930 . S
C2905 C2903 1.419 . S
C2905 C2906 1.362 . S
C2906 H2898 0.930 . S
C2906 C2905 1.362 . S
C2906 C2909 1.409 . S
C2907 H2899 0.930 . S
C2907 C2908 1.355 . S
C2907 C2909 1.415 . S
C2908 C2907 1.355 . S
C2908 C2910 1.419 . S
C2909 C2904 1.425 . S
C2909 C2906 1.409 . S
C2909 C2907 1.415 . S
C2910 H2900 0.930 . S
C2910 C2908 1.419 . S
C2910 C2911 1.362 . S
C2911 H2901 0.930 . S
C2911 C2904 1.409 . S
C2911 C2910 1.362 . S
H2912 C2918 0.930 . S
H2913 C2921 0.930 . S
H2914 C2922 0.930 . S
H2915 C2923 0.930 . S
H2916 C2926 0.930 1_565 S
H2917 C2927 0.930 . S
C2918 H2912 0.930 . S
C2918 C2919 1.355 . S
C2918 C2920 1.415 . S
C2919 C2918 1.355 . S
C2919 C2921 1.419 . S
C2920 C2918 1.415 . S
C2920 C2925 1.425 . S
C2920 C2927 1.409 . S
C2921 H2913 0.930 . S
C2921 C2919 1.419 . S
C2921 C2922 1.362 . S
C2922 H2914 0.930 . S
C2922 C2921 1.362 . S
C2922 C2925 1.409 . S
C2923 H2915 0.930 . S
C2923 C2924 1.355 1_545 S
C2923 C2925 1.415 . S
C2924 C2923 1.355 1_565 S
C2924 C2926 1.419 1_565 S
C2925 C2920 1.425 . S
C2925 C2922 1.409 . S
C2925 C2923 1.415 . S
C2926 H2916 0.930 1_545 S
C2926 C2924 1.419 1_545 S
C2926 C2927 1.362 . S
C2927 H2917 0.930 . S
C2927 C2920 1.409 . S
C2927 C2926 1.362 . S
H2928 C2934 0.930 . S
H2929 C2937 0.930 . S
H2930 C2938 0.925 . S
H2931 C2939 0.930 . S
H2932 C2942 0.930 . S
H2933 C2943 0.930 . S
C2934 H2928 0.930 . S
C2934 C2935 1.355 1_455 S
C2934 C2936 1.415 . S
C2935 C2934 1.355 1_655 S
C2935 C2937 1.419 . S
C2936 C2934 1.415 . S
C2936 C2941 1.425 . S
C2936 C2943 1.409 . S
C2937 H2929 0.930 . S
C2937 C2935 1.419 . S
C2937 C2938 1.362 1_655 S
C2938 H2930 0.925 . S
C2938 C2937 1.362 1_455 S
C2938 C2941 1.409 . S
C2939 H2931 0.930 . S
C2939 C2940 1.355 . S
C2939 C2941 1.415 . S
C2940 C2939 1.355 . S
C2940 C2942 1.419 . S
C2941 C2936 1.425 . S
C2941 C2938 1.409 . S
C2941 C2939 1.415 . S
C2942 H2932 0.930 . S
C2942 C2940 1.419 . S
C2942 C2943 1.362 . S
C2943 H2933 0.930 . S
C2943 C2936 1.409 . S
C2943 C2942 1.362 . S
H2944 C2950 0.930 . S
H2945 C2953 0.930 . S
H2946 C2954 0.930 . S
H2947 C2955 0.930 . S
H2948 C2958 0.930 . S
H2949 C2959 0.930 . S
C2950 H2944 0.930 . S
C2950 C2951 1.355 . S
C2950 C2952 1.415 . S
C2951 C2950 1.355 . S
C2951 C2953 1.419 . S
C2952 C2950 1.415 . S
C2952 C2957 1.425 . S
C2952 C2959 1.409 . S
C2953 H2945 0.930 . S
C2953 C2951 1.419 . S
C2953 C2954 1.362 . S
C2954 H2946 0.930 . S
C2954 C2953 1.362 . S
C2954 C2957 1.409 . S
C2955 H2947 0.930 . S
C2955 C2956 1.355 . S
C2955 C2957 1.415 . S
C2956 C2955 1.355 . S
C2956 C2958 1.419 . S
C2957 C2952 1.425 . S
C2957 C2954 1.409 . S
C2957 C2955 1.415 . S
C2958 H2948 0.930 . S
C2958 C2956 1.419 . S
C2958 C2959 1.362 . S
C2959 H2949 0.930 . S
C2959 C2952 1.409 . S
C2959 C2958 1.362 . S
H2960 C2966 0.930 1_545 S
H2961 C2969 0.930 1_545 S
H2962 C2970 0.930 . S
H2963 C2971 0.930 . S
H2964 C2974 0.930 . S
H2965 C2975 0.930 . S
C2966 H2960 0.930 1_565 S
C2966 C2967 1.355 1_565 S
C2966 C2968 1.415 . S
C2967 C2966 1.355 1_545 S
C2967 C2969 1.419 1_545 S
C2968 C2966 1.415 . S
C2968 C2973 1.425 . S
C2968 C2975 1.409 . S
C2969 H2961 0.930 1_565 S
C2969 C2967 1.419 1_565 S
C2969 C2970 1.362 . S
C2970 H2962 0.930 . S
C2970 C2969 1.362 . S
C2970 C2973 1.409 . S
C2971 H2963 0.930 . S
C2971 C2972 1.355 . S
C2971 C2973 1.415 . S
C2972 C2971 1.355 . S
C2972 C2974 1.419 . S
C2973 C2968 1.425 . S
C2973 C2970 1.409 . S
C2973 C2971 1.415 . S
C2974 H2964 0.930 . S
C2974 C2972 1.419 . S
C2974 C2975 1.362 . S
C2975 H2965 0.930 . S
C2975 C2968 1.409 . S
C2975 C2974 1.362 . S
H2976 C2982 0.930 . S
H2977 C2985 0.930 . S
H2978 C2986 0.930 . S
H2979 C2987 0.930 . S
H2980 C2990 0.930 . S
H2981 C2991 0.930 . S
C2982 H2976 0.930 . S
C2982 C2983 1.355 . S
C2982 C2984 1.415 . S
C2983 C2982 1.355 . S
C2983 C2985 1.419 . S
C2984 C2982 1.415 . S
C2984 C2989 1.425 . S
C2984 C2991 1.409 . S
C2985 H2977 0.930 . S
C2985 C2983 1.419 . S
C2985 C2986 1.362 . S
C2986 H2978 0.930 . S
C2986 C2985 1.362 . S
C2986 C2989 1.409 . S
C2987 H2979 0.930 . S
C2987 C2988 1.355 . S
C2987 C2989 1.415 . S
C2988 C2987 1.355 . S
C2988 C2990 1.419 . S
C2989 C2984 1.425 . S
C2989 C2986 1.409 . S
C2989 C2987 1.415 . S
C2990 H2980 0.930 . S
C2990 C2988 1.419 . S
C2990 C2991 1.362 . S
C2991 H2981 0.930 . S
C2991 C2984 1.409 . S
C2991 C2990 1.362 . S
H2992 C2998 0.930 . S
H2993 C3001 0.930 . S
H2994 C3002 0.930 . S
H2995 C3003 0.930 . S
H2996 C3006 0.930 . S
H2997 C3007 0.930 . S
C2998 H2992 0.930 . S
C2998 C2999 1.355 . S
C2998 C3000 1.415 . S
C2999 C2998 1.355 . S
C2999 C3001 1.419 . S
C3000 C2998 1.415 . S
C3000 C3005 1.425 . S
C3000 C3007 1.409 . S
C3001 H2993 0.930 . S
C3001 C2999 1.419 . S
C3001 C3002 1.362 . S
C3002 H2994 0.930 . S
C3002 C3001 1.362 . S
C3002 C3005 1.409 . S
C3003 H2995 0.930 . S
C3003 C3004 1.355 . S
C3003 C3005 1.415 . S
C3004 C3003 1.355 . S
C3004 C3006 1.419 . S
C3005 C3000 1.425 . S
C3005 C3002 1.409 . S
C3005 C3003 1.415 . S
C3006 H2996 0.930 . S
C3006 C3004 1.419 . S
C3006 C3007 1.362 . S
C3007 H2997 0.930 . S
C3007 C3000 1.409 . S
C3007 C3006 1.362 . S
H3008 C3014 0.930 . S
H3009 C3017 0.930 . S
H3010 C3018 0.930 . S
H3011 C3019 0.930 . S
H3012 C3022 0.930 . S
H3013 C3023 0.930 . S
C3014 H3008 0.930 . S
C3014 C3015 1.355 . S
C3014 C3016 1.415 . S
C3015 C3014 1.355 . S
C3015 C3017 1.419 . S
C3016 C3014 1.415 . S
C3016 C3021 1.425 . S
C3016 C3023 1.409 . S
C3017 H3009 0.930 . S
C3017 C3015 1.419 . S
C3017 C3018 1.362 . S
C3018 H3010 0.930 . S
C3018 C3017 1.362 . S
C3018 C3021 1.409 . S
C3019 H3011 0.930 . S
C3019 C3020 1.355 . S
C3019 C3021 1.415 . S
C3020 C3019 1.355 . S
C3020 C3022 1.419 . S
C3021 C3016 1.425 . S
C3021 C3018 1.409 . S
C3021 C3019 1.415 . S
C3022 H3012 0.930 . S
C3022 C3020 1.419 . S
C3022 C3023 1.362 . S
C3023 H3013 0.930 . S
C3023 C3016 1.409 . S
C3023 C3022 1.362 . S
H3024 C3030 0.930 . S
H3025 C3033 0.930 . S
H3026 C3034 0.930 . S
H3027 C3035 0.930 . S
H3028 C3038 0.930 . S
H3029 C3039 0.930 . S
C3030 H3024 0.930 . S
C3030 C3031 1.355 . S
C3030 C3032 1.415 . S
C3031 C3030 1.355 . S
C3031 C3033 1.419 . S
C3032 C3030 1.415 . S
C3032 C3037 1.425 . S
C3032 C3039 1.409 . S
C3033 H3025 0.930 . S
C3033 C3031 1.419 . S
C3033 C3034 1.362 . S
C3034 H3026 0.930 . S
C3034 C3033 1.362 . S
C3034 C3037 1.409 . S
C3035 H3027 0.930 . S
C3035 C3036 1.355 . S
C3035 C3037 1.415 . S
C3036 C3035 1.355 . S
C3036 C3038 1.419 . S
C3037 C3032 1.425 . S
C3037 C3034 1.409 . S
C3037 C3035 1.415 . S
C3038 H3028 0.930 . S
C3038 C3036 1.419 . S
C3038 C3039 1.362 . S
C3039 H3029 0.930 . S
C3039 C3032 1.409 . S
C3039 C3038 1.362 . S
H3040 C3046 0.930 . S
H3041 C3049 0.930 . S
H3042 C3050 0.930 . S
H3043 C3051 0.930 . S
H3044 C3054 0.930 . S
H3045 C3055 0.930 . S
C3046 H3040 0.930 . S
C3046 C3047 1.355 . S
C3046 C3048 1.415 . S
C3047 C3046 1.355 . S
C3047 C3049 1.419 . S
C3048 C3046 1.415 . S
C3048 C3053 1.425 . S
C3048 C3055 1.409 . S
C3049 H3041 0.930 . S
C3049 C3047 1.419 . S
C3049 C3050 1.362 . S
C3050 H3042 0.930 . S
C3050 C3049 1.362 . S
C3050 C3053 1.409 . S
C3051 H3043 0.930 . S
C3051 C3052 1.355 . S
C3051 C3053 1.415 . S
C3052 C3051 1.355 . S
C3052 C3054 1.419 . S
C3053 C3048 1.425 . S
C3053 C3050 1.409 . S
C3053 C3051 1.415 . S
C3054 H3044 0.930 . S
C3054 C3052 1.419 . S
C3054 C3055 1.362 . S
C3055 H3045 0.930 . S
C3055 C3048 1.409 . S
C3055 C3054 1.362 . S
H3056 C3062 0.930 . S
H3057 C3065 0.930 . S
H3058 C3066 0.930 . S
H3059 C3067 0.930 . S
H3060 C3070 0.930 . S
H3061 C3071 0.930 . S
C3062 H3056 0.930 . S
C3062 C3063 1.355 . S
C3062 C3064 1.415 . S
C3063 C3062 1.355 . S
C3063 C3065 1.419 . S
C3064 C3062 1.415 . S
C3064 C3069 1.425 . S
C3064 C3071 1.409 . S
C3065 H3057 0.930 . S
C3065 C3063 1.419 . S
C3065 C3066 1.362 . S
C3066 H3058 0.930 . S
C3066 C3065 1.362 . S
C3066 C3069 1.409 . S
C3067 H3059 0.930 . S
C3067 C3068 1.355 . S
C3067 C3069 1.415 . S
C3068 C3067 1.355 . S
C3068 C3070 1.419 . S
C3069 C3064 1.425 . S
C3069 C3066 1.409 . S
C3069 C3067 1.415 . S
C3070 H3060 0.930 . S
C3070 C3068 1.419 . S
C3070 C3071 1.362 . S
C3071 H3061 0.930 . S
C3071 C3064 1.409 . S
C3071 C3070 1.362 . S
H3072 C3078 0.930 . S
H3073 C3081 0.930 . S
H3074 C3082 0.930 . S
H3075 C3083 0.930 . S
H3076 C3086 0.930 . S
H3077 C3087 0.930 . S
C3078 H3072 0.930 . S
C3078 C3079 1.355 . S
C3078 C3080 1.415 . S
C3079 C3078 1.355 . S
C3079 C3081 1.419 . S
C3080 C3078 1.415 . S
C3080 C3085 1.425 . S
C3080 C3087 1.409 . S
C3081 H3073 0.930 . S
C3081 C3079 1.419 . S
C3081 C3082 1.362 . S
C3082 H3074 0.930 . S
C3082 C3081 1.362 . S
C3082 C3085 1.409 . S
C3083 H3075 0.930 . S
C3083 C3084 1.355 . S
C3083 C3085 1.415 . S
C3084 C3083 1.355 . S
C3084 C3086 1.419 . S
C3085 C3080 1.425 . S
C3085 C3082 1.409 . S
C3085 C3083 1.415 . S
C3086 H3076 0.930 . S
C3086 C3084 1.419 . S
C3086 C3087 1.362 . S
C3087 H3077 0.930 . S
C3087 C3080 1.409 . S
C3087 C3086 1.362 . S
H3088 C3094 0.930 . S
H3089 C3097 0.930 . S
H3090 C3098 0.930 . S
H3091 C3099 0.930 . S
H3092 C3102 0.930 . S
H3093 C3103 0.930 . S
C3094 H3088 0.930 . S
C3094 C3095 1.355 . S
C3094 C3096 1.415 . S
C3095 C3094 1.355 . S
C3095 C3097 1.419 . S
C3096 C3094 1.415 . S
C3096 C3101 1.425 . S
C3096 C3103 1.409 . S
C3097 H3089 0.930 . S
C3097 C3095 1.419 . S
C3097 C3098 1.362 . S
C3098 H3090 0.930 . S
C3098 C3097 1.362 . S
C3098 C3101 1.409 . S
C3099 H3091 0.930 . S
C3099 C3100 1.355 . S
C3099 C3101 1.415 . S
C3100 C3099 1.355 . S
C3100 C3102 1.419 . S
C3101 C3096 1.425 . S
C3101 C3098 1.409 . S
C3101 C3099 1.415 . S
C3102 H3092 0.930 . S
C3102 C3100 1.419 . S
C3102 C3103 1.362 . S
C3103 H3093 0.930 . S
C3103 C3096 1.409 . S
C3103 C3102 1.362 . S
H3104 C3110 0.930 . S
H3105 C3113 0.930 . S
H3106 C3114 0.930 . S
H3107 C3115 0.930 . S
H3108 C3118 0.930 . S
H3109 C3119 0.930 . S
C3110 H3104 0.930 . S
C3110 C3111 1.355 . S
C3110 C3112 1.415 . S
C3111 C3110 1.355 . S
C3111 C3113 1.419 . S
C3112 C3110 1.415 . S
C3112 C3117 1.425 . S
C3112 C3119 1.409 . S
C3113 H3105 0.930 . S
C3113 C3111 1.419 . S
C3113 C3114 1.362 . S
C3114 H3106 0.930 . S
C3114 C3113 1.362 . S
C3114 C3117 1.409 . S
C3115 H3107 0.930 . S
C3115 C3116 1.355 . S
C3115 C3117 1.415 . S
C3116 C3115 1.355 . S
C3116 C3118 1.419 . S
C3117 C3112 1.425 . S
C3117 C3114 1.409 . S
C3117 C3115 1.415 . S
C3118 H3108 0.930 . S
C3118 C3116 1.419 . S
C3118 C3119 1.362 . S
C3119 H3109 0.930 . S
C3119 C3112 1.409 . S
C3119 C3118 1.362 . S
H3120 C3126 0.930 . S
H3121 C3129 0.930 . S
H3122 C3130 0.930 . S
H3123 C3131 0.930 . S
H3124 C3134 0.930 . S
H3125 C3135 0.930 . S
C3126 H3120 0.930 . S
C3126 C3127 1.355 . S
C3126 C3128 1.415 . S
C3127 C3126 1.355 . S
C3127 C3129 1.419 . S
C3128 C3126 1.415 . S
C3128 C3133 1.425 . S
C3128 C3135 1.409 . S
C3129 H3121 0.930 . S
C3129 C3127 1.419 . S
C3129 C3130 1.362 . S
C3130 H3122 0.930 . S
C3130 C3129 1.362 . S
C3130 C3133 1.409 . S
C3131 H3123 0.930 . S
C3131 C3132 1.355 . S
C3131 C3133 1.415 . S
C3132 C3131 1.355 . S
C3132 C3134 1.419 . S
C3133 C3128 1.425 . S
C3133 C3130 1.409 . S
C3133 C3131 1.415 . S
C3134 H3124 0.930 . S
C3134 C3132 1.419 . S
C3134 C3135 1.362 . S
C3135 H3125 0.930 . S
C3135 C3128 1.409 . S
C3135 C3134 1.362 . S
H3136 C3142 0.930 . S
H3137 C3145 0.930 . S
H3138 C3146 0.930 . S
H3139 C3147 0.930 . S
H3140 C3150 0.930 . S
H3141 C3151 0.930 . S
C3142 H3136 0.930 . S
C3142 C3143 1.355 . S
C3142 C3144 1.415 . S
C3143 C3142 1.355 . S
C3143 C3145 1.419 . S
C3144 C3142 1.415 . S
C3144 C3149 1.425 . S
C3144 C3151 1.409 . S
C3145 H3137 0.930 . S
C3145 C3143 1.419 . S
C3145 C3146 1.362 . S
C3146 H3138 0.930 . S
C3146 C3145 1.362 . S
C3146 C3149 1.409 . S
C3147 H3139 0.930 . S
C3147 C3148 1.355 . S
C3147 C3149 1.415 . S
C3148 C3147 1.355 . S
C3148 C3150 1.419 . S
C3149 C3144 1.425 . S
C3149 C3146 1.409 . S
C3149 C3147 1.415 . S
C3150 H3140 0.930 . S
C3150 C3148 1.419 . S
C3150 C3151 1.362 . S
C3151 H3141 0.930 . S
C3151 C3144 1.409 . S
C3151 C3150 1.362 . S
H3152 C3158 0.930 . S
H3153 C3161 0.930 . S
H3154 C3162 0.930 . S
H3155 C3163 0.930 . S
H3156 C3166 0.930 . S
H3157 C3167 0.930 . S
C3158 H3152 0.930 . S
C3158 C3159 1.355 . S
C3158 C3160 1.415 . S
C3159 C3158 1.355 . S
C3159 C3161 1.419 . S
C3160 C3158 1.415 . S
C3160 C3165 1.425 . S
C3160 C3167 1.409 . S
C3161 H3153 0.930 . S
C3161 C3159 1.419 . S
C3161 C3162 1.362 . S
C3162 H3154 0.930 . S
C3162 C3161 1.362 . S
C3162 C3165 1.409 . S
C3163 H3155 0.930 . S
C3163 C3164 1.355 . S
C3163 C3165 1.415 . S
C3164 C3163 1.355 . S
C3164 C3166 1.419 . S
C3165 C3160 1.425 . S
C3165 C3162 1.409 . S
C3165 C3163 1.415 . S
C3166 H3156 0.930 . S
C3166 C3164 1.419 . S
C3166 C3167 1.362 . S
C3167 H3157 0.930 . S
C3167 C3160 1.409 . S
C3167 C3166 1.362 . S
C1447 C2 2.463 . S
C1452 C104 2.532 1_545 S
C1463 C24 2.528 1_655 S
C1468 C42 2.481 1_545 S
C1479 C82 2.455 1_655 S
C1484 C64 2.532 . S
C1495 C143 0.901 . S
C1500 C186 0.884 . S
C1511 C226 0.972 . S
C1516 C183 0.973 . S
C1527 C223 0.885 . S
C1532 C146 0.874 . S
C1543 C263 2.485 . S
C1548 C333 2.524 1_565 S
C1559 C303 2.475 1_565 S
C1564 C253 2.529 1_455 S
C1575 C343 2.465 1_455 S
C1580 C293 2.529 . S
C1591 C362 0.910 . S
C1596 C417 0.909 . S
C1607 C457 0.969 . S
C1612 C402 0.971 . S
C1623 C377 0.875 . S
C1628 C442 0.892 . S
C1639 C584 2.635 . S
C1644 C482 2.561 . S
C1655 C522 2.577 . S
C1660 C504 2.632 . S
C1671 C544 2.636 . S
C1676 C562 2.555 . S
C1687 C623 0.933 . S
C1692 C666 0.915 . S
C1703 C706 0.959 . S
C1708 C663 0.972 . S
C1719 C626 0.931 . S
C1724 C703 0.935 . S
C1735 C743 2.527 . S
C1740 C813 2.595 . S
C1751 C783 2.516 . S
C1756 C733 2.598 . S
C1767 C773 2.594 . S
C1772 C823 2.525 . S
C1783 C897 0.810 . S
C1788 C842 0.804 . S
C1799 C882 0.666 . S
C1804 C937 0.663 . S
C1815 C857 0.728 . S
C1820 C922 0.715 1_556 S
C1831 C962 2.520 . S
C1836 C1064 2.597 . S
C1847 C1002 2.553 . S
C1852 C984 2.587 . S
C1863 C1042 2.553 . S
C1868 C1024 2.586 . S
C1879 C1103 0.734 . S
C1884 C1146 0.728 . S
C1895 C1143 0.803 . S
C1900 C1186 0.809 . S
C1911 C1183 0.666 . S
C1916 C1106 0.662 . S
C1927 C1223 2.558 . S
C1932 C1293 2.635 . S
C1943 C1263 2.555 . S
C1948 C1213 2.636 . S
C1959 C1253 2.635 . S
C1964 C1303 2.566 . S
C1975 C1322 0.962 . S
C1980 C1377 0.964 . S
C1991 C1362 0.934 . S
C1996 C1417 0.916 . S
C2007 C1337 0.989 . S
C2012 C1402 0.984 . S
C2023 C13 3.179 . S
C2028 C802 3.162 . S
C2039 C722 3.167 . S
C2044 C53 3.200 . S
C2055 C93 3.179 . S
C2060 C762 3.162 1_455 S
C2071 C137 0.482 . S
C2076 C1383 0.442 . S
C2087 C1423 0.537 . S
C2092 C177 0.665 . S
C2103 C217 0.639 . S
C2108 C1343 0.334 . S
C2119 C1063 3.147 . S
C2124 C264 3.207 . S
C2135 C304 3.180 . S
C2140 C983 3.140 1_545 S
C2151 C344 3.179 . S
C2156 C1023 3.160 1_655 S
C2167 C642 0.453 . S
C2172 C386 0.484 . S
C2183 C682 0.333 . S
C2188 C426 0.621 . S
C2199 C602 0.469 . S
C2204 C466 0.490 . S
C2215 C493 3.140 . S
C2220 C1282 3.118 . S
C2231 C533 3.164 . S
C2236 C1202 3.095 . S
C2247 C1242 3.102 . S
C2252 C573 3.162 . S
C2263 C423 0.555 . S
C2268 C617 0.709 . S
C2279 C463 0.568 . S
C2284 C657 0.661 . S
C2295 C383 0.390 . S
C2300 C697 0.661 . S
C2311 C103 3.181 . S
C2316 C744 3.185 . S
C2327 C784 3.183 . S
C2332 C23 3.163 . S
C2343 C824 3.210 . S
C2348 C63 3.154 . S
C2359 C1122 0.452 . S
C2364 C866 0.588 . S
C2375 C1162 0.395 . S
C2380 C906 0.742 . S
C2391 C946 0.513 . S
C2396 C1082 0.429 . S
C2407 C322 3.158 . S
C2412 C973 3.210 1_545 S
C2423 C242 3.170 . S
C2428 C1013 3.206 1_655 S
C2439 C282 3.172 . S
C2444 C1053 3.181 . S
C2455 C1097 0.477 . S
C2460 C903 0.390 . S
C2471 C943 0.391 . S
C2476 C1137 0.744 . S
C2487 C1177 0.512 . S
C2492 C863 0.429 . S
C2503 C1224 3.134 . S
C2508 C583 3.104 . S
C2519 C1264 3.164 . S
C2524 C503 3.092 . S
C2535 C1304 3.162 . S
C2540 C543 3.086 . S
C2551 C1346 0.501 . S
C2556 C162 0.520 . S
C2567 C202 0.522 . S
C2572 C1386 0.504 . S
C2583 C122 0.405 . S
C2588 C1426 0.699 . S
C2599 C1184 1.844 . S
C2604 C26 1.780 . S
C2615 C1104 1.864 . S
C2620 C66 1.792 . S
C2631 C106 1.777 . S
C2636 C1144 1.839 . S
C2647 C546 2.328 . S
C2652 C144 2.366 . S
C2663 C184 2.355 . S
C2668 C586 2.328 . S
C2679 C224 2.367 . S
C2684 C506 2.320 . S
C2695 C257 1.831 . S
C2700 C933 1.851 . S
C2711 C297 1.817 . S
C2716 C853 1.855 . S
C2727 C337 1.778 . S
C2732 C893 1.844 . S
C2743 C1257 2.318 . S
C2748 C373 2.353 . S
C2759 C1297 2.323 . S
C2764 C413 2.353 . S
C2775 C1217 2.301 . S
C2780 C453 2.355 . S
C2791 C624 2.472 . S
C2796 C1026 2.430 . S
C2807 C664 2.468 . S
C2812 C1066 2.408 . S
C2823 C704 2.464 . S
C2828 C986 2.441 . S
C2839 C737 2.439 . S
C2844 C1413 2.470 . S
C2855 C1333 2.466 . S
C2860 C777 2.442 . S
C2871 C817 2.437 . S
C2876 C1373 2.470 . S
C2887 C173 1.456 . S
C2892 C17 1.409 . S
C2903 C213 1.496 . S
C2908 C57 1.439 . S
C2919 C133 1.499 . S
C2924 C97 1.484 . S
C2935 C266 1.449 . S
C2940 C424 1.504 . S
C2951 C464 1.501 . S
C2956 C306 1.446 . S
C2967 C346 1.415 . S
C2972 C384 1.474 . S
C2983 C653 1.650 . S
C2988 C497 1.628 . S
C2999 C693 1.616 . S
C3004 C537 1.596 . S
C3015 C613 1.635 . S
C3020 C577 1.579 . S
C3031 C904 1.993 . S
C3036 C746 1.963 . S
C3047 C786 1.962 . S
C3052 C944 2.022 . S
C3063 C826 1.948 . S
C3068 C864 2.008 . S
C3079 C977 1.994 . S
C3084 C1133 2.020 . S
C3095 C1173 2.002 . S
C3100 C1017 1.958 . S
C3111 C1057 1.989 . S
C3116 C1093 2.013 . S
C3127 C1226 1.621 . S
C3132 C1384 1.638 . S
C3143 C1424 1.601 . S
C3148 C1266 1.563 . S
C3159 C1306 1.568 . S
C3164 C1344 1.625 . S
