# Generated by pormake.
# Topology ilc, (8)-cn, num edge types: 1
# Building blocks:
#     Node 0, Type 0, BuildingBlock: EYACOX_clean_sbu_0, # of connection points: 8
#     Node 1, Type 0, BuildingBlock: EYACOX_clean_sbu_0, # of connection points: 8
#     Node 2, Type 0, BuildingBlock: EYACOX_clean_sbu_0, # of connection points: 8
#     Edge 3, Type (0, 0), BuildingBlock: MIFKUJ_clean_linker_0, # of connection points: 2
#     Edge 4, Type (0, 0), BuildingBlock: MIFKUJ_clean_linker_0, # of connection points: 2
#     Edge 5, Type (0, 0), BuildingBlock: MIFKUJ_clean_linker_0, # of connection points: 2
#     Edge 6, Type (0, 0), BuildingBlock: MIFKUJ_clean_linker_0, # of connection points: 2
#     Edge 7, Type (0, 0), BuildingBlock: MIFKUJ_clean_linker_0, # of connection points: 2
#     Edge 8, Type (0, 0), BuildingBlock: MIFKUJ_clean_linker_0, # of connection points: 2
#     Edge 9, Type (0, 0), BuildingBlock: MIFKUJ_clean_linker_0, # of connection points: 2
#     Edge 10, Type (0, 0), BuildingBlock: MIFKUJ_clean_linker_0, # of connection points: 2
#     Edge 11, Type (0, 0), BuildingBlock: MIFKUJ_clean_linker_0, # of connection points: 2
#     Edge 12, Type (0, 0), BuildingBlock: MIFKUJ_clean_linker_0, # of connection points: 2
#     Edge 13, Type (0, 0), BuildingBlock: MIFKUJ_clean_linker_0, # of connection points: 2
#     Edge 14, Type (0, 0), BuildingBlock: MIFKUJ_clean_linker_0, # of connection points: 2
# Relax obj value: 0.090
# Max RMSD: 0.168
# Mean RMSD: 0.168
data_MOF--net-ilc--node1-EYACOX_clean_sbu_0--edge1-MIFKUJ_clean_linker_0
_symmetry_space_group_name_H-M    P1
_symmetry_Int_Tables_number       1
_symmetry_cell_setting            triclinic
loop_
_symmetry_equiv_pos_as_xyz
'x, y, z'
_cell_length_a     32.713541
_cell_length_b     27.748074
_cell_length_c     24.289222
_cell_angle_alpha  84.472047
_cell_angle_beta   118.09139
_cell_angle_gamma 128.97981
loop_
_atom_site_label
_atom_site_type_symbol
_atom_site_fract_x
_atom_site_fract_y
_atom_site_fract_z
_atom_type_partial_charge
Eu0 Eu 0.96159 0.94816 0.00122 0.0
Eu1 Eu 0.08064 0.02789 0.97516 0.0
O2 O 0.87965 0.85777 0.99617 0.0
O3 O 0.90898 0.94856 0.03254 0.0
O4 O 0.99384 0.93747 0.89211 0.0
O5 O 0.95054 0.87516 0.94878 0.0
O6 O 0.93359 0.97837 0.90998 0.0
O7 O 1.02999 0.06316 0.92624 0.0
C8 C 0.86917 0.86739 0.0831 0.0
C9 C 0.86604 0.83392 0.19424 0.0
C10 C 0.81735 0.82841 0.14405 0.0
C11 C 0.81867 0.84492 0.08778 0.0
C12 C 0.91908 0.86196 0.19297 0.0
C13 C 0.91991 0.87737 0.13665 0.0
C14 C 0.87244 0.88648 0.02543 0.0
C15 C 0.96104 0.88094 0.90183 0.0
O16 O 0.15732 0.11348 0.96821 0.0
O17 O 0.12877 0.02061 0.9419 0.0
C18 C 0.97042 0.03108 0.89709 0.0
O19 O 0.12411 0.08827 0.07331 0.0
O20 O 1.03568 0.04837 0.0702 0.0
O21 O 0.09131 0.96834 0.04134 0.0
O22 O 1.03197 0.94581 0.08268 0.0
C23 C 0.16247 0.09207 0.8807 0.0
C24 C 0.11014 0.09355 0.7696 0.0
C25 C 0.11257 0.08443 0.82841 0.0
C26 C 0.15769 0.11034 0.76332 0.0
C27 C 0.20455 0.11234 0.81186 0.0
C28 C 0.2081 0.1049 0.87191 0.0
C29 C 0.16323 0.08097 0.94193 0.0
C30 C 0.09604 0.0904 0.09665 0.0
C31 C 0.07264 0.94654 0.08265 0.0
H32 H 0.86659 0.82538 0.23908 0.0
H33 H 0.7819 0.84234 0.04913 0.0
H34 H 0.96142 0.90075 0.13606 0.0
H35 H 0.07464 0.06906 0.83259 0.0
H36 H 0.15452 0.11499 0.71684 0.0
H37 H 0.24418 0.10632 0.91017 0.0
Eu38 Eu 0.64596 0.30807 0.34333 0.0
Eu39 Eu 0.77304 0.39152 0.32796 0.0
O40 O 0.59477 0.31062 0.37563 0.0
O41 O 0.55699 0.21904 0.32701 0.0
O42 O 0.68442 0.31615 0.23476 0.0
O43 O 0.62565 0.23918 0.27251 0.0
O44 O 0.63477 0.35965 0.26664 0.0
O45 O 0.73615 0.44275 0.29479 0.0
C46 C 0.54791 0.22256 0.4168 0.0
C47 C 0.5461 0.17991 0.52545 0.0
C48 C 0.5029 0.18628 0.48505 0.0
C49 C 0.5026 0.206 0.42887 0.0
C50 C 0.5945 0.20245 0.51752 0.0
C51 C 0.59438 0.22225 0.46258 0.0
C52 C 0.55325 0.2477 0.36165 0.0
C53 C 0.64133 0.25554 0.22899 0.0
O54 O 0.82233 0.38161 0.29985 0.0
O55 O 0.85166 0.47571 0.3219 0.0
C56 C 0.6776 0.41571 0.26294 0.0
O57 O 0.81649 0.4402 0.43116 0.0
O58 O 0.72855 0.39092 0.43492 0.0
O59 O 0.77666 0.32497 0.38883 0.0
O60 O 0.70013 0.28183 0.41122 0.0
C61 C 0.86276 0.45166 0.24099 0.0
C62 C 0.81085 0.43173 0.12308 0.0
C63 C 0.80822 0.42394 0.1795 0.0
C64 C 0.86804 0.46894 0.12863 0.0
C65 C 0.92124 0.4903 0.18712 0.0
C66 C 0.9192 0.48277 0.2444 0.0
C67 C 0.85876 0.44182 0.29999 0.0
C68 C 0.78906 0.43161 0.46153 0.0
C69 C 0.74726 0.29073 0.41909 0.0
H70 H 0.54783 0.16673 0.56943 0.0
H71 H 0.47008 0.21187 0.3972 0.0
H72 H 0.63335 0.24229 0.45824 0.0
H73 H 0.76373 0.39412 0.1753 0.0
H74 H 0.86946 0.47345 0.08477 0.0
H75 H 0.9602 0.49921 0.29043 0.0
Eu76 Eu 0.32246 0.64978 0.68672 0.0
Eu77 Eu 0.4353 0.7158 0.65083 0.0
O78 O 0.25389 0.64907 0.68285 0.0
O79 O 0.2692 0.58848 0.73214 0.0
O80 O 0.37543 0.60783 0.62712 0.0
O81 O 0.28271 0.57513 0.60229 0.0
O82 O 0.30496 0.6957 0.60632 0.0
O83 O 0.35777 0.7039 0.56278 0.0
C84 C 0.23767 0.62901 0.77075 0.0
C85 C 0.23048 0.67455 0.86093 0.0
C86 C 0.17583 0.61824 0.80977 0.0
C87 C 0.17945 0.5952 0.76422 0.0
C88 C 0.28848 0.7052 0.87154 0.0
C89 C 0.29236 0.68288 0.82613 0.0
C90 C 0.24052 0.60976 0.71826 0.0
C91 C 0.31465 0.56528 0.59528 0.0
O92 O 0.4622 0.7078 0.58744 0.0
O93 O 0.5296 0.79225 0.67078 0.0
C94 C 0.31735 0.70528 0.55995 0.0
O95 O 0.44594 0.79625 0.68844 0.0
O96 O 0.40816 0.74911 0.75489 0.0
O97 O 0.47164 0.69984 0.74975 0.0
O98 O 0.38273 0.6286 0.75397 0.0
C99 C 0.53629 0.80662 0.57631 0.0
C100 C 0.52056 0.86658 0.50154 0.0
C101 C 0.50804 0.83215 0.54594 0.0
C102 C 0.56403 0.87835 0.49044 0.0
C103 C 0.58742 0.84764 0.51412 0.0
C104 C 0.57496 0.81309 0.55896 0.0
C105 C 0.51773 0.76509 0.61805 0.0
C106 C 0.43953 0.79981 0.73682 0.0
C107 C 0.44093 0.65817 0.77591 0.0
H108 H 0.22847 0.69254 0.89642 0.0
H109 H 0.13745 0.55212 0.72363 0.0
H110 H 0.33722 0.70735 0.83335 0.0
H111 H 0.47251 0.82059 0.55257 0.0
H112 H 0.57153 0.90248 0.45399 0.0
H113 H 0.59174 0.78797 0.5768 0.0
H114 H 0.09095 0.16033 0.68589 0.0
H115 H 0.04838 0.1152 0.57269 0.0
H116 H 0.95897 0.92445 0.59866 0.0
H117 H 1.00167 0.96971 0.71175 0.0
H118 H 0.06509 0.98105 0.59558 0.0
H119 H 0.88069 0.94529 0.47684 0.0
H120 H 0.80937 0.96518 0.43319 0.0
H121 H 0.90759 0.10189 0.34808 0.0
H122 H 0.98146 0.08523 0.39355 0.0
H123 H 0.94499 0.80465 0.28554 0.0
H124 H 0.98882 0.85464 0.39746 0.0
H125 H 0.06608 0.03973 0.35901 0.0
H126 H 1.0213 0.9895 0.247 0.0
H127 H 0.96821 0.98874 0.3696 0.0
H128 H 0.14593 1.01171 0.48108 0.0
H129 H 0.21451 0.98846 0.52503 0.0
H130 H 0.11939 0.86224 0.61793 0.0
H131 H 0.05036 0.88517 0.57494 0.0
C132 C 0.05788 0.10812 0.66592 0.0
C133 C 0.05247 0.06885 0.7081 0.0
C134 C 1.03433 0.08238 0.60126 0.0
C135 C 1.00306 0.017 0.57854 0.0
C136 C 0.98446 0.97542 0.61608 0.0
C137 C 1.00801 1.0013 0.6806 0.0
C138 C 1.00591 0.99721 0.52694 0.0
C139 C 0.04279 0.98116 0.54553 0.0
C140 C 0.97935 1.00097 0.46308 0.0
C141 C 0.93731 0.01439 0.43935 0.0
C142 C 0.88819 0.98076 0.45015 0.0
C143 C 0.84693 0.99111 0.42464 0.0
C144 C 0.85362 0.03427 0.38742 0.0
C145 C 0.90231 0.06819 0.37668 0.0
C146 C 0.94405 0.05848 0.40252 0.0
C147 C 0.97533 0.85687 0.30238 0.0
C148 C 0.97698 0.89264 0.25704 0.0
C149 C 0.99975 0.8854 0.36636 0.0
C150 C 1.02811 0.95027 0.38545 0.0
C151 C 0.04277 0.9891 0.34453 0.0
C152 C 1.01799 0.96041 0.28055 0.0
C153 C 1.0271 0.97189 0.43788 0.0
C154 C 0.99076 0.98867 0.41961 0.0
C155 C 0.05338 0.96768 0.5018 0.0
C156 C 0.09299 0.95097 0.52497 0.0
C157 C 0.13943 0.97913 0.51084 0.0
C158 C 0.17851 0.96591 0.53563 0.0
C159 C 0.17139 0.92393 0.57433 0.0
C160 C 0.12501 0.89494 0.58808 0.0
C161 C 0.08602 0.9083 0.56366 0.0
H162 H 0.20177 0.91385 0.59361 0.0
H163 H 0.82107 0.04144 0.36683 0.0
H164 H 0.6316 0.13842 0.58684 0.0
H165 H 0.69768 0.17638 0.70638 0.0
H166 H 0.74232 0.35978 0.70201 0.0
H167 H 0.68763 0.32636 0.5855 0.0
H168 H 0.81147 0.38137 0.80826 0.0
H169 H 0.5834 0.18034 0.68284 0.0
H170 H 0.505 0.0681 0.61338 0.0
H171 H 0.60192 0.01918 0.76076 0.0
H172 H 0.68242 0.1328 0.83022 0.0
H173 H 0.76133 0.46126 0.01442 0.0
H174 H 0.72888 0.41109 0.9085 0.0
H175 H 0.72135 0.25917 0.98151 0.0
H176 H 0.74499 0.30435 0.08346 0.0
H177 H 0.65748 0.21563 0.86429 0.0
H178 H 0.86504 0.43797 0.99826 0.0
H179 H 0.93036 0.55617 0.04181 0.0
H180 H 0.85457 0.56977 0.84812 0.0
H181 H 0.7845 0.45182 0.80392 0.0
C182 C 0.6597 0.1884 0.61209 0.0
C183 C 0.65347 0.22918 0.57766 0.0
C184 C 0.69571 0.20949 0.68046 0.0
C185 C 0.72015 0.26862 0.71402 0.0
C186 C 0.72276 0.31294 0.67879 0.0
C187 C 0.6913 0.29387 0.61125 0.0
C188 C 0.73158 0.28072 0.78061 0.0
C189 C 0.77756 0.34495 0.8202 0.0
C190 C 0.68933 0.23339 0.79896 0.0
C191 C 0.63906 0.16469 0.76056 0.0
C192 C 0.58794 0.14552 0.69993 0.0
C193 C 0.54366 0.08183 0.66029 0.0
C194 C 0.54894 0.03634 0.6819 0.0
C195 C 0.59827 0.05455 0.74372 0.0
C196 C 0.64341 0.11868 0.78311 0.0
C197 C 0.74713 0.41405 0.0057 0.0
C198 C 0.75657 0.38718 0.05749 0.0
C199 C 0.73149 0.38689 0.94606 0.0
C200 C 0.72813 0.33459 0.93896 0.0
C201 C 0.7261 0.3011 0.98631 0.0
C202 C 0.73848 0.32634 0.04451 0.0
C203 C 0.73217 0.31784 0.88622 0.0
C204 C 0.69124 0.25227 0.85217 0.0
C205 C 0.77657 0.36498 0.86997 0.0
C206 C 0.81886 0.43594 0.89809 0.0
C207 C 0.86167 0.46621 0.96531 0.0
C208 C 0.89967 0.53311 0.99003 0.0
C209 C 0.8976 0.57052 0.94791 0.0
C210 C 0.85641 0.541 0.88085 0.0
C211 C 0.81689 0.47407 0.85603 0.0
H212 H 0.92771 0.62231 0.96719 0.0
H213 H 0.5145 0.98682 0.65137 0.0
H214 H 0.35709 0.69027 0.97696 0.0
H215 H 0.40136 0.74164 0.08922 0.0
H216 H 0.37857 0.87757 0.02381 0.0
H217 H 0.33453 0.82639 0.91159 0.0
H218 H 0.48368 0.92413 0.15974 0.0
H219 H 0.26217 0.7281 0.0095 0.0
H220 H 0.18623 0.61379 0.94769 0.0
H221 H 0.24368 0.56267 0.12279 0.0
H222 H 0.32502 0.67804 0.18581 0.0
H223 H 0.53242 0.9705 0.4652 0.0
H224 H 0.48229 0.96482 0.34991 0.0
H225 H 0.3645 0.75597 0.30054 0.0
H226 H 0.40519 0.76209 0.41309 0.0
H227 H 0.31933 0.76439 0.20494 0.0
H228 H 0.5445 0.90504 0.34054 0.0
H229 H 0.65183 1.0018 0.42297 0.0
H230 H 0.62773 0.12441 0.31862 0.0
H231 H 0.51945 0.02832 0.23699 0.0
C232 C 0.36516 0.73362 0.98714 0.0
C233 C 0.3423 0.75429 0.93564 0.0
C234 C 0.38961 0.76238 0.05119 0.0
C235 C 0.39106 0.81184 0.06431 0.0
C236 C 0.37697 0.83882 0.01457 0.0
C237 C 0.35246 0.81003 0.95052 0.0
C238 C 0.39657 0.82748 0.12562 0.0
C239 C 0.44875 0.88876 0.17096 0.0
C240 C 0.35093 0.78135 0.1403 0.0
C241 C 0.30032 0.71202 0.10206 0.0
C242 C 0.25945 0.69277 0.03477 0.0
C243 C 0.21542 0.62757 0.99944 0.0
C244 C 0.20918 0.58052 0.0308 0.0
C245 C 0.24823 0.59894 0.0982 0.0
C246 C 0.29398 0.66443 0.13373 0.0
C247 C 0.49233 0.9235 0.4292 0.0
C248 C 0.47372 0.86665 0.4477 0.0
C249 C 0.46531 0.92014 0.3629 0.0
C250 C 0.42347 0.86061 0.31487 0.0
C251 C 0.39763 0.80359 0.33453 0.0
C252 C 0.4209 0.8068 0.4002 0.0
C253 C 0.41295 0.85646 0.24739 0.0
C254 C 0.35707 0.79914 0.19739 0.0
C255 C 0.45995 0.90205 0.23343 0.0
C256 C 0.52372 0.95986 0.28373 0.0
C257 C 0.5618 0.95279 0.33612 0.0
C258 C 0.62259 1.00741 0.38275 0.0
C259 C 0.64635 0.06911 0.37608 0.0
C260 C 0.60906 0.07653 0.32373 0.0
C261 C 0.54788 0.02209 0.27758 0.0
H262 H 0.69408 0.111 0.41064 0.0
H263 H 0.17425 0.52994 0.00286 0.0
H264 H 0.34215 0.74569 0.46341 0.0
H265 H 0.2967 0.77906 0.37586 0.0
H266 H 0.17783 0.73524 0.44117 0.0
H267 H 0.22304 0.70175 0.52884 0.0
H268 H 0.11466 0.69878 0.31221 0.0
H269 H 0.31094 0.88223 0.48165 0.0
H270 H 0.42259 0.95774 0.55971 0.0
H271 H 0.4555 1.00761 0.40339 0.0
H272 H 0.34299 0.92609 0.32318 0.0
H273 H 0.04885 0.89969 0.17843 0.0
H274 H 0.08546 0.85137 0.25212 0.0
H275 H 0.18598 0.88163 0.16579 0.0
H276 H 0.15001 0.93036 0.09215 0.0
H277 H 0.25579 0.9207 0.29901 0.0
H278 H 0.05066 0.73587 0.12988 0.0
H279 H 0.93685 0.66242 0.05952 0.0
H280 H 0.9213 0.62909 0.22751 0.0
H281 H 1.0352 0.70499 0.29946 0.0
C282 C 0.30587 0.74244 0.45883 0.0
C283 C 0.28665 0.72132 0.5037 0.0
C284 C 0.27981 0.76158 0.40853 0.0
C285 C 0.23384 0.76006 0.40175 0.0
C286 C 0.21302 0.73676 0.44502 0.0
C287 C 0.23929 0.71796 0.49555 0.0
C288 C 0.21 0.78626 0.35242 0.0
C289 C 0.14559 0.74751 0.30972 0.0
C290 C 0.25023 0.84978 0.34846 0.0
C291 C 0.31822 0.89651 0.39618 0.0
C292 C 0.34177 0.90748 0.46352 0.0
C293 C 0.40555 0.95145 0.5083 0.0
C294 C 0.44664 0.98737 0.48671 0.0
C295 C 0.42371 0.97889 0.42002 0.0
C296 C 0.35986 0.93298 0.37478 0.0
C297 C 0.07878 0.89621 0.17501 0.0
C298 C 0.0965 0.91918 0.12923 0.0
C299 C 0.09941 0.86818 0.21704 0.0
C300 C 0.13796 0.86222 0.21405 0.0
C301 C 0.15622 0.88564 0.16894 0.0
C302 C 0.13562 0.91362 0.12688 0.0
C303 C 0.16084 0.83335 0.25917 0.0
C304 C 0.22505 0.87168 0.30106 0.0
C305 C 0.12038 0.77033 0.26354 0.0
C306 C 0.05184 0.72704 0.22031 0.0
C307 C 1.02321 0.71414 0.15208 0.0
C308 C 0.95858 0.67176 0.11183 0.0
C309 C 0.9219 0.64095 0.13896 0.0
C310 C 0.94978 0.6531 0.20655 0.0
C311 C 1.01441 0.6961 0.24714 0.0
H312 H 0.87186 0.60759 0.1076 0.0
H313 H 0.49618 0.022 0.52149 0.0
H314 H 0.26127 0.44018 0.59478 0.0
H315 H 0.22714 0.35802 0.51178 0.0
H316 H 0.26969 0.49165 0.39681 0.0
H317 H 0.30251 0.57253 0.47883 0.0
H318 H 0.16836 0.37682 0.31949 0.0
H319 H 0.36748 0.47093 0.49669 0.0
H320 H 0.45209 0.50617 0.60901 0.0
H321 H 0.35817 0.30806 0.60851 0.0
H322 H 0.2712 0.27132 0.49704 0.0
H323 H 0.18465 0.22122 0.12279 0.0
H324 H 0.22872 0.30488 0.21308 0.0
H325 H 0.13231 0.15642 0.29332 0.0
H326 H 0.08699 0.07312 0.20253 0.0
H327 H 0.26476 0.28062 0.38775 0.0
H328 H 0.06045 0.19521 0.20406 0.0
H329 H 0.98858 0.17122 0.08778 0.0
H330 H 0.11433 0.372 0.09897 0.0
H331 H 0.18743 0.39694 0.21507 0.0
C332 C 0.26151 0.45083 0.55078 0.0
C333 C 0.28333 0.51169 0.54208 0.0
C334 C 0.24283 0.40446 0.50391 0.0
C335 C 0.24661 0.41904 0.44846 0.0
C336 C 0.26619 0.4792 0.43898 0.0
C337 C 0.28469 0.52523 0.48559 0.0
C338 C 0.23231 0.37295 0.40111 0.0
C339 C 0.18994 0.35632 0.33466 0.0
C340 C 0.26093 0.34658 0.42064 0.0
C341 C 0.31194 0.36833 0.48878 0.0
C342 C 0.36397 0.43475 0.52093 0.0
C343 C 0.41241 0.455 0.5845 0.0
C344 C 0.41004 0.40929 0.61614 0.0
C345 C 0.35926 0.34325 0.58424 0.0
C346 C 0.31027 0.3227 0.52095 0.0
C347 C 0.17439 0.20693 0.16075 0.0
C348 C 0.13257 0.14121 0.15614 0.0
C349 C 0.19926 0.25444 0.21194 0.0
C350 C 0.18338 0.23648 0.25941 0.0
C351 C 0.14514 0.17107 0.25719 0.0
C352 C 0.11926 0.1237 0.20542 0.0
C353 C 0.2007 0.28455 0.30722 0.0
C354 C 0.24343 0.30135 0.37338 0.0
C355 C 0.17412 0.31283 0.28748 0.0
C356 C 0.12968 0.29778 0.21797 0.0
C357 C 0.073 0.23411 0.18155 0.0
C358 C 1.03201 0.22037 0.11572 0.0
C359 C 0.04698 0.27003 0.08597 0.0
C360 C 0.10286 0.33357 0.12204 0.0
C361 C 0.14407 0.34753 0.18784 0.0
H362 H 1.01527 0.25934 0.03502 0.0
H363 H 0.44781 0.42503 0.66518 0.0
H364 H 0.70477 0.89299 0.56118 0.0
H365 H 0.7441 0.89278 0.49596 0.0
H366 H 0.56252 0.78815 0.32173 0.0
H367 H 0.524 0.78907 0.38614 0.0
H368 H 0.72186 0.80598 0.42579 0.0
H369 H 0.55784 0.81267 0.19655 0.0
H370 H 0.52685 0.87516 0.14992 0.0
H371 H 0.69013 0.04106 0.31625 0.0
H372 H 0.72197 0.97928 0.36456 0.0
H373 H 0.73699 0.72464 0.17236 0.0
H374 H 0.69682 0.72676 0.23469 0.0
H375 H 0.77298 0.9208 0.22591 0.0
H376 H 0.8097 0.91689 0.16064 0.0
H377 H 0.6767 0.86819 0.22095 0.0
H378 H 0.84338 0.8768 0.3565 0.0
H379 H 0.90437 0.84388 0.39814 0.0
H380 H 0.76542 0.67683 0.42612 0.0
H381 H 0.70298 0.70823 0.38394 0.0
C382 C 0.67333 0.8692 0.50916 0.0
C383 C 0.61127 0.84066 0.47887 0.0
C384 C 0.69582 0.86952 0.47169 0.0
C385 C 0.65673 0.8417 0.4033 0.0
C386 C 0.59435 0.81164 0.37379 0.0
C387 C 0.57207 0.8113 0.41092 0.0
C388 C 0.67966 0.8413 0.36262 0.0
C389 C 0.7116 0.81919 0.38075 0.0
C390 C 0.66797 0.85983 0.30439 0.0
C391 C 0.64196 0.89124 0.28429 0.0
C392 C 0.58638 0.86202 0.22393 0.0
C393 C 0.56881 0.89739 0.19718 0.0
C394 C 0.60663 0.96212 0.23028 0.0
C395 C 0.66109 0.99094 0.291 0.0
C396 C 0.67853 0.95556 0.31846 0.0
C397 C 0.74269 0.76654 0.1815 0.0
C398 C 0.77533 0.82012 0.16047 0.0
C399 C 0.72116 0.76847 0.21861 0.0
C400 C 0.73347 0.82478 0.23716 0.0
C401 C 0.7628 0.87671 0.21267 0.0
C402 C 0.78309 0.8742 0.17442 0.0
C403 C 0.71657 0.83034 0.28234 0.0
C404 C 0.68606 0.85369 0.26531 0.0
C405 C 0.731 0.81431 0.34205 0.0
C406 C 0.76828 0.79491 0.36681 0.0
C407 C 0.82562 0.83297 0.37135 0.0
C408 C 0.86053 0.81459 0.39507 0.0
C409 C 0.83889 0.75841 0.41483 0.0
C410 C 0.78219 0.72041 0.41085 0.0
C411 C 0.74702 0.73852 0.38707 0.0
H412 H 0.86605 0.74432 0.43322 0.0
H413 H 0.59396 0.99014 0.20891 0.0
H414 H 0.85922 0.32155 0.47751 0.0
H415 H 0.89623 0.27815 0.55911 0.0
H416 H 0.7212 0.15084 0.54832 0.0
H417 H 0.68588 0.19719 0.47036 0.0
H418 H 0.80052 0.18832 0.66354 0.0
H419 H 0.77696 0.10684 0.47252 0.0
H420 H 0.79744 0.11794 0.38421 0.0
H421 H 0.99157 0.23314 0.52544 0.0
H422 H 0.97289 0.22484 0.61451 0.0
H423 H 0.851 0.98428 0.82798 0.0
H424 H 0.81042 0.02598 0.74676 0.0
H425 H 0.99123 0.17572 0.77415 0.0
H426 H 1.03169 0.13411 0.854 0.0
H427 H 0.90592 0.12239 0.64918 0.0
H428 H 0.93047 0.20234 0.83931 0.0
H429 H 0.91309 0.19586 0.92909 0.0
H430 H 0.71867 0.08397 0.79089 0.0
H431 H 0.73452 0.08865 0.70022 0.0
C432 C 0.82847 0.28399 0.4922 0.0
C433 C 0.76921 0.26235 0.46647 0.0
C434 C 0.84953 0.25865 0.5387 0.0
C435 C 0.81104 0.20933 0.55895 0.0
C436 C 0.75212 0.18849 0.53383 0.0
C437 C 0.73172 0.21497 0.48872 0.0
C438 C 0.83226 0.18056 0.60745 0.0
C439 C 0.82262 0.17297 0.65952 0.0
C440 C 0.86272 0.16171 0.60393 0.0
C441 C 0.87356 0.166 0.55011 0.0
C442 C 0.82405 0.13513 0.48466 0.0
C443 C 0.83533 0.14092 0.43453 0.0
C444 C 0.89564 0.17638 0.4492 0.0
C445 C 0.9449 0.20597 0.51411 0.0
C446 C 0.93404 0.2009 0.56443 0.0
C447 C 0.88214 0.02613 0.81677 0.0
C448 C 0.94474 0.05578 0.84789 0.0
C449 C 0.85891 0.05017 0.77051 0.0
C450 C 0.89785 0.10451 0.7546 0.0
C451 C 0.96016 0.13383 0.78545 0.0
C452 C 0.98332 0.10994 0.83146 0.0
C453 C 0.87407 0.13034 0.70477 0.0
C454 C 0.88326 0.1373 0.6526 0.0
C455 C 0.8432 0.1485 0.70819 0.0
C456 C 0.83358 0.14492 0.76292 0.0
C457 C 0.88385 0.17554 0.82803 0.0
C458 C 0.87429 0.17234 0.87912 0.0
C459 C 0.81479 0.13936 0.86574 0.0
C460 C 0.7647 0.10947 0.80122 0.0
C461 C 0.77394 0.11229 0.74996 0.0
H462 H 0.80753 0.13716 0.90535 0.0
H463 H 0.90414 0.18064 0.41025 0.0
H464 H 0.7712 0.38315 0.55727 0.0
H465 H 0.8168 0.44542 0.66481 0.0
H466 H 0.93689 0.62239 0.62739 0.0
H467 H 0.89217 0.55999 0.52017 0.0
H468 H 0.98539 0.62707 0.76528 0.0
H469 H 0.79053 0.55567 0.56235 0.0
H470 H 0.68462 0.46429 0.47229 0.0
H471 H 0.6353 0.3763 0.61073 0.0
H472 H 0.7411 0.4669 0.70138 0.0
H473 H 1.00555 0.88185 0.83048 0.0
H474 H 0.98666 0.791 0.78363 0.0
H475 H 0.86133 0.66352 0.84881 0.0
H476 H 0.88031 0.75422 0.89637 0.0
H477 H 0.81323 0.61213 0.72343 0.0
H478 H 0.99252 0.70079 0.92371 0.0
H479 H 0.09748 0.78041 0.02055 0.0
H480 H 0.17622 0.82328 0.90398 0.0
H481 H 0.07161 0.74548 0.80585 0.0
C482 C 0.80872 0.43523 0.5731 0.0
C483 C 0.8271 0.4675 0.53037 0.0
C484 C 0.83514 0.47046 0.63461 0.0
C485 C 0.87906 0.53827 0.65309 0.0
C486 C 0.90286 0.56994 0.61367 0.0
C487 C 0.87703 0.53452 0.55236 0.0
C488 C 0.88825 0.57599 0.70309 0.0
C489 C 0.94814 0.62415 0.75675 0.0
C490 C 0.83847 0.56933 0.69316 0.0
C491 C 0.77377 0.5176 0.63857 0.0
C492 C 0.75698 0.51689 0.57348 0.0
C493 C 0.69703 0.46518 0.52233 0.0
C494 C 0.65328 0.4144 0.53576 0.0
C495 C 0.66922 0.4156 0.60036 0.0
C496 C 0.72916 0.46707 0.65164 0.0
C497 C 0.97353 0.83439 0.83435 0.0
C498 C 0.94421 0.82506 0.86686 0.0
C499 C 0.96349 0.78278 0.8084 0.0
C500 C 0.92368 0.72099 0.81409 0.0
C501 C 0.89288 0.71105 0.84476 0.0
C502 C 0.90346 0.76281 0.87145 0.0
C503 C 0.91153 0.66634 0.78394 0.0
C504 C 0.85075 0.6147 0.73374 0.0
C505 C 0.96035 0.66898 0.79847 0.0
C506 C 1.0238 0.71745 0.857 0.0
C507 C 1.03206 0.72779 0.91837 0.0
C508 C 0.09158 0.77265 0.97359 0.0
C509 C 0.1435 0.80694 0.96842 0.0
C510 C 0.13594 0.7967 0.9079 0.0
C511 C 0.07646 0.75229 0.85238 0.0
H512 H 0.18958 0.84132 0.01134 0.0
H513 H 0.60704 0.37417 0.49615 0.0
H514 H 0.55253 0.25483 0.60354 0.0
H515 H 0.50025 0.2395 0.65765 0.0
H516 H 0.32278 0.0966 0.48231 0.0
H517 H 0.37574 0.11077 0.42759 0.0
H518 H 0.33014 0.18602 0.55077 0.0
H519 H 0.34053 0.0196 0.60006 0.0
H520 H 0.38218 0.96521 0.6349 0.0
H521 H 0.54487 0.12901 0.80372 0.0
H522 H 0.50395 0.18422 0.76996 0.0
H523 H 0.16179 0.02494 0.71306 0.0
H524 H 0.21362 0.04172 0.65742 0.0
H525 H 0.38375 0.22026 0.808 0.0
H526 H 0.33102 0.20513 0.86312 0.0
H527 H 0.37742 0.11343 0.74888 0.0
H528 H 0.31488 0.2384 0.69858 0.0
H529 H 0.23659 0.24793 0.65874 0.0
H530 H 0.14117 0.13059 0.46744 0.0
H531 H 0.21879 0.12006 0.50624 0.0
C532 C 0.50227 0.22055 0.57593 0.0
C533 C 0.46836 0.18375 0.51116 0.0
C534 C 0.47241 0.21164 0.6072 0.0
C535 C 0.40753 0.16628 0.57462 0.0
C536 C 0.37297 0.13179 0.50863 0.0
C537 C 0.40317 0.1402 0.47718 0.0
C538 C 0.37745 0.15465 0.61141 0.0
C539 C 0.33973 0.16944 0.59363 0.0
C540 C 0.38994 0.13326 0.66749 0.0
C541 C 0.41932 0.10578 0.68275 0.0
C542 C 0.38564 0.04433 0.64412 0.0
C543 C 0.40875 0.01313 0.664 0.0
C544 C 0.46551 0.0432 0.72224 0.0
C545 C 0.50045 0.10553 0.75931 0.0
C546 C 0.47734 0.1367 0.73996 0.0
C547 C 0.21077 0.06702 0.73542 0.0
C548 C 0.24235 0.1138 0.79259 0.0
C549 C 0.24007 0.07673 0.7031 0.0
C550 C 0.30207 0.13271 0.72772 0.0
C551 C 0.33565 0.17682 0.78799 0.0
C552 C 0.30578 0.16787 0.81986 0.0
C553 C 0.33047 0.1453 0.68894 0.0
C554 C 0.36803 0.13068 0.70641 0.0
C555 C 0.31486 0.16381 0.63082 0.0
C556 C 0.27091 0.17489 0.60655 0.0
C557 C 0.27629 0.21282 0.64856 0.0
C558 C 0.23237 0.21921 0.62588 0.0
C559 C 0.1832 0.18883 0.56088 0.0
C560 C 0.17867 0.15321 0.51808 0.0
C561 C 0.22267 0.14699 0.5405 0.0
H562 H 0.1491 0.1936 0.54346 0.0
H563 H 0.48278 0.0185 0.73843 0.0
H564 H 0.56356 0.35776 0.15414 0.0
H565 H 0.53252 0.40786 0.07632 0.0
H566 H 0.71563 0.59512 0.19158 0.0
H567 H 0.74775 0.5449 0.26883 0.0
H568 H 0.614 0.59237 0.14677 0.0
H569 H 0.68807 0.53085 0.07048 0.0
H570 H 0.69734 0.45958 0.03612 0.0
H571 H 0.51055 0.34355 0.87101 0.0
H572 H 0.49848 0.41142 0.90731 0.0
H573 H 0.54764 0.682 0.81678 0.0
H574 H 0.59604 0.65034 0.9041 0.0
H575 H 0.45419 0.56543 0.94755 0.0
H576 H 0.40533 0.59653 0.86024 0.0
H577 H 0.54944 0.52966 0.91769 0.0
H578 H 0.52514 0.5892 0.11841 0.0
H579 H 0.52375 0.66757 0.15556 0.0
H580 H 0.62634 0.80158 0.07227 0.0
H581 H 0.62889 0.72454 0.03516 0.0
C582 C 0.59723 0.40968 0.16329 0.0
C583 C 0.65821 0.44727 0.21786 0.0
C584 C 0.57941 0.43823 0.11857 0.0
C585 C 0.62171 0.50526 0.12791 0.0
C586 C 0.68215 0.54333 0.18333 0.0
C587 C 0.7005 0.51451 0.22732 0.0
C588 C 0.60294 0.53488 0.07873 0.0
C589 C 0.59958 0.57839 0.09662 0.0
C590 C 0.58574 0.51812 0.01357 0.0
C591 C 0.59204 0.47578 0.99241 0.0
C592 C 0.64837 0.48923 0.02776 0.0
C593 C 0.65416 0.44935 0.00784 0.0
C594 C 0.60458 0.39684 0.95141 0.0
C595 C 0.54881 0.3838 0.91511 0.0
C596 C 0.5423 0.42275 0.93564 0.0
C597 C 0.52689 0.65699 0.84514 0.0
C598 C 0.47241 0.64187 0.83118 0.0
C599 C 0.55452 0.6386 0.89493 0.0
C600 C 0.52902 0.60561 0.93275 0.0
C601 C 0.47514 0.59124 0.91954 0.0
C602 C 0.44708 0.60893 0.8693 0.0
C603 C 0.55773 0.58481 0.98493 0.0
C604 C 0.56326 0.54315 0.96768 0.0
C605 C 0.57739 0.60367 0.05072 0.0
C606 C 0.57625 0.65051 0.07302 0.0
C607 C 0.54738 0.63538 0.10799 0.0
C608 C 0.54632 0.67953 0.12897 0.0
C609 C 0.57417 0.73903 0.11547 0.0
C610 C 0.60382 0.75495 0.08168 0.0
C611 C 0.60488 0.71096 0.06044 0.0
H612 H 0.57291 0.77291 0.1313 0.0
H613 H 0.60956 0.36659 0.9357 0.0
H614 H 0.5569 0.90251 0.83145 0.0
H615 H 0.58463 0.98428 0.90768 0.0
H616 H 0.39742 0.90955 0.79128 0.0
H617 H 0.37012 0.8285 0.71534 0.0
H618 H 0.4799 0.03797 0.84793 0.0
H619 H 0.43433 0.84875 0.90059 0.0
H620 H 0.44302 0.76642 0.92398 0.0
H621 H 0.61943 0.90443 0.10017 0.0
H622 H 0.61388 0.98919 0.07627 0.0
H623 H 0.54344 0.12478 0.19255 0.0
H624 H 0.49594 0.0425 0.09861 0.0
H625 H 0.62481 0.19169 0.04606 0.0
H626 H 0.67115 0.27334 0.13764 0.0
H627 H 0.5483 1.0097 0.06936 0.0
H628 H 0.57193 0.177 0.90855 0.0
H629 H 0.55785 0.25565 0.88425 0.0
H630 H 0.41302 0.1489 0.92536 0.0
H631 H 0.42652 0.06967 0.95007 0.0
C632 C 0.52281 0.90581 0.82099 0.0
C633 C 0.46168 0.86006 0.76831 0.0
C634 C 0.53835 0.95186 0.86452 0.0
C635 C 0.49249 0.95147 0.85564 0.0
C636 C 0.43317 0.91011 0.79901 0.0
C637 C 0.4177 0.86416 0.75571 0.0
C638 C 0.50346 0.98755 0.90887 0.0
C639 C 0.49563 0.03232 0.89634 0.0
C640 C 0.52021 0.97691 0.97122 0.0
C641 C 0.52404 0.92599 0.98587 0.0
C642 C 0.47568 0.86228 0.9437 0.0
C643 C 0.48001 0.81508 0.957 0.0
C644 C 0.53163 0.83027 0.01331 0.0
C645 C 0.57947 0.89288 0.05636 0.0
C646 C 0.5759 0.94068 0.04274 0.0
C647 C 0.56104 0.13986 0.16042 0.0
C648 C 0.61052 0.2055 0.17199 0.0
C649 C 0.53399 0.09296 0.10706 0.0
C650 C 0.55609 0.11153 0.06487 0.0
C651 C 0.60593 0.17679 0.07702 0.0
C652 C 0.63256 0.22339 0.12968 0.0
C653 C 0.52962 0.06345 0.00904 0.0
C654 C 0.53337 0.01557 0.02079 0.0
C655 C 0.50844 0.07034 0.94573 0.0
C656 C 0.49977 0.11728 0.93039 0.0
C657 C 0.53668 0.17004 0.9117 0.0
C658 C 0.52914 0.21495 0.8984 0.0
C659 C 0.4845 0.20719 0.9032 0.0
C660 C 0.44755 0.15477 0.92167 0.0
C661 C 0.45527 0.11001 0.93555 0.0
H662 H 0.47861 0.24184 0.89281 0.0
H663 H 0.53421 0.79327 0.02331 0.0
H664 H 0.10483 0.49638 0.82283 0.0
H665 H 0.05371 0.46714 0.88351 0.0
H666 H 0.07359 0.6362 0.8725 0.0
H667 H 0.12306 0.66439 0.81065 0.0
H668 H 0.13451 0.64099 0.99769 0.0
H669 H 0.9354 0.48363 0.80665 0.0
H670 H 0.86112 0.39024 0.70915 0.0
H671 H 0.86395 0.26804 0.83024 0.0
H672 H 0.94094 0.36117 0.92873 0.0
H673 H 1.01281 0.60907 0.18932 0.0
H674 H 0.05341 0.62715 0.12074 0.0
H675 H 0.98191 0.43142 0.09386 0.0
H676 H 0.93778 0.41333 0.15942 0.0
H677 H 0.94543 0.44029 0.98432 0.0
H678 H 0.15334 0.59409 0.1727 0.0
H679 H 0.23701 0.68735 0.27221 0.0
H680 H 0.22345 0.81153 0.16038 0.0
H681 H 0.13962 0.71895 0.06037 0.0
C682 C 0.09456 0.52487 0.82944 0.0
C683 C 0.11888 0.58323 0.81252 0.0
C684 C 0.066 0.50864 0.8652 0.0
C685 C 0.06136 0.55055 0.88459 0.0
C686 C 0.07768 0.60373 0.85957 0.0
C687 C 0.10515 0.61926 0.82312 0.0
C688 C 0.04813 0.54454 0.93757 0.0
C689 C 0.09304 0.59705 0.99467 0.0
C690 C 0.99456 0.48706 0.93449 0.0
C691 C 0.94513 0.42998 0.87537 0.0
C692 C 0.92107 0.43713 0.8127 0.0
C693 C 0.87864 0.38425 0.75718 0.0
C694 C 0.85865 0.32355 0.76357 0.0
C695 C 0.88024 0.31531 0.82548 0.0
C696 C 0.92343 0.3682 0.8812 0.0
C697 C 1.00917 0.57153 0.17202 0.0
C698 C 0.97279 0.51047 0.18071 0.0
C699 C 1.03241 0.5815 0.13209 0.0
C700 C 1.02087 0.53057 0.10047 0.0
C701 C 0.9908 0.47157 0.11584 0.0
C702 C 0.96689 0.46161 0.15513 0.0
C703 C 1.03333 0.53605 0.04644 0.0
C704 C 0.98777 0.48379 0.98847 0.0
C705 C 0.08733 0.59325 0.04932 0.0
C706 C 0.13965 0.64942 0.10913 0.0
C707 C 0.16809 0.64125 0.1694 0.0
C708 C 0.21547 0.69396 0.22592 0.0
C709 C 0.23515 0.75521 0.2227 0.0
C710 C 0.20798 0.76403 0.16287 0.0
C711 C 0.16068 0.71151 0.10624 0.0
H712 H 0.27195 0.79601 0.26638 0.0
H713 H 0.8259 0.28274 0.72053 0.0
loop_
_geom_bond_atom_site_label_1
_geom_bond_atom_site_label_2
_geom_bond_distance
_geom_bond_site_symmetry_2
_ccdc_geom_bond_type
Eu0 O2 2.472 . S
Eu0 O3 2.507 . S
Eu0 O5 2.336 1_554 S
Eu0 O6 2.399 1_554 S
Eu0 C14 2.835 . S
Eu0 O20 2.396 1_665 S
Eu0 O22 2.323 1_655 S
Eu1 O4 2.396 1_445 S
Eu1 O7 2.323 1_455 S
Eu1 O16 2.472 . S
Eu1 O17 2.507 . S
Eu1 O19 2.336 1_556 S
Eu1 O21 2.403 1_556 S
Eu1 C29 2.835 . S
O2 Eu0 2.472 . S
O2 C14 1.258 . S
O3 Eu0 2.507 . S
O3 C14 1.246 . S
O4 Eu1 2.396 1_665 S
O4 C15 1.216 . S
O5 Eu0 2.336 1_556 S
O5 C15 1.279 . S
O6 Eu0 2.399 1_556 S
O6 C18 1.238 1_565 S
O7 Eu1 2.323 1_655 S
O7 C18 1.249 . S
C8 C11 1.390 . S
C8 C13 1.370 . S
C8 C14 1.489 . S
C9 C10 1.344 . S
C9 C12 1.413 . S
C9 H32 0.931 . S
C10 C9 1.344 . S
C10 C11 1.423 . S
C11 C8 1.390 . S
C11 C10 1.423 . S
C11 H33 0.930 . S
C12 C9 1.413 . S
C12 C13 1.397 . S
C13 C8 1.370 . S
C13 C12 1.397 . S
C13 H34 0.932 . S
C14 Eu0 2.835 . S
C14 O2 1.258 . S
C14 O3 1.246 . S
C14 C8 1.489 . S
C15 O4 1.216 . S
C15 O5 1.279 . S
O16 Eu1 2.472 . S
O16 C29 1.258 . S
O17 Eu1 2.507 . S
O17 C29 1.246 . S
C18 O6 1.238 1_545 S
C18 O7 1.249 . S
O19 Eu1 2.336 1_554 S
O19 C30 1.279 . S
O20 Eu0 2.396 1_445 S
O20 C30 1.216 . S
O21 Eu1 2.403 1_554 S
O21 C31 1.238 1_545 S
O22 Eu0 2.323 1_455 S
O22 C31 1.249 . S
C23 C25 1.370 . S
C23 C28 1.390 . S
C23 C29 1.489 . S
C24 C25 1.397 . S
C24 C26 1.413 . S
C25 C23 1.370 . S
C25 C24 1.397 . S
C25 H35 0.932 . S
C26 C24 1.413 . S
C26 C27 1.344 . S
C26 H36 0.931 . S
C27 C26 1.344 . S
C27 C28 1.423 . S
C28 C23 1.390 . S
C28 C27 1.423 . S
C28 H37 0.930 . S
C29 Eu1 2.835 . S
C29 O16 1.258 . S
C29 O17 1.246 . S
C29 C23 1.489 . S
C30 O19 1.279 . S
C30 O20 1.216 . S
C31 O21 1.238 1_565 S
C31 O22 1.249 . S
H32 C9 0.931 . S
H33 C11 0.930 . S
H34 C13 0.932 . S
H35 C25 0.932 . S
H36 C26 0.931 . S
H37 C28 0.930 . S
Eu38 O40 2.472 . S
Eu38 O41 2.507 . S
Eu38 O43 2.336 . S
Eu38 O44 2.389 . S
Eu38 C52 2.835 . S
Eu38 O58 2.396 . S
Eu38 O60 2.323 . S
Eu39 O42 2.396 . S
Eu39 O45 2.323 . S
Eu39 O54 2.472 . S
Eu39 O55 2.507 . S
Eu39 O57 2.336 . S
Eu39 O59 2.389 . S
Eu39 C67 2.835 . S
O40 Eu38 2.472 . S
O40 C52 1.258 . S
O41 Eu38 2.507 . S
O41 C52 1.246 . S
O42 Eu39 2.396 . S
O42 C53 1.216 . S
O43 Eu38 2.336 . S
O43 C53 1.279 . S
O44 Eu38 2.389 . S
O44 C56 1.239 . S
O45 Eu39 2.323 . S
O45 C56 1.249 . S
C46 C49 1.390 . S
C46 C51 1.370 . S
C46 C52 1.489 . S
C47 C48 1.344 . S
C47 C50 1.413 . S
C47 H70 0.931 . S
C48 C47 1.344 . S
C48 C49 1.423 . S
C49 C46 1.390 . S
C49 C48 1.423 . S
C49 H71 0.930 . S
C50 C47 1.413 . S
C50 C51 1.397 . S
C51 C46 1.370 . S
C51 C50 1.397 . S
C51 H72 0.932 . S
C52 Eu38 2.835 . S
C52 O40 1.258 . S
C52 O41 1.246 . S
C52 C46 1.489 . S
C53 O42 1.216 . S
C53 O43 1.279 . S
O54 Eu39 2.472 . S
O54 C67 1.258 . S
O55 Eu39 2.507 . S
O55 C67 1.246 . S
C56 O44 1.239 . S
C56 O45 1.249 . S
O57 Eu39 2.336 . S
O57 C68 1.279 . S
O58 Eu38 2.396 . S
O58 C68 1.216 . S
O59 Eu39 2.389 . S
O59 C69 1.239 . S
O60 Eu38 2.323 . S
O60 C69 1.249 . S
C61 C63 1.370 . S
C61 C66 1.390 . S
C61 C67 1.489 . S
C62 C63 1.397 . S
C62 C64 1.413 . S
C63 C61 1.370 . S
C63 C62 1.397 . S
C63 H73 0.932 . S
C64 C62 1.413 . S
C64 C65 1.344 . S
C64 H74 0.931 . S
C65 C64 1.344 . S
C65 C66 1.423 . S
C66 C61 1.390 . S
C66 C65 1.423 . S
C66 H75 0.930 . S
C67 Eu39 2.835 . S
C67 O54 1.258 . S
C67 O55 1.246 . S
C67 C61 1.489 . S
C68 O57 1.279 . S
C68 O58 1.216 . S
C69 O59 1.239 . S
C69 O60 1.249 . S
H70 C47 0.931 . S
H71 C49 0.930 . S
H72 C51 0.932 . S
H73 C63 0.932 . S
H74 C64 0.931 . S
H75 C66 0.930 . S
Eu76 O78 2.472 . S
Eu76 O79 2.507 . S
Eu76 O81 2.336 . S
Eu76 O82 2.389 . S
Eu76 C90 2.835 . S
Eu76 O96 2.396 . S
Eu76 O98 2.323 . S
Eu77 O80 2.396 . S
Eu77 O83 2.323 . S
Eu77 O92 2.472 . S
Eu77 O93 2.507 . S
Eu77 O95 2.336 . S
Eu77 O97 2.389 . S
Eu77 C105 2.835 . S
O78 Eu76 2.472 . S
O78 C90 1.258 . S
O79 Eu76 2.507 . S
O79 C90 1.246 . S
O80 Eu77 2.396 . S
O80 C91 1.216 . S
O81 Eu76 2.336 . S
O81 C91 1.279 . S
O82 Eu76 2.389 . S
O82 C94 1.239 . S
O83 Eu77 2.323 . S
O83 C94 1.249 . S
C84 C87 1.390 . S
C84 C89 1.370 . S
C84 C90 1.489 . S
C85 C86 1.344 . S
C85 C88 1.413 . S
C85 H108 0.931 . S
C86 C85 1.344 . S
C86 C87 1.423 . S
C87 C84 1.390 . S
C87 C86 1.423 . S
C87 H109 0.930 . S
C88 C85 1.413 . S
C88 C89 1.397 . S
C89 C84 1.370 . S
C89 C88 1.397 . S
C89 H110 0.932 . S
C90 Eu76 2.835 . S
C90 O78 1.258 . S
C90 O79 1.246 . S
C90 C84 1.489 . S
C91 O80 1.216 . S
C91 O81 1.279 . S
O92 Eu77 2.472 . S
O92 C105 1.258 . S
O93 Eu77 2.507 . S
O93 C105 1.246 . S
C94 O82 1.239 . S
C94 O83 1.249 . S
O95 Eu77 2.336 . S
O95 C106 1.279 . S
O96 Eu76 2.396 . S
O96 C106 1.216 . S
O97 Eu77 2.389 . S
O97 C107 1.239 . S
O98 Eu76 2.323 . S
O98 C107 1.249 . S
C99 C101 1.370 . S
C99 C104 1.390 . S
C99 C105 1.489 . S
C100 C101 1.397 . S
C100 C102 1.413 . S
C101 C99 1.370 . S
C101 C100 1.397 . S
C101 H111 0.932 . S
C102 C100 1.413 . S
C102 C103 1.344 . S
C102 H112 0.931 . S
C103 C102 1.344 . S
C103 C104 1.423 . S
C104 C99 1.390 . S
C104 C103 1.423 . S
C104 H113 0.930 . S
C105 Eu77 2.835 . S
C105 O92 1.258 . S
C105 O93 1.246 . S
C105 C99 1.489 . S
C106 O95 1.279 . S
C106 O96 1.216 . S
C107 O97 1.239 . S
C107 O98 1.249 . S
H108 C85 0.931 . S
H109 C87 0.930 . S
H110 C89 0.932 . S
H111 C101 0.932 . S
H112 C102 0.931 . S
H113 C104 0.930 . S
H114 C132 0.951 . S
H115 C134 0.951 . S
H116 C136 0.950 1_655 S
H117 C137 0.950 . S
H118 C139 0.950 . S
H119 C142 0.950 . S
H120 C143 0.950 . S
H121 C145 0.950 . S
H122 C146 0.950 . S
H123 C147 0.951 . S
H124 C149 0.951 . S
H125 C151 0.950 1_455 S
H126 C152 0.950 . S
H127 C154 0.950 . S
H128 C157 0.950 . S
H129 C158 0.950 . S
H130 C160 0.950 . S
H131 C161 0.950 . S
C132 H114 0.951 . S
C132 C133 1.366 . S
C132 C134 1.388 . S
C133 C132 1.366 . S
C133 C137 1.385 . S
C134 H115 0.951 . S
C134 C132 1.388 . S
C134 C135 1.366 . S
C135 C134 1.366 . S
C135 C136 1.414 . S
C135 C138 1.499 . S
C136 H116 0.950 1_455 S
C136 C135 1.414 . S
C136 C137 1.374 . S
C137 H117 0.950 . S
C137 C133 1.385 . S
C137 C136 1.374 . S
C138 C135 1.499 . S
C138 C139 1.373 1_445 S
C138 C140 1.389 . S
C139 H118 0.950 . S
C139 C138 1.373 1_665 S
C139 C155 1.377 . S
C140 C138 1.389 . S
C140 C141 1.524 . S
C140 C154 1.377 . S
C141 C140 1.524 . S
C141 C142 1.397 . S
C141 C146 1.363 . S
C142 H119 0.950 . S
C142 C141 1.397 . S
C142 C143 1.334 . S
C143 H120 0.950 . S
C143 C142 1.334 . S
C143 C144 1.287 . S
C144 C143 1.287 . S
C144 C145 1.524 . S
C144 H163 0.913 . S
C145 H121 0.950 . S
C145 C144 1.524 . S
C145 C146 1.415 . S
C146 H122 0.950 . S
C146 C141 1.363 . S
C146 C145 1.415 . S
C147 H123 0.951 . S
C147 C148 1.366 . S
C147 C149 1.388 . S
C148 C147 1.366 . S
C148 C152 1.385 . S
C149 H124 0.951 . S
C149 C147 1.388 . S
C149 C150 1.366 . S
C150 C149 1.366 . S
C150 C151 1.414 . S
C150 C153 1.499 . S
C151 H125 0.950 1_655 S
C151 C150 1.414 . S
C151 C152 1.374 . S
C152 H126 0.950 . S
C152 C148 1.385 . S
C152 C151 1.374 . S
C153 C150 1.499 . S
C153 C154 1.373 1_665 S
C153 C155 1.389 . S
C154 H127 0.950 . S
C154 C140 1.377 . S
C154 C153 1.373 1_445 S
C155 C139 1.377 . S
C155 C153 1.389 . S
C155 C156 1.524 . S
C156 C155 1.524 . S
C156 C157 1.397 . S
C156 C161 1.363 . S
C157 H128 0.950 . S
C157 C156 1.397 . S
C157 C158 1.334 . S
C158 H129 0.950 . S
C158 C157 1.334 . S
C158 C159 1.287 . S
C159 C158 1.287 . S
C159 C160 1.524 . S
C159 H162 0.999 . S
C160 H130 0.950 . S
C160 C159 1.524 . S
C160 C161 1.415 . S
C161 H131 0.950 . S
C161 C156 1.363 . S
C161 C160 1.415 . S
H162 C159 0.999 . S
H163 C144 0.913 . S
H164 C182 0.951 . S
H165 C184 0.951 . S
H166 C186 0.950 . S
H167 C187 0.950 . S
H168 C189 0.950 . S
H169 C192 0.950 . S
H170 C193 0.950 . S
H171 C195 0.950 . S
H172 C196 0.950 . S
H173 C197 0.951 . S
H174 C199 0.951 . S
H175 C201 0.950 . S
H176 C202 0.950 . S
H177 C204 0.950 . S
H178 C207 0.950 . S
H179 C208 0.950 . S
H180 C210 0.950 . S
H181 C211 0.950 . S
C182 H164 0.951 . S
C182 C183 1.366 . S
C182 C184 1.388 . S
C183 C182 1.366 . S
C183 C187 1.385 . S
C184 H165 0.951 . S
C184 C182 1.388 . S
C184 C185 1.366 . S
C185 C184 1.366 . S
C185 C186 1.414 . S
C185 C188 1.499 . S
C186 H166 0.950 . S
C186 C185 1.414 . S
C186 C187 1.374 . S
C187 H167 0.950 . S
C187 C183 1.385 . S
C187 C186 1.374 . S
C188 C185 1.499 . S
C188 C189 1.373 . S
C188 C190 1.389 . S
C189 H168 0.950 . S
C189 C188 1.373 . S
C189 C205 1.377 . S
C190 C188 1.389 . S
C190 C191 1.524 . S
C190 C204 1.377 . S
C191 C190 1.524 . S
C191 C192 1.397 . S
C191 C196 1.363 . S
C192 H169 0.950 . S
C192 C191 1.397 . S
C192 C193 1.334 . S
C193 H170 0.950 . S
C193 C192 1.334 . S
C193 C194 1.287 . S
C194 C193 1.287 . S
C194 C195 1.524 . S
C194 H213 0.913 . S
C195 H171 0.950 . S
C195 C194 1.524 . S
C195 C196 1.415 . S
C196 H172 0.950 . S
C196 C191 1.363 . S
C196 C195 1.415 . S
C197 H173 0.951 . S
C197 C198 1.366 . S
C197 C199 1.388 1_554 S
C198 C197 1.366 . S
C198 C202 1.385 . S
C199 H174 0.951 . S
C199 C197 1.388 1_556 S
C199 C200 1.366 . S
C200 C199 1.366 . S
C200 C201 1.414 . S
C200 C203 1.499 . S
C201 H175 0.950 . S
C201 C200 1.414 . S
C201 C202 1.374 1_556 S
C202 H176 0.950 . S
C202 C198 1.385 . S
C202 C201 1.374 1_554 S
C203 C200 1.499 . S
C203 C204 1.373 . S
C203 C205 1.389 . S
C204 H177 0.950 . S
C204 C190 1.377 . S
C204 C203 1.373 . S
C205 C189 1.377 . S
C205 C203 1.389 . S
C205 C206 1.524 . S
C206 C205 1.524 . S
C206 C207 1.397 . S
C206 C211 1.363 . S
C207 H178 0.950 . S
C207 C206 1.397 . S
C207 C208 1.334 1_556 S
C208 H179 0.950 . S
C208 C207 1.334 1_554 S
C208 C209 1.287 . S
C209 C208 1.287 . S
C209 C210 1.524 1_554 S
C209 H212 0.999 . S
C210 H180 0.950 . S
C210 C209 1.524 1_556 S
C210 C211 1.415 . S
C211 H181 0.950 . S
C211 C206 1.363 . S
C211 C210 1.415 . S
H212 C209 0.999 . S
H213 C194 0.913 . S
H214 C232 0.951 . S
H215 C234 0.951 . S
H216 C236 0.950 . S
H217 C237 0.950 . S
H218 C239 0.950 . S
H219 C242 0.950 . S
H220 C243 0.950 . S
H221 C245 0.950 . S
H222 C246 0.950 . S
H223 C247 0.951 . S
H224 C249 0.951 . S
H225 C251 0.950 . S
H226 C252 0.950 . S
H227 C254 0.950 . S
H228 C257 0.950 . S
H229 C258 0.950 . S
H230 C260 0.950 . S
H231 C261 0.950 . S
C232 H214 0.951 . S
C232 C233 1.366 . S
C232 C234 1.388 1_556 S
C233 C232 1.366 . S
C233 C237 1.385 . S
C234 H215 0.951 . S
C234 C232 1.388 1_554 S
C234 C235 1.366 . S
C235 C234 1.366 . S
C235 C236 1.414 . S
C235 C238 1.499 . S
C236 H216 0.950 . S
C236 C235 1.414 . S
C236 C237 1.374 1_554 S
C237 H217 0.950 . S
C237 C233 1.385 . S
C237 C236 1.374 1_556 S
C238 C235 1.499 . S
C238 C239 1.373 . S
C238 C240 1.389 . S
C239 H218 0.950 . S
C239 C238 1.373 . S
C239 C255 1.377 . S
C240 C238 1.389 . S
C240 C241 1.524 . S
C240 C254 1.377 . S
C241 C240 1.524 . S
C241 C242 1.397 . S
C241 C246 1.363 . S
C242 H219 0.950 . S
C242 C241 1.397 . S
C242 C243 1.334 1_554 S
C243 H220 0.950 . S
C243 C242 1.334 1_556 S
C243 C244 1.287 . S
C244 C243 1.287 . S
C244 C245 1.524 1_556 S
C244 H263 0.913 . S
C245 H221 0.950 . S
C245 C244 1.524 1_554 S
C245 C246 1.415 . S
C246 H222 0.950 . S
C246 C241 1.363 . S
C246 C245 1.415 . S
C247 H223 0.951 . S
C247 C248 1.366 . S
C247 C249 1.388 . S
C248 C247 1.366 . S
C248 C252 1.385 . S
C249 H224 0.951 . S
C249 C247 1.388 . S
C249 C250 1.366 . S
C250 C249 1.366 . S
C250 C251 1.414 . S
C250 C253 1.499 . S
C251 H225 0.950 . S
C251 C250 1.414 . S
C251 C252 1.374 . S
C252 H226 0.950 . S
C252 C248 1.385 . S
C252 C251 1.374 . S
C253 C250 1.499 . S
C253 C254 1.373 . S
C253 C255 1.389 . S
C254 H227 0.950 . S
C254 C240 1.377 . S
C254 C253 1.373 . S
C255 C239 1.377 . S
C255 C253 1.389 . S
C255 C256 1.524 . S
C256 C255 1.524 . S
C256 C257 1.397 . S
C256 C261 1.363 . S
C257 H228 0.950 . S
C257 C256 1.397 . S
C257 C258 1.334 . S
C258 H229 0.950 . S
C258 C257 1.334 . S
C258 C259 1.287 . S
C259 C258 1.287 . S
C259 C260 1.524 . S
C259 H262 0.999 . S
C260 H230 0.950 . S
C260 C259 1.524 . S
C260 C261 1.415 . S
C261 H231 0.950 . S
C261 C256 1.363 . S
C261 C260 1.415 . S
H262 C259 0.999 . S
H263 C244 0.913 . S
H264 C282 0.951 . S
H265 C284 0.951 . S
H266 C286 0.950 . S
H267 C287 0.950 . S
H268 C289 0.950 . S
H269 C292 0.950 . S
H270 C293 0.950 . S
H271 C295 0.950 . S
H272 C296 0.950 . S
H273 C297 0.951 . S
H274 C299 0.951 . S
H275 C301 0.950 . S
H276 C302 0.950 1_545 S
H277 C304 0.950 . S
H278 C307 0.950 . S
H279 C308 0.950 . S
H280 C310 0.950 . S
H281 C311 0.950 . S
C282 H264 0.951 . S
C282 C283 1.366 . S
C282 C284 1.388 . S
C283 C282 1.366 . S
C283 C287 1.385 . S
C284 H265 0.951 . S
C284 C282 1.388 . S
C284 C285 1.366 . S
C285 C284 1.366 . S
C285 C286 1.414 . S
C285 C288 1.499 . S
C286 H266 0.950 . S
C286 C285 1.414 . S
C286 C287 1.374 . S
C287 H267 0.950 . S
C287 C283 1.385 . S
C287 C286 1.374 . S
C288 C285 1.499 . S
C288 C289 1.373 . S
C288 C290 1.389 . S
C289 H268 0.950 . S
C289 C288 1.373 . S
C289 C305 1.377 . S
C290 C288 1.389 . S
C290 C291 1.524 . S
C290 C304 1.377 . S
C291 C290 1.524 . S
C291 C292 1.397 . S
C291 C296 1.363 . S
C292 H269 0.950 . S
C292 C291 1.397 . S
C292 C293 1.334 . S
C293 H270 0.950 . S
C293 C292 1.334 . S
C293 C294 1.289 . S
C294 C293 1.289 . S
C294 C295 1.523 1_565 S
C294 H313 0.912 1_565 S
C295 H271 0.950 . S
C295 C294 1.523 1_545 S
C295 C296 1.415 1_545 S
C296 H272 0.950 . S
C296 C291 1.363 . S
C296 C295 1.415 1_565 S
C297 H273 0.951 . S
C297 C298 1.366 . S
C297 C299 1.388 . S
C298 C297 1.366 . S
C298 C302 1.385 . S
C299 H274 0.951 . S
C299 C297 1.388 . S
C299 C300 1.366 . S
C300 C299 1.366 . S
C300 C301 1.414 . S
C300 C303 1.499 . S
C301 H275 0.950 . S
C301 C300 1.414 . S
C301 C302 1.374 . S
C302 H276 0.950 1_565 S
C302 C298 1.385 . S
C302 C301 1.374 . S
C303 C300 1.499 . S
C303 C304 1.373 . S
C303 C305 1.389 . S
C304 H277 0.950 . S
C304 C290 1.377 . S
C304 C303 1.373 . S
C305 C289 1.377 . S
C305 C303 1.389 . S
C305 C306 1.524 . S
C306 C305 1.524 . S
C306 C307 1.397 . S
C306 C311 1.363 . S
C307 H278 0.950 . S
C307 C306 1.397 . S
C307 C308 1.334 . S
C308 H279 0.950 . S
C308 C307 1.334 . S
C308 C309 1.287 1_455 S
C309 C308 1.287 1_655 S
C309 C310 1.524 . S
C309 H312 0.999 . S
C310 H280 0.950 . S
C310 C309 1.524 . S
C310 C311 1.415 1_655 S
C311 H281 0.950 . S
C311 C306 1.363 . S
C311 C310 1.415 1_455 S
H312 C309 0.999 . S
H313 C294 0.912 1_545 S
H314 C332 0.951 . S
H315 C334 0.951 . S
H316 C336 0.950 . S
H317 C337 0.950 . S
H318 C339 0.950 . S
H319 C342 0.950 . S
H320 C343 0.950 . S
H321 C345 0.950 . S
H322 C346 0.950 . S
H323 C347 0.951 . S
H324 C349 0.951 . S
H325 C351 0.950 . S
H326 C352 0.950 . S
H327 C354 0.950 . S
H328 C357 0.950 . S
H329 C358 0.950 . S
H330 C360 0.950 . S
H331 C361 0.950 . S
C332 H314 0.951 . S
C332 C333 1.366 . S
C332 C334 1.388 . S
C333 C332 1.366 . S
C333 C337 1.385 . S
C334 H315 0.951 . S
C334 C332 1.388 . S
C334 C335 1.366 . S
C335 C334 1.366 . S
C335 C336 1.414 . S
C335 C338 1.499 . S
C336 H316 0.950 . S
C336 C335 1.414 . S
C336 C337 1.374 . S
C337 H317 0.950 . S
C337 C333 1.385 . S
C337 C336 1.374 . S
C338 C335 1.499 . S
C338 C339 1.373 . S
C338 C340 1.389 . S
C339 H318 0.950 . S
C339 C338 1.373 . S
C339 C355 1.377 . S
C340 C338 1.389 . S
C340 C341 1.524 . S
C340 C354 1.377 . S
C341 C340 1.524 . S
C341 C342 1.397 . S
C341 C346 1.363 . S
C342 H319 0.950 . S
C342 C341 1.397 . S
C342 C343 1.334 . S
C343 H320 0.950 . S
C343 C342 1.334 . S
C343 C344 1.287 . S
C344 C343 1.287 . S
C344 C345 1.524 . S
C344 H363 0.913 . S
C345 H321 0.950 . S
C345 C344 1.524 . S
C345 C346 1.415 . S
C346 H322 0.950 . S
C346 C341 1.363 . S
C346 C345 1.415 . S
C347 H323 0.951 . S
C347 C348 1.366 . S
C347 C349 1.388 . S
C348 C347 1.366 . S
C348 C352 1.385 . S
C349 H324 0.951 . S
C349 C347 1.388 . S
C349 C350 1.366 . S
C350 C349 1.366 . S
C350 C351 1.414 . S
C350 C353 1.499 . S
C351 H325 0.950 . S
C351 C350 1.414 . S
C351 C352 1.374 . S
C352 H326 0.950 . S
C352 C348 1.385 . S
C352 C351 1.374 . S
C353 C350 1.499 . S
C353 C354 1.373 . S
C353 C355 1.389 . S
C354 H327 0.950 . S
C354 C340 1.377 . S
C354 C353 1.373 . S
C355 C339 1.377 . S
C355 C353 1.389 . S
C355 C356 1.524 . S
C356 C355 1.524 . S
C356 C357 1.397 . S
C356 C361 1.363 . S
C357 H328 0.950 . S
C357 C356 1.397 . S
C357 C358 1.334 1_455 S
C358 H329 0.950 . S
C358 C357 1.334 1_655 S
C358 C359 1.287 1_655 S
C359 C358 1.287 1_455 S
C359 C360 1.524 . S
C359 H362 0.999 1_455 S
C360 H330 0.950 . S
C360 C359 1.524 . S
C360 C361 1.415 . S
C361 H331 0.950 . S
C361 C356 1.363 . S
C361 C360 1.415 . S
H362 C359 0.999 1_655 S
H363 C344 0.913 . S
H364 C382 0.951 . S
H365 C384 0.951 . S
H366 C386 0.950 . S
H367 C387 0.950 . S
H368 C389 0.950 . S
H369 C392 0.950 . S
H370 C393 0.950 . S
H371 C395 0.950 . S
H372 C396 0.950 . S
H373 C397 0.951 . S
H374 C399 0.951 . S
H375 C401 0.950 . S
H376 C402 0.950 . S
H377 C404 0.950 . S
H378 C407 0.950 . S
H379 C408 0.950 . S
H380 C410 0.950 . S
H381 C411 0.950 . S
C382 H364 0.951 . S
C382 C383 1.366 . S
C382 C384 1.388 . S
C383 C382 1.366 . S
C383 C387 1.385 . S
C384 H365 0.951 . S
C384 C382 1.388 . S
C384 C385 1.366 . S
C385 C384 1.366 . S
C385 C386 1.414 . S
C385 C388 1.499 . S
C386 H366 0.950 . S
C386 C385 1.414 . S
C386 C387 1.374 . S
C387 H367 0.950 . S
C387 C383 1.385 . S
C387 C386 1.374 . S
C388 C385 1.499 . S
C388 C389 1.373 . S
C388 C390 1.389 . S
C389 H368 0.950 . S
C389 C388 1.373 . S
C389 C405 1.377 . S
C390 C388 1.389 . S
C390 C391 1.524 . S
C390 C404 1.377 . S
C391 C390 1.524 . S
C391 C392 1.397 . S
C391 C396 1.363 . S
C392 H369 0.950 . S
C392 C391 1.397 . S
C392 C393 1.334 . S
C393 H370 0.950 . S
C393 C392 1.334 . S
C393 C394 1.287 . S
C394 C393 1.287 . S
C394 C395 1.524 . S
C394 H413 0.913 . S
C395 H371 0.950 . S
C395 C394 1.524 . S
C395 C396 1.415 . S
C396 H372 0.950 . S
C396 C391 1.363 . S
C396 C395 1.415 . S
C397 H373 0.951 . S
C397 C398 1.366 . S
C397 C399 1.388 . S
C398 C397 1.366 . S
C398 C402 1.385 . S
C399 H374 0.951 . S
C399 C397 1.388 . S
C399 C400 1.366 . S
C400 C399 1.366 . S
C400 C401 1.414 . S
C400 C403 1.499 . S
C401 H375 0.950 . S
C401 C400 1.414 . S
C401 C402 1.374 . S
C402 H376 0.950 . S
C402 C398 1.385 . S
C402 C401 1.374 . S
C403 C400 1.499 . S
C403 C404 1.373 . S
C403 C405 1.389 . S
C404 H377 0.950 . S
C404 C390 1.377 . S
C404 C403 1.373 . S
C405 C389 1.377 . S
C405 C403 1.389 . S
C405 C406 1.524 . S
C406 C405 1.524 . S
C406 C407 1.397 . S
C406 C411 1.363 . S
C407 H378 0.950 . S
C407 C406 1.397 . S
C407 C408 1.334 . S
C408 H379 0.950 . S
C408 C407 1.334 . S
C408 C409 1.287 . S
C409 C408 1.287 . S
C409 C410 1.524 . S
C409 H412 0.999 . S
C410 H380 0.950 . S
C410 C409 1.524 . S
C410 C411 1.415 . S
C411 H381 0.950 . S
C411 C406 1.363 . S
C411 C410 1.415 . S
H412 C409 0.999 . S
H413 C394 0.913 . S
H414 C432 0.951 . S
H415 C434 0.951 . S
H416 C436 0.950 . S
H417 C437 0.950 . S
H418 C439 0.950 . S
H419 C442 0.950 . S
H420 C443 0.950 . S
H421 C445 0.954 . S
H422 C446 0.950 . S
H423 C447 0.951 1_565 S
H424 C449 0.951 . S
H425 C451 0.950 . S
H426 C452 0.950 . S
H427 C454 0.950 . S
H428 C457 0.950 . S
H429 C458 0.950 . S
H430 C460 0.950 1_565 S
H431 C461 0.950 . S
C432 H414 0.951 . S
C432 C433 1.366 . S
C432 C434 1.388 . S
C433 C432 1.366 . S
C433 C437 1.385 . S
C434 H415 0.951 . S
C434 C432 1.388 . S
C434 C435 1.366 . S
C435 C434 1.366 . S
C435 C436 1.414 . S
C435 C438 1.499 . S
C436 H416 0.950 . S
C436 C435 1.414 . S
C436 C437 1.374 . S
C437 H417 0.950 . S
C437 C433 1.385 . S
C437 C436 1.374 . S
C438 C435 1.499 . S
C438 C439 1.373 . S
C438 C440 1.389 . S
C439 H418 0.950 . S
C439 C438 1.373 . S
C439 C455 1.377 . S
C440 C438 1.389 . S
C440 C441 1.524 . S
C440 C454 1.377 . S
C441 C440 1.524 . S
C441 C442 1.397 . S
C441 C446 1.363 . S
C442 H419 0.950 . S
C442 C441 1.397 . S
C442 C443 1.334 . S
C443 H420 0.950 . S
C443 C442 1.334 . S
C443 C444 1.287 . S
C444 C443 1.287 . S
C444 C445 1.525 1_655 S
C444 H463 0.913 . S
C445 H421 0.954 . S
C445 C444 1.525 1_455 S
C445 C446 1.409 1_455 S
C446 H422 0.950 . S
C446 C441 1.363 . S
C446 C445 1.409 1_655 S
C447 H423 0.951 1_545 S
C447 C448 1.366 . S
C447 C449 1.388 . S
C448 C447 1.366 . S
C448 C452 1.385 . S
C449 H424 0.951 . S
C449 C447 1.388 . S
C449 C450 1.366 . S
C450 C449 1.366 . S
C450 C451 1.414 . S
C450 C453 1.499 . S
C451 H425 0.950 . S
C451 C450 1.414 . S
C451 C452 1.374 . S
C452 H426 0.950 . S
C452 C448 1.385 . S
C452 C451 1.374 . S
C453 C450 1.499 . S
C453 C454 1.373 . S
C453 C455 1.389 . S
C454 H427 0.950 . S
C454 C440 1.377 . S
C454 C453 1.373 . S
C455 C439 1.377 . S
C455 C453 1.389 . S
C455 C456 1.524 . S
C456 C455 1.524 . S
C456 C457 1.397 . S
C456 C461 1.363 . S
C457 H428 0.950 . S
C457 C456 1.397 . S
C457 C458 1.334 . S
C458 H429 0.950 . S
C458 C457 1.334 . S
C458 C459 1.287 . S
C459 C458 1.287 . S
C459 C460 1.524 . S
C459 H462 0.999 . S
C460 H430 0.950 1_545 S
C460 C459 1.524 . S
C460 C461 1.415 . S
C461 H431 0.950 . S
C461 C456 1.363 . S
C461 C460 1.415 . S
H462 C459 0.999 . S
H463 C444 0.913 . S
H464 C482 0.951 . S
H465 C484 0.951 . S
H466 C486 0.950 . S
H467 C487 0.950 . S
H468 C489 0.950 . S
H469 C492 0.950 . S
H470 C493 0.950 . S
H471 C495 0.950 . S
H472 C496 0.950 . S
H473 C497 0.951 . S
H474 C499 0.951 . S
H475 C501 0.950 . S
H476 C502 0.950 . S
H477 C504 0.950 . S
H478 C507 0.950 . S
H479 C508 0.950 . S
H480 C510 0.950 . S
H481 C511 0.950 . S
C482 H464 0.951 . S
C482 C483 1.366 . S
C482 C484 1.388 . S
C483 C482 1.366 . S
C483 C487 1.385 . S
C484 H465 0.951 . S
C484 C482 1.388 . S
C484 C485 1.366 . S
C485 C484 1.366 . S
C485 C486 1.414 . S
C485 C488 1.499 . S
C486 H466 0.950 . S
C486 C485 1.414 . S
C486 C487 1.374 . S
C487 H467 0.950 . S
C487 C483 1.385 . S
C487 C486 1.374 . S
C488 C485 1.499 . S
C488 C489 1.373 . S
C488 C490 1.389 . S
C489 H468 0.950 . S
C489 C488 1.373 . S
C489 C505 1.377 . S
C490 C488 1.389 . S
C490 C491 1.524 . S
C490 C504 1.377 . S
C491 C490 1.524 . S
C491 C492 1.397 . S
C491 C496 1.363 . S
C492 H469 0.950 . S
C492 C491 1.397 . S
C492 C493 1.334 . S
C493 H470 0.950 . S
C493 C492 1.334 . S
C493 C494 1.287 . S
C494 C493 1.287 . S
C494 C495 1.524 . S
C494 H513 0.913 . S
C495 H471 0.950 . S
C495 C494 1.524 . S
C495 C496 1.415 . S
C496 H472 0.950 . S
C496 C491 1.363 . S
C496 C495 1.415 . S
C497 H473 0.951 . S
C497 C498 1.366 . S
C497 C499 1.388 . S
C498 C497 1.366 . S
C498 C502 1.385 . S
C499 H474 0.951 . S
C499 C497 1.388 . S
C499 C500 1.366 . S
C500 C499 1.366 . S
C500 C501 1.414 . S
C500 C503 1.499 . S
C501 H475 0.950 . S
C501 C500 1.414 . S
C501 C502 1.374 . S
C502 H476 0.950 . S
C502 C498 1.385 . S
C502 C501 1.374 . S
C503 C500 1.499 . S
C503 C504 1.373 . S
C503 C505 1.389 . S
C504 H477 0.950 . S
C504 C490 1.377 . S
C504 C503 1.373 . S
C505 C489 1.377 . S
C505 C503 1.389 . S
C505 C506 1.524 . S
C506 C505 1.524 . S
C506 C507 1.397 . S
C506 C511 1.363 . S
C507 H478 0.950 . S
C507 C506 1.397 . S
C507 C508 1.334 . S
C508 H479 0.950 . S
C508 C507 1.334 . S
C508 C509 1.287 1_655 S
C509 C508 1.287 1_455 S
C509 C510 1.524 . S
C509 H512 0.999 . S
C510 H480 0.950 . S
C510 C509 1.524 . S
C510 C511 1.415 1_455 S
C511 H481 0.950 . S
C511 C506 1.363 . S
C511 C510 1.415 1_655 S
H512 C509 0.999 . S
H513 C494 0.913 . S
H514 C532 0.951 . S
H515 C534 0.951 . S
H516 C536 0.950 . S
H517 C537 0.950 . S
H518 C539 0.950 . S
H519 C542 0.950 . S
H520 C543 0.950 . S
H521 C545 0.950 . S
H522 C546 0.950 . S
H523 C547 0.951 . S
H524 C549 0.951 . S
H525 C551 0.950 . S
H526 C552 0.950 . S
H527 C554 0.950 . S
H528 C557 0.950 . S
H529 C558 0.950 . S
H530 C560 0.950 . S
H531 C561 0.950 . S
C532 H514 0.951 . S
C532 C533 1.366 . S
C532 C534 1.388 . S
C533 C532 1.366 . S
C533 C537 1.385 . S
C534 H515 0.951 . S
C534 C532 1.388 . S
C534 C535 1.366 . S
C535 C534 1.366 . S
C535 C536 1.414 . S
C535 C538 1.499 . S
C536 H516 0.950 . S
C536 C535 1.414 . S
C536 C537 1.374 . S
C537 H517 0.950 . S
C537 C533 1.385 . S
C537 C536 1.374 . S
C538 C535 1.499 . S
C538 C539 1.373 . S
C538 C540 1.389 . S
C539 H518 0.950 . S
C539 C538 1.373 . S
C539 C555 1.377 . S
C540 C538 1.389 . S
C540 C541 1.524 . S
C540 C554 1.377 . S
C541 C540 1.524 . S
C541 C542 1.397 . S
C541 C546 1.363 . S
C542 H519 0.950 . S
C542 C541 1.397 . S
C542 C543 1.334 . S
C543 H520 0.950 . S
C543 C542 1.334 . S
C543 C544 1.287 . S
C544 C543 1.287 . S
C544 C545 1.524 . S
C544 H563 0.913 . S
C545 H521 0.950 . S
C545 C544 1.524 . S
C545 C546 1.415 . S
C546 H522 0.950 . S
C546 C541 1.363 . S
C546 C545 1.415 . S
C547 H523 0.951 . S
C547 C548 1.366 . S
C547 C549 1.388 . S
C548 C547 1.366 . S
C548 C552 1.385 . S
C549 H524 0.951 . S
C549 C547 1.388 . S
C549 C550 1.366 . S
C550 C549 1.366 . S
C550 C551 1.414 . S
C550 C553 1.499 . S
C551 H525 0.950 . S
C551 C550 1.414 . S
C551 C552 1.374 . S
C552 H526 0.950 . S
C552 C548 1.385 . S
C552 C551 1.374 . S
C553 C550 1.499 . S
C553 C554 1.373 . S
C553 C555 1.389 . S
C554 H527 0.950 . S
C554 C540 1.377 . S
C554 C553 1.373 . S
C555 C539 1.377 . S
C555 C553 1.389 . S
C555 C556 1.524 . S
C556 C555 1.524 . S
C556 C557 1.397 . S
C556 C561 1.363 . S
C557 H528 0.950 . S
C557 C556 1.397 . S
C557 C558 1.334 . S
C558 H529 0.950 . S
C558 C557 1.334 . S
C558 C559 1.287 . S
C559 C558 1.287 . S
C559 C560 1.524 . S
C559 H562 0.999 . S
C560 H530 0.950 . S
C560 C559 1.524 . S
C560 C561 1.415 . S
C561 H531 0.950 . S
C561 C556 1.363 . S
C561 C560 1.415 . S
H562 C559 0.999 . S
H563 C544 0.913 . S
H564 C582 0.951 . S
H565 C584 0.951 . S
H566 C586 0.950 . S
H567 C587 0.950 . S
H568 C589 0.950 . S
H569 C592 0.950 . S
H570 C593 0.950 . S
H571 C595 0.950 . S
H572 C596 0.950 . S
H573 C597 0.951 . S
H574 C599 0.951 . S
H575 C601 0.950 . S
H576 C602 0.950 . S
H577 C604 0.950 . S
H578 C607 0.950 . S
H579 C608 0.950 . S
H580 C610 0.950 . S
H581 C611 0.950 . S
C582 H564 0.951 . S
C582 C583 1.366 . S
C582 C584 1.388 . S
C583 C582 1.366 . S
C583 C587 1.385 . S
C584 H565 0.951 . S
C584 C582 1.388 . S
C584 C585 1.366 . S
C585 C584 1.366 . S
C585 C586 1.414 . S
C585 C588 1.499 . S
C586 H566 0.950 . S
C586 C585 1.414 . S
C586 C587 1.374 . S
C587 H567 0.950 . S
C587 C583 1.385 . S
C587 C586 1.374 . S
C588 C585 1.499 . S
C588 C589 1.373 . S
C588 C590 1.389 1_554 S
C589 H568 0.950 . S
C589 C588 1.373 . S
C589 C605 1.377 . S
C590 C588 1.389 1_556 S
C590 C591 1.524 . S
C590 C604 1.377 . S
C591 C590 1.524 . S
C591 C592 1.397 . S
C591 C596 1.363 . S
C592 H569 0.950 . S
C592 C591 1.397 . S
C592 C593 1.334 . S
C593 H570 0.950 . S
C593 C592 1.334 . S
C593 C594 1.287 . S
C594 C593 1.287 . S
C594 C595 1.524 . S
C594 H613 0.913 . S
C595 H571 0.950 . S
C595 C594 1.524 . S
C595 C596 1.415 . S
C596 H572 0.950 . S
C596 C591 1.363 . S
C596 C595 1.415 . S
C597 H573 0.951 . S
C597 C598 1.366 . S
C597 C599 1.388 . S
C598 C597 1.366 . S
C598 C602 1.385 . S
C599 H574 0.951 . S
C599 C597 1.388 . S
C599 C600 1.366 . S
C600 C599 1.366 . S
C600 C601 1.414 . S
C600 C603 1.499 . S
C601 H575 0.950 . S
C601 C600 1.414 . S
C601 C602 1.374 . S
C602 H576 0.950 . S
C602 C598 1.385 . S
C602 C601 1.374 . S
C603 C600 1.499 . S
C603 C604 1.373 . S
C603 C605 1.389 1_556 S
C604 H577 0.950 . S
C604 C590 1.377 . S
C604 C603 1.373 . S
C605 C589 1.377 . S
C605 C603 1.389 1_554 S
C605 C606 1.524 . S
C606 C605 1.524 . S
C606 C607 1.397 . S
C606 C611 1.363 . S
C607 H578 0.950 . S
C607 C606 1.397 . S
C607 C608 1.334 . S
C608 H579 0.950 . S
C608 C607 1.334 . S
C608 C609 1.287 . S
C609 C608 1.287 . S
C609 C610 1.524 . S
C609 H612 0.999 . S
C610 H580 0.950 . S
C610 C609 1.524 . S
C610 C611 1.415 . S
C611 H581 0.950 . S
C611 C606 1.363 . S
C611 C610 1.415 . S
H612 C609 0.999 . S
H613 C594 0.913 . S
H614 C632 0.951 . S
H615 C634 0.951 . S
H616 C636 0.950 . S
H617 C637 0.950 . S
H618 C639 0.953 . S
H619 C642 0.950 . S
H620 C643 0.950 1_556 S
H621 C645 0.950 . S
H622 C646 0.950 . S
H623 C647 0.951 . S
H624 C649 0.951 . S
H625 C651 0.950 . S
H626 C652 0.950 . S
H627 C654 0.953 . S
H628 C657 0.950 . S
H629 C658 0.950 1_554 S
H630 C660 0.950 . S
H631 C661 0.950 . S
C632 H614 0.951 . S
C632 C633 1.366 . S
C632 C634 1.388 . S
C633 C632 1.366 . S
C633 C637 1.385 . S
C634 H615 0.951 . S
C634 C632 1.388 . S
C634 C635 1.366 . S
C635 C634 1.366 . S
C635 C636 1.414 . S
C635 C638 1.499 . S
C636 H616 0.950 . S
C636 C635 1.414 . S
C636 C637 1.374 . S
C637 H617 0.950 . S
C637 C633 1.385 . S
C637 C636 1.374 . S
C638 C635 1.499 . S
C638 C639 1.365 1_565 S
C638 C640 1.389 1_556 S
C639 H618 0.953 . S
C639 C638 1.365 1_545 S
C639 C655 1.382 . S
C640 C638 1.389 1_554 S
C640 C641 1.524 . S
C640 C654 1.382 . S
C641 C640 1.524 . S
C641 C642 1.397 1_554 S
C641 C646 1.363 . S
C642 H619 0.950 . S
C642 C641 1.397 1_556 S
C642 C643 1.334 1_556 S
C643 H620 0.950 1_554 S
C643 C642 1.334 1_554 S
C643 C644 1.287 . S
C644 C643 1.287 . S
C644 C645 1.524 . S
C644 H663 0.913 . S
C645 H621 0.950 . S
C645 C644 1.524 . S
C645 C646 1.415 . S
C646 H622 0.950 . S
C646 C641 1.363 . S
C646 C645 1.415 . S
C647 H623 0.951 . S
C647 C648 1.366 . S
C647 C649 1.388 . S
C648 C647 1.366 . S
C648 C652 1.385 . S
C649 H624 0.951 . S
C649 C647 1.388 . S
C649 C650 1.366 . S
C650 C649 1.366 . S
C650 C651 1.414 . S
C650 C653 1.499 . S
C651 H625 0.950 . S
C651 C650 1.414 . S
C651 C652 1.374 . S
C652 H626 0.950 . S
C652 C648 1.385 . S
C652 C651 1.374 . S
C653 C650 1.499 . S
C653 C654 1.365 1_545 S
C653 C655 1.389 1_554 S
C654 H627 0.953 . S
C654 C640 1.382 . S
C654 C653 1.365 1_565 S
C655 C639 1.382 . S
C655 C653 1.389 1_556 S
C655 C656 1.524 . S
C656 C655 1.524 . S
C656 C657 1.397 1_556 S
C656 C661 1.363 . S
C657 H628 0.950 . S
C657 C656 1.397 1_554 S
C657 C658 1.334 1_554 S
C658 H629 0.950 1_556 S
C658 C657 1.334 1_556 S
C658 C659 1.287 . S
C659 C658 1.287 . S
C659 C660 1.524 . S
C659 H662 0.999 . S
C660 H630 0.950 . S
C660 C659 1.524 . S
C660 C661 1.415 . S
C661 H631 0.950 . S
C661 C656 1.363 . S
C661 C660 1.415 . S
H662 C659 0.999 . S
H663 C644 0.913 . S
H664 C682 0.951 . S
H665 C684 0.951 . S
H666 C686 0.950 . S
H667 C687 0.950 . S
H668 C689 0.950 . S
H669 C692 0.950 . S
H670 C693 0.950 . S
H671 C695 0.962 . S
H672 C696 0.947 1_554 S
H673 C697 0.951 . S
H674 C699 0.951 . S
H675 C701 0.950 . S
H676 C702 0.950 . S
H677 C704 0.950 . S
H678 C707 0.950 . S
H679 C708 0.950 . S
H680 C710 0.962 . S
H681 C711 0.947 1_556 S
C682 H664 0.951 . S
C682 C683 1.366 . S
C682 C684 1.388 . S
C683 C682 1.366 . S
C683 C687 1.385 . S
C684 H665 0.951 . S
C684 C682 1.388 . S
C684 C685 1.366 . S
C685 C684 1.366 . S
C685 C686 1.414 . S
C685 C688 1.499 . S
C686 H666 0.950 . S
C686 C685 1.414 . S
C686 C687 1.374 . S
C687 H667 0.950 . S
C687 C683 1.385 . S
C687 C686 1.374 . S
C688 C685 1.499 . S
C688 C689 1.373 . S
C688 C690 1.389 1_455 S
C689 H668 0.950 . S
C689 C688 1.373 . S
C689 C705 1.377 1_556 S
C690 C688 1.389 1_655 S
C690 C691 1.524 . S
C690 C704 1.377 1_556 S
C691 C690 1.524 . S
C691 C692 1.397 . S
C691 C696 1.355 1_655 S
C692 H669 0.950 . S
C692 C691 1.397 . S
C692 C693 1.334 . S
C693 H670 0.950 . S
C693 C692 1.334 . S
C693 C694 1.287 . S
C694 C693 1.287 . S
C694 C695 1.524 . S
C694 H713 0.913 . S
C695 H671 0.962 . S
C695 C694 1.524 . S
C695 C696 1.427 1_655 S
C696 H672 0.947 1_556 S
C696 C691 1.355 1_455 S
C696 C695 1.427 1_455 S
C697 H673 0.951 . S
C697 C698 1.366 . S
C697 C699 1.388 . S
C698 C697 1.366 . S
C698 C702 1.385 . S
C699 H674 0.951 . S
C699 C697 1.388 . S
C699 C700 1.366 . S
C700 C699 1.366 . S
C700 C701 1.414 . S
C700 C703 1.499 . S
C701 H675 0.950 . S
C701 C700 1.414 . S
C701 C702 1.374 . S
C702 H676 0.950 . S
C702 C698 1.385 . S
C702 C701 1.374 . S
C703 C700 1.499 . S
C703 C704 1.373 . S
C703 C705 1.389 1_655 S
C704 H677 0.950 . S
C704 C690 1.377 1_554 S
C704 C703 1.373 . S
C705 C689 1.377 1_554 S
C705 C703 1.389 1_455 S
C705 C706 1.524 . S
C706 C705 1.524 . S
C706 C707 1.397 . S
C706 C711 1.355 1_455 S
C707 H678 0.950 . S
C707 C706 1.397 . S
C707 C708 1.334 . S
C708 H679 0.950 . S
C708 C707 1.334 . S
C708 C709 1.287 . S
C709 C708 1.287 . S
C709 C710 1.524 . S
C709 H712 0.999 . S
C710 H680 0.962 . S
C710 C709 1.524 . S
C710 C711 1.427 1_455 S
C711 H681 0.947 1_554 S
C711 C706 1.355 1_655 S
C711 C710 1.427 1_655 S
H712 C709 0.999 . S
H713 C694 0.913 . S
C133 C24 0.666 . S
C148 C12 0.666 . S
C183 C50 0.669 . S
C198 C62 0.669 . S
C233 C88 0.669 . S
C248 C100 0.669 . S
C283 C94 2.062 . S
C298 C31 2.061 . S
C333 C91 1.179 . S
C348 C30 1.177 . S
C383 C103 2.291 . S
C398 C10 2.291 . S
C433 C69 2.062 . S
C448 C18 2.062 . S
C483 C68 1.179 . S
C498 C15 1.181 . S
C533 C48 2.291 . S
C548 C27 2.291 . S
C583 C56 2.061 . S
C598 C107 2.061 . S
C633 C106 1.180 . S
C648 C53 1.180 . S
C683 C86 2.291 . S
C698 C65 2.291 . S
