# Generated by pormake.
# Topology wlh, (5)-cn, num edge types: 1
# Building blocks:
#     Node 0, Type 0, BuildingBlock: XOMCOT_clean_sbu_0, # of connection points: 5
#     Node 1, Type 0, BuildingBlock: XOMCOT_clean_sbu_0, # of connection points: 5
#     Node 2, Type 0, BuildingBlock: XOMCOT_clean_sbu_0, # of connection points: 5
#     Node 3, Type 0, BuildingBlock: XOMCOT_clean_sbu_0, # of connection points: 5
#     Node 4, Type 0, BuildingBlock: XOMCOT_clean_sbu_0, # of connection points: 5
#     Node 5, Type 0, BuildingBlock: XOMCOT_clean_sbu_0, # of connection points: 5
#     Node 6, Type 0, BuildingBlock: XOMCOT_clean_sbu_0, # of connection points: 5
#     Node 7, Type 0, BuildingBlock: XOMCOT_clean_sbu_0, # of connection points: 5
#     Node 8, Type 0, BuildingBlock: XOMCOT_clean_sbu_0, # of connection points: 5
#     Node 9, Type 0, BuildingBlock: XOMCOT_clean_sbu_0, # of connection points: 5
#     Node 10, Type 0, BuildingBlock: XOMCOT_clean_sbu_0, # of connection points: 5
#     Node 11, Type 0, BuildingBlock: XOMCOT_clean_sbu_0, # of connection points: 5
#     Node 12, Type 0, BuildingBlock: XOMCOT_clean_sbu_0, # of connection points: 5
#     Node 13, Type 0, BuildingBlock: XOMCOT_clean_sbu_0, # of connection points: 5
#     Node 14, Type 0, BuildingBlock: XOMCOT_clean_sbu_0, # of connection points: 5
#     Node 15, Type 0, BuildingBlock: XOMCOT_clean_sbu_0, # of connection points: 5
#     Node 16, Type 0, BuildingBlock: XOMCOT_clean_sbu_0, # of connection points: 5
#     Node 17, Type 0, BuildingBlock: XOMCOT_clean_sbu_0, # of connection points: 5
#     Node 18, Type 0, BuildingBlock: XOMCOT_clean_sbu_0, # of connection points: 5
#     Node 19, Type 0, BuildingBlock: XOMCOT_clean_sbu_0, # of connection points: 5
#     Node 20, Type 0, BuildingBlock: XOMCOT_clean_sbu_0, # of connection points: 5
#     Node 21, Type 0, BuildingBlock: XOMCOT_clean_sbu_0, # of connection points: 5
#     Node 22, Type 0, BuildingBlock: XOMCOT_clean_sbu_0, # of connection points: 5
#     Node 23, Type 0, BuildingBlock: XOMCOT_clean_sbu_0, # of connection points: 5
#     Node 24, Type 0, BuildingBlock: XOMCOT_clean_sbu_0, # of connection points: 5
#     Node 25, Type 0, BuildingBlock: XOMCOT_clean_sbu_0, # of connection points: 5
#     Node 26, Type 0, BuildingBlock: XOMCOT_clean_sbu_0, # of connection points: 5
#     Node 27, Type 0, BuildingBlock: XOMCOT_clean_sbu_0, # of connection points: 5
#     Node 28, Type 0, BuildingBlock: XOMCOT_clean_sbu_0, # of connection points: 5
#     Node 29, Type 0, BuildingBlock: XOMCOT_clean_sbu_0, # of connection points: 5
#     Node 30, Type 0, BuildingBlock: XOMCOT_clean_sbu_0, # of connection points: 5
#     Node 31, Type 0, BuildingBlock: XOMCOT_clean_sbu_0, # of connection points: 5
#     Node 32, Type 0, BuildingBlock: XOMCOT_clean_sbu_0, # of connection points: 5
#     Node 33, Type 0, BuildingBlock: XOMCOT_clean_sbu_0, # of connection points: 5
#     Node 34, Type 0, BuildingBlock: XOMCOT_clean_sbu_0, # of connection points: 5
#     Node 35, Type 0, BuildingBlock: XOMCOT_clean_sbu_0, # of connection points: 5
#     Edge 36, Type (0, 0), None
#     Edge 37, Type (0, 0), None
#     Edge 38, Type (0, 0), None
#     Edge 39, Type (0, 0), None
#     Edge 40, Type (0, 0), None
#     Edge 41, Type (0, 0), None
#     Edge 42, Type (0, 0), None
#     Edge 43, Type (0, 0), None
#     Edge 44, Type (0, 0), None
#     Edge 45, Type (0, 0), None
#     Edge 46, Type (0, 0), None
#     Edge 47, Type (0, 0), None
#     Edge 48, Type (0, 0), None
#     Edge 49, Type (0, 0), None
#     Edge 50, Type (0, 0), None
#     Edge 51, Type (0, 0), None
#     Edge 52, Type (0, 0), None
#     Edge 53, Type (0, 0), None
#     Edge 54, Type (0, 0), None
#     Edge 55, Type (0, 0), None
#     Edge 56, Type (0, 0), None
#     Edge 57, Type (0, 0), None
#     Edge 58, Type (0, 0), None
#     Edge 59, Type (0, 0), None
#     Edge 60, Type (0, 0), None
#     Edge 61, Type (0, 0), None
#     Edge 62, Type (0, 0), None
#     Edge 63, Type (0, 0), None
#     Edge 64, Type (0, 0), None
#     Edge 65, Type (0, 0), None
#     Edge 66, Type (0, 0), None
#     Edge 67, Type (0, 0), None
#     Edge 68, Type (0, 0), None
#     Edge 69, Type (0, 0), None
#     Edge 70, Type (0, 0), None
#     Edge 71, Type (0, 0), None
#     Edge 72, Type (0, 0), None
#     Edge 73, Type (0, 0), None
#     Edge 74, Type (0, 0), None
#     Edge 75, Type (0, 0), None
#     Edge 76, Type (0, 0), None
#     Edge 77, Type (0, 0), None
#     Edge 78, Type (0, 0), None
#     Edge 79, Type (0, 0), None
#     Edge 80, Type (0, 0), None
#     Edge 81, Type (0, 0), None
#     Edge 82, Type (0, 0), None
#     Edge 83, Type (0, 0), None
#     Edge 84, Type (0, 0), None
#     Edge 85, Type (0, 0), None
#     Edge 86, Type (0, 0), None
#     Edge 87, Type (0, 0), None
#     Edge 88, Type (0, 0), None
#     Edge 89, Type (0, 0), None
#     Edge 90, Type (0, 0), None
#     Edge 91, Type (0, 0), None
#     Edge 92, Type (0, 0), None
#     Edge 93, Type (0, 0), None
#     Edge 94, Type (0, 0), None
#     Edge 95, Type (0, 0), None
#     Edge 96, Type (0, 0), None
#     Edge 97, Type (0, 0), None
#     Edge 98, Type (0, 0), None
#     Edge 99, Type (0, 0), None
#     Edge 100, Type (0, 0), None
#     Edge 101, Type (0, 0), None
#     Edge 102, Type (0, 0), None
#     Edge 103, Type (0, 0), None
#     Edge 104, Type (0, 0), None
#     Edge 105, Type (0, 0), None
#     Edge 106, Type (0, 0), None
#     Edge 107, Type (0, 0), None
#     Edge 108, Type (0, 0), None
#     Edge 109, Type (0, 0), None
#     Edge 110, Type (0, 0), None
#     Edge 111, Type (0, 0), None
#     Edge 112, Type (0, 0), None
#     Edge 113, Type (0, 0), None
#     Edge 114, Type (0, 0), None
#     Edge 115, Type (0, 0), None
#     Edge 116, Type (0, 0), None
#     Edge 117, Type (0, 0), None
#     Edge 118, Type (0, 0), None
#     Edge 119, Type (0, 0), None
#     Edge 120, Type (0, 0), None
#     Edge 121, Type (0, 0), None
#     Edge 122, Type (0, 0), None
#     Edge 123, Type (0, 0), None
#     Edge 124, Type (0, 0), None
#     Edge 125, Type (0, 0), None
# Relax obj value: 0.370
# Max RMSD: 0.243
# Mean RMSD: 0.243
data_MOF--net-wlh--node1-XOMCOT_clean_sbu_0--edge1-none
_symmetry_space_group_name_H-M    P1
_symmetry_Int_Tables_number       1
_symmetry_cell_setting            triclinic
loop_
_symmetry_equiv_pos_as_xyz
'x, y, z'
_cell_length_a     19.24545
_cell_length_b     19.244665
_cell_length_c     81.953619
_cell_angle_alpha  89.999154
_cell_angle_beta   89.999595
_cell_angle_gamma 120.00003
loop_
_atom_site_label
_atom_site_type_symbol
_atom_site_fract_x
_atom_site_fract_y
_atom_site_fract_z
_atom_type_partial_charge
Co0 Co 0.13746 0.30018 0.18338 0.0
C1 C 0.09939 0.42361 0.16888 0.0
C2 C 0.9947 0.31931 0.17772 0.0
C3 C 0.97391 0.37522 0.17376 0.0
N4 N 0.0744 0.34978 0.17567 0.0
N5 N 1.03885 0.4408 0.16793 0.0
H6 H 0.16034 0.46427 0.16501 0.0
H7 H 0.95126 0.2592 0.18092 0.0
C8 C 0.97763 0.16702 0.19667 0.0
O9 O 0.97711 0.21869 0.20704 0.0
N10 N 0.20123 0.25172 0.19001 0.0
C11 C 0.27188 0.29065 0.19799 0.0
C12 C 0.2965 0.23688 0.20174 0.0
C13 C 0.18642 0.17547 0.18803 0.0
N14 N 0.24337 0.16475 0.19541 0.0
C15 C 0.10948 0.3855 0.21046 0.0
C16 C 0.11348 0.28731 0.23434 0.0
C17 C 0.07264 0.32869 0.23764 0.0
C18 C 0.07602 0.38338 0.22593 0.0
C19 C 0.13656 0.28392 0.21856 0.0
N20 N 0.13129 0.32969 0.20634 0.0
H21 H 0.11024 0.42695 0.20155 0.0
H22 H 0.14801 0.23569 0.21629 0.0
H23 H 0.3014 0.35315 0.20153 0.0
H24 H 0.13409 0.12858 0.1819 0.0
O25 O 0.23848 0.3937 0.17617 0.0
O26 O 0.16068 0.28601 0.1614 0.0
O27 O 1.03538 0.19001 0.18635 0.0
C28 C 0.22997 0.35117 0.16311 0.0
H29 H 0.91312 0.36484 0.17365 0.0
H30 H 0.35027 0.25021 0.20845 0.0
H31 H 0.11655 0.24749 0.24331 0.0
H32 H 0.04841 0.41956 0.22821 0.0
Co33 Co 0.77482 0.85226 0.18339 0.0
C34 C 0.65142 0.69074 0.16889 0.0
C35 C 0.75577 0.6904 0.17772 0.0
C36 C 0.69988 0.6137 0.17376 0.0
N37 N 0.72525 0.7396 0.17568 0.0
N38 N 0.63427 0.61301 0.16794 0.0
H39 H 0.61072 0.71099 0.16504 0.0
H40 H 0.8159 0.70711 0.1809 0.0
C41 C 0.90797 0.82561 0.19668 0.0
O42 O 0.85629 0.7734 0.20705 0.0
N43 N 0.82325 0.9645 0.19001 0.0
C44 C 0.78432 0.99622 0.19799 0.0
C45 C 0.83808 0.07462 0.20173 0.0
C46 C 0.8995 1.02594 0.18803 0.0
N47 N 0.91021 0.09362 0.1954 0.0
C48 C 0.6895 0.73897 0.21046 0.0
C49 C 0.78765 0.84118 0.23434 0.0
C50 C 0.74628 0.75896 0.23765 0.0
C51 C 0.69161 0.70765 0.22594 0.0
C52 C 0.79106 0.86765 0.21856 0.0
N53 N 0.7453 0.81659 0.20634 0.0
H54 H 0.64806 0.69827 0.20155 0.0
H55 H 0.83928 0.92733 0.21629 0.0
H56 H 0.72182 0.96323 0.20153 0.0
H57 H 0.94639 1.0205 0.1819 0.0
O58 O 0.6813 0.85974 0.17617 0.0
O59 O 0.78899 0.88964 0.16141 0.0
O60 O 0.88499 0.86037 0.18636 0.0
C61 C 0.72383 0.89375 0.16311 0.0
H62 H 0.7103 0.5633 0.17365 0.0
H63 H 0.82475 0.11507 0.20844 0.0
H64 H 0.82747 0.88409 0.24331 0.0
H65 H 0.65544 0.64386 0.22822 0.0
Co66 Co 0.22271 0.93751 0.18339 0.0
C67 C 0.38422 0.97561 0.1689 0.0
C68 C 0.3846 0.08029 0.17774 0.0
C69 C 0.46129 0.10109 0.17378 0.0
N70 N 0.33538 1.00059 0.17569 0.0
N71 N 0.46196 0.03617 0.16795 0.0
H72 H 0.36395 0.91467 0.16503 0.0
H73 H 0.36791 0.12372 0.18094 0.0
C74 C 0.24933 0.09731 0.19668 0.0
O75 O 0.3015 0.09784 0.20706 0.0
N76 N 0.11047 0.87372 0.19001 0.0
C77 C 0.07875 0.80306 0.198 0.0
C78 C 1.00035 0.77843 0.20174 0.0
C79 C 0.04904 0.88854 0.18804 0.0
N80 N 0.98136 0.83158 0.19541 0.0
C81 C 0.33597 0.96547 0.21047 0.0
C82 C 0.23376 0.96143 0.23435 0.0
C83 C 0.31598 1.00229 0.23766 0.0
C84 C 0.36729 0.99892 0.22594 0.0
C85 C 0.2073 0.93836 0.21857 0.0
N86 N 0.25835 0.94365 0.20635 0.0
H87 H 0.37667 0.96472 0.20156 0.0
H88 H 0.14762 0.9269 0.2163 0.0
H89 H 0.11172 0.77353 0.20153 0.0
H90 H 0.05449 0.94088 0.18191 0.0
O91 O 0.2152 0.83648 0.17618 0.0
O92 O 0.18536 0.91432 0.16141 0.0
O93 O 0.21461 0.03958 0.18636 0.0
C94 C 0.18123 0.84503 0.16311 0.0
H95 H 0.5117 0.1619 0.17368 0.0
H96 H 0.9599 0.72465 0.20845 0.0
H97 H 0.19086 0.95835 0.24332 0.0
H98 H 0.43108 1.02654 0.22823 0.0
Co99 Co 0.31515 0.12246 0.3062 0.0
C100 C 0.43859 0.08441 0.32069 0.0
C101 C 0.33424 0.97969 0.31187 0.0
C102 C 0.39014 0.95889 0.31584 0.0
N103 N 0.36474 0.0594 0.31391 0.0
N104 N 0.45576 1.02385 0.32164 0.0
H105 H 0.47928 0.14537 0.32454 0.0
H106 H 0.2741 0.93624 0.3087 0.0
C107 C 0.18201 0.96262 0.29291 0.0
O108 O 0.2337 0.96207 0.28255 0.0
N109 N 0.2667 0.18624 0.29957 0.0
C110 C 0.30563 0.25689 0.29158 0.0
C111 C 0.25187 0.28152 0.28783 0.0
C112 C 0.19045 0.17143 0.30154 0.0
N113 N 0.17974 0.2284 0.29417 0.0
C114 C 0.40045 0.09446 0.27912 0.0
C115 C 0.30223 0.09842 0.25524 0.0
C116 C 0.3436 0.05756 0.25194 0.0
C117 C 0.39831 0.06098 0.26365 0.0
C118 C 0.29886 0.12153 0.27102 0.0
N119 N 0.34465 0.11628 0.28324 0.0
H120 H 0.44191 0.09523 0.28803 0.0
H121 H 0.25064 0.13299 0.27329 0.0
H122 H 0.36813 0.2864 0.28804 0.0
H123 H 0.14356 0.11911 0.30767 0.0
O124 O 0.40866 0.22349 0.31341 0.0
O125 O 0.30097 0.1457 0.32817 0.0
O126 O 0.20498 1.02039 0.30323 0.0
C127 C 0.36614 0.21498 0.32647 0.0
H128 H 0.37974 0.89809 0.31595 0.0
H129 H 0.2652 0.33529 0.28112 0.0
H130 H 0.2624 0.10147 0.24627 0.0
H131 H 0.4345 0.03337 0.26137 0.0
Co132 Co 0.95251 0.20774 0.30619 0.0
C133 C 0.99063 0.36927 0.32067 0.0
C134 C 0.09531 0.36959 0.31185 0.0
C135 C 0.11614 0.44629 0.31581 0.0
N136 N 1.0156 0.3204 0.31389 0.0
N137 N 0.05121 0.44699 0.32162 0.0
H138 H 0.92968 0.34902 0.32453 0.0
H139 H 0.13874 0.35287 0.30867 0.0
C140 C 0.11232 0.23438 0.29289 0.0
O141 O 0.11286 0.28659 0.28253 0.0
N142 N 0.88872 0.09551 0.29956 0.0
C143 C 0.81806 0.06379 0.29158 0.0
C144 C 0.79342 0.98538 0.28784 0.0
C145 C 0.90352 0.03407 0.30154 0.0
N146 N 0.84655 0.96639 0.29417 0.0
C147 C 0.98051 0.32103 0.27911 0.0
C148 C 0.97649 0.21883 0.25523 0.0
C149 C 1.01736 0.30105 0.25193 0.0
C150 C 1.01398 0.35237 0.26364 0.0
C151 C 0.95339 0.19235 0.27101 0.0
N152 N 0.95867 0.24341 0.28323 0.0
H153 H 0.97975 0.36173 0.28802 0.0
H154 H 0.94192 0.13267 0.27328 0.0
H155 H 0.78854 0.09677 0.28804 0.0
H156 H 0.95585 0.0395 0.30767 0.0
O157 O 0.85149 0.20024 0.3134 0.0
O158 O 0.9293 0.17036 0.32817 0.0
O159 O 0.05457 0.19962 0.30322 0.0
C160 C 0.86002 0.16624 0.32646 0.0
H161 H 0.17695 0.49668 0.31592 0.0
H162 H 0.73964 0.94494 0.28113 0.0
H163 H 0.97342 0.17593 0.24626 0.0
H164 H 1.04159 0.41616 0.26135 0.0
Co165 Co 0.86724 0.75985 0.3062 0.0
C166 C 0.70572 0.63645 0.32068 0.0
C167 C 0.70544 0.74087 0.31188 0.0
C168 C 0.62873 0.68499 0.31584 0.0
N169 N 0.7546 0.7103 0.31391 0.0
N170 N 0.628 0.61932 0.32164 0.0
H171 H 0.72594 0.59571 0.32453 0.0
H172 H 0.72218 0.80104 0.30872 0.0
C173 C 0.84056 0.89298 0.2929 0.0
O174 O 0.7883 0.84127 0.28255 0.0
N175 N 0.97947 0.80827 0.29957 0.0
C176 C 1.01117 0.76932 0.29159 0.0
C177 C 0.08959 0.82308 0.28785 0.0
C178 C 1.04092 0.88451 0.30155 0.0
N179 N 0.1086 0.89521 0.29418 0.0
C180 C 0.75394 0.67453 0.27912 0.0
C181 C 0.85613 0.7727 0.25524 0.0
C182 C 0.77391 0.73134 0.25194 0.0
C183 C 0.7226 0.67665 0.26365 0.0
C184 C 0.88261 0.77609 0.27102 0.0
N185 N 0.83156 0.73032 0.28324 0.0
H186 H 0.71324 0.63309 0.28803 0.0
H187 H 0.94229 0.82431 0.27329 0.0
H188 H 0.97819 0.70682 0.28805 0.0
H189 H 1.03549 0.93141 0.30768 0.0
O190 O 0.87472 0.66633 0.31341 0.0
O191 O 0.90465 0.77404 0.32818 0.0
O192 O 0.87537 0.87003 0.30322 0.0
C193 C 0.90875 0.70887 0.32647 0.0
H194 H 0.57836 0.69544 0.31596 0.0
H195 H 0.13002 0.80973 0.28114 0.0
H196 H 0.89903 0.81251 0.24627 0.0
H197 H 0.65881 0.64048 0.26137 0.0
Co198 Co 0.95229 0.75964 0.8062 0.0
C199 C 0.99035 0.6362 0.8207 0.0
C200 C 0.09507 0.74058 0.81189 0.0
C201 C 0.11587 0.68468 0.81585 0.0
N202 N 1.01535 0.71006 0.81392 0.0
N203 N 0.05092 0.61904 0.82165 0.0
H204 H 0.92939 0.59549 0.82454 0.0
H205 H 0.13851 0.80073 0.80872 0.0
C206 C 0.11213 0.89277 0.79291 0.0
O207 O 0.11268 0.84106 0.78256 0.0
N208 N 0.88851 0.80809 0.79957 0.0
C209 C 0.81787 0.76915 0.79158 0.0
C210 C 0.79324 0.82292 0.78783 0.0
C211 C 0.90331 0.88434 0.80154 0.0
N212 N 0.84636 0.89505 0.79417 0.0
C213 C 0.9803 0.67433 0.77913 0.0
C214 C 0.97632 0.77252 0.75525 0.0
C215 C 1.01717 0.73115 0.75195 0.0
C216 C 1.01377 0.67645 0.76366 0.0
C217 C 0.95323 0.77591 0.77102 0.0
N218 N 0.95847 0.73012 0.78325 0.0
H219 H 0.97953 0.63288 0.78804 0.0
H220 H 0.94177 0.82414 0.7733 0.0
H221 H 0.78836 0.70665 0.78805 0.0
H222 H 0.95563 0.93123 0.80768 0.0
O223 O 0.85127 0.66613 0.81341 0.0
O224 O 0.92905 0.77383 0.82818 0.0
O225 O 0.05436 0.86981 0.80323 0.0
C226 C 0.85977 0.70866 0.82647 0.0
H227 H 0.17668 0.69509 0.81597 0.0
H228 H 0.73947 0.80958 0.78112 0.0
H229 H 0.97327 0.81236 0.74628 0.0
H230 H 1.04137 0.64027 0.76138 0.0
Co231 Co 0.31491 0.20755 0.80619 0.0
C232 C 0.4383 0.36907 0.82068 0.0
C233 C 0.33391 0.36938 0.81187 0.0
C234 C 0.38979 0.44609 0.81583 0.0
N235 N 0.36446 0.3202 0.8139 0.0
N236 N 0.45543 0.4468 0.82163 0.0
H237 H 0.47902 0.34884 0.82453 0.0
H238 H 0.27376 0.35265 0.80869 0.0
C239 C 0.18176 0.2342 0.7929 0.0
O240 O 0.23346 0.28644 0.78253 0.0
N241 N 0.26648 0.09531 0.79957 0.0
C242 C 0.30543 0.0636 0.79159 0.0
C243 C 0.25167 0.98518 0.78785 0.0
C244 C 0.19024 0.03387 0.80155 0.0
N245 N 0.17954 0.96618 0.79418 0.0
C246 C 0.40021 0.32084 0.77912 0.0
C247 C 0.30208 0.21863 0.75523 0.0
C248 C 0.34343 0.30085 0.75193 0.0
C249 C 0.3981 0.35217 0.76364 0.0
C250 C 0.29867 0.19216 0.77101 0.0
N251 N 0.34443 0.24322 0.78324 0.0
H252 H 0.44164 0.36155 0.78802 0.0
H253 H 0.25046 0.13248 0.77329 0.0
H254 H 0.36792 0.09658 0.78805 0.0
H255 H 0.14334 0.0393 0.80768 0.0
O256 O 0.40843 0.20007 0.81341 0.0
O257 O 0.30072 0.17015 0.82817 0.0
O258 O 0.20473 0.19942 0.80322 0.0
C259 C 0.36589 0.16605 0.82647 0.0
H260 H 0.37935 0.49647 0.81594 0.0
H261 H 0.26502 0.94474 0.78114 0.0
H262 H 0.26227 0.17572 0.74626 0.0
H263 H 0.43426 0.41596 0.76136 0.0
Co264 Co 0.86702 0.12229 0.80619 0.0
C265 C 0.7055 0.08418 0.82068 0.0
C266 C 0.70516 0.97949 0.81185 0.0
C267 C 0.62845 0.95868 0.81581 0.0
N268 N 0.75436 0.05921 0.81389 0.0
N269 N 0.62777 1.02361 0.82163 0.0
H270 H 0.72576 0.14513 0.82453 0.0
H271 H 0.72186 0.93607 0.80866 0.0
C272 C 0.84038 0.96247 0.7929 0.0
O273 O 0.78818 0.96194 0.78252 0.0
N274 N 0.97925 0.18608 0.79956 0.0
C275 C 1.01097 0.25674 0.79158 0.0
C276 C 0.08937 0.28137 0.78784 0.0
C277 C 1.04068 0.17126 0.80154 0.0
N278 N 0.10836 0.22823 0.79417 0.0
C279 C 0.75374 0.0943 0.77911 0.0
C280 C 0.85595 0.09833 0.75523 0.0
C281 C 0.77373 0.05747 0.75192 0.0
C282 C 0.72242 0.06084 0.76364 0.0
C283 C 0.88242 0.12142 0.77101 0.0
N284 N 0.83136 0.11613 0.78323 0.0
H285 H 0.71304 0.09505 0.78801 0.0
H286 H 0.9421 0.13289 0.77328 0.0
H287 H 0.978 0.28626 0.78804 0.0
H288 H 1.03524 0.11893 0.80767 0.0
O289 O 0.87453 0.22332 0.8134 0.0
O290 O 0.90439 0.14549 0.82817 0.0
O291 O 0.87513 1.02022 0.80322 0.0
C292 C 0.90851 0.21478 0.82646 0.0
H293 H 0.57806 0.89787 0.81591 0.0
H294 H 0.12981 0.33515 0.78113 0.0
H295 H 0.89885 0.10141 0.74626 0.0
H296 H 0.65863 0.03322 0.76135 0.0
Co297 Co 0.77456 0.93731 0.68338 0.0
C298 C 0.65113 0.97536 0.66888 0.0
C299 C 0.75542 0.08007 0.67772 0.0
C300 C 0.6995 0.10084 0.67376 0.0
N301 N 0.72496 1.00036 0.67567 0.0
N302 N 0.63393 0.0359 0.66793 0.0
H303 H 0.61047 0.91441 0.66502 0.0
H304 H 0.81553 0.12351 0.68091 0.0
C305 C 0.90772 0.09715 0.69667 0.0
O306 O 0.85605 0.09768 0.70704 0.0
N307 N 0.82303 0.87354 0.69001 0.0
C308 C 0.7841 0.80289 0.698 0.0
C309 C 0.83788 0.77828 0.70175 0.0
C310 C 0.89928 0.88836 0.68803 0.0
N311 N 0.91001 0.83141 0.69541 0.0
C312 C 0.68926 0.96529 0.71046 0.0
C313 C 0.78748 0.96134 0.73434 0.0
C314 C 0.74611 1.00219 0.73764 0.0
C315 C 0.69139 0.99877 0.72593 0.0
C316 C 0.79086 0.93823 0.71856 0.0
N317 N 0.74506 0.94348 0.70634 0.0
H318 H 0.64779 0.96451 0.70155 0.0
H319 H 0.83908 0.92678 0.71629 0.0
H320 H 0.72161 0.77338 0.70153 0.0
H321 H 0.94617 0.94068 0.6819 0.0
O322 O 0.68106 0.83628 0.67617 0.0
O323 O 0.78873 0.91408 0.6614 0.0
O324 O 0.88473 0.03939 0.68635 0.0
C325 C 0.72357 0.8448 0.66311 0.0
H326 H 0.70988 0.16164 0.67365 0.0
H327 H 0.82455 0.72452 0.70846 0.0
H328 H 0.82732 0.95829 0.74331 0.0
H329 H 0.6552 1.02637 0.72821 0.0
Co330 Co 0.13723 0.85204 0.6834 0.0
C331 C 0.09911 0.69053 0.6689 0.0
C332 C 0.99445 0.69015 0.67776 0.0
C333 C 0.97364 0.61345 0.67379 0.0
N334 N 0.07415 0.73937 0.67569 0.0
N335 N 1.03855 0.61279 0.66796 0.0
H336 H 0.16004 0.7108 0.66503 0.0
H337 H 0.95103 0.70683 0.68096 0.0
C338 C 0.97744 0.82545 0.69669 0.0
O339 O 0.97692 0.7733 0.70707 0.0
N340 N 0.20102 0.96429 0.69002 0.0
C341 C 0.27169 0.99601 0.698 0.0
C342 C 0.29632 0.07442 0.70174 0.0
C343 C 0.1862 1.02572 0.68804 0.0
N344 N 0.24318 0.09341 0.69541 0.0
C345 C 0.10927 0.73878 0.71048 0.0
C346 C 0.11331 0.841 0.73436 0.0
C347 C 0.07244 0.75877 0.73766 0.0
C348 C 0.07581 0.70745 0.72595 0.0
C349 C 0.13639 0.86746 0.71858 0.0
N350 N 0.13109 0.8164 0.70635 0.0
H351 H 0.11002 0.69808 0.70157 0.0
H352 H 0.14787 0.92715 0.7163 0.0
H353 H 0.30121 0.96304 0.70153 0.0
H354 H 0.13387 1.02027 0.68191 0.0
O355 O 0.23825 0.85955 0.67618 0.0
O356 O 0.16042 0.8894 0.66141 0.0
O357 O 1.03517 0.86016 0.68636 0.0
C358 C 0.22971 0.89352 0.66312 0.0
H359 H 0.91284 0.56304 0.6737 0.0
H360 H 0.3501 0.11487 0.70844 0.0
H361 H 0.1164 0.8839 0.74333 0.0
H362 H 0.04819 0.64366 0.72823 0.0
Co363 Co 0.22248 0.29994 0.68338 0.0
C364 C 0.384 0.42334 0.66889 0.0
C365 C 0.3843 0.31894 0.6777 0.0
C366 C 0.46101 0.37483 0.67374 0.0
N367 N 0.33513 0.3495 0.67567 0.0
N368 N 0.46172 0.44048 0.66794 0.0
H369 H 0.36377 0.46407 0.66504 0.0
H370 H 0.36757 0.25879 0.68087 0.0
C371 C 0.24915 0.16681 0.69667 0.0
O372 O 0.3014 0.21851 0.70703 0.0
N373 N 0.11025 0.25151 0.69001 0.0
C374 C 0.07854 0.29046 0.69799 0.0
C375 C 1.00013 0.2367 0.70173 0.0
C376 C 0.0488 0.17527 0.68803 0.0
N377 N 0.98113 0.16457 0.6954 0.0
C378 C 0.33577 0.38526 0.71045 0.0
C379 C 0.23358 0.28709 0.73434 0.0
C380 C 0.3158 0.32846 0.73764 0.0
C381 C 0.36711 0.38315 0.72592 0.0
C382 C 0.20711 0.28369 0.71856 0.0
N383 N 0.25816 0.32947 0.70633 0.0
H384 H 0.37647 0.42671 0.70154 0.0
H385 H 0.14743 0.23547 0.71628 0.0
H386 H 0.11153 0.35296 0.70152 0.0
H387 H 0.05423 0.12837 0.6819 0.0
O388 O 0.215 0.39346 0.67616 0.0
O389 O 0.18508 0.28575 0.6614 0.0
O390 O 0.21436 0.18976 0.68636 0.0
C391 C 0.18098 0.35093 0.6631 0.0
H392 H 0.51139 0.36439 0.67363 0.0
H393 H 0.9597 0.25004 0.70844 0.0
H394 H 0.19068 0.24727 0.74331 0.0
H395 H 0.43089 0.41934 0.72821 0.0
Co396 Co 0.80398 0.63339 0.51673 0.0
C397 C 0.76586 0.75679 0.50223 0.0
C398 C 0.66117 0.6524 0.51105 0.0
C399 C 0.64034 0.70828 0.50709 0.0
N400 N 0.74089 0.68295 0.50901 0.0
N401 N 0.70527 0.77392 0.50128 0.0
H402 H 0.82681 0.79751 0.49838 0.0
H403 H 0.61775 0.59226 0.51423 0.0
C404 C 0.64418 0.50022 0.53002 0.0
O405 O 0.64364 0.5519 0.54039 0.0
N406 N 0.86778 0.58495 0.52335 0.0
C407 C 0.93843 0.62388 0.53134 0.0
C408 C 0.96305 0.5701 0.53508 0.0
C409 C 0.85296 0.5087 0.52138 0.0
N410 N 0.90992 0.49798 0.52875 0.0
C411 C 0.77597 0.71869 0.5438 0.0
C412 C 0.78003 0.62054 0.56768 0.0
C413 C 0.73914 0.66188 0.57098 0.0
C414 C 0.7425 0.71655 0.55927 0.0
C415 C 0.80312 0.61715 0.55191 0.0
N416 N 0.79782 0.66291 0.53968 0.0
H417 H 0.77671 0.76013 0.53489 0.0
H418 H 0.81459 0.56894 0.54963 0.0
H419 H 0.96794 0.68638 0.53487 0.0
H420 H 0.80064 0.4618 0.51524 0.0
O421 O 0.90499 0.7269 0.50951 0.0
O422 O 0.82719 0.6192 0.49475 0.0
O423 O 0.70193 0.52321 0.5197 0.0
C424 C 0.89647 0.68437 0.49645 0.0
H425 H 0.57952 0.69784 0.50698 0.0
H426 H 1.01682 0.58343 0.54179 0.0
H427 H 0.78311 0.58073 0.57665 0.0
H428 H 0.71486 0.75271 0.56155 0.0
Co429 Co 0.44141 0.1855 0.5167 0.0
C430 C 0.31791 1.02397 0.50223 0.0
C431 C 0.42254 1.02379 0.51093 0.0
C432 C 0.36664 0.94706 0.50698 0.0
N433 N 0.39185 0.07289 0.50896 0.0
N434 N 0.30084 0.94628 0.50125 0.0
H435 H 0.27706 0.04415 0.49844 0.0
H436 H 0.48281 0.04062 0.51402 0.0
C437 C 0.57445 0.15864 0.52997 0.0
O438 O 0.52264 0.10619 0.54028 0.0
N439 N 0.48983 0.29771 0.52334 0.0
C440 C 0.4509 0.32937 0.53135 0.0
C441 C 0.50466 0.40777 0.5351 0.0
C442 C 0.56606 0.35917 0.52136 0.0
N443 N 0.57677 0.42681 0.52875 0.0
C444 C 0.35608 0.07212 0.54376 0.0
C445 C 0.45439 0.1742 0.56764 0.0
C446 C 0.41294 0.09197 0.57094 0.0
C447 C 0.3582 0.04073 0.55922 0.0
C448 C 0.45776 0.20073 0.55187 0.0
N449 N 0.4119 0.14974 0.53965 0.0
H450 H 0.31462 0.03147 0.53485 0.0
H451 H 0.50601 0.2604 0.5496 0.0
H452 H 0.38841 0.29636 0.53489 0.0
H453 H 0.61295 0.35377 0.51522 0.0
O454 O 0.3479 0.19303 0.50949 0.0
O455 O 0.45562 0.22299 0.49472 0.0
O456 O 0.55158 0.19361 0.51967 0.0
C457 C 0.39044 0.22708 0.49643 0.0
H458 H 0.37716 0.89674 0.50682 0.0
H459 H 0.49132 0.44818 0.54182 0.0
H460 H 0.49426 0.21705 0.57661 0.0
H461 H 0.32198 0.97694 0.5615 0.0
Co462 Co 0.88929 0.27076 0.51672 0.0
C463 C 0.05078 0.3089 0.50222 0.0
C464 C 0.05116 0.41356 0.51108 0.0
C465 C 0.12786 0.43437 0.50711 0.0
N466 N 1.00194 0.33387 0.50901 0.0
N467 N 0.12852 0.36946 0.50127 0.0
H468 H 1.03051 0.24796 0.49835 0.0
H469 H 1.03449 0.45699 0.51428 0.0
C470 C 0.91588 0.43054 0.53002 0.0
O471 O 0.96804 0.43105 0.5404 0.0
N472 N 0.77705 0.20695 0.52334 0.0
C473 C 0.74532 0.13625 0.53131 0.0
C474 C 0.66688 0.11154 0.53504 0.0
C475 C 0.7156 0.22175 0.52137 0.0
N476 N 0.64789 0.1647 0.52872 0.0
C477 C 1.00258 0.29874 0.5438 0.0
C478 C 0.90033 0.29455 0.56768 0.0
C479 C 0.98255 0.33546 0.57099 0.0
C480 C 1.03389 0.33216 0.55927 0.0
C481 C 0.87387 0.27152 0.5519 0.0
N482 N 0.92495 0.27688 0.53968 0.0
H483 H 1.04329 0.29805 0.53489 0.0
H484 H 0.81418 0.26001 0.54963 0.0
H485 H 0.77829 0.10671 0.53484 0.0
H486 H 0.72104 0.27409 0.51524 0.0
O487 O 0.88181 0.16977 0.5095 0.0
O488 O 0.85189 0.24757 0.49474 0.0
O489 O 0.88116 0.37282 0.5197 0.0
C490 C 0.84778 0.17828 0.49644 0.0
H491 H 0.17827 0.49517 0.50702 0.0
H492 H 0.62642 0.0577 0.54172 0.0
H493 H 0.85742 0.29142 0.57666 0.0
H494 H 0.09768 0.35982 0.56155 0.0
Co495 Co 0.98158 0.45555 0.63953 0.0
C496 C 0.105 0.41747 0.65401 0.0
C497 C 1.00052 0.31271 0.64524 0.0
C498 C 0.05639 0.29187 0.64921 0.0
N499 N 1.03113 0.39247 0.64725 0.0
N500 N 0.12205 0.35683 0.65499 0.0
H501 H 0.1458 0.47846 0.65782 0.0
H502 H 0.94033 0.26929 0.64209 0.0
C503 C 0.84849 0.29571 0.62624 0.0
O504 O 0.90025 0.29515 0.61589 0.0
N505 N 0.93316 0.51935 0.63289 0.0
C506 C 0.9721 0.59 0.62491 0.0
C507 C 0.91834 0.61464 0.62116 0.0
C508 C 0.85691 0.50455 0.63487 0.0
N509 N 0.84621 0.56151 0.62749 0.0
C510 C 0.06693 0.42759 0.61246 0.0
C511 C 0.96874 0.43154 0.58857 0.0
C512 C 1.01014 0.39072 0.58528 0.0
C513 C 0.06483 0.39413 0.59699 0.0
C514 C 0.96533 0.45463 0.60435 0.0
N515 N 1.01112 0.4494 0.61657 0.0
H516 H 0.10837 0.42835 0.62137 0.0
H517 H 0.9171 0.46607 0.60662 0.0
H518 H 1.0346 0.61951 0.62137 0.0
H519 H 0.81002 0.45223 0.641 0.0
O520 O 0.07508 0.55657 0.64675 0.0
O521 O 0.96733 0.47873 0.6615 0.0
O522 O 0.87141 0.3535 0.63655 0.0
C523 C 1.03251 0.548 0.6598 0.0
H524 H 0.04593 0.23105 0.64934 0.0
H525 H 0.93168 0.66841 0.61445 0.0
H526 H 0.92891 0.43458 0.5796 0.0
H527 H 0.10103 0.36654 0.59471 0.0
Co528 Co 0.61897 0.54078 0.63952 0.0
C529 C 0.65704 0.70227 0.65402 0.0
C530 C 0.76176 0.70261 0.6452 0.0
C531 C 0.78258 0.77931 0.64918 0.0
N532 N 0.68203 0.65342 0.64723 0.0
N533 N 0.71765 0.77997 0.65499 0.0
H534 H 0.59607 0.68203 0.65785 0.0
H535 H 0.80519 0.68591 0.64202 0.0
C536 C 0.77879 0.56749 0.62622 0.0
O537 O 0.77934 0.61975 0.61586 0.0
N538 N 0.55519 0.42854 0.63288 0.0
C539 C 0.48457 0.39684 0.62489 0.0
C540 C 0.46 0.31846 0.62113 0.0
C541 C 0.57002 0.36712 0.63486 0.0
N542 N 0.51312 0.29946 0.62747 0.0
C543 C 0.64694 0.65411 0.61245 0.0
C544 C 0.64299 0.55198 0.58856 0.0
C545 C 0.68384 0.63421 0.58527 0.0
C546 C 0.68042 0.68548 0.59698 0.0
C547 C 0.61989 0.52546 0.60434 0.0
N548 N 0.62513 0.57649 0.61656 0.0
H549 H 0.64617 0.69479 0.62136 0.0
H550 H 0.60845 0.46579 0.60661 0.0
H551 H 0.45505 0.42981 0.62135 0.0
H552 H 0.62234 0.37256 0.64099 0.0
O553 O 0.51794 0.53326 0.64673 0.0
O554 O 0.59578 0.50336 0.66149 0.0
O555 O 0.72103 0.53269 0.63654 0.0
C556 C 0.52651 0.49925 0.65979 0.0
H557 H 0.84339 0.82971 0.64929 0.0
H558 H 0.40627 0.27804 0.6144 0.0
H559 H 0.63995 0.5091 0.57959 0.0
H560 H 0.70803 0.74928 0.5947 0.0
Co561 Co 0.5337 0.09284 0.63949 0.0
C562 C 0.37225 0.96953 0.65403 0.0
C563 C 0.37169 0.07356 0.64506 0.0
C564 C 0.29503 1.01769 0.64906 0.0
N565 N 0.42101 0.04324 0.64719 0.0
N566 N 0.2945 0.95231 0.65497 0.0
H567 H 0.39259 0.92898 0.65794 0.0
H568 H 0.38825 0.13353 0.64178 0.0
C569 C 0.50722 0.2261 0.62618 0.0
O570 O 0.45525 0.17456 0.61576 0.0
N571 N 0.64596 0.14131 0.63288 0.0
C572 C 0.67773 0.10236 0.62492 0.0
C573 C 0.75614 0.15614 0.62119 0.0
C574 C 0.70737 0.21758 0.63485 0.0
N575 N 0.77509 0.22829 0.6275 0.0
C576 C 0.42046 1.00752 0.61241 0.0
C577 C 0.52273 0.10553 0.58852 0.0
C578 C 0.44051 0.06426 0.58522 0.0
C579 C 0.38916 1.00964 0.59694 0.0
C580 C 0.54918 0.10895 0.60431 0.0
N581 N 0.49809 0.06328 0.61653 0.0
H582 H 0.37973 0.9661 0.62132 0.0
H583 H 0.60888 0.15712 0.60658 0.0
H584 H 0.64479 0.03984 0.6214 0.0
H585 H 0.70189 0.26448 0.64097 0.0
O586 O 0.54121 0.99933 0.64672 0.0
O587 O 0.57102 0.10705 0.66148 0.0
O588 O 0.54179 0.20301 0.63652 0.0
C589 C 0.57516 0.04189 0.65978 0.0
H590 H 0.24454 1.02796 0.6491 0.0
H591 H 0.79662 0.14279 0.6145 0.0
H592 H 0.56565 0.14528 0.57955 0.0
H593 H 0.32536 0.97352 0.59466 0.0
Co594 Co 0.61918 0.09313 0.13952 0.0
C595 C 0.65728 0.96973 0.15402 0.0
C596 C 0.762 0.07414 0.14521 0.0
C597 C 0.78283 1.01827 0.14918 0.0
N598 N 0.68227 0.04358 0.14724 0.0
N599 N 0.7179 0.95265 0.15499 0.0
H600 H 0.59631 0.92898 0.15785 0.0
H601 H 0.80542 0.13429 0.14204 0.0
C602 C 0.779 0.22625 0.12622 0.0
O603 O 0.77953 0.17453 0.11587 0.0
N604 N 0.55538 0.14156 0.13289 0.0
C605 C 0.48472 0.10261 0.12491 0.0
C606 C 0.46008 0.15638 0.12117 0.0
C607 C 0.5702 0.21781 0.13487 0.0
N608 N 0.51322 0.22851 0.12749 0.0
C609 C 0.64714 1.00777 0.11245 0.0
C610 C 0.6431 0.10591 0.08856 0.0
C611 C 0.68394 0.06453 0.08526 0.0
C612 C 0.68058 1.00986 0.09698 0.0
C613 C 0.62004 0.10933 0.10434 0.0
N614 N 0.62532 0.06357 0.11657 0.0
H615 H 0.6464 0.96635 0.12137 0.0
H616 H 0.60859 0.15756 0.10661 0.0
H617 H 0.4552 0.04011 0.12138 0.0
H618 H 0.62253 0.26471 0.14099 0.0
O619 O 0.51817 0.99962 0.14674 0.0
O620 O 0.59601 0.10737 0.1615 0.0
O621 O 0.72124 0.20331 0.13654 0.0
C622 C 0.52674 0.0422 0.1598 0.0
H623 H 0.84364 1.0287 0.1493 0.0
H624 H 0.4063 0.14303 0.11446 0.0
H625 H 0.64003 0.14572 0.07959 0.0
H626 H 0.70819 0.97368 0.0947 0.0
Co627 Co 0.9819 0.54103 0.13949 0.0
C628 C 0.10521 0.70248 0.15403 0.0
C629 C 1.00118 0.70305 0.14507 0.0
C630 C 0.05705 0.77971 0.14906 0.0
N631 N 1.0315 0.65372 0.14719 0.0
N632 N 0.12243 0.78024 0.15497 0.0
H633 H 0.14577 0.68214 0.15794 0.0
H634 H 0.9412 0.68649 0.14179 0.0
C635 C 0.84865 0.56753 0.12618 0.0
O636 O 0.9002 0.61951 0.11576 0.0
N637 N 0.93342 0.42877 0.13288 0.0
C638 C 0.97236 0.397 0.12491 0.0
C639 C 0.91857 0.31859 0.12118 0.0
C640 C 0.85715 0.36736 0.13485 0.0
N641 N 0.84643 0.29965 0.12749 0.0
C642 C 0.06722 0.65428 0.11241 0.0
C643 C 0.96921 0.55201 0.08852 0.0
C644 C 1.01049 0.63423 0.08522 0.0
C645 C 0.0651 0.68559 0.09694 0.0
C646 C 0.96578 0.52556 0.10431 0.0
N647 N 1.01145 0.57665 0.11653 0.0
H648 H 0.10863 0.69501 0.12132 0.0
H649 H 0.91759 0.46586 0.10658 0.0
H650 H 1.03487 0.42994 0.12139 0.0
H651 H 0.81025 0.37284 0.14097 0.0
O652 O 0.0754 0.53352 0.14671 0.0
O653 O 0.96769 0.5037 0.16148 0.0
O654 O 0.87174 0.53295 0.13652 0.0
C655 C 1.03285 0.49957 0.15977 0.0
H656 H 0.04678 0.83019 0.14911 0.0
H657 H 0.93191 0.27811 0.11448 0.0
H658 H 0.92945 0.50909 0.07955 0.0
H659 H 0.10122 0.74938 0.09465 0.0
Co660 Co 0.53398 0.45577 0.13952 0.0
C661 C 0.37249 0.4177 0.15401 0.0
C662 C 0.37217 0.31296 0.14522 0.0
C663 C 0.29547 0.29214 0.14919 0.0
N664 N 0.42134 0.3927 0.14724 0.0
N665 N 0.29479 0.35709 0.15499 0.0
H666 H 0.39271 0.47869 0.15784 0.0
H667 H 0.38889 0.26953 0.14205 0.0
C668 C 0.50724 0.29594 0.12623 0.0
O669 O 0.45496 0.29538 0.11587 0.0
N670 N 0.64621 0.51955 0.13289 0.0
C671 C 0.67792 0.59017 0.12489 0.0
C672 C 0.75629 0.61475 0.12113 0.0
C673 C 0.70764 0.50472 0.13486 0.0
N674 N 0.77528 0.56162 0.12747 0.0
C675 C 0.42066 0.4278 0.11245 0.0
C676 C 0.52279 0.43176 0.08857 0.0
C677 C 0.44057 0.39092 0.08527 0.0
C678 C 0.38929 0.39433 0.09698 0.0
C679 C 0.5493 0.45485 0.10434 0.0
N680 N 0.49828 0.44962 0.11657 0.0
H681 H 0.37998 0.42857 0.12136 0.0
H682 H 0.60896 0.46627 0.10661 0.0
H683 H 0.64494 0.61969 0.12135 0.0
H684 H 0.7022 0.4524 0.14099 0.0
O685 O 0.54151 0.5568 0.14674 0.0
O686 O 0.5714 0.47895 0.1615 0.0
O687 O 0.54207 0.3537 0.13654 0.0
C688 C 0.5755 0.54823 0.1598 0.0
H689 H 0.24508 0.23132 0.14931 0.0
H690 H 0.79671 0.66848 0.11441 0.0
H691 H 0.56567 0.4348 0.07959 0.0
H692 H 0.3255 0.36673 0.09471 0.0
Co693 Co 0.44138 0.27079 0.01673 0.0
C694 C 0.31799 0.30892 0.00224 0.0
C695 C 0.42236 0.4136 0.01106 0.0
C696 C 0.36648 0.43443 0.0071 0.0
N697 N 0.39182 0.33388 0.00902 0.0
N698 N 0.30085 0.36951 0.00128 0.0
H699 H 0.27728 0.24797 -0.00162 0.0
H700 H 0.4825 0.45702 0.01424 0.0
C701 C 0.57454 0.43059 0.03002 0.0
O702 O 0.52287 0.43113 0.04039 0.0
N703 N 0.48982 0.20699 0.02335 0.0
C704 C 0.45088 0.13633 0.03134 0.0
C705 C 0.50465 0.11169 0.03508 0.0
C706 C 0.56606 0.2218 0.02137 0.0
N707 N 0.57677 0.16482 0.02875 0.0
C708 C 0.35609 0.29879 0.0438 0.0
C709 C 0.45423 0.29473 0.06768 0.0
C710 C 0.4129 0.33563 0.07098 0.0
C711 C 0.35822 0.33227 0.05927 0.0
C712 C 0.45761 0.27164 0.05191 0.0
N713 N 0.41186 0.27694 0.03968 0.0
H714 H 0.31465 0.29806 0.03489 0.0
H715 H 0.50581 0.26015 0.04963 0.0
H716 H 0.38838 0.10681 0.03487 0.0
H717 H 0.61296 0.27413 0.01524 0.0
O718 O 0.34787 0.16978 0.00951 0.0
O719 O 0.45557 0.24759 0.99475 0.0
O720 O 0.55155 0.37284 0.0197 0.0
C721 C 0.3904 0.1783 -0.00355 0.0
H722 H 0.37691 0.49525 0.00699 0.0
H723 H 0.49131 0.05791 0.04178 0.0
H724 H 0.49404 0.29165 0.07666 0.0
H725 H 0.32207 0.35991 0.06155 0.0
Co726 Co 0.80399 0.18547 0.01672 0.0
C727 C 0.76587 1.02398 0.00222 0.0
C728 C 0.66119 1.02361 0.01106 0.0
C729 C 0.64038 0.94691 0.00709 0.0
N730 N 0.7409 0.07282 0.009 0.0
N731 N 0.70531 0.94624 0.00127 0.0
H732 H 0.82682 0.04424 -0.00165 0.0
H733 H 0.61777 0.04031 0.01425 0.0
C734 C 0.6442 0.15885 0.03001 0.0
O735 O 0.64367 0.10664 0.04039 0.0
N736 N 0.86779 0.29771 0.02335 0.0
C737 C 0.93848 0.32943 0.03132 0.0
C738 C 0.96318 0.40786 0.03504 0.0
C739 C 0.85301 0.35916 0.02137 0.0
N740 N 0.91004 0.42687 0.02872 0.0
C741 C 0.77599 0.07216 0.04379 0.0
C742 C 0.7801 0.17437 0.06768 0.0
C743 C 0.7392 0.09215 0.07098 0.0
C744 C 0.74254 0.04082 0.05926 0.0
C745 C 0.80317 0.20085 0.0519 0.0
N746 N 0.79784 0.14979 0.03967 0.0
H747 H 0.77671 0.03145 0.03488 0.0
H748 H 0.81467 0.26054 0.04963 0.0
H749 H 0.968 0.29644 0.03484 0.0
H750 H 0.80067 0.35373 0.01524 0.0
O751 O 0.90499 0.19295 0.0095 0.0
O752 O 0.82721 0.22289 0.99474 0.0
O753 O 0.70194 0.1936 0.01969 0.0
C754 C 0.89649 0.227 -0.00356 0.0
H755 H 0.57958 0.89651 0.00699 0.0
H756 H 1.01701 0.44832 0.04173 0.0
H757 H 0.7832 0.21727 0.07665 0.0
H758 H 0.7149 0.97703 0.06154 0.0
Co759 Co 0.88925 0.63336 0.0167 0.0
C760 C 0.05079 0.75685 0.00223 0.0
C761 C 0.05095 0.6522 0.01093 0.0
C762 C 0.12768 0.7081 0.00698 0.0
N763 N 1.00187 0.68291 0.00896 0.0
N764 N 0.12848 0.77391 0.00125 0.0
H765 H 1.03063 0.79771 -0.00156 0.0
H766 H 1.03411 0.59193 0.01402 0.0
C767 C 0.9161 0.50031 0.02997 0.0
O768 O 0.96856 0.55212 0.04029 0.0
N769 N 0.77706 0.58494 0.02334 0.0
C770 C 0.74539 0.62388 0.03135 0.0
C771 C 0.667 0.57012 0.0351 0.0
C772 C 0.7156 0.50871 0.02136 0.0
N773 N 0.64796 0.498 0.02875 0.0
C774 C 1.00263 0.71869 0.04376 0.0
C775 C 0.90055 0.62038 0.06764 0.0
C776 C 0.98278 0.66181 0.07093 0.0
C777 C 1.03402 0.71656 0.05922 0.0
C778 C 0.87402 0.61702 0.05187 0.0
N779 N 0.92501 0.66287 0.03965 0.0
H780 H 1.04328 0.76016 0.03485 0.0
H781 H 0.81435 0.56877 0.0496 0.0
H782 H 0.77841 0.68637 0.03488 0.0
H783 H 0.72099 0.46182 0.01522 0.0
O784 O 0.88173 0.72687 0.00949 0.0
O785 O 0.85178 0.61915 0.99472 0.0
O786 O 0.88114 0.52318 0.01967 0.0
C787 C 0.84769 0.68433 -0.00357 0.0
H788 H 0.178 0.69757 0.00682 0.0
H789 H 0.62659 0.58346 0.04182 0.0
H790 H 0.8577 0.5805 0.07661 0.0
H791 H 0.09781 0.75278 0.0615 0.0
Co792 Co 0.47054 0.96667 0.85005 0.0
C793 C 0.43244 0.09007 0.83556 0.0
C794 C 0.32771 0.98563 0.84435 0.0
C795 C 0.30687 0.04149 0.84038 0.0
N796 N 0.40745 1.01621 0.84233 0.0
N797 N 0.37182 0.10714 0.83458 0.0
H798 H 0.49342 0.13085 0.83174 0.0
H799 H 0.28429 0.92546 0.84751 0.0
C800 C 0.31072 0.83356 0.86335 0.0
O801 O 0.31017 0.8853 0.8737 0.0
N802 N 0.53434 0.91825 0.85669 0.0
C803 C 0.605 0.95721 0.86467 0.0
C804 C 0.62966 0.90345 0.86841 0.0
C805 C 0.51954 0.842 0.85471 0.0
N806 N 0.57653 0.83131 0.86208 0.0
C807 C 0.44257 0.05204 0.87712 0.0
C808 C 0.4466 0.95391 0.90101 0.0
C809 C 0.40576 0.99529 0.90431 0.0
C810 C 0.40912 0.04995 0.89259 0.0
C811 C 0.46967 0.95048 0.88523 0.0
N812 N 0.4644 0.99624 0.873 0.0
H813 H 0.4433 0.09346 0.8682 0.0
H814 H 0.48113 0.90226 0.88296 0.0
H815 H 0.63452 1.01971 0.8682 0.0
H816 H 0.46721 0.7951 0.84858 0.0
O817 O 0.57155 0.06018 0.84283 0.0
O818 O 0.49371 0.95241 0.82807 0.0
O819 O 0.36849 0.85649 0.85304 0.0
C820 C 0.56299 1.01759 0.82977 0.0
H821 H 0.24605 0.03105 0.84026 0.0
H822 H 0.68346 0.91681 0.87511 0.0
H823 H 0.44967 0.9141 0.90998 0.0
H824 H 0.3815 0.08613 0.89487 0.0
Co825 Co 0.10784 0.51877 0.85008 0.0
C826 C 0.98452 0.35732 0.83555 0.0
C827 C 0.0886 0.35679 0.84449 0.0
C828 C 1.03273 0.28012 0.8405 0.0
N829 N 0.05825 0.40609 0.84238 0.0
N830 N 0.96732 0.27957 0.8346 0.0
H831 H 0.94394 0.37764 0.83165 0.0
H832 H 0.1486 0.37337 0.84776 0.0
C833 C 0.24108 0.49225 0.8634 0.0
O834 O 0.18951 0.44023 0.87381 0.0
N835 N 0.15631 0.63103 0.8567 0.0
C836 C 0.11737 0.66279 0.86467 0.0
C837 C 0.17115 0.7412 0.8684 0.0
C838 C 0.23258 0.69244 0.85473 0.0
N839 N 0.24329 0.76015 0.86209 0.0
C840 C 1.02251 0.40549 0.87716 0.0
C841 C 0.12051 0.50774 0.90105 0.0
C842 C 0.07923 0.42551 0.90435 0.0
C843 C 1.02462 0.37417 0.89263 0.0
C844 C 0.12395 0.53421 0.88527 0.0
N845 N 0.07828 0.48313 0.87304 0.0
H846 H 0.9811 0.36477 0.86825 0.0
H847 H 0.17213 0.59391 0.883 0.0
H848 H 0.05486 0.62985 0.86819 0.0
H849 H 0.27948 0.68697 0.84861 0.0
O850 O 1.01434 0.52628 0.84286 0.0
O851 O 0.12206 0.55613 0.8281 0.0
O852 O 0.218 0.52686 0.85306 0.0
C853 C 0.05691 0.56026 0.8298 0.0
H854 H 1.04302 0.22965 0.84044 0.0
H855 H 0.15781 0.78168 0.8751 0.0
H856 H 0.16027 0.55065 0.91003 0.0
H857 H 0.98851 0.31037 0.89491 0.0
Co858 Co 0.55574 0.60405 0.85005 0.0
C859 C 0.71725 0.64212 0.83557 0.0
C860 C 0.7175 0.74689 0.84432 0.0
C861 C 0.79421 0.76773 0.84035 0.0
N862 N 0.66837 0.66712 0.84232 0.0
N863 N 0.79493 0.70276 0.83458 0.0
H864 H 0.69706 0.58111 0.83176 0.0
H865 H 0.70073 0.79032 0.84746 0.0
C866 C 0.58254 0.7639 0.86334 0.0
O867 O 0.63489 0.7645 0.87368 0.0
N868 N 0.44353 0.54027 0.85669 0.0
C869 C 0.41184 0.46965 0.86469 0.0
C870 C 0.33346 0.44507 0.86845 0.0
C871 C 0.38209 0.55508 0.85472 0.0
N872 N 0.31445 0.49818 0.86211 0.0
C873 C 0.6691 0.63204 0.87711 0.0
C874 C 0.567 0.62814 0.901 0.0
C875 C 0.64923 0.66896 0.9043 0.0
C876 C 0.70049 0.66553 0.89258 0.0
C877 C 0.54048 0.60503 0.88523 0.0
N878 N 0.59148 0.61023 0.873 0.0
H879 H 0.70977 0.63127 0.8682 0.0
H880 H 0.48081 0.59361 0.88296 0.0
H881 H 0.44483 0.44015 0.86823 0.0
H882 H 0.38752 0.60739 0.84858 0.0
O883 O 0.54822 0.50303 0.84283 0.0
O884 O 0.51829 0.58086 0.82807 0.0
O885 O 0.54765 0.70611 0.85303 0.0
C886 C 0.5142 0.51159 0.82978 0.0
H887 H 0.84457 0.82856 0.84022 0.0
H888 H 0.29305 0.39134 0.87518 0.0
H889 H 0.52414 0.62512 0.90998 0.0
H890 H 0.76428 0.69313 0.89485 0.0
Co891 Co 0.64836 0.78904 0.97284 0.0
C892 C 0.77172 0.7509 0.98734 0.0
C893 C 0.66741 0.64623 0.97849 0.0
C894 C 0.72326 0.62539 0.98247 0.0
N895 N 0.69792 0.72594 0.98055 0.0
N896 N 0.78882 0.69029 0.98831 0.0
H897 H 0.81243 0.81185 0.99119 0.0
H898 H 0.60731 0.60281 0.97529 0.0
C899 C 0.5152 0.62926 0.95953 0.0
O900 O 0.56685 0.62874 0.94915 0.0
N901 N 0.59992 0.85284 0.96621 0.0
C902 C 0.63886 0.92352 0.95823 0.0
C903 C 0.58508 0.94814 0.95449 0.0
C904 C 0.52366 0.83801 0.96818 0.0
N905 N 0.51295 0.89498 0.96081 0.0
C906 C 0.73369 0.76106 0.94576 0.0
C907 C 0.63562 0.76519 0.92187 0.0
C908 C 0.67692 0.72426 0.91858 0.0
C909 C 0.73157 0.72759 0.93029 0.0
C910 C 0.63221 0.78827 0.93765 0.0
N911 N 0.67792 0.78293 0.94988 0.0
H912 H 0.77511 0.76177 0.95468 0.0
H913 H 0.58402 0.79977 0.93992 0.0
H914 H 0.70137 0.95306 0.9547 0.0
H915 H 0.47677 0.78566 0.97431 0.0
O916 O 0.74187 0.89005 0.98006 0.0
O917 O 0.63412 0.81219 -0.00518 0.0
O918 O 0.5382 0.68698 0.96986 0.0
C919 C 0.69929 0.88147 0.99312 0.0
H920 H 0.71286 0.56458 0.98256 0.0
H921 H 0.59842 1.00193 0.94778 0.0
H922 H 0.59583 0.7683 0.9129 0.0
H923 H 0.7677 0.69993 0.92802 0.0
Co924 Co 0.28573 0.8743 0.97285 0.0
C925 C 0.32386 0.03578 0.98736 0.0
C926 C 0.42854 0.03614 0.97852 0.0
C927 C 0.44937 0.11284 0.9825 0.0
N928 N 0.34883 0.98694 0.98056 0.0
N929 N 0.38445 0.11348 0.98833 0.0
H930 H 0.2629 1.01553 0.99121 0.0
H931 H 0.47196 1.01946 0.97532 0.0
C932 C 0.44552 0.90094 0.95954 0.0
O933 O 0.44604 0.95314 0.94917 0.0
N934 N 0.22193 0.76207 0.96622 0.0
C935 C 0.15123 0.73034 0.95825 0.0
C936 C 0.12654 0.65191 0.95452 0.0
C937 C 0.23673 0.70062 0.96819 0.0
N938 N 0.1797 0.63292 0.96084 0.0
C939 C 0.31372 0.98764 0.94578 0.0
C940 C 0.30957 0.88544 0.92189 0.0
C941 C 0.35048 0.96767 0.91859 0.0
C942 C 0.34716 1.01899 0.93031 0.0
C943 C 0.28651 0.85895 0.93767 0.0
N944 N 0.29186 0.91 0.9499 0.0
H945 H 0.31301 1.02834 0.9547 0.0
H946 H 0.275 0.79925 0.93993 0.0
H947 H 0.1217 0.76332 0.95473 0.0
H948 H 0.28907 0.70606 0.97432 0.0
O949 O 0.18474 0.86681 0.98007 0.0
O950 O 0.26256 0.83687 -0.00517 0.0
O951 O 0.38778 0.86618 0.96987 0.0
C952 C 0.19329 0.83278 0.99313 0.0
H953 H 0.51017 0.16325 0.98259 0.0
H954 H 0.07271 0.61145 0.94783 0.0
H955 H 0.30646 0.84255 0.91291 0.0
H956 H 0.37482 0.08279 0.92803 0.0
Co957 Co 0.20051 0.42645 0.97287 0.0
C958 C 1.039 0.30298 0.98734 0.0
C959 C 1.03882 0.40761 0.97864 0.0
C960 C 0.96209 0.35173 0.9826 0.0
N961 N 0.0879 0.37691 0.9806 0.0
N962 N 0.96133 0.28597 0.98835 0.0
H963 H 0.05916 0.26211 0.99112 0.0
H964 H 0.05564 0.46786 0.97553 0.0
C965 C 0.17366 0.55948 0.95959 0.0
O966 O 0.12121 0.50767 0.94927 0.0
N967 N 0.31271 0.47487 0.96622 0.0
C968 C 0.34438 0.43593 0.95822 0.0
C969 C 0.42277 0.48971 0.95446 0.0
C970 C 0.37416 0.55112 0.96819 0.0
N971 N 0.4418 0.56183 0.9608 0.0
C972 C 0.08712 0.34109 0.94581 0.0
C973 C 0.18918 0.43934 0.92192 0.0
C974 C 0.10695 0.39792 0.91863 0.0
C975 C 0.05571 0.3432 0.93035 0.0
C976 C 0.21572 0.44272 0.93769 0.0
N977 N 0.16474 0.3969 0.94992 0.0
H978 H 0.04646 0.29963 0.95472 0.0
H979 H 0.27539 0.49097 0.93996 0.0
H980 H 0.31138 0.37344 0.95468 0.0
H981 H 0.36875 0.598 0.97433 0.0
O982 O 0.20804 0.33295 0.98009 0.0
O983 O 0.238 0.44072 -0.00516 0.0
O984 O 0.20862 0.53662 0.96988 0.0
C985 C 0.24208 0.37554 0.99314 0.0
H986 H 0.91176 0.36224 0.98276 0.0
H987 H 0.46318 0.47638 0.94774 0.0
H988 H 0.23202 0.4792 0.91295 0.0
H989 H 0.99191 0.30699 0.92807 0.0
Co990 Co 0.28573 0.42642 0.47284 0.0
C991 C 0.32386 0.30304 0.48734 0.0
C992 C 0.42855 0.40742 0.47852 0.0
C993 C 0.4494 0.35157 0.48249 0.0
N994 N 0.34882 0.37687 0.48055 0.0
N995 N 0.38448 0.28597 0.48832 0.0
H996 H 0.26289 0.2623 0.49118 0.0
H997 H 0.47196 0.46755 0.47533 0.0
C998 C 0.44552 0.55956 0.45954 0.0
O999 O 0.44605 0.50788 0.44917 0.0
N1000 N 0.22193 0.47486 0.46621 0.0
C1001 C 0.15127 0.43592 0.45823 0.0
C1002 C 0.12667 0.48971 0.45448 0.0
C1003 C 0.23676 0.55111 0.46818 0.0
N1004 N 0.17981 0.56184 0.46081 0.0
C1005 C 0.31372 0.34108 0.44577 0.0
C1006 C 0.30962 0.43917 0.42188 0.0
C1007 C 0.35053 0.39784 0.41858 0.0
C1008 C 0.34719 0.3432 0.4303 0.0
C1009 C 0.28654 0.44258 0.43766 0.0
N1010 N 0.29186 0.39685 0.44989 0.0
H1011 H 0.313 0.29966 0.45468 0.0
H1012 H 0.27506 0.49079 0.43993 0.0
H1013 H 0.12174 0.37342 0.4547 0.0
H1014 H 0.2891 0.59801 0.47431 0.0
O1015 O 0.18471 0.33291 0.48006 0.0
O1016 O 0.26257 0.44066 0.49482 0.0
O1017 O 0.38778 0.53658 0.46986 0.0
C1018 C 0.19329 0.37549 0.49312 0.0
H1019 H 0.51021 0.36199 0.4826 0.0
H1020 H 0.0729 0.47638 0.44777 0.0
H1021 H 0.30653 0.47896 0.41291 0.0
H1022 H 0.37484 0.30705 0.42803 0.0
Co1023 Co 0.64832 0.87426 0.47287 0.0
C1024 C 0.77179 0.03577 0.48734 0.0
C1025 C 0.6672 0.03599 0.47863 0.0
C1026 C 0.72307 0.11271 0.48259 0.0
N1027 N 0.69787 0.98688 0.4806 0.0
N1028 N 0.78881 0.11345 0.48834 0.0
H1029 H 0.81264 1.0156 0.49113 0.0
H1030 H 0.60696 1.01918 0.47551 0.0
C1031 C 0.51528 0.90111 0.45959 0.0
O1032 O 0.56708 0.95354 0.44927 0.0
N1033 N 0.59989 0.76206 0.46622 0.0
C1034 C 0.63883 0.73038 0.45822 0.0
C1035 C 0.58506 0.65199 0.45447 0.0
C1036 C 0.52365 0.70061 0.46819 0.0
N1037 N 0.51294 0.63297 0.46081 0.0
C1038 C 0.73368 0.98766 0.44581 0.0
C1039 C 0.63545 0.88558 0.42192 0.0
C1040 C 0.67687 0.96781 0.41863 0.0
C1041 C 0.73158 1.01906 0.43034 0.0
C1042 C 0.63205 0.85905 0.43769 0.0
N1043 N 0.67787 0.91003 0.44992 0.0
H1044 H 0.77512 1.02832 0.45472 0.0
H1045 H 0.5838 0.79937 0.43996 0.0
H1046 H 0.70132 0.76338 0.45469 0.0
H1047 H 0.47677 0.70602 0.47433 0.0
O1048 O 0.74182 0.86673 0.48008 0.0
O1049 O 0.63406 0.83678 0.49484 0.0
O1050 O 0.53816 0.86617 0.46989 0.0
C1051 C 0.69924 0.83269 0.49314 0.0
H1052 H 0.71258 0.16305 0.48274 0.0
H1053 H 0.59839 0.61158 0.44775 0.0
H1054 H 0.59559 0.84273 0.41294 0.0
H1055 H 0.76778 0.08286 0.42807 0.0
Co1056 Co 0.20047 0.78905 0.47284 0.0
C1057 C 1.039 0.75091 0.48736 0.0
C1058 C 1.03859 0.64625 0.47849 0.0
C1059 C 0.9619 0.62543 0.48247 0.0
N1060 N 0.08782 0.72595 0.48055 0.0
N1061 N 0.96128 0.69033 0.48832 0.0
H1062 H 0.05927 0.81186 0.49122 0.0
H1063 H 0.05525 0.60283 0.47527 0.0
C1064 C 0.17387 0.62928 0.45953 0.0
O1065 O 0.12173 0.62879 0.44915 0.0
N1066 N 0.31271 0.85286 0.46622 0.0
C1067 C 0.34445 0.92357 0.45826 0.0
C1068 C 0.42287 0.94825 0.45452 0.0
C1069 C 0.37414 0.83804 0.46819 0.0
N1070 N 0.44185 0.89508 0.46084 0.0
C1071 C 0.08716 0.76109 0.44577 0.0
C1072 C 0.18939 0.76532 0.42188 0.0
C1073 C 0.10717 0.7244 0.41858 0.0
C1074 C 0.05584 0.72767 0.4303 0.0
C1075 C 0.21586 0.78835 0.43766 0.0
N1076 N 0.16479 0.78296 0.44989 0.0
H1077 H 0.04644 0.76177 0.45469 0.0
H1078 H 0.27556 0.79986 0.43993 0.0
H1079 H 0.31148 0.95312 0.45473 0.0
H1080 H 0.36869 0.78569 0.47431 0.0
O1081 O 0.20796 0.89005 0.48007 0.0
O1082 O 0.23787 0.8122 0.49482 0.0
O1083 O 0.20858 0.68699 0.46986 0.0
C1084 C 0.24197 0.88148 0.49313 0.0
H1085 H 0.91148 0.56464 0.48256 0.0
H1086 H 0.46334 1.0021 0.44784 0.0
H1087 H 0.2323 0.76846 0.4129 0.0
H1088 H 0.99204 0.69999 0.42802 0.0
Co1089 Co 0.10816 0.60424 0.35005 0.0
C1090 C 0.98473 0.64233 0.33557 0.0
C1091 C 0.08926 0.74709 0.34431 0.0
C1092 C 1.03339 0.76794 0.34035 0.0
N1093 N 0.05862 0.66733 0.34232 0.0
N1094 N 0.96769 0.70297 0.33458 0.0
H1095 H 0.94391 0.58132 0.33176 0.0
H1096 H 0.14946 0.79052 0.34745 0.0
C1097 C 0.24122 0.76409 0.36334 0.0
O1098 O 0.18945 0.76468 0.37367 0.0
N1099 N 0.15657 0.54044 0.35669 0.0
C1100 C 0.11762 0.4698 0.36467 0.0
C1101 C 0.17138 0.44515 0.36842 0.0
C1102 C 0.23281 0.55524 0.35471 0.0
N1103 N 0.24351 0.49827 0.36209 0.0
C1104 C 1.02279 0.63223 0.37711 0.0
C1105 C 0.12098 0.62829 0.401 0.0
C1106 C 0.07958 0.66912 0.40429 0.0
C1107 C 1.02488 0.6657 0.39258 0.0
C1108 C 0.12438 0.60519 0.38522 0.0
N1109 N 0.0786 0.61041 0.373 0.0
H1110 H 0.98135 0.63147 0.3682 0.0
H1111 H 0.17262 0.59375 0.38295 0.0
H1112 H 0.05512 0.44029 0.36821 0.0
H1113 H 0.27971 0.60755 0.34858 0.0
O1114 O 1.01465 0.50323 0.34283 0.0
O1115 O 0.12242 0.58106 0.32807 0.0
O1116 O 0.21832 0.7063 0.35303 0.0
C1117 C 0.05723 0.51179 0.32977 0.0
H1118 H 1.04386 0.82877 0.34021 0.0
H1119 H 0.15803 0.39137 0.37513 0.0
H1120 H 0.16081 0.62526 0.40997 0.0
H1121 H 0.98869 0.6933 0.39486 0.0
Co1122 Co 0.47075 0.519 0.35006 0.0
C1123 C 0.43267 0.35751 0.33556 0.0
C1124 C 0.32794 0.3572 0.34435 0.0
C1125 C 0.30711 0.2805 0.34038 0.0
N1126 N 0.40768 0.40637 0.34234 0.0
N1127 N 0.37206 0.27982 0.33458 0.0
H1128 H 0.49366 0.37773 0.33174 0.0
H1129 H 0.28451 0.37393 0.34752 0.0
C1130 C 0.31092 0.49227 0.36335 0.0
O1131 O 0.31035 0.43998 0.3737 0.0
N1132 N 0.53453 0.63123 0.35669 0.0
C1133 C 0.60515 0.66293 0.36469 0.0
C1134 C 0.62974 0.74132 0.36845 0.0
C1135 C 0.51971 0.69266 0.35472 0.0
N1136 N 0.57662 0.76032 0.36211 0.0
C1137 C 0.44275 0.40564 0.37712 0.0
C1138 C 0.44669 0.50776 0.40101 0.0
C1139 C 0.40584 0.42553 0.4043 0.0
C1140 C 0.40926 0.37426 0.39259 0.0
C1141 C 0.46981 0.53428 0.38524 0.0
N1142 N 0.46458 0.48327 0.37301 0.0
H1143 H 0.44353 0.36498 0.36821 0.0
H1144 H 0.48125 0.59396 0.38297 0.0
H1145 H 0.63466 0.62995 0.36822 0.0
H1146 H 0.46739 0.68723 0.34859 0.0
O1147 O 0.57177 0.52653 0.34284 0.0
O1148 O 0.49394 0.55645 0.32808 0.0
O1149 O 0.36869 0.5271 0.35304 0.0
C1150 C 0.56321 0.56054 0.32978 0.0
H1151 H 0.24629 0.23011 0.34026 0.0
H1152 H 0.68347 0.78174 0.37517 0.0
H1153 H 0.44972 0.55062 0.40999 0.0
H1154 H 0.38165 0.31046 0.39486 0.0
Co1155 Co 0.55602 0.96693 0.35008 0.0
C1156 C 0.71748 0.09025 0.33555 0.0
C1157 C 0.71798 0.98612 0.34448 0.0
C1158 C 0.79465 0.04199 0.34049 0.0
N1159 N 0.6687 1.01651 0.34238 0.0
N1160 N 0.79522 0.10743 0.3346 0.0
H1161 H 0.69717 0.13085 0.33166 0.0
H1162 H 0.70138 0.92611 0.34774 0.0
C1163 C 0.58255 0.8337 0.36339 0.0
O1164 O 0.63459 0.88528 0.3738 0.0
N1165 N 0.44378 0.91847 0.3567 0.0
C1166 C 0.41202 0.95743 0.36466 0.0
C1167 C 0.3336 0.90366 0.36839 0.0
C1168 C 0.38235 0.84221 0.35472 0.0
N1169 N 0.31464 0.83151 0.36208 0.0
C1170 C 0.6693 0.05226 0.37715 0.0
C1171 C 0.56706 0.95425 0.40104 0.0
C1172 C 0.64928 0.99552 0.40434 0.0
C1173 C 0.70062 0.05015 0.39263 0.0
C1174 C 0.54059 0.95082 0.38526 0.0
N1175 N 0.59167 0.9965 0.37304 0.0
H1176 H 0.71002 0.09367 0.36824 0.0
H1177 H 0.48088 0.90264 0.383 0.0
H1178 H 0.44497 1.01994 0.36818 0.0
H1179 H 0.38782 0.7953 0.34861 0.0
O1180 O 0.54852 0.06043 0.34285 0.0
O1181 O 0.51867 0.95269 0.3281 0.0
O1182 O 0.54792 0.85675 0.35305 0.0
C1183 C 0.51454 1.01786 0.32979 0.0
H1184 H 0.84511 0.03168 0.34043 0.0
H1185 H 0.29313 0.91702 0.37508 0.0
H1186 H 0.52415 0.91449 0.41002 0.0
H1187 H 0.76442 0.08626 0.39491 0.0
loop_
_geom_bond_atom_site_label_1
_geom_bond_atom_site_label_2
_geom_bond_distance
_geom_bond_site_symmetry_2
_ccdc_geom_bond_type
Co0 N4 2.148 . S
Co0 N10 2.128 . S
Co0 N20 2.194 . S
Co0 O25 2.351 . S
Co0 O26 2.155 . S
Co0 O27 2.096 . S
C1 N4 1.301 . S
C1 N5 1.328 1_455 S
C1 H6 0.930 . S
C2 C3 1.333 . S
C2 N4 1.317 1_655 S
C2 H7 0.930 . S
C3 C2 1.333 . S
C3 N5 1.350 . S
C3 H29 0.931 . S
N4 Co0 2.148 . S
N4 C1 1.301 . S
N4 C2 1.317 1_455 S
N5 C1 1.328 1_655 S
N5 C3 1.350 . S
H6 C1 0.930 . S
H7 C2 0.930 . S
C8 O9 1.224 . S
C8 O27 1.247 1_655 S
O9 C8 1.224 . S
N10 Co0 2.128 . S
N10 C11 1.355 . S
N10 C13 1.311 . S
C11 N10 1.355 . S
C11 C12 1.363 . S
C11 H23 0.929 . S
C12 C11 1.363 . S
C12 N14 1.375 . S
C12 H30 0.931 . S
C13 N10 1.311 . S
C13 N14 1.347 . S
C13 H24 0.929 . S
N14 C12 1.375 . S
N14 C13 1.347 . S
C15 C18 1.365 . S
C15 N20 1.328 . S
C15 H21 0.929 . S
C16 C17 1.362 . S
C16 C19 1.378 . S
C16 H31 0.929 1_455 S
C17 C16 1.362 . S
C17 C18 1.366 . S
C18 C15 1.365 . S
C18 C17 1.366 . S
C18 H32 0.930 . S
C19 C16 1.378 . S
C19 N20 1.315 . S
C19 H22 0.930 1_455 S
N20 Co0 2.194 . S
N20 C15 1.328 . S
N20 C19 1.315 . S
H21 C15 0.929 . S
H22 C19 0.930 1_655 S
H23 C11 0.929 . S
H24 C13 0.929 . S
O25 Co0 2.351 . S
O25 C28 1.244 . S
O26 Co0 2.155 . S
O26 C28 1.240 . S
O27 Co0 2.096 . S
O27 C8 1.247 1_455 S
C28 O25 1.244 . S
C28 O26 1.240 . S
H29 C3 0.931 . S
H30 C12 0.931 . S
H31 C16 0.929 1_655 S
H32 C18 0.930 . S
Co33 N37 2.148 . S
Co33 N43 2.128 . S
Co33 N53 2.194 . S
Co33 O58 2.351 . S
Co33 O59 2.155 . S
Co33 O60 2.096 . S
C34 N37 1.301 . S
C34 N38 1.328 . S
C34 H39 0.930 . S
C35 C36 1.333 . S
C35 N37 1.317 . S
C35 H40 0.930 . S
C36 C35 1.333 . S
C36 N38 1.350 . S
C36 H62 0.931 . S
N37 Co33 2.148 . S
N37 C34 1.301 . S
N37 C35 1.317 . S
N38 C34 1.328 . S
N38 C36 1.350 . S
H39 C34 0.930 . S
H40 C35 0.930 . S
C41 O42 1.224 . S
C41 O60 1.247 . S
O42 C41 1.224 . S
N43 Co33 2.128 . S
N43 C44 1.355 . S
N43 C46 1.311 . S
C44 N43 1.355 . S
C44 C45 1.363 1_565 S
C44 H56 0.929 . S
C45 C44 1.363 1_545 S
C45 N47 1.375 . S
C45 H63 0.931 . S
C46 N43 1.311 . S
C46 N47 1.347 1_565 S
C46 H57 0.929 . S
N47 C45 1.375 . S
N47 C46 1.347 1_545 S
C48 C51 1.365 . S
C48 N53 1.328 . S
C48 H54 0.929 . S
C49 C50 1.362 . S
C49 C52 1.378 . S
C49 H64 0.929 . S
C50 C49 1.362 . S
C50 C51 1.366 . S
C51 C48 1.365 . S
C51 C50 1.366 . S
C51 H65 0.930 . S
C52 C49 1.378 . S
C52 N53 1.315 . S
C52 H55 0.930 . S
N53 Co33 2.194 . S
N53 C48 1.328 . S
N53 C52 1.315 . S
H54 C48 0.929 . S
H55 C52 0.930 . S
H56 C44 0.929 . S
H57 C46 0.929 . S
O58 Co33 2.351 . S
O58 C61 1.244 . S
O59 Co33 2.155 . S
O59 C61 1.240 . S
O60 Co33 2.096 . S
O60 C41 1.247 . S
C61 O58 1.244 . S
C61 O59 1.240 . S
H62 C36 0.931 . S
H63 C45 0.931 . S
H64 C49 0.929 . S
H65 C51 0.930 . S
Co66 N70 2.148 . S
Co66 N76 2.128 . S
Co66 N86 2.194 . S
Co66 O91 2.351 . S
Co66 O92 2.155 . S
Co66 O93 2.096 . S
C67 N70 1.301 . S
C67 N71 1.328 1_565 S
C67 H72 0.930 . S
C68 C69 1.333 . S
C68 N70 1.317 1_545 S
C68 H73 0.930 . S
C69 C68 1.333 . S
C69 N71 1.350 . S
C69 H95 0.931 . S
N70 Co66 2.148 . S
N70 C67 1.301 . S
N70 C68 1.317 1_565 S
N71 C67 1.328 1_545 S
N71 C69 1.350 . S
H72 C67 0.930 . S
H73 C68 0.930 . S
C74 O75 1.224 . S
C74 O93 1.247 1_545 S
O75 C74 1.224 . S
N76 Co66 2.128 . S
N76 C77 1.355 . S
N76 C79 1.311 . S
C77 N76 1.355 . S
C77 C78 1.363 1_455 S
C77 H89 0.929 . S
C78 C77 1.363 1_655 S
C78 N80 1.375 . S
C78 H96 0.931 . S
C79 N76 1.311 . S
C79 N80 1.347 1_455 S
C79 H90 0.929 . S
N80 C78 1.375 . S
N80 C79 1.347 1_655 S
C81 C84 1.365 . S
C81 N86 1.328 . S
C81 H87 0.929 . S
C82 C83 1.362 . S
C82 C85 1.378 . S
C82 H97 0.929 1_565 S
C83 C82 1.362 . S
C83 C84 1.366 . S
C84 C81 1.365 . S
C84 C83 1.366 . S
C84 H98 0.930 . S
C85 C82 1.378 . S
C85 N86 1.315 . S
C85 H88 0.930 1_565 S
N86 Co66 2.194 . S
N86 C81 1.328 . S
N86 C85 1.315 . S
H87 C81 0.929 . S
H88 C85 0.930 1_545 S
H89 C77 0.929 . S
H90 C79 0.929 . S
O91 Co66 2.351 . S
O91 C94 1.244 . S
O92 Co66 2.155 . S
O92 C94 1.240 . S
O93 Co66 2.096 . S
O93 C74 1.247 1_565 S
C94 O91 1.244 . S
C94 O92 1.240 . S
H95 C69 0.931 . S
H96 C78 0.931 . S
H97 C82 0.929 1_545 S
H98 C84 0.930 . S
Co99 N103 2.148 . S
Co99 N109 2.128 . S
Co99 N119 2.194 . S
Co99 O124 2.351 . S
Co99 O125 2.155 . S
Co99 O126 2.096 . S
C100 N103 1.301 . S
C100 N104 1.328 1_545 S
C100 H105 0.930 . S
C101 C102 1.333 . S
C101 N103 1.317 1_565 S
C101 H106 0.930 . S
C102 C101 1.333 . S
C102 N104 1.350 . S
C102 H128 0.931 . S
N103 Co99 2.148 . S
N103 C100 1.301 . S
N103 C101 1.317 1_545 S
N104 C100 1.328 1_565 S
N104 C102 1.350 . S
H105 C100 0.930 . S
H106 C101 0.930 . S
C107 O108 1.224 . S
C107 O126 1.247 1_565 S
O108 C107 1.224 . S
N109 Co99 2.128 . S
N109 C110 1.355 . S
N109 C112 1.311 . S
C110 N109 1.355 . S
C110 C111 1.363 . S
C110 H122 0.929 . S
C111 C110 1.363 . S
C111 N113 1.375 . S
C111 H129 0.931 . S
C112 N109 1.311 . S
C112 N113 1.347 . S
C112 H123 0.929 . S
N113 C111 1.375 . S
N113 C112 1.347 . S
C114 C117 1.365 . S
C114 N119 1.328 . S
C114 H120 0.929 . S
C115 C116 1.362 . S
C115 C118 1.378 . S
C115 H130 0.929 1_545 S
C116 C115 1.362 . S
C116 C117 1.366 . S
C117 C114 1.365 . S
C117 C116 1.366 . S
C117 H131 0.930 . S
C118 C115 1.378 . S
C118 N119 1.315 . S
C118 H121 0.930 1_545 S
N119 Co99 2.194 . S
N119 C114 1.328 . S
N119 C118 1.315 . S
H120 C114 0.929 . S
H121 C118 0.930 1_565 S
H122 C110 0.929 . S
H123 C112 0.929 . S
O124 Co99 2.351 . S
O124 C127 1.244 . S
O125 Co99 2.155 . S
O125 C127 1.240 . S
O126 Co99 2.096 . S
O126 C107 1.247 1_545 S
C127 O124 1.244 . S
C127 O125 1.240 . S
H128 C102 0.931 . S
H129 C111 0.931 . S
H130 C115 0.929 1_565 S
H131 C117 0.930 . S
Co132 N136 2.148 . S
Co132 N142 2.128 . S
Co132 N152 2.194 . S
Co132 O157 2.351 . S
Co132 O158 2.155 . S
Co132 O159 2.096 . S
C133 N136 1.301 . S
C133 N137 1.328 1_655 S
C133 H138 0.930 . S
C134 C135 1.333 . S
C134 N136 1.317 1_455 S
C134 H139 0.930 . S
C135 C134 1.333 . S
C135 N137 1.350 . S
C135 H161 0.931 . S
N136 Co132 2.148 . S
N136 C133 1.301 . S
N136 C134 1.317 1_655 S
N137 C133 1.328 1_455 S
N137 C135 1.350 . S
H138 C133 0.930 . S
H139 C134 0.930 . S
C140 O141 1.224 . S
C140 O159 1.247 1_455 S
O141 C140 1.224 . S
N142 Co132 2.128 . S
N142 C143 1.355 . S
N142 C145 1.311 . S
C143 N142 1.355 . S
C143 C144 1.363 1_545 S
C143 H155 0.929 . S
C144 C143 1.363 1_565 S
C144 N146 1.375 . S
C144 H162 0.931 . S
C145 N142 1.311 . S
C145 N146 1.347 1_545 S
C145 H156 0.929 . S
N146 C144 1.375 . S
N146 C145 1.347 1_565 S
C147 C150 1.365 . S
C147 N152 1.328 . S
C147 H153 0.929 . S
C148 C149 1.362 . S
C148 C151 1.378 . S
C148 H163 0.929 1_655 S
C149 C148 1.362 . S
C149 C150 1.366 . S
C150 C147 1.365 . S
C150 C149 1.366 . S
C150 H164 0.930 . S
C151 C148 1.378 . S
C151 N152 1.315 . S
C151 H154 0.930 1_655 S
N152 Co132 2.194 . S
N152 C147 1.328 . S
N152 C151 1.315 . S
H153 C147 0.929 . S
H154 C151 0.930 1_455 S
H155 C143 0.929 . S
H156 C145 0.929 . S
O157 Co132 2.351 . S
O157 C160 1.244 . S
O158 Co132 2.155 . S
O158 C160 1.240 . S
O159 Co132 2.096 . S
O159 C140 1.247 1_655 S
C160 O157 1.244 . S
C160 O158 1.240 . S
H161 C135 0.931 . S
H162 C144 0.931 . S
H163 C148 0.929 1_455 S
H164 C150 0.930 . S
Co165 N169 2.148 . S
Co165 N175 2.128 . S
Co165 N185 2.194 . S
Co165 O190 2.351 . S
Co165 O191 2.155 . S
Co165 O192 2.096 . S
C166 N169 1.301 . S
C166 N170 1.328 . S
C166 H171 0.930 . S
C167 C168 1.333 . S
C167 N169 1.317 . S
C167 H172 0.930 . S
C168 C167 1.333 . S
C168 N170 1.350 . S
C168 H194 0.931 . S
N169 Co165 2.148 . S
N169 C166 1.301 . S
N169 C167 1.317 . S
N170 C166 1.328 . S
N170 C168 1.350 . S
H171 C166 0.930 . S
H172 C167 0.930 . S
C173 O174 1.224 . S
C173 O192 1.247 . S
O174 C173 1.224 . S
N175 Co165 2.128 . S
N175 C176 1.355 . S
N175 C178 1.311 . S
C176 N175 1.355 . S
C176 C177 1.363 1_655 S
C176 H188 0.929 . S
C177 C176 1.363 1_455 S
C177 N179 1.375 . S
C177 H195 0.931 . S
C178 N175 1.311 . S
C178 N179 1.347 1_655 S
C178 H189 0.929 . S
N179 C177 1.375 . S
N179 C178 1.347 1_455 S
C180 C183 1.365 . S
C180 N185 1.328 . S
C180 H186 0.929 . S
C181 C182 1.362 . S
C181 C184 1.378 . S
C181 H196 0.929 . S
C182 C181 1.362 . S
C182 C183 1.366 . S
C183 C180 1.365 . S
C183 C182 1.366 . S
C183 H197 0.930 . S
C184 C181 1.378 . S
C184 N185 1.315 . S
C184 H187 0.930 . S
N185 Co165 2.194 . S
N185 C180 1.328 . S
N185 C184 1.315 . S
H186 C180 0.929 . S
H187 C184 0.930 . S
H188 C176 0.929 . S
H189 C178 0.929 . S
O190 Co165 2.351 . S
O190 C193 1.244 . S
O191 Co165 2.155 . S
O191 C193 1.240 . S
O192 Co165 2.096 . S
O192 C173 1.247 . S
C193 O190 1.244 . S
C193 O191 1.240 . S
H194 C168 0.931 . S
H195 C177 0.931 . S
H196 C181 0.929 . S
H197 C183 0.930 . S
Co198 N202 2.148 . S
Co198 N208 2.128 . S
Co198 N218 2.194 . S
Co198 O223 2.351 . S
Co198 O224 2.155 . S
Co198 O225 2.096 . S
C199 N202 1.301 . S
C199 N203 1.328 1_655 S
C199 H204 0.930 . S
C200 C201 1.333 . S
C200 N202 1.317 1_455 S
C200 H205 0.930 . S
C201 C200 1.333 . S
C201 N203 1.350 . S
C201 H227 0.931 . S
N202 Co198 2.148 . S
N202 C199 1.301 . S
N202 C200 1.317 1_655 S
N203 C199 1.328 1_455 S
N203 C201 1.350 . S
H204 C199 0.930 . S
H205 C200 0.930 . S
C206 O207 1.224 . S
C206 O225 1.247 1_455 S
O207 C206 1.224 . S
N208 Co198 2.128 . S
N208 C209 1.355 . S
N208 C211 1.311 . S
C209 N208 1.355 . S
C209 C210 1.363 . S
C209 H221 0.929 . S
C210 C209 1.363 . S
C210 N212 1.375 . S
C210 H228 0.931 . S
C211 N208 1.311 . S
C211 N212 1.347 . S
C211 H222 0.929 . S
N212 C210 1.375 . S
N212 C211 1.347 . S
C213 C216 1.365 . S
C213 N218 1.328 . S
C213 H219 0.929 . S
C214 C215 1.362 . S
C214 C217 1.378 . S
C214 H229 0.929 1_655 S
C215 C214 1.362 . S
C215 C216 1.366 . S
C216 C213 1.365 . S
C216 C215 1.366 . S
C216 H230 0.930 . S
C217 C214 1.378 . S
C217 N218 1.315 . S
C217 H220 0.930 1_655 S
N218 Co198 2.194 . S
N218 C213 1.328 . S
N218 C217 1.315 . S
H219 C213 0.929 . S
H220 C217 0.930 1_455 S
H221 C209 0.929 . S
H222 C211 0.929 . S
O223 Co198 2.351 . S
O223 C226 1.244 . S
O224 Co198 2.155 . S
O224 C226 1.240 . S
O225 Co198 2.096 . S
O225 C206 1.247 1_655 S
C226 O223 1.244 . S
C226 O224 1.240 . S
H227 C201 0.931 . S
H228 C210 0.931 . S
H229 C214 0.929 1_455 S
H230 C216 0.930 . S
Co231 N235 2.148 . S
Co231 N241 2.128 . S
Co231 N251 2.194 . S
Co231 O256 2.351 . S
Co231 O257 2.155 . S
Co231 O258 2.096 . S
C232 N235 1.301 . S
C232 N236 1.328 . S
C232 H237 0.930 . S
C233 C234 1.333 . S
C233 N235 1.317 . S
C233 H238 0.930 . S
C234 C233 1.333 . S
C234 N236 1.350 . S
C234 H260 0.931 . S
N235 Co231 2.148 . S
N235 C232 1.301 . S
N235 C233 1.317 . S
N236 C232 1.328 . S
N236 C234 1.350 . S
H237 C232 0.930 . S
H238 C233 0.930 . S
C239 O240 1.224 . S
C239 O258 1.247 . S
O240 C239 1.224 . S
N241 Co231 2.128 . S
N241 C242 1.355 . S
N241 C244 1.311 . S
C242 N241 1.355 . S
C242 C243 1.363 1_545 S
C242 H254 0.929 . S
C243 C242 1.363 1_565 S
C243 N245 1.375 . S
C243 H261 0.931 . S
C244 N241 1.311 . S
C244 N245 1.347 1_545 S
C244 H255 0.929 . S
N245 C243 1.375 . S
N245 C244 1.347 1_565 S
C246 C249 1.365 . S
C246 N251 1.328 . S
C246 H252 0.929 . S
C247 C248 1.362 . S
C247 C250 1.378 . S
C247 H262 0.929 . S
C248 C247 1.362 . S
C248 C249 1.366 . S
C249 C246 1.365 . S
C249 C248 1.366 . S
C249 H263 0.930 . S
C250 C247 1.378 . S
C250 N251 1.315 . S
C250 H253 0.930 . S
N251 Co231 2.194 . S
N251 C246 1.328 . S
N251 C250 1.315 . S
H252 C246 0.929 . S
H253 C250 0.930 . S
H254 C242 0.929 . S
H255 C244 0.929 . S
O256 Co231 2.351 . S
O256 C259 1.244 . S
O257 Co231 2.155 . S
O257 C259 1.240 . S
O258 Co231 2.096 . S
O258 C239 1.247 . S
C259 O256 1.244 . S
C259 O257 1.240 . S
H260 C234 0.931 . S
H261 C243 0.931 . S
H262 C247 0.929 . S
H263 C249 0.930 . S
Co264 N268 2.148 . S
Co264 N274 2.128 . S
Co264 N284 2.194 . S
Co264 O289 2.351 . S
Co264 O290 2.155 . S
Co264 O291 2.096 . S
C265 N268 1.301 . S
C265 N269 1.328 1_545 S
C265 H270 0.930 . S
C266 C267 1.333 . S
C266 N268 1.317 1_565 S
C266 H271 0.930 . S
C267 C266 1.333 . S
C267 N269 1.350 . S
C267 H293 0.931 . S
N268 Co264 2.148 . S
N268 C265 1.301 . S
N268 C266 1.317 1_545 S
N269 C265 1.328 1_565 S
N269 C267 1.350 . S
H270 C265 0.930 . S
H271 C266 0.930 . S
C272 O273 1.224 . S
C272 O291 1.247 1_565 S
O273 C272 1.224 . S
N274 Co264 2.128 . S
N274 C275 1.355 . S
N274 C277 1.311 . S
C275 N274 1.355 . S
C275 C276 1.363 1_655 S
C275 H287 0.929 . S
C276 C275 1.363 1_455 S
C276 N278 1.375 . S
C276 H294 0.931 . S
C277 N274 1.311 . S
C277 N278 1.347 1_655 S
C277 H288 0.929 . S
N278 C276 1.375 . S
N278 C277 1.347 1_455 S
C279 C282 1.365 . S
C279 N284 1.328 . S
C279 H285 0.929 . S
C280 C281 1.362 . S
C280 C283 1.378 . S
C280 H295 0.929 1_545 S
C281 C280 1.362 . S
C281 C282 1.366 . S
C282 C279 1.365 . S
C282 C281 1.366 . S
C282 H296 0.930 . S
C283 C280 1.378 . S
C283 N284 1.315 . S
C283 H286 0.930 1_545 S
N284 Co264 2.194 . S
N284 C279 1.328 . S
N284 C283 1.315 . S
H285 C279 0.929 . S
H286 C283 0.930 1_565 S
H287 C275 0.929 . S
H288 C277 0.929 . S
O289 Co264 2.351 . S
O289 C292 1.244 . S
O290 Co264 2.155 . S
O290 C292 1.240 . S
O291 Co264 2.096 . S
O291 C272 1.247 1_545 S
C292 O289 1.244 . S
C292 O290 1.240 . S
H293 C267 0.931 . S
H294 C276 0.931 . S
H295 C280 0.929 1_565 S
H296 C282 0.930 . S
Co297 N301 2.148 . S
Co297 N307 2.128 . S
Co297 N317 2.194 . S
Co297 O322 2.351 . S
Co297 O323 2.155 . S
Co297 O324 2.096 . S
C298 N301 1.301 . S
C298 N302 1.328 1_565 S
C298 H303 0.930 . S
C299 C300 1.333 . S
C299 N301 1.317 1_545 S
C299 H304 0.930 . S
C300 C299 1.333 . S
C300 N302 1.350 . S
C300 H326 0.931 . S
N301 Co297 2.148 . S
N301 C298 1.301 . S
N301 C299 1.317 1_565 S
N302 C298 1.328 1_545 S
N302 C300 1.350 . S
H303 C298 0.930 . S
H304 C299 0.930 . S
C305 O306 1.224 . S
C305 O324 1.247 1_545 S
O306 C305 1.224 . S
N307 Co297 2.128 . S
N307 C308 1.355 . S
N307 C310 1.311 . S
C308 N307 1.355 . S
C308 C309 1.363 . S
C308 H320 0.929 . S
C309 C308 1.363 . S
C309 N311 1.375 . S
C309 H327 0.931 . S
C310 N307 1.311 . S
C310 N311 1.347 . S
C310 H321 0.929 . S
N311 C309 1.375 . S
N311 C310 1.347 . S
C312 C315 1.365 . S
C312 N317 1.328 . S
C312 H318 0.929 . S
C313 C314 1.362 . S
C313 C316 1.378 . S
C313 H328 0.929 1_565 S
C314 C313 1.362 . S
C314 C315 1.366 . S
C315 C312 1.365 . S
C315 C314 1.366 . S
C315 H329 0.930 . S
C316 C313 1.378 . S
C316 N317 1.315 . S
C316 H319 0.930 1_565 S
N317 Co297 2.194 . S
N317 C312 1.328 . S
N317 C316 1.315 . S
H318 C312 0.929 . S
H319 C316 0.930 1_545 S
H320 C308 0.929 . S
H321 C310 0.929 . S
O322 Co297 2.351 . S
O322 C325 1.244 . S
O323 Co297 2.155 . S
O323 C325 1.240 . S
O324 Co297 2.096 . S
O324 C305 1.247 1_565 S
C325 O322 1.244 . S
C325 O323 1.240 . S
H326 C300 0.931 . S
H327 C309 0.931 . S
H328 C313 0.929 1_545 S
H329 C315 0.930 . S
Co330 N334 2.148 . S
Co330 N340 2.128 . S
Co330 N350 2.194 . S
Co330 O355 2.351 . S
Co330 O356 2.155 . S
Co330 O357 2.096 . S
C331 N334 1.301 . S
C331 N335 1.328 1_455 S
C331 H336 0.930 . S
C332 C333 1.333 . S
C332 N334 1.317 1_655 S
C332 H337 0.930 . S
C333 C332 1.333 . S
C333 N335 1.350 . S
C333 H359 0.931 . S
N334 Co330 2.148 . S
N334 C331 1.301 . S
N334 C332 1.317 1_455 S
N335 C331 1.328 1_655 S
N335 C333 1.350 . S
H336 C331 0.930 . S
H337 C332 0.930 . S
C338 O339 1.224 . S
C338 O357 1.247 1_655 S
O339 C338 1.224 . S
N340 Co330 2.128 . S
N340 C341 1.355 . S
N340 C343 1.311 . S
C341 N340 1.355 . S
C341 C342 1.363 1_565 S
C341 H353 0.929 . S
C342 C341 1.363 1_545 S
C342 N344 1.375 . S
C342 H360 0.931 . S
C343 N340 1.311 . S
C343 N344 1.347 1_565 S
C343 H354 0.929 . S
N344 C342 1.375 . S
N344 C343 1.347 1_545 S
C345 C348 1.365 . S
C345 N350 1.328 . S
C345 H351 0.929 . S
C346 C347 1.362 . S
C346 C349 1.378 . S
C346 H361 0.929 1_455 S
C347 C346 1.362 . S
C347 C348 1.366 . S
C348 C345 1.365 . S
C348 C347 1.366 . S
C348 H362 0.930 . S
C349 C346 1.378 . S
C349 N350 1.315 . S
C349 H352 0.930 1_455 S
N350 Co330 2.194 . S
N350 C345 1.328 . S
N350 C349 1.315 . S
H351 C345 0.929 . S
H352 C349 0.930 1_655 S
H353 C341 0.929 . S
H354 C343 0.929 . S
O355 Co330 2.351 . S
O355 C358 1.244 . S
O356 Co330 2.155 . S
O356 C358 1.240 . S
O357 Co330 2.096 . S
O357 C338 1.247 1_455 S
C358 O355 1.244 . S
C358 O356 1.240 . S
H359 C333 0.931 . S
H360 C342 0.931 . S
H361 C346 0.929 1_655 S
H362 C348 0.930 . S
Co363 N367 2.148 . S
Co363 N373 2.128 . S
Co363 N383 2.194 . S
Co363 O388 2.351 . S
Co363 O389 2.155 . S
Co363 O390 2.096 . S
C364 N367 1.301 . S
C364 N368 1.328 . S
C364 H369 0.930 . S
C365 C366 1.333 . S
C365 N367 1.317 . S
C365 H370 0.930 . S
C366 C365 1.333 . S
C366 N368 1.350 . S
C366 H392 0.931 . S
N367 Co363 2.148 . S
N367 C364 1.301 . S
N367 C365 1.317 . S
N368 C364 1.328 . S
N368 C366 1.350 . S
H369 C364 0.930 . S
H370 C365 0.930 . S
C371 O372 1.224 . S
C371 O390 1.247 . S
O372 C371 1.224 . S
N373 Co363 2.128 . S
N373 C374 1.355 . S
N373 C376 1.311 . S
C374 N373 1.355 . S
C374 C375 1.363 1_455 S
C374 H386 0.929 . S
C375 C374 1.363 1_655 S
C375 N377 1.375 . S
C375 H393 0.931 . S
C376 N373 1.311 . S
C376 N377 1.347 1_455 S
C376 H387 0.929 . S
N377 C375 1.375 . S
N377 C376 1.347 1_655 S
C378 C381 1.365 . S
C378 N383 1.328 . S
C378 H384 0.929 . S
C379 C380 1.362 . S
C379 C382 1.378 . S
C379 H394 0.929 . S
C380 C379 1.362 . S
C380 C381 1.366 . S
C381 C378 1.365 . S
C381 C380 1.366 . S
C381 H395 0.930 . S
C382 C379 1.378 . S
C382 N383 1.315 . S
C382 H385 0.930 . S
N383 Co363 2.194 . S
N383 C378 1.328 . S
N383 C382 1.315 . S
H384 C378 0.929 . S
H385 C382 0.930 . S
H386 C374 0.929 . S
H387 C376 0.929 . S
O388 Co363 2.351 . S
O388 C391 1.244 . S
O389 Co363 2.155 . S
O389 C391 1.240 . S
O390 Co363 2.096 . S
O390 C371 1.247 . S
C391 O388 1.244 . S
C391 O389 1.240 . S
H392 C366 0.931 . S
H393 C375 0.931 . S
H394 C379 0.929 . S
H395 C381 0.930 . S
Co396 N400 2.148 . S
Co396 N406 2.128 . S
Co396 N416 2.194 . S
Co396 O421 2.351 . S
Co396 O422 2.155 . S
Co396 O423 2.096 . S
C397 N400 1.301 . S
C397 N401 1.328 . S
C397 H402 0.930 . S
C398 C399 1.333 . S
C398 N400 1.317 . S
C398 H403 0.930 . S
C399 C398 1.333 . S
C399 N401 1.350 . S
C399 H425 0.931 . S
N400 Co396 2.148 . S
N400 C397 1.301 . S
N400 C398 1.317 . S
N401 C397 1.328 . S
N401 C399 1.350 . S
H402 C397 0.930 . S
H403 C398 0.930 . S
C404 O405 1.224 . S
C404 O423 1.247 . S
O405 C404 1.224 . S
N406 Co396 2.128 . S
N406 C407 1.355 . S
N406 C409 1.311 . S
C407 N406 1.355 . S
C407 C408 1.363 . S
C407 H419 0.929 . S
C408 C407 1.363 . S
C408 N410 1.375 . S
C408 H426 0.931 . S
C409 N406 1.311 . S
C409 N410 1.347 . S
C409 H420 0.929 . S
N410 C408 1.375 . S
N410 C409 1.347 . S
C411 C414 1.365 . S
C411 N416 1.328 . S
C411 H417 0.929 . S
C412 C413 1.362 . S
C412 C415 1.378 . S
C412 H427 0.929 . S
C413 C412 1.362 . S
C413 C414 1.366 . S
C414 C411 1.365 . S
C414 C413 1.366 . S
C414 H428 0.930 . S
C415 C412 1.378 . S
C415 N416 1.315 . S
C415 H418 0.930 . S
N416 Co396 2.194 . S
N416 C411 1.328 . S
N416 C415 1.315 . S
H417 C411 0.929 . S
H418 C415 0.930 . S
H419 C407 0.929 . S
H420 C409 0.929 . S
O421 Co396 2.351 . S
O421 C424 1.244 . S
O422 Co396 2.155 . S
O422 C424 1.240 . S
O423 Co396 2.096 . S
O423 C404 1.247 . S
C424 O421 1.244 . S
C424 O422 1.240 . S
H425 C399 0.931 . S
H426 C408 0.931 . S
H427 C412 0.929 . S
H428 C414 0.930 . S
Co429 N433 2.148 . S
Co429 N439 2.128 . S
Co429 N449 2.194 . S
Co429 O454 2.351 . S
Co429 O455 2.155 . S
Co429 O456 2.096 . S
C430 N433 1.301 1_565 S
C430 N434 1.328 . S
C430 H435 0.930 1_565 S
C431 C432 1.333 1_545 S
C431 N433 1.317 . S
C431 H436 0.930 . S
C432 C431 1.333 1_565 S
C432 N434 1.350 . S
C432 H458 0.931 . S
N433 Co429 2.148 . S
N433 C430 1.301 1_545 S
N433 C431 1.317 . S
N434 C430 1.328 . S
N434 C432 1.350 . S
H435 C430 0.930 1_545 S
H436 C431 0.930 . S
C437 O438 1.224 . S
C437 O456 1.247 . S
O438 C437 1.224 . S
N439 Co429 2.128 . S
N439 C440 1.355 . S
N439 C442 1.311 . S
C440 N439 1.355 . S
C440 C441 1.363 . S
C440 H452 0.929 . S
C441 C440 1.363 . S
C441 N443 1.375 . S
C441 H459 0.931 . S
C442 N439 1.311 . S
C442 N443 1.347 . S
C442 H453 0.929 . S
N443 C441 1.375 . S
N443 C442 1.347 . S
C444 C447 1.365 . S
C444 N449 1.328 . S
C444 H450 0.929 . S
C445 C446 1.362 . S
C445 C448 1.378 . S
C445 H460 0.929 . S
C446 C445 1.362 . S
C446 C447 1.366 . S
C447 C444 1.365 . S
C447 C446 1.366 . S
C447 H461 0.930 . S
C448 C445 1.378 . S
C448 N449 1.315 . S
C448 H451 0.930 . S
N449 Co429 2.194 . S
N449 C444 1.328 . S
N449 C448 1.315 . S
H450 C444 0.929 . S
H451 C448 0.930 . S
H452 C440 0.929 . S
H453 C442 0.929 . S
O454 Co429 2.351 . S
O454 C457 1.244 . S
O455 Co429 2.155 . S
O455 C457 1.240 . S
O456 Co429 2.096 . S
O456 C437 1.247 . S
C457 O454 1.244 . S
C457 O455 1.240 . S
H458 C432 0.931 . S
H459 C441 0.931 . S
H460 C445 0.929 . S
H461 C447 0.930 . S
Co462 N466 2.148 . S
Co462 N472 2.128 . S
Co462 N482 2.194 . S
Co462 O487 2.351 . S
Co462 O488 2.155 . S
Co462 O489 2.096 . S
C463 N466 1.301 1_455 S
C463 N467 1.328 . S
C463 H468 0.930 1_455 S
C464 C465 1.333 1_655 S
C464 N466 1.317 . S
C464 H469 0.930 . S
C465 C464 1.333 1_455 S
C465 N467 1.350 . S
C465 H491 0.931 . S
N466 Co462 2.148 . S
N466 C463 1.301 1_655 S
N466 C464 1.317 . S
N467 C463 1.328 . S
N467 C465 1.350 . S
H468 C463 0.930 1_655 S
H469 C464 0.930 . S
C470 O471 1.224 . S
C470 O489 1.247 . S
O471 C470 1.224 . S
N472 Co462 2.128 . S
N472 C473 1.355 . S
N472 C475 1.311 . S
C473 N472 1.355 . S
C473 C474 1.363 . S
C473 H485 0.929 . S
C474 C473 1.363 . S
C474 N476 1.375 . S
C474 H492 0.931 . S
C475 N472 1.311 . S
C475 N476 1.347 . S
C475 H486 0.929 . S
N476 C474 1.375 . S
N476 C475 1.347 . S
C477 C480 1.365 . S
C477 N482 1.328 . S
C477 H483 0.929 . S
C478 C479 1.362 . S
C478 C481 1.378 . S
C478 H493 0.929 . S
C479 C478 1.362 . S
C479 C480 1.366 . S
C480 C477 1.365 . S
C480 C479 1.366 . S
C480 H494 0.930 . S
C481 C478 1.378 . S
C481 N482 1.315 . S
C481 H484 0.930 . S
N482 Co462 2.194 . S
N482 C477 1.328 . S
N482 C481 1.315 . S
H483 C477 0.929 . S
H484 C481 0.930 . S
H485 C473 0.929 . S
H486 C475 0.929 . S
O487 Co462 2.351 . S
O487 C490 1.244 . S
O488 Co462 2.155 . S
O488 C490 1.240 . S
O489 Co462 2.096 . S
O489 C470 1.247 . S
C490 O487 1.244 . S
C490 O488 1.240 . S
H491 C465 0.931 . S
H492 C474 0.931 . S
H493 C478 0.929 . S
H494 C480 0.930 . S
Co495 N499 2.148 . S
Co495 N505 2.128 . S
Co495 N515 2.194 . S
Co495 O520 2.351 1_655 S
Co495 O521 2.155 . S
Co495 O522 2.096 . S
C496 N499 1.301 1_455 S
C496 N500 1.328 . S
C496 H501 0.930 . S
C497 C498 1.333 . S
C497 N499 1.317 . S
C497 H502 0.930 . S
C498 C497 1.333 . S
C498 N500 1.350 1_655 S
C498 H524 0.931 . S
N499 Co495 2.148 . S
N499 C496 1.301 1_655 S
N499 C497 1.317 . S
N500 C496 1.328 . S
N500 C498 1.350 1_455 S
H501 C496 0.930 . S
H502 C497 0.930 . S
C503 O504 1.224 . S
C503 O522 1.247 . S
O504 C503 1.224 . S
N505 Co495 2.128 . S
N505 C506 1.355 . S
N505 C508 1.311 . S
C506 N505 1.355 . S
C506 C507 1.363 . S
C506 H518 0.929 . S
C507 C506 1.363 . S
C507 N509 1.375 . S
C507 H525 0.931 . S
C508 N505 1.311 . S
C508 N509 1.347 . S
C508 H519 0.929 . S
N509 C507 1.375 . S
N509 C508 1.347 . S
C510 C513 1.365 . S
C510 N515 1.328 1_455 S
C510 H516 0.929 . S
C511 C512 1.362 . S
C511 C514 1.378 . S
C511 H526 0.929 . S
C512 C511 1.362 . S
C512 C513 1.366 1_655 S
C513 C510 1.365 . S
C513 C512 1.366 1_455 S
C513 H527 0.930 . S
C514 C511 1.378 . S
C514 N515 1.315 . S
C514 H517 0.930 . S
N515 Co495 2.194 . S
N515 C510 1.328 1_655 S
N515 C514 1.315 . S
H516 C510 0.929 . S
H517 C514 0.930 . S
H518 C506 0.929 . S
H519 C508 0.929 . S
O520 Co495 2.351 1_455 S
O520 C523 1.244 . S
O521 Co495 2.155 . S
O521 C523 1.240 1_655 S
O522 Co495 2.096 . S
O522 C503 1.247 . S
C523 O520 1.244 . S
C523 O521 1.240 1_455 S
H524 C498 0.931 . S
H525 C507 0.931 . S
H526 C511 0.929 . S
H527 C513 0.930 . S
Co528 N532 2.148 . S
Co528 N538 2.128 . S
Co528 N548 2.194 . S
Co528 O553 2.351 . S
Co528 O554 2.155 . S
Co528 O555 2.096 . S
C529 N532 1.301 . S
C529 N533 1.328 . S
C529 H534 0.930 . S
C530 C531 1.333 . S
C530 N532 1.317 . S
C530 H535 0.930 . S
C531 C530 1.333 . S
C531 N533 1.350 . S
C531 H557 0.931 . S
N532 Co528 2.148 . S
N532 C529 1.301 . S
N532 C530 1.317 . S
N533 C529 1.328 . S
N533 C531 1.350 . S
H534 C529 0.930 . S
H535 C530 0.930 . S
C536 O537 1.224 . S
C536 O555 1.247 . S
O537 C536 1.224 . S
N538 Co528 2.128 . S
N538 C539 1.355 . S
N538 C541 1.311 . S
C539 N538 1.355 . S
C539 C540 1.363 . S
C539 H551 0.929 . S
C540 C539 1.363 . S
C540 N542 1.375 . S
C540 H558 0.931 . S
C541 N538 1.311 . S
C541 N542 1.347 . S
C541 H552 0.929 . S
N542 C540 1.375 . S
N542 C541 1.347 . S
C543 C546 1.365 . S
C543 N548 1.328 . S
C543 H549 0.929 . S
C544 C545 1.362 . S
C544 C547 1.378 . S
C544 H559 0.929 . S
C545 C544 1.362 . S
C545 C546 1.366 . S
C546 C543 1.365 . S
C546 C545 1.366 . S
C546 H560 0.930 . S
C547 C544 1.378 . S
C547 N548 1.315 . S
C547 H550 0.930 . S
N548 Co528 2.194 . S
N548 C543 1.328 . S
N548 C547 1.315 . S
H549 C543 0.929 . S
H550 C547 0.930 . S
H551 C539 0.929 . S
H552 C541 0.929 . S
O553 Co528 2.351 . S
O553 C556 1.244 . S
O554 Co528 2.155 . S
O554 C556 1.240 . S
O555 Co528 2.096 . S
O555 C536 1.247 . S
C556 O553 1.244 . S
C556 O554 1.240 . S
H557 C531 0.931 . S
H558 C540 0.931 . S
H559 C544 0.929 . S
H560 C546 0.930 . S
Co561 N565 2.148 . S
Co561 N571 2.128 . S
Co561 N581 2.194 . S
Co561 O586 2.351 1_545 S
Co561 O587 2.155 . S
Co561 O588 2.096 . S
C562 N565 1.301 1_565 S
C562 N566 1.328 . S
C562 H567 0.930 . S
C563 C564 1.333 . S
C563 N565 1.317 . S
C563 H568 0.930 . S
C564 C563 1.333 . S
C564 N566 1.350 1_545 S
C564 H590 0.931 . S
N565 Co561 2.148 . S
N565 C562 1.301 1_545 S
N565 C563 1.317 . S
N566 C562 1.328 . S
N566 C564 1.350 1_565 S
H567 C562 0.930 . S
H568 C563 0.930 . S
C569 O570 1.224 . S
C569 O588 1.247 . S
O570 C569 1.224 . S
N571 Co561 2.128 . S
N571 C572 1.355 . S
N571 C574 1.311 . S
C572 N571 1.355 . S
C572 C573 1.363 . S
C572 H584 0.929 . S
C573 C572 1.363 . S
C573 N575 1.375 . S
C573 H591 0.931 . S
C574 N571 1.311 . S
C574 N575 1.347 . S
C574 H585 0.929 . S
N575 C573 1.375 . S
N575 C574 1.347 . S
C576 C579 1.365 . S
C576 N581 1.328 1_565 S
C576 H582 0.929 . S
C577 C578 1.362 . S
C577 C580 1.378 . S
C577 H592 0.929 . S
C578 C577 1.362 . S
C578 C579 1.366 1_545 S
C579 C576 1.365 . S
C579 C578 1.366 1_565 S
C579 H593 0.930 . S
C580 C577 1.378 . S
C580 N581 1.315 . S
C580 H583 0.930 . S
N581 Co561 2.194 . S
N581 C576 1.328 1_545 S
N581 C580 1.315 . S
H582 C576 0.929 . S
H583 C580 0.930 . S
H584 C572 0.929 . S
H585 C574 0.929 . S
O586 Co561 2.351 1_565 S
O586 C589 1.244 . S
O587 Co561 2.155 . S
O587 C589 1.240 1_545 S
O588 Co561 2.096 . S
O588 C569 1.247 . S
C589 O586 1.244 . S
C589 O587 1.240 1_565 S
H590 C564 0.931 . S
H591 C573 0.931 . S
H592 C577 0.929 . S
H593 C579 0.930 . S
Co594 N598 2.148 . S
Co594 N604 2.128 . S
Co594 N614 2.194 . S
Co594 O619 2.351 1_545 S
Co594 O620 2.155 . S
Co594 O621 2.096 . S
C595 N598 1.301 1_565 S
C595 N599 1.328 . S
C595 H600 0.930 . S
C596 C597 1.333 . S
C596 N598 1.317 . S
C596 H601 0.930 . S
C597 C596 1.333 . S
C597 N599 1.350 1_545 S
C597 H623 0.931 . S
N598 Co594 2.148 . S
N598 C595 1.301 1_545 S
N598 C596 1.317 . S
N599 C595 1.328 . S
N599 C597 1.350 1_565 S
H600 C595 0.930 . S
H601 C596 0.930 . S
C602 O603 1.224 . S
C602 O621 1.247 . S
O603 C602 1.224 . S
N604 Co594 2.128 . S
N604 C605 1.355 . S
N604 C607 1.311 . S
C605 N604 1.355 . S
C605 C606 1.363 . S
C605 H617 0.929 . S
C606 C605 1.363 . S
C606 N608 1.375 . S
C606 H624 0.931 . S
C607 N604 1.311 . S
C607 N608 1.347 . S
C607 H618 0.929 . S
N608 C606 1.375 . S
N608 C607 1.347 . S
C609 C612 1.365 . S
C609 N614 1.328 1_565 S
C609 H615 0.929 . S
C610 C611 1.362 . S
C610 C613 1.378 . S
C610 H625 0.929 . S
C611 C610 1.362 . S
C611 C612 1.366 1_545 S
C612 C609 1.365 . S
C612 C611 1.366 1_565 S
C612 H626 0.930 . S
C613 C610 1.378 . S
C613 N614 1.315 . S
C613 H616 0.930 . S
N614 Co594 2.194 . S
N614 C609 1.328 1_545 S
N614 C613 1.315 . S
H615 C609 0.929 . S
H616 C613 0.930 . S
H617 C605 0.929 . S
H618 C607 0.929 . S
O619 Co594 2.351 1_565 S
O619 C622 1.244 . S
O620 Co594 2.155 . S
O620 C622 1.240 1_545 S
O621 Co594 2.096 . S
O621 C602 1.247 . S
C622 O619 1.244 . S
C622 O620 1.240 1_565 S
H623 C597 0.931 . S
H624 C606 0.931 . S
H625 C610 0.929 . S
H626 C612 0.930 . S
Co627 N631 2.148 . S
Co627 N637 2.128 . S
Co627 N647 2.194 . S
Co627 O652 2.351 1_655 S
Co627 O653 2.155 . S
Co627 O654 2.096 . S
C628 N631 1.301 1_455 S
C628 N632 1.328 . S
C628 H633 0.930 . S
C629 C630 1.333 . S
C629 N631 1.317 . S
C629 H634 0.930 . S
C630 C629 1.333 . S
C630 N632 1.350 1_655 S
C630 H656 0.931 . S
N631 Co627 2.148 . S
N631 C628 1.301 1_655 S
N631 C629 1.317 . S
N632 C628 1.328 . S
N632 C630 1.350 1_455 S
H633 C628 0.930 . S
H634 C629 0.930 . S
C635 O636 1.224 . S
C635 O654 1.247 . S
O636 C635 1.224 . S
N637 Co627 2.128 . S
N637 C638 1.355 . S
N637 C640 1.311 . S
C638 N637 1.355 . S
C638 C639 1.363 . S
C638 H650 0.929 . S
C639 C638 1.363 . S
C639 N641 1.375 . S
C639 H657 0.931 . S
C640 N637 1.311 . S
C640 N641 1.347 . S
C640 H651 0.929 . S
N641 C639 1.375 . S
N641 C640 1.347 . S
C642 C645 1.365 . S
C642 N647 1.328 1_455 S
C642 H648 0.929 . S
C643 C644 1.362 . S
C643 C646 1.378 . S
C643 H658 0.929 . S
C644 C643 1.362 . S
C644 C645 1.366 1_655 S
C645 C642 1.365 . S
C645 C644 1.366 1_455 S
C645 H659 0.930 . S
C646 C643 1.378 . S
C646 N647 1.315 . S
C646 H649 0.930 . S
N647 Co627 2.194 . S
N647 C642 1.328 1_655 S
N647 C646 1.315 . S
H648 C642 0.929 . S
H649 C646 0.930 . S
H650 C638 0.929 . S
H651 C640 0.929 . S
O652 Co627 2.351 1_455 S
O652 C655 1.244 . S
O653 Co627 2.155 . S
O653 C655 1.240 1_655 S
O654 Co627 2.096 . S
O654 C635 1.247 . S
C655 O652 1.244 . S
C655 O653 1.240 1_455 S
H656 C630 0.931 . S
H657 C639 0.931 . S
H658 C643 0.929 . S
H659 C645 0.930 . S
Co660 N664 2.148 . S
Co660 N670 2.128 . S
Co660 N680 2.194 . S
Co660 O685 2.351 . S
Co660 O686 2.155 . S
Co660 O687 2.096 . S
C661 N664 1.301 . S
C661 N665 1.328 . S
C661 H666 0.930 . S
C662 C663 1.333 . S
C662 N664 1.317 . S
C662 H667 0.930 . S
C663 C662 1.333 . S
C663 N665 1.350 . S
C663 H689 0.931 . S
N664 Co660 2.148 . S
N664 C661 1.301 . S
N664 C662 1.317 . S
N665 C661 1.328 . S
N665 C663 1.350 . S
H666 C661 0.930 . S
H667 C662 0.930 . S
C668 O669 1.224 . S
C668 O687 1.247 . S
O669 C668 1.224 . S
N670 Co660 2.128 . S
N670 C671 1.355 . S
N670 C673 1.311 . S
C671 N670 1.355 . S
C671 C672 1.363 . S
C671 H683 0.929 . S
C672 C671 1.363 . S
C672 N674 1.375 . S
C672 H690 0.931 . S
C673 N670 1.311 . S
C673 N674 1.347 . S
C673 H684 0.929 . S
N674 C672 1.375 . S
N674 C673 1.347 . S
C675 C678 1.365 . S
C675 N680 1.328 . S
C675 H681 0.929 . S
C676 C677 1.362 . S
C676 C679 1.378 . S
C676 H691 0.929 . S
C677 C676 1.362 . S
C677 C678 1.366 . S
C678 C675 1.365 . S
C678 C677 1.366 . S
C678 H692 0.930 . S
C679 C676 1.378 . S
C679 N680 1.315 . S
C679 H682 0.930 . S
N680 Co660 2.194 . S
N680 C675 1.328 . S
N680 C679 1.315 . S
H681 C675 0.929 . S
H682 C679 0.930 . S
H683 C671 0.929 . S
H684 C673 0.929 . S
O685 Co660 2.351 . S
O685 C688 1.244 . S
O686 Co660 2.155 . S
O686 C688 1.240 . S
O687 Co660 2.096 . S
O687 C668 1.247 . S
C688 O685 1.244 . S
C688 O686 1.240 . S
H689 C663 0.931 . S
H690 C672 0.931 . S
H691 C676 0.929 . S
H692 C678 0.930 . S
Co693 N697 2.148 . S
Co693 N703 2.128 . S
Co693 N713 2.194 . S
Co693 O718 2.351 . S
Co693 O719 2.155 1_554 S
Co693 O720 2.096 . S
C694 N697 1.301 . S
C694 N698 1.328 . S
C694 H699 0.930 . S
C695 C696 1.333 1_554 S
C695 N697 1.317 . S
C695 H700 0.924 1_554 S
C696 C695 1.333 1_556 S
C696 N698 1.350 1_556 S
C696 H722 0.931 . S
N697 Co693 2.148 . S
N697 C694 1.301 . S
N697 C695 1.317 . S
N698 C694 1.328 . S
N698 C696 1.350 1_554 S
H699 C694 0.930 . S
H700 C695 0.924 1_556 S
C701 O702 1.224 . S
C701 O720 1.247 . S
O702 C701 1.224 . S
N703 Co693 2.128 . S
N703 C704 1.355 . S
N703 C706 1.311 . S
C704 N703 1.355 . S
C704 C705 1.363 . S
C704 H716 0.929 . S
C705 C704 1.363 . S
C705 N707 1.375 . S
C705 H723 0.931 . S
C706 N703 1.311 . S
C706 N707 1.347 . S
C706 H717 0.929 . S
N707 C705 1.375 . S
N707 C706 1.347 . S
C708 C711 1.365 . S
C708 N713 1.328 . S
C708 H714 0.929 . S
C709 C710 1.362 . S
C709 C712 1.378 . S
C709 H724 0.929 . S
C710 C709 1.362 . S
C710 C711 1.366 . S
C711 C708 1.365 . S
C711 C710 1.366 . S
C711 H725 0.930 . S
C712 C709 1.378 . S
C712 N713 1.315 . S
C712 H715 0.930 . S
N713 Co693 2.194 . S
N713 C708 1.328 . S
N713 C712 1.315 . S
H714 C708 0.929 . S
H715 C712 0.930 . S
H716 C704 0.929 . S
H717 C706 0.929 . S
O718 Co693 2.351 . S
O718 C721 1.244 . S
O719 Co693 2.155 1_556 S
O719 C721 1.240 1_556 S
O720 Co693 2.096 . S
O720 C701 1.247 . S
C721 O718 1.244 . S
C721 O719 1.240 1_554 S
H722 C696 0.931 . S
H723 C705 0.931 . S
H724 C709 0.929 . S
H725 C711 0.930 . S
Co726 N730 2.148 . S
Co726 N736 2.128 . S
Co726 N746 2.194 . S
Co726 O751 2.351 . S
Co726 O752 2.155 1_554 S
Co726 O753 2.096 . S
C727 N730 1.301 1_565 S
C727 N731 1.328 . S
C727 H732 0.930 1_565 S
C728 C729 1.333 1_544 S
C728 N730 1.317 . S
C728 H733 0.924 1_554 S
C729 C728 1.333 1_566 S
C729 N731 1.350 1_556 S
C729 H755 0.931 . S
N730 Co726 2.148 . S
N730 C727 1.301 1_545 S
N730 C728 1.317 . S
N731 C727 1.328 . S
N731 C729 1.350 1_554 S
H732 C727 0.930 1_545 S
H733 C728 0.924 1_556 S
C734 O735 1.224 . S
C734 O753 1.247 . S
O735 C734 1.224 . S
N736 Co726 2.128 . S
N736 C737 1.355 . S
N736 C739 1.311 . S
C737 N736 1.355 . S
C737 C738 1.363 . S
C737 H749 0.929 . S
C738 C737 1.363 . S
C738 N740 1.375 . S
C738 H756 0.931 . S
C739 N736 1.311 . S
C739 N740 1.347 . S
C739 H750 0.929 . S
N740 C738 1.375 . S
N740 C739 1.347 . S
C741 C744 1.365 . S
C741 N746 1.328 . S
C741 H747 0.929 . S
C742 C743 1.362 . S
C742 C745 1.378 . S
C742 H757 0.929 . S
C743 C742 1.362 . S
C743 C744 1.366 . S
C744 C741 1.365 . S
C744 C743 1.366 . S
C744 H758 0.930 . S
C745 C742 1.378 . S
C745 N746 1.315 . S
C745 H748 0.930 . S
N746 Co726 2.194 . S
N746 C741 1.328 . S
N746 C745 1.315 . S
H747 C741 0.929 . S
H748 C745 0.930 . S
H749 C737 0.929 . S
H750 C739 0.929 . S
O751 Co726 2.351 . S
O751 C754 1.244 . S
O752 Co726 2.155 1_556 S
O752 C754 1.240 1_556 S
O753 Co726 2.096 . S
O753 C734 1.247 . S
C754 O751 1.244 . S
C754 O752 1.240 1_554 S
H755 C729 0.931 . S
H756 C738 0.931 . S
H757 C742 0.929 . S
H758 C744 0.930 . S
Co759 N763 2.148 . S
Co759 N769 2.128 . S
Co759 N779 2.194 . S
Co759 O784 2.351 . S
Co759 O785 2.155 1_554 S
Co759 O786 2.096 . S
C760 N763 1.301 1_455 S
C760 N764 1.328 . S
C760 H765 0.930 1_455 S
C761 C762 1.333 1_654 S
C761 N763 1.317 . S
C761 H766 0.924 1_554 S
C762 C761 1.333 1_456 S
C762 N764 1.350 1_556 S
C762 H788 0.931 . S
N763 Co759 2.148 . S
N763 C760 1.301 1_655 S
N763 C761 1.317 . S
N764 C760 1.328 . S
N764 C762 1.350 1_554 S
H765 C760 0.930 1_655 S
H766 C761 0.924 1_556 S
C767 O768 1.224 . S
C767 O786 1.247 . S
O768 C767 1.224 . S
N769 Co759 2.128 . S
N769 C770 1.355 . S
N769 C772 1.311 . S
C770 N769 1.355 . S
C770 C771 1.363 . S
C770 H782 0.929 . S
C771 C770 1.363 . S
C771 N773 1.375 . S
C771 H789 0.931 . S
C772 N769 1.311 . S
C772 N773 1.347 . S
C772 H783 0.929 . S
N773 C771 1.375 . S
N773 C772 1.347 . S
C774 C777 1.365 . S
C774 N779 1.328 . S
C774 H780 0.929 . S
C775 C776 1.362 . S
C775 C778 1.378 . S
C775 H790 0.929 . S
C776 C775 1.362 . S
C776 C777 1.366 . S
C777 C774 1.365 . S
C777 C776 1.366 . S
C777 H791 0.930 . S
C778 C775 1.378 . S
C778 N779 1.315 . S
C778 H781 0.930 . S
N779 Co759 2.194 . S
N779 C774 1.328 . S
N779 C778 1.315 . S
H780 C774 0.929 . S
H781 C778 0.930 . S
H782 C770 0.929 . S
H783 C772 0.929 . S
O784 Co759 2.351 . S
O784 C787 1.244 . S
O785 Co759 2.155 1_556 S
O785 C787 1.240 1_556 S
O786 Co759 2.096 . S
O786 C767 1.247 . S
C787 O784 1.244 . S
C787 O785 1.240 1_554 S
H788 C762 0.931 . S
H789 C771 0.931 . S
H790 C775 0.929 . S
H791 C777 0.930 . S
Co792 N796 2.148 . S
Co792 N802 2.128 . S
Co792 N812 2.194 . S
Co792 O817 2.351 1_565 S
Co792 O818 2.155 . S
Co792 O819 2.096 . S
C793 N796 1.301 1_545 S
C793 N797 1.328 . S
C793 H798 0.930 . S
C794 C795 1.333 . S
C794 N796 1.317 . S
C794 H799 0.930 . S
C795 C794 1.333 . S
C795 N797 1.350 1_565 S
C795 H821 0.931 . S
N796 Co792 2.148 . S
N796 C793 1.301 1_565 S
N796 C794 1.317 . S
N797 C793 1.328 . S
N797 C795 1.350 1_545 S
H798 C793 0.930 . S
H799 C794 0.930 . S
C800 O801 1.224 . S
C800 O819 1.247 . S
O801 C800 1.224 . S
N802 Co792 2.128 . S
N802 C803 1.355 . S
N802 C805 1.311 . S
C803 N802 1.355 . S
C803 C804 1.363 . S
C803 H815 0.929 . S
C804 C803 1.363 . S
C804 N806 1.375 . S
C804 H822 0.931 . S
C805 N802 1.311 . S
C805 N806 1.347 . S
C805 H816 0.929 . S
N806 C804 1.375 . S
N806 C805 1.347 . S
C807 C810 1.365 . S
C807 N812 1.328 1_545 S
C807 H813 0.929 . S
C808 C809 1.362 . S
C808 C811 1.378 . S
C808 H823 0.929 . S
C809 C808 1.362 . S
C809 C810 1.366 1_565 S
C810 C807 1.365 . S
C810 C809 1.366 1_545 S
C810 H824 0.930 . S
C811 C808 1.378 . S
C811 N812 1.315 . S
C811 H814 0.930 . S
N812 Co792 2.194 . S
N812 C807 1.328 1_565 S
N812 C811 1.315 . S
H813 C807 0.929 . S
H814 C811 0.930 . S
H815 C803 0.929 . S
H816 C805 0.929 . S
O817 Co792 2.351 1_545 S
O817 C820 1.244 . S
O818 Co792 2.155 . S
O818 C820 1.240 1_565 S
O819 Co792 2.096 . S
O819 C800 1.247 . S
C820 O817 1.244 . S
C820 O818 1.240 1_545 S
H821 C795 0.931 . S
H822 C804 0.931 . S
H823 C808 0.929 . S
H824 C810 0.930 . S
Co825 N829 2.148 . S
Co825 N835 2.128 . S
Co825 N845 2.194 . S
Co825 O850 2.351 1_455 S
Co825 O851 2.155 . S
Co825 O852 2.096 . S
C826 N829 1.301 1_655 S
C826 N830 1.328 . S
C826 H831 0.930 . S
C827 C828 1.333 . S
C827 N829 1.317 . S
C827 H832 0.930 . S
C828 C827 1.333 . S
C828 N830 1.350 1_455 S
C828 H854 0.931 . S
N829 Co825 2.148 . S
N829 C826 1.301 1_455 S
N829 C827 1.317 . S
N830 C826 1.328 . S
N830 C828 1.350 1_655 S
H831 C826 0.930 . S
H832 C827 0.930 . S
C833 O834 1.224 . S
C833 O852 1.247 . S
O834 C833 1.224 . S
N835 Co825 2.128 . S
N835 C836 1.355 . S
N835 C838 1.311 . S
C836 N835 1.355 . S
C836 C837 1.363 . S
C836 H848 0.929 . S
C837 C836 1.363 . S
C837 N839 1.375 . S
C837 H855 0.931 . S
C838 N835 1.311 . S
C838 N839 1.347 . S
C838 H849 0.929 . S
N839 C837 1.375 . S
N839 C838 1.347 . S
C840 C843 1.365 . S
C840 N845 1.328 1_655 S
C840 H846 0.929 . S
C841 C842 1.362 . S
C841 C844 1.378 . S
C841 H856 0.929 . S
C842 C841 1.362 . S
C842 C843 1.366 1_455 S
C843 C840 1.365 . S
C843 C842 1.366 1_655 S
C843 H857 0.930 . S
C844 C841 1.378 . S
C844 N845 1.315 . S
C844 H847 0.930 . S
N845 Co825 2.194 . S
N845 C840 1.328 1_455 S
N845 C844 1.315 . S
H846 C840 0.929 . S
H847 C844 0.930 . S
H848 C836 0.929 . S
H849 C838 0.929 . S
O850 Co825 2.351 1_655 S
O850 C853 1.244 . S
O851 Co825 2.155 . S
O851 C853 1.240 1_455 S
O852 Co825 2.096 . S
O852 C833 1.247 . S
C853 O850 1.244 . S
C853 O851 1.240 1_655 S
H854 C828 0.931 . S
H855 C837 0.931 . S
H856 C841 0.929 . S
H857 C843 0.930 . S
Co858 N862 2.148 . S
Co858 N868 2.128 . S
Co858 N878 2.194 . S
Co858 O883 2.351 . S
Co858 O884 2.155 . S
Co858 O885 2.096 . S
C859 N862 1.301 . S
C859 N863 1.328 . S
C859 H864 0.930 . S
C860 C861 1.333 . S
C860 N862 1.317 . S
C860 H865 0.930 . S
C861 C860 1.333 . S
C861 N863 1.350 . S
C861 H887 0.931 . S
N862 Co858 2.148 . S
N862 C859 1.301 . S
N862 C860 1.317 . S
N863 C859 1.328 . S
N863 C861 1.350 . S
H864 C859 0.930 . S
H865 C860 0.930 . S
C866 O867 1.224 . S
C866 O885 1.247 . S
O867 C866 1.224 . S
N868 Co858 2.128 . S
N868 C869 1.355 . S
N868 C871 1.311 . S
C869 N868 1.355 . S
C869 C870 1.363 . S
C869 H881 0.929 . S
C870 C869 1.363 . S
C870 N872 1.375 . S
C870 H888 0.931 . S
C871 N868 1.311 . S
C871 N872 1.347 . S
C871 H882 0.929 . S
N872 C870 1.375 . S
N872 C871 1.347 . S
C873 C876 1.365 . S
C873 N878 1.328 . S
C873 H879 0.929 . S
C874 C875 1.362 . S
C874 C877 1.378 . S
C874 H889 0.929 . S
C875 C874 1.362 . S
C875 C876 1.366 . S
C876 C873 1.365 . S
C876 C875 1.366 . S
C876 H890 0.930 . S
C877 C874 1.378 . S
C877 N878 1.315 . S
C877 H880 0.930 . S
N878 Co858 2.194 . S
N878 C873 1.328 . S
N878 C877 1.315 . S
H879 C873 0.929 . S
H880 C877 0.930 . S
H881 C869 0.929 . S
H882 C871 0.929 . S
O883 Co858 2.351 . S
O883 C886 1.244 . S
O884 Co858 2.155 . S
O884 C886 1.240 . S
O885 Co858 2.096 . S
O885 C866 1.247 . S
C886 O883 1.244 . S
C886 O884 1.240 . S
H887 C861 0.931 . S
H888 C870 0.931 . S
H889 C874 0.929 . S
H890 C876 0.930 . S
Co891 N895 2.148 . S
Co891 N901 2.128 . S
Co891 N911 2.194 . S
Co891 O916 2.351 . S
Co891 O917 2.155 1_556 S
Co891 O918 2.096 . S
C892 N895 1.301 . S
C892 N896 1.328 . S
C892 H897 0.930 . S
C893 C894 1.333 1_556 S
C893 N895 1.317 . S
C893 H898 0.924 1_556 S
C894 C893 1.333 1_554 S
C894 N896 1.350 1_554 S
C894 H920 0.931 . S
N895 Co891 2.148 . S
N895 C892 1.301 . S
N895 C893 1.317 . S
N896 C892 1.328 . S
N896 C894 1.350 1_556 S
H897 C892 0.930 . S
H898 C893 0.924 1_554 S
C899 O900 1.224 . S
C899 O918 1.247 . S
O900 C899 1.224 . S
N901 Co891 2.128 . S
N901 C902 1.355 . S
N901 C904 1.311 . S
C902 N901 1.355 . S
C902 C903 1.363 . S
C902 H914 0.929 . S
C903 C902 1.363 . S
C903 N905 1.375 . S
C903 H921 0.931 . S
C904 N901 1.311 . S
C904 N905 1.347 . S
C904 H915 0.929 . S
N905 C903 1.375 . S
N905 C904 1.347 . S
C906 C909 1.365 . S
C906 N911 1.328 . S
C906 H912 0.929 . S
C907 C908 1.362 . S
C907 C910 1.378 . S
C907 H922 0.929 . S
C908 C907 1.362 . S
C908 C909 1.366 . S
C909 C906 1.365 . S
C909 C908 1.366 . S
C909 H923 0.930 . S
C910 C907 1.378 . S
C910 N911 1.315 . S
C910 H913 0.930 . S
N911 Co891 2.194 . S
N911 C906 1.328 . S
N911 C910 1.315 . S
H912 C906 0.929 . S
H913 C910 0.930 . S
H914 C902 0.929 . S
H915 C904 0.929 . S
O916 Co891 2.351 . S
O916 C919 1.244 . S
O917 Co891 2.155 1_554 S
O917 C919 1.240 1_554 S
O918 Co891 2.096 . S
O918 C899 1.247 . S
C919 O916 1.244 . S
C919 O917 1.240 1_556 S
H920 C894 0.931 . S
H921 C903 0.931 . S
H922 C907 0.929 . S
H923 C909 0.930 . S
Co924 N928 2.148 . S
Co924 N934 2.128 . S
Co924 N944 2.194 . S
Co924 O949 2.351 . S
Co924 O950 2.155 1_556 S
Co924 O951 2.096 . S
C925 N928 1.301 1_545 S
C925 N929 1.328 . S
C925 H930 0.930 1_545 S
C926 C927 1.333 1_566 S
C926 N928 1.317 . S
C926 H931 0.924 1_556 S
C927 C926 1.333 1_544 S
C927 N929 1.350 1_554 S
C927 H953 0.931 . S
N928 Co924 2.148 . S
N928 C925 1.301 1_565 S
N928 C926 1.317 . S
N929 C925 1.328 . S
N929 C927 1.350 1_556 S
H930 C925 0.930 1_565 S
H931 C926 0.924 1_554 S
C932 O933 1.224 . S
C932 O951 1.247 . S
O933 C932 1.224 . S
N934 Co924 2.128 . S
N934 C935 1.355 . S
N934 C937 1.311 . S
C935 N934 1.355 . S
C935 C936 1.363 . S
C935 H947 0.929 . S
C936 C935 1.363 . S
C936 N938 1.375 . S
C936 H954 0.931 . S
C937 N934 1.311 . S
C937 N938 1.347 . S
C937 H948 0.929 . S
N938 C936 1.375 . S
N938 C937 1.347 . S
C939 C942 1.365 . S
C939 N944 1.328 . S
C939 H945 0.929 . S
C940 C941 1.362 . S
C940 C943 1.378 . S
C940 H955 0.929 . S
C941 C940 1.362 . S
C941 C942 1.366 . S
C942 C939 1.365 . S
C942 C941 1.366 . S
C942 H956 0.930 . S
C943 C940 1.378 . S
C943 N944 1.315 . S
C943 H946 0.930 . S
N944 Co924 2.194 . S
N944 C939 1.328 . S
N944 C943 1.315 . S
H945 C939 0.929 . S
H946 C943 0.930 . S
H947 C935 0.929 . S
H948 C937 0.929 . S
O949 Co924 2.351 . S
O949 C952 1.244 . S
O950 Co924 2.155 1_554 S
O950 C952 1.240 1_554 S
O951 Co924 2.096 . S
O951 C932 1.247 . S
C952 O949 1.244 . S
C952 O950 1.240 1_556 S
H953 C927 0.931 . S
H954 C936 0.931 . S
H955 C940 0.929 . S
H956 C942 0.930 . S
Co957 N961 2.148 . S
Co957 N967 2.128 . S
Co957 N977 2.194 . S
Co957 O982 2.351 . S
Co957 O983 2.155 1_556 S
Co957 O984 2.096 . S
C958 N961 1.301 1_655 S
C958 N962 1.328 . S
C958 H963 0.930 1_655 S
C959 C960 1.333 1_456 S
C959 N961 1.317 . S
C959 H964 0.924 1_556 S
C960 C959 1.333 1_654 S
C960 N962 1.350 1_554 S
C960 H986 0.931 . S
N961 Co957 2.148 . S
N961 C958 1.301 1_455 S
N961 C959 1.317 . S
N962 C958 1.328 . S
N962 C960 1.350 1_556 S
H963 C958 0.930 1_455 S
H964 C959 0.924 1_554 S
C965 O966 1.224 . S
C965 O984 1.247 . S
O966 C965 1.224 . S
N967 Co957 2.128 . S
N967 C968 1.355 . S
N967 C970 1.311 . S
C968 N967 1.355 . S
C968 C969 1.363 . S
C968 H980 0.929 . S
C969 C968 1.363 . S
C969 N971 1.375 . S
C969 H987 0.931 . S
C970 N967 1.311 . S
C970 N971 1.347 . S
C970 H981 0.929 . S
N971 C969 1.375 . S
N971 C970 1.347 . S
C972 C975 1.365 . S
C972 N977 1.328 . S
C972 H978 0.929 . S
C973 C974 1.362 . S
C973 C976 1.378 . S
C973 H988 0.929 . S
C974 C973 1.362 . S
C974 C975 1.366 . S
C975 C972 1.365 . S
C975 C974 1.366 . S
C975 H989 0.930 . S
C976 C973 1.378 . S
C976 N977 1.315 . S
C976 H979 0.930 . S
N977 Co957 2.194 . S
N977 C972 1.328 . S
N977 C976 1.315 . S
H978 C972 0.929 . S
H979 C976 0.930 . S
H980 C968 0.929 . S
H981 C970 0.929 . S
O982 Co957 2.351 . S
O982 C985 1.244 . S
O983 Co957 2.155 1_554 S
O983 C985 1.240 1_554 S
O984 Co957 2.096 . S
O984 C965 1.247 . S
C985 O982 1.244 . S
C985 O983 1.240 1_556 S
H986 C960 0.931 . S
H987 C969 0.931 . S
H988 C973 0.929 . S
H989 C975 0.930 . S
Co990 N994 2.148 . S
Co990 N1000 2.128 . S
Co990 N1010 2.194 . S
Co990 O1015 2.351 . S
Co990 O1016 2.155 . S
Co990 O1017 2.096 . S
C991 N994 1.301 . S
C991 N995 1.328 . S
C991 H996 0.930 . S
C992 C993 1.333 . S
C992 N994 1.317 . S
C992 H997 0.930 . S
C993 C992 1.333 . S
C993 N995 1.350 . S
C993 H1019 0.931 . S
N994 Co990 2.148 . S
N994 C991 1.301 . S
N994 C992 1.317 . S
N995 C991 1.328 . S
N995 C993 1.350 . S
H996 C991 0.930 . S
H997 C992 0.930 . S
C998 O999 1.224 . S
C998 O1017 1.247 . S
O999 C998 1.224 . S
N1000 Co990 2.128 . S
N1000 C1001 1.355 . S
N1000 C1003 1.311 . S
C1001 N1000 1.355 . S
C1001 C1002 1.363 . S
C1001 H1013 0.929 . S
C1002 C1001 1.363 . S
C1002 N1004 1.375 . S
C1002 H1020 0.931 . S
C1003 N1000 1.311 . S
C1003 N1004 1.347 . S
C1003 H1014 0.929 . S
N1004 C1002 1.375 . S
N1004 C1003 1.347 . S
C1005 C1008 1.365 . S
C1005 N1010 1.328 . S
C1005 H1011 0.929 . S
C1006 C1007 1.362 . S
C1006 C1009 1.378 . S
C1006 H1021 0.929 . S
C1007 C1006 1.362 . S
C1007 C1008 1.366 . S
C1008 C1005 1.365 . S
C1008 C1007 1.366 . S
C1008 H1022 0.930 . S
C1009 C1006 1.378 . S
C1009 N1010 1.315 . S
C1009 H1012 0.930 . S
N1010 Co990 2.194 . S
N1010 C1005 1.328 . S
N1010 C1009 1.315 . S
H1011 C1005 0.929 . S
H1012 C1009 0.930 . S
H1013 C1001 0.929 . S
H1014 C1003 0.929 . S
O1015 Co990 2.351 . S
O1015 C1018 1.244 . S
O1016 Co990 2.155 . S
O1016 C1018 1.240 . S
O1017 Co990 2.096 . S
O1017 C998 1.247 . S
C1018 O1015 1.244 . S
C1018 O1016 1.240 . S
H1019 C993 0.931 . S
H1020 C1002 0.931 . S
H1021 C1006 0.929 . S
H1022 C1008 0.930 . S
Co1023 N1027 2.148 . S
Co1023 N1033 2.128 . S
Co1023 N1043 2.194 . S
Co1023 O1048 2.351 . S
Co1023 O1049 2.155 . S
Co1023 O1050 2.096 . S
C1024 N1027 1.301 1_545 S
C1024 N1028 1.328 . S
C1024 H1029 0.930 1_545 S
C1025 C1026 1.333 1_565 S
C1025 N1027 1.317 . S
C1025 H1030 0.930 . S
C1026 C1025 1.333 1_545 S
C1026 N1028 1.350 . S
C1026 H1052 0.931 . S
N1027 Co1023 2.148 . S
N1027 C1024 1.301 1_565 S
N1027 C1025 1.317 . S
N1028 C1024 1.328 . S
N1028 C1026 1.350 . S
H1029 C1024 0.930 1_565 S
H1030 C1025 0.930 . S
C1031 O1032 1.224 . S
C1031 O1050 1.247 . S
O1032 C1031 1.224 . S
N1033 Co1023 2.128 . S
N1033 C1034 1.355 . S
N1033 C1036 1.311 . S
C1034 N1033 1.355 . S
C1034 C1035 1.363 . S
C1034 H1046 0.929 . S
C1035 C1034 1.363 . S
C1035 N1037 1.375 . S
C1035 H1053 0.931 . S
C1036 N1033 1.311 . S
C1036 N1037 1.347 . S
C1036 H1047 0.929 . S
N1037 C1035 1.375 . S
N1037 C1036 1.347 . S
C1038 C1041 1.365 . S
C1038 N1043 1.328 . S
C1038 H1044 0.929 . S
C1039 C1040 1.362 . S
C1039 C1042 1.378 . S
C1039 H1054 0.929 . S
C1040 C1039 1.362 . S
C1040 C1041 1.366 . S
C1041 C1038 1.365 . S
C1041 C1040 1.366 . S
C1041 H1055 0.930 . S
C1042 C1039 1.378 . S
C1042 N1043 1.315 . S
C1042 H1045 0.930 . S
N1043 Co1023 2.194 . S
N1043 C1038 1.328 . S
N1043 C1042 1.315 . S
H1044 C1038 0.929 . S
H1045 C1042 0.930 . S
H1046 C1034 0.929 . S
H1047 C1036 0.929 . S
O1048 Co1023 2.351 . S
O1048 C1051 1.244 . S
O1049 Co1023 2.155 . S
O1049 C1051 1.240 . S
O1050 Co1023 2.096 . S
O1050 C1031 1.247 . S
C1051 O1048 1.244 . S
C1051 O1049 1.240 . S
H1052 C1026 0.931 . S
H1053 C1035 0.931 . S
H1054 C1039 0.929 . S
H1055 C1041 0.930 . S
Co1056 N1060 2.148 . S
Co1056 N1066 2.128 . S
Co1056 N1076 2.194 . S
Co1056 O1081 2.351 . S
Co1056 O1082 2.155 . S
Co1056 O1083 2.096 . S
C1057 N1060 1.301 1_655 S
C1057 N1061 1.328 . S
C1057 H1062 0.930 1_655 S
C1058 C1059 1.333 1_455 S
C1058 N1060 1.317 . S
C1058 H1063 0.930 . S
C1059 C1058 1.333 1_655 S
C1059 N1061 1.350 . S
C1059 H1085 0.931 . S
N1060 Co1056 2.148 . S
N1060 C1057 1.301 1_455 S
N1060 C1058 1.317 . S
N1061 C1057 1.328 . S
N1061 C1059 1.350 . S
H1062 C1057 0.930 1_455 S
H1063 C1058 0.930 . S
C1064 O1065 1.224 . S
C1064 O1083 1.247 . S
O1065 C1064 1.224 . S
N1066 Co1056 2.128 . S
N1066 C1067 1.355 . S
N1066 C1069 1.311 . S
C1067 N1066 1.355 . S
C1067 C1068 1.363 . S
C1067 H1079 0.929 . S
C1068 C1067 1.363 . S
C1068 N1070 1.375 . S
C1068 H1086 0.931 . S
C1069 N1066 1.311 . S
C1069 N1070 1.347 . S
C1069 H1080 0.929 . S
N1070 C1068 1.375 . S
N1070 C1069 1.347 . S
C1071 C1074 1.365 . S
C1071 N1076 1.328 . S
C1071 H1077 0.929 . S
C1072 C1073 1.362 . S
C1072 C1075 1.378 . S
C1072 H1087 0.929 . S
C1073 C1072 1.362 . S
C1073 C1074 1.366 . S
C1074 C1071 1.365 . S
C1074 C1073 1.366 . S
C1074 H1088 0.930 . S
C1075 C1072 1.378 . S
C1075 N1076 1.315 . S
C1075 H1078 0.930 . S
N1076 Co1056 2.194 . S
N1076 C1071 1.328 . S
N1076 C1075 1.315 . S
H1077 C1071 0.929 . S
H1078 C1075 0.930 . S
H1079 C1067 0.929 . S
H1080 C1069 0.929 . S
O1081 Co1056 2.351 . S
O1081 C1084 1.244 . S
O1082 Co1056 2.155 . S
O1082 C1084 1.240 . S
O1083 Co1056 2.096 . S
O1083 C1064 1.247 . S
C1084 O1081 1.244 . S
C1084 O1082 1.240 . S
H1085 C1059 0.931 . S
H1086 C1068 0.931 . S
H1087 C1072 0.929 . S
H1088 C1074 0.930 . S
Co1089 N1093 2.148 . S
Co1089 N1099 2.128 . S
Co1089 N1109 2.194 . S
Co1089 O1114 2.351 1_455 S
Co1089 O1115 2.155 . S
Co1089 O1116 2.096 . S
C1090 N1093 1.301 1_655 S
C1090 N1094 1.328 . S
C1090 H1095 0.930 . S
C1091 C1092 1.333 . S
C1091 N1093 1.317 . S
C1091 H1096 0.930 . S
C1092 C1091 1.333 . S
C1092 N1094 1.350 1_455 S
C1092 H1118 0.931 . S
N1093 Co1089 2.148 . S
N1093 C1090 1.301 1_455 S
N1093 C1091 1.317 . S
N1094 C1090 1.328 . S
N1094 C1092 1.350 1_655 S
H1095 C1090 0.930 . S
H1096 C1091 0.930 . S
C1097 O1098 1.224 . S
C1097 O1116 1.247 . S
O1098 C1097 1.224 . S
N1099 Co1089 2.128 . S
N1099 C1100 1.355 . S
N1099 C1102 1.311 . S
C1100 N1099 1.355 . S
C1100 C1101 1.363 . S
C1100 H1112 0.929 . S
C1101 C1100 1.363 . S
C1101 N1103 1.375 . S
C1101 H1119 0.931 . S
C1102 N1099 1.311 . S
C1102 N1103 1.347 . S
C1102 H1113 0.929 . S
N1103 C1101 1.375 . S
N1103 C1102 1.347 . S
C1104 C1107 1.365 . S
C1104 N1109 1.328 1_655 S
C1104 H1110 0.929 . S
C1105 C1106 1.362 . S
C1105 C1108 1.378 . S
C1105 H1120 0.929 . S
C1106 C1105 1.362 . S
C1106 C1107 1.366 1_455 S
C1107 C1104 1.365 . S
C1107 C1106 1.366 1_655 S
C1107 H1121 0.930 . S
C1108 C1105 1.378 . S
C1108 N1109 1.315 . S
C1108 H1111 0.930 . S
N1109 Co1089 2.194 . S
N1109 C1104 1.328 1_455 S
N1109 C1108 1.315 . S
H1110 C1104 0.929 . S
H1111 C1108 0.930 . S
H1112 C1100 0.929 . S
H1113 C1102 0.929 . S
O1114 Co1089 2.351 1_655 S
O1114 C1117 1.244 . S
O1115 Co1089 2.155 . S
O1115 C1117 1.240 1_455 S
O1116 Co1089 2.096 . S
O1116 C1097 1.247 . S
C1117 O1114 1.244 . S
C1117 O1115 1.240 1_655 S
H1118 C1092 0.931 . S
H1119 C1101 0.931 . S
H1120 C1105 0.929 . S
H1121 C1107 0.930 . S
Co1122 N1126 2.148 . S
Co1122 N1132 2.128 . S
Co1122 N1142 2.194 . S
Co1122 O1147 2.351 . S
Co1122 O1148 2.155 . S
Co1122 O1149 2.096 . S
C1123 N1126 1.301 . S
C1123 N1127 1.328 . S
C1123 H1128 0.930 . S
C1124 C1125 1.333 . S
C1124 N1126 1.317 . S
C1124 H1129 0.930 . S
C1125 C1124 1.333 . S
C1125 N1127 1.350 . S
C1125 H1151 0.931 . S
N1126 Co1122 2.148 . S
N1126 C1123 1.301 . S
N1126 C1124 1.317 . S
N1127 C1123 1.328 . S
N1127 C1125 1.350 . S
H1128 C1123 0.930 . S
H1129 C1124 0.930 . S
C1130 O1131 1.224 . S
C1130 O1149 1.247 . S
O1131 C1130 1.224 . S
N1132 Co1122 2.128 . S
N1132 C1133 1.355 . S
N1132 C1135 1.311 . S
C1133 N1132 1.355 . S
C1133 C1134 1.363 . S
C1133 H1145 0.929 . S
C1134 C1133 1.363 . S
C1134 N1136 1.375 . S
C1134 H1152 0.931 . S
C1135 N1132 1.311 . S
C1135 N1136 1.347 . S
C1135 H1146 0.929 . S
N1136 C1134 1.375 . S
N1136 C1135 1.347 . S
C1137 C1140 1.365 . S
C1137 N1142 1.328 . S
C1137 H1143 0.929 . S
C1138 C1139 1.362 . S
C1138 C1141 1.378 . S
C1138 H1153 0.929 . S
C1139 C1138 1.362 . S
C1139 C1140 1.366 . S
C1140 C1137 1.365 . S
C1140 C1139 1.366 . S
C1140 H1154 0.930 . S
C1141 C1138 1.378 . S
C1141 N1142 1.315 . S
C1141 H1144 0.930 . S
N1142 Co1122 2.194 . S
N1142 C1137 1.328 . S
N1142 C1141 1.315 . S
H1143 C1137 0.929 . S
H1144 C1141 0.930 . S
H1145 C1133 0.929 . S
H1146 C1135 0.929 . S
O1147 Co1122 2.351 . S
O1147 C1150 1.244 . S
O1148 Co1122 2.155 . S
O1148 C1150 1.240 . S
O1149 Co1122 2.096 . S
O1149 C1130 1.247 . S
C1150 O1147 1.244 . S
C1150 O1148 1.240 . S
H1151 C1125 0.931 . S
H1152 C1134 0.931 . S
H1153 C1138 0.929 . S
H1154 C1140 0.930 . S
Co1155 N1159 2.148 . S
Co1155 N1165 2.128 . S
Co1155 N1175 2.194 . S
Co1155 O1180 2.351 1_565 S
Co1155 O1181 2.155 . S
Co1155 O1182 2.096 . S
C1156 N1159 1.301 1_545 S
C1156 N1160 1.328 . S
C1156 H1161 0.930 . S
C1157 C1158 1.333 . S
C1157 N1159 1.317 . S
C1157 H1162 0.930 . S
C1158 C1157 1.333 . S
C1158 N1160 1.350 1_565 S
C1158 H1184 0.931 . S
N1159 Co1155 2.148 . S
N1159 C1156 1.301 1_565 S
N1159 C1157 1.317 . S
N1160 C1156 1.328 . S
N1160 C1158 1.350 1_545 S
H1161 C1156 0.930 . S
H1162 C1157 0.930 . S
C1163 O1164 1.224 . S
C1163 O1182 1.247 . S
O1164 C1163 1.224 . S
N1165 Co1155 2.128 . S
N1165 C1166 1.355 . S
N1165 C1168 1.311 . S
C1166 N1165 1.355 . S
C1166 C1167 1.363 . S
C1166 H1178 0.929 . S
C1167 C1166 1.363 . S
C1167 N1169 1.375 . S
C1167 H1185 0.931 . S
C1168 N1165 1.311 . S
C1168 N1169 1.347 . S
C1168 H1179 0.929 . S
N1169 C1167 1.375 . S
N1169 C1168 1.347 . S
C1170 C1173 1.365 . S
C1170 N1175 1.328 1_545 S
C1170 H1176 0.929 . S
C1171 C1172 1.362 . S
C1171 C1174 1.378 . S
C1171 H1186 0.929 . S
C1172 C1171 1.362 . S
C1172 C1173 1.366 1_565 S
C1173 C1170 1.365 . S
C1173 C1172 1.366 1_545 S
C1173 H1187 0.930 . S
C1174 C1171 1.378 . S
C1174 N1175 1.315 . S
C1174 H1177 0.930 . S
N1175 Co1155 2.194 . S
N1175 C1170 1.328 1_565 S
N1175 C1174 1.315 . S
H1176 C1170 0.929 . S
H1177 C1174 0.930 . S
H1178 C1166 0.929 . S
H1179 C1168 0.929 . S
O1180 Co1155 2.351 1_545 S
O1180 C1183 1.244 . S
O1181 Co1155 2.155 . S
O1181 C1183 1.240 1_565 S
O1182 Co1155 2.096 . S
O1182 C1163 1.247 . S
C1183 O1180 1.244 . S
C1183 O1181 1.240 1_545 S
H1184 C1158 0.931 . S
H1185 C1167 0.931 . S
H1186 C1171 0.929 . S
H1187 C1173 0.930 . S
N14 C74 2.235 . S
C8 N47 2.235 . S
C41 N80 2.235 . S
C140 N113 2.235 . S
C173 N146 2.235 . S
C107 N179 2.235 . S
C272 N212 2.235 . S
N245 C206 2.235 . S
C239 N278 2.235 . S
C338 N311 2.235 . S
N344 C371 2.235 . S
C305 N377 2.235 . S
N410 C470 2.235 . S
N443 C404 2.235 . S
N476 C437 2.235 . S
C536 N509 2.234 . S
C569 N542 2.235 . S
N575 C503 2.234 . S
N608 C668 2.234 . S
N641 C602 2.235 . S
N674 C635 2.235 . S
C734 N707 2.235 . S
C767 N740 2.235 . S
N773 C701 2.235 . S
C866 N806 2.234 . S
C800 N839 2.235 . S
N872 C833 2.235 . S
C932 N905 2.235 . S
N938 C965 2.235 . S
C899 N971 2.235 . S
C1064 N1004 2.235 . S
N1037 C998 2.235 . S
N1070 C1031 2.235 . S
C1130 N1103 2.234 . S
C1163 N1136 2.235 . S
N1169 C1097 2.234 . S
N665 C28 1.535 . S
C61 N599 1.534 . S
C94 N632 1.534 . S
N1127 C127 1.534 . S
N1160 C160 1.535 . S
C193 N1094 1.535 . S
C226 N863 1.535 . S
C259 N797 1.534 . S
C292 N830 1.534 . S
N533 C325 1.534 . S
C358 N566 1.535 . S
C391 N500 1.535 . S
C424 N1061 1.534 . S
N995 C457 1.534 . S
N1028 C490 1.534 . S
C523 N335 1.534 1_455 S
C556 N368 1.534 . S
C589 N302 1.535 1_565 S
N71 C622 1.535 1_545 S
C655 N5 1.534 1_455 S
C688 N38 1.534 . S
N929 C721 1.534 1_556 S
C754 N962 1.534 1_554 S
C787 N896 1.535 1_554 S
N269 C820 1.535 1_565 S
N203 C853 1.534 1_455 S
C886 N236 1.534 . S
C919 N731 1.534 1_556 S
N764 C952 1.534 1_554 S
C985 N698 1.535 1_556 S
N467 C1018 1.534 . S
C1051 N401 1.534 . S
C1084 N434 1.534 . S
N137 C1117 1.534 1_455 S
C1150 N170 1.534 . S
N104 C1183 1.535 1_565 S
C149 C17 2.550 1_655 S
C50 C182 2.551 . S
C83 C116 2.550 1_565 S
C215 C347 2.550 1_655 S
C248 C380 2.551 . S
C281 C314 2.550 1_545 S
C545 C413 2.551 . S
C578 C446 2.551 . S
C512 C479 2.549 . S
C743 C611 2.549 . S
C776 C644 2.551 . S
C710 C677 2.551 . S
C941 C809 2.549 . S
C842 C974 2.551 . S
C908 C875 2.551 . S
C1139 C1007 2.551 . S
C1172 C1040 2.551 . S
C1073 C1106 2.549 . S
