# Generated by pormake.
# Topology umf, (4)-cn, num edge types: 1
# Building blocks:
#     Node 0, Type 0, BuildingBlock: QUQFOY_clean_sbu_3, # of connection points: 4
#     Node 1, Type 0, BuildingBlock: QUQFOY_clean_sbu_3, # of connection points: 4
#     Node 2, Type 0, BuildingBlock: QUQFOY_clean_sbu_3, # of connection points: 4
#     Node 3, Type 0, BuildingBlock: QUQFOY_clean_sbu_3, # of connection points: 4
#     Node 4, Type 0, BuildingBlock: QUQFOY_clean_sbu_3, # of connection points: 4
#     Node 5, Type 0, BuildingBlock: QUQFOY_clean_sbu_3, # of connection points: 4
#     Node 6, Type 0, BuildingBlock: QUQFOY_clean_sbu_3, # of connection points: 4
#     Node 7, Type 0, BuildingBlock: QUQFOY_clean_sbu_3, # of connection points: 4
#     Edge 8, Type (0, 0), BuildingBlock: XIVTED_clean_linker_0, # of connection points: 2
#     Edge 9, Type (0, 0), BuildingBlock: XIVTED_clean_linker_0, # of connection points: 2
#     Edge 10, Type (0, 0), BuildingBlock: XIVTED_clean_linker_0, # of connection points: 2
#     Edge 11, Type (0, 0), BuildingBlock: XIVTED_clean_linker_0, # of connection points: 2
#     Edge 12, Type (0, 0), BuildingBlock: XIVTED_clean_linker_0, # of connection points: 2
#     Edge 13, Type (0, 0), BuildingBlock: XIVTED_clean_linker_0, # of connection points: 2
#     Edge 14, Type (0, 0), BuildingBlock: XIVTED_clean_linker_0, # of connection points: 2
#     Edge 15, Type (0, 0), BuildingBlock: XIVTED_clean_linker_0, # of connection points: 2
#     Edge 16, Type (0, 0), BuildingBlock: XIVTED_clean_linker_0, # of connection points: 2
#     Edge 17, Type (0, 0), BuildingBlock: XIVTED_clean_linker_0, # of connection points: 2
#     Edge 18, Type (0, 0), BuildingBlock: XIVTED_clean_linker_0, # of connection points: 2
#     Edge 19, Type (0, 0), BuildingBlock: XIVTED_clean_linker_0, # of connection points: 2
#     Edge 20, Type (0, 0), BuildingBlock: XIVTED_clean_linker_0, # of connection points: 2
#     Edge 21, Type (0, 0), BuildingBlock: XIVTED_clean_linker_0, # of connection points: 2
#     Edge 22, Type (0, 0), BuildingBlock: XIVTED_clean_linker_0, # of connection points: 2
#     Edge 23, Type (0, 0), BuildingBlock: XIVTED_clean_linker_0, # of connection points: 2
# Relax obj value: 0.168
# Max RMSD: 0.287
# Mean RMSD: 0.287
data_MOF--net-umf--node1-QUQFOY_clean_sbu_3--edge1-XIVTED_clean_linker_0
_symmetry_space_group_name_H-M    P1
_symmetry_Int_Tables_number       1
_symmetry_cell_setting            triclinic
loop_
_symmetry_equiv_pos_as_xyz
'x, y, z'
_cell_length_a     29.981962
_cell_length_b     29.998406
_cell_length_c     54.681792
_cell_angle_alpha  90.522752
_cell_angle_beta   88.993758
_cell_angle_gamma 90.018816
loop_
_atom_site_label
_atom_site_type_symbol
_atom_site_fract_x
_atom_site_fract_y
_atom_site_fract_z
_atom_type_partial_charge
C0 C 0.14097 0.18589 0.14231 0.0
O1 O 0.16493 0.17049 0.12482 0.0
Cd2 Cd 0.1263 0.1634 0.0864 0.0
O3 O 0.10284 0.2023 0.13812 0.0
Cd4 Cd 0.0502 0.22269 0.10636 0.0
C5 C 0.02151 0.12651 0.11236 0.0
O6 O 0.09214 0.22494 0.06557 0.0
O7 O 0.02436 0.1996 0.06767 0.0
O8 O 0.05942 0.30098 0.11726 0.0
C9 C 0.05709 0.2122 0.05459 0.0
O10 O 0.05972 0.12964 0.10223 0.0
C11 C 0.01799 0.30937 0.1182 0.0
O12 O 0.00132 0.16152 0.11968 0.0
O13 O -0.0086 0.27744 0.11386 0.0
C14 C 0.75163 0.14165 0.64372 0.0
O15 O 0.7628 0.16756 0.62649 0.0
Cd16 Cd 0.77258 0.1225 0.58985 0.0
O17 O 0.73868 0.10241 0.63888 0.0
Cd18 Cd 0.71924 0.05443 0.60481 0.0
C19 C 0.81636 0.02269 0.61352 0.0
O20 O 0.71295 0.09263 0.56456 0.0
O21 O 0.75198 0.03229 0.56676 0.0
O22 O 0.6404 0.06124 0.61592 0.0
C23 C 0.73059 0.05912 0.55368 0.0
O24 O 0.81977 0.06138 0.60422 0.0
C25 C 0.63288 0.01964 0.61582 0.0
O26 O 0.77831 0.00528 0.61739 0.0
O27 O 0.66531 -0.00603 0.6104 0.0
C28 C 0.79807 0.75166 0.14292 0.0
O29 O 0.77416 0.76472 0.12546 0.0
Cd30 Cd 0.81414 0.7747 0.08701 0.0
O31 O 0.83689 0.73627 0.13887 0.0
Cd32 Cd 0.88884 0.71218 0.1069 0.0
C33 C 0.91743 0.81239 0.11166 0.0
O34 O 0.84866 0.71264 0.06687 0.0
O35 O 0.91928 0.72891 0.06847 0.0
O36 O 0.87992 0.63376 0.11358 0.0
C37 C 0.88492 0.72281 0.05575 0.0
O38 O 0.87922 0.8135 0.10191 0.0
C39 C 0.91984 0.62696 0.11992 0.0
O40 O 0.93526 0.77557 0.11738 0.0
O41 O 0.94592 0.66029 0.12064 0.0
C42 C 0.18258 0.80059 0.64115 0.0
O43 O 0.16256 0.77721 0.62512 0.0
Cd44 Cd 0.15171 0.81113 0.58443 0.0
O45 O 0.20226 0.83656 0.63518 0.0
Cd46 Cd 0.22995 0.89378 0.60731 0.0
C47 C 0.13159 0.92214 0.60931 0.0
O48 O 0.21732 0.84865 0.56955 0.0
O49 O 0.24154 0.91598 0.56605 0.0
O50 O 0.30619 0.87995 0.61857 0.0
C51 C 0.22439 0.88223 0.55585 0.0
O52 O 0.13866 0.88359 0.60067 0.0
C53 C 0.31498 0.9206 0.62313 0.0
O54 O 0.16501 0.94454 0.61634 0.0
O55 O 0.2834 0.94858 0.62155 0.0
C56 C 0.14382 0.75147 0.82079 0.0
O57 O 0.16631 0.76779 0.83812 0.0
Cd58 Cd 0.12345 0.77694 0.87551 0.0
O59 O 0.10562 0.73486 0.82493 0.0
Cd60 Cd 0.05517 0.71542 0.85825 0.0
C61 C 0.022 0.81441 0.85139 0.0
O62 O 0.09525 0.71399 0.89815 0.0
O63 O 0.02814 0.74083 0.89675 0.0
O64 O 0.06233 0.63639 0.84915 0.0
C65 C 0.06011 0.72714 0.90945 0.0
O66 O 0.05944 0.81962 0.86167 0.0
C67 C 0.02086 0.62982 0.84674 0.0
O68 O 0.00772 0.77586 0.84579 0.0
O69 O -0.00496 0.66297 0.84988 0.0
C70 C 0.18692 0.14025 0.32139 0.0
O71 O 0.17449 0.16646 0.33853 0.0
Cd72 Cd 0.16642 0.12419 0.37619 0.0
O73 O 0.20124 0.10172 0.32657 0.0
Cd74 Cd 0.22167 0.05094 0.35908 0.0
C75 C 0.12536 0.02167 0.35109 0.0
O76 O 0.22582 0.09086 0.39972 0.0
O77 O 0.19311 0.02659 0.3973 0.0
O78 O 0.30122 0.05967 0.35139 0.0
C79 C 0.21083 0.0563 0.41051 0.0
O80 O 0.12578 0.06031 0.36086 0.0
C81 C 0.3091 0.01851 0.34817 0.0
O82 O 0.16174 0.00173 0.34592 0.0
O83 O 0.27635 -0.00818 0.34994 0.0
C84 C 0.80209 0.18329 0.82284 0.0
O85 O 0.77814 0.16463 0.83923 0.0
Cd86 Cd 0.81427 0.15616 0.87893 0.0
O87 O 0.83863 0.20169 0.82857 0.0
Cd88 Cd 0.89429 0.2259 0.85735 0.0
C89 C 0.9235 0.12861 0.85361 0.0
O90 O 0.85018 0.21993 0.89737 0.0
O91 O 0.92271 0.21734 0.8965 0.0
O92 O 0.88162 0.30394 0.84931 0.0
C93 C 0.88668 0.2154 0.90882 0.0
O94 O 0.88493 0.13323 0.86301 0.0
C95 C 0.92186 0.31247 0.8435 0.0
O96 O 0.94364 0.16271 0.8453 0.0
O97 O 0.94952 0.28046 0.84367 0.0
C98 C 0.75819 0.79921 0.32295 0.0
O99 O 0.77877 0.7773 0.33917 0.0
Cd100 Cd 0.79057 0.81088 0.37997 0.0
O101 O 0.73815 0.8355 0.32831 0.0
Cd102 Cd 0.71082 0.89287 0.35704 0.0
C103 C 0.80902 0.921 0.35503 0.0
O104 O 0.72459 0.84787 0.39374 0.0
O105 O 0.69323 0.91152 0.39895 0.0
O106 O 0.6359 0.88029 0.34283 0.0
C107 C 0.71407 0.87953 0.40838 0.0
O108 O 0.80185 0.88279 0.36367 0.0
C109 C 0.62739 0.92159 0.34079 0.0
O110 O 0.77557 0.94393 0.3489 0.0
O111 O 0.65856 0.94909 0.34511 0.0
H112 H -0.02246 0.35514 0.08312 0.0
H113 H 0.96064 0.58571 0.15848 0.0
H114 H 0.02407 0.36775 0.15694 0.0
H115 H 0.91731 0.56561 0.08448 0.0
H116 H -0.01468 0.50709 0.15932 0.0
H117 H 0.95618 0.43351 0.084 0.0
C118 C -0.01747 0.37456 0.09967 0.0
C119 C 0.00203 0.35539 0.12003 0.0
C120 C -0.02942 0.52006 0.1429 0.0
C121 C -0.02227 0.44507 0.12139 0.0
C122 C 0.95667 0.56469 0.14245 0.0
C123 C 0.93667 0.58138 0.12144 0.0
C124 C 0.96482 0.49282 0.12207 0.0
C125 C 0.93209 0.55346 0.10109 0.0
C126 C -0.02935 0.41934 0.10018 0.0
C127 C 0.00881 0.38176 0.14094 0.0
N128 N 0.94613 0.51066 0.10189 0.0
N129 N -0.00363 0.42546 0.14118 0.0
H130 H 0.36992 0.92426 0.58443 0.0
H131 H 0.5808 0.01717 0.65745 0.0
H132 H 0.36406 0.95209 0.66182 0.0
H133 H 0.58176 -0.01526 0.58056 0.0
H134 H 0.5022 -0.00677 0.66039 0.0
H135 H 0.44755 0.94844 0.58312 0.0
C136 C 0.38541 0.93532 0.60119 0.0
C137 C 0.36132 0.93573 0.62329 0.0
C138 C 0.51964 -0.00868 0.6429 0.0
C139 C 0.45019 0.96314 0.62215 0.0
C140 C 0.56434 0.00477 0.64127 0.0
C141 C 0.58731 0.00253 0.61874 0.0
C142 C 0.49795 -0.02355 0.62172 0.0
C143 C 0.56501 -0.01351 0.59825 0.0
C144 C 0.42965 0.94917 0.60049 0.0
C145 C 0.38211 0.95102 0.6445 0.0
N146 N 0.52149 -0.02563 0.60019 0.0
N147 N 0.42572 0.96393 0.64347 0.0
H148 H 0.9495 0.35952 0.803 0.0
H149 H -0.00892 0.57998 0.88384 0.0
H150 H 0.92894 0.36932 0.88102 0.0
H151 H 0.01251 0.57714 0.80576 0.0
H152 H 0.96782 0.5021 0.88237 0.0
H153 H -0.02694 0.43846 0.80258 0.0
C154 C 0.95016 0.37842 0.81997 0.0
C155 C 0.93713 0.35866 0.84208 0.0
C156 C -0.02277 0.51832 0.86544 0.0
C157 C 0.9639 0.44771 0.84186 0.0
C158 C -0.00975 0.56278 0.86633 0.0
C159 C 0.00331 0.58448 0.84492 0.0
C160 C -0.02294 0.4954 0.84289 0.0
C161 C 0.00237 0.56109 0.82263 0.0
C162 C 0.96346 0.42323 0.81976 0.0
C163 C 0.93845 0.38388 0.86363 0.0
N164 N -0.01065 0.51756 0.82214 0.0
N165 N 0.95165 0.42703 0.863 0.0
H166 H 0.35614 -0.00197 0.30618 0.0
H167 H 0.57788 0.94266 0.38007 0.0
H168 H 0.366 0.00374 0.38462 0.0
H169 H 0.57299 0.93473 0.30148 0.0
H170 H 0.49987 0.96567 0.38153 0.0
H171 H 0.43496 -0.02518 0.30329 0.0
C172 C 0.37499 -0.006 0.32274 0.0
C173 C 0.35507 0.00236 0.34568 0.0
C174 C 0.5156 0.95912 0.36389 0.0
C175 C 0.44442 -0.02354 0.34263 0.0
C176 C 0.56008 0.9461 0.3631 0.0
C177 C 0.58124 0.93694 0.34066 0.0
C178 C 0.49213 0.96318 0.34201 0.0
C179 C 0.5573 0.94157 0.3191 0.0
C180 C 0.41981 -0.01903 0.32112 0.0
C181 C 0.38047 -0.0027 0.36665 0.0
N182 N 0.51374 0.95448 0.32028 0.0
N183 N 0.42383 -0.01535 0.36463 0.0
H184 H 0.91567 0.13855 0.92781 0.0
H185 H 0.02599 0.28558 0.03306 0.0
H186 H 0.87188 0.27053 0.94817 0.0
H187 H 0.06378 0.14945 0.01838 0.0
H188 H -0.02688 0.28164 -0.0003 0.0
H189 H 0.96676 0.13898 0.96213 0.0
C190 C 0.91498 0.16668 0.94041 0.0
C191 C 0.89029 0.20499 0.93489 0.0
C192 C -0.00631 0.25285 0.0033 0.0
C193 C 0.94988 0.20659 0.97354 0.0
C194 C 0.02491 0.2556 0.02187 0.0
C195 C 0.04918 0.21782 0.02844 0.0
C196 C -0.01294 0.21209 -0.00896 0.0
C197 C 0.04573 0.1794 0.01375 0.0
C198 C 0.94514 0.16742 0.95959 0.0
C199 C 0.89071 0.24052 0.95165 0.0
N200 N 0.01461 0.1772 -0.00408 0.0
N201 N 0.92101 0.24097 0.9699 0.0
H202 H 0.6739 -0.00717 0.54531 0.0
H203 H 0.77889 0.94045 0.41343 0.0
H204 H 0.76308 0.08359 0.50843 0.0
H205 H 0.69844 0.84788 0.45463 0.0
H206 H 0.77988 -0.00931 0.44877 0.0
H207 H 0.68184 0.94044 0.5113 0.0
C208 C 0.69341 0.00265 0.52936 0.0
C209 C 0.71773 0.04254 0.52955 0.0
C210 C 0.76323 0.95878 0.45044 0.0
C211 C 0.72845 -0.01803 0.49083 0.0
C212 C 0.76364 0.92946 0.43047 0.0
C213 C 0.73763 0.89042 0.431 0.0
C214 C 0.73756 0.94823 0.47126 0.0
C215 C 0.71838 0.87789 0.45337 0.0
C216 C 0.69896 -0.02783 0.51024 0.0
C217 C 0.74346 0.05328 0.5088 0.0
N218 N 0.71789 0.90722 0.47252 0.0
N219 N 0.74849 0.02289 0.49025 0.0
H220 H 0.90693 0.79979 0.03383 0.0
H221 H 0.03625 0.6528 0.93335 0.0
H222 H 0.87769 0.66185 0.01887 0.0
H223 H 0.05952 0.79331 0.94342 0.0
H224 H -0.01849 0.65496 0.96691 0.0
H225 H 0.95885 0.80051 -0.00104 0.0
C226 C 0.90967 0.77028 0.0223 0.0
C227 C 0.88911 0.73032 0.02945 0.0
C228 C -0.00071 0.6852 0.96222 0.0
C229 C 0.94955 0.73021 -0.00962 0.0
C230 C 0.03161 0.68361 0.9436 0.0
C231 C 0.05213 0.72293 0.9357 0.0
C232 C -0.01208 0.72641 0.97304 0.0
C233 C 0.04429 0.76226 0.94914 0.0
C234 C 0.94024 0.77036 0.00282 0.0
C235 C 0.89349 0.6931 0.01405 0.0
N236 N 0.01208 0.76328 0.96693 0.0
N237 N 0.92432 0.69353 -0.00446 0.0
H238 H 0.27427 -0.0016 0.42185 0.0
H239 H 0.15498 0.93664 0.54842 0.0
H240 H 0.17014 0.07944 0.45425 0.0
H241 H 0.24894 0.85167 0.51014 0.0
H242 H 0.15515 -0.01299 0.5136 0.0
H243 H 0.26728 0.94667 0.45573 0.0
C244 C 0.25148 0.00648 0.43686 0.0
C245 C 0.2227 0.04308 0.43529 0.0
C246 C 0.17466 0.95666 0.51241 0.0
C247 C 0.21313 -0.01696 0.47379 0.0
C248 C 0.17364 0.92715 0.53202 0.0
C249 C 0.20285 0.89046 0.53236 0.0
C250 C 0.20426 0.9486 0.49273 0.0
C251 C 0.22639 0.87986 0.51077 0.0
C252 C 0.24657 -0.02377 0.45587 0.0
C253 C 0.19308 0.05162 0.4549 0.0
N254 N 0.2274 0.90938 0.49199 0.0
N255 N 0.18867 0.02145 0.47332 0.0
H256 H 0.1892 0.11938 0.16361 0.0
H257 H 0.14649 0.21348 0.30029 0.0
H258 H 0.12111 0.24315 0.17959 0.0
H259 H 0.21889 0.09263 0.28255 0.0
H260 H 0.13758 0.22637 0.25625 0.0
H261 H 0.20116 0.10974 0.2075 0.0
C262 C 0.17773 0.14499 0.17633 0.0
C263 C 0.15465 0.18238 0.16802 0.0
C264 C 0.15559 0.19718 0.26211 0.0
C265 C 0.16775 0.17158 0.21819 0.0
C266 C 0.16085 0.18997 0.28722 0.0
C267 C 0.18358 0.15199 0.29519 0.0
C268 C 0.17318 0.16618 0.24498 0.0
C269 C 0.2011 0.12239 0.27739 0.0
C270 C 0.18412 0.13934 0.20139 0.0
C271 C 0.13932 0.21398 0.1853 0.0
N272 N 0.19541 0.13004 0.25327 0.0
N273 N 0.14614 0.20791 0.20954 0.0
H274 H 0.85083 0.21688 0.78496 0.0
H275 H 0.69629 0.11691 0.68057 0.0
H276 H 0.72853 0.14543 0.80042 0.0
H277 H 0.81594 0.19255 0.66583 0.0
H278 H 0.7067 0.1281 0.72434 0.0
H279 H 0.83762 0.20919 0.74158 0.0
C280 C 0.82081 0.19985 0.77929 0.0
C281 C 0.79073 0.18168 0.79655 0.0
C282 C 0.73047 0.1427 0.71161 0.0
C283 C 0.77544 0.17288 0.74633 0.0
C284 C 0.72443 0.13656 0.68663 0.0
C285 C 0.75484 0.1546 0.66964 0.0
C286 C 0.76749 0.16681 0.71977 0.0
C287 C 0.79112 0.1791 0.67836 0.0
C288 C 0.81343 0.19542 0.75436 0.0
C289 C 0.7526 0.15998 0.78785 0.0
N290 N 0.79661 0.18425 0.7029 0.0
N291 N 0.7461 0.1561 0.7633 0.0
H292 H 0.73271 0.72333 0.29754 0.0
H293 H 0.8177 0.82465 0.1693 0.0
H294 H 0.79461 0.85203 0.28894 0.0
H295 H 0.7543 0.69622 0.17456 0.0
H296 H 0.80864 0.83464 0.2135 0.0
H297 H 0.73872 0.71175 0.2528 0.0
C298 C 0.74817 0.74869 0.28625 0.0
C299 C 0.76388 0.78835 0.29677 0.0
C300 C 0.79588 0.80454 0.20507 0.0
C301 C 0.77073 0.77569 0.24606 0.0
C302 C 0.80061 0.79916 0.17983 0.0
C303 C 0.78504 0.7604 0.16842 0.0
C304 C 0.77553 0.77074 0.21905 0.0
C305 C 0.76518 0.72724 0.1828 0.0
C306 C 0.75133 0.74231 0.26079 0.0
C307 C 0.78253 0.82082 0.28144 0.0
N308 N 0.76084 0.73317 0.20746 0.0
N309 N 0.78562 0.81371 0.25696 0.0
H310 H 0.17349 0.861 0.67742 0.0
H311 H 0.15873 0.68625 0.78695 0.0
H312 H 0.1824 0.719 0.66512 0.0
H313 H 0.15488 0.82884 0.79652 0.0
H314 H 0.16865 0.69625 0.74261 0.0
H315 H 0.16706 0.84863 0.72109 0.0
C316 C 0.17436 0.82704 0.68399 0.0
C317 C 0.17846 0.79096 0.66759 0.0
C318 C 0.1663 0.72535 0.75441 0.0
C319 C 0.17131 0.77642 0.71802 0.0
C320 C 0.16116 0.71964 0.77964 0.0
C321 C 0.15789 0.75683 0.79524 0.0
C322 C 0.16717 0.76861 0.74479 0.0
C323 C 0.1592 0.79943 0.78507 0.0
C324 C 0.17057 0.82 0.70901 0.0
C325 C 0.17891 0.7477 0.67715 0.0
N326 N 0.16349 0.80416 0.76045 0.0
N327 N 0.17557 0.7416 0.70184 0.0
H328 H 0.93425 0.09741 0.12167 0.0
H329 H 0.00547 0.83978 0.10641 0.0
H330 H 0.06963 0.05152 0.10954 0.0
H331 H 0.87391 0.88336 0.12917 0.0
H332 H 0.03048 0.91804 0.10774 0.0
H333 H 0.91017 0.01876 0.12351 0.0
C334 C 0.95879 0.07107 0.11966 0.0
C335 C 0.00398 0.08104 0.11557 0.0
C336 C -0.00379 0.91027 0.11265 0.0
C337 C -0.02288 -0.00802 0.11748 0.0
C338 C -0.01771 0.86566 0.1122 0.0
C339 C 0.93755 0.8556 0.11749 0.0
C340 C 0.965 0.94428 0.11839 0.0
C341 C 0.90856 0.89014 0.12466 0.0
C342 C 0.94517 0.02632 0.12057 0.0
C343 C 0.03438 0.04562 0.11267 0.0
N344 N 0.92257 0.93294 0.12461 0.0
N345 N 0.02043 0.00294 0.1136 0.0
H346 H 0.09873 0.00289 0.62731 0.0
H347 H 0.84405 0.93812 0.60031 0.0
H348 H 0.05793 0.87693 0.59594 0.0
H349 H 0.88359 0.05699 0.63912 0.0
H350 H 0.92213 0.91269 0.60022 0.0
H351 H 0.0196 0.02392 0.63153 0.0
C352 C 0.07328 -0.02025 0.62136 0.0
C353 C 0.08495 0.93795 0.61149 0.0
C354 C 0.91355 0.94401 0.60912 0.0
C355 C -0.00514 0.96129 0.61647 0.0
C356 C 0.86896 0.95807 0.60948 0.0
C357 C 0.85791 -0.00018 0.61957 0.0
C358 C 0.9467 -0.02794 0.61894 0.0
C359 C 0.89121 0.02477 0.63098 0.0
C360 C 0.02818 -0.00841 0.62384 0.0
C361 C 0.0506 0.90937 0.60385 0.0
N362 N 0.93418 0.01085 0.63008 0.0
N363 N 0.00731 0.92149 0.60654 0.0
H364 H -0.00171 0.09484 0.82843 0.0
H365 H 0.94289 0.8445 0.87092 0.0
H366 H 0.89005 0.05799 0.87748 0.0
H367 H 0.0489 0.87704 0.81997 0.0
H368 H 0.91976 0.92302 0.87134 0.0
H369 H 0.01891 0.01531 0.82518 0.0
C370 C -0.02093 0.07029 0.83849 0.0
C371 C 0.94174 0.08296 0.8527 0.0
C372 C 0.9476 0.91288 0.85968 0.0
C373 C 0.96425 -0.00723 0.84876 0.0
C374 C 0.9601 0.86797 0.85911 0.0
C375 C -0.00239 0.85481 0.84529 0.0
C376 C -0.02688 0.94433 0.84642 0.0
C377 C 0.01964 0.88634 0.83074 0.0
C378 C -0.00947 0.02499 0.83653 0.0
C379 C 0.91838 0.04986 0.86572 0.0
N380 N 0.00748 0.92983 0.83191 0.0
N381 N 0.92972 0.00651 0.86326 0.0
H382 H 0.88203 0.86895 0.35645 0.0
H383 H 0.05382 0.06843 0.33886 0.0
H384 H 0.8425 0.00583 0.34611 0.0
H385 H 0.09582 0.93344 0.3525 0.0
H386 H -0.02308 0.04454 0.33952 0.0
H387 H 0.95969 0.89086 0.35341 0.0
C388 C 0.88972 0.9038 0.35352 0.0
C389 C 0.85566 0.93568 0.35171 0.0
C390 C 0.00268 0.01982 0.34207 0.0
C391 C 0.94516 0.96088 0.34798 0.0
C392 C 0.04677 0.03336 0.34158 0.0
C393 C 0.08119 0.00297 0.34586 0.0
C394 C -0.00755 -0.02488 0.34635 0.0
C395 C 0.07021 0.95791 0.349 0.0
C396 C 0.93423 0.91618 0.35176 0.0
C397 C 0.86768 -0.01984 0.3476 0.0
N398 N 0.02645 0.94529 0.34935 0.0
N399 N 0.91162 -0.00851 0.34598 0.0
loop_
_geom_bond_atom_site_label_1
_geom_bond_atom_site_label_2
_geom_bond_distance
_geom_bond_site_symmetry_2
_ccdc_geom_bond_type
C0 O1 1.306 . S
C0 O3 1.160 . S
O1 C0 1.306 . S
O1 Cd2 2.228 . S
Cd2 O1 2.228 . S
Cd2 O6 2.273 . S
Cd2 O10 2.277 . S
O3 C0 1.160 . S
O3 Cd4 2.203 . S
Cd4 O3 2.203 . S
Cd4 O6 2.411 . S
Cd4 O7 2.333 . S
Cd4 O8 2.352 . S
Cd4 O12 2.277 . S
Cd4 O13 2.356 . S
C5 O10 1.209 . S
C5 O12 1.226 . S
O6 Cd2 2.273 . S
O6 Cd4 2.411 . S
O6 C9 1.320 . S
O7 Cd4 2.333 . S
O7 C9 1.214 . S
O8 Cd4 2.352 . S
O8 C11 1.258 . S
C9 O6 1.320 . S
C9 O7 1.214 . S
O10 Cd2 2.277 . S
O10 C5 1.209 . S
C11 O8 1.258 . S
C11 O13 1.282 . S
O12 Cd4 2.277 . S
O12 C5 1.226 . S
O13 Cd4 2.356 . S
O13 C11 1.282 . S
C14 O15 1.306 . S
C14 O17 1.160 . S
O15 C14 1.306 . S
O15 Cd16 2.228 . S
Cd16 O15 2.228 . S
Cd16 O20 2.273 . S
Cd16 O24 2.277 . S
O17 C14 1.160 . S
O17 Cd18 2.203 . S
Cd18 O17 2.203 . S
Cd18 O20 2.411 . S
Cd18 O21 2.333 . S
Cd18 O22 2.352 . S
Cd18 O26 2.277 . S
Cd18 O27 2.356 . S
C19 O24 1.209 . S
C19 O26 1.226 . S
O20 Cd16 2.273 . S
O20 Cd18 2.411 . S
O20 C23 1.320 . S
O21 Cd18 2.333 . S
O21 C23 1.214 . S
O22 Cd18 2.352 . S
O22 C25 1.258 . S
C23 O20 1.320 . S
C23 O21 1.214 . S
O24 Cd16 2.277 . S
O24 C19 1.209 . S
C25 O22 1.258 . S
C25 O27 1.282 . S
O26 Cd18 2.277 . S
O26 C19 1.226 . S
O27 Cd18 2.356 . S
O27 C25 1.282 . S
C28 O29 1.306 . S
C28 O31 1.160 . S
O29 C28 1.306 . S
O29 Cd30 2.228 . S
Cd30 O29 2.228 . S
Cd30 O34 2.273 . S
Cd30 O38 2.277 . S
O31 C28 1.160 . S
O31 Cd32 2.203 . S
Cd32 O31 2.203 . S
Cd32 O34 2.411 . S
Cd32 O35 2.333 . S
Cd32 O36 2.352 . S
Cd32 O40 2.277 . S
Cd32 O41 2.356 . S
C33 O38 1.209 . S
C33 O40 1.226 . S
O34 Cd30 2.273 . S
O34 Cd32 2.411 . S
O34 C37 1.320 . S
O35 Cd32 2.333 . S
O35 C37 1.214 . S
O36 Cd32 2.352 . S
O36 C39 1.258 . S
C37 O34 1.320 . S
C37 O35 1.214 . S
O38 Cd30 2.277 . S
O38 C33 1.209 . S
C39 O36 1.258 . S
C39 O41 1.282 . S
O40 Cd32 2.277 . S
O40 C33 1.226 . S
O41 Cd32 2.356 . S
O41 C39 1.282 . S
C42 O43 1.306 . S
C42 O45 1.160 . S
O43 C42 1.306 . S
O43 Cd44 2.228 . S
Cd44 O43 2.228 . S
Cd44 O48 2.273 . S
Cd44 O52 2.277 . S
O45 C42 1.160 . S
O45 Cd46 2.203 . S
Cd46 O45 2.203 . S
Cd46 O48 2.411 . S
Cd46 O49 2.333 . S
Cd46 O50 2.352 . S
Cd46 O54 2.277 . S
Cd46 O55 2.356 . S
C47 O52 1.209 . S
C47 O54 1.226 . S
O48 Cd44 2.273 . S
O48 Cd46 2.411 . S
O48 C51 1.320 . S
O49 Cd46 2.333 . S
O49 C51 1.214 . S
O50 Cd46 2.352 . S
O50 C53 1.258 . S
C51 O48 1.320 . S
C51 O49 1.214 . S
O52 Cd44 2.277 . S
O52 C47 1.209 . S
C53 O50 1.258 . S
C53 O55 1.282 . S
O54 Cd46 2.277 . S
O54 C47 1.226 . S
O55 Cd46 2.356 . S
O55 C53 1.282 . S
C56 O57 1.306 . S
C56 O59 1.160 . S
O57 C56 1.306 . S
O57 Cd58 2.228 . S
Cd58 O57 2.228 . S
Cd58 O62 2.273 . S
Cd58 O66 2.277 . S
O59 C56 1.160 . S
O59 Cd60 2.203 . S
Cd60 O59 2.203 . S
Cd60 O62 2.411 . S
Cd60 O63 2.333 . S
Cd60 O64 2.352 . S
Cd60 O68 2.277 . S
Cd60 O69 2.356 . S
C61 O66 1.209 . S
C61 O68 1.226 . S
O62 Cd58 2.273 . S
O62 Cd60 2.411 . S
O62 C65 1.320 . S
O63 Cd60 2.333 . S
O63 C65 1.214 . S
O64 Cd60 2.352 . S
O64 C67 1.258 . S
C65 O62 1.320 . S
C65 O63 1.214 . S
O66 Cd58 2.277 . S
O66 C61 1.209 . S
C67 O64 1.258 . S
C67 O69 1.282 . S
O68 Cd60 2.277 . S
O68 C61 1.226 . S
O69 Cd60 2.356 . S
O69 C67 1.282 . S
C70 O71 1.306 . S
C70 O73 1.160 . S
O71 C70 1.306 . S
O71 Cd72 2.228 . S
Cd72 O71 2.228 . S
Cd72 O76 2.273 . S
Cd72 O80 2.277 . S
O73 C70 1.160 . S
O73 Cd74 2.203 . S
Cd74 O73 2.203 . S
Cd74 O76 2.411 . S
Cd74 O77 2.333 . S
Cd74 O78 2.352 . S
Cd74 O82 2.277 . S
Cd74 O83 2.356 . S
C75 O80 1.209 . S
C75 O82 1.226 . S
O76 Cd72 2.273 . S
O76 Cd74 2.411 . S
O76 C79 1.320 . S
O77 Cd74 2.333 . S
O77 C79 1.214 . S
O78 Cd74 2.352 . S
O78 C81 1.258 . S
C79 O76 1.320 . S
C79 O77 1.214 . S
O80 Cd72 2.277 . S
O80 C75 1.209 . S
C81 O78 1.258 . S
C81 O83 1.282 . S
O82 Cd74 2.277 . S
O82 C75 1.226 . S
O83 Cd74 2.356 . S
O83 C81 1.282 . S
C84 O85 1.306 . S
C84 O87 1.160 . S
O85 C84 1.306 . S
O85 Cd86 2.228 . S
Cd86 O85 2.228 . S
Cd86 O90 2.273 . S
Cd86 O94 2.277 . S
O87 C84 1.160 . S
O87 Cd88 2.203 . S
Cd88 O87 2.203 . S
Cd88 O90 2.411 . S
Cd88 O91 2.333 . S
Cd88 O92 2.352 . S
Cd88 O96 2.277 . S
Cd88 O97 2.356 . S
C89 O94 1.209 . S
C89 O96 1.226 . S
O90 Cd86 2.273 . S
O90 Cd88 2.411 . S
O90 C93 1.320 . S
O91 Cd88 2.333 . S
O91 C93 1.214 . S
O92 Cd88 2.352 . S
O92 C95 1.258 . S
C93 O90 1.320 . S
C93 O91 1.214 . S
O94 Cd86 2.277 . S
O94 C89 1.209 . S
C95 O92 1.258 . S
C95 O97 1.282 . S
O96 Cd88 2.277 . S
O96 C89 1.226 . S
O97 Cd88 2.356 . S
O97 C95 1.282 . S
C98 O99 1.306 . S
C98 O101 1.160 . S
O99 C98 1.306 . S
O99 Cd100 2.228 . S
Cd100 O99 2.228 . S
Cd100 O104 2.273 . S
Cd100 O108 2.277 . S
O101 C98 1.160 . S
O101 Cd102 2.203 . S
Cd102 O101 2.203 . S
Cd102 O104 2.411 . S
Cd102 O105 2.333 . S
Cd102 O106 2.352 . S
Cd102 O110 2.277 . S
Cd102 O111 2.356 . S
C103 O108 1.209 . S
C103 O110 1.226 . S
O104 Cd100 2.273 . S
O104 Cd102 2.411 . S
O104 C107 1.320 . S
O105 Cd102 2.333 . S
O105 C107 1.214 . S
O106 Cd102 2.352 . S
O106 C109 1.258 . S
C107 O104 1.320 . S
C107 O105 1.214 . S
O108 Cd100 2.277 . S
O108 C103 1.209 . S
C109 O106 1.258 . S
C109 O111 1.282 . S
O110 Cd102 2.277 . S
O110 C103 1.226 . S
O111 Cd102 2.356 . S
O111 C109 1.282 . S
H112 C118 0.930 . S
H113 C122 0.930 . S
H114 C127 0.929 . S
H115 C125 0.929 . S
H116 C120 0.929 1_455 S
H117 C126 0.929 1_655 S
C118 H112 0.930 . S
C118 C119 1.367 . S
C118 C126 1.378 . S
C119 C118 1.367 . S
C119 C127 1.433 . S
C120 H116 0.929 1_655 S
C120 C122 1.378 . S
C120 C124 1.350 . S
C121 C124 1.463 1_455 S
C121 C126 1.350 . S
C121 N129 1.427 . S
C122 H113 0.930 . S
C122 C120 1.378 . S
C122 C123 1.367 . S
C123 C122 1.367 . S
C123 C125 1.433 . S
C124 C120 1.350 . S
C124 C121 1.463 1_655 S
C124 N128 1.427 . S
C125 H115 0.929 . S
C125 C123 1.433 . S
C125 N128 1.384 . S
C126 H117 0.929 1_455 S
C126 C118 1.378 . S
C126 C121 1.350 . S
C127 H114 0.929 . S
C127 C119 1.433 . S
C127 N129 1.384 . S
N128 C124 1.427 . S
N128 C125 1.384 . S
N129 C121 1.427 . S
N129 C127 1.384 . S
H130 C136 0.930 . S
H131 C140 0.930 . S
H132 C145 0.929 . S
H133 C143 0.929 . S
H134 C138 0.929 . S
H135 C144 0.929 . S
C136 H130 0.930 . S
C136 C137 1.367 . S
C136 C144 1.378 . S
C137 C136 1.367 . S
C137 C145 1.433 . S
C138 H134 0.929 . S
C138 C140 1.378 . S
C138 C142 1.350 . S
C139 C142 1.463 1_565 S
C139 C144 1.350 . S
C139 N147 1.427 . S
C140 H131 0.930 . S
C140 C138 1.378 . S
C140 C141 1.367 . S
C141 C140 1.367 . S
C141 C143 1.433 . S
C142 C138 1.350 . S
C142 C139 1.463 1_545 S
C142 N146 1.427 . S
C143 H133 0.929 . S
C143 C141 1.433 . S
C143 N146 1.384 . S
C144 H135 0.929 . S
C144 C136 1.378 . S
C144 C139 1.350 . S
C145 H132 0.929 . S
C145 C137 1.433 . S
C145 N147 1.384 . S
N146 C142 1.427 . S
N146 C143 1.384 . S
N147 C139 1.427 . S
N147 C145 1.384 . S
H148 C154 0.930 . S
H149 C158 0.930 . S
H150 C163 0.929 . S
H151 C161 0.929 . S
H152 C156 0.933 . S
H153 C162 0.933 . S
C154 H148 0.930 . S
C154 C155 1.367 . S
C154 C162 1.378 . S
C155 C154 1.367 . S
C155 C163 1.433 . S
C156 H152 0.933 . S
C156 C158 1.378 . S
C156 C160 1.350 . S
C157 C160 1.463 1_655 S
C157 C162 1.350 . S
C157 N165 1.427 . S
C158 H149 0.930 . S
C158 C156 1.378 . S
C158 C159 1.367 . S
C159 C158 1.367 . S
C159 C161 1.433 . S
C160 C156 1.350 . S
C160 C157 1.463 1_455 S
C160 N164 1.427 . S
C161 H151 0.929 . S
C161 C159 1.433 . S
C161 N164 1.384 . S
C162 H153 0.933 . S
C162 C154 1.378 . S
C162 C157 1.350 . S
C163 H150 0.929 . S
C163 C155 1.433 . S
C163 N165 1.384 . S
N164 C160 1.427 . S
N164 C161 1.384 . S
N165 C157 1.427 . S
N165 C163 1.384 . S
H166 C172 0.930 . S
H167 C176 0.930 . S
H168 C181 0.929 . S
H169 C179 0.929 . S
H170 C174 0.929 . S
H171 C180 0.929 . S
C172 H166 0.930 . S
C172 C173 1.367 . S
C172 C180 1.378 . S
C173 C172 1.367 . S
C173 C181 1.433 . S
C174 H170 0.929 . S
C174 C176 1.378 . S
C174 C178 1.350 . S
C175 C178 1.463 1_545 S
C175 C180 1.350 . S
C175 N183 1.427 . S
C176 H167 0.930 . S
C176 C174 1.378 . S
C176 C177 1.367 . S
C177 C176 1.367 . S
C177 C179 1.433 . S
C178 C174 1.350 . S
C178 C175 1.463 1_565 S
C178 N182 1.427 . S
C179 H169 0.929 . S
C179 C177 1.433 . S
C179 N182 1.384 . S
C180 H171 0.929 . S
C180 C172 1.378 . S
C180 C175 1.350 . S
C181 H168 0.929 . S
C181 C173 1.433 . S
C181 N183 1.384 . S
N182 C178 1.427 . S
N182 C179 1.384 . S
N183 C175 1.427 . S
N183 C181 1.384 . S
H184 C190 0.930 . S
H185 C194 0.930 . S
H186 C199 0.929 . S
H187 C197 0.929 . S
H188 C192 0.929 1_655 S
H189 C198 0.929 1_455 S
C190 H184 0.930 . S
C190 C191 1.367 . S
C190 C198 1.378 . S
C191 C190 1.367 . S
C191 C199 1.433 . S
C192 H188 0.929 1_455 S
C192 C194 1.378 . S
C192 C196 1.350 . S
C193 C196 1.463 1_656 S
C193 C198 1.350 . S
C193 N201 1.427 . S
C194 H185 0.930 . S
C194 C192 1.378 . S
C194 C195 1.367 . S
C195 C194 1.367 . S
C195 C197 1.433 . S
C196 C192 1.350 . S
C196 C193 1.463 1_454 S
C196 N200 1.427 . S
C197 H187 0.929 . S
C197 C195 1.433 . S
C197 N200 1.384 . S
C198 H189 0.929 1_655 S
C198 C190 1.378 . S
C198 C193 1.350 . S
C199 H186 0.929 . S
C199 C191 1.433 . S
C199 N201 1.384 . S
N200 C196 1.427 . S
N200 C197 1.384 . S
N201 C193 1.427 . S
N201 C199 1.384 . S
H202 C208 0.930 . S
H203 C212 0.930 . S
H204 C217 0.929 . S
H205 C215 0.929 . S
H206 C210 0.929 1_545 S
H207 C216 0.929 1_565 S
C208 H202 0.930 . S
C208 C209 1.367 . S
C208 C216 1.378 . S
C209 C208 1.367 . S
C209 C217 1.433 . S
C210 H206 0.929 1_565 S
C210 C212 1.378 . S
C210 C214 1.350 . S
C211 C214 1.463 1_545 S
C211 C216 1.350 . S
C211 N219 1.427 . S
C212 H203 0.930 . S
C212 C210 1.378 . S
C212 C213 1.367 . S
C213 C212 1.367 . S
C213 C215 1.433 . S
C214 C210 1.350 . S
C214 C211 1.463 1_565 S
C214 N218 1.427 . S
C215 H205 0.929 . S
C215 C213 1.433 . S
C215 N218 1.384 . S
C216 H207 0.929 1_545 S
C216 C208 1.378 . S
C216 C211 1.350 . S
C217 H204 0.929 . S
C217 C209 1.433 . S
C217 N219 1.384 . S
N218 C214 1.427 . S
N218 C215 1.384 . S
N219 C211 1.427 . S
N219 C217 1.384 . S
H220 C226 0.930 . S
H221 C230 0.930 . S
H222 C235 0.929 . S
H223 C233 0.929 . S
H224 C228 0.929 . S
H225 C234 0.929 . S
C226 H220 0.930 . S
C226 C227 1.367 . S
C226 C234 1.378 . S
C227 C226 1.367 . S
C227 C235 1.433 . S
C228 H224 0.929 . S
C228 C230 1.378 . S
C228 C232 1.350 . S
C229 C232 1.463 1_654 S
C229 C234 1.350 . S
C229 N237 1.427 . S
C230 H221 0.930 . S
C230 C228 1.378 . S
C230 C231 1.367 . S
C231 C230 1.367 . S
C231 C233 1.433 . S
C232 C228 1.350 . S
C232 C229 1.463 1_456 S
C232 N236 1.427 . S
C233 H223 0.929 . S
C233 C231 1.433 . S
C233 N236 1.384 . S
C234 H225 0.929 . S
C234 C226 1.378 . S
C234 C229 1.350 . S
C235 H222 0.929 . S
C235 C227 1.433 . S
C235 N237 1.384 . S
N236 C232 1.427 . S
N236 C233 1.384 . S
N237 C229 1.427 . S
N237 C235 1.384 . S
H238 C244 0.930 . S
H239 C248 0.930 . S
H240 C253 0.929 . S
H241 C251 0.929 . S
H242 C246 0.929 1_545 S
H243 C252 0.929 1_565 S
C244 H238 0.930 . S
C244 C245 1.367 . S
C244 C252 1.378 . S
C245 C244 1.367 . S
C245 C253 1.433 . S
C246 H242 0.929 1_565 S
C246 C248 1.378 . S
C246 C250 1.350 . S
C247 C250 1.463 1_545 S
C247 C252 1.350 . S
C247 N255 1.427 . S
C248 H239 0.930 . S
C248 C246 1.378 . S
C248 C249 1.367 . S
C249 C248 1.367 . S
C249 C251 1.433 . S
C250 C246 1.350 . S
C250 C247 1.463 1_565 S
C250 N254 1.427 . S
C251 H241 0.929 . S
C251 C249 1.433 . S
C251 N254 1.384 . S
C252 H243 0.929 1_545 S
C252 C244 1.378 . S
C252 C247 1.350 . S
C253 H240 0.929 . S
C253 C245 1.433 . S
C253 N255 1.384 . S
N254 C250 1.427 . S
N254 C251 1.384 . S
N255 C247 1.427 . S
N255 C253 1.384 . S
H256 C262 0.930 . S
H257 C266 0.930 . S
H258 C271 0.929 . S
H259 C269 0.929 . S
H260 C264 0.929 . S
H261 C270 0.929 . S
C262 H256 0.930 . S
C262 C263 1.367 . S
C262 C270 1.378 . S
C263 C262 1.367 . S
C263 C271 1.433 . S
C264 H260 0.929 . S
C264 C266 1.378 . S
C264 C268 1.350 . S
C265 C268 1.463 . S
C265 C270 1.350 . S
C265 N273 1.427 . S
C266 H257 0.930 . S
C266 C264 1.378 . S
C266 C267 1.367 . S
C267 C266 1.367 . S
C267 C269 1.433 . S
C268 C264 1.350 . S
C268 C265 1.463 . S
C268 N272 1.427 . S
C269 H259 0.929 . S
C269 C267 1.433 . S
C269 N272 1.384 . S
C270 H261 0.929 . S
C270 C262 1.378 . S
C270 C265 1.350 . S
C271 H258 0.929 . S
C271 C263 1.433 . S
C271 N273 1.384 . S
N272 C268 1.427 . S
N272 C269 1.384 . S
N273 C265 1.427 . S
N273 C271 1.384 . S
H274 C280 0.930 . S
H275 C284 0.930 . S
H276 C289 0.929 . S
H277 C287 0.929 . S
H278 C282 0.929 . S
H279 C288 0.929 . S
C280 H274 0.930 . S
C280 C281 1.367 . S
C280 C288 1.378 . S
C281 C280 1.367 . S
C281 C289 1.433 . S
C282 H278 0.929 . S
C282 C284 1.378 . S
C282 C286 1.350 . S
C283 C286 1.463 . S
C283 C288 1.350 . S
C283 N291 1.427 . S
C284 H275 0.930 . S
C284 C282 1.378 . S
C284 C285 1.367 . S
C285 C284 1.367 . S
C285 C287 1.433 . S
C286 C282 1.350 . S
C286 C283 1.463 . S
C286 N290 1.427 . S
C287 H277 0.929 . S
C287 C285 1.433 . S
C287 N290 1.384 . S
C288 H279 0.929 . S
C288 C280 1.378 . S
C288 C283 1.350 . S
C289 H276 0.929 . S
C289 C281 1.433 . S
C289 N291 1.384 . S
N290 C286 1.427 . S
N290 C287 1.384 . S
N291 C283 1.427 . S
N291 C289 1.384 . S
H292 C298 0.930 . S
H293 C302 0.930 . S
H294 C307 0.929 . S
H295 C305 0.929 . S
H296 C300 0.929 . S
H297 C306 0.929 . S
C298 H292 0.930 . S
C298 C299 1.367 . S
C298 C306 1.378 . S
C299 C298 1.367 . S
C299 C307 1.433 . S
C300 H296 0.929 . S
C300 C302 1.378 . S
C300 C304 1.350 . S
C301 C304 1.463 . S
C301 C306 1.350 . S
C301 N309 1.427 . S
C302 H293 0.930 . S
C302 C300 1.378 . S
C302 C303 1.367 . S
C303 C302 1.367 . S
C303 C305 1.433 . S
C304 C300 1.350 . S
C304 C301 1.463 . S
C304 N308 1.427 . S
C305 H295 0.929 . S
C305 C303 1.433 . S
C305 N308 1.384 . S
C306 H297 0.929 . S
C306 C298 1.378 . S
C306 C301 1.350 . S
C307 H294 0.929 . S
C307 C299 1.433 . S
C307 N309 1.384 . S
N308 C304 1.427 . S
N308 C305 1.384 . S
N309 C301 1.427 . S
N309 C307 1.384 . S
H310 C316 0.930 . S
H311 C320 0.930 . S
H312 C325 0.929 . S
H313 C323 0.929 . S
H314 C318 0.929 . S
H315 C324 0.929 . S
C316 H310 0.930 . S
C316 C317 1.367 . S
C316 C324 1.378 . S
C317 C316 1.367 . S
C317 C325 1.433 . S
C318 H314 0.929 . S
C318 C320 1.378 . S
C318 C322 1.350 . S
C319 C322 1.463 . S
C319 C324 1.350 . S
C319 N327 1.427 . S
C320 H311 0.930 . S
C320 C318 1.378 . S
C320 C321 1.367 . S
C321 C320 1.367 . S
C321 C323 1.433 . S
C322 C318 1.350 . S
C322 C319 1.463 . S
C322 N326 1.427 . S
C323 H313 0.929 . S
C323 C321 1.433 . S
C323 N326 1.384 . S
C324 H315 0.929 . S
C324 C316 1.378 . S
C324 C319 1.350 . S
C325 H312 0.929 . S
C325 C317 1.433 . S
C325 N327 1.384 . S
N326 C322 1.427 . S
N326 C323 1.384 . S
N327 C319 1.427 . S
N327 C325 1.384 . S
H328 C334 0.930 . S
H329 C338 0.930 . S
H330 C343 0.929 . S
H331 C341 0.929 . S
H332 C336 0.929 . S
H333 C342 0.929 . S
C334 H328 0.930 . S
C334 C335 1.367 1_655 S
C334 C342 1.378 . S
C335 C334 1.367 1_455 S
C335 C343 1.433 . S
C336 H332 0.929 . S
C336 C338 1.378 . S
C336 C340 1.350 1_455 S
C337 C340 1.463 1_445 S
C337 C342 1.350 1_455 S
C337 N345 1.427 . S
C338 H329 0.930 . S
C338 C336 1.378 . S
C338 C339 1.367 1_455 S
C339 C338 1.367 1_655 S
C339 C341 1.433 . S
C340 C336 1.350 1_655 S
C340 C337 1.463 1_665 S
C340 N344 1.427 . S
C341 H331 0.929 . S
C341 C339 1.433 . S
C341 N344 1.384 . S
C342 H333 0.929 . S
C342 C334 1.378 . S
C342 C337 1.350 1_655 S
C343 H330 0.929 . S
C343 C335 1.433 . S
C343 N345 1.384 . S
N344 C340 1.427 . S
N344 C341 1.384 . S
N345 C337 1.427 . S
N345 C343 1.384 . S
H346 C352 0.930 . S
H347 C356 0.930 . S
H348 C361 0.929 . S
H349 C359 0.929 . S
H350 C354 0.929 . S
H351 C360 0.929 . S
C352 H346 0.930 . S
C352 C353 1.367 1_545 S
C352 C360 1.378 . S
C353 C352 1.367 1_565 S
C353 C361 1.433 . S
C354 H350 0.929 . S
C354 C356 1.378 . S
C354 C358 1.350 1_565 S
C355 C358 1.463 1_465 S
C355 C360 1.350 1_565 S
C355 N363 1.427 . S
C356 H347 0.930 . S
C356 C354 1.378 . S
C356 C357 1.367 1_565 S
C357 C356 1.367 1_545 S
C357 C359 1.433 . S
C358 C354 1.350 1_545 S
C358 C355 1.463 1_645 S
C358 N362 1.427 . S
C359 H349 0.929 . S
C359 C357 1.433 . S
C359 N362 1.384 . S
C360 H351 0.929 . S
C360 C352 1.378 . S
C360 C355 1.350 1_545 S
C361 H348 0.929 . S
C361 C353 1.433 . S
C361 N363 1.384 . S
N362 C358 1.427 . S
N362 C359 1.384 . S
N363 C355 1.427 . S
N363 C361 1.384 . S
H364 C370 0.930 . S
H365 C374 0.930 . S
H366 C379 0.929 . S
H367 C377 0.929 . S
H368 C372 0.929 . S
H369 C378 0.929 . S
C370 H364 0.930 . S
C370 C371 1.367 1_455 S
C370 C378 1.378 . S
C371 C370 1.367 1_655 S
C371 C379 1.433 . S
C372 H368 0.929 . S
C372 C374 1.378 . S
C372 C376 1.350 1_655 S
C373 C376 1.463 1_645 S
C373 C378 1.350 1_655 S
C373 N381 1.427 . S
C374 H365 0.930 . S
C374 C372 1.378 . S
C374 C375 1.367 1_655 S
C375 C374 1.367 1_455 S
C375 C377 1.433 . S
C376 C372 1.350 1_455 S
C376 C373 1.463 1_465 S
C376 N380 1.427 . S
C377 H367 0.929 . S
C377 C375 1.433 . S
C377 N380 1.384 . S
C378 H369 0.929 . S
C378 C370 1.378 . S
C378 C373 1.350 1_455 S
C379 H366 0.929 . S
C379 C371 1.433 . S
C379 N381 1.384 . S
N380 C376 1.427 . S
N380 C377 1.384 . S
N381 C373 1.427 . S
N381 C379 1.384 . S
H382 C388 0.930 . S
H383 C392 0.930 . S
H384 C397 0.929 . S
H385 C395 0.929 . S
H386 C390 0.929 . S
H387 C396 0.929 . S
C388 H382 0.930 . S
C388 C389 1.367 . S
C388 C396 1.378 . S
C389 C388 1.367 . S
C389 C397 1.433 1_565 S
C390 H386 0.929 . S
C390 C392 1.378 . S
C390 C394 1.350 . S
C391 C394 1.463 1_665 S
C391 C396 1.350 . S
C391 N399 1.427 1_565 S
C392 H383 0.930 . S
C392 C390 1.378 . S
C392 C393 1.367 . S
C393 C392 1.367 . S
C393 C395 1.433 1_545 S
C394 C390 1.350 . S
C394 C391 1.463 1_445 S
C394 N398 1.427 1_545 S
C395 H385 0.929 . S
C395 C393 1.433 1_565 S
C395 N398 1.384 . S
C396 H387 0.929 . S
C396 C388 1.378 . S
C396 C391 1.350 . S
C397 H384 0.929 . S
C397 C389 1.433 1_545 S
C397 N399 1.384 . S
N398 C394 1.427 1_565 S
N398 C395 1.384 . S
N399 C391 1.427 1_545 S
N399 C397 1.384 . S
C119 C11 1.391 . S
C123 C39 1.397 . S
C137 C53 1.392 . S
C141 C25 1.397 . S
C155 C95 1.397 . S
C159 C67 1.391 . S
C173 C81 1.397 . S
C177 C109 1.391 . S
C191 C93 1.529 . S
C195 C9 1.527 . S
C209 C23 1.523 . S
C213 C107 1.524 . S
C227 C37 1.531 . S
C231 C65 1.529 . S
C245 C79 1.523 . S
C249 C51 1.524 . S
C263 C0 1.428 . S
C267 C70 1.431 . S
C281 C84 1.422 . S
C285 C14 1.425 . S
C299 C98 1.434 . S
C303 C28 1.421 . S
C317 C42 1.419 . S
C321 C56 1.430 . S
C335 C5 0.968 . S
C339 C33 0.968 . S
C353 C47 0.969 . S
C357 C19 0.967 . S
C371 C89 0.968 . S
C375 C61 0.966 . S
C389 C103 0.956 . S
C393 C75 0.956 . S
