# Generated by pormake.
# Topology kag, (6)-cn, num edge types: 1
# Building blocks:
#     Node 0, Type 0, BuildingBlock: BETDIP_clean_sbu_0, # of connection points: 6
#     Node 1, Type 0, BuildingBlock: BETDIP_clean_sbu_0, # of connection points: 6
#     Node 2, Type 0, BuildingBlock: BETDIP_clean_sbu_0, # of connection points: 6
#     Edge 3, Type (0, 0), BuildingBlock: ZUJKAS_clean_linker_0, # of connection points: 2
#     Edge 4, Type (0, 0), BuildingBlock: ZUJKAS_clean_linker_0, # of connection points: 2
#     Edge 5, Type (0, 0), BuildingBlock: ZUJKAS_clean_linker_0, # of connection points: 2
#     Edge 6, Type (0, 0), BuildingBlock: ZUJKAS_clean_linker_0, # of connection points: 2
#     Edge 7, Type (0, 0), BuildingBlock: ZUJKAS_clean_linker_0, # of connection points: 2
#     Edge 8, Type (0, 0), BuildingBlock: ZUJKAS_clean_linker_0, # of connection points: 2
#     Edge 9, Type (0, 0), BuildingBlock: ZUJKAS_clean_linker_0, # of connection points: 2
#     Edge 10, Type (0, 0), BuildingBlock: ZUJKAS_clean_linker_0, # of connection points: 2
#     Edge 11, Type (0, 0), BuildingBlock: ZUJKAS_clean_linker_0, # of connection points: 2
# Relax obj value: 0.013
# Max RMSD: 0.069
# Mean RMSD: 0.060
data_MOF--net-kag--node1-BETDIP_clean_sbu_0--edge1-ZUJKAS_clean_linker_0
_symmetry_space_group_name_H-M    P1
_symmetry_Int_Tables_number       1
_symmetry_cell_setting            triclinic
loop_
_symmetry_equiv_pos_as_xyz
'x, y, z'
_cell_length_a     49.67927
_cell_length_b     49.662846
_cell_length_c     18.745078
_cell_angle_alpha  92.647102
_cell_angle_beta   91.571116
_cell_angle_gamma 119.95775
loop_
_atom_site_label
_atom_site_type_symbol
_atom_site_fract_x
_atom_site_fract_y
_atom_site_fract_z
_atom_type_partial_charge
Tb0 Tb 1.01685 0.4884 0.02749 0.0
Tb1 Tb 0.05063 0.55632 0.99977 0.0
C2 C 0.98361 0.43668 0.07917 0.0
C3 C 0.9508 0.41165 0.07672 0.0
C4 C 0.93978 0.39349 0.13555 0.0
C5 C 0.90949 0.36807 0.13297 0.0
C6 C 0.88957 0.36017 0.07119 0.0
C7 C 0.90044 0.37909 0.01297 0.0
C8 C 0.93078 0.40464 0.01575 0.0
C9 C 1.02644 0.50026 0.8917 0.0
C10 C 0.9784 0.5236 1.00214 0.0
C11 C 0.08451 0.60827 0.94979 0.0
C12 C 0.11746 0.63333 0.95552 0.0
C13 C 0.13251 0.64577 0.893 0.0
C14 C 0.163 0.67095 0.89691 0.0
C15 C 0.179 0.68437 0.9636 0.0
C16 C 0.16412 0.67142 0.02621 0.0
C17 C 0.1337 0.64607 0.02224 0.0
C18 C 0.04112 0.5443 0.13564 0.0
C19 C 0.08903 0.521 0.02396 0.0
O20 O 0.99031 0.4634 0.11158 0.0
O21 O 0.99815 0.44008 0.02018 0.0
O22 O 1.01951 0.51468 0.93765 0.0
O23 O 1.02526 0.47636 0.91961 0.0
O24 O 0.97921 0.49971 0.0288 0.0
O25 O 1.0034 0.54674 0.97651 0.0
O26 O 0.07832 0.5817 0.91744 0.0
O27 O 0.06852 0.60453 1.00652 0.0
O28 O 0.0481 0.53006 0.08935 0.0
O29 O 0.04226 0.56822 0.10797 0.0
O30 O 0.08819 0.54494 0.99777 0.0
O31 O 0.06409 0.49782 0.04962 0.0
H32 H 0.95483 0.39866 0.18325 0.0
H33 H 0.90175 0.35448 0.17935 0.0
H34 H 0.88586 0.37362 0.96437 0.0
H35 H 0.93881 0.41847 0.96977 0.0
H36 H 0.12042 0.63637 0.841 0.0
H37 H 0.17369 0.68054 0.84775 0.0
H38 H 0.17597 0.68098 0.07833 0.0
H39 H 0.12276 0.63679 0.0714 0.0
Tb40 Tb 0.55095 1.00606 0.03019 0.0
Tb41 Tb 0.51668 0.03952 0.99479 0.0
C42 C 0.56882 0.97163 0.08363 0.0
C43 C 0.56127 0.93885 0.07364 0.0
C44 C 0.5587 0.92214 0.13384 0.0
C45 C 0.55347 0.89171 0.12593 0.0
C46 C 0.55095 0.87746 0.05753 0.0
C47 C 0.55287 0.89403 0.99718 0.0
C48 C 0.55783 0.92437 1.00511 0.0
C49 C 0.54863 1.01595 0.89348 0.0
C50 C 0.47722 0.96743 0.99406 0.0
C51 C 0.49871 0.07391 0.94159 0.0
C52 C 0.50635 0.1067 0.95143 0.0
C53 C 0.50705 0.12279 0.89133 0.0
C54 C 0.51226 0.15321 0.89945 0.0
C55 C 0.51666 0.16806 0.968 0.0
C56 C 0.51664 0.15212 0.02815 0.0
C57 C 0.51169 0.12179 0.01996 0.0
C58 C 0.51906 0.02952 0.13153 0.0
C59 C 0.59038 0.07815 0.03094 0.0
O60 O 0.54754 0.97655 0.11085 0.0
O61 O 0.58218 0.98938 0.03127 0.0
O62 O 0.5272 1.00873 0.93566 0.0
O63 O 0.57133 1.01479 0.92572 0.0
O64 O 0.50198 0.96842 0.02532 0.0
O65 O 0.47902 0.9923 0.96658 0.0
O66 O 0.51984 0.06887 0.91398 0.0
O67 O 0.48559 0.05635 0.99437 0.0
O68 O 0.54043 0.03685 0.08916 0.0
O69 O 0.49634 0.03069 0.09944 0.0
O70 O 0.56568 0.07707 0.99901 0.0
O71 O 0.58845 0.05333 0.059 0.0
H72 H 0.56129 0.93285 0.18717 0.0
H73 H 0.55235 0.87968 0.17348 0.0
H74 H 0.55061 0.88355 0.94377 0.0
H75 H 0.55943 0.93662 0.95765 0.0
H76 H 0.50297 0.11158 0.83802 0.0
H77 H 0.5119 0.16475 0.8521 0.0
H78 H 0.52038 0.16308 0.08159 0.0
H79 H 0.51157 0.11 0.06726 0.0
Tb80 Tb 0.49942 0.50548 0.03037 0.0
Tb81 Tb 0.56724 0.53957 1.00223 0.0
C82 C 0.44726 0.48723 0.08206 0.0
C83 C 0.4221 0.49475 0.07876 0.0
C84 C 0.40104 0.48567 0.13299 0.0
C85 C 0.37563 0.49049 0.12872 0.0
C86 C 0.37068 0.50441 0.06983 0.0
C87 C 0.39246 0.51433 0.01646 0.0
C88 C 0.41796 0.50957 0.02094 0.0
C89 C 0.51163 0.50736 0.89377 0.0
C90 C 0.53471 0.57909 0.01365 0.0
C91 C 0.61985 0.5574 0.9534 0.0
C92 C 0.64521 0.5499 0.9601 0.0
C93 C 0.64998 0.5335 0.90345 0.0
C94 C 0.67502 0.52803 0.90729 0.0
C95 C 0.69604 0.53902 0.96775 0.0
C96 C 0.69101 0.55514 0.02474 0.0
C97 C 0.66596 0.56054 0.02096 0.0
C98 C 0.55477 0.53735 0.13885 0.0
C99 C 0.53178 0.46586 0.01727 0.0
O100 O 0.47365 0.50822 0.11475 0.0
O101 O 0.45128 0.47492 0.02302 0.0
O102 O 0.52591 0.5289 0.94183 0.0
O103 O 0.48768 0.48472 0.92019 0.0
O104 O 0.51111 0.5546 0.03992 0.0
O105 O 0.55749 0.5769 0.98405 0.0
O106 O 0.59366 0.53631 0.91998 0.0
O107 O 0.61525 0.5708 1.00979 0.0
O108 O 0.54075 0.51597 0.0904 0.0
O109 O 0.57867 0.56013 0.11274 0.0
O110 O 0.5554 0.49044 0.99139 0.0
O111 O 0.50902 0.46795 0.04717 0.0
H112 H 0.40397 0.47437 0.17824 0.0
H113 H 0.35977 0.48315 0.17153 0.0
H114 H 0.3893 0.52492 0.97013 0.0
H115 H 0.43407 0.51684 0.97857 0.0
H116 H 0.63454 0.5252 0.85564 0.0
H117 H 0.67793 0.51522 0.86274 0.0
H118 H 0.70695 0.5644 0.07165 0.0
H119 H 0.66326 0.57357 0.06538 0.0
H120 H 1.02153 0.54516 0.82297 0.0
H121 H 1.02417 0.55288 0.69449 0.0
H122 H 0.03914 0.47508 0.65794 0.0
H123 H 0.03698 0.46758 0.78639 0.0
H124 H 0.07898 0.52665 0.58491 0.0
H125 H 0.95643 0.49831 0.5396 0.0
H126 H 0.97831 0.52857 0.60859 0.0
H127 H 0.97043 0.48961 0.62026 0.0
C128 C 1.02543 0.52975 0.78749 0.0
C129 C 1.02888 0.50566 0.81457 0.0
C130 C 1.02672 0.53404 0.71404 0.0
C131 C 1.03129 0.5142 0.66633 0.0
C132 C 0.03538 0.49054 0.69361 0.0
H133 H 0.04662 0.49963 0.20401 0.0
H134 H 0.04405 0.49176 0.33243 0.0
C135 C 0.03411 0.48626 0.76699 0.0
C136 C 1.03213 0.51821 0.58807 0.0
H137 H 0.98887 0.51762 0.44234 0.0
C138 C 0.05924 0.52456 0.55365 0.0
C139 C 1.00635 0.51546 0.54729 0.0
C140 C 0.97611 0.50734 0.58052 0.0
C141 C 0.06151 0.52882 0.47994 0.0
C142 C 0.03573 0.52608 0.43916 0.0
C143 C 1.00861 0.51971 0.47358 0.0
C144 C 0.03658 0.53018 0.36094 0.0
C145 C 0.09177 0.53698 0.44675 0.0
C146 C 1.03226 0.55374 0.33384 0.0
C147 C 1.03345 0.55808 0.26051 0.0
C148 C 0.03884 0.53885 0.21275 0.0
C149 C 0.04256 0.51488 0.23963 0.0
C150 C 0.04134 0.51052 0.31305 0.0
H151 H 0.11144 0.54606 0.4877 0.0
H152 H 0.08961 0.51576 0.41877 0.0
H153 H 0.09743 0.55469 0.40697 0.0
H154 H 1.02837 0.56906 0.36964 0.0
H155 H 1.03038 0.57666 0.24126 0.0
H156 H 0.56901 0.03477 0.20967 0.0
H157 H 0.57381 0.03169 0.33939 0.0
H158 H 0.48068 1.01571 0.35797 0.0
H159 H 0.47565 1.01838 0.22862 0.0
H160 H 0.56895 0.06934 0.44891 0.0
H161 H 0.47906 0.94528 0.46601 0.0
H162 H 0.49498 0.96133 0.38258 0.0
H163 H 0.4655 0.96762 0.4202 0.0
C164 C 0.5495 0.03035 0.24146 0.0
C165 C 0.52193 0.02674 0.20917 0.0
C166 C 0.55228 0.02866 0.31548 0.0
C167 C 0.52746 0.02307 0.35828 0.0
C168 C 0.49991 1.01942 0.32592 0.0
H169 H 0.49882 1.01079 0.81499 0.0
H170 H 0.49414 1.01381 0.68522 0.0
C171 C 0.49713 1.02113 0.25206 0.0
C172 C 0.53069 1.02216 0.43707 0.0
H173 H 0.49905 0.97601 0.57597 0.0
C174 C 0.5538 0.04888 0.47668 0.0
C175 C 0.51079 0.99549 0.47327 0.0
C176 C 0.48636 0.96569 0.43338 0.0
C177 C 0.55721 0.04985 0.55161 0.0
C178 C 0.53731 0.02319 0.58781 0.0
C179 C 0.5142 0.99646 0.54819 0.0
C180 C 0.54047 1.02231 0.66662 0.0
C181 C 0.58166 0.07965 0.5915 0.0
C182 C 0.56797 0.02591 0.69915 0.0
C183 C 0.57068 0.02423 0.77305 0.0
C184 C 0.54586 1.01871 0.81579 0.0
C185 C 0.51834 1.01514 0.78331 0.0
C186 C 0.51563 1.01681 0.70927 0.0
H187 H 0.58903 0.10004 0.55881 0.0
H188 H 0.573 0.08405 0.6422 0.0
H189 H 0.60247 0.07767 0.60489 0.0
H190 H 0.58721 0.02957 0.66722 0.0
H191 H 0.59212 0.02694 0.79663 0.0
H192 H 0.47891 0.4639 0.78441 0.0
H193 H 0.4868 0.46885 0.65616 0.0
H194 H 0.56413 0.56211 0.70071 0.0
H195 H 0.55657 0.55711 0.82917 0.0
H196 H 0.48422 0.51174 0.57067 0.0
H197 H 0.60085 0.5224 0.56956 0.0
H198 H 0.57658 0.50898 0.64468 0.0
H199 H 0.59862 0.54989 0.63118 0.0
C200 C 0.49773 0.48537 0.76684 0.0
C201 C 0.51717 0.5101 0.81668 0.0
C202 C 0.50218 0.48819 0.69359 0.0
C203 C 0.52627 0.5157 0.6688 0.0
C204 C 0.54577 0.54044 0.71861 0.0
H205 H 0.5871 0.5806 0.24875 0.0
H206 H 0.57911 0.57524 0.37688 0.0
C207 C 0.54134 0.53762 0.79195 0.0
C208 C 0.53026 0.51881 0.59072 0.0
H209 H 0.58191 0.53198 0.46164 0.0
C210 C 0.50552 0.51601 0.54674 0.0
C211 C 0.55808 0.52443 0.55957 0.0
C212 C 0.58497 0.52633 0.60347 0.0
C213 C 0.50803 0.51925 0.47272 0.0
C214 C 0.53587 0.52492 0.44161 0.0
C215 C 0.5606 0.52768 0.48557 0.0
C216 C 0.53993 0.52823 0.36361 0.0
C217 C 0.48113 0.51731 0.42877 0.0
C218 C 0.52062 0.50355 0.31349 0.0
C219 C 0.52513 0.50659 0.24022 0.0
C220 C 0.54915 0.53431 0.21587 0.0
C221 C 0.56839 0.55899 0.26602 0.0
C222 C 0.56389 0.55593 0.3392 0.0
H223 H 0.46508 0.52096 0.46268 0.0
H224 H 0.48953 0.53483 0.38795 0.0
H225 H 0.46768 0.49383 0.40055 0.0
H226 H 0.50237 0.48174 0.33111 0.0
H227 H 0.51007 0.48713 0.20275 0.0
H228 H 0.09999 0.47638 0.07509 0.0
H229 H 0.14904 0.47606 0.08051 0.0
H230 H 0.19467 0.5646 0.98611 0.0
H231 H 0.14578 0.56535 0.98108 0.0
H232 H 0.18544 0.47811 0.96635 0.0
H233 H 0.25181 0.57929 0.16384 0.0
H234 H 0.20999 0.55993 0.14995 0.0
H235 H 0.23445 0.58667 0.08737 0.0
C236 C 0.12046 0.49591 0.0558 0.0
C237 C 0.11891 0.52096 0.02793 0.0
C238 C 0.14849 0.49565 0.05887 0.0
C239 C 0.17561 0.52048 0.03459 0.0
C240 C 0.17417 0.54547 1.00641 0.0
H241 H 0.36568 0.55328 0.02113 0.0
H242 H 0.31868 0.55744 1.00842 0.0
C243 C 0.14612 0.54576 1.00324 0.0
C244 C 0.20512 0.51966 0.03707 0.0
H245 H 0.27946 0.55678 0.11185 0.0
C246 C 0.20599 0.4953 0.99819 0.0
C247 C 0.23198 0.54223 0.07826 0.0
C248 C 0.23211 0.5684 0.12276 0.0
C249 C 0.233 0.4929 0.99922 0.0
C250 C 0.2597 0.5151 0.04152 0.0
C251 C 0.25899 0.53977 0.07952 0.0
C252 C 0.28821 0.51256 0.04875 0.0
C253 C 0.23279 0.46681 0.95416 0.0
C254 C 0.2868 0.48615 0.0765 0.0
C255 C 0.3135 0.48358 0.08327 0.0
C256 C 0.34238 0.50754 0.06316 0.0
C257 C 0.3438 0.5342 0.03623 0.0
C258 C 0.317 0.53672 0.02936 0.0
H259 H 0.21456 0.45779 0.9097 0.0
H260 H 0.2557 0.47456 0.93122 0.0
H261 H 0.22773 0.44726 0.98807 0.0
H262 H 0.265 0.46748 0.09317 0.0
H263 H 0.31138 0.46256 0.10345 0.0
H264 H 0.64579 0.09003 0.09526 0.0
H265 H 0.69552 0.13895 0.10255 0.0
H266 H 0.65308 0.1826 0.98697 0.0
H267 H 0.60314 0.13396 0.98017 0.0
H268 H 0.72959 0.17172 0.98953 0.0
H269 H 0.69728 0.24454 0.15963 0.0
H270 H 0.67394 0.20258 0.15018 0.0
H271 H 0.67199 0.22555 0.08103 0.0
C272 C 0.64691 0.11008 0.07186 0.0
C273 C 0.62038 0.10804 0.03738 0.0
C274 C 0.6754 0.13803 0.07601 0.0
C275 C 0.67794 0.16456 0.04617 0.0
C276 C 0.65153 0.16263 1.0117 0.0
H277 H 0.83473 0.35233 1.01106 0.0
H278 H 0.78349 0.30492 1.00206 0.0
C279 C 0.62302 0.1347 1.00754 0.0
C280 C 0.70852 0.19384 0.04874 0.0
H281 H 0.74668 0.27051 0.11015 0.0
C282 C 0.73336 0.19329 0.01611 0.0
C283 C 0.71335 0.22203 0.08301 0.0
C284 C 0.68784 0.2238 0.12103 0.0
C285 C 0.76281 0.22019 0.01628 0.0
C286 C 0.76777 0.24831 0.0513 0.0
C287 C 0.74285 0.24895 0.08334 0.0
C288 C 0.79883 0.27708 0.05668 0.0
C289 C 0.78821 0.21836 0.97785 0.0
C290 C 0.82437 0.27731 0.09117 0.0
C291 C 0.85368 0.30422 0.09587 0.0
C292 C 0.85809 0.3317 0.06682 0.0
C293 C 0.83231 0.33152 0.03316 0.0
C294 C 0.80295 0.3045 0.02838 0.0
H295 H 0.77853 0.1983 0.93723 0.0
H296 H 0.80289 0.24006 0.95093 0.0
H297 H 0.80332 0.21519 0.01723 0.0
H298 H 0.82164 0.25662 0.11462 0.0
H299 H 0.873 0.30332 0.12146 0.0
H300 H 0.51261 0.82576 0.12778 0.0
H301 H 0.50873 0.77448 0.11754 0.0
H302 H 0.57732 0.8065 0.9588 0.0
H303 H 0.58155 0.85784 0.96906 0.0
H304 H 0.49486 0.73269 0.98455 0.0
H305 H 0.61074 0.77263 0.12112 0.0
H306 H 0.59043 0.79415 0.13083 0.0
H307 H 0.60968 0.79543 0.05038 0.0
C308 C 0.52691 0.82189 0.09083 0.0
C309 C 0.54745 0.84589 0.04936 0.0
C310 C 0.52455 0.79256 0.0848 0.0
C311 C 0.54295 0.78684 0.03792 0.0
C312 C 0.56312 0.81056 0.99573 0.0
H313 H 0.5759 0.63267 0.95351 0.0
H314 H 0.57649 0.68223 0.95687 0.0
C315 C 0.56532 0.83979 1.00127 0.0
C316 C 0.54131 0.75617 0.03357 0.0
H317 H 0.5833 0.72072 0.0715 0.0
C318 C 0.51411 0.72996 1.0037 0.0
C319 C 0.56654 0.75281 0.05834 0.0
C320 C 0.59598 0.78013 0.09249 0.0
C321 C 0.51167 0.70049 0.99676 0.0
C322 C 0.53684 0.69704 0.02208 0.0
C323 C 0.56402 0.72334 0.05205 0.0
C324 C 0.53559 0.66644 0.01816 0.0
C325 C 0.48247 0.67354 0.96065 0.0
C326 C 0.51251 0.64106 0.05188 0.0
C327 C 0.51199 0.6126 0.04969 0.0
C328 C 0.53478 0.60903 0.01445 0.0
C329 C 0.55796 0.63454 0.98105 0.0
C330 C 0.55835 0.66294 0.98296 0.0
H331 H 0.46973 0.68167 0.92634 0.0
H332 H 0.48787 0.65799 0.92721 0.0
H333 H 0.46674 0.65971 1.00207 0.0
H334 H 0.49515 0.64339 0.0809 0.0
H335 H 0.49393 0.59353 0.07646 0.0
H336 H 0.92106 0.47829 0.03987 0.0
H337 H 0.87212 0.47896 0.03337 0.0
H338 H 0.91895 0.56933 0.94755 0.0
H339 H 0.96801 0.56906 0.95432 0.0
H340 H 0.88096 0.56517 0.05998 0.0
H341 H 0.8176 0.46777 0.85212 0.0
H342 H 0.83408 0.45886 0.92772 0.0
H343 H 0.8593 0.48721 0.86887 0.0
C344 C 0.92097 0.49829 0.01934 0.0
C345 C 0.94852 0.5236 0.9974 0.0
C346 C 0.89291 0.49853 0.01531 0.0
C347 C 0.8918 0.52402 0.98913 0.0
C348 C 0.91925 0.54936 0.96763 0.0
H349 H 0.73372 0.54328 0.85928 0.0
H350 H 0.7804 0.53853 0.86557 0.0
C351 C 0.94729 0.54912 0.97145 0.0
C352 C 0.86226 0.52476 0.98582 0.0
H353 H 0.7886 0.48825 0.90713 0.0
C354 C 0.86076 0.54834 0.02662 0.0
C355 C 0.83604 0.50297 0.94169 0.0
C356 C 0.83675 0.4779 0.89456 0.0
C357 C 0.83365 0.55059 0.02496 0.0
C358 C 0.80722 0.52844 0.98192 0.0
C359 C 0.80881 0.50502 0.94057 0.0
C360 C 0.77801 0.52976 0.9778 0.0
C361 C 0.83372 0.57703 0.06817 0.0
C362 C 0.7608 0.52576 0.03848 0.0
C363 C 0.73394 0.52823 0.03499 0.0
C364 C 0.72369 0.53469 0.97062 0.0
C365 C 0.74066 0.53794 0.90951 0.0
C366 C 0.76747 0.5354 0.91306 0.0
H367 H 0.85771 0.59583 0.08525 0.0
H368 H 0.82203 0.58717 0.03699 0.0
H369 H 0.82077 0.56806 0.11692 0.0
H370 H 0.76819 0.5208 0.08866 0.0
H371 H 0.72117 0.525 0.08275 0.0
H372 H 0.20105 0.73694 0.05319 0.0
H373 H 0.25216 0.78418 0.05651 0.0
H374 H 0.27967 0.7426 0.88764 0.0
H375 H 0.22838 0.69543 0.88335 0.0
H376 H 0.31002 0.79431 0.08446 0.0
H377 H 0.29965 0.8242 0.80759 0.0
H378 H 0.26699 0.79462 0.85095 0.0
H379 H 0.2948 0.78603 0.81206 0.0
C380 C 0.21805 0.73777 0.01707 0.0
C381 C 0.2106 0.71249 0.96774 0.0
C382 C 0.24723 0.76484 0.01884 0.0
C383 C 0.2696 0.76722 0.97141 0.0
C384 C 0.26253 0.74169 0.9234 0.0
H385 H 0.46645 0.90959 0.02485 0.0
H386 H 0.41663 0.86084 0.01837 0.0
C387 C 0.23324 0.71469 0.92119 0.0
C388 C 0.30034 0.79636 0.97282 0.0
H389 H 0.34917 0.85408 0.86949 0.0
C390 C 0.31857 0.8074 0.03748 0.0
C391 C 0.31129 0.81373 0.91178 0.0
C392 C 0.29205 0.80426 0.84185 0.0
C393 C 0.3475 0.83513 0.04268 0.0
C394 C 0.35893 0.85193 0.98103 0.0
C395 C 0.34058 0.84103 0.91653 0.0
C396 C 0.38946 0.88131 0.98274 0.0
C397 C 0.36512 0.84654 0.11469 0.0
C398 C 0.39103 0.90888 0.96224 0.0
C399 C 0.41956 0.93674 0.96486 0.0
C400 C 0.44717 0.93762 0.98813 0.0
C401 C 0.44563 0.90984 1.00732 0.0
C402 C 0.4171 0.88194 1.00413 0.0
H403 H 0.34955 0.83618 0.15915 0.0
H404 H 0.3832 0.83968 0.11779 0.0
H405 H 0.3768 0.87231 0.1228 0.0
H406 H 0.37005 0.90895 0.94519 0.0
H407 H 0.41988 0.95767 0.94971 0.0
H408 H 0.49169 0.41258 0.08004 0.0
H409 H 0.49123 0.36307 0.07575 0.0
H410 H 0.57027 0.40129 0.94442 0.0
H411 H 0.5714 0.45109 0.94985 0.0
H412 H 0.48265 0.32384 0.96191 0.0
H413 H 0.5987 0.36429 0.09557 0.0
H414 H 0.58046 0.3879 0.09665 0.0
H415 H 0.60023 0.3856 0.0196 0.0
C416 C 0.50914 0.41057 0.05066 0.0
C417 C 0.53169 0.43591 0.01561 0.0
C418 C 0.50883 0.38221 0.04824 0.0
C419 C 0.53103 0.37856 1.01078 0.0
C420 C 0.55341 0.40374 0.97524 0.0
H421 H 0.5525 0.21907 0.89315 0.0
H422 H 0.55614 0.27023 0.90441 0.0
C423 C 0.55388 0.43218 0.97801 0.0
C424 C 0.52992 0.34802 1.00655 0.0
H425 H 0.57297 0.313 0.03856 0.0
C426 C 0.50234 0.32147 0.97914 0.0
C427 C 0.55563 0.34489 0.02902 0.0
C428 C 0.58532 0.37212 0.06251 0.0
C429 C 0.49995 0.29205 0.97256 0.0
C430 C 0.52572 0.28904 0.9943 0.0
C431 C 0.5533 0.31548 0.02169 0.0
C432 C 0.5243 0.25847 0.98928 0.0
C433 C 0.47003 0.26441 0.94134 0.0
C434 C 0.50555 0.23515 0.03403 0.0
C435 C 0.50351 0.20601 0.02793 0.0
C436 C 0.52009 0.19958 0.97669 0.0
C437 C 0.53921 0.2232 0.9326 0.0
C438 C 0.54143 0.25245 0.93918 0.0
H439 H 0.45442 0.27154 0.9153 0.0
H440 H 0.47495 0.25043 0.90141 0.0
H441 H 0.45754 0.24921 0.98468 0.0
H442 H 0.49233 0.23946 0.07338 0.0
H443 H 0.48838 0.18825 0.06223 0.0
loop_
_geom_bond_atom_site_label_1
_geom_bond_atom_site_label_2
_geom_bond_distance
_geom_bond_site_symmetry_2
_ccdc_geom_bond_type
Tb0 C2 2.809 . S
Tb0 O20 2.484 1_556 S
Tb0 O21 2.440 . S
Tb0 O22 2.658 1_655 S
Tb0 O23 2.409 . S
Tb0 O24 2.378 . S
Tb0 O28 2.325 1_556 S
Tb0 O31 2.341 1_655 S
Tb1 C11 2.809 . S
Tb1 O22 2.325 1_554 S
Tb1 O25 2.341 1_455 S
Tb1 O26 2.484 1_554 S
Tb1 O27 2.440 . S
Tb1 O28 2.658 1_455 S
Tb1 O29 2.409 . S
Tb1 O30 2.378 . S
C2 Tb0 2.809 . S
C2 C3 1.514 1_556 S
C2 O20 1.248 1_556 S
C2 O21 1.266 . S
C3 C2 1.514 1_554 S
C3 C4 1.359 . S
C3 C8 1.348 1_554 S
C4 C3 1.359 . S
C4 C5 1.380 . S
C4 H32 0.929 . S
C5 C4 1.380 . S
C5 C6 1.347 . S
C5 H33 0.931 . S
C6 C5 1.347 . S
C6 C7 1.369 1_554 S
C7 C6 1.369 1_556 S
C7 C8 1.408 . S
C7 H34 0.930 . S
C8 C3 1.348 1_556 S
C8 C7 1.408 . S
C8 H35 0.930 . S
C9 O22 1.281 1_655 S
C9 O23 1.254 . S
C10 O24 1.236 . S
C10 O25 1.266 1_556 S
C11 Tb1 2.809 . S
C11 C12 1.512 1_554 S
C11 O26 1.248 1_554 S
C11 O27 1.266 . S
C12 C11 1.512 1_556 S
C12 C13 1.373 . S
C12 C17 1.336 1_556 S
C13 C12 1.373 . S
C13 C14 1.380 . S
C13 H36 0.929 . S
C14 C13 1.380 . S
C14 C15 1.347 . S
C14 H37 0.931 . S
C15 C14 1.347 . S
C15 C16 1.369 1_556 S
C16 C15 1.369 1_554 S
C16 C17 1.408 . S
C16 H38 0.930 . S
C17 C12 1.336 1_554 S
C17 C16 1.408 . S
C17 H39 0.930 . S
C18 O28 1.281 1_455 S
C18 O29 1.254 . S
C19 O30 1.236 . S
C19 O31 1.266 1_554 S
O20 Tb0 2.484 1_554 S
O20 C2 1.248 1_554 S
O21 Tb0 2.440 . S
O21 C2 1.266 . S
O22 Tb0 2.658 1_455 S
O22 Tb1 2.325 1_556 S
O22 C9 1.281 1_455 S
O23 Tb0 2.409 . S
O23 C9 1.254 . S
O24 Tb0 2.378 . S
O24 C10 1.236 . S
O25 Tb1 2.341 1_655 S
O25 C10 1.266 1_554 S
O26 Tb1 2.484 1_556 S
O26 C11 1.248 1_556 S
O27 Tb1 2.440 . S
O27 C11 1.266 . S
O28 Tb0 2.325 1_554 S
O28 Tb1 2.658 1_655 S
O28 C18 1.281 1_655 S
O29 Tb1 2.409 . S
O29 C18 1.254 . S
O30 Tb1 2.378 . S
O30 C19 1.236 . S
O31 Tb0 2.341 1_455 S
O31 C19 1.266 1_556 S
H32 C4 0.929 . S
H33 C5 0.931 . S
H34 C7 0.930 . S
H35 C8 0.930 . S
H36 C13 0.929 . S
H37 C14 0.931 . S
H38 C16 0.930 . S
H39 C17 0.930 . S
Tb40 C42 2.809 1_556 S
Tb40 O60 2.484 1_556 S
Tb40 O61 2.440 . S
Tb40 O62 2.658 1_565 S
Tb40 O63 2.409 . S
Tb40 O64 2.378 . S
Tb40 O68 2.325 1_556 S
Tb40 O71 2.341 1_566 S
Tb41 C51 2.809 1_554 S
Tb41 O62 2.325 1_554 S
Tb41 O65 2.341 1_544 S
Tb41 O66 2.484 1_554 S
Tb41 O67 2.440 . S
Tb41 O68 2.658 1_545 S
Tb41 O69 2.409 . S
Tb41 O70 2.378 . S
C42 Tb40 2.809 1_554 S
C42 C43 1.514 . S
C42 O60 1.248 . S
C42 O61 1.266 1_554 S
C43 C42 1.514 . S
C43 C44 1.359 . S
C43 C48 1.348 1_554 S
C44 C43 1.359 . S
C44 C45 1.380 . S
C44 H72 0.929 . S
C45 C44 1.380 . S
C45 C46 1.347 . S
C45 H73 0.931 . S
C46 C45 1.347 . S
C46 C47 1.369 1_554 S
C47 C46 1.369 1_556 S
C47 C48 1.408 . S
C47 H74 0.930 . S
C48 C43 1.348 1_556 S
C48 C47 1.408 . S
C48 H75 0.930 . S
C49 O62 1.281 1_565 S
C49 O63 1.254 . S
C50 O64 1.236 . S
C50 O65 1.266 . S
C51 Tb41 2.809 1_556 S
C51 C52 1.514 . S
C51 O66 1.248 . S
C51 O67 1.266 1_556 S
C52 C51 1.514 . S
C52 C53 1.359 . S
C52 C57 1.348 1_556 S
C53 C52 1.359 . S
C53 C54 1.380 . S
C53 H76 0.929 . S
C54 C53 1.380 . S
C54 C55 1.347 . S
C54 H77 0.931 . S
C55 C54 1.347 . S
C55 C56 1.369 1_556 S
C56 C55 1.369 1_554 S
C56 C57 1.408 . S
C56 H78 0.930 . S
C57 C52 1.348 1_554 S
C57 C56 1.408 . S
C57 H79 0.930 . S
C58 O68 1.281 1_545 S
C58 O69 1.254 . S
C59 O70 1.236 . S
C59 O71 1.266 . S
O60 Tb40 2.484 1_554 S
O60 C42 1.248 . S
O61 Tb40 2.440 . S
O61 C42 1.266 1_556 S
O62 Tb40 2.658 1_545 S
O62 Tb41 2.325 1_556 S
O62 C49 1.281 1_545 S
O63 Tb40 2.409 . S
O63 C49 1.254 . S
O64 Tb40 2.378 . S
O64 C50 1.236 . S
O65 Tb41 2.341 1_566 S
O65 C50 1.266 . S
O66 Tb41 2.484 1_556 S
O66 C51 1.248 . S
O67 Tb41 2.440 . S
O67 C51 1.266 1_554 S
O68 Tb40 2.325 1_554 S
O68 Tb41 2.658 1_565 S
O68 C58 1.281 1_565 S
O69 Tb41 2.409 . S
O69 C58 1.254 . S
O70 Tb41 2.378 . S
O70 C59 1.236 . S
O71 Tb40 2.341 1_544 S
O71 C59 1.266 . S
H72 C44 0.929 . S
H73 C45 0.931 . S
H74 C47 0.930 . S
H75 C48 0.930 . S
H76 C53 0.929 . S
H77 C54 0.931 . S
H78 C56 0.930 . S
H79 C57 0.930 . S
Tb80 C82 2.809 . S
Tb80 O100 2.484 1_556 S
Tb80 O101 2.440 . S
Tb80 O102 2.658 . S
Tb80 O103 2.409 . S
Tb80 O104 2.378 . S
Tb80 O108 2.325 1_556 S
Tb80 O111 2.341 . S
Tb81 C91 2.809 . S
Tb81 O102 2.325 1_554 S
Tb81 O105 2.341 . S
Tb81 O106 2.484 1_554 S
Tb81 O107 2.440 . S
Tb81 O108 2.658 . S
Tb81 O109 2.409 . S
Tb81 O110 2.378 . S
C82 Tb80 2.809 . S
C82 C83 1.514 1_556 S
C82 O100 1.248 1_556 S
C82 O101 1.266 . S
C83 C82 1.514 1_554 S
C83 C84 1.359 . S
C83 C88 1.348 1_554 S
C84 C83 1.359 . S
C84 C85 1.380 . S
C84 H112 0.929 . S
C85 C84 1.380 . S
C85 C86 1.347 . S
C85 H113 0.931 . S
C86 C85 1.347 . S
C86 C87 1.369 1_554 S
C87 C86 1.369 1_556 S
C87 C88 1.408 . S
C87 H114 0.930 . S
C88 C83 1.348 1_556 S
C88 C87 1.408 . S
C88 H115 0.930 . S
C89 O102 1.281 . S
C89 O103 1.254 . S
C90 O104 1.236 . S
C90 O105 1.266 1_556 S
C91 Tb81 2.809 . S
C91 C92 1.514 1_554 S
C91 O106 1.248 1_554 S
C91 O107 1.266 . S
C92 C91 1.514 1_556 S
C92 C93 1.359 . S
C92 C97 1.348 1_556 S
C93 C92 1.359 . S
C93 C94 1.380 . S
C93 H116 0.929 . S
C94 C93 1.380 . S
C94 C95 1.347 . S
C94 H117 0.931 . S
C95 C94 1.347 . S
C95 C96 1.369 1_556 S
C96 C95 1.369 1_554 S
C96 C97 1.408 . S
C96 H118 0.930 . S
C97 C92 1.348 1_554 S
C97 C96 1.408 . S
C97 H119 0.930 . S
C98 O108 1.281 . S
C98 O109 1.254 . S
C99 O110 1.236 . S
C99 O111 1.266 1_554 S
O100 Tb80 2.484 1_554 S
O100 C82 1.248 1_554 S
O101 Tb80 2.440 . S
O101 C82 1.266 . S
O102 Tb80 2.658 . S
O102 Tb81 2.325 1_556 S
O102 C89 1.281 . S
O103 Tb80 2.409 . S
O103 C89 1.254 . S
O104 Tb80 2.378 . S
O104 C90 1.236 . S
O105 Tb81 2.341 . S
O105 C90 1.266 1_554 S
O106 Tb81 2.484 1_556 S
O106 C91 1.248 1_556 S
O107 Tb81 2.440 . S
O107 C91 1.266 . S
O108 Tb80 2.325 1_554 S
O108 Tb81 2.658 . S
O108 C98 1.281 . S
O109 Tb81 2.409 . S
O109 C98 1.254 . S
O110 Tb81 2.378 . S
O110 C99 1.236 . S
O111 Tb80 2.341 . S
O111 C99 1.266 1_556 S
H112 C84 0.929 . S
H113 C85 0.931 . S
H114 C87 0.930 . S
H115 C88 0.930 . S
H116 C93 0.929 . S
H117 C94 0.931 . S
H118 C96 0.930 . S
H119 C97 0.930 . S
H120 C128 0.929 . S
H121 C130 0.930 . S
H122 C132 0.930 . S
H123 C135 0.929 . S
H124 C138 0.930 . S
H125 C140 0.960 . S
H126 C140 0.960 . S
H127 C140 0.960 . S
C128 H120 0.929 . S
C128 C129 1.381 . S
C128 C130 1.384 . S
C129 C128 1.381 . S
C129 C135 1.387 1_455 S
C130 H121 0.930 . S
C130 C128 1.384 . S
C130 C131 1.372 . S
C131 C130 1.372 . S
C131 C132 1.400 1_455 S
C131 C136 1.490 . S
C132 H122 0.930 . S
C132 C131 1.400 1_655 S
C132 C135 1.386 . S
H133 C149 0.930 . S
H134 C150 0.931 . S
C135 H123 0.929 . S
C135 C129 1.387 1_655 S
C135 C132 1.386 . S
C136 C131 1.490 . S
C136 C138 1.395 . S
C136 C139 1.403 1_455 S
H137 C143 0.930 . S
C138 H124 0.930 . S
C138 C136 1.395 . S
C138 C141 1.403 . S
C139 C136 1.403 1_655 S
C139 C140 1.524 . S
C139 C143 1.400 . S
C140 H125 0.960 . S
C140 H126 0.960 . S
C140 H127 0.960 . S
C140 C139 1.524 . S
C141 C138 1.403 . S
C141 C142 1.392 . S
C141 C145 1.495 . S
C142 C141 1.392 . S
C142 C143 1.385 1_455 S
C142 C144 1.478 . S
C143 H137 0.930 . S
C143 C139 1.400 . S
C143 C142 1.385 1_655 S
C144 C142 1.478 . S
C144 C146 1.381 . S
C144 C150 1.383 1_455 S
C145 C141 1.495 . S
C145 H151 0.959 . S
C145 H152 0.961 . S
C145 H153 0.960 . S
C146 C144 1.381 . S
C146 C147 1.394 . S
C146 H154 0.930 . S
C147 C146 1.394 . S
C147 C148 1.383 . S
C147 H155 0.929 . S
C148 C147 1.383 . S
C148 C149 1.377 1_455 S
C149 H133 0.930 . S
C149 C148 1.377 1_655 S
C149 C150 1.379 . S
C150 H134 0.931 . S
C150 C144 1.383 1_655 S
C150 C149 1.379 . S
H151 C145 0.959 . S
H152 C145 0.961 . S
H153 C145 0.960 . S
H154 C146 0.930 . S
H155 C147 0.929 . S
H156 C164 0.929 . S
H157 C166 0.930 . S
H158 C168 0.930 . S
H159 C171 0.929 . S
H160 C174 0.930 . S
H161 C176 0.960 . S
H162 C176 0.960 . S
H163 C176 0.960 . S
C164 H156 0.929 . S
C164 C165 1.378 . S
C164 C166 1.384 . S
C165 C164 1.378 . S
C165 C171 1.389 1_545 S
C166 H157 0.930 . S
C166 C164 1.384 . S
C166 C167 1.369 . S
C167 C166 1.369 . S
C167 C168 1.404 1_545 S
C167 C172 1.490 . S
C168 H158 0.930 . S
C168 C167 1.404 1_565 S
C168 C171 1.386 . S
H169 C185 0.930 . S
H170 C186 0.933 . S
C171 H159 0.929 . S
C171 C165 1.389 1_565 S
C171 C168 1.386 . S
C172 C167 1.490 . S
C172 C174 1.395 . S
C172 C175 1.403 1_545 S
H173 C179 0.930 . S
C174 H160 0.930 . S
C174 C172 1.395 . S
C174 C177 1.403 . S
C175 C172 1.403 1_565 S
C175 C176 1.524 . S
C175 C179 1.400 . S
C176 H161 0.960 . S
C176 H162 0.960 . S
C176 H163 0.960 . S
C176 C175 1.524 . S
C177 C174 1.403 . S
C177 C178 1.392 . S
C177 C181 1.495 . S
C178 C177 1.392 . S
C178 C179 1.385 1_545 S
C178 C180 1.478 . S
C179 H173 0.930 . S
C179 C175 1.400 . S
C179 C178 1.385 1_565 S
C180 C178 1.478 . S
C180 C182 1.381 . S
C180 C186 1.381 1_545 S
C181 C177 1.495 . S
C181 H187 0.959 . S
C181 H188 0.961 . S
C181 H189 0.960 . S
C182 C180 1.381 . S
C182 C183 1.394 . S
C182 H190 0.930 . S
C183 C182 1.394 . S
C183 C184 1.383 . S
C183 H191 0.929 . S
C184 C183 1.383 . S
C184 C185 1.377 1_545 S
C185 H169 0.930 . S
C185 C184 1.377 1_565 S
C185 C186 1.379 . S
C186 H170 0.933 . S
C186 C180 1.381 1_565 S
C186 C185 1.379 . S
H187 C181 0.959 . S
H188 C181 0.961 . S
H189 C181 0.960 . S
H190 C182 0.930 . S
H191 C183 0.929 . S
H192 C200 0.929 . S
H193 C202 0.930 . S
H194 C204 0.930 . S
H195 C207 0.929 . S
H196 C210 0.930 . S
H197 C212 0.960 . S
H198 C212 0.960 . S
H199 C212 0.960 . S
C200 H192 0.929 . S
C200 C201 1.377 . S
C200 C202 1.384 . S
C201 C200 1.377 . S
C201 C207 1.390 . S
C202 H193 0.930 . S
C202 C200 1.384 . S
C202 C203 1.372 . S
C203 C202 1.372 . S
C203 C204 1.400 . S
C203 C208 1.490 . S
C204 H194 0.930 . S
C204 C203 1.400 . S
C204 C207 1.386 . S
H205 C221 0.930 . S
H206 C222 0.931 . S
C207 H195 0.929 . S
C207 C201 1.390 . S
C207 C204 1.386 . S
C208 C203 1.490 . S
C208 C210 1.395 . S
C208 C211 1.403 . S
H209 C215 0.930 . S
C210 H196 0.930 . S
C210 C208 1.395 . S
C210 C213 1.403 . S
C211 C208 1.403 . S
C211 C212 1.524 . S
C211 C215 1.400 . S
C212 H197 0.960 . S
C212 H198 0.960 . S
C212 H199 0.960 . S
C212 C211 1.524 . S
C213 C210 1.403 . S
C213 C214 1.392 . S
C213 C217 1.495 . S
C214 C213 1.392 . S
C214 C215 1.385 . S
C214 C216 1.478 . S
C215 H209 0.930 . S
C215 C211 1.400 . S
C215 C214 1.385 . S
C216 C214 1.478 . S
C216 C218 1.381 . S
C216 C222 1.383 . S
C217 C213 1.495 . S
C217 H223 0.959 . S
C217 H224 0.961 . S
C217 H225 0.960 . S
C218 C216 1.381 . S
C218 C219 1.394 . S
C218 H226 0.930 . S
C219 C218 1.394 . S
C219 C220 1.383 . S
C219 H227 0.929 . S
C220 C219 1.383 . S
C220 C221 1.377 . S
C221 H205 0.930 . S
C221 C220 1.377 . S
C221 C222 1.379 . S
C222 H206 0.931 . S
C222 C216 1.383 . S
C222 C221 1.379 . S
H223 C217 0.959 . S
H224 C217 0.961 . S
H225 C217 0.960 . S
H226 C218 0.930 . S
H227 C219 0.929 . S
H228 C236 0.929 . S
H229 C238 0.930 . S
H230 C240 0.930 . S
H231 C243 0.929 . S
H232 C246 0.930 . S
H233 C248 0.960 . S
H234 C248 0.960 . S
H235 C248 0.960 . S
C236 H228 0.929 . S
C236 C237 1.377 . S
C236 C238 1.384 . S
C237 C236 1.377 . S
C237 C243 1.390 1_554 S
C238 H229 0.930 . S
C238 C236 1.384 . S
C238 C239 1.372 . S
C239 C238 1.372 . S
C239 C240 1.400 1_554 S
C239 C244 1.490 . S
C240 H230 0.930 . S
C240 C239 1.400 1_556 S
C240 C243 1.386 . S
H241 C257 0.930 . S
H242 C258 0.931 . S
C243 H231 0.929 . S
C243 C237 1.390 1_556 S
C243 C240 1.386 . S
C244 C239 1.490 . S
C244 C246 1.395 1_554 S
C244 C247 1.403 . S
H245 C251 0.930 . S
C246 H232 0.930 . S
C246 C244 1.395 1_556 S
C246 C249 1.403 . S
C247 C244 1.403 . S
C247 C248 1.524 . S
C247 C251 1.400 . S
C248 H233 0.960 . S
C248 H234 0.960 . S
C248 H235 0.960 . S
C248 C247 1.524 . S
C249 C246 1.403 . S
C249 C250 1.392 1_556 S
C249 C253 1.495 . S
C250 C249 1.392 1_554 S
C250 C251 1.385 . S
C250 C252 1.478 . S
C251 H245 0.930 . S
C251 C247 1.400 . S
C251 C250 1.385 . S
C252 C250 1.478 . S
C252 C254 1.381 . S
C252 C258 1.383 1_554 S
C253 C249 1.495 . S
C253 H259 0.959 . S
C253 H260 0.961 . S
C253 H261 0.960 1_556 S
C254 C252 1.381 . S
C254 C255 1.394 . S
C254 H262 0.930 . S
C255 C254 1.394 . S
C255 C256 1.383 . S
C255 H263 0.929 . S
C256 C255 1.383 . S
C256 C257 1.377 1_554 S
C257 H241 0.930 . S
C257 C256 1.377 1_556 S
C257 C258 1.379 . S
C258 H242 0.931 . S
C258 C252 1.383 1_556 S
C258 C257 1.379 . S
H259 C253 0.959 . S
H260 C253 0.961 . S
H261 C253 0.960 1_554 S
H262 C254 0.930 . S
H263 C255 0.929 . S
H264 C272 0.929 . S
H265 C274 0.930 . S
H266 C276 0.930 . S
H267 C279 0.929 . S
H268 C282 0.930 . S
H269 C284 0.960 . S
H270 C284 0.960 . S
H271 C284 0.960 . S
C272 H264 0.929 . S
C272 C273 1.377 . S
C272 C274 1.384 . S
C273 C272 1.377 . S
C273 C279 1.390 1_554 S
C274 H265 0.930 . S
C274 C272 1.384 . S
C274 C275 1.372 . S
C275 C274 1.372 . S
C275 C276 1.400 1_554 S
C275 C280 1.490 . S
C276 H266 0.930 . S
C276 C275 1.400 1_556 S
C276 C279 1.386 . S
H277 C293 0.930 . S
H278 C294 0.931 . S
C279 H267 0.929 . S
C279 C273 1.390 1_556 S
C279 C276 1.386 . S
C280 C275 1.490 . S
C280 C282 1.395 . S
C280 C283 1.403 1_554 S
H281 C287 0.930 . S
C282 H268 0.930 . S
C282 C280 1.395 . S
C282 C285 1.403 . S
C283 C280 1.403 1_556 S
C283 C284 1.524 . S
C283 C287 1.400 . S
C284 H269 0.960 . S
C284 H270 0.960 . S
C284 H271 0.960 . S
C284 C283 1.524 . S
C285 C282 1.403 . S
C285 C286 1.392 . S
C285 C289 1.495 . S
C286 C285 1.392 . S
C286 C287 1.385 1_554 S
C286 C288 1.478 . S
C287 H281 0.930 . S
C287 C283 1.400 . S
C287 C286 1.385 1_556 S
C288 C286 1.478 . S
C288 C290 1.381 . S
C288 C294 1.383 1_554 S
C289 C285 1.495 . S
C289 H295 0.959 . S
C289 H296 0.961 . S
C289 H297 0.960 . S
C290 C288 1.381 . S
C290 C291 1.394 . S
C290 H298 0.930 . S
C291 C290 1.394 . S
C291 C292 1.383 . S
C291 H299 0.929 . S
C292 C291 1.383 . S
C292 C293 1.377 1_554 S
C293 H277 0.930 . S
C293 C292 1.377 1_556 S
C293 C294 1.379 . S
C294 H278 0.931 . S
C294 C288 1.383 1_556 S
C294 C293 1.379 . S
H295 C289 0.959 . S
H296 C289 0.961 . S
H297 C289 0.960 . S
H298 C290 0.930 . S
H299 C291 0.929 . S
H300 C308 0.929 . S
H301 C310 0.930 . S
H302 C312 0.930 . S
H303 C315 0.929 . S
H304 C318 0.930 . S
H305 C320 0.960 . S
H306 C320 0.960 . S
H307 C320 0.960 . S
C308 H300 0.929 . S
C308 C309 1.377 . S
C308 C310 1.384 . S
C309 C308 1.377 . S
C309 C315 1.390 1_554 S
C310 H301 0.930 . S
C310 C308 1.384 . S
C310 C311 1.372 . S
C311 C310 1.372 . S
C311 C312 1.400 1_554 S
C311 C316 1.490 . S
C312 H302 0.930 . S
C312 C311 1.400 1_556 S
C312 C315 1.386 . S
H313 C329 0.930 . S
H314 C330 0.931 . S
C315 H303 0.929 . S
C315 C309 1.390 1_556 S
C315 C312 1.386 . S
C316 C311 1.490 . S
C316 C318 1.395 1_554 S
C316 C319 1.403 . S
H317 C323 0.930 . S
C318 H304 0.930 . S
C318 C316 1.395 1_556 S
C318 C321 1.403 . S
C319 C316 1.403 . S
C319 C320 1.524 . S
C319 C323 1.400 . S
C320 H305 0.960 . S
C320 H306 0.960 . S
C320 H307 0.960 . S
C320 C319 1.524 . S
C321 C318 1.403 . S
C321 C322 1.392 1_556 S
C321 C325 1.495 . S
C322 C321 1.392 1_554 S
C322 C323 1.385 . S
C322 C324 1.478 . S
C323 H317 0.930 . S
C323 C319 1.400 . S
C323 C322 1.385 . S
C324 C322 1.478 . S
C324 C326 1.381 . S
C324 C330 1.383 1_554 S
C325 C321 1.495 . S
C325 H331 0.959 . S
C325 H332 0.961 . S
C325 H333 0.960 . S
C326 C324 1.381 . S
C326 C327 1.394 . S
C326 H334 0.930 . S
C327 C326 1.394 . S
C327 C328 1.388 . S
C327 H335 0.929 . S
C328 C327 1.388 . S
C328 C329 1.372 1_554 S
C329 H313 0.930 . S
C329 C328 1.372 1_556 S
C329 C330 1.379 . S
C330 H314 0.931 . S
C330 C324 1.383 1_556 S
C330 C329 1.379 . S
H331 C325 0.959 . S
H332 C325 0.961 . S
H333 C325 0.960 . S
H334 C326 0.930 . S
H335 C327 0.929 . S
H336 C344 0.929 . S
H337 C346 0.930 . S
H338 C348 0.930 . S
H339 C351 0.929 . S
H340 C354 0.930 . S
H341 C356 0.960 . S
H342 C356 0.960 . S
H343 C356 0.960 . S
C344 H336 0.929 . S
C344 C345 1.377 1_554 S
C344 C346 1.384 . S
C345 C344 1.377 1_556 S
C345 C351 1.390 . S
C346 H337 0.930 . S
C346 C344 1.384 . S
C346 C347 1.372 1_554 S
C347 C346 1.372 1_556 S
C347 C348 1.400 . S
C347 C352 1.490 . S
C348 H338 0.930 . S
C348 C347 1.400 . S
C348 C351 1.386 . S
H349 C365 0.930 . S
H350 C366 0.931 . S
C351 H339 0.929 . S
C351 C345 1.390 . S
C351 C348 1.386 . S
C352 C347 1.490 . S
C352 C354 1.395 1_556 S
C352 C355 1.403 . S
H353 C359 0.930 . S
C354 H340 0.930 . S
C354 C352 1.395 1_554 S
C354 C357 1.403 . S
C355 C352 1.403 . S
C355 C356 1.524 . S
C355 C359 1.400 . S
C356 H341 0.960 . S
C356 H342 0.960 . S
C356 H343 0.960 . S
C356 C355 1.524 . S
C357 C354 1.403 . S
C357 C358 1.392 1_554 S
C357 C361 1.495 . S
C358 C357 1.392 1_556 S
C358 C359 1.385 . S
C358 C360 1.478 . S
C359 H353 0.930 . S
C359 C355 1.400 . S
C359 C358 1.385 . S
C360 C358 1.478 . S
C360 C362 1.381 1_556 S
C360 C366 1.383 . S
C361 C357 1.495 . S
C361 H367 0.959 . S
C361 H368 0.961 . S
C361 H369 0.960 . S
C362 C360 1.381 1_554 S
C362 C363 1.394 . S
C362 H370 0.930 . S
C363 C362 1.394 . S
C363 C364 1.383 1_554 S
C363 H371 0.929 . S
C364 C363 1.383 1_556 S
C364 C365 1.377 . S
C365 H349 0.930 . S
C365 C364 1.377 . S
C365 C366 1.379 . S
C366 H350 0.931 . S
C366 C360 1.383 . S
C366 C365 1.379 . S
H367 C361 0.959 . S
H368 C361 0.961 . S
H369 C361 0.960 . S
H370 C362 0.930 . S
H371 C363 0.929 . S
H372 C380 0.929 . S
H373 C382 0.930 . S
H374 C384 0.930 . S
H375 C387 0.929 . S
H376 C390 0.930 . S
H377 C392 0.960 . S
H378 C392 0.960 . S
H379 C392 0.960 . S
C380 H372 0.929 . S
C380 C381 1.377 1_554 S
C380 C382 1.384 . S
C381 C380 1.377 1_556 S
C381 C387 1.390 . S
C382 H373 0.930 . S
C382 C380 1.384 . S
C382 C383 1.372 1_554 S
C383 C382 1.372 1_556 S
C383 C384 1.400 . S
C383 C388 1.490 . S
C384 H374 0.930 . S
C384 C383 1.400 . S
C384 C387 1.386 . S
H385 C401 0.930 . S
H386 C402 0.931 . S
C387 H375 0.929 . S
C387 C381 1.390 . S
C387 C384 1.386 . S
C388 C383 1.490 . S
C388 C390 1.395 1_556 S
C388 C391 1.403 . S
H389 C395 0.930 . S
C390 H376 0.930 . S
C390 C388 1.395 1_554 S
C390 C393 1.403 . S
C391 C388 1.403 . S
C391 C392 1.524 . S
C391 C395 1.400 . S
C392 H377 0.960 . S
C392 H378 0.960 . S
C392 H379 0.960 . S
C392 C391 1.524 . S
C393 C390 1.403 . S
C393 C394 1.392 . S
C393 C397 1.495 . S
C394 C393 1.392 . S
C394 C395 1.385 1_554 S
C394 C396 1.478 . S
C395 H389 0.930 . S
C395 C391 1.400 . S
C395 C394 1.385 1_556 S
C396 C394 1.478 . S
C396 C398 1.381 . S
C396 C402 1.383 1_554 S
C397 C393 1.495 . S
C397 H403 0.959 . S
C397 H404 0.961 . S
C397 H405 0.960 . S
C398 C396 1.381 . S
C398 C399 1.394 . S
C398 H406 0.930 . S
C399 C398 1.394 . S
C399 C400 1.383 1_554 S
C399 H407 0.929 . S
C400 C399 1.383 1_556 S
C400 C401 1.377 . S
C401 H385 0.930 . S
C401 C400 1.377 . S
C401 C402 1.379 . S
C402 H386 0.931 . S
C402 C396 1.383 1_556 S
C402 C401 1.379 . S
H403 C397 0.959 . S
H404 C397 0.961 . S
H405 C397 0.960 . S
H406 C398 0.930 . S
H407 C399 0.929 . S
H408 C416 0.929 . S
H409 C418 0.930 . S
H410 C420 0.930 . S
H411 C423 0.929 . S
H412 C426 0.930 . S
H413 C428 0.960 . S
H414 C428 0.960 1_554 S
H415 C428 0.960 . S
C416 H408 0.929 . S
C416 C417 1.377 1_554 S
C416 C418 1.384 . S
C417 C416 1.377 1_556 S
C417 C423 1.390 . S
C418 H409 0.930 . S
C418 C416 1.384 . S
C418 C419 1.372 1_554 S
C419 C418 1.372 1_556 S
C419 C420 1.400 . S
C419 C424 1.490 . S
C420 H410 0.930 . S
C420 C419 1.400 . S
C420 C423 1.386 . S
H421 C437 0.930 . S
H422 C438 0.931 . S
C423 H411 0.929 . S
C423 C417 1.390 . S
C423 C420 1.386 . S
C424 C419 1.490 . S
C424 C426 1.395 1_556 S
C424 C427 1.403 . S
H425 C431 0.930 . S
C426 H412 0.930 . S
C426 C424 1.395 1_554 S
C426 C429 1.403 . S
C427 C424 1.403 . S
C427 C428 1.524 . S
C427 C431 1.400 . S
C428 H413 0.960 . S
C428 H414 0.960 1_556 S
C428 H415 0.960 . S
C428 C427 1.524 . S
C429 C426 1.403 . S
C429 C430 1.391 1_554 S
C429 C433 1.496 . S
C430 C429 1.391 1_556 S
C430 C431 1.385 . S
C430 C432 1.478 . S
C431 H425 0.930 . S
C431 C427 1.400 . S
C431 C430 1.385 . S
C432 C430 1.478 . S
C432 C434 1.381 1_556 S
C432 C438 1.383 . S
C433 C429 1.496 . S
C433 H439 0.959 . S
C433 H440 0.961 1_554 S
C433 H441 0.960 . S
C434 C432 1.381 1_554 S
C434 C435 1.394 . S
C434 H442 0.930 . S
C435 C434 1.394 . S
C435 C436 1.383 1_554 S
C435 H443 0.929 . S
C436 C435 1.383 1_556 S
C436 C437 1.377 . S
C437 H421 0.930 . S
C437 C436 1.377 . S
C437 C438 1.379 . S
C438 H422 0.931 . S
C438 C432 1.383 . S
C438 C437 1.379 . S
H439 C433 0.959 . S
H440 C433 0.961 1_556 S
H441 C433 0.960 . S
H442 C434 0.930 . S
H443 C435 0.929 . S
C129 C9 1.451 1_455 S
C148 C18 1.455 . S
C165 C58 1.448 . S
C184 C49 1.446 1_545 S
C201 C89 1.452 . S
C220 C98 1.464 . S
C237 C19 1.677 . S
C256 C86 1.671 . S
C273 C59 1.681 . S
C292 C6 1.678 . S
C309 C46 1.690 . S
C328 C90 1.683 1_554 S
C345 C10 1.680 . S
C364 C95 1.677 . S
C381 C15 1.684 . S
C400 C50 1.685 . S
C417 C99 1.685 1_556 S
C436 C55 1.679 . S
