# Generated by pormake.
# Topology npo, (4)-cn, num edge types: 1
# Building blocks:
#     Node 0, Type 0, BuildingBlock: QUQFOY_clean_sbu_3, # of connection points: 4
#     Node 1, Type 0, BuildingBlock: QUQFOY_clean_sbu_3, # of connection points: 4
#     Node 2, Type 0, BuildingBlock: QUQFOY_clean_sbu_3, # of connection points: 4
#     Node 3, Type 0, BuildingBlock: QUQFOY_clean_sbu_3, # of connection points: 4
#     Node 4, Type 0, BuildingBlock: QUQFOY_clean_sbu_3, # of connection points: 4
#     Node 5, Type 0, BuildingBlock: QUQFOY_clean_sbu_3, # of connection points: 4
#     Edge 6, Type (0, 0), BuildingBlock: XIVTED_clean_linker_0, # of connection points: 2
#     Edge 7, Type (0, 0), BuildingBlock: XIVTED_clean_linker_0, # of connection points: 2
#     Edge 8, Type (0, 0), BuildingBlock: XIVTED_clean_linker_0, # of connection points: 2
#     Edge 9, Type (0, 0), BuildingBlock: XIVTED_clean_linker_0, # of connection points: 2
#     Edge 10, Type (0, 0), BuildingBlock: XIVTED_clean_linker_0, # of connection points: 2
#     Edge 11, Type (0, 0), BuildingBlock: XIVTED_clean_linker_0, # of connection points: 2
#     Edge 12, Type (0, 0), BuildingBlock: XIVTED_clean_linker_0, # of connection points: 2
#     Edge 13, Type (0, 0), BuildingBlock: XIVTED_clean_linker_0, # of connection points: 2
#     Edge 14, Type (0, 0), BuildingBlock: XIVTED_clean_linker_0, # of connection points: 2
#     Edge 15, Type (0, 0), BuildingBlock: XIVTED_clean_linker_0, # of connection points: 2
#     Edge 16, Type (0, 0), BuildingBlock: XIVTED_clean_linker_0, # of connection points: 2
#     Edge 17, Type (0, 0), BuildingBlock: XIVTED_clean_linker_0, # of connection points: 2
# Relax obj value: 0.289
# Max RMSD: 0.250
# Mean RMSD: 0.240
data_MOF--net-npo--node1-QUQFOY_clean_sbu_3--edge1-XIVTED_clean_linker_0
_symmetry_space_group_name_H-M    P1
_symmetry_Int_Tables_number       1
_symmetry_cell_setting            triclinic
loop_
_symmetry_equiv_pos_as_xyz
'x, y, z'
_cell_length_a     46.112585
_cell_length_b     45.147831
_cell_length_c     25.284209
_cell_angle_alpha  91.576433
_cell_angle_beta   90.166027
_cell_angle_gamma 120.69726
loop_
_atom_site_label
_atom_site_type_symbol
_atom_site_fract_x
_atom_site_fract_y
_atom_site_fract_z
_atom_type_partial_charge
C0 C 0.49946 0.16818 0.18668 0.0
O1 O 0.50362 0.16353 0.13822 0.0
Cd2 Cd 0.52385 0.12832 0.10471 0.0
O3 O 0.50424 0.15156 0.22249 0.0
Cd4 Cd 0.51882 0.10472 0.22277 0.0
C5 C 0.59635 0.16265 0.18195 0.0
O6 O 0.48771 0.07498 0.14382 0.0
O7 O 0.52551 0.06291 0.16446 0.0
O8 O 0.47655 0.0725 0.28959 0.0
C9 C 0.50058 0.05656 0.13496 0.0
O10 O 0.58274 0.15782 0.13616 0.0
C11 C 0.49598 0.0666 0.31726 0.0
O12 O 0.57855 0.14782 0.2218 0.0
O13 O 0.52624 0.07983 0.30229 0.0
C14 C 0.33637 0.4877 0.73302 0.0
O15 O 0.3509 0.49238 0.68888 0.0
Cd16 Cd 0.4104 0.52082 0.67847 0.0
O17 O 0.35355 0.49728 0.77629 0.0
Cd18 Cd 0.41425 0.525 0.8036 0.0
C19 C 0.43159 0.59759 0.74077 0.0
O20 O 0.42948 0.4947 0.74025 0.0
O21 O 0.47175 0.53954 0.77676 0.0
O22 O 0.40149 0.49043 0.88294 0.0
C23 C 0.4611 0.51297 0.74664 0.0
O24 O 0.43002 0.5821 0.69701 0.0
C25 C 0.41782 0.51638 0.91437 0.0
O26 O 0.42528 0.5819 0.78401 0.0
O27 O 0.43166 0.54584 0.89419 0.0
C28 C 0.8339 0.48521 0.23181 0.0
O29 O 0.84314 0.47945 0.27579 0.0
Cd30 Cd 0.87434 0.45112 0.28589 0.0
O31 O 0.84223 0.47684 0.18824 0.0
Cd32 Cd 0.87596 0.44999 0.16063 0.0
C33 C 0.82012 0.37571 0.21913 0.0
O34 O 0.92037 0.47927 0.22627 0.0
O35 O 0.91877 0.43536 0.188 0.0
O36 O 0.89886 0.48527 0.08209 0.0
C37 C 0.93414 0.46146 0.21919 0.0
O38 O 0.83302 0.39005 0.26401 0.0
C39 C 0.88897 0.45942 0.05034 0.0
O40 O 0.83035 0.39259 0.17708 0.0
O41 O 0.87276 0.42985 0.07003 0.0
C42 C 0.32053 0.80573 0.75426 0.0
O43 O 0.3304 0.81324 0.80223 0.0
Cd44 Cd 0.38655 0.85099 0.83107 0.0
O45 O 0.34103 0.82051 0.71674 0.0
Cd46 Cd 0.40211 0.86752 0.71185 0.0
C47 C 0.4233 0.81265 0.76097 0.0
O48 O 0.40233 0.90212 0.78538 0.0
O49 O 0.45153 0.91133 0.76689 0.0
O50 O 0.39045 0.89621 0.6409 0.0
C51 C 0.43378 0.92044 0.793 0.0
O52 O 0.41575 0.8202 0.80578 0.0
C53 C 0.41526 0.90098 0.61304 0.0
O54 O 0.41909 0.82492 0.71888 0.0
O55 O 0.4327 0.88856 0.62983 0.0
C56 C 0.62886 0.50103 0.23331 0.0
O57 O 0.61365 0.49693 0.18936 0.0
Cd58 Cd 0.55474 0.47547 0.17892 0.0
O59 O 0.61289 0.49451 0.27663 0.0
Cd60 Cd 0.55378 0.47387 0.30375 0.0
C61 C 0.52588 0.39793 0.237 0.0
O62 O 0.54173 0.5067 0.24316 0.0
O63 O 0.49774 0.46452 0.27635 0.0
O64 O 0.56942 0.50961 0.38599 0.0
C65 C 0.5101 0.49092 0.24824 0.0
O66 O 0.52768 0.41345 0.1947 0.0
C67 C 0.55286 0.48406 0.41536 0.0
O68 O 0.5359 0.41451 0.28108 0.0
O69 O 0.53761 0.45442 0.3927 0.0
C70 C 0.11514 0.47079 0.73308 0.0
O71 O 0.10465 0.47558 0.77703 0.0
Cd72 Cd 0.06759 0.49756 0.7875 0.0
O73 O 0.10521 0.47679 0.68963 0.0
Cd74 Cd 0.06673 0.49747 0.66218 0.0
C75 C 0.11601 0.5741 0.72666 0.0
O76 O 0.02262 0.46598 0.72436 0.0
O77 O 0.02101 0.50795 0.68942 0.0
O78 O 0.04549 0.46084 0.58089 0.0
C79 C 0.00707 0.48204 0.71854 0.0
O80 O 0.10269 0.55932 0.76956 0.0
C81 C 0.05443 0.48614 0.55093 0.0
O82 O 0.10883 0.55685 0.68315 0.0
O83 O 0.0693 0.516 0.57289 0.0
H84 H 0.47208 0.19543 0.12288 0.0
H85 H 0.52518 0.35794 0.31723 0.0
H86 H 0.51105 0.20419 0.28157 0.0
H87 H 0.49894 0.35269 0.15173 0.0
H88 H 0.51008 0.29761 0.31054 0.0
H89 H 0.47073 0.24805 0.13943 0.0
C90 C 0.47991 0.20819 0.16157 0.0
C91 C 0.49225 0.19574 0.20065 0.0
C92 C 0.50732 0.30959 0.27586 0.0
C93 C 0.49119 0.25641 0.2196 0.0
C94 C 0.51592 0.34405 0.27958 0.0
C95 C 0.51376 0.36059 0.23473 0.0
C96 C 0.49637 0.29149 0.22701 0.0
C97 C 0.5014 0.34117 0.18717 0.0
C98 C 0.4792 0.23832 0.17094 0.0
C99 C 0.50155 0.21303 0.25025 0.0
N100 N 0.49342 0.30775 0.1845 0.0
N101 N 0.50135 0.24288 0.25808 0.0
H102 H 0.29244 0.4658 0.64823 0.0
H103 H 0.14393 0.4588 0.81847 0.0
H104 H 0.29637 0.47882 0.81848 0.0
H105 H 0.14756 0.46259 0.64797 0.0
H106 H 0.19387 0.45335 0.81903 0.0
H107 H 0.23395 0.45191 0.64805 0.0
C108 C 0.28091 0.46532 0.68571 0.0
C109 C 0.29959 0.4741 0.73342 0.0
C110 C 0.1835 0.45495 0.78146 0.0
C111 C 0.23255 0.45831 0.73332 0.0
C112 C 0.15491 0.458 0.78103 0.0
C113 C 0.14182 0.46178 0.7331 0.0
C114 C 0.19918 0.45568 0.73366 0.0
C115 C 0.15698 0.46018 0.68589 0.0
C116 C 0.24748 0.45741 0.6855 0.0
C117 C 0.2831 0.47262 0.78071 0.0
N118 N 0.1851 0.45766 0.68742 0.0
N119 N 0.25063 0.46532 0.7794 0.0
H120 H 0.63252 0.1885 0.27523 0.0
H121 H 0.79351 0.3349 0.12991 0.0
H122 H 0.64308 0.19547 0.10565 0.0
H123 H 0.78152 0.3345 0.29925 0.0
H124 H 0.74246 0.2785 0.12205 0.0
H125 H 0.69068 0.23637 0.28614 0.0
C126 C 0.64718 0.19974 0.24028 0.0
C127 C 0.63272 0.18823 0.1894 0.0
C128 C 0.75108 0.29054 0.16103 0.0
C129 C 0.69919 0.24306 0.20171 0.0
C130 C 0.78028 0.32283 0.16558 0.0
C131 C 0.79157 0.33973 0.21528 0.0
C132 C 0.73274 0.27499 0.20643 0.0
C133 C 0.7736 0.32253 0.26012 0.0
C134 C 0.68035 0.22714 0.24658 0.0
C135 C 0.65298 0.20372 0.14562 0.0
N136 N 0.7448 0.29124 0.25456 0.0
N137 N 0.68504 0.2305 0.15281 0.0
H138 H 0.43855 0.78386 0.84237 0.0
H139 H 0.43744 0.63741 0.65646 0.0
H140 H 0.43171 0.78195 0.6718 0.0
H141 H 0.44207 0.63973 0.82725 0.0
H142 H 0.44316 0.6944 0.66023 0.0
H143 H 0.44806 0.73553 0.83647 0.0
C144 C 0.43941 0.77354 0.8036 0.0
C145 C 0.43385 0.78672 0.75754 0.0
C146 C 0.44327 0.68255 0.69683 0.0
C147 C 0.44442 0.73101 0.75051 0.0
C148 C 0.44004 0.65003 0.6947 0.0
C149 C 0.43881 0.63353 0.74162 0.0
C150 C 0.44526 0.69863 0.7462 0.0
C151 C 0.44245 0.6512 0.79004 0.0
C152 C 0.44482 0.74587 0.80026 0.0
C153 C 0.4356 0.77246 0.7084 0.0
N154 N 0.44522 0.68261 0.79104 0.0
N155 N 0.44032 0.74509 0.7062 0.0
H156 H 0.66964 0.51391 0.14808 0.0
H157 H 0.8115 0.50588 0.31722 0.0
H158 H 0.66939 0.50816 0.31833 0.0
H159 H 0.80276 0.49491 0.14674 0.0
H160 H 0.76661 0.51933 0.31801 0.0
H161 H 0.72512 0.51957 0.14732 0.0
C162 C 0.68141 0.51431 0.18543 0.0
C163 C 0.66452 0.50996 0.23332 0.0
C164 C 0.77477 0.51437 0.28038 0.0
C165 C 0.72807 0.51629 0.23255 0.0
C166 C 0.80047 0.50672 0.27983 0.0
C167 C 0.81056 0.49864 0.23184 0.0
C168 C 0.75895 0.51392 0.23265 0.0
C169 C 0.79556 0.50058 0.1847 0.0
C170 C 0.7131 0.51748 0.18489 0.0
C171 C 0.68125 0.51103 0.28043 0.0
N172 N 0.77021 0.50761 0.18634 0.0
N173 N 0.71194 0.51369 0.27879 0.0
H174 H 0.29354 0.76788 0.66131 0.0
H175 H 0.13522 0.62087 0.81002 0.0
H176 H 0.26837 0.77776 0.82264 0.0
H177 H 0.15468 0.61239 0.64496 0.0
H178 H 0.18053 0.68107 0.81203 0.0
H179 H 0.23918 0.714 0.65051 0.0
C180 C 0.27635 0.7591 0.69409 0.0
C181 C 0.28575 0.77702 0.7432 0.0
C182 C 0.17471 0.66615 0.7752 0.0
C183 C 0.22387 0.71538 0.73142 0.0
C184 C 0.14885 0.63171 0.77409 0.0
C185 C 0.14138 0.61139 0.72746 0.0
C186 C 0.1935 0.68036 0.72949 0.0
C187 C 0.15973 0.62698 0.68196 0.0
C188 C 0.2454 0.72827 0.68802 0.0
C189 C 0.26246 0.76448 0.78432 0.0
N190 N 0.18519 0.66042 0.68427 0.0
N191 N 0.23285 0.73427 0.77769 0.0
H192 H 0.40395 0.95141 0.8424 0.0
H193 H 0.53441 0.02739 0.0878 0.0
H194 H 0.49323 0.94344 0.84904 0.0
H195 H 0.44723 0.03827 0.06929 0.0
H196 H 0.52075 -0.00354 0.00136 0.0
H197 H 0.42127 0.98481 0.92528 0.0
C198 C 0.42745 0.95703 0.86121 0.0
C199 C 0.44711 0.94454 0.8391 0.0
C200 C 0.50468 0.00565 0.01642 0.0
C201 C 0.46699 0.98244 0.93476 0.0
C202 C 0.51231 0.02304 0.06579 0.0
C203 C 0.49193 0.03542 0.0856 0.0
C204 C 0.47647 0.00064 -0.01284 0.0
C205 C 0.46372 0.0293 0.05549 0.0
C206 C 0.43732 0.97603 0.90869 0.0
C207 C 0.47742 0.95272 0.86489 0.0
N208 N 0.4569 0.01242 0.0079 0.0
N209 N 0.48635 0.97096 0.91185 0.0
H210 H 0.52065 0.43353 0.48644 0.0
H211 H 0.5235 0.56193 0.71263 0.0
H212 H 0.57578 0.5442 0.47439 0.0
H213 H 0.44883 0.45366 0.69666 0.0
H214 H 0.55427 0.55497 0.63886 0.0
H215 H 0.50624 0.4402 0.57689 0.0
C216 C 0.53013 0.45929 0.50307 0.0
C217 C 0.54889 0.48835 0.4725 0.0
C218 C 0.53149 0.53267 0.65225 0.0
C219 C 0.53231 0.4961 0.57601 0.0
C220 C 0.51405 0.53657 0.69445 0.0
C221 C 0.48341 0.50837 0.71011 0.0
C222 C 0.51827 0.50031 0.62628 0.0
C223 C 0.47217 0.47612 0.68524 0.0
C224 C 0.52186 0.46306 0.55472 0.0
C225 C 0.56088 0.5211 0.4964 0.0
N226 N 0.48945 0.47302 0.64427 0.0
N227 N 0.55198 0.5241 0.54663 0.0
H228 H 0.9627 0.42276 0.76543 0.0
H229 H 0.92575 0.51905 -0.00386 0.0
H230 H -0.0081 0.52974 0.75748 0.0
H231 H 0.87323 0.40823 0.9762 0.0
H232 H 0.94703 0.52387 0.90617 0.0
H233 H 0.92624 0.41655 0.8392 0.0
C234 C 0.96092 0.4448 0.77872 0.0
C235 C -0.01954 0.47684 0.75575 0.0
C236 C 0.93038 0.49852 0.92124 0.0
C237 C 0.93946 0.47024 0.84097 0.0
C238 C 0.91829 0.49576 0.9726 0.0
C239 C 0.89813 0.46319 -0.00604 0.0
C240 C 0.92252 0.4685 0.89147 0.0
C241 C 0.88907 0.43387 0.96162 0.0
C242 C 0.94012 0.44128 0.82083 0.0
C243 C -0.02279 0.50459 0.77422 0.0
N244 N 0.90172 0.43723 0.91234 0.0
N245 N 0.95759 0.50083 0.81655 0.0
H246 H 0.43345 0.03663 0.36186 0.0
H247 H 0.47105 0.92124 0.55294 0.0
H248 H 0.52984 0.04294 0.37459 0.0
H249 H 0.38271 0.93053 0.56662 0.0
H250 H 0.49034 0.96167 0.48113 0.0
H251 H 0.41234 -0.00531 0.43217 0.0
C252 C 0.45024 0.02938 0.37967 0.0
C253 C 0.48348 0.04335 0.36239 0.0
C254 C 0.46667 0.9548 0.49969 0.0
C255 C 0.45936 -0.00492 0.44216 0.0
C256 C 0.45552 0.93151 0.54049 0.0
C257 C 0.42525 0.92254 0.56593 0.0
C258 C 0.44737 0.96916 0.48392 0.0
C259 C 0.40623 0.93677 0.54815 0.0
C260 C 0.43814 0.0054 0.41968 0.0
C261 C 0.50408 0.03294 0.38675 0.0
N262 N 0.41764 0.95944 0.50828 0.0
N263 N 0.49163 0.00933 0.42515 0.0
H264 H 0.39289 0.4569 0.96958 0.0
H265 H 0.52628 0.55082 0.20201 0.0
H266 H 0.45475 0.56758 -0.01196 0.0
H267 H 0.44703 0.44433 0.20835 0.0
H268 H 0.49691 0.55813 0.1277 0.0
H269 H 0.40856 0.45173 0.06004 0.0
C270 C 0.40937 0.48011 -0.00711 0.0
C271 C 0.42296 0.51269 0.97098 0.0
C272 C 0.48555 0.53328 0.14583 0.0
C273 C 0.44113 0.50697 0.07412 0.0
C274 C 0.50233 0.52914 0.18827 0.0
C275 C 0.48918 0.49689 0.2109 0.0
C276 C 0.45577 0.50473 0.12507 0.0
C277 C 0.45802 0.46964 0.19185 0.0
C278 C 0.41824 0.47715 0.04455 0.0
C279 C 0.44399 0.54191 0.00307 0.0
N280 N 0.44265 0.47398 0.14924 0.0
N281 N 0.45281 0.53833 0.05269 0.0
H282 H 0.01658 0.42556 0.49309 0.0
H283 H -0.01781 0.52096 0.2672 0.0
H284 H 0.07182 0.53607 0.47908 0.0
H285 H 0.94642 0.41211 0.25552 0.0
H286 H 0.01971 0.52712 0.34017 0.0
H287 H -0.00506 0.4195 0.40237 0.0
C288 C 0.02461 0.44849 0.47066 0.0
C289 C 0.04551 0.48139 0.49396 0.0
C290 C 0.00416 0.50193 0.32119 0.0
C291 C 0.02076 0.47469 0.39065 0.0
C292 C -0.01726 0.49847 0.27954 0.0
C293 C 0.96106 0.46599 0.25583 0.0
C294 C 0.0033 0.47254 0.34016 0.0
C295 C 0.96281 0.43764 0.27298 0.0
C296 C 0.01229 0.44502 0.41888 0.0
C297 C 0.05532 0.51021 0.46302 0.0
N298 N -0.01692 0.44143 0.31496 0.0
N299 N 0.04246 0.5062 0.4133 0.0
loop_
_geom_bond_atom_site_label_1
_geom_bond_atom_site_label_2
_geom_bond_distance
_geom_bond_site_symmetry_2
_ccdc_geom_bond_type
C0 O1 1.306 . S
C0 O3 1.160 . S
O1 C0 1.306 . S
O1 Cd2 2.228 . S
Cd2 O1 2.228 . S
Cd2 O6 2.273 . S
Cd2 O10 2.277 . S
O3 C0 1.160 . S
O3 Cd4 2.203 . S
Cd4 O3 2.203 . S
Cd4 O6 2.411 . S
Cd4 O7 2.333 . S
Cd4 O8 2.352 . S
Cd4 O12 2.277 . S
Cd4 O13 2.356 . S
C5 O10 1.209 . S
C5 O12 1.226 . S
O6 Cd2 2.273 . S
O6 Cd4 2.411 . S
O6 C9 1.320 . S
O7 Cd4 2.333 . S
O7 C9 1.214 . S
O8 Cd4 2.352 . S
O8 C11 1.258 . S
C9 O6 1.320 . S
C9 O7 1.214 . S
O10 Cd2 2.277 . S
O10 C5 1.209 . S
C11 O8 1.258 . S
C11 O13 1.282 . S
O12 Cd4 2.277 . S
O12 C5 1.226 . S
O13 Cd4 2.356 . S
O13 C11 1.282 . S
C14 O15 1.306 . S
C14 O17 1.160 . S
O15 C14 1.306 . S
O15 Cd16 2.228 . S
Cd16 O15 2.228 . S
Cd16 O20 2.273 . S
Cd16 O24 2.277 . S
O17 C14 1.160 . S
O17 Cd18 2.203 . S
Cd18 O17 2.203 . S
Cd18 O20 2.411 . S
Cd18 O21 2.333 . S
Cd18 O22 2.352 . S
Cd18 O26 2.277 . S
Cd18 O27 2.356 . S
C19 O24 1.209 . S
C19 O26 1.226 . S
O20 Cd16 2.273 . S
O20 Cd18 2.411 . S
O20 C23 1.320 . S
O21 Cd18 2.333 . S
O21 C23 1.214 . S
O22 Cd18 2.352 . S
O22 C25 1.258 . S
C23 O20 1.320 . S
C23 O21 1.214 . S
O24 Cd16 2.277 . S
O24 C19 1.209 . S
C25 O22 1.258 . S
C25 O27 1.282 . S
O26 Cd18 2.277 . S
O26 C19 1.226 . S
O27 Cd18 2.356 . S
O27 C25 1.282 . S
C28 O29 1.306 . S
C28 O31 1.160 . S
O29 C28 1.306 . S
O29 Cd30 2.228 . S
Cd30 O29 2.228 . S
Cd30 O34 2.273 . S
Cd30 O38 2.277 . S
O31 C28 1.160 . S
O31 Cd32 2.203 . S
Cd32 O31 2.203 . S
Cd32 O34 2.411 . S
Cd32 O35 2.333 . S
Cd32 O36 2.352 . S
Cd32 O40 2.277 . S
Cd32 O41 2.356 . S
C33 O38 1.209 . S
C33 O40 1.226 . S
O34 Cd30 2.273 . S
O34 Cd32 2.411 . S
O34 C37 1.320 . S
O35 Cd32 2.333 . S
O35 C37 1.214 . S
O36 Cd32 2.352 . S
O36 C39 1.258 . S
C37 O34 1.320 . S
C37 O35 1.214 . S
O38 Cd30 2.277 . S
O38 C33 1.209 . S
C39 O36 1.258 . S
C39 O41 1.282 . S
O40 Cd32 2.277 . S
O40 C33 1.226 . S
O41 Cd32 2.356 . S
O41 C39 1.282 . S
C42 O43 1.306 . S
C42 O45 1.160 . S
O43 C42 1.306 . S
O43 Cd44 2.228 . S
Cd44 O43 2.228 . S
Cd44 O48 2.273 . S
Cd44 O52 2.277 . S
O45 C42 1.160 . S
O45 Cd46 2.203 . S
Cd46 O45 2.203 . S
Cd46 O48 2.411 . S
Cd46 O49 2.333 . S
Cd46 O50 2.352 . S
Cd46 O54 2.277 . S
Cd46 O55 2.356 . S
C47 O52 1.209 . S
C47 O54 1.226 . S
O48 Cd44 2.273 . S
O48 Cd46 2.411 . S
O48 C51 1.320 . S
O49 Cd46 2.333 . S
O49 C51 1.214 . S
O50 Cd46 2.352 . S
O50 C53 1.258 . S
C51 O48 1.320 . S
C51 O49 1.214 . S
O52 Cd44 2.277 . S
O52 C47 1.209 . S
C53 O50 1.258 . S
C53 O55 1.282 . S
O54 Cd46 2.277 . S
O54 C47 1.226 . S
O55 Cd46 2.356 . S
O55 C53 1.282 . S
C56 O57 1.306 . S
C56 O59 1.160 . S
O57 C56 1.306 . S
O57 Cd58 2.228 . S
Cd58 O57 2.228 . S
Cd58 O62 2.273 . S
Cd58 O66 2.277 . S
O59 C56 1.160 . S
O59 Cd60 2.203 . S
Cd60 O59 2.203 . S
Cd60 O62 2.411 . S
Cd60 O63 2.333 . S
Cd60 O64 2.352 . S
Cd60 O68 2.277 . S
Cd60 O69 2.356 . S
C61 O66 1.209 . S
C61 O68 1.226 . S
O62 Cd58 2.273 . S
O62 Cd60 2.411 . S
O62 C65 1.320 . S
O63 Cd60 2.333 . S
O63 C65 1.214 . S
O64 Cd60 2.352 . S
O64 C67 1.258 . S
C65 O62 1.320 . S
C65 O63 1.214 . S
O66 Cd58 2.277 . S
O66 C61 1.209 . S
C67 O64 1.258 . S
C67 O69 1.282 . S
O68 Cd60 2.277 . S
O68 C61 1.226 . S
O69 Cd60 2.356 . S
O69 C67 1.282 . S
C70 O71 1.306 . S
C70 O73 1.160 . S
O71 C70 1.306 . S
O71 Cd72 2.228 . S
Cd72 O71 2.228 . S
Cd72 O76 2.273 . S
Cd72 O80 2.277 . S
O73 C70 1.160 . S
O73 Cd74 2.203 . S
Cd74 O73 2.203 . S
Cd74 O76 2.411 . S
Cd74 O77 2.333 . S
Cd74 O78 2.352 . S
Cd74 O82 2.277 . S
Cd74 O83 2.356 . S
C75 O80 1.209 . S
C75 O82 1.226 . S
O76 Cd72 2.273 . S
O76 Cd74 2.411 . S
O76 C79 1.320 . S
O77 Cd74 2.333 . S
O77 C79 1.214 . S
O78 Cd74 2.352 . S
O78 C81 1.258 . S
C79 O76 1.320 . S
C79 O77 1.214 . S
O80 Cd72 2.277 . S
O80 C75 1.209 . S
C81 O78 1.258 . S
C81 O83 1.282 . S
O82 Cd74 2.277 . S
O82 C75 1.226 . S
O83 Cd74 2.356 . S
O83 C81 1.282 . S
H84 C90 0.930 . S
H85 C94 0.930 . S
H86 C99 0.929 . S
H87 C97 0.929 . S
H88 C92 0.929 . S
H89 C98 0.929 . S
C90 H84 0.930 . S
C90 C91 1.367 . S
C90 C98 1.378 . S
C91 C90 1.367 . S
C91 C99 1.433 . S
C92 H88 0.929 . S
C92 C94 1.378 . S
C92 C96 1.350 . S
C93 C96 1.463 . S
C93 C98 1.350 . S
C93 N101 1.427 . S
C94 H85 0.930 . S
C94 C92 1.378 . S
C94 C95 1.367 . S
C95 C94 1.367 . S
C95 C97 1.433 . S
C96 C92 1.350 . S
C96 C93 1.463 . S
C96 N100 1.427 . S
C97 H87 0.929 . S
C97 C95 1.433 . S
C97 N100 1.384 . S
C98 H89 0.929 . S
C98 C90 1.378 . S
C98 C93 1.350 . S
C99 H86 0.929 . S
C99 C91 1.433 . S
C99 N101 1.384 . S
N100 C96 1.427 . S
N100 C97 1.384 . S
N101 C93 1.427 . S
N101 C99 1.384 . S
H102 C108 0.930 . S
H103 C112 0.930 . S
H104 C117 0.929 . S
H105 C115 0.929 . S
H106 C110 0.929 . S
H107 C116 0.929 . S
C108 H102 0.930 . S
C108 C109 1.367 . S
C108 C116 1.378 . S
C109 C108 1.367 . S
C109 C117 1.433 . S
C110 H106 0.929 . S
C110 C112 1.378 . S
C110 C114 1.350 . S
C111 C114 1.463 . S
C111 C116 1.350 . S
C111 N119 1.427 . S
C112 H103 0.930 . S
C112 C110 1.378 . S
C112 C113 1.367 . S
C113 C112 1.367 . S
C113 C115 1.433 . S
C114 C110 1.350 . S
C114 C111 1.463 . S
C114 N118 1.427 . S
C115 H105 0.929 . S
C115 C113 1.433 . S
C115 N118 1.384 . S
C116 H107 0.929 . S
C116 C108 1.378 . S
C116 C111 1.350 . S
C117 H104 0.929 . S
C117 C109 1.433 . S
C117 N119 1.384 . S
N118 C114 1.427 . S
N118 C115 1.384 . S
N119 C111 1.427 . S
N119 C117 1.384 . S
H120 C126 0.930 . S
H121 C130 0.930 . S
H122 C135 0.929 . S
H123 C133 0.929 . S
H124 C128 0.929 . S
H125 C134 0.929 . S
C126 H120 0.930 . S
C126 C127 1.367 . S
C126 C134 1.378 . S
C127 C126 1.367 . S
C127 C135 1.433 . S
C128 H124 0.929 . S
C128 C130 1.378 . S
C128 C132 1.350 . S
C129 C132 1.463 . S
C129 C134 1.350 . S
C129 N137 1.427 . S
C130 H121 0.930 . S
C130 C128 1.378 . S
C130 C131 1.367 . S
C131 C130 1.367 . S
C131 C133 1.433 . S
C132 C128 1.350 . S
C132 C129 1.463 . S
C132 N136 1.427 . S
C133 H123 0.929 . S
C133 C131 1.433 . S
C133 N136 1.384 . S
C134 H125 0.929 . S
C134 C126 1.378 . S
C134 C129 1.350 . S
C135 H122 0.929 . S
C135 C127 1.433 . S
C135 N137 1.384 . S
N136 C132 1.427 . S
N136 C133 1.384 . S
N137 C129 1.427 . S
N137 C135 1.384 . S
H138 C144 0.930 . S
H139 C148 0.930 . S
H140 C153 0.929 . S
H141 C151 0.929 . S
H142 C146 0.929 . S
H143 C152 0.929 . S
C144 H138 0.930 . S
C144 C145 1.367 . S
C144 C152 1.378 . S
C145 C144 1.367 . S
C145 C153 1.433 . S
C146 H142 0.929 . S
C146 C148 1.378 . S
C146 C150 1.350 . S
C147 C150 1.463 . S
C147 C152 1.350 . S
C147 N155 1.427 . S
C148 H139 0.930 . S
C148 C146 1.378 . S
C148 C149 1.367 . S
C149 C148 1.367 . S
C149 C151 1.433 . S
C150 C146 1.350 . S
C150 C147 1.463 . S
C150 N154 1.427 . S
C151 H141 0.929 . S
C151 C149 1.433 . S
C151 N154 1.384 . S
C152 H143 0.929 . S
C152 C144 1.378 . S
C152 C147 1.350 . S
C153 H140 0.929 . S
C153 C145 1.433 . S
C153 N155 1.384 . S
N154 C150 1.427 . S
N154 C151 1.384 . S
N155 C147 1.427 . S
N155 C153 1.384 . S
H156 C162 0.930 . S
H157 C166 0.930 . S
H158 C171 0.929 . S
H159 C169 0.929 . S
H160 C164 0.929 . S
H161 C170 0.929 . S
C162 H156 0.930 . S
C162 C163 1.367 . S
C162 C170 1.378 . S
C163 C162 1.367 . S
C163 C171 1.433 . S
C164 H160 0.929 . S
C164 C166 1.378 . S
C164 C168 1.350 . S
C165 C168 1.463 . S
C165 C170 1.350 . S
C165 N173 1.427 . S
C166 H157 0.930 . S
C166 C164 1.378 . S
C166 C167 1.367 . S
C167 C166 1.367 . S
C167 C169 1.433 . S
C168 C164 1.350 . S
C168 C165 1.463 . S
C168 N172 1.427 . S
C169 H159 0.929 . S
C169 C167 1.433 . S
C169 N172 1.384 . S
C170 H161 0.929 . S
C170 C162 1.378 . S
C170 C165 1.350 . S
C171 H158 0.929 . S
C171 C163 1.433 . S
C171 N173 1.384 . S
N172 C168 1.427 . S
N172 C169 1.384 . S
N173 C165 1.427 . S
N173 C171 1.384 . S
H174 C180 0.930 . S
H175 C184 0.930 . S
H176 C189 0.929 . S
H177 C187 0.929 . S
H178 C182 0.929 . S
H179 C188 0.929 . S
C180 H174 0.930 . S
C180 C181 1.367 . S
C180 C188 1.378 . S
C181 C180 1.367 . S
C181 C189 1.433 . S
C182 H178 0.929 . S
C182 C184 1.378 . S
C182 C186 1.350 . S
C183 C186 1.463 . S
C183 C188 1.350 . S
C183 N191 1.427 . S
C184 H175 0.930 . S
C184 C182 1.378 . S
C184 C185 1.367 . S
C185 C184 1.367 . S
C185 C187 1.433 . S
C186 C182 1.350 . S
C186 C183 1.463 . S
C186 N190 1.427 . S
C187 H177 0.929 . S
C187 C185 1.433 . S
C187 N190 1.384 . S
C188 H179 0.929 . S
C188 C180 1.378 . S
C188 C183 1.350 . S
C189 H176 0.929 . S
C189 C181 1.433 . S
C189 N191 1.384 . S
N190 C186 1.427 . S
N190 C187 1.384 . S
N191 C183 1.427 . S
N191 C189 1.384 . S
H192 C198 0.930 . S
H193 C202 0.930 . S
H194 C207 0.929 . S
H195 C205 0.929 . S
H196 C200 0.899 1_565 S
H197 C206 0.899 1_545 S
C198 H192 0.930 . S
C198 C199 1.367 . S
C198 C206 1.393 . S
C199 C198 1.367 . S
C199 C207 1.433 . S
C200 H196 0.899 1_545 S
C200 C202 1.393 . S
C200 C204 1.365 . S
C201 C204 1.463 1_566 S
C201 C206 1.365 . S
C201 N209 1.427 . S
C202 H193 0.930 . S
C202 C200 1.393 . S
C202 C203 1.367 . S
C203 C202 1.367 . S
C203 C205 1.433 . S
C204 C200 1.365 . S
C204 C201 1.463 1_544 S
C204 N208 1.427 . S
C205 H195 0.929 . S
C205 C203 1.433 . S
C205 N208 1.384 . S
C206 H197 0.899 1_565 S
C206 C198 1.393 . S
C206 C201 1.365 . S
C207 H194 0.929 . S
C207 C199 1.433 . S
C207 N209 1.384 . S
N208 C204 1.427 . S
N208 C205 1.384 . S
N209 C201 1.427 . S
N209 C207 1.384 . S
H210 C216 0.930 . S
H211 C220 0.930 . S
H212 C225 0.929 . S
H213 C223 0.929 . S
H214 C218 0.929 . S
H215 C224 0.929 . S
C216 H210 0.930 . S
C216 C217 1.367 . S
C216 C224 1.378 . S
C217 C216 1.367 . S
C217 C225 1.433 . S
C218 H214 0.929 . S
C218 C220 1.378 . S
C218 C222 1.350 . S
C219 C222 1.463 . S
C219 C224 1.350 . S
C219 N227 1.427 . S
C220 H211 0.930 . S
C220 C218 1.378 . S
C220 C221 1.367 . S
C221 C220 1.367 . S
C221 C223 1.433 . S
C222 C218 1.350 . S
C222 C219 1.463 . S
C222 N226 1.427 . S
C223 H213 0.929 . S
C223 C221 1.433 . S
C223 N226 1.384 . S
C224 H215 0.929 . S
C224 C216 1.378 . S
C224 C219 1.350 . S
C225 H212 0.929 . S
C225 C217 1.433 . S
C225 N227 1.384 . S
N226 C222 1.427 . S
N226 C223 1.384 . S
N227 C219 1.427 . S
N227 C225 1.384 . S
H228 C234 0.930 . S
H229 C238 0.930 . S
H230 C243 0.929 . S
H231 C241 0.929 . S
H232 C236 0.929 . S
H233 C242 0.929 . S
C234 H228 0.930 . S
C234 C235 1.367 . S
C234 C242 1.378 . S
C235 C234 1.367 . S
C235 C243 1.433 . S
C236 H232 0.929 . S
C236 C238 1.378 . S
C236 C240 1.350 . S
C237 C240 1.463 1_456 S
C237 C242 1.350 . S
C237 N245 1.427 . S
C238 H229 0.930 . S
C238 C236 1.378 . S
C238 C239 1.367 . S
C239 C238 1.367 . S
C239 C241 1.433 . S
C240 C236 1.350 . S
C240 C237 1.463 1_654 S
C240 N244 1.427 . S
C241 H231 0.929 . S
C241 C239 1.433 . S
C241 N244 1.384 . S
C242 H233 0.929 . S
C242 C234 1.378 . S
C242 C237 1.350 . S
C243 H230 0.929 . S
C243 C235 1.433 . S
C243 N245 1.384 . S
N244 C240 1.427 . S
N244 C241 1.384 . S
N245 C237 1.427 . S
N245 C243 1.384 . S
H246 C252 0.930 . S
H247 C256 0.930 . S
H248 C261 0.929 . S
H249 C259 0.929 . S
H250 C254 0.929 . S
H251 C260 0.929 . S
C252 H246 0.930 . S
C252 C253 1.367 . S
C252 C260 1.378 1_545 S
C253 C252 1.367 . S
C253 C261 1.433 . S
C254 H250 0.929 . S
C254 C256 1.378 1_545 S
C254 C258 1.350 1_545 S
C255 C258 1.463 1_545 S
C255 C260 1.350 1_545 S
C255 N263 1.427 . S
C256 H247 0.930 . S
C256 C254 1.378 1_565 S
C256 C257 1.367 . S
C257 C256 1.367 . S
C257 C259 1.433 . S
C258 C254 1.350 1_565 S
C258 C255 1.463 1_565 S
C258 N262 1.427 . S
C259 H249 0.929 . S
C259 C257 1.433 . S
C259 N262 1.384 . S
C260 H251 0.929 . S
C260 C252 1.378 1_565 S
C260 C255 1.350 1_565 S
C261 H248 0.929 . S
C261 C253 1.433 . S
C261 N263 1.384 . S
N262 C258 1.427 . S
N262 C259 1.384 . S
N263 C255 1.427 . S
N263 C261 1.384 . S
H264 C270 0.930 . S
H265 C274 0.930 . S
H266 C279 0.929 . S
H267 C277 0.929 . S
H268 C272 0.929 . S
H269 C278 0.929 1_554 S
C270 H264 0.930 . S
C270 C271 1.367 . S
C270 C278 1.378 . S
C271 C270 1.367 . S
C271 C279 1.433 . S
C272 H268 0.929 . S
C272 C274 1.378 . S
C272 C276 1.350 . S
C273 C276 1.463 1_556 S
C273 C278 1.350 . S
C273 N281 1.427 . S
C274 H265 0.930 . S
C274 C272 1.378 . S
C274 C275 1.367 . S
C275 C274 1.367 . S
C275 C277 1.433 . S
C276 C272 1.350 . S
C276 C273 1.463 1_554 S
C276 N280 1.427 . S
C277 H267 0.929 . S
C277 C275 1.433 . S
C277 N280 1.384 . S
C278 H269 0.929 1_556 S
C278 C270 1.378 . S
C278 C273 1.350 . S
C279 H266 0.929 . S
C279 C271 1.433 . S
C279 N281 1.384 . S
N280 C276 1.427 . S
N280 C277 1.384 . S
N281 C273 1.427 . S
N281 C279 1.384 . S
H282 C288 0.930 . S
H283 C292 0.930 . S
H284 C297 0.929 . S
H285 C295 0.929 . S
H286 C290 0.929 1_455 S
H287 C296 0.929 . S
C288 H282 0.930 . S
C288 C289 1.367 . S
C288 C296 1.378 1_455 S
C289 C288 1.367 . S
C289 C297 1.433 . S
C290 H286 0.929 1_655 S
C290 C292 1.378 . S
C290 C294 1.350 . S
C291 C294 1.463 1_455 S
C291 C296 1.350 1_455 S
C291 N299 1.427 . S
C292 H283 0.930 . S
C292 C290 1.378 . S
C292 C293 1.367 . S
C293 C292 1.367 . S
C293 C295 1.433 . S
C294 C290 1.350 . S
C294 C291 1.463 1_655 S
C294 N298 1.427 . S
C295 H285 0.929 . S
C295 C293 1.433 . S
C295 N298 1.384 . S
C296 H287 0.929 . S
C296 C288 1.378 1_655 S
C296 C291 1.350 1_655 S
C297 H284 0.929 . S
C297 C289 1.433 . S
C297 N299 1.384 . S
N298 C294 1.427 . S
N298 C295 1.384 . S
N299 C291 1.427 . S
N299 C297 1.384 . S
C91 C0 1.040 . S
C95 C61 1.063 . S
C109 C14 1.050 . S
C113 C70 1.050 . S
C127 C5 1.069 . S
C131 C33 1.060 . S
C145 C47 1.064 . S
C149 C19 1.076 . S
C163 C56 1.047 . S
C167 C28 1.056 . S
C181 C42 1.056 . S
C185 C75 1.077 . S
C199 C51 1.376 . S
C203 C9 1.377 . S
C217 C67 1.400 . S
C221 C23 1.420 . S
C235 C79 1.402 . S
C239 C39 1.396 . S
C253 C11 1.400 . S
C257 C53 1.396 . S
C271 C25 1.395 . S
C275 C65 1.402 . S
C289 C81 1.405 . S
C293 C37 1.418 . S
