# Generated by pormake.
# Topology dft, (4)-cn, num edge types: 1
# Building blocks:
#     Node 0, Type 0, BuildingBlock: KUFVIS_clean_sbu_0, # of connection points: 4
#     Node 1, Type 0, BuildingBlock: KUFVIS_clean_sbu_0, # of connection points: 4
#     Node 2, Type 0, BuildingBlock: KUFVIS_clean_sbu_0, # of connection points: 4
#     Node 3, Type 0, BuildingBlock: KUFVIS_clean_sbu_0, # of connection points: 4
#     Node 4, Type 0, BuildingBlock: KUFVIS_clean_sbu_0, # of connection points: 4
#     Node 5, Type 0, BuildingBlock: KUFVIS_clean_sbu_0, # of connection points: 4
#     Node 6, Type 0, BuildingBlock: KUFVIS_clean_sbu_0, # of connection points: 4
#     Node 7, Type 0, BuildingBlock: KUFVIS_clean_sbu_0, # of connection points: 4
#     Edge 8, Type (0, 0), BuildingBlock: FUNLAD_clean_linker_0, # of connection points: 2
#     Edge 9, Type (0, 0), BuildingBlock: FUNLAD_clean_linker_0, # of connection points: 2
#     Edge 10, Type (0, 0), BuildingBlock: FUNLAD_clean_linker_0, # of connection points: 2
#     Edge 11, Type (0, 0), BuildingBlock: FUNLAD_clean_linker_0, # of connection points: 2
#     Edge 12, Type (0, 0), BuildingBlock: FUNLAD_clean_linker_0, # of connection points: 2
#     Edge 13, Type (0, 0), BuildingBlock: FUNLAD_clean_linker_0, # of connection points: 2
#     Edge 14, Type (0, 0), BuildingBlock: FUNLAD_clean_linker_0, # of connection points: 2
#     Edge 15, Type (0, 0), BuildingBlock: FUNLAD_clean_linker_0, # of connection points: 2
#     Edge 16, Type (0, 0), BuildingBlock: FUNLAD_clean_linker_0, # of connection points: 2
#     Edge 17, Type (0, 0), BuildingBlock: FUNLAD_clean_linker_0, # of connection points: 2
#     Edge 18, Type (0, 0), BuildingBlock: FUNLAD_clean_linker_0, # of connection points: 2
#     Edge 19, Type (0, 0), BuildingBlock: FUNLAD_clean_linker_0, # of connection points: 2
#     Edge 20, Type (0, 0), BuildingBlock: FUNLAD_clean_linker_0, # of connection points: 2
#     Edge 21, Type (0, 0), BuildingBlock: FUNLAD_clean_linker_0, # of connection points: 2
#     Edge 22, Type (0, 0), BuildingBlock: FUNLAD_clean_linker_0, # of connection points: 2
#     Edge 23, Type (0, 0), BuildingBlock: FUNLAD_clean_linker_0, # of connection points: 2
# Relax obj value: 0.171
# Max RMSD: 0.159
# Mean RMSD: 0.159
data_MOF--net-dft--node1-KUFVIS_clean_sbu_0--edge1-FUNLAD_clean_linker_0
_symmetry_space_group_name_H-M    P1
_symmetry_Int_Tables_number       1
_symmetry_cell_setting            triclinic
loop_
_symmetry_equiv_pos_as_xyz
'x, y, z'
_cell_length_a     39.621801
_cell_length_b     39.610292
_cell_length_c     47.246008
_cell_angle_alpha  90.064785
_cell_angle_beta   89.998006
_cell_angle_gamma 89.970285
loop_
_atom_site_label
_atom_site_type_symbol
_atom_site_fract_x
_atom_site_fract_y
_atom_site_fract_z
_atom_type_partial_charge
Mn0 Mn 0.32658 0.05931 0.19218 0.0
Mn1 Mn 0.34081 0.13211 0.15714 0.0
C2 C 0.31023 0.11038 0.21155 0.0
C3 C 0.29338 0.01277 0.20365 0.0
C4 C 0.39583 0.09064 0.18528 0.0
O5 O 0.33531 0.04393 0.15129 0.0
O6 O 0.33624 0.09492 0.12939 0.0
C7 C 0.27612 0.14091 0.12663 0.0
N8 N 0.2995 0.15272 0.14528 0.0
C9 C 0.26768 0.20375 0.15274 0.0
C10 C 0.2434 0.19221 0.13344 0.0
C11 C 0.24762 0.16061 0.12038 0.0
C12 C 0.29571 0.1831 0.15796 0.0
H13 H 0.27914 0.11658 0.11673 0.0
C14 C 0.33609 0.06255 0.12911 0.0
O15 O 0.32584 0.01251 0.20712 0.0
O16 O 0.28029 0.03936 0.19188 0.0
N17 N 0.34488 0.16973 0.18244 0.0
C18 C 0.36914 0.17593 0.20221 0.0
C19 C 0.36777 0.20584 0.21815 0.0
C20 C 0.34156 0.22909 0.21358 0.0
C21 C 0.31691 0.2222 0.19309 0.0
C22 C 0.31972 0.19209 0.17768 0.0
H23 H 0.3893 0.15814 0.20589 0.0
O24 O 0.31486 0.0844 0.22781 0.0
O25 O 0.31561 0.10559 0.18483 0.0
O26 O 0.37629 0.06987 0.19752 0.0
O27 O 0.38543 0.11369 0.16851 0.0
C28 C 0.28925 0.24366 0.1878 0.0
C29 C 0.26467 0.23446 0.16762 0.0
H30 H 0.22122 0.2072 0.12876 0.0
H31 H 0.22887 0.15142 0.10561 0.0
H32 H 0.38682 0.21092 0.23401 0.0
H33 H 0.34042 0.25198 0.22611 0.0
H34 H 0.28633 0.26703 0.19947 0.0
H35 H 0.24321 0.25088 0.1641 0.0
Mn36 Mn 0.03555 0.32657 0.68987 0.0
Mn37 Mn 0.95839 0.34885 0.66581 0.0
C38 C 0.98721 0.31283 0.71477 0.0
C39 C 0.08007 0.28845 0.69525 0.0
C40 C 0.00749 0.39862 0.69175 0.0
O41 O 0.0443 0.33527 0.64777 0.0
O42 O 0.99109 0.34818 0.63413 0.0
C43 C 0.94386 0.28939 0.62977 0.0
N44 N 0.93539 0.30979 0.65188 0.0
C45 C 0.88549 0.27708 0.66146 0.0
C46 C 0.89362 0.25581 0.63871 0.0
C47 C 0.92295 0.26198 0.62283 0.0
C48 C 0.90718 0.30411 0.66728 0.0
H49 H 0.96643 0.29396 0.61755 0.0
C50 C 0.02246 0.34318 0.62886 0.0
O51 O 0.08432 0.32066 0.69884 0.0
O52 O 0.05055 0.27868 0.68659 0.0
N53 N 0.9247 0.34955 0.69486 0.0
C54 C 0.92164 0.37109 0.71722 0.0
C55 C 0.8942 0.36763 0.7358 0.0
C56 C 0.87016 0.34216 0.73117 0.0
C57 C 0.87377 0.32037 0.70795 0.0
C58 C 0.9015 0.3252 0.69003 0.0
H59 H 0.94011 0.39064 0.72093 0.0
O60 O 0.01583 0.3154 0.72795 0.0
O61 O 0.98778 0.31964 0.68802 0.0
O62 O 0.03059 0.37718 0.69707 0.0
O63 O 0.97952 0.39074 0.68006 0.0
C64 C 0.85131 0.29365 0.70222 0.0
C65 C 0.85716 0.27204 0.67898 0.0
H66 H 0.8777 0.2345 0.63342 0.0
H67 H 0.92948 0.24559 0.60532 0.0
H68 H 0.89164 0.38448 0.75372 0.0
H69 H 0.8492 0.33937 0.7457 0.0
H70 H 0.82974 0.28919 0.7158 0.0
H71 H 0.83998 0.25129 0.67503 0.0
Mn72 Mn 0.76665 0.03416 0.18631 0.0
Mn73 Mn 0.74773 0.95548 0.16384 0.0
C74 C 0.77743 0.98752 0.21449 0.0
C75 C 0.80371 0.07939 0.19217 0.0
C76 C 0.6949 0.00631 0.18223 0.0
O77 O 0.76255 0.04001 0.14331 0.0
O78 O 0.75337 0.98561 0.13089 0.0
C79 C 0.81241 0.93859 0.13583 0.0
N80 N 0.78855 0.93161 0.15572 0.0
C81 C 0.81931 0.88276 0.1716 0.0
C82 C 0.84414 0.88934 0.15119 0.0
C83 C 0.8407 0.91742 0.13328 0.0
C84 C 0.79167 0.90472 0.17314 0.0
H85 H 0.80992 0.96021 0.12208 0.0
C86 C 0.758 0.01679 0.12474 0.0
O87 O 0.77123 0.08352 0.19305 0.0
O88 O 0.81465 0.04932 0.18615 0.0
N89 N 0.74225 0.92407 0.19427 0.0
C90 C 0.71706 0.92236 0.21383 0.0
C91 C 0.71707 0.89604 0.23372 0.0
C92 C 0.74289 0.87172 0.23324 0.0
C93 C 0.7685 0.87394 0.21283 0.0
C94 C 0.76702 0.90059 0.19341 0.0
H95 H 0.69714 0.94097 0.21427 0.0
O96 O 0.77364 0.01703 0.22603 0.0
O97 O 0.77357 0.98648 0.18736 0.0
O98 O 0.71562 0.02926 0.18957 0.0
O99 O 0.70406 0.97785 0.17203 0.0
C100 C 0.7958 0.85119 0.21138 0.0
C101 C 0.82125 0.85566 0.19084 0.0
H102 H 0.86608 0.87318 0.14925 0.0
H103 H 0.85984 0.92276 0.11757 0.0
H104 H 0.69726 0.89454 0.24945 0.0
H105 H 0.74298 0.85164 0.24877 0.0
H106 H 0.79776 0.83049 0.22625 0.0
H107 H 0.8424 0.83833 0.19024 0.0
Mn108 Mn 0.05869 0.76559 0.6862 0.0
Mn109 Mn 0.13882 0.74723 0.66702 0.0
C110 C 0.10394 0.78454 0.71254 0.0
C111 C 0.01101 0.80013 0.68795 0.0
C112 C 0.09202 0.69609 0.69349 0.0
O113 O 0.05353 0.75369 0.64433 0.0
O114 O 0.10812 0.74129 0.63423 0.0
C115 C 0.14995 0.80398 0.62735 0.0
N116 N 0.15901 0.78673 0.65109 0.0
C117 C 0.20484 0.82513 0.66015 0.0
C118 C 0.1961 0.84319 0.63571 0.0
C119 C 0.16852 0.83258 0.61927 0.0
C120 C 0.18553 0.7967 0.66705 0.0
H121 H 0.12867 0.79603 0.61473 0.0
C122 C 0.07694 0.74422 0.62738 0.0
O123 O 0.00911 0.7679 0.69256 0.0
O124 O 0.04022 0.81192 0.68036 0.0
N125 N 0.17077 0.75261 0.6971 0.0
C126 C 0.17461 0.73362 0.72091 0.0
C127 C 0.20052 0.74151 0.74009 0.0
C128 C 0.22223 0.76875 0.73457 0.0
C129 C 0.2179 0.78781 0.70984 0.0
C130 C 0.19183 0.77857 0.69138 0.0
H131 H 0.15789 0.71275 0.7253 0.0
O132 O 0.07475 0.78044 0.72453 0.0
O133 O 0.10586 0.77604 0.68613 0.0
O134 O 0.06691 0.71599 0.69574 0.0
O135 O 0.12054 0.70521 0.68351 0.0
C136 C 0.23799 0.81602 0.70308 0.0
C137 C 0.23146 0.83466 0.67825 0.0
H138 H 0.2102 0.8654 0.62951 0.0
H139 H 0.16152 0.84649 0.60046 0.0
H140 H 0.20365 0.72673 0.75917 0.0
H141 H 0.24195 0.77498 0.74957 0.0
H142 H 0.25819 0.8239 0.71705 0.0
H143 H 0.24675 0.8566 0.67351 0.0
Mn144 Mn 0.32047 0.04977 0.81138 0.0
Mn145 Mn 0.34159 0.96985 0.82908 0.0
C146 C 0.30531 0.0046 0.78301 0.0
C147 C 0.28368 0.09575 0.80963 0.0
C148 C 0.39182 0.02049 0.8063 0.0
O149 O 0.33005 0.05376 0.8539 0.0
O150 O 0.34247 0.9991 0.86306 0.0
C151 C 0.28257 0.95308 0.86485 0.0
N152 N 0.3023 0.94641 0.84191 0.0
C153 C 0.26869 0.89793 0.82967 0.0
C154 C 0.24809 0.90422 0.85323 0.0
C155 C 0.25503 0.93196 0.87085 0.0
C156 C 0.29578 0.91984 0.82476 0.0
H157 H 0.28779 0.97437 0.87846 0.0
C158 C 0.33815 0.02982 0.87088 0.0
O159 O 0.31597 0.09941 0.80634 0.0
O160 O 0.273 0.06572 0.81604 0.0
N161 N 0.34087 0.9392 0.79771 0.0
C162 C 0.36199 0.93777 0.77499 0.0
C163 C 0.35781 0.91204 0.75481 0.0
C164 C 0.33211 0.88797 0.75828 0.0
C165 C 0.3108 0.88984 0.78193 0.0
C166 C 0.31627 0.91597 0.8014 0.0
H167 H 0.38178 0.9562 0.77223 0.0
O168 O 0.30831 0.03449 0.77206 0.0
O169 O 0.3125 0.00211 0.80961 0.0
O170 O 0.37071 0.04445 0.8033 0.0
O171 O 0.38371 0.99142 0.81575 0.0
C172 C 0.28404 0.86713 0.78672 0.0
C173 C 0.26303 0.87116 0.81059 0.0
H174 H 0.22675 0.88807 0.85787 0.0
H175 H 0.23916 0.93705 0.88901 0.0
H176 H 0.37431 0.9108 0.73659 0.0
H177 H 0.32881 0.86831 0.74257 0.0
H178 H 0.27911 0.84676 0.77197 0.0
H179 H 0.24228 0.85379 0.81385 0.0
Mn180 Mn 0.04431 0.31989 0.30864 0.0
Mn181 Mn 0.12075 0.34869 0.32916 0.0
C182 C 0.0918 0.31078 0.28114 0.0
C183 C 0.00278 0.27836 0.30501 0.0
C184 C 0.0657 0.39412 0.3063 0.0
O185 O 0.03776 0.32748 0.35118 0.0
O186 O 0.09041 0.34511 0.36232 0.0
C187 C 0.14277 0.29061 0.36399 0.0
N188 N 0.14797 0.31176 0.34171 0.0
C189 C 0.20018 0.284 0.32995 0.0
C190 C 0.19545 0.26201 0.35284 0.0
C191 C 0.16658 0.2653 0.3699 0.0
C192 C 0.17566 0.30881 0.32516 0.0
H193 H 0.1206 0.293 0.37714 0.0
C194 C 0.06003 0.33733 0.36907 0.0
O195 O 0.99569 0.31015 0.3021 0.0
O196 O 0.03359 0.27085 0.31195 0.0
N197 N 0.15233 0.35246 0.29865 0.0
C198 C 0.15201 0.37425 0.27636 0.0
C199 C 0.17854 0.37342 0.25666 0.0
C200 C 0.20515 0.35034 0.26014 0.0
C201 C 0.205 0.32828 0.28333 0.0
C202 C 0.17799 0.33039 0.30236 0.0
H203 H 0.13158 0.39198 0.27356 0.0
O204 O 0.06214 0.31094 0.26949 0.0
O205 O 0.0926 0.3171 0.308 0.0
O206 O 0.04426 0.37076 0.30198 0.0
O207 O 0.09515 0.38867 0.31627 0.0
C208 C 0.23028 0.30389 0.28803 0.0
C209 C 0.2279 0.2818 0.31135 0.0
H210 H 0.21365 0.24233 0.35737 0.0
H211 H 0.16267 0.24833 0.38753 0.0
H212 H 0.17844 0.39047 0.23877 0.0
H213 H 0.22543 0.3496 0.24477 0.0
H214 H 0.25142 0.30158 0.27361 0.0
H215 H 0.24726 0.26286 0.31452 0.0
Mn216 Mn 0.77269 0.04503 0.80389 0.0
Mn217 Mn 0.74785 0.12105 0.82894 0.0
C218 C 0.78374 0.09411 0.77906 0.0
C219 C 0.8123 0.00196 0.79778 0.0
C220 C 0.69955 0.07012 0.8036 0.0
O221 O 0.76536 0.03558 0.84603 0.0
O222 O 0.75057 0.0881 0.8603 0.0
C223 C 0.80752 0.1376 0.86405 0.0
N224 N 0.78623 0.1455 0.84241 0.0
C225 C 0.81622 0.19714 0.83308 0.0
C226 C 0.83837 0.18962 0.85534 0.0
C227 C 0.83403 0.15969 0.87085 0.0
C228 C 0.79019 0.17423 0.82734 0.0
H229 H 0.80432 0.1146 0.876 0.0
C230 C 0.75693 0.0569 0.86522 0.0
O231 O 0.78022 0.99657 0.79461 0.0
O232 O 0.82118 0.03186 0.80626 0.0
N233 N 0.74502 0.15505 0.80026 0.0
C234 C 0.72279 0.15751 0.77837 0.0
C235 C 0.72444 0.18549 0.76018 0.0
C236 C 0.7488 0.21066 0.76476 0.0
C237 C 0.77131 0.20765 0.78752 0.0
C238 C 0.76833 0.17931 0.80504 0.0
H239 H 0.70405 0.1382 0.77474 0.0
O240 O 0.78212 0.06548 0.76575 0.0
O241 O 0.77769 0.09307 0.80594 0.0
O242 O 0.72177 0.04798 0.79768 0.0
O243 O 0.70656 0.09835 0.81526 0.0
C244 C 0.79696 0.23133 0.7932 0.0
C245 C 0.81937 0.2261 0.81599 0.0
H246 H 0.85897 0.20649 0.86055 0.0
H247 H 0.85112 0.15364 0.88798 0.0
H248 H 0.70703 0.18759 0.74262 0.0
H249 H 0.75017 0.23206 0.75055 0.0
H250 H 0.79998 0.25342 0.77994 0.0
H251 H 0.83927 0.24425 0.8199 0.0
Mn252 Mn 0.04574 0.76992 0.30989 0.0
Mn253 Mn 0.97093 0.75159 0.34054 0.0
C254 C 0.99546 0.78854 0.29051 0.0
C255 C 0.09251 0.80401 0.3012 0.0
C256 C 0.012 0.70026 0.30806 0.0
O257 O 0.05965 0.75811 0.35044 0.0
O258 O 0.00783 0.7471 0.36848 0.0
C259 C 0.96737 0.80964 0.37996 0.0
N260 N 0.95382 0.7915 0.35826 0.0
C261 C 0.90645 0.82935 0.35499 0.0
C262 C 0.91981 0.84834 0.37741 0.0
C263 C 0.95043 0.83846 0.3899 0.0
C264 C 0.92443 0.80086 0.34601 0.0
H265 H 0.99096 0.80223 0.38956 0.0
C266 C 0.03997 0.74968 0.37077 0.0
O267 O 0.09298 0.77184 0.29611 0.0
O268 O 0.06558 0.81615 0.31316 0.0
N269 N 0.93328 0.75567 0.31537 0.0
C270 C 0.92456 0.73546 0.2932 0.0
C271 C 0.89475 0.74218 0.27813 0.0
C272 C 0.87418 0.76949 0.28608 0.0
C273 C 0.88357 0.7898 0.30909 0.0
C274 C 0.91342 0.78173 0.32344 0.0
H275 H 0.94029 0.71443 0.28702 0.0
O276 O 0.02184 0.78476 0.27452 0.0
O277 O -0.0008 0.78026 0.31678 0.0
O278 O 0.03568 0.7205 0.30158 0.0
O279 O 0.98622 0.7091 0.3225 0.0
C280 C 0.86471 0.81798 0.31813 0.0
C281 C 0.87623 0.83786 0.34096 0.0
H282 H 0.90689 0.87065 0.38508 0.0
H283 H 0.96099 0.85307 0.40713 0.0
H284 H 0.8877 0.72641 0.26037 0.0
H285 H 0.85136 0.77477 0.27425 0.0
H286 H 0.84147 0.82478 0.30751 0.0
H287 H 0.86175 0.85974 0.34746 0.0
C288 C 0.31061 0.05521 0.08185 0.0
C289 C 0.33639 0.04696 0.10094 0.0
C290 C 0.31414 0.04817 0.05311 0.0
C291 C 0.34387 0.03315 0.04282 0.0
C292 C 0.3686 0.0226 0.06227 0.0
C293 C 0.36498 0.02963 0.09119 0.0
C294 C 0.34967 0.02849 0.012 0.0
C295 C 0.3365 0.04952 0.99237 0.0
C296 C 0.34027 0.0451 0.96121 0.0
C297 C 0.33002 0.0714 0.94311 0.0
C298 C 0.33044 0.06723 0.91365 0.0
C299 C 0.34103 0.03653 0.90169 0.0
H300 H 0.35932 0.9935 0.96192 0.0
C301 C 0.35229 0.01068 0.91983 0.0
C302 C 0.35176 0.01477 0.94911 0.0
H303 H 0.36072 0.98662 0.91149 0.0
H304 H 0.28818 0.06826 0.08902 0.0
H305 H 0.29381 0.05518 0.03898 0.0
H306 H 0.39147 0.01041 0.05493 0.0
H307 H 0.38533 0.02342 0.10559 0.0
H308 H 0.36652 0.00824 0.00579 0.0
H309 H 0.32228 0.07144 -0.00062 0.0
H310 H 0.32093 0.09504 0.95179 0.0
H311 H 0.3215 0.08763 0.90037 0.0
C312 C 0.01009 0.35896 0.57881 0.0
C313 C 0.03262 0.34513 0.59872 0.0
C314 C 0.01729 0.35799 0.54998 0.0
C315 C 0.04718 0.34292 0.54018 0.0
C316 C 0.07049 0.33047 0.56004 0.0
C317 C 0.06326 0.33143 0.58907 0.0
C318 C 0.05499 0.34087 0.50948 0.0
C319 C 0.0309 0.34002 0.48926 0.0
C320 C 0.03848 0.33967 0.45847 0.0
C321 C 0.01443 0.32687 0.43938 0.0
C322 C 0.0209 0.32645 0.41021 0.0
C323 C 0.05151 0.3391 0.39961 0.0
H324 H 0.08725 0.36452 0.46153 0.0
C325 C 0.0751 0.35274 0.41877 0.0
C326 C 0.06865 0.35315 0.44774 0.0
H327 H 0.09881 0.36318 0.41147 0.0
H328 H 0.98648 0.37031 0.58543 0.0
H329 H -0.00062 0.36926 0.53551 0.0
H330 H 0.09401 0.31926 0.55305 0.0
H331 H 0.08119 0.32063 0.60382 0.0
H332 H 0.08139 0.3388 0.50359 0.0
H333 H 0.00451 0.33853 0.49535 0.0
H334 H 0.99073 0.3168 0.44707 0.0
H335 H 0.00215 0.31585 0.39609 0.0
C336 C 0.74007 0.06746 0.91528 0.0
C337 C 0.75579 0.04634 0.89525 0.0
C338 C 0.74158 0.06011 0.94405 0.0
C339 C 0.75915 0.03153 0.95365 0.0
C340 C 0.77361 0.00954 0.93364 0.0
C341 C 0.77204 0.0169 0.90466 0.0
C342 C 0.76165 0.0235 0.98426 0.0
C343 C 0.75961 0.04718 0.0048 0.0
C344 C 0.75957 0.03907 0.03549 0.0
C345 C 0.7683 0.06417 0.05527 0.0
C346 C 0.76768 0.05737 0.08437 0.0
C347 C 0.7581 0.02531 0.0942 0.0
H348 H 0.74102 0.98766 0.03112 0.0
C349 C 0.74879 0.00049 0.07431 0.0
C350 C 0.74933 0.00729 0.04543 0.0
H351 H 0.74076 0.9756 0.08097 0.0
H352 H 0.72674 0.09005 0.90879 0.0
H353 H 0.72874 0.07684 0.95861 0.0
H354 H 0.78676 0.98699 0.94047 0.0
H355 H 0.78436 0.0001 0.88979 0.0
H356 H 0.76626 0.99733 0.98984 0.0
H357 H 0.75853 0.0737 -0.00092 0.0
H358 H 0.77581 0.08906 0.04818 0.0
H359 H 0.7749 0.07707 0.09908 0.0
C360 C 0.03815 0.72082 0.4172 0.0
C361 C 0.05355 0.74471 0.39947 0.0
C362 C 0.04445 0.72083 0.4462 0.0
C363 C 0.06632 0.74486 0.45818 0.0
C364 C 0.0831 0.76764 0.44022 0.0
C365 C 0.07702 0.76738 0.411 0.0
C366 C 0.06926 0.74884 0.48935 0.0
C367 C 0.06364 0.72342 0.50764 0.0
C368 C 0.06452 0.72831 0.53868 0.0
C369 C 0.07899 0.70319 0.55566 0.0
C370 C 0.08167 0.70785 0.58485 0.0
C371 C 0.06881 0.73716 0.59764 0.0
H372 H 0.03866 0.77663 0.53895 0.0
C373 C 0.05259 0.76149 0.58094 0.0
C374 C 0.05071 0.75725 0.55156 0.0
H375 H 0.04288 0.78445 0.59041 0.0
H376 H 0.01976 0.70321 0.40881 0.0
H377 H 0.03044 0.70333 0.45925 0.0
H378 H 0.09996 0.7865 0.44894 0.0
H379 H 0.0888 0.78638 0.39781 0.0
H380 H 0.0763 0.77353 0.49749 0.0
H381 H 0.06004 0.69787 0.49985 0.0
H382 H 0.08939 0.68052 0.5462 0.0
H383 H 0.09445 0.68887 0.59741 0.0
C384 C 0.45539 0.09313 0.16784 0.0
C385 C 0.43245 0.08644 0.18979 0.0
C386 C 0.48957 0.08516 0.17104 0.0
C387 C 0.50142 0.07095 0.19644 0.0
C388 C 0.47882 0.06601 0.21887 0.0
C389 C 0.44455 0.0732 0.21545 0.0
C390 C 0.53716 0.06083 0.19993 0.0
C391 C 0.55444 0.04539 0.17908 0.0
C392 C 0.58993 0.03402 0.18218 0.0
C393 C 0.60123 0.00633 0.16623 0.0
C394 C 0.63504 0.99627 0.16725 0.0
C395 C 0.65841 0.01421 0.18384 0.0
H396 H 0.60539 0.07327 0.21158 0.0
C397 C 0.64694 0.04162 0.20019 0.0
C398 C 0.61306 0.05137 0.19945 0.0
H399 H 0.6643 0.05603 0.21315 0.0
H400 H 0.44672 0.10328 0.14784 0.0
H401 H 0.50667 0.08994 0.15361 0.0
H402 H 0.48749 0.05544 0.23873 0.0
H403 H 0.42742 0.06803 0.23279 0.0
H404 H 0.54849 0.06374 0.22073 0.0
H405 H 0.54161 0.03942 0.15936 0.0
H406 H 0.58392 0.99264 0.15267 0.0
H407 H 0.64306 0.97522 0.15423 0.0
C408 C 0.04464 0.44471 0.71088 0.0
C409 C 0.01398 0.43466 0.69841 0.0
C410 C 0.05176 0.47888 0.71529 0.0
C411 C 0.02845 0.50386 0.70711 0.0
C412 C 0.9973 0.49374 0.69577 0.0
C413 C 0.99015 0.4596 0.69139 0.0
C414 C 0.03564 0.54063 0.70959 0.0
C415 C 0.06707 0.55369 0.71071 0.0
C416 C 0.07403 0.59057 0.70926 0.0
C417 C 0.10531 0.60147 0.69871 0.0
C418 C 0.11175 0.63581 0.69459 0.0
C419 C 0.08702 0.6601 0.70108 0.0
H420 H 0.0262 0.60779 0.72671 0.0
C421 C 0.05643 0.64929 0.71318 0.0
C422 C 0.05005 0.61497 0.71736 0.0
H423 H 0.03701 0.66729 0.71891 0.0
H424 H 0.06343 0.42621 0.71694 0.0
H425 H 0.07555 0.48544 0.72508 0.0
H426 H 0.97868 0.51236 0.68957 0.0
H427 H 0.96615 0.45286 0.68197 0.0
H428 H 0.01417 0.55752 0.70784 0.0
H429 H 0.08873 0.53695 0.70992 0.0
H430 H 0.12445 0.58328 0.69267 0.0
H431 H 0.1357 0.64317 0.68545 0.0
C432 C 0.63798 0.08492 0.80538 0.0
C433 C 0.66361 0.062 0.79795 0.0
C434 C 0.60402 0.07617 0.80232 0.0
C435 C 0.59483 0.04434 0.79146 0.0
C436 C 0.62043 0.02174 0.78351 0.0
C437 C 0.65441 0.03047 0.78659 0.0
C438 C 0.55909 0.0329 0.79017 0.0
C439 C 0.5326 0.05424 0.78979 0.0
C440 C 0.49674 0.04331 0.79164 0.0
C441 C 0.47146 0.06659 0.78444 0.0
C442 C 0.43743 0.05877 0.78834 0.0
C443 C 0.42777 0.02743 0.79973 0.0
H444 H 0.50563 0.99312 0.80892 0.0
C445 C 0.453 0.00369 0.80623 0.0
C446 C 0.4871 0.01157 0.80239 0.0
H447 H 0.44653 0.97937 0.81515 0.0
H448 H 0.64406 0.10936 0.81433 0.0
H449 H 0.58524 0.09404 0.80953 0.0
H450 H 0.61414 0.99699 0.77528 0.0
H451 H 0.67341 0.01212 0.78065 0.0
H452 H 0.55476 0.00588 0.78934 0.0
H453 H 0.53713 0.08118 0.78797 0.0
H454 H 0.47806 0.09126 0.77624 0.0
H455 H 0.41874 0.07768 0.78299 0.0
C456 C 0.07829 0.45618 0.3043 0.0
C457 C 0.05529 0.42949 0.30079 0.0
C458 C 0.06777 0.48967 0.30136 0.0
C459 C 0.03397 0.49727 0.29465 0.0
C460 C 0.01116 0.47062 0.29068 0.0
C461 C 0.02169 0.43712 0.29353 0.0
C462 C 0.0212 0.53256 0.29383 0.0
C463 C 0.04112 0.55928 0.28832 0.0
C464 C 0.03004 0.59506 0.29074 0.0
C465 C 0.0502 0.6201 0.27834 0.0
C466 C 0.04334 0.65424 0.28287 0.0
C467 C 0.01617 0.66425 0.30012 0.0
H468 H 0.98613 0.58666 0.31756 0.0
C469 C 0.99504 0.63925 0.31158 0.0
C470 C 0.00196 0.60501 0.30707 0.0
H471 H 0.97398 0.64603 0.32506 0.0
H472 H 0.10432 0.4513 0.31001 0.0
H473 H 0.08597 0.50943 0.30543 0.0
H474 H 0.98494 0.47573 0.28573 0.0
H475 H 0.0032 0.41726 0.29074 0.0
H476 H 0.99447 0.53634 0.29774 0.0
H477 H 0.06706 0.55496 0.28182 0.0
H478 H 0.07198 0.61325 0.2657 0.0
H479 H 0.06009 0.67274 0.27354 0.0
C480 C 0.13286 0.26431 0.28306 0.0
C481 C 0.11941 0.29169 0.26808 0.0
C482 C 0.1596 0.24585 0.27204 0.0
C483 C 0.17343 0.25427 0.2456 0.0
C484 C 0.15885 0.28067 0.22989 0.0
C485 C 0.13183 0.2993 0.24106 0.0
C486 C 0.20128 0.23397 0.23345 0.0
C487 C 0.22403 0.21793 0.24984 0.0
C488 C 0.24718 0.19162 0.23898 0.0
C489 C 0.27692 0.1841 0.25396 0.0
C490 C 0.29787 0.1576 0.24519 0.0
C491 C 0.28932 0.13859 0.22124 0.0
H492 H 0.21486 0.17559 0.20426 0.0
C493 C 0.2591 0.1453 0.20691 0.0
C494 C 0.23828 0.17163 0.21556 0.0
H495 H 0.25147 0.12999 0.189 0.0
H496 H 0.12272 0.25722 0.30352 0.0
H497 H 0.16898 0.22467 0.28417 0.0
H498 H 0.16856 0.28704 0.20914 0.0
H499 H 0.12118 0.31993 0.22896 0.0
H500 H 0.20237 0.23147 0.21057 0.0
H501 H 0.22501 0.22325 0.27238 0.0
H502 H 0.28386 0.19865 0.27249 0.0
H503 H 0.32077 0.15219 0.25685 0.0
C504 C 0.9518 0.26226 0.70992 0.0
C505 C 0.96083 0.29065 0.72593 0.0
C506 C 0.92641 0.24077 0.71913 0.0
C507 C 0.90952 0.24719 0.74471 0.0
C508 C 0.91964 0.27481 0.76142 0.0
C509 C 0.94532 0.29644 0.75212 0.0
C510 C 0.88336 0.22373 0.75527 0.0
C511 C 0.86471 0.2041 0.73794 0.0
C512 C 0.84357 0.17601 0.74848 0.0
C513 C 0.81609 0.16444 0.73228 0.0
C514 C 0.79645 0.13728 0.74174 0.0
C515 C 0.80409 0.12172 0.76756 0.0
H516 H 0.87391 0.16598 0.78592 0.0
C517 C 0.83246 0.13216 0.78294 0.0
C518 C 0.852 0.159 0.77357 0.0
H519 H 0.83947 0.11961 0.80246 0.0
H520 H 0.9644 0.25669 0.69009 0.0
H521 H 0.92058 0.21888 0.70632 0.0
H522 H 0.90752 0.27976 0.78156 0.0
H523 H 0.95254 0.31791 0.76498 0.0
H524 H 0.88006 0.22209 0.77804 0.0
H525 H 0.86537 0.20817 0.71522 0.0
H526 H 0.80964 0.17665 0.7125 0.0
H527 H 0.77499 0.12901 0.72934 0.0
C528 C 0.94835 0.80829 0.25925 0.0
C529 C 0.96949 0.81312 0.28268 0.0
C530 C 0.92366 0.83241 0.2528 0.0
C531 C 0.921 0.86199 0.26913 0.0
C532 C 0.94289 0.86716 0.29191 0.0
C533 C 0.9667 0.84272 0.29885 0.0
C534 C 0.89776 0.8892 0.26111 0.0
C535 C 0.8643 0.88465 0.25921 0.0
C536 C 0.84228 0.91223 0.24924 0.0
C537 C 0.81115 0.91883 0.26241 0.0
C538 C 0.79004 0.94447 0.25208 0.0
C539 C 0.79952 0.96259 0.22789 0.0
H540 H 0.87566 0.92658 0.21491 0.0
C541 C 0.83088 0.95637 0.2152 0.0
C542 C 0.85207 0.93149 0.22575 0.0
H543 H 0.83873 0.97036 0.19663 0.0
H544 H 0.95058 0.78578 0.24635 0.0
H545 H 0.9073 0.82845 0.23473 0.0
H546 H 0.94145 0.89006 0.30442 0.0
H547 H 0.98324 0.8471 0.31675 0.0
H548 H 0.90852 0.91412 0.25773 0.0
H549 H 0.85306 0.86065 0.26508 0.0
H550 H 0.8032 0.90412 0.28054 0.0
H551 H 0.76596 0.94919 0.26218 0.0
C552 C 0.14131 0.80618 0.75128 0.0
C553 C 0.12774 0.80926 0.72405 0.0
C554 C 0.16465 0.83005 0.76103 0.0
C555 C 0.17428 0.85733 0.74377 0.0
C556 C 0.15913 0.8611 0.71709 0.0
C557 C 0.13611 0.83729 0.70739 0.0
C558 C 0.19865 0.88251 0.75465 0.0
C559 C 0.21741 0.90247 0.73769 0.0
C560 C 0.23937 0.92969 0.74879 0.0
C561 C 0.26702 0.94099 0.73267 0.0
C562 C 0.28847 0.96616 0.74321 0.0
C563 C 0.28256 0.97988 0.77009 0.0
H564 H 0.21052 0.93868 0.78728 0.0
C565 C 0.25392 0.97005 0.78538 0.0
C566 C 0.23246 0.94533 0.77486 0.0
H567 H 0.24831 0.98127 0.80578 0.0
H568 H 0.13451 0.78504 0.76463 0.0
H569 H 0.17547 0.82702 0.78193 0.0
H570 H 0.16458 0.88254 0.70368 0.0
H571 H 0.12488 0.84074 0.68667 0.0
H572 H 0.20137 0.88421 0.77746 0.0
H573 H 0.21733 0.89844 0.71496 0.0
H574 H 0.27242 0.92982 0.71223 0.0
H575 H 0.31015 0.97402 0.73091 0.0
C576 C 0.82739 0.94557 0.77719 0.0
C577 C 0.83766 0.97669 0.78861 0.0
C578 C 0.85092 0.9236 0.76493 0.0
C579 C 0.88537 0.93239 0.76367 0.0
C580 C 0.89569 0.96284 0.7763 0.0
C581 C 0.87217 0.98476 0.78856 0.0
C582 C 0.9114 0.91097 0.74947 0.0
C583 C 0.90451 0.88519 0.73165 0.0
C584 C 0.93135 0.86448 0.71803 0.0
C585 C 0.92518 0.83018 0.71263 0.0
C586 C 0.95062 0.80947 0.7016 0.0
C587 C 0.98257 0.82283 0.69518 0.0
H588 H 0.96804 0.90481 0.71326 0.0
C589 C 0.98809 0.85759 0.69896 0.0
C590 C 0.9628 0.87821 0.71034 0.0
H591 H 0.01241 0.86869 0.69418 0.0
H592 H 0.80099 0.93849 0.77705 0.0
H593 H 0.84174 0.90001 0.75642 0.0
H594 H 0.92203 0.97019 0.77602 0.0
H595 H 0.88096 0.00853 0.79718 0.0
H596 H 0.93762 0.91716 0.75373 0.0
H597 H 0.87864 0.87789 0.72747 0.0
H598 H 0.90101 0.81907 0.71794 0.0
H599 H 0.94553 0.7828 0.69885 0.0
C600 C 0.23891 0.98059 0.20634 0.0
C601 C 0.27204 0.98594 0.21593 0.0
C602 C 0.21796 0.95722 0.21999 0.0
C603 C 0.22957 0.9395 0.24387 0.0
C604 C 0.26265 0.94482 0.25336 0.0
C605 C 0.28387 0.96738 0.23926 0.0
C606 C 0.20715 0.91661 0.26003 0.0
C607 C 0.18655 0.89446 0.24719 0.0
C608 C 0.16471 0.87087 0.2632 0.0
C609 C 0.16101 0.83767 0.25343 0.0
C610 C 0.13896 0.81543 0.26696 0.0
C611 C 0.1193 0.82629 0.29002 0.0
H612 H 0.14814 0.90716 0.29467 0.0
C613 C 0.12324 0.85946 0.30005 0.0
C614 C 0.14608 0.88148 0.28696 0.0
H615 H 0.10822 0.86856 0.31764 0.0
H616 H 0.22909 0.99475 0.18855 0.0
H617 H 0.19234 0.95391 0.21248 0.0
H618 H 0.27206 0.93154 0.27179 0.0
H619 H 0.30915 0.97128 0.24737 0.0
H620 H 0.20922 0.91651 0.28297 0.0
H621 H 0.18716 0.89213 0.22426 0.0
H622 H 0.17501 0.82899 0.2351 0.0
H623 H 0.13621 0.79014 0.25851 0.0
C624 C 0.13631 0.27488 0.7168 0.0
C625 C 0.10596 0.26379 0.70451 0.0
C626 C 0.15852 0.25188 0.72944 0.0
C627 C 0.15075 0.21717 0.7302 0.0
C628 C 0.12122 0.20603 0.71662 0.0
C629 C 0.09904 0.22902 0.704 0.0
C630 C 0.17236 0.19169 0.74484 0.0
C631 C 0.19645 0.19924 0.76406 0.0
C632 C 0.21747 0.17304 0.77817 0.0
C633 C 0.25091 0.18078 0.78553 0.0
C634 C 0.27209 0.15608 0.79706 0.0
C635 C 0.26002 0.12326 0.80204 0.0
H636 H 0.1789 0.13414 0.77999 0.0
C637 C 0.22595 0.11608 0.79633 0.0
C638 C 0.2049 0.14066 0.78443 0.0
H639 H 0.21585 0.09104 0.79995 0.0
H640 H 0.14251 0.3015 0.7174 0.0
H641 H 0.18148 0.26166 0.73866 0.0
H642 H 0.11471 0.17946 0.71647 0.0
H643 H 0.0759 0.21958 0.69469 0.0
H644 H 0.1677 0.16534 0.73977 0.0
H645 H 0.20208 0.22533 0.76913 0.0
H646 H 0.26109 0.20567 0.78135 0.0
H647 H 0.29819 0.16245 0.8013 0.0
C648 C 0.94594 0.26094 0.28697 0.0
C649 C 0.97817 0.25193 0.29683 0.0
C650 C 0.92449 0.23668 0.27515 0.0
C651 C 0.93492 0.20279 0.27274 0.0
C652 C 0.9664 0.19355 0.28404 0.0
C653 C 0.98786 0.21782 0.29586 0.0
C654 C 0.91395 0.1764 0.25866 0.0
C655 C 0.88935 0.1832 0.23972 0.0
C656 C 0.86869 0.15659 0.22576 0.0
C657 C 0.8355 0.1643 0.21759 0.0
C658 C 0.81472 0.13955 0.20566 0.0
C659 C 0.82692 0.10667 0.20113 0.0
H660 H 0.90719 0.1175 0.22522 0.0
C661 C 0.8607 0.09938 0.20792 0.0
C662 C 0.88137 0.12405 0.22017 0.0
H663 H 0.87089 0.07431 0.20463 0.0
H664 H 0.93757 0.28697 0.28764 0.0
H665 H 0.89993 0.24479 0.26785 0.0
H666 H 0.97494 0.16758 0.28291 0.0
H667 H 0.0125 0.21 0.3033 0.0
H668 H 0.91968 0.15028 0.26372 0.0
H669 H 0.88321 0.20917 0.23459 0.0
H670 H 0.82524 0.18929 0.22126 0.0
H671 H 0.78885 0.14599 0.20058 0.0
loop_
_geom_bond_atom_site_label_1
_geom_bond_atom_site_label_2
_geom_bond_distance
_geom_bond_site_symmetry_2
_ccdc_geom_bond_type
Mn0 O5 2.095 . S
Mn0 O15 2.162 . S
Mn0 O16 2.297 . S
Mn0 O24 2.385 . S
Mn0 O25 2.209 . S
Mn0 O26 2.094 . S
Mn1 O6 2.121 . S
Mn1 N8 2.257 . S
Mn1 N17 2.282 . S
Mn1 O25 2.215 . S
Mn1 O27 2.117 . S
C2 O24 1.234 . S
C2 O25 1.283 . S
C3 O15 1.281 . S
C3 O16 1.236 . S
C4 O26 1.240 . S
C4 O27 1.264 . S
O5 Mn0 2.095 . S
O5 C14 1.250 . S
O6 Mn1 2.121 . S
O6 C14 1.258 . S
C7 N8 1.326 . S
C7 C11 1.460 . S
C7 H13 0.929 . S
N8 Mn1 2.257 . S
N8 C7 1.326 . S
N8 C12 1.362 . S
C9 C10 1.258 . S
C9 C12 1.431 . S
C9 C29 1.449 . S
C10 C9 1.258 . S
C10 C11 1.477 . S
C10 H30 0.931 . S
C11 C7 1.460 . S
C11 C10 1.477 . S
C11 H31 0.930 . S
C12 N8 1.362 . S
C12 C9 1.431 . S
C12 C22 1.476 . S
H13 C7 0.929 . S
C14 O5 1.250 . S
C14 O6 1.258 . S
O15 Mn0 2.162 . S
O15 C3 1.281 . S
O16 Mn0 2.297 . S
O16 C3 1.236 . S
N17 Mn1 2.282 . S
N17 C18 1.328 . S
N17 C22 1.318 . S
C18 N17 1.328 . S
C18 C19 1.457 . S
C18 H23 0.929 . S
C19 C18 1.457 . S
C19 C20 1.291 . S
C19 H32 0.931 . S
C20 C19 1.291 . S
C20 C21 1.373 . S
C20 H33 0.929 . S
C21 C20 1.373 . S
C21 C22 1.396 . S
C21 C28 1.403 . S
C22 C12 1.476 . S
C22 N17 1.318 . S
C22 C21 1.396 . S
H23 C18 0.929 . S
O24 Mn0 2.385 . S
O24 C2 1.234 . S
O25 Mn0 2.209 . S
O25 Mn1 2.215 . S
O25 C2 1.283 . S
O26 Mn0 2.094 . S
O26 C4 1.240 . S
O27 Mn1 2.117 . S
O27 C4 1.264 . S
C28 C21 1.403 . S
C28 C29 1.399 . S
C28 H34 0.929 . S
C29 C9 1.449 . S
C29 C28 1.399 . S
C29 H35 0.930 . S
H30 C10 0.931 . S
H31 C11 0.930 . S
H32 C19 0.931 . S
H33 C20 0.929 . S
H34 C28 0.929 . S
H35 C29 0.930 . S
Mn36 O41 2.095 . S
Mn36 O51 2.162 . S
Mn36 O52 2.297 . S
Mn36 O60 2.385 . S
Mn36 O61 2.209 1_455 S
Mn36 O62 2.094 . S
Mn37 O42 2.121 1_655 S
Mn37 N44 2.257 . S
Mn37 N53 2.282 . S
Mn37 O61 2.215 . S
Mn37 O63 2.117 . S
C38 O60 1.234 1_655 S
C38 O61 1.283 . S
C39 O51 1.281 . S
C39 O52 1.236 . S
C40 O62 1.240 . S
C40 O63 1.264 1_455 S
O41 Mn36 2.095 . S
O41 C50 1.250 . S
O42 Mn37 2.121 1_455 S
O42 C50 1.258 . S
C43 N44 1.326 . S
C43 C47 1.460 . S
C43 H49 0.929 . S
N44 Mn37 2.257 . S
N44 C43 1.326 . S
N44 C48 1.362 . S
C45 C46 1.258 . S
C45 C48 1.431 . S
C45 C65 1.449 . S
C46 C45 1.258 . S
C46 C47 1.477 . S
C46 H66 0.931 . S
C47 C43 1.460 . S
C47 C46 1.477 . S
C47 H67 0.930 . S
C48 N44 1.362 . S
C48 C45 1.431 . S
C48 C58 1.476 . S
H49 C43 0.929 . S
C50 O41 1.250 . S
C50 O42 1.258 . S
O51 Mn36 2.162 . S
O51 C39 1.281 . S
O52 Mn36 2.297 . S
O52 C39 1.236 . S
N53 Mn37 2.282 . S
N53 C54 1.328 . S
N53 C58 1.318 . S
C54 N53 1.328 . S
C54 C55 1.457 . S
C54 H59 0.929 . S
C55 C54 1.457 . S
C55 C56 1.291 . S
C55 H68 0.931 . S
C56 C55 1.291 . S
C56 C57 1.373 . S
C56 H69 0.929 . S
C57 C56 1.373 . S
C57 C58 1.396 . S
C57 C64 1.403 . S
C58 C48 1.476 . S
C58 N53 1.318 . S
C58 C57 1.396 . S
H59 C54 0.929 . S
O60 Mn36 2.385 . S
O60 C38 1.234 1_455 S
O61 Mn36 2.209 1_655 S
O61 Mn37 2.215 . S
O61 C38 1.283 . S
O62 Mn36 2.094 . S
O62 C40 1.240 . S
O63 Mn37 2.117 . S
O63 C40 1.264 1_655 S
C64 C57 1.403 . S
C64 C65 1.399 . S
C64 H70 0.929 . S
C65 C45 1.449 . S
C65 C64 1.399 . S
C65 H71 0.930 . S
H66 C46 0.931 . S
H67 C47 0.930 . S
H68 C55 0.931 . S
H69 C56 0.929 . S
H70 C64 0.929 . S
H71 C65 0.930 . S
Mn72 O77 2.095 . S
Mn72 O87 2.162 . S
Mn72 O88 2.297 . S
Mn72 O96 2.385 . S
Mn72 O97 2.209 1_545 S
Mn72 O98 2.094 . S
Mn73 O78 2.121 1_565 S
Mn73 N80 2.257 . S
Mn73 N89 2.282 . S
Mn73 O97 2.215 . S
Mn73 O99 2.117 . S
C74 O96 1.234 1_565 S
C74 O97 1.283 . S
C75 O87 1.281 . S
C75 O88 1.236 . S
C76 O98 1.240 . S
C76 O99 1.264 1_545 S
O77 Mn72 2.095 . S
O77 C86 1.250 . S
O78 Mn73 2.121 1_545 S
O78 C86 1.258 . S
C79 N80 1.326 . S
C79 C83 1.460 . S
C79 H85 0.929 . S
N80 Mn73 2.257 . S
N80 C79 1.326 . S
N80 C84 1.362 . S
C81 C82 1.258 . S
C81 C84 1.431 . S
C81 C101 1.449 . S
C82 C81 1.258 . S
C82 C83 1.477 . S
C82 H102 0.931 . S
C83 C79 1.460 . S
C83 C82 1.477 . S
C83 H103 0.930 . S
C84 N80 1.362 . S
C84 C81 1.431 . S
C84 C94 1.476 . S
H85 C79 0.929 . S
C86 O77 1.250 . S
C86 O78 1.258 . S
O87 Mn72 2.162 . S
O87 C75 1.281 . S
O88 Mn72 2.297 . S
O88 C75 1.236 . S
N89 Mn73 2.282 . S
N89 C90 1.328 . S
N89 C94 1.318 . S
C90 N89 1.328 . S
C90 C91 1.457 . S
C90 H95 0.929 . S
C91 C90 1.457 . S
C91 C92 1.291 . S
C91 H104 0.931 . S
C92 C91 1.291 . S
C92 C93 1.373 . S
C92 H105 0.929 . S
C93 C92 1.373 . S
C93 C94 1.396 . S
C93 C100 1.403 . S
C94 C84 1.476 . S
C94 N89 1.318 . S
C94 C93 1.396 . S
H95 C90 0.929 . S
O96 Mn72 2.385 . S
O96 C74 1.234 1_545 S
O97 Mn72 2.209 1_565 S
O97 Mn73 2.215 . S
O97 C74 1.283 . S
O98 Mn72 2.094 . S
O98 C76 1.240 . S
O99 Mn73 2.117 . S
O99 C76 1.264 1_565 S
C100 C93 1.403 . S
C100 C101 1.399 . S
C100 H106 0.929 . S
C101 C81 1.449 . S
C101 C100 1.399 . S
C101 H107 0.930 . S
H102 C82 0.931 . S
H103 C83 0.930 . S
H104 C91 0.931 . S
H105 C92 0.929 . S
H106 C100 0.929 . S
H107 C101 0.930 . S
Mn108 O113 2.095 . S
Mn108 O123 2.162 . S
Mn108 O124 2.297 . S
Mn108 O132 2.385 . S
Mn108 O133 2.209 . S
Mn108 O134 2.094 . S
Mn109 O114 2.121 . S
Mn109 N116 2.257 . S
Mn109 N125 2.282 . S
Mn109 O133 2.215 . S
Mn109 O135 2.117 . S
C110 O132 1.234 . S
C110 O133 1.283 . S
C111 O123 1.281 . S
C111 O124 1.236 . S
C112 O134 1.240 . S
C112 O135 1.264 . S
O113 Mn108 2.095 . S
O113 C122 1.250 . S
O114 Mn109 2.121 . S
O114 C122 1.258 . S
C115 N116 1.326 . S
C115 C119 1.460 . S
C115 H121 0.929 . S
N116 Mn109 2.257 . S
N116 C115 1.326 . S
N116 C120 1.362 . S
C117 C118 1.258 . S
C117 C120 1.431 . S
C117 C137 1.449 . S
C118 C117 1.258 . S
C118 C119 1.477 . S
C118 H138 0.931 . S
C119 C115 1.460 . S
C119 C118 1.477 . S
C119 H139 0.930 . S
C120 N116 1.362 . S
C120 C117 1.431 . S
C120 C130 1.476 . S
H121 C115 0.929 . S
C122 O113 1.250 . S
C122 O114 1.258 . S
O123 Mn108 2.162 . S
O123 C111 1.281 . S
O124 Mn108 2.297 . S
O124 C111 1.236 . S
N125 Mn109 2.282 . S
N125 C126 1.328 . S
N125 C130 1.318 . S
C126 N125 1.328 . S
C126 C127 1.457 . S
C126 H131 0.929 . S
C127 C126 1.457 . S
C127 C128 1.291 . S
C127 H140 0.931 . S
C128 C127 1.291 . S
C128 C129 1.373 . S
C128 H141 0.929 . S
C129 C128 1.373 . S
C129 C130 1.396 . S
C129 C136 1.403 . S
C130 C120 1.476 . S
C130 N125 1.318 . S
C130 C129 1.396 . S
H131 C126 0.929 . S
O132 Mn108 2.385 . S
O132 C110 1.234 . S
O133 Mn108 2.209 . S
O133 Mn109 2.215 . S
O133 C110 1.283 . S
O134 Mn108 2.094 . S
O134 C112 1.240 . S
O135 Mn109 2.117 . S
O135 C112 1.264 . S
C136 C129 1.403 . S
C136 C137 1.399 . S
C136 H142 0.929 . S
C137 C117 1.449 . S
C137 C136 1.399 . S
C137 H143 0.930 . S
H138 C118 0.931 . S
H139 C119 0.930 . S
H140 C127 0.931 . S
H141 C128 0.929 . S
H142 C136 0.929 . S
H143 C137 0.930 . S
Mn144 O149 2.095 . S
Mn144 O159 2.162 . S
Mn144 O160 2.297 . S
Mn144 O168 2.385 . S
Mn144 O169 2.209 1_545 S
Mn144 O170 2.094 . S
Mn145 O150 2.121 1_565 S
Mn145 N152 2.257 . S
Mn145 N161 2.282 . S
Mn145 O169 2.215 . S
Mn145 O171 2.117 . S
C146 O168 1.234 1_565 S
C146 O169 1.283 . S
C147 O159 1.281 . S
C147 O160 1.236 . S
C148 O170 1.240 . S
C148 O171 1.264 1_545 S
O149 Mn144 2.095 . S
O149 C158 1.250 . S
O150 Mn145 2.121 1_545 S
O150 C158 1.258 . S
C151 N152 1.326 . S
C151 C155 1.460 . S
C151 H157 0.929 . S
N152 Mn145 2.257 . S
N152 C151 1.326 . S
N152 C156 1.362 . S
C153 C154 1.258 . S
C153 C156 1.431 . S
C153 C173 1.449 . S
C154 C153 1.258 . S
C154 C155 1.477 . S
C154 H174 0.931 . S
C155 C151 1.460 . S
C155 C154 1.477 . S
C155 H175 0.930 . S
C156 N152 1.362 . S
C156 C153 1.431 . S
C156 C166 1.476 . S
H157 C151 0.929 . S
C158 O149 1.250 . S
C158 O150 1.258 . S
O159 Mn144 2.162 . S
O159 C147 1.281 . S
O160 Mn144 2.297 . S
O160 C147 1.236 . S
N161 Mn145 2.282 . S
N161 C162 1.328 . S
N161 C166 1.318 . S
C162 N161 1.328 . S
C162 C163 1.457 . S
C162 H167 0.929 . S
C163 C162 1.457 . S
C163 C164 1.291 . S
C163 H176 0.931 . S
C164 C163 1.291 . S
C164 C165 1.373 . S
C164 H177 0.929 . S
C165 C164 1.373 . S
C165 C166 1.396 . S
C165 C172 1.403 . S
C166 C156 1.476 . S
C166 N161 1.318 . S
C166 C165 1.396 . S
H167 C162 0.929 . S
O168 Mn144 2.385 . S
O168 C146 1.234 1_545 S
O169 Mn144 2.209 1_565 S
O169 Mn145 2.215 . S
O169 C146 1.283 . S
O170 Mn144 2.094 . S
O170 C148 1.240 . S
O171 Mn145 2.117 . S
O171 C148 1.264 1_565 S
C172 C165 1.403 . S
C172 C173 1.399 . S
C172 H178 0.929 . S
C173 C153 1.449 . S
C173 C172 1.399 . S
C173 H179 0.930 . S
H174 C154 0.931 . S
H175 C155 0.930 . S
H176 C163 0.931 . S
H177 C164 0.929 . S
H178 C172 0.929 . S
H179 C173 0.930 . S
Mn180 O185 2.095 . S
Mn180 O195 2.162 . S
Mn180 O196 2.297 . S
Mn180 O204 2.385 . S
Mn180 O205 2.209 . S
Mn180 O206 2.094 . S
Mn181 O186 2.121 . S
Mn181 N188 2.257 . S
Mn181 N197 2.282 . S
Mn181 O205 2.215 . S
Mn181 O207 2.117 . S
C182 O204 1.234 . S
C182 O205 1.283 . S
C183 O195 1.281 . S
C183 O196 1.236 . S
C184 O206 1.240 . S
C184 O207 1.264 . S
O185 Mn180 2.095 . S
O185 C194 1.250 . S
O186 Mn181 2.121 . S
O186 C194 1.258 . S
C187 N188 1.326 . S
C187 C191 1.460 . S
C187 H193 0.929 . S
N188 Mn181 2.257 . S
N188 C187 1.326 . S
N188 C192 1.362 . S
C189 C190 1.258 . S
C189 C192 1.431 . S
C189 C209 1.449 . S
C190 C189 1.258 . S
C190 C191 1.477 . S
C190 H210 0.931 . S
C191 C187 1.460 . S
C191 C190 1.477 . S
C191 H211 0.930 . S
C192 N188 1.362 . S
C192 C189 1.431 . S
C192 C202 1.476 . S
H193 C187 0.929 . S
C194 O185 1.250 . S
C194 O186 1.258 . S
O195 Mn180 2.162 . S
O195 C183 1.281 . S
O196 Mn180 2.297 . S
O196 C183 1.236 . S
N197 Mn181 2.282 . S
N197 C198 1.328 . S
N197 C202 1.318 . S
C198 N197 1.328 . S
C198 C199 1.457 . S
C198 H203 0.929 . S
C199 C198 1.457 . S
C199 C200 1.291 . S
C199 H212 0.931 . S
C200 C199 1.291 . S
C200 C201 1.373 . S
C200 H213 0.929 . S
C201 C200 1.373 . S
C201 C202 1.396 . S
C201 C208 1.403 . S
C202 C192 1.476 . S
C202 N197 1.318 . S
C202 C201 1.396 . S
H203 C198 0.929 . S
O204 Mn180 2.385 . S
O204 C182 1.234 . S
O205 Mn180 2.209 . S
O205 Mn181 2.215 . S
O205 C182 1.283 . S
O206 Mn180 2.094 . S
O206 C184 1.240 . S
O207 Mn181 2.117 . S
O207 C184 1.264 . S
C208 C201 1.403 . S
C208 C209 1.399 . S
C208 H214 0.929 . S
C209 C189 1.449 . S
C209 C208 1.399 . S
C209 H215 0.930 . S
H210 C190 0.931 . S
H211 C191 0.930 . S
H212 C199 0.931 . S
H213 C200 0.929 . S
H214 C208 0.929 . S
H215 C209 0.930 . S
Mn216 O221 2.095 . S
Mn216 O231 2.162 . S
Mn216 O232 2.297 . S
Mn216 O240 2.385 . S
Mn216 O241 2.209 . S
Mn216 O242 2.094 . S
Mn217 O222 2.121 . S
Mn217 N224 2.257 . S
Mn217 N233 2.282 . S
Mn217 O241 2.215 . S
Mn217 O243 2.117 . S
C218 O240 1.234 . S
C218 O241 1.283 . S
C219 O231 1.281 . S
C219 O232 1.236 . S
C220 O242 1.240 . S
C220 O243 1.264 . S
O221 Mn216 2.095 . S
O221 C230 1.250 . S
O222 Mn217 2.121 . S
O222 C230 1.258 . S
C223 N224 1.326 . S
C223 C227 1.460 . S
C223 H229 0.929 . S
N224 Mn217 2.257 . S
N224 C223 1.326 . S
N224 C228 1.362 . S
C225 C226 1.258 . S
C225 C228 1.431 . S
C225 C245 1.449 . S
C226 C225 1.258 . S
C226 C227 1.477 . S
C226 H246 0.931 . S
C227 C223 1.460 . S
C227 C226 1.477 . S
C227 H247 0.930 . S
C228 N224 1.362 . S
C228 C225 1.431 . S
C228 C238 1.476 . S
H229 C223 0.929 . S
C230 O221 1.250 . S
C230 O222 1.258 . S
O231 Mn216 2.162 . S
O231 C219 1.281 . S
O232 Mn216 2.297 . S
O232 C219 1.236 . S
N233 Mn217 2.282 . S
N233 C234 1.328 . S
N233 C238 1.318 . S
C234 N233 1.328 . S
C234 C235 1.457 . S
C234 H239 0.929 . S
C235 C234 1.457 . S
C235 C236 1.291 . S
C235 H248 0.931 . S
C236 C235 1.291 . S
C236 C237 1.373 . S
C236 H249 0.929 . S
C237 C236 1.373 . S
C237 C238 1.396 . S
C237 C244 1.403 . S
C238 C228 1.476 . S
C238 N233 1.318 . S
C238 C237 1.396 . S
H239 C234 0.929 . S
O240 Mn216 2.385 . S
O240 C218 1.234 . S
O241 Mn216 2.209 . S
O241 Mn217 2.215 . S
O241 C218 1.283 . S
O242 Mn216 2.094 . S
O242 C220 1.240 . S
O243 Mn217 2.117 . S
O243 C220 1.264 . S
C244 C237 1.403 . S
C244 C245 1.399 . S
C244 H250 0.929 . S
C245 C225 1.449 . S
C245 C244 1.399 . S
C245 H251 0.930 . S
H246 C226 0.931 . S
H247 C227 0.930 . S
H248 C235 0.931 . S
H249 C236 0.929 . S
H250 C244 0.929 . S
H251 C245 0.930 . S
Mn252 O257 2.095 . S
Mn252 O267 2.162 . S
Mn252 O268 2.297 . S
Mn252 O276 2.385 . S
Mn252 O277 2.209 1_455 S
Mn252 O278 2.094 . S
Mn253 O258 2.121 1_655 S
Mn253 N260 2.257 . S
Mn253 N269 2.282 . S
Mn253 O277 2.215 . S
Mn253 O279 2.117 . S
C254 O276 1.234 1_655 S
C254 O277 1.283 . S
C255 O267 1.281 . S
C255 O268 1.236 . S
C256 O278 1.240 . S
C256 O279 1.264 1_455 S
O257 Mn252 2.095 . S
O257 C266 1.250 . S
O258 Mn253 2.121 1_455 S
O258 C266 1.258 . S
C259 N260 1.326 . S
C259 C263 1.460 . S
C259 H265 0.929 . S
N260 Mn253 2.257 . S
N260 C259 1.326 . S
N260 C264 1.362 . S
C261 C262 1.258 . S
C261 C264 1.431 . S
C261 C281 1.449 . S
C262 C261 1.258 . S
C262 C263 1.477 . S
C262 H282 0.931 . S
C263 C259 1.460 . S
C263 C262 1.477 . S
C263 H283 0.930 . S
C264 N260 1.362 . S
C264 C261 1.431 . S
C264 C274 1.476 . S
H265 C259 0.929 . S
C266 O257 1.250 . S
C266 O258 1.258 . S
O267 Mn252 2.162 . S
O267 C255 1.281 . S
O268 Mn252 2.297 . S
O268 C255 1.236 . S
N269 Mn253 2.282 . S
N269 C270 1.328 . S
N269 C274 1.318 . S
C270 N269 1.328 . S
C270 C271 1.457 . S
C270 H275 0.929 . S
C271 C270 1.457 . S
C271 C272 1.291 . S
C271 H284 0.931 . S
C272 C271 1.291 . S
C272 C273 1.373 . S
C272 H285 0.929 . S
C273 C272 1.373 . S
C273 C274 1.396 . S
C273 C280 1.403 . S
C274 C264 1.476 . S
C274 N269 1.318 . S
C274 C273 1.396 . S
H275 C270 0.929 . S
O276 Mn252 2.385 . S
O276 C254 1.234 1_455 S
O277 Mn252 2.209 1_655 S
O277 Mn253 2.215 . S
O277 C254 1.283 . S
O278 Mn252 2.094 . S
O278 C256 1.240 . S
O279 Mn253 2.117 . S
O279 C256 1.264 1_655 S
C280 C273 1.403 . S
C280 C281 1.399 . S
C280 H286 0.929 . S
C281 C261 1.449 . S
C281 C280 1.399 . S
C281 H287 0.930 . S
H282 C262 0.931 . S
H283 C263 0.930 . S
H284 C271 0.931 . S
H285 C272 0.929 . S
H286 C280 0.929 . S
H287 C281 0.930 . S
C288 C289 1.386 . S
C288 C290 1.383 . S
C288 H304 0.951 . S
C289 C288 1.386 . S
C289 C293 1.383 . S
C290 C288 1.383 . S
C290 C291 1.402 . S
C290 H305 0.951 . S
C291 C290 1.402 . S
C291 C292 1.375 . S
C291 C294 1.481 . S
C292 C291 1.375 . S
C292 C293 1.367 . S
C292 H306 0.951 . S
C293 C289 1.383 . S
C293 C292 1.367 . S
C293 H307 0.950 . S
C294 C291 1.481 . S
C294 C295 1.297 1_554 S
C294 H308 0.950 . S
C295 C294 1.297 1_556 S
C295 C296 1.479 . S
C295 H309 0.950 . S
C296 C295 1.479 . S
C296 C297 1.375 . S
C296 C302 1.404 . S
C297 C296 1.375 . S
C297 C298 1.369 . S
C297 H310 0.950 . S
C298 C297 1.369 . S
C298 C299 1.392 . S
C298 H311 0.951 . S
C299 C298 1.392 . S
C299 C301 1.384 . S
H300 C302 0.949 . S
C301 C299 1.384 . S
C301 C302 1.385 . S
C301 H303 0.950 . S
C302 C296 1.404 . S
C302 H300 0.949 . S
C302 C301 1.385 . S
H303 C301 0.950 . S
H304 C288 0.951 . S
H305 C290 0.951 . S
H306 C292 0.951 . S
H307 C293 0.950 . S
H308 C294 0.950 . S
H309 C295 0.950 . S
H310 C297 0.950 . S
H311 C298 0.951 . S
C312 C313 1.386 . S
C312 C314 1.383 . S
C312 H328 0.951 1_455 S
C313 C312 1.386 . S
C313 C317 1.383 . S
C314 C312 1.383 . S
C314 C315 1.402 . S
C314 H329 0.951 . S
C315 C314 1.402 . S
C315 C316 1.375 . S
C315 C318 1.481 . S
C316 C315 1.375 . S
C316 C317 1.367 . S
C316 H330 0.951 . S
C317 C313 1.383 . S
C317 C316 1.367 . S
C317 H331 0.950 . S
C318 C315 1.481 . S
C318 C319 1.297 . S
C318 H332 0.950 . S
C319 C318 1.297 . S
C319 C320 1.479 . S
C319 H333 0.950 . S
C320 C319 1.479 . S
C320 C321 1.375 . S
C320 C326 1.404 . S
C321 C320 1.375 . S
C321 C322 1.369 . S
C321 H334 0.950 1_455 S
C322 C321 1.369 . S
C322 C323 1.392 . S
C322 H335 0.948 . S
C323 C322 1.392 . S
C323 C325 1.384 . S
H324 C326 0.949 . S
C325 C323 1.384 . S
C325 C326 1.385 . S
C325 H327 0.950 . S
C326 C320 1.404 . S
C326 H324 0.949 . S
C326 C325 1.385 . S
H327 C325 0.950 . S
H328 C312 0.951 1_655 S
H329 C314 0.951 . S
H330 C316 0.951 . S
H331 C317 0.950 . S
H332 C318 0.950 . S
H333 C319 0.950 . S
H334 C321 0.950 1_655 S
H335 C322 0.948 . S
C336 C337 1.386 . S
C336 C338 1.383 . S
C336 H352 0.951 . S
C337 C336 1.386 . S
C337 C341 1.383 . S
C338 C336 1.383 . S
C338 C339 1.402 . S
C338 H353 0.951 . S
C339 C338 1.402 . S
C339 C340 1.375 . S
C339 C342 1.481 . S
C340 C339 1.375 . S
C340 C341 1.367 . S
C340 H354 0.951 1_545 S
C341 C337 1.383 . S
C341 C340 1.367 . S
C341 H355 0.968 . S
C342 C339 1.481 . S
C342 C343 1.297 1_556 S
C342 H356 0.950 . S
C343 C342 1.297 1_554 S
C343 C344 1.479 . S
C343 H357 0.950 . S
C344 C343 1.479 . S
C344 C345 1.375 . S
C344 C350 1.404 . S
C345 C344 1.375 . S
C345 C346 1.369 . S
C345 H358 0.950 . S
C346 C345 1.369 . S
C346 C347 1.392 . S
C346 H359 0.951 . S
C347 C346 1.392 . S
C347 C349 1.384 . S
H348 C350 0.949 1_565 S
C349 C347 1.384 . S
C349 C350 1.385 . S
C349 H351 0.950 1_545 S
C350 C344 1.404 . S
C350 H348 0.949 1_545 S
C350 C349 1.385 . S
H351 C349 0.950 1_565 S
H352 C336 0.951 . S
H353 C338 0.951 . S
H354 C340 0.951 1_565 S
H355 C341 0.968 . S
H356 C342 0.950 . S
H357 C343 0.950 . S
H358 C345 0.950 . S
H359 C346 0.951 . S
C360 C361 1.386 . S
C360 C362 1.383 . S
C360 H376 0.951 . S
C361 C360 1.386 . S
C361 C365 1.383 . S
C362 C360 1.383 . S
C362 C363 1.402 . S
C362 H377 0.951 . S
C363 C362 1.402 . S
C363 C364 1.375 . S
C363 C366 1.481 . S
C364 C363 1.375 . S
C364 C365 1.367 . S
C364 H378 0.951 1_455 S
C365 C361 1.383 . S
C365 C364 1.367 . S
C365 H379 0.950 1_455 S
C366 C363 1.481 . S
C366 C367 1.297 . S
C366 H380 0.950 . S
C367 C366 1.297 . S
C367 C368 1.479 . S
C367 H381 0.950 . S
C368 C367 1.479 . S
C368 C369 1.375 . S
C368 C374 1.404 . S
C369 C368 1.375 . S
C369 C370 1.369 . S
C369 H382 0.950 . S
C370 C369 1.369 . S
C370 C371 1.392 . S
C370 H383 0.951 . S
C371 C370 1.392 . S
C371 C373 1.384 . S
H372 C374 0.949 . S
C373 C371 1.384 . S
C373 C374 1.385 . S
C373 H375 0.950 . S
C374 C368 1.404 . S
C374 H372 0.949 . S
C374 C373 1.385 . S
H375 C373 0.950 . S
H376 C360 0.951 . S
H377 C362 0.951 . S
H378 C364 0.951 1_655 S
H379 C365 0.950 1_655 S
H380 C366 0.950 . S
H381 C367 0.950 . S
H382 C369 0.950 . S
H383 C370 0.951 . S
C384 C385 1.386 . S
C384 C386 1.383 . S
C384 H400 0.951 . S
C385 C384 1.386 . S
C385 C389 1.383 . S
C386 C384 1.383 . S
C386 C387 1.402 . S
C386 H401 0.951 . S
C387 C386 1.402 . S
C387 C388 1.375 . S
C387 C390 1.481 . S
C388 C387 1.375 . S
C388 C389 1.367 . S
C388 H402 0.951 . S
C389 C385 1.383 . S
C389 C388 1.367 . S
C389 H403 0.950 . S
C390 C387 1.481 . S
C390 C391 1.297 . S
C390 H404 0.950 . S
C391 C390 1.297 . S
C391 C392 1.479 . S
C391 H405 0.950 . S
C392 C391 1.479 . S
C392 C393 1.375 . S
C392 C398 1.404 . S
C393 C392 1.375 . S
C393 C394 1.369 . S
C393 H406 0.950 . S
C394 C393 1.369 . S
C394 C395 1.392 . S
C394 H407 0.951 . S
C395 C394 1.392 . S
C395 C397 1.384 . S
H396 C398 0.949 . S
C397 C395 1.384 . S
C397 C398 1.385 . S
C397 H399 0.950 . S
C398 C392 1.404 . S
C398 H396 0.949 . S
C398 C397 1.385 . S
H399 C397 0.950 . S
H400 C384 0.951 . S
H401 C386 0.951 . S
H402 C388 0.951 . S
H403 C389 0.950 . S
H404 C390 0.950 . S
H405 C391 0.950 . S
H406 C393 0.950 . S
H407 C394 0.951 . S
C408 C409 1.386 . S
C408 C410 1.383 . S
C408 H424 0.951 . S
C409 C408 1.386 . S
C409 C413 1.383 . S
C410 C408 1.383 . S
C410 C411 1.402 . S
C410 H425 0.951 . S
C411 C410 1.402 . S
C411 C412 1.375 . S
C411 C414 1.481 . S
C412 C411 1.375 . S
C412 C413 1.367 . S
C412 H426 0.951 1_455 S
C413 C409 1.383 . S
C413 C412 1.367 . S
C413 H427 0.950 1_455 S
C414 C411 1.481 . S
C414 C415 1.297 . S
C414 H428 0.950 . S
C415 C414 1.297 . S
C415 C416 1.479 . S
C415 H429 0.950 . S
C416 C415 1.479 . S
C416 C417 1.375 . S
C416 C422 1.404 . S
C417 C416 1.375 . S
C417 C418 1.369 . S
C417 H430 0.950 . S
C418 C417 1.369 . S
C418 C419 1.392 . S
C418 H431 0.951 . S
C419 C418 1.392 . S
C419 C421 1.384 . S
H420 C422 0.949 . S
C421 C419 1.384 . S
C421 C422 1.385 . S
C421 H423 0.950 . S
C422 C416 1.404 . S
C422 H420 0.949 . S
C422 C421 1.385 . S
H423 C421 0.950 . S
H424 C408 0.951 . S
H425 C410 0.951 . S
H426 C412 0.951 1_655 S
H427 C413 0.950 1_655 S
H428 C414 0.950 . S
H429 C415 0.950 . S
H430 C417 0.950 . S
H431 C418 0.951 . S
C432 C433 1.386 . S
C432 C434 1.383 . S
C432 H448 0.951 . S
C433 C432 1.386 . S
C433 C437 1.383 . S
C434 C432 1.383 . S
C434 C435 1.402 . S
C434 H449 0.951 . S
C435 C434 1.402 . S
C435 C436 1.375 . S
C435 C438 1.481 . S
C436 C435 1.375 . S
C436 C437 1.367 . S
C436 H450 0.951 . S
C437 C433 1.383 . S
C437 C436 1.367 . S
C437 H451 0.950 . S
C438 C435 1.481 . S
C438 C439 1.297 . S
C438 H452 0.950 . S
C439 C438 1.297 . S
C439 C440 1.479 . S
C439 H453 0.950 . S
C440 C439 1.479 . S
C440 C441 1.375 . S
C440 C446 1.404 . S
C441 C440 1.375 . S
C441 C442 1.369 . S
C441 H454 0.950 . S
C442 C441 1.369 . S
C442 C443 1.392 . S
C442 H455 0.951 . S
C443 C442 1.392 . S
C443 C445 1.384 . S
H444 C446 0.949 . S
C445 C443 1.384 . S
C445 C446 1.385 . S
C445 H447 0.950 . S
C446 C440 1.404 . S
C446 H444 0.949 . S
C446 C445 1.385 . S
H447 C445 0.950 . S
H448 C432 0.951 . S
H449 C434 0.951 . S
H450 C436 0.951 . S
H451 C437 0.950 . S
H452 C438 0.950 . S
H453 C439 0.950 . S
H454 C441 0.950 . S
H455 C442 0.951 . S
C456 C457 1.386 . S
C456 C458 1.383 . S
C456 H472 0.951 . S
C457 C456 1.386 . S
C457 C461 1.383 . S
C458 C456 1.383 . S
C458 C459 1.402 . S
C458 H473 0.951 . S
C459 C458 1.402 . S
C459 C460 1.375 . S
C459 C462 1.481 . S
C460 C459 1.375 . S
C460 C461 1.367 . S
C460 H474 0.951 . S
C461 C457 1.383 . S
C461 C460 1.367 . S
C461 H475 0.950 . S
C462 C459 1.481 . S
C462 C463 1.297 . S
C462 H476 0.950 . S
C463 C462 1.297 . S
C463 C464 1.479 . S
C463 H477 0.950 . S
C464 C463 1.479 . S
C464 C465 1.375 . S
C464 C470 1.404 . S
C465 C464 1.375 . S
C465 C466 1.369 . S
C465 H478 0.950 . S
C466 C465 1.369 . S
C466 C467 1.392 . S
C466 H479 0.951 . S
C467 C466 1.392 . S
C467 C469 1.384 . S
H468 C470 0.949 1_655 S
C469 C467 1.384 . S
C469 C470 1.385 . S
C469 H471 0.950 1_455 S
C470 C464 1.404 . S
C470 H468 0.949 1_455 S
C470 C469 1.385 . S
H471 C469 0.950 1_655 S
H472 C456 0.951 . S
H473 C458 0.951 . S
H474 C460 0.951 . S
H475 C461 0.950 . S
H476 C462 0.950 . S
H477 C463 0.950 . S
H478 C465 0.950 . S
H479 C466 0.951 . S
C480 C481 1.386 . S
C480 C482 1.383 . S
C480 H496 0.951 . S
C481 C480 1.386 . S
C481 C485 1.383 . S
C482 C480 1.383 . S
C482 C483 1.402 . S
C482 H497 0.951 . S
C483 C482 1.402 . S
C483 C484 1.375 . S
C483 C486 1.481 . S
C484 C483 1.375 . S
C484 C485 1.367 . S
C484 H498 0.951 . S
C485 C481 1.383 . S
C485 C484 1.367 . S
C485 H499 0.950 . S
C486 C483 1.481 . S
C486 C487 1.297 . S
C486 H500 0.950 . S
C487 C486 1.297 . S
C487 C488 1.479 . S
C487 H501 0.950 . S
C488 C487 1.479 . S
C488 C489 1.375 . S
C488 C494 1.404 . S
C489 C488 1.375 . S
C489 C490 1.369 . S
C489 H502 0.950 . S
C490 C489 1.369 . S
C490 C491 1.392 . S
C490 H503 0.951 . S
C491 C490 1.392 . S
C491 C493 1.384 . S
H492 C494 0.949 . S
C493 C491 1.384 . S
C493 C494 1.385 . S
C493 H495 0.950 . S
C494 C488 1.404 . S
C494 H492 0.949 . S
C494 C493 1.385 . S
H495 C493 0.950 . S
H496 C480 0.951 . S
H497 C482 0.951 . S
H498 C484 0.951 . S
H499 C485 0.950 . S
H500 C486 0.950 . S
H501 C487 0.950 . S
H502 C489 0.950 . S
H503 C490 0.951 . S
C504 C505 1.386 . S
C504 C506 1.383 . S
C504 H520 0.951 . S
C505 C504 1.386 . S
C505 C509 1.383 . S
C506 C504 1.383 . S
C506 C507 1.402 . S
C506 H521 0.951 . S
C507 C506 1.402 . S
C507 C508 1.375 . S
C507 C510 1.481 . S
C508 C507 1.375 . S
C508 C509 1.367 . S
C508 H522 0.951 . S
C509 C505 1.383 . S
C509 C508 1.367 . S
C509 H523 0.950 . S
C510 C507 1.481 . S
C510 C511 1.297 . S
C510 H524 0.950 . S
C511 C510 1.297 . S
C511 C512 1.479 . S
C511 H525 0.950 . S
C512 C511 1.479 . S
C512 C513 1.375 . S
C512 C518 1.404 . S
C513 C512 1.375 . S
C513 C514 1.369 . S
C513 H526 0.950 . S
C514 C513 1.369 . S
C514 C515 1.392 . S
C514 H527 0.951 . S
C515 C514 1.392 . S
C515 C517 1.384 . S
H516 C518 0.949 . S
C517 C515 1.384 . S
C517 C518 1.385 . S
C517 H519 0.950 . S
C518 C512 1.404 . S
C518 H516 0.949 . S
C518 C517 1.385 . S
H519 C517 0.950 . S
H520 C504 0.951 . S
H521 C506 0.951 . S
H522 C508 0.951 . S
H523 C509 0.950 . S
H524 C510 0.950 . S
H525 C511 0.950 . S
H526 C513 0.950 . S
H527 C514 0.951 . S
C528 C529 1.386 . S
C528 C530 1.383 . S
C528 H544 0.951 . S
C529 C528 1.386 . S
C529 C533 1.383 . S
C530 C528 1.383 . S
C530 C531 1.402 . S
C530 H545 0.951 . S
C531 C530 1.402 . S
C531 C532 1.375 . S
C531 C534 1.481 . S
C532 C531 1.375 . S
C532 C533 1.367 . S
C532 H546 0.951 . S
C533 C529 1.383 . S
C533 C532 1.367 . S
C533 H547 0.950 . S
C534 C531 1.481 . S
C534 C535 1.297 . S
C534 H548 0.950 . S
C535 C534 1.297 . S
C535 C536 1.479 . S
C535 H549 0.950 . S
C536 C535 1.479 . S
C536 C537 1.375 . S
C536 C542 1.404 . S
C537 C536 1.375 . S
C537 C538 1.369 . S
C537 H550 0.950 . S
C538 C537 1.369 . S
C538 C539 1.392 . S
C538 H551 0.951 . S
C539 C538 1.392 . S
C539 C541 1.384 . S
H540 C542 0.949 . S
C541 C539 1.384 . S
C541 C542 1.385 . S
C541 H543 0.950 . S
C542 C536 1.404 . S
C542 H540 0.949 . S
C542 C541 1.385 . S
H543 C541 0.950 . S
H544 C528 0.951 . S
H545 C530 0.951 . S
H546 C532 0.951 . S
H547 C533 0.950 . S
H548 C534 0.950 . S
H549 C535 0.950 . S
H550 C537 0.950 . S
H551 C538 0.951 . S
C552 C553 1.386 . S
C552 C554 1.383 . S
C552 H568 0.951 . S
C553 C552 1.386 . S
C553 C557 1.383 . S
C554 C552 1.383 . S
C554 C555 1.402 . S
C554 H569 0.951 . S
C555 C554 1.402 . S
C555 C556 1.375 . S
C555 C558 1.481 . S
C556 C555 1.375 . S
C556 C557 1.367 . S
C556 H570 0.951 . S
C557 C553 1.383 . S
C557 C556 1.367 . S
C557 H571 0.950 . S
C558 C555 1.481 . S
C558 C559 1.297 . S
C558 H572 0.950 . S
C559 C558 1.297 . S
C559 C560 1.479 . S
C559 H573 0.950 . S
C560 C559 1.479 . S
C560 C561 1.375 . S
C560 C566 1.404 . S
C561 C560 1.375 . S
C561 C562 1.369 . S
C561 H574 0.950 . S
C562 C561 1.369 . S
C562 C563 1.392 . S
C562 H575 0.951 . S
C563 C562 1.392 . S
C563 C565 1.384 . S
H564 C566 0.949 . S
C565 C563 1.384 . S
C565 C566 1.385 . S
C565 H567 0.950 . S
C566 C560 1.404 . S
C566 H564 0.949 . S
C566 C565 1.385 . S
H567 C565 0.950 . S
H568 C552 0.951 . S
H569 C554 0.951 . S
H570 C556 0.951 . S
H571 C557 0.950 . S
H572 C558 0.950 . S
H573 C559 0.950 . S
H574 C561 0.950 . S
H575 C562 0.951 . S
C576 C577 1.386 . S
C576 C578 1.383 . S
C576 H592 0.951 . S
C577 C576 1.386 . S
C577 C581 1.383 . S
C578 C576 1.383 . S
C578 C579 1.402 . S
C578 H593 0.951 . S
C579 C578 1.402 . S
C579 C580 1.375 . S
C579 C582 1.481 . S
C580 C579 1.375 . S
C580 C581 1.367 . S
C580 H594 0.951 . S
C581 C577 1.383 . S
C581 C580 1.367 . S
C581 H595 0.937 1_565 S
C582 C579 1.481 . S
C582 C583 1.297 . S
C582 H596 0.950 . S
C583 C582 1.297 . S
C583 C584 1.479 . S
C583 H597 0.950 . S
C584 C583 1.479 . S
C584 C585 1.375 . S
C584 C590 1.404 . S
C585 C584 1.375 . S
C585 C586 1.369 . S
C585 H598 0.950 . S
C586 C585 1.369 . S
C586 C587 1.392 . S
C586 H599 0.951 . S
C587 C586 1.392 . S
C587 C589 1.384 . S
H588 C590 0.949 . S
C589 C587 1.384 . S
C589 C590 1.385 . S
C589 H591 0.950 1_655 S
C590 C584 1.404 . S
C590 H588 0.949 . S
C590 C589 1.385 . S
H591 C589 0.950 1_455 S
H592 C576 0.951 . S
H593 C578 0.951 . S
H594 C580 0.951 . S
H595 C581 0.937 1_545 S
H596 C582 0.950 . S
H597 C583 0.950 . S
H598 C585 0.950 . S
H599 C586 0.951 . S
C600 C601 1.386 . S
C600 C602 1.383 . S
C600 H616 0.951 . S
C601 C600 1.386 . S
C601 C605 1.383 . S
C602 C600 1.383 . S
C602 C603 1.402 . S
C602 H617 0.951 . S
C603 C602 1.402 . S
C603 C604 1.375 . S
C603 C606 1.481 . S
C604 C603 1.375 . S
C604 C605 1.367 . S
C604 H618 0.951 . S
C605 C601 1.383 . S
C605 C604 1.367 . S
C605 H619 0.963 . S
C606 C603 1.481 . S
C606 C607 1.297 . S
C606 H620 0.950 . S
C607 C606 1.297 . S
C607 C608 1.479 . S
C607 H621 0.950 . S
C608 C607 1.479 . S
C608 C609 1.375 . S
C608 C614 1.404 . S
C609 C608 1.375 . S
C609 C610 1.369 . S
C609 H622 0.950 . S
C610 C609 1.369 . S
C610 C611 1.392 . S
C610 H623 0.951 . S
C611 C610 1.392 . S
C611 C613 1.384 . S
H612 C614 0.949 . S
C613 C611 1.384 . S
C613 C614 1.385 . S
C613 H615 0.950 . S
C614 C608 1.404 . S
C614 H612 0.949 . S
C614 C613 1.385 . S
H615 C613 0.950 . S
H616 C600 0.951 . S
H617 C602 0.951 . S
H618 C604 0.951 . S
H619 C605 0.963 . S
H620 C606 0.950 . S
H621 C607 0.950 . S
H622 C609 0.950 . S
H623 C610 0.951 . S
C624 C625 1.386 . S
C624 C626 1.383 . S
C624 H640 0.951 . S
C625 C624 1.386 . S
C625 C629 1.383 . S
C626 C624 1.383 . S
C626 C627 1.402 . S
C626 H641 0.951 . S
C627 C626 1.402 . S
C627 C628 1.375 . S
C627 C630 1.481 . S
C628 C627 1.375 . S
C628 C629 1.367 . S
C628 H642 0.951 . S
C629 C625 1.383 . S
C629 C628 1.367 . S
C629 H643 0.950 . S
C630 C627 1.481 . S
C630 C631 1.297 . S
C630 H644 0.950 . S
C631 C630 1.297 . S
C631 C632 1.479 . S
C631 H645 0.950 . S
C632 C631 1.479 . S
C632 C633 1.375 . S
C632 C638 1.404 . S
C633 C632 1.375 . S
C633 C634 1.369 . S
C633 H646 0.950 . S
C634 C633 1.369 . S
C634 C635 1.392 . S
C634 H647 0.951 . S
C635 C634 1.392 . S
C635 C637 1.384 . S
H636 C638 0.949 . S
C637 C635 1.384 . S
C637 C638 1.385 . S
C637 H639 0.950 . S
C638 C632 1.404 . S
C638 H636 0.949 . S
C638 C637 1.385 . S
H639 C637 0.950 . S
H640 C624 0.951 . S
H641 C626 0.951 . S
H642 C628 0.951 . S
H643 C629 0.950 . S
H644 C630 0.950 . S
H645 C631 0.950 . S
H646 C633 0.950 . S
H647 C634 0.951 . S
C648 C649 1.386 . S
C648 C650 1.383 . S
C648 H664 0.951 . S
C649 C648 1.386 . S
C649 C653 1.383 . S
C650 C648 1.383 . S
C650 C651 1.402 . S
C650 H665 0.951 . S
C651 C650 1.402 . S
C651 C652 1.375 . S
C651 C654 1.481 . S
C652 C651 1.375 . S
C652 C653 1.367 . S
C652 H666 0.951 . S
C653 C649 1.383 . S
C653 C652 1.367 . S
C653 H667 0.950 1_655 S
C654 C651 1.481 . S
C654 C655 1.297 . S
C654 H668 0.950 . S
C655 C654 1.297 . S
C655 C656 1.479 . S
C655 H669 0.950 . S
C656 C655 1.479 . S
C656 C657 1.375 . S
C656 C662 1.404 . S
C657 C656 1.375 . S
C657 C658 1.369 . S
C657 H670 0.950 . S
C658 C657 1.369 . S
C658 C659 1.392 . S
C658 H671 0.951 . S
C659 C658 1.392 . S
C659 C661 1.384 . S
H660 C662 0.949 . S
C661 C659 1.384 . S
C661 C662 1.385 . S
C661 H663 0.950 . S
C662 C656 1.404 . S
C662 H660 0.949 . S
C662 C661 1.385 . S
H663 C661 0.950 . S
H664 C648 0.951 . S
H665 C650 0.951 . S
H666 C652 0.951 . S
H667 C653 0.950 1_455 S
H668 C654 0.950 . S
H669 C655 0.950 . S
H670 C657 0.950 . S
H671 C658 0.951 . S
C289 C14 1.482 . S
C299 C158 1.550 . S
C313 C50 1.516 . S
C323 C194 1.482 . S
C337 C230 1.527 . S
C347 C86 1.465 . S
C361 C266 1.516 . S
C371 C122 1.500 . S
C385 C4 1.201 . S
C395 C76 1.162 . S
C409 C40 1.169 . S
C419 C112 1.172 . S
C433 C220 1.199 . S
C443 C148 1.180 . S
C457 C184 1.191 . S
C467 C256 1.197 . S
C481 C182 1.196 . S
C491 C2 1.165 . S
C505 C38 1.198 . S
C515 C218 1.167 . S
C529 C254 1.186 . S
C539 C74 1.199 . S
C553 C110 1.188 . S
C563 C146 1.202 . S
C577 C219 1.312 1_565 S
C587 C111 1.307 1_655 S
C601 C3 1.311 1_565 S
C611 C255 1.305 . S
C625 C39 1.312 . S
C635 C147 1.307 . S
C649 C183 1.312 1_655 S
C659 C75 1.307 . S
