# Generated by pormake.
# Topology kag, (6)-cn, num edge types: 1
# Building blocks:
#     Node 0, Type 0, BuildingBlock: JUFBIX_clean_sbu_0, # of connection points: 6
#     Node 1, Type 0, BuildingBlock: JUFBIX_clean_sbu_0, # of connection points: 6
#     Node 2, Type 0, BuildingBlock: JUFBIX_clean_sbu_0, # of connection points: 6
#     Edge 3, Type (0, 0), BuildingBlock: TEMPAE_clean_linker_10, # of connection points: 2
#     Edge 4, Type (0, 0), BuildingBlock: TEMPAE_clean_linker_10, # of connection points: 2
#     Edge 5, Type (0, 0), BuildingBlock: TEMPAE_clean_linker_10, # of connection points: 2
#     Edge 6, Type (0, 0), BuildingBlock: TEMPAE_clean_linker_10, # of connection points: 2
#     Edge 7, Type (0, 0), BuildingBlock: TEMPAE_clean_linker_10, # of connection points: 2
#     Edge 8, Type (0, 0), BuildingBlock: TEMPAE_clean_linker_10, # of connection points: 2
#     Edge 9, Type (0, 0), BuildingBlock: TEMPAE_clean_linker_10, # of connection points: 2
#     Edge 10, Type (0, 0), BuildingBlock: TEMPAE_clean_linker_10, # of connection points: 2
#     Edge 11, Type (0, 0), BuildingBlock: TEMPAE_clean_linker_10, # of connection points: 2
# Relax obj value: 0.259
# Max RMSD: 0.228
# Mean RMSD: 0.152
data_MOF--net-kag--node1-JUFBIX_clean_sbu_0--edge1-TEMPAE_clean_linker_10
_symmetry_space_group_name_H-M    P1
_symmetry_Int_Tables_number       1
_symmetry_cell_setting            triclinic
loop_
_symmetry_equiv_pos_as_xyz
'x, y, z'
_cell_length_a     30.281524
_cell_length_b     38.31099
_cell_length_c     15.133147
_cell_angle_alpha  90.348342
_cell_angle_beta   93.002939
_cell_angle_gamma 120.60938
loop_
_atom_site_label
_atom_site_type_symbol
_atom_site_fract_x
_atom_site_fract_y
_atom_site_fract_z
_atom_type_partial_charge
Co0 Co 0.98326 0.46537 0.98918 0.0
C1 C 1.00332 0.50261 0.82543 0.0
Co2 Co 0.02178 0.53233 0.99633 0.0
C3 C 0.91028 0.37994 0.00903 0.0
C4 C 0.96945 0.39036 0.92301 0.0
N5 N 0.95353 0.40972 0.97588 0.0
N6 N 0.89835 0.34285 0.97789 0.0
C7 C 0.93557 0.3493 0.92395 0.0
H8 H 0.88683 0.38546 0.05205 0.0
H9 H 1.00279 0.40526 0.88414 0.0
C10 C 1.00218 0.49511 0.1602 0.0
N11 N 0.05127 0.58798 0.01033 0.0
C12 C 0.09631 0.61824 0.98339 0.0
C13 C 0.03308 0.60665 0.06013 0.0
N14 N 0.10706 0.65488 0.01557 0.0
C15 C 0.06725 0.64769 0.06353 0.0
C16 C 0.9143 0.49197 0.98655 0.0
O17 O 0.9825 0.46208 0.1144 0.0
O18 O 0.02123 0.5286 0.1215 0.0
O19 O 0.95535 0.52643 0.99049 0.0
O20 O 0.91711 0.46001 0.98532 0.0
O21 O 0.02228 0.53567 0.87102 0.0
H22 H 0.99807 0.59125 0.09467 0.0
H23 H 0.1219 0.61332 0.94477 0.0
O24 O 0.98434 0.46912 0.86417 0.0
O25 O 0.04953 0.47116 0.99299 0.0
O26 O 0.08801 0.53762 1.00153 0.0
C27 C 0.09066 0.5056 0.99777 0.0
H28 H 0.93771 0.32602 0.88683 0.0
H29 H 0.06367 0.67042 0.10005 0.0
Co30 Co 0.5293 0.98621 0.02285 0.0
C31 C 0.50582 0.00205 0.85288 0.0
Co32 Co 0.47963 0.01312 0.01752 0.0
C33 C 0.55633 0.92447 0.04724 0.0
C34 C 0.61808 0.97852 0.99749 0.0
N35 N 0.56988 0.96252 0.02416 0.0
N36 N 0.5938 0.91604 0.03544 0.0
C37 C 0.63294 0.95007 0.0047 0.0
H38 H 0.51938 0.90299 0.07126 0.0
H39 H 0.64051 0.00848 0.97179 0.0
C40 C 0.50316 0.99714 0.18753 0.0
N41 N 0.43888 0.03637 0.01765 0.0
C42 C 0.44934 0.07284 0.98795 0.0
C43 C 0.39464 0.02216 0.05839 0.0
N44 N 0.41386 0.08218 0.01 0.0
C45 C 0.37926 0.05028 0.05401 0.0
C46 C 0.42454 0.92944 0.00439 0.0
O47 O 0.53004 0.98585 0.14799 0.0
O48 O 0.47716 0.00927 0.14279 0.0
O49 O 0.42001 0.96061 1.00243 0.0
O50 O 0.46907 0.93405 0.01465 0.0
O51 O 0.4826 0.01672 0.89279 0.0
H52 H 0.37596 0.99394 0.09255 0.0
H53 H 0.48382 0.09315 0.95525 0.0
O54 O 0.52825 0.98675 0.89724 0.0
O55 O 0.58884 0.03889 0.03102 0.0
O56 O 0.53953 0.06536 0.03197 0.0
C57 C 0.5842 0.07 0.03505 0.0
H58 H 0.66876 0.95349 0.98499 0.0
H59 H 0.34598 0.04794 0.08307 0.0
Co60 Co 0.47922 0.46547 0.99026 0.0
C61 C 0.50488 0.50073 0.16046 0.0
Co62 Co 0.52611 0.53243 0.99552 0.0
C63 C 0.45357 0.38165 0.96805 0.0
C64 C 0.39069 0.38589 0.01333 0.0
N65 N 0.43948 0.40882 0.98928 0.0
N66 N 0.41572 0.34301 0.97798 0.0
C67 C 0.37597 0.34553 0.00602 0.0
H68 H 0.491 0.38983 0.94626 0.0
H69 H 0.36746 0.39756 0.03702 0.0
C70 C 0.50057 0.49703 0.82512 0.0
N71 N 0.56595 0.58858 0.99492 0.0
C72 C 0.55542 0.61673 0.02471 0.0
C73 C 0.60975 0.60979 0.95294 0.0
N74 N 0.5905 0.65449 1.00159 0.0
C75 C 0.62483 0.65023 0.95675 0.0
C76 C 0.58404 0.49493 0.99907 0.0
O77 O 0.47393 0.46417 0.86452 0.0
O78 O 0.52738 0.53006 0.87036 0.0
O79 O 0.58693 0.52902 0.00808 0.0
O80 O 0.54022 0.46297 0.98762 0.0
O81 O 0.52421 0.53401 0.12054 0.0
H82 H 0.6283 0.59649 0.91826 0.0
H83 H 0.52118 0.60944 0.05822 0.0
O84 O 0.48495 0.46728 0.11602 0.0
O85 O 0.41901 0.4693 0.99304 0.0
O86 O 0.46512 0.53536 0.98325 0.0
C87 C 0.42154 0.50332 0.98739 0.0
H88 H 0.33962 0.32009 0.02346 0.0
H89 H 0.65772 0.6745 0.92675 0.0
C90 C 0.99101 0.5268 0.67857 0.0
C91 C 1.00445 0.50256 0.72837 0.0
C92 C 0.98941 0.52503 0.58558 0.0
C93 C 1.00362 0.49964 0.54214 0.0
C94 C 0.01859 0.47597 0.59275 0.0
C95 C 0.01779 0.47711 0.68526 0.0
C96 C 0.97166 0.54971 0.53382 0.0
C97 C 0.0359 0.44974 0.5493 0.0
C98 C 0.96048 0.46591 0.30049 0.0
C99 C 1.00293 0.49515 0.25758 0.0
C100 C 0.95973 0.46745 0.39316 0.0
C101 C 1.00329 0.49804 0.44381 0.0
C102 C 0.04681 0.52695 0.40052 0.0
C103 C 0.04567 0.52561 0.30774 0.0
C104 C 0.91202 0.43688 0.43671 0.0
C105 C 0.0947 0.55908 0.45218 0.0
H106 H 0.98024 0.54616 0.71228 0.0
H107 H 0.02853 0.45859 0.72423 0.0
H108 H 1.00287 0.57182 0.49376 0.0
H109 H 0.93861 0.52948 0.48707 0.0
H110 H 0.9599 0.56656 0.57749 0.0
H111 H 0.04863 0.43473 0.59847 0.0
H112 H 1.00408 0.42597 0.5055 0.0
H113 H 0.06816 0.46842 0.50716 0.0
H114 H 0.92722 0.44265 0.26135 0.0
H115 H 0.07861 0.54809 0.27428 0.0
H116 H 0.89772 0.45286 0.47724 0.0
H117 H 0.92118 0.41851 0.48211 0.0
H118 H 0.88074 0.41604 0.38766 0.0
H119 H 0.08582 0.57921 0.49073 0.0
H120 H 0.12607 0.57804 0.40857 0.0
H121 H 0.10878 0.54461 0.50026 0.0
C122 C 0.54891 0.0096 0.33607 0.0
C123 C 0.50319 0.99727 0.28475 0.0
C124 C 0.55005 0.01153 0.42885 0.0
C125 C 0.50393 -0.00072 0.47096 0.0
C126 C 0.45741 0.98594 0.41913 0.0
C127 C 0.45782 0.9859 0.32642 0.0
C128 C 0.60071 0.02724 0.48172 0.0
C129 C 0.40714 0.97126 0.46154 0.0
C130 C 0.50123 0.96816 0.70922 0.0
C131 C 0.50555 0.00162 0.75558 0.0
C132 C 0.49954 0.96664 0.6164 0.0
C133 C 0.50431 8e-05 0.56927 0.0
C134 C 0.50964 0.03431 0.6161 0.0
C135 C 0.50917 0.03431 0.70884 0.0
C136 C 0.49201 0.92904 0.5688 0.0
C137 C 0.51657 0.0711 0.56838 0.0
H138 H 0.58408 0.01882 0.3035 0.0
H139 H 0.42245 0.97617 0.28637 0.0
H140 H 0.60831 0.05317 0.52602 0.0
H141 H 0.59909 0.00325 0.52441 0.0
H142 H 0.63341 0.03734 0.43871 0.0
H143 H 0.3741 0.96032 0.41177 0.0
H144 H 0.39979 0.94617 0.50601 0.0
H145 H 0.40917 0.9961 0.50286 0.0
H146 H 0.49789 0.94271 0.7456 0.0
H147 H 0.51285 0.06027 0.74503 0.0
H148 H 0.52577 0.93674 0.53029 0.0
H149 H 0.45793 0.91668 0.52102 0.0
H150 H 0.48656 0.90497 0.61512 0.0
H151 H 0.55033 0.0829 0.52747 0.0
H152 H 0.52221 0.09582 0.61481 0.0
H153 H 0.48247 0.06265 0.52279 0.0
C154 C 0.45772 0.46888 0.67514 0.0
C155 C 0.50108 0.4971 0.72776 0.0
C156 C 0.45751 0.46959 0.58235 0.0
C157 C 0.50234 0.49833 0.54166 0.0
C158 C 0.54656 0.52634 0.59476 0.0
C159 C 0.5451 0.52581 0.68724 0.0
C160 C 0.40916 0.43999 0.52791 0.0
C161 C 0.59558 0.55661 0.55396 0.0
C162 C 0.51567 0.47407 0.30432 0.0
C163 C 0.50505 0.50068 0.25765 0.0
C164 C 0.51588 0.47353 0.39703 0.0
C165 C 0.5031 0.49906 0.4435 0.0
C166 C 0.49145 0.52549 0.39623 0.0
C167 C 0.49358 0.52655 0.30378 0.0
C168 C 0.53032 0.44601 0.44524 0.0
C169 C 0.47602 0.55218 0.44314 0.0
H170 H 0.42355 0.44688 0.70656 0.0
H171 H 0.57881 0.54743 0.72803 0.0
H172 H 0.39688 0.45675 0.48312 0.0
H173 H 0.41669 0.42009 0.48563 0.0
H174 H 0.37703 0.4206 0.56977 0.0
H175 H 0.62715 0.57525 0.60469 0.0
H176 H 0.60836 0.54049 0.51034 0.0
H177 H 0.58869 0.57722 0.51207 0.0
H178 H 0.52485 0.45427 0.26828 0.0
H179 H 0.48485 0.5468 0.26721 0.0
H180 H 0.49765 0.42362 0.48234 0.0
H181 H 0.56306 0.46409 0.49434 0.0
H182 H 0.54126 0.4293 0.39948 0.0
H183 H 0.44236 0.53331 0.48236 0.0
H184 H 0.46606 0.56971 0.3963 0.0
H185 H 0.50781 0.57382 0.49021 0.0
C186 C 0.14537 0.48085 0.93929 0.0
C187 C 0.14067 0.50792 0.99512 0.0
C188 C 0.19232 0.48208 0.93563 0.0
C189 C 0.23506 0.51003 0.99177 0.0
C190 C 0.2304 0.53736 0.04868 0.0
C191 C 0.1834 0.53651 0.04837 0.0
C192 C 0.1961 0.45338 0.87182 0.0
C193 C 0.27452 0.56665 0.11163 0.0
C194 C 0.33495 0.47966 0.04195 0.0
C195 C 0.37443 0.50563 0.98896 0.0
C196 C 0.29019 0.48182 0.04584 0.0
C197 C 0.28397 0.50954 0.99275 0.0
C198 C 0.32365 0.5356 0.93842 0.0
C199 C 0.36893 0.53388 0.93854 0.0
C200 C 0.24959 0.45445 0.10684 0.0
C201 C 0.31774 0.56454 0.87854 0.0
H202 H 0.11236 0.45905 0.89734 0.0
H203 H 0.17954 0.55728 0.09184 0.0
H204 H 0.22908 0.47057 0.83006 0.0
H205 H 0.20318 0.43168 0.90906 0.0
H206 H 0.16058 0.43584 0.82789 0.0
H207 H 0.26463 0.58583 0.15164 0.0
H208 H 0.28583 0.54955 0.15724 0.0
H209 H 0.30853 0.58674 0.0744 0.0
H210 H 0.33955 0.45816 0.08184 0.0
H211 H 0.39948 0.55385 0.89732 0.0
H212 H 0.21378 0.43278 0.06748 0.0
H213 H 0.24013 0.4727 0.15078 0.0
H214 H 0.26205 0.43686 0.1486 0.0
H215 H 0.28358 0.54729 0.83163 0.0
H216 H 0.35203 0.58254 0.83991 0.0
H217 H 0.31119 0.58576 0.91807 0.0
C218 C 0.67925 0.11685 0.05764 0.0
C219 C 0.63013 0.11121 0.03909 0.0
C220 C 0.72335 0.15552 0.05574 0.0
C221 C 0.71817 0.18915 0.03338 0.0
C222 C 0.66861 0.18382 0.01705 0.0
C223 C 0.62514 0.14493 0.02071 0.0
C224 C 0.77555 0.16014 0.07484 0.0
C225 C 0.66153 0.21884 0.99191 0.0
C226 C 0.83198 0.29631 0.0753 0.0
C227 C 0.85304 0.30459 0.99242 0.0
C228 C 0.78818 0.2587 0.09013 0.0
C229 C 0.7646 0.22915 0.01983 0.0
C230 C 0.78538 0.23767 0.93571 0.0
C231 C 0.82954 0.27517 0.92327 0.0
C232 C 0.76748 0.25042 0.18101 0.0
C233 C 0.76085 0.20723 0.85861 0.0
H234 H 0.68331 0.09095 0.07262 0.0
H235 H 0.58728 0.14077 0.00621 0.0
H236 H 0.79683 0.16834 0.01367 0.0
H237 H 0.79852 0.18508 0.12498 0.0
H238 H 0.77279 0.13185 0.09925 0.0
H239 H 0.62041 0.21016 0.9871 0.0
H240 H 0.68268 0.24446 0.04114 0.0
H241 H 0.67773 0.22999 0.92696 0.0
H242 H 0.85041 0.319 0.12886 0.0
H243 H 0.84531 0.28181 0.85878 0.0
H244 H 0.76747 0.22344 0.20729 0.0
H245 H 0.72706 0.24338 0.17698 0.0
H246 H 0.79041 0.27655 0.22861 0.0
H247 H 0.76062 0.17895 0.87481 0.0
H248 H 0.78126 0.21895 0.79706 0.0
H249 H 0.72024 0.19909 0.84565 0.0
C250 C 0.6339 0.87531 0.07099 0.0
C251 C 0.59044 0.87733 0.04319 0.0
C252 C 0.6322 0.83801 0.07244 0.0
C253 C 0.58619 0.802 0.04352 0.0
C254 C 0.54175 0.80375 0.01769 0.0
C255 C 0.54432 0.84139 0.01856 0.0
C256 C 0.68011 0.83731 0.10219 0.0
C257 C 0.4922 0.76622 0.98493 0.0
C258 C 0.60278 0.71856 0.94419 0.0
C259 C 0.5885 0.691 0.01242 0.0
C260 C 0.60129 0.75437 0.95308 0.0
C261 C 0.58599 0.76325 0.03292 0.0
C262 C 0.57138 0.73549 0.10216 0.0
C263 C 0.57229 0.6994 0.09067 0.0
C264 C 0.6161 0.7827 0.87688 0.0
C265 C 0.55561 0.74422 0.1887 0.0
H266 H 0.66936 0.90305 0.09101 0.0
H267 H 0.5108 0.84294 0.99613 0.0
H268 H 0.67116 0.81396 0.15229 0.0
H269 H 0.69487 0.82904 0.045 0.0
H270 H 0.71103 0.86716 0.13095 0.0
H271 H 0.4601 0.77219 0.97405 0.0
H272 H 0.49787 0.75479 0.92149 0.0
H273 H 0.48095 0.74175 0.03285 0.0
H274 H 0.61441 0.71173 0.88305 0.0
H275 H 0.56147 0.67813 0.14349 0.0
H276 H 0.65018 0.81254 0.89766 0.0
H277 H 0.5843 0.78807 0.85714 0.0
H278 H 0.62525 0.77059 0.81814 0.0
H279 H 0.58763 0.77281 0.22023 0.0
H280 H 0.54501 0.71939 0.23568 0.0
H281 H 0.52238 0.74865 0.17668 0.0
C282 C 0.82452 0.46046 0.03371 0.0
C283 C 0.86412 0.48957 0.98519 0.0
C284 C 0.778 0.46003 0.03819 0.0
C285 C 0.7704 0.48841 0.99023 0.0
C286 C 0.80978 0.51694 0.93864 0.0
C287 C 0.85658 0.51769 0.93822 0.0
C288 C 0.73767 0.43006 0.09628 0.0
C289 C 0.80257 0.54674 0.88402 0.0
C290 C 0.6334 0.46503 0.94058 0.0
C291 C 0.63105 0.49247 0.99898 0.0
C292 C 0.67861 0.4635 0.93662 0.0
C293 C 0.72171 0.4889 0.99501 0.0
C294 C 0.71884 0.51575 0.05614 0.0
C295 C 0.67383 0.51782 0.05608 0.0
C296 C 0.68072 0.43558 0.86831 0.0
C297 C 0.76328 0.54228 0.12157 0.0
H298 H 0.8307 0.43901 0.07079 0.0
H299 H 0.88722 0.54004 0.90029 0.0
H300 H 0.72963 0.44662 0.14744 0.0
H301 H 0.70113 0.41059 0.05638 0.0
H302 H 0.74973 0.41027 0.12988 0.0
H303 H 0.83546 0.56487 0.84256 0.0
H304 H 0.76689 0.53037 0.84011 0.0
H305 H 0.79821 0.56788 0.9281 0.0
H306 H 0.60033 0.44566 0.89592 0.0
H307 H 0.67175 0.53878 0.10173 0.0
H308 H 0.68954 0.41384 0.90112 0.0
H309 H 0.71209 0.45356 0.82403 0.0
H310 H 0.64403 0.41813 0.82721 0.0
H311 H 0.77541 0.52351 0.15938 0.0
H312 H 0.75343 0.55911 0.16909 0.0
H313 H 0.79671 0.56458 0.08584 0.0
C314 C 0.17885 0.70347 0.92969 0.0
C315 C 0.15358 0.69327 0.00863 0.0
C316 C 0.22357 0.74142 0.92205 0.0
C317 C 0.24372 0.76932 0.9957 0.0
C318 C 0.21879 0.75875 0.07602 0.0
C319 C 0.17386 0.72098 0.08125 0.0
C320 C 0.24881 0.75192 0.83504 0.0
C321 C 0.23957 0.78736 0.15655 0.0
C322 C 0.38315 0.85428 0.01503 0.0
C323 C 0.37865 0.88822 0.99642 0.0
C324 C 0.33968 0.81515 0.01233 0.0
C325 C 0.29064 0.80982 0.98946 0.0
C326 C 0.28608 0.84376 0.96736 0.0
C327 C 0.33013 0.88263 0.97172 0.0
C328 C 0.34606 0.77978 0.03726 0.0
C329 C 0.23448 0.83915 0.94144 0.0
H330 H 0.16292 0.68207 0.87349 0.0
H331 H 0.15483 0.7128 0.14279 0.0
H332 H 0.24957 0.77927 0.80928 0.0
H333 H 0.28928 0.75935 0.84483 0.0
H334 H 0.22849 0.72675 0.78435 0.0
H335 H 0.21626 0.77404 0.21462 0.0
H336 H 0.27973 0.79546 0.17479 0.0
H337 H 0.24025 0.81592 0.14144 0.0
H338 H 0.42054 0.85834 0.03399 0.0
H339 H 0.32647 0.90868 0.95642 0.0
H340 H 0.32736 0.75524 0.98509 0.0
H341 H 0.32686 0.76704 0.0993 0.0
H342 H 0.38713 0.78865 0.04749 0.0
H343 H 0.21418 0.81546 0.8878 0.0
H344 H 0.23804 0.86794 0.91869 0.0
H345 H 0.21013 0.82916 0.99894 0.0
C346 C 0.46383 0.30725 0.99736 0.0
C347 C 0.41862 0.30679 0.96971 0.0
C348 C 0.46552 0.27129 0.99812 0.0
C349 C 0.42115 0.23415 0.96909 0.0
C350 C 0.37619 0.2339 0.93707 0.0
C351 C 0.37532 0.27018 0.93864 0.0
C352 C 0.51393 0.27278 0.03413 0.0
C353 C 0.32843 0.19509 0.90389 0.0
C354 C 0.4341 0.14208 0.92221 0.0
C355 C 0.41594 0.12029 0.99909 0.0
C356 C 0.43594 0.17921 0.91107 0.0
C357 C 0.42019 0.19515 0.97929 0.0
C358 C 0.40268 0.17353 0.05767 0.0
C359 C 0.40037 0.13623 0.06622 0.0
C360 C 0.45407 0.20108 0.82605 0.0
C361 C 0.38652 0.18984 0.13276 0.0
H362 H 0.49717 0.33547 0.02224 0.0
H363 H 0.34059 0.26995 0.91627 0.0
H364 H 0.50638 0.25628 0.09672 0.0
H365 H 0.52593 0.2574 0.9869 0.0
H366 H 0.54625 0.30438 0.0476 0.0
H367 H 0.29853 0.20066 0.87327 0.0
H368 H 0.33811 0.17895 0.85439 0.0
H369 H 0.31199 0.17463 0.95973 0.0
H370 H 0.44593 0.12964 0.8702 0.0
H371 H 0.38724 0.1198 0.12639 0.0
H372 H 0.48763 0.23198 0.84048 0.0
H373 H 0.42318 0.20469 0.79275 0.0
H374 H 0.46511 0.18468 0.77959 0.0
H375 H 0.41837 0.22051 0.15499 0.0
H376 H 0.37549 0.16992 0.19042 0.0
H377 H 0.35333 0.19292 0.10974 0.0
loop_
_geom_bond_atom_site_label_1
_geom_bond_atom_site_label_2
_geom_bond_distance
_geom_bond_site_symmetry_2
_ccdc_geom_bond_type
Co0 N5 2.057 1_554 S
Co0 O17 2.021 . S
Co0 O20 2.062 . S
Co0 O24 2.117 1_554 S
Co0 O25 2.020 1_655 S
C1 O21 1.259 . S
C1 O24 1.258 1_455 S
Co2 N11 2.057 1_556 S
Co2 O18 2.117 1_556 S
Co2 O19 2.020 1_455 S
Co2 O21 2.021 . S
Co2 O26 2.062 . S
C3 N5 1.316 1_554 S
C3 N6 1.347 1_554 S
C3 H8 0.931 . S
C4 N5 1.375 . S
C4 C7 1.350 . S
C4 H9 0.930 . S
N5 Co0 2.057 1_556 S
N5 C3 1.316 1_556 S
N5 C4 1.375 . S
N6 C3 1.347 1_556 S
N6 C7 1.373 . S
C7 C4 1.350 . S
C7 N6 1.373 . S
C7 H28 0.931 . S
H8 C3 0.931 . S
H9 C4 0.930 . S
C10 O17 1.259 . S
C10 O18 1.258 1_655 S
N11 Co2 2.057 1_554 S
N11 C12 1.316 1_554 S
N11 C13 1.375 . S
C12 N11 1.316 1_556 S
C12 N14 1.347 1_556 S
C12 H23 0.931 . S
C13 N11 1.375 . S
C13 C15 1.350 . S
C13 H22 0.930 . S
N14 C12 1.347 1_554 S
N14 C15 1.373 . S
C15 C13 1.350 . S
C15 N14 1.373 . S
C15 H29 0.931 . S
C16 O19 1.256 1_554 S
C16 O20 1.255 . S
O17 Co0 2.021 . S
O17 C10 1.259 . S
O18 Co2 2.117 1_554 S
O18 C10 1.258 1_455 S
O19 Co2 2.020 1_655 S
O19 C16 1.256 1_556 S
O20 Co0 2.062 . S
O20 C16 1.255 . S
O21 C1 1.259 . S
O21 Co2 2.021 . S
H22 C13 0.930 . S
H23 C12 0.931 . S
O24 Co0 2.117 1_556 S
O24 C1 1.258 1_655 S
O25 Co0 2.020 1_455 S
O25 C27 1.256 1_554 S
O26 Co2 2.062 . S
O26 C27 1.255 . S
C27 O25 1.256 1_556 S
C27 O26 1.255 . S
H28 C7 0.931 . S
H29 C15 0.931 . S
Co30 N35 2.057 1_554 S
Co30 O47 2.021 . S
Co30 O50 2.062 . S
Co30 O54 2.117 1_554 S
Co30 O55 2.020 1_565 S
C31 O51 1.259 . S
C31 O54 1.258 1_545 S
Co32 N41 2.057 1_556 S
Co32 O48 2.117 1_556 S
Co32 O49 2.020 1_545 S
Co32 O51 2.021 . S
Co32 O56 2.062 . S
C33 N35 1.316 1_554 S
C33 N36 1.347 1_554 S
C33 H38 0.931 . S
C34 N35 1.375 . S
C34 C37 1.350 . S
C34 H39 0.930 . S
N35 Co30 2.057 1_556 S
N35 C33 1.316 1_556 S
N35 C34 1.375 . S
N36 C33 1.347 1_556 S
N36 C37 1.373 . S
C37 C34 1.350 . S
C37 N36 1.373 . S
C37 H58 0.931 . S
H38 C33 0.931 . S
H39 C34 0.930 . S
C40 O47 1.259 . S
C40 O48 1.258 1_565 S
N41 Co32 2.057 1_554 S
N41 C42 1.316 1_554 S
N41 C43 1.375 . S
C42 N41 1.316 1_556 S
C42 N44 1.347 1_556 S
C42 H53 0.931 . S
C43 N41 1.375 . S
C43 C45 1.350 . S
C43 H52 0.930 . S
N44 C42 1.347 1_554 S
N44 C45 1.373 . S
C45 C43 1.350 . S
C45 N44 1.373 . S
C45 H59 0.931 . S
C46 O49 1.256 . S
C46 O50 1.254 1_556 S
O47 Co30 2.021 . S
O47 C40 1.259 . S
O48 Co32 2.117 1_554 S
O48 C40 1.258 1_545 S
O49 Co32 2.020 1_565 S
O49 C46 1.256 . S
O50 Co30 2.062 . S
O50 C46 1.254 1_554 S
O51 C31 1.259 . S
O51 Co32 2.021 . S
H52 C43 0.930 . S
H53 C42 0.931 . S
O54 Co30 2.117 1_556 S
O54 C31 1.258 1_565 S
O55 Co30 2.020 1_545 S
O55 C57 1.257 . S
O56 Co32 2.062 . S
O56 C57 1.254 1_556 S
C57 O55 1.257 . S
C57 O56 1.254 1_554 S
H58 C37 0.931 . S
H59 C45 0.931 . S
Co60 N65 2.057 1_556 S
Co60 O77 2.021 . S
Co60 O80 2.062 . S
Co60 O84 2.117 1_556 S
Co60 O85 2.020 . S
C61 O81 1.259 . S
C61 O84 1.258 . S
Co62 N71 2.057 1_554 S
Co62 O78 2.117 1_554 S
Co62 O79 2.020 . S
Co62 O81 2.021 . S
Co62 O86 2.062 . S
C63 N65 1.316 1_556 S
C63 N66 1.347 1_556 S
C63 H68 0.931 . S
C64 N65 1.375 . S
C64 C67 1.350 . S
C64 H69 0.930 . S
N65 Co60 2.057 1_554 S
N65 C63 1.316 1_554 S
N65 C64 1.375 . S
N66 C63 1.347 1_554 S
N66 C67 1.373 . S
C67 C64 1.350 . S
C67 N66 1.373 . S
C67 H88 0.931 . S
H68 C63 0.931 . S
H69 C64 0.930 . S
C70 O77 1.259 . S
C70 O78 1.258 . S
N71 Co62 2.057 1_556 S
N71 C72 1.316 1_556 S
N71 C73 1.375 . S
C72 N71 1.316 1_554 S
C72 N74 1.347 1_554 S
C72 H83 0.931 . S
C73 N71 1.375 . S
C73 C75 1.350 . S
C73 H82 0.930 . S
N74 C72 1.347 1_556 S
N74 C75 1.373 . S
C75 C73 1.350 . S
C75 N74 1.373 . S
C75 H89 0.931 . S
C76 O79 1.256 . S
C76 O80 1.254 1_554 S
O77 Co60 2.021 . S
O77 C70 1.259 . S
O78 Co62 2.117 1_556 S
O78 C70 1.258 . S
O79 Co62 2.020 . S
O79 C76 1.256 . S
O80 Co60 2.062 . S
O80 C76 1.254 1_556 S
O81 C61 1.259 . S
O81 Co62 2.021 . S
H82 C73 0.930 . S
H83 C72 0.931 . S
O84 Co60 2.117 1_554 S
O84 C61 1.258 . S
O85 Co60 2.020 . S
O85 C87 1.256 . S
O86 Co62 2.062 . S
O86 C87 1.254 1_554 S
C87 O85 1.256 . S
C87 O86 1.254 1_556 S
H88 C67 0.931 . S
H89 C75 0.931 . S
C90 C91 1.391 1_655 S
C90 C92 1.394 . S
C90 H106 0.931 . S
C91 C90 1.391 1_455 S
C91 C95 1.376 . S
C92 C90 1.394 . S
C92 C93 1.369 1_655 S
C92 C96 1.531 . S
C93 C92 1.369 1_455 S
C93 C94 1.410 . S
C93 C101 1.503 . S
C94 C93 1.410 . S
C94 C95 1.392 . S
C94 C97 1.511 . S
C95 C91 1.376 . S
C95 C94 1.392 . S
C95 H107 0.929 . S
C96 C92 1.531 . S
C96 H108 0.960 . S
C96 H109 0.962 . S
C96 H110 0.960 . S
C97 C94 1.511 . S
C97 H111 0.961 . S
C97 H112 0.961 . S
C97 H113 0.961 . S
C98 C99 1.370 1_655 S
C98 C100 1.363 . S
C98 H114 0.931 . S
C99 C98 1.370 1_455 S
C99 C103 1.408 . S
C100 C98 1.363 . S
C100 C101 1.370 1_655 S
C100 C104 1.524 . S
C101 C93 1.503 . S
C101 C100 1.370 1_455 S
C101 C102 1.403 . S
C102 C101 1.403 . S
C102 C103 1.404 . S
C102 C105 1.539 . S
C103 C99 1.408 . S
C103 C102 1.404 . S
C103 H115 0.930 . S
C104 C100 1.524 . S
C104 H116 0.956 . S
C104 H117 0.961 . S
C104 H118 0.961 . S
C105 C102 1.539 . S
C105 H119 0.958 . S
C105 H120 0.961 . S
C105 H121 0.960 . S
H106 C90 0.931 . S
H107 C95 0.929 . S
H108 C96 0.960 . S
H109 C96 0.962 . S
H110 C96 0.960 . S
H111 C97 0.961 . S
H112 C97 0.961 . S
H113 C97 0.961 . S
H114 C98 0.931 . S
H115 C103 0.930 . S
H116 C104 0.956 . S
H117 C104 0.961 . S
H118 C104 0.961 . S
H119 C105 0.958 . S
H120 C105 0.961 . S
H121 C105 0.960 . S
C122 C123 1.401 . S
C122 C124 1.394 . S
C122 H138 0.931 . S
C123 C122 1.401 . S
C123 C127 1.370 1_545 S
C124 C122 1.394 . S
C124 C125 1.369 . S
C124 C128 1.531 . S
C125 C124 1.369 . S
C125 C126 1.410 1_545 S
C125 C133 1.503 . S
C126 C125 1.410 1_565 S
C126 C127 1.392 . S
C126 C129 1.511 . S
C127 C123 1.370 1_565 S
C127 C126 1.392 . S
C127 H139 0.929 . S
C128 C124 1.531 . S
C128 H140 0.960 . S
C128 H141 0.962 . S
C128 H142 0.960 . S
C129 C126 1.511 . S
C129 H143 0.961 . S
C129 H144 0.961 . S
C129 H145 0.961 . S
C130 C131 1.370 1_565 S
C130 C132 1.363 . S
C130 H146 0.931 . S
C131 C130 1.370 1_545 S
C131 C135 1.408 . S
C132 C130 1.363 . S
C132 C133 1.370 1_565 S
C132 C136 1.524 . S
C133 C125 1.503 . S
C133 C132 1.370 1_545 S
C133 C134 1.403 . S
C134 C133 1.403 . S
C134 C135 1.404 . S
C134 C137 1.539 . S
C135 C131 1.408 . S
C135 C134 1.404 . S
C135 H147 0.930 . S
C136 C132 1.524 . S
C136 H148 0.956 . S
C136 H149 0.961 . S
C136 H150 0.961 . S
C137 C134 1.539 . S
C137 H151 0.958 . S
C137 H152 0.961 . S
C137 H153 0.960 . S
H138 C122 0.931 . S
H139 C127 0.929 . S
H140 C128 0.960 . S
H141 C128 0.962 . S
H142 C128 0.960 . S
H143 C129 0.961 . S
H144 C129 0.961 . S
H145 C129 0.961 . S
H146 C130 0.931 . S
H147 C135 0.930 . S
H148 C136 0.956 . S
H149 C136 0.961 . S
H150 C136 0.961 . S
H151 C137 0.958 . S
H152 C137 0.961 . S
H153 C137 0.960 . S
C154 C155 1.391 . S
C154 C156 1.394 . S
C154 H170 0.931 . S
C155 C154 1.391 . S
C155 C159 1.376 . S
C156 C154 1.394 . S
C156 C157 1.369 . S
C156 C160 1.531 . S
C157 C156 1.369 . S
C157 C158 1.410 . S
C157 C165 1.503 . S
C158 C157 1.410 . S
C158 C159 1.392 . S
C158 C161 1.511 . S
C159 C155 1.376 . S
C159 C158 1.392 . S
C159 H171 0.929 . S
C160 C156 1.531 . S
C160 H172 0.960 . S
C160 H173 0.962 . S
C160 H174 0.960 . S
C161 C158 1.511 . S
C161 H175 0.961 . S
C161 H176 0.961 . S
C161 H177 0.961 . S
C162 C163 1.370 . S
C162 C164 1.363 . S
C162 H178 0.931 . S
C163 C162 1.370 . S
C163 C167 1.408 . S
C164 C162 1.363 . S
C164 C165 1.370 . S
C164 C168 1.524 . S
C165 C157 1.503 . S
C165 C164 1.370 . S
C165 C166 1.403 . S
C166 C165 1.403 . S
C166 C167 1.404 . S
C166 C169 1.539 . S
C167 C163 1.408 . S
C167 C166 1.404 . S
C167 H179 0.930 . S
C168 C164 1.524 . S
C168 H180 0.956 . S
C168 H181 0.961 . S
C168 H182 0.961 . S
C169 C166 1.539 . S
C169 H183 0.958 . S
C169 H184 0.961 . S
C169 H185 0.960 . S
H170 C154 0.931 . S
H171 C159 0.929 . S
H172 C160 0.960 . S
H173 C160 0.962 . S
H174 C160 0.960 . S
H175 C161 0.961 . S
H176 C161 0.961 . S
H177 C161 0.961 . S
H178 C162 0.931 . S
H179 C167 0.930 . S
H180 C168 0.956 . S
H181 C168 0.961 . S
H182 C168 0.961 . S
H183 C169 0.958 . S
H184 C169 0.961 . S
H185 C169 0.960 . S
C186 C187 1.391 . S
C186 C188 1.394 . S
C186 H202 0.931 . S
C187 C186 1.391 . S
C187 C191 1.376 1_556 S
C188 C186 1.394 . S
C188 C189 1.369 . S
C188 C192 1.531 . S
C189 C188 1.369 . S
C189 C190 1.410 1_556 S
C189 C197 1.503 . S
C190 C189 1.410 1_554 S
C190 C191 1.392 . S
C190 C193 1.511 . S
C191 C187 1.376 1_554 S
C191 C190 1.392 . S
C191 H203 0.929 . S
C192 C188 1.531 . S
C192 H204 0.960 . S
C192 H205 0.962 . S
C192 H206 0.960 . S
C193 C190 1.511 . S
C193 H207 0.961 . S
C193 H208 0.961 . S
C193 H209 0.961 . S
C194 C195 1.370 1_554 S
C194 C196 1.363 . S
C194 H210 0.931 . S
C195 C194 1.370 1_556 S
C195 C199 1.408 . S
C196 C194 1.363 . S
C196 C197 1.370 1_554 S
C196 C200 1.524 . S
C197 C189 1.503 . S
C197 C196 1.370 1_556 S
C197 C198 1.403 . S
C198 C197 1.403 . S
C198 C199 1.404 . S
C198 C201 1.539 . S
C199 C195 1.408 . S
C199 C198 1.404 . S
C199 H211 0.930 . S
C200 C196 1.524 . S
C200 H212 0.956 . S
C200 H213 0.961 . S
C200 H214 0.961 . S
C201 C198 1.539 . S
C201 H215 0.958 . S
C201 H216 0.961 . S
C201 H217 0.960 . S
H202 C186 0.931 . S
H203 C191 0.929 . S
H204 C192 0.960 . S
H205 C192 0.962 . S
H206 C192 0.960 . S
H207 C193 0.961 . S
H208 C193 0.961 . S
H209 C193 0.961 . S
H210 C194 0.931 . S
H211 C199 0.930 . S
H212 C200 0.956 . S
H213 C200 0.961 . S
H214 C200 0.961 . S
H215 C201 0.958 . S
H216 C201 0.961 . S
H217 C201 0.960 . S
C218 C219 1.391 . S
C218 C220 1.394 . S
C218 H234 0.931 . S
C219 C218 1.391 . S
C219 C223 1.376 1_556 S
C220 C218 1.394 . S
C220 C221 1.369 . S
C220 C224 1.531 . S
C221 C220 1.369 . S
C221 C222 1.410 1_556 S
C221 C229 1.503 . S
C222 C221 1.410 1_554 S
C222 C223 1.392 . S
C222 C225 1.511 . S
C223 C219 1.376 1_554 S
C223 C222 1.392 . S
C223 H235 0.929 . S
C224 C220 1.531 . S
C224 H236 0.960 . S
C224 H237 0.962 . S
C224 H238 0.960 . S
C225 C222 1.511 . S
C225 H239 0.961 . S
C225 H240 0.961 . S
C225 H241 0.961 1_554 S
C226 C227 1.370 1_554 S
C226 C228 1.363 . S
C226 H242 0.931 . S
C227 C226 1.370 1_556 S
C227 C231 1.408 . S
C228 C226 1.363 . S
C228 C229 1.370 1_554 S
C228 C232 1.524 . S
C229 C221 1.503 . S
C229 C228 1.370 1_556 S
C229 C230 1.403 . S
C230 C229 1.403 . S
C230 C231 1.404 . S
C230 C233 1.539 . S
C231 C227 1.408 . S
C231 C230 1.404 . S
C231 H243 0.930 . S
C232 C228 1.524 . S
C232 H244 0.956 . S
C232 H245 0.961 . S
C232 H246 0.961 . S
C233 C230 1.539 . S
C233 H247 0.958 . S
C233 H248 0.961 . S
C233 H249 0.960 . S
H234 C218 0.931 . S
H235 C223 0.929 . S
H236 C224 0.960 . S
H237 C224 0.962 . S
H238 C224 0.960 . S
H239 C225 0.961 . S
H240 C225 0.961 . S
H241 C225 0.961 1_556 S
H242 C226 0.931 . S
H243 C231 0.930 . S
H244 C232 0.956 . S
H245 C232 0.961 . S
H246 C232 0.961 . S
H247 C233 0.958 . S
H248 C233 0.961 . S
H249 C233 0.960 . S
C250 C251 1.391 . S
C250 C252 1.394 . S
C250 H266 0.931 . S
C251 C250 1.391 . S
C251 C255 1.376 1_554 S
C252 C250 1.394 . S
C252 C253 1.369 . S
C252 C256 1.531 . S
C253 C252 1.369 . S
C253 C254 1.410 1_554 S
C253 C261 1.503 . S
C254 C253 1.410 1_556 S
C254 C255 1.392 . S
C254 C257 1.511 . S
C255 C251 1.376 1_556 S
C255 C254 1.392 . S
C255 H267 0.929 . S
C256 C252 1.531 . S
C256 H268 0.960 . S
C256 H269 0.962 . S
C256 H270 0.960 . S
C257 C254 1.511 . S
C257 H271 0.961 . S
C257 H272 0.961 . S
C257 H273 0.961 . S
C258 C259 1.370 1_556 S
C258 C260 1.363 . S
C258 H274 0.931 . S
C259 C258 1.370 1_554 S
C259 C263 1.408 . S
C260 C258 1.363 . S
C260 C261 1.370 1_556 S
C260 C264 1.524 . S
C261 C253 1.503 . S
C261 C260 1.370 1_554 S
C261 C262 1.403 . S
C262 C261 1.403 . S
C262 C263 1.404 . S
C262 C265 1.539 . S
C263 C259 1.408 . S
C263 C262 1.404 . S
C263 H275 0.930 . S
C264 C260 1.524 . S
C264 H276 0.956 . S
C264 H277 0.961 . S
C264 H278 0.961 . S
C265 C262 1.539 . S
C265 H279 0.958 . S
C265 H280 0.961 . S
C265 H281 0.960 . S
H266 C250 0.931 . S
H267 C255 0.929 . S
H268 C256 0.960 . S
H269 C256 0.962 . S
H270 C256 0.960 . S
H271 C257 0.961 . S
H272 C257 0.961 . S
H273 C257 0.961 . S
H274 C258 0.931 . S
H275 C263 0.930 . S
H276 C264 0.956 . S
H277 C264 0.961 . S
H278 C264 0.961 . S
H279 C265 0.958 . S
H280 C265 0.961 . S
H281 C265 0.960 . S
C282 C283 1.391 . S
C282 C284 1.394 . S
C282 H298 0.931 . S
C283 C282 1.391 . S
C283 C287 1.377 . S
C284 C282 1.394 . S
C284 C285 1.369 . S
C284 C288 1.531 . S
C285 C284 1.369 . S
C285 C286 1.410 . S
C285 C293 1.503 . S
C286 C285 1.410 . S
C286 C287 1.393 . S
C286 C289 1.510 1_554 S
C287 C283 1.377 . S
C287 C286 1.393 . S
C287 H299 0.927 1_554 S
C288 C284 1.531 . S
C288 H300 0.960 . S
C288 H301 0.962 1_554 S
C288 H302 0.960 . S
C289 C286 1.510 1_556 S
C289 H303 0.967 . S
C289 H304 0.965 . S
C289 H305 0.951 1_556 S
C290 C291 1.370 1_556 S
C290 C292 1.363 . S
C290 H306 0.931 . S
C291 C290 1.370 1_554 S
C291 C295 1.408 . S
C292 C290 1.363 . S
C292 C293 1.370 1_556 S
C292 C296 1.524 . S
C293 C285 1.503 . S
C293 C292 1.370 1_554 S
C293 C294 1.403 . S
C294 C293 1.403 . S
C294 C295 1.404 . S
C294 C297 1.539 . S
C295 C291 1.408 . S
C295 C294 1.404 . S
C295 H307 0.930 . S
C296 C292 1.524 . S
C296 H308 0.956 . S
C296 H309 0.961 . S
C296 H310 0.961 . S
C297 C294 1.539 . S
C297 H311 0.958 . S
C297 H312 0.961 . S
C297 H313 0.960 . S
H298 C282 0.931 . S
H299 C287 0.927 1_556 S
H300 C288 0.960 . S
H301 C288 0.962 1_556 S
H302 C288 0.960 . S
H303 C289 0.967 . S
H304 C289 0.965 . S
H305 C289 0.951 1_554 S
H306 C290 0.931 . S
H307 C295 0.930 . S
H308 C296 0.956 . S
H309 C296 0.961 . S
H310 C296 0.961 . S
H311 C297 0.958 . S
H312 C297 0.961 . S
H313 C297 0.960 . S
C314 C315 1.391 . S
C314 C316 1.394 . S
C314 H330 0.931 . S
C315 C314 1.391 . S
C315 C319 1.376 1_556 S
C316 C314 1.394 . S
C316 C317 1.369 . S
C316 C320 1.531 . S
C317 C316 1.369 . S
C317 C318 1.410 1_556 S
C317 C325 1.503 . S
C318 C317 1.410 1_554 S
C318 C319 1.392 . S
C318 C321 1.511 . S
C319 C315 1.376 1_554 S
C319 C318 1.392 . S
C319 H331 0.929 . S
C320 C316 1.531 . S
C320 H332 0.960 . S
C320 H333 0.962 . S
C320 H334 0.960 . S
C321 C318 1.511 . S
C321 H335 0.961 . S
C321 H336 0.961 . S
C321 H337 0.961 . S
C322 C323 1.370 1_554 S
C322 C324 1.363 . S
C322 H338 0.931 . S
C323 C322 1.370 1_556 S
C323 C327 1.408 . S
C324 C322 1.363 . S
C324 C325 1.370 1_554 S
C324 C328 1.524 . S
C325 C317 1.503 . S
C325 C324 1.370 1_556 S
C325 C326 1.403 . S
C326 C325 1.403 . S
C326 C327 1.404 . S
C326 C329 1.539 . S
C327 C323 1.408 . S
C327 C326 1.404 . S
C327 H339 0.930 . S
C328 C324 1.524 . S
C328 H340 0.956 . S
C328 H341 0.961 . S
C328 H342 0.961 . S
C329 C326 1.539 . S
C329 H343 0.958 . S
C329 H344 0.961 . S
C329 H345 0.960 . S
H330 C314 0.931 . S
H331 C319 0.929 . S
H332 C320 0.960 . S
H333 C320 0.962 . S
H334 C320 0.960 . S
H335 C321 0.961 . S
H336 C321 0.961 . S
H337 C321 0.961 . S
H338 C322 0.931 . S
H339 C327 0.930 . S
H340 C328 0.956 . S
H341 C328 0.961 . S
H342 C328 0.961 . S
H343 C329 0.958 . S
H344 C329 0.961 . S
H345 C329 0.960 . S
C346 C347 1.391 1_554 S
C346 C348 1.394 . S
C346 H362 0.931 . S
C347 C346 1.391 1_556 S
C347 C351 1.376 . S
C348 C346 1.394 . S
C348 C349 1.369 . S
C348 C352 1.531 . S
C349 C348 1.369 . S
C349 C350 1.410 1_554 S
C349 C357 1.503 1_554 S
C350 C349 1.410 1_556 S
C350 C351 1.392 . S
C350 C353 1.511 . S
C351 C347 1.376 . S
C351 C350 1.392 . S
C351 H363 0.929 . S
C352 C348 1.531 . S
C352 H364 0.960 . S
C352 H365 0.962 . S
C352 H366 0.960 . S
C353 C350 1.511 . S
C353 H367 0.961 . S
C353 H368 0.961 . S
C353 H369 0.961 . S
C354 C355 1.370 . S
C354 C356 1.363 . S
C354 H370 0.931 . S
C355 C354 1.370 . S
C355 C359 1.408 1_556 S
C356 C354 1.363 . S
C356 C357 1.370 . S
C356 C360 1.524 . S
C357 C349 1.503 1_556 S
C357 C356 1.370 . S
C357 C358 1.403 1_556 S
C358 C357 1.403 1_554 S
C358 C359 1.404 . S
C358 C361 1.539 . S
C359 C355 1.408 1_554 S
C359 C358 1.404 . S
C359 H371 0.930 . S
C360 C356 1.524 . S
C360 H372 0.956 . S
C360 H373 0.961 . S
C360 H374 0.961 . S
C361 C358 1.539 . S
C361 H375 0.958 . S
C361 H376 0.961 . S
C361 H377 0.960 . S
H362 C346 0.931 . S
H363 C351 0.929 . S
H364 C352 0.960 . S
H365 C352 0.962 . S
H366 C352 0.960 . S
H367 C353 0.961 . S
H368 C353 0.961 . S
H369 C353 0.961 . S
H370 C354 0.931 . S
H371 C359 0.930 . S
H372 C360 0.956 . S
H373 C360 0.961 . S
H374 C360 0.961 . S
H375 C361 0.958 . S
H376 C361 0.961 . S
H377 C361 0.960 . S
C91 C1 1.484 . S
C99 C10 1.498 1_455 S
C123 C40 1.497 1_545 S
C131 C31 1.497 . S
C155 C70 1.494 . S
C163 C61 1.501 . S
C187 C27 1.609 . S
C195 C87 1.599 . S
C219 C57 1.112 1_556 S
C227 N6 1.112 . S
C251 N36 0.788 1_554 S
C259 N74 0.785 1_554 S
C283 C16 1.609 . S
C291 C76 1.610 . S
C315 N14 1.133 1_556 S
C323 C46 1.137 . S
C347 N66 0.722 1_556 S
C355 N44 0.753 1_556 S
